
#######################################################################
#
#                 Cambridge Crystallographic Data Centre
#                                CCDC 
#
#######################################################################
#
# If this CIF has been generated from an entry in the Cambridge 
# Structural Database, then it will include bibliographic, chemical, 
# crystal, experimental, refinement or atomic coordinate data resulting 
# from the CCDC's data processing and validation procedures.
#
#######################################################################

data_WAFBEL
_chemical_formula_moiety         'C23 H19 Br1 N2 O5'
_chemical_name_systematic        
(3aSR,4RS,8aSR,8bRS)-2-((benzo(1,3)dioxol-5-yl)methyl)-4-(4-bromophenyl)-2,3,3a,4,5,6,7,8,8a,8b-decahydro-1H-pyrrolo(3,4-a)pyrrolizine-1,3,7-trione
_symmetry_cell_setting           monoclinic
_symmetry_space_group_name_H-M   'P 21/n'
_symmetry_Int_Tables_number      14
_space_group_name_Hall           '-P 2yn'
loop_
_symmetry_equiv_pos_site_id
_symmetry_equiv_pos_as_xyz
1 x,y,z
2 1/2+x,1/2-y,1/2+z
3 -x,-y,-z
4 1/2-x,1/2+y,1/2-z
_cell_length_a                   10.6776(2)
_cell_length_b                   17.0057(3)
_cell_length_c                   11.0834(2)
_cell_angle_alpha                90
_cell_angle_beta                 93.550(1)
_cell_angle_gamma                90
_cell_volume                     2008.66
_exptl_crystal_colour            colorless
_chemical_melting_point          '169 deg.C'
_cell_formula_units_Z            4
loop_
_atom_site_label
_atom_site_type_symbol
_atom_site_fract_x
_atom_site_fract_y
_atom_site_fract_z
Br1 Br 0.59544(2) 0.407409(18) 0.61206(2)
C1 C 0.45525(18) 0.33952(14) 0.62502(18)
C2 C 0.3362(2) 0.36944(13) 0.60293(19)
H1 H 0.3244 0.4223 0.5802
C3 C 0.23387(18) 0.32024(12) 0.61478(19)
H2 H 0.1523 0.3403 0.5998
C4 C 0.24956(17) 0.24231(12) 0.64821(16)
C5 C 0.37120(18) 0.21347(13) 0.66778(17)
H3 H 0.3835 0.1603 0.6886
C6 C 0.47459(18) 0.26199(14) 0.65703(18)
H4 H 0.5564 0.2422 0.6714
C7 C 0.13752(16) 0.18964(11) 0.66825(16)
H5 H 0.1590 0.1349 0.6470
N1 N 0.02550(14) 0.21441(10) 0.59239(13)
C8 C -0.08563(17) 0.18098(11) 0.64843(16)
H6 H -0.1607 0.2132 0.6259
C9 C -0.05228(17) 0.18856(12) 0.78397(16)
H7 H -0.0870 0.1443 0.8295
C10 C 0.09210(16) 0.19076(11) 0.79928(16)
H8 H 0.1246 0.1446 0.8457
C11 C 0.02253(19) 0.18088(13) 0.46932(17)
H9 H 0.1079 0.1704 0.4458
H10 H -0.0179 0.2175 0.4108
C12 C -0.0522(2) 0.10458(13) 0.47307(19)
C13 C -0.1032(2) 0.09819(12) 0.59709(19)
H11 H -0.0558 0.0596 0.6471
H12 H -0.1920 0.0832 0.5913
O1 O -0.07089(16) 0.05892(10) 0.39037(14)
C14 C 0.12107(17) 0.26593(12) 0.86824(16)
N2 N 0.01102(15) 0.30806(10) 0.87582(14)
C15 C -0.09432(18) 0.26724(12) 0.83139(17)
O2 O -0.19994(14) 0.29191(10) 0.83077(15)
O3 O 0.22206(13) 0.28746(9) 0.91232(13)
C16 C 0.0046(2) 0.38655(12) 0.92963(19)
H13 H 0.0793 0.3954 0.9838
H14 H -0.0692 0.3897 0.9778
C17 C -0.00357(19) 0.44979(12) 0.83369(18)
C18 C 0.10451(19) 0.47213(12) 0.77540(19)
H15 H 0.1837 0.4507 0.7979
C19 C 0.08903(18) 0.52610(12) 0.68492(19)
C20 C -0.02566(19) 0.56082(12) 0.65363(19)
C21 C -0.1318(2) 0.54085(14) 0.7101(2)
H16 H -0.2096 0.5646 0.6891
C22 C -0.11890(19) 0.48380(13) 0.8000(2)
H17 H -0.1903 0.4678 0.8391
O4 O 0.17916(14) 0.55803(10) 0.61536(16)
C23 C 0.1132(2) 0.61130(14) 0.5331(2)
H18 H 0.1521 0.6635 0.5384
H19 H 0.1163 0.5922 0.4500
O5 O -0.01316(15) 0.61567(11) 0.56558(16)
loop_
_geom_bond_atom_site_label_1
_geom_bond_atom_site_label_2
_geom_bond_site_symmetry_1
_geom_bond_site_symmetry_2
Br1 C1 1_555 1_555
C1 C2 1_555 1_555
C2 H1 1_555 1_555
C3 C2 1_555 1_555
H2 C3 1_555 1_555
C4 C3 1_555 1_555
C5 C4 1_555 1_555
H3 C5 1_555 1_555
C6 C1 1_555 1_555
H4 C6 1_555 1_555
C7 C4 1_555 1_555
H5 C7 1_555 1_555
N1 C7 1_555 1_555
C8 N1 1_555 1_555
H6 C8 1_555 1_555
C9 C8 1_555 1_555
H7 C9 1_555 1_555
C10 C7 1_555 1_555
H8 C10 1_555 1_555
C11 N1 1_555 1_555
H9 C11 1_555 1_555
H10 C11 1_555 1_555
C12 C11 1_555 1_555
C13 C8 1_555 1_555
H11 C13 1_555 1_555
H12 C13 1_555 1_555
O1 C12 1_555 1_555
C14 C10 1_555 1_555
N2 C14 1_555 1_555
C15 C9 1_555 1_555
O2 C15 1_555 1_555
O3 C14 1_555 1_555
C16 N2 1_555 1_555
H13 C16 1_555 1_555
H14 C16 1_555 1_555
C17 C16 1_555 1_555
C18 C17 1_555 1_555
H15 C18 1_555 1_555
C19 C18 1_555 1_555
C20 C19 1_555 1_555
C21 C20 1_555 1_555
H16 C21 1_555 1_555
C22 C17 1_555 1_555
H17 C22 1_555 1_555
O4 C19 1_555 1_555
C23 O4 1_555 1_555
H18 C23 1_555 1_555
H19 C23 1_555 1_555
O5 C20 1_555 1_555
C5 C6 1_555 1_555
C9 C10 1_555 1_555
C12 C13 1_555 1_555
N2 C15 1_555 1_555
C21 C22 1_555 1_555
C23 O5 1_555 1_555

#END
