
#######################################################################
#
#                 Cambridge Crystallographic Data Centre
#                                CCDC 
#
#######################################################################
#
# If this CIF has been generated from an entry in the Cambridge 
# Structural Database, then it will include bibliographic, chemical, 
# crystal, experimental, refinement or atomic coordinate data resulting 
# from the CCDC's data processing and validation procedures.
#
#######################################################################

data_WAFBOW
_chemical_name_common            
2-Amino-4-(3-fluorophenyl)-6-(1-naphthyl)nicotinonitrile
_chemical_formula_moiety         'C22 H14 F1 N3'
_chemical_name_systematic        
2-Amino-4-(3-fluorophenyl)-6-(naphthalen-1-yl)pyridine-3-carbonitrile
_symmetry_cell_setting           triclinic
_symmetry_space_group_name_H-M   'P -1'
_symmetry_Int_Tables_number      2
_space_group_name_Hall           '-P 1'
loop_
_symmetry_equiv_pos_site_id
_symmetry_equiv_pos_as_xyz
1 x,y,z
2 -x,-y,-z
_cell_length_a                   11.750(2)
_cell_length_b                   12.703(3)
_cell_length_c                   13.457(3)
_cell_angle_alpha                73.33(3)
_cell_angle_beta                 86.82(3)
_cell_angle_gamma                63.98(3)
_cell_volume                     1723.36
_exptl_crystal_colour            colorless
_exptl_crystal_description       block
_cell_formula_units_Z            4
loop_
_atom_site_label
_atom_site_type_symbol
_atom_site_fract_x
_atom_site_fract_y
_atom_site_fract_z
F1 F 0.0789(2) 0.84614(19) 0.70934(14)
N1 N 0.14789(18) 0.52342(18) 0.30964(16)
N2 N -0.0617(2) 0.5757(2) 0.33579(19)
H1 H -0.0587 0.5252 0.3035
H2 H -0.1314 0.6168 0.3597
N3 N -0.1749(2) 0.7921(2) 0.4670(2)
C1 C 0.4154(2) 0.5319(3) 0.1941(2)
H3 H 0.3824 0.6163 0.1802
C2 C 0.5166(3) 0.4717(3) 0.1393(2)
H4 H 0.5491 0.5162 0.0892
C3 C 0.5665(3) 0.3487(3) 0.1598(2)
H5 H 0.6329 0.3096 0.1225
C4 C 0.5205(2) 0.2784(3) 0.2362(2)
C5 C 0.5736(3) 0.1498(3) 0.2592(3)
H6 H 0.6404 0.1097 0.2229
C6 C 0.5285(3) 0.0841(3) 0.3335(3)
H7 H 0.5630 -0.0004 0.3466
C7 C 0.4306(3) 0.1425(3) 0.3905(2)
H8 H 0.4015 0.0964 0.4426
C8 C 0.3770(2) 0.2665(2) 0.37059(19)
H9 H 0.3121 0.3038 0.4097
C9 C 0.4182(2) 0.3390(2) 0.29187(18)
C10 C 0.3645(2) 0.4693(2) 0.26713(18)
C11 C 0.2517(2) 0.5404(2) 0.31648(17)
C12 C 0.0431(2) 0.5904(2) 0.34890(19)
C13 C 0.0410(2) 0.6724(2) 0.40287(18)
C14 C 0.1493(2) 0.6890(2) 0.41083(17)
C15 C 0.2547(2) 0.6228(2) 0.36471(18)
H10 H 0.3280 0.6335 0.3660
C16 C 0.1532(2) 0.7746(2) 0.46487(18)
C17 C 0.1095(2) 0.7728(2) 0.56394(19)
H11 H 0.0743 0.7201 0.5964
C18 C 0.1196(3) 0.8499(3) 0.6121(2)
C19 C 0.1671(3) 0.9304(3) 0.5684(2)
H12 H 0.1716 0.9821 0.6033
C20 C 0.2090(3) 0.9333(3) 0.4696(3)
H13 H 0.2413 0.9884 0.4373
C21 C 0.2032(2) 0.8552(2) 0.4187(2)
H14 H 0.2332 0.8571 0.3531
C22 C -0.0769(3) 0.7401(2) 0.4407(2)
F2 F 1.1717(2) 0.0812(2) -0.19963(18)
N4 N 0.93059(18) 0.46094(17) 0.16255(15)
N5 N 1.12797(19) 0.3232(2) 0.24295(18)
H15 H 1.1201 0.3707 0.2799
H16 H 1.1960 0.2556 0.2515
N6 N 1.2344(2) 0.0654(2) 0.1625(2)
C23 C 0.6735(2) 0.6982(2) -0.0081(2)
H17 H 0.7082 0.6797 -0.0683
C24 C 0.5719(3) 0.8136(2) -0.0161(2)
H18 H 0.5402 0.8702 -0.0812
C25 C 0.5195(3) 0.8432(2) 0.0703(2)
H19 H 0.4539 0.9208 0.0639
C26 C 0.5635(2) 0.7576(2) 0.1697(2)
C27 C 0.5086(3) 0.7860(3) 0.2608(2)
H20 H 0.4458 0.8646 0.2555
C28 C 0.5453(3) 0.7015(3) 0.3551(2)
H21 H 0.5096 0.7221 0.4142
C29 C 0.6378(3) 0.5825(3) 0.3629(2)
H22 H 0.6602 0.5231 0.4272
C30 C 0.6958(2) 0.5522(2) 0.27764(19)
H23 H 0.7575 0.4726 0.2850
C31 C 0.6637(2) 0.6395(2) 0.17865(18)
C32 C 0.7222(2) 0.6128(2) 0.08634(18)
C33 C 0.8349(2) 0.4955(2) 0.09160(18)
C34 C 1.0336(2) 0.3545(2) 0.17145(19)
C35 C 1.0429(2) 0.2773(2) 0.11042(18)
C36 C 0.9455(2) 0.3158(2) 0.03418(18)
C37 C 0.8406(2) 0.4266(2) 0.02531(18)
H24 H 0.7740 0.4553 -0.0246
C38 C 0.9551(2) 0.2384(2) -0.03374(18)
C39 C 1.0620(3) 0.1951(3) -0.0867(2)
H25 H 1.1287 0.2146 -0.0818
C40 C 1.0671(3) 0.1222(3) -0.1472(2)
C41 C 0.9727(4) 0.0891(3) -0.1559(2)
H26 H 0.9803 0.0381 -0.1961
C42 C 0.8678(3) 0.1329(3) -0.1043(2)
H27 H 0.8017 0.1127 -0.1098
C43 C 0.8581(3) 0.2075(2) -0.0435(2)
H28 H 0.7854 0.2371 -0.0087
C44 C 1.1486(2) 0.1592(2) 0.1355(2)
loop_
_geom_bond_atom_site_label_1
_geom_bond_atom_site_label_2
_geom_bond_site_symmetry_1
_geom_bond_site_symmetry_2
F1 C18 1_555 1_555
N1 C11 1_555 1_555
N2 H1 1_555 1_555
H2 N2 1_555 1_555
N3 C22 1_555 1_555
C1 H3 1_555 1_555
C2 C1 1_555 1_555
H4 C2 1_555 1_555
C3 C2 1_555 1_555
H5 C3 1_555 1_555
C4 C3 1_555 1_555
C5 C4 1_555 1_555
H6 C5 1_555 1_555
C6 C5 1_555 1_555
H7 C6 1_555 1_555
C7 C6 1_555 1_555
H8 C7 1_555 1_555
C8 C7 1_555 1_555
H9 C8 1_555 1_555
C9 C4 1_555 1_555
C10 C1 1_555 1_555
C11 C10 1_555 1_555
C12 N1 1_555 1_555
C13 C12 1_555 1_555
C14 C13 1_555 1_555
C15 C11 1_555 1_555
H10 C15 1_555 1_555
C16 C14 1_555 1_555
C17 C16 1_555 1_555
H11 C17 1_555 1_555
C18 C17 1_555 1_555
C19 C18 1_555 1_555
H12 C19 1_555 1_555
C20 C19 1_555 1_555
H13 C20 1_555 1_555
C21 C16 1_555 1_555
H14 C21 1_555 1_555
C22 C13 1_555 1_555
F2 C40 1_555 1_555
N4 C33 1_555 1_555
N5 H15 1_555 1_555
H16 N5 1_555 1_555
N6 C44 1_555 1_555
C23 H17 1_555 1_555
C24 C23 1_555 1_555
H18 C24 1_555 1_555
C25 C24 1_555 1_555
H19 C25 1_555 1_555
C26 C25 1_555 1_555
C27 C26 1_555 1_555
H20 C27 1_555 1_555
C28 C27 1_555 1_555
H21 C28 1_555 1_555
C29 C28 1_555 1_555
H22 C29 1_555 1_555
C30 C29 1_555 1_555
H23 C30 1_555 1_555
C31 C26 1_555 1_555
C32 C23 1_555 1_555
C33 C32 1_555 1_555
C34 N4 1_555 1_555
C35 C34 1_555 1_555
C36 C35 1_555 1_555
C37 C33 1_555 1_555
H24 C37 1_555 1_555
C38 C36 1_555 1_555
C39 C38 1_555 1_555
H25 C39 1_555 1_555
C40 C39 1_555 1_555
C41 C40 1_555 1_555
H26 C41 1_555 1_555
C42 C41 1_555 1_555
H27 C42 1_555 1_555
C43 C38 1_555 1_555
H28 C43 1_555 1_555
C44 C35 1_555 1_555
N2 C12 1_555 1_555
C8 C9 1_555 1_555
C9 C10 1_555 1_555
C14 C15 1_555 1_555
C20 C21 1_555 1_555
N5 C34 1_555 1_555
C30 C31 1_555 1_555
C31 C32 1_555 1_555
C36 C37 1_555 1_555
C42 C43 1_555 1_555

#END
