
#######################################################################
#
#                 Cambridge Crystallographic Data Centre
#                                CCDC 
#
#######################################################################
#
# If this CIF has been generated from an entry in the Cambridge 
# Structural Database, then it will include bibliographic, chemical, 
# crystal, experimental, refinement or atomic coordinate data resulting 
# from the CCDC's data processing and validation procedures.
#
#######################################################################

data_WAFBUB
_chemical_formula_moiety         'C26 H29 Br1 N2 O4'
_chemical_name_systematic        
(1R,3aS,4R,7R,8aS,8bR)-2-((benzo(1,3)dioxol-5-yl)methyl)-4-(4-bromophenyl)-2,3,3a,4,5,6,7,8,8a,8b-decahydro-7-hydroxy-1-isopropyl-1H-pyrrolo(3,4-a)pyrrolizin-3-one
_symmetry_cell_setting           orthorhombic
_symmetry_space_group_name_H-M   'P 21 21 21'
_symmetry_Int_Tables_number      19
_space_group_name_Hall           'P 2ac 2ab'
loop_
_symmetry_equiv_pos_site_id
_symmetry_equiv_pos_as_xyz
1 x,y,z
2 1/2-x,-y,1/2+z
3 -x,1/2+y,1/2-z
4 1/2+x,1/2-y,-z
_cell_length_a                   5.1744(1)
_cell_length_b                   18.7267(3)
_cell_length_c                   23.5221(5)
_cell_angle_alpha                90
_cell_angle_beta                 90
_cell_angle_gamma                90
_cell_volume                     2279.28
_exptl_crystal_colour            colorless
_chemical_melting_point          '153-155 deg.C'
_cell_formula_units_Z            4
loop_
_atom_site_label
_atom_site_type_symbol
_atom_site_fract_x
_atom_site_fract_y
_atom_site_fract_z
Br1 Br 0.37581(9) -0.16776(2) 0.107098(18)
C1 C 0.2420(7) -0.08729(17) 0.14682(14)
C2 C 0.0252(7) -0.05212(19) 0.12679(14)
H1 H -0.0650 -0.0691 0.0943
C3 C -0.0579(6) 0.00899(17) 0.15554(13)
H2 H -0.2041 0.0345 0.1420
C4 C 0.0707(6) 0.03287(15) 0.20371(12)
C5 C 0.2841(6) -0.00497(16) 0.22341(14)
H3 H 0.3714 0.0109 0.2566
C6 C 0.3721(7) -0.06589(16) 0.19522(14)
H4 H 0.5171 -0.0918 0.2089
C7 C -0.0152(6) 0.09995(15) 0.23418(13)
H5 H -0.1354 0.1269 0.2087
N1 N 0.2139(5) 0.14547(13) 0.24592(11)
C8 C 0.2782(7) 0.19239(16) 0.19750(13)
H6 H 0.2237 0.1698 0.1614
H7 H 0.4671 0.2005 0.1959
C9 C 0.1356(7) 0.26403(15) 0.20572(13)
H8 H 0.0071 0.2719 0.1746
C10 C -0.0021(7) 0.25698(16) 0.26368(14)
H9 H 0.0161 0.3013 0.2863
H10 H -0.1880 0.2464 0.2586
C11 C 0.1384(6) 0.19416(14) 0.29259(12)
H11 H 0.2959 0.2118 0.3128
O1 O 0.3301(5) 0.31831(12) 0.20487(11)
H12 H 0.2595 0.3586 0.2029
C12 C -0.0218(6) 0.14727(15) 0.33227(12)
H13 H -0.1568 0.1761 0.3522
C13 C -0.1478(6) 0.09051(15) 0.29335(12)
H14 H -0.3384 0.0985 0.2904
C14 C -0.0908(6) 0.01934(15) 0.32169(13)
N2 N 0.0759(5) 0.02925(13) 0.36480(11)
C15 C 0.1428(6) 0.10390(14) 0.37576(12)
H15 H 0.3295 0.1108 0.3662
C16 C 0.1018(6) 0.12592(16) 0.43818(12)
H16 H 0.2213 0.0964 0.4620
C17 C 0.1771(7) 0.20430(17) 0.44653(15)
H17 H 0.3540 0.2118 0.4329
H18 H 0.1673 0.2164 0.4870
H19 H 0.0583 0.2348 0.4250
C18 C -0.1733(7) 0.11166(19) 0.45898(14)
H20 H -0.2157 0.0612 0.4533
H21 H -0.2948 0.1413 0.4375
H22 H -0.1857 0.1233 0.4995
O2 O -0.1797(5) -0.03869(11) 0.30676(10)
C19 C 0.2151(6) -0.03059(16) 0.39159(15)
H23 H 0.3907 -0.0140 0.4019
H24 H 0.2347 -0.0691 0.3631
C20 C 0.0896(7) -0.06177(16) 0.44411(14)
C21 C 0.1867(7) -0.04640(17) 0.49794(15)
H25 H 0.3292 -0.0147 0.5012
C22 C 0.0818(7) -0.07604(18) 0.54735(14)
H26 H 0.1466 -0.0644 0.5840
C23 C -0.1188(7) -0.12266(15) 0.54033(13)
C24 C -0.2152(6) -0.13915(16) 0.48713(14)
C25 C -0.1194(7) -0.10944(15) 0.43834(13)
H27 H -0.1907 -0.1205 0.4022
O3 O -0.2549(5) -0.15923(13) 0.58144(10)
C26 C -0.4100(8) -0.20956(18) 0.55107(14)
H28 H -0.5885 -0.2096 0.5662
H29 H -0.3376 -0.2582 0.5552
O4 O -0.4104(5) -0.18876(12) 0.49220(10)
loop_
_geom_bond_atom_site_label_1
_geom_bond_atom_site_label_2
_geom_bond_site_symmetry_1
_geom_bond_site_symmetry_2
Br1 C1 1_555 1_555
C1 C2 1_555 1_555
C2 H1 1_555 1_555
C3 C2 1_555 1_555
H2 C3 1_555 1_555
C4 C3 1_555 1_555
C5 C4 1_555 1_555
H3 C5 1_555 1_555
C6 C1 1_555 1_555
H4 C6 1_555 1_555
C7 C4 1_555 1_555
H5 C7 1_555 1_555
N1 C7 1_555 1_555
C8 N1 1_555 1_555
H6 C8 1_555 1_555
H7 C8 1_555 1_555
C9 C8 1_555 1_555
H8 C9 1_555 1_555
C10 C9 1_555 1_555
H9 C10 1_555 1_555
H10 C10 1_555 1_555
C11 N1 1_555 1_555
H11 C11 1_555 1_555
O1 C9 1_555 1_555
H12 O1 1_555 1_555
C12 C11 1_555 1_555
H13 C12 1_555 1_555
C13 C7 1_555 1_555
H14 C13 1_555 1_555
C14 C13 1_555 1_555
N2 C14 1_555 1_555
C15 C12 1_555 1_555
H15 C15 1_555 1_555
C16 C15 1_555 1_555
H16 C16 1_555 1_555
C17 C16 1_555 1_555
H17 C17 1_555 1_555
H18 C17 1_555 1_555
H19 C17 1_555 1_555
C18 C16 1_555 1_555
H20 C18 1_555 1_555
H21 C18 1_555 1_555
H22 C18 1_555 1_555
O2 C14 1_555 1_555
C19 N2 1_555 1_555
H23 C19 1_555 1_555
H24 C19 1_555 1_555
C20 C19 1_555 1_555
C21 C20 1_555 1_555
H25 C21 1_555 1_555
C22 C21 1_555 1_555
H26 C22 1_555 1_555
C23 C22 1_555 1_555
C24 C23 1_555 1_555
C25 C20 1_555 1_555
H27 C25 1_555 1_555
O3 C23 1_555 1_555
C26 O3 1_555 1_555
H28 C26 1_555 1_555
H29 C26 1_555 1_555
O4 C24 1_555 1_555
C5 C6 1_555 1_555
C10 C11 1_555 1_555
C12 C13 1_555 1_555
N2 C15 1_555 1_555
C24 C25 1_555 1_555
C26 O4 1_555 1_555

#END
