
#######################################################################
#
#                 Cambridge Crystallographic Data Centre
#                                CCDC 
#
#######################################################################
#
# If this CIF has been generated from an entry in the Cambridge 
# Structural Database, then it will include bibliographic, chemical, 
# crystal, experimental, refinement or atomic coordinate data resulting 
# from the CCDC's data processing and validation procedures.
#
#######################################################################

data_WAFCOX
_chemical_formula_moiety         'C6 H9 N2 1+,C7 H5 O2 1-'
_chemical_name_systematic        '2-Aminoanilinium benzoate'
_symmetry_cell_setting           orthorhombic
_symmetry_space_group_name_H-M   'P 21 21 21'
_symmetry_Int_Tables_number      19
_space_group_name_Hall           'P 2ac 2ab'
loop_
_symmetry_equiv_pos_site_id
_symmetry_equiv_pos_as_xyz
1 x,y,z
2 1/2-x,-y,1/2+z
3 1/2+x,1/2-y,-z
4 -x,1/2+y,1/2-z
_cell_length_a                   6.0211(12)
_cell_length_b                   12.237(2)
_cell_length_c                   16.639(3)
_cell_angle_alpha                90
_cell_angle_beta                 90
_cell_angle_gamma                90
_cell_volume                     1225.96
_exptl_crystal_colour            colorless
_exptl_crystal_description       block
_cell_formula_units_Z            4
loop_
_atom_site_label
_atom_site_type_symbol
_atom_site_fract_x
_atom_site_fract_y
_atom_site_fract_z
N1 N 0.7176(3) 0.63438(15) 0.49671(11)
H1 H 0.8339 0.6156 0.5267
H2 H 0.6171 0.6679 0.5272
H3 H 0.7617 0.6793 0.4578
N2 N 0.3415(4) 0.65071(19) 0.39767(14)
H4 H 0.4535 0.7109 0.3927
H5 H 0.2137 0.6471 0.3597
C1 C 0.4321(4) 0.5481(2) 0.41353(14)
C2 C 0.6195(4) 0.53644(19) 0.46122(13)
C3 C 0.7065(5) 0.4356(2) 0.47948(17)
H6 H 0.8326 0.4301 0.5115
C4 C 0.6058(8) 0.3428(2) 0.4501(2)
H7 H 0.6638 0.2743 0.4619
C5 C 0.4195(8) 0.3522(3) 0.4032(2)
H8 H 0.3511 0.2895 0.3836
C6 C 0.3325(6) 0.4528(3) 0.38492(18)
H9 H 0.2059 0.4576 0.3531
O1 O 0.8819(3) 0.79093(13) 0.39910(9)
O2 O 0.5619(3) 0.87900(18) 0.39486(13)
C7 C 0.7644(4) 0.8731(2) 0.38177(14)
C8 C 0.8786(4) 0.9670(2) 0.34141(13)
C9 C 0.7821(6) 1.0692(2) 0.33900(17)
H10 H 0.6427 1.0799 0.3618
C10 C 0.8903(8) 1.1555(3) 0.3032(2)
H11 H 0.8253 1.2244 0.3029
C11 C 1.0919(8) 1.1402(3) 0.2682(2)
H12 H 1.1642 1.1986 0.2438
C12 C 1.1892(5) 1.0385(3) 0.26864(17)
H13 H 1.3254 1.0278 0.2435
C13 C 1.0847(4) 0.9529(2) 0.30625(14)
H14 H 1.1531 0.8848 0.3081
loop_
_geom_bond_atom_site_label_1
_geom_bond_atom_site_label_2
_geom_bond_site_symmetry_1
_geom_bond_site_symmetry_2
N1 H1 1_555 1_555
H2 N1 1_555 1_555
H3 N1 1_555 1_555
N2 H4 1_555 1_555
H5 N2 1_555 1_555
C1 N2 1_555 1_555
C2 N1 1_555 1_555
C3 C2 1_555 1_555
H6 C3 1_555 1_555
C4 C3 1_555 1_555
H7 C4 1_555 1_555
C5 C4 1_555 1_555
H8 C5 1_555 1_555
C6 C1 1_555 1_555
H9 C6 1_555 1_555
O1 C7 1_555 1_555
O2 C7 1_555 1_555
C7 C8 1_555 1_555
C8 C9 1_555 1_555
C9 H10 1_555 1_555
C10 C9 1_555 1_555
H11 C10 1_555 1_555
C11 C10 1_555 1_555
H12 C11 1_555 1_555
C12 C11 1_555 1_555
H13 C12 1_555 1_555
C13 C8 1_555 1_555
H14 C13 1_555 1_555
C1 C2 1_555 1_555
C5 C6 1_555 1_555
C12 C13 1_555 1_555

#END
