
#######################################################################
#
#                 Cambridge Crystallographic Data Centre
#                                CCDC 
#
#######################################################################
#
# If this CIF has been generated from an entry in the Cambridge 
# Structural Database, then it will include bibliographic, chemical, 
# crystal, experimental, refinement or atomic coordinate data resulting 
# from the CCDC's data processing and validation procedures.
#
#######################################################################

data_WAFFUG
_chemical_name_common            
"2-((Carboxymethyl)sulfanyl)nicotinic acid 4,4'-bipyridine"
_chemical_formula_moiety         'C8 H7 N1 O4 S1,C10 H8 N2'
_chemical_name_systematic        
"4,4'-Bipyridine 2-(carboxymethylsulfanyl)pyridine-3-carboxylic acid"
_symmetry_cell_setting           monoclinic
_symmetry_space_group_name_H-M   'P 21/c'
_symmetry_Int_Tables_number      14
_space_group_name_Hall           '-P 2ybc'
loop_
_symmetry_equiv_pos_site_id
_symmetry_equiv_pos_as_xyz
1 x,y,z
2 -x,1/2+y,1/2-z
3 -x,-y,-z
4 x,1/2-y,1/2+z
_cell_length_a                   9.3684(3)
_cell_length_b                   10.3044(3)
_cell_length_c                   18.2264(5)
_cell_angle_alpha                90
_cell_angle_beta                 106.494(2)
_cell_angle_gamma                90
_cell_volume                     1687.09
_exptl_crystal_colour            colorless
_exptl_crystal_description       block
_cell_formula_units_Z            4
loop_
_atom_site_label
_atom_site_type_symbol
_atom_site_fract_x
_atom_site_fract_y
_atom_site_fract_z
S1 S 0.58161(5) 0.38154(4) 0.14705(2)
O1 O 0.80222(16) 0.58013(13) -0.00541(8)
H1 H 0.837(2) 0.6539(17) 0.0143(12)
O2 O 0.72352(16) 0.57771(12) 0.09792(7)
O3 O 0.70285(16) 0.13228(12) 0.22294(9)
H2 H 0.740(2) 0.0553(17) 0.2308(13)
O4 O 0.49171(15) 0.02161(13) 0.18621(8)
N1 N 0.52552(13) 0.21214(12) 0.03258(7)
C1 C 0.58945(15) 0.32661(14) 0.05633(7)
C2 C 0.65886(15) 0.40173(13) 0.01174(8)
C3 C 0.65803(17) 0.35450(15) -0.05940(9)
H3 H 0.7020 0.4022 -0.0905
C4 C 0.59198(17) 0.23668(16) -0.08426(8)
H4 H 0.5906 0.2035 -0.1319
C5 C 0.52829(17) 0.17006(15) -0.03640(9)
H5 H 0.4842 0.0904 -0.0530
C6 C 0.73076(16) 0.52758(14) 0.03952(8)
C7 C 0.48104(17) 0.25100(16) 0.17466(8)
H6 H 0.4508 0.2794 0.2187
H7 H 0.3909 0.2367 0.1333
C8 C 0.5588(2) 0.12241(15) 0.19413(9)
N2 N -0.08632(19) -0.19297(15) 0.05293(10)
N3 N 0.16287(17) 0.40694(14) 0.23065(9)
C9 C 0.0353(2) -0.18397(18) 0.11218(13)
H8 H 0.0884 -0.2595 0.1296
C10 C -0.1626(2) -0.0845(2) 0.03031(12)
H9 H -0.2482 -0.0888 -0.0108
C11 C 0.08680(19) -0.07012(17) 0.14907(10)
H10 H 0.1739 -0.0690 0.1893
C12 C -0.12119(17) 0.03452(18) 0.06467(9)
H11 H -0.1787 0.1079 0.0472
C13 C 0.00740(16) 0.04348(15) 0.12563(9)
C14 C 0.05830(16) 0.16981(15) 0.16269(8)
C15 C 0.14430(19) 0.17679(16) 0.23814(9)
H12 H 0.1683 0.1018 0.2675
C16 C 0.02397(18) 0.28557(16) 0.12271(10)
H13 H -0.0352 0.2859 0.0722
C17 C 0.0788(2) 0.39998(17) 0.15887(11)
H14 H 0.0554 0.4768 0.1313
C18 C 0.19387(19) 0.29589(19) 0.26931(9)
H15 H 0.2520 0.2990 0.3200
loop_
_geom_bond_atom_site_label_1
_geom_bond_atom_site_label_2
_geom_bond_site_symmetry_1
_geom_bond_site_symmetry_2
S1 C1 1_555 1_555
O1 H1 1_555 1_555
O2 C6 1_555 1_555
O3 H2 1_555 1_555
O4 C8 1_555 1_555
N1 C1 1_555 1_555
C1 C2 1_555 1_555
C2 C3 1_555 1_555
C3 H3 1_555 1_555
C4 C3 1_555 1_555
H4 C4 1_555 1_555
C5 N1 1_555 1_555
H5 C5 1_555 1_555
C6 O1 1_555 1_555
C7 S1 1_555 1_555
H6 C7 1_555 1_555
H7 C7 1_555 1_555
C8 O3 1_555 1_555
N2 C9 1_555 1_555
N3 C17 1_555 1_555
C9 H8 1_555 1_555
C10 N2 1_555 1_555
H9 C10 1_555 1_555
C11 C9 1_555 1_555
H10 C11 1_555 1_555
C12 C10 1_555 1_555
H11 C12 1_555 1_555
C13 C11 1_555 1_555
C14 C13 1_555 1_555
C15 C14 1_555 1_555
H12 C15 1_555 1_555
C16 C14 1_555 1_555
H13 C16 1_555 1_555
C17 C16 1_555 1_555
H14 C17 1_555 1_555
C18 N3 1_555 1_555
H15 C18 1_555 1_555
C2 C6 1_555 1_555
C4 C5 1_555 1_555
C7 C8 1_555 1_555
C12 C13 1_555 1_555
C15 C18 1_555 1_555

#END
