
#######################################################################
#
#                 Cambridge Crystallographic Data Centre
#                                CCDC 
#
#######################################################################
#
# If this CIF has been generated from an entry in the Cambridge 
# Structural Database, then it will include bibliographic, chemical, 
# crystal, experimental, refinement or atomic coordinate data resulting 
# from the CCDC's data processing and validation procedures.
#
#######################################################################

data_WAFFAM
_chemical_formula_moiety         'C16 H18 N2 O4 S1'
_chemical_name_systematic        
1-(4-Hydroxyphenyl)-3-(3,4,5-trimethoxyphenyl)thiourea
_symmetry_cell_setting           monoclinic
_symmetry_space_group_name_H-M   'P 21/c'
_symmetry_Int_Tables_number      14
_space_group_name_Hall           '-P 2ybc'
loop_
_symmetry_equiv_pos_site_id
_symmetry_equiv_pos_as_xyz
1 x,y,z
2 -x,1/2+y,1/2-z
3 -x,-y,-z
4 x,1/2-y,1/2+z
_cell_length_a                   10.5705(5)
_cell_length_b                   12.8195(7)
_cell_length_c                   12.4157(7)
_cell_angle_alpha                90
_cell_angle_beta                 99.434(3)
_cell_angle_gamma                90
_cell_volume                     1659.68
_exptl_crystal_colour            colorless
_exptl_crystal_description       plate
_cell_formula_units_Z            4
loop_
_atom_site_label
_atom_site_type_symbol
_atom_site_fract_x
_atom_site_fract_y
_atom_site_fract_z
C1 C 0.2918(2) 0.0884(2) 0.50738(19)
C2 C 0.3504(2) 0.1779(2) 0.4769(2)
H1 H 0.3075 0.2214 0.4229
C3 C 0.4737(2) 0.2018(2) 0.5278(2)
C4 C 0.5374(2) 0.1378(2) 0.6101(2)
C5 C 0.4764(2) 0.04838(19) 0.63858(19)
C6 C 0.3541(2) 0.0237(2) 0.5875(2)
H2 H 0.314 -0.0364 0.6071
N1 N 0.1622(2) 0.06459(18) 0.4621(2)
H3 H 0.119(2) 0.045(2) 0.507(2)
C7 C 0.1061(2) 0.06515(19) 0.3571(2)
S1 S -0.05561(6) 0.05352(6) 0.32614(6)
N2 N 0.1831(2) 0.0730(2) 0.28268(18)
H4 H 0.259(2) 0.0614(19) 0.302(2)
C8 C 0.1464(2) 0.0882(2) 0.1678(2)
C9 C 0.1835(2) 0.0159(2) 0.0971(2)
H5 H 0.2269 -0.0441 0.1241
C10 C 0.1559(2) 0.0330(2) -0.0148(2)
H6 H 0.1821 -0.015 -0.0629
C11 C 0.0900(3) 0.1207(2) -0.0543(2)
C12 C 0.0518(3) 0.1923(2) 0.0164(2)
H7 H 0.006 0.2512 -0.0107
C13 C 0.0815(2) 0.1766(2) 0.1278(2)
H8 H 0.0577 0.2259 0.1757
O1 O 0.0601(2) 0.14204(17) -0.16395(17)
H9 H 0.067(3) 0.083(3) -0.211(3)
O2 O 0.53853(18) 0.28931(15) 0.50440(16)
C14 C 0.4781(3) 0.3585(2) 0.4229(3)
H10 H 0.5348 0.4155 0.4151
H11 H 0.4006 0.3849 0.4437
H12 H 0.458 0.322 0.3547
O3 O 0.6530(2) 0.1626(2) 0.67179(19)
C15 C 0.7566(3) 0.1977(3) 0.6305(4)
H13 H 0.8255 0.2117 0.6892
H14 H 0.7343 0.2606 0.5898
H15 H 0.783 0.1457 0.5832
O4 O 0.54582(15) -0.01140(14) 0.71848(14)
C16 C 0.4836(3) -0.0992(2) 0.7567(2)
H16 H 0.5424 -0.1348 0.8117
H17 H 0.456 -0.1458 0.6969
H18 H 0.4106 -0.0761 0.7871
loop_
_geom_bond_atom_site_label_1
_geom_bond_atom_site_label_2
_geom_bond_site_symmetry_1
_geom_bond_site_symmetry_2
C1 C2 1_555 1_555
C2 H1 1_555 1_555
C3 C2 1_555 1_555
C4 C3 1_555 1_555
C5 C4 1_555 1_555
C6 C1 1_555 1_555
H2 C6 1_555 1_555
N1 C1 1_555 1_555
H3 N1 1_555 1_555
C7 N1 1_555 1_555
S1 C7 1_555 1_555
N2 C7 1_555 1_555
H4 N2 1_555 1_555
C8 N2 1_555 1_555
C9 C8 1_555 1_555
H5 C9 1_555 1_555
C10 C9 1_555 1_555
H6 C10 1_555 1_555
C11 C10 1_555 1_555
C12 C11 1_555 1_555
H7 C12 1_555 1_555
C13 C8 1_555 1_555
H8 C13 1_555 1_555
O1 C11 1_555 1_555
H9 O1 1_555 1_555
O2 C3 1_555 1_555
C14 O2 1_555 1_555
H10 C14 1_555 1_555
H11 C14 1_555 1_555
H12 C14 1_555 1_555
O3 C4 1_555 1_555
C15 O3 1_555 1_555
H13 C15 1_555 1_555
H14 C15 1_555 1_555
H15 C15 1_555 1_555
O4 C5 1_555 1_555
C16 O4 1_555 1_555
H16 C16 1_555 1_555
H17 C16 1_555 1_555
H18 C16 1_555 1_555
C5 C6 1_555 1_555
C12 C13 1_555 1_555

#END
