
#######################################################################
#
#                 Cambridge Crystallographic Data Centre
#                                CCDC 
#
#######################################################################
#
# If this CIF has been generated from an entry in the Cambridge 
# Structural Database, then it will include bibliographic, chemical, 
# crystal, experimental, refinement or atomic coordinate data resulting 
# from the CCDC's data processing and validation procedures.
#
#######################################################################

data_WAFJIY
_chemical_name_common            
'(3E,5E)-3,5-bis(4-hydroxy-3,5-dimethoxybenzylidene)oxan-4-one monohydrate'
_chemical_formula_moiety         'C23 H24 O8,H2 O1'
_chemical_name_systematic        
'3,5-bis(4-hydroxy-3,5-dimethoxybenzylidene)tetrahydro-4H-pyran-4-one monohydrate'
_symmetry_cell_setting           monoclinic
_symmetry_space_group_name_H-M   'P 21/c'
_symmetry_Int_Tables_number      14
_space_group_name_Hall           '-P 2ybc'
loop_
_symmetry_equiv_pos_site_id
_symmetry_equiv_pos_as_xyz
1 x,y,z
2 -x,1/2+y,1/2-z
3 -x,-y,-z
4 x,1/2-y,1/2+z
_cell_length_a                   9.203(2)
_cell_length_b                   14.145(3)
_cell_length_c                   17.011(4)
_cell_angle_alpha                90
_cell_angle_beta                 105.349(5)
_cell_angle_gamma                90
_cell_volume                     2135.45
_exptl_crystal_colour            'pale yellow'
_exptl_crystal_description       block
_cell_formula_units_Z            4
loop_
_atom_site_label
_atom_site_type_symbol
_atom_site_fract_x
_atom_site_fract_y
_atom_site_fract_z
C1 C 0.8908(2) 0.32659(13) 0.97171(12)
C2 C 0.8037(2) 0.29050(13) 1.02728(12)
C3 C 0.6896(2) 0.35663(14) 1.04616(13)
H1 H 0.6147 0.3207 1.0643
H2 H 0.7390 0.3994 1.0896
C4 C 0.7220(2) 0.47300(14) 0.95381(15)
H3 H 0.7600 0.5166 0.9985
H4 H 0.6701 0.5096 0.9065
C5 C 0.8524(2) 0.42155(13) 0.93530(12)
C6 C 0.8228(2) 0.19984(14) 1.05100(13)
H5 H 0.8920 0.1658 1.0311
C7 C 0.7496(2) 0.14758(13) 1.10385(13)
C8 C 0.7119(2) 0.05293(13) 1.08579(14)
H6 H 0.7418 0.0233 1.0438
C9 C 0.6305(2) 0.00271(13) 1.12948(13)
C10 C 0.5885(2) 0.04587(13) 1.19366(13)
C11 C 0.6329(2) 0.13891(14) 1.21437(13)
C12 C 0.7122(2) 0.18956(14) 1.16978(13)
H7 H 0.7406 0.2517 1.1839
C13 C 0.9318(2) 0.45266(13) 0.88503(13)
H8 H 1.0080 0.4116 0.8805
C14 C 0.9230(2) 0.53765(13) 0.83608(13)
C15 C 0.9862(2) 0.53228(13) 0.77028(13)
H9 H 1.0342 0.4771 0.7613
C16 C 0.9781(2) 0.60806(13) 0.71856(13)
C17 C 0.9098(2) 0.69190(13) 0.73198(13)
C18 C 0.8509(2) 0.69876(13) 0.79906(13)
C19 C 0.8556(2) 0.62257(13) 0.85041(13)
H10 H 0.8140 0.6276 0.8945
C20 C 0.6271(3) -0.13737(15) 1.05107(15)
H11 H 0.5826 -0.1071 0.9998
H12 H 0.5931 -0.2017 1.0490
H13 H 0.7349 -0.1362 1.0616
C21 C 0.6141(3) 0.26902(15) 1.30040(16)
H14 H 0.7204 0.2816 1.3147
H15 H 0.5747 0.2835 1.3459
H16 H 0.5646 0.3075 1.2547
C22 C 1.1153(3) 0.53010(16) 0.63678(16)
H17 H 1.2007 0.5215 0.6829
H18 H 1.1493 0.5405 0.5888
H19 H 1.0530 0.4746 0.6295
C23 C 0.7318(3) 0.79786(15) 0.87680(15)
H20 H 0.6518 0.7534 0.8741
H21 H 0.6936 0.8610 0.8768
H22 H 0.8104 0.7875 0.9259
O1 O 0.99167(17) 0.27831(9) 0.95636(9)
O2 O 0.61814(16) 0.40948(10) 0.97496(10)
O3 O 0.58409(18) -0.08894(9) 1.11397(10)
O4 O 0.50522(17) -0.00394(9) 1.23443(10)
H23 H 0.4751 0.0316 1.2648
O5 O 0.58841(17) 0.17232(9) 1.27958(9)
O6 O 1.03097(17) 0.60926(9) 0.65026(10)
O7 O 0.89910(18) 0.76810(9) 0.68224(10)
H24 H 0.9409 0.7564 0.6463
O8 O 0.79014(17) 0.78551(9) 0.80853(10)
O9 O 0.65172(17) 0.92850(11) 0.65729(11)
H25 H 0.7002 0.8780 0.6759
H26 H 0.5849 0.9142 0.6119
loop_
_geom_bond_atom_site_label_1
_geom_bond_atom_site_label_2
_geom_bond_site_symmetry_1
_geom_bond_site_symmetry_2
C1 C2 1_555 1_555
C2 C3 1_555 1_555
C3 H1 1_555 1_555
H2 C3 1_555 1_555
C4 H3 1_555 1_555
H4 C4 1_555 1_555
C5 C1 1_555 1_555
C6 C2 1_555 1_555
H5 C6 1_555 1_555
C7 C6 1_555 1_555
C8 C7 1_555 1_555
H6 C8 1_555 1_555
C9 C8 1_555 1_555
C10 C9 1_555 1_555
C11 C10 1_555 1_555
C12 C7 1_555 1_555
H7 C12 1_555 1_555
C13 C5 1_555 1_555
H8 C13 1_555 1_555
C14 C13 1_555 1_555
C15 C14 1_555 1_555
H9 C15 1_555 1_555
C16 C15 1_555 1_555
C17 C16 1_555 1_555
C18 C17 1_555 1_555
C19 C14 1_555 1_555
H10 C19 1_555 1_555
C20 H11 1_555 1_555
H12 C20 1_555 1_555
H13 C20 1_555 1_555
C21 H14 1_555 1_555
H15 C21 1_555 1_555
H16 C21 1_555 1_555
C22 H17 1_555 1_555
H18 C22 1_555 1_555
H19 C22 1_555 1_555
C23 H20 1_555 1_555
H21 C23 1_555 1_555
H22 C23 1_555 1_555
O1 C1 1_555 1_555
O2 C3 1_555 1_555
O3 C9 1_555 1_555
O4 C10 1_555 1_555
H23 O4 1_555 1_555
O5 C11 1_555 1_555
O6 C16 1_555 1_555
O7 C17 1_555 1_555
H24 O7 1_555 1_555
O8 C18 1_555 1_555
O9 H25 1_555 1_555
H26 O9 1_555 1_555
C4 C5 1_555 1_555
C4 O2 1_555 1_555
C11 C12 1_555 1_555
C18 C19 1_555 1_555
C20 O3 1_555 1_555
C21 O5 1_555 1_555
C22 O6 1_555 1_555
C23 O8 1_555 1_555

#END
