
#######################################################################
#
#                 Cambridge Crystallographic Data Centre
#                                CCDC 
#
#######################################################################
#
# If this CIF has been generated from an entry in the Cambridge 
# Structural Database, then it will include bibliographic, chemical, 
# crystal, experimental, refinement or atomic coordinate data resulting 
# from the CCDC's data processing and validation procedures.
#
#######################################################################

data_WAFLOH
_chemical_formula_moiety         'C10 H8 N4'
_chemical_name_systematic        1-(1H-pyrrol-2-yl)-1H-benzotriazole
_symmetry_cell_setting           orthorhombic
_symmetry_space_group_name_H-M   'P n a 21'
_symmetry_Int_Tables_number      33
_space_group_name_Hall           'P 2c -2n'
loop_
_symmetry_equiv_pos_site_id
_symmetry_equiv_pos_as_xyz
1 x,y,z
2 -x,-y,1/2+z
3 1/2+x,1/2-y,z
4 1/2-x,1/2+y,1/2+z
_cell_length_a                   9.1089(18)
_cell_length_b                   9.794(2)
_cell_length_c                   10.309(2)
_cell_angle_alpha                90
_cell_angle_beta                 90
_cell_angle_gamma                90
_cell_volume                     919.692
_exptl_crystal_colour            colorless
_exptl_crystal_description       block
_cell_formula_units_Z            4
loop_
_atom_site_label
_atom_site_type_symbol
_atom_site_fract_x
_atom_site_fract_y
_atom_site_fract_z
N1 N 0.21738(11) 0.46587(11) 0.75779(10)
C1 C 0.31632(13) 0.54383(14) 0.82418(13)
C2 C 0.41509(13) 0.44910(15) 0.87406(14)
N2 N 0.25314(13) 0.33168(11) 0.76648(13)
N3 N -0.03914(12) 0.43935(12) 0.71344(14)
H1 H -0.0518 0.3720 0.7658
N4 N 0.37182(14) 0.32099(12) 0.83610(14)
C3 C 0.32839(15) 0.68319(15) 0.84770(15)
H2 H 0.2632 0.7460 0.8121
C4 C 0.06701(16) 0.60739(14) 0.60415(16)
H3 H 0.1368 0.6682 0.5726
C5 C -0.08319(16) 0.60153(16) 0.57016(17)
H4 H -0.1315 0.6587 0.5121
C6 C 0.08873(13) 0.50593(13) 0.69236(14)
C7 C 0.44190(17) 0.72262(18) 0.92647(18)
H5 H 0.4527 0.8146 0.9466
C8 C -0.14390(15) 0.49696(15) 0.63800(16)
H6 H -0.2415 0.4694 0.6334
C9 C 0.53145(15) 0.4925(2) 0.9532(2)
H7 H 0.5985 0.4307 0.9876
C10 C 0.54217(18) 0.6284(2) 0.9775(2)
H8 H 0.6183 0.6599 1.0296
loop_
_geom_bond_atom_site_label_1
_geom_bond_atom_site_label_2
_geom_bond_site_symmetry_1
_geom_bond_site_symmetry_2
N1 C1 1_555 1_555
C1 C2 1_555 1_555
C2 N4 1_555 1_555
N2 N1 1_555 1_555
N3 H1 1_555 1_555
N4 N2 1_555 1_555
C3 C1 1_555 1_555
H2 C3 1_555 1_555
C4 H3 1_555 1_555
C5 C4 1_555 1_555
H4 C5 1_555 1_555
C6 N1 1_555 1_555
C7 C3 1_555 1_555
H5 C7 1_555 1_555
C8 N3 1_555 1_555
H6 C8 1_555 1_555
C9 C2 1_555 1_555
H7 C9 1_555 1_555
C10 C7 1_555 1_555
H8 C10 1_555 1_555
N3 C6 1_555 1_555
C4 C6 1_555 1_555
C5 C8 1_555 1_555
C9 C10 1_555 1_555

#END
