
#######################################################################
#
#                 Cambridge Crystallographic Data Centre
#                                CCDC 
#
#######################################################################
#
# If this CIF has been generated from an entry in the Cambridge 
# Structural Database, then it will include bibliographic, chemical, 
# crystal, experimental, refinement or atomic coordinate data resulting 
# from the CCDC's data processing and validation procedures.
#
#######################################################################

data_WAFLUN
_chemical_formula_moiety         'C16 H14 N2 O1'
_chemical_name_systematic        
1-(2-naphthyl)-3-(1H-pyrazol-1-yl)propan-1-one
_symmetry_cell_setting           monoclinic
_symmetry_space_group_name_H-M   'C 2/c'
_symmetry_Int_Tables_number      15
_space_group_name_Hall           '-C 2yn'
loop_
_symmetry_equiv_pos_site_id
_symmetry_equiv_pos_as_xyz
1 x,y,z
2 -x,y,1/2-z
3 1/2+x,1/2+y,z
4 1/2-x,1/2+y,1/2-z
5 -x,-y,-z
6 x,-y,1/2+z
7 1/2-x,1/2-y,-z
8 1/2+x,1/2-y,1/2+z
_cell_length_a                   21.104(4)
_cell_length_b                   5.9925(12)
_cell_length_c                   20.403(4)
_cell_angle_alpha                90
_cell_angle_beta                 95.16(3)
_cell_angle_gamma                90
_cell_volume                     2569.82
_exptl_crystal_colour            colorless
_exptl_crystal_description       block
_cell_formula_units_Z            8
loop_
_atom_site_label
_atom_site_type_symbol
_atom_site_fract_x
_atom_site_fract_y
_atom_site_fract_z
C1 C 0.35713(7) 0.4343(3) -0.00362(7)
C2 C 0.40836(8) 0.3098(3) -0.01818(7)
H1 H 0.4171 0.1769 0.0044
C3 C 0.44818(8) 0.3771(3) -0.06631(7)
C4 C 0.43482(8) 0.5813(3) -0.10031(7)
N1 N 0.31274(6) -0.0302(2) 0.19174(6)
C5 C 0.31462(8) 0.3651(3) 0.04693(7)
O1 O 0.26597(6) 0.4678(2) 0.05392(6)
C6 C 0.34420(8) 0.6379(3) -0.03806(8)
H2 H 0.3096 0.7244 -0.0285
C7 C 0.50088(8) 0.2498(3) -0.08241(8)
H3 H 0.5102 0.1160 -0.0606
C8 C 0.47469(9) 0.6470(3) -0.14904(8)
H4 H 0.4663 0.7795 -0.1720
C9 C 0.33259(8) 0.1678(3) 0.09021(7)
H5 H 0.3757 0.1877 0.1101
H6 H 0.3318 0.0342 0.0633
N2 N 0.36143(8) 0.0224(2) 0.23613(7)
C10 C 0.38149(9) 0.7072(3) -0.08435(8)
H7 H 0.3720 0.8407 -0.1063
C11 C 0.52480(10) 0.5197(3) -0.16274(8)
H8 H 0.5506 0.5661 -0.1948
C12 C 0.29489(8) -0.2425(3) 0.19726(9)
H9 H 0.2624 -0.3140 0.1716
C13 C 0.28859(8) 0.1358(3) 0.14399(8)
H10 H 0.2836 0.2769 0.1662
H11 H 0.2470 0.0897 0.1245
C14 C 0.53825(9) 0.3196(3) -0.12934(8)
H12 H 0.5729 0.2338 -0.1392
C15 C 0.37293(10) -0.1656(3) 0.26944(8)
H13 H 0.4045 -0.1807 0.3040
C16 C 0.33302(9) -0.3348(3) 0.24724(9)
H14 H 0.3322 -0.4804 0.2629
loop_
_geom_bond_atom_site_label_1
_geom_bond_atom_site_label_2
_geom_bond_site_symmetry_1
_geom_bond_site_symmetry_2
C1 C2 1_555 1_555
C2 H1 1_555 1_555
C3 C2 1_555 1_555
C4 C3 1_555 1_555
N1 N2 1_555 1_555
C5 C1 1_555 1_555
O1 C5 1_555 1_555
C6 C1 1_555 1_555
H2 C6 1_555 1_555
C7 C3 1_555 1_555
H3 C7 1_555 1_555
C8 C4 1_555 1_555
H4 C8 1_555 1_555
C9 C5 1_555 1_555
H5 C9 1_555 1_555
H6 C9 1_555 1_555
N2 C15 1_555 1_555
C10 C4 1_555 1_555
H7 C10 1_555 1_555
C11 C8 1_555 1_555
H8 C11 1_555 1_555
C12 N1 1_555 1_555
H9 C12 1_555 1_555
C13 N1 1_555 1_555
H10 C13 1_555 1_555
H11 C13 1_555 1_555
C14 C7 1_555 1_555
H12 C14 1_555 1_555
C15 H13 1_555 1_555
C16 C12 1_555 1_555
H14 C16 1_555 1_555
C6 C10 1_555 1_555
C9 C13 1_555 1_555
C11 C14 1_555 1_555
C15 C16 1_555 1_555

#END
