
#######################################################################
#
#                 Cambridge Crystallographic Data Centre
#                                CCDC 
#
#######################################################################
#
# If this CIF has been generated from an entry in the Cambridge 
# Structural Database, then it will include bibliographic, chemical, 
# crystal, experimental, refinement or atomic coordinate data resulting 
# from the CCDC's data processing and validation procedures.
#
#######################################################################

data_WAFLOF
_chemical_formula_moiety         'C30 H22 F3 N3 O4'
_chemical_name_systematic        
'(+-)-(4-Trifluoromethylphenyl) 3-methyl-2-(8-nitro-6H,12H-5,11-methano-dibenzo(bf)(1,5)diazocin-2-yl)benzoate'
_symmetry_cell_setting           orthorhombic
_symmetry_space_group_name_H-M   'F 2 d d'
_symmetry_Int_Tables_number      43
_space_group_name_Hall           'F -2d 2'
loop_
_symmetry_equiv_pos_site_id
_symmetry_equiv_pos_as_xyz
1 x,y,z
2 x,1/2+y,1/2+z
3 1/2+x,y,1/2+z
4 1/2+x,1/2+y,z
5 x,-y,-z
6 x,1/2-y,1/2-z
7 1/2+x,-y,1/2-z
8 1/2+x,1/2-y,-z
9 1/4+x,1/4-y,1/4+z
10 1/4+x,3/4-y,3/4+z
11 3/4+x,1/4-y,3/4+z
12 3/4+x,3/4-y,1/4+z
13 1/4+x,1/4+y,1/4-z
14 1/4+x,3/4+y,3/4-z
15 3/4+x,1/4+y,3/4-z
16 3/4+x,3/4+y,1/4-z
_cell_length_a                   10.3582(2)
_cell_length_b                   25.3651(6)
_cell_length_c                   38.1745(9)
_cell_angle_alpha                90
_cell_angle_beta                 90
_cell_angle_gamma                90
_cell_volume                     10029.8
_exptl_crystal_colour            yellow
_exptl_crystal_description       prism
_chemical_melting_point          '223-225 deg.C'
_cell_formula_units_Z            16
_exptl_crystal_recrystallization_method 'pentane/ethyl acetate'
loop_
_atom_site_label
_atom_site_type_symbol
_atom_site_fract_x
_atom_site_fract_y
_atom_site_fract_z
F1 F -0.4026(3) 0.14106(18) 0.41616(10)
F2 F -0.3969(3) 0.11880(13) 0.36463(11)
F3 F -0.3006(3) 0.18707(10) 0.37779(11)
O1 O 0.1445(2) 0.03189(8) 0.41243(5)
O2 O 0.2287(2) 0.10483(9) 0.43637(7)
O3 O -0.4514(3) 0.17427(12) 0.28173(9)
O4 O -0.4622(2) 0.09149(11) 0.26984(8)
N1 N -0.4002(3) 0.13135(11) 0.27687(7)
N2 N 0.1381(2) 0.12744(9) 0.26345(6)
N3 N 0.1422(2) 0.03279(9) 0.25817(5)
C1 C 0.2241(3) 0.12946(11) 0.29414(7)
C2 C 0.2449(3) 0.07478(10) 0.30950(6)
C3 C 0.3141(3) 0.06902(11) 0.34091(6)
C4 C 0.3323(3) 0.01964(11) 0.35596(7)
C5 C 0.2768(3) -0.02449(11) 0.33996(7)
C6 C 0.2105(3) -0.01939(10) 0.30879(7)
C7 C 0.1966(3) 0.02990(10) 0.29281(6)
C8 C 0.1778(3) 0.08280(12) 0.24156(7)
C9 C -0.0001(3) 0.02765(11) 0.25677(7)
C10 C -0.0675(3) 0.07907(11) 0.26591(6)
C11 C -0.2015(3) 0.08095(11) 0.26913(7)
C12 C -0.2599(3) 0.12848(12) 0.27757(7)
C13 C -0.1902(3) 0.17384(12) 0.28516(8)
C14 C -0.0580(3) 0.17179(12) 0.28219(8)
C15 C 0.0040(3) 0.12541(11) 0.27099(6)
C16 C 0.5914(4) -0.02451(17) 0.35091(9)
C17 C 0.4137(3) 0.01469(11) 0.38827(7)
C18 C 0.5392(3) -0.00596(11) 0.38553(7)
C19 C 0.6160(3) -0.00770(12) 0.41543(7)
C20 C 0.5739(3) 0.01188(12) 0.44739(7)
C21 C 0.4519(3) 0.03400(11) 0.45000(7)
C22 C 0.3717(3) 0.03513(11) 0.42059(7)
C23 C 0.2449(3) 0.06194(11) 0.42414(6)
C24 C 0.0260(3) 0.05760(11) 0.40795(7)
C25 C -0.0481(3) 0.07256(13) 0.43605(8)
C26 C -0.1628(3) 0.09819(12) 0.43018(8)
C27 C -0.2046(3) 0.10897(13) 0.39638(8)
C28 C -0.1305(4) 0.09186(15) 0.36836(9)
C29 C -0.0149(3) 0.06591(14) 0.37381(8)
C30 C -0.3254(4) 0.13975(15) 0.38972(10)
H1 H 0.321(4) 0.1449(15) 0.2832(9)
H2 H 0.185(5) 0.1576(19) 0.3099(13)
H3 H 0.356(4) 0.1006(13) 0.3555(8)
H4 H 0.290(3) -0.0622(14) 0.3464(8)
H5 H 0.174(4) -0.0537(15) 0.2956(10)
H6 H 0.133(4) 0.0873(14) 0.2174(9)
H7 H 0.272(3) 0.0809(10) 0.2392(7)
H8 H -0.018(4) 0.0159(14) 0.2326(10)
H9 H -0.025(4) -0.0022(14) 0.2708(8)
H10 H -0.259(4) 0.0511(15) 0.2630(9)
H11 H -0.238(4) 0.2059(15) 0.2893(9)
H12 H -0.017(6) 0.209(2) 0.2832(13)
H13 H 0.670(6) -0.0384(19) 0.3514(12)
H14 H 0.572(6) -0.009(2) 0.3341(14)
H15 H 0.552(5) -0.060(2) 0.3387(12)
H16 H 0.707(4) -0.0174(14) 0.4154(9)
H17 H 0.648(4) 0.0090(15) 0.4681(10)
H18 H 0.423(4) 0.0475(15) 0.4711(9)
H19 H -0.021(3) 0.0634(11) 0.4616(7)
H20 H -0.218(5) 0.105(2) 0.4544(13)
H21 H -0.161(5) 0.0928(18) 0.3458(12)
H22 H 0.036(5) 0.0469(18) 0.3550(11)
loop_
_geom_bond_atom_site_label_1
_geom_bond_atom_site_label_2
_geom_bond_site_symmetry_1
_geom_bond_site_symmetry_2
F1 C30 1_555 1_555
F2 C30 1_555 1_555
F3 C30 1_555 1_555
O1 C23 1_555 1_555
O2 C23 1_555 1_555
O3 N1 1_555 1_555
O4 N1 1_555 1_555
N1 C12 1_555 1_555
N2 C1 1_555 1_555
N3 C7 1_555 1_555
C1 C2 1_555 1_555
C2 C3 1_555 1_555
C3 C4 1_555 1_555
C4 C5 1_555 1_555
C5 C6 1_555 1_555
C6 C7 1_555 1_555
C7 C2 1_555 1_555
C8 N2 1_555 1_555
C9 N3 1_555 1_555
C10 C9 1_555 1_555
C11 C10 1_555 1_555
C12 C11 1_555 1_555
C13 C12 1_555 1_555
C14 C13 1_555 1_555
C15 N2 1_555 1_555
C16 C18 1_555 1_555
C17 C4 1_555 1_555
C18 C17 1_555 1_555
C19 C18 1_555 1_555
C20 C19 1_555 1_555
C21 C20 1_555 1_555
C22 C17 1_555 1_555
C23 C22 1_555 1_555
C24 O1 1_555 1_555
C25 C24 1_555 1_555
C26 C25 1_555 1_555
C27 C26 1_555 1_555
C28 C27 1_555 1_555
C29 C24 1_555 1_555
C30 C27 1_555 1_555
H1 C1 1_555 1_555
H2 C1 1_555 1_555
H3 C3 1_555 1_555
H4 C5 1_555 1_555
H5 C6 1_555 1_555
H6 C8 1_555 1_555
H7 C8 1_555 1_555
H8 C9 1_555 1_555
H9 C9 1_555 1_555
H10 C11 1_555 1_555
H11 C13 1_555 1_555
H12 C14 1_555 1_555
H13 C16 1_555 1_555
H14 C16 1_555 1_555
H15 C16 1_555 1_555
H16 C19 1_555 1_555
H17 C20 1_555 1_555
H18 C21 1_555 1_555
H19 C25 1_555 1_555
H20 C26 1_555 1_555
H21 C28 1_555 1_555
H22 C29 1_555 1_555
N3 C8 1_555 1_555
C10 C15 1_555 1_555
C14 C15 1_555 1_555
C21 C22 1_555 1_555
C28 C29 1_555 1_555

#END
