
#######################################################################
#
#                 Cambridge Crystallographic Data Centre
#                                CCDC 
#
#######################################################################
#
# If this CIF has been generated from an entry in the Cambridge 
# Structural Database, then it will include bibliographic, chemical, 
# crystal, experimental, refinement or atomic coordinate data resulting 
# from the CCDC's data processing and validation procedures.
#
#######################################################################

data_WAFMAU
_chemical_formula_moiety         'C22 H23 Cl1 N2 O4,2.5(C6 H10)'
_chemical_name_systematic        
'ethyl ((4-chlorobenzoyl)amino)(2-(pyrrolidin-1-ylcarbonyl)phenyl)acetate hexane solvate'
_symmetry_cell_setting           triclinic
_symmetry_space_group_name_H-M   'P 1'
_symmetry_Int_Tables_number      1
_space_group_name_Hall           'P 1'
loop_
_symmetry_equiv_pos_site_id
_symmetry_equiv_pos_as_xyz
1 x,y,z
_cell_length_a                   8.5086(6)
_cell_length_b                   10.4268(8)
_cell_length_c                   13.8730(10)
_cell_angle_alpha                103.623(9)
_cell_angle_beta                 99.874(8)
_cell_angle_gamma                90.545(9)
_cell_volume                     1176.83
_exptl_crystal_colour            colorless
_exptl_crystal_description       Plate
_cell_formula_units_Z            2
loop_
_atom_site_label
_atom_site_type_symbol
_atom_site_fract_x
_atom_site_fract_y
_atom_site_fract_z
Cl2 Cl 0.0762(3) 0.5465(3) 0.9505(2)
O5 O 0.4797(9) 0.9528(8) 0.7631(5)
O6 O 0.7169(7) 1.1141(6) 0.6179(4)
O7 O 0.2121(7) 0.8554(7) 0.4457(6)
O8 O 0.4278(7) 0.9389(7) 0.4036(5)
N3 N 0.3855(8) 0.8076(7) 0.6168(6)
H24 H 0.339(13) 0.733(7) 0.574(7)
N4 N 0.8565(8) 1.0418(7) 0.7451(6)
C23 C 0.4648(9) 0.8801(8) 0.5574(7)
H25 H 0.4909 0.9725 0.5988
C24 C 0.3999(11) 0.8494(10) 0.7153(7)
C25 C 0.3159(10) 0.7719(9) 0.7702(7)
C26 C 0.2215(10) 0.6578(9) 0.7222(7)
H26 H 0.2067 0.6274 0.6509
C27 C 0.1480(10) 0.5874(10) 0.7783(7)
H27 H 0.0875 0.5073 0.7453
C28 C 0.1628(10) 0.6331(11) 0.8793(8)
C29 C 0.2569(14) 0.7458(12) 0.9280(9)
H28 H 0.2689 0.7768 0.9991
C30 C 0.3335(12) 0.8135(11) 0.8737(7)
H29 H 0.3995 0.8902 0.9081
C31 C 0.6234(9) 0.8183(8) 0.5369(6)
C32 C 0.6192(10) 0.6968(9) 0.4739(7)
H30 H 0.5195 0.6512 0.4428
C33 C 0.7609(10) 0.6390(9) 0.4548(7)
H31 H 0.7581 0.5521 0.4132
C34 C 0.9062(10) 0.7078(10) 0.4963(7)
H32 H 1.0023 0.6705 0.4796
C35 C 0.9114(10) 0.8283(9) 0.5608(7)
H33 H 1.0116 0.8734 0.5913
C36 C 0.7708(9) 0.8867(9) 0.5826(6)
C37 C 0.7782(9) 1.0207(9) 0.6499(7)
C38 C 0.8493(12) 1.1698(11) 0.8145(7)
H34 H 0.7381 1.1982 0.8102
H35 H 0.9167 1.2381 0.7997
C39 C 0.9122(15) 1.1462(15) 0.9170(9)
H36 H 0.8551 1.1982 0.9684
H37 H 1.0279 1.1711 0.9373
C40 C 0.8812(17) 0.9967(14) 0.9048(9)
H38 H 0.9570 0.9629 0.9544
H39 H 0.7705 0.9759 0.9116
C41 C 0.9093(13) 0.9413(12) 0.7981(8)
H40 H 1.0239 0.9261 0.7974
H41 H 0.8465 0.8569 0.7669
C42 C 0.3495(11) 0.8873(9) 0.4632(7)
C43 C 0.3411(14) 0.9409(14) 0.3055(9)
H42 H 0.2252 0.9409 0.3069
H43 H 0.3720 1.0230 0.2877
C44 C 0.3728(19) 0.829(2) 0.2304(11)
H44 H 0.3513 0.8491 0.1640
H45 H 0.3039 0.7528 0.2300
H46 H 0.4850 0.8079 0.2457
Cl1 Cl 0.9264(3) -0.1752(3) 0.1380(2)
O1 O 0.5355(8) 0.3427(7) 0.3384(5)
O2 O 0.2651(6) 0.5654(6) 0.4728(4)
O3 O 0.7870(7) 0.4203(6) 0.6534(5)
O4 O 0.5826(7) 0.5428(7) 0.6915(5)
N1 N 0.6081(8) 0.2734(8) 0.4798(6)
H1 H 0.642(9) 0.203(5) 0.501(6)
N2 N 0.1558(9) 0.3941(8) 0.3484(6)
C1 C 0.5346(9) 0.3790(9) 0.5408(7)
H2 H 0.5071 0.4464 0.5007
C2 C 0.6030(10) 0.2637(10) 0.3815(7)
C3 C 0.6868(10) 0.1504(9) 0.3252(7)
C4 C 0.6788(12) 0.1410(10) 0.2232(7)
H3 H 0.6224 0.2033 0.1923
C5 C 0.7530(12) 0.0409(12) 0.1664(8)
H4 H 0.7479 0.0343 0.0965
C6 C 0.8336(11) -0.0488(10) 0.2109(8)
C7 C 0.8435(11) -0.0410(9) 0.3112(7)
H5 H 0.8996 -0.1044 0.3410
C8 C 0.7718(10) 0.0593(9) 0.3693(7)
H6 H 0.7804 0.0662 0.4395
C9 C 0.3775(10) 0.3305(8) 0.5657(7)
C10 C 0.3806(10) 0.2523(9) 0.6318(7)
H7 H 0.4808 0.2306 0.6644
C11 C 0.2410(10) 0.2032(9) 0.6530(7)
H8 H 0.2463 0.1477 0.6988
C12 C 0.0946(12) 0.2356(10) 0.6071(8)
H9 H -0.0017 0.2058 0.6227
C13 C 0.0909(10) 0.3120(9) 0.5383(7)
H10 H -0.0097 0.3317 0.5048
C14 C 0.2281(9) 0.3606(8) 0.5164(6)
C15 C 0.2188(9) 0.4475(10) 0.4439(7)
C16 C 0.1248(14) 0.2520(11) 0.3034(8)
H11 H 0.0141 0.2237 0.3050
H12 H 0.2001 0.1996 0.3391
C17 C 0.1503(15) 0.2368(12) 0.1969(8)
H13 H 0.0871 0.1593 0.1510
H14 H 0.2645 0.2273 0.1922
C18 C 0.0920(17) 0.3646(14) 0.1728(9)
H15 H -0.0261 0.3610 0.1552
H16 H 0.1377 0.3829 0.1161
C19 C 0.1518(14) 0.4693(12) 0.2703(8)
H17 H 0.2594 0.5065 0.2708
H18 H 0.0776 0.5419 0.2799
C20 C 0.6500(10) 0.4451(9) 0.6344(8)
C21 C 0.6778(15) 0.6151(12) 0.7899(10)
H19 H 0.7932 0.6111 0.7871
H20 H 0.6509 0.7090 0.8047
C22 C 0.6421(14) 0.5544(14) 0.8691(10)
H21 H 0.5261 0.5425 0.8629
H22 H 0.6865 0.6117 0.9352
H23 H 0.6898 0.4682 0.8623
loop_
_geom_bond_atom_site_label_1
_geom_bond_atom_site_label_2
_geom_bond_site_symmetry_1
_geom_bond_site_symmetry_2
Cl1 C6 1_555 1_555
O1 C2 1_555 1_555
O2 C15 1_555 1_555
O3 C20 1_555 1_555
O4 C20 1_555 1_555
N1 H1 1_555 1_555
N2 C15 1_555 1_555
C1 N1 1_555 1_555
H2 C1 1_555 1_555
C2 N1 1_555 1_555
C3 C2 1_555 1_555
C4 C3 1_555 1_555
H3 C4 1_555 1_555
C5 C4 1_555 1_555
H4 C5 1_555 1_555
C6 C5 1_555 1_555
C7 C6 1_555 1_555
H5 C7 1_555 1_555
C8 C3 1_555 1_555
H6 C8 1_555 1_555
C9 C1 1_555 1_555
C10 C9 1_555 1_555
H7 C10 1_555 1_555
C11 C10 1_555 1_555
H8 C11 1_555 1_555
C12 C11 1_555 1_555
H9 C12 1_555 1_555
C13 C12 1_555 1_555
H10 C13 1_555 1_555
C14 C9 1_555 1_555
C15 C14 1_555 1_555
C16 N2 1_555 1_555
H11 C16 1_555 1_555
H12 C16 1_555 1_555
C17 C16 1_555 1_555
H13 C17 1_555 1_555
H14 C17 1_555 1_555
C18 C17 1_555 1_555
H15 C18 1_555 1_555
H16 C18 1_555 1_555
C19 N2 1_555 1_555
H17 C19 1_555 1_555
H18 C19 1_555 1_555
C20 C1 1_555 1_555
C21 O4 1_555 1_555
H19 C21 1_555 1_555
H20 C21 1_555 1_555
C22 C21 1_555 1_555
H21 C22 1_555 1_555
H22 C22 1_555 1_555
H23 C22 1_555 1_555
Cl2 C28 1_555 1_555
O5 C24 1_555 1_555
O6 C37 1_555 1_555
O7 C42 1_555 1_555
O8 C42 1_555 1_555
N3 H24 1_555 1_555
N4 C37 1_555 1_555
C23 N3 1_555 1_555
H25 C23 1_555 1_555
C24 N3 1_555 1_555
C25 C24 1_555 1_555
C26 C25 1_555 1_555
H26 C26 1_555 1_555
C27 C26 1_555 1_555
H27 C27 1_555 1_555
C28 C27 1_555 1_555
C29 C28 1_555 1_555
H28 C29 1_555 1_555
C30 C25 1_555 1_555
H29 C30 1_555 1_555
C31 C23 1_555 1_555
C32 C31 1_555 1_555
H30 C32 1_555 1_555
C33 C32 1_555 1_555
H31 C33 1_555 1_555
C34 C33 1_555 1_555
H32 C34 1_555 1_555
C35 C34 1_555 1_555
H33 C35 1_555 1_555
C36 C31 1_555 1_555
C37 C36 1_555 1_555
C38 N4 1_555 1_555
H34 C38 1_555 1_555
H35 C38 1_555 1_555
C39 C38 1_555 1_555
H36 C39 1_555 1_555
H37 C39 1_555 1_555
C40 C39 1_555 1_555
H38 C40 1_555 1_555
H39 C40 1_555 1_555
C41 N4 1_555 1_555
H40 C41 1_555 1_555
H41 C41 1_555 1_555
C42 C23 1_555 1_555
C43 O8 1_555 1_555
H42 C43 1_555 1_555
H43 C43 1_555 1_555
C44 C43 1_555 1_555
H44 C44 1_555 1_555
H45 C44 1_555 1_555
H46 C44 1_555 1_555
C7 C8 1_555 1_555
C13 C14 1_555 1_555
C18 C19 1_555 1_555
C29 C30 1_555 1_555
C35 C36 1_555 1_555
C40 C41 1_555 1_555

#END
