
#######################################################################
#
#                 Cambridge Crystallographic Data Centre
#                                CCDC 
#
#######################################################################
#
# If this CIF has been generated from an entry in the Cambridge 
# Structural Database, then it will include bibliographic, chemical, 
# crystal, experimental, refinement or atomic coordinate data resulting 
# from the CCDC's data processing and validation procedures.
#
#######################################################################

data_WAFNEY
_chemical_formula_moiety         'C14 H16 N4 2+,2(C14 H9 O4 S2 1-),2(H2 O1)'
_chemical_name_systematic        
"1,1'-(p-Phenylenedimethylidene)diimidazol-3-ium bis(2-[(2-carboxyphenyl)disulfanyl]benzoate) dihydrate"
_symmetry_cell_setting           triclinic
_symmetry_space_group_name_H-M   'P -1'
_symmetry_Int_Tables_number      2
_space_group_name_Hall           '-P 1'
loop_
_symmetry_equiv_pos_site_id
_symmetry_equiv_pos_as_xyz
1 x,y,z
2 -x,-y,-z
_cell_length_a                   4.6776(11)
_cell_length_b                   12.201(3)
_cell_length_c                   18.850(4)
_cell_angle_alpha                107.985(3)
_cell_angle_beta                 90.686(3)
_cell_angle_gamma                100.634(3)
_cell_volume                     1002.92
_exptl_crystal_colour            colorless
_exptl_crystal_description       block
_cell_formula_units_Z            1
loop_
_atom_site_label
_atom_site_type_symbol
_atom_site_fract_x
_atom_site_fract_y
_atom_site_fract_z
C1 C 0.9224(5) 0.7640(2) 0.21093(14)
C2 C 0.9027(5) 0.6438(2) 0.19945(14)
C3 C 1.0412(6) 0.5796(2) 0.14067(15)
H1 H 1.0227 0.4990 0.1313
C4 C 1.2053(6) 0.6331(2) 0.09606(16)
H2 H 1.2968 0.5885 0.0571
C5 C 1.2351(6) 0.7522(3) 0.10862(17)
H3 H 1.3507 0.7889 0.0794
C6 C 1.0910(6) 0.8157(2) 0.16511(16)
H4 H 1.1066 0.8958 0.1729
C7 C 0.7699(6) 0.8391(2) 0.27118(16)
C8 C 0.5723(5) 0.1938(2) 0.13953(14)
C9 C 0.5950(5) 0.3156(2) 0.15799(14)
C10 C 0.4493(6) 0.3591(2) 0.11132(15)
H5 H 0.4668 0.4399 0.1224
C11 C 0.2789(6) 0.2841(3) 0.04877(17)
H6 H 0.1817 0.3148 0.0184
C12 C 0.2513(6) 0.1640(3) 0.03089(17)
H7 H 0.1350 0.1135 -0.0110
C13 C 0.3991(6) 0.1202(2) 0.07623(16)
H8 H 0.3825 0.0393 0.0642
C14 C 0.7222(6) 0.1414(2) 0.18676(16)
S1 S 0.69255(16) 0.57314(5) 0.25775(4)
S2 S 0.81448(17) 0.41403(6) 0.23901(4)
O1 O 0.7530(4) 0.94073(15) 0.26811(11)
O2 O 0.6751(5) 0.80190(17) 0.32150(12)
O3 O 0.8747(5) 0.19838(17) 0.24241(13)
O4 O 0.6690(6) 0.02564(17) 0.16259(13)
H9 H 0.737(8) 0.003(3) 0.1976(19)
C15 C 0.3094(6) 0.1496(3) 0.35488(17)
H10 H 0.3404 0.1817 0.3162
C16 C 0.3162(9) 0.0374(3) 0.4231(2)
H11 H 0.3513 -0.0234 0.4398
C17 C 0.1658(8) 0.1195(3) 0.4573(2)
H12 H 0.0816 0.1277 0.5026
C18 C 0.0401(6) 0.2974(2) 0.43199(18)
H13 H -0.1118 0.2936 0.4662
H14 H -0.0463 0.3040 0.3868
C19 C 0.2748(5) 0.4039(2) 0.46723(14)
C20 C 0.4029(7) 0.4741(3) 0.42709(17)
H15 H 0.3376 0.4576 0.3774
C21 C 0.3731(7) 0.4311(3) 0.54080(16)
H16 H 0.2879 0.3853 0.5692
N1 N 0.4076(5) 0.0579(2) 0.36030(15)
H17 H 0.519(5) 0.016(2) 0.3270(14)
N2 N 0.1594(5) 0.18873(19) 0.41342(13)
C15A C 0.6906(6) 0.8504(3) 0.64512(17)
H10A H 0.6596 0.8183 0.6838
C16A C 0.6838(9) 0.9626(3) 0.5769(2)
H11A H 0.6487 1.0234 0.5602
C17A C 0.8342(8) 0.8805(3) 0.5427(2)
H12A H 0.9184 0.8723 0.4974
C18A C 0.9599(6) 0.7026(2) 0.56801(18)
H13A H 1.1118 0.7064 0.5338
H14A H 1.0463 0.6960 0.6132
C19A C 0.7252(5) 0.5961(2) 0.53277(14)
C20A C 0.5971(7) 0.5259(3) 0.57291(17)
H15A H 0.6624 0.5424 0.6226
C21A C 0.6269(7) 0.5689(3) 0.45920(16)
H16A H 0.7121 0.6147 0.4308
N1A N 0.5924(5) 0.9421(2) 0.63970(15)
H17A H 0.481(5) 0.984(2) 0.6730(14)
N2A N 0.8406(5) 0.81127(19) 0.58658(13)
O5 O 0.2006(6) 0.7532(2) 0.40459(14)
H18 H 0.351(5) 0.761(4) 0.378(2)
H19 H 0.049(5) 0.747(4) 0.374(2)
loop_
_geom_bond_atom_site_label_1
_geom_bond_atom_site_label_2
_geom_bond_site_symmetry_1
_geom_bond_site_symmetry_2
C1 C2 1_555 1_555
C2 C3 1_555 1_555
C3 H1 1_555 1_555
C4 C3 1_555 1_555
H2 C4 1_555 1_555
C5 C4 1_555 1_555
H3 C5 1_555 1_555
C6 C1 1_555 1_555
H4 C6 1_555 1_555
C7 C1 1_555 1_555
C8 C9 1_555 1_555
C9 C10 1_555 1_555
C10 H5 1_555 1_555
C11 C10 1_555 1_555
H6 C11 1_555 1_555
C12 C11 1_555 1_555
H7 C12 1_555 1_555
C13 C8 1_555 1_555
H8 C13 1_555 1_555
C14 C8 1_555 1_555
S1 C2 1_555 1_555
S2 C9 1_555 1_555
O1 C7 1_555 1_555
O2 C7 1_555 1_555
O3 C14 1_555 1_555
O4 C14 1_555 1_555
H9 O4 1_555 1_555
C15 H10 1_555 1_555
C16 H11 1_555 1_555
C17 C16 1_555 1_555
H12 C17 1_555 1_555
C18 H13 1_555 1_555
H14 C18 1_555 1_555
C19 C18 1_555 1_555
C20 C19 1_555 1_555
H15 C20 1_555 1_555
C21 C19 1_555 1_555
H16 C21 1_555 1_555
N1 C15 1_555 1_555
H17 N1 1_555 1_555
N2 C15 1_555 1_555
O5 H18 1_555 1_555
H19 O5 1_555 1_555
C15A H10A 1_555 1_555
C16A H11A 1_555 1_555
C17A C16A 1_555 1_555
H12A C17A 1_555 1_555
C18A H13A 1_555 1_555
H14A C18A 1_555 1_555
C19A C18A 1_555 1_555
C20A C21 1_555 1_555
H15A C20A 1_555 1_555
C21A C20 1_555 1_555
H16A C21A 1_555 1_555
N1A C15A 1_555 1_555
H17A N1A 1_555 1_555
N2A C15A 1_555 1_555
C5 C6 1_555 1_555
C12 C13 1_555 1_555
S1 S2 1_555 1_555
C16 N1 1_555 1_555
C17 N2 1_555 1_555
C18 N2 1_555 1_555
C16A N1A 1_555 1_555
C17A N2A 1_555 1_555
C18A N2A 1_555 1_555
C19A C20A 1_555 1_555
C19A C21A 1_555 1_555

#END
