
#######################################################################
#
#                 Cambridge Crystallographic Data Centre
#                                CCDC 
#
#######################################################################
#
# If this CIF has been generated from an entry in the Cambridge 
# Structural Database, then it will include bibliographic, chemical, 
# crystal, experimental, refinement or atomic coordinate data resulting 
# from the CCDC's data processing and validation procedures.
#
#######################################################################

data_WAFNAV
_chemical_formula_moiety         'C50 H32 N2'
_chemical_name_systematic        
9,9'-(anthracene-9,10-diyldi-4,1-phenylene)bis(9H-carbazole)
_symmetry_cell_setting           monoclinic
_symmetry_space_group_name_H-M   'P 21/c'
_symmetry_Int_Tables_number      14
_space_group_name_Hall           '-P 2ybc'
loop_
_symmetry_equiv_pos_site_id
_symmetry_equiv_pos_as_xyz
1 x,y,z
2 -x,1/2+y,1/2-z
3 -x,-y,-z
4 x,1/2-y,1/2+z
_cell_length_a                   12.8317(4)
_cell_length_b                   7.8512(3)
_cell_length_c                   17.4533(8)
_cell_angle_alpha                90
_cell_angle_beta                 90.411(2)
_cell_angle_gamma                90
_cell_volume                     1758.27
_exptl_crystal_colour            colorless
_exptl_crystal_description       plate
_cell_formula_units_Z            2
loop_
_atom_site_label
_atom_site_type_symbol
_atom_site_fract_x
_atom_site_fract_y
_atom_site_fract_z
N1 N 0.3146(2) 0.3581(4) 0.17446(19)
C1 C -0.0182(3) 1.1424(4) 0.20217(18)
H1 H -0.0057 1.1511 0.2546
C2 C 0.0345(2) 1.0258(4) 0.16042(18)
H2 H 0.0820 0.9546 0.1850
C3 C 0.0190(2) 1.0091(3) 0.07961(16)
C4 C 0.0704(2) 0.8852(3) 0.03650(16)
C5 C 0.0528(2) 0.8757(3) -0.04303(16)
C6 C 0.1076(2) 0.7583(4) -0.08994(19)
H3 H 0.1559 0.6854 -0.0672
C7 C 0.0917(3) 0.7494(4) -0.16696(19)
H4 H 0.1292 0.6720 -0.1962
C8 C 0.1368(2) 0.7532(3) 0.07445(16)
C9 C 0.0976(2) 0.5910(4) 0.08289(17)
H5 H 0.0302 0.5678 0.0661
C10 C 0.1560(2) 0.4621(4) 0.11561(18)
H6 H 0.1282 0.3531 0.1199
C11 C 0.2543(2) 0.4947(4) 0.1416(2)
C12 C 0.2952(3) 0.6550(4) 0.1347(2)
H7 H 0.3623 0.6775 0.1525
C13 C 0.2361(2) 0.7840(4) 0.1012(2)
H8 H 0.2643 0.8927 0.0968
C14 C 0.2942(3) 0.2762(4) 0.2448(3)
C15 C 0.2232(3) 0.3167(6) 0.2995(3)
H9 H 0.1762 0.4055 0.2923
C16 C 0.2233(3) 0.2207(6) 0.3667(3)
H10 H 0.1773 0.2462 0.4060
C17 C 0.2939(5) 0.0845(8) 0.3744(4)
H11 H 0.2917 0.0181 0.4185
C18 C 0.3640(4) 0.0469(6) 0.3208(4)
H12 H 0.4111 -0.0417 0.3284
C19 C 0.3661(3) 0.1428(5) 0.2526(3)
C20 C 0.4306(3) 0.1419(4) 0.1851(3)
C21 C 0.5152(4) 0.0441(6) 0.1614(4)
H13 H 0.5398 -0.0449 0.1917
C22 C 0.5616(5) 0.0810(8) 0.0927(4)
H14 H 0.6190 0.0175 0.0773
C23 C 0.5250(4) 0.2108(6) 0.0457(3)
H15 H 0.5572 0.2310 -0.0010
C24 C 0.4417(3) 0.3101(5) 0.0672(3)
H16 H 0.4165 0.3967 0.0358
C25 C 0.3972(3) 0.2761(4) 0.1372(3)
N1B N -0.3146(2) 1.6419(4) -0.17446(19)
C1B C 0.0182(3) 0.8576(4) -0.20217(18)
H1B H 0.0057 0.8489 -0.2546
C2B C -0.0345(2) 0.9742(4) -0.16042(18)
H2B H -0.0820 1.0454 -0.1850
C3B C -0.0190(2) 0.9909(3) -0.07961(16)
C4B C -0.0704(2) 1.1148(3) -0.03650(16)
C5B C -0.0528(2) 1.1243(3) 0.04303(16)
C6B C -0.1076(2) 1.2417(4) 0.08994(19)
H3B H -0.1559 1.3146 0.0672
C7B C -0.0917(3) 1.2506(4) 0.16696(19)
H4B H -0.1292 1.3280 0.1962
C8B C -0.1368(2) 1.2468(3) -0.07445(16)
C9B C -0.0976(2) 1.4090(4) -0.08289(17)
H5B H -0.0302 1.4322 -0.0661
C10B C -0.1560(2) 1.5379(4) -0.11561(18)
H6B H -0.1282 1.6469 -0.1199
C11B C -0.2543(2) 1.5053(4) -0.1416(2)
C12B C -0.2952(3) 1.3450(4) -0.1347(2)
H7B H -0.3623 1.3225 -0.1525
C13B C -0.2361(2) 1.2160(4) -0.1012(2)
H8B H -0.2643 1.1073 -0.0968
C14B C -0.2942(3) 1.7238(4) -0.2448(3)
C15B C -0.2232(3) 1.6833(6) -0.2995(3)
H9B H -0.1762 1.5945 -0.2923
C16B C -0.2233(3) 1.7793(6) -0.3667(3)
H10B H -0.1773 1.7538 -0.4060
C17B C -0.2939(5) 1.9155(8) -0.3744(4)
H11B H -0.2917 1.9819 -0.4185
C18B C -0.3640(4) 1.9531(6) -0.3208(4)
H12B H -0.4111 2.0417 -0.3284
C19B C -0.3661(3) 1.8572(5) -0.2526(3)
C20B C -0.4306(3) 1.8581(4) -0.1851(3)
C21B C -0.5152(4) 1.9559(6) -0.1614(4)
H13B H -0.5398 2.0449 -0.1917
C22B C -0.5616(5) 1.9190(8) -0.0927(4)
H14B H -0.6190 1.9825 -0.0773
C23B C -0.5250(4) 1.7892(6) -0.0457(3)
H15B H -0.5572 1.7690 0.0010
C24B C -0.4417(3) 1.6899(5) -0.0672(3)
H16B H -0.4165 1.6033 -0.0358
C25B C -0.3972(3) 1.7239(4) -0.1372(3)
loop_
_geom_bond_atom_site_label_1
_geom_bond_atom_site_label_2
_geom_bond_site_symmetry_1
_geom_bond_site_symmetry_2
N1 C11 1_555 1_555
C1 H1 1_555 1_555
C2 C1 1_555 1_555
H2 C2 1_555 1_555
C3 C2 1_555 1_555
C4 C3 1_555 1_555
C5 C4 1_555 1_555
C6 C5 1_555 1_555
H3 C6 1_555 1_555
C7 C6 1_555 1_555
H4 C7 1_555 1_555
C8 C4 1_555 1_555
C9 C8 1_555 1_555
H5 C9 1_555 1_555
C10 C9 1_555 1_555
H6 C10 1_555 1_555
C11 C10 1_555 1_555
C12 C11 1_555 1_555
H7 C12 1_555 1_555
C13 C8 1_555 1_555
H8 C13 1_555 1_555
C14 N1 1_555 1_555
C15 C14 1_555 1_555
H9 C15 1_555 1_555
C16 C15 1_555 1_555
H10 C16 1_555 1_555
C17 C16 1_555 1_555
H11 C17 1_555 1_555
C18 C17 1_555 1_555
H12 C18 1_555 1_555
C19 C14 1_555 1_555
C20 C19 1_555 1_555
C21 C20 1_555 1_555
H13 C21 1_555 1_555
C22 C21 1_555 1_555
H14 C22 1_555 1_555
C23 C22 1_555 1_555
H15 C23 1_555 1_555
C24 C23 1_555 1_555
H16 C24 1_555 1_555
C25 N1 1_555 1_555
N1B C11B 1_555 1_555
C1B C7 1_555 1_555
H1B C1B 1_555 1_555
C2B C1B 1_555 1_555
H2B C2B 1_555 1_555
C3B C5 1_555 1_555
C4B C3B 1_555 1_555
C5B C3 1_555 1_555
C6B C5B 1_555 1_555
H3B C6B 1_555 1_555
C7B C1 1_555 1_555
H4B C7B 1_555 1_555
C8B C4B 1_555 1_555
C9B C8B 1_555 1_555
H5B C9B 1_555 1_555
C10B C9B 1_555 1_555
H6B C10B 1_555 1_555
C11B C10B 1_555 1_555
C12B C11B 1_555 1_555
H7B C12B 1_555 1_555
C13B C8B 1_555 1_555
H8B C13B 1_555 1_555
C14B N1B 1_555 1_555
C15B C14B 1_555 1_555
H9B C15B 1_555 1_555
C16B C15B 1_555 1_555
H10B C16B 1_555 1_555
C17B C16B 1_555 1_555
H11B C17B 1_555 1_555
C18B C17B 1_555 1_555
H12B C18B 1_555 1_555
C19B C14B 1_555 1_555
C20B C19B 1_555 1_555
C21B C20B 1_555 1_555
H13B C21B 1_555 1_555
C22B C21B 1_555 1_555
H14B C22B 1_555 1_555
C23B C22B 1_555 1_555
H15B C23B 1_555 1_555
C24B C23B 1_555 1_555
H16B C24B 1_555 1_555
C25B N1B 1_555 1_555
C12 C13 1_555 1_555
C18 C19 1_555 1_555
C20 C25 1_555 1_555
C24 C25 1_555 1_555
C2B C3B 1_555 1_555
C4B C5B 1_555 1_555
C6B C7B 1_555 1_555
C12B C13B 1_555 1_555
C18B C19B 1_555 1_555
C20B C25B 1_555 1_555
C24B C25B 1_555 1_555

#END
