
#######################################################################
#
#                 Cambridge Crystallographic Data Centre
#                                CCDC 
#
#######################################################################
#
# If this CIF has been generated from an entry in the Cambridge 
# Structural Database, then it will include bibliographic, chemical, 
# crystal, experimental, refinement or atomic coordinate data resulting 
# from the CCDC's data processing and validation procedures.
#
#######################################################################

data_WAFPAX
_chemical_formula_moiety         'C25 H23 N1 O3'
_chemical_name_systematic        
N-(4,4-dimethyl-2-oxo-3-phenyl-3,4-dihydro-2H-chromen-3-yl)-4-methylbenzamide
_symmetry_cell_setting           monoclinic
_symmetry_space_group_name_H-M   'P 21'
_symmetry_Int_Tables_number      4
_space_group_name_Hall           'P 2yb'
loop_
_symmetry_equiv_pos_site_id
_symmetry_equiv_pos_as_xyz
1 x,y,z
2 -x,1/2+y,-z
_cell_length_a                   6.49020(10)
_cell_length_b                   16.0682(2)
_cell_length_c                   19.2321(3)
_cell_angle_alpha                90
_cell_angle_beta                 91.0300(10)
_cell_angle_gamma                90
_cell_volume                     2005.31
_exptl_crystal_colour            colorless
_exptl_crystal_description       Prism
_cell_formula_units_Z            4
loop_
_atom_site_label
_atom_site_type_symbol
_atom_site_fract_x
_atom_site_fract_y
_atom_site_fract_z
O1 O 0.1942(3) 0.63962(15) 0.94766(11)
O2 O 0.0914(3) 0.76889(14) 0.94905(12)
O3 O -0.0466(3) 0.6656(2) 1.06523(12)
N1 N -0.3024(3) 0.68506(15) 0.98740(11)
H1 H -0.4308 0.7009 0.9801
C1 C 0.0507(4) 0.68573(19) 0.94464(14)
C2 C -0.1764(4) 0.66217(17) 0.92778(14)
C3 C -0.2451(4) 0.71967(18) 0.86458(14)
C4 C -0.0989(5) 0.7091(2) 0.80239(15)
H2 H 0.0440 0.7172 0.8183
H3 H -0.1334 0.7505 0.7666
H4 H -0.1149 0.6531 0.7829
C5 C -0.4637(5) 0.69833(19) 0.83919(15)
H5 H -0.4697 0.6396 0.8255
H6 H -0.5004 0.7333 0.7991
H7 H -0.5609 0.7084 0.8767
C6 C -0.2287(4) 0.80854(18) 0.89160(14)
C7 C -0.3722(5) 0.87033(19) 0.87855(15)
H8 H -0.4916 0.8583 0.8511
C8 C -0.3432(5) 0.9503(2) 0.90539(16)
H9 H -0.4423 0.9924 0.8957
C9 C -0.1711(6) 0.9685(2) 0.94608(18)
H10 H -0.1521 1.0230 0.9642
C10 C -0.0268(5) 0.9073(2) 0.96027(16)
H11 H 0.0926 0.9193 0.9877
C11 C -0.0590(4) 0.8280(2) 0.93376(15)
C12 C -0.2000(5) 0.56892(19) 0.91059(15)
C13 C -0.0576(6) 0.5258(2) 0.87102(17)
H12 H 0.0643 0.5529 0.8564
C14 C -0.0925(7) 0.4433(2) 0.85275(19)
H13 H 0.0064 0.4144 0.8261
C15 C -0.2699(7) 0.4026(2) 0.8730(2)
H14 H -0.2938 0.3464 0.8598
C16 C -0.4108(6) 0.4446(2) 0.91230(19)
H15 H -0.5324 0.4170 0.9267
C17 C -0.3765(5) 0.5273(2) 0.93113(16)
H16 H -0.4751 0.5556 0.9584
C18 C -0.2264(4) 0.6824(2) 1.05354(14)
C19 C -0.3684(4) 0.69891(18) 1.11208(14)
C20 C -0.5732(4) 0.67333(18) 1.11258(14)
H17 H -0.6361 0.6512 1.0716
C21 C -0.6849(4) 0.68017(18) 1.17284(15)
H18 H -0.8229 0.6605 1.1731
C22 C -0.6008(5) 0.71505(19) 1.23287(15)
C23 C -0.3969(5) 0.7429(2) 1.23124(16)
H19 H -0.3372 0.7685 1.2713
C24 C -0.2817(5) 0.7339(2) 1.17254(16)
H20 H -0.1420 0.7516 1.1729
C25 C -0.7246(6) 0.7249(2) 1.29793(17)
H21 H -0.7507 0.7841 1.3063
H22 H -0.6475 0.7014 1.3376
H23 H -0.8561 0.6955 1.2923
O4 O 0.6101(3) 0.45641(14) 0.55122(11)
O5 O 0.7388(3) 0.58208(15) 0.55926(11)
O6 O 0.4744(3) 0.57398(19) 0.44198(11)
N2 N 0.2284(3) 0.55027(16) 0.51966(11)
H24 H 0.1002 0.5354 0.5271
C26 C 0.5871(4) 0.53988(19) 0.56004(14)
C27 C 0.3654(4) 0.56892(19) 0.57914(14)
C28 C 0.3046(5) 0.50994(19) 0.64183(14)
C29 C 0.4710(5) 0.5112(2) 0.69997(15)
H25 H 0.6003 0.4892 0.6820
H26 H 0.4261 0.4767 0.7389
H27 H 0.4923 0.5685 0.7160
C30 C 0.1013(5) 0.5375(2) 0.67370(16)
H28 H 0.1163 0.5941 0.6922
H29 H 0.0654 0.4994 0.7114
H30 H -0.0080 0.5368 0.6379
C31 C 0.2931(5) 0.42347(19) 0.61013(14)
C32 C 0.1366(5) 0.3658(2) 0.61985(15)
H31 H 0.0253 0.3794 0.6492
C33 C 0.1403(6) 0.2886(2) 0.58721(17)
H32 H 0.0313 0.2502 0.5941
C34 C 0.3015(6) 0.2676(2) 0.54488(17)
H33 H 0.3056 0.2141 0.5240
C35 C 0.4580(5) 0.3246(2) 0.53276(16)
H34 H 0.5686 0.3110 0.5031
C36 C 0.4489(4) 0.40120(19) 0.56484(15)
C37 C 0.3547(5) 0.66172(19) 0.59808(14)
C38 C 0.5116(5) 0.7032(2) 0.63461(15)
H35 H 0.6363 0.6749 0.6459
C39 C 0.4861(6) 0.7860(2) 0.65460(17)
H36 H 0.5944 0.8139 0.6790
C40 C 0.3047(6) 0.8278(2) 0.63928(19)
H37 H 0.2883 0.8841 0.6532
C41 C 0.1477(6) 0.7874(2) 0.60377(19)
H38 H 0.0222 0.8157 0.5936
C42 C 0.1733(5) 0.7047(2) 0.58263(16)
H39 H 0.0655 0.6775 0.5574
C43 C 0.2954(4) 0.5556(2) 0.45388(15)
C44 C 0.1485(4) 0.53780(18) 0.39514(14)
C45 C -0.0569(4) 0.56210(19) 0.39479(14)
H40 H -0.1160 0.5837 0.4359
C46 C -0.1760(4) 0.5548(2) 0.33420(15)
H41 H -0.3141 0.5743 0.3337
C47 C -0.0967(5) 0.5195(2) 0.27462(15)
C48 C 0.1069(5) 0.4925(2) 0.27614(16)
H42 H 0.1622 0.4667 0.2361
C49 C 0.2302(5) 0.5025(2) 0.33498(16)
H43 H 0.3703 0.4854 0.3346
C50 C -0.2271(6) 0.5096(2) 0.20943(17)
H44 H -0.3639 0.5335 0.2169
H45 H -0.2408 0.4504 0.1982
H46 H -0.1613 0.5386 0.1709
loop_
_geom_bond_atom_site_label_1
_geom_bond_atom_site_label_2
_geom_bond_site_symmetry_1
_geom_bond_site_symmetry_2
O1 C1 1_555 1_555
O2 C1 1_555 1_555
O3 C18 1_555 1_555
N1 H1 1_555 1_555
C1 C2 1_555 1_555
C2 N1 1_555 1_555
C3 C2 1_555 1_555
C4 C3 1_555 1_555
H2 C4 1_555 1_555
H3 C4 1_555 1_555
H4 C4 1_555 1_555
C5 C3 1_555 1_555
H5 C5 1_555 1_555
H6 C5 1_555 1_555
H7 C5 1_555 1_555
C6 C3 1_555 1_555
C7 C6 1_555 1_555
H8 C7 1_555 1_555
C8 C7 1_555 1_555
H9 C8 1_555 1_555
C9 C8 1_555 1_555
H10 C9 1_555 1_555
C10 C9 1_555 1_555
H11 C10 1_555 1_555
C11 O2 1_555 1_555
C12 C2 1_555 1_555
C13 C12 1_555 1_555
H12 C13 1_555 1_555
C14 C13 1_555 1_555
H13 C14 1_555 1_555
C15 C14 1_555 1_555
H14 C15 1_555 1_555
C16 C15 1_555 1_555
H15 C16 1_555 1_555
C17 C12 1_555 1_555
H16 C17 1_555 1_555
C18 N1 1_555 1_555
C19 C18 1_555 1_555
C20 C19 1_555 1_555
H17 C20 1_555 1_555
C21 C20 1_555 1_555
H18 C21 1_555 1_555
C22 C21 1_555 1_555
C23 C22 1_555 1_555
H19 C23 1_555 1_555
C24 C19 1_555 1_555
H20 C24 1_555 1_555
C25 C22 1_555 1_555
H21 C25 1_555 1_555
H22 C25 1_555 1_555
H23 C25 1_555 1_555
O4 C26 1_555 1_555
O5 C26 1_555 1_555
O6 C43 1_555 1_555
N2 H24 1_555 1_555
C26 C27 1_555 1_555
C27 N2 1_555 1_555
C28 C27 1_555 1_555
C29 C28 1_555 1_555
H25 C29 1_555 1_555
H26 C29 1_555 1_555
H27 C29 1_555 1_555
C30 C28 1_555 1_555
H28 C30 1_555 1_555
H29 C30 1_555 1_555
H30 C30 1_555 1_555
C31 C28 1_555 1_555
C32 C31 1_555 1_555
H31 C32 1_555 1_555
C33 C32 1_555 1_555
H32 C33 1_555 1_555
C34 C33 1_555 1_555
H33 C34 1_555 1_555
C35 C34 1_555 1_555
H34 C35 1_555 1_555
C36 O4 1_555 1_555
C37 C27 1_555 1_555
C38 C37 1_555 1_555
H35 C38 1_555 1_555
C39 C38 1_555 1_555
H36 C39 1_555 1_555
C40 C39 1_555 1_555
H37 C40 1_555 1_555
C41 C40 1_555 1_555
H38 C41 1_555 1_555
C42 C37 1_555 1_555
H39 C42 1_555 1_555
C43 N2 1_555 1_555
C44 C43 1_555 1_555
C45 C44 1_555 1_555
H40 C45 1_555 1_555
C46 C45 1_555 1_555
H41 C46 1_555 1_555
C47 C46 1_555 1_555
C48 C47 1_555 1_555
H42 C48 1_555 1_555
C49 C44 1_555 1_555
H43 C49 1_555 1_555
C50 C47 1_555 1_555
H44 C50 1_555 1_555
H45 C50 1_555 1_555
H46 C50 1_555 1_555
C6 C11 1_555 1_555
C10 C11 1_555 1_555
C16 C17 1_555 1_555
C23 C24 1_555 1_555
C31 C36 1_555 1_555
C35 C36 1_555 1_555
C41 C42 1_555 1_555
C48 C49 1_555 1_555

#END
