
#######################################################################
#
#                 Cambridge Crystallographic Data Centre
#                                CCDC 
#
#######################################################################
#
# If this CIF has been generated from an entry in the Cambridge 
# Structural Database, then it will include bibliographic, chemical, 
# crystal, experimental, refinement or atomic coordinate data resulting 
# from the CCDC's data processing and validation procedures.
#
#######################################################################

data_WAFRIH
_chemical_formula_moiety         'C9 H16 N1 O2 1+,C6 H2 N3 O9 S1 1-'
_chemical_name_systematic        
'2-(ethoxycarbonyl)-6-methyl-1,2,3,6-tetrahydropyridinium 2,4,6-trinitrobenzenesulfonate'
_symmetry_cell_setting           monoclinic
_symmetry_space_group_name_H-M   'P 21'
_symmetry_Int_Tables_number      4
_space_group_name_Hall           'P 2yb'
loop_
_symmetry_equiv_pos_site_id
_symmetry_equiv_pos_as_xyz
1 x,y,z
2 -x,1/2+y,-z
_cell_length_a                   10.2071(7)
_cell_length_b                   16.4858(12)
_cell_length_c                   12.6284(9)
_cell_angle_alpha                90
_cell_angle_beta                 113.189(2)
_cell_angle_gamma                90
_cell_volume                     1953.33
_exptl_crystal_colour            colorless
_exptl_crystal_description       Plate
_cell_formula_units_Z            4
loop_
_atom_site_label
_atom_site_type_symbol
_atom_site_fract_x
_atom_site_fract_y
_atom_site_fract_z
S1 S 0.24754(7) 0.52682(4) 0.97634(6)
O1 O 0.2783(2) 0.58101(14) 0.89959(18)
O2 O 0.3027(2) 0.44528(12) 0.97960(18)
O3 O 0.1036(2) 0.52921(13) 0.96919(18)
O4 O 0.1480(3) 0.69983(13) 1.0407(2)
O5 O 0.0551(2) 0.64129(16) 1.1496(2)
O6 O 0.4883(3) 0.64887(15) 1.5247(2)
O7 O 0.6723(3) 0.5802(2) 1.5315(2)
O8 O 0.5752(2) 0.52167(15) 1.04404(19)
O9 O 0.6325(2) 0.43086(14) 1.1792(2)
N1 N 0.1519(3) 0.65285(16) 1.1171(2)
N2 N 0.5543(3) 0.60840(18) 1.4803(2)
N3 N 0.5694(3) 0.49190(16) 1.1311(2)
C1 C 0.3509(3) 0.56419(18) 1.1206(3)
C2 C 0.4877(3) 0.53644(18) 1.1860(3)
C3 C 0.5568(3) 0.55047(19) 1.3026(3)
H1 H 0.6502 0.5304 1.3449
C4 C 0.4850(4) 0.59478(19) 1.3551(3)
C5 C 0.3514(3) 0.62638(18) 1.2964(3)
H2 H 0.3044 0.6572 1.3345
C6 C 0.2884(3) 0.61150(18) 1.1795(3)
S2 S 0.24158(8) 0.46744(4) 0.45867(6)
O10 O 0.1869(2) 0.54826(13) 0.46289(18)
O11 O 0.3844(2) 0.46720(13) 0.46293(18)
O12 O 0.2142(2) 0.40961(14) 0.53290(19)
O13 O 0.4258(2) 0.35929(16) 0.2718(2)
O14 O 0.3418(3) 0.30028(14) 0.3869(2)
O15 O -0.1988(2) 0.41901(15) -0.0958(2)
O16 O -0.0178(2) 0.35057(14) -0.09586(19)
O17 O -0.1445(2) 0.56960(14) 0.2577(2)
O18 O -0.0889(2) 0.47574(15) 0.38904(19)
N4 N 0.3333(3) 0.34674(16) 0.3089(2)
N5 N -0.0791(3) 0.39090(16) -0.0482(2)
N6 N -0.0820(3) 0.50733(16) 0.3041(2)
C7 C 0.1359(3) 0.43516(18) 0.3117(3)
C8 C 0.1954(3) 0.38801(18) 0.2497(3)
C9 C 0.1294(3) 0.37309(18) 0.1332(3)
H3 H 0.1741 0.3415 0.0940
C10 C -0.0042(3) 0.40593(18) 0.0760(3)
C11 C -0.0719(3) 0.45221(18) 0.1312(3)
H4 H -0.1639 0.4747 0.0905
C12 C 0.0004(3) 0.46401(19) 0.2479(3)
O19 O 0.4239(2) 0.53554(13) 0.72300(18)
O20 O 0.5595(2) 0.64709(13) 0.78101(19)
N7 N 0.1812(3) 0.61804(16) 0.6685(3)
H5 H 0.181(4) 0.589(3) 0.612(4)
H6 H 0.192(4) 0.587(2) 0.737(3)
C13 C 0.0425(4) 0.6634(2) 0.6350(3)
H7 H -0.0261 0.6274 0.6513
C14 C 0.0654(4) 0.7374(3) 0.7092(4)
H8 H -0.0168 0.7638 0.7104
C15 C 0.1891(4) 0.7683(2) 0.7720(4)
H9 H 0.1904 0.8173 0.8120
C16 C 0.3281(4) 0.73241(19) 0.7859(3)
H10 H 0.3730 0.7082 0.8636
H11 H 0.3916 0.7760 0.7800
C17 C 0.3139(3) 0.66717(19) 0.6955(3)
H12 H 0.3088 0.6945 0.6233
C18 C -0.0197(5) 0.6826(3) 0.5101(4)
H13 H 0.0500 0.7126 0.4899
H14 H -0.1056 0.7156 0.4922
H15 H -0.0447 0.6320 0.4658
C19 C 0.4377(3) 0.60859(18) 0.7342(3)
C20 C 0.6869(3) 0.5956(2) 0.8165(3)
H16 H 0.6832 0.5602 0.7520
H17 H 0.6932 0.5609 0.8823
C21 C 0.8126(4) 0.6510(2) 0.8505(4)
H18 H 0.8051 0.6849 0.7845
H19 H 0.9003 0.6188 0.8750
H20 H 0.8149 0.6858 0.9142
O21 O 0.0882(2) 0.45960(12) 0.71473(18)
O22 O -0.0399(2) 0.34750(12) 0.64127(18)
N8 N 0.3360(3) 0.38580(15) 0.7835(2)
H21 H 0.340(4) 0.414(2) 0.853(3)
H22 H 0.336(4) 0.422(2) 0.737(3)
C22 C 0.4772(3) 0.34331(18) 0.8169(3)
H23 H 0.5518 0.3786 0.8735
C23 C 0.4733(3) 0.2650(2) 0.8766(3)
H24 H 0.5608 0.2370 0.9149
C24 C 0.3565(4) 0.23232(19) 0.8794(3)
H25 H 0.3653 0.1827 0.9200
C25 C 0.2110(3) 0.26891(19) 0.8224(3)
H26 H 0.1832 0.2946 0.8813
H27 H 0.1410 0.2257 0.7840
C26 C 0.2088(3) 0.33205(18) 0.7339(3)
H28 H 0.2117 0.3037 0.6648
C27 C 0.5151(3) 0.3325(2) 0.7127(3)
H29 H 0.4421 0.2993 0.6548
H30 H 0.6078 0.3055 0.7364
H31 H 0.5197 0.3857 0.6798
C28 C 0.0800(3) 0.38797(18) 0.6957(3)
C29 C -0.1702(3) 0.3963(2) 0.6067(3)
H32 H -0.1567 0.4486 0.5738
H33 H -0.1933 0.4077 0.6744
C30 C -0.2887(4) 0.3491(2) 0.5183(3)
H34 H -0.2682 0.3418 0.4494
H35 H -0.3785 0.3788 0.4979
H36 H -0.2968 0.2960 0.5499
loop_
_geom_bond_atom_site_label_1
_geom_bond_atom_site_label_2
_geom_bond_site_symmetry_1
_geom_bond_site_symmetry_2
S1 O1 1_555 1_555
O2 S1 1_555 1_555
O3 S1 1_555 1_555
O4 N1 1_555 1_555
O5 N1 1_555 1_555
O6 N2 1_555 1_555
O7 N2 1_555 1_555
O8 N3 1_555 1_555
O9 N3 1_555 1_555
N1 C6 1_555 1_555
N2 C4 1_555 1_555
N3 C2 1_555 1_555
C1 S1 1_555 1_555
C2 C1 1_555 1_555
C3 C2 1_555 1_555
H1 C3 1_555 1_555
C4 C3 1_555 1_555
C5 C4 1_555 1_555
H2 C5 1_555 1_555
C6 C1 1_555 1_555
S2 O10 1_555 1_555
O11 S2 1_555 1_555
O12 S2 1_555 1_555
O13 N4 1_555 1_555
O14 N4 1_555 1_555
O15 N5 1_555 1_555
O16 N5 1_555 1_555
O17 N6 1_555 1_555
O18 N6 1_555 1_555
N4 C8 1_555 1_555
N5 C10 1_555 1_555
N6 C12 1_555 1_555
C7 S2 1_555 1_555
C8 C7 1_555 1_555
C9 C8 1_555 1_555
H3 C9 1_555 1_555
C10 C9 1_555 1_555
C11 C10 1_555 1_555
H4 C11 1_555 1_555
C12 C7 1_555 1_555
O19 C19 1_555 1_555
O20 C19 1_555 1_555
N7 H5 1_555 1_555
H6 N7 1_555 1_555
C13 N7 1_555 1_555
H7 C13 1_555 1_555
C14 C13 1_555 1_555
H8 C14 1_555 1_555
C15 C14 1_555 1_555
H9 C15 1_555 1_555
C16 C15 1_555 1_555
H10 C16 1_555 1_555
H11 C16 1_555 1_555
C17 N7 1_555 1_555
H12 C17 1_555 1_555
C18 C13 1_555 1_555
H13 C18 1_555 1_555
H14 C18 1_555 1_555
H15 C18 1_555 1_555
C19 C17 1_555 1_555
C20 O20 1_555 1_555
H16 C20 1_555 1_555
H17 C20 1_555 1_555
C21 C20 1_555 1_555
H18 C21 1_555 1_555
H19 C21 1_555 1_555
H20 C21 1_555 1_555
O21 C28 1_555 1_555
O22 C28 1_555 1_555
N8 H21 1_555 1_555
H22 N8 1_555 1_555
C22 N8 1_555 1_555
H23 C22 1_555 1_555
C23 C22 1_555 1_555
H24 C23 1_555 1_555
C24 C23 1_555 1_555
H25 C24 1_555 1_555
C25 C24 1_555 1_555
H26 C25 1_555 1_555
H27 C25 1_555 1_555
C26 N8 1_555 1_555
H28 C26 1_555 1_555
C27 C22 1_555 1_555
H29 C27 1_555 1_555
H30 C27 1_555 1_555
H31 C27 1_555 1_555
C28 C26 1_555 1_555
C29 O22 1_555 1_555
H32 C29 1_555 1_555
H33 C29 1_555 1_555
C30 C29 1_555 1_555
H34 C30 1_555 1_555
H35 C30 1_555 1_555
H36 C30 1_555 1_555
C5 C6 1_555 1_555
C11 C12 1_555 1_555
C16 C17 1_555 1_555
C25 C26 1_555 1_555

#END
