
#######################################################################
#
#                 Cambridge Crystallographic Data Centre
#                                CCDC 
#
#######################################################################
#
# If this CIF has been generated from an entry in the Cambridge 
# Structural Database, then it will include bibliographic, chemical, 
# crystal, experimental, refinement or atomic coordinate data resulting 
# from the CCDC's data processing and validation procedures.
#
#######################################################################

data_WAFROL02
_chemical_formula_moiety         '2(C9 H14 N1 1+),C2 H2 O4,C2 O4 2-'
_chemical_name_systematic        
'bis(N,N-Dimethyl-benzylammonium) oxalate oxalic acid'
_symmetry_cell_setting           triclinic
_symmetry_space_group_name_H-M   'P -1'
_symmetry_Int_Tables_number      2
_space_group_name_Hall           '-P 1'
loop_
_symmetry_equiv_pos_site_id
_symmetry_equiv_pos_as_xyz
1 x,y,z
2 -x,-y,-z
_cell_length_a                   8.6816(5)
_cell_length_b                   11.1401(5)
_cell_length_c                   13.8009(9)
_cell_angle_alpha                76.669(5)
_cell_angle_beta                 84.121(5)
_cell_angle_gamma                68.345(5)
_cell_volume                     1206.89
_exptl_crystal_colour            colorless
_cell_formula_units_Z            2
loop_
_atom_site_label
_atom_site_type_symbol
_atom_site_fract_x
_atom_site_fract_y
_atom_site_fract_z
N1 N 0.65130(15) -0.15705(13) 0.36448(11)
C3 C 0.6349(2) -0.26983(19) 0.44150(16)
H1 H 0.5509 -0.2972 0.4219
H2 H 0.6030 -0.2428 0.5048
H3 H 0.7402 -0.3430 0.4480
C4 C 0.6877(2) -0.19200(18) 0.26384(14)
H4 H 0.6067 -0.2284 0.2508
H5 H 0.7979 -0.2606 0.2639
C5 C 0.7775(2) -0.1125(2) 0.39438(16)
H6 H 0.8824 -0.1858 0.4047
H7 H 0.7415 -0.0807 0.4557
H8 H 0.7911 -0.0418 0.3423
C6 C 0.6818(2) -0.07554(19) 0.18189(14)
C7 C 0.5337(3) 0.0078(2) 0.13837(16)
H9 H 0.4363 -0.0102 0.1588
C8 C 0.8243(3) -0.0473(2) 0.14977(18)
H10 H 0.9269 -0.1027 0.1782
C9 C 0.5266(4) 0.1181(3) 0.0645(2)
H11 H 0.4245 0.1742 0.0357
C10 C 0.6658(4) 0.1453(3) 0.0339(2)
H12 H 0.6603 0.2204 -0.0158
C11 C 0.8143(4) 0.0630(3) 0.0756(2)
H13 H 0.9109 0.0814 0.0537
H14 H 0.5525 -0.0819 0.3594
O5 O 0.28471(13) 0.41818(11) 0.31455(11)
O6 O 0.04139(15) 0.55240(13) 0.35701(14)
O7 O 0.16873(14) 0.74506(12) 0.32436(13)
O8 O 0.4153(4) 0.5960(4) 0.3291(8)
C12 C 0.18507(18) 0.52769(15) 0.33461(13)
C13 C 0.2698(2) 0.62888(16) 0.32794(14)
H15 H 0.2232 0.3617 0.3246
H16 H 0.2175 0.8108 0.3304
N2 N -0.19344(16) 0.31157(14) 0.31088(12)
C14 C -0.1936(2) 0.43421(18) 0.23783(17)
H17 H -0.2991 0.5057 0.2444
H18 H -0.1049 0.4601 0.2546
C15 C -0.1699(2) 0.4189(2) 0.13206(16)
C16 C -0.3247(2) 0.2660(2) 0.28977(19)
H19 H -0.3266 0.1910 0.3415
H20 H -0.3018 0.2402 0.2258
H21 H -0.4314 0.3371 0.2883
C17 C -0.2086(3) 0.3324(2) 0.41458(17)
H22 H -0.3168 0.3972 0.4247
H23 H -0.1230 0.3640 0.4257
H24 H -0.1959 0.2496 0.4610
C18 C -0.0229(3) 0.3336(2) 0.09987(17)
H25 H 0.0619 0.2829 0.1456
C19 C -0.2920(3) 0.4933(3) 0.0627(2)
H26 H -0.3932 0.5515 0.0829
C20 C -0.2659(5) 0.4825(4) -0.0367(3)
H27 H -0.3484 0.5346 -0.0836
C21 C -0.1197(5) 0.3959(4) -0.0661(2)
H28 H -0.1026 0.3876 -0.1329
C22 C 0.0009(3) 0.3218(3) 0.00166(19)
H29 H 0.1009 0.2624 -0.0187
H30 H -0.0903 0.2452 0.3044
O1 O 0.41012(13) 0.08976(11) 0.36372(10)
O2 O 0.16335(13) 0.24577(11) 0.32445(10)
O3 O 0.03910(14) 0.06056(12) 0.31939(12)
O4 O 0.29148(13) -0.09189(11) 0.33719(11)
C1 C 0.26411(18) 0.12738(15) 0.34061(12)
C2 C 0.18835(19) 0.02466(15) 0.33159(13)
O9? O 0.4122(4) 0.5802(3) 0.3754(2)
O10? O 0.4109(4) 0.6154(3) 0.2764(2)
loop_
_geom_bond_atom_site_label_1
_geom_bond_atom_site_label_2
_geom_bond_site_symmetry_1
_geom_bond_site_symmetry_2
O1 C1 1_555 1_555
O2 C1 1_555 1_555
O3 C2 1_555 1_555
O4 C2 1_555 1_555
C1 C2 1_555 1_555
N1 C3 1_555 1_555
C3 H1 1_555 1_555
H2 C3 1_555 1_555
H3 C3 1_555 1_555
C4 N1 1_555 1_555
H4 C4 1_555 1_555
H5 C4 1_555 1_555
C5 N1 1_555 1_555
H6 C5 1_555 1_555
H7 C5 1_555 1_555
H8 C5 1_555 1_555
C6 C4 1_555 1_555
C7 C6 1_555 1_555
H9 C7 1_555 1_555
C8 C6 1_555 1_555
H10 C8 1_555 1_555
C9 C7 1_555 1_555
H11 C9 1_555 1_555
C10 C9 1_555 1_555
H12 C10 1_555 1_555
C11 C8 1_555 1_555
H13 C11 1_555 1_555
H14 N1 1_555 1_555
O5 C12 1_555 1_555
O6 C12 1_555 1_555
O7 C13 1_555 1_555
O8 C13 1_555 1_555
C12 C13 1_555 1_555
H15 O5 1_555 1_555
H16 O7 1_555 1_555
N2 C14 1_555 1_555
C14 H17 1_555 1_555
H18 C14 1_555 1_555
C15 C14 1_555 1_555
C16 N2 1_555 1_555
H19 C16 1_555 1_555
H20 C16 1_555 1_555
H21 C16 1_555 1_555
C17 N2 1_555 1_555
H22 C17 1_555 1_555
H23 C17 1_555 1_555
H24 C17 1_555 1_555
C18 C15 1_555 1_555
H25 C18 1_555 1_555
C19 C15 1_555 1_555
H26 C19 1_555 1_555
C20 C19 1_555 1_555
H27 C20 1_555 1_555
C21 C20 1_555 1_555
H28 C21 1_555 1_555
C22 C18 1_555 1_555
H29 C22 1_555 1_555
H30 N2 1_555 1_555
C10 C11 1_555 1_555
C21 C22 1_555 1_555

#END
