
#######################################################################
#
#                 Cambridge Crystallographic Data Centre
#                                CCDC 
#
#######################################################################
#
# If this CIF has been generated from an entry in the Cambridge 
# Structural Database, then it will include bibliographic, chemical, 
# crystal, experimental, refinement or atomic coordinate data resulting 
# from the CCDC's data processing and validation procedures.
#
#######################################################################

data_WAFROL01
_chemical_formula_moiety         '2(C9 H14 N1 1+),C2 H2 O4,C2 O4 2-'
_chemical_name_systematic        
'bis(N,N-Dimethyl(phenyl)methanaminium) oxalate oxalic acid'
_symmetry_cell_setting           triclinic
_symmetry_space_group_name_H-M   'P -1'
_symmetry_Int_Tables_number      2
_space_group_name_Hall           '-P 1'
loop_
_symmetry_equiv_pos_site_id
_symmetry_equiv_pos_as_xyz
1 x,y,z
2 -x,-y,-z
_cell_length_a                   8.8073(4)
_cell_length_b                   11.1216(4)
_cell_length_c                   13.5655(7)
_cell_angle_alpha                73.882(4)
_cell_angle_beta                 80.813(4)
_cell_angle_gamma                66.925(4)
_cell_volume                     1172.45
_exptl_crystal_colour            colorless
_cell_formula_units_Z            2
loop_
_atom_site_label
_atom_site_type_symbol
_atom_site_fract_x
_atom_site_fract_y
_atom_site_fract_z
N1 N 0.64435(13) 0.81417(11) 0.36107(9)
H1 H 0.5428 0.8849 0.3600
C3 C 0.62503(17) 0.69234(13) 0.43342(11)
H2 H 0.5425 0.6702 0.4090
H3 H 0.5886 0.7099 0.5019
H4 H 0.7312 0.6166 0.4370
C4 C 0.69002(17) 0.79256(13) 0.25369(11)
H5 H 0.8029 0.7239 0.2516
H6 H 0.6129 0.7577 0.2359
C5 C 0.68424(17) 0.91991(13) 0.17508(11)
C6 C 0.76657(17) 0.85091(14) 0.39869(12)
H7 H 0.7271 0.8709 0.4662
H8 H 0.7797 0.9303 0.3501
H9 H 0.8733 0.7756 0.4045
C7 C 0.53637(19) 1.00763(15) 0.13110(11)
H10 H 0.4398 0.9861 0.1500
C8 C 0.82542(18) 0.95149(15) 0.14543(12)
H11 H 0.9275 0.8919 0.1743
C9 C 0.6696(2) 1.15736(16) 0.03121(13)
H12 H 0.6645 1.2386 -0.0176
C10 C 0.8171(2) 1.07043(16) 0.07356(13)
H13 H 0.9137 1.0918 0.0536
C11 C 0.5288(2) 1.12628(16) 0.05986(13)
H14 H 0.4270 1.1862 0.0307
O5 O 0.27536(11) 0.38517(9) 0.31845(8)
O6 O 0.02554(11) 0.52666(9) 0.35955(8)
O7 O 0.16117(11) 0.72051(9) 0.31104(8)
O8 O 0.40349(12) 0.55448(10) 0.35202(10)
C12 C 0.25889(16) 0.59663(13) 0.33324(10)
C13 C 0.17274(16) 0.49757(12) 0.33836(10)
H15 H 0.2215 0.3212 0.3302
H16 H 0.2090 0.7825 0.3194
N2 N 0.80098(13) 0.28979(11) 0.31915(9)
H17 H 0.9032 0.2239 0.3091
C14 C 0.79676(17) 0.41992(13) 0.24545(11)
H18 H 0.8822 0.4467 0.2627
H19 H 0.6878 0.4908 0.2544
C15 C 0.82576(17) 0.41208(13) 0.13472(11)
C16 C 0.78613(18) 0.30337(15) 0.42655(11)
H20 H 0.8734 0.3320 0.4366
H21 H 0.7974 0.2165 0.4743
H22 H 0.6778 0.3705 0.4396
C17 C 0.97775(18) 0.33046(14) 0.09866(11)
H23 H 1.0630 0.2772 0.1448
C18 C 0.67082(17) 0.24572(14) 0.30091(12)
H24 H 0.5621 0.3167 0.3058
H25 H 0.6740 0.1635 0.3527
H26 H 0.6906 0.2280 0.2322
C19 C 0.70322(19) 0.49058(15) 0.06546(12)
H27 H 0.5987 0.5463 0.0890
C20 C 0.7325(2) 0.48817(17) -0.03750(13)
H28 H 0.6490 0.5435 -0.0844
C21 C 0.8830(2) 0.40543(18) -0.07207(13)
H29 H 0.9024 0.4028 -0.1425
C22 C 1.0055(2) 0.32634(16) -0.00387(12)
H30 H 1.1089 0.2691 -0.0275
O1 O 0.28616(11) 0.87863(9) 0.32401(8)
O2 O 0.15177(11) 1.21731(9) 0.32585(8)
O3 O 0.03017(12) 1.03448(9) 0.31725(9)
O4 O 0.39401(11) 1.05323(9) 0.37011(8)
C1 C 0.25189(15) 1.09566(12) 0.34221(10)
C2 C 0.17950(16) 0.99605(13) 0.32636(10)
loop_
_geom_bond_atom_site_label_1
_geom_bond_atom_site_label_2
_geom_bond_site_symmetry_1
_geom_bond_site_symmetry_2
O1 C2 1_555 1_555
O2 C1 1_555 1_555
O3 C2 1_555 1_555
O4 C1 1_555 1_555
C1 C2 1_555 1_555
N1 H1 1_555 1_555
C3 N1 1_555 1_555
H2 C3 1_555 1_555
H3 C3 1_555 1_555
H4 C3 1_555 1_555
C4 N1 1_555 1_555
H5 C4 1_555 1_555
H6 C4 1_555 1_555
C5 C4 1_555 1_555
C6 N1 1_555 1_555
H7 C6 1_555 1_555
H8 C6 1_555 1_555
H9 C6 1_555 1_555
C7 C5 1_555 1_555
H10 C7 1_555 1_555
C8 C5 1_555 1_555
H11 C8 1_555 1_555
C9 H12 1_555 1_555
C10 C8 1_555 1_555
H13 C10 1_555 1_555
C11 C7 1_555 1_555
H14 C11 1_555 1_555
O5 C13 1_555 1_555
O6 C13 1_555 1_555
O7 C12 1_555 1_555
O8 C12 1_555 1_555
C12 C13 1_555 1_555
H15 O5 1_555 1_555
H16 O7 1_555 1_555
N2 H17 1_555 1_555
C14 N2 1_555 1_555
H18 C14 1_555 1_555
H19 C14 1_555 1_555
C15 C14 1_555 1_555
C16 N2 1_555 1_555
H20 C16 1_555 1_555
H21 C16 1_555 1_555
H22 C16 1_555 1_555
C17 C15 1_555 1_555
H23 C17 1_555 1_555
C18 N2 1_555 1_555
H24 C18 1_555 1_555
H25 C18 1_555 1_555
H26 C18 1_555 1_555
C19 C15 1_555 1_555
H27 C19 1_555 1_555
C20 C19 1_555 1_555
H28 C20 1_555 1_555
C21 C20 1_555 1_555
H29 C21 1_555 1_555
C22 C17 1_555 1_555
H30 C22 1_555 1_555
C9 C10 1_555 1_555
C9 C11 1_555 1_555
C21 C22 1_555 1_555

#END
