
#######################################################################
#
#                 Cambridge Crystallographic Data Centre
#                                CCDC 
#
#######################################################################
#
# If this CIF has been generated from an entry in the Cambridge 
# Structural Database, then it will include bibliographic, chemical, 
# crystal, experimental, refinement or atomic coordinate data resulting 
# from the CCDC's data processing and validation procedures.
#
#######################################################################

data_WAFTUV
_chemical_formula_moiety         'C22 H26 B1 N1'
_chemical_name_systematic        
2-(4-methylphenyl)-1H-spiro[1,2-azaborolo[1,5-a]pyridine-1,9'-[9\l^5^]borabicyclo[3.3.1]nonane]
_symmetry_cell_setting           triclinic
_symmetry_space_group_name_H-M   'P -1'
_symmetry_Int_Tables_number      2
_space_group_name_Hall           '-P 1'
loop_
_symmetry_equiv_pos_site_id
_symmetry_equiv_pos_as_xyz
1 x,y,z
2 -x,-y,-z
_cell_length_a                   8.7114(3)
_cell_length_b                   9.6629(4)
_cell_length_c                   10.9661(5)
_cell_angle_alpha                107.461(2)
_cell_angle_beta                 90.795(2)
_cell_angle_gamma                100.807(2)
_cell_volume                     862.519
_exptl_crystal_colour            colorless
_exptl_crystal_description       block
_cell_formula_units_Z            2
loop_
_atom_site_label
_atom_site_type_symbol
_atom_site_fract_x
_atom_site_fract_y
_atom_site_fract_z
B1 B 0.16068(15) 0.64451(15) 0.77754(13)
N1 N 0.11936(12) 0.81096(11) 0.80698(10)
C1 C -0.01636(14) 0.55265(13) 0.72578(11)
C2 C -0.11587(14) 0.64675(14) 0.73807(12)
H1 H -0.2258 0.6154 0.7181
C3 C 0.22159(14) 0.62732(13) 0.91305(12)
H2 H 0.1374 0.6430 0.9739
C4 C 0.24809(16) 0.46858(14) 0.88844(13)
H3 H 0.2808 0.4565 0.9708
H4 H 0.1477 0.3982 0.8551
C5 C 0.37153(16) 0.42950(15) 0.79357(14)
H5 H 0.3720 0.3226 0.7731
H6 H 0.4761 0.4853 0.8343
C6 C 0.34297(16) 0.46456(14) 0.66869(13)
H7 H 0.2552 0.3882 0.6164
H8 H 0.4375 0.4565 0.6201
C7 C 0.30469(14) 0.61861(14) 0.68495(12)
H9 H 0.2716 0.6231 0.5987
C8 C 0.45137(15) 0.74015(15) 0.73980(13)
H10 H 0.4322 0.8339 0.7293
H11 H 0.5398 0.7132 0.6883
C9 C 0.50111(15) 0.76824(15) 0.88238(14)
H12 H 0.5749 0.7029 0.8861
H13 H 0.5599 0.8716 0.9171
C10 C 0.37065(15) 0.74457(14) 0.97288(12)
H14 H 0.3390 0.8406 1.0118
H15 H 0.4163 0.7169 1.0432
C11 C -0.03765(14) 0.79924(14) 0.78453(12)
C12 C -0.10182(15) 0.92562(14) 0.80437(13)
H16 H -0.2113 0.9162 0.7881
C13 C -0.00643(16) 1.06348(15) 0.84741(13)
H17 H -0.0488 1.1501 0.8604
C14 C 0.15241(16) 1.07420(14) 0.87161(13)
H18 H 0.2204 1.1685 0.9024
C15 C 0.21093(15) 0.94720(14) 0.85075(13)
H19 H 0.3201 0.9557 0.8678
C16 C -0.08473(13) 0.39182(13) 0.67335(11)
C17 C -0.03995(15) 0.30289(14) 0.55915(12)
H20 H 0.0421 0.3442 0.5165
C18 C -0.11276(15) 0.15571(14) 0.50691(12)
H21 H -0.0791 0.0980 0.4295
C19 C -0.23411(15) 0.09036(14) 0.56520(13)
C20 C -0.28037(15) 0.17893(14) 0.67803(13)
H22 H -0.3635 0.1375 0.7196
C21 C -0.20779(14) 0.32632(14) 0.73117(12)
H23 H -0.2423 0.3839 0.8083
C22 C -0.31100(18) -0.07022(15) 0.50680(15)
H24 H -0.4167 -0.0874 0.5360
H25 H -0.2488 -0.1323 0.5333
H26 H -0.3176 -0.0954 0.4131
loop_
_geom_bond_atom_site_label_1
_geom_bond_atom_site_label_2
_geom_bond_site_symmetry_1
_geom_bond_site_symmetry_2
B1 N1 1_555 1_555
N1 C11 1_555 1_555
C1 B1 1_555 1_555
C2 C1 1_555 1_555
H1 C2 1_555 1_555
C3 B1 1_555 1_555
H2 C3 1_555 1_555
C4 C3 1_555 1_555
H3 C4 1_555 1_555
H4 C4 1_555 1_555
C5 C4 1_555 1_555
H5 C5 1_555 1_555
H6 C5 1_555 1_555
C6 C5 1_555 1_555
H7 C6 1_555 1_555
H8 C6 1_555 1_555
C7 B1 1_555 1_555
H9 C7 1_555 1_555
C8 C7 1_555 1_555
H10 C8 1_555 1_555
H11 C8 1_555 1_555
C9 C8 1_555 1_555
H12 C9 1_555 1_555
H13 C9 1_555 1_555
C10 C3 1_555 1_555
H14 C10 1_555 1_555
H15 C10 1_555 1_555
C11 C2 1_555 1_555
C12 C11 1_555 1_555
H16 C12 1_555 1_555
C13 C12 1_555 1_555
H17 C13 1_555 1_555
C14 C13 1_555 1_555
H18 C14 1_555 1_555
C15 N1 1_555 1_555
H19 C15 1_555 1_555
C16 C1 1_555 1_555
C17 C16 1_555 1_555
H20 C17 1_555 1_555
C18 C17 1_555 1_555
H21 C18 1_555 1_555
C19 C18 1_555 1_555
C20 C19 1_555 1_555
H22 C20 1_555 1_555
C21 C16 1_555 1_555
H23 C21 1_555 1_555
C22 C19 1_555 1_555
H24 C22 1_555 1_555
H25 C22 1_555 1_555
H26 C22 1_555 1_555
C6 C7 1_555 1_555
C9 C10 1_555 1_555
C14 C15 1_555 1_555
C20 C21 1_555 1_555

#END
