
#######################################################################
#
#                 Cambridge Crystallographic Data Centre
#                                CCDC 
#
#######################################################################
#
# If this CIF has been generated from an entry in the Cambridge 
# Structural Database, then it will include bibliographic, chemical, 
# crystal, experimental, refinement or atomic coordinate data resulting 
# from the CCDC's data processing and validation procedures.
#
#######################################################################

data_WAFVIL
_chemical_formula_moiety         'C16 H11 N1 O1'
_chemical_name_systematic        5-methyl-2-phenyl-1-benzofuran-3-carbonitrile
_symmetry_cell_setting           monoclinic
_symmetry_space_group_name_H-M   'P 21/c'
_symmetry_Int_Tables_number      14
_space_group_name_Hall           '-P 2ybc'
loop_
_symmetry_equiv_pos_site_id
_symmetry_equiv_pos_as_xyz
1 x,y,z
2 -x,1/2+y,1/2-z
3 -x,-y,-z
4 x,1/2-y,1/2+z
_cell_length_a                   9.9587(8)
_cell_length_b                   12.7222(10)
_cell_length_c                   9.7025(8)
_cell_angle_alpha                90
_cell_angle_beta                 94.493(8)
_cell_angle_gamma                90
_cell_volume                     1225.5
_exptl_crystal_colour            colorless
_exptl_crystal_description       block
_cell_formula_units_Z            4
loop_
_atom_site_label
_atom_site_type_symbol
_atom_site_fract_x
_atom_site_fract_y
_atom_site_fract_z
O1 O 0.74979(11) 0.63805(7) 0.13543(11)
N1 N 0.70235(16) 1.00430(11) 0.04493(17)
C1 C 0.93049(19) 0.61913(16) 0.32369(18)
H1 H 0.9268 0.5461 0.3264
C2 C 1.0201(2) 0.67536(18) 0.40988(19)
H2 H 1.0794 0.6386 0.4711
C3 C 1.02653(17) 0.78550(18) 0.40994(18)
C4 C 0.93944(15) 0.83987(15) 0.31878(16)
H3 H 0.9413 0.9129 0.3173
C5 C 0.84821(15) 0.78525(12) 0.22850(15)
C6 C 0.84617(16) 0.67705(13) 0.23295(16)
C7 C 0.69063(15) 0.72338(11) 0.06775(15)
C8 C 0.74738(14) 0.81380(11) 0.12091(15)
C9 C 1.12655(18) 0.8409(2) 0.50811(19)
H4 H 1.1075 0.8254 0.6015
H5 H 1.1204 0.9153 0.4927
H6 H 1.2158 0.8173 0.4930
C10 C 0.58672(16) 0.70106(12) -0.04220(16)
C11 C 0.56980(18) 0.59986(13) -0.09549(18)
H7 H 0.6246 0.5455 -0.0601
C12 C 0.4713(2) 0.58017(16) -0.20115(19)
H8 H 0.4600 0.5124 -0.2359
C13 C 0.3907(2) 0.65931(17) -0.25477(19)
H9 H 0.3257 0.6455 -0.3266
C14 C 0.40585(19) 0.75935(17) -0.20249(18)
H10 H 0.3506 0.8132 -0.2386
C15 C 0.50223(17) 0.77999(13) -0.09714(17)
H11 H 0.5112 0.8479 -0.0620
C16 C 0.71920(15) 0.91862(13) 0.07636(16)
loop_
_geom_bond_atom_site_label_1
_geom_bond_atom_site_label_2
_geom_bond_site_symmetry_1
_geom_bond_site_symmetry_2
O1 C6 1_555 1_555
N1 C16 1_555 1_555
C1 H1 1_555 1_555
C2 C1 1_555 1_555
H2 C2 1_555 1_555
C3 C2 1_555 1_555
C4 C3 1_555 1_555
H3 C4 1_555 1_555
C5 C4 1_555 1_555
C6 C1 1_555 1_555
C7 O1 1_555 1_555
C8 C5 1_555 1_555
C9 C3 1_555 1_555
H4 C9 1_555 1_555
H5 C9 1_555 1_555
H6 C9 1_555 1_555
C10 C7 1_555 1_555
C11 C10 1_555 1_555
H7 C11 1_555 1_555
C12 C11 1_555 1_555
H8 C12 1_555 1_555
C13 C12 1_555 1_555
H9 C13 1_555 1_555
C14 C13 1_555 1_555
H10 C14 1_555 1_555
C15 C10 1_555 1_555
H11 C15 1_555 1_555
C16 C8 1_555 1_555
C5 C6 1_555 1_555
C7 C8 1_555 1_555
C14 C15 1_555 1_555

#END
