
#######################################################################
#
#                 Cambridge Crystallographic Data Centre
#                                CCDC 
#
#######################################################################
#
# If this CIF has been generated from an entry in the Cambridge 
# Structural Database, then it will include bibliographic, chemical, 
# crystal, experimental, refinement or atomic coordinate data resulting 
# from the CCDC's data processing and validation procedures.
#
#######################################################################

data_WAFVAD
_chemical_formula_moiety         'C21 H24 B1 N1'
_chemical_name_systematic        
2-phenyl-1H-spiro[1,2-azaborolo[1,5-a]pyridine-1,9'-[9\l^5^]borabicyclo[3.3.1]nonane]
_symmetry_cell_setting           monoclinic
_symmetry_space_group_name_H-M   'P 21/c'
_symmetry_Int_Tables_number      14
_space_group_name_Hall           '-P 2ybc'
loop_
_symmetry_equiv_pos_site_id
_symmetry_equiv_pos_as_xyz
1 x,y,z
2 -x,1/2+y,1/2-z
3 -x,-y,-z
4 x,1/2-y,1/2+z
_cell_length_a                   7.5492(3)
_cell_length_b                   15.7188(8)
_cell_length_c                   13.8319(7)
_cell_angle_alpha                90
_cell_angle_beta                 95.749(4)
_cell_angle_gamma                90
_cell_volume                     1633.1
_exptl_crystal_colour            colorless
_exptl_crystal_description       block
_cell_formula_units_Z            4
loop_
_atom_site_label
_atom_site_type_symbol
_atom_site_fract_x
_atom_site_fract_y
_atom_site_fract_z
B1 B 0.9731(2) 0.26512(12) 0.83582(15)
N1 N 1.12352(16) 0.30936(9) 0.91468(10)
C1 C 0.86983(19) 0.35270(11) 0.80381(12)
C2 C 0.9506(2) 0.41940(11) 0.85031(13)
H1 H 0.9118 0.4765 0.8407
C3 C 1.06775(19) 0.21415(11) 0.75182(13)
H2 H 1.1422 0.2554 0.7186
C4 C 0.9231(2) 0.17888(12) 0.67641(13)
H3 H 0.8613 0.2272 0.6417
H4 H 0.9811 0.1451 0.6280
C5 C 0.7845(2) 0.12309(11) 0.71933(14)
H5 H 0.6839 0.1134 0.6689
H6 H 0.8388 0.0671 0.7366
C6 C 0.7119(2) 0.16054(12) 0.80916(13)
H7 H 0.6418 0.1163 0.8391
H8 H 0.6300 0.2078 0.7886
C7 C 0.85566(19) 0.19404(11) 0.88638(13)
H9 H 0.7952 0.2223 0.9389
C8 C 0.9735(2) 0.12210(11) 0.93213(14)
H10 H 0.8951 0.0760 0.9516
H11 H 1.0406 0.1442 0.9921
C9 C 1.1074(2) 0.08334(11) 0.86757(14)
H12 H 1.2056 0.0575 0.9106
H13 H 1.0469 0.0367 0.8292
C10 C 1.1895(2) 0.14332(12) 0.79699(14)
H14 H 1.2303 0.1087 0.7436
H15 H 1.2961 0.1702 0.8318
C11 C 1.1014(2) 0.39538(11) 0.91600(13)
C12 C 1.2142(2) 0.44677(11) 0.97550(13)
H16 H 1.1992 0.5068 0.9739
C13 C 1.3480(2) 0.41084(12) 1.03693(14)
H17 H 1.4247 0.4454 1.0791
C14 C 1.3693(2) 0.32328(12) 1.03637(14)
H18 H 1.4607 0.2969 1.0782
C15 C 1.2564(2) 0.27523(12) 0.97453(13)
H19 H 1.2726 0.2153 0.9739
C16 C 0.7041(2) 0.36927(10) 0.73912(13)
C17 C 0.7033(2) 0.37752(10) 0.63921(14)
H20 H 0.8100 0.3674 0.6100
C18 C 0.5508(2) 0.40015(11) 0.58118(14)
H21 H 0.5536 0.4059 0.5130
C19 C 0.3939(2) 0.41436(11) 0.62260(15)
H22 H 0.2890 0.4305 0.5832
C20 C 0.3911(2) 0.40486(12) 0.72116(16)
H23 H 0.2832 0.4135 0.7497
C21 C 0.5440(2) 0.38289(11) 0.77899(14)
H24 H 0.5401 0.3769 0.8471
loop_
_geom_bond_atom_site_label_1
_geom_bond_atom_site_label_2
_geom_bond_site_symmetry_1
_geom_bond_site_symmetry_2
B1 N1 1_555 1_555
N1 C11 1_555 1_555
C1 B1 1_555 1_555
C2 C1 1_555 1_555
H1 C2 1_555 1_555
C3 B1 1_555 1_555
H2 C3 1_555 1_555
C4 C3 1_555 1_555
H3 C4 1_555 1_555
H4 C4 1_555 1_555
C5 C4 1_555 1_555
H5 C5 1_555 1_555
H6 C5 1_555 1_555
C6 C5 1_555 1_555
H7 C6 1_555 1_555
H8 C6 1_555 1_555
C7 B1 1_555 1_555
H9 C7 1_555 1_555
C8 C7 1_555 1_555
H10 C8 1_555 1_555
H11 C8 1_555 1_555
C9 C8 1_555 1_555
H12 C9 1_555 1_555
H13 C9 1_555 1_555
C10 C3 1_555 1_555
H14 C10 1_555 1_555
H15 C10 1_555 1_555
C11 C2 1_555 1_555
C12 C11 1_555 1_555
H16 C12 1_555 1_555
C13 C12 1_555 1_555
H17 C13 1_555 1_555
C14 C13 1_555 1_555
H18 C14 1_555 1_555
C15 N1 1_555 1_555
H19 C15 1_555 1_555
C16 C1 1_555 1_555
C17 C16 1_555 1_555
H20 C17 1_555 1_555
C18 C17 1_555 1_555
H21 C18 1_555 1_555
C19 C18 1_555 1_555
H22 C19 1_555 1_555
C20 C19 1_555 1_555
H23 C20 1_555 1_555
C21 C16 1_555 1_555
H24 C21 1_555 1_555
C6 C7 1_555 1_555
C9 C10 1_555 1_555
C14 C15 1_555 1_555
C20 C21 1_555 1_555

#END
