
#######################################################################
#
#                 Cambridge Crystallographic Data Centre
#                                CCDC 
#
#######################################################################
#
# If this CIF has been generated from an entry in the Cambridge 
# Structural Database, then it will include bibliographic, chemical, 
# crystal, experimental, refinement or atomic coordinate data resulting 
# from the CCDC's data processing and validation procedures.
#
#######################################################################

data_WAFVOR
_chemical_compound_source        'Alstonia scholaris'
_chemical_name_common            'epi-alstoscholarine H'
_chemical_formula_moiety         'C19 H24 N2 O1'
_chemical_name_systematic        
(13-ethylidene-9,15-dimethyl-2,15-diazatetracyclo[10.3.1.0^2,10^.0^3,8^]hexadeca-3,5,7,9-tetraen-11-yl)methanol
_symmetry_cell_setting           orthorhombic
_symmetry_space_group_name_H-M   'P 21 21 21'
_symmetry_Int_Tables_number      19
_space_group_name_Hall           'P 2ac 2ab'
loop_
_symmetry_equiv_pos_site_id
_symmetry_equiv_pos_as_xyz
1 x,y,z
2 1/2+x,1/2-y,-z
3 -x,1/2+y,1/2-z
4 1/2-x,-y,1/2+z
_cell_length_a                   8.0376(8)
_cell_length_b                   12.1437(13)
_cell_length_c                   32.747(3)
_cell_angle_alpha                90
_cell_angle_beta                 90
_cell_angle_gamma                90
_cell_volume                     3196.31
_exptl_crystal_colour            colorless
_exptl_crystal_description       block
_cell_formula_units_Z            8
_exptl_crystal_recrystallization_method dichloromethane
loop_
_atom_site_label
_atom_site_type_symbol
_atom_site_fract_x
_atom_site_fract_y
_atom_site_fract_z
O1 O 0.83468(19) 0.43226(11) 0.80576(4)
H1 H 0.8749 0.4959 0.8039
N1 N 0.7468(2) 0.23147(12) 0.68391(4)
N2 N 1.0115(2) 0.12819(12) 0.67891(4)
C1 C 0.4501(3) 0.15928(16) 0.60107(5)
H2 H 0.4070 0.1000 0.5854
C2 C 0.5702(2) 0.13818(16) 0.63029(5)
H3 H 0.6094 0.0655 0.6350
C3 C 0.6316(2) 0.22704(15) 0.65253(5)
C4 C 0.8484(2) 0.14031(15) 0.69927(5)
H4 H 0.7846 0.0702 0.6959
C5 C 1.1189(2) 0.22604(16) 0.68357(5)
H5 H 1.0720 0.2875 0.6674
H6 H 1.2309 0.2093 0.6726
C6 C 1.1346(2) 0.26140(16) 0.72751(5)
C7 C 1.2826(3) 0.28860(19) 0.74317(6)
H7 H 1.3769 0.2781 0.7261
C8 C 1.3142(3) 0.3341(2) 0.78505(7)
H8 H 1.2078 0.3484 0.7987
H9 H 1.3772 0.4029 0.7828
H10 H 1.3782 0.2806 0.8010
C9 C 0.3902(2) 0.26643(16) 0.59408(5)
H11 H 0.3081 0.2786 0.5737
C10 C 0.4500(2) 0.35435(16) 0.61672(5)
H12 H 0.4084 0.4266 0.6122
C11 C 0.5725(2) 0.33560(14) 0.64637(5)
C12 C 0.7600(2) 0.34023(14) 0.69768(5)
C13 C 0.6559(2) 0.40566(15) 0.67504(5)
C14 C 0.6321(3) 0.52834(15) 0.67842(6)
H13 H 0.7166 0.5590 0.6967
H14 H 0.5211 0.5439 0.6894
H15 H 0.6431 0.5619 0.6513
C15 C 0.8635(2) 0.36678(15) 0.73495(5)
H16 H 0.9401 0.4288 0.7278
C16 C 0.9707(2) 0.26862(15) 0.75005(5)
H17 H 0.9942 0.2791 0.7798
C17 C 0.8765(3) 0.16036(15) 0.74457(5)
H18 H 0.9416 0.0990 0.7564
H19 H 0.7682 0.1641 0.7589
C18 C 0.9950(3) 0.10111(17) 0.63531(5)
H20 H 1.1054 0.0877 0.6237
H21 H 0.9421 0.1627 0.6210
H22 H 0.9264 0.0349 0.6322
C19 C 0.7471(3) 0.40613(16) 0.76927(5)
H23 H 0.6857 0.4721 0.7599
H24 H 0.6646 0.3477 0.7752
O2 O 0.6610(2) 0.40631(13) 0.87724(5)
H25 H 0.6942 0.4200 0.8535
N3 N 0.7427(2) 0.08591(12) 0.95782(4)
N4 N 0.4724(2) 0.07636(13) 0.99468(5)
C20 C 1.0174(3) -0.14749(16) 0.98761(6)
H26 H 1.0500 -0.1928 1.0099
C21 C 0.9004(3) -0.06536(16) 0.99421(5)
H27 H 0.8539 -0.0533 1.0205
C22 C 0.8534(2) -0.00120(14) 0.96079(5)
C23 C 0.6334(2) 0.13058(14) 0.99027(5)
H28 H 0.6937 0.1257 1.0169
C24 C 0.3749(3) 0.07791(15) 0.95679(6)
H29 H 0.2611 0.0510 0.9627
H30 H 0.4261 0.0265 0.9370
C25 C 0.3634(3) 0.19054(15) 0.93761(5)
C26 C 0.2242(3) 0.22185(18) 0.91866(6)
H31 H 0.1319 0.1731 0.9199
C27 C 0.2010(3) 0.3276(2) 0.89548(7)
H32 H 0.3100 0.3591 0.8889
H33 H 0.1380 0.3798 0.9123
H34 H 0.1398 0.3129 0.8702
C28 C 0.5198(2) 0.25975(15) 0.93867(5)
H35 H 0.4888 0.3384 0.9337
C29 C 0.6437(2) 0.22297(15) 0.90519(5)
H36 H 0.5782 0.2030 0.8803
C30 C 0.7440(2) 0.12384(14) 0.91763(5)
C31 C 0.8517(2) 0.06203(15) 0.89483(5)
C32 C 0.9249(2) -0.01808(14) 0.92165(5)
C33 C 1.0434(2) -0.10102(15) 0.91609(6)
H37 H 1.0920 -0.1130 0.8900
C34 C 1.0890(3) -0.16566(16) 0.94919(6)
H38 H 1.1691 -0.2225 0.9458
C35 C 0.8871(3) 0.07180(17) 0.84973(5)
H39 H 0.8108 0.1255 0.8375
H40 H 0.8713 0.0000 0.8367
H41 H 1.0021 0.0963 0.8457
C36 C 0.7583(3) 0.31903(16) 0.89416(6)
H42 H 0.8170 0.3453 0.9189
H43 H 0.8425 0.2945 0.8741
C37 C 0.6033(2) 0.25121(15) 0.98062(5)
H44 H 0.7103 0.2916 0.9804
H45 H 0.5308 0.2844 1.0017
C38 C 0.4815(3) -0.03609(17) 1.01071(6)
H46 H 0.5468 -0.0365 1.0360
H47 H 0.5348 -0.0840 0.9905
H48 H 0.3689 -0.0630 1.0164
loop_
_geom_bond_atom_site_label_1
_geom_bond_atom_site_label_2
_geom_bond_site_symmetry_1
_geom_bond_site_symmetry_2
O1 H1 1_555 1_555
N1 C3 1_555 1_555
N2 C4 1_555 1_555
C1 H2 1_555 1_555
C2 C1 1_555 1_555
H3 C2 1_555 1_555
C3 C2 1_555 1_555
C4 N1 1_555 1_555
H4 C4 1_555 1_555
C5 N2 1_555 1_555
H5 C5 1_555 1_555
H6 C5 1_555 1_555
C6 C5 1_555 1_555
C7 C6 1_555 1_555
H7 C7 1_555 1_555
C8 C7 1_555 1_555
H8 C8 1_555 1_555
H9 C8 1_555 1_555
H10 C8 1_555 1_555
C9 C1 1_555 1_555
H11 C9 1_555 1_555
C10 C9 1_555 1_555
H12 C10 1_555 1_555
C11 C3 1_555 1_555
C12 N1 1_555 1_555
C13 C11 1_555 1_555
C14 C13 1_555 1_555
H13 C14 1_555 1_555
H14 C14 1_555 1_555
H15 C14 1_555 1_555
C15 C12 1_555 1_555
H16 C15 1_555 1_555
C16 C6 1_555 1_555
H17 C16 1_555 1_555
C17 C4 1_555 1_555
H18 C17 1_555 1_555
H19 C17 1_555 1_555
C18 N2 1_555 1_555
H20 C18 1_555 1_555
H21 C18 1_555 1_555
H22 C18 1_555 1_555
C19 O1 1_555 1_555
H23 C19 1_555 1_555
H24 C19 1_555 1_555
O2 H25 1_555 1_555
N3 C22 1_555 1_555
N4 C23 1_555 1_555
C20 H26 1_555 1_555
C21 C20 1_555 1_555
H27 C21 1_555 1_555
C22 C21 1_555 1_555
C23 N3 1_555 1_555
H28 C23 1_555 1_555
C24 N4 1_555 1_555
H29 C24 1_555 1_555
H30 C24 1_555 1_555
C25 C24 1_555 1_555
C26 C25 1_555 1_555
H31 C26 1_555 1_555
C27 C26 1_555 1_555
H32 C27 1_555 1_555
H33 C27 1_555 1_555
H34 C27 1_555 1_555
C28 C25 1_555 1_555
H35 C28 1_555 1_555
C29 C28 1_555 1_555
H36 C29 1_555 1_555
C30 N3 1_555 1_555
C31 C30 1_555 1_555
C32 C22 1_555 1_555
C33 C32 1_555 1_555
H37 C33 1_555 1_555
C34 C20 1_555 1_555
H38 C34 1_555 1_555
C35 C31 1_555 1_555
H39 C35 1_555 1_555
H40 C35 1_555 1_555
H41 C35 1_555 1_555
C36 O2 1_555 1_555
H42 C36 1_555 1_555
H43 C36 1_555 1_555
C37 C23 1_555 1_555
H44 C37 1_555 1_555
H45 C37 1_555 1_555
C38 N4 1_555 1_555
H46 C38 1_555 1_555
H47 C38 1_555 1_555
H48 C38 1_555 1_555
C10 C11 1_555 1_555
C12 C13 1_555 1_555
C15 C16 1_555 1_555
C15 C19 1_555 1_555
C16 C17 1_555 1_555
C28 C37 1_555 1_555
C29 C30 1_555 1_555
C29 C36 1_555 1_555
C31 C32 1_555 1_555
C33 C34 1_555 1_555

#END
