
#######################################################################
#
#                 Cambridge Crystallographic Data Centre
#                                CCDC 
#
#######################################################################
#
# If this CIF has been generated from an entry in the Cambridge 
# Structural Database, then it will include bibliographic, chemical, 
# crystal, experimental, refinement or atomic coordinate data resulting 
# from the CCDC's data processing and validation procedures.
#
#######################################################################

data_WAFWOS
_chemical_formula_moiety         'C20 H15 N3'
_chemical_name_systematic        
2-phenyl-6-(pyridin-2-ylmethyl)-1,8-naphthyridine
_symmetry_cell_setting           monoclinic
_symmetry_space_group_name_H-M   'P 21/n'
_symmetry_Int_Tables_number      14
_space_group_name_Hall           '-P 2yn'
loop_
_symmetry_equiv_pos_site_id
_symmetry_equiv_pos_as_xyz
1 x,y,z
2 1/2-x,1/2+y,1/2-z
3 -x,-y,-z
4 1/2+x,1/2-y,1/2+z
_cell_length_a                   6.3200(13)
_cell_length_b                   16.430(3)
_cell_length_c                   14.690(3)
_cell_angle_alpha                90
_cell_angle_beta                 94.81(3)
_cell_angle_gamma                90
_cell_volume                     1520
_exptl_crystal_colour            yellow
_exptl_crystal_description       block
_cell_formula_units_Z            4
loop_
_atom_site_label
_atom_site_type_symbol
_atom_site_fract_x
_atom_site_fract_y
_atom_site_fract_z
N1 N 0.24991(18) 0.88418(7) -0.00373(9)
N2 N 0.33747(19) 0.93203(8) 0.14167(10)
N3 N -0.2742(3) 0.95626(11) 0.41791(13)
C1 C 0.4466(3) 0.83572(10) -0.26439(13)
H1 H 0.5722 0.8569 -0.2834
C2 C 0.3378(3) 0.77728(12) -0.31591(14)
H2 H 0.3898 0.7588 -0.3696
C3 C 0.1526(3) 0.74611(11) -0.28828(13)
H3 H 0.0795 0.7062 -0.3230
C4 C 0.0743(3) 0.77375(10) -0.20929(13)
H4 H -0.0526 0.7528 -0.1915
C5 C 0.1827(2) 0.83255(9) -0.15576(11)
C6 C 0.3712(2) 0.86318(10) -0.18486(12)
H5 H 0.4466 0.9026 -0.1502
C7 C 0.1052(2) 0.86184(8) -0.06947(11)
C8 C -0.1151(2) 0.86607(10) -0.05884(12)
H6 H -0.2123 0.8486 -0.1058
C9 C -0.1845(2) 0.89539(9) 0.01906(12)
H7 H -0.3293 0.8997 0.0254
C10 C -0.0356(2) 0.91940(8) 0.09057(11)
C11 C 0.1820(2) 0.91189(8) 0.07597(11)
C12 C -0.0891(2) 0.94955(9) 0.17476(12)
H8 H -0.2311 0.9553 0.1857
C13 C 0.0660(3) 0.97054(9) 0.24101(12)
C14 C 0.2767(3) 0.95931(10) 0.21954(12)
H9 H 0.3832 0.9724 0.2647
C15 C 0.0178(3) 1.00332(10) 0.33268(13)
H10 H 0.1483 1.0233 0.3644
H11 H -0.0785 1.0491 0.3233
C16 C -0.0791(2) 0.94195(10) 0.39191(12)
C17 C 0.0313(3) 0.87350(11) 0.41801(14)
H12 H 0.1653 0.8642 0.3984
C18 C -0.0569(4) 0.81884(13) 0.47310(16)
H13 H 0.0170 0.7718 0.4911
C19 C -0.2503(4) 0.83237(14) 0.50169(16)
H14 H -0.3103 0.7955 0.5400
C20 C -0.3549(4) 0.89990(16) 0.47400(19)
H15 H -0.4888 0.9089 0.4939
loop_
_geom_bond_atom_site_label_1
_geom_bond_atom_site_label_2
_geom_bond_site_symmetry_1
_geom_bond_site_symmetry_2
N1 C7 1_555 1_555
N2 C11 1_555 1_555
N3 C16 1_555 1_555
C1 H1 1_555 1_555
C2 C1 1_555 1_555
H2 C2 1_555 1_555
C3 C2 1_555 1_555
H3 C3 1_555 1_555
C4 C3 1_555 1_555
H4 C4 1_555 1_555
C5 C4 1_555 1_555
C6 C1 1_555 1_555
H5 C6 1_555 1_555
C7 C5 1_555 1_555
C8 C7 1_555 1_555
H6 C8 1_555 1_555
C9 C8 1_555 1_555
H7 C9 1_555 1_555
C10 C9 1_555 1_555
C11 N1 1_555 1_555
C12 C10 1_555 1_555
H8 C12 1_555 1_555
C13 C12 1_555 1_555
C14 N2 1_555 1_555
H9 C14 1_555 1_555
C15 C13 1_555 1_555
H10 C15 1_555 1_555
H11 C15 1_555 1_555
C16 C15 1_555 1_555
C17 C16 1_555 1_555
H12 C17 1_555 1_555
C18 C17 1_555 1_555
H13 C18 1_555 1_555
C19 C18 1_555 1_555
H14 C19 1_555 1_555
C20 N3 1_555 1_555
H15 C20 1_555 1_555
C5 C6 1_555 1_555
C10 C11 1_555 1_555
C13 C14 1_555 1_555
C19 C20 1_555 1_555

#END
