
#######################################################################
#
#                 Cambridge Crystallographic Data Centre
#                                CCDC 
#
#######################################################################
#
# If this CIF has been generated from an entry in the Cambridge 
# Structural Database, then it will include bibliographic, chemical, 
# crystal, experimental, refinement or atomic coordinate data resulting 
# from the CCDC's data processing and validation procedures.
#
#######################################################################

data_WAFWEI
_chemical_formula_moiety         'C29 H29 N1 O4'
_chemical_name_systematic        
'2-(5-isobutyl-2,3-bis(4-methoxyphenyl)-1H-pyrrol-1-yl)benzoic acid'
_symmetry_cell_setting           triclinic
_symmetry_space_group_name_H-M   'P -1'
_symmetry_Int_Tables_number      2
_space_group_name_Hall           '-P 1'
loop_
_symmetry_equiv_pos_site_id
_symmetry_equiv_pos_as_xyz
1 x,y,z
2 -x,-y,-z
_cell_length_a                   11.9639(2)
_cell_length_b                   14.0862(3)
_cell_length_c                   15.8138(3)
_cell_angle_alpha                93.6076(17)
_cell_angle_beta                 104.7587(16)
_cell_angle_gamma                108.9257(19)
_cell_volume                     2406.73
_exptl_crystal_colour            yellow
_exptl_crystal_description       block
_cell_formula_units_Z            4
loop_
_atom_site_label
_atom_site_type_symbol
_atom_site_fract_x
_atom_site_fract_y
_atom_site_fract_z
O1 O 0.89403(9) 0.65355(8) 0.73185(6)
C1 C 0.93717(12) 0.62576(11) 0.67713(9)
O2 O 1.04815(9) 0.67641(8) 0.67047(7)
H1 H 1.0775 0.7312 0.7036
C2 C 0.86863(13) 0.53079(10) 0.61148(9)
C3 C 0.74028(13) 0.50079(10) 0.57544(8)
N1 N 0.67578(10) 0.56367(8) 0.59764(7)
C4 C 0.61149(12) 0.54782(10) 0.66030(9)
C5 C 0.59040(12) 0.63535(11) 0.67951(9)
C6 C 0.64550(12) 0.70856(10) 0.63016(9)
C7 C 0.69895(12) 0.66319(10) 0.58010(8)
C8 C 0.77604(12) 0.70532(10) 0.52278(9)
C9 C 0.86853(13) 0.80090(11) 0.54972(10)
C10 C 0.94063(14) 0.84345(11) 0.49562(11)
C11 C 0.92271(15) 0.78951(12) 0.41391(11)
O3 O 0.98745(14) 0.82454(10) 0.35472(10)
C12 C 1.03290(19) 0.92792(16) 0.35552(15)
H2 H 1.0992 0.9597 0.4091
H3 H 1.0634 0.9417 0.3054
H4 H 0.9683 0.9550 0.3532
C13 C 0.83358(15) 0.69323(12) 0.38686(10)
C14 C 0.76042(13) 0.65231(11) 0.44005(9)
H5 H 0.6995 0.5882 0.4206
H6 H 0.8229 0.6560 0.3328
H7 H 1.0006 0.9081 0.5142
H8 H 0.8826 0.8370 0.6050
C15 C 0.64822(12) 0.81433(10) 0.63831(9)
C16 C 0.67325(13) 0.86768(11) 0.72248(9)
C17 C 0.68074(14) 0.96781(11) 0.73474(10)
C18 C 0.66311(13) 1.01796(11) 0.66206(10)
O4 O 0.67460(11) 1.11760(8) 0.68197(7)
C19 C 0.68469(17) 1.17837(12) 0.61376(11)
H9 H 0.7008 1.2477 0.6372
H10 H 0.7512 1.1749 0.5918
H11 H 0.6088 1.1537 0.5665
C20 C 0.63650(13) 0.96653(11) 0.57773(9)
C21 C 0.62928(13) 0.86562(11) 0.56629(9)
H12 H 0.6114 0.8316 0.5094
H13 H 0.6235 0.9993 0.5288
H14 H 0.6975 1.0017 0.7916
H15 H 0.6853 0.8350 0.7715
H16 H 0.5472 0.6454 0.7184
C22 C 0.58773(13) 0.45486(11) 0.70379(9)
C23 C 0.68835(14) 0.46551(12) 0.79152(10)
C24 C 0.70231(15) 0.55327(14) 0.85951(10)
H17 H 0.6237 0.5448 0.8691
H18 H 0.7604 0.5541 0.9144
H19 H 0.7315 0.6163 0.8381
C25 C 0.65711(17) 0.36609(14) 0.82924(12)
H20 H 0.6506 0.3115 0.7865
H21 H 0.7211 0.3721 0.8824
H22 H 0.5799 0.3520 0.8425
H23 H 0.7674 0.4787 0.7785
H24 H 0.5086 0.4393 0.7157
H25 H 0.5820 0.3980 0.6629
C26 C 0.67570(15) 0.41227(10) 0.51426(9)
C27 C 0.73878(17) 0.35347(11) 0.48900(10)
C28 C 0.86576(17) 0.38250(12) 0.52409(11)
C29 C 0.93079(15) 0.47131(12) 0.58465(10)
H26 H 1.0161 0.4914 0.6075
H27 H 0.9073 0.3426 0.5072
H28 H 0.6955 0.2941 0.4481
H29 H 0.5905 0.3924 0.4904
O5 O 1.10554(9) 0.86199(8) 0.76358(6)
C30 C 1.06271(12) 0.88726(11) 0.81969(9)
O6 O 0.95178(9) 0.83615(8) 0.82566(7)
H30 H 0.9234 0.7812 0.7928
C31 C 1.13171(13) 0.97969(10) 0.88843(9)
C32 C 1.25971(12) 1.00822(10) 0.92544(8)
N2 N 1.32404(10) 0.94599(8) 0.90182(7)
C33 C 1.29968(12) 0.84530(10) 0.91541(8)
C34 C 1.21645(12) 0.79538(10) 0.96649(8)
C35 C 1.12544(13) 0.69945(11) 0.93037(9)
C36 C 1.04887(13) 0.64732(11) 0.97693(10)
C37 C 1.05977(13) 0.69040(12) 1.06162(10)
O7 O 0.98026(12) 0.63089(11) 1.10254(9)
C38 C 0.9985(2) 0.6623(2) 1.19130(14)
H31 H 1.0822 0.6734 1.2242
H32 H 0.9831 0.7252 1.1980
H33 H 0.9430 0.6117 1.2136
C39 C 1.14755(14) 0.78593(12) 1.09862(10)
C40 C 1.22517(13) 0.83733(11) 1.05112(9)
H34 H 1.2843 0.9011 1.0765
H35 H 1.1544 0.8155 1.1548
H36 H 0.9899 0.5835 0.9518
H37 H 1.1166 0.6702 0.8735
C41 C 1.35921(12) 0.80394(10) 0.86792(8)
C42 C 1.41916(12) 0.88095(11) 0.82345(9)
C43 C 1.39586(12) 0.96711(10) 0.84411(9)
C44 C 1.42610(13) 1.06405(11) 0.80653(9)
C45 C 1.32788(13) 1.06335(12) 0.72101(10)
C46 C 1.30599(16) 0.97754(14) 0.64856(10)
H38 H 1.2729 0.9134 0.6672
H39 H 1.2485 0.9819 0.5954
H40 H 1.3828 0.9830 0.6371
C47 C 1.36817(17) 1.16570(14) 0.68898(12)
H41 H 1.4465 1.1780 0.6777
H42 H 1.3078 1.1650 0.6355
H43 H 1.3760 1.2189 0.7337
H44 H 1.2500 1.0536 0.7350
H45 H 1.4360 1.1193 0.8509
H46 H 1.5046 1.0776 0.7939
H47 H 1.4663 0.8739 0.7865
C48 C 1.35898(12) 0.69906(10) 0.86091(9)
C49 C 1.37109(13) 0.64806(11) 0.93371(9)
C50 C 1.36286(14) 0.54703(11) 0.92453(9)
C51 C 1.34402(13) 0.49530(11) 0.84176(10)
O8 O 1.33383(11) 0.39585(8) 0.82451(7)
C52 C 1.31880(17) 0.33563(12) 0.89263(11)
H48 H 1.3938 0.3587 0.9407
H49 H 1.2524 0.3418 0.9134
H50 H 1.3001 0.2658 0.8695
C53 C 1.33482(15) 0.54591(11) 0.76879(10)
C54 C 1.34184(14) 0.64605(11) 0.77872(9)
H51 H 1.3348 0.6787 0.7293
H52 H 1.3240 0.5122 0.7132
H53 H 1.3700 0.5143 0.9739
H54 H 1.3850 0.6825 0.9896
C55 C 1.32392(14) 1.09480(10) 0.98866(9)
C56 C 1.26132(16) 1.15345(11) 1.01514(10)
C57 C 1.13475(16) 1.12555(12) 0.97940(11)
C58 C 1.06981(14) 1.03851(11) 0.91675(10)
H55 H 0.9846 1.0191 0.8934
H56 H 1.0934 1.1650 0.9973
H57 H 1.3047 1.2118 1.0572
H58 H 1.4089 1.1137 1.0133
loop_
_geom_bond_atom_site_label_1
_geom_bond_atom_site_label_2
_geom_bond_site_symmetry_1
_geom_bond_site_symmetry_2
O1 C1 1_555 1_555
C1 O2 1_555 1_555
O2 H1 1_555 1_555
C2 C1 1_555 1_555
C3 C2 1_555 1_555
N1 C3 1_555 1_555
C4 N1 1_555 1_555
C5 C4 1_555 1_555
C6 C5 1_555 1_555
C7 N1 1_555 1_555
C8 C7 1_555 1_555
C9 C8 1_555 1_555
C10 C9 1_555 1_555
C11 C10 1_555 1_555
O3 C11 1_555 1_555
C12 O3 1_555 1_555
H2 C12 1_555 1_555
H3 C12 1_555 1_555
H4 C12 1_555 1_555
C13 C11 1_555 1_555
C14 C8 1_555 1_555
H5 C14 1_555 1_555
H6 C13 1_555 1_555
H7 C10 1_555 1_555
H8 C9 1_555 1_555
C15 C6 1_555 1_555
C16 C15 1_555 1_555
C17 C16 1_555 1_555
C18 C17 1_555 1_555
O4 C18 1_555 1_555
C19 O4 1_555 1_555
H9 C19 1_555 1_555
H10 C19 1_555 1_555
H11 C19 1_555 1_555
C20 C18 1_555 1_555
C21 C15 1_555 1_555
H12 C21 1_555 1_555
H13 C20 1_555 1_555
H14 C17 1_555 1_555
H15 C16 1_555 1_555
H16 C5 1_555 1_555
C22 C4 1_555 1_555
C23 C22 1_555 1_555
C24 C23 1_555 1_555
H17 C24 1_555 1_555
H18 C24 1_555 1_555
H19 C24 1_555 1_555
C25 C23 1_555 1_555
H20 C25 1_555 1_555
H21 C25 1_555 1_555
H22 C25 1_555 1_555
H23 C23 1_555 1_555
H24 C22 1_555 1_555
H25 C22 1_555 1_555
C26 C3 1_555 1_555
C27 C26 1_555 1_555
C28 C27 1_555 1_555
C29 C2 1_555 1_555
H26 C29 1_555 1_555
H27 C28 1_555 1_555
H28 C27 1_555 1_555
H29 C26 1_555 1_555
O5 C30 1_555 1_555
C30 O6 1_555 1_555
O6 H30 1_555 1_555
C31 C30 1_555 1_555
C32 C31 1_555 1_555
N2 C32 1_555 1_555
C33 N2 1_555 1_555
C34 C33 1_555 1_555
C35 C34 1_555 1_555
C36 C35 1_555 1_555
C37 C36 1_555 1_555
O7 C37 1_555 1_555
C38 O7 1_555 1_555
H31 C38 1_555 1_555
H32 C38 1_555 1_555
H33 C38 1_555 1_555
C39 C37 1_555 1_555
C40 C34 1_555 1_555
H34 C40 1_555 1_555
H35 C39 1_555 1_555
H36 C36 1_555 1_555
H37 C35 1_555 1_555
C41 C33 1_555 1_555
C42 C41 1_555 1_555
C43 N2 1_555 1_555
C44 C43 1_555 1_555
C45 C44 1_555 1_555
C46 C45 1_555 1_555
H38 C46 1_555 1_555
H39 C46 1_555 1_555
H40 C46 1_555 1_555
C47 C45 1_555 1_555
H41 C47 1_555 1_555
H42 C47 1_555 1_555
H43 C47 1_555 1_555
H44 C45 1_555 1_555
H45 C44 1_555 1_555
H46 C44 1_555 1_555
H47 C42 1_555 1_555
C48 C41 1_555 1_555
C49 C48 1_555 1_555
C50 C49 1_555 1_555
C51 C50 1_555 1_555
O8 C51 1_555 1_555
C52 O8 1_555 1_555
H48 C52 1_555 1_555
H49 C52 1_555 1_555
H50 C52 1_555 1_555
C53 C51 1_555 1_555
C54 C48 1_555 1_555
H51 C54 1_555 1_555
H52 C53 1_555 1_555
H53 C50 1_555 1_555
H54 C49 1_555 1_555
C55 C32 1_555 1_555
C56 C55 1_555 1_555
C57 C56 1_555 1_555
C58 C31 1_555 1_555
H55 C58 1_555 1_555
H56 C57 1_555 1_555
H57 C56 1_555 1_555
H58 C55 1_555 1_555
C6 C7 1_555 1_555
C13 C14 1_555 1_555
C20 C21 1_555 1_555
C28 C29 1_555 1_555
C39 C40 1_555 1_555
C42 C43 1_555 1_555
C53 C54 1_555 1_555
C57 C58 1_555 1_555

#END
