
#######################################################################
#
#                 Cambridge Crystallographic Data Centre
#                                CCDC 
#
#######################################################################
#
# If this CIF has been generated from an entry in the Cambridge 
# Structural Database, then it will include bibliographic, chemical, 
# crystal, experimental, refinement or atomic coordinate data resulting 
# from the CCDC's data processing and validation procedures.
#
#######################################################################

data_WAFXOT
_chemical_formula_moiety         'C26 H20 Br1 N1 O4'
_chemical_name_systematic        
3-(2-bromophenyl)-4a-hydroxy-2-methyl-4-nitro-1-phenyl-2,3,4,4a-tetrahydro-9H-fluoren-9-one
_symmetry_cell_setting           monoclinic
_symmetry_space_group_name_H-M   'P 21'
_symmetry_Int_Tables_number      4
_space_group_name_Hall           'P 2yb'
loop_
_symmetry_equiv_pos_site_id
_symmetry_equiv_pos_as_xyz
1 x,y,z
2 -x,1/2+y,-z
_cell_length_a                   10.763(6)
_cell_length_b                   20.038(11)
_cell_length_c                   11.832(7)
_cell_angle_alpha                90
_cell_angle_beta                 117.008(15)
_cell_angle_gamma                90
_cell_volume                     2273.5
_exptl_crystal_colour            'pale yellow'
_exptl_crystal_description       prism
_cell_formula_units_Z            4
loop_
_atom_site_label
_atom_site_type_symbol
_atom_site_fract_x
_atom_site_fract_y
_atom_site_fract_z
C1 C 0.3588(14) 0.8969(8) 0.5834(13)
C2 C 0.4105(14) 0.9629(8) 0.5727(14)
H1 H 0.3835 0.9830 0.4922
C3 C 0.5002(16) 0.9953(9) 0.6835(17)
H2 H 0.5325 1.0388 0.6785
C4 C 0.5432(15) 0.9661(7) 0.8003(14)
H3 H 0.6098 0.9878 0.8745
C5 C 0.4890(13) 0.9049(8) 0.8093(14)
H4 H 0.5142 0.8867 0.8910
C6 C 0.3991(12) 0.8692(7) 0.7030(12)
C7 C 0.3395(12) 0.8032(7) 0.7165(12)
H5 H 0.2825 0.7853 0.6290
C8 C 0.2414(13) 0.8117(7) 0.7772(13)
H6 H 0.3016 0.8177 0.8703
C9 C 0.1609(13) 0.7459(7) 0.7604(14)
C10 C 0.0609(14) 0.7442(7) 0.8244(13)
C11 C -0.0480(14) 0.7882(8) 0.8049(13)
H7 H -0.0672 0.8264 0.7520
C12 C -0.1275(15) 0.7720(8) 0.8689(14)
H8 H -0.2046 0.7993 0.8575
C13 C -0.0951(17) 0.7181(8) 0.9466(14)
H9 H -0.1457 0.7108 0.9936
C14 C 0.0077(16) 0.6739(8) 0.9599(14)
H10 H 0.0229 0.6339 1.0074
C15 C 0.0901(14) 0.6910(7) 0.8989(13)
C16 C 0.2122(14) 0.6518(8) 0.9020(14)
C17 C 0.2659(14) 0.6929(7) 0.8311(12)
C18 C 0.3981(13) 0.6949(6) 0.8486(12)
C19 C 0.5035(14) 0.6469(7) 0.9312(14)
C20 C 0.5057(15) 0.5805(7) 0.9060(14)
H11 H 0.4392 0.5634 0.8266
C21 C 0.5997(15) 0.5389(8) 0.9910(15)
H12 H 0.5958 0.4931 0.9690
C22 C 0.6974(15) 0.5578(8) 1.1034(15)
H13 H 0.7623 0.5269 1.1608
C23 C 0.7006(15) 0.6247(8) 1.1338(15)
H14 H 0.7703 0.6408 1.2126
C24 C 0.6024(16) 0.6680(8) 1.0490(14)
H15 H 0.6030 0.7133 1.0725
C25 C 0.4493(14) 0.7494(7) 0.7919(14)
H16 H 0.5249 0.7731 0.8651
C26 C 0.5182(16) 0.7215(8) 0.7111(15)
H17 H 0.5514 0.7587 0.6782
H18 H 0.4496 0.6954 0.6402
H19 H 0.5971 0.6929 0.7642
N1 N 0.1479(11) 0.8724(6) 0.7313(12)
O1 O 0.0798(9) 0.8784(4) 0.6152(10)
O2 O 0.1430(11) 0.9106(6) 0.8073(10)
O3 O 0.0840(8) 0.7354(4) 0.6276(8)
H20 H 0.0399 0.6993 0.6141
O4 O 0.2490(9) 0.5982(5) 0.9522(8)
Br1 Br 0.24832(16) 0.85614(8) 0.42991(13)
C27 C 0.4731(14) 0.2898(8) 0.7322(13)
C28 C 0.5079(16) 0.2302(8) 0.6994(16)
H21 H 0.6008 0.2144 0.7456
C29 C 0.4113(19) 0.1914(10) 0.600(2)
H22 H 0.4363 0.1511 0.5730
C30 C 0.2776(18) 0.2160(8) 0.5432(18)
H23 H 0.2068 0.1898 0.4797
C31 C 0.2415(16) 0.2753(8) 0.5730(14)
H24 H 0.1484 0.2908 0.5268
C32 C 0.3389(13) 0.3143(7) 0.6711(13)
C33 C 0.2989(13) 0.3824(6) 0.7009(13)
H25 H 0.3786 0.3993 0.7802
C34 C 0.1678(13) 0.3830(7) 0.7212(13)
H26 H 0.0836 0.3746 0.6387
C35 C 0.1587(14) 0.4534(7) 0.7705(13)
C36 C 0.0304(15) 0.4653(8) 0.7981(15)
C37 C 0.0033(16) 0.4336(8) 0.8902(15)
H27 H 0.0555 0.3963 0.9379
C38 C -0.1125(17) 0.4628(9) 0.9068(14)
H28 H -0.1341 0.4445 0.9698
C39 C -0.1891(17) 0.5142(9) 0.8371(16)
H29 H -0.2685 0.5281 0.8461
C40 C -0.1545(15) 0.5477(8) 0.7514(14)
H30 H -0.2019 0.5869 0.7078
C41 C -0.0440(15) 0.5191(8) 0.7343(14)
C42 C 0.0191(14) 0.5495(7) 0.6560(13)
C43 C 0.1310(15) 0.5018(6) 0.6672(13)
C44 C 0.1890(13) 0.4938(7) 0.5882(13)
C45 C 0.1651(13) 0.5418(7) 0.4856(14)
C46 C 0.1994(15) 0.6092(7) 0.5121(14)
H31 H 0.2337 0.6247 0.5969
C47 C 0.1844(16) 0.6536(9) 0.4182(16)
H32 H 0.2125 0.6986 0.4406
C48 C 0.1312(18) 0.6353(9) 0.2951(17)
H33 H 0.1163 0.6672 0.2307
C49 C 0.0984(19) 0.5673(10) 0.2655(15)
H34 H 0.0644 0.5526 0.1802
C50 C 0.1153(15) 0.5219(8) 0.3595(14)
H35 H 0.0926 0.4763 0.3378
C51 C 0.2709(16) 0.4328(8) 0.5956(15)
H36 H 0.2182 0.4085 0.5136
C52 C 0.4155(16) 0.4551(8) 0.6001(16)
H37 H 0.4704 0.4153 0.6039
H38 H 0.4675 0.4827 0.6754
H39 H 0.3975 0.4808 0.5238
N2 N 0.1790(14) 0.3299(6) 0.8158(12)
O5 O 0.2850(10) 0.3248(5) 0.9166(9)
O6 O 0.0770(13) 0.2935(6) 0.7882(11)
O7 O 0.2819(9) 0.4663(4) 0.8828(8)
H40 H 0.2952 0.5037 0.9143
O8 O -0.0168(10) 0.6021(5) 0.5977(10)
Br2 Br 0.61841(14) 0.33668(9) 0.86694(14)
loop_
_geom_bond_atom_site_label_1
_geom_bond_atom_site_label_2
_geom_bond_site_symmetry_1
_geom_bond_site_symmetry_2
C1 C2 1_555 1_555
C2 H1 1_555 1_555
C3 C2 1_555 1_555
H2 C3 1_555 1_555
C4 C3 1_555 1_555
H3 C4 1_555 1_555
C5 C4 1_555 1_555
H4 C5 1_555 1_555
C6 C1 1_555 1_555
C7 C6 1_555 1_555
H5 C7 1_555 1_555
C8 C7 1_555 1_555
H6 C8 1_555 1_555
C9 C8 1_555 1_555
C10 C9 1_555 1_555
C11 C10 1_555 1_555
H7 C11 1_555 1_555
C12 C11 1_555 1_555
H8 C12 1_555 1_555
C13 C12 1_555 1_555
H9 C13 1_555 1_555
C14 C13 1_555 1_555
H10 C14 1_555 1_555
C15 C10 1_555 1_555
C16 C15 1_555 1_555
C17 C9 1_555 1_555
C18 C17 1_555 1_555
C19 C18 1_555 1_555
C20 C19 1_555 1_555
H11 C20 1_555 1_555
C21 C20 1_555 1_555
H12 C21 1_555 1_555
C22 C21 1_555 1_555
H13 C22 1_555 1_555
C23 C22 1_555 1_555
H14 C23 1_555 1_555
C24 C19 1_555 1_555
H15 C24 1_555 1_555
C25 C7 1_555 1_555
H16 C25 1_555 1_555
C26 C25 1_555 1_555
H17 C26 1_555 1_555
H18 C26 1_555 1_555
H19 C26 1_555 1_555
N1 C8 1_555 1_555
O1 N1 1_555 1_555
O2 N1 1_555 1_555
O3 C9 1_555 1_555
H20 O3 1_555 1_555
O4 C16 1_555 1_555
Br1 C1 1_555 1_555
C27 C28 1_555 1_555
C28 H21 1_555 1_555
C29 C28 1_555 1_555
H22 C29 1_555 1_555
C30 C29 1_555 1_555
H23 C30 1_555 1_555
C31 C30 1_555 1_555
H24 C31 1_555 1_555
C32 C27 1_555 1_555
C33 C32 1_555 1_555
H25 C33 1_555 1_555
C34 C33 1_555 1_555
H26 C34 1_555 1_555
C35 C34 1_555 1_555
C36 C35 1_555 1_555
C37 C36 1_555 1_555
H27 C37 1_555 1_555
C38 C37 1_555 1_555
H28 C38 1_555 1_555
C39 C38 1_555 1_555
H29 C39 1_555 1_555
C40 C39 1_555 1_555
H30 C40 1_555 1_555
C41 C36 1_555 1_555
C42 C41 1_555 1_555
C43 C35 1_555 1_555
C44 C43 1_555 1_555
C45 C44 1_555 1_555
C46 C45 1_555 1_555
H31 C46 1_555 1_555
C47 C46 1_555 1_555
H32 C47 1_555 1_555
C48 C47 1_555 1_555
H33 C48 1_555 1_555
C49 C48 1_555 1_555
H34 C49 1_555 1_555
C50 C45 1_555 1_555
H35 C50 1_555 1_555
C51 C33 1_555 1_555
H36 C51 1_555 1_555
C52 C51 1_555 1_555
H37 C52 1_555 1_555
H38 C52 1_555 1_555
H39 C52 1_555 1_555
N2 C34 1_555 1_555
O5 N2 1_555 1_555
O6 N2 1_555 1_555
O7 C35 1_555 1_555
H40 O7 1_555 1_555
O8 C42 1_555 1_555
Br2 C27 1_555 1_555
C5 C6 1_555 1_555
C14 C15 1_555 1_555
C16 C17 1_555 1_555
C18 C25 1_555 1_555
C23 C24 1_555 1_555
C31 C32 1_555 1_555
C40 C41 1_555 1_555
C42 C43 1_555 1_555
C44 C51 1_555 1_555
C49 C50 1_555 1_555

#END
