
#######################################################################
#
#                 Cambridge Crystallographic Data Centre
#                                CCDC 
#
#######################################################################
#
# If this CIF has been generated from an entry in the Cambridge 
# Structural Database, then it will include bibliographic, chemical, 
# crystal, experimental, refinement or atomic coordinate data resulting 
# from the CCDC's data processing and validation procedures.
#
#######################################################################

data_WAGDAM
_chemical_formula_moiety         'C31 H28 Cl1 N5 O6 S2'
_chemical_name_systematic        
'methyl 3-(6-chloro-9H-purin-9-yl)-1,4-bis((4-methylphenyl)sulfonyl)-5-phenylprolinate'
_symmetry_cell_setting           orthorhombic
_symmetry_space_group_name_H-M   'P 21 21 21'
_symmetry_Int_Tables_number      19
_space_group_name_Hall           'P 2ac 2ab'
loop_
_symmetry_equiv_pos_site_id
_symmetry_equiv_pos_as_xyz
1 x,y,z
2 1/2-x,-y,1/2+z
3 -x,1/2+y,1/2-z
4 1/2+x,1/2-y,-z
_cell_length_a                   5.9591(12)
_cell_length_b                   9.2931(19)
_cell_length_c                   55.530(11)
_cell_angle_alpha                90
_cell_angle_beta                 90
_cell_angle_gamma                90
_cell_volume                     3075.17
_exptl_crystal_colour            colorless
_exptl_crystal_description       block
_cell_formula_units_Z            4
loop_
_atom_site_label
_atom_site_type_symbol
_atom_site_fract_x
_atom_site_fract_y
_atom_site_fract_z
S1 S 0.20627(15) 0.07674(9) 0.184218(14)
S2 S 0.19265(17) -0.22541(10) 0.103901(15)
Cl1 Cl 0.6044(3) 0.3631(2) 0.02031(2)
C1 C 0.9275(8) 0.0671(7) 0.26070(7)
H1 H 1.0196 0.1510 0.2588
H2 H 1.0185 -0.0176 0.2591
H3 H 0.8589 0.0684 0.2763
C2 C 0.7473(7) 0.0662(5) 0.24158(6)
C3 C 0.5921(9) -0.0414(5) 0.23991(7)
H4 H 0.5972 -0.1167 0.2509
C4 C 0.4269(8) -0.0419(5) 0.22226(7)
H5 H 0.3218 -0.1158 0.2216
C5 C 0.4214(6) 0.0688(4) 0.20588(5)
C6 C 0.5794(6) 0.1748(4) 0.20675(6)
H6 H 0.5782 0.2485 0.1954
C7 C 0.7412(7) 0.1720(4) 0.22455(7)
H7 H 0.8490 0.2442 0.2249
C8 C 0.6230(6) -0.4289(4) 0.19125(7)
H8 H 0.6955 -0.4964 0.2008
C9 C 0.4113(7) -0.4563(4) 0.18250(7)
H9 H 0.3407 -0.5428 0.1862
C10 C 0.3044(6) -0.3574(3) 0.16847(6)
H10 H 0.1617 -0.3774 0.1626
C11 C 0.4052(5) -0.2281(3) 0.16290(5)
C12 C 0.6186(6) -0.2009(4) 0.17148(6)
H11 H 0.6899 -0.1149 0.1677
C13 C 0.7264(6) -0.3013(3) 0.18573(6)
H12 H 0.8696 -0.2822 0.1916
C14 C 0.2792(5) -0.1156(3) 0.14866(5)
H13 H 0.1184 -0.1374 0.1493
C15 C 0.3503(5) -0.1005(3) 0.12210(5)
H14 H 0.5113 -0.1196 0.1205
C16 C 0.3014(6) 0.0564(3) 0.11624(5)
H15 H 0.1398 0.0651 0.1133
C17 C 0.3558(5) 0.1405(3) 0.13959(5)
H16 H 0.2520 0.2214 0.1416
C18 C 0.5978(6) 0.1939(4) 0.13926(6)
C19 C 0.8117(7) 0.4058(4) 0.13350(8)
H17 H 0.7889 0.5070 0.1311
H18 H 0.8908 0.3664 0.1199
H19 H 0.8982 0.3908 0.1479
C20 C 0.2966(7) -0.2000(4) 0.07480(6)
C21 C 0.4971(7) -0.2654(5) 0.06831(7)
H20 H 0.5685 -0.3285 0.0788
C22 C 0.5887(8) -0.2354(5) 0.04612(8)
H21 H 0.7228 -0.2795 0.0418
C23 C 0.4877(8) -0.1421(5) 0.03019(7)
C24 C 0.2865(8) -0.0812(5) 0.03693(7)
H22 H 0.2136 -0.0200 0.0262
C25 C 0.1901(7) -0.1080(4) 0.05892(6)
H23 H 0.0548 -0.0649 0.0631
C26 C 0.6197(6) 0.0748(4) 0.08531(6)
H24 H 0.7133 0.0062 0.0922
C27 C 0.3327(7) 0.2196(4) 0.08030(6)
C28 C 0.1136(9) 0.3838(5) 0.06484(9)
H25 H -0.0164 0.4390 0.0656
C29 C 0.4346(10) 0.3337(6) 0.04468(8)
C30 C 0.4908(7) 0.2352(5) 0.06208(6)
C31 C 0.6000(9) -0.1037(6) 0.00657(7)
H26 H 0.5065 -0.0379 -0.0022
H27 H 0.6221 -0.1894 -0.0028
H28 H 0.7425 -0.0594 0.0097
N1 N 0.3164(4) 0.0321(2) 0.15818(4)
N2 N 0.4168(5) 0.1143(3) 0.09518(4)
N3 N 0.6691(6) 0.1427(4) 0.06532(5)
N4 N 0.1415(6) 0.2907(3) 0.08290(6)
N5 N 0.2444(9) 0.4090(5) 0.04592(7)
O1 O 0.1409(4) 0.2244(2) 0.18238(4)
O2 O 0.0464(4) -0.0319(2) 0.19011(4)
O3 O 0.2488(5) -0.3670(2) 0.11187(4)
O4 O -0.0377(4) -0.1806(3) 0.10452(4)
O5 O 0.7606(4) 0.1195(3) 0.14035(4)
O6 O 0.5967(4) 0.3350(3) 0.13589(5)
loop_
_geom_bond_atom_site_label_1
_geom_bond_atom_site_label_2
_geom_bond_site_symmetry_1
_geom_bond_site_symmetry_2
S1 C5 1_555 1_555
S2 C15 1_555 1_555
Cl1 C29 1_555 1_555
C1 H1 1_555 1_555
H2 C1 1_555 1_555
H3 C1 1_555 1_555
C2 C1 1_555 1_555
C3 C2 1_555 1_555
H4 C3 1_555 1_555
C4 C3 1_555 1_555
H5 C4 1_555 1_555
C5 C4 1_555 1_555
C6 C5 1_555 1_555
H6 C6 1_555 1_555
C7 C2 1_555 1_555
H7 C7 1_555 1_555
C8 H8 1_555 1_555
C9 C8 1_555 1_555
H9 C9 1_555 1_555
C10 C9 1_555 1_555
H10 C10 1_555 1_555
C11 C10 1_555 1_555
C12 C11 1_555 1_555
H11 C12 1_555 1_555
C13 C8 1_555 1_555
H12 C13 1_555 1_555
C14 C11 1_555 1_555
H13 C14 1_555 1_555
C15 C14 1_555 1_555
H14 C15 1_555 1_555
C16 C15 1_555 1_555
H15 C16 1_555 1_555
C17 C16 1_555 1_555
H16 C17 1_555 1_555
C18 C17 1_555 1_555
C19 H17 1_555 1_555
H18 C19 1_555 1_555
H19 C19 1_555 1_555
C20 S2 1_555 1_555
C21 C20 1_555 1_555
H20 C21 1_555 1_555
C22 C21 1_555 1_555
H21 C22 1_555 1_555
C23 C22 1_555 1_555
C24 C23 1_555 1_555
H22 C24 1_555 1_555
C25 C20 1_555 1_555
H23 C25 1_555 1_555
C26 H24 1_555 1_555
C27 C30 1_555 1_555
C28 H25 1_555 1_555
C29 C30 1_555 1_555
C30 N3 1_555 1_555
C31 C23 1_555 1_555
H26 C31 1_555 1_555
H27 C31 1_555 1_555
H28 C31 1_555 1_555
N1 S1 1_555 1_555
N2 C16 1_555 1_555
N3 C26 1_555 1_555
N4 C27 1_555 1_555
N5 C28 1_555 1_555
O1 S1 1_555 1_555
O2 S1 1_555 1_555
O3 S2 1_555 1_555
O4 S2 1_555 1_555
O5 C18 1_555 1_555
O6 C18 1_555 1_555
C6 C7 1_555 1_555
C12 C13 1_555 1_555
C14 N1 1_555 1_555
C17 N1 1_555 1_555
C19 O6 1_555 1_555
C24 C25 1_555 1_555
C26 N2 1_555 1_555
C27 N2 1_555 1_555
C28 N4 1_555 1_555
C29 N5 1_555 1_555

#END
