
#######################################################################
#
#                 Cambridge Crystallographic Data Centre
#                                CCDC 
#
#######################################################################
#
# If this CIF has been generated from an entry in the Cambridge 
# Structural Database, then it will include bibliographic, chemical, 
# crystal, experimental, refinement or atomic coordinate data resulting 
# from the CCDC's data processing and validation procedures.
#
#######################################################################

data_WAGDOA
_chemical_formula_moiety         'C28 H22 N2 O5 S1'
_chemical_name_systematic        
"methyl 5-(1,1-dioxido-1,2-benzothiazol-3-yl)-1'-methyl-2'-oxo-4-phenyl-1',2'-dihydrospiro[cyclopent-2-ene-1,3'-indole]-2-carboxylate"
_symmetry_cell_setting           triclinic
_symmetry_space_group_name_H-M   'P -1'
_symmetry_Int_Tables_number      2
_space_group_name_Hall           '-P 1'
loop_
_symmetry_equiv_pos_site_id
_symmetry_equiv_pos_as_xyz
1 x,y,z
2 -x,-y,-z
_cell_length_a                   8.28533(15)
_cell_length_b                   11.53237(19)
_cell_length_c                   14.1641(3)
_cell_angle_alpha                111.2004(17)
_cell_angle_beta                 94.4487(16)
_cell_angle_gamma                93.4599(14)
_cell_volume                     1252.27
_exptl_crystal_colour            yellow
_exptl_crystal_description       block
_cell_formula_units_Z            2
loop_
_atom_site_label
_atom_site_type_symbol
_atom_site_fract_x
_atom_site_fract_y
_atom_site_fract_z
S1 S 0.15029(4) 0.31983(4) 0.35122(3)
O1 O 0.12717(15) 0.28429(13) 0.43611(11)
O2 O 0.84508(15) 0.09265(11) -0.04283(10)
O3 O 0.30512(13) 0.20301(9) 0.04341(9)
N1 N 0.37992(14) 0.41383(10) 0.09838(9)
O4 O 0.01123(15) 0.31009(15) 0.28205(13)
N2 N 0.29079(14) 0.23719(10) 0.28531(10)
O5 O 0.7432(2) 0.26109(14) -0.05342(11)
C1 C 0.41841(15) 0.30958(11) 0.29024(10)
C2 C 0.52441(17) 0.49232(12) 0.13702(9)
C3 C 0.61130(17) 0.05922(11) 0.26843(10)
C4 C 0.55065(16) 0.11297(11) 0.19073(10)
H1 H 0.4378 0.0787 0.1651
C5 C 0.64780(16) 0.42466(11) 0.15704(10)
C6 C 0.41525(16) 0.44442(11) 0.35418(9)
C7 C 0.55825(15) 0.25764(10) 0.23223(9)
H2 H 0.6585 0.2903 0.2785
C8 C 0.40436(16) 0.29299(12) 0.08389(10)
C9 C 0.57680(15) 0.29293(11) 0.13440(9)
C10 C 0.66629(16) 0.18460(11) 0.07284(10)
C11 C 0.26403(19) 0.46560(14) 0.38988(12)
C12 C 0.75298(18) 0.18601(13) -0.01404(11)
C13 C 0.53532(19) 0.54268(12) 0.38211(10)
H3 H 0.6386 0.5302 0.3610
C14 C 0.64882(17) 0.08806(12) 0.10186(10)
H4 H 0.6926 0.0129 0.0706
C15 C 0.80218(18) 0.48236(14) 0.19317(12)
H5 H 0.8858 0.4378 0.2057
C16 C 0.5512(2) 0.61827(13) 0.15444(12)
H6 H 0.4680 0.6629 0.1415
C17 C 0.77442(19) 0.07205(13) 0.30189(11)
H7 H 0.8482 0.1140 0.2763
C18 C 0.3450(3) 0.68068(15) 0.47379(14)
H8 H 0.3223 0.7612 0.5122
C19 C 0.5039(2) -0.00490(14) 0.30702(14)
H9 H 0.3934 -0.0150 0.2851
C20 C 0.2251(2) 0.45341(16) 0.07200(14)
H10 H 0.1904 0.5141 0.1317
H11 H 0.1453 0.3824 0.0453
H12 H 0.2373 0.4898 0.0215
C21 C 0.4977(2) 0.66089(13) 0.44264(12)
H13 H 0.5774 0.7279 0.4625
C22 C 0.7073(2) 0.67525(14) 0.19205(13)
H14 H 0.7289 0.7600 0.2050
C23 C 0.8301(2) 0.02313(16) 0.37344(13)
H15 H 0.9404 0.0329 0.3958
C24 C 0.8306(2) 0.60939(15) 0.21058(14)
H16 H 0.9343 0.6499 0.2350
C25 C 0.2248(2) 0.58264(17) 0.44879(14)
H17 H 0.1220 0.5951 0.4707
C26 C 0.5602(3) -0.05398(17) 0.37794(16)
H18 H 0.4872 -0.0970 0.4032
C27 C 0.7219(3) -0.03982(17) 0.41115(14)
H19 H 0.7588 -0.0726 0.4591
C28 C 0.9435(2) 0.0828(2) -0.12367(15)
H20 H 0.8828 0.1023 -0.1757
H21 H 0.9743 -0.0008 -0.1520
H22 H 1.0393 0.1404 -0.0975
loop_
_geom_bond_atom_site_label_1
_geom_bond_atom_site_label_2
_geom_bond_site_symmetry_1
_geom_bond_site_symmetry_2
S1 O1 1_555 1_555
O2 C12 1_555 1_555
O3 C8 1_555 1_555
N1 C2 1_555 1_555
O4 S1 1_555 1_555
N2 S1 1_555 1_555
O5 C12 1_555 1_555
C1 N2 1_555 1_555
C2 C5 1_555 1_555
C3 C4 1_555 1_555
C4 H1 1_555 1_555
C5 C9 1_555 1_555
C6 C1 1_555 1_555
C7 C1 1_555 1_555
H2 C7 1_555 1_555
C8 N1 1_555 1_555
C9 C7 1_555 1_555
C10 C9 1_555 1_555
C11 S1 1_555 1_555
C12 C10 1_555 1_555
C13 C6 1_555 1_555
H3 C13 1_555 1_555
C14 C4 1_555 1_555
H4 C14 1_555 1_555
C15 C5 1_555 1_555
H5 C15 1_555 1_555
C16 C2 1_555 1_555
H6 C16 1_555 1_555
C17 C3 1_555 1_555
H7 C17 1_555 1_555
C18 H8 1_555 1_555
C19 C3 1_555 1_555
H9 C19 1_555 1_555
C20 N1 1_555 1_555
H10 C20 1_555 1_555
H11 C20 1_555 1_555
H12 C20 1_555 1_555
C21 C13 1_555 1_555
H13 C21 1_555 1_555
C22 C16 1_555 1_555
H14 C22 1_555 1_555
C23 C17 1_555 1_555
H15 C23 1_555 1_555
C24 C15 1_555 1_555
H16 C24 1_555 1_555
C25 C11 1_555 1_555
H17 C25 1_555 1_555
C26 C19 1_555 1_555
H18 C26 1_555 1_555
C27 C23 1_555 1_555
H19 C27 1_555 1_555
C28 O2 1_555 1_555
H20 C28 1_555 1_555
H21 C28 1_555 1_555
H22 C28 1_555 1_555
C4 C7 1_555 1_555
C6 C11 1_555 1_555
C8 C9 1_555 1_555
C10 C14 1_555 1_555
C18 C21 1_555 1_555
C18 C25 1_555 1_555
C22 C24 1_555 1_555
C26 C27 1_555 1_555

#END
