
#######################################################################
#
#                 Cambridge Crystallographic Data Centre
#                                CCDC 
#
#######################################################################
#
# If this CIF has been generated from an entry in the Cambridge 
# Structural Database, then it will include bibliographic, chemical, 
# crystal, experimental, refinement or atomic coordinate data resulting 
# from the CCDC's data processing and validation procedures.
#
#######################################################################

data_WAGJIZ
_chemical_formula_moiety         'C26 H10 F12 N2 S1'
_chemical_name_systematic        
3,3'-(Thiophene-2,5-diyl)bis(2-(3,5-bis(trifluoromethyl)phenyl)acrylonitrile)
_symmetry_cell_setting           triclinic
_symmetry_space_group_name_H-M   'P -1'
_symmetry_Int_Tables_number      2
_space_group_name_Hall           '-P 1'
loop_
_symmetry_equiv_pos_site_id
_symmetry_equiv_pos_as_xyz
1 x,y,z
2 -x,-y,-z
_cell_length_a                   9.9566(5)
_cell_length_b                   13.5868(7)
_cell_length_c                   19.0352(10)
_cell_angle_alpha                100.131(3)
_cell_angle_beta                 101.167(3)
_cell_angle_gamma                99.246(3)
_cell_volume                     2435.82
_exptl_crystal_colour            yellow
_exptl_crystal_description       block
_cell_formula_units_Z            4
_exptl_crystal_preparation       luminescent
loop_
_atom_site_label
_atom_site_type_symbol
_atom_site_fract_x
_atom_site_fract_y
_atom_site_fract_z
S1 S 0.14159(6) 0.51414(4) 0.12053(3)
F1 F -0.2064(2) -0.04660(17) -0.16826(14)
F2 F -0.0285(3) -0.10648(14) -0.19276(14)
F3 F -0.0394(2) -0.05224(13) -0.08277(11)
F4 F 0.3243(3) 0.2284(5) -0.25511(17)
F5 F 0.1548(6) 0.1320(2) -0.32967(18)
F6 F 0.1574(5) 0.2825(3) -0.29884(19)
F7 F 0.3188(4) 1.11813(18) 0.4525(2)
F8 F 0.1970(8) 1.0851(2) 0.5268(3)
F9 F 0.1106(9) 1.0908(4) 0.4226(5)
F10 F 0.1837(3) 0.62823(19) 0.49686(14)
F11 F 0.1055(3) 0.73937(17) 0.56157(10)
F12 F -0.0243(2) 0.6478(2) 0.46088(12)
N1 N 0.0351(2) 0.27964(16) 0.08674(12)
N2 N 0.4222(3) 0.90553(19) 0.22615(14)
C1 C 0.0038(3) 0.07172(18) -0.15258(14)
C2 C 0.0572(3) 0.08759(19) -0.21268(14)
H1 H 0.0470 0.0343 -0.2526
C3 C 0.1261(3) 0.18521(19) -0.21160(14)
C4 C 0.1424(3) 0.26525(18) -0.15247(13)
H2 H 0.1899 0.3299 -0.1529
C5 C 0.0876(2) 0.24910(17) -0.09214(13)
C6 C 0.0178(2) 0.15133(18) -0.09297(13)
H3 H -0.0197 0.1392 -0.0534
C7 C 0.1048(2) 0.33240(17) -0.02746(12)
C8 C 0.0646(2) 0.30268(17) 0.03556(13)
C9 C 0.1565(2) 0.43211(17) -0.02410(12)
C10 C 0.1780(2) 0.51876(17) 0.03582(12)
C11 C 0.2314(2) 0.61829(17) 0.03330(13)
H4 H 0.2559 0.6365 -0.0081
C12 C 0.2452(2) 0.68930(17) 0.09887(13)
H5 H 0.2802 0.7588 0.1055
C13 C 0.2012(2) 0.64428(17) 0.15224(13)
C14 C 0.1902(2) 0.68519(18) 0.22567(13)
C15 C 0.2518(2) 0.77776(18) 0.26923(13)
C16 C 0.3455(3) 0.84886(19) 0.24466(14)
C17 C 0.2278(3) 0.81187(19) 0.34345(14)
C18 C 0.2479(4) 0.9154(2) 0.37323(19)
H6 H 0.2808 0.9632 0.3479
C19 C 0.2186(6) 0.9470(3) 0.4410(2)
C20 C 0.1726(4) 0.8780(3) 0.48081(19)
H7 H 0.1540 0.9003 0.5263
C21 C 0.1549(3) 0.7755(2) 0.45140(14)
C22 C 0.1816(3) 0.74209(19) 0.38354(13)
H8 H 0.1687 0.6725 0.3645
C23 C -0.0680(3) -0.0338(2) -0.15002(17)
C24 C 0.1914(3) 0.2044(2) -0.27453(15)
C25 C 0.2600(19) 1.0590(4) 0.4788(6)
C26 C 0.1037(3) 0.6982(2) 0.49274(15)
H17 H 0.183(3) 0.448(2) -0.0662(18)
H19 H 0.129(3) 0.641(3) 0.2440(18)
S2 S -0.65374(6) 0.11555(4) 0.02968(3)
F13 F -0.8073(2) -0.47487(15) -0.18391(13)
F14 F -0.8560(3) -0.50640(14) -0.30231(14)
F15 F -0.98796(17) -0.43720(13) -0.24231(10)
F16 F -0.5751(2) -0.13548(18) -0.37800(12)
F17 F -0.5372(2) -0.28763(15) -0.39158(10)
F18 F -0.39666(18) -0.16765(16) -0.31062(10)
F19 F -0.3191(2) 0.6509(2) 0.40949(14)
F20 F -0.4704(3) 0.73084(17) 0.36641(13)
F21 F -0.4856(3) 0.6742(2) 0.46356(12)
F22 F -0.91567(19) 0.40700(14) 0.38936(11)
F23 F -0.9203(2) 0.27074(15) 0.31231(11)
F24 F -0.7768(2) 0.3086(2) 0.41801(13)
N3 N -0.7395(2) -0.12882(17) 0.00269(12)
N4 N -0.4588(2) 0.53257(18) 0.10716(13)
C27 C -0.7703(2) -0.33485(18) -0.23970(14)
C28 C -0.6973(3) -0.32039(19) -0.29321(14)
H9 H -0.7028 -0.3734 -0.3326
C29 C -0.6156(3) -0.22435(19) -0.28660(14)
C30 C -0.6075(2) -0.14444(19) -0.22816(14)
H10 H -0.5512 -0.0812 -0.2243
C31 C -0.6841(2) -0.15919(18) -0.17511(13)
C32 C -0.7653(2) -0.25580(18) -0.18118(13)
H11 H -0.8159 -0.2672 -0.1461
C33 C -0.6772(2) -0.07461(18) -0.11281(13)
C34 C -0.7127(2) -0.10396(18) -0.04858(13)
C35 C -0.6358(2) 0.02550(18) -0.11304(14)
C36 C -0.6194(2) 0.11447(18) -0.05590(13)
C37 C -0.5713(2) 0.21300(18) -0.06291(13)
H12 H -0.5479 0.2280 -0.1054
C38 C -0.5613(2) 0.28789(18) -0.00026(13)
H13 H -0.5305 0.3573 0.0033
C39 C -0.6024(2) 0.24713(17) 0.05587(13)
C40 C -0.6141(2) 0.29258(19) 0.12841(13)
C41 C -0.5782(2) 0.39241(18) 0.16379(13)
C42 C -0.5128(2) 0.46932(18) 0.13128(13)
C43 C -0.6027(2) 0.42835(18) 0.23788(13)
C44 C -0.5212(3) 0.5192(2) 0.28296(14)
H14 H -0.4530 0.5578 0.2663
C45 C -0.5422(3) 0.5519(2) 0.35278(14)
C46 C -0.6427(3) 0.4961(2) 0.37897(14)
H15 H -0.6551 0.5179 0.4260
C47 C -0.7255(3) 0.4059(2) 0.33328(14)
C48 C -0.7071(3) 0.37276(19) 0.26328(13)
H16 H -0.7642 0.3135 0.2332
C49 C -0.8545(3) -0.4383(2) -0.24259(16)
C50 C -0.5319(3) -0.2037(2) -0.34221(14)
C51 C -0.4533(3) 0.6514(3) 0.39963(17)
C52 C -0.8345(3) 0.3471(2) 0.36283(15)
H18 H -0.650(3) 0.242(2) 0.1563(17)
H20 H -0.618(4) 0.038(3) -0.154(2)
loop_
_geom_bond_atom_site_label_1
_geom_bond_atom_site_label_2
_geom_bond_site_symmetry_1
_geom_bond_site_symmetry_2
S1 C10 1_555 1_555
S2 C36 1_555 1_555
F1 C23 1_555 1_555
F2 C23 1_555 1_555
F3 C23 1_555 1_555
F4 C24 1_555 1_555
F5 C24 1_555 1_555
F6 C24 1_555 1_555
F7 C25 1_555 1_555
F8 C25 1_555 1_555
F9 C25 1_555 1_555
F10 C26 1_555 1_555
F11 C26 1_555 1_555
F12 C26 1_555 1_555
F13 C49 1_555 1_555
F14 C49 1_555 1_555
F15 C49 1_555 1_555
F16 C50 1_555 1_555
F17 C50 1_555 1_555
F18 C50 1_555 1_555
F19 C51 1_555 1_555
F20 C51 1_555 1_555
F21 C51 1_555 1_555
F22 C52 1_555 1_555
F23 C52 1_555 1_555
F24 C52 1_555 1_555
N1 C8 1_555 1_555
N2 C16 1_555 1_555
N3 C34 1_555 1_555
N4 C42 1_555 1_555
C1 C2 1_555 1_555
C2 H1 1_555 1_555
C3 C2 1_555 1_555
C4 C3 1_555 1_555
H2 C4 1_555 1_555
C5 C4 1_555 1_555
C6 C1 1_555 1_555
H3 C6 1_555 1_555
C7 C5 1_555 1_555
C8 C7 1_555 1_555
C9 C7 1_555 1_555
C10 C9 1_555 1_555
C11 C10 1_555 1_555
H4 C11 1_555 1_555
C12 C11 1_555 1_555
H5 C12 1_555 1_555
C13 S1 1_555 1_555
C14 C13 1_555 1_555
C15 C14 1_555 1_555
C16 C15 1_555 1_555
C17 C15 1_555 1_555
C18 C17 1_555 1_555
H6 C18 1_555 1_555
C19 C18 1_555 1_555
C20 C19 1_555 1_555
H7 C20 1_555 1_555
C21 C20 1_555 1_555
C22 C17 1_555 1_555
H8 C22 1_555 1_555
C23 C1 1_555 1_555
C24 C3 1_555 1_555
C25 C19 1_555 1_555
C26 C21 1_555 1_555
C27 C28 1_555 1_555
C28 H9 1_555 1_555
C29 C28 1_555 1_555
C30 C29 1_555 1_555
H10 C30 1_555 1_555
C31 C30 1_555 1_555
C32 C27 1_555 1_555
H11 C32 1_555 1_555
C33 C31 1_555 1_555
C34 C33 1_555 1_555
C35 C33 1_555 1_555
C36 C35 1_555 1_555
C37 C36 1_555 1_555
H12 C37 1_555 1_555
C38 C37 1_555 1_555
H13 C38 1_555 1_555
C39 S2 1_555 1_555
C40 C39 1_555 1_555
C41 C40 1_555 1_555
C42 C41 1_555 1_555
C43 C41 1_555 1_555
C44 C43 1_555 1_555
H14 C44 1_555 1_555
C45 C44 1_555 1_555
C46 C45 1_555 1_555
H15 C46 1_555 1_555
C47 C46 1_555 1_555
C48 C43 1_555 1_555
H16 C48 1_555 1_555
C49 C27 1_555 1_555
C50 C29 1_555 1_555
C51 C45 1_555 1_555
C52 C47 1_555 1_555
H17 C9 1_555 1_555
H18 C40 1_555 1_555
H19 C14 1_555 1_555
H20 C35 1_555 1_555
C5 C6 1_555 1_555
C12 C13 1_555 1_555
C21 C22 1_555 1_555
C31 C32 1_555 1_555
C38 C39 1_555 1_555
C47 C48 1_555 1_555

#END
