
#######################################################################
#
#                 Cambridge Crystallographic Data Centre
#                                CCDC 
#
#######################################################################
#
# If this CIF has been generated from an entry in the Cambridge 
# Structural Database, then it will include bibliographic, chemical, 
# crystal, experimental, refinement or atomic coordinate data resulting 
# from the CCDC's data processing and validation procedures.
#
#######################################################################

data_WAGPIF
_chemical_formula_moiety         'C21 H23 N1 O5 S1'
_chemical_name_systematic        
'Ethyl (2R,3R,4R)-(3-methyl-4-((4-methylphenyl)sulfanyl)-3-nitro-3,4-dihydro-2H-chromen-2-yl)acetate'
_symmetry_cell_setting           monoclinic
_symmetry_space_group_name_H-M   'P 21'
_symmetry_Int_Tables_number      4
_space_group_name_Hall           'P 2yb'
loop_
_symmetry_equiv_pos_site_id
_symmetry_equiv_pos_as_xyz
1 x,y,z
2 -x,1/2+y,-z
_cell_length_a                   10.0524(12)
_cell_length_b                   8.0617(10)
_cell_length_c                   12.9432(15)
_cell_angle_alpha                90
_cell_angle_beta                 100.456(2)
_cell_angle_gamma                90
_cell_volume                     1031.49
_exptl_crystal_colour            colorless
_exptl_crystal_description       block
_cell_formula_units_Z            2
loop_
_atom_site_label
_atom_site_type_symbol
_atom_site_fract_x
_atom_site_fract_y
_atom_site_fract_z
C1 C 0.1389(4) 0.4744(6) 0.4090(3)
C2 C 0.2649(5) 0.4757(7) 0.4735(3)
H1 H 0.3125 0.3773 0.4893
C3 C 0.3189(6) 0.6236(7) 0.5140(4)
H2 H 0.4037 0.6227 0.5570
C4 C 0.2536(5) 0.7721(7) 0.4938(3)
C5 C 0.1267(5) 0.7686(7) 0.4300(3)
H3 H 0.0796 0.8673 0.4142
C6 C 0.0696(5) 0.6230(6) 0.3900(3)
H4 H -0.0169 0.6236 0.3495
C7 C 0.3160(7) 0.9314(8) 0.5354(4)
H5 H 0.3854 0.9099 0.5953
H6 H 0.2480 1.0015 0.5558
H7 H 0.3549 0.9858 0.4820
C8 C 0.0523(4) 0.3139(5) 0.2181(3)
H8 H 0.0727 0.4308 0.2071
C9 C -0.0894(4) 0.2803(5) 0.1571(3)
C10 C -0.1048(4) 0.2193(5) 0.0550(3)
C11 C 0.1294(3) 0.2508(5) 0.0521(3)
H9 H 0.1243 0.3713 0.0423
C12 C 0.1552(3) 0.2097(5) 0.1723(3)
C13 C 0.1535(4) 0.0288(5) 0.1947(3)
H10 H 0.2178 -0.0267 0.1602
H11 H 0.0647 -0.0146 0.1693
H12 H 0.1770 0.0109 0.2691
C14 C -0.2050(4) 0.3092(7) 0.1978(4)
H13 H -0.1969 0.3464 0.2667
C15 C -0.3334(5) 0.2843(9) 0.1387(4)
H14 H -0.4101 0.3088 0.1666
C16 C -0.3455(4) 0.2230(6) 0.0382(5)
H15 H -0.4309 0.2030 -0.0012
C17 C -0.2332(4) 0.1912(6) -0.0039(4)
H16 H -0.2424 0.1506 -0.0722
C18 C 0.2341(4) 0.1802(6) -0.0060(3)
H17 H 0.3234 0.1994 0.0353
H18 H 0.2211 0.0612 -0.0129
C19 C 0.2278(4) 0.2544(6) -0.1136(3)
C20 C 0.3491(5) 0.3110(8) -0.2489(3)
H19 H 0.2837 0.2536 -0.3011
H20 H 0.3277 0.4284 -0.2525
C21 C 0.4856(5) 0.2840(9) -0.2693(4)
H21 H 0.5490 0.3465 -0.2198
H22 H 0.4902 0.3196 -0.3393
H23 H 0.5075 0.1682 -0.2620
N1 N 0.2950(3) 0.2837(5) 0.2178(2)
O1 O 0.0019(3) 0.1778(4) 0.0077(2)
O2 O 0.3139(3) 0.4271(5) 0.2020(3)
O3 O 0.3783(3) 0.1926(5) 0.2669(3)
O4 O 0.1284(4) 0.3095(7) -0.1671(2)
O5 O 0.3439(3) 0.2469(5) -0.1440(2)
S1 S 0.06598(13) 0.28295(15) 0.36012(7)
loop_
_geom_bond_atom_site_label_1
_geom_bond_atom_site_label_2
_geom_bond_site_symmetry_1
_geom_bond_site_symmetry_2
C1 C2 1_555 1_555
C2 H1 1_555 1_555
C3 C2 1_555 1_555
H2 C3 1_555 1_555
C4 C3 1_555 1_555
C5 C4 1_555 1_555
H3 C5 1_555 1_555
C6 C1 1_555 1_555
H4 C6 1_555 1_555
C7 C4 1_555 1_555
H5 C7 1_555 1_555
H6 C7 1_555 1_555
H7 C7 1_555 1_555
C8 H8 1_555 1_555
C9 C8 1_555 1_555
C10 C9 1_555 1_555
C11 H9 1_555 1_555
C12 C8 1_555 1_555
C13 C12 1_555 1_555
H10 C13 1_555 1_555
H11 C13 1_555 1_555
H12 C13 1_555 1_555
C14 C9 1_555 1_555
H13 C14 1_555 1_555
C15 C14 1_555 1_555
H14 C15 1_555 1_555
C16 C15 1_555 1_555
H15 C16 1_555 1_555
C17 C10 1_555 1_555
H16 C17 1_555 1_555
C18 C11 1_555 1_555
H17 C18 1_555 1_555
H18 C18 1_555 1_555
C19 C18 1_555 1_555
C20 H19 1_555 1_555
H20 C20 1_555 1_555
C21 C20 1_555 1_555
H21 C21 1_555 1_555
H22 C21 1_555 1_555
H23 C21 1_555 1_555
N1 C12 1_555 1_555
O1 C10 1_555 1_555
O2 N1 1_555 1_555
O3 N1 1_555 1_555
O4 C19 1_555 1_555
O5 C19 1_555 1_555
S1 C1 1_555 1_555
C5 C6 1_555 1_555
C8 S1 1_555 1_555
C11 C12 1_555 1_555
C11 O1 1_555 1_555
C16 C17 1_555 1_555
C20 O5 1_555 1_555

#END
