
#######################################################################
#
#                 Cambridge Crystallographic Data Centre
#                                CCDC 
#
#######################################################################
#
# If this CIF has been generated from an entry in the Cambridge 
# Structural Database, then it will include bibliographic, chemical, 
# crystal, experimental, refinement or atomic coordinate data resulting 
# from the CCDC's data processing and validation procedures.
#
#######################################################################

data_WAGSAB
_chemical_formula_moiety         'C22 H34 N2 O2,0.33(H2 O1)'
_chemical_name_systematic        
'4-((1-cyclohexylethyl)amino)-6-((1-cyclohexylethyl)iminio)-3-oxocyclohexa-1,4-dien-1-olate hydrate'
_symmetry_cell_setting           tetragonal
_symmetry_space_group_name_H-M   'P 43 21 2'
_symmetry_Int_Tables_number      96
_space_group_name_Hall           'P 4nw 2abw'
loop_
_symmetry_equiv_pos_site_id
_symmetry_equiv_pos_as_xyz
1 x,y,z
2 1/2-y,1/2+x,3/4+z
3 1/2+y,1/2-x,1/4+z
4 1/2+x,1/2-y,1/4-z
5 1/2-x,1/2+y,3/4-z
6 -x,-y,1/2+z
7 y,x,-z
8 -y,-x,1/2-z
_cell_length_a                   11.8773(7)
_cell_length_b                   11.8773(7)
_cell_length_c                   44.580(3)
_cell_angle_alpha                90
_cell_angle_beta                 90
_cell_angle_gamma                90
_cell_volume                     6288.91
_exptl_crystal_colour            red
_exptl_crystal_description       block
_cell_formula_units_Z            12
loop_
_atom_site_label
_atom_site_type_symbol
_atom_site_fract_x
_atom_site_fract_y
_atom_site_fract_z
C1 C 0.8655(2) 0.7937(2) 0.84253(5)
H1 H 0.8146 0.7321 0.8419
C2 C 0.9418(2) 0.8109(2) 0.81950(5)
C3 C 1.0229(2) 0.9111(2) 0.81953(5)
C4 C 1.0162(2) 0.9856(2) 0.84358(5)
H2 H 1.0657 1.0485 0.8439
C5 C 0.9407(2) 0.9724(2) 0.86707(5)
C6 C 0.8646(2) 0.8682(2) 0.86658(5)
C7 C 0.8932(2) 0.6459(2) 0.78623(5)
H3 H 0.8376 0.6262 0.8023
C8 C 0.9760(3) 0.5487(3) 0.78293(6)
H4 H 1.0351 0.5696 0.7686
H5 H 0.9361 0.4820 0.7756
H6 H 1.0101 0.5321 0.8025
C9 C 0.8281(2) 0.6704(2) 0.75693(5)
H7 H 0.7926 0.5982 0.7504
C10 C 0.7338(3) 0.7541(3) 0.76220(7)
H8 H 0.7658 0.8258 0.7696
H9 H 0.6823 0.7244 0.7778
C11 C 0.6680(3) 0.7760(3) 0.73343(9)
H10 H 0.6297 0.7058 0.7271
H11 H 0.6095 0.8335 0.7373
C12 C 0.7443(4) 0.8161(4) 0.70841(9)
H12 H 0.7775 0.8898 0.7139
H13 H 0.6999 0.8262 0.6898
C13 C 0.8376(3) 0.7312(4) 0.70296(7)
H14 H 0.8886 0.7599 0.6871
H15 H 0.8045 0.6596 0.6958
C14 C 0.9046(3) 0.7099(3) 0.73150(5)
H16 H 0.9434 0.7800 0.7376
H17 H 0.9626 0.6519 0.7276
C15 C 0.7123(3) 0.7766(3) 0.89656(7)
H18 H 0.6969 0.7428 0.8764
C16 C 0.6040(3) 0.8390(3) 0.90420(9)
H19 H 0.6155 0.8841 0.9224
H20 H 0.5435 0.7845 0.9076
H21 H 0.5835 0.8886 0.8875
C17 C 0.7338(4) 0.6777(4) 0.91614(10)
H22 H 0.6664 0.6273 0.9154
C18 C 0.7519(7) 0.7155(6) 0.94867(13)
H23 H 0.6827 0.7522 0.9563
H24 H 0.8139 0.7711 0.9495
C19 C 0.7812(11) 0.6131(9) 0.9687(3)
H25 H 0.7958 0.6394 0.9894
H26 H 0.7160 0.5612 0.9693
C20 C 0.8807(8) 0.5518(7) 0.95756(19)
H27 H 0.8944 0.4852 0.9704
H28 H 0.9476 0.6013 0.9588
C21 C 0.8641(5) 0.5144(6) 0.92555(14)
H29 H 0.8026 0.4582 0.9248
H30 H 0.9338 0.4776 0.9183
C22 C 0.8355(5) 0.6118(5) 0.90506(13)
H31 H 0.8199 0.5826 0.8847
H32 H 0.9011 0.6629 0.9037
N1 N 0.95526(19) 0.74699(19) 0.79563(5)
N2 N 0.8000(2) 0.8604(2) 0.89063(5)
O1 O 1.08870(17) 0.91882(17) 0.79774(4)
O2 O 0.92642(18) 1.03926(17) 0.88849(4)
H33 H 1.016(3) 0.770(3) 0.7837(6)
H34 H 0.812(3) 0.911(3) 0.9045(7)
C29 C 0.0714(2) 0.0714(2) 1.0000
H46 H 0.1279 0.1279 1.0000
C30 C 0.0088(2) 0.0499(2) 0.97429(5)
C31 C -0.0908(2) -0.0306(2) 0.97495(5)
C32 C -0.1009(2) -0.1009(2) 1.0000
H47 H -0.1574 -0.1574 1.0000
C33 C 0.1154(2) 0.1782(2) 0.94084(6)
H48 H 0.1709 0.1779 0.9577
C34 C 0.0625(4) 0.2945(3) 0.93946(9)
H49 H 0.0097 0.2979 0.9226
H50 H 0.1216 0.3511 0.9367
H51 H 0.0220 0.3095 0.9582
C35 C 0.1776(2) 0.1437(2) 0.91225(5)
H52 H 0.1239 0.1471 0.8950
C36 C 0.2247(2) 0.0241(2) 0.91449(6)
H53 H 0.2734 0.0186 0.9325
H54 H 0.1616 -0.0295 0.9170
C37 C 0.2925(3) -0.0087(2) 0.88687(7)
H55 H 0.3270 -0.0835 0.8902
H56 H 0.2411 -0.0149 0.8695
C38 C 0.3847(2) 0.0758(3) 0.87963(7)
H57 H 0.4436 0.0724 0.8953
H58 H 0.4200 0.0558 0.8602
C39 C 0.3385(3) 0.1936(3) 0.87787(6)
H59 H 0.2874 0.1995 0.8604
H60 H 0.4013 0.2472 0.8748
C40 C 0.2749(2) 0.2250(2) 0.90620(5)
H61 H 0.2449 0.3024 0.9042
H62 H 0.3273 0.2241 0.9235
N3 N 0.0271(2) 0.0959(2) 0.94790(5)
O3 O -0.15522(17) -0.02837(19) 0.95256(4)
H63 H -0.018(3) 0.076(3) 0.9343(7)
C30F C 0.0499(2) 0.0088(2) 1.02571(5)
C31F C -0.0306(2) -0.0908(2) 1.02505(5)
C33F C 0.1782(2) 0.1154(2) 1.05916(6)
H48F H 0.1779 0.1709 1.0423
C34F C 0.2945(3) 0.0625(4) 1.06054(9)
H49F H 0.2979 0.0097 1.0774
H50F H 0.3511 0.1216 1.0633
H51F H 0.3095 0.0220 1.0418
C35F C 0.1437(2) 0.1776(2) 1.08775(5)
H52F H 0.1471 0.1239 1.1050
C36F C 0.0241(2) 0.2247(2) 1.08551(6)
H53F H 0.0186 0.2734 1.0675
H54F H -0.0295 0.1616 1.0830
C37F C -0.0087(2) 0.2925(3) 1.11313(7)
H55F H -0.0835 0.3270 1.1098
H56F H -0.0149 0.2411 1.1305
C38F C 0.0758(3) 0.3847(2) 1.12037(7)
H57F H 0.0724 0.4436 1.1047
H58F H 0.0558 0.4200 1.1398
C39F C 0.1936(3) 0.3385(3) 1.12213(6)
H59F H 0.1995 0.2874 1.1396
H60F H 0.2472 0.4013 1.1252
C40F C 0.2250(2) 0.2749(2) 1.09380(5)
H61F H 0.3024 0.2449 1.0958
H62F H 0.2241 0.3273 1.0765
N3F N 0.0959(2) 0.0271(2) 1.05210(5)
O3F O -0.02837(19) -0.15522(17) 1.04744(4)
H63F H 0.076(3) -0.018(3) 1.0657(7)
O4 O 0.2010(2) 0.7990(2) 0.7500
H64 H 0.178(3) 0.837(3) 0.7638(7)
H64G H 0.163(3) 0.822(3) 0.7362(7)
C23? C 0.7703(5) 0.7208(5) 0.92791(13)
H35? H 0.7898 0.7832 0.9420
C24? C 0.6871(9) 0.6452(7) 0.94265(16)
H36? H 0.6597 0.5901 0.9277
H37? H 0.6217 0.6909 0.9492
C25? C 0.7316(15) 0.5825(13) 0.9691(4)
H38? H 0.6740 0.5285 0.9762
H39? H 0.7469 0.6362 0.9856
C26? C 0.8421(9) 0.5173(9) 0.9614(3)
H40? H 0.8748 0.4856 0.9799
H41? H 0.8241 0.4539 0.9477
C27? C 0.9250(7) 0.5918(8) 0.94687(19)
H42? H 0.9897 0.5460 0.9400
H43? H 0.9533 0.6463 0.9619
C28? C 0.8771(6) 0.6574(6) 0.91985(16)
H44? H 0.9343 0.7115 0.9126
H45? H 0.8607 0.6041 0.9033
loop_
_geom_bond_atom_site_label_1
_geom_bond_atom_site_label_2
_geom_bond_site_symmetry_1
_geom_bond_site_symmetry_2
C1 H1 1_555 1_555
C2 C1 1_555 1_555
C3 C2 1_555 1_555
C4 C3 1_555 1_555
H2 C4 1_555 1_555
C5 C4 1_555 1_555
C6 C1 1_555 1_555
C7 H3 1_555 1_555
C8 C7 1_555 1_555
H4 C8 1_555 1_555
H5 C8 1_555 1_555
H6 C8 1_555 1_555
C9 C7 1_555 1_555
H7 C9 1_555 1_555
C10 C9 1_555 1_555
H8 C10 1_555 1_555
H9 C10 1_555 1_555
C11 C10 1_555 1_555
H10 C11 1_555 1_555
H11 C11 1_555 1_555
C12 C11 1_555 1_555
H12 C12 1_555 1_555
H13 C12 1_555 1_555
C13 C12 1_555 1_555
H14 C13 1_555 1_555
H15 C13 1_555 1_555
C14 C9 1_555 1_555
H16 C14 1_555 1_555
H17 C14 1_555 1_555
C15 H18 1_555 1_555
C16 C15 1_555 1_555
H19 C16 1_555 1_555
H20 C16 1_555 1_555
H21 C16 1_555 1_555
C17 C15 1_555 1_555
H22 C17 1_555 1_555
C18 C17 1_555 1_555
H23 C18 1_555 1_555
H24 C18 1_555 1_555
C19 C18 1_555 1_555
H25 C19 1_555 1_555
H26 C19 1_555 1_555
C20 C19 1_555 1_555
H27 C20 1_555 1_555
H28 C20 1_555 1_555
C21 C20 1_555 1_555
H29 C21 1_555 1_555
H30 C21 1_555 1_555
C22 C17 1_555 1_555
H31 C22 1_555 1_555
H32 C22 1_555 1_555
N1 C2 1_555 1_555
N2 C6 1_555 1_555
O1 C3 1_555 1_555
O2 C5 1_555 1_555
H33 N1 1_555 1_555
H34 N2 1_555 1_555
C29 H46 1_555 1_555
C30 C29 1_555 1_555
C31 C30 1_555 1_555
C32 C31 1_555 1_555
H47 C32 1_555 1_555
C33 H48 1_555 1_555
C34 C33 1_555 1_555
H49 C34 1_555 1_555
H50 C34 1_555 1_555
H51 C34 1_555 1_555
C35 C33 1_555 1_555
H52 C35 1_555 1_555
C36 C35 1_555 1_555
H53 C36 1_555 1_555
H54 C36 1_555 1_555
C37 C36 1_555 1_555
H55 C37 1_555 1_555
H56 C37 1_555 1_555
C38 C37 1_555 1_555
H57 C38 1_555 1_555
H58 C38 1_555 1_555
C39 C38 1_555 1_555
H59 C39 1_555 1_555
H60 C39 1_555 1_555
C40 C35 1_555 1_555
H61 C40 1_555 1_555
H62 C40 1_555 1_555
N3 C30 1_555 1_555
O3 C31 1_555 1_555
H63 N3 1_555 1_555
O4 H64 1_555 1_555
C30F C29 1_555 1_555
C31F C32 1_555 1_555
C33F H48F 1_555 1_555
C34F C33F 1_555 1_555
H49F C34F 1_555 1_555
H50F C34F 1_555 1_555
H51F C34F 1_555 1_555
C35F C33F 1_555 1_555
H52F C35F 1_555 1_555
C36F C35F 1_555 1_555
H53F C36F 1_555 1_555
H54F C36F 1_555 1_555
C37F C36F 1_555 1_555
H55F C37F 1_555 1_555
H56F C37F 1_555 1_555
C38F C37F 1_555 1_555
H57F C38F 1_555 1_555
H58F C38F 1_555 1_555
C39F C38F 1_555 1_555
H59F C39F 1_555 1_555
H60F C39F 1_555 1_555
C40F C35F 1_555 1_555
H61F C40F 1_555 1_555
H62F C40F 1_555 1_555
N3F C30F 1_555 1_555
O3F C31F 1_555 1_555
H63F N3F 1_555 1_555
H64G O4 1_555 1_555
C5 C6 1_555 1_555
C7 N1 1_555 1_555
C13 C14 1_555 1_555
C15 N2 1_555 1_555
C21 C22 1_555 1_555
C33 N3 1_555 1_555
C39 C40 1_555 1_555
C30F C31F 1_555 1_555
C33F N3F 1_555 1_555
C39F C40F 1_555 1_555

#END
