
#######################################################################
#
#                 Cambridge Crystallographic Data Centre
#                                CCDC 
#
#######################################################################
#
# If this CIF has been generated from an entry in the Cambridge 
# Structural Database, then it will include bibliographic, chemical, 
# crystal, experimental, refinement or atomic coordinate data resulting 
# from the CCDC's data processing and validation procedures.
#
#######################################################################

data_WAGTIK
_chemical_name_common            (E)-2-(naphthalen-2-yl)-N-tosylhept-2-enamide
_chemical_formula_moiety         'C24 H25 N1 O3 S1'
_chemical_name_systematic        
N-((4-methylphenyl)sulfonyl)-2-(2-naphthyl)hept-2-enamide
_symmetry_cell_setting           triclinic
_symmetry_space_group_name_H-M   'P -1'
_symmetry_Int_Tables_number      2
_space_group_name_Hall           '-P 1'
loop_
_symmetry_equiv_pos_site_id
_symmetry_equiv_pos_as_xyz
1 x,y,z
2 -x,-y,-z
_cell_length_a                   9.3077(19)
_cell_length_b                   11.580(2)
_cell_length_c                   11.683(2)
_cell_angle_alpha                116.41(3)
_cell_angle_beta                 100.50(3)
_cell_angle_gamma                90.85(3)
_cell_volume                     1102.33
_exptl_crystal_colour            colorless
_exptl_crystal_description       block
_cell_formula_units_Z            2
loop_
_atom_site_label
_atom_site_type_symbol
_atom_site_fract_x
_atom_site_fract_y
_atom_site_fract_z
S1 S 0.97923(6) 0.31248(5) 0.03169(6)
O1 O 1.06807(18) 0.37358(15) -0.01811(19)
O2 O 1.04771(19) 0.27749(16) 0.12914(18)
O3 O 0.7252(2) 0.28746(15) 0.13439(18)
N1 N 0.8617(2) 0.41904(16) 0.09065(19)
H1 H 0.8733 0.4935 0.0920
C1 C 0.6054(5) -0.1548(4) -0.4176(4)
H2 H 0.6397 -0.2330 -0.4189
H3 H 0.6106 -0.1536 -0.4985
H4 H 0.5055 -0.1513 -0.4069
C2 C 0.7008(3) -0.0387(3) -0.3051(3)
C3 C 0.7644(3) -0.0423(2) -0.1912(3)
H5 H 0.7505 -0.1183 -0.1839
C4 C 0.8487(3) 0.0645(2) -0.0871(3)
H6 H 0.8901 0.0607 -0.0103
C5 C 0.8707(2) 0.1766(2) -0.0981(2)
C6 C 0.8086(3) 0.1824(3) -0.2120(3)
H7 H 0.8235 0.2581 -0.2195
C7 C 0.7243(3) 0.0750(3) -0.3143(3)
H8 H 0.6825 0.0789 -0.3909
C8 C 0.7456(2) 0.3926(2) 0.1378(2)
C9 C 0.6477(2) 0.49757(19) 0.1862(2)
C10 C 0.5156(2) 0.4607(2) 0.1952(2)
H9 H 0.4944 0.3722 0.1666
C11 C 0.3983(2) 0.5422(2) 0.2449(2)
H10 H 0.3150 0.5224 0.1733
H11 H 0.4345 0.6329 0.2801
C12 C 0.3491(3) 0.5189(3) 0.3505(3)
H12 H 0.3167 0.4273 0.3150
H13 H 0.4331 0.5399 0.4218
C13 C 0.2275(3) 0.5955(3) 0.4045(3)
H14 H 0.2592 0.6872 0.4400
H15 H 0.1426 0.5739 0.3338
C14 C 0.1834(5) 0.5703(4) 0.5093(4)
H16 H 0.1559 0.4791 0.4759
H17 H 0.1015 0.6170 0.5362
H18 H 0.2645 0.5986 0.5828
C15 C 0.7008(2) 0.63255(18) 0.2192(2)
C16 C 0.8337(2) 0.6939(2) 0.3116(2)
H19 H 0.8853 0.6503 0.3534
C17 C 0.8871(3) 0.8162(2) 0.3399(2)
H20 H 0.9747 0.8546 0.4007
C18 C 0.8114(2) 0.88548(19) 0.2784(2)
C19 C 0.6761(2) 0.82709(19) 0.1889(2)
C20 C 0.6245(2) 0.69961(19) 0.1612(2)
H21 H 0.5361 0.6603 0.1018
C21 C 0.5989(3) 0.8955(2) 0.1280(3)
H22 H 0.5088 0.8588 0.0707
C22 C 0.6558(4) 1.0153(3) 0.1526(3)
H23 H 0.6038 1.0599 0.1123
C23 C 0.7915(4) 1.0718(2) 0.2378(3)
H24 H 0.8302 1.1527 0.2518
C24 C 0.8670(3) 1.0101(2) 0.3000(3)
H25 H 0.9564 1.0495 0.3576
loop_
_geom_bond_atom_site_label_1
_geom_bond_atom_site_label_2
_geom_bond_site_symmetry_1
_geom_bond_site_symmetry_2
S1 O1 1_555 1_555
O2 S1 1_555 1_555
O3 C8 1_555 1_555
N1 S1 1_555 1_555
H1 N1 1_555 1_555
C1 H2 1_555 1_555
H3 C1 1_555 1_555
H4 C1 1_555 1_555
C2 C1 1_555 1_555
C3 C2 1_555 1_555
H5 C3 1_555 1_555
C4 C3 1_555 1_555
H6 C4 1_555 1_555
C5 S1 1_555 1_555
C6 C5 1_555 1_555
H7 C6 1_555 1_555
C7 C2 1_555 1_555
H8 C7 1_555 1_555
C8 N1 1_555 1_555
C9 C8 1_555 1_555
C10 C9 1_555 1_555
H9 C10 1_555 1_555
C11 C10 1_555 1_555
H10 C11 1_555 1_555
H11 C11 1_555 1_555
C12 C11 1_555 1_555
H12 C12 1_555 1_555
H13 C12 1_555 1_555
C13 C12 1_555 1_555
H14 C13 1_555 1_555
H15 C13 1_555 1_555
C14 C13 1_555 1_555
H16 C14 1_555 1_555
H17 C14 1_555 1_555
H18 C14 1_555 1_555
C15 C9 1_555 1_555
C16 C15 1_555 1_555
H19 C16 1_555 1_555
C17 C16 1_555 1_555
H20 C17 1_555 1_555
C18 C17 1_555 1_555
C19 C18 1_555 1_555
C20 C15 1_555 1_555
H21 C20 1_555 1_555
C21 C19 1_555 1_555
H22 C21 1_555 1_555
C22 C21 1_555 1_555
H23 C22 1_555 1_555
C23 C22 1_555 1_555
H24 C23 1_555 1_555
C24 C18 1_555 1_555
H25 C24 1_555 1_555
C4 C5 1_555 1_555
C6 C7 1_555 1_555
C19 C20 1_555 1_555
C23 C24 1_555 1_555

#END
