
#######################################################################
#
#                 Cambridge Crystallographic Data Centre
#                                CCDC 
#
#######################################################################
#
# If this CIF has been generated from an entry in the Cambridge 
# Structural Database, then it will include bibliographic, chemical, 
# crystal, experimental, refinement or atomic coordinate data resulting 
# from the CCDC's data processing and validation procedures.
#
#######################################################################

data_WAGTOQ
_chemical_formula_moiety         'C26 H25 Br2 N1 O5 S1'
_chemical_name_systematic        
"t-butyl 4-bromo-8'-(4-bromophenyl)-2,3'-dioxo-3',4',4a',5',8',8a'-hexahydro-1'H-spiro[indole-3,7'-thiopyrano[4,3-c]pyran]-1(2H)-carboxylate"
_symmetry_cell_setting           monoclinic
_symmetry_space_group_name_H-M   'P 21'
_symmetry_Int_Tables_number      4
_space_group_name_Hall           'P 2yb'
loop_
_symmetry_equiv_pos_site_id
_symmetry_equiv_pos_as_xyz
1 x,y,z
2 -x,1/2+y,-z
_cell_length_a                   11.6623(6)
_cell_length_b                   9.2496(4)
_cell_length_c                   12.1961(6)
_cell_angle_alpha                90
_cell_angle_beta                 95.608(2)
_cell_angle_gamma                90
_cell_volume                     1309.32
_exptl_crystal_colour            yellow
_exptl_crystal_description       block
_cell_formula_units_Z            2
loop_
_atom_site_label
_atom_site_type_symbol
_atom_site_fract_x
_atom_site_fract_y
_atom_site_fract_z
S1 S 0.90988(15) 1.15500(19) 0.99475(14)
N1 N 1.0083(5) 1.1903(7) 0.7343(5)
Br1 Br 0.69016(8) 0.89126(9) 0.89567(7)
Br2 Br 0.55512(16) 1.34138(17) 0.34539(8)
O1 O 0.9674(4) 1.4072(6) 0.8185(5)
O2 O 1.1146(8) 1.1846(11) 0.5898(7)
O3 O 1.1589(5) 1.3315(8) 0.7314(5)
O4 O 0.5625(5) 1.5526(7) 0.9611(5)
O5 O 0.5700(7) 1.6507(9) 1.1223(7)
C1 C 0.8066(7) 0.9162(8) 0.7992(6)
C2 C 0.8349(9) 0.7984(10) 0.7377(8)
H1 H 0.7945 0.7121 0.7414
C3 C 0.9228(10) 0.8091(9) 0.6712(8)
H2 H 0.9410 0.7289 0.6303
C4 C 0.9845(8) 0.9333(10) 0.6628(7)
H3 H 1.0436 0.9388 0.6170
C5 C 0.9558(6) 1.0517(8) 0.7254(5)
C6 C 0.8662(5) 1.0459(7) 0.7922(5)
C7 C 0.8569(5) 1.1889(7) 0.8512(5)
C8 C 0.9481(5) 1.2797(8) 0.8020(6)
C9 C 1.0983(6) 1.2363(9) 0.6736(5)
C10 C 1.2380(6) 1.4334(11) 0.6806(7)
C11 C 1.2936(10) 1.5037(19) 0.7853(10)
H4 H 1.2367 1.5584 0.8194
H5 H 1.3543 1.5670 0.7674
H6 H 1.3248 1.4302 0.8352
C12 C 1.1715(11) 1.532(2) 0.6092(13)
H7 H 1.1169 1.5810 0.6500
H8 H 1.1311 1.4788 0.5497
H9 H 1.2218 1.6010 0.5802
C13 C 1.3320(10) 1.3473(16) 0.6306(12)
H10 H 1.3000 1.3016 0.5638
H11 H 1.3620 1.2748 0.6820
H12 H 1.3930 1.4113 0.6146
C14 C 0.8804(6) 1.3279(9) 1.0525(6)
H13 H 0.8988 1.3242 1.1318
H14 H 0.9298 1.4001 1.0236
C15 C 0.7560(5) 1.3730(8) 1.0272(5)
H15 H 0.7060 1.2975 1.0527
C16 C 0.7339(7) 1.5156(9) 1.0868(7)
H16 H 0.7456 1.4990 1.1656
H17 H 0.7906 1.5861 1.0685
C17 C 0.6192(7) 1.5769(9) 1.0602(8)
C18 C 0.5996(6) 1.4466(9) 0.8854(7)
H18 H 0.5867 1.4859 0.8115
H19 H 0.5508 1.3620 0.8883
C19 C 0.7252(5) 1.3975(8) 0.9045(5)
H20 H 0.7752 1.4728 0.8786
C20 C 0.7360(5) 1.2593(7) 0.8356(5)
H21 H 0.6826 1.1888 0.8625
C21 C 0.6981(5) 1.2808(7) 0.7145(5)
C22 C 0.7376(6) 1.3922(10) 0.6519(6)
H22 H 0.7916 1.4573 0.6840
C23 C 0.6966(10) 1.4073(12) 0.5408(8)
H23 H 0.7249 1.4809 0.4990
C24 C 0.6158(10) 1.3150(11) 0.4936(6)
C25 C 0.5768(7) 1.2023(11) 0.5531(7)
H24 H 0.5240 1.1366 0.5198
C26 C 0.6165(6) 1.1878(9) 0.6621(6)
H25 H 0.5878 1.1131 0.7025
loop_
_geom_bond_atom_site_label_1
_geom_bond_atom_site_label_2
_geom_bond_site_symmetry_1
_geom_bond_site_symmetry_2
S1 C7 1_555 1_555
N1 C5 1_555 1_555
Br1 C1 1_555 1_555
Br2 C24 1_555 1_555
O1 C8 1_555 1_555
O2 C9 1_555 1_555
O3 C9 1_555 1_555
O4 C17 1_555 1_555
O5 C17 1_555 1_555
C1 C2 1_555 1_555
C2 H1 1_555 1_555
C3 C2 1_555 1_555
H2 C3 1_555 1_555
C4 C3 1_555 1_555
H3 C4 1_555 1_555
C5 C4 1_555 1_555
C6 C1 1_555 1_555
C7 C6 1_555 1_555
C8 N1 1_555 1_555
C9 N1 1_555 1_555
C10 O3 1_555 1_555
C11 C10 1_555 1_555
H4 C11 1_555 1_555
H5 C11 1_555 1_555
H6 C11 1_555 1_555
C12 C10 1_555 1_555
H7 C12 1_555 1_555
H8 C12 1_555 1_555
H9 C12 1_555 1_555
C13 C10 1_555 1_555
H10 C13 1_555 1_555
H11 C13 1_555 1_555
H12 C13 1_555 1_555
C14 S1 1_555 1_555
H13 C14 1_555 1_555
H14 C14 1_555 1_555
C15 C14 1_555 1_555
H15 C15 1_555 1_555
C16 C15 1_555 1_555
H16 C16 1_555 1_555
H17 C16 1_555 1_555
C17 C16 1_555 1_555
C18 O4 1_555 1_555
H18 C18 1_555 1_555
H19 C18 1_555 1_555
C19 C15 1_555 1_555
H20 C19 1_555 1_555
C20 C7 1_555 1_555
H21 C20 1_555 1_555
C21 C20 1_555 1_555
C22 C21 1_555 1_555
H22 C22 1_555 1_555
C23 C22 1_555 1_555
H23 C23 1_555 1_555
C24 C23 1_555 1_555
C25 C24 1_555 1_555
H24 C25 1_555 1_555
C26 C21 1_555 1_555
H25 C26 1_555 1_555
C5 C6 1_555 1_555
C7 C8 1_555 1_555
C18 C19 1_555 1_555
C19 C20 1_555 1_555
C25 C26 1_555 1_555

#END
