
#######################################################################
#
#                 Cambridge Crystallographic Data Centre
#                                CCDC 
#
#######################################################################
#
# If this CIF has been generated from an entry in the Cambridge 
# Structural Database, then it will include bibliographic, chemical, 
# crystal, experimental, refinement or atomic coordinate data resulting 
# from the CCDC's data processing and validation procedures.
#
#######################################################################

data_WAGWIM
_chemical_name_common            
"m-bis((4,4'-(p-(diphenylamino)phenyl))-2,2'-difluoro-1,3,2-dioxaborine)benzene chloroform solvate"
_chemical_formula_moiety         'C48 H34 B2 F4 N2 O4,C1 H1 Cl3'
_chemical_name_systematic        
"(\m~2~-3,3'-benzene-1,3-diylbis(1-[4-(diphenylamino)phenyl]-3-oxoprop-1-en-1-olato))-tetrafluoro-di-boron chloroform solvate"
_symmetry_cell_setting           triclinic
_symmetry_space_group_name_H-M   'P -1'
_symmetry_Int_Tables_number      2
_space_group_name_Hall           '-P 1'
loop_
_symmetry_equiv_pos_site_id
_symmetry_equiv_pos_as_xyz
1 x,y,z
2 -x,-y,-z
_cell_length_a                   12.605(3)
_cell_length_b                   13.784(3)
_cell_length_c                   14.618(3)
_cell_angle_alpha                67.16(3)
_cell_angle_beta                 85.78(3)
_cell_angle_gamma                88.08(3)
_cell_volume                     2334.32
_exptl_crystal_description       block
_chemical_melting_point          'above 200 deg.C'
_cell_formula_units_Z            2
_exptl_crystal_recrystallization_method 'dichloromethane/light petroleum'
loop_
_atom_site_label
_atom_site_type_symbol
_atom_site_fract_x
_atom_site_fract_y
_atom_site_fract_z
F1 F -0.1853(5) 0.3550(5) 0.4970(4)
F2 F -0.1110(6) 0.2223(4) 0.4596(4)
F3 F 0.4845(7) 0.3357(5) 0.9697(5)
F4 F 0.5592(6) 0.3675(6) 0.8155(7)
O1 O -0.0410(6) 0.3898(5) 0.3848(5)
O2 O -0.0243(5) 0.2805(5) 0.5611(4)
O3 O 0.4535(5) 0.4953(5) 0.8417(5)
O4 O 0.3809(6) 0.3311(5) 0.8498(5)
N1 N 0.4032(7) 0.9897(6) 0.6477(6)
N2 N 0.1455(7) 0.7874(6) 0.0266(5)
C1 C 0.0009(13) 0.8907(13) -0.2033(11)
H1 H -0.0413 0.9482 -0.2376
C2 C 0.0361(10) 0.8753(9) -0.1102(8)
H2 H 0.0117 0.9196 -0.0786
C3 C 0.0336(15) 0.8121(18) -0.2444(10)
H3 H 0.0051 0.8146 -0.3022
C4 C 0.1038(15) 0.7372(14) -0.2000(12)
H4 H 0.1291 0.6933 -0.2316
C5 C 0.1408(11) 0.7223(12) -0.1081(9)
H5 H 0.1862 0.6667 -0.0760
C6 C 0.1058(8) 0.7962(8) -0.0652(7)
C7 C 0.2125(9) 0.8673(8) 0.0245(7)
C8 C 0.3058(10) 0.8896(11) -0.0351(9)
H6 H 0.3270 0.8509 -0.0732
C9 C 0.3694(12) 0.9754(14) -0.0363(12)
H7 H 0.4321 0.9934 -0.0766
C10 C 0.3375(15) 1.0312(10) 0.0226(14)
H8 H 0.3799 1.0845 0.0239
C11 C 0.2475(14) 1.0079(9) 0.0760(10)
H9 H 0.2258 1.0473 0.1132
C12 C 0.1834(10) 0.9277(9) 0.0796(8)
H10 H 0.1201 0.9137 0.1192
C13 C 0.1244(8) 0.6989(7) 0.1143(6)
C14 C 0.0376(9) 0.6354(7) 0.1213(7)
H11 H -0.0041 0.6500 0.0676
C15 C 0.0147(8) 0.5501(7) 0.2097(6)
H12 H -0.0409 0.5059 0.2132
C16 C 0.0729(7) 0.5282(6) 0.2945(6)
C17 C 0.1583(8) 0.5945(7) 0.2844(6)
H13 H 0.1989 0.5818 0.3385
C18 C 0.1840(8) 0.6784(7) 0.1963(6)
H14 H 0.2413 0.7213 0.1918
C19 C 0.0427(7) 0.4446(7) 0.3860(6)
C20 C 0.0932(7) 0.4186(7) 0.4731(6)
H15 H 0.1515 0.4576 0.4744
C21 C 0.0588(7) 0.3365(6) 0.5573(6)
C22 C 0.1131(7) 0.2982(6) 0.6527(6)
C23 C 0.0889(9) 0.2004(7) 0.7255(7)
H16 H 0.0377 0.1591 0.7154
C24 C 0.1392(10) 0.1642(8) 0.8113(8)
H17 H 0.1233 0.0976 0.8591
C25 C 0.2115(9) 0.2236(7) 0.8280(7)
H18 H 0.2447 0.1974 0.8877
C26 C 0.2385(7) 0.3241(7) 0.7578(6)
C27 C 0.1891(7) 0.3607(6) 0.6697(6)
H19 H 0.2060 0.4268 0.6214
C28 C 0.3174(7) 0.3873(6) 0.7794(6)
C29 C 0.3251(7) 0.4932(7) 0.7348(6)
H20 H 0.2860 0.5296 0.6801
C30 C 0.3921(7) 0.5493(7) 0.7705(6)
C31 C 0.3946(7) 0.6601(6) 0.7393(6)
C32 C 0.4480(8) 0.7078(8) 0.7921(7)
H21 H 0.4826 0.6661 0.8483
C33 C 0.4494(9) 0.8170(8) 0.7607(8)
H22 H 0.4842 0.8470 0.7971
C34 C 0.4004(8) 0.8816(7) 0.6770(7)
C35 C 0.3486(8) 0.8341(7) 0.6237(7)
H23 H 0.3154 0.8766 0.5669
C36 C 0.3453(8) 0.7276(7) 0.6525(7)
H24 H 0.3105 0.6988 0.6151
C37 C 0.3289(10) 1.0564(8) 0.5791(8)
C38 C 0.2220(10) 1.0330(9) 0.5963(11)
H25 H 0.1946 0.9760 0.6511
C39 C 0.1573(12) 1.1030(15) 0.5236(16)
H26 H 0.0846 1.0901 0.5310
C40 C 0.1938(16) 1.1860(12) 0.4452(12)
H27 H 0.1479 1.2281 0.3984
C41 C 0.2986(15) 1.2079(10) 0.4351(10)
H28 H 0.3238 1.2668 0.3811
C42 C 0.3686(11) 1.1482(7) 0.4999(8)
H29 H 0.4400 1.1666 0.4928
C43 C 0.4897(11) 1.0413(7) 0.6694(7)
C44 C 0.4721(14) 1.1146(9) 0.7080(9)
H30 H 0.4026 1.1298 0.7244
C45 C 0.556(2) 1.1685(13) 0.7239(13)
H31 H 0.5429 1.2173 0.7531
C46 C 0.653(3) 1.1486(14) 0.6965(14)
H32 H 0.7080 1.1892 0.7017
C47 C 0.6786(13) 1.0704(13) 0.6604(10)
H33 H 0.7487 1.0559 0.6451
C48 C 0.5945(11) 1.0154(9) 0.6482(9)
H34 H 0.6076 0.9611 0.6260
B1 B -0.0904(10) 0.3097(9) 0.4760(8)
B2 B 0.4721(11) 0.3798(9) 0.8717(10)
Cl1 Cl 0.2859(5) 0.4554(5) 0.1412(6)
Cl2 Cl 0.1795(6) 0.4251(7) -0.0068(6)
Cl3 Cl 0.2656(6) 0.2460(5) 0.1603(6)
C49 C 0.2739(16) 0.3778(14) 0.0801(13)
H35 H 0.3418 0.3838 0.0411
loop_
_geom_bond_atom_site_label_1
_geom_bond_atom_site_label_2
_geom_bond_site_symmetry_1
_geom_bond_site_symmetry_2
F1 B1 1_555 1_555
F2 B1 1_555 1_555
F3 B2 1_555 1_555
F4 B2 1_555 1_555
O1 C19 1_555 1_555
O2 C21 1_555 1_555
O3 C30 1_555 1_555
O4 C28 1_555 1_555
N1 C34 1_555 1_555
N2 C6 1_555 1_555
C1 H1 1_555 1_555
C2 C1 1_555 1_555
H2 C2 1_555 1_555
C3 C1 1_555 1_555
H3 C3 1_555 1_555
C4 C3 1_555 1_555
H4 C4 1_555 1_555
C5 C4 1_555 1_555
H5 C5 1_555 1_555
C6 C2 1_555 1_555
C7 N2 1_555 1_555
C8 C7 1_555 1_555
H6 C8 1_555 1_555
C9 C8 1_555 1_555
H7 C9 1_555 1_555
C10 C9 1_555 1_555
H8 C10 1_555 1_555
C11 C10 1_555 1_555
H9 C11 1_555 1_555
C12 C7 1_555 1_555
H10 C12 1_555 1_555
C13 N2 1_555 1_555
C14 C13 1_555 1_555
H11 C14 1_555 1_555
C15 C14 1_555 1_555
H12 C15 1_555 1_555
C16 C15 1_555 1_555
C17 C16 1_555 1_555
H13 C17 1_555 1_555
C18 C13 1_555 1_555
H14 C18 1_555 1_555
C19 C16 1_555 1_555
C20 C19 1_555 1_555
H15 C20 1_555 1_555
C21 C20 1_555 1_555
C22 C21 1_555 1_555
C23 C22 1_555 1_555
H16 C23 1_555 1_555
C24 C23 1_555 1_555
H17 C24 1_555 1_555
C25 C24 1_555 1_555
H18 C25 1_555 1_555
C26 C25 1_555 1_555
C27 C22 1_555 1_555
H19 C27 1_555 1_555
C28 C26 1_555 1_555
C29 C28 1_555 1_555
H20 C29 1_555 1_555
C30 C29 1_555 1_555
C31 C30 1_555 1_555
C32 C31 1_555 1_555
H21 C32 1_555 1_555
C33 C32 1_555 1_555
H22 C33 1_555 1_555
C34 C33 1_555 1_555
C35 C34 1_555 1_555
H23 C35 1_555 1_555
C36 C31 1_555 1_555
H24 C36 1_555 1_555
C37 N1 1_555 1_555
C38 C37 1_555 1_555
H25 C38 1_555 1_555
C39 C38 1_555 1_555
H26 C39 1_555 1_555
C40 C39 1_555 1_555
H27 C40 1_555 1_555
C41 C40 1_555 1_555
H28 C41 1_555 1_555
C42 C37 1_555 1_555
H29 C42 1_555 1_555
C43 N1 1_555 1_555
C44 C43 1_555 1_555
H30 C44 1_555 1_555
C45 C44 1_555 1_555
H31 C45 1_555 1_555
C46 C45 1_555 1_555
H32 C46 1_555 1_555
C47 C46 1_555 1_555
H33 C47 1_555 1_555
C48 C43 1_555 1_555
H34 C48 1_555 1_555
B1 O1 1_555 1_555
B2 O3 1_555 1_555
Cl1 C49 1_555 1_555
Cl2 C49 1_555 1_555
Cl3 C49 1_555 1_555
C49 H35 1_555 1_555
O2 B1 1_555 1_555
O4 B2 1_555 1_555
C5 C6 1_555 1_555
C11 C12 1_555 1_555
C17 C18 1_555 1_555
C26 C27 1_555 1_555
C35 C36 1_555 1_555
C41 C42 1_555 1_555
C47 C48 1_555 1_555

#END
