
#######################################################################
#
#                 Cambridge Crystallographic Data Centre
#                                CCDC 
#
#######################################################################
#
# If this CIF has been generated from an entry in the Cambridge 
# Structural Database, then it will include bibliographic, chemical, 
# crystal, experimental, refinement or atomic coordinate data resulting 
# from the CCDC's data processing and validation procedures.
#
#######################################################################

data_WAGYIO
_chemical_formula_moiety         'C18 H18 N2 O5'
_chemical_name_systematic        
'Ethyl 11-hydroxy-12,16-dioxo-3,13-diazatetracyclo[11.3.1.0^2,10^.0^4,9^]heptadeca-2(10),4,6,8-tetraene-3-carboxylate'
_symmetry_cell_setting           monoclinic
_symmetry_space_group_name_H-M   'P 21/c'
_symmetry_Int_Tables_number      14
_space_group_name_Hall           '-P 2ybc'
loop_
_symmetry_equiv_pos_site_id
_symmetry_equiv_pos_as_xyz
1 x,y,z
2 -x,1/2+y,1/2-z
3 -x,-y,-z
4 x,1/2-y,1/2+z
_cell_length_a                   11.549(2)
_cell_length_b                   14.458(3)
_cell_length_c                   9.7091(17)
_cell_angle_alpha                90
_cell_angle_beta                 100.904(3)
_cell_angle_gamma                90
_cell_volume                     1591.91
_exptl_crystal_colour            colorless
_exptl_crystal_description       prismatic
_cell_formula_units_Z            4
loop_
_atom_site_label
_atom_site_type_symbol
_atom_site_fract_x
_atom_site_fract_y
_atom_site_fract_z
N1 N 0.1010(3) 0.0699(2) 0.4574(4)
N2 N 0.3538(2) 0.2811(2) 0.6319(3)
O1 O 0.0214(2) 0.1437(2) 0.2572(3)
O2 O -0.0357(2) 0.2194(2) 0.5659(3)
H1 H -0.0190 0.2565 0.6305
O3 O 0.4689(3) 0.2016(3) 0.8102(5)
O4 O 0.5441(2) 0.3150(2) 0.6993(3)
O5 O 0.4389(7) 0.1055(6) 0.5102(18)
C1 C 0.0511(3) 0.1442(3) 0.3861(5)
C2 C 0.0401(3) 0.2329(3) 0.4689(5)
H2 H 0.0029 0.2794 0.4013
C3 C 0.1626(3) 0.2686(3) 0.5317(4)
C4 C 0.2570(3) 0.2210(3) 0.6023(4)
C5 C 0.2683(4) 0.1195(3) 0.6372(5)
H3 H 0.3033 0.1121 0.7367
C6 C 0.1468(3) 0.0738(3) 0.6077(5)
H4 H 0.1526 0.0116 0.6460
H5 H 0.0930 0.1087 0.6533
C7 C 0.1646(4) 0.0046(3) 0.3846(6)
H6 H 0.1361 0.0081 0.2841
H7 H 0.1535 -0.0580 0.4153
C8 C 0.2950(5) 0.0314(6) 0.4206(7)
H8 H 0.3398 -0.0242 0.4107
H9 H 0.3092 0.0738 0.3481
C9 C 0.3455(4) 0.0710(4) 0.5485(8)
C10 C 0.1985(3) 0.3626(3) 0.5175(4)
C11 C 0.3175(3) 0.3698(3) 0.5771(4)
C12 C 0.3794(3) 0.4526(3) 0.5801(5)
H10 H 0.4592 0.4562 0.6195
C13 C 0.3178(4) 0.5284(3) 0.5227(5)
H11 H 0.3569 0.5846 0.5229
C14 C 0.1980(4) 0.5238(3) 0.4637(5)
H12 H 0.1585 0.5768 0.4265
C15 C 0.1378(3) 0.4415(3) 0.4600(4)
H13 H 0.0581 0.4383 0.4199
C16 C 0.4596(4) 0.2608(3) 0.7236(6)
C17 C 0.6593(4) 0.3037(4) 0.7962(6)
H14 H 0.7030 0.3614 0.8030
H15 H 0.6467 0.2873 0.8891
C18 C 0.7260(5) 0.2308(5) 0.7418(8)
H16 H 0.6823 0.1739 0.7358
H17 H 0.8006 0.2227 0.8036
H18 H 0.7387 0.2478 0.6502
O6? O 0.4329(7) 0.0332(9) 0.6306(8)
loop_
_geom_bond_atom_site_label_1
_geom_bond_atom_site_label_2
_geom_bond_site_symmetry_1
_geom_bond_site_symmetry_2
N1 C1 1_555 1_555
N2 C4 1_555 1_555
O1 C1 1_555 1_555
O2 H1 1_555 1_555
O3 C16 1_555 1_555
O4 C16 1_555 1_555
O5 C9 1_555 1_555
C1 C2 1_555 1_555
C2 O2 1_555 1_555
H2 C2 1_555 1_555
C3 C2 1_555 1_555
C4 C3 1_555 1_555
C5 C4 1_555 1_555
H3 C5 1_555 1_555
C6 N1 1_555 1_555
H4 C6 1_555 1_555
H5 C6 1_555 1_555
C7 N1 1_555 1_555
H6 C7 1_555 1_555
H7 C7 1_555 1_555
C8 C7 1_555 1_555
H8 C8 1_555 1_555
H9 C8 1_555 1_555
C9 C5 1_555 1_555
C10 C3 1_555 1_555
C11 N2 1_555 1_555
C12 C11 1_555 1_555
H10 C12 1_555 1_555
C13 C12 1_555 1_555
H11 C13 1_555 1_555
C14 C13 1_555 1_555
H12 C14 1_555 1_555
C15 C10 1_555 1_555
H13 C15 1_555 1_555
C16 N2 1_555 1_555
C17 O4 1_555 1_555
H14 C17 1_555 1_555
H15 C17 1_555 1_555
C18 C17 1_555 1_555
H16 C18 1_555 1_555
H17 C18 1_555 1_555
H18 C18 1_555 1_555
C5 C6 1_555 1_555
C8 C9 1_555 1_555
C10 C11 1_555 1_555
C14 C15 1_555 1_555

#END
