
#######################################################################
#
#                 Cambridge Crystallographic Data Centre
#                                CCDC 
#
#######################################################################
#
# If this CIF has been generated from an entry in the Cambridge 
# Structural Database, then it will include bibliographic, chemical, 
# crystal, experimental, refinement or atomic coordinate data resulting 
# from the CCDC's data processing and validation procedures.
#
#######################################################################

data_WAHCUF
_chemical_formula_moiety         'C14 H14 N4 O3,2.5(H2 O1)'
_chemical_name_systematic        
"N'-(E)-(3,4-Dimethoxybenzylidene)-2-pyrazinecarbohydrazide hydrate"
_symmetry_cell_setting           triclinic
_symmetry_space_group_name_H-M   'P -1'
_symmetry_Int_Tables_number      2
_space_group_name_Hall           '-P 1'
loop_
_symmetry_equiv_pos_site_id
_symmetry_equiv_pos_as_xyz
1 x,y,z
2 -x,-y,-z
_cell_length_a                   10.8238(3)
_cell_length_b                   12.5985(4)
_cell_length_c                   13.5130(3)
_cell_angle_alpha                65.4626(14)
_cell_angle_beta                 69.3148(16)
_cell_angle_gamma                77.7125(14)
_cell_volume                     1563.47
_exptl_crystal_colour            colorless
_exptl_crystal_description       block
_chemical_melting_point          '461-463 K'
_cell_formula_units_Z            4
_exptl_crystal_recrystallization_method ethanol
loop_
_atom_site_label
_atom_site_type_symbol
_atom_site_fract_x
_atom_site_fract_y
_atom_site_fract_z
O1 O 0.81530(15) 0.51921(13) 0.24612(13)
O2 O 0.24135(15) 0.89289(13) 0.30409(14)
O3 O 0.00579(14) 0.82544(13) 0.42594(14)
N1 N 1.07159(18) 0.21543(17) 0.27478(16)
N2 N 0.79766(18) 0.21023(16) 0.37925(16)
N3 N 0.63925(17) 0.40808(15) 0.35582(15)
H1 H 0.6115 0.3372 0.3919
N4 N 0.55066(17) 0.50519(15) 0.35390(15)
C1 C 0.8552(2) 0.31132(18) 0.31499(17)
C2 C 0.9914(2) 0.31385(19) 0.26445(18)
H2 H 1.0285 0.3873 0.2214
C3 C 1.0138(2) 0.1146(2) 0.3372(2)
H3 H 1.0668 0.0427 0.3455
C4 C 0.8785(2) 0.1129(2) 0.3898(2)
H4 H 0.8418 0.0395 0.4352
C5 C 0.7693(2) 0.42379(19) 0.30134(17)
C6 C 0.4293(2) 0.48174(18) 0.40429(17)
H5 H 0.4091 0.4022 0.4384
C7 C 0.3212(2) 0.57229(18) 0.41136(17)
C8 C 0.3401(2) 0.69260(18) 0.35271(17)
H6 H 0.4265 0.7171 0.3081
C9 C 0.2342(2) 0.77472(18) 0.35979(18)
C10 C 0.1052(2) 0.73812(18) 0.42607(18)
C11 C 0.0871(2) 0.62028(19) 0.48483(18)
H7 H 0.0011 0.5954 0.5307
C12 C 0.1949(2) 0.53791(18) 0.47682(18)
H8 H 0.1817 0.4570 0.5169
C13 C 0.3683(2) 0.9322(2) 0.2287(2)
H9 H 0.4320 0.9077 0.2722
H10 H 0.3612 1.0177 0.1924
H11 H 0.3985 0.8980 0.1701
C14 C -0.1268(2) 0.7890(2) 0.4781(2)
H12 H -0.1399 0.7401 0.4426
H13 H -0.1902 0.8580 0.4676
H14 H -0.1407 0.7439 0.5597
O4 O 0.22214(15) 0.44318(13) 0.24978(14)
O5 O 0.81565(15) 0.07608(13) 0.17220(14)
O6 O 1.04687(14) 0.15211(13) 0.05357(13)
N5 N -0.03558(18) 0.74315(17) 0.22726(16)
N6 N 0.23824(18) 0.75323(15) 0.12171(15)
N7 N 0.39976(17) 0.55230(15) 0.14458(15)
H15 H 0.4279 0.6230 0.1096
N8 N 0.48935(17) 0.45561(15) 0.14613(15)
C15 C 0.1830(2) 0.65108(18) 0.18403(17)
C16 C 0.0470(2) 0.64578(19) 0.23570(18)
H16 H 0.0116 0.5715 0.2780
C17 C 0.0200(2) 0.8449(2) 0.16686(19)
H17 H -0.0347 0.9159 0.1601
C18 C 0.1555(2) 0.8497(2) 0.11370(19)
H18 H 0.1905 0.9240 0.0702
C19 C 0.2697(2) 0.53845(18) 0.19642(17)
C20 C 0.6097(2) 0.48126(19) 0.09344(18)
H19 H 0.6273 0.5615 0.0590
C21 C 0.7210(2) 0.39389(18) 0.08355(17)
C22 C 0.7077(2) 0.27280(19) 0.13771(18)
H20 H 0.6230 0.2446 0.1832
C23 C 0.8176(2) 0.19472(18) 0.12492(18)
C24 C 0.9445(2) 0.23610(19) 0.05890(17)
C25 C 0.9568(2) 0.35522(19) 0.00403(18)
H21 H 1.0410 0.3837 -0.0426
C26 C 0.8456(2) 0.43369(19) 0.01701(18)
H22 H 0.8550 0.5154 -0.0201
C27 C 0.6901(2) 0.0312(2) 0.2432(3)
H23 H 0.6570 0.0579 0.3072
H24 H 0.7001 -0.0546 0.2725
H25 H 0.6272 0.0593 0.1987
C28 C 1.1780(2) 0.1930(2) -0.0012(2)
H26 H 1.1877 0.2413 -0.0817
H27 H 1.2439 0.1257 0.0045
H28 H 1.1914 0.2397 0.0363
O7 O 0.67405(16) 0.72485(15) 0.32017(15)
H29 H 0.655(3) 0.6619(14) 0.322(2)
H30 H 0.7575(5) 0.725(3) 0.290(2)
O8 O 0.51684(16) 0.81369(15) 0.49046(14)
H31 H 0.464(2) 0.8721(16) 0.467(2)
H32 H 0.562(2) 0.792(2) 0.4355(17)
O9 O 0.39350(17) 0.04870(15) 0.42202(15)
H33 H 0.416(3) 0.090(2) 0.448(2)
H34 H 0.377(3) 0.098(2) 0.3616(15)
O10 O 0.35129(16) 0.22669(14) 0.21590(15)
H35 H 0.2688(7) 0.225(3) 0.229(3)
H36 H 0.363(3) 0.2927(12) 0.213(3)
O11 O 0.5200(2) 0.78476(19) -0.00116(18)
H37 H 0.4366(6) 0.800(3) 0.012(3)
H38 H 0.553(3) 0.784(3) -0.0683(12)
loop_
_geom_bond_atom_site_label_1
_geom_bond_atom_site_label_2
_geom_bond_site_symmetry_1
_geom_bond_site_symmetry_2
O1 C5 1_555 1_555
O2 C9 1_555 1_555
O3 C10 1_555 1_555
N1 C2 1_555 1_555
N2 C1 1_555 1_555
N3 H1 1_555 1_555
N4 N3 1_555 1_555
C1 C2 1_555 1_555
C2 H2 1_555 1_555
C3 N1 1_555 1_555
H3 C3 1_555 1_555
C4 N2 1_555 1_555
H4 C4 1_555 1_555
C5 N3 1_555 1_555
C6 N4 1_555 1_555
H5 C6 1_555 1_555
C7 C6 1_555 1_555
C8 C7 1_555 1_555
H6 C8 1_555 1_555
C9 C8 1_555 1_555
C10 C9 1_555 1_555
C11 C10 1_555 1_555
H7 C11 1_555 1_555
C12 C7 1_555 1_555
H8 C12 1_555 1_555
C13 O2 1_555 1_555
H9 C13 1_555 1_555
H10 C13 1_555 1_555
H11 C13 1_555 1_555
C14 O3 1_555 1_555
H12 C14 1_555 1_555
H13 C14 1_555 1_555
H14 C14 1_555 1_555
O4 C19 1_555 1_555
O5 C23 1_555 1_555
O6 C24 1_555 1_555
N5 C16 1_555 1_555
N6 C15 1_555 1_555
N7 H15 1_555 1_555
N8 N7 1_555 1_555
C15 C16 1_555 1_555
C16 H16 1_555 1_555
C17 N5 1_555 1_555
H17 C17 1_555 1_555
C18 N6 1_555 1_555
H18 C18 1_555 1_555
C19 N7 1_555 1_555
C20 N8 1_555 1_555
H19 C20 1_555 1_555
C21 C20 1_555 1_555
C22 C21 1_555 1_555
H20 C22 1_555 1_555
C23 C22 1_555 1_555
C24 C23 1_555 1_555
C25 C24 1_555 1_555
H21 C25 1_555 1_555
C26 C21 1_555 1_555
H22 C26 1_555 1_555
C27 O5 1_555 1_555
H23 C27 1_555 1_555
H24 C27 1_555 1_555
H25 C27 1_555 1_555
C28 O6 1_555 1_555
H26 C28 1_555 1_555
H27 C28 1_555 1_555
H28 C28 1_555 1_555
O7 H29 1_555 1_555
H30 O7 1_555 1_555
O8 H31 1_555 1_555
H32 O8 1_555 1_555
O9 H33 1_555 1_555
H34 O9 1_555 1_555
O10 H35 1_555 1_555
H36 O10 1_555 1_555
O11 H37 1_555 1_555
H38 O11 1_555 1_555
C1 C5 1_555 1_555
C3 C4 1_555 1_555
C11 C12 1_555 1_555
C15 C19 1_555 1_555
C17 C18 1_555 1_555
C25 C26 1_555 1_555

#END
