
#######################################################################
#
#                 Cambridge Crystallographic Data Centre
#                                CCDC 
#
#######################################################################
#
# If this CIF has been generated from an entry in the Cambridge 
# Structural Database, then it will include bibliographic, chemical, 
# crystal, experimental, refinement or atomic coordinate data resulting 
# from the CCDC's data processing and validation procedures.
#
#######################################################################

data_WAHCAK
_chemical_formula_moiety         'C11 H20 N4 O2,H2 O1'
_chemical_name_systematic        
'(12S)-1,4,7,10-Tetra-azabicyclo(10.3.0)pentadecane-3,11-dione monohydrate'
_symmetry_cell_setting           orthorhombic
_symmetry_space_group_name_H-M   'P 21 21 21'
_symmetry_Int_Tables_number      19
_space_group_name_Hall           'P 2ac 2ab'
loop_
_symmetry_equiv_pos_site_id
_symmetry_equiv_pos_as_xyz
1 x,y,z
2 1/2-x,-y,1/2+z
3 -x,1/2+y,1/2-z
4 1/2+x,1/2-y,-z
_cell_length_a                   5.1019(8)
_cell_length_b                   12.6981(18)
_cell_length_c                   20.130(3)
_cell_angle_alpha                90
_cell_angle_beta                 90
_cell_angle_gamma                90
_cell_volume                     1304.11
_cell_formula_units_Z            4
loop_
_atom_site_label
_atom_site_type_symbol
_atom_site_fract_x
_atom_site_fract_y
_atom_site_fract_z
C1 C 0.1442(12) 0.1928(4) 0.2549(3)
H1 H 0.2758 0.2357 0.2767
H2 H -0.0248 0.2260 0.2619
C2 C 0.2014(13) 0.1900(4) 0.1811(3)
C3 C 0.0127(12) 0.1881(4) 0.0688(2)
H3 H 0.1962 0.1833 0.0565
H4 H -0.0556 0.2534 0.0508
C4 C -0.1348(13) 0.0962(4) 0.0379(2)
H5 H -0.3206 0.1123 0.0394
H6 H -0.0856 0.0920 -0.0086
C5 C 0.1724(11) -0.0445(4) 0.0698(3)
H7 H 0.2903 0.0149 0.0749
H8 H 0.2154 -0.0799 0.0286
C6 C 0.2105(11) -0.1200(4) 0.1274(2)
H9 H 0.0715 -0.1721 0.1270
H10 H 0.3760 -0.1566 0.1221
C7 C 0.4270(12) -0.0326(4) 0.2194(3)
C8 C 0.3933(11) 0.0322(4) 0.2825(2)
H11 H 0.5367 0.0833 0.2856
C9 C 0.3952(13) -0.0385(5) 0.3453(3)
H12 H 0.4134 -0.1121 0.3334
H13 H 0.5375 -0.0191 0.3748
C10 C 0.1327(13) -0.0180(5) 0.3775(3)
H14 H 0.0015 -0.0673 0.3618
H15 H 0.1447 -0.0229 0.4255
C11 C 0.0692(13) 0.0921(5) 0.3562(2)
H16 H -0.1154 0.1077 0.3621
H17 H 0.1730 0.1434 0.3803
N1 N 0.1415(9) 0.0887(3) 0.28518(19)
N2 N -0.0084(9) 0.1906(3) 0.1413(2)
H18 H -0.1617 0.1926 0.1590
N3 N -0.0969(9) -0.0066(3) 0.0670(2)
H19 H -0.2258 -0.0434 0.0818
N4 N 0.2091(9) -0.0655(3) 0.1906(2)
H20 H 0.0617 -0.0542 0.2101
O1 O 0.4270(8) 0.1882(3) 0.16039(19)
O2 O 0.6487(7) -0.0556(3) 0.19984(18)
O3 O -0.2855(10) -0.1960(4) 0.0008(3)
H21 H -0.105(8) -0.218(7) -0.012(5)
H22 H -0.210(13) -0.131(3) 0.019(3)
loop_
_geom_bond_atom_site_label_1
_geom_bond_atom_site_label_2
_geom_bond_site_symmetry_1
_geom_bond_site_symmetry_2
C1 H1 1_555 1_555
H2 C1 1_555 1_555
C2 C1 1_555 1_555
C3 H3 1_555 1_555
H4 C3 1_555 1_555
C4 C3 1_555 1_555
H5 C4 1_555 1_555
H6 C4 1_555 1_555
C5 H7 1_555 1_555
H8 C5 1_555 1_555
C6 C5 1_555 1_555
H9 C6 1_555 1_555
H10 C6 1_555 1_555
C7 C8 1_555 1_555
C8 H11 1_555 1_555
C9 C8 1_555 1_555
H12 C9 1_555 1_555
H13 C9 1_555 1_555
C10 C9 1_555 1_555
H14 C10 1_555 1_555
H15 C10 1_555 1_555
C11 C10 1_555 1_555
H16 C11 1_555 1_555
H17 C11 1_555 1_555
N1 C1 1_555 1_555
N2 C2 1_555 1_555
H18 N2 1_555 1_555
N3 C4 1_555 1_555
H19 N3 1_555 1_555
N4 C6 1_555 1_555
H20 N4 1_555 1_555
O1 C2 1_555 1_555
O2 C7 1_555 1_555
O3 H21 1_555 1_555
H22 O3 1_555 1_555
C3 N2 1_555 1_555
C5 N3 1_555 1_555
C7 N4 1_555 1_555
C8 N1 1_555 1_555
C11 N1 1_555 1_555

#END
