
#######################################################################
#
#                 Cambridge Crystallographic Data Centre
#                                CCDC 
#
#######################################################################
#
# If this CIF has been generated from an entry in the Cambridge 
# Structural Database, then it will include bibliographic, chemical, 
# crystal, experimental, refinement or atomic coordinate data resulting 
# from the CCDC's data processing and validation procedures.
#
#######################################################################

data_WAHDUG
_chemical_name_common            
(E)-4-(2-Benzylidenehydrazino)-7-chloroquinoline
_chemical_formula_moiety         'C16 H12 Cl1 N3'
_chemical_name_systematic        
7-Chloro-4-((E)-2-(benzylidene)hydrazin-1-yl)quinoline
_symmetry_cell_setting           orthorhombic
_symmetry_space_group_name_H-M   'I b c a'
_symmetry_Int_Tables_number      73
_space_group_name_Hall           '-I 2b 2c'
loop_
_symmetry_equiv_pos_site_id
_symmetry_equiv_pos_as_xyz
1 x,y,z
2 1/2-x,-y,1/2+z
3 -x,1/2+y,1/2-z
4 1/2+x,1/2-y,-z
5 1/2+x,1/2+y,1/2+z
6 -x,1/2-y,z
7 1/2-x,y,-z
8 x,-y,1/2-z
9 -x,-y,-z
10 1/2+x,y,1/2-z
11 x,1/2-y,1/2+z
12 1/2-x,1/2+y,z
13 1/2-x,1/2-y,1/2-z
14 x,1/2+y,-z
15 1/2+x,-y,z
16 -x,y,1/2+z
_cell_length_a                   12.8729(2)
_cell_length_b                   17.4082(2)
_cell_length_c                   24.3484(3)
_cell_angle_alpha                90
_cell_angle_beta                 90
_cell_angle_gamma                90
_cell_volume                     5456.33
_exptl_crystal_colour            'pale yellow'
_exptl_crystal_description       needle
_chemical_melting_point          '223-225 deg.C'
_cell_formula_units_Z            16
_exptl_crystal_recrystallization_method ethanol
loop_
_atom_site_label
_atom_site_type_symbol
_atom_site_fract_x
_atom_site_fract_y
_atom_site_fract_z
Cl1 Cl 0.22586(3) 0.20858(2) 0.418789(15)
N1 N 0.08106(9) 0.37450(7) 0.26655(5)
N2 N 0.37240(9) 0.41111(7) 0.19266(5)
H1 H 0.4281 0.3858 0.2032
N3 N 0.37674(10) 0.46477(7) 0.15116(5)
C1 C 0.09390(11) 0.41573(8) 0.22137(6)
H2 H 0.0334 0.4375 0.2054
C2 C 0.18767(12) 0.42997(8) 0.19531(6)
H3 H 0.1900 0.4608 0.1631
C3 C 0.27810(11) 0.39866(8) 0.21681(6)
C4 C 0.26949(10) 0.35178(8) 0.26517(5)
C5 C 0.35428(11) 0.31359(8) 0.29030(6)
H4 H 0.4215 0.3181 0.2746
C6 C 0.34133(11) 0.27028(8) 0.33682(6)
H5 H 0.3990 0.2452 0.3533
C7 C 0.24153(12) 0.26346(8) 0.35980(6)
C8 C 0.15730(11) 0.29813(8) 0.33662(6)
H6 H 0.0907 0.2923 0.3529
C9 C 0.16895(11) 0.34278(8) 0.28840(6)
C10 C 0.46354(12) 0.47245(8) 0.12623(6)
H7 H 0.5199 0.4396 0.1352
C11 C 0.47679(12) 0.53149(8) 0.08390(6)
C12 C 0.57095(13) 0.53589(9) 0.05584(6)
H8 H 0.6257 0.5015 0.0648
C13 C 0.58526(14) 0.59033(10) 0.01476(6)
H9 H 0.6493 0.5926 -0.0045
C14 C 0.50666(16) 0.64097(9) 0.00201(7)
H10 H 0.5166 0.6783 -0.0260
C15 C 0.41338(17) 0.63746(10) 0.03000(8)
H11 H 0.3593 0.6725 0.0212
C16 C 0.39807(15) 0.58305(9) 0.07087(7)
H12 H 0.3338 0.5810 0.0899
loop_
_geom_bond_atom_site_label_1
_geom_bond_atom_site_label_2
_geom_bond_site_symmetry_1
_geom_bond_site_symmetry_2
Cl1 C7 1_555 1_555
N1 C1 1_555 1_555
N2 H1 1_555 1_555
N3 N2 1_555 1_555
C1 H2 1_555 1_555
C2 C1 1_555 1_555
H3 C2 1_555 1_555
C3 N2 1_555 1_555
C4 C3 1_555 1_555
C5 C4 1_555 1_555
H4 C5 1_555 1_555
C6 C5 1_555 1_555
H5 C6 1_555 1_555
C7 C6 1_555 1_555
C8 C7 1_555 1_555
H6 C8 1_555 1_555
C9 N1 1_555 1_555
C10 N3 1_555 1_555
H7 C10 1_555 1_555
C11 C10 1_555 1_555
C12 C11 1_555 1_555
H8 C12 1_555 1_555
C13 C12 1_555 1_555
H9 C13 1_555 1_555
C14 C13 1_555 1_555
H10 C14 1_555 1_555
C15 C14 1_555 1_555
H11 C15 1_555 1_555
C16 C11 1_555 1_555
H12 C16 1_555 1_555
C2 C3 1_555 1_555
C4 C9 1_555 1_555
C8 C9 1_555 1_555
C15 C16 1_555 1_555

#END
