
#######################################################################
#
#                 Cambridge Crystallographic Data Centre
#                                CCDC 
#
#######################################################################
#
# If this CIF has been generated from an entry in the Cambridge 
# Structural Database, then it will include bibliographic, chemical, 
# crystal, experimental, refinement or atomic coordinate data resulting 
# from the CCDC's data processing and validation procedures.
#
#######################################################################

data_WAHFAO
_chemical_formula_moiety         'C16 H11 Cl1 F1 N3'
_chemical_name_systematic        
7-Chloro-4-((E)-2-(2-fluorobenzylidene)hydrazin-1-yl)quinoline
_symmetry_cell_setting           orthorhombic
_symmetry_space_group_name_H-M   'I b c a'
_symmetry_Int_Tables_number      73
_space_group_name_Hall           '-I 2b 2c'
loop_
_symmetry_equiv_pos_site_id
_symmetry_equiv_pos_as_xyz
1 x,y,z
2 1/2-x,-y,1/2+z
3 -x,1/2+y,1/2-z
4 1/2+x,1/2-y,-z
5 1/2+x,1/2+y,1/2+z
6 -x,1/2-y,z
7 1/2-x,y,-z
8 x,-y,1/2-z
9 -x,-y,-z
10 1/2+x,y,1/2-z
11 x,1/2-y,1/2+z
12 1/2-x,1/2+y,z
13 1/2-x,1/2-y,1/2-z
14 x,1/2+y,-z
15 1/2+x,-y,z
16 -x,y,1/2+z
_cell_length_a                   12.9672(3)
_cell_length_b                   17.0092(3)
_cell_length_c                   24.7436(8)
_cell_angle_alpha                90
_cell_angle_beta                 90
_cell_angle_gamma                90
_cell_volume                     5457.49
_exptl_crystal_colour            yellow
_exptl_crystal_description       block
_chemical_melting_point          '234-236 deg.C'
_cell_formula_units_Z            16
_exptl_crystal_recrystallization_method ethanol
loop_
_atom_site_label
_atom_site_type_symbol
_atom_site_fract_x
_atom_site_fract_y
_atom_site_fract_z
Cl1 Cl 0.22647(4) 0.20831(3) 0.418114(17)
F1 F 0.65148(8) 0.48603(7) 0.06996(4)
N1 N 0.08542(10) 0.37389(8) 0.26515(6)
N2 N 0.37708(10) 0.41145(8) 0.19444(5)
H1 H 0.4324 0.3866 0.2059
N3 N 0.38203(11) 0.46440(8) 0.15266(6)
C1 C 0.09935(12) 0.41577(9) 0.22050(7)
H2 H 0.0396 0.4378 0.2042
C2 C 0.19311(13) 0.43034(9) 0.19551(7)
H3 H 0.1962 0.4614 0.1637
C3 C 0.28260(12) 0.39887(9) 0.21761(6)
C4 C 0.27311(11) 0.35187(9) 0.26564(6)
C5 C 0.35681(12) 0.31418(9) 0.29164(7)
H4 H 0.4240 0.3190 0.2767
C6 C 0.34329(12) 0.27076(9) 0.33791(7)
H5 H 0.4004 0.2462 0.3550
C7 C 0.24329(13) 0.26332(9) 0.35953(6)
C8 C 0.15979(12) 0.29771(9) 0.33554(7)
H6 H 0.0932 0.2916 0.3509
C9 C 0.17245(12) 0.34241(9) 0.28783(7)
C10 C 0.46925(12) 0.47121(9) 0.12845(7)
H7 H 0.5255 0.4384 0.1382
C11 C 0.48136(13) 0.53000(9) 0.08566(6)
C12 C 0.57325(13) 0.53550(10) 0.05685(7)
C13 C 0.58827(14) 0.58790(10) 0.01508(7)
H8 H 0.6519 0.5893 -0.0039
C14 C 0.50879(16) 0.63828(10) 0.00144(8)
H9 H 0.5177 0.6749 -0.0272
C15 C 0.41593(16) 0.63569(10) 0.02936(8)
H10 H 0.3617 0.6707 0.0200
C16 C 0.40226(14) 0.58186(10) 0.07103(7)
H11 H 0.3384 0.5802 0.0898
loop_
_geom_bond_atom_site_label_1
_geom_bond_atom_site_label_2
_geom_bond_site_symmetry_1
_geom_bond_site_symmetry_2
Cl1 C7 1_555 1_555
F1 C12 1_555 1_555
N1 C1 1_555 1_555
N2 H1 1_555 1_555
N3 N2 1_555 1_555
C1 H2 1_555 1_555
C2 C1 1_555 1_555
H3 C2 1_555 1_555
C3 N2 1_555 1_555
C4 C3 1_555 1_555
C5 C4 1_555 1_555
H4 C5 1_555 1_555
C6 C5 1_555 1_555
H5 C6 1_555 1_555
C7 C6 1_555 1_555
C8 C7 1_555 1_555
H6 C8 1_555 1_555
C9 N1 1_555 1_555
C10 N3 1_555 1_555
H7 C10 1_555 1_555
C11 C10 1_555 1_555
C12 C11 1_555 1_555
C13 C12 1_555 1_555
H8 C13 1_555 1_555
C14 C13 1_555 1_555
H9 C14 1_555 1_555
C15 C14 1_555 1_555
H10 C15 1_555 1_555
C16 C11 1_555 1_555
H11 C16 1_555 1_555
C2 C3 1_555 1_555
C4 C9 1_555 1_555
C8 C9 1_555 1_555
C15 C16 1_555 1_555

#END
