
#######################################################################
#
#                 Cambridge Crystallographic Data Centre
#                                CCDC 
#
#######################################################################
#
# If this CIF has been generated from an entry in the Cambridge 
# Structural Database, then it will include bibliographic, chemical, 
# crystal, experimental, refinement or atomic coordinate data resulting 
# from the CCDC's data processing and validation procedures.
#
#######################################################################

data_WAHFER
_chemical_formula_moiety         'C36 H33 N3 O4'
_chemical_name_systematic        
'7-(Benzylcarbamoyl)-3-phenyl-1-oxa-2,8-diazaspiro(4.5)dec-2-ene-8-carboxylic acid 9H-fluorene-9-ylmethyl ester'
_symmetry_cell_setting           triclinic
_symmetry_space_group_name_H-M   'P -1'
_symmetry_Int_Tables_number      2
_space_group_name_Hall           '-P 1'
loop_
_symmetry_equiv_pos_site_id
_symmetry_equiv_pos_as_xyz
1 x,y,z
2 -x,-y,-z
_cell_length_a                   9.2860(11)
_cell_length_b                   9.9036(12)
_cell_length_c                   17.026(2)
_cell_angle_alpha                86.919(2)
_cell_angle_beta                 78.776(2)
_cell_angle_gamma                70.616(2)
_cell_volume                     1448.69
_exptl_crystal_colour            colorless
_exptl_crystal_description       needle
_chemical_melting_point          156.5deg.C
_cell_formula_units_Z            2
loop_
_atom_site_label
_atom_site_type_symbol
_atom_site_fract_x
_atom_site_fract_y
_atom_site_fract_z
O1 O 0.42152(11) 0.71451(10) 0.40902(5)
O2 O 0.33087(11) 0.53954(10) 0.46686(6)
O3 O -0.06317(11) 1.05599(10) 0.67450(5)
O4 O 0.45946(11) 1.00217(10) 0.59684(5)
N1 N 0.30689(13) 0.73908(12) 0.53708(6)
N2 N -0.08845(14) 1.10614(12) 0.75387(7)
N3 N 0.56528(13) 0.76243(13) 0.58586(7)
H1 H 0.5648(17) 0.6829(16) 0.5666(8)
C1 C 0.56598(16) 0.71056(15) 0.27716(8)
H2 H 0.5242 0.8175 0.2800
C2 C 0.73005(16) 0.65929(14) 0.29381(8)
C3 C 0.78205(17) 0.67514(15) 0.36267(9)
H3 H 0.7107 0.7215 0.4089
C4 C 0.94055(18) 0.62196(15) 0.36284(9)
H4 H 0.9778 0.6315 0.4097
C5 C 1.04524(18) 0.55488(16) 0.29500(10)
H5 H 1.1534 0.5211 0.2957
C6 C 0.99421(18) 0.53681(16) 0.22673(9)
H6 H 1.0661 0.4895 0.1809
C7 C 0.83583(17) 0.58890(15) 0.22605(9)
C8 C 0.74879(17) 0.58889(15) 0.16278(8)
C9 C 0.79803(19) 0.53487(16) 0.08478(9)
H7 H 0.9049 0.4857 0.0649
C10 C 0.6889(2) 0.55388(16) 0.03675(9)
H8 H 0.7214 0.5178 -0.0167
C11 C 0.53219(19) 0.62502(16) 0.06544(9)
H9 H 0.4590 0.6373 0.0315
C12 C 0.48186(18) 0.67830(15) 0.14346(8)
H10 H 0.3746 0.7256 0.1635
C13 C 0.59100(17) 0.66102(14) 0.19136(8)
C14 C 0.45306(16) 0.64960(15) 0.33144(8)
H11 H 0.3558 0.6717 0.3103
H12 H 0.4993 0.5444 0.3348
C15 C 0.35065(15) 0.65522(15) 0.47081(8)
C16 C 0.23442(16) 0.69296(15) 0.61320(8)
H13 H 0.3046 0.6772 0.6522
H14 H 0.2188 0.6010 0.6050
C17 C 0.07864(16) 0.80393(15) 0.64690(8)
H15 H 0.0373 0.7740 0.7006
H16 H 0.0037 0.8096 0.6117
C18 C 0.09487(15) 0.95123(15) 0.65332(8)
C19 C 0.16742(15) 0.99346(14) 0.57206(8)
H17 H 0.1837 1.0861 0.5775
H18 H 0.0944 1.0070 0.5347
C20 C 0.32296(15) 0.88192(14) 0.53639(8)
H19 H 0.3492 0.9073 0.4790
C21 C 0.17295(16) 0.96579(15) 0.72231(8)
H20 H 0.2210 0.8715 0.7456
H21 H 0.2530 1.0122 0.7046
C22 C 0.03862(16) 1.05875(14) 0.78064(8)
C23 C 0.05119(17) 1.09725(14) 0.86052(8)
C24 C -0.08003(18) 1.15423(15) 0.92001(9)
H22 H -0.1805 1.1681 0.9092
C25 C -0.06464(19) 1.19062(16) 0.99444(9)
H23 H -0.1545 1.2284 1.0346
C26 C 0.0806(2) 1.17243(16) 1.01084(9)
H24 H 0.0905 1.1988 1.0619
C27 C 0.21124(19) 1.11582(16) 0.95270(9)
H25 H 0.3113 1.1030 0.9638
C28 C 0.19662(18) 1.07767(16) 0.87816(9)
H26 H 0.2871 1.0377 0.8387
C29 C 0.45440(16) 0.88679(14) 0.57627(8)
C30 C 0.69291(16) 0.76282(16) 0.62339(8)
H27 H 0.7332 0.8397 0.5997
H28 H 0.7781 0.6705 0.6116
C31 C 0.64631(15) 0.78532(15) 0.71324(8)
C32 C 0.57279(17) 0.69982(15) 0.76091(9)
H29 H 0.5477 0.6287 0.7364
C33 C 0.53570(18) 0.71649(16) 0.84321(9)
H30 H 0.4857 0.6570 0.8748
C34 C 0.57145(18) 0.82007(16) 0.87971(9)
H31 H 0.5471 0.8312 0.9363
C35 C 0.64291(17) 0.90703(16) 0.83298(9)
H32 H 0.6671 0.9785 0.8576
C36 C 0.67928(16) 0.89043(15) 0.75055(9)
H33 H 0.7273 0.9514 0.7190
loop_
_geom_bond_atom_site_label_1
_geom_bond_atom_site_label_2
_geom_bond_site_symmetry_1
_geom_bond_site_symmetry_2
O1 C14 1_555 1_555
O2 C15 1_555 1_555
O3 N2 1_555 1_555
O4 C29 1_555 1_555
N1 C15 1_555 1_555
N2 C22 1_555 1_555
N3 H1 1_555 1_555
C1 H2 1_555 1_555
C2 C1 1_555 1_555
C3 C2 1_555 1_555
H3 C3 1_555 1_555
C4 C3 1_555 1_555
H4 C4 1_555 1_555
C5 C4 1_555 1_555
H5 C5 1_555 1_555
C6 C5 1_555 1_555
H6 C6 1_555 1_555
C7 C2 1_555 1_555
C8 C7 1_555 1_555
C9 C8 1_555 1_555
H7 C9 1_555 1_555
C10 C9 1_555 1_555
H8 C10 1_555 1_555
C11 C10 1_555 1_555
H9 C11 1_555 1_555
C12 C11 1_555 1_555
H10 C12 1_555 1_555
C13 C1 1_555 1_555
C14 C1 1_555 1_555
H11 C14 1_555 1_555
H12 C14 1_555 1_555
C15 O1 1_555 1_555
C16 N1 1_555 1_555
H13 C16 1_555 1_555
H14 C16 1_555 1_555
C17 C16 1_555 1_555
H15 C17 1_555 1_555
H16 C17 1_555 1_555
C18 O3 1_555 1_555
C19 C18 1_555 1_555
H17 C19 1_555 1_555
H18 C19 1_555 1_555
C20 N1 1_555 1_555
H19 C20 1_555 1_555
C21 C18 1_555 1_555
H20 C21 1_555 1_555
H21 C21 1_555 1_555
C22 C21 1_555 1_555
C23 C22 1_555 1_555
C24 C23 1_555 1_555
H22 C24 1_555 1_555
C25 C24 1_555 1_555
H23 C25 1_555 1_555
C26 C25 1_555 1_555
H24 C26 1_555 1_555
C27 C26 1_555 1_555
H25 C27 1_555 1_555
C28 C23 1_555 1_555
H26 C28 1_555 1_555
C29 N3 1_555 1_555
C30 N3 1_555 1_555
H27 C30 1_555 1_555
H28 C30 1_555 1_555
C31 C30 1_555 1_555
C32 C31 1_555 1_555
H29 C32 1_555 1_555
C33 C32 1_555 1_555
H30 C33 1_555 1_555
C34 C33 1_555 1_555
H31 C34 1_555 1_555
C35 C34 1_555 1_555
H32 C35 1_555 1_555
C36 C31 1_555 1_555
H33 C36 1_555 1_555
C6 C7 1_555 1_555
C8 C13 1_555 1_555
C12 C13 1_555 1_555
C17 C18 1_555 1_555
C19 C20 1_555 1_555
C20 C29 1_555 1_555
C27 C28 1_555 1_555
C35 C36 1_555 1_555

#END
