
#######################################################################
#
#                 Cambridge Crystallographic Data Centre
#                                CCDC 
#
#######################################################################
#
# If this CIF has been generated from an entry in the Cambridge 
# Structural Database, then it will include bibliographic, chemical, 
# crystal, experimental, refinement or atomic coordinate data resulting 
# from the CCDC's data processing and validation procedures.
#
#######################################################################

data_WAHKIC
_chemical_formula_moiety         'C46 H52 S2 Si2'
_chemical_name_systematic        
([1]Benzothieno[2',3':5,6]-s-indaceno[1,2-b][1]benzothiene-7,14-diyldiethyne-2,1-diyl)bis(tri-isopropylsilane)
_symmetry_cell_setting           triclinic
_symmetry_space_group_name_H-M   'P -1'
_symmetry_Int_Tables_number      2
_space_group_name_Hall           '-P 1'
loop_
_symmetry_equiv_pos_site_id
_symmetry_equiv_pos_as_xyz
1 x,y,z
2 -x,-y,-z
_cell_length_a                   8.07(5)
_cell_length_b                   11.393(7)
_cell_length_c                   12.568(7)
_cell_angle_alpha                106.171(10)
_cell_angle_beta                 106.915(8)
_cell_angle_gamma                99.301(3)
_cell_volume                     1024.1
_exptl_crystal_colour            black
_exptl_crystal_description       plate
_cell_formula_units_Z            1
loop_
_atom_site_label
_atom_site_type_symbol
_atom_site_fract_x
_atom_site_fract_y
_atom_site_fract_z
S1 S 0.43810(16) 0.42144(12) -0.21309(11)
Si1 Si 0.72377(18) 0.18596(13) 0.33130(12)
C1 C 1.1131(6) 0.5749(4) -0.0351(4)
C2 C 0.9257(6) 0.5404(4) -0.0987(4)
H1 H 0.8788 0.5666 -0.1623
C3 C 0.8162(6) 0.4669(4) -0.0633(4)
C4 C 0.6232(6) 0.4166(4) -0.1051(4)
C5 C 0.5789(6) 0.3475(4) -0.0368(4)
C6 C 0.3889(6) 0.2958(4) -0.0722(4)
C7 C 0.2896(6) 0.2225(5) -0.0270(5)
H2 H 0.3486 0.1995 0.0364
C8 C 0.1038(6) 0.1844(5) -0.0770(5)
H3 H 0.0385 0.1353 -0.0474
C9 C 0.0149(6) 0.2191(5) -0.1708(4)
H4 H -0.1098 0.1934 -0.2031
C10 C 0.1083(6) 0.2914(5) -0.2174(4)
H5 H 0.0479 0.3148 -0.2801
C11 C 0.2946(6) 0.3281(4) -0.1681(4)
C12 C 0.7421(6) 0.3529(4) 0.0515(4)
C13 C 0.7524(6) 0.2965(4) 0.1407(4)
C14 C 0.7507(6) 0.2481(4) 0.2148(4)
C15 C 0.9516(7) 0.1955(5) 0.4305(4)
H6 H 0.9372 0.1728 0.4976
C16 C 1.0770(7) 0.3307(5) 0.4812(5)
H7 H 1.0854 0.3588 0.4172
H8 H 1.1941 0.3305 0.5285
H9 H 1.0295 0.3869 0.5294
C17 C 1.0394(8) 0.1002(6) 0.3684(6)
H10 H 0.9658 0.0156 0.3442
H11 H 1.1561 0.1081 0.4223
H12 H 1.0509 0.1177 0.3001
C18 C 0.6180(9) 0.2966(7) 0.4127(5)
H13 H 0.7071 0.3774 0.4368
C19 C 0.6254(9) 0.2905(7) 0.5322(6)
H14 H 0.5455 0.2127 0.5218
H15 H 0.5899 0.3609 0.5732
H16 H 0.7457 0.2941 0.5775
C20 C 0.4567(9) 0.3243(7) 0.3438(6)
H17 H 0.4744 0.3403 0.2763
H18 H 0.4359 0.3975 0.3926
H19 H 0.3549 0.2530 0.3176
C21 C 0.5878(7) 0.0158(5) 0.2557(4)
H20 H 0.6611 -0.0288 0.2178
C22 C 0.5560(9) -0.0493(6) 0.3419(5)
H21 H 0.6687 -0.0382 0.4017
H22 H 0.5006 -0.1381 0.2995
H23 H 0.4786 -0.0124 0.3784
C23 C 0.4105(7) -0.0062(5) 0.1559(5)
H24 H 0.3305 0.0319 0.1886
H25 H 0.3568 -0.0955 0.1163
H26 H 0.4333 0.0314 0.1002
S1A S 1.56190(16) 0.57856(12) 0.21309(11)
Si1A Si 1.27623(18) 0.81404(13) -0.33130(12)
C1A C 0.8869(6) 0.4251(4) 0.0351(4)
C2A C 1.0743(6) 0.4596(4) 0.0987(4)
H1A H 1.1212 0.4334 0.1623
C3A C 1.1838(6) 0.5331(4) 0.0633(4)
C4A C 1.3768(6) 0.5834(4) 0.1051(4)
C5A C 1.4211(6) 0.6525(4) 0.0368(4)
C6A C 1.6111(6) 0.7042(4) 0.0722(4)
C7A C 1.7104(6) 0.7775(5) 0.0270(5)
H2A H 1.6514 0.8005 -0.0364
C8A C 1.8962(6) 0.8156(5) 0.0770(5)
H3A H 1.9615 0.8647 0.0474
C9A C 1.9851(6) 0.7809(5) 0.1708(4)
H4A H 2.1098 0.8066 0.2031
C10A C 1.8917(6) 0.7086(5) 0.2174(4)
H5A H 1.9521 0.6852 0.2801
C11A C 1.7054(6) 0.6719(4) 0.1681(4)
C12A C 1.2579(6) 0.6471(4) -0.0515(4)
C13A C 1.2476(6) 0.7035(4) -0.1407(4)
C14A C 1.2493(6) 0.7519(4) -0.2148(4)
C15A C 1.0484(7) 0.8045(5) -0.4305(4)
H6A H 1.0628 0.8272 -0.4976
C16A C 0.9230(7) 0.6693(5) -0.4812(5)
H7A H 0.9146 0.6412 -0.4172
H8A H 0.8059 0.6695 -0.5285
H9A H 0.9705 0.6131 -0.5294
C17A C 0.9606(8) 0.8998(6) -0.3684(6)
H10A H 1.0342 0.9844 -0.3442
H11A H 0.8439 0.8919 -0.4223
H12A H 0.9491 0.8823 -0.3001
C18A C 1.3820(9) 0.7034(7) -0.4127(5)
H13A H 1.2929 0.6226 -0.4368
C19A C 1.3746(9) 0.7095(7) -0.5322(6)
H14A H 1.4545 0.7873 -0.5218
H15A H 1.4101 0.6391 -0.5732
H16A H 1.2543 0.7059 -0.5775
C20A C 1.5433(9) 0.6757(7) -0.3438(6)
H17A H 1.5256 0.6597 -0.2763
H18A H 1.5641 0.6025 -0.3926
H19A H 1.6451 0.7470 -0.3176
C21A C 1.4122(7) 0.9842(5) -0.2557(4)
H20A H 1.3389 1.0288 -0.2178
C22A C 1.4440(9) 1.0493(6) -0.3419(5)
H21A H 1.3313 1.0382 -0.4017
H22A H 1.4994 1.1381 -0.2995
H23A H 1.5214 1.0124 -0.3784
C23A C 1.5895(7) 1.0062(5) -0.1559(5)
H24A H 1.6695 0.9681 -0.1886
H25A H 1.6432 1.0955 -0.1163
H26A H 1.5667 0.9686 -0.1002
loop_
_geom_bond_atom_site_label_1
_geom_bond_atom_site_label_2
_geom_bond_site_symmetry_1
_geom_bond_site_symmetry_2
S1 C4 1_555 1_555
Si1 C14 1_555 1_555
C1 C2 1_555 1_555
C2 H1 1_555 1_555
C3 C2 1_555 1_555
C4 C3 1_555 1_555
C5 C4 1_555 1_555
C6 C5 1_555 1_555
C7 C6 1_555 1_555
H2 C7 1_555 1_555
C8 C7 1_555 1_555
H3 C8 1_555 1_555
C9 C8 1_555 1_555
H4 C9 1_555 1_555
C10 C9 1_555 1_555
H5 C10 1_555 1_555
C11 S1 1_555 1_555
C12 C5 1_555 1_555
C13 C12 1_555 1_555
C14 C13 1_555 1_555
C15 Si1 1_555 1_555
H6 C15 1_555 1_555
C16 C15 1_555 1_555
H7 C16 1_555 1_555
H8 C16 1_555 1_555
H9 C16 1_555 1_555
C17 C15 1_555 1_555
H10 C17 1_555 1_555
H11 C17 1_555 1_555
H12 C17 1_555 1_555
C18 Si1 1_555 1_555
H13 C18 1_555 1_555
C19 C18 1_555 1_555
H14 C19 1_555 1_555
H15 C19 1_555 1_555
H16 C19 1_555 1_555
C20 C18 1_555 1_555
H17 C20 1_555 1_555
H18 C20 1_555 1_555
H19 C20 1_555 1_555
C21 Si1 1_555 1_555
H20 C21 1_555 1_555
C22 C21 1_555 1_555
H21 C22 1_555 1_555
H22 C22 1_555 1_555
H23 C22 1_555 1_555
C23 C21 1_555 1_555
H24 C23 1_555 1_555
H25 C23 1_555 1_555
H26 C23 1_555 1_555
S1A C4A 1_555 1_555
Si1A C14A 1_555 1_555
C1A C3 1_555 1_555
C2A C1A 1_555 1_555
H1A C2A 1_555 1_555
C3A C1 1_555 1_555
C4A C3A 1_555 1_555
C5A C4A 1_555 1_555
C6A C5A 1_555 1_555
C7A C6A 1_555 1_555
H2A C7A 1_555 1_555
C8A C7A 1_555 1_555
H3A C8A 1_555 1_555
C9A C8A 1_555 1_555
H4A C9A 1_555 1_555
C10A C9A 1_555 1_555
H5A C10A 1_555 1_555
C11A S1A 1_555 1_555
C12A C1 1_555 1_555
C13A C12A 1_555 1_555
C14A C13A 1_555 1_555
C15A Si1A 1_555 1_555
H6A C15A 1_555 1_555
C16A C15A 1_555 1_555
H7A C16A 1_555 1_555
H8A C16A 1_555 1_555
H9A C16A 1_555 1_555
C17A C15A 1_555 1_555
H10A C17A 1_555 1_555
H11A C17A 1_555 1_555
H12A C17A 1_555 1_555
C18A Si1A 1_555 1_555
H13A C18A 1_555 1_555
C19A C18A 1_555 1_555
H14A C19A 1_555 1_555
H15A C19A 1_555 1_555
H16A C19A 1_555 1_555
C20A C18A 1_555 1_555
H17A C20A 1_555 1_555
H18A C20A 1_555 1_555
H19A C20A 1_555 1_555
C21A Si1A 1_555 1_555
H20A C21A 1_555 1_555
C22A C21A 1_555 1_555
H21A C22A 1_555 1_555
H22A C22A 1_555 1_555
H23A C22A 1_555 1_555
C23A C21A 1_555 1_555
H24A C23A 1_555 1_555
H25A C23A 1_555 1_555
H26A C23A 1_555 1_555
C6 C11 1_555 1_555
C10 C11 1_555 1_555
C12 C1A 1_555 1_555
C2A C3A 1_555 1_555
C5A C12A 1_555 1_555
C6A C11A 1_555 1_555
C10A C11A 1_555 1_555

#END
