
#######################################################################
#
#                 Cambridge Crystallographic Data Centre
#                                CCDC 
#
#######################################################################
#
# If this CIF has been generated from an entry in the Cambridge 
# Structural Database, then it will include bibliographic, chemical, 
# crystal, experimental, refinement or atomic coordinate data resulting 
# from the CCDC's data processing and validation procedures.
#
#######################################################################

data_WAHLAV
_chemical_formula_moiety         'C30 H30 N2 O2'
_chemical_name_systematic        
1-benzyl-1'-methyl-3'-(3-methylbut-2-enoyl)-4'-phenylspiro[indole-3,2'-pyrrolidin]-2(1H)-one
_symmetry_cell_setting           monoclinic
_symmetry_space_group_name_H-M   'P 21/n'
_symmetry_Int_Tables_number      14
_space_group_name_Hall           '-P 2yn'
loop_
_symmetry_equiv_pos_site_id
_symmetry_equiv_pos_as_xyz
1 x,y,z
2 1/2-x,1/2+y,1/2-z
3 -x,-y,-z
4 1/2+x,1/2-y,1/2+z
_cell_length_a                   9.1711(7)
_cell_length_b                   10.0227(7)
_cell_length_c                   26.3188(19)
_cell_angle_alpha                90
_cell_angle_beta                 94.0130(10)
_cell_angle_gamma                90
_cell_volume                     2413.27
_exptl_crystal_colour            colorless
_exptl_crystal_description       prism
_cell_formula_units_Z            4
loop_
_atom_site_label
_atom_site_type_symbol
_atom_site_fract_x
_atom_site_fract_y
_atom_site_fract_z
O1 O 0.31590(9) 0.65670(9) 0.10004(4)
O2 O -0.04536(10) 1.07327(10) 0.11721(4)
N1 N 0.09672(11) 0.56974(10) 0.12285(4)
N2 N 0.09044(11) 0.79041(10) 0.02200(4)
C1 C 0.06440(17) 0.36053(15) 0.29868(5)
H1 H 0.0423 0.3411 0.3326
C2 C 0.0843(3) 0.25844(16) 0.26465(6)
H2 H 0.0789 0.1683 0.2755
C3 C 0.1123(2) 0.28665(15) 0.21449(6)
H3 H 0.1255 0.2157 0.1913
C4 C 0.12097(14) 0.41776(12) 0.19808(5)
C5 C 0.15144(14) 0.44282(12) 0.14322(5)
H4 H 0.2584 0.4394 0.1403
H5 H 0.1069 0.3699 0.1220
C6 C 0.18314(12) 0.66251(11) 0.10100(4)
C7 C 0.08255(12) 0.77499(11) 0.07733(4)
C8 C 0.13893(12) 0.91365(11) 0.09899(4)
H6 H 0.2313 0.8971 0.1205
C9 C 0.17852(12) 0.99552(11) 0.05222(4)
H7 H 0.0917 1.0496 0.0397
C10 C 0.30793(12) 1.08781(11) 0.06253(4)
C11 C 0.44435(13) 1.03793(13) 0.08034(5)
H8 H 0.4554 0.9450 0.0867
C12 C 0.56409(14) 1.12195(15) 0.08893(5)
H9 H 0.6558 1.0865 0.1014
C13 C 0.54961(15) 1.25748(15) 0.07930(6)
H10 H 0.6314 1.3150 0.0851
C14 C 0.10542(14) 0.51969(12) 0.23283(5)
H11 H 0.1143 0.6098 0.2223
C15 C 0.07692(14) 0.49146(14) 0.28290(5)
H12 H 0.0660 0.5622 0.3063
C16 C 0.41564(16) 1.30889(13) 0.06124(6)
H13 H 0.4056 1.4017 0.0545
C17 C 0.29513(14) 1.22411(12) 0.05298(5)
H14 H 0.2034 1.2600 0.0407
C18 C 0.20475(12) 0.88676(11) 0.01310(4)
H15 H 0.1940 0.9223 -0.0221
H16 H 0.3031 0.8467 0.0193
C19 C 0.09679(14) 0.66758(12) -0.00715(5)
H17 H 0.0908 0.6886 -0.0436
H18 H 0.0148 0.6099 0.0004
H19 H 0.1891 0.6215 0.0021
C20 C 0.03081(13) 0.97960(12) 0.13257(5)
C21 C 0.02994(17) 0.92048(13) 0.18408(5)
H20 H 0.1068 0.8598 0.1933
C22 C -0.06644(17) 0.94227(17) 0.21929(6)
C23 C -0.1928(2) 1.0372(4) 0.21300(8)
H21 H -0.1714 1.1065 0.1883
H22 H -0.2087 1.0788 0.2459
H23 H -0.2810 0.9885 0.2007
C24 C -0.0479(3) 0.87004(18) 0.26970(7)
H24 H 0.0368 0.8104 0.2697
H25 H -0.1359 0.8176 0.2748
H26 H -0.0326 0.9352 0.2973
C25 C -0.06677(12) 0.72613(11) 0.08978(4)
C26 C -0.20395(12) 0.77729(12) 0.07620(5)
H27 H -0.2145 0.8589 0.0580
C27 C -0.32699(13) 0.70674(12) 0.08980(5)
H28 H -0.4220 0.7403 0.0806
C28 C -0.31074(13) 0.58789(13) 0.11668(5)
H29 H -0.3954 0.5421 0.1262
C29 C -0.17274(13) 0.53379(12) 0.13017(5)
H30 H -0.1618 0.4522 0.1484
C30 C -0.05277(12) 0.60482(11) 0.11573(4)
loop_
_geom_bond_atom_site_label_1
_geom_bond_atom_site_label_2
_geom_bond_site_symmetry_1
_geom_bond_site_symmetry_2
O1 C6 1_555 1_555
O2 C20 1_555 1_555
N1 C5 1_555 1_555
N2 C7 1_555 1_555
C1 H1 1_555 1_555
C2 C1 1_555 1_555
H2 C2 1_555 1_555
C3 C2 1_555 1_555
H3 C3 1_555 1_555
C4 C3 1_555 1_555
C5 C4 1_555 1_555
H4 C5 1_555 1_555
H5 C5 1_555 1_555
C6 N1 1_555 1_555
C7 C6 1_555 1_555
C8 C7 1_555 1_555
H6 C8 1_555 1_555
C9 C8 1_555 1_555
H7 C9 1_555 1_555
C10 C9 1_555 1_555
C11 C10 1_555 1_555
H8 C11 1_555 1_555
C12 C11 1_555 1_555
H9 C12 1_555 1_555
C13 C12 1_555 1_555
H10 C13 1_555 1_555
C14 C4 1_555 1_555
H11 C14 1_555 1_555
C15 C1 1_555 1_555
H12 C15 1_555 1_555
C16 C13 1_555 1_555
H13 C16 1_555 1_555
C17 C10 1_555 1_555
H14 C17 1_555 1_555
C18 N2 1_555 1_555
H15 C18 1_555 1_555
H16 C18 1_555 1_555
C19 N2 1_555 1_555
H17 C19 1_555 1_555
H18 C19 1_555 1_555
H19 C19 1_555 1_555
C20 C8 1_555 1_555
C21 C20 1_555 1_555
H20 C21 1_555 1_555
C22 C21 1_555 1_555
C23 C22 1_555 1_555
H21 C23 1_555 1_555
H22 C23 1_555 1_555
H23 C23 1_555 1_555
C24 C22 1_555 1_555
H24 C24 1_555 1_555
H25 C24 1_555 1_555
H26 C24 1_555 1_555
C25 C7 1_555 1_555
C26 C25 1_555 1_555
H27 C26 1_555 1_555
C27 C26 1_555 1_555
H28 C27 1_555 1_555
C28 C27 1_555 1_555
H29 C28 1_555 1_555
C29 C28 1_555 1_555
H30 C29 1_555 1_555
C30 N1 1_555 1_555
C9 C18 1_555 1_555
C14 C15 1_555 1_555
C16 C17 1_555 1_555
C25 C30 1_555 1_555
C29 C30 1_555 1_555

#END
