
#######################################################################
#
#                 Cambridge Crystallographic Data Centre
#                                CCDC 
#
#######################################################################
#
# If this CIF has been generated from an entry in the Cambridge 
# Structural Database, then it will include bibliographic, chemical, 
# crystal, experimental, refinement or atomic coordinate data resulting 
# from the CCDC's data processing and validation procedures.
#
#######################################################################

data_WAJJEW
_chemical_formula_moiety         'C63 H42 O18 6-,C1 H4 O1,6(Na1 1+),14(H2 O1)'
_chemical_name_systematic        
'Hexasodium 4,6,12,14,19,21-hexakis(2-carboxylato-p-benza)-1,9-dibenza(1,3,5)-3,7,11,15,18,22-hexaoxabicyclo(7.7.7)tricosane methanol solvate tetradecahydrate'
_symmetry_cell_setting           monoclinic
_symmetry_space_group_name_H-M   'C c'
_symmetry_Int_Tables_number      9
_space_group_name_Hall           'C -2yc'
loop_
_symmetry_equiv_pos_site_id
_symmetry_equiv_pos_as_xyz
1 x,y,z
2 1/2+x,1/2+y,z
3 x,-y,1/2+z
4 1/2+x,1/2-y,1/2+z
_cell_length_a                   37.803(15)
_cell_length_b                   15.527(6)
_cell_length_c                   30.36(1)
_cell_angle_alpha                90
_cell_angle_beta                 121.39(2)
_cell_angle_gamma                90
_cell_volume                     15212.2
_cell_formula_units_Z            8
_exptl_crystal_recrystallization_method 'adamantane amine hydroiodide'
loop_
_atom_site_label
_atom_site_type_symbol
_atom_site_fract_x
_atom_site_fract_y
_atom_site_fract_z
C1 C 0.2911(8) 0.1404(17) -0.0727(10)
C2 C 0.2791(8) 0.0538(18) -0.0870(11)
C3 C 0.2377(8) 0.0353(17) -0.1241(11)
C4 C 0.2133(9) 0.1073(16) -0.1441(12)
C5 C 0.2231(8) 0.1945(17) -0.1303(11)
C6 C 0.2646(8) 0.2102(19) -0.0940(11)
C7 C 0.2862(8) -0.0617(17) 0.2981(11)
C8 C 0.2842(8) 0.0266(18) 0.2909(11)
C9 C 0.2444(8) 0.0599(18) 0.2563(10)
C10 C 0.2096(9) 0.0068(17) 0.2279(11)
C11 C 0.2177(8) -0.0780(18) 0.2417(11)
C12 C 0.2544(8) -0.1217(19) 0.2753(11)
C13 C 0.3046(9) -0.1049(20) 0.1167(10)
C14 C 0.3278(8) -0.0633(20) 0.0927(11)
C15 C 0.3631(9) -0.0712(21) 0.0895(11)
C16 C 0.3739(8) -0.0296(19) 0.0574(11)
C17 C 0.3411(8) 0.0254(19) 0.0259(11)
C18 C 0.3114(9) 0.0648(20) 0.0326(11)
C19 C 0.3028(11) -0.0008(19) 0.0569(12)
C20 C 0.4164(10) -0.0555(22) 0.0668(14)
O1 O 0.4216(7) -0.1432(16) 0.0688(9)
O2 O 0.4320(8) -0.0121(18) 0.0484(10)
O3 O 0.3567(6) 0.0577(13) -0.0064(8)
C21 C 0.3356(8) 0.1388(19) -0.0265(11)
C22 C 0.3254(9) -0.0993(18) 0.1784(11)
C23 C 0.3454(9) -0.0228(20) 0.2031(10)
C24 C 0.3520(9) -0.0046(18) 0.2519(10)
C25 C 0.3510(9) -0.0802(17) 0.2768(10)
C26 C 0.3364(9) -0.1621(19) 0.2564(11)
C27 C 0.3275(10) -0.1739(21) 0.2054(11)
C28 C 0.3731(10) 0.0722(22) 0.2852(13)
O4 O 0.3485(7) 0.1349(16) 0.2625(9)
O5 O 0.4129(8) 0.0610(17) 0.3161(10)
O6 O 0.3580(6) -0.0646(14) 0.3271(7)
C29 C 0.3274(8) -0.0991(21) 0.3382(11)
C30 C 0.1843(10) -0.2492(20) 0.0137(11)
C31 C 0.1867(8) -0.2022(21) -0.0257(10)
C32 C 0.1488(9) -0.1907(20) -0.0719(10)
C33 C 0.1458(8) -0.1489(20) -0.1139(10)
C34 C 0.1804(8) -0.0998(20) -0.1062(10)
C35 C 0.2177(9) -0.0916(20) -0.0587(10)
C36 C 0.2175(10) -0.1527(20) -0.0246(13)
C37 C 0.1066(10) -0.1595(24) -0.1599(12)
O7 O 0.1063(7) -0.1843(15) -0.2007(9)
O8 O 0.0709(8) -0.1243(17) -0.1652(9)
O9 O 0.1779(6) -0.0559(14) -0.1466(8)
C38 C 0.2120(9) -0.0414(19) -0.1542(12)
C39 C 0.1763(9) -0.2178(20) 0.0537(11)
C40 C 0.1419(9) -0.1607(20) 0.0360(12)
C41 C 0.1318(8) -0.1325(20) 0.0723(9)
C42 C 0.1620(8) -0.1387(20) 0.1242(9)
C43 C 0.1970(9) -0.1926(19) 0.1402(12)
C44 C 0.2064(10) -0.2314(22) 0.1053(10)
C45 C 0.0943(10) -0.0736(23) 0.0551(12)
O10 O 0.0838(7) -0.0516(15) 0.0874(9)
O11 O 0.0799(8) -0.0680(17) 0.0076(10)
O12 O 0.1507(6) -0.1439(14) 0.1615(8)
C46 C 0.1815(8) -0.1429(22) 0.2182(10)
C47 C 0.1553(9) 0.0268(20) -0.0014(10)
C48 C 0.1564(9) 0.0842(20) -0.0361(10)
C49 C 0.1266(9) 0.0878(20) -0.0889(10)
C50 C 0.1247(8) 0.1598(19) -0.1188(11)
C51 C 0.1567(8) 0.2165(19) -0.1067(10)
C52 C 0.1901(9) 0.2051(20) -0.0568(10)
C53 C 0.1869(10) 0.1430(20) -0.0273(13)
C54 C 0.0879(10) 0.1550(25) -0.1757(12)
O13 O 0.0868(7) 0.1449(16) -0.2176(9)
O14 O 0.0522(7) 0.1515(17) -0.1752(10)
O15 O 0.1566(6) 0.2458(14) -0.1521(8)
C55 C 0.1995(8) 0.2780(19) -0.1385(13)
C56 C 0.1726(8) 0.0674(20) 0.0512(11)
C57 C 0.1486(10) 0.1203(19) 0.0616(11)
C58 C 0.1573(8) 0.1567(21) 0.1086(9)
C59 C 0.1960(8) 0.1477(19) 0.1523(10)
C60 C 0.2179(10) 0.0874(20) 0.1396(12)
C61 C 0.2114(9) 0.0501(22) 0.0943(10)
C62 C 0.1194(10) 0.2016(24) 0.1013(13)
O16 O 0.1135(7) 0.2079(15) 0.1383(9)
O17 O 0.0960(8) 0.2358(17) 0.0588(10)
O18 O 0.1981(6) 0.1802(14) 0.1968(8)
C63 C 0.2345(9) 0.1570(19) 0.2434(11)
H1 H 0.299 0.005 -0.072
H2 H 0.185 0.098 -0.174
H3 H 0.276 0.270 -0.084
H4 H 0.309 0.066 0.309
H5 H 0.182 0.028 0.199
H6 H 0.258 -0.185 0.282
H7 H 0.276 -0.083 0.100
H8 H 0.304 -0.168 0.109
H9 H 0.384 -0.115 0.114
H10 H 0.298 0.123 0.021
H11 H 0.273 -0.002 0.048
H12 H 0.335 0.171 0.002
H13 H 0.352 0.172 -0.038
H14 H 0.352 0.022 0.185
H15 H 0.333 -0.209 0.276
H16 H 0.322 -0.233 0.190
H17 H 0.326 -0.163 0.334
H18 H 0.335 -0.084 0.374
H19 H 0.212 -0.278 0.034
H20 H 0.162 -0.294 -0.006
H21 H 0.123 -0.215 -0.075
H22 H 0.241 -0.052 -0.051
H23 H 0.244 -0.157 0.009
H24 H 0.231 -0.091 -0.138
H25 H 0.203 -0.038 -0.192
H26 H 0.124 -0.146 -0.001
H27 H 0.218 -0.198 0.178
H28 H 0.231 -0.269 0.117
H29 H 0.165 -0.137 0.236
H30 H 0.195 -0.201 0.226
H31 H 0.126 0.011 -0.015
H32 H 0.171 -0.026 0.001
H33 H 0.106 0.040 -0.104
H34 H 0.216 0.239 -0.045
H35 H 0.211 0.143 0.009
H36 H 0.197 0.309 -0.169
H37 H 0.213 0.317 -0.108
H38 H 0.121 0.135 0.030
H39 H 0.244 0.068 0.171
H40 H 0.234 0.017 0.093
H41 H 0.259 0.182 0.244
H42 H 0.232 0.183 0.272
C64 C 0.7142(7) 0.1191(14) 0.5789(9)
C65 C 0.7329(7) 0.0401(16) 0.6011(9)
C66 C 0.7756(7) 0.0449(15) 0.6362(9)
C67 C 0.8001(8) 0.1188(14) 0.6510(10)
C68 C 0.7797(7) 0.1952(16) 0.6299(9)
C69 C 0.7370(7) 0.1961(17) 0.5936(9)
C70 C 0.7173(7) -0.0586(15) 0.1965(9)
C71 C 0.7257(7) 0.0255(17) 0.2135(9)
C72 C 0.7648(7) 0.0522(16) 0.2522(9)
C73 C 0.7965(8) -0.0077(15) 0.2679(10)
C74 C 0.7925(7) -0.0951(15) 0.2591(9)
C75 C 0.7516(6) -0.1146(17) 0.2199(9)
C76 C 0.6867(10) -0.1289(22) 0.3831(11)
C77 C 0.6791(8) -0.0558(18) 0.4116(11)
C78 C 0.6442(9) -0.0854(20) 0.4111(11)
C79 C 0.6324(9) -0.0429(17) 0.4414(11)
C80 C 0.6496(8) 0.0328(18) 0.4691(10)
C81 C 0.6872(8) 0.0418(20) 0.4711(11)
C82 C 0.6986(8) 0.0197(18) 0.4360(10)
C83 C 0.5966(10) -0.0711(24) 0.4429(13)
O19 O 0.5635(7) -0.0951(15) 0.4002(9)
O20 O 0.5906(8) -0.0743(17) 0.4784(10)
O21 O 0.6440(6) 0.0857(13) 0.5022(7)
C84 C 0.6695(8) 0.1521(21) 0.5389(11)
C85 C 0.6728(9) -0.1085(18) 0.3281(10)
C86 C 0.6641(9) -0.0279(20) 0.3046(10)
C87 C 0.6441(9) -0.0168(18) 0.2503(10)
C88 C 0.6555(8) -0.0748(17) 0.2249(10)
C89 C 0.6688(8) -0.1551(19) 0.2480(9)
C90 C 0.6805(8) -0.1654(18) 0.2993(9)
C91 C 0.6281(11) 0.0707(22) 0.2280(13)
O22 O 0.6450(7) 0.1411(16) 0.2433(8)
O23 O 0.5966(8) 0.0732(17) 0.1799(10)
O24 O 0.6409(6) -0.0617(13) 0.1713(7)
C92 C 0.6734(8) -0.0856(22) 0.1596(11)
C93 C 0.8072(11) -0.2585(21) 0.4810(12)
C94 C 0.8157(7) -0.1976(19) 0.5258(10)
C95 C 0.8519(9) -0.1828(20) 0.5732(10)
C96 C 0.8575(8) -0.1416(20) 0.6171(10)
C97 C 0.8204(7) -0.1032(19) 0.6072(9)
C98 C 0.7832(8) -0.1158(19) 0.5606(9)
C99 C 0.7815(8) -0.1521(17) 0.5175(10)
C100 C 0.8963(10) -0.1406(25) 0.6684(12)
O25 O 0.8981(7) -0.1650(15) 0.7073(9)
O26 O 0.9292(8) -0.1359(17) 0.6668(10)
O27 O 0.8263(5) -0.0753(13) 0.6556(7)
C101 C 0.7854(9) -0.0554(19) 0.6491(13)
C102 C 0.8145(8) -0.2044(19) 0.4445(9)
C103 C 0.8519(9) -0.1724(20) 0.4538(12)
C104 C 0.8652(8) -0.1442(20) 0.4214(9)
C105 C 0.8389(7) -0.1598(20) 0.3698(9)
C106 C 0.7983(8) -0.1856(19) 0.3521(10)
C107 C 0.7914(9) -0.2100(18) 0.3910(9)
C108 C 0.9076(10) -0.1103(24) 0.4468(13)
O28 O 0.9277(7) -0.0922(15) 0.4267(8)
O29 O 0.9320(8) -0.0801(17) 0.4924(10)
O30 O 0.8526(6) -0.1211(13) 0.3380(7)
C109 C 0.8296(9) -0.1519(22) 0.2865(10)
C110 C 0.8289(10) 0.0292(21) 0.4924(11)
C111 C 0.8356(8) 0.0958(19) 0.5341(10)
C112 C 0.8731(9) 0.1021(20) 0.5819(9)
C113 C 0.8747(8) 0.1393(19) 0.6246(10)
C114 C 0.8428(7) 0.1974(18) 0.6144(10)
C115 C 0.8077(8) 0.1962(20) 0.5644(9)
C116 C 0.8031(8) 0.1520(17) 0.5213(10)
C117 C 0.9116(10) 0.1326(25) 0.6732(12)
O31 O 0.9098(7) 0.1088(15) 0.7107(9)
O32 O 0.9453(8) 0.1747(17) 0.6856(9)
O33 O 0.8441(6) 0.2688(13) 0.6448(7)
C118 C 0.8119(9) 0.2643(21) 0.6555(12)
C119 C 0.8249(8) 0.0678(19) 0.4431(10)
C120 C 0.8567(9) 0.1235(19) 0.4490(11)
C121 C 0.8505(8) 0.1566(20) 0.4018(9)
C122 C 0.8128(7) 0.1405(19) 0.3584(9)
C123 C 0.7775(8) 0.0950(18) 0.3506(10)
C124 C 0.7876(8) 0.0585(19) 0.3965(9)
C125 C 0.8793(11) 0.2125(23) 0.3952(13)
O34 O 0.8858(7) 0.2039(15) 0.3587(9)
O35 O 0.9029(8) 0.2604(17) 0.4343(10)
O36 O 0.8016(6) 0.1711(13) 0.3098(7)
C126 C 0.7640(9) 0.1462(19) 0.2635(11)
H43 H 0.718 -0.016 0.594
H44 H 0.831 0.117 0.675
H45 H 0.723 0.252 0.578
H46 H 0.703 0.068 0.197
H47 H 0.825 0.017 0.285
H48 H 0.745 -0.176 0.208
H49 H 0.671 -0.181 0.383
H50 H 0.717 -0.142 0.402
H51 H 0.628 -0.136 0.389
H52 H 0.710 0.071 0.503
H53 H 0.718 0.054 0.430
H54 H 0.672 0.201 0.519
H55 H 0.656 0.173 0.558
H56 H 0.672 0.024 0.327
H57 H 0.671 -0.204 0.228
H58 H 0.697 -0.218 0.317
H59 H 0.673 -0.149 0.155
H60 H 0.665 -0.056 0.126
H61 H 0.778 -0.281 0.464
H62 H 0.827 -0.308 0.494
H63 H 0.878 -0.203 0.576
H64 H 0.757 -0.098 0.558
H65 H 0.756 -0.146 0.483
H66 H 0.763 -0.090 0.620
H67 H 0.786 -0.069 0.682
H68 H 0.874 -0.168 0.491
H69 H 0.776 -0.186 0.315
H70 H 0.764 -0.239 0.378
H71 H 0.847 -0.150 0.270
H72 H 0.821 -0.213 0.287
H73 H 0.802 -0.001 0.481
H74 H 0.852 -0.013 0.508
H75 H 0.899 0.080 0.585
H76 H 0.785 0.236 0.558
H77 H 0.778 0.158 0.486
H78 H 0.825 0.259 0.694
H79 H 0.797 0.321 0.644
H80 H 0.882 0.138 0.483
H81 H 0.750 0.091 0.318
H82 H 0.767 0.019 0.397
H83 H 0.740 0.159 0.268
H84 H 0.761 0.180 0.234
Na1 Na 0.4801(6) 0.5296(13) 0.3496(8)
Na2 Na 0.4297(4) 0.0238(10) -0.1065(6)
Na3 Na 0.4194(6) 0.3521(12) 0.3554(7)
Na4 Na 0.5356(5) 0.1685(12) 0.1622(7)
Na5 Na 0.5789(5) 0.3702(11) 0.1504(6)
Na6 Na 0.4977(6) 0.4206(12) 0.5060(7)
Na7 Na 0.4736(6) 0.7972(14) 0.1822(8)
Na8 Na 0.5060(9) 0.5853(10) 0.2517(12)
Na9 Na 0.6368(9) 0.6158(20) 0.2353(12)
Na10 Na 0.5237(7) 0.5344(17) 0.1549(10)
Na11 Na 0.4791(8) 0.2356(17) 0.5738(9)
Na12 Na 0.5689(11) 0.0295(26) 0.6173(15)
Na13 Na 0.5689(9) 0.8447(20) 0.2429(11)
O37 O 0.4659(7) 0.2546(16) 0.1177(9)
C127 C 0.4345(11) 0.2062(23) 0.0755(14)
O38 O 0.5913(12) 0.0981(24) 0.0656(14)
C128 C 0.6301(13) 0.1224(26) 0.0880(15)
O39 O 0.5599(6) 0.1601(13) 0.6375(7)
O40 O 0.4898(6) 0.4536(13) 0.2939(7)
O41 O 0.3585(7) 0.6298(16) 0.2643(9)
O42 O 0.5955(7) 0.4729(14) 0.2103(8)
O43 O 0.5457(7) 0.4259(16) 0.6008(9)
O44 O 0.5442(7) 0.6076(16) 0.4057(9)
O45 O 0.5866(12) 0.2646(26) 0.2147(15)
O46 O 0.4949(9) 0.3883(19) 0.3884(11)
O47 O 0.5295(7) 0.6461(16) 0.2089(9)
O48 O 0.4459(7) 0.4239(15) -0.1039(9)
O49 O 0.4281(8) 0.1007(18) -0.0364(10)
O50 O 0.5088(10) 0.4011(24) 0.1019(13)
O51 O 0.4037(8) 0.4738(18) 0.2833(11)
O52 O 0.4494(8) 0.2224(19) 0.4024(10)
O53 O 0.4096(8) 0.2633(19) 0.2861(11)
O54 O 0.4555(7) 0.5775(15) 0.1029(8)
O55 O 0.4696(12) 0.6628(27) 0.2967(16)
O56 O 0.5790(9) 0.0568(21) 0.5379(12)
O57 O 0.5151(9) 0.8826(19) 0.2489(13)
O58 O 0.4932(10) 0.2503(21) -0.0097(13)
O59 O 0.5018(11) 0.0269(24) 0.4269(14)
O60 O 0.4458(12) 0.1965(26) -0.1363(16)
O61 O 0.5878(11) 0.1117(24) 0.3204(14)
O62 O 0.5108(13) 0.4387(30) 0.2171(17)
O63 O 0.5434(12) 0.4099(25) 0.4888(15)
O64 O 0.4919(12) 0.2259(25) 0.2702(14)
O65 O 0.4967(19) 0.0356(43) 0.3364(24)
O66 O 0.5259(30) -0.0077(67) 0.1821(39)
O67 O 0.4998(16) 0.0163(37) 0.5444(21)
loop_
_geom_bond_atom_site_label_1
_geom_bond_atom_site_label_2
_geom_bond_site_symmetry_1
_geom_bond_site_symmetry_2
C1 C2 1_555 1_555
C2 C3 1_555 1_555
C3 C4 1_555 1_555
C4 C5 1_555 1_555
C5 C6 1_555 1_555
C6 C1 1_555 1_555
C7 C8 1_555 1_555
C8 C9 1_555 1_555
C9 C10 1_555 1_555
C10 C11 1_555 1_555
C11 C12 1_555 1_555
C12 C7 1_555 1_555
C13 C14 1_555 1_555
C14 C15 1_555 1_555
C15 C16 1_555 1_555
C16 C17 1_555 1_555
C17 C18 1_555 1_555
C18 C19 1_555 1_555
C19 C14 1_555 1_555
C20 C16 1_555 1_555
O1 C20 1_555 1_555
O2 C20 1_555 1_555
O3 C17 1_555 1_555
C21 C1 1_555 1_555
C22 C13 1_555 1_555
C23 C22 1_555 1_555
C24 C23 1_555 1_555
C25 C24 1_555 1_555
C26 C25 1_555 1_555
C27 C22 1_555 1_555
C28 C24 1_555 1_555
O4 C28 1_555 1_555
O5 C28 1_555 1_555
O6 C25 1_555 1_555
C29 C7 1_555 1_555
C30 C31 1_555 1_555
C31 C32 1_555 1_555
C32 C33 1_555 1_555
C33 C34 1_555 1_555
C34 C35 1_555 1_555
C35 C36 1_555 1_555
C36 C31 1_555 1_555
C37 C33 1_555 1_555
O7 C37 1_555 1_555
O8 C37 1_555 1_555
O9 C34 1_555 1_555
C38 C3 1_555 1_555
C39 C30 1_555 1_555
C40 C39 1_555 1_555
C41 C40 1_555 1_555
C42 C41 1_555 1_555
C43 C42 1_555 1_555
C44 C39 1_555 1_555
C45 C41 1_555 1_555
O10 C45 1_555 1_555
O11 C45 1_555 1_555
O12 C42 1_555 1_555
C46 C11 1_555 1_555
C47 C48 1_555 1_555
C48 C49 1_555 1_555
C49 C50 1_555 1_555
C50 C51 1_555 1_555
C51 C52 1_555 1_555
C52 C53 1_555 1_555
C53 C48 1_555 1_555
C54 C50 1_555 1_555
O13 C54 1_555 1_555
O14 C54 1_555 1_555
O15 C51 1_555 1_555
C55 C5 1_555 1_555
C56 C47 1_555 1_555
C57 C56 1_555 1_555
C58 C57 1_555 1_555
C59 C58 1_555 1_555
C60 C59 1_555 1_555
C61 C56 1_555 1_555
C62 C58 1_555 1_555
O16 C62 1_555 1_555
O17 C62 1_555 1_555
O18 C59 1_555 1_555
C63 C9 1_555 1_555
H1 C2 1_555 1_555
H2 C4 1_555 1_555
H3 C6 1_555 1_555
H4 C8 1_555 1_555
H5 C10 1_555 1_555
H6 C12 1_555 1_555
H7 C13 1_555 1_555
H8 C13 1_555 1_555
H9 C15 1_555 1_555
H10 C18 1_555 1_555
H11 C19 1_555 1_555
H12 C21 1_555 1_555
H13 C21 1_555 1_555
H14 C23 1_555 1_555
H15 C26 1_555 1_555
H16 C27 1_555 1_555
H17 C29 1_555 1_555
H18 C29 1_555 1_555
H19 C30 1_555 1_555
H20 C30 1_555 1_555
H21 C32 1_555 1_555
H22 C35 1_555 1_555
H23 C36 1_555 1_555
H24 C38 1_555 1_555
H25 C38 1_555 1_555
H26 C40 1_555 1_555
H27 C43 1_555 1_555
H28 C44 1_555 1_555
H29 C46 1_555 1_555
H30 C46 1_555 1_555
H31 C47 1_555 1_555
H32 C47 1_555 1_555
H33 C49 1_555 1_555
H34 C52 1_555 1_555
H35 C53 1_555 1_555
H36 C55 1_555 1_555
H37 C55 1_555 1_555
H38 C57 1_555 1_555
H39 C60 1_555 1_555
H40 C61 1_555 1_555
H41 C63 1_555 1_555
H42 C63 1_555 1_555
C64 C65 1_555 1_555
C65 C66 1_555 1_555
C66 C67 1_555 1_555
C67 C68 1_555 1_555
C68 C69 1_555 1_555
C69 C64 1_555 1_555
C70 C71 1_555 1_555
C71 C72 1_555 1_555
C72 C73 1_555 1_555
C73 C74 1_555 1_555
C74 C75 1_555 1_555
C75 C70 1_555 1_555
C76 C77 1_555 1_555
C77 C78 1_555 1_555
C78 C79 1_555 1_555
C79 C80 1_555 1_555
C80 C81 1_555 1_555
C81 C82 1_555 1_555
C82 C77 1_555 1_555
C83 C79 1_555 1_555
O19 C83 1_555 1_555
O20 C83 1_555 1_555
O21 C80 1_555 1_555
C84 C64 1_555 1_555
C85 C76 1_555 1_555
C86 C85 1_555 1_555
C87 C86 1_555 1_555
C88 C87 1_555 1_555
C89 C88 1_555 1_555
C90 C85 1_555 1_555
C91 C87 1_555 1_555
O22 C91 1_555 1_555
O23 C91 1_555 1_555
O24 C88 1_555 1_555
C92 C70 1_555 1_555
C93 C94 1_555 1_555
C94 C95 1_555 1_555
C95 C96 1_555 1_555
C96 C97 1_555 1_555
C97 C98 1_555 1_555
C98 C99 1_555 1_555
C99 C94 1_555 1_555
C100 C96 1_555 1_555
O25 C100 1_555 1_555
O26 C100 1_555 1_555
O27 C97 1_555 1_555
C101 C66 1_555 1_555
C102 C93 1_555 1_555
C103 C102 1_555 1_555
C104 C103 1_555 1_555
C105 C104 1_555 1_555
C106 C105 1_555 1_555
C107 C102 1_555 1_555
C108 C104 1_555 1_555
O28 C108 1_555 1_555
O29 C108 1_555 1_555
O30 C105 1_555 1_555
C109 C74 1_555 1_555
C110 C111 1_555 1_555
C111 C112 1_555 1_555
C112 C113 1_555 1_555
C113 C114 1_555 1_555
C114 C115 1_555 1_555
C115 C116 1_555 1_555
C116 C111 1_555 1_555
C117 C113 1_555 1_555
O31 C117 1_555 1_555
O32 C117 1_555 1_555
O33 C114 1_555 1_555
C118 C68 1_555 1_555
C119 C110 1_555 1_555
C120 C119 1_555 1_555
C121 C120 1_555 1_555
C122 C121 1_555 1_555
C123 C122 1_555 1_555
C124 C119 1_555 1_555
C125 C121 1_555 1_555
O34 C125 1_555 1_555
O35 C125 1_555 1_555
O36 C122 1_555 1_555
C126 C72 1_555 1_555
H43 C65 1_555 1_555
H44 C67 1_555 1_555
H45 C69 1_555 1_555
H46 C71 1_555 1_555
H47 C73 1_555 1_555
H48 C75 1_555 1_555
H49 C76 1_555 1_555
H50 C76 1_555 1_555
H51 C78 1_555 1_555
H52 C81 1_555 1_555
H53 C82 1_555 1_555
H54 C84 1_555 1_555
H55 C84 1_555 1_555
H56 C86 1_555 1_555
H57 C89 1_555 1_555
H58 C90 1_555 1_555
H59 C92 1_555 1_555
H60 C92 1_555 1_555
H61 C93 1_555 1_555
H62 C93 1_555 1_555
H63 C95 1_555 1_555
H64 C98 1_555 1_555
H65 C99 1_555 1_555
H66 C101 1_555 1_555
H67 C101 1_555 1_555
H68 C103 1_555 1_555
H69 C106 1_555 1_555
H70 C107 1_555 1_555
H71 C109 1_555 1_555
H72 C109 1_555 1_555
H73 C110 1_555 1_555
H74 C110 1_555 1_555
H75 C112 1_555 1_555
H76 C115 1_555 1_555
H77 C116 1_555 1_555
H78 C118 1_555 1_555
H79 C118 1_555 1_555
H80 C120 1_555 1_555
H81 C123 1_555 1_555
H82 C124 1_555 1_555
H83 C126 1_555 1_555
H84 C126 1_555 1_555
O37 C127 1_555 1_555
O38 C128 1_555 1_555
O3 C21 1_555 1_555
C26 C27 1_555 1_555
O6 C29 1_555 1_555
O9 C38 1_555 1_555
C43 C44 1_555 1_555
O12 C46 1_555 1_555
O15 C55 1_555 1_555
C60 C61 1_555 1_555
O18 C63 1_555 1_555
O21 C84 1_555 1_555
C89 C90 1_555 1_555
O24 C92 1_555 1_555
O27 C101 1_555 1_555
C106 C107 1_555 1_555
O30 C109 1_555 1_555
O33 C118 1_555 1_555
C123 C124 1_555 1_555
O36 C126 1_555 1_555

#END
