
#######################################################################
#
#                 Cambridge Crystallographic Data Centre
#                                CCDC 
#
#######################################################################
#
# If this CIF has been generated from an entry in the Cambridge 
# Structural Database, then it will include bibliographic, chemical, 
# crystal, experimental, refinement or atomic coordinate data resulting 
# from the CCDC's data processing and validation procedures.
#
#######################################################################

data_WAJJAS
_chemical_formula_moiety         'C63 H42 O18 6-,4(C1 H4 O1),6(Na1 1+),4(H2 O1)'
_chemical_name_systematic        
'Hexasodium 4,6,12,14,19,21-hexakis(2-carboxylato-p-benza)-1,9-dibenza(1,3,5)-3,7,11,15,18,22-hexaoxabicyclo(7.7.7)tricosane methanol clathrate tetrahydrate'
_symmetry_cell_setting           hexagonal
_symmetry_space_group_name_H-M   'P 63'
_symmetry_Int_Tables_number      173
_space_group_name_Hall           'P 6c'
loop_
_symmetry_equiv_pos_site_id
_symmetry_equiv_pos_as_xyz
1 x,y,z
2 -y,x-y,z
3 -x+y,-x,z
4 -x,-y,1/2+z
5 y,-x+y,1/2+z
6 x-y,x,1/2+z
_cell_length_a                   13.604(6)
_cell_length_b                   13.604(6)
_cell_length_c                   25.36(1)
_cell_angle_alpha                90
_cell_angle_beta                 90
_cell_angle_gamma                120
_cell_volume                     4064.56
_cell_formula_units_Z            2
_exptl_crystal_recrystallization_method methanol/THF
loop_
_atom_site_label
_atom_site_type_symbol
_atom_site_fract_x
_atom_site_fract_y
_atom_site_fract_z
C1 C 0.3535(8) 0.5067(7) -0.0871(3)
C2 C 0.3318(7) 0.4332(7) -0.0393(3)
C3 C 0.3169(6) 0.4690(6) 0.0103(3)
C4 C 0.3025(5) 0.4053(6) 0.0555(3)
C5 C 0.3035(5) 0.3051(5) 0.0520(3)
C6 C 0.3163(7) 0.2663(7) 0.0036(3)
C7 C 0.3301(9) 0.3332(8) -0.0412(4)
C8 C 0.2858(8) 0.4494(7) 0.1084(3)
O1 O 0.2108(12) 0.4760(13) 0.1097(4)
O2 O 0.3510(6) 0.4603(5) 0.1452(2)
O3 O 0.2945(3) 0.2483(3) 0.0989(2)
C9 C 0.2459(6) 0.1274(5) 0.0993(3)
C10 C 0.1179(5) 0.0635(5) 0.0950(2)
C11 C 0.0559(5) 0.1186(5) 0.0950(2)
C12 C 0.2789(7) 0.4499(6) -0.1349(3)
C13 C 0.3250(6) 0.4850(6) -0.1850(3)
C14 C 0.2598(5) 0.4366(5) -0.2306(3)
C15 C 0.1456(5) 0.3533(5) -0.2245(3)
C16 C 0.1002(6) 0.3147(6) -0.1749(3)
C17 C 0.1670(6) 0.3661(7) -0.1311(3)
C18 C 0.3183(5) 0.4785(5) -0.2835(3)
O4 O 0.4161(5) 0.4924(6) -0.2875(3)
O5 O 0.2665(4) 0.4956(5) -0.3195(2)
O6 O 0.0839(4) 0.3076(3) -0.2710(2)
C19 C -0.0202(5) 0.2021(5) -0.2681(3)
C20 C -0.0055(5) 0.0996(5) -0.2647(2)
C21 C 0.0985(5) 0.1055(5) -0.2647(2)
H1 H 0.342 0.571 -0.077
H2 H 0.434 0.537 -0.098
H3 H 0.317 0.542 0.013
H4 H 0.316 0.193 0.000
H5 H 0.339 0.305 -0.076
H6 H 0.278 0.106 0.069
H7 H 0.268 0.105 0.133
H8 H 0.095 0.203 0.095
H9 H 0.406 0.546 -0.189
H10 H 0.020 0.251 -0.171
H11 H 0.133 0.341 -0.095
H12 H -0.063 0.203 -0.236
H13 H -0.066 0.194 -0.300
H14 H 0.170 0.181 -0.265
C11B C 0.0627(7) -0.0559(5) 0.0950(2)
C10A C -0.0635(5) 0.0544(7) 0.0950(2)
C21A C -0.1055(5) -0.0070(7) -0.2647(2)
C20B C 0.1051(7) 0.0055(5) -0.2647(2)
C10B C -0.0544(7) -0.1179(5) 0.0950(2)
H8B H 0.108 -0.095 0.095
C9A C -0.1274(5) 0.1185(8) 0.0993(3)
C11A C -0.1186(5) -0.0627(7) 0.0950(2)
C20A C -0.0996(5) -0.1051(7) -0.2647(2)
H14A H -0.181 -0.011 -0.265
C19B C 0.2223(7) 0.0202(5) -0.2681(3)
C21B C 0.0070(7) -0.0985(5) -0.2647(2)
C9B C -0.1185(8) -0.2459(6) 0.0993(3)
O3A O -0.2483(3) 0.0462(4) 0.0989(2)
H6A H -0.106 0.172 0.069
H7A H -0.105 0.163 0.133
H8A H -0.203 -0.108 0.095
C19A C -0.2021(5) -0.2223(7) -0.2681(3)
O6B O 0.2237(5) -0.0839(4) -0.2710(2)
H12B H 0.266 0.063 -0.236
H13B H 0.260 0.066 -0.300
H14B H 0.011 -0.170 -0.265
O3B O -0.0462(4) -0.2945(3) 0.0989(2)
H6B H -0.172 -0.278 0.069
H7B H -0.163 -0.268 0.133
C5A C -0.3051(5) -0.0016(7) 0.0520(3)
O6A O -0.3076(3) -0.2237(5) -0.2710(2)
H12A H -0.203 -0.266 -0.236
H13A H -0.194 -0.260 -0.300
C15B C 0.2077(7) -0.1456(5) -0.2245(3)
C5B C 0.0016(7) -0.3035(5) 0.0520(3)
C4A C -0.4053(6) -0.1028(8) 0.0555(3)
C6A C -0.2663(7) 0.0500(10) 0.0036(3)
C15A C -0.3533(5) -0.2077(7) -0.2245(3)
C14B C 0.1768(7) -0.2598(5) -0.2306(3)
C16B C 0.2145(8) -0.1002(6) -0.1749(3)
C4B C 0.1028(8) -0.3025(5) 0.0555(3)
C6B C -0.0500(10) -0.3163(7) 0.0036(3)
C3A C -0.4690(6) -0.1521(8) 0.0103(3)
C8A C -0.4494(7) -0.1636(11) 0.1084(3)
C7A C -0.3332(8) -0.0031(12) -0.0412(4)
H4A H -0.193 0.123 0.000
C14A C -0.4366(5) -0.1768(7) -0.2306(3)
C16A C -0.3147(6) -0.2145(8) -0.1749(3)
C13B C 0.1600(8) -0.3250(6) -0.1850(3)
C18B C 0.1602(7) -0.3183(5) -0.2835(3)
C17B C 0.1991(9) -0.1670(6) -0.1311(3)
H10B H 0.231 -0.020 -0.171
C3B C 0.1521(8) -0.3169(6) 0.0103(3)
C8B C 0.1636(11) -0.2858(8) 0.1084(3)
C7B C 0.0031(12) -0.3301(9) -0.0412(4)
H4B H -0.123 -0.316 0.000
C2A C -0.4332(7) -0.1014(10) -0.0393(3)
H3A H -0.542 -0.225 0.013
O1A O -0.4760(13) -0.2652(18) 0.1097(4)
O2A O -0.4603(5) -0.1093(8) 0.1452(2)
H5A H -0.305 0.034 -0.076
C13A C -0.4850(6) -0.1600(8) -0.1850(3)
C18A C -0.4785(5) -0.1602(7) -0.2835(3)
C17A C -0.3661(7) -0.1991(9) -0.1311(3)
H10A H -0.251 -0.231 -0.171
C12B C 0.1710(9) -0.2789(7) -0.1349(3)
H9B H 0.140 -0.406 -0.189
O4B O 0.0763(8) -0.4161(5) -0.2875(3)
O5B O 0.2291(6) -0.2665(4) -0.3195(2)
H11B H 0.208 -0.133 -0.095
C2B C 0.1014(10) -0.3318(7) -0.0393(3)
H3B H 0.225 -0.317 0.013
O1B O 0.2652(18) -0.2108(12) 0.1097(4)
O2B O 0.1093(8) -0.3510(6) 0.1452(2)
H5B H -0.034 -0.339 -0.076
C1A C -0.5067(7) -0.1532(11) -0.0871(3)
C12A C -0.4499(6) -0.1710(9) -0.1349(3)
H9A H -0.546 -0.140 -0.189
O4A O -0.4924(6) -0.0763(8) -0.2875(3)
O5A O -0.4956(5) -0.2291(6) -0.3195(2)
H11A H -0.341 -0.208 -0.095
C1B C 0.1532(11) -0.3535(8) -0.0871(3)
H1A H -0.571 -0.229 -0.077
H2A H -0.537 -0.103 -0.098
H1B H 0.229 -0.342 -0.077
H2B H 0.103 -0.434 -0.098
O7 O 0.6086(9) 0.6274(7) 0.0497(5)
C22 C 0.6310(13) 0.6597(16) -0.0004(7)
O8 O 0.5824(6) 0.4328(8) 0.0899(3)
O9 O 0.1141(32) 0.5109(33) 0.2735(16)
Na1 Na 0.6667 0.3333 0.1283(3)
Na2 Na 0.4444(2) 0.3625(2) 0.1618(1)
Na3 Na 0.4796(12) 0.6320(8) 0.1867(4)
O10? O 0.1011(27) 0.1332(25) 0.4145(13)
C23? C 0.0194(40) 0.0787(36) 0.3851(20)
Na4? Na 0.6667 0.3333 0.0503(17)
loop_
_geom_bond_atom_site_label_1
_geom_bond_atom_site_label_2
_geom_bond_site_symmetry_1
_geom_bond_site_symmetry_2
C1 C2 1_555 1_555
C2 C3 1_555 1_555
C3 C4 1_555 1_555
C4 C5 1_555 1_555
C5 C6 1_555 1_555
C6 C7 1_555 1_555
C7 C2 1_555 1_555
C8 C4 1_555 1_555
O1 C8 1_555 1_555
O2 C8 1_555 1_555
O3 C5 1_555 1_555
C9 O3 1_555 1_555
C10 C9 1_555 1_555
C11 C10 1_555 1_555
C12 C1 1_555 1_555
C13 C12 1_555 1_555
C14 C13 1_555 1_555
C15 C14 1_555 1_555
C16 C15 1_555 1_555
C17 C12 1_555 1_555
C18 C14 1_555 1_555
O4 C18 1_555 1_555
O5 C18 1_555 1_555
O6 C15 1_555 1_555
C19 O6 1_555 1_555
C20 C19 1_555 1_555
C21 C20 1_555 1_555
H1 C1 1_555 1_555
H2 C1 1_555 1_555
H3 C3 1_555 1_555
H4 C6 1_555 1_555
H5 C7 1_555 1_555
H6 C9 1_555 1_555
H7 C9 1_555 1_555
H8 C11 1_555 1_555
H9 C13 1_555 1_555
H10 C16 1_555 1_555
H11 C17 1_555 1_555
H12 C19 1_555 1_555
H13 C19 1_555 1_555
H14 C21 1_555 1_555
O7 C22 1_555 1_555
C11B C10 1_555 1_555
C10A C11 1_555 1_555
C21A C20 1_555 1_555
C20B C21 1_555 1_555
C10B C11B 1_555 1_555
H8B C11B 1_555 1_555
C9A C10A 1_555 1_555
C11A C10A 1_555 1_555
C20A C21A 1_555 1_555
H14A C21A 1_555 1_555
C19B C20B 1_555 1_555
C21B C20B 1_555 1_555
C9B C10B 1_555 1_555
O3A C9A 1_555 1_555
H6A C9A 1_555 1_555
H7A C9A 1_555 1_555
H8A C11A 1_555 1_555
C19A C20A 1_555 1_555
O6B C19B 1_555 1_555
H12B C19B 1_555 1_555
H13B C19B 1_555 1_555
H14B C21B 1_555 1_555
O3B C9B 1_555 1_555
H6B C9B 1_555 1_555
H7B C9B 1_555 1_555
C5A O3A 1_555 1_555
O6A C19A 1_555 1_555
H12A C19A 1_555 1_555
H13A C19A 1_555 1_555
C15B O6B 1_555 1_555
C5B O3B 1_555 1_555
C4A C5A 1_555 1_555
C6A C5A 1_555 1_555
C15A O6A 1_555 1_555
C14B C15B 1_555 1_555
C16B C15B 1_555 1_555
C4B C5B 1_555 1_555
C6B C5B 1_555 1_555
C3A C4A 1_555 1_555
C8A C4A 1_555 1_555
C7A C6A 1_555 1_555
H4A C6A 1_555 1_555
C14A C15A 1_555 1_555
C16A C15A 1_555 1_555
C13B C14B 1_555 1_555
C18B C14B 1_555 1_555
C17B C16B 1_555 1_555
H10B C16B 1_555 1_555
C3B C4B 1_555 1_555
C8B C4B 1_555 1_555
C7B C6B 1_555 1_555
H4B C6B 1_555 1_555
C2A C3A 1_555 1_555
H3A C3A 1_555 1_555
O1A C8A 1_555 1_555
O2A C8A 1_555 1_555
H5A C7A 1_555 1_555
C13A C14A 1_555 1_555
C18A C14A 1_555 1_555
C17A C16A 1_555 1_555
H10A C16A 1_555 1_555
C12B C13B 1_555 1_555
H9B C13B 1_555 1_555
O4B C18B 1_555 1_555
O5B C18B 1_555 1_555
H11B C17B 1_555 1_555
C2B C3B 1_555 1_555
H3B C3B 1_555 1_555
O1B C8B 1_555 1_555
O2B C8B 1_555 1_555
H5B C7B 1_555 1_555
C1A C2A 1_555 1_555
C12A C13A 1_555 1_555
H9A C13A 1_555 1_555
O4A C18A 1_555 1_555
O5A C18A 1_555 1_555
H11A C17A 1_555 1_555
C1B C12B 1_555 1_555
H1A C1A 1_555 1_555
H2A C1A 1_555 1_555
H1B C1B 1_555 1_555
H2B C1B 1_555 1_555
C16 C17 1_555 1_555
C10B C11A 1_555 1_555
C20A C21B 1_555 1_555
C7A C2A 1_555 1_555
C17B C12B 1_555 1_555
C7B C2B 1_555 1_555
C17A C12A 1_555 1_555
C2B C1B 1_555 1_555
C1A C12A 1_555 1_555

#END
