
#######################################################################
#
#                 Cambridge Crystallographic Data Centre
#                                CCDC 
#
#######################################################################
#
# If this CIF has been generated from an entry in the Cambridge 
# Structural Database, then it will include bibliographic, chemical, 
# crystal, experimental, refinement or atomic coordinate data resulting 
# from the CCDC's data processing and validation procedures.
#
#######################################################################

data_WAJRIL
_chemical_formula_moiety         'C26 H21 N3 O3'
_chemical_name_systematic        
1-Benzylidene-5'-methyl-3-(nitromethyl)-2'-phenyl-1,3-dihydrospiro[indene-2,4'-pyrazol]-3'(2'H)-one
_symmetry_cell_setting           monoclinic
_symmetry_space_group_name_H-M   'P 21/n'
_symmetry_Int_Tables_number      14
_space_group_name_Hall           '-P 2yn'
loop_
_symmetry_equiv_pos_site_id
_symmetry_equiv_pos_as_xyz
1 x,y,z
2 1/2-x,1/2+y,1/2-z
3 -x,-y,-z
4 1/2+x,1/2-y,1/2+z
_cell_length_a                   10.2418(7)
_cell_length_b                   11.5290(8)
_cell_length_c                   17.8061(12)
_cell_angle_alpha                90
_cell_angle_beta                 96.440(3)
_cell_angle_gamma                90
_cell_volume                     2089.24
_exptl_crystal_colour            colorless
_exptl_crystal_description       rod-like
_cell_formula_units_Z            4
loop_
_atom_site_label
_atom_site_type_symbol
_atom_site_fract_x
_atom_site_fract_y
_atom_site_fract_z
C1 C 0.30141(13) 1.23903(11) 1.02877(7)
C2 C 0.15687(15) 0.61260(12) 1.04494(7)
C3 C 0.22751(12) 0.97585(11) 1.02340(7)
C4 C 0.07601(13) 0.80359(11) 1.01053(7)
C5 C 0.20176(13) 0.84941(11) 1.02656(6)
C6 C 0.34468(13) 1.35014(11) 1.01709(7)
C7 C 0.27331(12) 1.21081(11) 0.89350(7)
C8 C 0.26680(12) 1.16746(11) 0.96586(7)
C9 C 0.20543(13) 1.00887(10) 0.87903(7)
C10 C 0.08016(13) 0.94001(11) 0.85472(6)
C11 C 0.31763(13) 1.32242(12) 0.88190(7)
C12 C 0.22608(12) 1.04549(11) 0.96312(7)
C13 C 0.09160(17) 0.62747(12) 0.83636(8)
C14 C 0.08859(14) 1.17858(12) 0.79867(7)
C15 C 0.21694(13) 1.12558(11) 0.83363(7)
C16 C 0.35384(14) 1.39232(12) 0.94446(7)
C17 C 0.28248(15) 0.65729(12) 1.06012(9)
C18 C 0.05363(14) 0.68565(12) 1.02015(7)
C19 C 0.04537(14) 0.73516(12) 0.80932(7)
C20 C 0.30501(14) 0.77467(12) 1.05145(8)
C21 C -0.07418(15) 0.74526(15) 0.76510(8)
C22 C -0.1056(2) 0.53903(17) 0.77668(11)
C23 C -0.14990(18) 0.64564(18) 0.74892(10)
C24 C 0.0150(2) 0.52965(15) 0.81934(10)
O1 O -0.03308(9) 0.97015(8) 0.85643(5)
O2 O 0.08243(11) 1.03482(8) 0.70456(5)
O3 O -0.07029(10) 1.16580(9) 0.69558(5)
N1 N 0.02946(11) 1.12073(10) 0.72723(6)
N2 N 0.12250(11) 0.83554(9) 0.82872(6)
N3 N 0.26049(11) 0.82612(9) 0.83509(6)
C25 C 0.45218(14) 0.94208(13) 0.87787(8)
C26 C 0.30890(13) 0.92191(11) 0.86251(6)
H1 H 0.0208(15) 1.1754(12) 0.8311(8)
H2 H 0.2500(15) 1.0129(13) 1.0726(9)
H3 H 0.2944(13) 1.2125(12) 1.0800(8)
H4 H 0.3242(16) 1.3503(13) 0.8301(9)
H5 H 0.2735(14) 1.1137(11) 0.7940(8)
H6 H -0.1020(15) 0.8151(14) 0.7455(9)
H7 H -0.0355(16) 0.6580(12) 1.0096(8)
H8 H 0.1053(14) 1.2611(13) 0.7821(8)
H9 H 0.3717(16) 1.3986(14) 1.0612(9)
H10 H 0.1430(17) 0.5277(16) 1.0519(9)
H11 H 0.3840(16) 1.4751(15) 0.9364(9)
H12 H 0.0011(16) 0.8570(14) 0.9938(9)
H13 H 0.3932(17) 0.8053(14) 1.0625(9)
H14 H 0.182(2) 0.6238(16) 0.8697(11)
H15 H -0.159(2) 0.4679(18) 0.7661(11)
H16 H -0.233(2) 0.6589(15) 0.7199(11)
H17 H 0.3584(18) 0.6067(15) 1.0803(10)
H18 H 0.5005(17) 0.8776(15) 0.8593(9)
H19 H 0.4787(18) 1.0189(15) 0.8533(10)
H20 H 0.4768(17) 0.9462(14) 0.9336(10)
H21 H 0.042(2) 0.452(2) 0.8392(12)
loop_
_geom_bond_atom_site_label_1
_geom_bond_atom_site_label_2
_geom_bond_site_symmetry_1
_geom_bond_site_symmetry_2
C1 C6 1_555 1_555
C2 C17 1_555 1_555
C3 C5 1_555 1_555
C4 C5 1_555 1_555
C5 C20 1_555 1_555
C6 C16 1_555 1_555
C7 C8 1_555 1_555
C8 C1 1_555 1_555
C9 C10 1_555 1_555
C10 O1 1_555 1_555
C11 C7 1_555 1_555
C12 C3 1_555 1_555
C13 C19 1_555 1_555
C14 C15 1_555 1_555
C15 C7 1_555 1_555
C16 C11 1_555 1_555
C17 C20 1_555 1_555
C18 C2 1_555 1_555
C19 C21 1_555 1_555
C20 H13 1_555 1_555
C21 C23 1_555 1_555
C22 C23 1_555 1_555
C23 H16 1_555 1_555
C24 C13 1_555 1_555
O2 N1 1_555 1_555
O3 N1 1_555 1_555
N1 C14 1_555 1_555
N2 C10 1_555 1_555
N3 N2 1_555 1_555
C25 C26 1_555 1_555
C26 C9 1_555 1_555
H1 C14 1_555 1_555
H2 C3 1_555 1_555
H3 C1 1_555 1_555
H4 C11 1_555 1_555
H5 C15 1_555 1_555
H6 C21 1_555 1_555
H7 C18 1_555 1_555
H8 C14 1_555 1_555
H9 C6 1_555 1_555
H10 C2 1_555 1_555
H11 C16 1_555 1_555
H12 C4 1_555 1_555
H14 C13 1_555 1_555
H15 C22 1_555 1_555
H17 C17 1_555 1_555
H18 C25 1_555 1_555
H19 C25 1_555 1_555
H20 C25 1_555 1_555
H21 C24 1_555 1_555
C4 C18 1_555 1_555
C8 C12 1_555 1_555
C9 C12 1_555 1_555
C9 C15 1_555 1_555
C19 N2 1_555 1_555
C22 C24 1_555 1_555
N3 C26 1_555 1_555

#END
