
#######################################################################
#
#                 Cambridge Crystallographic Data Centre
#                                CCDC 
#
#######################################################################
#
# If this CIF has been generated from an entry in the Cambridge 
# Structural Database, then it will include bibliographic, chemical, 
# crystal, experimental, refinement or atomic coordinate data resulting 
# from the CCDC's data processing and validation procedures.
#
#######################################################################

data_WAJVUA
_chemical_formula_moiety         'C12 H8 N4 O3,C7 H6 O3'
_chemical_name_systematic        
"3-Hydroxybenzoic acid 4,4'-(1,3,4-oxadiazole-2,5-diylidene)dipyridin-1(4H)-ol"
_symmetry_cell_setting           monoclinic
_symmetry_space_group_name_H-M   'C c'
_symmetry_Int_Tables_number      9
_space_group_name_Hall           'C -2yc'
loop_
_symmetry_equiv_pos_site_id
_symmetry_equiv_pos_as_xyz
1 x,y,z
2 x,-y,1/2+z
3 1/2+x,1/2+y,z
4 1/2+x,1/2-y,1/2+z
_cell_length_a                   30.724(15)
_cell_length_b                   7.369(4)
_cell_length_c                   20.920(10)
_cell_angle_alpha                90
_cell_angle_beta                 131.282(6)
_cell_angle_gamma                90
_cell_volume                     3559.27
_exptl_crystal_colour            yellow
_exptl_crystal_description       block
_cell_formula_units_Z            8
loop_
_atom_site_label
_atom_site_type_symbol
_atom_site_fract_x
_atom_site_fract_y
_atom_site_fract_z
C1 C 0.2342(2) 0.4214(8) 0.2608(3)
H1 H 0.2114 0.4347 0.2024
C2 C 0.2094(2) 0.3623(8) 0.2922(3)
H2 H 0.1700 0.3355 0.2553
C3 C 0.2431(2) 0.3423(7) 0.3797(3)
C4 C 0.3006(2) 0.3851(7) 0.4307(3)
H3 H 0.3244 0.3726 0.4893
C5 C 0.3236(2) 0.4452(8) 0.3974(3)
H4 H 0.3626 0.4764 0.4334
C6 C 0.2171(2) 0.2742(7) 0.4139(3)
C7 C 0.2135(2) 0.1806(7) 0.5047(3)
C8 C 0.2349(2) 0.1284(7) 0.5891(3)
C9 C 0.1966(2) 0.0765(8) 0.5987(3)
H5 H 0.1571 0.0763 0.5519
C10 C 0.2163(3) 0.0246(8) 0.6774(4)
H6 H 0.1900 -0.0116 0.6830
C11 C 0.3118(2) 0.0780(7) 0.7375(3)
H7 H 0.3513 0.0802 0.7847
C12 C 0.2925(2) 0.1269(7) 0.6596(3)
H8 H 0.3193 0.1600 0.6544
N1 N 0.16366(18) 0.2354(6) 0.3729(2)
N2 N 0.16146(18) 0.1748(6) 0.4341(3)
N3 N 0.2736(2) 0.0261(6) 0.7462(3)
N4 N 0.2905(2) 0.4603(6) 0.3128(3)
O1 O 0.25185(13) 0.2424(5) 0.49885(19)
O2 O 0.29248(19) -0.0254(6) 0.8205(2)
O3 O 0.31435(17) 0.5129(6) 0.2813(2)
C13 C 0.2336(2) 0.6273(8) 0.5769(3)
C14 C 0.2246(2) 0.6929(7) 0.5020(3)
C15 C 0.1688(2) 0.6816(8) 0.4231(4)
H9 H 0.1387 0.6354 0.4184
C16 C 0.1589(3) 0.7401(9) 0.3518(3)
H10 H 0.1218 0.7306 0.2989
C17 C 0.2028(3) 0.8130(8) 0.3568(3)
H11 H 0.1954 0.8522 0.3082
C18 C 0.2567(2) 0.8253(7) 0.4345(3)
C19 C 0.2684(2) 0.7639(7) 0.5080(3)
H12 H 0.3057 0.7715 0.5606
O10 O 0.19606(16) 0.5679(6) 0.5742(2)
O11 O 0.28874(15) 0.6354(6) 0.6495(2)
H27 H 0.2912 0.5986 0.6888
O12 O 0.30204(17) 0.8899(7) 0.4442(2)
H28 H 0.2912 0.9162 0.3975
C20 C 0.4154(2) 0.4314(7) 0.2237(3)
H13 H 0.3755 0.4365 0.1793
C21 C 0.4377(2) 0.3852(7) 0.3041(3)
H14 H 0.4128 0.3589 0.3137
C22 C 0.4965(2) 0.3779(7) 0.3700(3)
C23 C 0.5323(2) 0.4160(7) 0.3534(3)
H15 H 0.5723 0.4129 0.3968
C24 C 0.5075(2) 0.4584(8) 0.2720(3)
H16 H 0.5314 0.4809 0.2603
C25 C 0.5214(2) 0.3369(7) 0.4558(3)
C26 C 0.5241(2) 0.2511(7) 0.5556(3)
C27 C 0.5024(2) 0.1802(7) 0.5958(3)
C28 C 0.5386(2) 0.1779(8) 0.6829(3)
H17 H 0.5760 0.2237 0.7155
C29 C 0.5203(2) 0.1095(8) 0.7216(3)
H18 H 0.5456 0.1073 0.7806
C30 C 0.4299(2) 0.0431(8) 0.5905(3)
H19 H 0.3927 -0.0031 0.5593
C31 C 0.4472(2) 0.1094(7) 0.5486(3)
H20 H 0.4221 0.1065 0.4895
N5 N 0.57457(17) 0.3567(6) 0.5260(3)
N6 N 0.57625(17) 0.3002(6) 0.5921(2)
N7 N 0.4662(2) 0.0444(6) 0.6760(3)
N8 N 0.45029(19) 0.4688(6) 0.2088(3)
O4 O 0.48639(14) 0.2716(5) 0.46974(18)
O5 O 0.44938(19) -0.0251(6) 0.7141(2)
O6 O 0.42768(16) 0.5197(6) 0.1314(2)
C32 C 0.4809(2) 0.1663(7) 0.8935(3)
C33 C 0.5343(3) 0.1059(7) 0.9302(4)
H21 H 0.5417 0.0586 0.8969
C34 C 0.5786(3) 0.1149(8) 1.0188(4)
H22 H 0.6155 0.0727 1.0446
C35 C 0.5676(2) 0.1859(8) 1.0674(4)
H23 H 0.5972 0.1919 1.1261
C36 C 0.5127(2) 0.2490(7) 1.0297(3)
C37 C 0.4693(2) 0.2411(7) 0.9427(3)
H24 H 0.4326 0.2850 0.9166
C38 C 0.5024(2) 0.3202(7) 1.0850(3)
O7 O 0.45012(15) 0.3858(6) 1.0428(2)
H25 H 0.4471 0.4251 1.0764
O8 O 0.53808(18) 0.3180(6) 1.1611(2)
O9 O 0.43655(16) 0.1588(6) 0.8079(2)
H26 H 0.4470 0.1034 0.7861
loop_
_geom_bond_atom_site_label_1
_geom_bond_atom_site_label_2
_geom_bond_site_symmetry_1
_geom_bond_site_symmetry_2
C1 H1 1_555 1_555
C2 C1 1_555 1_555
H2 C2 1_555 1_555
C3 C2 1_555 1_555
C4 C3 1_555 1_555
H3 C4 1_555 1_555
C5 C4 1_555 1_555
H4 C5 1_555 1_555
C6 C3 1_555 1_555
C7 C8 1_555 1_555
C8 C9 1_555 1_555
C9 H5 1_555 1_555
C10 C9 1_555 1_555
H6 C10 1_555 1_555
C11 H7 1_555 1_555
C12 C8 1_555 1_555
H8 C12 1_555 1_555
C13 C14 1_555 1_555
C14 C15 1_555 1_555
C15 H9 1_555 1_555
C16 C15 1_555 1_555
H10 C16 1_555 1_555
C17 C16 1_555 1_555
H11 C17 1_555 1_555
C18 C17 1_555 1_555
C19 C14 1_555 1_555
H12 C19 1_555 1_555
C20 H13 1_555 1_555
C21 C20 1_555 1_555
H14 C21 1_555 1_555
C22 C21 1_555 1_555
C23 C22 1_555 1_555
H15 C23 1_555 1_555
C24 C23 1_555 1_555
H16 C24 1_555 1_555
C25 C22 1_555 1_555
C26 C27 1_555 1_555
C27 C28 1_555 1_555
C28 H17 1_555 1_555
C29 C28 1_555 1_555
H18 C29 1_555 1_555
C30 H19 1_555 1_555
C31 C27 1_555 1_555
H20 C31 1_555 1_555
C32 C33 1_555 1_555
C33 H21 1_555 1_555
C34 C33 1_555 1_555
H22 C34 1_555 1_555
C35 C34 1_555 1_555
H23 C35 1_555 1_555
C36 C35 1_555 1_555
C37 C32 1_555 1_555
H24 C37 1_555 1_555
C38 C36 1_555 1_555
N1 C6 1_555 1_555
N2 C7 1_555 1_555
N3 C10 1_555 1_555
N4 C1 1_555 1_555
N5 C25 1_555 1_555
N6 C26 1_555 1_555
N7 C29 1_555 1_555
N8 C20 1_555 1_555
O1 C6 1_555 1_555
O2 N3 1_555 1_555
O3 N4 1_555 1_555
O4 C25 1_555 1_555
O5 N7 1_555 1_555
O6 N8 1_555 1_555
O7 C38 1_555 1_555
H25 O7 1_555 1_555
O8 C38 1_555 1_555
O9 C32 1_555 1_555
H26 O9 1_555 1_555
O10 C13 1_555 1_555
O11 C13 1_555 1_555
H27 O11 1_555 1_555
O12 C18 1_555 1_555
H28 O12 1_555 1_555
C5 N4 1_555 1_555
C7 O1 1_555 1_555
C11 C12 1_555 1_555
C11 N3 1_555 1_555
C18 C19 1_555 1_555
C24 N8 1_555 1_555
C26 O4 1_555 1_555
C30 C31 1_555 1_555
C30 N7 1_555 1_555
C36 C37 1_555 1_555
N1 N2 1_555 1_555
N5 N6 1_555 1_555

#END
