
#######################################################################
#
#                 Cambridge Crystallographic Data Centre
#                                CCDC 
#
#######################################################################
#
# If this CIF has been generated from an entry in the Cambridge 
# Structural Database, then it will include bibliographic, chemical, 
# crystal, experimental, refinement or atomic coordinate data resulting 
# from the CCDC's data processing and validation procedures.
#
#######################################################################

data_WAJWOV
_chemical_formula_moiety         'C12 H8 N4 O2,C6 H6 O3,H2 O1'
_chemical_name_systematic        
'4-(5-(Pyridin-4-yl)-1,3,4-oxadiazol-2-yl)-1\l^5^-pyridin-1-ol benzene-1,3,5-triol monohydrate'
_symmetry_cell_setting           monoclinic
_symmetry_space_group_name_H-M   'P 21/n'
_symmetry_Int_Tables_number      14
_space_group_name_Hall           '-P 2yn'
loop_
_symmetry_equiv_pos_site_id
_symmetry_equiv_pos_as_xyz
1 x,y,z
2 1/2-x,1/2+y,1/2-z
3 -x,-y,-z
4 1/2+x,1/2-y,1/2+z
_cell_length_a                   9.4118(18)
_cell_length_b                   7.0994(14)
_cell_length_c                   26.666(5)
_cell_angle_alpha                90
_cell_angle_beta                 95.805(3)
_cell_angle_gamma                90
_cell_volume                     1772.64
_exptl_crystal_colour            yellow
_exptl_crystal_description       block
_cell_formula_units_Z            4
loop_
_atom_site_label
_atom_site_type_symbol
_atom_site_fract_x
_atom_site_fract_y
_atom_site_fract_z
C1 C 1.2488(2) 0.6173(4) 0.04359(9)
H1 H 1.3042 0.6035 0.0169
C2 C 1.1139(2) 0.6931(4) 0.03384(8)
H2 H 1.0798 0.7302 0.0014
C3 C 1.0308(2) 0.7126(3) 0.07313(7)
C4 C 1.0864(2) 0.6577(3) 0.12069(8)
H3 H 1.0333 0.6699 0.1481
C5 C 1.2227(2) 0.5843(3) 0.12654(9)
H4 H 1.2600 0.5475 0.1587
C6 C 0.8874(2) 0.7899(3) 0.06331(7)
C7 C 0.68323(19) 0.8836(3) 0.07880(7)
C8 C 0.56738(18) 0.9296(3) 0.10872(7)
C9 C 0.44527(19) 1.0160(3) 0.08585(7)
H5 H 0.4370 1.0411 0.0514
C10 C 0.3377(2) 1.0638(3) 0.11391(7)
H6 H 0.2557 1.1212 0.0985
C11 C 0.4656(2) 0.9432(3) 0.18641(7)
H7 H 0.4711 0.9187 0.2208
C12 C 0.5761(2) 0.8917(3) 0.15975(7)
H8 H 0.6561 0.8320 0.1758
N1 N 0.82219(18) 0.8411(3) 0.02072(6)
N2 N 0.68716(17) 0.9035(3) 0.03121(6)
N3 N 1.30362(17) 0.5631(3) 0.08904(7)
N4 N 0.34911(16) 1.0288(2) 0.16343(6)
O1 O 0.80628(12) 0.81199(18) 0.10215(4)
O2 O 0.24579(14) 1.0828(2) 0.19116(5)
C13 C 0.66595(19) 0.3928(3) 0.11533(7)
C14 C 0.6267(2) 0.3805(3) 0.16352(7)
H9 H 0.5394 0.4281 0.1711
C15 C 0.7189(2) 0.2964(3) 0.20048(7)
C16 C 0.8506(2) 0.2284(3) 0.18995(8)
H10 H 0.9125 0.1729 0.2151
C17 C 0.8880(2) 0.2444(3) 0.14172(8)
C18 C 0.7970(2) 0.3259(3) 0.10433(8)
H11 H 0.8236 0.3360 0.0718
O3 O 0.58090(15) 0.4707(2) 0.07672(6)
H12 H 0.4999 0.4834 0.0850
O4 O 1.01371(15) 0.1772(3) 0.12712(6)
H13 H 1.0677 0.1499 0.1521
O5 O 0.68329(16) 0.2731(3) 0.24848(5)
H14 H 0.5998 0.3041 0.2498
O6 O 0.10296(18) 0.8426(3) 0.24801(7)
H15 H 0.1542 0.9073 0.2264
H16 H 0.1707 0.7746 0.2655
loop_
_geom_bond_atom_site_label_1
_geom_bond_atom_site_label_2
_geom_bond_site_symmetry_1
_geom_bond_site_symmetry_2
C1 H1 1_555 1_555
C2 C1 1_555 1_555
H2 C2 1_555 1_555
C3 C2 1_555 1_555
C4 C3 1_555 1_555
H3 C4 1_555 1_555
C5 C4 1_555 1_555
H4 C5 1_555 1_555
C6 C3 1_555 1_555
C7 C8 1_555 1_555
C8 C9 1_555 1_555
C9 H5 1_555 1_555
C10 C9 1_555 1_555
H6 C10 1_555 1_555
C11 H7 1_555 1_555
C12 C8 1_555 1_555
H8 C12 1_555 1_555
C13 C14 1_555 1_555
C14 H9 1_555 1_555
C15 C14 1_555 1_555
C16 C15 1_555 1_555
H10 C16 1_555 1_555
C17 C16 1_555 1_555
C18 C13 1_555 1_555
H11 C18 1_555 1_555
N1 C6 1_555 1_555
N2 C7 1_555 1_555
N3 C1 1_555 1_555
N4 C10 1_555 1_555
O1 C6 1_555 1_555
O2 N4 1_555 1_555
O3 C13 1_555 1_555
H12 O3 1_555 1_555
O4 C17 1_555 1_555
H13 O4 1_555 1_555
O5 C15 1_555 1_555
H14 O5 1_555 1_555
O6 H15 1_555 1_555
H16 O6 1_555 1_555
C5 N3 1_555 1_555
C7 O1 1_555 1_555
C11 C12 1_555 1_555
C11 N4 1_555 1_555
C17 C18 1_555 1_555
N1 N2 1_555 1_555

#END
