
#######################################################################
#
#                 Cambridge Crystallographic Data Centre
#                                CCDC 
#
#######################################################################
#
# If this CIF has been generated from an entry in the Cambridge 
# Structural Database, then it will include bibliographic, chemical, 
# crystal, experimental, refinement or atomic coordinate data resulting 
# from the CCDC's data processing and validation procedures.
#
#######################################################################

data_WAJWIP
_chemical_formula_moiety         'C12 H8 N4 O3,C6 H6 O3,0.5(H2 O1)'
_chemical_name_systematic        
"4,4'-(1,3,4-Oxadiazole-2,5-diylidene)dipyridin-1(4H)-ol benzene-1,3,5-triol hemihydrate"
_symmetry_cell_setting           monoclinic
_symmetry_space_group_name_H-M   'P 21/c'
_symmetry_Int_Tables_number      14
_space_group_name_Hall           '-P 2ybc'
loop_
_symmetry_equiv_pos_site_id
_symmetry_equiv_pos_as_xyz
1 x,y,z
2 -x,1/2+y,1/2-z
3 -x,-y,-z
4 x,1/2-y,1/2+z
_cell_length_a                   11.449(5)
_cell_length_b                   7.804(3)
_cell_length_c                   38.548(15)
_cell_angle_alpha                90
_cell_angle_beta                 97.216(6)
_cell_angle_gamma                90
_cell_volume                     3416.91
_exptl_crystal_colour            yellow
_exptl_crystal_description       planar
_cell_formula_units_Z            8
loop_
_atom_site_label
_atom_site_type_symbol
_atom_site_fract_x
_atom_site_fract_y
_atom_site_fract_z
C1 C 0.0913(2) 0.8480(3) 0.52415(6)
H1 H 0.0770 0.8335 0.5472
C2 C 0.0343(2) 0.7488(3) 0.49867(5)
H2 H -0.0198 0.6677 0.5042
C3 C 0.0563(2) 0.7672(3) 0.46418(5)
C4 C 0.1370(2) 0.8878(3) 0.45708(6)
H3 H 0.1544 0.9018 0.4343
C5 C 0.1919(2) 0.9873(4) 0.48340(7)
H4 H 0.2460 1.0696 0.4784
C6 C -0.0063(2) 0.6594(3) 0.43744(5)
C7 C -0.06135(19) 0.5591(3) 0.38699(5)
C8 C -0.06451(19) 0.5412(3) 0.34954(5)
C9 C 0.0031(2) 0.6437(3) 0.33108(5)
H5 H 0.0520 0.7263 0.3426
C10 C -0.0017(2) 0.6243(3) 0.29571(6)
H6 H 0.0429 0.6953 0.2831
C11 C -0.1377(2) 0.4020(3) 0.29635(6)
H7 H -0.1855 0.3196 0.2843
C12 C -0.1362(2) 0.4195(3) 0.33158(5)
H8 H -0.1834 0.3496 0.3435
N1 N -0.07064(18) 0.5030(2) 0.27906(4)
N2 N -0.11854(17) 0.4757(2) 0.40802(5)
N3 N -0.08154(18) 0.5419(2) 0.44135(4)
N4 N 0.16843(19) 0.9673(3) 0.51632(5)
O1 O 0.01242(13) 0.67858(18) 0.40364(3)
O2 O -0.07122(16) 0.4823(2) 0.24466(4)
O3 O 0.2179(2) 1.0668(3) 0.54110(5)
C13 C 0.27068(19) 0.3580(3) 0.15746(5)
C14 C 0.33161(19) 0.2416(3) 0.18014(5)
H9 H 0.3215 0.2392 0.2037
C15 C 0.4080(2) 0.1289(3) 0.16676(6)
C16 C 0.4244(2) 0.1330(3) 0.13197(6)
H10 H 0.4764 0.0573 0.1233
C17 C 0.3630(2) 0.2508(3) 0.11017(5)
C18 C 0.28498(19) 0.3637(3) 0.12255(5)
H11 H 0.2430 0.4420 0.1076
O4 O 0.38460(16) 0.2538(2) 0.07613(4)
H12 H 0.3365 0.3162 0.0647
O5 O 0.19288(15) 0.4734(2) 0.16855(4)
H13 H 0.1975 0.4706 0.1899
O6 O 0.47212(16) 0.0121(2) 0.18720(4)
H14 H 0.4441 0.0007 0.2056
C19 C 0.3058(2) 0.9603(3) 0.02092(6)
H15 H 0.2482 1.0360 0.0264
C20 C 0.3668(2) 0.8653(3) 0.04678(6)
H16 H 0.3501 0.8762 0.0697
C21 C 0.4529(2) 0.7534(3) 0.03916(5)
C22 C 0.4743(2) 0.7429(3) 0.00458(5)
H17 H 0.5325 0.6695 -0.0014
C23 C 0.4114(2) 0.8382(3) -0.02051(5)
H18 H 0.4263 0.8289 -0.0436
C24 C 0.5195(2) 0.6472(3) 0.06533(5)
C25 C 0.57584(19) 0.5351(3) 0.11477(5)
C26 C 0.58112(19) 0.5025(3) 0.15202(5)
C27 C 0.5227(2) 0.6018(3) 0.17360(6)
H19 H 0.4769 0.6934 0.1644
C28 C 0.5315(2) 0.5665(3) 0.20872(6)
H20 H 0.4919 0.6346 0.2232
C29 C 0.6551(2) 0.3356(3) 0.20164(6)
H21 H 0.7005 0.2446 0.2114
C30 C 0.6486(2) 0.3671(3) 0.16666(6)
H22 H 0.6893 0.2978 0.1526
N5 N 0.59682(18) 0.4344(2) 0.22218(4)
N6 N 0.63650(18) 0.4639(2) 0.09306(5)
N7 N 0.59929(18) 0.5377(2) 0.06047(5)
N8 N 0.32719(16) 0.9466(2) -0.01223(4)
O7 O 0.49895(13) 0.65420(18) 0.09938(3)
O8 O 0.60459(17) 0.3967(2) 0.25566(4)
O9 O 0.26575(16) 1.0394(2) -0.03639(4)
C31 C 0.1805(2) 0.2466(3) 0.32205(5)
C32 C 0.2508(2) 0.3589(3) 0.34295(5)
H23 H 0.3080 0.4232 0.3338
C33 C 0.2348(2) 0.3744(3) 0.37778(6)
C34 C 0.1492(2) 0.2811(3) 0.39166(5)
H24 H 0.1390 0.2921 0.4151
C35 C 0.0793(2) 0.1713(3) 0.37006(6)
C36 C 0.0948(2) 0.1512(3) 0.33529(5)
H25 H 0.0483 0.0747 0.3211
O10 O 0.30645(16) 0.4852(2) 0.39744(4)
H26 H 0.2933 0.4800 0.4178
O11 O -0.00670(16) 0.0847(2) 0.38446(4)
H27 H -0.0524 0.0409 0.3689
O12 O 0.19978(15) 0.2312(2) 0.28792(4)
H28 H 0.1573 0.1557 0.2785
O13 O 0.16735(19) 0.4891(2) 0.23659(4)
H29 H 0.1704 0.4114 0.2532
H30 H 0.2437 0.5193 0.2428
loop_
_geom_bond_atom_site_label_1
_geom_bond_atom_site_label_2
_geom_bond_site_symmetry_1
_geom_bond_site_symmetry_2
C1 H1 1_555 1_555
C2 C1 1_555 1_555
H2 C2 1_555 1_555
C3 C2 1_555 1_555
C4 C3 1_555 1_555
H3 C4 1_555 1_555
C5 C4 1_555 1_555
H4 C5 1_555 1_555
C6 C3 1_555 1_555
C7 C8 1_555 1_555
C8 C9 1_555 1_555
C9 H5 1_555 1_555
C10 C9 1_555 1_555
H6 C10 1_555 1_555
C11 H7 1_555 1_555
C12 C8 1_555 1_555
H8 C12 1_555 1_555
N1 C10 1_555 1_555
N2 C7 1_555 1_555
N3 C6 1_555 1_555
N4 C1 1_555 1_555
O1 C6 1_555 1_555
O2 N1 1_555 1_555
O3 N4 1_555 1_555
C13 C14 1_555 1_555
C14 H9 1_555 1_555
C15 C14 1_555 1_555
C16 C15 1_555 1_555
H10 C16 1_555 1_555
C17 C16 1_555 1_555
C18 C13 1_555 1_555
H11 C18 1_555 1_555
O4 C17 1_555 1_555
H12 O4 1_555 1_555
O5 C13 1_555 1_555
H13 O5 1_555 1_555
O6 C15 1_555 1_555
H14 O6 1_555 1_555
C19 H15 1_555 1_555
C20 C19 1_555 1_555
H16 C20 1_555 1_555
C21 C20 1_555 1_555
C22 C21 1_555 1_555
H17 C22 1_555 1_555
C23 C22 1_555 1_555
H18 C23 1_555 1_555
C24 C21 1_555 1_555
C25 C26 1_555 1_555
C26 C27 1_555 1_555
C27 H19 1_555 1_555
C28 C27 1_555 1_555
H20 C28 1_555 1_555
C29 H21 1_555 1_555
C30 C26 1_555 1_555
H22 C30 1_555 1_555
N5 C28 1_555 1_555
N6 C25 1_555 1_555
N7 C24 1_555 1_555
N8 C19 1_555 1_555
O7 C24 1_555 1_555
O8 N5 1_555 1_555
O9 N8 1_555 1_555
C31 C32 1_555 1_555
C32 H23 1_555 1_555
C33 C32 1_555 1_555
C34 C33 1_555 1_555
H24 C34 1_555 1_555
C35 C34 1_555 1_555
C36 C31 1_555 1_555
H25 C36 1_555 1_555
O10 C33 1_555 1_555
H26 O10 1_555 1_555
O11 C35 1_555 1_555
H27 O11 1_555 1_555
O12 C31 1_555 1_555
H28 O12 1_555 1_555
O13 H29 1_555 1_555
H30 O13 1_555 1_555
C5 N4 1_555 1_555
C7 O1 1_555 1_555
C11 C12 1_555 1_555
C11 N1 1_555 1_555
N2 N3 1_555 1_555
C17 C18 1_555 1_555
C23 N8 1_555 1_555
C25 O7 1_555 1_555
C29 C30 1_555 1_555
C29 N5 1_555 1_555
N6 N7 1_555 1_555
C35 C36 1_555 1_555

#END
