
#######################################################################
#
#                 Cambridge Crystallographic Data Centre
#                                CCDC 
#
#######################################################################
#
# If this CIF has been generated from an entry in the Cambridge 
# Structural Database, then it will include bibliographic, chemical, 
# crystal, experimental, refinement or atomic coordinate data resulting 
# from the CCDC's data processing and validation procedures.
#
#######################################################################

data_WAJWAG
_chemical_formula_moiety         'C24 H21 N3 O2'
_chemical_name_systematic        
4-((Z)-(4-Methoxyanilino)phenylmethylene)-5-methyl-2-phenyl-2H-pyrazol-3(4H)-one
_symmetry_cell_setting           triclinic
_symmetry_space_group_name_H-M   'P -1'
_symmetry_Int_Tables_number      2
_space_group_name_Hall           '-P 1'
loop_
_symmetry_equiv_pos_site_id
_symmetry_equiv_pos_as_xyz
1 x,y,z
2 -x,-y,-z
_cell_length_a                   6.8262(9)
_cell_length_b                   10.9510(10)
_cell_length_c                   14.7610(10)
_cell_angle_alpha                97.259(2)
_cell_angle_beta                 103.386(2)
_cell_angle_gamma                106.018(2)
_cell_volume                     1010.21
_exptl_crystal_colour            yellow
_exptl_crystal_description       block
_cell_formula_units_Z            2
_exptl_crystal_recrystallization_method ethanol
loop_
_atom_site_label
_atom_site_type_symbol
_atom_site_fract_x
_atom_site_fract_y
_atom_site_fract_z
O1 O 0.5354(2) 0.60410(10) 0.75030(10)
O2 O 1.1065(2) 0.28800(10) 0.42060(10)
N1 N 0.3569(2) 0.52930(10) 0.85970(10)
N2 N 0.2916(2) 0.41350(10) 0.89100(10)
N3 N 0.6537(2) 0.41130(10) 0.66700(10)
C1 C 0.2788(2) 0.63130(10) 0.88640(10)
C2 C 0.3840(3) 0.75730(10) 0.88270(10)
C3 C 0.3027(4) 0.8552(2) 0.90820(10)
C4 C 0.1207(4) 0.8285(2) 0.93730(10)
C5 C 0.0179(3) 0.7033(2) 0.94140(10)
C6 C 0.0961(3) 0.6041(2) 0.91590(10)
C7 C 0.4706(2) 0.51970(10) 0.79490(10)
C8 C 0.4872(2) 0.39050(10) 0.78900(10)
C9 C 0.3697(2) 0.33310(10) 0.85020(10)
C10 C 0.3232(3) 0.19930(10) 0.86970(10)
C11 C 0.5816(2) 0.33990(10) 0.72590(10)
C12 C 0.5937(2) 0.20590(10) 0.71740(10)
C13 C 0.7182(2) 0.1699(2) 0.79030(10)
C14 C 0.7220(3) 0.0435(2) 0.7806(2)
C15 C 0.6023(3) -0.0462(2) 0.6993(2)
C16 C 0.4808(3) -0.0109(2) 0.62630(10)
C17 C 0.4764(2) 0.11510(10) 0.63440(10)
C18 C 0.7670(2) 0.37830(10) 0.60260(10)
C19 C 0.9546(2) 0.35200(10) 0.63540(10)
C20 C 1.0618(2) 0.3212(2) 0.57230(10)
C21 C 0.9851(2) 0.31740(10) 0.47650(10)
C22 C 0.7992(2) 0.34550(10) 0.44340(10)
C23 C 0.6906(2) 0.37510(10) 0.50710(10)
C24 C 1.0161(3) 0.2602(2) 0.32080(10)
H1 H 0.635(3) 0.4870(10) 0.6750(10)
H2 H 0.5075 0.7761 0.8633
H3 H 0.3721 0.9401 0.9056
H4 H 0.0676 0.8949 0.9542
H5 H -0.1048 0.6850 0.9613
H6 H 0.0261 0.5194 0.9187
H7 H 0.2271 0.1879 0.9085
H8 H 0.4528 0.1867 0.9024
H9 H 0.2597 0.1372 0.8106
H10 H 0.7992 0.2304 0.8457
H11 H 0.8062 0.0191 0.8296
H12 H 0.6038 -0.1314 0.6938
H13 H 0.4010 -0.0719 0.5710
H14 H 0.3950 0.1393 0.5843
H15 H 1.0080 0.3550 0.6998
H16 H 1.1874 0.3028 0.5944
H17 H 0.7477 0.3446 0.3791
H18 H 0.5644 0.3930 0.4851
H19 H 0.8893 0.1869 0.3035
H20 H 1.1159 0.2408 0.2896
H21 H 0.9820 0.3341 0.3016
loop_
_geom_bond_atom_site_label_1
_geom_bond_atom_site_label_2
_geom_bond_site_symmetry_1
_geom_bond_site_symmetry_2
O1 C7 1_555 1_555
O2 C21 1_555 1_555
N1 N2 1_555 1_555
N2 C9 1_555 1_555
N3 C11 1_555 1_555
C1 N1 1_555 1_555
C2 C1 1_555 1_555
C3 C2 1_555 1_555
C4 C3 1_555 1_555
C5 C4 1_555 1_555
C6 C1 1_555 1_555
C7 N1 1_555 1_555
C8 C7 1_555 1_555
C9 C8 1_555 1_555
C10 C9 1_555 1_555
C11 C8 1_555 1_555
C12 C11 1_555 1_555
C13 C12 1_555 1_555
C14 C13 1_555 1_555
C15 C14 1_555 1_555
C16 C15 1_555 1_555
C17 C12 1_555 1_555
C18 N3 1_555 1_555
C19 C18 1_555 1_555
C20 C19 1_555 1_555
C21 C20 1_555 1_555
C22 C21 1_555 1_555
C23 C18 1_555 1_555
C24 O2 1_555 1_555
H1 N3 1_555 1_555
H2 C2 1_555 1_555
H3 C3 1_555 1_555
H4 C4 1_555 1_555
H5 C5 1_555 1_555
H6 C6 1_555 1_555
H7 C10 1_555 1_555
H8 C10 1_555 1_555
H9 C10 1_555 1_555
H10 C13 1_555 1_555
H11 C14 1_555 1_555
H12 C15 1_555 1_555
H13 C16 1_555 1_555
H14 C17 1_555 1_555
H15 C19 1_555 1_555
H16 C20 1_555 1_555
H17 C22 1_555 1_555
H18 C23 1_555 1_555
H19 C24 1_555 1_555
H20 C24 1_555 1_555
H21 C24 1_555 1_555
C5 C6 1_555 1_555
C16 C17 1_555 1_555
C22 C23 1_555 1_555

#END
