
#######################################################################
#
#                 Cambridge Crystallographic Data Centre
#                                CCDC 
#
#######################################################################
#
# If this CIF has been generated from an entry in the Cambridge 
# Structural Database, then it will include bibliographic, chemical, 
# crystal, experimental, refinement or atomic coordinate data resulting 
# from the CCDC's data processing and validation procedures.
#
#######################################################################

data_WAJXEM
_chemical_formula_moiety         'C12 H8 N4 O3'
_chemical_name_systematic        
4,4'-(1,3,4-Oxadiazole-2,5-diylidene)dipyridin-1(4H)-ol
_symmetry_cell_setting           orthorhombic
_symmetry_space_group_name_H-M   'P b c n'
_symmetry_Int_Tables_number      60
_space_group_name_Hall           '-P 2n 2ab'
loop_
_symmetry_equiv_pos_site_id
_symmetry_equiv_pos_as_xyz
1 x,y,z
2 1/2-x,1/2-y,1/2+z
3 -x,y,1/2-z
4 1/2+x,1/2-y,-z
5 -x,-y,-z
6 1/2+x,1/2+y,1/2-z
7 x,-y,1/2+z
8 1/2-x,1/2+y,z
_cell_length_a                   5.5420(17)
_cell_length_b                   12.465(4)
_cell_length_c                   16.069(5)
_cell_angle_alpha                90
_cell_angle_beta                 90
_cell_angle_gamma                90
_cell_volume                     1110.06
_exptl_crystal_colour            yellow
_exptl_crystal_description       block
_cell_formula_units_Z            4
loop_
_atom_site_label
_atom_site_type_symbol
_atom_site_fract_x
_atom_site_fract_y
_atom_site_fract_z
C1 C 0.6953(5) 1.0077(2) 0.42568(16)
H1 H 0.8063 1.0527 0.4514
C2 C 0.5117(5) 1.0505(2) 0.38046(15)
H2 H 0.4984 1.1246 0.3756
C3 C 0.3430(4) 0.98435(18) 0.34127(15)
C4 C 0.1516(5) 1.02901(18) 0.29127(15)
C5 C 0.3682(5) 0.8749(2) 0.35158(17)
H3 H 0.2580 0.8286 0.3268
C6 C 0.5540(5) 0.8338(2) 0.39802(16)
H4 H 0.5669 0.7599 0.4051
N1 N 0.0994(4) 1.12810(15) 0.27676(13)
N2 N 0.7182(4) 0.89912(18) 0.43359(14)
O1 O 0.0000 0.96033(17) 0.2500
O2 O 0.8947(4) 0.85867(16) 0.47622(13)
C1B C -0.6953(5) 1.0077(2) 0.07432(16)
H1B H -0.8063 1.0527 0.0486
C2B C -0.5117(5) 1.0505(2) 0.11954(15)
H2B H -0.4984 1.1246 0.1244
C3B C -0.3430(4) 0.98435(18) 0.15873(15)
C4B C -0.1516(5) 1.02901(18) 0.20873(15)
C5B C -0.3682(5) 0.8749(2) 0.14842(17)
H3B H -0.2580 0.8286 0.1732
C6B C -0.5540(5) 0.8338(2) 0.10198(16)
H4B H -0.5669 0.7599 0.0949
N1B N -0.0994(4) 1.12810(15) 0.22324(13)
N2B N -0.7182(4) 0.89912(18) 0.06641(14)
O2B O -0.8947(4) 0.85867(16) 0.02378(13)
loop_
_geom_bond_atom_site_label_1
_geom_bond_atom_site_label_2
_geom_bond_site_symmetry_1
_geom_bond_site_symmetry_2
C1 H1 1_555 1_555
C2 C1 1_555 1_555
H2 C2 1_555 1_555
C3 C2 1_555 1_555
C4 C3 1_555 1_555
C5 C3 1_555 1_555
H3 C5 1_555 1_555
C6 C5 1_555 1_555
H4 C6 1_555 1_555
N1 C4 1_555 1_555
N2 C1 1_555 1_555
O1 C4 1_555 1_555
O2 N2 1_555 1_555
C1B H1B 1_555 1_555
C2B C1B 1_555 1_555
H2B C2B 1_555 1_555
C3B C2B 1_555 1_555
C4B O1 1_555 1_555
C5B C3B 1_555 1_555
H3B C5B 1_555 1_555
C6B C5B 1_555 1_555
H4B C6B 1_555 1_555
N1B N1 1_555 1_555
N2B C1B 1_555 1_555
O2B N2B 1_555 1_555
C6 N2 1_555 1_555
C3B C4B 1_555 1_555
C4B N1B 1_555 1_555
C6B N2B 1_555 1_555

#END
