
#######################################################################
#
#                 Cambridge Crystallographic Data Centre
#                                CCDC 
#
#######################################################################
#
# If this CIF has been generated from an entry in the Cambridge 
# Structural Database, then it will include bibliographic, chemical, 
# crystal, experimental, refinement or atomic coordinate data resulting 
# from the CCDC's data processing and validation procedures.
#
#######################################################################

data_WAKCUH
_chemical_formula_moiety         'C14 H10 Cl2 N2 O1,0.5(C3 H6 O1)'
_chemical_name_systematic        
'6-Chloro-3-(4-chlorophenyl)-3,4-dihydroquinazolin-2(1H)-one acetone solvate'
_symmetry_cell_setting           monoclinic
_symmetry_space_group_name_H-M   'P 21/n'
_symmetry_Int_Tables_number      14
_space_group_name_Hall           '-P 2yn'
loop_
_symmetry_equiv_pos_site_id
_symmetry_equiv_pos_as_xyz
1 x,y,z
2 1/2+x,1/2-y,1/2+z
3 -x,-y,-z
4 1/2-x,1/2+y,1/2-z
_cell_length_a                   5.8060(18)
_cell_length_b                   13.250(4)
_cell_length_c                   18.810(6)
_cell_angle_alpha                90
_cell_angle_beta                 90.802(7)
_cell_angle_gamma                90
_cell_volume                     1446.9
_exptl_crystal_colour            colorless
_exptl_crystal_description       block
_chemical_melting_point          '589-590 K'
_cell_formula_units_Z            4
_exptl_crystal_recrystallization_method ethanol/acetone
loop_
_atom_site_label
_atom_site_type_symbol
_atom_site_fract_x
_atom_site_fract_y
_atom_site_fract_z
Cl1 Cl 0.89692(9) 0.66859(4) 0.32782(3)
Cl2 Cl 0.35496(10) 1.50946(4) 0.27084(3)
O1 O 0.0875(2) 1.11590(10) 0.45565(7)
N1 N 0.2461(3) 0.96108(12) 0.44897(8)
H1 H 0.1498 0.9395 0.4798
N2 N 0.4058(2) 1.09496(11) 0.38771(8)
C1 C 0.2395(3) 1.06046(14) 0.43213(9)
C2 C 0.6106(3) 1.03705(14) 0.36741(10)
H2 H 0.7425 1.0609 0.3948
H3 H 0.6413 1.0488 0.3175
C3 C 0.5816(3) 0.92575(14) 0.37961(9)
C4 C 0.3983(3) 0.89106(14) 0.41978(9)
C5 C 0.7357(3) 0.85633(15) 0.35198(9)
H4 H 0.8603 0.8783 0.3256
C6 C 0.7032(3) 0.75488(15) 0.36379(10)
C7 C 0.5197(3) 0.71979(15) 0.40289(11)
H5 H 0.4993 0.6509 0.4101
C8 C 0.3671(3) 0.78856(15) 0.43107(10)
H6 H 0.2434 0.7661 0.4576
C9 C 0.3908(3) 1.19607(14) 0.36186(9)
C10 C 0.5754(3) 1.26155(15) 0.37142(10)
H7 H 0.7057 1.2406 0.3966
C11 C 0.5651(3) 1.35831(15) 0.34331(11)
H8 H 0.6880 1.4026 0.3496
C12 C 0.3704(3) 1.38790(14) 0.30596(10)
C13 C 0.1867(3) 1.32322(15) 0.29546(10)
H9 H 0.0574 1.3441 0.2697
C14 C 0.1973(3) 1.22740(14) 0.32368(10)
H10 H 0.0741 1.1834 0.3171
C15? C 0.558(4) 1.1024(15) -0.0283(11)
H11? H 0.4704 1.1396 0.0057
H12? H 0.4747 1.0997 -0.0727
H13? H 0.7036 1.1351 -0.0352
C16? C 0.5976(13) 0.9978(7) -0.0016(4)
C17? C 0.408(4) 0.9397(13) 0.0200(10)
H14? H 0.4595 0.8729 0.0323
H15? H 0.2972 0.9357 -0.0182
H16? H 0.3388 0.9706 0.0605
O2? O 0.7887(12) 0.9640(6) 0.0028(4)
loop_
_geom_bond_atom_site_label_1
_geom_bond_atom_site_label_2
_geom_bond_site_symmetry_1
_geom_bond_site_symmetry_2
Cl1 C6 1_555 1_555
Cl2 C12 1_555 1_555
O1 C1 1_555 1_555
N1 H1 1_555 1_555
N2 C1 1_555 1_555
C1 N1 1_555 1_555
C2 N2 1_555 1_555
H2 C2 1_555 1_555
H3 C2 1_555 1_555
C3 C2 1_555 1_555
C4 N1 1_555 1_555
C5 C3 1_555 1_555
H4 C5 1_555 1_555
C6 C5 1_555 1_555
C7 C6 1_555 1_555
H5 C7 1_555 1_555
C8 C4 1_555 1_555
H6 C8 1_555 1_555
C9 N2 1_555 1_555
C10 C9 1_555 1_555
H7 C10 1_555 1_555
C11 C10 1_555 1_555
H8 C11 1_555 1_555
C12 C11 1_555 1_555
C13 C12 1_555 1_555
H9 C13 1_555 1_555
C14 C9 1_555 1_555
H10 C14 1_555 1_555
C3 C4 1_555 1_555
C7 C8 1_555 1_555
C13 C14 1_555 1_555

#END
