
#######################################################################
#
#                 Cambridge Crystallographic Data Centre
#                                CCDC 
#
#######################################################################
#
# If this CIF has been generated from an entry in the Cambridge 
# Structural Database, then it will include bibliographic, chemical, 
# crystal, experimental, refinement or atomic coordinate data resulting 
# from the CCDC's data processing and validation procedures.
#
#######################################################################

data_WAKDAO
_chemical_formula_moiety         'C17 H12 Cl1 F3 N2 O2'
_chemical_name_systematic        
1-(4-Chlorophenyl)-3-(4-(trifluoromethyl)benzoylhydrazino)prop-2-en-1-one
_symmetry_cell_setting           triclinic
_symmetry_space_group_name_H-M   'P -1'
_symmetry_Int_Tables_number      2
_space_group_name_Hall           '-P 1'
loop_
_symmetry_equiv_pos_site_id
_symmetry_equiv_pos_as_xyz
1 x,y,z
2 -x,-y,-z
_cell_length_a                   7.6851(14)
_cell_length_b                   8.8523(16)
_cell_length_c                   25.104(4)
_cell_angle_alpha                86.897(3)
_cell_angle_beta                 88.293(3)
_cell_angle_gamma                72.739(3)
_cell_volume                     1628.37
_exptl_crystal_colour            colorless
_exptl_crystal_description       column
_cell_formula_units_Z            4
_exptl_crystal_recrystallization_method ethanol/DMF
loop_
_atom_site_label
_atom_site_type_symbol
_atom_site_fract_x
_atom_site_fract_y
_atom_site_fract_z
Cl1 Cl 0.8424(2) 0.4699(2) 0.03928(7)
C1 C -0.2238(4) -0.0125(4) 0.33451(13)
C2 C -0.1729(5) -0.1187(4) 0.37820(15)
H1 H -0.0501 -0.1633 0.3859
C3 C -0.3023(5) -0.1580(5) 0.40992(16)
H2 H -0.2670 -0.2291 0.4390
C4 C -0.4843(5) -0.0929(4) 0.39900(15)
C5 C -0.5362(5) 0.0116(4) 0.35542(15)
H3 H -0.6590 0.0542 0.3475
C6 C -0.4071(5) 0.0530(4) 0.32377(15)
H4 H -0.4430 0.1254 0.2950
C7 C -0.0769(5) 0.0271(4) 0.30191(14)
C8 C -0.6226(5) -0.1357(5) 0.43422(16)
C9 C 0.0364(5) 0.1953(4) 0.20086(15)
H5 H -0.0387 0.1436 0.1862
C10 C 0.1646(5) 0.2289(4) 0.16783(15)
H6 H 0.1688 0.2035 0.1323
C11 C 0.2923(5) 0.3016(4) 0.18579(14)
C12 C 0.4283(5) 0.3419(4) 0.14809(14)
C13 C 0.5598(5) 0.4001(4) 0.16784(16)
H7 H 0.5633 0.4118 0.2043
C14 C 0.6862(5) 0.4412(5) 0.13471(18)
H8 H 0.7736 0.4813 0.1485
C15 C 0.6804(6) 0.4216(5) 0.08068(19)
C16 C 0.5524(7) 0.3652(5) 0.05971(17)
H9 H 0.5510 0.3528 0.0232
C17 C 0.4247(6) 0.3264(4) 0.09304(14)
H10 H 0.3354 0.2896 0.0788
F1 F -0.643(2) -0.067(2) 0.4786(4)
F2 F -0.581(2) -0.2885(7) 0.4471(9)
F3 F -0.7844(14) -0.096(3) 0.4139(5)
N1 N -0.1192(4) 0.1771(3) 0.28163(13)
H21 H -0.217(3) 0.248(3) 0.2910(14)
N2 N 0.0078(4) 0.2283(4) 0.25126(14)
H22 H 0.084(3) 0.271(3) 0.2636(12)
O1 O 0.0703(3) -0.0689(3) 0.29300(11)
O2 O 0.2971(4) 0.3320(4) 0.23354(11)
Cl2 Cl 1.33450(17) 0.94732(16) 0.04182(5)
C18 C 0.3010(4) 0.4821(4) 0.34887(13)
C19 C 0.3547(5) 0.3948(4) 0.39604(14)
H11 H 0.4757 0.3678 0.4063
C20 C 0.2293(5) 0.3477(4) 0.42781(15)
H12 H 0.2659 0.2903 0.4597
C21 C 0.0508(5) 0.3850(4) 0.41271(14)
C22 C -0.0037(5) 0.4712(4) 0.36513(14)
H13 H -0.1242 0.4957 0.3545
C23 C 0.1214(4) 0.5205(4) 0.33367(14)
H14 H 0.0845 0.5799 0.3021
C24 C 0.4430(4) 0.5277(4) 0.31598(13)
C25 C -0.0863(5) 0.3332(5) 0.44644(16)
C26 C 0.4689(5) 0.8397(4) 0.22702(15)
H15 H 0.3497 0.9057 0.2286
C27 C 0.5978(5) 0.8821(4) 0.19227(15)
H16 H 0.5585 0.9744 0.1708
C28 C 0.7752(5) 0.7951(4) 0.18878(14)
C29 C 0.9104(5) 0.8319(4) 0.15144(14)
C30 C 1.0932(5) 0.7445(5) 0.15475(17)
H17 H 1.1291 0.6622 0.1805
C31 C 1.2219(5) 0.7779(5) 0.12061(18)
H18 H 1.3435 0.7179 0.1230
C32 C 1.1693(6) 0.9006(5) 0.08293(16)
C33 C 0.9908(6) 0.9873(5) 0.07811(16)
H19 H 0.9564 1.0687 0.0520
C34 C 0.8622(5) 0.9535(5) 0.11205(15)
H20 H 0.7407 1.0130 0.1087
F7 F -0.0272(4) 0.2748(4) 0.49371(11)
F8 F -0.2376(4) 0.4504(3) 0.45445(13)
F9 F -0.1437(4) 0.2259(3) 0.42392(12)
N3 N 0.3889(4) 0.6672(3) 0.28807(12)
H23 H 0.278(2) 0.727(3) 0.2904(14)
N4 N 0.5151(4) 0.7119(3) 0.25614(12)
H24 H 0.6294(18) 0.663(4) 0.2530(14)
O3 O 0.6024(3) 0.4438(3) 0.31433(10)
O4 O 0.8406(3) 0.6641(3) 0.21963(11)
F4? F -0.5669(19) -0.184(3) 0.4831(4)
F5? F -0.7740(17) -0.0195(10) 0.4400(9)
F6? F -0.679(2) -0.2470(19) 0.4159(5)
loop_
_geom_bond_atom_site_label_1
_geom_bond_atom_site_label_2
_geom_bond_site_symmetry_1
_geom_bond_site_symmetry_2
Cl1 C15 1_555 1_555
Cl2 C32 1_555 1_555
C1 C2 1_555 1_555
C2 H1 1_555 1_555
C3 C2 1_555 1_555
H2 C3 1_555 1_555
C4 C3 1_555 1_555
C5 C4 1_555 1_555
H3 C5 1_555 1_555
C6 C1 1_555 1_555
H4 C6 1_555 1_555
C7 C1 1_555 1_555
C8 C4 1_555 1_555
C9 H5 1_555 1_555
C10 C9 1_555 1_555
H6 C10 1_555 1_555
C11 C10 1_555 1_555
C12 C11 1_555 1_555
C13 C12 1_555 1_555
H7 C13 1_555 1_555
C14 C13 1_555 1_555
H8 C14 1_555 1_555
C15 C14 1_555 1_555
C16 C15 1_555 1_555
H9 C16 1_555 1_555
C17 C12 1_555 1_555
H10 C17 1_555 1_555
C18 C19 1_555 1_555
C19 H11 1_555 1_555
C20 C19 1_555 1_555
H12 C20 1_555 1_555
C21 C20 1_555 1_555
C22 C21 1_555 1_555
H13 C22 1_555 1_555
C23 C18 1_555 1_555
H14 C23 1_555 1_555
C24 C18 1_555 1_555
C25 C21 1_555 1_555
C26 H15 1_555 1_555
C27 C26 1_555 1_555
H16 C27 1_555 1_555
C28 C27 1_555 1_555
C29 C28 1_555 1_555
C30 C29 1_555 1_555
H17 C30 1_555 1_555
C31 C30 1_555 1_555
H18 C31 1_555 1_555
C32 C31 1_555 1_555
C33 C32 1_555 1_555
H19 C33 1_555 1_555
C34 C29 1_555 1_555
H20 C34 1_555 1_555
F1 C8 1_555 1_555
F2 C8 1_555 1_555
F3 C8 1_555 1_555
F7 C25 1_555 1_555
F8 C25 1_555 1_555
F9 C25 1_555 1_555
N1 C7 1_555 1_555
H21 N1 1_555 1_555
N2 C9 1_555 1_555
H22 N2 1_555 1_555
N3 C24 1_555 1_555
H23 N3 1_555 1_555
N4 C26 1_555 1_555
H24 N4 1_555 1_555
O1 C7 1_555 1_555
O2 C11 1_555 1_555
O3 C24 1_555 1_555
O4 C28 1_555 1_555
C5 C6 1_555 1_555
C16 C17 1_555 1_555
C22 C23 1_555 1_555
C33 C34 1_555 1_555
N1 N2 1_555 1_555
N3 N4 1_555 1_555

#END
