
#######################################################################
#
#                 Cambridge Crystallographic Data Centre
#                                CCDC 
#
#######################################################################
#
# If this CIF has been generated from an entry in the Cambridge 
# Structural Database, then it will include bibliographic, chemical, 
# crystal, experimental, refinement or atomic coordinate data resulting 
# from the CCDC's data processing and validation procedures.
#
#######################################################################

data_WAKRUY
_chemical_name_common            N,N'-methanediylidenedianiline
_chemical_formula_moiety         'C13 H10 N2'
_chemical_name_systematic        N,N'-diphenylcarbodiimide
_symmetry_cell_setting           triclinic
_symmetry_space_group_name_H-M   'P -1'
_symmetry_Int_Tables_number      2
_space_group_name_Hall           '-P 1'
loop_
_symmetry_equiv_pos_site_id
_symmetry_equiv_pos_as_xyz
1 x,y,z
2 -x,-y,-z
_cell_length_a                   7.119(3)
_cell_length_b                   7.594(3)
_cell_length_c                   10.955(5)
_cell_angle_alpha                72.086(7)
_cell_angle_beta                 77.584(6)
_cell_angle_gamma                85.235(7)
_cell_volume                     550.262
_exptl_crystal_colour            red
_exptl_crystal_description       block
_cell_formula_units_Z            2
loop_
_atom_site_label
_atom_site_type_symbol
_atom_site_fract_x
_atom_site_fract_y
_atom_site_fract_z
N1 N 0.3925(5) 0.2724(4) -0.0181(3)
C1 C 0.5059(5) 0.3332(5) -0.1427(3)
C2 C 0.4549(5) 0.4878(5) -0.2388(4)
H1 H 0.3441 0.5559 -0.2190
C3 C 0.0088(5) 0.2027(5) 0.2103(3)
C4 C -0.0738(6) 0.1577(6) 0.3432(4)
H2 H -0.0254 0.2081 0.3972
C5 C -0.0665(5) 0.1233(5) 0.1323(3)
H3 H -0.0131 0.1496 0.0435
N2 N 0.1614(5) 0.3235(6) 0.1607(3)
C6 C -0.2196(6) 0.0063(6) 0.1868(4)
H4 H -0.2688 -0.0453 0.1337
C7 C 0.6746(6) 0.2380(5) -0.1774(4)
H5 H 0.7118 0.1344 -0.1154
C8 C 0.5674(6) 0.5398(6) -0.3620(4)
H6 H 0.5296 0.6413 -0.4254
C9 C 0.2412(6) 0.3966(6) 0.0240(4)
C10 C -0.2270(6) 0.0391(6) 0.3955(4)
H7 H -0.2803 0.0098 0.4844
C11 C 0.7868(6) 0.2926(6) -0.2998(4)
H8 H 0.8990 0.2262 -0.3196
C12 C -0.3014(6) -0.0361(6) 0.3172(4)
H9 H -0.4057 -0.1147 0.3523
C13 C 0.7360(6) 0.4445(6) -0.3943(4)
H10 H 0.8128 0.4824 -0.4776
loop_
_geom_bond_atom_site_label_1
_geom_bond_atom_site_label_2
_geom_bond_site_symmetry_1
_geom_bond_site_symmetry_2
N1 C1 1_555 1_555
C1 C2 1_555 1_555
C2 H1 1_555 1_555
C3 C4 1_555 1_555
C4 H2 1_555 1_555
C5 C3 1_555 1_555
H3 C5 1_555 1_555
N2 C3 1_555 1_555
C6 C5 1_555 1_555
H4 C6 1_555 1_555
C7 C1 1_555 1_555
H5 C7 1_555 1_555
C8 C2 1_555 1_555
H6 C8 1_555 1_555
C9 N1 1_555 1_555
C10 C4 1_555 1_555
H7 C10 1_555 1_555
C11 C7 1_555 1_555
H8 C11 1_555 1_555
C12 C6 1_555 1_555
H9 C12 1_555 1_555
C13 C8 1_555 1_555
H10 C13 1_555 1_555
N2 C9 1_555 1_555
C10 C12 1_555 1_555
C11 C13 1_555 1_555

#END
