
#######################################################################
#
#                 Cambridge Crystallographic Data Centre
#                                CCDC 
#
#######################################################################
#
# If this CIF has been generated from an entry in the Cambridge 
# Structural Database, then it will include bibliographic, chemical, 
# crystal, experimental, refinement or atomic coordinate data resulting 
# from the CCDC's data processing and validation procedures.
#
#######################################################################

data_WAKWAH
_chemical_formula_moiety         'Na1 1+,C1 H1 N6 O2 1-,1.5(H2 O1)'
_chemical_name_systematic        
'Sodium 2-(1H-tetrazol-5-yl)diazene N,N-dioxide sesquihydrate'
_symmetry_cell_setting           monoclinic
_symmetry_space_group_name_H-M   'P 21/c'
_symmetry_Int_Tables_number      14
_space_group_name_Hall           '-P 2ybc'
loop_
_symmetry_equiv_pos_site_id
_symmetry_equiv_pos_as_xyz
1 x,y,z
2 -x,1/2+y,1/2-z
3 -x,-y,-z
4 x,1/2-y,1/2+z
_cell_length_a                   3.551(1)
_cell_length_b                   21.834(4)
_cell_length_c                   9.075(2)
_cell_angle_alpha                90
_cell_angle_beta                 110.68(3)
_cell_angle_gamma                90
_cell_volume                     658.272
_cell_formula_units_Z            4
loop_
_atom_site_label
_atom_site_type_symbol
_atom_site_fract_x
_atom_site_fract_y
_atom_site_fract_z
N1 N 1.1179(5) 0.71286(7) 0.7790(2)
N2 N 1.2853(5) 0.75965(7) 0.8763(2)
N3 N 1.5413(5) 0.73530(8) 1.0013(2)
N4 N 1.5478(5) 0.67384(8) 0.9896(2)
N5 N 1.2199(5) 0.60040(7) 0.8015(2)
N6 N 0.9412(5) 0.59017(7) 0.6643(2)
C1 C 1.2787(5) 0.66046(8) 0.8487(2)
O1 O 0.7300(5) 0.63058(7) 0.5785(2)
O2 O 0.8928(5) 0.53469(6) 0.6194(2)
H1 H 0.968(8) 0.718(1) 0.704(4)
O3 O 0.0079(5) 0.60851(7) 0.2712(2)
H2 H 0.16(1) 0.636(2) 0.333(5)
H3 H -0.13(1) 0.628(2) 0.180(4)
O4 O 0.378(4) 0.5080(8) 0.068(2)
Na1 Na 0.5553(3) 0.54176(5) 0.3287(1)
O5? O 0.184(5) 0.5095(8) 0.045(2)
loop_
_geom_bond_atom_site_label_1
_geom_bond_atom_site_label_2
_geom_bond_site_symmetry_1
_geom_bond_site_symmetry_2
N1 N2 1_555 1_555
N2 N3 1_555 1_555
N3 N4 1_555 1_555
N4 C1 1_555 1_555
N5 N6 1_555 1_555
N6 O1 1_555 1_555
C1 N1 1_555 1_555
O2 N6 1_555 1_555
O3 H2 1_555 1_555
H1 N1 1_555 1_555
H3 O3 1_555 1_555
N5 C1 1_555 1_555

#END
