
#######################################################################
#
#                 Cambridge Crystallographic Data Centre
#                                CCDC 
#
#######################################################################
#
# If this CIF has been generated from an entry in the Cambridge 
# Structural Database, then it will include bibliographic, chemical, 
# crystal, experimental, refinement or atomic coordinate data resulting 
# from the CCDC's data processing and validation procedures.
#
#######################################################################

data_WALDOC
_chemical_formula_moiety         'C13 H18 O2,0.4(C3 D6 O1)'
_chemical_name_systematic        
'anti,anti-4,7-Dimethylpentacyclo(6.3.0.0^2,6^.0^3,10^.0^5,9^)undecane-4,7-diol perdeutero-acetone clathrate'
_symmetry_cell_setting           trigonal
_symmetry_space_group_name_H-M   'P 31 2 1'
_symmetry_Int_Tables_number      152
_space_group_name_Hall           'P 31 2"'
loop_
_symmetry_equiv_pos_site_id
_symmetry_equiv_pos_as_xyz
1 x,y,z
2 -y,x-y,1/3+z
3 -x+y,-x,2/3+z
4 y,x,-z
5 x-y,-y,2/3-z
6 -x,-x+y,1/3-z
_cell_length_a                   12.4957(6)
_cell_length_b                   12.4957(6)
_cell_length_c                   7.3076(3)
_cell_angle_alpha                90
_cell_angle_beta                 90
_cell_angle_gamma                120
_cell_volume                     988.158
_exptl_crystal_colour            colorless
_chemical_melting_point          154-156deg.C
_cell_formula_units_Z            3
loop_
_atom_site_label
_atom_site_type_symbol
_atom_site_fract_x
_atom_site_fract_y
_atom_site_fract_z
O1 O 0.2625(1) 0.6109(1) 0.0381(2)
C1 C 0.0000 0.7197(4) 0.1667
C2 C 0.1032(2) 0.6887(2) 0.1519(3)
C3 C 0.0666(2) 0.6068(2) -0.0173(2)
C4 C 0.1320(1) 0.5336(2) 0.0098(2)
C5 C 0.0685(1) 0.4778(2) 0.1908(2)
C6 C -0.0728(2) 0.5147(2) 0.0321(2)
C7 C 0.1127(2) 0.4413(2) -0.1389(3)
H1 H 0.3020(7) 0.6626(7) -0.0673(22)
H2 H -0.0071 0.7623 0.0554
H3 H 0.1894 0.7607 0.1530
H4 H 0.0817 0.6505 -0.1374
H5 H 0.0990 0.4282 0.2573
H6 H -0.1302 0.4857 -0.07517
H7 H 0.1596 0.3983 -0.1078
H8 H 0.0227 0.3792 -0.1491
H9 H 0.1431 0.4856 -0.2583
C6E C 0.0728(2) 0.5875(3) 0.3012(2)
C2E C -0.1032(2) 0.5855(3) 0.1814(3)
H2E H 0.0071 0.7694 0.2779
C5E C -0.0685(1) 0.4093(2) 0.1425(2)
C3E C -0.0666(2) 0.5402(3) 0.3506(2)
H6E H 0.1302 0.6159 0.40850
H3E H -0.1894 0.5713 0.1803
C4E C -0.1320(1) 0.4016(2) 0.3235(2)
H5E H -0.0990 0.3292 0.0760
H4E H -0.0817 0.5688 0.4707
O1E O -0.2625(1) 0.3484(1) 0.2952(2)
C7E C -0.1127(2) 0.3286(3) 0.4722(3)
H1E H -0.3020(7) 0.3606(10) 0.4006(22)
H7E H -0.1596 0.2387 0.4411
H8E H -0.0227 0.3565 0.4824
H9E H -0.1431 0.3425 0.5916
C8? C -0.026(2) 0.943(2) -0.237(3)
C9? C 0.065(2) 1.027(2) -0.095(3)
C10? C 0.012(3) 1.063(2) 0.062(3)
O2? O 0.174(2) 1.063(3) -0.107(6)
H10? H 0.0200 0.9231 -0.3337
H11? H -0.0875 0.8642 -0.1771
H12? H -0.0672 0.9838 -0.2954
H13? H 0.0811 1.1215 0.1437
H14? H -0.0283 1.1102 0.0087
H15? H -0.0486 0.9905 0.1269
loop_
_geom_bond_atom_site_label_1
_geom_bond_atom_site_label_2
_geom_bond_site_symmetry_1
_geom_bond_site_symmetry_2
O1 C4 1_555 1_555
C1 C2 1_555 1_555
C2 C3 1_555 1_555
C3 C4 1_555 1_555
C4 C5 1_555 1_555
C5 H5 1_555 1_555
C6 C3 1_555 1_555
C7 C4 1_555 1_555
H1 O1 1_555 1_555
H2 C1 1_555 1_555
H3 C2 1_555 1_555
H4 C3 1_555 1_555
H6 C6 1_555 1_555
H7 C7 1_555 1_555
H8 C7 1_555 1_555
H9 C7 1_555 1_555
C6E C2 1_555 1_555
C2E C1 1_555 1_555
H2E C1 1_555 1_555
C5E C5 1_555 1_555
C3E C6E 1_555 1_555
H6E C6E 1_555 1_555
H3E C2E 1_555 1_555
C4E C5E 1_555 1_555
H5E C5E 1_555 1_555
H4E C3E 1_555 1_555
O1E C4E 1_555 1_555
C7E C4E 1_555 1_555
H1E O1E 1_555 1_555
H7E C7E 1_555 1_555
H8E C7E 1_555 1_555
H9E C7E 1_555 1_555
C5 C6E 1_555 1_555
C6 C5E 1_555 1_555
C6 C2E 1_555 1_555
C2E C3E 1_555 1_555
C3E C4E 1_555 1_555

#END
