
#######################################################################
#
#                 Cambridge Crystallographic Data Centre
#                                CCDC 
#
#######################################################################
#
# If this CIF has been generated from an entry in the Cambridge 
# Structural Database, then it will include bibliographic, chemical, 
# crystal, experimental, refinement or atomic coordinate data resulting 
# from the CCDC's data processing and validation procedures.
#
#######################################################################

data_WALDIW
_chemical_formula_moiety         'C13 H18 O2'
_chemical_name_systematic        
anti,syn-4,7-Dimethylpentacyclo(6.3.0.0^2,6^.0^3,10^.0^5,9^)undecane-4,7-diol
_symmetry_cell_setting           monoclinic
_symmetry_space_group_name_H-M   'P 21/c'
_symmetry_Int_Tables_number      14
_space_group_name_Hall           '-P 2ybc'
loop_
_symmetry_equiv_pos_site_id
_symmetry_equiv_pos_as_xyz
1 x,y,z
2 -x,1/2+y,1/2-z
3 -x,-y,-z
4 x,1/2-y,1/2+z
_cell_length_a                   12.005(1)
_cell_length_b                   6.3979(7)
_cell_length_c                   14.955(1)
_cell_angle_alpha                90
_cell_angle_beta                 112.767(3)
_cell_angle_gamma                90
_cell_volume                     1059.15
_exptl_crystal_colour            colorless
_chemical_melting_point          186-187deg.C
_cell_formula_units_Z            4
loop_
_atom_site_label
_atom_site_type_symbol
_atom_site_fract_x
_atom_site_fract_y
_atom_site_fract_z
O1 O 0.3902(1) 0.4327(2) 0.3823(1)
O2 O 0.3879(1) 0.1206(2) 0.0675(1)
C1 C 0.0668(2) 0.1255(3) 0.1195(1)
C2 C 0.1021(1) 0.3290(3) 0.1763(1)
C3 C 0.2101(1) 0.2658(3) 0.2673(1)
C4 C 0.2775(1) 0.4700(3) 0.3027(1)
C5 C 0.2973(1) 0.5107(2) 0.2093(1)
C6 C 0.1720(1) 0.4598(3) 0.1248(1)
C7 C 0.2048(1) 0.2920(3) 0.0621(1)
C8 C 0.1897(2) 0.0937(3) 0.1137(1)
C9 C 0.2852(1) 0.1447(3) 0.2181(1)
C10 C 0.3672(1) 0.3180(3) 0.2002(1)
C11 C 0.3411(1) 0.3106(3) 0.0921(1)
C12 C 0.2090(2) 0.6401(3) 0.3308(1)
C13 C 0.3834(2) 0.4978(4) 0.0521(1)
H1 H 0.3809 0.4426 0.4401
H3 H 0.4639 0.0965 0.1023
H5 H 0.0455 0.0118 0.1554
H6 H 0.0006 0.1428 0.0538
H7 H 0.0355 0.4047 0.1869
H8 H 0.1905 0.1854 0.3167
H9 H 0.3339 0.6482 0.2045
H10 H 0.1276 0.5845 0.0882
H11 H 0.1551 0.2983 -0.0093
H12 H 0.2008 -0.0421 0.0852
H13 H 0.3302 0.0204 0.2554
H14 H 0.4545 0.3140 0.2450
H15 H 0.1997 0.6012 0.3925
H16 H 0.2532 0.7761 0.3402
H17 H 0.1261 0.6577 0.2782
H18 H 0.3622 0.4800 -0.0189
H19 H 0.3428 0.6281 0.0628
H20 H 0.4729 0.5146 0.0861
H2? H 0.4598 0.5064 0.3930
H4? H 0.3866 0.1155 0.0068
loop_
_geom_bond_atom_site_label_1
_geom_bond_atom_site_label_2
_geom_bond_site_symmetry_1
_geom_bond_site_symmetry_2
O1 C4 1_555 1_555
O2 C11 1_555 1_555
C1 C2 1_555 1_555
C2 C3 1_555 1_555
C3 C4 1_555 1_555
C4 C5 1_555 1_555
C5 C6 1_555 1_555
C6 C2 1_555 1_555
C7 C6 1_555 1_555
C8 C1 1_555 1_555
C9 C3 1_555 1_555
C10 C5 1_555 1_555
C11 C7 1_555 1_555
C12 C4 1_555 1_555
C13 C11 1_555 1_555
H1 O1 1_555 1_555
H3 O2 1_555 1_555
H5 C1 1_555 1_555
H6 C1 1_555 1_555
H7 C2 1_555 1_555
H8 C3 1_555 1_555
H9 C5 1_555 1_555
H10 C6 1_555 1_555
H11 C7 1_555 1_555
H12 C8 1_555 1_555
H13 C9 1_555 1_555
H14 C10 1_555 1_555
H15 C12 1_555 1_555
H16 C12 1_555 1_555
H17 C12 1_555 1_555
H18 C13 1_555 1_555
H19 C13 1_555 1_555
H20 C13 1_555 1_555
C7 C8 1_555 1_555
C8 C9 1_555 1_555
C9 C10 1_555 1_555
C10 C11 1_555 1_555

#END
