
#######################################################################
#
#                 Cambridge Crystallographic Data Centre
#                                CCDC 
#
#######################################################################
#
# If this CIF has been generated from an entry in the Cambridge 
# Structural Database, then it will include bibliographic, chemical, 
# crystal, experimental, refinement or atomic coordinate data resulting 
# from the CCDC's data processing and validation procedures.
#
#######################################################################

data_WALFIY
_chemical_formula_moiety         'C48 H42 Cl6 N6'
_chemical_name_systematic        
2,4,6,8,10,12-hexakis(4-Chlorobenzyl)-2,4,6,8,10,12-hexa-azatetracyclo(5.5.0.0^5,9^.0^3,11^)dodecane
_symmetry_cell_setting           monoclinic
_symmetry_space_group_name_H-M   'C 2/c'
_symmetry_Int_Tables_number      15
_space_group_name_Hall           '-C 2yn'
loop_
_symmetry_equiv_pos_site_id
_symmetry_equiv_pos_as_xyz
1 x,y,z
2 1/2+x,1/2+y,z
3 -x,y,1/2-z
4 1/2-x,1/2+y,1/2-z
5 -x,-y,-z
6 1/2-x,1/2-y,-z
7 x,-y,1/2+z
8 1/2+x,1/2-y,1/2+z
_cell_length_a                   18.916(4)
_cell_length_b                   11.449(2)
_cell_length_c                   20.403(4)
_cell_angle_alpha                90
_cell_angle_beta                 90.72(2)
_cell_angle_gamma                90
_cell_volume                     4418.31
_exptl_crystal_colour            colorless
_chemical_melting_point          191deg.C
_cell_formula_units_Z            4
loop_
_atom_site_label
_atom_site_type_symbol
_atom_site_fract_x
_atom_site_fract_y
_atom_site_fract_z
Cl1 Cl 0.17555(5) -0.26866(7) 0.17186(5)
Cl2 Cl -0.22311(5) 0.51163(9) -0.07445(5)
Cl3 Cl 0.08109(5) 0.93364(7) 0.46969(4)
C1 C 0.0147(1) 0.2206(2) 0.2140(1)
N1 N 0.08066(9) 0.2846(2) 0.2046(1)
C2 C 0.0620(1) 0.4080(2) 0.2094(1)
N2 N 0.06179(9) 0.4633(2) 0.27362(9)
C3 C -0.0151(1) 0.4070(2) 0.1811(1)
N3 N -0.03402(9) 0.2821(2) 0.16953(9)
C4 C 0.1577(1) 0.1162(2) 0.2157(1)
C5 C 0.1525(1) 0.0746(2) 0.1522(1)
C6 C 0.1573(1) -0.0435(2) 0.1387(1)
C7 C 0.1683(1) -0.1204(2) 0.1890(1)
C8 C 0.1736(1) -0.0830(2) 0.2527(1)
C9 C 0.1676(1) 0.0351(2) 0.2654(1)
C10 C 0.1481(1) 0.2436(2) 0.2308(1)
C11 C -0.0744(1) 0.3050(2) 0.0550(1)
C12 C -0.1467(1) 0.2990(3) 0.0637(1)
C13 C -0.1926(1) 0.3619(3) 0.0237(1)
C14 C -0.1657(1) 0.4285(3) -0.0255(1)
C15 C -0.0957(2) 0.4317(3) -0.0368(1)
C16 C -0.0503(1) 0.3693(3) 0.0036(1)
C17 C -0.0238(1) 0.2444(2) 0.1012(1)
C18 C 0.1152(1) 0.6138(2) 0.3438(1)
C19 C 0.1620(1) 0.6439(2) 0.3937(1)
C20 C 0.1523(1) 0.7412(2) 0.4319(1)
C21 C 0.0950(1) 0.8111(2) 0.4210(1)
C22 C 0.0472(1) 0.7837(2) 0.3722(1)
C23 C 0.0574(1) 0.6858(2) 0.3345(1)
C24 C 0.1275(1) 0.5079(2) 0.3015(1)
H1 H 0.0211 0.1396 0.2055
H2 H 0.0969 0.4528 0.1878
H3 H -0.0190 0.4491 0.1411
H4 H 0.1455 0.1282 0.1171
H5 H 0.1528 -0.0708 0.0948
H6 H 0.1812 -0.1371 0.2873
H7 H 0.1703 0.0615 0.3094
H8 H 0.1492 0.2546 0.2769
H9 H 0.1853 0.2869 0.2115
H10 H -0.1651 0.2511 0.0974
H11 H -0.2421 0.3586 0.0304
H12 H -0.0777 0.4763 -0.0721
H13 H -0.0009 0.3711 -0.0046
H14 H -0.0313 0.1624 0.0983
H15 H 0.0231 0.2620 0.0887
H16 H 0.2020 0.5957 0.4017
H17 H 0.1853 0.7596 0.4657
H18 H 0.0071 0.8321 0.3646
H19 H 0.0237 0.6672 0.3010
H20 H 0.1581 0.5287 0.2668
H21 H 0.1490 0.4485 0.3273
C1B C -0.0147(1) 0.2206(2) 0.2860(1)
C3B C 0.0151(1) 0.4070(2) 0.3189(1)
N2B N -0.06179(9) 0.4633(2) 0.22638(9)
N1B N -0.08066(9) 0.2846(2) 0.2954(1)
N3B N 0.03402(9) 0.2821(2) 0.33047(9)
H1B H -0.0211 0.1396 0.2945
C2B C -0.0620(1) 0.4080(2) 0.2906(1)
H3B H 0.0190 0.4491 0.3589
C24B C -0.1275(1) 0.5079(2) 0.1985(1)
C10B C -0.1481(1) 0.2436(2) 0.2692(1)
C17B C 0.0238(1) 0.2444(2) 0.3988(1)
H2B H -0.0969 0.4528 0.3122
C18B C -0.1152(1) 0.6138(2) 0.1562(1)
H20B H -0.1581 0.5287 0.2332
H21B H -0.1490 0.4485 0.1727
C4B C -0.1577(1) 0.1162(2) 0.2843(1)
H8B H -0.1492 0.2546 0.2231
H9B H -0.1853 0.2869 0.2885
C11B C 0.0744(1) 0.3050(2) 0.4450(1)
H14B H 0.0313 0.1624 0.4017
H15B H -0.0231 0.2620 0.4113
C19B C -0.1620(1) 0.6439(2) 0.1063(1)
C23B C -0.0574(1) 0.6858(2) 0.1655(1)
C5B C -0.1525(1) 0.0746(2) 0.3478(1)
C9B C -0.1676(1) 0.0351(2) 0.2346(1)
C12B C 0.1467(1) 0.2990(3) 0.4363(1)
C16B C 0.0503(1) 0.3693(3) 0.4964(1)
C20B C -0.1523(1) 0.7412(2) 0.0681(1)
H16B H -0.2020 0.5957 0.0983
C22B C -0.0472(1) 0.7837(2) 0.1278(1)
H19B H -0.0237 0.6672 0.1990
C6B C -0.1573(1) -0.0435(2) 0.3613(1)
H4B H -0.1455 0.1282 0.3829
C8B C -0.1736(1) -0.0830(2) 0.2473(1)
H7B H -0.1703 0.0615 0.1906
C13B C 0.1926(1) 0.3619(3) 0.4763(1)
H10B H 0.1651 0.2511 0.4026
C15B C 0.0957(2) 0.4317(3) 0.5368(1)
H13B H 0.0009 0.3711 0.5046
C21B C -0.0950(1) 0.8111(2) 0.0790(1)
H17B H -0.1853 0.7596 0.0343
H18B H -0.0071 0.8321 0.1354
C7B C -0.1683(1) -0.1204(2) 0.3110(1)
H5B H -0.1528 -0.0708 0.4052
H6B H -0.1812 -0.1371 0.2127
C14B C 0.1657(1) 0.4285(3) 0.5255(1)
H11B H 0.2421 0.3586 0.4696
H12B H 0.0777 0.4763 0.5721
Cl3B Cl -0.08109(5) 0.93364(7) 0.03031(4)
Cl1B Cl -0.17555(5) -0.26866(7) 0.32814(5)
Cl2B Cl 0.22311(5) 0.51163(9) 0.57445(5)
loop_
_geom_bond_atom_site_label_1
_geom_bond_atom_site_label_2
_geom_bond_site_symmetry_1
_geom_bond_site_symmetry_2
Cl1 C7 1_555 1_555
Cl2 C14 1_555 1_555
Cl3 C21 1_555 1_555
C1 N1 1_555 1_555
N1 C2 1_555 1_555
C2 N2 1_555 1_555
N2 C24 1_555 1_555
C3 C2 1_555 1_555
N3 C1 1_555 1_555
C4 C5 1_555 1_555
C5 C6 1_555 1_555
C6 C7 1_555 1_555
C7 C8 1_555 1_555
C8 C9 1_555 1_555
C9 C4 1_555 1_555
C10 N1 1_555 1_555
C11 C12 1_555 1_555
C12 C13 1_555 1_555
C13 C14 1_555 1_555
C14 C15 1_555 1_555
C15 C16 1_555 1_555
C16 C11 1_555 1_555
C17 N3 1_555 1_555
C18 C19 1_555 1_555
C19 C20 1_555 1_555
C20 C21 1_555 1_555
C21 C22 1_555 1_555
C22 C23 1_555 1_555
C23 C18 1_555 1_555
C24 C18 1_555 1_555
H1 C1 1_555 1_555
H2 C2 1_555 1_555
H3 C3 1_555 1_555
H4 C5 1_555 1_555
H5 C6 1_555 1_555
H6 C8 1_555 1_555
H7 C9 1_555 1_555
H8 C10 1_555 1_555
H9 C10 1_555 1_555
H10 C12 1_555 1_555
H11 C13 1_555 1_555
H12 C15 1_555 1_555
H13 C16 1_555 1_555
H14 C17 1_555 1_555
H15 C17 1_555 1_555
H16 C19 1_555 1_555
H17 C20 1_555 1_555
H18 C22 1_555 1_555
H19 C23 1_555 1_555
H20 C24 1_555 1_555
H21 C24 1_555 1_555
C1B C1 1_555 1_555
C3B N2 1_555 1_555
N2B C3 1_555 1_555
N1B C1B 1_555 1_555
N3B C1B 1_555 1_555
H1B C1B 1_555 1_555
C2B C3B 1_555 1_555
H3B C3B 1_555 1_555
C24B N2B 1_555 1_555
C10B N1B 1_555 1_555
C17B N3B 1_555 1_555
H2B C2B 1_555 1_555
C18B C24B 1_555 1_555
H20B C24B 1_555 1_555
H21B C24B 1_555 1_555
C4B C10B 1_555 1_555
H8B C10B 1_555 1_555
H9B C10B 1_555 1_555
C11B C17B 1_555 1_555
H14B C17B 1_555 1_555
H15B C17B 1_555 1_555
C19B C18B 1_555 1_555
C23B C18B 1_555 1_555
C5B C4B 1_555 1_555
C9B C4B 1_555 1_555
C12B C11B 1_555 1_555
C16B C11B 1_555 1_555
C20B C19B 1_555 1_555
H16B C19B 1_555 1_555
C22B C23B 1_555 1_555
H19B C23B 1_555 1_555
C6B C5B 1_555 1_555
H4B C5B 1_555 1_555
C8B C9B 1_555 1_555
H7B C9B 1_555 1_555
C13B C12B 1_555 1_555
H10B C12B 1_555 1_555
C15B C16B 1_555 1_555
H13B C16B 1_555 1_555
C21B C20B 1_555 1_555
H17B C20B 1_555 1_555
H18B C22B 1_555 1_555
C7B C6B 1_555 1_555
H5B C6B 1_555 1_555
H6B C8B 1_555 1_555
C14B C13B 1_555 1_555
H11B C13B 1_555 1_555
H12B C15B 1_555 1_555
Cl3B C21B 1_555 1_555
Cl1B C7B 1_555 1_555
Cl2B C14B 1_555 1_555
C3 N3 1_555 1_555
C4 C10 1_555 1_555
C11 C17 1_555 1_555
C3B N3B 1_555 1_555
N2B C2B 1_555 1_555
N1B C2B 1_555 1_555
C22B C21B 1_555 1_555
C8B C7B 1_555 1_555
C15B C14B 1_555 1_555

#END
