
#######################################################################
#
#                 Cambridge Crystallographic Data Centre
#                                CCDC 
#
#######################################################################
#
# If this CIF has been generated from an entry in the Cambridge 
# Structural Database, then it will include bibliographic, chemical, 
# crystal, experimental, refinement or atomic coordinate data resulting 
# from the CCDC's data processing and validation procedures.
#
#######################################################################

data_WALHUP
_chemical_formula_moiety         'C38 H41 N1 O2'
_chemical_name_systematic        
1-Allyl-3-((3,5-di-t-butyl-4-hydroxyphenyl)(phenyl)methyl)-3-phenyl-1,3-dihydro-2H-indol-2-one
_symmetry_cell_setting           monoclinic
_symmetry_space_group_name_H-M   'P 21'
_symmetry_Int_Tables_number      4
_space_group_name_Hall           'P 2yb'
loop_
_symmetry_equiv_pos_site_id
_symmetry_equiv_pos_as_xyz
1 x,y,z
2 -x,1/2+y,-z
_cell_length_a                   9.5705(3)
_cell_length_b                   20.6075(7)
_cell_length_c                   15.8172(4)
_cell_angle_alpha                90
_cell_angle_beta                 90.295(3)
_cell_angle_gamma                90
_cell_volume                     3119.49
_exptl_crystal_colour            colorless
_exptl_crystal_description       plate
_chemical_melting_point          '443 K'
_cell_formula_units_Z            4
_chemical_properties_physical    Light-sensitive
_exptl_crystal_recrystallization_method 'Petroleum ether/dichloromethane'
loop_
_atom_site_label
_atom_site_type_symbol
_atom_site_fract_x
_atom_site_fract_y
_atom_site_fract_z
O1 O -1.28594(18) -0.46786(10) -1.93340(10)
H1 H -1.3486 -0.4957 -1.9251
O2 O -0.90428(17) -0.38298(10) -1.47124(9)
N1 N -0.68110(19) -0.37502(11) -1.52099(11)
C1 C -0.6145(2) -0.37702(12) -1.60034(13)
C2 C -0.4728(2) -0.37462(13) -1.61691(15)
H2 H -0.4063 -0.3691 -1.5727
C3 C -0.4314(3) -0.38057(14) -1.70055(16)
H3 H -0.3347 -0.3797 -1.7138
C4 C -0.5284(3) -0.38777(14) -1.76474(15)
H4 H -0.4976 -0.3920 -1.8215
C5 C -0.6712(2) -0.38890(13) -1.74738(13)
H5 H -0.7375 -0.3934 -1.7919
C6 C -0.7152(2) -0.38337(12) -1.66399(13)
C7 C -0.8590(2) -0.38284(12) -1.62517(12)
C8 C -0.8218(2) -0.38046(12) -1.52958(13)
C9 C -0.6129(3) -0.37204(14) -1.43824(14)
H6 H -0.5177 -0.3905 -1.4431
H7 H -0.6657 -0.3995 -1.3982
C10 C -0.6021(3) -0.30516(16) -1.40274(16)
H8 H -0.5560 -0.3006 -1.3497
C11 C -0.6497(5) -0.25264(18) -1.4375(2)
H9 H -0.6966 -0.2547 -1.4905
H10 H -0.6378 -0.2120 -1.4099
C12 C -0.9422(2) -0.32012(12) -1.64161(13)
C13 C -0.8768(3) -0.26497(13) -1.67229(15)
H11 H -0.7791 -0.2657 -1.6824
C14 C -0.9521(3) -0.20850(14) -1.68857(17)
H12 H -0.9061 -0.1716 -1.7112
C15 C -1.0934(3) -0.20594(15) -1.67197(16)
H13 H -1.1448 -0.1674 -1.6831
C16 C -1.1599(3) -0.26008(15) -1.63883(17)
H14 H -1.2568 -0.2584 -1.6264
C17 C -1.0850(3) -0.31673(14) -1.62385(14)
H15 H -1.1314 -0.3536 -1.6013
C18 C -0.9462(2) -0.44649(12) -1.63844(13)
H16 H -1.0217 -0.4447 -1.5950
C19 C -0.8605(2) -0.50682(12) -1.61655(14)
C20 C -0.8610(3) -0.53044(15) -1.53358(14)
H17 H -0.9107 -0.5073 -1.4913
C21 C -0.7907(3) -0.58656(16) -1.51178(18)
H18 H -0.7921 -0.6015 -1.4549
C22 C -0.7185(3) -0.62109(15) -1.5722(2)
H19 H -0.6711 -0.6600 -1.5574
C23 C -0.7160(3) -0.59837(15) -1.65437(19)
H20 H -0.6661 -0.6218 -1.6962
C24 C -0.7858(3) -0.54146(13) -1.67654(15)
H21 H -0.7823 -0.5262 -1.7332
C25 C -1.0226(2) -0.45328(12) -1.72337(13)
C26 C -1.0220(2) -0.40753(12) -1.78750(13)
H22 H -0.9607 -0.3715 -1.7828
C27 C -1.1082(2) -0.41231(12) -1.85910(13)
C28 C -1.1956(2) -0.46681(12) -1.86511(13)
C29 C -1.1918(2) -0.51723(12) -1.80459(13)
C30 C -1.1065(2) -0.50761(12) -1.73406(13)
H23 H -1.1057 -0.5399 -1.6911
C31 C -1.1101(2) -0.35649(12) -1.92420(14)
C32 C -0.9976(3) -0.30539(15) -1.90537(16)
H24 H -0.9054 -0.3260 -1.9053
H25 H -1.0149 -0.2859 -1.8499
H26 H -1.0007 -0.2716 -1.9489
C33 C -1.2506(3) -0.32113(16) -1.9188(2)
H27 H -1.2533 -0.2860 -1.9606
H28 H -1.2618 -0.3029 -1.8620
H29 H -1.3266 -0.3518 -1.9304
C34 C -1.0840(3) -0.38096(16) -2.01452(14)
H30 H -1.0836 -0.3441 -2.0536
H31 H -1.1582 -0.4113 -2.0309
H32 H -0.9934 -0.4031 -2.0167
C35 C -1.2818(3) -0.57881(14) -1.81087(15)
C36 C -1.2379(4) -0.63030(16) -1.74546(19)
H33 H -1.1382 -0.6400 -1.7518
H34 H -1.2924 -0.6700 -1.7545
H35 H -1.2550 -0.6138 -1.6884
C37 C -1.4352(3) -0.56195(16) -1.79314(16)
H36 H -1.4441 -0.5466 -1.7348
H37 H -1.4932 -0.6007 -1.8012
H38 H -1.4661 -0.5279 -1.8322
C38 C -1.2672(3) -0.61225(15) -1.89817(17)
H39 H -1.2989 -0.5825 -1.9427
H40 H -1.3245 -0.6517 -1.8994
H41 H -1.1692 -0.6237 -1.9076
O3 O -0.17674(18) -0.43537(10) -1.44248(10)
H42 H -0.1126 -0.4083 -1.4337
O4 O -0.54450(16) -0.52915(10) -0.97743(9)
N2 N -0.76856(19) -0.53266(11) -1.02812(11)
C39 C -0.8349(2) -0.53055(12) -1.10796(13)
C40 C -0.9772(2) -0.53099(14) -1.12489(15)
H43 H -1.0437 -0.5343 -1.0807
C41 C -1.0189(3) -0.52637(15) -1.20908(16)
H44 H -1.1157 -0.5263 -1.2227
C42 C -0.9218(3) -0.52194(14) -1.27310(15)
H45 H -0.9526 -0.5184 -1.3301
C43 C -0.7789(2) -0.52259(13) -1.25512(13)
H46 H -0.7125 -0.5198 -1.2994
C44 C -0.7349(2) -0.52732(12) -1.17143(13)
C45 C -0.5898(2) -0.52892(12) -1.13165(12)
C46 C -0.6275(2) -0.53019(12) -1.03615(12)
C47 C -0.8367(3) -0.53379(15) -0.94630(13)
H47 H -0.9276 -0.5111 -0.9512
H48 H -0.7785 -0.5093 -0.9053
C48 C -0.8614(3) -0.60016(18) -0.91227(17)
H49 H -0.9080 -0.6032 -0.8595
C49 C -0.8253(6) -0.6541(2) -0.9478(2)
H50 H -0.7784 -0.6535 -1.0006
H51 H -0.8456 -0.6942 -0.9212
C50 C -0.5092(2) -0.59232(12) -1.14668(13)
C51 C -0.5753(3) -0.64731(13) -1.17900(15)
H52 H -0.6716 -0.6454 -1.1938
C52 C -0.5021(3) -0.70497(15) -1.18985(17)
H53 H -0.5483 -0.7419 -1.2126
C53 C -0.3622(3) -0.70886(15) -1.16772(17)
H54 H -0.3122 -0.7482 -1.1752
C54 C -0.2961(3) -0.65488(15) -1.13459(16)
H55 H -0.2004 -0.6574 -1.1189
C55 C -0.3682(3) -0.59713(14) -1.12405(14)
H56 H -0.3213 -0.5604 -1.1012
C56 C -0.5007(2) -0.46616(12) -1.14413(12)
H57 H -0.4236 -0.4698 -1.1015
C57 C -0.5816(2) -0.40555(12) -1.11838(13)
C58 C -0.5640(3) -0.38064(15) -1.03757(15)
H58 H -0.5038 -0.4025 -0.9990
C59 C -0.6317(4) -0.32491(17) -1.01172(17)
H59 H -0.6183 -0.3090 -0.9559
C60 C -0.7183(3) -0.29250(15) -1.0667(2)
H60 H -0.7647 -0.2540 -1.0494
C61 C -0.7373(3) -0.31659(15) -1.14750(19)
H61 H -0.7972 -0.2944 -1.1859
C62 C -0.6705(3) -0.37250(14) -1.17324(15)
H62 H -0.6854 -0.3885 -1.2289
C63 C -0.4263(2) -0.45770(12) -1.22885(13)
C64 C -0.3469(2) -0.40186(12) -1.23931(13)
H63 H -0.3493 -0.3698 -1.1962
C65 C -0.2643(2) -0.39053(12) -1.30971(13)
C66 C -0.2590(2) -0.44006(12) -1.37175(12)
C67 C -0.3414(2) -0.49654(12) -1.36515(13)
C68 C -0.4240(2) -0.50363(12) -1.29312(13)
H64 H -0.4807 -0.5412 -1.2879
C69 C -0.1775(3) -0.32765(13) -1.31437(14)
C70 C -0.0246(3) -0.34294(16) -1.29241(16)
H65 H 0.0102 -0.3766 -1.3306
H66 H -0.0184 -0.3583 -1.2339
H67 H 0.0319 -0.3036 -1.2987
C71 C -0.2286(4) -0.27676(15) -1.24988(18)
H68 H -0.1743 -0.2368 -1.2563
H69 H -0.2163 -0.2937 -1.1924
H70 H -0.3278 -0.2675 -1.2600
C72 C -0.1881(3) -0.29427(14) -1.40154(16)
H71 H -0.2867 -0.2891 -1.4172
H72 H -0.1409 -0.3210 -1.4440
H73 H -0.1435 -0.2515 -1.3987
C73 C -0.3418(2) -0.55050(12) -1.43321(13)
C74 C -0.4326(3) -0.60823(14) -1.40689(15)
H74 H -0.3981 -0.6258 -1.3532
H75 H -0.4284 -0.6419 -1.4505
H76 H -0.5295 -0.5938 -1.4002
C75 C -0.1942(3) -0.57693(16) -1.44820(19)
H77 H -0.1369 -0.5433 -1.4749
H78 H -0.1993 -0.6150 -1.4853
H79 H -0.1520 -0.5894 -1.3940
C76 C -0.4000(3) -0.52412(15) -1.51726(14)
H80 H -0.4949 -0.5076 -1.5086
H81 H -0.4023 -0.5590 -1.5593
H82 H -0.3401 -0.4889 -1.5375
loop_
_geom_bond_atom_site_label_1
_geom_bond_atom_site_label_2
_geom_bond_site_symmetry_1
_geom_bond_site_symmetry_2
O1 H1 1_555 1_555
O2 C8 1_555 1_555
N1 C1 1_555 1_555
C1 C2 1_555 1_555
C2 H2 1_555 1_555
C3 C2 1_555 1_555
H3 C3 1_555 1_555
C4 C3 1_555 1_555
H4 C4 1_555 1_555
C5 C4 1_555 1_555
H5 C5 1_555 1_555
C6 C1 1_555 1_555
C7 C6 1_555 1_555
C8 N1 1_555 1_555
C9 N1 1_555 1_555
H6 C9 1_555 1_555
H7 C9 1_555 1_555
C10 C9 1_555 1_555
H8 C10 1_555 1_555
C11 C10 1_555 1_555
H9 C11 1_555 1_555
H10 C11 1_555 1_555
C12 C7 1_555 1_555
C13 C12 1_555 1_555
H11 C13 1_555 1_555
C14 C13 1_555 1_555
H12 C14 1_555 1_555
C15 C14 1_555 1_555
H13 C15 1_555 1_555
C16 C15 1_555 1_555
H14 C16 1_555 1_555
C17 C12 1_555 1_555
H15 C17 1_555 1_555
C18 C7 1_555 1_555
H16 C18 1_555 1_555
C19 C18 1_555 1_555
C20 C19 1_555 1_555
H17 C20 1_555 1_555
C21 C20 1_555 1_555
H18 C21 1_555 1_555
C22 C21 1_555 1_555
H19 C22 1_555 1_555
C23 C22 1_555 1_555
H20 C23 1_555 1_555
C24 C19 1_555 1_555
H21 C24 1_555 1_555
C25 C18 1_555 1_555
C26 C25 1_555 1_555
H22 C26 1_555 1_555
C27 C26 1_555 1_555
C28 O1 1_555 1_555
C29 C28 1_555 1_555
C30 C25 1_555 1_555
H23 C30 1_555 1_555
C31 C27 1_555 1_555
C32 C31 1_555 1_555
H24 C32 1_555 1_555
H25 C32 1_555 1_555
H26 C32 1_555 1_555
C33 C31 1_555 1_555
H27 C33 1_555 1_555
H28 C33 1_555 1_555
H29 C33 1_555 1_555
C34 C31 1_555 1_555
H30 C34 1_555 1_555
H31 C34 1_555 1_555
H32 C34 1_555 1_555
C35 C29 1_555 1_555
C36 C35 1_555 1_555
H33 C36 1_555 1_555
H34 C36 1_555 1_555
H35 C36 1_555 1_555
C37 C35 1_555 1_555
H36 C37 1_555 1_555
H37 C37 1_555 1_555
H38 C37 1_555 1_555
C38 C35 1_555 1_555
H39 C38 1_555 1_555
H40 C38 1_555 1_555
H41 C38 1_555 1_555
O3 H42 1_555 1_555
O4 C46 1_555 1_555
N2 C39 1_555 1_555
C39 C40 1_555 1_555
C40 H43 1_555 1_555
C41 C40 1_555 1_555
H44 C41 1_555 1_555
C42 C41 1_555 1_555
H45 C42 1_555 1_555
C43 C42 1_555 1_555
H46 C43 1_555 1_555
C44 C39 1_555 1_555
C45 C44 1_555 1_555
C46 N2 1_555 1_555
C47 N2 1_555 1_555
H47 C47 1_555 1_555
H48 C47 1_555 1_555
C48 C47 1_555 1_555
H49 C48 1_555 1_555
C49 C48 1_555 1_555
H50 C49 1_555 1_555
H51 C49 1_555 1_555
C50 C45 1_555 1_555
C51 C50 1_555 1_555
H52 C51 1_555 1_555
C52 C51 1_555 1_555
H53 C52 1_555 1_555
C53 C52 1_555 1_555
H54 C53 1_555 1_555
C54 C53 1_555 1_555
H55 C54 1_555 1_555
C55 C50 1_555 1_555
H56 C55 1_555 1_555
C56 C45 1_555 1_555
H57 C56 1_555 1_555
C57 C56 1_555 1_555
C58 C57 1_555 1_555
H58 C58 1_555 1_555
C59 C58 1_555 1_555
H59 C59 1_555 1_555
C60 C59 1_555 1_555
H60 C60 1_555 1_555
C61 C60 1_555 1_555
H61 C61 1_555 1_555
C62 C57 1_555 1_555
H62 C62 1_555 1_555
C63 C56 1_555 1_555
C64 C63 1_555 1_555
H63 C64 1_555 1_555
C65 C64 1_555 1_555
C66 O3 1_555 1_555
C67 C66 1_555 1_555
C68 C63 1_555 1_555
H64 C68 1_555 1_555
C69 C65 1_555 1_555
C70 C69 1_555 1_555
H65 C70 1_555 1_555
H66 C70 1_555 1_555
H67 C70 1_555 1_555
C71 C69 1_555 1_555
H68 C71 1_555 1_555
H69 C71 1_555 1_555
H70 C71 1_555 1_555
C72 C69 1_555 1_555
H71 C72 1_555 1_555
H72 C72 1_555 1_555
H73 C72 1_555 1_555
C73 C67 1_555 1_555
C74 C73 1_555 1_555
H74 C74 1_555 1_555
H75 C74 1_555 1_555
H76 C74 1_555 1_555
C75 C73 1_555 1_555
H77 C75 1_555 1_555
H78 C75 1_555 1_555
H79 C75 1_555 1_555
C76 C73 1_555 1_555
H80 C76 1_555 1_555
H81 C76 1_555 1_555
H82 C76 1_555 1_555
C5 C6 1_555 1_555
C7 C8 1_555 1_555
C16 C17 1_555 1_555
C23 C24 1_555 1_555
C27 C28 1_555 1_555
C29 C30 1_555 1_555
C43 C44 1_555 1_555
C45 C46 1_555 1_555
C54 C55 1_555 1_555
C61 C62 1_555 1_555
C65 C66 1_555 1_555
C67 C68 1_555 1_555

#END
