
#######################################################################
#
#                 Cambridge Crystallographic Data Centre
#                                CCDC 
#
#######################################################################
#
# If this CIF has been generated from an entry in the Cambridge 
# Structural Database, then it will include bibliographic, chemical, 
# crystal, experimental, refinement or atomic coordinate data resulting 
# from the CCDC's data processing and validation procedures.
#
#######################################################################

data_WALJEY
_chemical_formula_moiety         'C66 H62,C3 H6 O1'
_chemical_name_systematic        
'1,2,4,5-tetrakis(1,3-Diphenylprop-2-yl)benzene acetone solvate'
_symmetry_cell_setting           monoclinic
_symmetry_space_group_name_H-M   'A 2/a'
_symmetry_Int_Tables_number      15
_space_group_name_Hall           '-A 2yn'
loop_
_symmetry_equiv_pos_site_id
_symmetry_equiv_pos_as_xyz
1 x,y,z
2 x,1/2+y,1/2+z
3 1/2-x,y,-z
4 1/2-x,1/2+y,1/2-z
5 -x,-y,-z
6 -x,1/2-y,1/2-z
7 1/2+x,-y,z
8 1/2+x,1/2-y,1/2+z
_cell_length_a                   17.584(5)
_cell_length_b                   12.3220(18)
_cell_length_c                   24.313(9)
_cell_angle_alpha                90
_cell_angle_beta                 97.666(10)
_cell_angle_gamma                90
_cell_volume                     5220.82
_exptl_crystal_colour            colorless
_cell_formula_units_Z            4
_chemical_properties_physical    air-sensitive
loop_
_atom_site_label
_atom_site_type_symbol
_atom_site_fract_x
_atom_site_fract_y
_atom_site_fract_z
C1 C 0.56467(25) 0.2873(3) 0.23235(17)
C2 C 0.4949(3) 0.3207(3) 0.20396(16)
C3 C 0.57265(25) 0.2185(3) 0.27862(17)
C4 C 0.49305(23) 0.3999(3) 0.15559(17)
C5 C 0.5542(3) 0.4892(3) 0.16710(17)
C6 C 0.5448(3) 0.5827(3) 0.12585(17)
C7 C 0.4753(3) 0.6306(4) 0.11043(22)
C8 C 0.4668(3) 0.7136(4) 0.07180(24)
C9 C 0.5286(4) 0.7522(4) 0.04967(21)
C10 C 0.5985(4) 0.7058(5) 0.0648(3)
C11 C 0.6068(3) 0.6214(4) 0.10279(22)
C12 C 0.49508(25) 0.3424(3) 0.09896(17)
C13 C 0.5614(3) 0.2671(4) 0.09461(17)
C14 C 0.6295(4) 0.3046(4) 0.07987(21)
C15 C 0.6885(4) 0.2319(7) 0.0731(3)
C16 C 0.6795(4) 0.1231(7) 0.0818(3)
C17 C 0.6125(5) 0.0860(5) 0.09662(23)
C18 C 0.5539(3) 0.1574(5) 0.10349(20)
C19 C 0.65323(25) 0.1913(3) 0.30537(17)
C20 C 0.70450(24) 0.2922(4) 0.31928(18)
C21 C 0.67393(25) 0.3698(4) 0.35896(19)
C22 C 0.6369(3) 0.4650(4) 0.34114(19)
C23 C 0.6095(3) 0.5363(4) 0.37781(24)
C24 C 0.6187(3) 0.5130(4) 0.43370(22)
C25 C 0.6559(3) 0.4195(4) 0.45239(19)
C26 C 0.6830(3) 0.3482(4) 0.41537(22)
C27 C 0.69407(24) 0.1123(4) 0.26940(18)
C28 C 0.6648(3) -0.0032(4) 0.26726(19)
C29 C 0.6033(3) -0.0351(4) 0.22957(20)
C30 C 0.5799(3) -0.1433(5) 0.22646(22)
C31 C 0.6166(4) -0.2186(4) 0.2617(3)
C32 C 0.6764(3) -0.1882(4) 0.29988(22)
C33 C 0.7011(3) -0.0810(4) 0.30319(19)
H1 H 0.614 0.314 0.217
H2 H 0.442 0.441 0.153
H3 H 0.607 0.456 0.169
H4 H 0.553 0.520 0.207
H5 H 0.427 0.603 0.128
H6 H 0.414 0.749 0.059
H7 H 0.521 0.814 0.020
H8 H 0.647 0.738 0.049
H9 H 0.660 0.584 0.114
H10 H 0.493 0.402 0.069
H11 H 0.444 0.302 0.090
H12 H 0.637 0.387 0.074
H13 H 0.738 0.257 0.060
H14 H 0.723 0.069 0.077
H15 H 0.603 0.001 0.104
H16 H 0.504 0.129 0.117
H17 H 0.650 0.152 0.342
H18 H 0.708 0.334 0.283
H19 H 0.759 0.270 0.334
H20 H 0.631 0.484 0.299
H21 H 0.581 0.607 0.363
H22 H 0.600 0.566 0.461
H23 H 0.664 0.402 0.494
H24 H 0.711 0.277 0.430
H25 H 0.752 0.113 0.284
H26 H 0.690 0.143 0.230
H27 H 0.576 0.024 0.203
H28 H 0.533 -0.164 0.197
H29 H 0.598 -0.300 0.259
H30 H 0.705 -0.247 0.325
H31 H 0.747 -0.060 0.333
C3E C 0.42735(25) 0.2815(3) 0.22138(17)
C2E C 0.5051(3) 0.1793(3) 0.29604(16)
C1E C 0.43533(25) 0.2127(3) 0.26765(17)
C19E C 0.34677(25) 0.3087(3) 0.19463(17)
C4E C 0.50695(23) 0.1001(3) 0.34441(17)
H1E H 0.386 0.186 0.283
C20E C 0.29550(24) 0.2078(4) 0.18072(18)
C27E C 0.30593(24) 0.3877(4) 0.23060(18)
H17E H 0.350 0.348 0.158
C5E C 0.4458(3) 0.0108(3) 0.33290(17)
C12E C 0.50492(25) 0.1576(3) 0.40104(17)
H2E H 0.558 0.059 0.347
C21E C 0.32607(25) 0.1302(4) 0.14104(19)
H18E H 0.292 0.166 0.217
H19E H 0.241 0.230 0.166
C28E C 0.3352(3) 0.5032(4) 0.23274(19)
H25E H 0.248 0.387 0.216
H26E H 0.310 0.357 0.270
C6E C 0.4552(3) -0.0827(3) 0.37415(17)
H3E H 0.393 0.044 0.331
H4E H 0.447 -0.020 0.293
C13E C 0.4386(3) 0.2329(4) 0.40539(17)
H10E H 0.507 0.098 0.431
H11E H 0.556 0.198 0.410
C22E C 0.3631(3) 0.0350(4) 0.15886(19)
C26E C 0.3170(3) 0.1518(4) 0.08463(22)
C29E C 0.3967(3) 0.5351(4) 0.27043(20)
C33E C 0.2989(3) 0.5810(4) 0.19681(19)
C7E C 0.5247(3) -0.1306(4) 0.38957(22)
C11E C 0.3932(3) -0.1214(4) 0.39721(22)
C14E C 0.3705(4) 0.1954(4) 0.42013(21)
C18E C 0.4461(3) 0.3426(5) 0.39651(20)
C23E C 0.3905(3) -0.0363(4) 0.12219(24)
H20E H 0.369 0.016 0.201
C25E C 0.3441(3) 0.0805(4) 0.04761(19)
H24E H 0.289 0.223 0.070
C30E C 0.4201(3) 0.6433(5) 0.27354(22)
H27E H 0.424 0.476 0.297
C32E C 0.3236(3) 0.6882(4) 0.20012(22)
H31E H 0.253 0.560 0.167
C8E C 0.5332(3) -0.2136(4) 0.42820(24)
H5E H 0.573 -0.103 0.372
C10E C 0.4015(4) -0.2058(5) 0.4352(3)
H9E H 0.340 -0.084 0.386
C15E C 0.3115(4) 0.2681(7) 0.4269(3)
H12E H 0.363 0.113 0.426
C17E C 0.3875(5) 0.4140(5) 0.40338(23)
H16E H 0.496 0.371 0.383
C24E C 0.3813(3) -0.0130(4) 0.06630(22)
H21E H 0.419 -0.107 0.137
H23E H 0.336 0.098 0.006
C31E C 0.3834(4) 0.7186(4) 0.2383(3)
H28E H 0.467 0.664 0.303
H30E H 0.295 0.747 0.175
C9E C 0.4714(4) -0.2522(4) 0.45033(21)
H6E H 0.586 -0.249 0.441
H8E H 0.353 -0.238 0.451
C16E C 0.3205(4) 0.3769(7) 0.4182(3)
H13E H 0.262 0.243 0.440
H15E H 0.397 0.499 0.396
H22E H 0.400 -0.066 0.039
H29E H 0.402 0.800 0.241
H7E H 0.479 -0.314 0.480
H14E H 0.277 0.431 0.423
C34 C 0.2500 0.4799(12) 0.00000
C35 C 0.3058(8) 0.5090(10) 0.0417(5)
O1 O 0.2500 0.3785(12) 0.00000
C35B C 0.1942(8) 0.5090(10) -0.0417(5)
loop_
_geom_bond_atom_site_label_1
_geom_bond_atom_site_label_2
_geom_bond_site_symmetry_1
_geom_bond_site_symmetry_2
C1 C2 1_555 1_555
C2 C4 1_555 1_555
C3 C1 1_555 1_555
C4 C5 1_555 1_555
C5 C6 1_555 1_555
C6 C7 1_555 1_555
C7 C8 1_555 1_555
C8 C9 1_555 1_555
C9 C10 1_555 1_555
C10 C11 1_555 1_555
C11 C6 1_555 1_555
C12 C4 1_555 1_555
C13 C12 1_555 1_555
C14 C13 1_555 1_555
C15 C14 1_555 1_555
C16 C15 1_555 1_555
C17 C16 1_555 1_555
C18 C13 1_555 1_555
C19 C3 1_555 1_555
C20 C19 1_555 1_555
C21 C20 1_555 1_555
C22 C21 1_555 1_555
C23 C22 1_555 1_555
C24 C23 1_555 1_555
C25 C24 1_555 1_555
C26 C21 1_555 1_555
C27 C19 1_555 1_555
C28 C27 1_555 1_555
C29 C28 1_555 1_555
C30 C29 1_555 1_555
C31 C30 1_555 1_555
C32 C31 1_555 1_555
C33 C28 1_555 1_555
C34 C35 1_555 1_555
O1 C34 1_555 1_555
H1 C1 1_555 1_555
H2 C4 1_555 1_555
H3 C5 1_555 1_555
H4 C5 1_555 1_555
H5 C7 1_555 1_555
H6 C8 1_555 1_555
H7 C9 1_555 1_555
H8 C10 1_555 1_555
H9 C11 1_555 1_555
H10 C12 1_555 1_555
H11 C12 1_555 1_555
H12 C14 1_555 1_555
H13 C15 1_555 1_555
H14 C16 1_555 1_555
H15 C17 1_555 1_555
H16 C18 1_555 1_555
H17 C19 1_555 1_555
H18 C20 1_555 1_555
H19 C20 1_555 1_555
H20 C22 1_555 1_555
H21 C23 1_555 1_555
H22 C24 1_555 1_555
H23 C25 1_555 1_555
H24 C26 1_555 1_555
H25 C27 1_555 1_555
H26 C27 1_555 1_555
H27 C29 1_555 1_555
H28 C30 1_555 1_555
H29 C31 1_555 1_555
H30 C32 1_555 1_555
H31 C33 1_555 1_555
C3E C2 1_555 1_555
C2E C3 1_555 1_555
C1E C3E 1_555 1_555
C19E C3E 1_555 1_555
C4E C2E 1_555 1_555
H1E C1E 1_555 1_555
C20E C19E 1_555 1_555
C27E C19E 1_555 1_555
H17E C19E 1_555 1_555
C5E C4E 1_555 1_555
C12E C4E 1_555 1_555
H2E C4E 1_555 1_555
C21E C20E 1_555 1_555
H18E C20E 1_555 1_555
H19E C20E 1_555 1_555
C28E C27E 1_555 1_555
H25E C27E 1_555 1_555
H26E C27E 1_555 1_555
C6E C5E 1_555 1_555
H3E C5E 1_555 1_555
H4E C5E 1_555 1_555
C13E C12E 1_555 1_555
H10E C12E 1_555 1_555
H11E C12E 1_555 1_555
C22E C21E 1_555 1_555
C26E C21E 1_555 1_555
C29E C28E 1_555 1_555
C33E C28E 1_555 1_555
C7E C6E 1_555 1_555
C11E C6E 1_555 1_555
C14E C13E 1_555 1_555
C18E C13E 1_555 1_555
C23E C22E 1_555 1_555
H20E C22E 1_555 1_555
C25E C26E 1_555 1_555
H24E C26E 1_555 1_555
C30E C29E 1_555 1_555
H27E C29E 1_555 1_555
C32E C33E 1_555 1_555
H31E C33E 1_555 1_555
C8E C7E 1_555 1_555
H5E C7E 1_555 1_555
C10E C11E 1_555 1_555
H9E C11E 1_555 1_555
C15E C14E 1_555 1_555
H12E C14E 1_555 1_555
C17E C18E 1_555 1_555
H16E C18E 1_555 1_555
C24E C23E 1_555 1_555
H21E C23E 1_555 1_555
H23E C25E 1_555 1_555
C31E C30E 1_555 1_555
H28E C30E 1_555 1_555
H30E C32E 1_555 1_555
C9E C8E 1_555 1_555
H6E C8E 1_555 1_555
H8E C10E 1_555 1_555
C16E C15E 1_555 1_555
H13E C15E 1_555 1_555
H15E C17E 1_555 1_555
H22E C24E 1_555 1_555
H29E C31E 1_555 1_555
H7E C9E 1_555 1_555
H14E C16E 1_555 1_555
C35B C34 1_555 1_555
C17 C18 1_555 1_555
C25 C26 1_555 1_555
C32 C33 1_555 1_555
C2E C1E 1_555 1_555
C25E C24E 1_555 1_555
C32E C31E 1_555 1_555
C10E C9E 1_555 1_555
C17E C16E 1_555 1_555

#END
