
#######################################################################
#
#                 Cambridge Crystallographic Data Centre
#                                CCDC 
#
#######################################################################
#
# If this CIF has been generated from an entry in the Cambridge 
# Structural Database, then it will include bibliographic, chemical, 
# crystal, experimental, refinement or atomic coordinate data resulting 
# from the CCDC's data processing and validation procedures.
#
#######################################################################

data_WALKUQ
_chemical_formula_moiety         'C34 H32 O4 Si1'
_chemical_name_systematic        
Dimethyl(2-phenylethynyl)(5-ethyl-2,3-bis(methoxycarbonyl)-4,6-diphenylphenyl)silane
_symmetry_cell_setting           triclinic
_symmetry_space_group_name_H-M   'P -1'
_symmetry_Int_Tables_number      2
_space_group_name_Hall           '-P 1'
loop_
_symmetry_equiv_pos_site_id
_symmetry_equiv_pos_as_xyz
1 x,y,z
2 -x,-y,-z
_cell_length_a                   10.179(2)
_cell_length_b                   11.249(2)
_cell_length_c                   14.110(3)
_cell_angle_alpha                98.37(3)
_cell_angle_beta                 106.17(3)
_cell_angle_gamma                103.61(3)
_cell_volume                     1469.09
_exptl_crystal_colour            colorless
_exptl_crystal_description       Block
_cell_formula_units_Z            2
loop_
_atom_site_label
_atom_site_type_symbol
_atom_site_fract_x
_atom_site_fract_y
_atom_site_fract_z
Si1 Si 0.16799(9) 0.50160(8) 0.35693(6)
O1 O 0.4290(2) 0.62776(19) 0.29527(15)
O2 O 0.3501(2) 0.53612(19) 0.12846(15)
O3 O 0.6007(2) 0.43740(19) 0.18068(14)
O4 O 0.4409(2) 0.28581(19) 0.05132(16)
C1 C 0.2671(3) 0.3877(2) 0.31908(18)
C2 C 0.3449(3) 0.4093(2) 0.25033(18)
C3 C 0.4033(3) 0.3189(3) 0.21384(18)
C4 C 0.3907(3) 0.2067(3) 0.2445(2)
C5 C 0.3200(3) 0.1839(3) 0.3157(2)
C6 C 0.2587(3) 0.2743(3) 0.35028(18)
C7 C 0.3709(3) 0.5284(3) 0.2154(2)
C8 C 0.4620(4) 0.7483(3) 0.2691(3)
H1 H 0.5231 0.7487 0.2281
H2 H 0.5097 0.8131 0.3299
H3 H 0.3751 0.7631 0.2320
C9 C 0.4799(3) 0.3438(3) 0.1369(2)
C10 C 0.6791(3) 0.4771(3) 0.1131(2)
H4 H 0.6662 0.4059 0.0611
H5 H 0.7789 0.5122 0.1510
H6 H 0.6438 0.5392 0.0826
C11 C 0.4615(3) 0.1160(3) 0.2057(2)
C12 C 0.6087(3) 0.1422(3) 0.2430(2)
H7 H 0.6631 0.2135 0.2937
C13 C 0.6749(4) 0.0608(4) 0.2042(3)
H8 H 0.7739 0.0788 0.2292
C14 C 0.5976(4) -0.0444(3) 0.1304(3)
H9 H 0.6434 -0.0980 0.1056
C15 C 0.4518(4) -0.0709(3) 0.0927(2)
H10 H 0.3981 -0.1426 0.0422
C16 C 0.3845(3) 0.0098(3) 0.1306(2)
H11 H 0.2857 -0.0083 0.1046
C17 C 0.3196(9) 0.0668(6) 0.3571(6)
C19 C 0.2338(9) -0.0314(9) 0.3232(6)
H15 H 0.2573 -0.0887 0.3649
H16 H 0.2323 -0.0632 0.2558
H17 H 0.1414 -0.0230 0.3210
C20 C 0.1868(3) 0.2495(3) 0.4290(2)
C21 C 0.2540(3) 0.3193(3) 0.5280(2)
H18 H 0.3433 0.3776 0.5453
C22 C 0.1880(4) 0.3024(4) 0.6019(3)
H19 H 0.2338 0.3491 0.6681
C23 C 0.0580(5) 0.2183(4) 0.5770(3)
H20 H 0.0136 0.2086 0.6260
C24 C -0.0097(4) 0.1466(3) 0.4792(3)
H21 H -0.0987 0.0879 0.4624
C25 C 0.0563(3) 0.1629(3) 0.4066(2)
H22 H 0.0111 0.1139 0.3411
C26 C 0.1193(3) 0.5812(3) 0.2530(2)
C27 C 0.0813(3) 0.6338(3) 0.1870(2)
C28 C 0.0409(3) 0.6949(3) 0.1045(2)
C29 C 0.0888(3) 0.6738(3) 0.0214(2)
H23 H 0.1451 0.6200 0.0188
C30 C 0.0517(4) 0.7335(3) -0.0569(2)
H24 H 0.0851 0.7204 -0.1114
C31 C -0.0322(4) 0.8109(4) -0.0558(3)
H25 H -0.0561 0.8503 -0.1089
C32 C -0.0811(4) 0.8302(3) 0.0240(3)
H26 H -0.1390 0.8829 0.0249
C33 C -0.0462(3) 0.7729(3) 0.1033(3)
H27 H -0.0815 0.7867 0.1567
C34 C 0.2795(3) 0.6208(3) 0.4757(2)
H28 H 0.3672 0.6650 0.4676
H29 H 0.3003 0.5796 0.5307
H30 H 0.2284 0.6791 0.4899
C35 C -0.0101(3) 0.4232(3) 0.3654(2)
H31 H -0.0646 0.4823 0.3655
H32 H 0.0027 0.3934 0.4267
H33 H -0.0601 0.3537 0.3082
C18? C 0.4106(9) 0.0601(7) 0.4340(6)
H12? H 0.4082 0.1144 0.4922
H13? H 0.5037 0.0856 0.4270
H14? H 0.3905 -0.0248 0.4422
loop_
_geom_bond_atom_site_label_1
_geom_bond_atom_site_label_2
_geom_bond_site_symmetry_1
_geom_bond_site_symmetry_2
Si1 C1 1_555 1_555
O1 C7 1_555 1_555
O2 C7 1_555 1_555
O3 C9 1_555 1_555
O4 C9 1_555 1_555
C1 C2 1_555 1_555
C2 C3 1_555 1_555
C3 C4 1_555 1_555
C4 C5 1_555 1_555
C5 C6 1_555 1_555
C6 C1 1_555 1_555
C7 C2 1_555 1_555
C8 O1 1_555 1_555
H1 C8 1_555 1_555
H2 C8 1_555 1_555
H3 C8 1_555 1_555
C9 C3 1_555 1_555
C10 O3 1_555 1_555
H4 C10 1_555 1_555
H5 C10 1_555 1_555
H6 C10 1_555 1_555
C11 C4 1_555 1_555
C12 C11 1_555 1_555
H7 C12 1_555 1_555
C13 C12 1_555 1_555
H8 C13 1_555 1_555
C14 C13 1_555 1_555
H9 C14 1_555 1_555
C15 C14 1_555 1_555
H10 C15 1_555 1_555
C16 C11 1_555 1_555
H11 C16 1_555 1_555
C17 C5 1_555 1_555
C19 C17 1_555 1_555
H15 C19 1_555 1_555
H16 C19 1_555 1_555
H17 C19 1_555 1_555
C20 C6 1_555 1_555
C21 C20 1_555 1_555
H18 C21 1_555 1_555
C22 C21 1_555 1_555
H19 C22 1_555 1_555
C23 C22 1_555 1_555
H20 C23 1_555 1_555
C24 C23 1_555 1_555
H21 C24 1_555 1_555
C25 C20 1_555 1_555
H22 C25 1_555 1_555
C26 Si1 1_555 1_555
C27 C26 1_555 1_555
C28 C27 1_555 1_555
C29 C28 1_555 1_555
H23 C29 1_555 1_555
C30 C29 1_555 1_555
H24 C30 1_555 1_555
C31 C30 1_555 1_555
H25 C31 1_555 1_555
C32 C31 1_555 1_555
H26 C32 1_555 1_555
C33 C28 1_555 1_555
H27 C33 1_555 1_555
C34 Si1 1_555 1_555
H28 C34 1_555 1_555
H29 C34 1_555 1_555
H30 C34 1_555 1_555
C35 Si1 1_555 1_555
H31 C35 1_555 1_555
H32 C35 1_555 1_555
H33 C35 1_555 1_555
C15 C16 1_555 1_555
C24 C25 1_555 1_555
C32 C33 1_555 1_555

#END
