
#######################################################################
#
#                 Cambridge Crystallographic Data Centre
#                                CCDC 
#
#######################################################################
#
# If this CIF has been generated from an entry in the Cambridge 
# Structural Database, then it will include bibliographic, chemical, 
# crystal, experimental, refinement or atomic coordinate data resulting 
# from the CCDC's data processing and validation procedures.
#
#######################################################################

data_WALLAX
_chemical_formula_moiety         'C26 H25 N1 O1 Si1'
_chemical_name_systematic        
Dimethyl(2-phenylethynyl)(2-phenyl-2-(p-tolylaminocarbonyl)ethenyl)silane
_symmetry_cell_setting           orthorhombic
_symmetry_space_group_name_H-M   'P n a 21'
_symmetry_Int_Tables_number      33
_space_group_name_Hall           'P 2c -2n'
loop_
_symmetry_equiv_pos_site_id
_symmetry_equiv_pos_as_xyz
1 x,y,z
2 -x,-y,1/2+z
3 1/2+x,1/2-y,z
4 1/2-x,1/2+y,1/2+z
_cell_length_a                   9.769(2)
_cell_length_b                   29.109(6)
_cell_length_c                   8.0559(16)
_cell_angle_alpha                90
_cell_angle_beta                 90
_cell_angle_gamma                90
_cell_volume                     2290.82
_exptl_crystal_colour            colorless
_exptl_crystal_description       Block
_cell_formula_units_Z            4
loop_
_atom_site_label
_atom_site_type_symbol
_atom_site_fract_x
_atom_site_fract_y
_atom_site_fract_z
Si1 Si 0.95623(9) 0.32099(3) 0.05764(11)
O1 O 1.30446(17) 0.25284(6) 0.4861(3)
N1 N 1.08806(19) 0.22525(6) 0.4973(3)
C1 C 0.9234(3) 0.37844(9) 0.1386(5)
C2 C 0.8976(3) 0.41487(11) 0.1965(4)
C3 C 0.8667(3) 0.45911(10) 0.2705(4)
C4 C 0.7434(4) 0.46587(12) 0.3516(5)
H1 H 0.6797 0.4422 0.3563
C5 C 0.7140(3) 0.50791(14) 0.4263(5)
H2 H 0.6308 0.5122 0.4804
C6 C 0.8061(4) 0.54251(12) 0.4204(5)
H3 H 0.7866 0.5705 0.4709
C7 C 0.9279(4) 0.53630(11) 0.3399(5)
H4 H 0.9906 0.5603 0.3350
C8 C 0.9585(3) 0.49537(12) 0.2668(5)
H5 H 1.0423 0.4917 0.2137
C9 C 1.0336(3) 0.28471(8) 0.2233(4)
H6 H 0.9946 0.2557 0.2329
C10 C 1.1343(2) 0.29270(8) 0.3304(3)
C11 C 1.2131(3) 0.33644(9) 0.3378(4)
C12 C 1.1749(3) 0.37218(10) 0.4392(4)
H7 H 1.0977 0.3692 0.5061
C13 C 1.2500(4) 0.41263(10) 0.4431(5)
H8 H 1.2216 0.4367 0.5108
C14 C 1.3647(4) 0.41746(11) 0.3488(6)
H9 H 1.4152 0.4445 0.3526
C15 C 1.4047(3) 0.38229(10) 0.2489(5)
H10 H 1.4832 0.3853 0.1845
C16 C 1.3292(3) 0.34187(10) 0.2426(5)
H11 H 1.3573 0.3182 0.1731
C17 C 1.1836(3) 0.25572(8) 0.4458(3)
C18 C 1.0716(3) 0.32317(10) -0.1231(5)
H12 H 1.0349 0.3439 -0.2045
H13 H 1.0799 0.2930 -0.1704
H14 H 1.1602 0.3338 -0.0885
C19 C 0.7914(3) 0.29408(10) 0.0072(5)
H15 H 0.7379 0.2909 0.1065
H16 H 0.8071 0.2643 -0.0405
H17 H 0.7429 0.3130 -0.0709
C20 C 1.1548(4) 0.05527(9) 0.8481(5)
H18 H 1.0816 0.0350 0.8174
H19 H 1.1513 0.0609 0.9654
H20 H 1.2409 0.0414 0.8203
C21 C 1.1399(3) 0.10069(9) 0.7545(4)
C22 C 1.2431(3) 0.11784(9) 0.6592(4)
H21 H 1.3245 0.1015 0.6515
C23 C 1.2308(2) 0.15896(8) 0.5733(4)
H22 H 1.3025 0.1695 0.5078
C24 C 1.1117(2) 0.18395(8) 0.5858(3)
C25 C 1.0066(3) 0.16680(10) 0.6816(4)
H23 H 0.9253 0.1832 0.6910
C26 C 1.0210(3) 0.12551(9) 0.7636(4)
H24 H 0.9484 0.1143 0.8264
H25 H 0.9975 0.2327 0.4872
loop_
_geom_bond_atom_site_label_1
_geom_bond_atom_site_label_2
_geom_bond_site_symmetry_1
_geom_bond_site_symmetry_2
Si1 C1 1_555 1_555
O1 C17 1_555 1_555
N1 C17 1_555 1_555
C1 C2 1_555 1_555
C2 C3 1_555 1_555
C3 C4 1_555 1_555
C4 H1 1_555 1_555
C5 C4 1_555 1_555
H2 C5 1_555 1_555
C6 C5 1_555 1_555
H3 C6 1_555 1_555
C7 C6 1_555 1_555
H4 C7 1_555 1_555
C8 C3 1_555 1_555
H5 C8 1_555 1_555
C9 Si1 1_555 1_555
H6 C9 1_555 1_555
C10 C9 1_555 1_555
C11 C10 1_555 1_555
C12 C11 1_555 1_555
H7 C12 1_555 1_555
C13 C12 1_555 1_555
H8 C13 1_555 1_555
C14 C13 1_555 1_555
H9 C14 1_555 1_555
C15 C14 1_555 1_555
H10 C15 1_555 1_555
C16 C11 1_555 1_555
H11 C16 1_555 1_555
C17 C10 1_555 1_555
C18 Si1 1_555 1_555
H12 C18 1_555 1_555
H13 C18 1_555 1_555
H14 C18 1_555 1_555
C19 Si1 1_555 1_555
H15 C19 1_555 1_555
H16 C19 1_555 1_555
H17 C19 1_555 1_555
C20 H18 1_555 1_555
H19 C20 1_555 1_555
H20 C20 1_555 1_555
C21 C20 1_555 1_555
C22 C21 1_555 1_555
H21 C22 1_555 1_555
C23 C22 1_555 1_555
H22 C23 1_555 1_555
C24 N1 1_555 1_555
C25 C24 1_555 1_555
H23 C25 1_555 1_555
C26 C21 1_555 1_555
H24 C26 1_555 1_555
H25 N1 1_555 1_555
C7 C8 1_555 1_555
C15 C16 1_555 1_555
C23 C24 1_555 1_555
C25 C26 1_555 1_555

#END
