
#######################################################################
#
#                 Cambridge Crystallographic Data Centre
#                                CCDC 
#
#######################################################################
#
# If this CIF has been generated from an entry in the Cambridge 
# Structural Database, then it will include bibliographic, chemical, 
# crystal, experimental, refinement or atomic coordinate data resulting 
# from the CCDC's data processing and validation procedures.
#
#######################################################################

data_WALMAZ
_chemical_formula_moiety         'C17 H13 I1 N4'
_chemical_name_systematic        'bis(pyridin-2-yl)ketone 4-iodophenylhydrazone'
_symmetry_cell_setting           monoclinic
_symmetry_space_group_name_H-M   'P 21/c'
_symmetry_Int_Tables_number      14
_space_group_name_Hall           '-P 2ybc'
loop_
_symmetry_equiv_pos_site_id
_symmetry_equiv_pos_as_xyz
1 x,y,z
2 -x,1/2+y,1/2-z
3 -x,-y,-z
4 x,1/2-y,1/2+z
_cell_length_a                   4.9420(10)
_cell_length_b                   24.9833(9)
_cell_length_c                   12.4557(5)
_cell_angle_alpha                90
_cell_angle_beta                 103.162(5)
_cell_angle_gamma                90
_cell_volume                     1497.47
_exptl_crystal_colour            orange
_exptl_crystal_description       lath
_cell_formula_units_Z            4
loop_
_atom_site_label
_atom_site_type_symbol
_atom_site_fract_x
_atom_site_fract_y
_atom_site_fract_z
I1 I 1.28948(4) -0.230183(8) 1.175220(17)
N1 N 0.4530(5) -0.12583(10) 0.7749(2)
H1 H 0.4439 -0.1390 0.7086
N2 N 0.2777(5) -0.08649(10) 0.7905(2)
N3 N -0.3173(5) -0.01566(10) 0.6453(2)
N4 N -0.2058(6) -0.13864(10) 0.5905(2)
C1 C 1.0238(6) -0.19097(12) 1.0423(2)
C2 C 1.0312(6) -0.20533(12) 0.9352(3)
H2 H 1.1634 -0.2307 0.9224
C3 C 0.8448(6) -0.18241(12) 0.8474(2)
H3 H 0.8500 -0.1921 0.7742
C4 C 0.6484(6) -0.14514(12) 0.8656(2)
C5 C 0.6476(7) -0.13022(13) 0.9731(3)
H4 H 0.5188 -0.1042 0.9862
C6 C 0.8354(7) -0.15335(13) 1.0617(3)
H5 H 0.8338 -0.1433 1.1351
C7 C 0.0722(6) -0.07383(12) 0.7100(2)
C8 C -0.1080(6) -0.02955(12) 0.7307(2)
C9 C -0.0618(7) -0.00335(13) 0.8323(3)
H6 H 0.0894 -0.0134 0.8907
C10 C -0.2399(7) 0.03743(14) 0.8466(3)
H7 H -0.2132 0.0556 0.9152
C11 C -0.4570(7) 0.05141(13) 0.7600(3)
H8 H -0.5823 0.0792 0.7679
C12 C -0.4876(7) 0.02404(13) 0.6616(3)
H9 H -0.6370 0.0338 0.6023
C13 C 0.0008(6) -0.10244(11) 0.6012(2)
C14 C 0.1436(7) -0.09314(14) 0.5192(3)
H10 H 0.2867 -0.0670 0.5290
C15 C 0.0728(7) -0.12296(14) 0.4219(3)
H11 H 0.1664 -0.1173 0.3642
C16 C -0.1358(6) -0.16079(13) 0.4112(3)
H12 H -0.1882 -0.1818 0.3462
C17 C -0.2654(7) -0.16711(13) 0.4972(3)
H13 H -0.4069 -0.1935 0.4898
loop_
_geom_bond_atom_site_label_1
_geom_bond_atom_site_label_2
_geom_bond_site_symmetry_1
_geom_bond_site_symmetry_2
I1 C1 1_555 1_555
N1 H1 1_555 1_555
N2 N1 1_555 1_555
N3 C8 1_555 1_555
N4 C13 1_555 1_555
C1 C2 1_555 1_555
C2 H2 1_555 1_555
C3 C2 1_555 1_555
H3 C3 1_555 1_555
C4 N1 1_555 1_555
C5 C4 1_555 1_555
H4 C5 1_555 1_555
C6 C1 1_555 1_555
H5 C6 1_555 1_555
C7 N2 1_555 1_555
C8 C7 1_555 1_555
C9 C8 1_555 1_555
H6 C9 1_555 1_555
C10 C9 1_555 1_555
H7 C10 1_555 1_555
C11 C10 1_555 1_555
H8 C11 1_555 1_555
C12 N3 1_555 1_555
H9 C12 1_555 1_555
C13 C7 1_555 1_555
C14 C13 1_555 1_555
H10 C14 1_555 1_555
C15 C14 1_555 1_555
H11 C15 1_555 1_555
C16 C15 1_555 1_555
H12 C16 1_555 1_555
C17 N4 1_555 1_555
H13 C17 1_555 1_555
C3 C4 1_555 1_555
C5 C6 1_555 1_555
C11 C12 1_555 1_555
C16 C17 1_555 1_555

#END
