
#######################################################################
#
#                 Cambridge Crystallographic Data Centre
#                                CCDC 
#
#######################################################################
#
# If this CIF has been generated from an entry in the Cambridge 
# Structural Database, then it will include bibliographic, chemical, 
# crystal, experimental, refinement or atomic coordinate data resulting 
# from the CCDC's data processing and validation procedures.
#
#######################################################################

data_WALNIJ
_chemical_formula_moiety         'C16 H14 F2 N2 O2'
_chemical_name_systematic        
2,2'-(ethane-1,2-diylbis(nitrilomethylylidene))bis(4-fluorophenol)
_symmetry_cell_setting           monoclinic
_symmetry_space_group_name_H-M   'P 21/n'
_symmetry_Int_Tables_number      14
_space_group_name_Hall           '-P 2yn'
loop_
_symmetry_equiv_pos_site_id
_symmetry_equiv_pos_as_xyz
1 x,y,z
2 1/2-x,1/2+y,1/2-z
3 -x,-y,-z
4 1/2+x,1/2-y,1/2+z
_cell_length_a                   7.227(2)
_cell_length_b                   10.970(3)
_cell_length_c                   9.073(2)
_cell_angle_alpha                90
_cell_angle_beta                 104.913(2)
_cell_angle_gamma                90
_cell_volume                     695.081
_exptl_crystal_colour            yellow
_exptl_crystal_description       block
_cell_formula_units_Z            2
loop_
_atom_site_label
_atom_site_type_symbol
_atom_site_fract_x
_atom_site_fract_y
_atom_site_fract_z
F1 F 0.0288(5) 0.3625(3) -0.3404(3)
N1 N 0.4371(6) 0.5195(4) 0.2893(4)
O1 O 0.3032(6) 0.6977(3) 0.1062(4)
H1 H 0.3597 0.6642 0.1859
C1 C 0.2697(6) 0.4880(4) 0.0297(5)
C2 C 0.2408(6) 0.6128(5) -0.0028(5)
C3 C 0.1446(7) 0.6498(5) -0.1475(5)
H2 H 0.1280 0.7326 -0.1686
C4 C 0.0731(7) 0.5669(5) -0.2606(5)
H3 H 0.0070 0.5925 -0.3576
C5 C 0.1012(7) 0.4448(5) -0.2278(5)
C6 C 0.1985(7) 0.4044(5) -0.0872(5)
H4 H 0.2174 0.3213 -0.0690
C7 C 0.3703(7) 0.4460(5) 0.1810(5)
H5 H 0.3861 0.3627 0.1988
C8 C 0.5381(8) 0.4719(5) 0.4395(5)
H6 H 0.6738 0.4893 0.4587
H7 H 0.5223 0.3841 0.4411
F1B F 0.9712(5) 0.6375(3) 1.3404(3)
N1B N 0.5629(6) 0.4805(4) 0.7107(4)
O1B O 0.6968(6) 0.3023(3) 0.8938(4)
H1B H 0.6403 0.3358 0.8141
C1B C 0.7303(6) 0.5120(4) 0.9703(5)
C2B C 0.7592(6) 0.3872(5) 1.0028(5)
C3B C 0.8554(7) 0.3502(5) 1.1475(5)
H2B H 0.8720 0.2674 1.1686
C4B C 0.9269(7) 0.4331(5) 1.2606(5)
H3B H 0.9930 0.4075 1.3576
C5B C 0.8988(7) 0.5552(5) 1.2278(5)
C6B C 0.8015(7) 0.5956(5) 1.0872(5)
H4B H 0.7826 0.6787 1.0690
C7B C 0.6297(7) 0.5540(5) 0.8190(5)
H5B H 0.6139 0.6373 0.8012
C8B C 0.4619(8) 0.5281(5) 0.5605(5)
H6B H 0.3262 0.5107 0.5413
H7B H 0.4777 0.6159 0.5589
loop_
_geom_bond_atom_site_label_1
_geom_bond_atom_site_label_2
_geom_bond_site_symmetry_1
_geom_bond_site_symmetry_2
F1 C5 1_555 1_555
N1 C7 1_555 1_555
O1 H1 1_555 1_555
C1 C2 1_555 1_555
C2 O1 1_555 1_555
C3 C2 1_555 1_555
H2 C3 1_555 1_555
C4 C3 1_555 1_555
H3 C4 1_555 1_555
C5 C4 1_555 1_555
C6 C1 1_555 1_555
H4 C6 1_555 1_555
C7 C1 1_555 1_555
H5 C7 1_555 1_555
C8 N1 1_555 1_555
H6 C8 1_555 1_555
H7 C8 1_555 1_555
F1B C5B 1_555 1_555
N1B C7B 1_555 1_555
O1B H1B 1_555 1_555
C1B C2B 1_555 1_555
C2B O1B 1_555 1_555
C3B C2B 1_555 1_555
H2B C3B 1_555 1_555
C4B C3B 1_555 1_555
H3B C4B 1_555 1_555
C5B C4B 1_555 1_555
C6B C1B 1_555 1_555
H4B C6B 1_555 1_555
C7B C1B 1_555 1_555
H5B C7B 1_555 1_555
C8B C8 1_555 1_555
H6B C8B 1_555 1_555
H7B C8B 1_555 1_555
C5 C6 1_555 1_555
N1B C8B 1_555 1_555
C5B C6B 1_555 1_555

#END
