
#######################################################################
#
#                 Cambridge Crystallographic Data Centre
#                                CCDC 
#
#######################################################################
#
# If this CIF has been generated from an entry in the Cambridge 
# Structural Database, then it will include bibliographic, chemical, 
# crystal, experimental, refinement or atomic coordinate data resulting 
# from the CCDC's data processing and validation procedures.
#
#######################################################################

data_WALNOO01
_chemical_formula_moiety         'C34 H47 O2 P1'
_chemical_name_systematic        
2,2'-(Phenylphosphinediyl)bis(4,6-di-t-butylphenol)
_symmetry_cell_setting           monoclinic
_symmetry_space_group_name_H-M   'P 21/n'
_symmetry_Int_Tables_number      14
_space_group_name_Hall           '-P 2yn'
loop_
_symmetry_equiv_pos_site_id
_symmetry_equiv_pos_as_xyz
1 x,y,z
2 1/2-x,1/2+y,1/2-z
3 -x,-y,-z
4 1/2+x,1/2-y,1/2+z
_cell_length_a                   10.1513(2)
_cell_length_b                   21.4430(5)
_cell_length_c                   14.3380(3)
_cell_angle_alpha                90
_cell_angle_beta                 96.8540(10)
_cell_angle_gamma                90
_cell_volume                     3098.71
_exptl_crystal_colour            colorless
_exptl_crystal_description       prism
_cell_formula_units_Z            4
loop_
_atom_site_label
_atom_site_type_symbol
_atom_site_fract_x
_atom_site_fract_y
_atom_site_fract_z
P1 P 0.21667(6) 0.25597(3) 0.19713(4)
O1 O 0.47216(17) 0.32676(8) 0.22371(11)
H1 H 0.4292 0.3064 0.1822
O2 O 0.36499(17) 0.13645(8) 0.20540(13)
H2 H 0.3693 0.1709 0.1813
C1 C 0.4030(2) 0.33100(10) 0.29965(15)
C2 C 0.4618(2) 0.36432(10) 0.37889(16)
C3 C 0.6014(2) 0.39268(11) 0.38152(18)
C4 C 0.7029(3) 0.34202(14) 0.3666(2)
H3 H 0.7893 0.3606 0.3688
H4 H 0.6801 0.3223 0.3067
H5 H 0.7034 0.3115 0.4156
C5 C 0.6025(3) 0.44287(13) 0.3057(2)
H6 H 0.6907 0.4595 0.3090
H7 H 0.5415 0.4758 0.3155
H8 H 0.5783 0.4246 0.2449
C6 C 0.6470(3) 0.42315(14) 0.4768(2)
H9 H 0.7346 0.4400 0.4765
H10 H 0.6477 0.3927 0.5259
H11 H 0.5864 0.4561 0.4872
C7 C 0.3876(2) 0.37053(11) 0.45332(16)
H12 H 0.4207 0.3941 0.5081
C8 C 0.2616(2) 0.34460(10) 0.45539(15)
C9 C 0.1817(3) 0.35379(12) 0.53870(16)
C10 C 0.2434(7) 0.4022(3) 0.6096(5)
H13 H 0.2510 0.4414 0.5784
H14 H 0.3299 0.3883 0.6359
H15 H 0.1881 0.4071 0.6589
C12 C 0.1701(9) 0.2929(3) 0.5902(5)
H19 H 0.2570 0.2785 0.6144
H20 H 0.1277 0.2624 0.5477
H21 H 0.1183 0.2991 0.6412
C14 C 0.097(2) 0.4094(8) 0.5220(13)
H25 H 0.0472 0.4153 0.5740
H26 H 0.0380 0.4040 0.4654
H27 H 0.1523 0.4453 0.5159
C16 C 0.2109(2) 0.30955(10) 0.37795(15)
H31 H 0.1269 0.2890 0.3780
C17 C 0.2789(2) 0.30289(10) 0.29952(15)
C18 C 0.0652(2) 0.29256(10) 0.14298(15)
C19 C -0.0153(3) 0.33306(12) 0.18687(18)
H32 H 0.0046 0.3419 0.2527
C20 C -0.1239(3) 0.36122(14) 0.1364(2)
H33 H -0.1782 0.3888 0.1682
C21 C -0.1543(3) 0.34938(16) 0.0417(2)
H34 H -0.2290 0.3688 0.0057
C22 C -0.0763(3) 0.30942(16) -0.0030(2)
H35 H -0.0955 0.3013 -0.0691
C23 C 0.0325(3) 0.28087(13) 0.04704(17)
H36 H 0.0849 0.2520 0.0159
C24 C 0.1665(2) 0.18348(10) 0.25039(15)
C25 C 0.0517(2) 0.17826(10) 0.29522(15)
H37 H -0.0092 0.2126 0.2940
C26 C 0.0259(2) 0.12452(10) 0.34353(15)
C27 C -0.0921(2) 0.11875(11) 0.40074(17)
C28 C -0.0370(3) 0.11605(16) 0.50525(19)
H38 H -0.1088 0.1121 0.5427
H39 H 0.0117 0.1535 0.5223
H40 H 0.0210 0.0807 0.5160
C29 C -0.1862(3) 0.17424(15) 0.3861(3)
H41 H -0.2588 0.1692 0.4227
H42 H -0.2198 0.1771 0.3208
H43 H -0.1385 0.2117 0.4052
C30 C -0.1700(3) 0.05901(12) 0.37564(18)
H44 H -0.2428 0.0565 0.4125
H45 H -0.1128 0.0237 0.3889
H46 H -0.2035 0.0592 0.3101
C31 C 0.1156(2) 0.07532(10) 0.34217(15)
H47 H 0.0990 0.0374 0.3743
C32 C 0.2291(2) 0.07678(10) 0.29665(15)
C33 C 0.3239(2) 0.02065(11) 0.29772(17)
C34 C 0.2777(3) -0.03357(12) 0.3545(2)
H48 H 0.3383 -0.0679 0.3537
H49 H 0.1911 -0.0463 0.3269
H50 H 0.2736 -0.0207 0.4182
C35 C 0.3300(3) -0.00318(13) 0.19727(19)
H51 H 0.3888 -0.0383 0.1986
H52 H 0.3617 0.0294 0.1598
H53 H 0.2427 -0.0155 0.1705
C36 C 0.4638(3) 0.03901(13) 0.3431(2)
H54 H 0.5217 0.0036 0.3434
H55 H 0.4584 0.0522 0.4065
H56 H 0.4980 0.0725 0.3086
C37 C 0.2527(2) 0.13305(10) 0.25007(15)
C11? C 0.0426(7) 0.3739(5) 0.5020(5)
H16? H 0.0460 0.4126 0.4686
H17? H -0.0082 0.3795 0.5537
H18? H 0.0017 0.3425 0.4605
C13? C 0.2761(13) 0.3478(14) 0.6294(7)
H22? H 0.3214 0.3085 0.6300
H23? H 0.2265 0.3501 0.6823
H24? H 0.3397 0.3811 0.6330
C15? C 0.0813(16) 0.3010(5) 0.5446(10)
H28? H 0.1278 0.2623 0.5567
H29? H 0.0245 0.2982 0.4863
H30? H 0.0289 0.3095 0.5946
loop_
_geom_bond_atom_site_label_1
_geom_bond_atom_site_label_2
_geom_bond_site_symmetry_1
_geom_bond_site_symmetry_2
P1 C17 1_555 1_555
O1 H1 1_555 1_555
O2 H2 1_555 1_555
C1 O1 1_555 1_555
C2 C1 1_555 1_555
C3 C2 1_555 1_555
C4 C3 1_555 1_555
H3 C4 1_555 1_555
H4 C4 1_555 1_555
H5 C4 1_555 1_555
C5 C3 1_555 1_555
H6 C5 1_555 1_555
H7 C5 1_555 1_555
H8 C5 1_555 1_555
C6 C3 1_555 1_555
H9 C6 1_555 1_555
H10 C6 1_555 1_555
H11 C6 1_555 1_555
C7 C2 1_555 1_555
H12 C7 1_555 1_555
C8 C7 1_555 1_555
C9 C8 1_555 1_555
C10 C9 1_555 1_555
H13 C10 1_555 1_555
H14 C10 1_555 1_555
H15 C10 1_555 1_555
C12 C9 1_555 1_555
H19 C12 1_555 1_555
H20 C12 1_555 1_555
H21 C12 1_555 1_555
C14 C9 1_555 1_555
H25 C14 1_555 1_555
H26 C14 1_555 1_555
H27 C14 1_555 1_555
C16 C8 1_555 1_555
H31 C16 1_555 1_555
C17 C1 1_555 1_555
C18 P1 1_555 1_555
C19 C18 1_555 1_555
H32 C19 1_555 1_555
C20 C19 1_555 1_555
H33 C20 1_555 1_555
C21 C20 1_555 1_555
H34 C21 1_555 1_555
C22 C21 1_555 1_555
H35 C22 1_555 1_555
C23 C18 1_555 1_555
H36 C23 1_555 1_555
C24 P1 1_555 1_555
C25 C24 1_555 1_555
H37 C25 1_555 1_555
C26 C25 1_555 1_555
C27 C26 1_555 1_555
C28 C27 1_555 1_555
H38 C28 1_555 1_555
H39 C28 1_555 1_555
H40 C28 1_555 1_555
C29 C27 1_555 1_555
H41 C29 1_555 1_555
H42 C29 1_555 1_555
H43 C29 1_555 1_555
C30 C27 1_555 1_555
H44 C30 1_555 1_555
H45 C30 1_555 1_555
H46 C30 1_555 1_555
C31 C26 1_555 1_555
H47 C31 1_555 1_555
C32 C31 1_555 1_555
C33 C32 1_555 1_555
C34 C33 1_555 1_555
H48 C34 1_555 1_555
H49 C34 1_555 1_555
H50 C34 1_555 1_555
C35 C33 1_555 1_555
H51 C35 1_555 1_555
H52 C35 1_555 1_555
H53 C35 1_555 1_555
C36 C33 1_555 1_555
H54 C36 1_555 1_555
H55 C36 1_555 1_555
H56 C36 1_555 1_555
C37 O2 1_555 1_555
C16 C17 1_555 1_555
C22 C23 1_555 1_555
C24 C37 1_555 1_555
C32 C37 1_555 1_555

#END
