
#######################################################################
#
#                 Cambridge Crystallographic Data Centre
#                                CCDC 
#
#######################################################################
#
# If this CIF has been generated from an entry in the Cambridge 
# Structural Database, then it will include bibliographic, chemical, 
# crystal, experimental, refinement or atomic coordinate data resulting 
# from the CCDC's data processing and validation procedures.
#
#######################################################################

data_WALVOX
_chemical_formula_moiety         'C24 H20 Cl1 N5 O2 S1'
_chemical_name_systematic        
N'-(2-chlorobenzylidene)-2-((5-(phenoxymethyl)-4-phenyl-4H-1,2,4-triazol-3-yl)sulfanyl)acetohydrazide
_symmetry_cell_setting           monoclinic
_symmetry_space_group_name_H-M   'P 21/c'
_symmetry_Int_Tables_number      14
_space_group_name_Hall           '-P 2ybc'
loop_
_symmetry_equiv_pos_site_id
_symmetry_equiv_pos_as_xyz
1 x,y,z
2 -x,1/2+y,1/2-z
3 -x,-y,-z
4 x,1/2-y,1/2+z
_cell_length_a                   16.858(3)
_cell_length_b                   9.988(2)
_cell_length_c                   14.406(3)
_cell_angle_alpha                90
_cell_angle_beta                 112.610(9)
_cell_angle_gamma                90
_cell_volume                     2239.22
_cell_formula_units_Z            4
loop_
_atom_site_label
_atom_site_type_symbol
_atom_site_fract_x
_atom_site_fract_y
_atom_site_fract_z
Cl1 Cl -0.30931(4) -0.15424(6) -0.21767(4)
S1 S 0.08094(3) 0.33468(5) 0.21095(3)
O1 O 0.27179(7) 0.50817(11) -0.02067(8)
O2 O 0.08243(7) 0.03047(12) 0.17969(9)
N1 N 0.08242(8) 0.32872(14) -0.05826(10)
N2 N 0.14525(8) 0.44419(13) 0.08101(10)
N3 N 0.05304(8) 0.28052(13) 0.01406(10)
N4 N -0.13609(8) 0.07104(13) 0.03443(10)
N5 N -0.05514(9) 0.01633(13) 0.07494(10)
H1 H -0.0467 -0.0621 0.0558
C1 C 0.09179(10) 0.35165(16) 0.09615(12)
C2 C 0.19521(10) 0.54494(15) 0.15138(11)
C3 C -0.28029(10) 0.04798(16) -0.08297(12)
C4 C 0.28104(11) 0.52391(17) 0.20534(13)
H2 H 0.3073 0.4456 0.1969
C5 C -0.19163(11) 0.00248(16) -0.03552(12)
H3 H -0.1752 -0.0773 -0.0563
C6 C 0.01195(11) 0.08215(17) 0.14404(12)
C7 C 0.13655(10) 0.42517(17) -0.01677(12)
C8 C -0.33961(11) -0.01799(16) -0.16497(12)
C9 C 0.28902(13) 0.73541(19) 0.28527(13)
H4 H 0.3207 0.7995 0.3315
C10 C 0.15581(11) 0.66032(17) 0.16237(13)
H5 H 0.0977 0.6742 0.1247
C11 C 0.31639(11) 0.39284(18) -0.01997(12)
C12 C -0.30967(11) 0.15760(17) -0.04655(13)
H6 H -0.2716 0.2042 0.0084
C13 C 0.18076(11) 0.50670(17) -0.06922(13)
H7 H 0.1653 0.4720 -0.1368
H8 H 0.1599 0.5980 -0.0749
C14 C -0.00741(10) 0.21910(16) 0.17381(13)
H9 H -0.0264 0.2093 0.2291
H10 H -0.0547 0.2573 0.1176
C15 C -0.42392(12) 0.0220(2) -0.20805(14)
H11 H -0.4625 -0.0249 -0.2625
C16 C 0.20373(13) 0.75612(18) 0.23035(14)
H12 H 0.1777 0.8348 0.2386
C17 C 0.33239(19) 0.1681(2) -0.06120(17)
H13 H 0.3083 0.0884 -0.0930
C18 C 0.32799(11) 0.62072(19) 0.27257(13)
H14 H 0.3864 0.6078 0.3093
C19 C -0.39334(13) 0.19899(19) -0.08946(16)
H15 H -0.4114 0.2732 -0.0638
C20 C 0.27969(13) 0.27575(19) -0.06699(13)
H16 H 0.2206 0.2693 -0.1019
C21 C -0.45111(13) 0.1307(2) -0.17085(17)
H17 H -0.5080 0.1586 -0.2001
C22 C 0.40279(13) 0.4017(2) 0.03171(15)
H18 H 0.4272 0.4811 0.0637
C23 C 0.4187(2) 0.1758(3) -0.0101(2)
H19 H 0.4535 0.1022 -0.0067
C24 C 0.45378(16) 0.2927(3) 0.03631(19)
H20 H 0.5129 0.2987 0.0714
loop_
_geom_bond_atom_site_label_1
_geom_bond_atom_site_label_2
_geom_bond_site_symmetry_1
_geom_bond_site_symmetry_2
Cl1 C8 1_555 1_555
S1 C1 1_555 1_555
O1 C11 1_555 1_555
O2 C6 1_555 1_555
N1 N3 1_555 1_555
N2 C1 1_555 1_555
N3 C1 1_555 1_555
N4 N5 1_555 1_555
N5 H1 1_555 1_555
C2 N2 1_555 1_555
C3 C5 1_555 1_555
C4 C2 1_555 1_555
H2 C4 1_555 1_555
C5 N4 1_555 1_555
H3 C5 1_555 1_555
C6 N5 1_555 1_555
C7 N1 1_555 1_555
C8 C3 1_555 1_555
C9 H4 1_555 1_555
C10 C2 1_555 1_555
H5 C10 1_555 1_555
C11 C20 1_555 1_555
C12 C3 1_555 1_555
H6 C12 1_555 1_555
C13 O1 1_555 1_555
H7 C13 1_555 1_555
H8 C13 1_555 1_555
C14 S1 1_555 1_555
H9 C14 1_555 1_555
H10 C14 1_555 1_555
C15 C8 1_555 1_555
H11 C15 1_555 1_555
C16 C9 1_555 1_555
H12 C16 1_555 1_555
C17 H13 1_555 1_555
C18 C4 1_555 1_555
H14 C18 1_555 1_555
C19 C12 1_555 1_555
H15 C19 1_555 1_555
C20 C17 1_555 1_555
H16 C20 1_555 1_555
C21 C15 1_555 1_555
H17 C21 1_555 1_555
C22 C11 1_555 1_555
H18 C22 1_555 1_555
C23 C17 1_555 1_555
H19 C23 1_555 1_555
C24 C22 1_555 1_555
H20 C24 1_555 1_555
N2 C7 1_555 1_555
C6 C14 1_555 1_555
C7 C13 1_555 1_555
C9 C18 1_555 1_555
C10 C16 1_555 1_555
C19 C21 1_555 1_555
C23 C24 1_555 1_555

#END
