
#######################################################################
#
#                 Cambridge Crystallographic Data Centre
#                                CCDC 
#
#######################################################################
#
# If this CIF has been generated from an entry in the Cambridge 
# Structural Database, then it will include bibliographic, chemical, 
# crystal, experimental, refinement or atomic coordinate data resulting 
# from the CCDC's data processing and validation procedures.
#
#######################################################################

data_WALWUE
_chemical_formula_moiety         'C14 H20 O3'
_chemical_name_systematic        
(5-ethyl-2-methyl-2-phenyl-1,3-dioxan-5-yl)methanol
_symmetry_cell_setting           tetragonal
_symmetry_space_group_name_H-M   'I 41/a'
_symmetry_Int_Tables_number      88
_space_group_name_Hall           '-I 4ad'
loop_
_symmetry_equiv_pos_site_id
_symmetry_equiv_pos_as_xyz
1 x,y,z
2 1/2-x,-y,1/2+z
3 3/4-y,1/4+x,1/4+z
4 3/4+y,3/4-x,3/4+z
5 1/2+x,1/2+y,1/2+z
6 -x,1/2-y,z
7 1/4-y,3/4+x,3/4+z
8 1/4+y,1/4-x,1/4+z
9 -x,-y,-z
10 1/2+x,y,1/2-z
11 1/4+y,3/4-x,3/4-z
12 1/4-y,1/4+x,1/4-z
13 1/2-x,1/2-y,1/2-z
14 x,1/2+y,-z
15 3/4+y,1/4-x,1/4-z
16 3/4-y,3/4+x,3/4-z
_cell_length_a                   29.921(2)
_cell_length_b                   29.921(2)
_cell_length_c                   5.9627(9)
_cell_angle_alpha                90
_cell_angle_beta                 90
_cell_angle_gamma                90
_cell_volume                     5338.2
_exptl_crystal_colour            colorless
_exptl_crystal_description       block
_cell_formula_units_Z            16
loop_
_atom_site_label
_atom_site_type_symbol
_atom_site_fract_x
_atom_site_fract_y
_atom_site_fract_z
O1 O 0.83763(4) 0.32677(4) 1.08102(19)
O2 O 0.82455(4) 0.29829(4) 0.7241(2)
C1 C 0.89421(5) 0.33878(5) 0.7924(3)
O3 O 0.94237(5) 0.27752(5) 0.6625(4)
H1 H 0.9672 0.2887 0.6483
C2 C 0.85716(6) 0.32745(6) 0.6263(3)
H2 H 0.8427 0.3548 0.5778
H3 H 0.8701 0.3132 0.4954
C3 C 0.87095(6) 0.35671(6) 1.0004(3)
H4 H 0.8930 0.3617 1.1172
H5 H 0.8572 0.3852 0.9654
C4 C 0.77405(5) 0.35475(6) 0.8695(3)
C5 C 0.80479(6) 0.31538(6) 0.9203(3)
C6 C 0.75121(6) 0.35718(7) 0.6690(4)
H6 H 0.7560 0.3358 0.5585
C7 C 0.92068(6) 0.29653(6) 0.8508(4)
H7 H 0.9429 0.3038 0.9635
H8 H 0.9005 0.2746 0.9149
C8 C 0.76579(7) 0.38690(7) 1.0308(4)
H9 H 0.7808 0.3856 1.1674
C9 C 0.77848(8) 0.27753(7) 1.0243(4)
H10 H 0.7546 0.2690 0.9254
H11 H 0.7663 0.2871 1.1651
H12 H 0.7979 0.2524 1.0484
C10 C 0.92418(6) 0.37466(6) 0.6911(4)
H13 H 0.9395 0.3620 0.5625
H14 H 0.9054 0.3988 0.6369
C11 C 0.73568(9) 0.42081(8) 0.9916(5)
H15 H 0.7304 0.4421 1.1023
C12 C 0.72083(7) 0.39181(10) 0.6320(5)
H16 H 0.7054 0.3933 0.4969
C13 C 0.71359(8) 0.42352(9) 0.7926(6)
H17 H 0.6937 0.4468 0.7661
C14 C 0.95859(8) 0.39405(10) 0.8464(6)
H18 H 0.9439 0.4083 0.9705
H19 H 0.9763 0.4156 0.7670
H20 H 0.9776 0.3706 0.9011
loop_
_geom_bond_atom_site_label_1
_geom_bond_atom_site_label_2
_geom_bond_site_symmetry_1
_geom_bond_site_symmetry_2
O1 C3 1_555 1_555
O2 C2 1_555 1_555
C1 C2 1_555 1_555
O3 H1 1_555 1_555
C2 H2 1_555 1_555
H3 C2 1_555 1_555
C3 C1 1_555 1_555
H4 C3 1_555 1_555
H5 C3 1_555 1_555
C4 C5 1_555 1_555
C5 O1 1_555 1_555
C6 C4 1_555 1_555
H6 C6 1_555 1_555
C7 C1 1_555 1_555
H7 C7 1_555 1_555
H8 C7 1_555 1_555
C8 C4 1_555 1_555
H9 C8 1_555 1_555
C9 C5 1_555 1_555
H10 C9 1_555 1_555
H11 C9 1_555 1_555
H12 C9 1_555 1_555
C10 C1 1_555 1_555
H13 C10 1_555 1_555
H14 C10 1_555 1_555
C11 C8 1_555 1_555
H15 C11 1_555 1_555
C12 C6 1_555 1_555
H16 C12 1_555 1_555
C13 C11 1_555 1_555
H17 C13 1_555 1_555
C14 C10 1_555 1_555
H18 C14 1_555 1_555
H19 C14 1_555 1_555
H20 C14 1_555 1_555
O2 C5 1_555 1_555
O3 C7 1_555 1_555
C12 C13 1_555 1_555

#END
