
#######################################################################
#
#                 Cambridge Crystallographic Data Centre
#                                CCDC 
#
#######################################################################
#
# If this CIF has been generated from an entry in the Cambridge 
# Structural Database, then it will include bibliographic, chemical, 
# crystal, experimental, refinement or atomic coordinate data resulting 
# from the CCDC's data processing and validation procedures.
#
#######################################################################

data_WALWEO
_chemical_formula_moiety         'C26 H19 N3 O4'
_chemical_name_systematic        
2-benzyl-6-(benzylamino)-5-nitro-1H-benzo[de]isoquinoline-1,3(2H)-dione
_symmetry_cell_setting           triclinic
_symmetry_space_group_name_H-M   'P -1'
_symmetry_Int_Tables_number      2
_space_group_name_Hall           '-P 1'
loop_
_symmetry_equiv_pos_site_id
_symmetry_equiv_pos_as_xyz
1 x,y,z
2 -x,-y,-z
_cell_length_a                   8.8032(14)
_cell_length_b                   8.822(2)
_cell_length_c                   13.994(4)
_cell_angle_alpha                86.928(19)
_cell_angle_beta                 76.376(17)
_cell_angle_gamma                72.284(16)
_cell_volume                     1005.94
_exptl_crystal_colour            orange
_exptl_crystal_description       block
_cell_formula_units_Z            2
loop_
_atom_site_label
_atom_site_type_symbol
_atom_site_fract_x
_atom_site_fract_y
_atom_site_fract_z
O1 O 0.2700(5) 0.5742(5) 0.7930(3)
O2 O -0.1283(5) 1.0249(5) 0.7531(3)
O3 O 0.7751(5) 0.4125(5) 0.5533(3)
O4 O 0.8333(5) 0.5333(5) 0.4183(3)
N1 N 0.0687(6) 0.7957(6) 0.7716(3)
N2 N 0.7378(6) 0.5231(6) 0.4974(4)
N3 N 0.5901(6) 0.7394(6) 0.3603(4)
H1 H 0.6976 0.6996 0.3457
C1 C 0.2254(7) 0.6890(7) 0.7423(4)
C2 C 0.3287(7) 0.7205(7) 0.6489(4)
C3 C 0.2677(7) 0.8502(7) 0.5908(4)
C4 C 0.1138(7) 0.9622(7) 0.6274(4)
C5 C 0.0081(8) 0.9330(7) 0.7207(4)
C6 C 0.4852(7) 0.6222(7) 0.6181(4)
H2 H 0.5300 0.5419 0.6604
C7 C 0.5798(7) 0.6383(7) 0.5255(4)
C8 C 0.5170(7) 0.7479(7) 0.4580(4)
C9 C 0.3634(7) 0.8712(6) 0.4965(4)
C10 C 0.3089(7) 1.0158(7) 0.4487(4)
H3 H 0.3752 1.0370 0.3885
C11 C 0.1608(7) 1.1269(7) 0.4882(4)
H4 H 0.1259 1.2239 0.4553
C12 C 0.0623(7) 1.0966(7) 0.5764(4)
H5 H -0.0422 1.1707 0.6013
C13 C -0.0318(8) 0.7660(8) 0.8675(4)
H6 H -0.1173 0.8670 0.8919
H7 H 0.0394 0.7358 0.9150
C14 C -0.1140(7) 0.6398(7) 0.8671(4)
C15 C -0.1246(7) 0.5711(8) 0.7832(4)
H8 H -0.0779 0.6048 0.7205
C16 C -0.2018(7) 0.4546(8) 0.7883(5)
H9 H -0.2048 0.4068 0.7298
C17 C -0.2734(8) 0.4088(8) 0.8779(5)
H10 H -0.3275 0.3297 0.8817
C18 C -0.2678(8) 0.4770(7) 0.9632(5)
H11 H -0.3185 0.4455 1.0255
C19 C -0.1879(7) 0.5914(7) 0.9575(5)
H12 H -0.1836 0.6375 1.0163
C20 C 0.5149(7) 0.7873(7) 0.2764(4)
H13 H 0.3967 0.8430 0.3010
H14 H 0.5247 0.6909 0.2395
C21 C 0.5922(7) 0.8954(7) 0.2072(4)
C22 C 0.7601(8) 0.8607(7) 0.1786(4)
H15 H 0.8273 0.7730 0.2068
C23 C 0.8315(8) 0.9498(7) 0.1108(5)
H16 H 0.9475 0.9230 0.0912
C24 C 0.7349(9) 1.0797(8) 0.0702(5)
H17 H 0.7848 1.1419 0.0229
C25 C 0.5681(8) 1.1180(9) 0.0982(5)
H18 H 0.5014 1.2070 0.0707
C26 C 0.4970(8) 1.0264(8) 0.1669(5)
H19 H 0.3810 1.0537 0.1869
loop_
_geom_bond_atom_site_label_1
_geom_bond_atom_site_label_2
_geom_bond_site_symmetry_1
_geom_bond_site_symmetry_2
O1 C1 1_555 1_555
O2 C5 1_555 1_555
O3 N2 1_555 1_555
O4 N2 1_555 1_555
N1 C1 1_555 1_555
N2 C7 1_555 1_555
N3 H1 1_555 1_555
C1 C2 1_555 1_555
C2 C3 1_555 1_555
C3 C4 1_555 1_555
C4 C5 1_555 1_555
C5 N1 1_555 1_555
C6 C2 1_555 1_555
H2 C6 1_555 1_555
C7 C6 1_555 1_555
C8 N3 1_555 1_555
C9 C3 1_555 1_555
C10 C9 1_555 1_555
H3 C10 1_555 1_555
C11 C10 1_555 1_555
H4 C11 1_555 1_555
C12 C4 1_555 1_555
H5 C12 1_555 1_555
C13 N1 1_555 1_555
H6 C13 1_555 1_555
H7 C13 1_555 1_555
C14 C13 1_555 1_555
C15 C14 1_555 1_555
H8 C15 1_555 1_555
C16 C15 1_555 1_555
H9 C16 1_555 1_555
C17 C16 1_555 1_555
H10 C17 1_555 1_555
C18 C17 1_555 1_555
H11 C18 1_555 1_555
C19 C14 1_555 1_555
H12 C19 1_555 1_555
C20 N3 1_555 1_555
H13 C20 1_555 1_555
H14 C20 1_555 1_555
C21 C20 1_555 1_555
C22 C21 1_555 1_555
H15 C22 1_555 1_555
C23 C22 1_555 1_555
H16 C23 1_555 1_555
C24 C23 1_555 1_555
H17 C24 1_555 1_555
C25 C24 1_555 1_555
H18 C25 1_555 1_555
C26 C21 1_555 1_555
H19 C26 1_555 1_555
C7 C8 1_555 1_555
C8 C9 1_555 1_555
C11 C12 1_555 1_555
C18 C19 1_555 1_555
C25 C26 1_555 1_555

#END
