
#######################################################################
#
#                 Cambridge Crystallographic Data Centre
#                                CCDC 
#
#######################################################################
#
# If this CIF has been generated from an entry in the Cambridge 
# Structural Database, then it will include bibliographic, chemical, 
# crystal, experimental, refinement or atomic coordinate data resulting 
# from the CCDC's data processing and validation procedures.
#
#######################################################################

data_WALXUF
_chemical_formula_moiety         'C13 H13 B1 F1 N1 O5'
_chemical_name_systematic        
2-(1-fluoro-2-oxo-2-phenylethyl)-6-methyl-1,3,6,2-dioxazaborocane-4,8-dione
_symmetry_cell_setting           monoclinic
_symmetry_space_group_name_H-M   'I 2/a'
_symmetry_Int_Tables_number      15
_space_group_name_Hall           '-I 2ya'
loop_
_symmetry_equiv_pos_site_id
_symmetry_equiv_pos_as_xyz
1 x,y,z
2 1/2-x,y,-z
3 1/2+x,1/2+y,1/2+z
4 -x,1/2+y,1/2-z
5 -x,-y,-z
6 1/2+x,-y,z
7 1/2-x,1/2-y,1/2-z
8 x,1/2-y,1/2+z
_cell_length_a                   10.59114(11)
_cell_length_b                   17.38560(16)
_cell_length_c                   28.2841(4)
_cell_angle_alpha                90
_cell_angle_beta                 90.1760(10)
_cell_angle_gamma                90
_cell_volume                     5208.02
_exptl_crystal_colour            colorless
_exptl_crystal_description       needle
_cell_formula_units_Z            16
loop_
_atom_site_label
_atom_site_type_symbol
_atom_site_fract_x
_atom_site_fract_y
_atom_site_fract_z
F1 F 0.90154(7) 0.06093(4) 0.28735(2)
O1 O 1.03230(8) 0.13603(5) 0.40079(3)
O2 O 1.15458(9) 0.22307(5) 0.43763(3)
O3 O 0.78598(8) -0.03504(5) 0.34254(3)
O4 O 0.82387(8) 0.15585(5) 0.36601(3)
O5 O 0.67781(9) 0.23172(6) 0.33238(4)
N1 N 1.00736(9) 0.20146(5) 0.32546(3)
C1 C 0.88910(10) -0.01403(6) 0.35691(4)
C2 C 0.96053(10) 0.04882(6) 0.33152(4)
H1 H 1.0485 0.0332 0.3269
C3 C 0.89128(11) 0.23357(7) 0.30313(5)
H2 H 0.8800 0.2133 0.2714
H3 H 0.8957 0.2892 0.3015
C4 C 1.08992(11) 0.20436(7) 0.40471(4)
C5 C 0.94577(11) -0.04634(6) 0.40094(4)
C6 C 0.86482(11) -0.07507(7) 0.43556(5)
H4 H 0.7780 -0.0745 0.4306
C7 C 1.10754(11) 0.18067(7) 0.29049(4)
H5 H 1.0731 0.1461 0.2673
H6 H 1.1765 0.1561 0.3066
H7 H 1.1373 0.2264 0.2751
C8 C 0.91373(13) -0.10443(8) 0.47719(5)
H8 H 0.8595 -0.1227 0.5004
C9 C 0.78439(11) 0.20824(7) 0.33502(5)
C10 C 1.04315(13) -0.10671(7) 0.48445(4)
H9 H 1.0757 -0.1261 0.5126
C11 C 1.06078(11) 0.25421(7) 0.36240(4)
H10 H 1.0000 0.2937 0.3706
H11 H 1.1369 0.2789 0.3510
C12 C 1.07531(12) -0.04919(7) 0.40824(5)
H12 H 1.1298 -0.0304 0.3853
C13 C 1.12386(12) -0.08006(8) 0.44979(5)
H13 H 1.2108 -0.0828 0.4543
B1 B 0.95546(12) 0.13102(7) 0.35823(5)
F2 F 1.08318(8) 0.50249(4) 0.45118(3)
O6 O 0.97535(8) 0.62221(5) 0.34887(3)
O7 O 1.18076(7) 0.61635(5) 0.38793(3)
O8 O 0.86045(8) 0.72096(5) 0.32159(3)
O9 O 1.33459(8) 0.67526(6) 0.42831(3)
O10 O 1.18738(8) 0.42529(5) 0.38344(3)
N2 N 0.99972(9) 0.66360(6) 0.43061(3)
C14 C 0.92194(10) 0.69131(7) 0.35234(4)
C15 C 1.10083(11) 0.40591(7) 0.29053(4)
H14 H 1.1844 0.3928 0.2967
C16 C 0.90376(11) 0.46225(7) 0.31560(5)
H15 H 0.8550 0.4862 0.3386
C17 C 1.08788(11) 0.45597(6) 0.37256(4)
C18 C 0.89912(12) 0.63870(8) 0.46467(4)
H16 H 0.9293 0.5960 0.4830
H17 H 0.8250 0.6236 0.4474
H18 H 0.8788 0.6806 0.4854
C19 C 0.92389(13) 0.41010(7) 0.23735(5)
H19 H 0.8888 0.3993 0.2079
C20 C 1.22471(11) 0.65945(7) 0.42267(4)
C21 C 1.02853(11) 0.44222(6) 0.32554(4)
C22 C 0.85200(12) 0.44651(7) 0.27142(5)
H20 H 0.7691 0.4605 0.2648
C23 C 1.11915(11) 0.68504(8) 0.45525(4)
H21 H 1.1253 0.6591 0.4855
H22 H 1.1229 0.7401 0.4605
C24 C 1.02411(11) 0.51108(7) 0.40655(4)
H23 H 0.9338 0.4993 0.4089
C25 C 0.95010(12) 0.72729(7) 0.39980(4)
H24 H 1.0126 0.7677 0.3966
H25 H 0.8741 0.7492 0.4133
C26 C 1.04802(13) 0.38956(7) 0.24680(5)
H26 H 1.0957 0.3648 0.2238
B2 B 1.04438(12) 0.60002(7) 0.39114(4)
loop_
_geom_bond_atom_site_label_1
_geom_bond_atom_site_label_2
_geom_bond_site_symmetry_1
_geom_bond_site_symmetry_2
F1 C2 1_555 1_555
O1 C4 1_555 1_555
O2 C4 1_555 1_555
O3 C1 1_555 1_555
O4 C9 1_555 1_555
O5 C9 1_555 1_555
N1 C3 1_555 1_555
C1 C2 1_555 1_555
C2 H1 1_555 1_555
C3 H2 1_555 1_555
H3 C3 1_555 1_555
C4 C11 1_555 1_555
C5 C1 1_555 1_555
C6 C5 1_555 1_555
H4 C6 1_555 1_555
C7 N1 1_555 1_555
H5 C7 1_555 1_555
H6 C7 1_555 1_555
H7 C7 1_555 1_555
C8 C6 1_555 1_555
H8 C8 1_555 1_555
C9 C3 1_555 1_555
C10 C8 1_555 1_555
H9 C10 1_555 1_555
C11 N1 1_555 1_555
H10 C11 1_555 1_555
H11 C11 1_555 1_555
C12 C5 1_555 1_555
H12 C12 1_555 1_555
C13 C10 1_555 1_555
H13 C13 1_555 1_555
B1 O1 1_555 1_555
F2 C24 1_555 1_555
O6 C14 1_555 1_555
O7 C20 1_555 1_555
O8 C14 1_555 1_555
O9 C20 1_555 1_555
O10 C17 1_555 1_555
N2 C18 1_555 1_555
C14 C25 1_555 1_555
C15 H14 1_555 1_555
C16 H15 1_555 1_555
C17 C21 1_555 1_555
C18 H16 1_555 1_555
H17 C18 1_555 1_555
H18 C18 1_555 1_555
C19 H19 1_555 1_555
C20 C23 1_555 1_555
C21 C15 1_555 1_555
C22 C16 1_555 1_555
H20 C22 1_555 1_555
C23 N2 1_555 1_555
H21 C23 1_555 1_555
H22 C23 1_555 1_555
C24 C17 1_555 1_555
H23 C24 1_555 1_555
C25 N2 1_555 1_555
H24 C25 1_555 1_555
H25 C25 1_555 1_555
C26 C15 1_555 1_555
H26 C26 1_555 1_555
B2 O6 1_555 1_555
O4 B1 1_555 1_555
N1 B1 1_555 1_555
C2 B1 1_555 1_555
C12 C13 1_555 1_555
O7 B2 1_555 1_555
N2 B2 1_555 1_555
C16 C21 1_555 1_555
C19 C22 1_555 1_555
C19 C26 1_555 1_555
C24 B2 1_555 1_555

#END
