
#######################################################################
#
#                 Cambridge Crystallographic Data Centre
#                                CCDC 
#
#######################################################################
#
# If this CIF has been generated from an entry in the Cambridge 
# Structural Database, then it will include bibliographic, chemical, 
# crystal, experimental, refinement or atomic coordinate data resulting 
# from the CCDC's data processing and validation procedures.
#
#######################################################################

data_WALZOZ
_chemical_formula_moiety         'C32 H42 O8 Se2'
_chemical_name_systematic        
bis(4-t-Butyl-2,6-bis(1,3-dioxolan-2-yl)phenyl)-diselenide
_symmetry_cell_setting           orthorhombic
_symmetry_space_group_name_H-M   'P 21 21 21'
_symmetry_Int_Tables_number      19
_space_group_name_Hall           'P 2ac 2ab'
loop_
_symmetry_equiv_pos_site_id
_symmetry_equiv_pos_as_xyz
1 x,y,z
2 1/2-x,-y,1/2+z
3 -x,1/2+y,1/2-z
4 1/2+x,1/2-y,-z
_cell_length_a                   10.052(4)
_cell_length_b                   13.982(6)
_cell_length_c                   22.653(10)
_cell_angle_alpha                90
_cell_angle_beta                 90
_cell_angle_gamma                90
_cell_volume                     3183.81
_exptl_crystal_colour            orange
_exptl_crystal_description       chunk
_chemical_melting_point          196-198deg.C
_cell_formula_units_Z            4
_exptl_crystal_recrystallization_method acetonitrile
loop_
_atom_site_label
_atom_site_type_symbol
_atom_site_fract_x
_atom_site_fract_y
_atom_site_fract_z
Se1 Se 1.06378(7) 1.08324(5) 0.39053(3)
Se2 Se 0.91368(7) 1.07146(5) 0.31394(3)
O1 O 0.9817(6) 0.8177(3) 0.4911(2)
O2 O 1.1623(5) 0.9072(3) 0.4856(2)
O3 O 0.7241(6) 1.2342(3) 0.4173(2)
O4 O 0.8565(6) 1.3134(3) 0.4796(2)
O5 O 0.6134(7) 0.9584(4) 0.4275(2)
O6 O 0.5398(6) 1.0070(5) 0.3426(2)
O7 O 1.1170(6) 0.8242(4) 0.2307(2)
O8 O 1.1686(6) 0.8662(6) 0.3227(3)
C1 C 0.9478(6) 1.0709(5) 0.4562(2)
C2 C 0.9541(6) 0.9855(4) 0.4895(3)
C3 C 0.8849(6) 0.9793(5) 0.5408(3)
H1 H 0.8880 0.9220 0.5616
C4 C 0.8101(6) 1.0531(5) 0.5639(3)
C5 C 0.8016(7) 1.1352(5) 0.5293(3)
H2 H 0.7468 1.1850 0.5416
C6 C 0.8718(6) 1.1451(4) 0.4775(3)
C7 C 1.0322(6) 0.9019(4) 0.4676(3)
H3 H 1.0283 0.8995 0.4244
C8 C 1.0859(10) 0.7515(6) 0.4842(4)
H4 H 1.0755 0.7158 0.4478
H5 H 1.0879 0.7070 0.5170
C9 C 1.2112(10) 0.8111(7) 0.4827(4)
H6 H 1.2681 0.7967 0.5161
H7 H 1.2604 0.8003 0.4464
C10 C 0.8505(8) 1.2342(5) 0.4430(3)
H8 H 0.9185 1.2394 0.4122
C11 C 0.6695(11) 1.3241(8) 0.4272(5)
H9 H 0.5873 1.3184 0.4493
H10 H 0.6501 1.3552 0.3899
C12 C 0.7634(10) 1.3785(6) 0.4595(5)
H11 H 0.8050 1.4260 0.4344
H12 H 0.7208 1.4107 0.4924
C13 C 0.7395(7) 1.0510(5) 0.6221(3)
C14 C 0.7304(9) 0.9488(6) 0.6467(4)
H13 H 0.6817 0.9093 0.6196
H14 H 0.6856 0.9498 0.6841
H15 H 0.8184 0.9233 0.6517
C15 C 0.8190(12) 1.1103(9) 0.6660(4)
H16 H 0.8274 1.1746 0.6516
H17 H 0.9059 1.0829 0.6709
H18 H 0.7739 1.1110 0.7034
C16 C 0.6050(9) 1.0912(9) 0.6189(4)
H19 H 0.6104 1.1584 0.6105
H20 H 0.5605 1.0817 0.6559
H21 H 0.5561 1.0598 0.5880
C17 C 0.8636(6) 0.9394(4) 0.3208(3)
C18 C 0.7418(6) 0.9187(5) 0.3440(3)
C19 C 0.6955(7) 0.8250(5) 0.3419(3)
H22 H 0.6121 0.8113 0.3575
C20 C 0.7681(7) 0.7528(4) 0.3179(3)
C21 C 0.8938(7) 0.7741(5) 0.2973(3)
H23 H 0.9470 0.7251 0.2828
C22 C 0.9433(7) 0.8674(4) 0.2978(3)
C23 C 0.6540(7) 0.9908(5) 0.3736(3)
H24 H 0.7027 1.0510 0.3785
C24 C 0.4988(10) 1.0117(7) 0.4402(5)
H25 H 0.5204 1.0662 0.4650
H26 H 0.4335 0.9726 0.4605
C25 C 0.4491(9) 1.0425(9) 0.3847(5)
H27 H 0.3607 1.0170 0.3778
H28 H 0.4449 1.1118 0.3830
C26 C 1.0802(8) 0.8834(5) 0.2766(3)
H29 H 1.0891 0.9501 0.2639
C27 C 1.2515(10) 0.8033(8) 0.2393(6)
H30 H 1.2681 0.7362 0.2314
H31 H 1.3057 0.8411 0.2126
C28 C 1.2829(10) 0.8247(8) 0.2971(5)
H32 H 1.3569 0.8692 0.2985
H33 H 1.3078 0.7671 0.3182
C29 C 0.7185(8) 0.6514(5) 0.3142(4)
C30 C 0.5991(11) 0.6344(7) 0.3483(5)
H34 H 0.5275 0.6720 0.3325
H35 H 0.6143 0.6522 0.3887
H36 H 0.5761 0.5678 0.3463
C31 C 0.7039(11) 0.6268(7) 0.2501(4)
H37 H 0.6311 0.6623 0.2336
H38 H 0.6868 0.5596 0.2461
H39 H 0.7844 0.6428 0.2296
C32 C 0.8237(10) 0.5836(6) 0.3391(5)
H40 H 0.7873 0.5202 0.3418
H41 H 0.8502 0.6049 0.3776
H42 H 0.8996 0.5829 0.3134
loop_
_geom_bond_atom_site_label_1
_geom_bond_atom_site_label_2
_geom_bond_site_symmetry_1
_geom_bond_site_symmetry_2
Se1 Se2 1_555 1_555
Se2 C17 1_555 1_555
O1 C7 1_555 1_555
O2 C7 1_555 1_555
O3 C10 1_555 1_555
O4 C10 1_555 1_555
O5 C23 1_555 1_555
O6 C23 1_555 1_555
O7 C26 1_555 1_555
O8 C26 1_555 1_555
C1 Se1 1_555 1_555
C2 C1 1_555 1_555
C3 C2 1_555 1_555
H1 C3 1_555 1_555
C4 C3 1_555 1_555
C5 C4 1_555 1_555
H2 C5 1_555 1_555
C6 C1 1_555 1_555
C7 C2 1_555 1_555
H3 C7 1_555 1_555
C8 O1 1_555 1_555
H4 C8 1_555 1_555
H5 C8 1_555 1_555
C9 O2 1_555 1_555
H6 C9 1_555 1_555
H7 C9 1_555 1_555
C10 C6 1_555 1_555
H8 C10 1_555 1_555
C11 O3 1_555 1_555
H9 C11 1_555 1_555
H10 C11 1_555 1_555
C12 O4 1_555 1_555
H11 C12 1_555 1_555
H12 C12 1_555 1_555
C13 C4 1_555 1_555
C14 C13 1_555 1_555
H13 C14 1_555 1_555
H14 C14 1_555 1_555
H15 C14 1_555 1_555
C15 C13 1_555 1_555
H16 C15 1_555 1_555
H17 C15 1_555 1_555
H18 C15 1_555 1_555
C16 C13 1_555 1_555
H19 C16 1_555 1_555
H20 C16 1_555 1_555
H21 C16 1_555 1_555
C17 C18 1_555 1_555
C18 C19 1_555 1_555
C19 H22 1_555 1_555
C20 C19 1_555 1_555
C21 C20 1_555 1_555
H23 C21 1_555 1_555
C22 C17 1_555 1_555
C23 C18 1_555 1_555
H24 C23 1_555 1_555
C24 O5 1_555 1_555
H25 C24 1_555 1_555
H26 C24 1_555 1_555
C25 O6 1_555 1_555
H27 C25 1_555 1_555
H28 C25 1_555 1_555
C26 C22 1_555 1_555
H29 C26 1_555 1_555
C27 O7 1_555 1_555
H30 C27 1_555 1_555
H31 C27 1_555 1_555
C28 O8 1_555 1_555
H32 C28 1_555 1_555
H33 C28 1_555 1_555
C29 C20 1_555 1_555
C30 C29 1_555 1_555
H34 C30 1_555 1_555
H35 C30 1_555 1_555
H36 C30 1_555 1_555
C31 C29 1_555 1_555
H37 C31 1_555 1_555
H38 C31 1_555 1_555
H39 C31 1_555 1_555
C32 C29 1_555 1_555
H40 C32 1_555 1_555
H41 C32 1_555 1_555
H42 C32 1_555 1_555
C5 C6 1_555 1_555
C8 C9 1_555 1_555
C11 C12 1_555 1_555
C21 C22 1_555 1_555
C24 C25 1_555 1_555
C27 C28 1_555 1_555

#END
