
#######################################################################
#
#                 Cambridge Crystallographic Data Centre
#                                CCDC 
#
#######################################################################
#
# If this CIF has been generated from an entry in the Cambridge 
# Structural Database, then it will include bibliographic, chemical, 
# crystal, experimental, refinement or atomic coordinate data resulting 
# from the CCDC's data processing and validation procedures.
#
#######################################################################

data_WAMBER
_chemical_compound_source        'Caribbean tunicate Ecteinascidia turbinata'
_chemical_formula_moiety         'C39 H43 N3 O12 S1,2(C2 H3 N1),8(H2 O1)'
_chemical_name_systematic        
'Ecteinascidin 743 N^12^-oxide acetonitrile solvate octahydrate'
_symmetry_cell_setting           monoclinic
_symmetry_space_group_name_H-M   'P 21'
_symmetry_Int_Tables_number      4
_space_group_name_Hall           'P 2yb'
loop_
_symmetry_equiv_pos_site_id
_symmetry_equiv_pos_as_xyz
1 x,y,z
2 -x,1/2+y,-z
_cell_length_a                   11.720(5)
_cell_length_b                   13.230(4)
_cell_length_c                   28.557(5)
_cell_angle_alpha                90
_cell_angle_beta                 90.22(2)
_cell_angle_gamma                90
_cell_volume                     4427.89
_cell_formula_units_Z            4
loop_
_atom_site_label
_atom_site_type_symbol
_atom_site_fract_x
_atom_site_fract_y
_atom_site_fract_z
C1 C -0.1191 0.8580 0.1111
N1 N -0.1195 0.9650 0.1274
C2 C -0.0731 0.9796 0.1745
C3 C 0.0449 0.9345 0.1819
C4 C 0.1120 0.7545 0.1921
C5 C 0.1084 0.6510 0.1842
C6 C 0.0249 0.6203 0.1544
C7 C -0.0493 0.6847 0.1332
C8 C -0.0424 0.7897 0.1394
C9 C 0.0417 0.8235 0.1709
C10 C -0.0795 1.0950 0.1882
N2 N -0.2042 1.1275 0.1847
C11 C -0.2407 1.1158 0.1340
C12 C -0.1678 1.1815 0.1010
C13 C 0.0118 1.2752 0.0934
C14 C 0.1173 1.3111 0.1103
C15 C 0.1530 1.2795 0.1538
C16 C 0.0908 1.2086 0.1792
C17 C -0.0109 1.1725 0.1613
C18 C -0.0518 1.2062 0.1177
C19 C -0.2332 1.0038 0.1209
C20 C 0.1969 0.9706 0.0562
N3 N 0.2344 1.0769 0.0585
C21 C 0.2388 1.1284 0.0118
C22 C 0.3294 1.0788 -0.0173
C23 C 0.3922 0.9086 -0.0477
C24 C 0.3992 0.8048 -0.0460
C25 C 0.3382 0.7537 -0.0121
C26 C 0.2676 0.8071 0.0199
C27 C 0.3269 0.9651 -0.0161
C28 C 0.2651 0.9138 0.0189
O1 O -0.1250 0.6352 0.1049
C29 C -0.0924 0.5321 0.1086
O2 O -0.0020 0.5236 0.1415
C30 C 0.1918 0.5781 0.2073
O3 O 0.1904 0.7945 0.2247
C31 C 0.3027 0.8020 0.2123
C32 C 0.3716 0.8524 0.2481
O4 O 0.3364 0.7666 0.1758
O5 O 0.1215 1.1759 0.2224
O6 O 0.2506 1.3159 0.1746
C33 C 0.3508 1.2751 0.1574
C34 C 0.1838 1.3875 0.0822
S1 S 0.1709 1.0000 0.1531
C35 C 0.2194 0.9214 0.1041
C36 C 0.0677 0.9660 0.0447
O7 O 0.0099 1.0298 0.0287
O8 O 0.0300 0.8698 0.0542
C37 C -0.0892 0.8543 0.0586
O9 O 0.4632 0.7539 -0.0777
O10 O 0.3520 0.6519 -0.0131
C38 C 0.2895 0.5920 0.0211
O11 O -0.3198 0.9457 0.1459
O12 O -0.2724 1.0661 0.2133
C39 C -0.2215 1.2340 0.2018
C40 C 1.1522 -0.2705 0.3858
N4 N 1.1167 -0.1621 0.3829
C41 C 1.0800 -0.1312 0.3352
C42 C 0.9763 -0.1954 0.3206
C43 C 0.9581 -0.3738 0.2892
C44 C 0.9796 -0.4761 0.2882
C45 C 1.0654 -0.5029 0.3180
C46 C 1.1233 -0.4402 0.3476
C47 C 1.0948 -0.3367 0.3504
C48 C 1.0075 -0.3057 0.3202
C49 C 1.0544 -0.0170 0.3319
N5 N 1.1602 0.0424 0.3489
C50 C 1.1769 0.0105 0.4003
C51 C 1.0736 0.0338 0.4312
C52 C 0.8623 0.0716 0.4296
C53 C 0.7613 0.0852 0.4053
C54 C 0.7576 0.0736 0.3567
C55 C 0.8541 0.0410 0.3341
C56 C 0.9536 0.0226 0.3576
C57 C 0.9602 0.0400 0.4059
C58 C 1.2118 -0.1005 0.4001
C59 C 0.8134 -0.2825 0.4397
N6 N 0.7385 -0.2017 0.4543
C60 C 0.7108 -0.2062 0.5051
C61 C 0.6332 -0.2958 0.5151
C62 C 0.6400 -0.4848 0.5049
C63 C 0.6808 -0.5726 0.4867
C64 C 0.7739 -0.5676 0.4543
C65 C 0.8166 -0.4757 0.4418
C66 C 0.6855 -0.3897 0.4925
C67 C 0.7733 -0.3853 0.4592
O13 O 1.1989 -0.4897 0.3747
C68 C 1.2066 -0.5892 0.3533
O14 O 1.1083 -0.6008 0.3251
C69 C 0.9252 -0.5518 0.2560
O15 O 0.8763 -0.3309 0.2583
C70 C 0.7646 -0.3452 0.2641
C71 C 0.6980 -0.2816 0.2326
O16 O 0.7282 -0.4058 0.2934
O17 O 0.8532 0.0228 0.2870
O18 O 0.6586 0.0940 0.3327
C72 C 0.5827 0.0091 0.3267
C73 C 0.6531 0.1134 0.4342
S2 S 0.8424 -0.1740 0.3558
C74 C 0.8100 -0.2927 0.3863
C75 C 0.9377 -0.2609 0.4551
O19 O 0.9663 -0.1884 0.4781
O20 O 1.0076 -0.3307 0.4385
C76 C 1.1244 -0.3083 0.4367
O21 O 0.6381 -0.6660 0.4990
O22 O 0.8107 -0.6598 0.4394
C77 C 0.9113 -0.6575 0.4110
O23 O 1.3194 -0.1164 0.3777
O24 O 1.2541 0.0161 0.3218
C78 C 1.1430 0.1533 0.3448
O25 O 0.4675 0.0649 0.0919
O26 O 0.3319 0.1640 0.2605
O27 O 0.4934 0.0771 0.1999
O28 O 0.6199 0.4737 0.1822
O29 O 0.4942 0.4613 0.2281
O30 O 0.4689 0.3088 0.3642
O31 O 0.6216 0.3367 0.3358
O32 O 0.4918 0.3436 0.5678
N7 N 0.6139 0.8640 0.0359
C79 C 0.5760 0.8114 0.0661
C80 C 0.5350 0.7536 0.1073
N8 N 0.4275 0.6242 0.3149
C81 C 0.4511 0.6055 0.3530
C82 C 0.4764 0.5759 0.3984
loop_
_geom_bond_atom_site_label_1
_geom_bond_atom_site_label_2
_geom_bond_site_symmetry_1
_geom_bond_site_symmetry_2
C1 N1 1_555 1_555
N1 C2 1_555 1_555
C2 C3 1_555 1_555
C3 C9 1_555 1_555
C4 C5 1_555 1_555
C5 C6 1_555 1_555
C6 C7 1_555 1_555
C7 C8 1_555 1_555
C8 C1 1_555 1_555
C9 C4 1_555 1_555
C10 C2 1_555 1_555
N2 C10 1_555 1_555
C11 N2 1_555 1_555
C12 C11 1_555 1_555
C13 C14 1_555 1_555
C14 C15 1_555 1_555
C15 C16 1_555 1_555
C16 C17 1_555 1_555
C17 C10 1_555 1_555
C18 C12 1_555 1_555
C19 N1 1_555 1_555
C20 N3 1_555 1_555
N3 C21 1_555 1_555
C21 C22 1_555 1_555
C22 C27 1_555 1_555
C23 C24 1_555 1_555
C24 C25 1_555 1_555
C25 C26 1_555 1_555
C26 C28 1_555 1_555
C27 C23 1_555 1_555
C28 C20 1_555 1_555
O1 C7 1_555 1_555
C29 O1 1_555 1_555
O2 C6 1_555 1_555
C30 C5 1_555 1_555
O3 C4 1_555 1_555
C31 O3 1_555 1_555
C32 C31 1_555 1_555
O4 C31 1_555 1_555
O5 C16 1_555 1_555
O6 C15 1_555 1_555
C33 O6 1_555 1_555
C34 C14 1_555 1_555
S1 C3 1_555 1_555
C35 C20 1_555 1_555
C36 C20 1_555 1_555
O7 C36 1_555 1_555
O8 C36 1_555 1_555
C37 C1 1_555 1_555
O9 C24 1_555 1_555
O10 C25 1_555 1_555
C38 O10 1_555 1_555
O11 C19 1_555 1_555
O12 N2 1_555 1_555
C39 N2 1_555 1_555
C40 N4 1_555 1_555
N4 C41 1_555 1_555
C41 C42 1_555 1_555
C42 C48 1_555 1_555
C43 C44 1_555 1_555
C44 C45 1_555 1_555
C45 C46 1_555 1_555
C46 C47 1_555 1_555
C47 C40 1_555 1_555
C48 C43 1_555 1_555
C49 C41 1_555 1_555
N5 C49 1_555 1_555
C50 N5 1_555 1_555
C51 C50 1_555 1_555
C52 C53 1_555 1_555
C53 C54 1_555 1_555
C54 C55 1_555 1_555
C55 C56 1_555 1_555
C56 C49 1_555 1_555
C57 C51 1_555 1_555
C58 N4 1_555 1_555
C59 N6 1_555 1_555
N6 C60 1_555 1_555
C60 C61 1_555 1_555
C61 C66 1_555 1_555
C62 C63 1_555 1_555
C63 C64 1_555 1_555
C64 C65 1_555 1_555
C65 C67 1_555 1_555
C66 C62 1_555 1_555
C67 C59 1_555 1_555
O13 C46 1_555 1_555
C68 O13 1_555 1_555
O14 C45 1_555 1_555
C69 C44 1_555 1_555
O15 C43 1_555 1_555
C70 O15 1_555 1_555
C71 C70 1_555 1_555
O16 C70 1_555 1_555
O17 C55 1_555 1_555
O18 C54 1_555 1_555
C72 O18 1_555 1_555
C73 C53 1_555 1_555
S2 C42 1_555 1_555
C74 C59 1_555 1_555
C75 C59 1_555 1_555
O19 C75 1_555 1_555
O20 C75 1_555 1_555
C76 C40 1_555 1_555
O21 C63 1_555 1_555
O22 C64 1_555 1_555
C77 O22 1_555 1_555
O23 C58 1_555 1_555
O24 N5 1_555 1_555
C78 N5 1_555 1_555
N7 C79 1_555 1_555
C79 C80 1_555 1_555
N8 C81 1_555 1_555
C81 C82 1_555 1_555
C8 C9 1_555 1_555
C11 C19 1_555 1_555
C13 C18 1_555 1_555
C17 C18 1_555 1_555
C27 C28 1_555 1_555
C29 O2 1_555 1_555
S1 C35 1_555 1_555
O8 C37 1_555 1_555
C47 C48 1_555 1_555
C50 C58 1_555 1_555
C52 C57 1_555 1_555
C56 C57 1_555 1_555
C66 C67 1_555 1_555
C68 O14 1_555 1_555
S2 C74 1_555 1_555
O20 C76 1_555 1_555

#END
