
#######################################################################
#
#                 Cambridge Crystallographic Data Centre
#                                CCDC 
#
#######################################################################
#
# If this CIF has been generated from an entry in the Cambridge 
# Structural Database, then it will include bibliographic, chemical, 
# crystal, experimental, refinement or atomic coordinate data resulting 
# from the CCDC's data processing and validation procedures.
#
#######################################################################

data_WAMBES
_chemical_formula_moiety         'C26 H28 N2 O3 Se1'
_chemical_name_systematic        
4-t-Butylphenyl-2,6-bis(N-phenylcarbamoyl)phenyl-(methoxymethyl)-selenium
_symmetry_cell_setting           triclinic
_symmetry_space_group_name_H-M   'P -1'
_symmetry_Int_Tables_number      2
_space_group_name_Hall           '-P 1'
loop_
_symmetry_equiv_pos_site_id
_symmetry_equiv_pos_as_xyz
1 x,y,z
2 -x,-y,-z
_cell_length_a                   9.7598(7)
_cell_length_b                   10.5955(9)
_cell_length_c                   12.6066(12)
_cell_angle_alpha                88.969(11)
_cell_angle_beta                 81.747(10)
_cell_angle_gamma                70.167(9)
_cell_volume                     1212.96
_exptl_crystal_colour            colorless
_exptl_crystal_description       block
_cell_formula_units_Z            2
loop_
_atom_site_label
_atom_site_type_symbol
_atom_site_fract_x
_atom_site_fract_y
_atom_site_fract_z
Se1 Se 0.07220(4) 0.16556(3) 1.04982(3)
O1 O 0.2436(3) 0.06793(17) 0.7847(2)
O2 O 0.1353(3) 0.49225(16) 1.20373(19)
O3 O 0.3424(3) 0.00937(18) 1.1020(2)
N1 N 0.0282(3) 0.23037(19) 0.7611(2)
H1 H -0.0205 0.3142 0.7744
N2 N 0.2679(3) 0.27271(19) 1.2006(2)
H2 H 0.3020 0.2004 1.1610
C1 C 0.1666(3) 0.2827(2) 0.9776(2)
C2 C 0.1873(3) 0.2838(2) 0.8663(2)
C3 C 0.2428(3) 0.3743(2) 0.8128(3)
H3 H 0.2570 0.3720 0.7382
C4 C 0.2785(3) 0.4702(2) 0.8680(3)
C5 C 0.2553(3) 0.4696(2) 0.9781(2)
H4 H 0.2749 0.5340 1.0166
C6 C 0.2031(3) 0.3762(2) 1.0347(2)
C7 C 0.1559(4) 0.1822(2) 0.8002(2)
C8 C -0.0366(3) 0.1612(2) 0.7008(2)
C9 C 0.0004(4) 0.0230(2) 0.7002(3)
H5 H 0.0737 -0.0290 0.7381
C10 C -0.0724(5) -0.0369(3) 0.6430(3)
H6 H -0.0477 -0.1297 0.6433
C11 C -0.1783(5) 0.0353(4) 0.5868(3)
H7 H -0.2259 -0.0070 0.5484
C12 C -0.2151(4) 0.1730(3) 0.5871(3)
H8 H -0.2881 0.2240 0.5485
C13 C -0.1449(4) 0.2355(3) 0.6437(3)
H9 H -0.1707 0.3284 0.6434
C14 C 0.1947(3) 0.3853(2) 1.1535(2)
C15 C 0.2951(4) 0.2601(2) 1.3077(2)
C16 C 0.1971(4) 0.3327(3) 1.3927(3)
H10 H 0.1073 0.3947 1.3809
C17 C 0.2320(6) 0.3137(4) 1.4952(3)
H11 H 0.1652 0.3625 1.5526
C18 C 0.3647(6) 0.2229(4) 1.5131(4)
H12 H 0.3885 0.2106 1.5823
C19 C 0.4607(5) 0.1514(3) 1.4293(3)
H13 H 0.5511 0.0908 1.4415
C20 C 0.4275(4) 0.1666(2) 1.3263(3)
H14 H 0.4933 0.1146 1.2698
C21 C 0.2369(4) 0.0002(3) 1.0391(3)
H15 H 0.2028 -0.0728 1.0634
H16 H 0.2821 -0.0190 0.9648
C22 C 0.4322(5) -0.1137(3) 1.1294(5)
H17 H 0.3742 -0.1577 1.1732
H18 H 0.5046 -0.1020 1.1686
H19 H 0.4807 -0.1676 1.0655
C23 C 0.3467(4) 0.5646(2) 0.8040(3)
C24 C 0.4990(4) 0.4813(3) 0.7491(4)
H20 H 0.4912 0.4139 0.7027
H21 H 0.5593 0.4388 0.8023
H22 H 0.5427 0.5384 0.7077
C25 C 0.2509(5) 0.6353(3) 0.7199(3)
H23 H 0.2868 0.7029 0.6873
H24 H 0.1510 0.6766 0.7537
H25 H 0.2548 0.5709 0.6660
C26 C 0.3591(4) 0.6725(3) 0.8784(3)
H26 H 0.3967 0.7332 0.8364
H27 H 0.4247 0.6303 0.9286
H28 H 0.2636 0.7212 0.9167
loop_
_geom_bond_atom_site_label_1
_geom_bond_atom_site_label_2
_geom_bond_site_symmetry_1
_geom_bond_site_symmetry_2
Se1 C1 1_555 1_555
O1 C7 1_555 1_555
O2 C14 1_555 1_555
O3 C21 1_555 1_555
N1 H1 1_555 1_555
N2 H2 1_555 1_555
C1 C2 1_555 1_555
C2 C3 1_555 1_555
C3 H3 1_555 1_555
C4 C3 1_555 1_555
C5 C4 1_555 1_555
H4 C5 1_555 1_555
C6 C1 1_555 1_555
C7 N1 1_555 1_555
C8 N1 1_555 1_555
C9 C8 1_555 1_555
H5 C9 1_555 1_555
C10 C9 1_555 1_555
H6 C10 1_555 1_555
C11 C10 1_555 1_555
H7 C11 1_555 1_555
C12 C11 1_555 1_555
H8 C12 1_555 1_555
C13 C8 1_555 1_555
H9 C13 1_555 1_555
C14 N2 1_555 1_555
C15 N2 1_555 1_555
C16 C15 1_555 1_555
H10 C16 1_555 1_555
C17 C16 1_555 1_555
H11 C17 1_555 1_555
C18 C17 1_555 1_555
H12 C18 1_555 1_555
C19 C18 1_555 1_555
H13 C19 1_555 1_555
C20 C15 1_555 1_555
H14 C20 1_555 1_555
C21 Se1 1_555 1_555
H15 C21 1_555 1_555
H16 C21 1_555 1_555
C22 O3 1_555 1_555
H17 C22 1_555 1_555
H18 C22 1_555 1_555
H19 C22 1_555 1_555
C23 C4 1_555 1_555
C24 C23 1_555 1_555
H20 C24 1_555 1_555
H21 C24 1_555 1_555
H22 C24 1_555 1_555
C25 C23 1_555 1_555
H23 C25 1_555 1_555
H24 C25 1_555 1_555
H25 C25 1_555 1_555
C26 C23 1_555 1_555
H26 C26 1_555 1_555
H27 C26 1_555 1_555
H28 C26 1_555 1_555
C2 C7 1_555 1_555
C5 C6 1_555 1_555
C6 C14 1_555 1_555
C12 C13 1_555 1_555
C19 C20 1_555 1_555

#END
