
#######################################################################
#
#                 Cambridge Crystallographic Data Centre
#                                CCDC 
#
#######################################################################
#
# If this CIF has been generated from an entry in the Cambridge 
# Structural Database, then it will include bibliographic, chemical, 
# crystal, experimental, refinement or atomic coordinate data resulting 
# from the CCDC's data processing and validation procedures.
#
#######################################################################

data_WAMCAP
_chemical_formula_moiety         'C44 H76 P2 Si2'
_chemical_name_systematic        
1,2-bis(Trimethylsilyl)-3,4-bis(2,4,6-tri-t-butylphenyl)-3,4-diphosphacyclobutene
_symmetry_cell_setting           triclinic
_symmetry_space_group_name_H-M   'P -1'
_symmetry_Int_Tables_number      2
_space_group_name_Hall           '-P 1'
loop_
_symmetry_equiv_pos_site_id
_symmetry_equiv_pos_as_xyz
1 x,y,z
2 -x,-y,-z
_cell_length_a                   13.963(3)
_cell_length_b                   22.947(4)
_cell_length_c                   31.616(5)
_cell_angle_alpha                70.01(2)
_cell_angle_beta                 87.85(2)
_cell_angle_gamma                83.46(2)
_cell_volume                     9457.78
_exptl_crystal_colour            colorless
_exptl_crystal_description       prism
_chemical_melting_point          227-229deg.C(dec)
_cell_formula_units_Z            8
_exptl_crystal_recrystallization_method hexane
loop_
_atom_site_label
_atom_site_type_symbol
_atom_site_fract_x
_atom_site_fract_y
_atom_site_fract_z
P1 P 1.2910(1) 0.16585(8) 1.13573(5)
P2 P 1.1714(1) 0.13341(8) 1.10606(5)
Si1 Si 1.1859(2) 0.2867(1) 1.15763(8)
Si2 Si 0.9763(1) 0.19742(10) 1.13897(7)
C1 C 1.1121(4) 0.1839(3) 1.1348(2)
C2 C 1.1843(4) 0.2182(3) 1.1379(2)
C3 C 1.3854(4) 0.2120(3) 1.1007(2)
C4 C 1.4718(4) 0.2038(3) 1.1256(2)
C5 C 1.5258(5) 0.2546(3) 1.1173(2)
C6 C 1.4981(5) 0.3118(3) 1.0850(2)
C7 C 1.4263(5) 0.3145(3) 1.0555(2)
C8 C 1.3709(4) 0.2654(3) 1.0612(2)
C9 C 1.1320(4) 0.0540(3) 1.1311(2)
C10 C 1.1041(4) 0.0245(3) 1.1768(2)
C11 C 1.0219(5) -0.0068(3) 1.1840(2)
C12 C 0.9710(5) -0.0139(3) 1.1490(2)
C13 C 1.0146(5) 0.0016(3) 1.1081(3)
C14 C 1.0962(5) 0.0339(3) 1.0974(2)
C15 C 1.5509(7) 0.3689(4) 1.0807(4)
C16 C 1.1685(5) 0.0171(3) 1.2176(2)
C17 C 0.8741(5) -0.0419(4) 1.1578(3)
C18 C 1.1440(5) 0.0430(4) 1.0512(3)
C19 C 1.5128(5) 0.1404(3) 1.1611(2)
C20 C 1.3076(5) 0.2684(4) 1.0210(2)
C21 C 1.1441(6) -0.0391(4) 1.2587(3)
C22 C 1.1590(6) 0.0741(4) 1.2326(3)
C23 C 1.2725(5) 0.0022(4) 1.2061(3)
C24 C 1.2532(6) 0.0419(4) 1.0544(3)
C25 C 1.1037(7) 0.1022(5) 1.0157(3)
C26 C 1.1300(7) -0.0133(5) 1.0364(3)
C30 C 1.3266(6) 0.2065(4) 1.0125(3)
C31 C 1.1995(5) 0.2846(4) 1.0261(3)
C32 C 1.3386(7) 0.3185(4) 0.9776(3)
C33 C 1.4708(6) 0.1316(4) 1.2079(2)
C34 C 1.6238(5) 0.1389(4) 1.1649(3)
C35 C 1.4958(5) 0.0862(3) 1.1456(3)
C36 C 1.1031(7) 0.2787(5) 1.2056(3)
C37 C 1.3078(6) 0.2861(4) 1.1794(3)
C38 C 1.1568(7) 0.3629(4) 1.1126(3)
C39 C 1.560(1) 0.3769(6) 1.1237(4)
C40 C 1.646(1) 0.3589(9) 1.0646(9)
C41 C 0.9330(6) 0.2816(4) 1.1197(3)
C42 C 0.9282(6) 0.1598(4) 1.1962(3)
C43 C 0.9215(5) 0.1648(4) 1.1011(3)
C161 C 1.503(2) 0.4258(6) 1.0504(7)
C176 C 0.804(1) 0.0009(9) 1.1744(7)
C177 C 0.887(1) -0.1106(7) 1.1896(5)
C178 C 0.838(1) -0.0467(8) 1.1102(6)
H1 H 1.5851 0.2489 1.1349
H2 H 1.4141 0.3528 1.0294
H3 H 0.9984 -0.0247 1.2154
H4 H 0.9860 -0.0102 1.0845
H17 H 1.1041 0.3117 1.2173
H18 H 1.0377 0.2779 1.1973
H19 H 1.1203 0.2397 1.2300
H20 H 1.3271 0.2478 1.2036
H21 H 1.3568 0.2901 1.1562
H22 H 1.3116 0.3198 1.1907
H23 H 1.1557 0.3979 1.1225
H24 H 1.2015 0.3697 1.0873
H25 H 1.0930 0.3662 1.0991
H26 H 0.9592 0.3021 1.1379
H27 H 0.9532 0.3022 1.0890
H28 H 0.8646 0.2886 1.1205
H29 H 0.8589 0.1666 1.1974
H30 H 0.9446 0.1145 1.2068
H31 H 0.9534 0.1742 1.2183
H32 H 0.8539 0.1698 1.1016
H33 H 0.9426 0.1837 1.0701
H34 H 0.9427 0.1202 1.1089
H143 H 1.0781 -0.0320 1.2683
H144 H 1.1499 -0.0762 1.2516
H145 H 1.1849 -0.0450 1.2838
H146 H 1.2007 0.0692 1.2572
H147 H 1.1736 0.1115 1.2083
H148 H 1.0936 0.0832 1.2420
H149 H 1.2806 -0.0357 1.1986
H150 H 1.2940 0.0347 1.1801
H151 H 1.3158 -0.0037 1.2303
H152 H 1.2800 0.0031 1.0770
H153 H 1.2852 0.0444 1.0267
H154 H 1.2705 0.0752 1.0635
H155 H 1.1156 0.1389 1.0224
H156 H 1.1298 0.1067 0.9864
H157 H 1.0340 0.1043 1.0131
H158 H 1.0622 -0.0168 1.0335
H159 H 1.1604 -0.0109 1.0086
H160 H 1.1560 -0.0520 1.0589
H233 H 1.3096 0.1718 1.0386
H234 H 1.2911 0.2056 0.9875
H235 H 1.3943 0.1968 1.0069
H236 H 1.1861 0.3253 1.0293
H237 H 1.1632 0.2851 1.0010
H238 H 1.1744 0.2551 1.0528
H239 H 1.4060 0.3112 0.9720
H240 H 1.3037 0.3190 0.9519
H241 H 1.3267 0.3594 0.9800
H242 H 1.4841 0.1653 1.2182
H243 H 1.4014 0.1325 1.2077
H244 H 1.4960 0.0935 1.2298
H245 H 1.6527 0.1007 1.1853
H246 H 1.6547 0.1452 1.1358
H247 H 1.6403 0.1723 1.1746
H248 H 1.4278 0.0840 1.1425
H249 H 1.5245 0.0910 1.1164
H250 H 1.5224 0.0468 1.1660
H251 H 1.5912 0.3400 1.1459
H252 H 1.5930 0.4113 1.1224
H253 H 1.4955 0.3839 1.1365
H254 H 1.6784 0.3229 1.0822
H255 H 1.6377 0.3562 1.0339
H256 H 1.6788 0.3944 1.0598
H257 H 1.5358 0.4608 1.0472
H258 H 1.4940 0.4226 1.0215
H259 H 1.4381 0.4338 1.0618
P3 P 0.8791(1) 0.33132(8) 0.86900(5)
P4 P 0.7504(1) 0.28617(8) 0.90684(6)
Si3 Si 0.7876(2) 0.47144(10) 0.81021(7)
Si4 Si 0.5663(1) 0.3795(1) 0.85557(8)
C27 C 1.1186(7) 0.5579(4) 0.8566(6)
C28 C 1.2130(10) 0.4965(6) 0.9233(4)
C29 C 1.2602(7) 0.4906(5) 0.8510(4)
C44 C 0.7764(5) 0.3913(3) 0.8510(2)
C45 C 0.7006(4) 0.3559(3) 0.8633(2)
C46 C 0.7074(4) 0.2135(3) 0.9023(2)
C47 C 0.6613(4) 0.1800(3) 0.9427(2)
C48 C 0.5892(5) 0.1440(3) 0.9402(2)
C49 C 0.5626(5) 0.1377(3) 0.9007(2)
C50 C 0.6202(5) 0.1629(3) 0.8632(2)
C51 C 0.6929(5) 0.1987(3) 0.8631(2)
C52 C 0.9755(4) 0.3589(3) 0.8946(2)
C53 C 0.9649(4) 0.3979(3) 0.9219(2)
C54 C 1.0327(5) 0.4404(3) 0.9161(2)
C55 C 1.1102(4) 0.4444(3) 0.8876(2)
C56 C 1.1286(4) 0.3984(3) 0.8692(2)
C57 C 1.0662(4) 0.3539(3) 0.8730(2)
C58 C 0.6923(5) 0.1750(3) 0.9907(2)
C59 C 0.4746(5) 0.1040(4) 0.8976(3)
C60 C 0.7592(6) 0.2149(4) 0.8215(3)
C61 C 1.1004(5) 0.2998(4) 0.8558(3)
C62 C 0.8900(5) 0.3920(4) 0.9602(2)
C63 C 1.1736(5) 0.4972(4) 0.8790(3)
C64 C 0.9218(6) 0.4238(4) 0.9933(3)
C65 C 0.8921(6) 0.3208(4) 0.9882(2)
C66 C 0.7878(5) 0.4226(4) 0.9419(3)
C67 C 0.8024(5) 0.1675(4) 0.9936(3)
C68 C 0.6465(6) 0.2297(4) 1.0051(3)
C69 C 0.6598(6) 0.1145(4) 1.0263(2)
C70 C 0.7393(8) 0.1791(5) 0.7891(3)
C71 C 0.7499(6) 0.2827(4) 0.7929(2)
C72 C 0.8628(6) 0.1934(4) 0.8377(3)
C73 C 1.0713(6) 0.2387(4) 0.8884(3)
C74 C 1.0677(6) 0.3102(5) 0.8086(3)
C75 C 1.2115(6) 0.2922(5) 0.8533(4)
C76 C 0.7704(7) 0.4674(4) 0.7536(3)
C77 C 0.6984(8) 0.5318(4) 0.8200(3)
C78 C 0.9075(7) 0.4972(5) 0.8121(4)
C79 C 0.5323(6) 0.4191(4) 0.8973(3)
C80 C 0.5281(6) 0.4300(5) 0.7991(3)
C163 C 0.4997(5) 0.3102(4) 0.8710(3)
C165 C 0.465(1) 0.0472(9) 0.9417(6)
C166 C 0.385(1) 0.1518(8) 0.8931(6)
C167 C 0.479(1) 0.0861(7) 0.8532(5)
H5 H 0.5559 0.1220 0.9683
H6 H 0.6085 0.1543 0.8354
H7 H 1.0241 0.4687 0.9338
H8 H 1.1882 0.3968 0.8525
H35 H 0.5656 0.4552 0.8922
H36 H 0.4640 0.4325 0.8966
H37 H 0.5470 0.3916 0.9279
H38 H 0.5600 0.4677 0.7885
H39 H 0.5424 0.4095 0.7766
H40 H 0.4597 0.4429 0.7968
H41 H 0.4312 0.3209 0.8702
H42 H 0.5134 0.2875 0.8498
H43 H 0.5169 0.2811 0.9002
H44 H 0.7098 0.4530 0.7506
H45 H 0.7759 0.5056 0.7300
H46 H 0.8201 0.4365 0.7475
H47 H 0.7088 0.5361 0.8491
H48 H 0.7030 0.5724 0.7977
H49 H 0.6337 0.5222 0.8199
H50 H 0.9589 0.4673 0.8066
H51 H 0.9150 0.5365 0.7893
H52 H 0.9213 0.4999 0.8406
H125 H 0.6733 0.1919 0.7776
H126 H 0.7811 0.1880 0.7640
H127 H 0.7445 0.1357 0.8049
H128 H 0.7603 0.3091 0.8100
H129 H 0.7921 0.2921 0.7677
H130 H 0.6839 0.2962 0.7808
H131 H 0.8717 0.1477 0.8543
H132 H 0.9109 0.2009 0.8149
H133 H 0.8816 0.2114 0.8597
H134 H 1.0017 0.2408 0.8924
H135 H 1.0904 0.2040 0.8787
H136 H 1.0988 0.2296 0.9177
H137 H 1.0875 0.3489 0.7870
H138 H 1.0902 0.2776 0.7973
H139 H 0.9969 0.3153 0.8063
H140 H 1.2400 0.2853 0.8831
H141 H 1.2388 0.2596 0.8437
H142 H 1.2365 0.3308 0.8337
H161 H 0.8245 0.1634 1.0227
H162 H 0.8299 0.1315 0.9865
H163 H 0.8287 0.2034 0.9721
H164 H 0.6662 0.2261 1.0345
H165 H 0.6636 0.2692 0.9845
H166 H 0.5768 0.2322 1.0050
H167 H 0.5906 0.1152 1.0266
H168 H 0.6862 0.0780 1.0196
H169 H 0.6800 0.1096 1.0560
H224 H 1.1566 0.5919 0.8504
H225 H 1.0930 0.5595 0.8279
H226 H 1.0640 0.5653 0.8743
H227 H 1.2507 0.4564 0.9387
H228 H 1.2541 0.5280 0.9197
H229 H 1.1619 0.5008 0.9436
H230 H 1.3001 0.4500 0.8661
H231 H 1.2437 0.4892 0.8224
H232 H 1.3023 0.5217 0.8468
P5 P 0.3334(1) 0.25772(8) 0.59902(6)
P6 P 0.2140(1) 0.19841(8) 0.62918(6)
Si7 Si 0.3162(2) 0.05660(9) 0.65425(8)
Si8 Si 0.5289(1) 0.1632(1) 0.62976(7)
C81 C 0.3929(4) 0.1804(3) 0.6277(2)
C82 C 0.3194(4) 0.1434(3) 0.6328(2)
C83 C 0.3721(4) 0.3145(3) 0.6234(2)
C84 C 0.4053(5) 0.3022(3) 0.6675(2)
C85 C 0.4856(5) 0.3295(3) 0.6724(2)
C86 C 0.5305(4) 0.3724(3) 0.6365(2)
C87 C 0.4791(5) 0.3956(3) 0.5963(2)
C88 C 0.4000(5) 0.3686(3) 0.5885(2)
C89 C 0.1191(5) 0.1848(3) 0.5941(2)
C90 C 0.0318(5) 0.1744(3) 0.6186(2)
C91 C -0.0232(5) 0.1317(4) 0.6115(3)
C92 C 0.0022(5) 0.1000(4) 0.5822(3)
C93 C 0.0781(5) 0.1209(4) 0.5529(3)
C94 C 0.1360(5) 0.1646(3) 0.5570(2)
C95 C 0.3499(6) 0.2678(3) 0.7104(2)
C96 C 0.6260(5) 0.3957(4) 0.6419(3)
C97 C 0.3450(5) 0.4013(3) 0.5441(2)
C98 C -0.0083(5) 0.2103(3) 0.6496(2)
C99 C -0.0530(9) 0.0457(6) 0.5798(4)
C100 C 0.2009(5) 0.1950(4) 0.5159(2)
C101 C 0.3820(7) 0.2840(4) 0.7509(3)
C102 C 0.2428(6) 0.2931(4) 0.7025(3)
C103 C 0.3582(7) 0.1970(4) 0.7249(2)
C104 C 0.3507(7) 0.4728(4) 0.5294(3)
C105 C 0.3865(6) 0.3788(4) 0.5067(2)
C106 C 0.2370(5) 0.3942(4) 0.5503(3)
C107 C 0.0153(5) 0.2781(4) 0.6319(3)
C108 C 0.0249(6) 0.1789(4) 0.6983(3)
C109 C -0.1199(6) 0.2138(4) 0.6514(3)
C110 C 0.1757(7) 0.1781(5) 0.4743(3)
C111 C 0.3084(5) 0.1748(4) 0.5240(3)
C112 C 0.1802(6) 0.2658(4) 0.5031(3)
C113 C 0.5792(5) 0.2336(4) 0.5915(3)
C114 C 0.5662(6) 0.0982(4) 0.6085(4)
C115 C 0.4001(6) 0.0214(4) 0.7027(3)
C155 C 0.1941(6) 0.0397(4) 0.6755(3)
C159 C 0.5845(6) 0.1450(5) 0.6864(4)
C162 C 0.3447(7) 0.0178(4) 0.6122(3)
C171 C 0.027(1) -0.0101(9) 0.5759(6)
C172 C -0.069(1) 0.0007(9) 0.6269(7)
C173 C -0.114(2) 0.0686(9) 0.5369(7)
C182 C 0.7039(9) 0.3377(6) 0.6535(4)
C183 C 0.6175(9) 0.4233(6) 0.6814(4)
C184 C 0.6542(10) 0.4489(7) 0.5986(5)
H9 H 0.5140 0.3186 0.7025
H10 H 0.5001 0.4316 0.5721
H11 H -0.0831 0.1225 0.6289
H12 H 0.0904 0.1027 0.5284
H53 H 0.6479 0.2275 0.5902
H54 H 0.5538 0.2460 0.5619
H55 H 0.5631 0.2687 0.6024
H56 H 0.5421 0.0606 0.6263
H57 H 0.5424 0.1082 0.5778
H58 H 0.6353 0.0908 0.6069
H59 H 0.3978 -0.0230 0.7162
H60 H 0.4656 0.0283 0.6944
H61 H 0.3838 0.0388 0.7265
H62 H 0.1767 0.0571 0.6990
H63 H 0.1472 0.0570 0.6522
H64 H 0.1904 -0.0044 0.6882
H65 H 0.5615 0.1091 0.7079
H66 H 0.6534 0.1380 0.6849
H67 H 0.5694 0.1796 0.6973
H68 H 0.3454 -0.0272 0.6252
H69 H 0.3018 0.0320 0.5873
H70 H 0.4100 0.0245 0.5997
H89 H 0.4496 0.2683 0.7583
H90 H 0.3785 0.3287 0.7437
H91 H 0.3455 0.2673 0.7772
H92 H 0.2332 0.3378 0.6964
H93 H 0.2178 0.2870 0.6759
H94 H 0.2023 0.2740 0.7271
H95 H 0.3205 0.1783 0.7505
H96 H 0.3391 0.1835 0.7007
H97 H 0.4249 0.1790 0.7318
H116 H -0.0006 0.2030 0.7170
H117 H 0.0059 0.1383 0.7110
H118 H 0.0947 0.1758 0.7007
H119 H -0.1470 0.2369 0.6698
H120 H -0.1470 0.2331 0.6217
H121 H -0.1403 0.1725 0.6634
H122 H 0.0852 0.2794 0.6303
H123 H -0.0095 0.2991 0.6024
H124 H -0.0090 0.3004 0.6512
H170 H 0.4159 0.4831 0.5241
H171 H 0.3140 0.4958 0.5027
H172 H 0.3253 0.4888 0.5529
H173 H 0.3841 0.3339 0.5144
H174 H 0.3535 0.3985 0.4786
H175 H 0.4541 0.3851 0.5013
H176 H 0.2111 0.4096 0.5742
H177 H 0.2001 0.4166 0.5240
H178 H 0.2250 0.3510 0.5597
H179 H 0.1083 0.1889 0.4668
H180 H 0.2121 0.1985 0.4484
H181 H 0.1889 0.1335 0.4804
H182 H 0.3226 0.1301 0.5309
H183 H 0.3464 0.1948 0.4986
H184 H 0.3309 0.1838 0.5495
H185 H 0.1929 0.2797 0.5277
H186 H 0.2174 0.2878 0.4779
H187 H 0.1126 0.2797 0.4951
P7 P 0.6175(1) 0.30508(8) 0.35923(6)
P8 P 0.7488(1) 0.31079(8) 0.39682(6)
Si5 Si 0.9275(2) 0.2868(1) 0.33450(9)
Si6 Si 0.7034(2) 0.2375(1) 0.28870(8)
C116 C 0.7184(5) 0.2702(3) 0.3343(2)
C117 C 0.7955(5) 0.2919(3) 0.3479(2)
C118 C 0.8034(5) 0.4396(3) 0.3575(2)
C119 C 0.8790(6) 0.4732(3) 0.3587(3)
C120 C 0.9392(5) 0.4591(4) 0.3954(3)
C121 C 0.9134(5) 0.4152(4) 0.4344(2)
C122 C 0.8388(5) 0.3790(3) 0.4362(2)
C123 C 0.7905(4) 0.3859(3) 0.3958(2)
C124 C 0.5268(4) 0.2485(3) 0.3830(2)
C125 C 0.4347(4) 0.2728(3) 0.3632(2)
C126 C 0.3752(4) 0.2301(3) 0.3582(2)
C127 C 0.3991(4) 0.1676(3) 0.3723(2)
C128 C 0.4816(5) 0.1447(3) 0.3979(2)
C129 C 0.5452(5) 0.1835(3) 0.4060(2)
C130 C 1.0276(6) 0.4927(5) 0.3939(4)
C131 C 0.8079(6) 0.3368(3) 0.4830(2)
C132 C 0.7285(7) 0.4688(4) 0.3191(3)
C133 C 0.3930(5) 0.3414(4) 0.3502(3)
C134 C 0.3391(6) 0.1229(4) 0.3617(3)
C135 C 0.6207(5) 0.1526(3) 0.4438(2)
C136 C 1.1118(7) 0.4497(7) 0.4023(9)
C137 C 1.0235(10) 0.5250(8) 0.4263(6)
C138 C 0.8422(7) 0.3608(4) 0.5201(3)
C139 C 0.6980(6) 0.3408(4) 0.4866(3)
C140 C 0.8514(6) 0.2685(4) 0.4965(3)
C141 C 0.6299(7) 0.4731(5) 0.3405(3)
C142 C 0.7234(6) 0.4347(4) 0.2862(3)
C143 C 0.747(1) 0.5357(4) 0.2892(4)
C144 C 0.7239(5) 0.1450(4) 0.4274(3)
C145 C 0.6153(6) 0.1916(4) 0.4753(2)
C146 C 0.3281(9) 0.0655(5) 0.4037(4)
C147 C 0.2410(7) 0.1508(5) 0.3467(6)
C148 C 0.3936(8) 0.0949(6) 0.3314(4)
C149 C 0.4206(7) 0.3677(4) 0.3860(3)
C150 C 0.4219(6) 0.3825(4) 0.3046(3)
C151 C 0.2812(6) 0.3469(4) 0.3511(4)
C152 C 0.744(1) 0.1535(5) 0.3047(4)
C153 C 0.7652(7) 0.2839(4) 0.2373(3)
C154 C 0.5747(8) 0.2497(7) 0.2726(4)
C156 C 0.9966(6) 0.2915(6) 0.3800(4)
C157 C 0.9638(7) 0.3542(5) 0.2854(4)
C158 C 0.9667(7) 0.2146(5) 0.3230(4)
C160 C 0.5987(6) 0.0864(4) 0.4743(3)
C164 C 1.039(1) 0.544(1) 0.3501(6)
H13 H 0.8884 0.5089 0.3311
H14 H 0.9490 0.4087 0.4618
H15 H 0.3124 0.2465 0.3433
H16 H 0.4987 0.0993 0.4110
H71 H 0.7103 0.1287 0.3295
H72 H 0.7406 0.1383 0.2800
H73 H 0.8133 0.1452 0.3135
H74 H 0.8348 0.2793 0.2427
H75 H 0.7570 0.2696 0.2127
H76 H 0.7437 0.3270 0.2285
H77 H 0.5504 0.2947 0.2631
H78 H 0.5640 0.2373 0.2472
H79 H 0.5345 0.2291 0.2966
H80 H 0.9853 0.2589 0.4088
H81 H 1.0649 0.2884 0.3754
H82 H 0.9796 0.3307 0.3861
H83 H 1.0304 0.3511 0.2786
H84 H 0.9295 0.3574 0.2575
H85 H 0.9459 0.3940 0.2893
H86 H 0.9576 0.1778 0.3491
H87 H 0.9317 0.2110 0.2986
H88 H 1.0345 0.2112 0.3156
H98 H 0.8210 0.3363 0.5498
H99 H 0.9105 0.3595 0.5210
H100 H 0.8151 0.4033 0.5149
H101 H 0.6699 0.3835 0.4809
H102 H 0.6698 0.3267 0.4648
H103 H 0.6761 0.3164 0.5158
H104 H 0.8301 0.2426 0.5250
H105 H 0.8339 0.2495 0.4744
H106 H 0.9210 0.2640 0.4967
H107 H 0.3989 0.3452 0.4154
H108 H 0.4917 0.3656 0.3884
H109 H 0.3979 0.4113 0.3795
H110 H 0.4927 0.3817 0.3009
H111 H 0.4028 0.3671 0.2805
H112 H 0.3968 0.4250 0.2957
H113 H 0.2517 0.3894 0.3428
H114 H 0.2577 0.3317 0.3275
H115 H 0.2556 0.3230 0.3784
H188 H 0.6599 0.1754 0.4994
H189 H 0.6267 0.2344 0.4589
H190 H 0.5510 0.1938 0.4883
H191 H 0.2941 0.0761 0.4278
H192 H 0.2972 0.0337 0.3985
H193 H 0.3921 0.0450 0.4170
H194 H 0.2071 0.1645 0.3695
H195 H 0.2422 0.1876 0.3200
H196 H 0.2038 0.1229 0.3401
H197 H 0.3622 0.0645 0.3253
H198 H 0.4059 0.1270 0.3026
H199 H 0.4571 0.0760 0.3437
H200 H 0.5345 0.0868 0.4862
H201 H 0.6031 0.0581 0.4571
H202 H 0.6428 0.0685 0.4988
H203 H 1.1092 0.4181 0.4321
H204 H 1.1158 0.4269 0.3812
H205 H 1.1690 0.4684 0.4002
H206 H 1.0780 0.5459 0.4255
H207 H 0.9666 0.5557 0.4209
H208 H 1.0163 0.4962 0.4567
H209 H 0.6274 0.4982 0.3601
H210 H 0.5786 0.4900 0.3195
H211 H 0.6137 0.4319 0.3603
H212 H 0.7110 0.3915 0.3013
H213 H 0.6747 0.4534 0.2639
H214 H 0.7844 0.4327 0.2706
H215 H 0.8097 0.5342 0.2735
H216 H 0.7000 0.5551 0.2668
H217 H 0.7535 0.5619 0.3068
H218 H 0.7692 0.1286 0.4515
H219 H 0.7304 0.1175 0.4099
H220 H 0.7433 0.1847 0.4079
H221 H 1.0926 0.5646 0.3494
H222 H 1.0405 0.5280 0.3257
H223 H 0.9812 0.5747 0.3449
C168? C 0.392(2) 0.114(1) 0.9340(9)
C169? C 0.418(2) 0.141(1) 0.8528(10)
C170? C 0.502(2) 0.033(1) 0.9144(8)
C174? C -0.171(2) 0.078(1) 0.574(1)
C175? C -0.031(3) 0.035(2) 0.534(1)
C179? C 0.799(1) 0.0000(9) 1.1226(6)
C180? C 0.825(1) -0.0363(9) 1.2070(7)
C181? C 0.890(1) -0.1113(10) 1.1646(7)
C185? C 0.697(2) 0.389(1) 0.6022(8)
C186? C 0.684(2) 0.353(1) 0.685(1)
C187? C 0.615(2) 0.464(1) 0.637(1)
C188? C -0.136(2) 0.034(1) 0.619(1)
loop_
_geom_bond_atom_site_label_1
_geom_bond_atom_site_label_2
_geom_bond_site_symmetry_1
_geom_bond_site_symmetry_2
P1 P2 1_555 1_555
P2 C1 1_555 1_555
P3 P4 1_555 1_555
P4 C45 1_555 1_555
P5 P6 1_555 1_555
P6 C82 1_555 1_555
P7 P8 1_555 1_555
P8 C117 1_555 1_555
Si1 C2 1_555 1_555
Si2 C1 1_555 1_555
Si3 C44 1_555 1_555
Si4 C45 1_555 1_555
Si5 C117 1_555 1_555
Si6 C116 1_555 1_555
Si7 C82 1_555 1_555
Si8 C81 1_555 1_555
C1 C2 1_555 1_555
C2 P1 1_555 1_555
C3 P1 1_555 1_555
C4 C3 1_555 1_555
C5 C4 1_555 1_555
C6 C5 1_555 1_555
C7 C6 1_555 1_555
C8 C3 1_555 1_555
C9 P2 1_555 1_555
C10 C9 1_555 1_555
C11 C10 1_555 1_555
C12 C11 1_555 1_555
C13 C12 1_555 1_555
C14 C9 1_555 1_555
C15 C6 1_555 1_555
C16 C10 1_555 1_555
C17 C12 1_555 1_555
C18 C14 1_555 1_555
C19 C4 1_555 1_555
C20 C8 1_555 1_555
C21 C16 1_555 1_555
C22 C16 1_555 1_555
C23 C16 1_555 1_555
C24 C18 1_555 1_555
C25 C18 1_555 1_555
C26 C18 1_555 1_555
C27 C63 1_555 1_555
C28 C63 1_555 1_555
C29 C63 1_555 1_555
C30 C20 1_555 1_555
C31 C20 1_555 1_555
C32 C20 1_555 1_555
C33 C19 1_555 1_555
C34 C19 1_555 1_555
C35 C19 1_555 1_555
C36 Si1 1_555 1_555
C37 Si1 1_555 1_555
C38 Si1 1_555 1_555
C39 C15 1_555 1_555
C40 C15 1_555 1_555
C41 Si2 1_555 1_555
C42 Si2 1_555 1_555
C43 Si2 1_555 1_555
C44 P3 1_555 1_555
C45 C44 1_555 1_555
C46 P4 1_555 1_555
C47 C46 1_555 1_555
C48 C47 1_555 1_555
C49 C48 1_555 1_555
C50 C49 1_555 1_555
C51 C46 1_555 1_555
C52 P3 1_555 1_555
C53 C52 1_555 1_555
C54 C53 1_555 1_555
C55 C54 1_555 1_555
C56 C55 1_555 1_555
C57 C52 1_555 1_555
C58 C47 1_555 1_555
C59 C49 1_555 1_555
C60 C51 1_555 1_555
C61 C57 1_555 1_555
C62 C53 1_555 1_555
C63 C55 1_555 1_555
C64 C62 1_555 1_555
C65 C62 1_555 1_555
C66 C62 1_555 1_555
C67 C58 1_555 1_555
C68 C58 1_555 1_555
C69 C58 1_555 1_555
C70 C60 1_555 1_555
C71 C60 1_555 1_555
C72 C60 1_555 1_555
C73 C61 1_555 1_555
C74 C61 1_555 1_555
C75 C61 1_555 1_555
C76 Si3 1_555 1_555
C77 Si3 1_555 1_555
C78 Si3 1_555 1_555
C79 Si4 1_555 1_555
C80 Si4 1_555 1_555
C81 P5 1_555 1_555
C82 C81 1_555 1_555
C83 P5 1_555 1_555
C84 C83 1_555 1_555
C85 C84 1_555 1_555
C86 C85 1_555 1_555
C87 C86 1_555 1_555
C88 C83 1_555 1_555
C89 P6 1_555 1_555
C90 C89 1_555 1_555
C91 C90 1_555 1_555
C92 C91 1_555 1_555
C93 C92 1_555 1_555
C94 C89 1_555 1_555
C95 C84 1_555 1_555
C96 C86 1_555 1_555
C97 C88 1_555 1_555
C98 C90 1_555 1_555
C99 C92 1_555 1_555
C100 C94 1_555 1_555
C101 C95 1_555 1_555
C102 C95 1_555 1_555
C103 C95 1_555 1_555
C104 C97 1_555 1_555
C105 C97 1_555 1_555
C106 C97 1_555 1_555
C107 C98 1_555 1_555
C108 C98 1_555 1_555
C109 C98 1_555 1_555
C110 C100 1_555 1_555
C111 C100 1_555 1_555
C112 C100 1_555 1_555
C113 Si8 1_555 1_555
C114 Si8 1_555 1_555
C115 Si7 1_555 1_555
C116 P7 1_555 1_555
C117 C116 1_555 1_555
C118 C119 1_555 1_555
C119 C120 1_555 1_555
C120 C121 1_555 1_555
C121 C122 1_555 1_555
C122 C123 1_555 1_555
C123 P8 1_555 1_555
C124 P7 1_555 1_555
C125 C124 1_555 1_555
C126 C125 1_555 1_555
C127 C126 1_555 1_555
C128 C127 1_555 1_555
C129 C124 1_555 1_555
C130 C120 1_555 1_555
C131 C122 1_555 1_555
C132 C118 1_555 1_555
C133 C125 1_555 1_555
C134 C127 1_555 1_555
C135 C129 1_555 1_555
C136 C130 1_555 1_555
C137 C130 1_555 1_555
C138 C131 1_555 1_555
C139 C131 1_555 1_555
C140 C131 1_555 1_555
C141 C132 1_555 1_555
C142 C132 1_555 1_555
C143 C132 1_555 1_555
C144 C135 1_555 1_555
C145 C135 1_555 1_555
C146 C134 1_555 1_555
C147 C134 1_555 1_555
C148 C134 1_555 1_555
C149 C133 1_555 1_555
C150 C133 1_555 1_555
C151 C133 1_555 1_555
C152 Si6 1_555 1_555
C153 Si6 1_555 1_555
C154 Si6 1_555 1_555
C155 Si7 1_555 1_555
C156 Si5 1_555 1_555
C157 Si5 1_555 1_555
C158 Si5 1_555 1_555
C159 Si8 1_555 1_555
C160 C135 1_555 1_555
C161 C15 1_555 1_555
C162 Si7 1_555 1_555
C163 Si4 1_555 1_555
C164 C130 1_555 1_555
C165 C59 1_555 1_555
C166 C59 1_555 1_555
C167 C59 1_555 1_555
C171 C99 1_555 1_555
C172 C99 1_555 1_555
C173 C99 1_555 1_555
C176 C17 1_555 1_555
C177 C17 1_555 1_555
C178 C17 1_555 1_555
C182 C96 1_555 1_555
C183 C96 1_555 1_555
C184 C96 1_555 1_555
H1 C5 1_555 1_555
H2 C7 1_555 1_555
H3 C11 1_555 1_555
H4 C13 1_555 1_555
H5 C48 1_555 1_555
H6 C50 1_555 1_555
H7 C54 1_555 1_555
H8 C56 1_555 1_555
H9 C85 1_555 1_555
H10 C87 1_555 1_555
H11 C91 1_555 1_555
H12 C93 1_555 1_555
H13 C119 1_555 1_555
H14 C121 1_555 1_555
H15 C126 1_555 1_555
H16 C128 1_555 1_555
H17 C36 1_555 1_555
H18 C36 1_555 1_555
H19 C36 1_555 1_555
H20 C37 1_555 1_555
H21 C37 1_555 1_555
H22 C37 1_555 1_555
H23 C38 1_555 1_555
H24 C38 1_555 1_555
H25 C38 1_555 1_555
H26 C41 1_555 1_555
H27 C41 1_555 1_555
H28 C41 1_555 1_555
H29 C42 1_555 1_555
H30 C42 1_555 1_555
H31 C42 1_555 1_555
H32 C43 1_555 1_555
H33 C43 1_555 1_555
H34 C43 1_555 1_555
H35 C79 1_555 1_555
H36 C79 1_555 1_555
H37 C79 1_555 1_555
H38 C80 1_555 1_555
H39 C80 1_555 1_555
H40 C80 1_555 1_555
H41 C163 1_555 1_555
H42 C163 1_555 1_555
H43 C163 1_555 1_555
H44 C76 1_555 1_555
H45 C76 1_555 1_555
H46 C76 1_555 1_555
H47 C77 1_555 1_555
H48 C77 1_555 1_555
H49 C77 1_555 1_555
H50 C78 1_555 1_555
H51 C78 1_555 1_555
H52 C78 1_555 1_555
H53 C113 1_555 1_555
H54 C113 1_555 1_555
H55 C113 1_555 1_555
H56 C114 1_555 1_555
H57 C114 1_555 1_555
H58 C114 1_555 1_555
H59 C115 1_555 1_555
H60 C115 1_555 1_555
H61 C115 1_555 1_555
H62 C155 1_555 1_555
H63 C155 1_555 1_555
H64 C155 1_555 1_555
H65 C159 1_555 1_555
H66 C159 1_555 1_555
H67 C159 1_555 1_555
H68 C162 1_555 1_555
H69 C162 1_555 1_555
H70 C162 1_555 1_555
H71 C152 1_555 1_555
H72 C152 1_555 1_555
H73 C152 1_555 1_555
H74 C153 1_555 1_555
H75 C153 1_555 1_555
H76 C153 1_555 1_555
H77 C154 1_555 1_555
H78 C154 1_555 1_555
H79 C154 1_555 1_555
H80 C156 1_555 1_555
H81 C156 1_555 1_555
H82 C156 1_555 1_555
H83 C157 1_555 1_555
H84 C157 1_555 1_555
H85 C157 1_555 1_555
H86 C158 1_555 1_555
H87 C158 1_555 1_555
H88 C158 1_555 1_555
H89 C101 1_555 1_555
H90 C101 1_555 1_555
H91 C101 1_555 1_555
H92 C102 1_555 1_555
H93 C102 1_555 1_555
H94 C102 1_555 1_555
H95 C103 1_555 1_555
H96 C103 1_555 1_555
H97 C103 1_555 1_555
H98 C138 1_555 1_555
H99 C138 1_555 1_555
H100 C138 1_555 1_555
H101 C139 1_555 1_555
H102 C139 1_555 1_555
H103 C139 1_555 1_555
H104 C140 1_555 1_555
H105 C140 1_555 1_555
H106 C140 1_555 1_555
H107 C149 1_555 1_555
H108 C149 1_555 1_555
H109 C149 1_555 1_555
H110 C150 1_555 1_555
H111 C150 1_555 1_555
H112 C150 1_555 1_555
H113 C151 1_555 1_555
H114 C151 1_555 1_555
H115 C151 1_555 1_555
H116 C108 1_555 1_555
H117 C108 1_555 1_555
H118 C108 1_555 1_555
H119 C109 1_555 1_555
H120 C109 1_555 1_555
H121 C109 1_555 1_555
H122 C107 1_555 1_555
H123 C107 1_555 1_555
H124 C107 1_555 1_555
H125 C70 1_555 1_555
H126 C70 1_555 1_555
H127 C70 1_555 1_555
H128 C71 1_555 1_555
H129 C71 1_555 1_555
H130 C71 1_555 1_555
H131 C72 1_555 1_555
H132 C72 1_555 1_555
H133 C72 1_555 1_555
H134 C73 1_555 1_555
H135 C73 1_555 1_555
H136 C73 1_555 1_555
H137 C74 1_555 1_555
H138 C74 1_555 1_555
H139 C74 1_555 1_555
H140 C75 1_555 1_555
H141 C75 1_555 1_555
H142 C75 1_555 1_555
H143 C21 1_555 1_555
H144 C21 1_555 1_555
H145 C21 1_555 1_555
H146 C22 1_555 1_555
H147 C22 1_555 1_555
H148 C22 1_555 1_555
H149 C23 1_555 1_555
H150 C23 1_555 1_555
H151 C23 1_555 1_555
H152 C24 1_555 1_555
H153 C24 1_555 1_555
H154 C24 1_555 1_555
H155 C25 1_555 1_555
H156 C25 1_555 1_555
H157 C25 1_555 1_555
H158 C26 1_555 1_555
H159 C26 1_555 1_555
H160 C26 1_555 1_555
H161 C67 1_555 1_555
H162 C67 1_555 1_555
H163 C67 1_555 1_555
H164 C68 1_555 1_555
H165 C68 1_555 1_555
H166 C68 1_555 1_555
H167 C69 1_555 1_555
H168 C69 1_555 1_555
H169 C69 1_555 1_555
H170 C104 1_555 1_555
H171 C104 1_555 1_555
H172 C104 1_555 1_555
H173 C105 1_555 1_555
H174 C105 1_555 1_555
H175 C105 1_555 1_555
H176 C106 1_555 1_555
H177 C106 1_555 1_555
H178 C106 1_555 1_555
H179 C110 1_555 1_555
H180 C110 1_555 1_555
H181 C110 1_555 1_555
H182 C111 1_555 1_555
H183 C111 1_555 1_555
H184 C111 1_555 1_555
H185 C112 1_555 1_555
H186 C112 1_555 1_555
H187 C112 1_555 1_555
H188 C145 1_555 1_555
H189 C145 1_555 1_555
H190 C145 1_555 1_555
H191 C146 1_555 1_555
H192 C146 1_555 1_555
H193 C146 1_555 1_555
H194 C147 1_555 1_555
H195 C147 1_555 1_555
H196 C147 1_555 1_555
H197 C148 1_555 1_555
H198 C148 1_555 1_555
H199 C148 1_555 1_555
H200 C160 1_555 1_555
H201 C160 1_555 1_555
H202 C160 1_555 1_555
H203 C136 1_555 1_555
H204 C136 1_555 1_555
H205 C136 1_555 1_555
H206 C137 1_555 1_555
H207 C137 1_555 1_555
H208 C137 1_555 1_555
H209 C141 1_555 1_555
H210 C141 1_555 1_555
H211 C141 1_555 1_555
H212 C142 1_555 1_555
H213 C142 1_555 1_555
H214 C142 1_555 1_555
H215 C143 1_555 1_555
H216 C143 1_555 1_555
H217 C143 1_555 1_555
H218 C144 1_555 1_555
H219 C144 1_555 1_555
H220 C144 1_555 1_555
H221 C164 1_555 1_555
H222 C164 1_555 1_555
H223 C164 1_555 1_555
H224 C27 1_555 1_555
H225 C27 1_555 1_555
H226 C27 1_555 1_555
H227 C28 1_555 1_555
H228 C28 1_555 1_555
H229 C28 1_555 1_555
H230 C29 1_555 1_555
H231 C29 1_555 1_555
H232 C29 1_555 1_555
H233 C30 1_555 1_555
H234 C30 1_555 1_555
H235 C30 1_555 1_555
H236 C31 1_555 1_555
H237 C31 1_555 1_555
H238 C31 1_555 1_555
H239 C32 1_555 1_555
H240 C32 1_555 1_555
H241 C32 1_555 1_555
H242 C33 1_555 1_555
H243 C33 1_555 1_555
H244 C33 1_555 1_555
H245 C34 1_555 1_555
H246 C34 1_555 1_555
H247 C34 1_555 1_555
H248 C35 1_555 1_555
H249 C35 1_555 1_555
H250 C35 1_555 1_555
H251 C39 1_555 1_555
H252 C39 1_555 1_555
H253 C39 1_555 1_555
H254 C40 1_555 1_555
H255 C40 1_555 1_555
H256 C40 1_555 1_555
H257 C161 1_555 1_555
H258 C161 1_555 1_555
H259 C161 1_555 1_555
C7 C8 1_555 1_555
C13 C14 1_555 1_555
C50 C51 1_555 1_555
C56 C57 1_555 1_555
C87 C88 1_555 1_555
C93 C94 1_555 1_555
C118 C123 1_555 1_555
C128 C129 1_555 1_555

#END
