
#######################################################################
#
#                 Cambridge Crystallographic Data Centre
#                                CCDC 
#
#######################################################################
#
# If this CIF has been generated from an entry in the Cambridge 
# Structural Database, then it will include bibliographic, chemical, 
# crystal, experimental, refinement or atomic coordinate data resulting 
# from the CCDC's data processing and validation procedures.
#
#######################################################################

data_WAMFAS03
_chemical_name_common            
5,12-Dibutyl-5,12-dihydroquino[2,3-b]acridine-7,14-dione
_chemical_formula_moiety         'C28 H28 N2 O2'
_chemical_name_systematic        N,N-Di-n-butylquinacridone
_symmetry_cell_setting           monoclinic
_symmetry_space_group_name_H-M   'P 21/c'
_symmetry_Int_Tables_number      14
_space_group_name_Hall           '-P 2ybc'
loop_
_symmetry_equiv_pos_site_id
_symmetry_equiv_pos_as_xyz
1 x,y,z
2 -x,1/2+y,1/2-z
3 -x,-y,-z
4 x,1/2-y,1/2+z
_cell_length_a                   7.5410(15)
_cell_length_b                   14.766(3)
_cell_length_c                   20.209(5)
_cell_angle_alpha                90
_cell_angle_beta                 108.08(3)
_cell_angle_gamma                90
_cell_volume                     2139.17
_exptl_crystal_colour            red
_exptl_crystal_description       block
_cell_formula_units_Z            4
_exptl_crystal_recrystallization_method 'chloroform/petroleum ether'
_exptl_crystal_preparation       luminescent
loop_
_atom_site_label
_atom_site_type_symbol
_atom_site_fract_x
_atom_site_fract_y
_atom_site_fract_z
C1 C 0.2909(2) 0.41187(11) -0.04204(8)
C2 C 0.3082(2) 0.34904(12) -0.09217(9)
H1 H 0.3263 0.2880 -0.0806
C3 C 0.2987(2) 0.37708(13) -0.15796(9)
H2 H 0.3094 0.3346 -0.1905
C4 C 0.2736(2) 0.46712(14) -0.17673(9)
H3 H 0.2689 0.4852 -0.2213
C5 C 0.2558(2) 0.52960(12) -0.12912(8)
H4 H 0.2386 0.5903 -0.1418
C6 C 0.2630(2) 0.50374(11) -0.06133(8)
C7 C 0.2409(2) 0.57239(10) -0.01282(8)
C8 C 0.23548(19) 0.53797(10) 0.05485(8)
C9 C 0.2063(2) 0.59875(10) 0.10284(8)
H5 H 0.1917 0.6599 0.0913
C10 C 0.1984(2) 0.57101(10) 0.16763(8)
C11 C 0.1848(2) 0.60378(11) 0.28300(8)
C12 C 0.1826(2) 0.66599(12) 0.33565(9)
H6 H 0.1684 0.7274 0.3252
C13 C 0.2011(3) 0.63734(13) 0.40167(9)
H7 H 0.2016 0.6797 0.4358
C14 C 0.2190(3) 0.54630(14) 0.41874(9)
H8 H 0.2322 0.5277 0.4640
C15 C 0.2172(3) 0.48400(13) 0.36854(9)
H9 H 0.2268 0.4227 0.3798
C16 C 0.2011(2) 0.51092(11) 0.30022(8)
C17 C 0.2041(2) 0.44189(11) 0.24883(8)
C18 C 0.2170(2) 0.47735(10) 0.18245(8)
C19 C 0.2469(2) 0.41669(10) 0.13487(8)
H10 H 0.2581 0.3554 0.1459
C20 C 0.2607(2) 0.44498(10) 0.07086(8)
C21 C 0.3583(2) 0.29152(11) 0.04774(9)
H11 H 0.4239 0.2922 0.0973
H12 H 0.4443 0.2700 0.0241
C22 C 0.1962(2) 0.22689(12) 0.03359(9)
H13 H 0.1411 0.2196 -0.0163
H14 H 0.1021 0.2524 0.0517
C23 C 0.2545(3) 0.13409(12) 0.06668(11)
H15 H 0.1527 0.0918 0.0482
H16 H 0.3604 0.1126 0.0535
C24 C 0.3064(3) 0.13442(14) 0.14549(11)
H17 H 0.4135 0.1724 0.1645
H18 H 0.3349 0.0738 0.1627
H19 H 0.2037 0.1573 0.1591
C25 C 0.1403(2) 0.72816(11) 0.19725(8)
H20 H 0.0610 0.7543 0.2220
H21 H 0.0744 0.7324 0.1478
C26 C 0.3194(2) 0.78313(11) 0.21354(9)
H22 H 0.3684 0.7923 0.2634
H23 H 0.4112 0.7489 0.1993
C27 C 0.2919(3) 0.87445(12) 0.17755(10)
H24 H 0.1781 0.9016 0.1812
H25 H 0.3948 0.9138 0.2015
C28 C 0.2802(4) 0.86915(17) 0.10190(12)
H26 H 0.3906 0.8406 0.0977
H27 H 0.2698 0.9291 0.0827
H28 H 0.1727 0.8343 0.0770
N1 N 0.29980(19) 0.38446(8) 0.02443(7)
N2 N 0.17208(18) 0.63244(9) 0.21639(7)
O1 O 0.22625(18) 0.65387(8) -0.02704(6)
O2 O 0.2005(2) 0.36010(8) 0.26052(7)
loop_
_geom_bond_atom_site_label_1
_geom_bond_atom_site_label_2
_geom_bond_site_symmetry_1
_geom_bond_site_symmetry_2
C1 C2 1_555 1_555
C2 H1 1_555 1_555
C3 C2 1_555 1_555
H2 C3 1_555 1_555
C4 C3 1_555 1_555
H3 C4 1_555 1_555
C5 C4 1_555 1_555
H4 C5 1_555 1_555
C6 C1 1_555 1_555
C7 C6 1_555 1_555
C8 C7 1_555 1_555
C9 C8 1_555 1_555
H5 C9 1_555 1_555
C10 C9 1_555 1_555
C11 C12 1_555 1_555
C12 H6 1_555 1_555
C13 C12 1_555 1_555
H7 C13 1_555 1_555
C14 C13 1_555 1_555
H8 C14 1_555 1_555
C15 C14 1_555 1_555
H9 C15 1_555 1_555
C16 C11 1_555 1_555
C17 C16 1_555 1_555
C18 C10 1_555 1_555
C19 C18 1_555 1_555
H10 C19 1_555 1_555
C20 C8 1_555 1_555
C21 H11 1_555 1_555
H12 C21 1_555 1_555
C22 C21 1_555 1_555
H13 C22 1_555 1_555
H14 C22 1_555 1_555
C23 C22 1_555 1_555
H15 C23 1_555 1_555
H16 C23 1_555 1_555
C24 C23 1_555 1_555
H17 C24 1_555 1_555
H18 C24 1_555 1_555
H19 C24 1_555 1_555
C25 H20 1_555 1_555
H21 C25 1_555 1_555
C26 C25 1_555 1_555
H22 C26 1_555 1_555
H23 C26 1_555 1_555
C27 C26 1_555 1_555
H24 C27 1_555 1_555
H25 C27 1_555 1_555
C28 C27 1_555 1_555
H26 C28 1_555 1_555
H27 C28 1_555 1_555
H28 C28 1_555 1_555
N1 C1 1_555 1_555
N2 C10 1_555 1_555
O1 C7 1_555 1_555
O2 C17 1_555 1_555
C5 C6 1_555 1_555
C11 N2 1_555 1_555
C15 C16 1_555 1_555
C17 C18 1_555 1_555
C19 C20 1_555 1_555
C20 N1 1_555 1_555
C21 N1 1_555 1_555
C25 N2 1_555 1_555

#END
