
#######################################################################
#
#                 Cambridge Crystallographic Data Centre
#                                CCDC 
#
#######################################################################
#
# If this CIF has been generated from an entry in the Cambridge 
# Structural Database, then it will include bibliographic, chemical, 
# crystal, experimental, refinement or atomic coordinate data resulting 
# from the CCDC's data processing and validation procedures.
#
#######################################################################

data_WAMFAS
_chemical_formula_moiety         'C28 H28 N2 O2'
_chemical_name_systematic        
5,12-Dibutyl-4a,5,6a,12,12a,14a-hexahydroquino[2,3-b]acridine-7,14-dione
_symmetry_cell_setting           monoclinic
_symmetry_space_group_name_H-M   'P 21/n'
_symmetry_Int_Tables_number      14
_space_group_name_Hall           '-P 2yn'
loop_
_symmetry_equiv_pos_site_id
_symmetry_equiv_pos_as_xyz
1 x,y,z
2 1/2-x,1/2+y,1/2-z
3 -x,-y,-z
4 1/2+x,1/2-y,1/2+z
_cell_length_a                   7.4962(2)
_cell_length_b                   14.7065(4)
_cell_length_c                   19.2131(4)
_cell_angle_alpha                90
_cell_angle_beta                 93.091(2)
_cell_angle_gamma                90
_cell_volume                     2115.03
_exptl_crystal_colour            red
_exptl_crystal_description       needle
_cell_formula_units_Z            4
_exptl_crystal_recrystallization_method 'petroleum ether/chloroform'
loop_
_atom_site_label
_atom_site_type_symbol
_atom_site_fract_x
_atom_site_fract_y
_atom_site_fract_z
N1 N 0.22280(18) 0.38403(9) 0.02427(8)
O1 O 0.24577(17) 0.65514(8) -0.02694(7)
C1 C 0.2452(2) 0.57299(11) -0.01291(9)
C2 C 0.1754(2) 0.50408(11) -0.06179(9)
C3 C 0.1159(2) 0.53027(13) -0.12975(10)
H1 H 0.1206 0.5913 -0.1422
C4 C 0.0512(2) 0.46790(13) -0.17791(10)
H2 H 0.0124 0.4863 -0.2225
C5 C 0.0445(2) 0.37646(13) -0.15882(10)
H3 H 0.0019 0.3337 -0.1913
C6 C 0.1000(2) 0.34832(12) -0.09270(10)
H4 H 0.0937 0.2871 -0.0811
C7 C 0.1663(2) 0.41178(11) -0.04234(9)
C8 C 0.3085(2) 0.44438(11) 0.07081(9)
C9 C 0.3179(2) 0.53805(11) 0.05480(9)
C10 C 0.3947(2) 0.59884(11) 0.10307(9)
H5 H 0.3976 0.6603 0.0917
C11 C 0.1888(2) 0.29063(11) 0.04758(9)
H6 H 0.0788 0.2688 0.0245
H7 H 0.1727 0.2911 0.0973
C12 C 0.3396(2) 0.22528(12) 0.03250(10)
H8 H 0.4524 0.2514 0.0497
H9 H 0.3441 0.2176 -0.0175
C13 C 0.3164(3) 0.13244(12) 0.06618(11)
H10 H 0.1977 0.1098 0.0532
H11 H 0.4019 0.0905 0.0478
C14 C 0.3415(3) 0.13363(14) 0.14519(12)
H12 H 0.3254 0.0733 0.1630
H13 H 0.2553 0.1737 0.1640
H14 H 0.4598 0.1546 0.1585
N2 N 0.54330(18) 0.63176(9) 0.21684(8)
O2 O 0.55958(18) 0.35813(8) 0.26014(7)
C15 C 0.5442(2) 0.44057(11) 0.24878(9)
C16 C 0.5974(2) 0.50944(12) 0.30053(9)
C17 C 0.6499(2) 0.48188(13) 0.36908(10)
H15 H 0.6519 0.4203 0.3800
C18 C 0.6978(3) 0.54413(14) 0.41985(10)
H16 H 0.7300 0.5251 0.4649
C19 C 0.6977(2) 0.63649(13) 0.40299(10)
H17 H 0.7300 0.6790 0.4372
C20 C 0.6507(2) 0.66554(12) 0.33650(10)
H18 H 0.6542 0.7273 0.3262
C21 C 0.5969(2) 0.60291(11) 0.28342(9)
C22 C 0.4675(2) 0.57098(11) 0.16777(9)
C23 C 0.4644(2) 0.47651(11) 0.18267(9)
C24 C 0.3862(2) 0.41557(11) 0.13470(9)
H19 H 0.3857 0.3539 0.1455
C25 C 0.5561(2) 0.72853(11) 0.19775(9)
H20 H 0.5717 0.7331 0.1481
H21 H 0.6611 0.7545 0.2218
C26 C 0.3923(2) 0.78391(12) 0.21555(9)
H22 H 0.2853 0.7494 0.2027
H23 H 0.3952 0.7941 0.2655
C27 C 0.3838(3) 0.87522(12) 0.17828(10)
H24 H 0.3068 0.9157 0.2029
H25 H 0.5024 0.9018 0.1801
C28 C 0.3147(4) 0.86887(16) 0.10271(12)
H26 H 0.3127 0.9284 0.0822
H27 H 0.1960 0.8442 0.1005
H28 H 0.3917 0.8300 0.0776
loop_
_geom_bond_atom_site_label_1
_geom_bond_atom_site_label_2
_geom_bond_site_symmetry_1
_geom_bond_site_symmetry_2
N1 C7 1_555 1_555
O1 C1 1_555 1_555
C1 C2 1_555 1_555
C2 C3 1_555 1_555
C3 H1 1_555 1_555
C4 C3 1_555 1_555
H2 C4 1_555 1_555
C5 C4 1_555 1_555
H3 C5 1_555 1_555
C6 C5 1_555 1_555
H4 C6 1_555 1_555
C7 C2 1_555 1_555
C8 N1 1_555 1_555
C9 C1 1_555 1_555
C10 C9 1_555 1_555
H5 C10 1_555 1_555
C11 N1 1_555 1_555
H6 C11 1_555 1_555
H7 C11 1_555 1_555
C12 C11 1_555 1_555
H8 C12 1_555 1_555
H9 C12 1_555 1_555
C13 C12 1_555 1_555
H10 C13 1_555 1_555
H11 C13 1_555 1_555
C14 C13 1_555 1_555
H12 C14 1_555 1_555
H13 C14 1_555 1_555
H14 C14 1_555 1_555
N2 C21 1_555 1_555
O2 C15 1_555 1_555
C15 C16 1_555 1_555
C16 C17 1_555 1_555
C17 H15 1_555 1_555
C18 C17 1_555 1_555
H16 C18 1_555 1_555
C19 C18 1_555 1_555
H17 C19 1_555 1_555
C20 C19 1_555 1_555
H18 C20 1_555 1_555
C21 C16 1_555 1_555
C22 C10 1_555 1_555
C23 C15 1_555 1_555
C24 C8 1_555 1_555
H19 C24 1_555 1_555
C25 N2 1_555 1_555
H20 C25 1_555 1_555
H21 C25 1_555 1_555
C26 C25 1_555 1_555
H22 C26 1_555 1_555
H23 C26 1_555 1_555
C27 C26 1_555 1_555
H24 C27 1_555 1_555
H25 C27 1_555 1_555
C28 C27 1_555 1_555
H26 C28 1_555 1_555
H27 C28 1_555 1_555
H28 C28 1_555 1_555
C6 C7 1_555 1_555
C8 C9 1_555 1_555
N2 C22 1_555 1_555
C20 C21 1_555 1_555
C22 C23 1_555 1_555
C23 C24 1_555 1_555

#END
