
#######################################################################
#
#                 Cambridge Crystallographic Data Centre
#                                CCDC 
#
#######################################################################
#
# If this CIF has been generated from an entry in the Cambridge 
# Structural Database, then it will include bibliographic, chemical, 
# crystal, experimental, refinement or atomic coordinate data resulting 
# from the CCDC's data processing and validation procedures.
#
#######################################################################

data_WAMFEW
_chemical_formula_moiety         'C32 H36 N2 O2'
_chemical_name_systematic        
5,12-Dibutyl-1,3,8,10-tetramethyl-4a,5,6a,12,12a,14a-hexahydroquino[2,3-b]acridine-7,14-dione
_symmetry_cell_setting           monoclinic
_symmetry_space_group_name_H-M   'P 21/c'
_symmetry_Int_Tables_number      14
_space_group_name_Hall           '-P 2ybc'
loop_
_symmetry_equiv_pos_site_id
_symmetry_equiv_pos_as_xyz
1 x,y,z
2 -x,1/2+y,1/2-z
3 -x,-y,-z
4 x,1/2-y,1/2+z
_cell_length_a                   5.08940(10)
_cell_length_b                   16.0916(13)
_cell_length_c                   15.8959(4)
_cell_angle_alpha                90
_cell_angle_beta                 98.732(2)
_cell_angle_gamma                90
_cell_volume                     1286.73
_exptl_crystal_colour            red
_exptl_crystal_description       needle
_cell_formula_units_Z            2
_exptl_crystal_recrystallization_method 'petroleum ether/chloroform'
loop_
_atom_site_label
_atom_site_type_symbol
_atom_site_fract_x
_atom_site_fract_y
_atom_site_fract_z
O1 O 0.1774(6) 0.39085(16) 0.31919(17)
N1 N 0.3601(5) 0.61058(17) 0.44246(19)
C1 C 0.2329(7) 0.4581(2) 0.3537(2)
C2 C 0.4155(7) 0.5173(2) 0.3251(2)
C3 C 0.5440(7) 0.5010(2) 0.2542(2)
C4 C 0.7088(8) 0.5594(3) 0.2284(3)
H1 H 0.7955 0.5477 0.1823
C5 C 0.7510(7) 0.6360(2) 0.2689(3)
C6 C 0.6325(7) 0.6528(2) 0.3381(2)
H2 H 0.6605 0.7040 0.3650
C7 C 0.4669(7) 0.5934(2) 0.3697(2)
C8 C 0.1826(6) 0.5566(2) 0.4715(2)
C9 C 0.1153(7) 0.4813(2) 0.4292(2)
C10 C 0.0627(7) 0.5734(2) 0.5427(2)
H3 H 0.1033 0.6227 0.5723
C11 C 0.4473(7) 0.6834(2) 0.4949(2)
H4 H 0.6280 0.6971 0.4874
H5 H 0.4491 0.6692 0.5543
C12 C 0.2735(7) 0.7599(2) 0.4741(2)
H6 H 0.2810 0.7770 0.4160
H7 H 0.0905 0.7459 0.4783
C13 C 0.3615(8) 0.8302(2) 0.5332(3)
H8 H 0.5406 0.8461 0.5260
H9 H 0.3672 0.8112 0.5913
C14 C 0.1842(9) 0.9060(3) 0.5195(3)
H10 H 0.2497 0.9481 0.5601
H11 H 0.0064 0.8910 0.5268
H12 H 0.1839 0.9269 0.4630
C15 C 0.5145(9) 0.4195(3) 0.2069(3)
H13 H 0.3965 0.3839 0.2320
H14 H 0.6853 0.3933 0.2102
H15 H 0.4430 0.4294 0.1483
C16 C 0.9271(7) 0.6997(3) 0.2361(2)
H16 H 0.9944 0.6778 0.1874
H17 H 1.0729 0.7128 0.2798
H18 H 0.8263 0.7492 0.2201
O1B O -0.1774(6) 0.60915(16) 0.68081(17)
N1B N -0.3601(5) 0.38942(17) 0.55754(19)
C1B C -0.2329(7) 0.5419(2) 0.6463(2)
C2B C -0.4155(7) 0.4827(2) 0.6749(2)
C3B C -0.5440(7) 0.4990(2) 0.7458(2)
C4B C -0.7088(8) 0.4406(3) 0.7716(3)
H1B H -0.7955 0.4523 0.8177
C5B C -0.7510(7) 0.3640(2) 0.7311(3)
C6B C -0.6325(7) 0.3472(2) 0.6619(2)
H2B H -0.6605 0.2960 0.6350
C7B C -0.4669(7) 0.4066(2) 0.6303(2)
C8B C -0.1826(6) 0.4434(2) 0.5285(2)
C9B C -0.1153(7) 0.5187(2) 0.5708(2)
C10B C -0.0627(7) 0.4266(2) 0.4573(2)
H3B H -0.1033 0.3773 0.4277
C11B C -0.4473(7) 0.3166(2) 0.5051(2)
H4B H -0.6280 0.3029 0.5126
H5B H -0.4491 0.3308 0.4457
C12B C -0.2735(7) 0.2401(2) 0.5259(2)
H6B H -0.2810 0.2230 0.5840
H7B H -0.0905 0.2541 0.5217
C13B C -0.3615(8) 0.1698(2) 0.4668(3)
H8B H -0.5406 0.1539 0.4740
H9B H -0.3672 0.1888 0.4087
C14B C -0.1842(9) 0.0940(3) 0.4805(3)
H10B H -0.2497 0.0519 0.4399
H11B H -0.0064 0.1090 0.4732
H12B H -0.1839 0.0731 0.5370
C15B C -0.5145(9) 0.5805(3) 0.7931(3)
H13B H -0.3965 0.6161 0.7680
H14B H -0.6853 0.6067 0.7898
H15B H -0.4430 0.5706 0.8517
C16B C -0.9271(7) 0.3003(3) 0.7639(2)
H16B H -0.9944 0.3222 0.8126
H17B H -1.0729 0.2872 0.7202
H18B H -0.8263 0.2508 0.7799
loop_
_geom_bond_atom_site_label_1
_geom_bond_atom_site_label_2
_geom_bond_site_symmetry_1
_geom_bond_site_symmetry_2
O1 C1 1_555 1_555
N1 C7 1_555 1_555
C1 C2 1_555 1_555
C2 C3 1_555 1_555
C3 C4 1_555 1_555
C4 H1 1_555 1_555
C5 C4 1_555 1_555
C6 C5 1_555 1_555
H2 C6 1_555 1_555
C7 C2 1_555 1_555
C8 N1 1_555 1_555
C9 C1 1_555 1_555
C10 C8 1_555 1_555
H3 C10 1_555 1_555
C11 N1 1_555 1_555
H4 C11 1_555 1_555
H5 C11 1_555 1_555
C12 C11 1_555 1_555
H6 C12 1_555 1_555
H7 C12 1_555 1_555
C13 C12 1_555 1_555
H8 C13 1_555 1_555
H9 C13 1_555 1_555
C14 C13 1_555 1_555
H10 C14 1_555 1_555
H11 C14 1_555 1_555
H12 C14 1_555 1_555
C15 C3 1_555 1_555
H13 C15 1_555 1_555
H14 C15 1_555 1_555
H15 C15 1_555 1_555
C16 C5 1_555 1_555
H16 C16 1_555 1_555
H17 C16 1_555 1_555
H18 C16 1_555 1_555
O1B C1B 1_555 1_555
N1B C7B 1_555 1_555
C1B C2B 1_555 1_555
C2B C3B 1_555 1_555
C3B C4B 1_555 1_555
C4B H1B 1_555 1_555
C5B C4B 1_555 1_555
C6B C5B 1_555 1_555
H2B C6B 1_555 1_555
C7B C2B 1_555 1_555
C8B N1B 1_555 1_555
C9B C10 1_555 1_555
C10B C9 1_555 1_555
H3B C10B 1_555 1_555
C11B N1B 1_555 1_555
H4B C11B 1_555 1_555
H5B C11B 1_555 1_555
C12B C11B 1_555 1_555
H6B C12B 1_555 1_555
H7B C12B 1_555 1_555
C13B C12B 1_555 1_555
H8B C13B 1_555 1_555
H9B C13B 1_555 1_555
C14B C13B 1_555 1_555
H10B C14B 1_555 1_555
H11B C14B 1_555 1_555
H12B C14B 1_555 1_555
C15B C3B 1_555 1_555
H13B C15B 1_555 1_555
H14B C15B 1_555 1_555
H15B C15B 1_555 1_555
C16B C5B 1_555 1_555
H16B C16B 1_555 1_555
H17B C16B 1_555 1_555
H18B C16B 1_555 1_555
C6 C7 1_555 1_555
C8 C9 1_555 1_555
C1B C9B 1_555 1_555
C6B C7B 1_555 1_555
C8B C9B 1_555 1_555
C8B C10B 1_555 1_555

#END
