
#######################################################################
#
#                 Cambridge Crystallographic Data Centre
#                                CCDC 
#
#######################################################################
#
# If this CIF has been generated from an entry in the Cambridge 
# Structural Database, then it will include bibliographic, chemical, 
# crystal, experimental, refinement or atomic coordinate data resulting 
# from the CCDC's data processing and validation procedures.
#
#######################################################################

data_WAMFAS02
_chemical_name_common            
5,12-Dibutyl-5,12-dihydroquino[2,3-b]acridine-7,14-dione
_chemical_formula_moiety         'C28 H28 N2 O2'
_chemical_name_systematic        N,N-Di-n-butylquinacridone
_symmetry_cell_setting           monoclinic
_symmetry_space_group_name_H-M   'P 21/c'
_symmetry_Int_Tables_number      14
_space_group_name_Hall           '-P 2ybc'
loop_
_symmetry_equiv_pos_site_id
_symmetry_equiv_pos_as_xyz
1 x,y,z
2 -x,1/2+y,1/2-z
3 -x,-y,-z
4 x,1/2-y,1/2+z
_cell_length_a                   7.2362(14)
_cell_length_b                   14.737(3)
_cell_length_c                   10.360(2)
_cell_angle_alpha                90
_cell_angle_beta                 106.60(3)
_cell_angle_gamma                90
_cell_volume                     1058.74
_exptl_crystal_colour            red
_exptl_crystal_description       block
_cell_formula_units_Z            2
_exptl_crystal_recrystallization_method dichloromethane
_exptl_crystal_preparation       luminescent
loop_
_atom_site_label
_atom_site_type_symbol
_atom_site_fract_x
_atom_site_fract_y
_atom_site_fract_z
O1 O 0.22717(13) 0.64648(6) 0.16430(9)
N1 N 0.23717(14) 0.37807(6) 0.06048(10)
C1 C 0.37046(15) 0.53037(8) 0.06717(11)
C2 C 0.11922(16) 0.49673(8) 0.17968(11)
C3 C 0.36881(16) 0.43775(8) 0.03120(11)
C4 C 0.49852(16) 0.59033(8) 0.03487(12)
H1 H 0.4955 0.6512 0.0581
C5 C 0.00329(18) 0.34297(9) 0.18230(13)
H2 H 0.0019 0.2824 0.1566
C6 C 0.12180(15) 0.40545(8) 0.13944(11)
C7 C 0.23636(16) 0.56510(8) 0.13861(11)
C8 C 0.22686(17) 0.28456(8) 0.01002(12)
H3 H 0.2594 0.2842 -0.0745
H4 H 0.0955 0.2627 -0.0077
C9 C 0.00164(19) 0.52215(9) 0.26014(13)
H5 H 0.0000 0.5824 0.2863
C10 C -0.10966(19) 0.37033(10) 0.26117(14)
H6 H -0.1865 0.3281 0.2883
C11 C -0.1108(2) 0.46012(11) 0.30095(15)
H7 H -0.1872 0.4780 0.3549
C12 C 0.36153(18) 0.22020(8) 0.10812(13)
H8 H 0.4863 0.2491 0.1430
H9 H 0.3102 0.2088 0.1835
C13 C 0.3882(2) 0.13025(8) 0.04432(14)
H10 H 0.4398 0.0863 0.1152
H11 H 0.2631 0.1084 -0.0088
C14 C 0.5206(3) 0.13548(11) -0.04470(19)
H12 H 0.4718 0.1795 -0.1144
H13 H 0.5269 0.0772 -0.0846
H14 H 0.6473 0.1531 0.0083
O1B O 0.77283(13) 0.35352(6) -0.16430(9)
N1B N 0.76283(14) 0.62193(6) -0.06048(10)
C1B C 0.62954(15) 0.46963(8) -0.06717(11)
C2B C 0.88078(16) 0.50327(8) -0.17968(11)
C3B C 0.63119(16) 0.56225(8) -0.03120(11)
C4B C 0.50148(16) 0.40967(8) -0.03487(12)
H1B H 0.5045 0.3488 -0.0581
C5B C 0.99671(18) 0.65703(9) -0.18230(13)
H2B H 0.9981 0.7176 -0.1566
C6B C 0.87820(15) 0.59455(8) -0.13944(11)
C7B C 0.76364(16) 0.43490(8) -0.13861(11)
C8B C 0.77314(17) 0.71544(8) -0.01002(12)
H3B H 0.7406 0.7158 0.0745
H4B H 0.9045 0.7373 0.0077
C9B C 0.99836(19) 0.47785(9) -0.26014(13)
H5B H 1.0000 0.4176 -0.2863
C10B C 1.10966(19) 0.62967(10) -0.26117(14)
H6B H 1.1865 0.6719 -0.2883
C11B C 1.1108(2) 0.53988(11) -0.30095(15)
H7B H 1.1872 0.5220 -0.3549
C12B C 0.63847(18) 0.77980(8) -0.10812(13)
H8B H 0.5137 0.7509 -0.1430
H9B H 0.6898 0.7912 -0.1835
C13B C 0.6118(2) 0.86975(8) -0.04432(14)
H10B H 0.5602 0.9137 -0.1152
H11B H 0.7369 0.8916 0.0088
C14B C 0.4794(3) 0.86452(11) 0.04470(19)
H12B H 0.5282 0.8205 0.1144
H13B H 0.4731 0.9228 0.0846
H14B H 0.3527 0.8469 -0.0083
loop_
_geom_bond_atom_site_label_1
_geom_bond_atom_site_label_2
_geom_bond_site_symmetry_1
_geom_bond_site_symmetry_2
O1 C7 1_555 1_555
N1 C3 1_555 1_555
C1 C3 1_555 1_555
C2 C6 1_555 1_555
C3 C4B 1_555 1_555
C4 C1 1_555 1_555
H1 C4 1_555 1_555
C5 H2 1_555 1_555
C6 N1 1_555 1_555
C7 C1 1_555 1_555
C8 N1 1_555 1_555
H3 C8 1_555 1_555
H4 C8 1_555 1_555
C9 C2 1_555 1_555
H5 C9 1_555 1_555
C10 C5 1_555 1_555
H6 C10 1_555 1_555
C11 C9 1_555 1_555
H7 C11 1_555 1_555
C12 C8 1_555 1_555
H8 C12 1_555 1_555
H9 C12 1_555 1_555
C13 C12 1_555 1_555
H10 C13 1_555 1_555
H11 C13 1_555 1_555
C14 C13 1_555 1_555
H12 C14 1_555 1_555
H13 C14 1_555 1_555
H14 C14 1_555 1_555
O1B C7B 1_555 1_555
N1B C3B 1_555 1_555
C1B C3B 1_555 1_555
C2B C6B 1_555 1_555
C3B C4 1_555 1_555
C4B C1B 1_555 1_555
H1B C4B 1_555 1_555
C5B H2B 1_555 1_555
C6B N1B 1_555 1_555
C7B C1B 1_555 1_555
C8B N1B 1_555 1_555
H3B C8B 1_555 1_555
H4B C8B 1_555 1_555
C9B C2B 1_555 1_555
H5B C9B 1_555 1_555
C10B C5B 1_555 1_555
H6B C10B 1_555 1_555
C11B C9B 1_555 1_555
H7B C11B 1_555 1_555
C12B C8B 1_555 1_555
H8B C12B 1_555 1_555
H9B C12B 1_555 1_555
C13B C12B 1_555 1_555
H10B C13B 1_555 1_555
H11B C13B 1_555 1_555
C14B C13B 1_555 1_555
H12B C14B 1_555 1_555
H13B C14B 1_555 1_555
H14B C14B 1_555 1_555
C2 C7 1_555 1_555
C5 C6 1_555 1_555
C10 C11 1_555 1_555
C2B C7B 1_555 1_555
C5B C6B 1_555 1_555
C10B C11B 1_555 1_555

#END
