
#######################################################################
#
#                 Cambridge Crystallographic Data Centre
#                                CCDC 
#
#######################################################################
#
# If this CIF has been generated from an entry in the Cambridge 
# Structural Database, then it will include bibliographic, chemical, 
# crystal, experimental, refinement or atomic coordinate data resulting 
# from the CCDC's data processing and validation procedures.
#
#######################################################################

data_WAMFAS01
_chemical_name_common            
5,12-Dibutyl-5,12-dihydroquino[2,3-b]acridine-7,14-dione
_chemical_formula_moiety         'C28 H28 N2 O2'
_chemical_name_systematic        N,N-Di-n-butylquinacridone
_symmetry_cell_setting           monoclinic
_symmetry_space_group_name_H-M   'P 21/n'
_symmetry_Int_Tables_number      14
_space_group_name_Hall           '-P 2yn'
loop_
_symmetry_equiv_pos_site_id
_symmetry_equiv_pos_as_xyz
1 x,y,z
2 1/2-x,1/2+y,1/2-z
3 -x,-y,-z
4 1/2+x,1/2-y,1/2+z
_cell_length_a                   13.443(3)
_cell_length_b                   11.745(2)
_cell_length_c                   15.632(3)
_cell_angle_alpha                90
_cell_angle_beta                 114.52(3)
_cell_angle_gamma                90
_cell_volume                     2245.52
_exptl_crystal_colour            red
_exptl_crystal_description       block
_cell_formula_units_Z            4
_exptl_crystal_recrystallization_method 'vacuum sublimation'
_exptl_crystal_preparation       luminescent
loop_
_atom_site_label
_atom_site_type_symbol
_atom_site_fract_x
_atom_site_fract_y
_atom_site_fract_z
C1 C 0.96178(12) 0.41159(12) 0.19476(9)
C2 C 0.93920(14) 0.25934(13) 0.28863(10)
C3 C 0.97458(16) 0.19875(15) 0.37463(11)
H1 H 1.0405 0.2177 0.4242
C4 C 0.91250(19) 0.11312(16) 0.38480(14)
H2 H 0.9370 0.0742 0.4417
C5 C 0.81379(19) 0.08192(17) 0.31296(14)
H3 H 0.7729 0.0226 0.3213
C6 C 0.77764(16) 0.13952(14) 0.22996(13)
H4 H 0.7113 0.1193 0.1815
C7 C 0.83855(14) 0.22837(13) 0.21640(11)
C8 C 0.79535(14) 0.28885(13) 0.12720(10)
C9 C 0.86116(12) 0.38433(12) 0.11985(9)
C10 C 0.82175(12) 0.44843(13) 0.03802(9)
H5 H 0.7548 0.4291 -0.0100
C11 C 0.87905(12) 0.54048(12) 0.02555(9)
C12 C 0.89629(12) 0.69987(13) -0.06480(10)
C13 C 0.85411(14) 0.76863(14) -0.14619(11)
H6 H 0.7873 0.7507 -0.1950
C14 C 0.91118(16) 0.86121(16) -0.15325(13)
H7 H 0.8827 0.9051 -0.2077
C15 C 1.00996(16) 0.89197(16) -0.08214(13)
H8 H 1.0476 0.9556 -0.0885
C16 C 1.05149(15) 0.82762(14) -0.00244(12)
H9 H 1.1180 0.8479 0.0458
C17 C 0.99605(13) 0.73149(12) 0.00824(10)
C18 C 1.04430(13) 0.66507(13) 0.09385(10)
C19 C 0.97915(12) 0.56847(12) 0.10082(9)
C20 C 1.01801(13) 0.50504(13) 0.18309(9)
H10 H 1.0838 0.5258 0.2320
C21 C 1.10673(13) 0.37827(14) 0.35231(10)
H11 H 1.1552 0.4047 0.3247
H12 H 1.1396 0.3112 0.3896
C22 C 1.09670(14) 0.47015(15) 0.41616(11)
H13 H 1.0499 0.5303 0.3779
H14 H 1.0619 0.4382 0.4541
C23 C 1.20473(17) 0.52030(18) 0.47996(13)
H15 H 1.2393 0.5528 0.4421
H16 H 1.2517 0.4601 0.5180
C24 C 1.1942(2) 0.6117(2) 0.54422(15)
H17 H 1.1396 0.6658 0.5077
H18 H 1.2631 0.6497 0.5757
H19 H 1.1731 0.5773 0.5900
C25 C 0.73741(12) 0.57204(14) -0.13554(9)
H20 H 0.7259 0.4908 -0.1332
H21 H 0.7422 0.5885 -0.1945
C26 C 0.64095(14) 0.63521(15) -0.13236(11)
H22 H 0.6332 0.6133 -0.0756
H23 H 0.6566 0.7162 -0.1282
C27 C 0.53455(14) 0.61478(17) -0.21475(13)
H24 H 0.5138 0.5356 -0.2152
H25 H 0.5433 0.6294 -0.2723
C28 C 0.44434(17) 0.6903(2) -0.21186(16)
H26 H 0.4396 0.6808 -0.1527
H27 H 0.3759 0.6696 -0.2620
H28 H 0.4604 0.7685 -0.2191
N1 N 1.00138(10) 0.34676(10) 0.27683(8)
N2 N 0.84071(10) 0.60378(10) -0.05728(7)
O1 O 0.70792(11) 0.26296(10) 0.06184(8)
O2 O 1.13438(10) 0.68752(10) 0.15746(8)
loop_
_geom_bond_atom_site_label_1
_geom_bond_atom_site_label_2
_geom_bond_site_symmetry_1
_geom_bond_site_symmetry_2
C1 C9 1_555 1_555
C2 C3 1_555 1_555
C3 H1 1_555 1_555
C4 C3 1_555 1_555
H2 C4 1_555 1_555
C5 C4 1_555 1_555
H3 C5 1_555 1_555
C6 C5 1_555 1_555
H4 C6 1_555 1_555
C7 C2 1_555 1_555
C8 C7 1_555 1_555
C9 C8 1_555 1_555
C10 C9 1_555 1_555
H5 C10 1_555 1_555
C11 C10 1_555 1_555
C12 C13 1_555 1_555
C13 H6 1_555 1_555
C14 C13 1_555 1_555
H7 C14 1_555 1_555
C15 C14 1_555 1_555
H8 C15 1_555 1_555
C16 C15 1_555 1_555
H9 C16 1_555 1_555
C17 C12 1_555 1_555
C18 C17 1_555 1_555
C19 C11 1_555 1_555
C20 C1 1_555 1_555
H10 C20 1_555 1_555
C21 H11 1_555 1_555
H12 C21 1_555 1_555
C22 C21 1_555 1_555
H13 C22 1_555 1_555
H14 C22 1_555 1_555
C23 C22 1_555 1_555
H15 C23 1_555 1_555
H16 C23 1_555 1_555
C24 C23 1_555 1_555
H17 C24 1_555 1_555
H18 C24 1_555 1_555
H19 C24 1_555 1_555
C25 H20 1_555 1_555
H21 C25 1_555 1_555
C26 C25 1_555 1_555
H22 C26 1_555 1_555
H23 C26 1_555 1_555
C27 C26 1_555 1_555
H24 C27 1_555 1_555
H25 C27 1_555 1_555
C28 C27 1_555 1_555
H26 C28 1_555 1_555
H27 C28 1_555 1_555
H28 C28 1_555 1_555
N1 C1 1_555 1_555
N2 C11 1_555 1_555
O1 C8 1_555 1_555
O2 C18 1_555 1_555
C2 N1 1_555 1_555
C6 C7 1_555 1_555
C12 N2 1_555 1_555
C16 C17 1_555 1_555
C18 C19 1_555 1_555
C19 C20 1_555 1_555
C21 N1 1_555 1_555
C25 N2 1_555 1_555

#END
