
#######################################################################
#
#                 Cambridge Crystallographic Data Centre
#                                CCDC 
#
#######################################################################
#
# If this CIF has been generated from an entry in the Cambridge 
# Structural Database, then it will include bibliographic, chemical, 
# crystal, experimental, refinement or atomic coordinate data resulting 
# from the CCDC's data processing and validation procedures.
#
#######################################################################

data_WAMGUM
_chemical_name_common            Dechloroethoxyisodrin
_chemical_formula_moiety         'C14 H13 Cl5 O1'
_chemical_name_systematic        
endo,endo-3,5,6,11,11-Pentachloro-4-ethoxytetracyclo(6.2.1.1^3,6^.0^2,7^)dodeca-4,9-diene
_symmetry_cell_setting           monoclinic
_symmetry_space_group_name_H-M   'P 21/c'
_symmetry_Int_Tables_number      14
_space_group_name_Hall           '-P 2ybc'
loop_
_symmetry_equiv_pos_site_id
_symmetry_equiv_pos_as_xyz
1 x,y,z
2 -x,1/2+y,1/2-z
3 -x,-y,-z
4 x,1/2-y,1/2+z
_cell_length_a                   8.057(3)
_cell_length_b                   11.803(5)
_cell_length_c                   16.911(6)
_cell_angle_alpha                90
_cell_angle_beta                 101.050
_cell_angle_gamma                90
_cell_volume                     1578.37
_exptl_crystal_colour            colorless
_chemical_melting_point          108deg.C
_cell_formula_units_Z            4
loop_
_atom_site_label
_atom_site_type_symbol
_atom_site_fract_x
_atom_site_fract_y
_atom_site_fract_z
Cl1 Cl 0.0538(1) -0.0257(1) -0.1610(1)
Cl2 Cl 0.4469(1) 0.3532(1) -0.1792(1)
Cl3 Cl 0.2596(1) 0.0278(1) 0.0181(1)
Cl4 Cl 0.1552(1) 0.1727(1) -0.2968(1)
Cl5 Cl 0.4359(1) 0.0641(1) -0.1982(1)
O1 O 0.4794(2) 0.2671(2) -0.0118(1)
C1 C 0.1421(3) 0.1100(2) -0.1384(1)
C2 C 0.0101(3) 0.2077(2) -0.1487(1)
C3 C -0.0939(3) 0.2441(2) -0.0841(2)
C4 C 0.0191(4) 0.2602(2) -0.0027(2)
C5 C 0.1138(3) 0.3509(2) -0.0073(2)
C6 C 0.0676(3) 0.3973(2) -0.0916(2)
C7 C 0.1219(3) 0.3141(2) -0.1536(1)
C8 C 0.3012(3) 0.2626(2) -0.1463(1)
C9 C 0.3607(3) 0.2108(2) -0.0634(1)
C10 C 0.2669(3) 0.1193(2) -0.0599(1)
C11 C 0.2589(3) 0.1521(2) -0.1954(1)
C12 C -0.1225(3) 0.3681(3) -0.1098(2)
C13 C 0.5247(4) 0.2282(3) 0.0705(2)
C14 C 0.6464(5) 0.3116(4) 0.1141(2)
H1 H -0.0759 0.1800 -0.1917
H2 H -0.1854 0.1933 -0.0809
H3 H 0.0219 0.2133 0.0439
H4 H 0.1972 0.3816 0.0355
H5 H 0.1098 0.4729 -0.0949
H6 H 0.1131 0.3614 -0.2004
H7 H -0.1736 0.3768 -0.1656
H8 H -0.1867 0.4097 -0.0772
H9 H 0.4259 0.2243 0.0944
H10 H 0.5762 0.1546 0.0722
H11 H 0.6798 0.2888 0.1694
H12 H 0.5939 0.3849 0.1117
H13 H 0.7442 0.3152 0.0895
loop_
_geom_bond_atom_site_label_1
_geom_bond_atom_site_label_2
_geom_bond_site_symmetry_1
_geom_bond_site_symmetry_2
Cl1 C1 1_555 1_555
Cl2 C8 1_555 1_555
Cl3 C10 1_555 1_555
Cl4 C11 1_555 1_555
Cl5 C11 1_555 1_555
O1 C9 1_555 1_555
C1 C2 1_555 1_555
C2 C3 1_555 1_555
C3 C4 1_555 1_555
C4 C5 1_555 1_555
C5 C6 1_555 1_555
C6 C7 1_555 1_555
C7 C2 1_555 1_555
C8 C7 1_555 1_555
C9 C8 1_555 1_555
C10 C1 1_555 1_555
C11 C1 1_555 1_555
C12 C3 1_555 1_555
C13 O1 1_555 1_555
C14 C13 1_555 1_555
H1 C2 1_555 1_555
H2 C3 1_555 1_555
H3 C4 1_555 1_555
H4 C5 1_555 1_555
H5 C6 1_555 1_555
H6 C7 1_555 1_555
H7 C12 1_555 1_555
H8 C12 1_555 1_555
H9 C13 1_555 1_555
H10 C13 1_555 1_555
H11 C14 1_555 1_555
H12 C14 1_555 1_555
H13 C14 1_555 1_555
C6 C12 1_555 1_555
C8 C11 1_555 1_555
C9 C10 1_555 1_555

#END
