
#######################################################################
#
#                 Cambridge Crystallographic Data Centre
#                                CCDC 
#
#######################################################################
#
# If this CIF has been generated from an entry in the Cambridge 
# Structural Database, then it will include bibliographic, chemical, 
# crystal, experimental, refinement or atomic coordinate data resulting 
# from the CCDC's data processing and validation procedures.
#
#######################################################################

data_WAMHUN
_chemical_formula_moiety         'C16 H10 Cl8'
_chemical_name_systematic        
endo,endo-1,5,6,7,8,12,13,14-Octachloropentacyclo(10.2.1.1^3,10^.0^2,11^.0^4,9^)hexadeca-4(9),5,7-triene
_symmetry_cell_setting           monoclinic
_symmetry_space_group_name_H-M   'P 21/n'
_symmetry_Int_Tables_number      14
_space_group_name_Hall           '-P 2yn'
loop_
_symmetry_equiv_pos_site_id
_symmetry_equiv_pos_as_xyz
1 x,y,z
2 1/2-x,1/2+y,1/2-z
3 -x,-y,-z
4 1/2+x,1/2-y,1/2+z
_cell_length_a                   10.367
_cell_length_b                   14.588
_cell_length_c                   12.067
_cell_angle_alpha                90
_cell_angle_beta                 90.56
_cell_angle_gamma                90
_cell_volume                     1824.85
_exptl_crystal_colour            colorless
_chemical_melting_point          243-244deg.C
_cell_formula_units_Z            4
loop_
_atom_site_label
_atom_site_type_symbol
_atom_site_fract_x
_atom_site_fract_y
_atom_site_fract_z
Cl1 Cl -0.4211(2) 1.1283(1) 0.8714(1)
Cl2 Cl -0.2128(2) 0.9843(1) 0.5978(1)
Cl3 Cl 0.0495(2) 0.8757(1) 0.6158(1)
Cl4 Cl 0.2982(2) 0.9768(1) 0.6995(1)
Cl5 Cl 0.2789(1) 1.1819(1) 0.7831(1)
Cl6 Cl -0.0112(2) 1.3384(1) 1.0298(1)
Cl7 Cl -0.0042(2) 1.1324(2) 1.1051(1)
Cl8 Cl -0.2250(2) 1.0170(1) 1.0141(1)
C1 C -0.2623(2) 1.1713(1) 0.8864(2)
C2 C -0.2259(2) 1.2308(1) 0.7854(2)
C3 C -0.1843(2) 1.1973(2) 0.6681(2)
C4 C -0.0782(2) 1.1277(1) 0.6756(2)
C5 C -0.0731(2) 1.0364(1) 0.6463(2)
C6 C 0.0431(2) 0.9890(1) 0.6550(2)
C7 C 0.1543(2) 1.0335(2) 0.6948(2)
C8 C 0.1474(2) 1.1269(2) 0.7287(2)
C9 C 0.0316(2) 1.1729(1) 0.7171(2)
C10 C -0.0057(2) 1.2721(1) 0.7342(2)
C11 C -0.1064(2) 1.2848(1) 0.8281(2)
C12 C -0.0961(2) 1.2544(2) 0.9508(2)
C13 C -0.0440(2) 1.1558(2) 0.9643(2)
C14 C -0.1601(2) 1.0968(2) 0.9177(2)
C15 C -0.2395(2) 1.2413(2) 0.9810(2)
C16 C -0.1017(2) 1.2820(2) 0.6346(2)
H1 H -0.3087(4) 1.2779(3) 0.7730(4)
H2 H -0.2661(4) 1.1792(4) 0.6129(4)
H3 H 0.0758(5) 1.3199(3) 0.7376(4)
H4 H -0.1284(5) 1.3588(3) 0.8308(4)
H5 H 0.0437(4) 1.1427(4) 0.9176(4)
H6 H -0.1305(5) 1.0554(3) 0.8469(3)
H7 H -0.2519(5) 1.2120(4) 1.0638(4)
H8 H -0.2968(5) 1.3041(3) 0.9706(4)
H9 H -0.1559(5) 1.3467(3) 0.6354(4)
H10 H -0.0551(5) 1.2727(3) 0.5535(4)
loop_
_geom_bond_atom_site_label_1
_geom_bond_atom_site_label_2
_geom_bond_site_symmetry_1
_geom_bond_site_symmetry_2
Cl1 C1 1_555 1_555
Cl2 C5 1_555 1_555
Cl3 C6 1_555 1_555
Cl4 C7 1_555 1_555
Cl5 C8 1_555 1_555
Cl6 C12 1_555 1_555
Cl7 C13 1_555 1_555
Cl8 C14 1_555 1_555
C1 C2 1_555 1_555
C2 C3 1_555 1_555
C3 C4 1_555 1_555
C4 C5 1_555 1_555
C5 C6 1_555 1_555
C6 C7 1_555 1_555
C7 C8 1_555 1_555
C8 C9 1_555 1_555
C9 C4 1_555 1_555
C10 C9 1_555 1_555
C11 C2 1_555 1_555
C12 C11 1_555 1_555
C13 C12 1_555 1_555
C14 C1 1_555 1_555
C15 C1 1_555 1_555
C16 C3 1_555 1_555
H1 C2 1_555 1_555
H2 C3 1_555 1_555
H3 C10 1_555 1_555
H4 C11 1_555 1_555
H5 C13 1_555 1_555
H6 C14 1_555 1_555
H7 C15 1_555 1_555
H8 C15 1_555 1_555
H9 C16 1_555 1_555
H10 C16 1_555 1_555
C10 C11 1_555 1_555
C10 C16 1_555 1_555
C12 C15 1_555 1_555
C13 C14 1_555 1_555

#END
