
#######################################################################
#
#                 Cambridge Crystallographic Data Centre
#                                CCDC 
#
#######################################################################
#
# If this CIF has been generated from an entry in the Cambridge 
# Structural Database, then it will include bibliographic, chemical, 
# crystal, experimental, refinement or atomic coordinate data resulting 
# from the CCDC's data processing and validation procedures.
#
#######################################################################

data_WAMHOH
_chemical_formula_moiety         'C16 H9 Cl9'
_chemical_name_systematic        
endo,endo-1,5,6,7,8,12,13,14-anti-15-Nonachloropentacyclo(10.2.1.1^3,10^.0^2,11^.0^4,9^)hexadeca-4(9),5,7-triene
_symmetry_cell_setting           triclinic
_symmetry_space_group_name_H-M   'P -1'
_symmetry_Int_Tables_number      2
_space_group_name_Hall           '-P 1'
loop_
_symmetry_equiv_pos_site_id
_symmetry_equiv_pos_as_xyz
1 x,y,z
2 -x,-y,-z
_cell_length_a                   8.664(2)
_cell_length_b                   8.814(2)
_cell_length_c                   14.254(3)
_cell_angle_alpha                89.81(3)
_cell_angle_beta                 84.10(3)
_cell_angle_gamma                61.11(3)
_cell_volume                     946.643
_exptl_crystal_colour            colorless
_chemical_melting_point          304-305deg.C
_cell_formula_units_Z            2
loop_
_atom_site_label
_atom_site_type_symbol
_atom_site_fract_x
_atom_site_fract_y
_atom_site_fract_z
Cl1 Cl 0.3137(1) -0.5051(1) 0.8479(1)
Cl2 Cl 0.2253(1) -0.2042(1) 1.0259(1)
Cl3 Cl 0.7472(1) -0.5975(1) 0.5781(1)
Cl4 Cl 0.7679(1) -0.3452(1) 0.4278(1)
Cl5 Cl 0.7323(1) 0.0092(1) 0.4936(1)
Cl6 Cl 0.6553(1) 0.1181(1) 0.7099(1)
Cl7 Cl 0.2377(1) 0.1461(1) 0.9258(1)
Cl8 Cl 0.0790(1) 0.1198(1) 0.7452(1)
Cl9 Cl 0.1263(1) -0.2355(1) 0.6961(1)
C1 C 0.3481(2) -0.3236(2) 0.8362(2)
C2 C 0.5329(2) -0.3660(2) 0.8617(2)
C3 C 0.7116(3) -0.4532(3) 0.7961(2)
C4 C 0.7096(2) -0.3575(2) 0.7069(2)
C5 C 0.7303(3) -0.4033(3) 0.6125(2)
C6 C 0.7368(3) -0.2882(3) 0.5457(2)
C7 C 0.7187(3) -0.1291(3) 0.5750(2)
C8 C 0.6920(3) -0.0823(3) 0.6709(2)
C9 C 0.6919(2) -0.1984(3) 0.7361(1)
C10 C 0.6827(3) -0.1916(3) 0.8417(2)
C11 C 0.5101(3) -0.1855(2) 0.8896(1)
C12 C 0.3190(2) -0.0611(2) 0.8695(1)
C13 C 0.2891(2) -0.0541(2) 0.7639(1)
C14 C 0.3116(3) -0.2387(3) 0.7407(2)
C15 C 0.2242(3) -0.1646(3) 0.9040(1)
C16 C 0.8122(3) -0.3871(3) 0.8541(2)
H1 H 0.5498(29) -0.4298(30) 0.9153(17)
H2 H 0.7640(32) -0.5786(32) 0.7867(18)
H3 H 0.7068(31) -0.1058(32) 0.8706(18)
H4 H 0.5093(25) -0.1685(26) 0.9557(16)
H5 H 0.3729(27) -0.0333(26) 0.7265(16)
H6 H 0.4040(31) -0.2965(30) 0.6950(18)
H7 H 0.1011(30) -0.1136(29) 0.8916(16)
H8 H 0.9298(32) -0.4242(30) 0.8246(18)
H9 H 0.8165(29) -0.4296(30) 0.9196(17)
loop_
_geom_bond_atom_site_label_1
_geom_bond_atom_site_label_2
_geom_bond_site_symmetry_1
_geom_bond_site_symmetry_2
Cl1 C1 1_555 1_555
Cl2 C15 1_555 1_555
Cl3 C5 1_555 1_555
Cl4 C6 1_555 1_555
Cl5 C7 1_555 1_555
Cl6 C8 1_555 1_555
Cl7 C12 1_555 1_555
Cl8 C13 1_555 1_555
Cl9 C14 1_555 1_555
C1 C2 1_555 1_555
C2 C3 1_555 1_555
C3 C4 1_555 1_555
C4 C5 1_555 1_555
C5 C6 1_555 1_555
C6 C7 1_555 1_555
C7 C8 1_555 1_555
C8 C9 1_555 1_555
C9 C4 1_555 1_555
C10 C9 1_555 1_555
C11 C2 1_555 1_555
C12 C11 1_555 1_555
C13 C12 1_555 1_555
C14 C1 1_555 1_555
C15 C1 1_555 1_555
C16 C3 1_555 1_555
H1 C2 1_555 1_555
H2 C3 1_555 1_555
H3 C10 1_555 1_555
H4 C11 1_555 1_555
H5 C13 1_555 1_555
H6 C14 1_555 1_555
H7 C15 1_555 1_555
H8 C16 1_555 1_555
H9 C16 1_555 1_555
C10 C11 1_555 1_555
C10 C16 1_555 1_555
C12 C15 1_555 1_555
C13 C14 1_555 1_555

#END
