
#######################################################################
#
#                 Cambridge Crystallographic Data Centre
#                                CCDC 
#
#######################################################################
#
# If this CIF has been generated from an entry in the Cambridge 
# Structural Database, then it will include bibliographic, chemical, 
# crystal, experimental, refinement or atomic coordinate data resulting 
# from the CCDC's data processing and validation procedures.
#
#######################################################################

data_WAMJAV01
_chemical_formula_moiety         'C17 H16 Cl4'
_chemical_name_systematic        
2,11-endo-5,6,7,8-Tetrachloropentacyclo(10.2.2.1^3,10^.0^2,11^.0^4,9^)heptadeca-4(9),5,7-triene
_symmetry_cell_setting           monoclinic
_symmetry_space_group_name_H-M   'P 21/c'
_symmetry_Int_Tables_number      14
_space_group_name_Hall           '-P 2ybc'
loop_
_symmetry_equiv_pos_site_id
_symmetry_equiv_pos_as_xyz
1 x,y,z
2 -x,1/2+y,1/2-z
3 -x,-y,-z
4 x,1/2-y,1/2+z
_cell_length_a                   10.372(2)
_cell_length_b                   8.250(2)
_cell_length_c                   18.559(4)
_cell_angle_alpha                90
_cell_angle_beta                 98.110(15)
_cell_angle_gamma                90
_cell_volume                     1572.19
_exptl_crystal_colour            colorless
_chemical_melting_point          190-191deg.C
_cell_formula_units_Z            4
loop_
_atom_site_label
_atom_site_type_symbol
_atom_site_fract_x
_atom_site_fract_y
_atom_site_fract_z
Cl1 Cl 0.8930(1) 0.2616(1) 0.3156(1)
Cl2 Cl 0.8319(1) 0.1769(1) 0.4729(1)
Cl3 Cl 1.0456(1) 0.2259(1) 0.6071(1)
Cl4 Cl 1.3147(1) 0.3738(1) 0.5857(1)
C1 C 1.2856(3) 0.1243(4) 0.2890(2)
C2 C 1.3018(3) 0.3064(3) 0.3028(1)
C3 C 1.1855(3) 0.4165(3) 0.3172(2)
C4 C 1.1272(3) 0.3605(3) 0.3828(1)
C5 C 1.0069(3) 0.2962(3) 0.3912(2)
C6 C 0.9810(3) 0.2564(3) 0.4609(2)
C7 C 1.0750(3) 0.2795(3) 0.5209(2)
C8 C 1.1961(3) 0.3460(3) 0.5119(2)
C9 C 1.2205(3) 0.3868(3) 0.4434(1)
C10 C 1.3379(3) 0.4602(3) 0.4159(2)
C11 C 1.4049(3) 0.3370(3) 0.3707(2)
C12 C 1.4604(3) 0.1746(4) 0.4018(2)
C13 C 1.3559(3) 0.0586(4) 0.4214(2)
C14 C 1.2521(3) 0.0305(4) 0.3549(2)
C15 C 1.4218(3) 0.0639(5) 0.2747(2)
C16 C 1.5234(3) 0.0956(5) 0.3410(2)
C17 C 1.2639(3) 0.5623(4) 0.3526(2)
H1 H 1.2343(31) 0.0974(38) 0.2486(18)
H2 H 1.3282(26) 0.3523(31) 0.2578(15)
H3 H 1.1246(26) 0.4338(30) 0.2738(15)
H4 H 1.3897(31) 0.5230(38) 0.4473(17)
H5 H 1.4732(28) 0.3979(34) 0.3555(15)
H6 H 1.5168(33) 0.1898(39) 0.4443(18)
H7 H 1.3190(34) 0.0933(43) 0.4586(19)
H8 H 1.3928(32) -0.0416(42) 0.4341(18)
H9 H 1.1772(29) 0.0575(34) 0.3674(15)
H10 H 1.2465(33) -0.0837(44) 0.3416(19)
H11 H 1.4540(36) 0.1219(48) 0.2301(21)
H12 H 1.4093(40) -0.0507(53) 0.2611(22)
H13 H 1.5628(41) 0.0160(53) 0.3540(22)
H14 H 1.6007(36) 0.1621(40) 0.3322(18)
H15 H 1.3227(34) 0.6094(41) 0.3200(19)
H16 H 1.2151(29) 0.6417(38) 0.3688(16)
loop_
_geom_bond_atom_site_label_1
_geom_bond_atom_site_label_2
_geom_bond_site_symmetry_1
_geom_bond_site_symmetry_2
Cl1 C5 1_555 1_555
Cl2 C6 1_555 1_555
Cl3 C7 1_555 1_555
Cl4 C8 1_555 1_555
C1 C2 1_555 1_555
C2 C3 1_555 1_555
C3 C4 1_555 1_555
C4 C5 1_555 1_555
C5 C6 1_555 1_555
C6 C7 1_555 1_555
C7 C8 1_555 1_555
C8 C9 1_555 1_555
C9 C4 1_555 1_555
C10 C9 1_555 1_555
C11 C2 1_555 1_555
C12 C11 1_555 1_555
C13 C12 1_555 1_555
C14 C1 1_555 1_555
C15 C1 1_555 1_555
C16 C12 1_555 1_555
C17 C3 1_555 1_555
H1 C1 1_555 1_555
H2 C2 1_555 1_555
H3 C3 1_555 1_555
H4 C10 1_555 1_555
H5 C11 1_555 1_555
H6 C12 1_555 1_555
H7 C13 1_555 1_555
H8 C13 1_555 1_555
H9 C14 1_555 1_555
H10 C14 1_555 1_555
H11 C15 1_555 1_555
H12 C15 1_555 1_555
H13 C16 1_555 1_555
H14 C16 1_555 1_555
H15 C17 1_555 1_555
H16 C17 1_555 1_555
C10 C11 1_555 1_555
C10 C17 1_555 1_555
C13 C14 1_555 1_555
C15 C16 1_555 1_555

#END
