
#######################################################################
#
#                 Cambridge Crystallographic Data Centre
#                                CCDC 
#
#######################################################################
#
# If this CIF has been generated from an entry in the Cambridge 
# Structural Database, then it will include bibliographic, chemical, 
# crystal, experimental, refinement or atomic coordinate data resulting 
# from the CCDC's data processing and validation procedures.
#
#######################################################################

data_WAMKEA
_chemical_formula_moiety         'C26 H18 Cl8 N2'
_chemical_name_systematic        
'2,10-endo,endo-5,6-Diaza-1,11,12,13,14,14-hexachloro-5,7-bis(p-chlorophenyl)pentacyclo(6.5.2.1^1,11^.0^4,8^.0^2,10^)hexadeca-4(8),6-diene unknown solvate'
_symmetry_cell_setting           monoclinic
_symmetry_space_group_name_H-M   'P 21/c'
_symmetry_Int_Tables_number      14
_space_group_name_Hall           '-P 2ybc'
loop_
_symmetry_equiv_pos_site_id
_symmetry_equiv_pos_as_xyz
1 x,y,z
2 -x,1/2+y,1/2-z
3 -x,-y,-z
4 x,1/2-y,1/2+z
_cell_length_a                   22.808(6)
_cell_length_b                   9.605(3)
_cell_length_c                   14.231(3)
_cell_angle_alpha                90
_cell_angle_beta                 100.75(2)
_cell_angle_gamma                90
_cell_volume                     3062.88
_exptl_crystal_colour            colorless
_chemical_melting_point          316-318deg.C
_cell_formula_units_Z            4
loop_
_atom_site_label
_atom_site_type_symbol
_atom_site_fract_x
_atom_site_fract_y
_atom_site_fract_z
C28 C 0.5160(11) 0.6401(27) 0.4921(17)
C29 C 0.5722(11) 0.5481(27) 0.5670(18)
C30 C 0.4581(14) 0.5755(32) 0.4552(21)
C30B C 0.5419(14) 0.4245(32) 0.5448(21)
C29B C 0.4278(11) 0.4519(27) 0.4330(18)
C28B C 0.4840(11) 0.3599(27) 0.5079(17)
Cl1 Cl 0.1037(1) 0.4143(2) -0.0713(2)
Cl2 Cl 0.3503(1) 0.3963(2) 0.0111(1)
Cl3 Cl 0.2944(1) 0.4010(2) 0.1994(1)
Cl4 Cl 0.1545(1) 0.4075(2) 0.1520(1)
Cl5 Cl 0.2280(1) 0.3079(2) -0.1580(1)
Cl6 Cl 0.2243(1) 0.2044(2) 0.0260(1)
Cl7 Cl -0.0588(1) 0.9872(3) 0.1708(2)
Cl8 Cl 0.5150(1) 0.9911(3) 0.3525(2)
C1 C 0.1775(3) 0.4681(6) -0.0308(4)
C2 C 0.1955(2) 0.5894(6) -0.0926(4)
C3 C 0.1720(3) 0.7391(6) -0.0845(4)
C4 C 0.1995(3) 0.8012(6) 0.0097(4)
N1 N 0.1810(2) 0.8769(5) 0.0815(4)
N2 N 0.2287(2) 0.9213(5) 0.1470(3)
C6 C 0.2773(2) 0.8720(5) 0.1155(4)
C7 C 0.2602(3) 0.7988(6) 0.0304(4)
C8 C 0.2898(3) 0.7322(6) -0.0437(4)
C9 C 0.2646(2) 0.5845(6) -0.0690(4)
C10 C 0.2774(3) 0.4608(6) 0.0028(4)
C11 C 0.2614(3) 0.5021(6) 0.0998(4)
C12 C 0.1921(3) 0.5061(6) 0.0762(4)
C13 C 0.2263(3) 0.3601(6) -0.0394(4)
C14 C 0.1993(3) 0.8226(7) -0.1585(4)
C15 C 0.2684(3) 0.8186(7) -0.1350(4)
C16 C 0.1225(3) 0.9076(6) 0.0986(4)
C17 C 0.0768(3) 0.8132(8) 0.0728(5)
C18 C 0.0214(4) 0.8385(9) 0.0927(7)
C19 C 0.0105(3) 0.9566(10) 0.1389(6)
C20 C 0.0555(4) 1.0529(8) 0.1645(5)
C21 C 0.1111(3) 1.0281(7) 0.1434(5)
C22 C 0.3363(3) 0.9020(7) 0.1711(4)
C23 C 0.3478(3) 1.0309(7) 0.2147(5)
C24 C 0.4029(3) 1.0578(8) 0.2698(5)
C25 C 0.4459(3) 0.9574(9) 0.2813(6)
C26 C 0.4357(3) 0.8313(8) 0.2384(6)
C27 C 0.3805(3) 0.8025(7) 0.1830(5)
H1 H 0.1838 0.5622 -0.1584
H2 H 0.1292 0.7435 -0.0962
H3 H 0.3325 0.7321 -0.0250
H4 H 0.2778 0.5567 -0.1264
H5 H 0.2754 0.5935 0.1154
H6 H 0.1782 0.5886 0.0824
H7 H 0.1861 0.9176 -0.1592
H8 H 0.1857 0.7843 -0.2211
H9 H 0.2834 0.7779 -0.1875
H10 H 0.2838 0.9116 -0.1258
H11 H 0.0840 0.7287 0.0408
H12 H -0.0100 0.7717 0.0745
H13 H 0.0481 1.1372 0.1966
H14 H 0.1421 1.0960 0.1607
H15 H 0.3175 1.1015 0.2057
H16 H 0.4107 1.1467 0.3004
H17 H 0.4665 0.7620 0.2469
H18 H 0.3733 0.7138 0.1519
C5? C 0.1810(2) 0.8769(5) 0.0815(4)
N3? N 0.2773(2) 0.8720(5) 0.1155(4)
loop_
_geom_bond_atom_site_label_1
_geom_bond_atom_site_label_2
_geom_bond_site_symmetry_1
_geom_bond_site_symmetry_2
Cl1 C1 1_555 1_555
Cl2 C10 1_555 1_555
Cl3 C11 1_555 1_555
Cl4 C12 1_555 1_555
Cl5 C13 1_555 1_555
Cl6 C13 1_555 1_555
Cl7 C19 1_555 1_555
Cl8 C25 1_555 1_555
C1 C2 1_555 1_555
C2 C3 1_555 1_555
C3 C4 1_555 1_555
C4 N1 1_555 1_555
N1 N2 1_555 1_555
N2 C6 1_555 1_555
C6 C7 1_555 1_555
C7 C4 1_555 1_555
C8 C7 1_555 1_555
C9 C2 1_555 1_555
C10 C9 1_555 1_555
C11 C10 1_555 1_555
C12 C1 1_555 1_555
C13 C1 1_555 1_555
C14 C3 1_555 1_555
C15 C8 1_555 1_555
C16 N1 1_555 1_555
C17 C16 1_555 1_555
C18 C17 1_555 1_555
C19 C18 1_555 1_555
C20 C19 1_555 1_555
C21 C16 1_555 1_555
C22 C6 1_555 1_555
C23 C22 1_555 1_555
C24 C23 1_555 1_555
C25 C24 1_555 1_555
C26 C25 1_555 1_555
C27 C22 1_555 1_555
C28 C29 1_555 1_555
C29 C30B 1_555 1_555
C30 C28 1_555 1_555
H1 C2 1_555 1_555
H2 C3 1_555 1_555
H3 C8 1_555 1_555
H4 C9 1_555 1_555
H5 C11 1_555 1_555
H6 C12 1_555 1_555
H7 C14 1_555 1_555
H8 C14 1_555 1_555
H9 C15 1_555 1_555
H10 C15 1_555 1_555
H11 C17 1_555 1_555
H12 C18 1_555 1_555
H13 C20 1_555 1_555
H14 C21 1_555 1_555
H15 C23 1_555 1_555
H16 C24 1_555 1_555
H17 C26 1_555 1_555
H18 C27 1_555 1_555
C30B C28B 1_555 1_555
C29B C30 1_555 1_555
C28B C29B 1_555 1_555
C8 C9 1_555 1_555
C10 C13 1_555 1_555
C11 C12 1_555 1_555
C14 C15 1_555 1_555
C20 C21 1_555 1_555
C26 C27 1_555 1_555

#END
