
#######################################################################
#
#                 Cambridge Crystallographic Data Centre
#                                CCDC 
#
#######################################################################
#
# If this CIF has been generated from an entry in the Cambridge 
# Structural Database, then it will include bibliographic, chemical, 
# crystal, experimental, refinement or atomic coordinate data resulting 
# from the CCDC's data processing and validation procedures.
#
#######################################################################

data_WAMLUS01
_chemical_formula_moiety         'C22 H14 Cl2 N2 O1 S2'
_chemical_name_systematic        
(5-Anilino-3-(phenylimino)-3H-1,2-dithiol-4-yl)(2,5-dichlorophenyl)methanone
_chemical_properties_biological  
'lacked anticancer activity against human HepG2 liver cancer cells'
_symmetry_cell_setting           triclinic
_symmetry_space_group_name_H-M   'P -1'
_symmetry_Int_Tables_number      2
_space_group_name_Hall           '-P 1'
loop_
_symmetry_equiv_pos_site_id
_symmetry_equiv_pos_as_xyz
1 x,y,z
2 -x,-y,-z
_cell_length_a                   10.084(2)
_cell_length_b                   10.331(2)
_cell_length_c                   10.414(2)
_cell_angle_alpha                87.60(3)
_cell_angle_beta                 85.58(3)
_cell_angle_gamma                78.10(3)
_cell_volume                     1058.06
_exptl_crystal_colour            colorless
_exptl_crystal_description       block
_chemical_melting_point          '165 deg.C'
_cell_formula_units_Z            2
loop_
_atom_site_label
_atom_site_type_symbol
_atom_site_fract_x
_atom_site_fract_y
_atom_site_fract_z
Cl1 Cl -0.30253(16) 0.1448(2) 0.95117(15)
Cl2 Cl 0.28010(14) 0.10702(15) 0.69545(15)
S1 S 0.34108(15) 0.47932(15) 0.93360(13)
S2 S 0.33233(14) 0.59898(14) 0.76873(13)
O1 O 0.0151(3) 0.4067(4) 0.6122(3)
N1 N 0.1741(4) 0.5798(4) 0.5868(3)
H1 H 0.1084 0.5537 0.5545
N2 N 0.1750(4) 0.3085(4) 0.9763(3)
C1 C 0.1723(7) 0.8063(6) 0.5168(5)
H2 H 0.0896 0.8337 0.5636
C2 C 0.2373(8) 0.8981(6) 0.4451(6)
H3 H 0.1976 0.9877 0.4458
C3 C 0.3567(8) 0.8566(8) 0.3755(6)
H4 H 0.3988 0.9180 0.3297
C4 C 0.4144(7) 0.7280(8) 0.3724(6)
H5 H 0.4954 0.7007 0.3228
C5 C 0.3551(6) 0.6346(6) 0.4420(6)
H6 H 0.3957 0.5453 0.4394
C6 C 0.2358(5) 0.6762(5) 0.5146(4)
C7 C 0.2121(4) 0.5286(5) 0.7000(4)
C8 C 0.1633(4) 0.4270(4) 0.7693(4)
C9 C 0.2128(4) 0.3914(4) 0.8953(4)
C10 C 0.2389(5) 0.2802(4) 1.0937(4)
C11 C 0.3679(5) 0.2073(5) 1.0963(5)
H7 H 0.4153 0.1750 1.0202
C12 C 0.4283(6) 0.1813(6) 1.2117(6)
H8 H 0.5170 0.1331 1.2118
C13 C 0.3623(7) 0.2236(6) 1.3230(6)
H9 H 0.4050 0.2067 1.3998
C14 C 0.2294(8) 0.2931(7) 1.3224(5)
H10 H 0.1814 0.3205 1.3996
C15 C 0.1675(6) 0.3220(5) 1.2080(5)
H11 H 0.0784 0.3692 1.2080
C16 C 0.0680(4) 0.3642(4) 0.7125(4)
C17 C 0.0301(4) 0.2397(4) 0.7720(4)
C18 C 0.1146(5) 0.1182(5) 0.7624(4)
C19 C 0.0718(6) 0.0034(5) 0.8050(5)
H12 H 0.1302 -0.0785 0.7957
C20 C -0.0583(6) 0.0119(6) 0.8612(5)
H13 H -0.0885 -0.0640 0.8904
C21 C -0.1411(5) 0.1324(6) 0.8732(4)
C22 C -0.1005(5) 0.2474(5) 0.8275(4)
H14 H -0.1603 0.3288 0.8342
loop_
_geom_bond_atom_site_label_1
_geom_bond_atom_site_label_2
_geom_bond_site_symmetry_1
_geom_bond_site_symmetry_2
Cl1 C21 1_555 1_555
Cl2 C18 1_555 1_555
S1 S2 1_555 1_555
S2 C7 1_555 1_555
O1 C16 1_555 1_555
N1 H1 1_555 1_555
N2 C9 1_555 1_555
C1 H2 1_555 1_555
C2 C1 1_555 1_555
H3 C2 1_555 1_555
C3 C2 1_555 1_555
H4 C3 1_555 1_555
C4 C3 1_555 1_555
H5 C4 1_555 1_555
C5 C4 1_555 1_555
H6 C5 1_555 1_555
C6 N1 1_555 1_555
C7 N1 1_555 1_555
C8 C7 1_555 1_555
C9 S1 1_555 1_555
C10 N2 1_555 1_555
C11 C10 1_555 1_555
H7 C11 1_555 1_555
C12 C11 1_555 1_555
H8 C12 1_555 1_555
C13 C12 1_555 1_555
H9 C13 1_555 1_555
C14 C13 1_555 1_555
H10 C14 1_555 1_555
C15 C10 1_555 1_555
H11 C15 1_555 1_555
C16 C8 1_555 1_555
C17 C16 1_555 1_555
C18 C17 1_555 1_555
C19 C18 1_555 1_555
H12 C19 1_555 1_555
C20 C19 1_555 1_555
H13 C20 1_555 1_555
C21 C20 1_555 1_555
C22 C17 1_555 1_555
H14 C22 1_555 1_555
C1 C6 1_555 1_555
C5 C6 1_555 1_555
C8 C9 1_555 1_555
C14 C15 1_555 1_555
C21 C22 1_555 1_555

#END
