
#######################################################################
#
#                 Cambridge Crystallographic Data Centre
#                                CCDC 
#
#######################################################################
#
# If this CIF has been generated from an entry in the Cambridge 
# Structural Database, then it will include bibliographic, chemical, 
# crystal, experimental, refinement or atomic coordinate data resulting 
# from the CCDC's data processing and validation procedures.
#
#######################################################################

data_WAMNOO
_chemical_formula_moiety         'C15 H5 Cl4 N1 O3'
_chemical_name_systematic        
4-(4,5,6,7-Tetrachloro-1,3-dioxoisoindolin-2-yl)benzaldehyde
_symmetry_cell_setting           monoclinic
_symmetry_space_group_name_H-M   'P 21/c'
_symmetry_Int_Tables_number      14
_space_group_name_Hall           '-P 2ybc'
loop_
_symmetry_equiv_pos_site_id
_symmetry_equiv_pos_as_xyz
1 x,y,z
2 -x,1/2+y,1/2-z
3 -x,-y,-z
4 x,1/2-y,1/2+z
_cell_length_a                   12.6686(10)
_cell_length_b                   8.9057(7)
_cell_length_c                   13.4400(11)
_cell_angle_alpha                90
_cell_angle_beta                 91.7370(10)
_cell_angle_gamma                90
_cell_volume                     1515.64
_exptl_crystal_colour            colorless
_exptl_crystal_description       block
_cell_formula_units_Z            4
_exptl_crystal_recrystallization_method acetone
loop_
_atom_site_label
_atom_site_type_symbol
_atom_site_fract_x
_atom_site_fract_y
_atom_site_fract_z
Cl1 Cl 0.88128(4) 0.76476(4) 0.12379(3)
Cl2 Cl 1.12468(3) 0.70786(5) 0.13137(3)
Cl3 Cl 1.21189(3) 0.38355(5) 0.13027(3)
Cl4 Cl 1.05704(3) 0.10925(4) 0.12373(3)
N1 N 0.72161(10) 0.29949(14) 0.11662(10)
O1 O 0.68065(9) 0.55199(13) 0.11447(10)
O2 O 0.81341(9) 0.07618(12) 0.11842(10)
O3 O 0.29063(12) -0.07076(19) 0.15452(14)
C1 C 0.74447(12) 0.45412(16) 0.11736(11)
C2 C 0.86296(11) 0.46221(16) 0.12188(10)
C3 C 0.92941(12) 0.58498(16) 0.12445(11)
C4 C 1.03815(12) 0.55868(16) 0.12761(10)
C5 C 1.07789(12) 0.41240(17) 0.12754(11)
C6 C 1.00958(12) 0.28979(16) 0.12464(10)
C7 C 0.90305(11) 0.31795(16) 0.12250(10)
C8 C 0.81240(11) 0.21009(16) 0.11921(11)
C9 C 0.61778(12) 0.23670(18) 0.11448(12)
C10 C 0.54712(13) 0.2727(2) 0.03843(14)
H1 H 0.5648 0.3421 -0.0100
C11 C 0.44882(13) 0.2034(2) 0.03526(15)
H2 H 0.4001 0.2272 -0.0154
C12 C 0.42306(12) 0.10010(19) 0.10645(14)
C13 C 0.49414(14) 0.0676(2) 0.18396(15)
H3 H 0.4761 -0.0006 0.2331
C14 C 0.59139(14) 0.1364(2) 0.18803(15)
H4 H 0.6392 0.1155 0.2401
C15 C 0.32021(14) 0.0222(2) 0.09831(16)
H5 H 0.2751 0.0478 0.0451
loop_
_geom_bond_atom_site_label_1
_geom_bond_atom_site_label_2
_geom_bond_site_symmetry_1
_geom_bond_site_symmetry_2
Cl1 C3 1_555 1_555
Cl2 C4 1_555 1_555
Cl3 C5 1_555 1_555
Cl4 C6 1_555 1_555
N1 C1 1_555 1_555
O1 C1 1_555 1_555
O2 C8 1_555 1_555
O3 C15 1_555 1_555
C1 C2 1_555 1_555
C2 C3 1_555 1_555
C3 C4 1_555 1_555
C4 C5 1_555 1_555
C5 C6 1_555 1_555
C6 C7 1_555 1_555
C7 C2 1_555 1_555
C8 N1 1_555 1_555
C9 N1 1_555 1_555
C10 C9 1_555 1_555
H1 C10 1_555 1_555
C11 C10 1_555 1_555
H2 C11 1_555 1_555
C12 C11 1_555 1_555
C13 C12 1_555 1_555
H3 C13 1_555 1_555
C14 C9 1_555 1_555
H4 C14 1_555 1_555
C15 C12 1_555 1_555
H5 C15 1_555 1_555
C7 C8 1_555 1_555
C13 C14 1_555 1_555

#END
