
#######################################################################
#
#                 Cambridge Crystallographic Data Centre
#                                CCDC 
#
#######################################################################
#
# If this CIF has been generated from an entry in the Cambridge 
# Structural Database, then it will include bibliographic, chemical, 
# crystal, experimental, refinement or atomic coordinate data resulting 
# from the CCDC's data processing and validation procedures.
#
#######################################################################

data_WAMSAF
_chemical_formula_moiety         'C29 H46 N4 O7'
_chemical_name_systematic        
't-Butoxycarbonyl-phenylalanyl-\a-aminoisobutyryl-isoleucyl-\a-aminoisobutyryl methyl ester'
_symmetry_cell_setting           orthorhombic
_symmetry_space_group_name_H-M   'P 21 21 21'
_symmetry_Int_Tables_number      19
_space_group_name_Hall           'P 2ac 2ab'
loop_
_symmetry_equiv_pos_site_id
_symmetry_equiv_pos_as_xyz
1 x,y,z
2 -x,1/2+y,1/2-z
3 1/2+x,1/2-y,-z
4 1/2-x,-y,1/2+z
_cell_length_a                   10.179(12)
_cell_length_b                   15.606(17)
_cell_length_c                   20.727(23)
_cell_angle_alpha                90
_cell_angle_beta                 90
_cell_angle_gamma                90
_cell_volume                     3292.56
_exptl_crystal_colour            white
_exptl_crystal_description       needle
_chemical_melting_point          '168-170 deg.C'
_cell_formula_units_Z            4
_exptl_crystal_recrystallization_method methanol/water
loop_
_atom_site_label
_atom_site_type_symbol
_atom_site_fract_x
_atom_site_fract_y
_atom_site_fract_z
C1 C 0.7975(12) 0.9973(6) 0.0540(5)
C2 C 0.7368(15) 0.9594(8) -0.0056(6)
H1 H 0.6905(68) 1.0032(14) -0.0288(22)
H2 H 0.6766(61) 0.9149(36) 0.0065(7)
H3 H 0.8045(17) 0.9359(47) -0.0325(19)
C3 C 0.8952(12) 1.0652(7) 0.0369(6)
H4 H 0.9341(50) 1.0875(32) 0.0756(6)
H5 H 0.8519(18) 1.1106(22) 0.0141(29)
H6 H 0.9625(39) 1.0409(12) 0.0101(28)
C4 C 0.8611(11) 0.9327(8) 0.0954(7)
H7 H 0.9389(43) 0.9116(36) 0.0746(18)
H8 H 0.8015(29) 0.8860(24) 0.1028(31)
H9 H 0.8844(68) 0.9583(15) 0.1360(16)
O1 O 0.6967(6) 1.0455(3) 0.0904(3)
C5 C 0.5930(10) 1.0067(5) 0.1163(4)
O2 O 0.5681(6) 0.9298(4) 0.1115(3)
N1 N 0.5166(7) 1.0618(4) 0.1492(3)
H10 H 0.5441(7) 1.1132(4) 0.1559(3)
C6 C 0.3885(9) 1.0362(5) 0.1735(4)
H11 H 0.3527(9) 1.0856(5) 0.1968(4)
C7 C 0.2908(11) 1.0152(5) 0.1196(5)
H12 H 0.3190(11) 0.9631(5) 0.0981(5)
H13 H 0.2055(11) 1.0041(5) 0.1387(5)
C8 C 0.2769(9) 1.0843(6) 0.0706(5)
C9 C 0.3347(15) 1.0789(10) 0.0121(7)
H14 H 0.3814(15) 1.0295(10) 0.0021(7)
C10 C 0.3281(16) 1.1426(10) -0.0331(7)
H15 H 0.3740(16) 1.1384(10) -0.0718(7)
C11 C 0.2536(17) 1.2113(8) -0.0200(8)
H16 H 0.2439(17) 1.2530(8) -0.0518(8)
C12 C 0.1923(16) 1.2228(8) 0.0367(8)
H17 H 0.1429(16) 1.2717(8) 0.0448(8)
C13 C 0.2062(13) 1.1558(7) 0.0847(7)
H18 H 0.1670(13) 1.1618(7) 0.1250(7)
C14 C 0.4003(9) 0.9636(4) 0.2222(4)
O3 O 0.3027(6) 0.9148(3) 0.2318(3)
N2 N 0.5122(7) 0.9538(4) 0.2530(3)
H19 H 0.5751(7) 0.9887(4) 0.2442(3)
C15 C 0.5372(10) 0.8858(5) 0.3025(5)
C16 C 0.4605(12) 0.9066(7) 0.3627(5)
H20 H 0.4768(49) 0.8635(24) 0.3948(11)
H21 H 0.3685(13) 0.9081(39) 0.3527(8)
H22 H 0.4876(46) 0.9615(20) 0.3789(18)
C17 C 0.6844(12) 0.8863(6) 0.3139(6)
H23 H 0.7289(12) 0.8711(35) 0.2747(8)
H24 H 0.7060(13) 0.8457(27) 0.3470(19)
H25 H 0.7114(15) 0.9426(11) 0.3271(28)
C18 C 0.5026(9) 0.7954(5) 0.2738(5)
O4 O 0.4769(7) 0.7419(4) 0.3165(3)
N3 N 0.5087(7) 0.7825(4) 0.2125(4)
H26 H 0.5297(7) 0.8226(4) 0.1859(4)
C19 C 0.4778(10) 0.6952(5) 0.1905(5)
H27 H 0.5340(10) 0.6559(5) 0.2149(5)
C20 C 0.3361(9) 0.6697(5) 0.2041(5)
O5 O 0.3077(7) 0.5944(4) 0.2124(4)
N4 N 0.2467(7) 0.7315(4) 0.2092(3)
H28 H 0.2705(7) 0.7833(4) 0.2010(3)
C21 C 0.1093(12) 0.7160(6) 0.2281(6)
O6 O -0.0046(10) 0.5865(7) 0.2207(8)
C22 C 0.0547(16) 0.6364(10) 0.1881(11)
C23 C -0.0510(16) 0.5162(9) 0.1734(9)
H29 H -0.0885(96) 0.5425(9) 0.1358(24)
H30 H -0.1160(77) 0.4811(43) 0.1941(20)
H31 H 0.0225(24) 0.4814(43) 0.1610(41)
O7 O 0.0784(14) 0.6393(9) 0.1286(8)
C24 C 0.1085(15) 0.7024(15) 0.3000(8)
H32 H 0.086(12) 0.7551(23) 0.3212(8)
H33 H 0.1939(40) 0.6840(82) 0.3138(12)
H34 H 0.0448(92) 0.6594(59) 0.3108(10)
C25 C 0.0262(11) 0.7926(7) 0.2106(6)
H35 H 0.0587(45) 0.8423(11) 0.2326(28)
H36 H -0.0632(18) 0.7822(20) 0.2231(31)
H37 H 0.0303(55) 0.8019(28) 0.1648(8)
C26 C 0.5127(13) 0.6836(6) 0.1178(5)
H38 H 0.4894(13) 0.6243(6) 0.1072(5)
C27 C 0.4314(14) 0.7391(7) 0.0730(5)
H39 H 0.3397(14) 0.7288(31) 0.0807(22)
H40 H 0.4521(47) 0.7253(30) 0.0290(5)
H41 H 0.4508(51) 0.7984(7) 0.0809(23)
C28 C 0.6643(13) 0.6895(8) 0.1095(8)
H42 H 0.6918(13) 0.7489(8) 0.1119(8)
H43 H 0.7074(13) 0.6582(8) 0.1439(8)
C29 C 0.7028(20) 0.6530(10) 0.0463(10)
H44 H 0.717(13) 0.5924(18) 0.0508(17)
H45 H 0.7824(75) 0.6797(64) 0.0318(33)
H46 H 0.6342(61) 0.6631(77) 0.0155(19)
loop_
_geom_bond_atom_site_label_1
_geom_bond_atom_site_label_2
_geom_bond_site_symmetry_1
_geom_bond_site_symmetry_2
C1 C2 1_555 1_555
C2 H1 1_555 1_555
H2 C2 1_555 1_555
H3 C2 1_555 1_555
C3 C1 1_555 1_555
H4 C3 1_555 1_555
H5 C3 1_555 1_555
H6 C3 1_555 1_555
C4 C1 1_555 1_555
H7 C4 1_555 1_555
H8 C4 1_555 1_555
H9 C4 1_555 1_555
O1 C1 1_555 1_555
C5 O1 1_555 1_555
O2 C5 1_555 1_555
N1 C5 1_555 1_555
H10 N1 1_555 1_555
C6 N1 1_555 1_555
H11 C6 1_555 1_555
C7 C6 1_555 1_555
H12 C7 1_555 1_555
H13 C7 1_555 1_555
C8 C7 1_555 1_555
C9 C8 1_555 1_555
H14 C9 1_555 1_555
C10 C9 1_555 1_555
H15 C10 1_555 1_555
C11 C10 1_555 1_555
H16 C11 1_555 1_555
C12 C11 1_555 1_555
H17 C12 1_555 1_555
C13 C8 1_555 1_555
H18 C13 1_555 1_555
C14 C6 1_555 1_555
O3 C14 1_555 1_555
N2 C14 1_555 1_555
H19 N2 1_555 1_555
C15 N2 1_555 1_555
C16 C15 1_555 1_555
H20 C16 1_555 1_555
H21 C16 1_555 1_555
H22 C16 1_555 1_555
C17 C15 1_555 1_555
H23 C17 1_555 1_555
H24 C17 1_555 1_555
H25 C17 1_555 1_555
C18 C15 1_555 1_555
O4 C18 1_555 1_555
N3 C18 1_555 1_555
H26 N3 1_555 1_555
C19 N3 1_555 1_555
H27 C19 1_555 1_555
C20 C19 1_555 1_555
O5 C20 1_555 1_555
N4 C20 1_555 1_555
H28 N4 1_555 1_555
C21 N4 1_555 1_555
O6 C22 1_555 1_555
C22 C21 1_555 1_555
C23 O6 1_555 1_555
H29 C23 1_555 1_555
H30 C23 1_555 1_555
H31 C23 1_555 1_555
O7 C22 1_555 1_555
C24 C21 1_555 1_555
H32 C24 1_555 1_555
H33 C24 1_555 1_555
H34 C24 1_555 1_555
C25 C21 1_555 1_555
H35 C25 1_555 1_555
H36 C25 1_555 1_555
H37 C25 1_555 1_555
C26 C19 1_555 1_555
H38 C26 1_555 1_555
C27 C26 1_555 1_555
H39 C27 1_555 1_555
H40 C27 1_555 1_555
H41 C27 1_555 1_555
C28 C26 1_555 1_555
H42 C28 1_555 1_555
H43 C28 1_555 1_555
C29 C28 1_555 1_555
H44 C29 1_555 1_555
H45 C29 1_555 1_555
H46 C29 1_555 1_555
C12 C13 1_555 1_555

#END
