
#######################################################################
#
#                 Cambridge Crystallographic Data Centre
#                                CCDC 
#
#######################################################################
#
# If this CIF has been generated from an entry in the Cambridge 
# Structural Database, then it will include bibliographic, chemical, 
# crystal, experimental, refinement or atomic coordinate data resulting 
# from the CCDC's data processing and validation procedures.
#
#######################################################################

data_WAMVIQ
_chemical_formula_moiety         'C30 H20 O4'
_chemical_name_systematic        
cis-syn-3,3'-Diphenyl-3,3'-dihydroxy-[2,2'-bi-1H-indene]-1,1'-dione
_symmetry_cell_setting           monoclinic
_symmetry_space_group_name_H-M   'P 21/n'
_symmetry_Int_Tables_number      14
_space_group_name_Hall           '-P 2yn'
loop_
_symmetry_equiv_pos_site_id
_symmetry_equiv_pos_as_xyz
1 x,y,z
2 1/2-x,1/2+y,1/2-z
3 -x,-y,-z
4 1/2+x,1/2-y,1/2+z
_cell_length_a                   12.270(3)
_cell_length_b                   11.704(3)
_cell_length_c                   15.739(4)
_cell_angle_alpha                90
_cell_angle_beta                 99.752(4)
_cell_angle_gamma                90
_cell_volume                     2227.59
_exptl_crystal_colour            yellow
_exptl_crystal_description       prism
_chemical_melting_point          '300-302 deg.C'
_cell_formula_units_Z            4
loop_
_atom_site_label
_atom_site_type_symbol
_atom_site_fract_x
_atom_site_fract_y
_atom_site_fract_z
O1 O 0.53309(12) 0.20978(10) 0.22364(9)
O2 O 0.58534(11) -0.19113(11) 0.21071(9)
O3 O 0.36596(11) 0.19177(10) 0.08370(8)
O4 O 0.50482(11) -0.14744(11) 0.04207(8)
C1 C 0.50693(15) 0.00171(14) 0.19912(11)
C2 C 0.59492(15) -0.08923(15) 0.22621(11)
C3 C 0.68582(14) -0.03327(16) 0.28331(12)
C4 C 0.79032(16) -0.07592(18) 0.31599(13)
H1 H 0.8112 -0.1488 0.3016
C5 C 0.86182(17) -0.0075(2) 0.37006(14)
H2 H 0.9321 -0.0342 0.3929
C6 C 0.82993(18) 0.1014(2) 0.39083(14)
H3 H 0.8798 0.1468 0.4271
C7 C 0.72649(17) 0.14399(18) 0.35912(13)
H4 H 0.7061 0.2170 0.3737
C8 C 0.65309(15) 0.07478(15) 0.30460(11)
C9 C 0.53364(15) 0.10113(14) 0.26452(11)
C10 C 0.46288(15) 0.10147(17) 0.33643(11)
C11 C 0.42741(18) 0.0022(2) 0.36900(13)
H5 H 0.4424 -0.0676 0.3452
C12 C 0.3690(2) 0.0050(3) 0.43753(14)
H6 H 0.3443 -0.0627 0.4587
C13 C 0.3480(2) 0.1066(3) 0.47368(16)
H7 H 0.3090 0.1085 0.5195
C14 C 0.3843(3) 0.2056(3) 0.44233(17)
H8 H 0.3705 0.2750 0.4672
C15 C 0.4416(2) 0.2037(2) 0.37386(14)
H9 H 0.4658 0.2718 0.3530
C16 C 0.42886(14) -0.00323(14) 0.12819(11)
C17 C 0.42826(16) -0.08589(14) 0.05418(12)
C18 C 0.32460(16) -0.06934(15) -0.00535(12)
C19 C 0.28353(19) -0.13086(18) -0.07994(13)
H10 H 0.3231 -0.1918 -0.0975
C20 C 0.1834(2) -0.0992(2) -0.12674(14)
H11 H 0.1541 -0.1394 -0.1763
C21 C 0.1253(2) -0.0070(2) -0.10036(14)
H12 H 0.0575 0.0133 -0.1328
C22 C 0.16653(18) 0.05508(19) -0.02667(13)
H13 H 0.1274 0.1165 -0.0094
C23 C 0.26771(15) 0.02289(16) 0.02038(11)
C24 C 0.32908(14) 0.07854(14) 0.10198(11)
C25 C 0.25302(14) 0.08914(15) 0.16846(11)
C26 C 0.21196(16) -0.00841(17) 0.20121(13)
H14 H 0.2334 -0.0798 0.1840
C27 C 0.13941(17) -0.00095(19) 0.25913(14)
H15 H 0.1137 -0.0672 0.2817
C28 C 0.10519(17) 0.1038(2) 0.28347(14)
H16 H 0.0556 0.1089 0.3220
C29 C 0.14419(19) 0.1997(2) 0.25096(16)
H17 H 0.1213 0.2707 0.2678
C30 C 0.21767(16) 0.19397(17) 0.19295(14)
H18 H 0.2429 0.2607 0.1707
H19 H 0.4085(15) 0.1796(18) 0.0437(11)
H20 H 0.4715(13) 0.2159(19) 0.1830(11)
loop_
_geom_bond_atom_site_label_1
_geom_bond_atom_site_label_2
_geom_bond_site_symmetry_1
_geom_bond_site_symmetry_2
O1 C9 1_555 1_555
O2 C2 1_555 1_555
O3 C24 1_555 1_555
O4 C17 1_555 1_555
C1 C2 1_555 1_555
C2 C3 1_555 1_555
C3 C4 1_555 1_555
C4 H1 1_555 1_555
C5 C4 1_555 1_555
H2 C5 1_555 1_555
C6 C5 1_555 1_555
H3 C6 1_555 1_555
C7 C6 1_555 1_555
H4 C7 1_555 1_555
C8 C3 1_555 1_555
C9 C1 1_555 1_555
C10 C9 1_555 1_555
C11 C10 1_555 1_555
H5 C11 1_555 1_555
C12 C11 1_555 1_555
H6 C12 1_555 1_555
C13 C12 1_555 1_555
H7 C13 1_555 1_555
C14 C13 1_555 1_555
H8 C14 1_555 1_555
C15 C10 1_555 1_555
H9 C15 1_555 1_555
C16 C1 1_555 1_555
C17 C16 1_555 1_555
C18 C17 1_555 1_555
C19 C18 1_555 1_555
H10 C19 1_555 1_555
C20 C19 1_555 1_555
H11 C20 1_555 1_555
C21 C20 1_555 1_555
H12 C21 1_555 1_555
C22 C21 1_555 1_555
H13 C22 1_555 1_555
C23 C18 1_555 1_555
C24 C16 1_555 1_555
C25 C24 1_555 1_555
C26 C25 1_555 1_555
H14 C26 1_555 1_555
C27 C26 1_555 1_555
H15 C27 1_555 1_555
C28 C27 1_555 1_555
H16 C28 1_555 1_555
C29 C28 1_555 1_555
H17 C29 1_555 1_555
C30 C25 1_555 1_555
H18 C30 1_555 1_555
H19 O3 1_555 1_555
H20 O1 1_555 1_555
C7 C8 1_555 1_555
C8 C9 1_555 1_555
C14 C15 1_555 1_555
C22 C23 1_555 1_555
C23 C24 1_555 1_555
C29 C30 1_555 1_555

#END
