
#######################################################################
#
#                 Cambridge Crystallographic Data Centre
#                                CCDC 
#
#######################################################################
#
# If this CIF has been generated from an entry in the Cambridge 
# Structural Database, then it will include bibliographic, chemical, 
# crystal, experimental, refinement or atomic coordinate data resulting 
# from the CCDC's data processing and validation procedures.
#
#######################################################################

data_WAMVEM
_chemical_formula_moiety         'C30 H20 O4,2(C1 H2 Cl2)'
_chemical_name_systematic        
"trans-anti-3,3'-Diphenyl-3,3'-dihydroxy-[2,2'-bi-1H-indene]-1,1'-dione dichloromethane solvate"
_symmetry_cell_setting           triclinic
_symmetry_space_group_name_H-M   'P -1'
_symmetry_Int_Tables_number      2
_space_group_name_Hall           '-P 1'
loop_
_symmetry_equiv_pos_site_id
_symmetry_equiv_pos_as_xyz
1 x,y,z
2 -x,-y,-z
_cell_length_a                   8.411(5)
_cell_length_b                   10.274(5)
_cell_length_c                   10.334(5)
_cell_angle_alpha                112.033(9)
_cell_angle_beta                 103.684(8)
_cell_angle_gamma                108.570(9)
_cell_volume                     717.394
_exptl_crystal_colour            yellow
_exptl_crystal_description       plate
_chemical_melting_point          '290-292 deg.C'
_cell_formula_units_Z            1
loop_
_atom_site_label
_atom_site_type_symbol
_atom_site_fract_x
_atom_site_fract_y
_atom_site_fract_z
C1 C 0.3151(4) 0.8458(3) 0.0324(3)
C2 C 0.4395(4) 0.9941(3) 0.0325(3)
C3 C 0.3942(5) 1.1236(4) 0.1126(3)
C4 C 0.2393(4) 1.0563(4) 0.1461(3)
C5 C 0.1419(5) 1.1287(4) 0.2125(4)
H1 H 0.1762 1.2350 0.2462
C6 C -0.0055(6) 1.0376(6) 0.2263(4)
H2 H -0.0709 1.0833 0.2719
C7 C -0.0585(5) 0.8792(5) 0.1737(5)
H3 H -0.1607 0.8195 0.1823
C8 C 0.0381(5) 0.8070(4) 0.1080(4)
H4 H 0.0021 0.7003 0.0732
C9 C 0.1888(4) 0.8984(4) 0.0960(4)
C10 C 0.4229(5) 0.8036(4) 0.1389(4)
C11 C 0.5437(5) 0.9170(4) 0.2864(4)
H5 H 0.5651 1.0209 0.3192
C12 C 0.6343(6) 0.8795(5) 0.3873(5)
H6 H 0.7159 0.9578 0.4864
C13 C 0.6028(6) 0.7278(6) 0.3402(6)
H7 H 0.6618 0.7016 0.4076
C14 C 0.4845(7) 0.6131(5) 0.1935(6)
H8 H 0.4656 0.5098 0.1612
C15 C 0.3927(5) 0.6497(4) 0.0929(4)
H9 H 0.3105 0.5707 -0.0058
O1 O 0.2042(3) 0.7177(2) -0.1173(2)
H12 H 0.2698 0.6942 -0.1594
O2 O 0.4743(3) 1.2610(3) 0.1440(3)
C1A C 0.6849(4) 1.1542(3) -0.0324(3)
C2A C 0.5605(4) 1.0059(3) -0.0325(3)
C3A C 0.6058(5) 0.8764(4) -0.1126(3)
C4A C 0.7607(4) 0.9437(4) -0.1461(3)
C5A C 0.8581(5) 0.8713(4) -0.2125(4)
H1A H 0.8238 0.7650 -0.2462
C6A C 1.0055(6) 0.9624(6) -0.2263(4)
H2A H 1.0709 0.9167 -0.2719
C7A C 1.0585(5) 1.1208(5) -0.1737(5)
H3A H 1.1607 1.1805 -0.1823
C8A C 0.9619(5) 1.1930(4) -0.1080(4)
H4A H 0.9979 1.2997 -0.0732
C9A C 0.8112(4) 1.1016(4) -0.0960(4)
C10A C 0.5771(5) 1.1964(4) -0.1389(4)
C11A C 0.4563(5) 1.0830(4) -0.2864(4)
H5A H 0.4349 0.9791 -0.3192
C12A C 0.3657(6) 1.1205(5) -0.3873(5)
H6A H 0.2841 1.0422 -0.4864
C13A C 0.3972(6) 1.2722(6) -0.3402(6)
H7A H 0.3382 1.2984 -0.4076
C14A C 0.5155(7) 1.3869(5) -0.1935(6)
H8A H 0.5344 1.4902 -0.1612
C15A C 0.6073(5) 1.3503(4) -0.0929(4)
H9A H 0.6895 1.4293 0.0058
O1A O 0.7958(3) 1.2823(2) 0.1173(2)
H12A H 0.7302 1.3058 0.1594
O2A O 0.5257(3) 0.7390(3) -0.1440(3)
C16 C 0.1573(7) 0.6034(8) 0.3559(5)
H10 H 0.2337 0.6662 0.3235
H11 H 0.0855 0.4974 0.2699
Cl1 Cl 0.3041(2) 0.59621(17) 0.50709(16)
Cl2 Cl 0.0140(2) 0.67584(17) 0.39591(19)
loop_
_geom_bond_atom_site_label_1
_geom_bond_atom_site_label_2
_geom_bond_site_symmetry_1
_geom_bond_site_symmetry_2
C1 C2 1_555 1_555
C2 C3 1_555 1_555
C3 C4 1_555 1_555
C4 C5 1_555 1_555
C5 H1 1_555 1_555
C6 C5 1_555 1_555
H2 C6 1_555 1_555
C7 C6 1_555 1_555
H3 C7 1_555 1_555
C8 C7 1_555 1_555
H4 C8 1_555 1_555
C9 C1 1_555 1_555
C10 C1 1_555 1_555
C11 C10 1_555 1_555
H5 C11 1_555 1_555
C12 C11 1_555 1_555
H6 C12 1_555 1_555
C13 C12 1_555 1_555
H7 C13 1_555 1_555
C14 C13 1_555 1_555
H8 C14 1_555 1_555
C15 C10 1_555 1_555
H9 C15 1_555 1_555
C16 H10 1_555 1_555
H11 C16 1_555 1_555
Cl1 C16 1_555 1_555
Cl2 C16 1_555 1_555
O1 C1 1_555 1_555
H12 O1 1_555 1_555
O2 C3 1_555 1_555
C1A C2A 1_555 1_555
C2A C2 1_555 1_555
C3A C2A 1_555 1_555
C4A C3A 1_555 1_555
C5A C4A 1_555 1_555
H1A C5A 1_555 1_555
C6A C5A 1_555 1_555
H2A C6A 1_555 1_555
C7A C6A 1_555 1_555
H3A C7A 1_555 1_555
C8A C7A 1_555 1_555
H4A C8A 1_555 1_555
C9A C1A 1_555 1_555
C10A C1A 1_555 1_555
C11A C10A 1_555 1_555
H5A C11A 1_555 1_555
C12A C11A 1_555 1_555
H6A C12A 1_555 1_555
C13A C12A 1_555 1_555
H7A C13A 1_555 1_555
C14A C13A 1_555 1_555
H8A C14A 1_555 1_555
C15A C10A 1_555 1_555
H9A C15A 1_555 1_555
O1A C1A 1_555 1_555
H12A O1A 1_555 1_555
O2A C3A 1_555 1_555
C4 C9 1_555 1_555
C8 C9 1_555 1_555
C14 C15 1_555 1_555
C4A C9A 1_555 1_555
C8A C9A 1_555 1_555
C14A C15A 1_555 1_555

#END
