
#######################################################################
#
#                 Cambridge Crystallographic Data Centre
#                                CCDC 
#
#######################################################################
#
# If this CIF has been generated from an entry in the Cambridge 
# Structural Database, then it will include bibliographic, chemical, 
# crystal, experimental, refinement or atomic coordinate data resulting 
# from the CCDC's data processing and validation procedures.
#
#######################################################################

data_WANCEW
_chemical_name_common            
'2,2,7,8,12,13,17,18-octaethyl-3-oxo-2,3-dihydroporphyrin-5-yl formate chloroform solvate'
_chemical_formula_moiety         'C37 H46 N4 O3,C1 H1 Cl3'
_chemical_name_systematic        
'3,3,7,8,12,13,17,18-octaethyl-2-oxo-20-formyloxychlorin chloroform solvate'
_symmetry_cell_setting           monoclinic
_symmetry_space_group_name_H-M   'P 21/c'
_symmetry_Int_Tables_number      14
_space_group_name_Hall           '-P 2ybc'
loop_
_symmetry_equiv_pos_site_id
_symmetry_equiv_pos_as_xyz
1 x,y,z
2 -x,1/2+y,1/2-z
3 -x,-y,-z
4 x,1/2-y,1/2+z
_cell_length_a                   8.6273(3)
_cell_length_b                   14.7450(6)
_cell_length_c                   28.7211(11)
_cell_angle_alpha                90
_cell_angle_beta                 96.4216(17)
_cell_angle_gamma                90
_cell_volume                     3630.67
_exptl_crystal_colour            green
_exptl_crystal_description       plate
_cell_formula_units_Z            4
loop_
_atom_site_label
_atom_site_type_symbol
_atom_site_fract_x
_atom_site_fract_y
_atom_site_fract_z
C1 C 0.2573(3) 0.54371(19) 0.36186(10)
C2 C 0.3038(3) 0.55049(19) 0.41442(10)
C3 C 0.3133(3) 0.6524(2) 0.42049(11)
C4 C 0.2787(3) 0.69184(19) 0.37296(10)
C5 C 0.2845(3) 0.78348(19) 0.36340(10)
C6 C 0.2658(3) 0.82829(18) 0.31996(10)
C7 C 0.2748(3) 0.92285(18) 0.30934(10)
C8 C 0.2461(3) 0.93085(19) 0.26117(10)
C9 C 0.2197(3) 0.84276(18) 0.24177(10)
C10 C 0.1801(3) 0.82051(19) 0.19476(10)
H1 H 0.1758 0.8700 0.1735
C11 C 0.1462(3) 0.73629(18) 0.17464(10)
C12 C 0.1023(3) 0.72282(19) 0.12422(10)
C13 C 0.0772(3) 0.63294(18) 0.11810(10)
C14 C 0.1075(3) 0.59214(18) 0.16498(10)
C15 C 0.1044(3) 0.49854(18) 0.17308(10)
H2 H 0.0751 0.4610 0.1467
C16 C 0.1397(3) 0.45550(18) 0.21559(10)
C17 C 0.1575(3) 0.35971(18) 0.22502(10)
C18 C 0.1966(3) 0.34959(18) 0.27227(10)
C19 C 0.2020(3) 0.43870(18) 0.29309(10)
C20 C 0.2370(3) 0.45897(19) 0.34033(10)
H3 H 0.2488 0.4082 0.3608
C21 C 0.4643(4) 0.5084(2) 0.42969(11)
H4 H 0.4947 0.5234 0.4631
H5 H 0.4551 0.4416 0.4272
C22 C 0.5937(4) 0.5396(3) 0.40131(13)
H6 H 0.6039 0.6057 0.4034
H7 H 0.5679 0.5219 0.3685
H8 H 0.6924 0.5112 0.4138
C23 C 0.1821(4) 0.5119(2) 0.44413(11)
H9 H 0.1738 0.4457 0.4387
H10 H 0.2195 0.5213 0.4776
C24 C 0.0215(4) 0.5533(3) 0.43416(13)
H11 H -0.0488 0.5256 0.4547
H12 H -0.0186 0.5424 0.4014
H13 H 0.0277 0.6188 0.4400
C25 C 0.3090(3) 1.00108(19) 0.34275(10)
H14 H 0.2451 0.9941 0.3691
H15 H 0.2766 1.0581 0.3263
C26 C 0.4797(4) 1.0093(2) 0.36255(11)
H16 H 0.4938 1.0636 0.3823
H17 H 0.5445 1.0141 0.3367
H18 H 0.5105 0.9556 0.3814
C27 C 0.2488(4) 1.01696(19) 0.23339(11)
H19 H 0.1911 1.0646 0.2485
H20 H 0.1949 1.0067 0.2015
C28 C 0.4143(4) 1.0499(2) 0.22949(12)
H21 H 0.4650 1.0656 0.2607
H22 H 0.4108 1.1035 0.2092
H23 H 0.4737 1.0017 0.2160
C29 C 0.0994(4) 0.7949(2) 0.08741(11)
H24 H 0.0670 0.8531 0.1005
H25 H 0.0215 0.7787 0.0608
C30 C 0.2591(4) 0.8066(3) 0.06980(13)
H26 H 0.2532 0.8545 0.0460
H27 H 0.2903 0.7495 0.0561
H28 H 0.3362 0.8234 0.0961
C31 C 0.0300(3) 0.58247(19) 0.07341(10)
H29 H -0.0160 0.6260 0.0495
H30 H -0.0519 0.5380 0.0789
C32 C 0.1646(4) 0.5324(2) 0.05410(11)
H31 H 0.2059 0.4860 0.0766
H32 H 0.2473 0.5757 0.0491
H33 H 0.1266 0.5035 0.0243
C33 C 0.1444(3) 0.28782(19) 0.18795(10)
H34 H 0.0534 0.3013 0.1648
H35 H 0.1256 0.2286 0.2026
C34 C 0.2903(4) 0.2808(2) 0.16246(12)
H36 H 0.3813 0.2689 0.1852
H37 H 0.3056 0.3379 0.1461
H38 H 0.2775 0.2312 0.1397
C35 C 0.2400(3) 0.26476(18) 0.29903(10)
H39 H 0.1957 0.2117 0.2810
H40 H 0.1951 0.2662 0.3293
C36 C 0.4184(4) 0.2545(2) 0.30825(11)
H41 H 0.4627 0.3080 0.3251
H42 H 0.4622 0.2489 0.2783
H43 H 0.4438 0.2001 0.3272
C37 C 0.2074(4) 0.8555(2) 0.43069(12)
H44 H 0.2364 0.8876 0.4590
N1 N 0.2463(3) 0.62427(15) 0.34020(8)
N2 N 0.2333(3) 0.78249(15) 0.27838(8)
H45 H 0.2228 0.7233 0.2756
N3 N 0.1466(3) 0.65584(15) 0.19840(8)
N4 N 0.1691(3) 0.49992(15) 0.25783(8)
H46 H 0.1669 0.5591 0.2615
O1 O 0.3439(3) 0.69113(14) 0.45811(7)
O2 O 0.3222(3) 0.84051(13) 0.40216(7)
O3 O 0.0747(3) 0.83197(19) 0.42328(9)
C38 C 0.3765(10) 0.2139(4) 0.4865(2)
H47 H 0.4708 0.2511 0.4972
Cl1 Cl 0.3143(13) 0.2391(7) 0.4271(2)
Cl2 Cl 0.2302(2) 0.2376(4) 0.52221(7)
Cl3 Cl 0.4265(4) 0.0984(3) 0.49015(13)
C39? C 0.381(5) 0.2251(19) 0.4834(12)
H48? H 0.4860 0.2537 0.4904
Cl4? Cl 0.324(6) 0.240(3) 0.4229(10)
Cl5? Cl 0.2540(15) 0.2833(16) 0.5161(4)
Cl6? Cl 0.399(3) 0.1119(13) 0.5008(8)
loop_
_geom_bond_atom_site_label_1
_geom_bond_atom_site_label_2
_geom_bond_site_symmetry_1
_geom_bond_site_symmetry_2
C1 C2 1_555 1_555
C2 C3 1_555 1_555
C3 C4 1_555 1_555
C4 C5 1_555 1_555
C5 C6 1_555 1_555
C6 C7 1_555 1_555
C7 C8 1_555 1_555
C8 C9 1_555 1_555
C9 C10 1_555 1_555
C10 H1 1_555 1_555
C11 C10 1_555 1_555
C12 C11 1_555 1_555
C13 C12 1_555 1_555
C14 C13 1_555 1_555
C15 C14 1_555 1_555
H2 C15 1_555 1_555
C16 C15 1_555 1_555
C17 C16 1_555 1_555
C18 C17 1_555 1_555
C19 C18 1_555 1_555
C20 C1 1_555 1_555
H3 C20 1_555 1_555
C21 C2 1_555 1_555
H4 C21 1_555 1_555
H5 C21 1_555 1_555
C22 C21 1_555 1_555
H6 C22 1_555 1_555
H7 C22 1_555 1_555
H8 C22 1_555 1_555
C23 C2 1_555 1_555
H9 C23 1_555 1_555
H10 C23 1_555 1_555
C24 C23 1_555 1_555
H11 C24 1_555 1_555
H12 C24 1_555 1_555
H13 C24 1_555 1_555
C25 C7 1_555 1_555
H14 C25 1_555 1_555
H15 C25 1_555 1_555
C26 C25 1_555 1_555
H16 C26 1_555 1_555
H17 C26 1_555 1_555
H18 C26 1_555 1_555
C27 C8 1_555 1_555
H19 C27 1_555 1_555
H20 C27 1_555 1_555
C28 C27 1_555 1_555
H21 C28 1_555 1_555
H22 C28 1_555 1_555
H23 C28 1_555 1_555
C29 C12 1_555 1_555
H24 C29 1_555 1_555
H25 C29 1_555 1_555
C30 C29 1_555 1_555
H26 C30 1_555 1_555
H27 C30 1_555 1_555
H28 C30 1_555 1_555
C31 C13 1_555 1_555
H29 C31 1_555 1_555
H30 C31 1_555 1_555
C32 C31 1_555 1_555
H31 C32 1_555 1_555
H32 C32 1_555 1_555
H33 C32 1_555 1_555
C33 C17 1_555 1_555
H34 C33 1_555 1_555
H35 C33 1_555 1_555
C34 C33 1_555 1_555
H36 C34 1_555 1_555
H37 C34 1_555 1_555
H38 C34 1_555 1_555
C35 C18 1_555 1_555
H39 C35 1_555 1_555
H40 C35 1_555 1_555
C36 C35 1_555 1_555
H41 C36 1_555 1_555
H42 C36 1_555 1_555
H43 C36 1_555 1_555
C37 H44 1_555 1_555
N1 C1 1_555 1_555
N2 C6 1_555 1_555
H45 N2 1_555 1_555
N3 C11 1_555 1_555
N4 C16 1_555 1_555
H46 N4 1_555 1_555
O1 C3 1_555 1_555
O2 C5 1_555 1_555
O3 C37 1_555 1_555
C38 H47 1_555 1_555
Cl1 C38 1_555 1_555
Cl2 C38 1_555 1_555
Cl3 C38 1_555 1_555
C4 N1 1_555 1_555
C9 N2 1_555 1_555
C14 N3 1_555 1_555
C19 C20 1_555 1_555
C19 N4 1_555 1_555
C37 O2 1_555 1_555

#END
