
#######################################################################
#
#                 Cambridge Crystallographic Data Centre
#                                CCDC 
#
#######################################################################
#
# If this CIF has been generated from an entry in the Cambridge 
# Structural Database, then it will include bibliographic, chemical, 
# crystal, experimental, refinement or atomic coordinate data resulting 
# from the CCDC's data processing and validation procedures.
#
#######################################################################

data_WANDOF
_chemical_formula_moiety         
'C12 H9 N4 O1 1+,0.5(C10 H4 O8 2-),0.5(C10 H6 O8),H2 O1'
_chemical_name_systematic        
'(2-(4-Pyridyl)-5-(4-pyridinio)-1,3,4-oxadiazole) hemikis(benzene-2,5-dicarboxy-1,4-dicarboxylate) hemikis(benzene-1,2,4,5-tetracarboxylic acid) monohydrate clathrate'
_symmetry_cell_setting           triclinic
_symmetry_space_group_name_H-M   'P -1'
_symmetry_Int_Tables_number      2
_space_group_name_Hall           '-P 1'
loop_
_symmetry_equiv_pos_site_id
_symmetry_equiv_pos_as_xyz
1 x,y,z
2 -x,-y,-z
_cell_length_a                   7.779(2)
_cell_length_b                   11.569(3)
_cell_length_c                   12.540(4)
_cell_angle_alpha                101.478(5)
_cell_angle_beta                 102.953(5)
_cell_angle_gamma                90.168(5)
_cell_volume                     1076.49
_exptl_crystal_colour            colorless
_exptl_crystal_description       block
_chemical_melting_point          248.4-248.8deg.C
_cell_formula_units_Z            2
loop_
_atom_site_label
_atom_site_type_symbol
_atom_site_fract_x
_atom_site_fract_y
_atom_site_fract_z
O1 O 0.5770(3) 0.31547(18) 0.45689(19)
O2 O 0.8002(3) 0.24246(18) 0.55455(19)
O3 O 0.5159(3) 0.4632(2) 0.3456(2)
H1 H 0.5336 0.4069 0.3936
O4 O 0.6517(3) 0.60961(18) 0.30910(17)
C1 C 0.7387(4) 0.3180(2) 0.5026(2)
C2 C 0.8646(3) 0.4154(2) 0.4950(2)
C3 C 0.8267(3) 0.5069(2) 0.43570(19)
C4 C 0.6546(3) 0.5288(2) 0.3586(2)
C5 C 1.0357(3) 0.4123(2) 0.55687(19)
H5 H 1.0605 0.3519 0.5963
O1A O 1.4230(3) 0.68453(18) 0.54311(19)
O2A O 1.1998(3) 0.75754(18) 0.44545(19)
O3A O 1.4841(3) 0.5368(2) 0.6544(2)
H1A H 1.4664 0.5931 0.6064
O4A O 1.3483(3) 0.39039(18) 0.69090(17)
C1A C 1.2613(4) 0.6820(2) 0.4974(2)
C2A C 1.1354(3) 0.5846(2) 0.5050(2)
C3A C 1.1733(3) 0.4931(2) 0.56430(19)
C4A C 1.3454(3) 0.4712(2) 0.6414(2)
C5A C 0.9643(3) 0.5877(2) 0.44313(19)
H5A H 0.9395 0.6481 0.4037
O5 O 1.0763(2) 0.29736(14) 0.95948(15)
H2 H 1.0567 0.3685 0.9293
O6 O 0.8282(2) 0.22382(16) 0.83911(17)
O7 O 1.3182(2) 0.13887(17) 0.89018(15)
H3 H 1.3921 0.1909 0.8934
O8 O 1.4368(3) 0.1561(2) 1.07171(18)
C6 C 0.9585(3) 0.2148(2) 0.9120(2)
C7 C 0.9845(3) 0.10279(19) 0.95569(19)
C8 C 0.8361(3) 0.0387(2) 0.9604(2)
H6 H 0.7248 0.0647 0.9334
C9 C 1.1515(3) 0.06282(19) 0.99603(19)
C10 C 1.3179(3) 0.1254(2) 0.9915(2)
O5A O 0.9237(2) -0.29736(14) 1.04052(15)
H2A H 0.9433 -0.3685 1.0707
O6A O 1.1718(2) -0.22382(16) 1.16089(17)
O7A O 0.6818(2) -0.13887(17) 1.10982(15)
H3A H 0.6079 -0.1909 1.1066
O8A O 0.5632(3) -0.1561(2) 0.92829(18)
C6A C 1.0415(3) -0.2148(2) 1.0880(2)
C7A C 1.0155(3) -0.10279(19) 1.04431(19)
C8A C 1.1639(3) -0.0387(2) 1.0396(2)
H6A H 1.2752 -0.0647 1.0666
C9A C 0.8485(3) -0.06282(19) 1.00397(19)
C10A C 0.6821(3) -0.1254(2) 1.0085(2)
O9 O 0.21145(19) 0.83535(13) 0.73871(13)
N1 N 0.5468(3) 1.12203(17) 0.60449(17)
H4 H 0.6364 1.1624 0.5838
N2 N -0.0047(3) 0.93465(19) 0.66108(19)
N3 N -0.0774(3) 0.84367(19) 0.69862(19)
N4 N 0.0479(3) 0.47974(17) 0.87245(18)
C11 C 0.3774(3) 1.1441(2) 0.5715(2)
H7 H 0.3460 1.2017 0.5294
C12 C 0.2494(3) 1.0823(2) 0.5992(2)
H8 H 0.1311 1.0987 0.5778
C13 C 0.2988(3) 0.99499(19) 0.65957(19)
C14 C 0.4765(3) 0.9733(2) 0.6919(2)
H9 H 0.5118 0.9146 0.7319
C15 C 0.5985(3) 1.0396(2) 0.6639(2)
H10 H 0.7181 1.0273 0.6864
C16 C 0.1635(3) 0.9254(2) 0.68572(19)
C17 C 0.0539(3) 0.7879(2) 0.74270(19)
C18 C 0.0525(3) 0.6830(2) 0.79106(19)
C19 C -0.1035(3) 0.6154(2) 0.7702(2)
H11 H -0.2082 0.6382 0.7291
C20 C -0.0992(4) 0.5138(2) 0.8119(2)
H12 H -0.2028 0.4673 0.7973
C21 C 0.1967(3) 0.5463(2) 0.8936(2)
H13 H 0.2987 0.5228 0.9369
C22 C 0.2054(3) 0.6481(2) 0.8542(2)
H14 H 0.3113 0.6924 0.8696
O10 O 0.4830(2) 0.68892(18) 0.12601(17)
H15 H 0.5263 0.6591 0.1842
H16 H 0.3793 0.7079 0.1408
loop_
_geom_bond_atom_site_label_1
_geom_bond_atom_site_label_2
_geom_bond_site_symmetry_1
_geom_bond_site_symmetry_2
O1 C1 1_555 1_555
O2 C1 1_555 1_555
O3 H1 1_555 1_555
O4 C4 1_555 1_555
O5 H2 1_555 1_555
O6 C6 1_555 1_555
O7 H3 1_555 1_555
O8 C10 1_555 1_555
O9 C16 1_555 1_555
N1 H4 1_555 1_555
N2 N3 1_555 1_555
N3 C17 1_555 1_555
N4 C20 1_555 1_555
C1 C2 1_555 1_555
C2 C3 1_555 1_555
C3 C4 1_555 1_555
C4 O3 1_555 1_555
C5 C2 1_555 1_555
H5 C5 1_555 1_555
C6 O5 1_555 1_555
C7 C6 1_555 1_555
C8 C7 1_555 1_555
H6 C8 1_555 1_555
C9 C7 1_555 1_555
C10 O7 1_555 1_555
C11 N1 1_555 1_555
H7 C11 1_555 1_555
C12 C11 1_555 1_555
H8 C12 1_555 1_555
C13 C12 1_555 1_555
C14 C13 1_555 1_555
H9 C14 1_555 1_555
C15 N1 1_555 1_555
H10 C15 1_555 1_555
C16 N2 1_555 1_555
C17 O9 1_555 1_555
C18 C17 1_555 1_555
C19 C18 1_555 1_555
H11 C19 1_555 1_555
C20 C19 1_555 1_555
H12 C20 1_555 1_555
C21 N4 1_555 1_555
H13 C21 1_555 1_555
C22 C18 1_555 1_555
H14 C22 1_555 1_555
O10 H15 1_555 1_555
H16 O10 1_555 1_555
O1A C1A 1_555 1_555
O2A C1A 1_555 1_555
O3A H1A 1_555 1_555
O4A C4A 1_555 1_555
O5A H2A 1_555 1_555
O6A C6A 1_555 1_555
O7A H3A 1_555 1_555
O8A C10A 1_555 1_555
C1A C2A 1_555 1_555
C2A C3A 1_555 1_555
C3A C5 1_555 1_555
C4A O3A 1_555 1_555
C5A C3 1_555 1_555
H5A C5A 1_555 1_555
C6A O5A 1_555 1_555
C7A C6A 1_555 1_555
C8A C9 1_555 1_555
H6A C8A 1_555 1_555
C9A C8 1_555 1_555
C10A O7A 1_555 1_555
C9 C10 1_555 1_555
C13 C16 1_555 1_555
C14 C15 1_555 1_555
C21 C22 1_555 1_555
C2A C5A 1_555 1_555
C3A C4A 1_555 1_555
C7A C8A 1_555 1_555
C7A C9A 1_555 1_555
C9A C10A 1_555 1_555

#END
