
#######################################################################
#
#                 Cambridge Crystallographic Data Centre
#                                CCDC 
#
#######################################################################
#
# If this CIF has been generated from an entry in the Cambridge 
# Structural Database, then it will include bibliographic, chemical, 
# crystal, experimental, refinement or atomic coordinate data resulting 
# from the CCDC's data processing and validation procedures.
#
#######################################################################

data_WANHUO
_chemical_name_common            'Thiamine dithiocyanate'
_chemical_formula_moiety         'C12 H18 N4 O1 S1 2+,2(C1 N1 S1 1-)'
_chemical_name_systematic        
'4-Amino-5-((5-hydroxyethyl-4-methylthiazol-3-yl)methyl)-2-methyl-1-pyrimidinium dithiocyanate'
_chemical_properties_biological  'important coenzyme metabolic activity'
_symmetry_cell_setting           orthorhombic
_symmetry_space_group_name_H-M   'P b c a'
_symmetry_Int_Tables_number      61
_space_group_name_Hall           '-P 2ac 2ab'
loop_
_symmetry_equiv_pos_site_id
_symmetry_equiv_pos_as_xyz
1 x,y,z
2 1/2-x,1/2+y,z
3 x,1/2-y,1/2+z
4 1/2-x,-y,1/2+z
5 -x,-y,-z
6 1/2+x,1/2-y,-z
7 -x,1/2+y,1/2-z
8 1/2+x,y,1/2-z
_cell_length_a                   8.029(1)
_cell_length_b                   23.091(5)
_cell_length_c                   20.110(5)
_cell_angle_alpha                90
_cell_angle_beta                 90
_cell_angle_gamma                90
_cell_volume                     3728.35
_exptl_crystal_colour            colorless
_cell_formula_units_Z            8
loop_
_atom_site_label
_atom_site_type_symbol
_atom_site_fract_x
_atom_site_fract_y
_atom_site_fract_z
N1 N 0.7985(4) 0.0979(2) 0.1052(2)
C1 C 0.7009(6) 0.0729(2) 0.1520(2)
N2 N 0.5504(4) 0.0552(2) 0.1390(2)
C2 C 0.4886(5) 0.0630(2) 0.0767(2)
C3 C 0.5880(6) 0.0875(2) 0.0253(2)
C4 C 0.7437(6) 0.1042(2) 0.0423(2)
C5 C 0.7732(7) 0.0660(2) 0.2195(3)
N3 N 0.3335(4) 0.0455(2) 0.0667(2)
C6 C 0.5338(6) 0.0898(2) -0.0458(2)
S1 S 0.2359(2) 0.2247(1) -0.0546(1)
C7 C 0.3664(6) 0.1770(2) -0.0195(2)
N4 N 0.4194(4) 0.1379(1) -0.0622(2)
C8 C 0.3585(6) 0.1451(2) -0.1263(2)
C9 C 0.2559(6) 0.1910(2) -0.1311(2)
C10 C 0.4084(7) 0.1043(2) -0.1802(2)
C11 C 0.1639(7) 0.2116(2) -0.1918(2)
C12 C 0.1524(7) 0.2768(2) -0.1977(2)
O1 O 0.0652(4) 0.3017(1) -0.1433(2)
H1 H 0.919 0.116 0.117
H2 H 0.810 0.125 0.006
H3 H 0.885 0.049 0.220
H4 H 0.704 0.041 0.247
H5 H 0.782 0.103 0.242
H6 H 0.277 0.050 0.017
H7 H 0.270 0.035 0.112
H8 H 0.480 0.049 -0.061
H9 H 0.636 0.090 -0.073
H10 H 0.397 0.175 0.032
H11 H 0.386 0.063 -0.173
H12 H 0.525 0.108 -0.189
H13 H 0.348 0.114 -0.221
H14 H 0.223 0.199 -0.234
H15 H 0.054 0.194 -0.188
H16 H 0.098 0.283 -0.245
H17 H 0.270 0.300 -0.197
H18 H -0.033 0.278 -0.126
S2 S 1.2310(2) 0.2715(1) 0.1148(1)
C13 C 1.1388(6) 0.2079(2) 0.1220(2)
N5 N 1.0801(6) 0.1638(2) 0.1270(2)
S3 S -0.0936(2) 0.0538(1) -0.1516(1)
C14 C 0.0439(6) 0.0505(2) -0.0918(2)
N6 N 0.1406(6) 0.0477(2) -0.0512(2)
loop_
_geom_bond_atom_site_label_1
_geom_bond_atom_site_label_2
_geom_bond_site_symmetry_1
_geom_bond_site_symmetry_2
N1 C1 1_555 1_555
C1 N2 1_555 1_555
N2 C2 1_555 1_555
C2 C3 1_555 1_555
C3 C4 1_555 1_555
C4 N1 1_555 1_555
C5 C1 1_555 1_555
N3 C2 1_555 1_555
C6 C3 1_555 1_555
S1 C7 1_555 1_555
C7 N4 1_555 1_555
N4 C6 1_555 1_555
C8 N4 1_555 1_555
C9 S1 1_555 1_555
C10 C8 1_555 1_555
C11 C9 1_555 1_555
C12 C11 1_555 1_555
O1 C12 1_555 1_555
S2 C13 1_555 1_555
C13 N5 1_555 1_555
S3 C14 1_555 1_555
C14 N6 1_555 1_555
H1 N1 1_555 1_555
H2 C4 1_555 1_555
H3 C5 1_555 1_555
H4 C5 1_555 1_555
H5 C5 1_555 1_555
H6 N3 1_555 1_555
H7 N3 1_555 1_555
H8 C6 1_555 1_555
H9 C6 1_555 1_555
H10 C7 1_555 1_555
H11 C10 1_555 1_555
H12 C10 1_555 1_555
H13 C10 1_555 1_555
H14 C11 1_555 1_555
H15 C11 1_555 1_555
H16 C12 1_555 1_555
H17 C12 1_555 1_555
H18 O1 1_555 1_555
C8 C9 1_555 1_555

#END
