
#######################################################################
#
#                 Cambridge Crystallographic Data Centre
#                                CCDC 
#
#######################################################################
#
# If this CIF has been generated from an entry in the Cambridge 
# Structural Database, then it will include bibliographic, chemical, 
# crystal, experimental, refinement or atomic coordinate data resulting 
# from the CCDC's data processing and validation procedures.
#
#######################################################################

data_WANLON02
_chemical_formula_moiety         'C28 H32 B2 O4'
_chemical_name_systematic        
Pyrene-2,7-bis(4,4,5,5-tetramethyl-[1,3,2]dioxaborolane)
_symmetry_cell_setting           monoclinic
_symmetry_space_group_name_H-M   'P 21/n'
_symmetry_Int_Tables_number      14
_space_group_name_Hall           '-P 2yn'
loop_
_symmetry_equiv_pos_site_id
_symmetry_equiv_pos_as_xyz
1 x,y,z
2 1/2-x,1/2+y,1/2-z
3 -x,-y,-z
4 1/2+x,1/2-y,1/2+z
_cell_length_a                   6.4525(1)
_cell_length_b                   11.0823(2)
_cell_length_c                   16.9139(3)
_cell_angle_alpha                90
_cell_angle_beta                 93.286(9)
_cell_angle_gamma                90
_cell_volume                     1207.5
_exptl_crystal_colour            colorless
_exptl_crystal_description       pyramid
_cell_formula_units_Z            2
loop_
_atom_site_label
_atom_site_type_symbol
_atom_site_fract_x
_atom_site_fract_y
_atom_site_fract_z
O1 O -0.13474(14) 0.81243(9) 0.32852(6)
O2 O 0.11983(14) 0.94769(9) 0.36751(6)
C1 C 0.1216(2) 0.60839(13) 0.40761(8)
H1 H -0.0067 0.5892 0.3828
C2 C 0.1848(2) 0.72844(14) 0.41016(8)
C3 C 0.3747(2) 0.75660(14) 0.45003(8)
H2 H 0.4192 0.8366 0.4520
C4 C 0.6970(2) 0.69603(14) 0.52667(8)
H3 H 0.7406 0.7761 0.5303
C5 C 0.8193(2) 0.60842(14) 0.56031(9)
H4 H 0.9462 0.6291 0.5856
C6 C 0.5016(2) 0.66815(13) 0.48622(8)
C7 C 0.4361(2) 0.54626(13) 0.48205(8)
C8 C 0.2424(2) 0.51562(14) 0.44246(8)
C9 C -0.1815(2) 0.92395(13) 0.28408(8)
C10 C -0.0511(2) 1.01953(14) 0.33208(8)
C11 C -0.4142(2) 0.94641(15) 0.28118(9)
H5 H -0.4436 1.0250 0.2592
H6 H -0.4632 0.9423 0.3338
H7 H -0.4832 0.8860 0.2485
C12 C -0.1095(2) 0.90372(15) 0.20159(9)
H8 H 0.0377 0.8896 0.2046
H9 H -0.1403 0.9735 0.1691
H10 H -0.1798 0.8345 0.1787
C13 C -0.1639(2) 1.07237(15) 0.40085(9)
H11 H -0.2758 1.1229 0.3805
H12 H -0.0687 1.1197 0.4339
H13 H -0.2186 1.0079 0.4315
C14 C 0.0374(2) 1.11854(15) 0.28262(10)
H14 H 0.1298 1.0830 0.2465
H15 H 0.1127 1.1753 0.3163
H16 H -0.0732 1.1596 0.2531
B1 B 0.0531(2) 0.83057(16) 0.36850(10)
O1B O 1.13474(14) 0.18757(9) 0.67148(6)
O2B O 0.88017(14) 0.05231(9) 0.63249(6)
C1B C 0.8784(2) 0.39161(13) 0.59239(8)
H1B H 1.0067 0.4108 0.6172
C2B C 0.8152(2) 0.27156(14) 0.58984(8)
C3B C 0.6253(2) 0.24340(14) 0.54997(8)
H2B H 0.5808 0.1634 0.5480
C4B C 0.3030(2) 0.30397(14) 0.47333(8)
H3B H 0.2594 0.2239 0.4697
C5B C 0.1807(2) 0.39158(14) 0.43969(9)
H4B H 0.0538 0.3709 0.4144
C6B C 0.4984(2) 0.33185(13) 0.51378(8)
C7B C 0.5639(2) 0.45374(13) 0.51795(8)
C8B C 0.7576(2) 0.48438(14) 0.55754(8)
C9B C 1.1815(2) 0.07605(13) 0.71592(8)
C10B C 1.0511(2) -0.01953(14) 0.66792(8)
C11B C 1.4142(2) 0.05359(15) 0.71882(9)
H5B H 1.4436 -0.0250 0.7408
H6B H 1.4632 0.0577 0.6662
H7B H 1.4832 0.1140 0.7515
C12B C 1.1095(2) 0.09628(15) 0.79841(9)
H8B H 0.9623 0.1104 0.7954
H9B H 1.1403 0.0265 0.8309
H10B H 1.1798 0.1655 0.8213
C13B C 1.1639(2) -0.07237(15) 0.59915(9)
H11B H 1.2758 -0.1229 0.6195
H12B H 1.0687 -0.1197 0.5661
H13B H 1.2186 -0.0079 0.5685
C14B C 0.9626(2) -0.11854(15) 0.71738(10)
H14B H 0.8702 -0.0830 0.7535
H15B H 0.8873 -0.1753 0.6837
H16B H 1.0732 -0.1596 0.7469
B1B B 0.9469(2) 0.16943(16) 0.63150(10)
loop_
_geom_bond_atom_site_label_1
_geom_bond_atom_site_label_2
_geom_bond_site_symmetry_1
_geom_bond_site_symmetry_2
O1 C9 1_555 1_555
O2 C10 1_555 1_555
C1 H1 1_555 1_555
C2 C1 1_555 1_555
C3 C2 1_555 1_555
H2 C3 1_555 1_555
C4 H3 1_555 1_555
C5 C4 1_555 1_555
H4 C5 1_555 1_555
C6 C3 1_555 1_555
C7 C6 1_555 1_555
C8 C1 1_555 1_555
C9 C10 1_555 1_555
C10 C13 1_555 1_555
C11 C9 1_555 1_555
H5 C11 1_555 1_555
H6 C11 1_555 1_555
H7 C11 1_555 1_555
C12 C9 1_555 1_555
H8 C12 1_555 1_555
H9 C12 1_555 1_555
H10 C12 1_555 1_555
C13 H11 1_555 1_555
H12 C13 1_555 1_555
H13 C13 1_555 1_555
C14 C10 1_555 1_555
H14 C14 1_555 1_555
H15 C14 1_555 1_555
H16 C14 1_555 1_555
B1 O1 1_555 1_555
O1B C9B 1_555 1_555
O2B C10B 1_555 1_555
C1B H1B 1_555 1_555
C2B C1B 1_555 1_555
C3B C2B 1_555 1_555
H2B C3B 1_555 1_555
C4B H3B 1_555 1_555
C5B C8 1_555 1_555
H4B C5B 1_555 1_555
C6B C3B 1_555 1_555
C7B C7 1_555 1_555
C8B C5 1_555 1_555
C9B C10B 1_555 1_555
C10B C13B 1_555 1_555
C11B C9B 1_555 1_555
H5B C11B 1_555 1_555
H6B C11B 1_555 1_555
H7B C11B 1_555 1_555
C12B C9B 1_555 1_555
H8B C12B 1_555 1_555
H9B C12B 1_555 1_555
H10B C12B 1_555 1_555
C13B H11B 1_555 1_555
H12B C13B 1_555 1_555
H13B C13B 1_555 1_555
C14B C10B 1_555 1_555
H14B C14B 1_555 1_555
H15B C14B 1_555 1_555
H16B C14B 1_555 1_555
B1B O1B 1_555 1_555
O2 B1 1_555 1_555
C2 B1 1_555 1_555
C4 C6 1_555 1_555
C7 C8 1_555 1_555
O2B B1B 1_555 1_555
C1B C8B 1_555 1_555
C2B B1B 1_555 1_555
C4B C5B 1_555 1_555
C4B C6B 1_555 1_555
C6B C7B 1_555 1_555
C7B C8B 1_555 1_555

#END
