
#######################################################################
#
#                 Cambridge Crystallographic Data Centre
#                                CCDC 
#
#######################################################################
#
# If this CIF has been generated from an entry in the Cambridge 
# Structural Database, then it will include bibliographic, chemical, 
# crystal, experimental, refinement or atomic coordinate data resulting 
# from the CCDC's data processing and validation procedures.
#
#######################################################################

data_WANLUV
_chemical_formula_moiety         'C15 H14 F1 N1 O1,C15 H15 N1 O1'
_chemical_name_systematic        
'(R)-2-fluoro-N-(1-phenylethyl)benzamide (S)-N-(1-phenylethyl)benzamide'
_symmetry_cell_setting           triclinic
_symmetry_space_group_name_H-M   'P 1'
_symmetry_Int_Tables_number      1
_space_group_name_Hall           'P 1'
loop_
_symmetry_equiv_pos_site_id
_symmetry_equiv_pos_as_xyz
1 x,y,z
_cell_length_a                   5.3540(2)
_cell_length_b                   8.3824(4)
_cell_length_c                   13.8585(7)
_cell_angle_alpha                96.477(3)
_cell_angle_beta                 93.829(3)
_cell_angle_gamma                105.841(3)
_cell_volume                     591.416
_exptl_crystal_colour            colorless
_exptl_crystal_description       plate
_cell_formula_units_Z            1
_exptl_crystal_recrystallization_method '1:1 hexanes/dichloromethane'
loop_
_atom_site_label
_atom_site_type_symbol
_atom_site_fract_x
_atom_site_fract_y
_atom_site_fract_z
F1 F 1.3742(14) 1.0469(9) 0.7516(6)
O1 O 0.6817(8) 0.8349(6) 0.8493(4)
N1 N 1.1106(9) 0.8460(6) 0.8727(4)
H1 H 1.258(6) 0.854(8) 0.848(4)
C1 C 0.8965(11) 0.8603(8) 0.8162(5)
C2 C 0.9327(11) 0.8994(7) 0.7156(5)
C3 C 0.7160(19) 0.8399(13) 0.6513(8)
H2 H 0.5573 0.7770 0.6718
C4 C 0.727(2) 0.8722(14) 0.5526(9)
H3 H 0.5753 0.8333 0.5074
C5 C 0.9579(12) 0.9594(8) 0.5235(5)
H4 H 0.9695 0.9826 0.4581
C6 C 1.174(3) 1.0131(19) 0.5915(10)
H5 H 1.3380 1.0692 0.5720
C7 C 1.155(2) 0.9865(14) 0.6872(10)
C8 C 1.0888(10) 0.7941(7) 0.9680(5)
H6 H 0.9419 0.8292 0.9963
C9 C 1.0313(10) 0.6093(7) 0.9654(4)
C10 C 1.1838(11) 0.5146(7) 0.9181(5)
H7 H 1.3293 0.5697 0.8868
C11 C 1.1220(12) 0.3443(8) 0.9176(5)
H8 H 1.2273 0.2843 0.8859
C12 C 0.9138(13) 0.2579(8) 0.9611(6)
H9 H 0.8737 0.1401 0.9602
C13 C 0.7644(13) 0.3495(8) 1.0065(5)
H10 H 0.6204 0.2925 1.0379
C14 C 0.8157(10) 0.5175(8) 1.0078(5)
H11 H 0.7039 0.5742 1.0379
C15 C 1.3397(12) 0.8846(7) 1.0339(5)
H12 H 1.4863 0.8506 1.0082
H13 H 1.3213 0.8555 1.1001
H14 H 1.3724 1.0058 1.0355
O2 O 0.9685(8) 0.5195(5) 0.3880(3)
N2 N 0.5413(9) 0.5039(6) 0.3640(4)
H18 H 0.392(6) 0.496(8) 0.386(4)
C20 C 0.7494(10) 0.4987(7) 0.4158(4)
C21 C 0.7127(10) 0.4562(7) 0.5185(5)
C22 C 0.938(3) 0.5136(15) 0.5870(11)
H19 H 1.1029 0.5670 0.5669
C23 C 0.914(2) 0.4915(16) 0.6796(11)
H20 H 1.0617 0.5406 0.7262
C24 C 0.6748(11) 0.3960(8) 0.7135(5)
H21 H 0.6665 0.3728 0.7790
C25 C 0.450(2) 0.3385(13) 0.6415(8)
H22 H 0.2874 0.2757 0.6595
C26 C 0.468(2) 0.3741(15) 0.5465(10)
H23 H 0.3174 0.3432 0.5008
C27 C 0.5583(12) 0.5546(7) 0.2634(5)
H24 H 0.7067 0.5209 0.2355
C28 C 0.6204(11) 0.7479(7) 0.2689(5)
C29 C 0.4618(11) 0.8308(8) 0.3119(5)
H25 H 0.3121 0.7701 0.3390
C30 C 0.5185(12) 1.0053(7) 0.3166(5)
H26 H 0.4142 1.0644 0.3497
C31 C 0.7320(12) 1.0905(7) 0.2714(5)
H27 H 0.7687 1.2081 0.2722
C32 C 0.8898(11) 1.0073(7) 0.2257(5)
H28 H 1.0343 1.0662 0.1953
C33 C 0.8311(13) 0.8309(7) 0.2251(5)
H29 H 0.9378 0.7708 0.1945
C34 C 0.3097(11) 0.4607(8) 0.1976(5)
H30 H 0.1584 0.4818 0.2270
H31 H 0.2926 0.3404 0.1900
H32 H 0.3186 0.4994 0.1334
F2? F 1.2276(14) 0.7437(10) 0.6812(6)
C16? C 0.793(2) 0.9957(14) 0.6732(11)
H15? H 0.6841 1.0419 0.7124
C17? C 0.801(2) 1.0292(17) 0.5766(10)
H16? H 0.7043 1.0962 0.5501
C18? C 1.114(2) 0.8737(13) 0.5574(8)
H17? H 1.2304 0.8358 0.5180
C19? C 1.095(2) 0.8427(14) 0.6556(11)
C35? C 0.864(2) 0.3576(17) 0.5621(9)
H33? H 0.9791 0.3137 0.5249
C36? C 0.841(3) 0.3285(14) 0.6563(10)
H34? H 0.9379 0.2622 0.6839
C37? C 0.535(2) 0.4898(16) 0.6739(12)
H35? H 0.4299 0.5393 0.7134
C38? C 0.541(2) 0.5135(14) 0.5807(9)
H36? H 0.4284 0.5708 0.5541
loop_
_geom_bond_atom_site_label_1
_geom_bond_atom_site_label_2
_geom_bond_site_symmetry_1
_geom_bond_site_symmetry_2
F1 C7 1_555 1_555
O1 C1 1_555 1_555
N1 H1 1_555 1_555
C1 N1 1_555 1_555
C2 C1 1_555 1_555
C3 C2 1_555 1_555
H2 C3 1_555 1_555
C4 C3 1_555 1_555
H3 C4 1_555 1_555
C5 C4 1_555 1_555
H4 C5 1_555 1_555
C6 C5 1_555 1_555
H5 C6 1_555 1_555
C7 C2 1_555 1_555
C8 N1 1_555 1_555
H6 C8 1_555 1_555
C9 C8 1_555 1_555
C10 C9 1_555 1_555
H7 C10 1_555 1_555
C11 C10 1_555 1_555
H8 C11 1_555 1_555
C12 C11 1_555 1_555
H9 C12 1_555 1_555
C13 C12 1_555 1_555
H10 C13 1_555 1_555
C14 C9 1_555 1_555
H11 C14 1_555 1_555
C15 C8 1_555 1_555
H12 C15 1_555 1_555
H13 C15 1_555 1_555
H14 C15 1_555 1_555
O2 C20 1_555 1_555
N2 H18 1_555 1_555
C20 N2 1_555 1_555
C21 C20 1_555 1_555
C22 C21 1_555 1_555
H19 C22 1_555 1_555
C23 C22 1_555 1_555
H20 C23 1_555 1_555
C24 C23 1_555 1_555
H21 C24 1_555 1_555
C25 C24 1_555 1_555
H22 C25 1_555 1_555
C26 C21 1_555 1_555
H23 C26 1_555 1_555
C27 N2 1_555 1_555
H24 C27 1_555 1_555
C28 C27 1_555 1_555
C29 C28 1_555 1_555
H25 C29 1_555 1_555
C30 C29 1_555 1_555
H26 C30 1_555 1_555
C31 C30 1_555 1_555
H27 C31 1_555 1_555
C32 C31 1_555 1_555
H28 C32 1_555 1_555
C33 C28 1_555 1_555
H29 C33 1_555 1_555
C34 C27 1_555 1_555
H30 C34 1_555 1_555
H31 C34 1_555 1_555
H32 C34 1_555 1_555
C6 C7 1_555 1_555
C13 C14 1_555 1_555
C25 C26 1_555 1_555
C32 C33 1_555 1_555

#END
