
#######################################################################
#
#                 Cambridge Crystallographic Data Centre
#                                CCDC 
#
#######################################################################
#
# If this CIF has been generated from an entry in the Cambridge 
# Structural Database, then it will include bibliographic, chemical, 
# crystal, experimental, refinement or atomic coordinate data resulting 
# from the CCDC's data processing and validation procedures.
#
#######################################################################

data_WANLUT
_chemical_formula_moiety         'C44 H56 B4 O8,2(C1 H2 Cl2)'
_chemical_name_systematic        
'2,5,8,11-tetrakis(4,4,5,5-Tetramethyl-1,3,2-dioxaborolan-2-yl)perylene dichloromethane solvate'
_symmetry_cell_setting           triclinic
_symmetry_space_group_name_H-M   'P -1'
_symmetry_Int_Tables_number      2
_space_group_name_Hall           '-P 1'
loop_
_symmetry_equiv_pos_site_id
_symmetry_equiv_pos_as_xyz
1 x,y,z
2 -x,-y,-z
_cell_length_a                   6.6669(5)
_cell_length_b                   12.519(1)
_cell_length_c                   14.791(1)
_cell_angle_alpha                103.68(1)
_cell_angle_beta                 99.11(1)
_cell_angle_gamma                96.50(1)
_cell_volume                     1169.66
_exptl_crystal_colour            yellow
_exptl_crystal_description       plate
_cell_formula_units_Z            1
_exptl_crystal_recrystallization_method 'dichloromethane/diethyl ether'
loop_
_atom_site_label
_atom_site_type_symbol
_atom_site_fract_x
_atom_site_fract_y
_atom_site_fract_z
Cl1 Cl 0.10284(10) -0.42101(6) 0.15505(5)
Cl2 Cl -0.25724(10) -0.34478(5) 0.22355(5)
C23 C -0.0602(4) -0.4260(2) 0.23763(17)
H29 H -0.1227 -0.5042 0.2292
H30 H 0.0221 -0.3984 0.3027
O1 O -0.7153(2) 0.09077(13) 0.41670(11)
O2 O -0.5045(2) 0.06378(12) 0.30803(10)
O3 O 0.2467(2) 0.24548(12) 0.16008(10)
O4 O 0.5387(2) 0.37140(12) 0.18519(10)
C1 C -0.4790(3) 0.31785(17) 0.51274(14)
H1 H -0.6005 0.2931 0.5328
C2 C -0.4189(3) 0.24974(17) 0.43728(14)
C3 C -0.2378(3) 0.28861(17) 0.40863(14)
H2 H -0.1953 0.2418 0.3569
C4 C -0.1202(3) 0.39113(16) 0.45223(13)
C5 C 0.0678(3) 0.43110(16) 0.42037(13)
C6 C 0.1339(3) 0.36902(17) 0.34345(14)
H3 H 0.0566 0.2982 0.3104
C7 C 0.3125(3) 0.40664(17) 0.31175(14)
C8 C 0.4248(3) 0.50882(17) 0.36093(13)
H4 H 0.5466 0.5343 0.3415
C9 C -0.3643(3) 0.42335(17) 0.56087(13)
C10 C -0.1824(3) 0.46145(16) 0.53035(13)
C11 C -0.8129(3) -0.01131(18) 0.34533(16)
C12 C -0.6329(3) -0.04419(18) 0.29395(15)
C13 C -0.8950(4) -0.0945(2) 0.39487(17)
H5 H -0.7849(16) -0.1036(10) 0.4431(10)
H6 H -0.947(2) -0.1660(10) 0.3487(6)
H7 H -1.006(2) -0.0677(7) 0.4248(10)
C14 C -0.9875(4) 0.0206(2) 0.28161(19)
H8 H -1.0862(19) 0.0532(13) 0.3209(6)
H9 H -1.0616(19) -0.0475(10) 0.2317(10)
H10 H -0.9295(9) 0.0769(12) 0.2505(10)
C15 C -0.6966(4) -0.0979(2) 0.18859(17)
H11 H -0.769(2) -0.0484(9) 0.1581(5)
H12 H -0.787(2) -0.1683(12) 0.1782(2)
H13 H -0.5747(17) -0.1116(12) 0.1616(5)
C16 C -0.5028(4) -0.1148(2) 0.34011(19)
H14 H -0.377(2) -0.1208(11) 0.3125(9)
H15 H -0.5824(14) -0.1900(12) 0.3289(10)
H16 H -0.463(2) -0.0800(9) 0.4092(10)
C17 C 0.3168(3) 0.22622(18) 0.06980(14)
C18 C 0.5437(3) 0.28588(17) 0.09874(14)
C19 C 0.1785(4) 0.2800(2) 0.00761(16)
H17 H 0.033(2) 0.2477(10) 0.0020(9)
H18 H 0.2144(17) 0.2661(11) -0.0561(10)
H19 H 0.1979(18) 0.3611(12) 0.0364(7)
C20 C 0.2908(4) 0.1030(2) 0.02525(17)
H20 H 0.365(2) 0.0676(6) 0.0690(7)
H21 H 0.345(2) 0.0902(3) -0.0328(10)
H22 H 0.146(2) 0.0718(6) 0.0109(10)
C21 C 0.6944(4) 0.2119(2) 0.12701(17)
H23 H 0.827(2) 0.2567(7) 0.1561(10)
H24 H 0.7076(18) 0.1564(11) 0.0712(8)
H25 H 0.6445(14) 0.1753(11) 0.1717(10)
C22 C 0.6165(4) 0.3444(2) 0.02829(16)
H26 H 0.5328(19) 0.4013(12) 0.0204(8)
H27 H 0.604(2) 0.2906(8) -0.0323(9)
H28 H 0.759(2) 0.3786(12) 0.0516(6)
B1 B -0.5484(4) 0.1336(2) 0.38629(17)
B2 B 0.3690(4) 0.3390(2) 0.21901(16)
O1A O 0.7153(2) 0.90923(13) 0.58330(11)
O2A O 0.5045(2) 0.93622(12) 0.69197(10)
O3A O -0.2467(2) 0.75452(12) 0.83992(10)
O4A O -0.5387(2) 0.62860(12) 0.81481(10)
C1A C 0.4790(3) 0.68215(17) 0.48726(14)
H1A H 0.6005 0.7069 0.4672
C2A C 0.4189(3) 0.75026(17) 0.56272(14)
C3A C 0.2378(3) 0.71139(17) 0.59137(14)
H2A H 0.1953 0.7582 0.6431
C4A C 0.1202(3) 0.60887(16) 0.54777(13)
C5A C -0.0678(3) 0.56890(16) 0.57963(13)
C6A C -0.1339(3) 0.63098(17) 0.65655(14)
H3A H -0.0566 0.7018 0.6896
C7A C -0.3125(3) 0.59336(17) 0.68825(14)
C8A C -0.4248(3) 0.49118(17) 0.63907(13)
H4A H -0.5466 0.4657 0.6585
C9A C 0.3643(3) 0.57665(17) 0.43913(13)
C10A C 0.1824(3) 0.53855(16) 0.46965(13)
C11A C 0.8129(3) 1.01131(18) 0.65467(16)
C12A C 0.6329(3) 1.04419(18) 0.70605(15)
C13A C 0.8950(4) 1.0945(2) 0.60513(17)
H5A H 0.7849(16) 1.1036(10) 0.5569(10)
H6A H 0.947(2) 1.1660(10) 0.6513(6)
H7A H 1.006(2) 1.0677(7) 0.5752(10)
C14A C 0.9875(4) 0.9794(2) 0.71839(19)
H8A H 1.0862(19) 0.9468(13) 0.6791(6)
H9A H 1.0616(19) 1.0475(10) 0.7683(10)
H10A H 0.9295(9) 0.9231(12) 0.7495(10)
C15A C 0.6966(4) 1.0979(2) 0.81141(17)
H11A H 0.769(2) 1.0484(9) 0.8419(5)
H12A H 0.787(2) 1.1683(12) 0.8218(2)
H13A H 0.5747(17) 1.1116(12) 0.8384(5)
C16A C 0.5028(4) 1.1148(2) 0.65989(19)
H14A H 0.377(2) 1.1208(11) 0.6875(9)
H15A H 0.5824(14) 1.1900(12) 0.6711(10)
H16A H 0.463(2) 1.0800(9) 0.5908(10)
C17A C -0.3168(3) 0.77378(18) 0.93020(14)
C18A C -0.5437(3) 0.71412(17) 0.90126(14)
C19A C -0.1785(4) 0.7200(2) 0.99239(16)
H17A H -0.033(2) 0.7523(10) 0.9980(9)
H18A H -0.2144(17) 0.7339(11) 1.0561(10)
H19A H -0.1979(18) 0.6389(12) 0.9636(7)
C20A C -0.2908(4) 0.8970(2) 0.97475(17)
H20A H -0.365(2) 0.9324(6) 0.9310(7)
H21A H -0.345(2) 0.9098(3) 1.0328(10)
H22A H -0.146(2) 0.9282(6) 0.9891(10)
C21A C -0.6944(4) 0.7881(2) 0.87299(17)
H23A H -0.827(2) 0.7433(7) 0.8439(10)
H24A H -0.7076(18) 0.8436(11) 0.9288(8)
H25A H -0.6445(14) 0.8247(11) 0.8283(10)
C22A C -0.6165(4) 0.6556(2) 0.97171(16)
H26A H -0.5328(19) 0.5987(12) 0.9796(8)
H27A H -0.604(2) 0.7094(8) 1.0323(9)
H28A H -0.759(2) 0.6214(12) 0.9484(6)
B1A B 0.5484(4) 0.8664(2) 0.61371(17)
B2A B -0.3690(4) 0.6610(2) 0.78099(16)
loop_
_geom_bond_atom_site_label_1
_geom_bond_atom_site_label_2
_geom_bond_site_symmetry_1
_geom_bond_site_symmetry_2
Cl1 C23 1_555 1_555
Cl2 C23 1_555 1_555
O1 C11 1_555 1_555
O2 C12 1_555 1_555
O3 C17 1_555 1_555
O4 C18 1_555 1_555
C1 H1 1_555 1_555
C2 C1 1_555 1_555
C3 C2 1_555 1_555
H2 C3 1_555 1_555
C4 C3 1_555 1_555
C5 C4 1_555 1_555
C6 C5 1_555 1_555
H3 C6 1_555 1_555
C7 C6 1_555 1_555
C8 C7 1_555 1_555
H4 C8 1_555 1_555
C9 C1 1_555 1_555
C10 C4 1_555 1_555
C11 C12 1_555 1_555
C12 C15 1_555 1_555
C13 C11 1_555 1_555
H5 C13 1_555 1_555
H6 C13 1_555 1_555
H7 C13 1_555 1_555
C14 C11 1_555 1_555
H8 C14 1_555 1_555
H9 C14 1_555 1_555
H10 C14 1_555 1_555
C15 H11 1_555 1_555
H12 C15 1_555 1_555
H13 C15 1_555 1_555
C16 C12 1_555 1_555
H14 C16 1_555 1_555
H15 C16 1_555 1_555
H16 C16 1_555 1_555
C17 C18 1_555 1_555
C18 C21 1_555 1_555
C19 C17 1_555 1_555
H17 C19 1_555 1_555
H18 C19 1_555 1_555
H19 C19 1_555 1_555
C20 C17 1_555 1_555
H20 C20 1_555 1_555
H21 C20 1_555 1_555
H22 C20 1_555 1_555
C21 H23 1_555 1_555
H24 C21 1_555 1_555
H25 C21 1_555 1_555
C22 C18 1_555 1_555
H26 C22 1_555 1_555
H27 C22 1_555 1_555
H28 C22 1_555 1_555
B1 O1 1_555 1_555
B2 O3 1_555 1_555
C23 H29 1_555 1_555
H30 C23 1_555 1_555
O1A C11A 1_555 1_555
O2A C12A 1_555 1_555
O3A C17A 1_555 1_555
O4A C18A 1_555 1_555
C1A H1A 1_555 1_555
C2A C1A 1_555 1_555
C3A C2A 1_555 1_555
H2A C3A 1_555 1_555
C4A C3A 1_555 1_555
C5A C10 1_555 1_555
C6A C5A 1_555 1_555
H3A C6A 1_555 1_555
C7A C6A 1_555 1_555
C8A C9 1_555 1_555
H4A C8A 1_555 1_555
C9A C8 1_555 1_555
C10A C5 1_555 1_555
C11A C12A 1_555 1_555
C12A C15A 1_555 1_555
C13A C11A 1_555 1_555
H5A C13A 1_555 1_555
H6A C13A 1_555 1_555
H7A C13A 1_555 1_555
C14A C11A 1_555 1_555
H8A C14A 1_555 1_555
H9A C14A 1_555 1_555
H10A C14A 1_555 1_555
C15A H11A 1_555 1_555
H12A C15A 1_555 1_555
H13A C15A 1_555 1_555
C16A C12A 1_555 1_555
H14A C16A 1_555 1_555
H15A C16A 1_555 1_555
H16A C16A 1_555 1_555
C17A C18A 1_555 1_555
C18A C21A 1_555 1_555
C19A C17A 1_555 1_555
H17A C19A 1_555 1_555
H18A C19A 1_555 1_555
H19A C19A 1_555 1_555
C20A C17A 1_555 1_555
H20A C20A 1_555 1_555
H21A C20A 1_555 1_555
H22A C20A 1_555 1_555
C21A H23A 1_555 1_555
H24A C21A 1_555 1_555
H25A C21A 1_555 1_555
C22A C18A 1_555 1_555
H26A C22A 1_555 1_555
H27A C22A 1_555 1_555
H28A C22A 1_555 1_555
B1A O1A 1_555 1_555
B2A O3A 1_555 1_555
O2 B1 1_555 1_555
O4 B2 1_555 1_555
C2 B1 1_555 1_555
C7 B2 1_555 1_555
C9 C10 1_555 1_555
O2A B1A 1_555 1_555
O4A B2A 1_555 1_555
C1A C9A 1_555 1_555
C2A B1A 1_555 1_555
C4A C5A 1_555 1_555
C4A C10A 1_555 1_555
C7A C8A 1_555 1_555
C7A B2A 1_555 1_555
C9A C10A 1_555 1_555

#END
