
#######################################################################
#
#                 Cambridge Crystallographic Data Centre
#                                CCDC 
#
#######################################################################
#
# If this CIF has been generated from an entry in the Cambridge 
# Structural Database, then it will include bibliographic, chemical, 
# crystal, experimental, refinement or atomic coordinate data resulting 
# from the CCDC's data processing and validation procedures.
#
#######################################################################

data_WANMIH
_chemical_formula_moiety         'C21 H12 N3 P1'
_chemical_name_systematic        tris(2-Cyanophenyl)phosphine
_symmetry_cell_setting           monoclinic
_symmetry_space_group_name_H-M   'P 21/a'
_symmetry_Int_Tables_number      14
_space_group_name_Hall           '-P 2yab'
loop_
_symmetry_equiv_pos_site_id
_symmetry_equiv_pos_as_xyz
1 x,y,z
2 1/2-x,1/2+y,-z
3 -x,-y,-z
4 1/2+x,1/2-y,z
_cell_length_a                   14.255(12)
_cell_length_b                   8.592(6)
_cell_length_c                   15.339(12)
_cell_angle_alpha                90
_cell_angle_beta                 113.37(4)
_cell_angle_gamma                90
_cell_volume                     1724.58
_exptl_crystal_colour            colorless
_exptl_crystal_description       plates
_chemical_melting_point          499K(dec.)
_cell_formula_units_Z            4
loop_
_atom_site_label
_atom_site_type_symbol
_atom_site_fract_x
_atom_site_fract_y
_atom_site_fract_z
P1 P 0.2636(1) 0.4719(1) 0.2407(1)
C1 C 0.1930(2) 0.5453(4) 0.1198(2)
C2 C 0.1755(2) 0.7021(4) 0.0972(2)
C3 C 0.1204(2) 0.7492(4) 0.0044(2)
C4 C 0.0824(2) 0.6421(4) -0.0682(2)
C5 C 0.0982(2) 0.4855(4) -0.0481(2)
C6 C 0.1523(2) 0.4367(3) 0.0455(2)
C7 C 0.1647(2) 0.2720(4) 0.0635(2)
N1 N 0.1712(2) 0.1393(3) 0.0737(2)
C8 C 0.3935(2) 0.4591(3) 0.2431(2)
C9 C 0.4227(2) 0.5224(4) 0.1746(2)
C10 C 0.5216(2) 0.5044(4) 0.1801(2)
C11 C 0.5931(2) 0.4204(4) 0.2539(2)
C12 C 0.5668(2) 0.3581(4) 0.3238(2)
C13 C 0.4670(2) 0.3776(4) 0.3178(2)
C14 C 0.4406(2) 0.3118(4) 0.3920(2)
N2 N 0.4187(2) 0.2625(4) 0.4504(2)
C15 C 0.2777(2) 0.6479(3) 0.3129(2)
C16 C 0.3602(2) 0.7491(4) 0.3386(2)
C17 C 0.3692(2) 0.8749(4) 0.3975(2)
C18 C 0.2957(2) 0.9009(4) 0.4339(2)
C19 C 0.2116(2) 0.8042(4) 0.4095(2)
C20 C 0.2026(2) 0.6795(4) 0.3492(2)
C21 C 0.1108(2) 0.5851(4) 0.3200(2)
N3 N 0.0370(2) 0.5150(3) 0.2968(2)
H1 H 0.202(2) 0.779(3) 0.144(2)
H2 H 0.107(2) 0.857(4) -0.009(2)
H3 H 0.043(2) 0.681(4) -0.135(2)
H4 H 0.074(2) 0.403(3) -0.103(2)
H5 H 0.376(2) 0.583(3) 0.126(2)
H6 H 0.535(2) 0.550(3) 0.130(2)
H7 H 0.661(2) 0.409(4) 0.253(2)
H8 H 0.623(2) 0.297(3) 0.383(2)
H9 H 0.416(2) 0.728(3) 0.315(2)
H10 H 0.427(2) 0.940(3) 0.412(2)
H11 H 0.301(2) 0.989(4) 0.471(2)
H12 H 0.155(2) 0.827(3) 0.446(2)
loop_
_geom_bond_atom_site_label_1
_geom_bond_atom_site_label_2
_geom_bond_site_symmetry_1
_geom_bond_site_symmetry_2
P1 C1 1_555 1_555
C1 C2 1_555 1_555
C2 C3 1_555 1_555
C3 C4 1_555 1_555
C4 C5 1_555 1_555
C5 C6 1_555 1_555
C6 C1 1_555 1_555
C7 C6 1_555 1_555
N1 C7 1_555 1_555
C8 P1 1_555 1_555
C9 C8 1_555 1_555
C10 C9 1_555 1_555
C11 C10 1_555 1_555
C12 C11 1_555 1_555
C13 C8 1_555 1_555
C14 C13 1_555 1_555
N2 C14 1_555 1_555
C15 P1 1_555 1_555
C16 C15 1_555 1_555
C17 C16 1_555 1_555
C18 C17 1_555 1_555
C19 C18 1_555 1_555
C20 C15 1_555 1_555
C21 C20 1_555 1_555
N3 C21 1_555 1_555
H1 C2 1_555 1_555
H2 C3 1_555 1_555
H3 C4 1_555 1_555
H4 C5 1_555 1_555
H5 C9 1_555 1_555
H6 C10 1_555 1_555
H7 C11 1_555 1_555
H8 C12 1_555 1_555
H9 C16 1_555 1_555
H10 C17 1_555 1_555
H11 C18 1_555 1_555
H12 C19 1_555 1_555
C12 C13 1_555 1_555
C19 C20 1_555 1_555

#END
