
#######################################################################
#
#                 Cambridge Crystallographic Data Centre
#                                CCDC 
#
#######################################################################
#
# If this CIF has been generated from an entry in the Cambridge 
# Structural Database, then it will include bibliographic, chemical, 
# crystal, experimental, refinement or atomic coordinate data resulting 
# from the CCDC's data processing and validation procedures.
#
#######################################################################

data_WANMIK
_chemical_formula_moiety         'C15 H14 N2 O3,C15 H14 Br1 N1 O1'
_chemical_name_systematic        
'(S)-2-bromo-N-(1-phenylethyl)benzamide (R)-2-nitro-N-(1-phenylethyl)benzamide'
_symmetry_cell_setting           monoclinic
_symmetry_space_group_name_H-M   'P 21'
_symmetry_Int_Tables_number      4
_space_group_name_Hall           'P 2yb'
loop_
_symmetry_equiv_pos_site_id
_symmetry_equiv_pos_as_xyz
1 x,y,z
2 -x,1/2+y,-z
_cell_length_a                   8.2953(5)
_cell_length_b                   9.5761(5)
_cell_length_c                   17.2423(9)
_cell_angle_alpha                90
_cell_angle_beta                 101.342(3)
_cell_angle_gamma                90
_cell_volume                     1342.92
_exptl_crystal_colour            colorless
_exptl_crystal_description       plate
_cell_formula_units_Z            2
_exptl_crystal_recrystallization_method '1:1 hexanes/dichloromethane'
loop_
_atom_site_label
_atom_site_type_symbol
_atom_site_fract_x
_atom_site_fract_y
_atom_site_fract_z
Br1 Br 0.67707(14) 0.13773(15) 0.35074(7)
O1 O 0.9832(11) -0.1244(8) 0.4720(4)
N1 N 0.9375(14) 0.0839(8) 0.5231(5)
H1 H 0.932(14) 0.169(3) 0.514(4)
C1 C 0.9815(13) 0.0013(10) 0.4689(6)
C2 C 1.0179(13) 0.0756(10) 0.3971(5)
C3 C 1.1819(14) 0.0750(11) 0.3862(6)
H2 H 1.2649 0.0294 0.4234
C4 C 1.2220(13) 0.1411(17) 0.3211(6)
H3 H 1.3333 0.1446 0.3151
C5 C 1.1001(17) 0.2022(12) 0.2646(6)
H4 H 1.1280 0.2442 0.2191
C6 C 0.9373(15) 0.2024(11) 0.2741(6)
H5 H 0.8534 0.2441 0.2356
C7 C 0.9002(12) 0.1397(14) 0.3416(5)
C8 C 0.8705(14) 0.0345(10) 0.5911(5)
H6 H 0.8720 -0.0699 0.5909
C9 C 0.6968(15) 0.0810(11) 0.5866(6)
C10 C 0.6442(16) 0.2164(11) 0.5645(7)
H7 H 0.7205 0.2802 0.5496
C11 C 0.4899(16) 0.2599(11) 0.5634(6)
H8 H 0.4598 0.3531 0.5480
C12 C 0.3751(14) 0.1719(9) 0.5843(6)
H9 H 0.2665 0.2031 0.5845
C13 C 0.4226(16) 0.0365(12) 0.6050(7)
H10 H 0.3442 -0.0272 0.6180
C14 C 0.5786(15) -0.0072(11) 0.6071(6)
H11 H 0.6081 -0.1003 0.6230
C15 C 0.9832(14) 0.0851(12) 0.6689(6)
H12 H 1.0973 0.0592 0.6686
H13 H 0.9483 0.0412 0.7143
H14 H 0.9749 0.1868 0.6730
O2 O 0.5044(11) 0.1635(7) 0.0170(4)
O3 O 0.8419(13) -0.2002(10) 0.1852(6)
O4 O 0.8123(12) -0.0056(9) 0.1230(5)
N2 N 0.5674(13) -0.0517(9) -0.0253(5)
H15 H 0.559(14) -0.140(3) -0.022(7)
N3 N 0.7561(13) -0.1051(10) 0.1554(5)
C16 C 0.5162(16) 0.0323(11) 0.0251(6)
C17 C 0.4691(16) -0.0361(10) 0.0966(6)
C18 C 0.3078(16) -0.0330(11) 0.1033(6)
H16 H 0.2296 0.0146 0.0647
C19 C 0.2564(17) -0.0996(12) 0.1668(7)
H17 H 0.1442 -0.0961 0.1714
C20 C 0.371(2) -0.1713(13) 0.2236(6)
H18 H 0.3359 -0.2186 0.2658
C21 C 0.5320(18) -0.1729(11) 0.2180(7)
H19 H 0.6095 -0.2209 0.2568
C22 C 0.5849(17) -0.1046(12) 0.1558(6)
C23 C 0.6357(16) -0.0073(11) -0.0924(6)
H20 H 0.6347 0.0971 -0.0934
C24 C 0.8096(15) -0.0537(11) -0.0847(6)
C25 C 0.9226(16) 0.0282(12) -0.1150(6)
H21 H 0.8908 0.1178 -0.1362
C26 C 1.0817(15) -0.0202(12) -0.1144(6)
H22 H 1.1553 0.0359 -0.1367
C27 C 1.1343(17) -0.1488(13) -0.0817(7)
H23 H 1.2425 -0.1819 -0.0811
C28 C 1.0244(18) -0.2257(12) -0.0505(6)
H24 H 1.0586 -0.3133 -0.0269
C29 C 0.8673(16) -0.1822(11) -0.0516(6)
H25 H 0.7954 -0.2405 -0.0295
C30 C 0.5265(18) -0.0582(13) -0.1682(7)
H26 H 0.5297 -0.1604 -0.1701
H27 H 0.5659 -0.0198 -0.2138
H28 H 0.4133 -0.0272 -0.1698
loop_
_geom_bond_atom_site_label_1
_geom_bond_atom_site_label_2
_geom_bond_site_symmetry_1
_geom_bond_site_symmetry_2
Br1 C7 1_555 1_555
O1 C1 1_555 1_555
N1 H1 1_555 1_555
C1 N1 1_555 1_555
C2 C1 1_555 1_555
C3 C2 1_555 1_555
H2 C3 1_555 1_555
C4 C3 1_555 1_555
H3 C4 1_555 1_555
C5 C4 1_555 1_555
H4 C5 1_555 1_555
C6 C5 1_555 1_555
H5 C6 1_555 1_555
C7 C2 1_555 1_555
C8 N1 1_555 1_555
H6 C8 1_555 1_555
C9 C8 1_555 1_555
C10 C9 1_555 1_555
H7 C10 1_555 1_555
C11 C10 1_555 1_555
H8 C11 1_555 1_555
C12 C11 1_555 1_555
H9 C12 1_555 1_555
C13 C12 1_555 1_555
H10 C13 1_555 1_555
C14 C9 1_555 1_555
H11 C14 1_555 1_555
C15 C8 1_555 1_555
H12 C15 1_555 1_555
H13 C15 1_555 1_555
H14 C15 1_555 1_555
O2 C16 1_555 1_555
O3 N3 1_555 1_555
O4 N3 1_555 1_555
N2 H15 1_555 1_555
N3 C22 1_555 1_555
C16 N2 1_555 1_555
C17 C16 1_555 1_555
C18 C17 1_555 1_555
H16 C18 1_555 1_555
C19 C18 1_555 1_555
H17 C19 1_555 1_555
C20 C19 1_555 1_555
H18 C20 1_555 1_555
C21 C20 1_555 1_555
H19 C21 1_555 1_555
C22 C17 1_555 1_555
C23 N2 1_555 1_555
H20 C23 1_555 1_555
C24 C23 1_555 1_555
C25 C24 1_555 1_555
H21 C25 1_555 1_555
C26 C25 1_555 1_555
H22 C26 1_555 1_555
C27 C26 1_555 1_555
H23 C27 1_555 1_555
C28 C27 1_555 1_555
H24 C28 1_555 1_555
C29 C24 1_555 1_555
H25 C29 1_555 1_555
C30 C23 1_555 1_555
H26 C30 1_555 1_555
H27 C30 1_555 1_555
H28 C30 1_555 1_555
C6 C7 1_555 1_555
C13 C14 1_555 1_555
C21 C22 1_555 1_555
C28 C29 1_555 1_555

#END
