
#######################################################################
#
#                 Cambridge Crystallographic Data Centre
#                                CCDC 
#
#######################################################################
#
# If this CIF has been generated from an entry in the Cambridge 
# Structural Database, then it will include bibliographic, chemical, 
# crystal, experimental, refinement or atomic coordinate data resulting 
# from the CCDC's data processing and validation procedures.
#
#######################################################################

data_WANMOQ
_chemical_formula_moiety         'C16 H14 F3 N1 O1,C15 H14 I1 N1 O1'
_chemical_name_systematic        
'(R)-N-(1-phenylethyl)-2-(trifluoromethyl)benzamide (S)-2-iodo-N-(1-phenylethyl)benzamide'
_symmetry_cell_setting           orthorhombic
_symmetry_space_group_name_H-M   'P 21 21 21'
_symmetry_Int_Tables_number      19
_space_group_name_Hall           'P 2ac 2ab'
loop_
_symmetry_equiv_pos_site_id
_symmetry_equiv_pos_as_xyz
1 x,y,z
2 1/2-x,-y,1/2+z
3 1/2+x,1/2-y,-z
4 -x,1/2+y,1/2-z
_cell_length_a                   9.4943(2)
_cell_length_b                   16.1705(4)
_cell_length_c                   18.3454(5)
_cell_angle_alpha                90
_cell_angle_beta                 90
_cell_angle_gamma                90
_cell_volume                     2816.52
_exptl_crystal_colour            colorless
_exptl_crystal_description       plate
_cell_formula_units_Z            4
_exptl_crystal_recrystallization_method '1:1 hexanes/dichloromethane'
loop_
_atom_site_label
_atom_site_type_symbol
_atom_site_fract_x
_atom_site_fract_y
_atom_site_fract_z
I1 I 0.14444(3) 0.96083(2) 0.05983(2)
O1 O 0.0357(3) 0.8403(2) 0.19825(19)
N1 N 0.2331(4) 0.8504(3) 0.2669(2)
H1 H 0.304(5) 0.854(3) 0.269(3)
C1 C 0.1641(5) 0.8349(3) 0.2049(3)
C2 C 0.2553(5) 0.8079(3) 0.1419(3)
C3 C 0.3366(5) 0.7361(3) 0.1476(3)
H2 H 0.3352 0.7051 0.1916
C4 C 0.4190(5) 0.7094(3) 0.0898(3)
H3 H 0.4701 0.6591 0.0938
C5 C 0.4276(6) 0.7552(3) 0.0266(3)
H4 H 0.4867 0.7375 -0.0122
C6 C 0.3497(6) 0.8271(3) 0.0200(3)
H5 H 0.3562 0.8593 -0.0231
C7 C 0.2615(5) 0.8522(3) 0.0767(3)
C8 C 0.1612(5) 0.8827(3) 0.3315(2)
H6 H 0.0645 0.8583 0.3327
C9 C 0.1459(5) 0.9764(2) 0.3278(2)
C10 C 0.0122(5) 1.0120(3) 0.3347(3)
H7 H -0.0678 0.9772 0.3400
C11 C -0.0053(5) 1.0967(3) 0.3341(3)
H8 H -0.0969 1.1198 0.3389
C12 C 0.1103(5) 1.1479(3) 0.3265(3)
H9 H 0.0988 1.2063 0.3267
C13 C 0.2434(5) 1.1136(3) 0.3187(3)
H10 H 0.3229 1.1486 0.3126
C14 C 0.2607(5) 1.0281(3) 0.3197(3)
H11 H 0.3523 1.0051 0.3149
C15 C 0.2382(5) 0.8548(3) 0.4002(3)
H12 H 0.2344 0.7944 0.4038
H13 H 0.1931 0.8793 0.4430
H14 H 0.3367 0.8727 0.3978
F1 F 0.6659(3) 0.98324(16) 0.36978(17)
F2 F 0.5544(3) 0.9244(2) 0.45816(19)
F3 F 0.7462(4) 0.9920(2) 0.47828(19)
O2 O 0.5361(3) 0.8426(2) 0.30215(19)
N2 N 0.7326(4) 0.8525(2) 0.2317(2)
H15 H 0.817(5) 0.851(3) 0.231(2)
C16 C 0.6658(5) 0.8383(3) 0.2944(2)
C17 C 0.7589(5) 0.8139(3) 0.3574(3)
C18 C 0.8368(5) 0.7412(3) 0.3541(3)
H16 H 0.8330 0.7082 0.3113
C19 C 0.9194(5) 0.7163(3) 0.4117(3)
H17 H 0.9705 0.6659 0.4083
C20 C 0.9293(6) 0.7634(3) 0.4743(3)
H18 H 0.9869 0.7459 0.5138
C21 C 0.8532(6) 0.8370(3) 0.4788(3)
H19 H 0.8600 0.8703 0.5213
C22 C 0.7674(5) 0.8620(3) 0.4214(2)
C23 C 0.6574(5) 0.8823(3) 0.1669(2)
H20 H 0.5615 0.8567 0.1667
C24 C 0.6396(5) 0.9762(2) 0.1686(2)
C25 C 0.5074(5) 1.0102(3) 0.1592(3)
H21 H 0.4284 0.9749 0.1527
C26 C 0.4888(6) 1.0953(3) 0.1593(3)
H22 H 0.3976 1.1181 0.1521
C27 C 0.6031(5) 1.1470(3) 0.1700(3)
H23 H 0.5905 1.2053 0.1714
C28 C 0.7358(6) 1.1133(3) 0.1786(3)
H24 H 0.8149 1.1486 0.1845
C29 C 0.7543(5) 1.0287(3) 0.1785(3)
H25 H 0.8457 1.0061 0.1853
C30 C 0.7351(5) 0.8536(3) 0.0981(3)
H26 H 0.8304 0.8769 0.0977
H27 H 0.6838 0.8725 0.0549
H28 H 0.7407 0.7931 0.0978
C31 C 0.6846(5) 0.9405(3) 0.4311(3)
loop_
_geom_bond_atom_site_label_1
_geom_bond_atom_site_label_2
_geom_bond_site_symmetry_1
_geom_bond_site_symmetry_2
I1 C7 1_555 1_555
O1 C1 1_555 1_555
N1 H1 1_555 1_555
C1 N1 1_555 1_555
C2 C1 1_555 1_555
C3 C2 1_555 1_555
H2 C3 1_555 1_555
C4 C3 1_555 1_555
H3 C4 1_555 1_555
C5 C4 1_555 1_555
H4 C5 1_555 1_555
C6 C5 1_555 1_555
H5 C6 1_555 1_555
C7 C2 1_555 1_555
C8 N1 1_555 1_555
H6 C8 1_555 1_555
C9 C8 1_555 1_555
C10 C9 1_555 1_555
H7 C10 1_555 1_555
C11 C10 1_555 1_555
H8 C11 1_555 1_555
C12 C11 1_555 1_555
H9 C12 1_555 1_555
C13 C12 1_555 1_555
H10 C13 1_555 1_555
C14 C9 1_555 1_555
H11 C14 1_555 1_555
C15 C8 1_555 1_555
H12 C15 1_555 1_555
H13 C15 1_555 1_555
H14 C15 1_555 1_555
F1 C31 1_555 1_555
F2 C31 1_555 1_555
F3 C31 1_555 1_555
O2 C16 1_555 1_555
N2 H15 1_555 1_555
C16 N2 1_555 1_555
C17 C16 1_555 1_555
C18 C17 1_555 1_555
H16 C18 1_555 1_555
C19 C18 1_555 1_555
H17 C19 1_555 1_555
C20 C19 1_555 1_555
H18 C20 1_555 1_555
C21 C20 1_555 1_555
H19 C21 1_555 1_555
C22 C17 1_555 1_555
C23 N2 1_555 1_555
H20 C23 1_555 1_555
C24 C23 1_555 1_555
C25 C24 1_555 1_555
H21 C25 1_555 1_555
C26 C25 1_555 1_555
H22 C26 1_555 1_555
C27 C26 1_555 1_555
H23 C27 1_555 1_555
C28 C27 1_555 1_555
H24 C28 1_555 1_555
C29 C24 1_555 1_555
H25 C29 1_555 1_555
C30 C23 1_555 1_555
H26 C30 1_555 1_555
H27 C30 1_555 1_555
H28 C30 1_555 1_555
C31 C22 1_555 1_555
C6 C7 1_555 1_555
C13 C14 1_555 1_555
C21 C22 1_555 1_555
C28 C29 1_555 1_555

#END
