
#######################################################################
#
#                 Cambridge Crystallographic Data Centre
#                                CCDC 
#
#######################################################################
#
# If this CIF has been generated from an entry in the Cambridge 
# Structural Database, then it will include bibliographic, chemical, 
# crystal, experimental, refinement or atomic coordinate data resulting 
# from the CCDC's data processing and validation procedures.
#
#######################################################################

data_WANNIK01
_chemical_formula_moiety         'C9 H8 Cl1 N1 O4'
_chemical_name_systematic        'dimethyl 4-chloropyridine-2,6-dicarboxylate'
_symmetry_cell_setting           monoclinic
_symmetry_space_group_name_H-M   'P 21/n'
_symmetry_Int_Tables_number      14
_space_group_name_Hall           '-P 2yn'
loop_
_symmetry_equiv_pos_site_id
_symmetry_equiv_pos_as_xyz
1 x,y,z
2 1/2-x,1/2+y,1/2-z
3 -x,-y,-z
4 1/2+x,1/2-y,1/2+z
_cell_length_a                   3.8181(1)
_cell_length_b                   13.7723(3)
_cell_length_c                   18.2215(5)
_cell_angle_alpha                90
_cell_angle_beta                 91.361(1)
_cell_angle_gamma                90
_cell_volume                     957.889
_exptl_crystal_colour            colorless
_exptl_crystal_description       plates
_cell_formula_units_Z            4
loop_
_atom_site_label
_atom_site_type_symbol
_atom_site_fract_x
_atom_site_fract_y
_atom_site_fract_z
N1 N 0.6499(3) 0.37452(8) 0.35808(6)
C1 C 0.6049(3) 0.29280(10) 0.31926(7)
C2 C 0.7238(3) 0.19851(10) 0.35295(7)
O1 O 0.6641(3) 0.12066(7) 0.32557(6)
O2 O 0.9018(2) 0.20952(7) 0.41791(5)
C3 C 1.0133(4) 0.12088(11) 0.45131(8)
H1 H 0.8079 0.0819 0.4635
H2 H 1.1498 0.1351 0.4963
H3 H 1.1589 0.0847 0.4172
C4 C 0.4496(3) 0.28869(10) 0.24933(7)
H4 H 0.4248 0.2290 0.2235
C5 C 0.3334(3) 0.37512(10) 0.21922(7)
Cl1 Cl 0.14322(9) 0.37583(3) 0.13177(2)
C6 C 0.3684(3) 0.46090(10) 0.25772(7)
H5 H 0.2859 0.5207 0.2379
C7 C 0.5304(3) 0.45606(10) 0.32712(7)
C8 C 0.5710(3) 0.55006(10) 0.36893(7)
O3 O 0.4479(3) 0.62534(7) 0.34702(6)
O4 O 0.7537(3) 0.53994(7) 0.43143(5)
C9 C 0.8024(4) 0.62856(10) 0.47358(8)
H6 H 0.9173 0.6774 0.4433
H7 H 0.9489 0.6150 0.5173
H8 H 0.5740 0.6531 0.4886
loop_
_geom_bond_atom_site_label_1
_geom_bond_atom_site_label_2
_geom_bond_site_symmetry_1
_geom_bond_site_symmetry_2
N1 C1 1_555 1_555
C1 C2 1_555 1_555
C2 O1 1_555 1_555
O2 C2 1_555 1_555
C3 O2 1_555 1_555
H1 C3 1_555 1_555
H2 C3 1_555 1_555
H3 C3 1_555 1_555
C4 C1 1_555 1_555
H4 C4 1_555 1_555
C5 C4 1_555 1_555
Cl1 C5 1_555 1_555
C6 C5 1_555 1_555
H5 C6 1_555 1_555
C7 N1 1_555 1_555
C8 C7 1_555 1_555
O3 C8 1_555 1_555
O4 C8 1_555 1_555
C9 O4 1_555 1_555
H6 C9 1_555 1_555
H7 C9 1_555 1_555
H8 C9 1_555 1_555
C6 C7 1_555 1_555

#END
