
#######################################################################
#
#                 Cambridge Crystallographic Data Centre
#                                CCDC 
#
#######################################################################
#
# If this CIF has been generated from an entry in the Cambridge 
# Structural Database, then it will include bibliographic, chemical, 
# crystal, experimental, refinement or atomic coordinate data resulting 
# from the CCDC's data processing and validation procedures.
#
#######################################################################

data_WANPEI
_chemical_formula_moiety         'C18 H19 N1 O10 S2'
_chemical_name_systematic        
'Ethyl 3-hydroxy-3-(4-(methylsulfonyl)phenyl)-2-(((4-nitrophenyl)sulfonyl)oxy)propanoate'
_symmetry_cell_setting           orthorhombic
_symmetry_space_group_name_H-M   'P 21 21 21'
_symmetry_Int_Tables_number      19
_space_group_name_Hall           'P 2ac 2ab'
loop_
_symmetry_equiv_pos_site_id
_symmetry_equiv_pos_as_xyz
1 x,y,z
2 1/2-x,-y,1/2+z
3 -x,1/2+y,1/2-z
4 1/2+x,1/2-y,-z
_cell_length_a                   7.8930(2)
_cell_length_b                   8.7329(2)
_cell_length_c                   30.4169(7)
_cell_angle_alpha                90
_cell_angle_beta                 90
_cell_angle_gamma                90
_cell_volume                     2096.6
_exptl_crystal_colour            colorless
_exptl_crystal_description       block
_cell_formula_units_Z            4
loop_
_atom_site_label
_atom_site_type_symbol
_atom_site_fract_x
_atom_site_fract_y
_atom_site_fract_z
S1 S 0.29040(8) 0.35966(7) 0.550571(17)
S2 S 0.43217(7) 0.90820(6) 0.700111(18)
N1 N 0.6496(4) 0.6576(3) 0.52658(10)
O1 O 0.4027(3) 1.0672(2) 0.69378(7)
O2 O 0.5545(2) 0.8574(2) 0.73122(6)
O3 O 0.25393(19) 0.83751(16) 0.71187(5)
O4 O -0.0536(2) 0.7033(2) 0.73027(7)
H1 H -0.1377 0.6485 0.7316
O5 O 0.2385(2) 0.90676(19) 0.79857(6)
O6 O 0.1942(2) 0.66042(19) 0.81625(5)
O7 O 0.5962(5) 0.7178(4) 0.49335(9)
O8 O 0.7502(4) 0.5505(4) 0.52769(11)
O9 O 0.4065(4) 0.2377(3) 0.55978(7)
O10 O 0.3462(4) 0.4812(3) 0.52317(7)
C1 C 0.5857(3) 0.7153(3) 0.56959(9)
C2 C 0.4865(4) 0.8439(3) 0.57029(9)
H2 H 0.4551 0.8923 0.5443
C3 C 0.4343(4) 0.8998(3) 0.61044(8)
H3 H 0.3663 0.9866 0.6118
C4 C 0.4831(3) 0.8267(2) 0.64881(8)
C5 C 0.5784(3) 0.6939(3) 0.64740(9)
H4 H 0.6068 0.6428 0.6732
C6 C 0.6309(4) 0.6382(3) 0.60703(10)
H5 H 0.6960 0.5496 0.6053
C7 C 0.2419(3) 0.7106(2) 0.74238(7)
H6 H 0.3462 0.6499 0.7406
C8 C 0.2243(3) 0.7740(2) 0.78886(7)
C9 C 0.1862(4) 0.6929(4) 0.86300(8)
H7 H 0.1131 0.7801 0.8685
H8 H 0.2983 0.7160 0.8743
C10 C 0.1174(6) 0.5543(5) 0.88459(12)
H9 H 0.0013 0.5404 0.8760
H10 H 0.1238 0.5660 0.9159
H11 H 0.1824 0.4665 0.8758
C11 C 0.0930(3) 0.6111(3) 0.72823(7)
H12 H 0.0811 0.5258 0.7490
C12 C 0.1292(3) 0.5476(2) 0.68281(7)
C13 C 0.2212(3) 0.4127(3) 0.67968(7)
H13 H 0.2516 0.3603 0.7051
C14 C 0.2679(3) 0.3555(3) 0.63901(7)
H14 H 0.3294 0.2650 0.6369
C15 C 0.2222(3) 0.4346(2) 0.60163(7)
C16 C 0.1291(3) 0.5679(3) 0.60384(7)
H15 H 0.0982 0.6197 0.5783
C17 C 0.0824(3) 0.6231(3) 0.64468(8)
H16 H 0.0185 0.7123 0.6466
C18 C 0.1104(5) 0.2839(6) 0.52651(11)
H17 H 0.0283 0.3637 0.5223
H18 H 0.0638 0.2062 0.5453
H19 H 0.1393 0.2398 0.4986
loop_
_geom_bond_atom_site_label_1
_geom_bond_atom_site_label_2
_geom_bond_site_symmetry_1
_geom_bond_site_symmetry_2
S1 O9 1_555 1_555
S2 O1 1_555 1_555
N1 O7 1_555 1_555
O2 S2 1_555 1_555
O3 S2 1_555 1_555
O4 H1 1_555 1_555
O5 C8 1_555 1_555
O6 C8 1_555 1_555
O8 N1 1_555 1_555
O10 S1 1_555 1_555
C1 N1 1_555 1_555
C2 C1 1_555 1_555
H2 C2 1_555 1_555
C3 C2 1_555 1_555
H3 C3 1_555 1_555
C4 S2 1_555 1_555
C5 C4 1_555 1_555
H4 C5 1_555 1_555
C6 C1 1_555 1_555
H5 C6 1_555 1_555
C7 O3 1_555 1_555
H6 C7 1_555 1_555
C8 C7 1_555 1_555
C9 O6 1_555 1_555
H7 C9 1_555 1_555
H8 C9 1_555 1_555
C10 C9 1_555 1_555
H9 C10 1_555 1_555
H10 C10 1_555 1_555
H11 C10 1_555 1_555
C11 O4 1_555 1_555
H12 C11 1_555 1_555
C12 C11 1_555 1_555
C13 C12 1_555 1_555
H13 C13 1_555 1_555
C14 C13 1_555 1_555
H14 C14 1_555 1_555
C15 S1 1_555 1_555
C16 C15 1_555 1_555
H15 C16 1_555 1_555
C17 C12 1_555 1_555
H16 C17 1_555 1_555
C18 S1 1_555 1_555
H17 C18 1_555 1_555
H18 C18 1_555 1_555
H19 C18 1_555 1_555
C3 C4 1_555 1_555
C5 C6 1_555 1_555
C7 C11 1_555 1_555
C14 C15 1_555 1_555
C16 C17 1_555 1_555

#END
