
#######################################################################
#
#                 Cambridge Crystallographic Data Centre
#                                CCDC 
#
#######################################################################
#
# If this CIF has been generated from an entry in the Cambridge 
# Structural Database, then it will include bibliographic, chemical, 
# crystal, experimental, refinement or atomic coordinate data resulting 
# from the CCDC's data processing and validation procedures.
#
#######################################################################

data_WANRUB
_chemical_formula_moiety         'C34 H24 O4'
_chemical_name_systematic        
5,7,13,15-tetramethoxydibenzo[c,gh]naphtho[3,2,1,8-pqra]tetraphene
_symmetry_cell_setting           monoclinic
_symmetry_space_group_name_H-M   'P 21/n'
_symmetry_Int_Tables_number      14
_space_group_name_Hall           '-P 2yn'
loop_
_symmetry_equiv_pos_site_id
_symmetry_equiv_pos_as_xyz
1 x,y,z
2 1/2-x,1/2+y,1/2-z
3 -x,-y,-z
4 1/2+x,1/2-y,1/2+z
_cell_length_a                   8.359(3)
_cell_length_b                   15.549(4)
_cell_length_c                   9.486(3)
_cell_angle_alpha                90
_cell_angle_beta                 112.632(16)
_cell_angle_gamma                90
_cell_volume                     1137.99
_exptl_crystal_colour            yellow
_exptl_crystal_description       plate
_cell_formula_units_Z            2
loop_
_atom_site_label
_atom_site_type_symbol
_atom_site_fract_x
_atom_site_fract_y
_atom_site_fract_z
C1 C 0.24023(15) 0.92000(7) 0.00865(13)
H1 H 0.1287 0.8981 -0.0067
C2 C 0.38485(15) 0.88737(7) 0.13089(13)
C3 C 0.36138(15) 0.82403(7) 0.22804(13)
H2 H 0.2485 0.8030 0.2099
C4 C 0.50143(15) 0.79293(7) 0.34857(13)
H3 H 0.4849 0.7506 0.4139
C5 C 0.66851(15) 0.82316(7) 0.37606(13)
H4 H 0.7637 0.8007 0.4601
C6 C 0.69889(15) 0.88532(7) 0.28354(12)
C7 C 0.87403(15) 0.91771(7) 0.31235(12)
C8 C 1.01519(15) 0.88285(7) 0.43488(13)
H5 H 0.9966 0.8372 0.4935
C9 C 1.17990(15) 0.91446(7) 0.47034(13)
C10 C 1.20882(15) 0.98068(7) 0.38398(13)
H6 H 1.3226 1.0027 0.4095
C11 C 1.07259(15) 1.01430(7) 0.26153(12)
C12 C 0.89749(14) 0.98369(7) 0.21933(12)
C13 C 0.74649(15) 1.01755(7) 0.09000(12)
C14 C 0.57435(14) 0.98434(7) 0.06163(12)
C15 C 0.55446(15) 0.91872(7) 0.15900(12)
C16 C 1.30108(16) 0.81484(8) 0.67394(14)
H7 H 1.2171 0.8305 0.7186
H8 H 1.4121 0.8003 0.7557
H9 H 1.2579 0.7651 0.6065
C17 C 1.27388(15) 1.10902(7) 0.21573(13)
H10 H 1.3168 1.1344 0.3182
H11 H 1.2758 1.1525 0.1416
H12 H 1.3480 1.0605 0.2140
O1 O 1.32456(11) 0.88574(6) 0.58804(10)
O2 O 1.10018(10) 1.07933(5) 0.17693(9)
C1B C 0.75977(15) 1.08000(7) -0.00865(13)
H1B H 0.8713 1.1019 0.0067
C2B C 0.61515(15) 1.11263(7) -0.13089(13)
C3B C 0.63862(15) 1.17597(7) -0.22804(13)
H2B H 0.7515 1.1970 -0.2099
C4B C 0.49857(15) 1.20707(7) -0.34857(13)
H3B H 0.5151 1.2494 -0.4139
C5B C 0.33149(15) 1.17684(7) -0.37606(13)
H4B H 0.2363 1.1993 -0.4601
C6B C 0.30111(15) 1.11468(7) -0.28354(12)
C7B C 0.12597(15) 1.08229(7) -0.31235(12)
C8B C -0.01519(15) 1.11715(7) -0.43488(13)
H5B H 0.0034 1.1628 -0.4935
C9B C -0.17990(15) 1.08554(7) -0.47034(13)
C10B C -0.20882(15) 1.01932(7) -0.38398(13)
H6B H -0.3226 0.9973 -0.4095
C11B C -0.07259(15) 0.98570(7) -0.26153(12)
C12B C 0.10251(14) 1.01631(7) -0.21933(12)
C13B C 0.25351(15) 0.98245(7) -0.09000(12)
C14B C 0.42565(14) 1.01566(7) -0.06163(12)
C15B C 0.44554(15) 1.08128(7) -0.15900(12)
C16B C -0.30108(16) 1.18516(8) -0.67394(14)
H7B H -0.2171 1.1695 -0.7186
H8B H -0.4121 1.1997 -0.7557
H9B H -0.2579 1.2349 -0.6065
C17B C -0.27388(15) 0.89098(7) -0.21573(13)
H10B H -0.3168 0.8656 -0.3182
H11B H -0.2758 0.8475 -0.1416
H12B H -0.3480 0.9395 -0.2140
O1B O -0.32456(11) 1.11426(6) -0.58804(10)
O2B O -0.10018(10) 0.92067(5) -0.17693(9)
loop_
_geom_bond_atom_site_label_1
_geom_bond_atom_site_label_2
_geom_bond_site_symmetry_1
_geom_bond_site_symmetry_2
C1 H1 1_555 1_555
C2 C1 1_555 1_555
C3 C2 1_555 1_555
H2 C3 1_555 1_555
C4 C3 1_555 1_555
H3 C4 1_555 1_555
C5 C4 1_555 1_555
H4 C5 1_555 1_555
C6 C5 1_555 1_555
C7 C6 1_555 1_555
C8 C7 1_555 1_555
H5 C8 1_555 1_555
C9 C8 1_555 1_555
C10 C9 1_555 1_555
H6 C10 1_555 1_555
C11 C10 1_555 1_555
C12 C7 1_555 1_555
C13 C12 1_555 1_555
C14 C13 1_555 1_555
C15 C2 1_555 1_555
C16 H7 1_555 1_555
H8 C16 1_555 1_555
H9 C16 1_555 1_555
C17 H10 1_555 1_555
H11 C17 1_555 1_555
H12 C17 1_555 1_555
O1 C9 1_555 1_555
O2 C11 1_555 1_555
C1B C13 1_555 1_555
H1B C1B 1_555 1_555
C2B C1B 1_555 1_555
C3B C2B 1_555 1_555
H2B C3B 1_555 1_555
C4B C3B 1_555 1_555
H3B C4B 1_555 1_555
C5B C4B 1_555 1_555
H4B C5B 1_555 1_555
C6B C5B 1_555 1_555
C7B C6B 1_555 1_555
C8B C7B 1_555 1_555
H5B C8B 1_555 1_555
C9B C8B 1_555 1_555
C10B C9B 1_555 1_555
H6B C10B 1_555 1_555
C11B C10B 1_555 1_555
C12B C7B 1_555 1_555
C13B C1 1_555 1_555
C14B C14 1_555 1_555
C15B C2B 1_555 1_555
C16B H7B 1_555 1_555
H8B C16B 1_555 1_555
H9B C16B 1_555 1_555
C17B H10B 1_555 1_555
H11B C17B 1_555 1_555
H12B C17B 1_555 1_555
O1B C9B 1_555 1_555
O2B C11B 1_555 1_555
C6 C15 1_555 1_555
C11 C12 1_555 1_555
C14 C15 1_555 1_555
C16 O1 1_555 1_555
C17 O2 1_555 1_555
C6B C15B 1_555 1_555
C11B C12B 1_555 1_555
C12B C13B 1_555 1_555
C13B C14B 1_555 1_555
C14B C15B 1_555 1_555
C16B O1B 1_555 1_555
C17B O2B 1_555 1_555

#END
