
#######################################################################
#
#                 Cambridge Crystallographic Data Centre
#                                CCDC 
#
#######################################################################
#
# If this CIF has been generated from an entry in the Cambridge 
# Structural Database, then it will include bibliographic, chemical, 
# crystal, experimental, refinement or atomic coordinate data resulting 
# from the CCDC's data processing and validation procedures.
#
#######################################################################

data_WANRAH
_chemical_formula_moiety         'C38 H36'
_chemical_name_systematic        4,10-bis(4-t-butylphenyl)chrysene
_symmetry_cell_setting           monoclinic
_symmetry_space_group_name_H-M   'P 21'
_symmetry_Int_Tables_number      4
_space_group_name_Hall           'P 2yb'
loop_
_symmetry_equiv_pos_site_id
_symmetry_equiv_pos_as_xyz
1 x,y,z
2 -x,1/2+y,-z
_cell_length_a                   6.15728(15)
_cell_length_b                   23.8062(6)
_cell_length_c                   9.2710(2)
_cell_angle_alpha                90
_cell_angle_beta                 94.455(2)
_cell_angle_gamma                90
_cell_volume                     1354.85
_exptl_crystal_colour            white
_exptl_crystal_description       prism
_cell_formula_units_Z            2
loop_
_atom_site_label
_atom_site_type_symbol
_atom_site_fract_x
_atom_site_fract_y
_atom_site_fract_z
C1 C -0.1533(4) 0.66824(11) 0.5061(3)
C2 C -0.0502(4) 0.69443(11) 0.3888(3)
C3 C 0.1229(4) 0.66908(12) 0.3113(3)
C4 C 0.1871(4) 0.61191(11) 0.3341(3)
H1 H 0.1029 0.5884 0.3909
C5 C 0.3662(4) 0.59023(12) 0.2763(3)
H2 H 0.4141 0.5534 0.3024
C6 C 0.4828(4) 0.62209(11) 0.1770(3)
C7 C 0.6719(4) 0.59850(12) 0.1222(3)
H3 H 0.7249 0.5631 0.1569
C8 C 0.7779(4) 0.62662(13) 0.0194(3)
H4 H 0.9082 0.6119 -0.0141
C9 C 0.6918(4) 0.67723(13) -0.0352(3)
H5 H 0.7635 0.6958 -0.1089
C10 C 0.5059(4) 0.70172(12) 0.0132(3)
C11 C 0.4038(4) 0.67574(12) 0.1312(3)
C12 C 0.2277(4) 0.70094(11) 0.2072(3)
C13 C 0.1625(4) 0.75765(12) 0.1826(3)
H6 H 0.2434 0.7808 0.1228
C14 C -0.0128(5) 0.77939(11) 0.2427(3)
H7 H -0.0598 0.8163 0.2171
C15 C -0.1286(4) 0.74818(12) 0.3436(3)
C16 C -0.3121(5) 0.77292(12) 0.3993(3)
H8 H -0.3621 0.8086 0.3651
C17 C -0.4197(5) 0.74526(13) 0.5037(3)
H9 H -0.5480 0.7607 0.5384
C18 C -0.3361(4) 0.69430(12) 0.5570(3)
H10 H -0.4070 0.6763 0.6318
C19 C -0.0762(4) 0.61772(11) 0.5895(3)
C20 C -0.2180(4) 0.57301(12) 0.6081(3)
H11 H -0.3609 0.5739 0.5616
C21 C -0.1525(5) 0.52709(11) 0.6943(3)
H12 H -0.2518 0.4970 0.7041
C22 C 0.0531(5) 0.52408(11) 0.7659(3)
C23 C 0.1274(5) 0.47392(13) 0.8611(3)
C24 C -0.0637(5) 0.43640(14) 0.8975(3)
H13 H -0.1673 0.4585 0.9491
H14 H -0.0088 0.4052 0.9588
H15 H -0.1370 0.4216 0.8079
C25 C 0.2363(7) 0.49466(16) 1.0051(4)
H16 H 0.3685 0.5157 0.9876
H17 H 0.2747 0.4624 1.0677
H18 H 0.1355 0.5192 1.0525
C26 C 0.2864(6) 0.43768(15) 0.7809(4)
H19 H 0.2156 0.4257 0.6876
H20 H 0.3281 0.4045 0.8393
H21 H 0.4167 0.4597 0.7646
C27 C 0.1953(4) 0.56929(13) 0.7479(3)
H22 H 0.3378 0.5685 0.7953
C28 C 0.1320(4) 0.61486(12) 0.6628(3)
H23 H 0.2313 0.6449 0.6535
C29 C 0.4213(4) 0.75123(12) -0.0719(3)
C30 C 0.2195(5) 0.74974(13) -0.1535(3)
H24 H 0.1307 0.7172 -0.1499
C31 C 0.1475(5) 0.79448(13) -0.2386(3)
H25 H 0.0110 0.7920 -0.2935
C32 C 0.2726(4) 0.84386(12) -0.2458(3)
C33 C 0.1977(5) 0.89259(12) -0.3469(3)
C34 C -0.0496(5) 0.90045(17) -0.3517(5)
H26 H -0.0938 0.9049 -0.2531
H27 H -0.1220 0.8675 -0.3968
H28 H -0.0912 0.9340 -0.4084
C35 C 0.3036(6) 0.94779(14) -0.2988(4)
H29 H 0.2355 0.9786 -0.3559
H30 H 0.4595 0.9464 -0.3133
H31 H 0.2841 0.9540 -0.1961
C36 C 0.2636(7) 0.87855(14) -0.4981(3)
H32 H 0.2139 0.9085 -0.5654
H33 H 0.1966 0.8429 -0.5302
H34 H 0.4225 0.8753 -0.4958
C37 C 0.4721(5) 0.84468(13) -0.1658(3)
H35 H 0.5607 0.8773 -0.1686
C38 C 0.5470(5) 0.79922(13) -0.0813(3)
H36 H 0.6861 0.8011 -0.0294
loop_
_geom_bond_atom_site_label_1
_geom_bond_atom_site_label_2
_geom_bond_site_symmetry_1
_geom_bond_site_symmetry_2
C1 C2 1_555 1_555
C2 C3 1_555 1_555
C3 C4 1_555 1_555
C4 H1 1_555 1_555
C5 C4 1_555 1_555
H2 C5 1_555 1_555
C6 C5 1_555 1_555
C7 C6 1_555 1_555
H3 C7 1_555 1_555
C8 C7 1_555 1_555
H4 C8 1_555 1_555
C9 C8 1_555 1_555
H5 C9 1_555 1_555
C10 C9 1_555 1_555
C11 C6 1_555 1_555
C12 C3 1_555 1_555
C13 C12 1_555 1_555
H6 C13 1_555 1_555
C14 C13 1_555 1_555
H7 C14 1_555 1_555
C15 C2 1_555 1_555
C16 C15 1_555 1_555
H8 C16 1_555 1_555
C17 C16 1_555 1_555
H9 C17 1_555 1_555
C18 C1 1_555 1_555
H10 C18 1_555 1_555
C19 C1 1_555 1_555
C20 C19 1_555 1_555
H11 C20 1_555 1_555
C21 C20 1_555 1_555
H12 C21 1_555 1_555
C22 C21 1_555 1_555
C23 C22 1_555 1_555
C24 C23 1_555 1_555
H13 C24 1_555 1_555
H14 C24 1_555 1_555
H15 C24 1_555 1_555
C25 C23 1_555 1_555
H16 C25 1_555 1_555
H17 C25 1_555 1_555
H18 C25 1_555 1_555
C26 C23 1_555 1_555
H19 C26 1_555 1_555
H20 C26 1_555 1_555
H21 C26 1_555 1_555
C27 C22 1_555 1_555
H22 C27 1_555 1_555
C28 C19 1_555 1_555
H23 C28 1_555 1_555
C29 C10 1_555 1_555
C30 C29 1_555 1_555
H24 C30 1_555 1_555
C31 C30 1_555 1_555
H25 C31 1_555 1_555
C32 C31 1_555 1_555
C33 C32 1_555 1_555
C34 C33 1_555 1_555
H26 C34 1_555 1_555
H27 C34 1_555 1_555
H28 C34 1_555 1_555
C35 C33 1_555 1_555
H29 C35 1_555 1_555
H30 C35 1_555 1_555
H31 C35 1_555 1_555
C36 C33 1_555 1_555
H32 C36 1_555 1_555
H33 C36 1_555 1_555
H34 C36 1_555 1_555
C37 C32 1_555 1_555
H35 C37 1_555 1_555
C38 C29 1_555 1_555
H36 C38 1_555 1_555
C10 C11 1_555 1_555
C11 C12 1_555 1_555
C14 C15 1_555 1_555
C17 C18 1_555 1_555
C27 C28 1_555 1_555
C37 C38 1_555 1_555

#END
