
#######################################################################
#
#                 Cambridge Crystallographic Data Centre
#                                CCDC 
#
#######################################################################
#
# If this CIF has been generated from an entry in the Cambridge 
# Structural Database, then it will include bibliographic, chemical, 
# crystal, experimental, refinement or atomic coordinate data resulting 
# from the CCDC's data processing and validation procedures.
#
#######################################################################

data_WANREK
_chemical_formula_moiety         'C15 H19 N3 O5'
_chemical_name_systematic        
'Diethyl 6-(3-hydroxypropyl)pyrazolo[1,5-a]pyrimidine-3,7-dicarboxylate'
_symmetry_cell_setting           triclinic
_symmetry_space_group_name_H-M   'P -1'
_symmetry_Int_Tables_number      2
_space_group_name_Hall           '-P 1'
loop_
_symmetry_equiv_pos_site_id
_symmetry_equiv_pos_as_xyz
1 x,y,z
2 -x,-y,-z
_cell_length_a                   4.9221(11)
_cell_length_b                   13.569(2)
_cell_length_c                   23.370(4)
_cell_angle_alpha                90.123(13)
_cell_angle_beta                 94.300(16)
_cell_angle_gamma                92.937(15)
_cell_volume                     1554.37
_exptl_crystal_colour            colorless
_exptl_crystal_description       block
_cell_formula_units_Z            4
loop_
_atom_site_label
_atom_site_type_symbol
_atom_site_fract_x
_atom_site_fract_y
_atom_site_fract_z
N1 N 0.840(4) 0.0841(14) -0.0340(9)
N2 N 0.572(4) 0.2901(14) -0.1076(9)
N3 N 0.605(4) 0.2271(13) -0.0628(8)
O1 O 1.171(5) 0.0465(17) -0.1394(9)
O2 O 1.069(5) 0.1480(15) -0.2127(8)
O3 O 0.116(4) 0.3380(15) -0.0291(9)
O4 O 0.440(3) 0.3757(12) 0.0408(8)
O5 O 0.574(6) 0.209(3) 0.2396(11)
H1 H 0.4783 0.2476 0.2549
C1 C 0.777(5) 0.1529(15) -0.0732(10)
C2 C 0.857(5) 0.1701(17) -0.1280(10)
C3 C 0.723(6) 0.2542(18) -0.1466(11)
H2 H 0.7380 0.2820 -0.1827
C4 C 0.492(4) 0.2337(15) -0.0115(10)
C5 C 0.541(5) 0.1632(16) 0.0284(10)
C6 C 0.721(5) 0.0898(17) 0.0145(11)
H3 H 0.7591 0.0419 0.0420
C7 C 1.045(6) 0.1139(19) -0.1588(11)
C8 C 1.255(8) 0.099(2) -0.2469(15)
H4 H 1.4086 0.0773 -0.2225
H5 H 1.3242 0.1442 -0.2751
C9 C 1.104(9) 0.011(3) -0.2769(18)
H6 H 1.2171 -0.0168 -0.3040
H7 H 0.9385 0.0310 -0.2966
H8 H 1.0610 -0.0386 -0.2490
C10 C 0.322(5) 0.3210(16) -0.0022(11)
C11 C 0.304(5) 0.4633(18) 0.0569(12)
H9 H 0.2191 0.4932 0.0229
H10 H 0.4371 0.5111 0.0749
C12 C 0.089(6) 0.437(3) 0.0981(15)
H11 H 0.0180 0.4962 0.1122
H12 H 0.1688 0.4006 0.1297
H13 H -0.0565 0.3972 0.0785
C13 C 0.408(5) 0.1569(19) 0.0830(10)
H14 H 0.3421 0.0891 0.0881
H15 H 0.2501 0.1971 0.0797
C14 C 0.587(5) 0.190(2) 0.1371(10)
H16 H 0.7527 0.1534 0.1396
H17 H 0.6389 0.2594 0.1346
C15 C 0.434(8) 0.171(3) 0.1900(13)
H18 H 0.2582 0.2000 0.1848
H19 H 0.4014 0.1002 0.1944
N4 N -0.331(4) 0.4145(14) 0.5366(9)
N5 N -0.056(4) 0.2074(14) 0.6078(9)
N6 N -0.092(4) 0.2713(13) 0.5637(8)
O6 O -0.649(6) 0.4500(18) 0.6441(10)
O7 O -0.546(5) 0.3467(15) 0.7153(9)
O8 O 0.391(4) 0.1622(15) 0.5273(10)
O9 O 0.059(4) 0.1213(12) 0.4595(8)
O10 O 0.107(7) 0.252(3) 0.2914(15)
H20 H 0.0105 0.2396 0.2619
C16 C -0.264(5) 0.3452(16) 0.5753(10)
C17 C -0.335(5) 0.3280(18) 0.6305(10)
C18 C -0.202(6) 0.2427(19) 0.6480(12)
H21 H -0.2152 0.2140 0.6838
C19 C 0.010(5) 0.2633(17) 0.5116(11)
C20 C -0.042(7) 0.3350(19) 0.4726(12)
C21 C -0.219(6) 0.4090(18) 0.4876(12)
H22 H -0.2586 0.4573 0.4604
C22 C -0.524(6) 0.382(2) 0.6623(12)
C23 C -0.736(7) 0.394(2) 0.7503(14)
H23 H -0.8077 0.3472 0.7773
H24 H -0.8879 0.4172 0.7259
C24 C -0.591(10) 0.480(3) 0.7826(17)
H25 H -0.7089 0.5062 0.8091
H26 H -0.5422 0.5308 0.7559
H27 H -0.4287 0.4586 0.8032
C25 C 0.180(5) 0.1772(17) 0.5013(11)
C26 C 0.197(6) 0.0349(19) 0.4420(13)
H28 H 0.0636 -0.0128 0.4239
H29 H 0.2835 0.0043 0.4756
C27 C 0.410(7) 0.062(3) 0.4006(15)
H30 H 0.4789 0.0031 0.3858
H31 H 0.5562 0.1011 0.4202
H32 H 0.3286 0.0993 0.3695
C28 C 0.101(7) 0.342(2) 0.4178(14)
H33 H 0.1983 0.4057 0.4162
H34 H 0.2333 0.2914 0.4176
C29 C -0.100(8) 0.329(3) 0.3657(16)
H35 H -0.2380 0.3773 0.3666
H36 H -0.1897 0.2637 0.3657
C30 C 0.057(11) 0.343(3) 0.3106(15)
H37 H -0.0521 0.3773 0.2816
H38 H 0.2270 0.3810 0.3193
loop_
_geom_bond_atom_site_label_1
_geom_bond_atom_site_label_2
_geom_bond_site_symmetry_1
_geom_bond_site_symmetry_2
N1 C1 1_555 1_555
N2 N3 1_555 1_555
N3 C1 1_555 1_555
O1 C7 1_555 1_555
O2 C7 1_555 1_555
O3 C10 1_555 1_555
O4 C10 1_555 1_555
O5 H1 1_555 1_555
C1 C2 1_555 1_555
C2 C3 1_555 1_555
C3 N2 1_555 1_555
H2 C3 1_555 1_555
C4 N3 1_555 1_555
C5 C4 1_555 1_555
C6 N1 1_555 1_555
H3 C6 1_555 1_555
C7 C2 1_555 1_555
C8 O2 1_555 1_555
H4 C8 1_555 1_555
H5 C8 1_555 1_555
C9 C8 1_555 1_555
H6 C9 1_555 1_555
H7 C9 1_555 1_555
H8 C9 1_555 1_555
C10 C4 1_555 1_555
C11 O4 1_555 1_555
H9 C11 1_555 1_555
H10 C11 1_555 1_555
C12 C11 1_555 1_555
H11 C12 1_555 1_555
H12 C12 1_555 1_555
H13 C12 1_555 1_555
C13 C5 1_555 1_555
H14 C13 1_555 1_555
H15 C13 1_555 1_555
C14 C13 1_555 1_555
H16 C14 1_555 1_555
H17 C14 1_555 1_555
C15 O5 1_555 1_555
H18 C15 1_555 1_555
H19 C15 1_555 1_555
N4 C16 1_555 1_555
N5 N6 1_555 1_555
N6 C16 1_555 1_555
O6 C22 1_555 1_555
O7 C22 1_555 1_555
O8 C25 1_555 1_555
O9 C25 1_555 1_555
O10 H20 1_555 1_555
C16 C17 1_555 1_555
C17 C18 1_555 1_555
C18 N5 1_555 1_555
H21 C18 1_555 1_555
C19 N6 1_555 1_555
C20 C19 1_555 1_555
C21 N4 1_555 1_555
H22 C21 1_555 1_555
C22 C17 1_555 1_555
C23 O7 1_555 1_555
H23 C23 1_555 1_555
H24 C23 1_555 1_555
C24 C23 1_555 1_555
H25 C24 1_555 1_555
H26 C24 1_555 1_555
H27 C24 1_555 1_555
C25 C19 1_555 1_555
C26 O9 1_555 1_555
H28 C26 1_555 1_555
H29 C26 1_555 1_555
C27 C26 1_555 1_555
H30 C27 1_555 1_555
H31 C27 1_555 1_555
H32 C27 1_555 1_555
C28 C20 1_555 1_555
H33 C28 1_555 1_555
H34 C28 1_555 1_555
C29 C28 1_555 1_555
H35 C29 1_555 1_555
H36 C29 1_555 1_555
C30 O10 1_555 1_555
H37 C30 1_555 1_555
H38 C30 1_555 1_555
C5 C6 1_555 1_555
C14 C15 1_555 1_555
C20 C21 1_555 1_555
C29 C30 1_555 1_555

#END
