
#######################################################################
#
#                 Cambridge Crystallographic Data Centre
#                                CCDC 
#
#######################################################################
#
# If this CIF has been generated from an entry in the Cambridge 
# Structural Database, then it will include bibliographic, chemical, 
# crystal, experimental, refinement or atomic coordinate data resulting 
# from the CCDC's data processing and validation procedures.
#
#######################################################################

data_WANRUA
_chemical_formula_moiety         'C24 H21 N1 O1 S1'
_chemical_name_systematic        
N-(3-(4-Ethylbenzylidene)-2-benzothiophen-1(3H)-ylidene)-4-methoxyaniline
_symmetry_cell_setting           monoclinic
_symmetry_space_group_name_H-M   'P 21/c'
_symmetry_Int_Tables_number      14
_space_group_name_Hall           '-P 2ybc'
loop_
_symmetry_equiv_pos_site_id
_symmetry_equiv_pos_as_xyz
1 x,y,z
2 -x,1/2+y,1/2-z
3 -x,-y,-z
4 x,1/2-y,1/2+z
_cell_length_a                   13.325(5)
_cell_length_b                   12.010(5)
_cell_length_c                   13.762(5)
_cell_angle_alpha                90
_cell_angle_beta                 117.306(5)
_cell_angle_gamma                90
_cell_volume                     1956.96
_exptl_crystal_colour            yellow
_exptl_crystal_description       block
_cell_formula_units_Z            4
loop_
_atom_site_label
_atom_site_type_symbol
_atom_site_fract_x
_atom_site_fract_y
_atom_site_fract_z
S1 S 0.25093(7) 0.36195(7) 0.34523(6)
N1 N 0.1348(2) 0.4843(2) 0.1612(2)
O1 O 0.2286(2) 0.8732(2) 0.4048(2)
C1 C 0.1696(3) 0.3896(3) 0.2032(2)
C2 C 0.1483(3) 0.2856(3) 0.1423(3)
C3 C 0.0866(3) 0.2776(3) 0.0292(3)
H1 H 0.0553 0.3405 -0.0135
C4 C 0.0734(3) 0.1743(4) -0.0174(3)
H2 H 0.0329 0.1669 -0.0929
C5 C 0.1191(3) 0.0816(4) 0.0460(3)
H3 H 0.1098 0.0124 0.0125
C6 C 0.1786(3) 0.0890(3) 0.1582(3)
H4 H 0.2079 0.0254 0.2005
C7 C 0.1941(3) 0.1928(3) 0.2073(3)
C8 C 0.2565(3) 0.2175(3) 0.3249(3)
C9 C 0.3106(3) 0.1427(3) 0.4034(3)
H5 H 0.3067 0.0704 0.3778
C10 C 0.3746(3) 0.1529(3) 0.5218(3)
C11 C 0.4308(4) 0.0604(3) 0.5816(3)
H6 H 0.4277 -0.0059 0.5453
C12 C 0.4915(4) 0.0644(3) 0.6939(4)
H7 H 0.5283 0.0005 0.7313
C13 C 0.4995(3) 0.1596(3) 0.7526(3)
C14 C 0.4444(3) 0.2493(3) 0.6936(3)
H8 H 0.4477 0.3152 0.7303
C15 C 0.3837(3) 0.2479(3) 0.5819(3)
H9 H 0.3477 0.3127 0.5455
C16 C 0.5667(5) 0.1662(4) 0.8765(4)
H10 H 0.6355 0.2073 0.8934
H11 H 0.5232 0.2104 0.9028
C17 C 0.5963(8) 0.0711(5) 0.9349(5)
H12 H 0.6379 0.0885 1.0113
H13 H 0.6425 0.0271 0.9129
H14 H 0.5296 0.0301 0.9222
C18 C 0.1603(3) 0.5802(3) 0.2287(2)
C19 C 0.0896(3) 0.6145(3) 0.2701(3)
H15 H 0.0271 0.5712 0.2582
C20 C 0.1092(3) 0.7118(3) 0.3290(3)
H16 H 0.0600 0.7336 0.3563
C21 C 0.2008(3) 0.7762(3) 0.3475(3)
C22 C 0.2729(3) 0.7409(3) 0.3079(3)
H17 H 0.3366 0.7829 0.3215
C23 C 0.2521(3) 0.6445(3) 0.2485(3)
H18 H 0.3013 0.6225 0.2214
C24 C 0.1607(4) 0.9098(3) 0.4521(4)
H19 H 0.1897 0.9789 0.4896
H20 H 0.1614 0.8550 0.5032
H21 H 0.0847 0.9204 0.3959
loop_
_geom_bond_atom_site_label_1
_geom_bond_atom_site_label_2
_geom_bond_site_symmetry_1
_geom_bond_site_symmetry_2
S1 C1 1_555 1_555
N1 C1 1_555 1_555
O1 C21 1_555 1_555
C1 C2 1_555 1_555
C2 C3 1_555 1_555
C3 H1 1_555 1_555
C4 C3 1_555 1_555
H2 C4 1_555 1_555
C5 C4 1_555 1_555
H3 C5 1_555 1_555
C6 C5 1_555 1_555
H4 C6 1_555 1_555
C7 C2 1_555 1_555
C8 S1 1_555 1_555
C9 C8 1_555 1_555
H5 C9 1_555 1_555
C10 C9 1_555 1_555
C11 C10 1_555 1_555
H6 C11 1_555 1_555
C12 C11 1_555 1_555
H7 C12 1_555 1_555
C13 C12 1_555 1_555
C14 C13 1_555 1_555
H8 C14 1_555 1_555
C15 C10 1_555 1_555
H9 C15 1_555 1_555
C16 C13 1_555 1_555
H10 C16 1_555 1_555
H11 C16 1_555 1_555
C17 C16 1_555 1_555
H12 C17 1_555 1_555
H13 C17 1_555 1_555
H14 C17 1_555 1_555
C18 N1 1_555 1_555
C19 C18 1_555 1_555
H15 C19 1_555 1_555
C20 C19 1_555 1_555
H16 C20 1_555 1_555
C21 C20 1_555 1_555
C22 C21 1_555 1_555
H17 C22 1_555 1_555
C23 C18 1_555 1_555
H18 C23 1_555 1_555
C24 O1 1_555 1_555
H19 C24 1_555 1_555
H20 C24 1_555 1_555
H21 C24 1_555 1_555
C6 C7 1_555 1_555
C7 C8 1_555 1_555
C14 C15 1_555 1_555
C22 C23 1_555 1_555

#END
