
#######################################################################
#
#                 Cambridge Crystallographic Data Centre
#                                CCDC 
#
#######################################################################
#
# If this CIF has been generated from an entry in the Cambridge 
# Structural Database, then it will include bibliographic, chemical, 
# crystal, experimental, refinement or atomic coordinate data resulting 
# from the CCDC's data processing and validation procedures.
#
#######################################################################

data_WANWIR
_chemical_formula_moiety         'C12 H17 N5 O1 S1'
_chemical_name_systematic        
N-Cyano-N'-methyl-N''-(2-((3-methoxy-2-pyridyl)methylthio)ethyl)guanidine
_chemical_properties_biological  'histamine H!2$-antagonist activity'
_symmetry_cell_setting           monoclinic
_symmetry_space_group_name_H-M   'P 21/a'
_symmetry_Int_Tables_number      14
_space_group_name_Hall           '-P 2yab'
loop_
_symmetry_equiv_pos_site_id
_symmetry_equiv_pos_as_xyz
1 x,y,z
2 1/2-x,1/2+y,-z
3 -x,-y,-z
4 1/2+x,1/2-y,z
_cell_length_a                   8.670(4)
_cell_length_b                   14.095(4)
_cell_length_c                   11.682(2)
_cell_angle_alpha                90
_cell_angle_beta                 99.32
_cell_angle_gamma                90
_cell_volume                     1408.74
_exptl_crystal_colour            colorless
_cell_formula_units_Z            4
loop_
_atom_site_label
_atom_site_type_symbol
_atom_site_fract_x
_atom_site_fract_y
_atom_site_fract_z
C1 C 0.9070(2) 0.2883(2) 0.4286(2)
C2 C 0.9775(3) 0.2543(2) 0.3386(2)
C3 C 0.9939(4) 0.1587(3) 0.3287(2)
C4 C 0.9408(4) 0.0993(2) 0.4062(3)
N1 N 0.8710(3) 0.1304(2) 0.4943(2)
C5 C 0.8549(2) 0.2237(2) 0.5047(2)
C6 C 0.7785(3) 0.2585(2) 0.6022(2)
S1 S 0.9189(1) 0.2886(1) 0.7305(1)
C7 C 0.9799(3) 0.1721(2) 0.7843(2)
C8 C 0.8652(3) 0.1215(2) 0.8485(2)
N2 N 0.8210(2) 0.1817(1) 0.9378(2)
C9 C 0.7436(2) 0.1532(1) 1.0226(2)
N3 N 0.7225(2) 0.0613(1) 1.0377(2)
C10 C 0.6434(4) 0.0254(2) 1.1286(3)
N4 N 0.6861(2) 0.2132(1) 1.0933(2)
C11 C 0.7040(3) 0.3045(1) 1.0795(2)
N5 N 0.7124(3) 0.3858(1) 1.0735(2)
O1 O 0.8837(2) 0.3809(1) 0.4510(2)
C12 C 0.9201(5) 0.4503(3) 0.3704(3)
H1 H 0.8892(48) 0.5135(26) 0.4043(36)
H2 H 1.0298(38) 0.4388(29) 0.3675(34)
H3 H 0.8633(35) 0.4370(23) 0.2873(25)
H4 H 1.0118(38) 0.3012(20) 0.2809(26)
H5 H 1.0392(36) 0.1345(23) 0.2642(26)
H6 H 0.9500(33) 0.0323(19) 0.4020(25)
H7 H 0.7203(35) 0.3176(20) 0.5808(27)
H8 H 0.7056(30) 0.2114(18) 0.6209(23)
H9 H 1.0785(29) 0.1820(17) 0.8381(22)
H10 H 1.0024(29) 0.1340(18) 0.7192(21)
H11 H 0.9125(29) 0.0649(19) 0.8844(22)
H12 H 0.7722(29) 0.1041(18) 0.7948(22)
H13 H 0.8333(29) 0.2407(17) 0.9281(22)
H14 H 0.7567(30) 0.0224(18) 0.9896(22)
H15 H 0.6448(45) -0.0419(23) 1.1171(34)
H16 H 0.6921(35) 0.0479(22) 1.2044(25)
H17 H 0.5362(35) 0.0563(25) 1.1196(29)
loop_
_geom_bond_atom_site_label_1
_geom_bond_atom_site_label_2
_geom_bond_site_symmetry_1
_geom_bond_site_symmetry_2
C1 C2 1_555 1_555
C2 C3 1_555 1_555
C3 C4 1_555 1_555
C4 N1 1_555 1_555
N1 C5 1_555 1_555
C5 C1 1_555 1_555
C6 C5 1_555 1_555
S1 C6 1_555 1_555
C7 S1 1_555 1_555
C8 C7 1_555 1_555
N2 C8 1_555 1_555
C9 N2 1_555 1_555
N3 C9 1_555 1_555
C10 N3 1_555 1_555
N4 C9 1_555 1_555
C11 N4 1_555 1_555
N5 C11 1_555 1_555
O1 C1 1_555 1_555
C12 O1 1_555 1_555
H1 C12 1_555 1_555
H2 C12 1_555 1_555
H3 C12 1_555 1_555
H4 C2 1_555 1_555
H5 C3 1_555 1_555
H6 C4 1_555 1_555
H7 C6 1_555 1_555
H8 C6 1_555 1_555
H9 C7 1_555 1_555
H10 C7 1_555 1_555
H11 C8 1_555 1_555
H12 C8 1_555 1_555
H13 N2 1_555 1_555
H14 N3 1_555 1_555
H15 C10 1_555 1_555
H16 C10 1_555 1_555
H17 C10 1_555 1_555

#END
