
#######################################################################
#
#                 Cambridge Crystallographic Data Centre
#                                CCDC 
#
#######################################################################
#
# If this CIF has been generated from an entry in the Cambridge 
# Structural Database, then it will include bibliographic, chemical, 
# crystal, experimental, refinement or atomic coordinate data resulting 
# from the CCDC's data processing and validation procedures.
#
#######################################################################

data_WANWOX
_chemical_formula_moiety         'C11 H14 Br1 N5 S1'
_chemical_name_systematic        
N-Cyano-N'-methyl-N''-(2-((3-bromo-2-pyridyl)methylthio)ethyl)guanidine
_chemical_properties_biological  'histamine H!2$-antagonist activity'
_symmetry_cell_setting           monoclinic
_symmetry_space_group_name_H-M   'P 21/c'
_symmetry_Int_Tables_number      14
_space_group_name_Hall           '-P 2ybc'
loop_
_symmetry_equiv_pos_site_id
_symmetry_equiv_pos_as_xyz
1 x,y,z
2 -x,1/2+y,1/2-z
3 -x,-y,-z
4 x,1/2-y,1/2+z
_cell_length_a                   10.928(4)
_cell_length_b                   9.183(2)
_cell_length_c                   14.229(8)
_cell_angle_alpha                90
_cell_angle_beta                 100.4(8)
_cell_angle_gamma                90
_cell_volume                     1404.45
_exptl_crystal_colour            colorless
_cell_formula_units_Z            4
loop_
_atom_site_label
_atom_site_type_symbol
_atom_site_fract_x
_atom_site_fract_y
_atom_site_fract_z
C1 C 0.5463(4) 0.0675(5) 0.1295(3)
C2 C 0.5871(5) -0.0585(6) 0.1789(4)
C3 C 0.7078(6) -0.1011(6) 0.1804(4)
C4 C 0.7837(5) -0.01688(6) 0.1355(5)
N1 N 0.7451(4) 0.1046(4) 0.0866(3)
C5 C 0.6269(4) 0.1486(5) 0.0828(3)
C6 C 0.5906(5) 0.2894(5) 0.0351(3)
S1 S 0.5991(1) 0.4365(1) 0.1227(1)
C7 C 0.7628(5) 0.4818(6) 0.1401(3)
C8 C 0.7907(4) 0.5770(6) 0.0593(3)
N2 N 0.9188(4) 0.6287(5) 0.0798(3)
C9 C 0.9689(4) 0.6972(5) 0.0125(3)
N3 N 1.0820(4) 0.7542(5) 0.0353(3)
C10 C 1.1569(6) 0.7523(10) 0.1308(4)
N4 N 0.9002(4) 0.7011(6) -0.0755(3)
C11 C 0.9437(4) 0.7649(6) -0.1445(3)
N5 N 0.9699(4) 0.8188(7) -0.2107(3)
Br1 Br 0.38019(5) 0.13124(6) 0.12388(4)
H1 H 0.5347(52) -0.1160(59) 0.2132(40)
H2 H 0.7390(57) -0.1958(43) 0.2064(43)
H3 H 0.8728(69) -0.0407(88) 0.1452(52)
H4 H 0.6499(49) 0.3130(56) -0.0053(37)
H5 H 0.5042(54) 0.2865(58) -0.0003(39)
H6 H 0.7789(49) 0.5357(59) 0.1979(40)
H7 H 0.8066(37) 0.3869(43) 0.1465(27)
H8 H 0.7298(40) 0.6565(43) 0.0514(38)
H9 H 0.7813(47) 0.5211(50) -0.0009(25)
H10 H 0.9630(48) 0.6259(56) 0.1459(22)
H11 H 1.1259(55) 0.8024(64) -0.0094(37)
H12 H 1.2351(67) 0.8000(75) 0.1267(50)
H13 H 1.1093(93) 0.8252(88) 0.1611(73)
H14 H 1.1748(65) 0.6489(77) 0.1409(49)
loop_
_geom_bond_atom_site_label_1
_geom_bond_atom_site_label_2
_geom_bond_site_symmetry_1
_geom_bond_site_symmetry_2
C1 C2 1_555 1_555
C2 C3 1_555 1_555
C3 C4 1_555 1_555
C4 N1 1_555 1_555
N1 C5 1_555 1_555
C5 C1 1_555 1_555
C6 C5 1_555 1_555
S1 C6 1_555 1_555
C7 S1 1_555 1_555
C8 C7 1_555 1_555
N2 C8 1_555 1_555
C9 N2 1_555 1_555
N3 C9 1_555 1_555
C10 N3 1_555 1_555
N4 C9 1_555 1_555
C11 N4 1_555 1_555
N5 C11 1_555 1_555
Br1 C1 1_555 1_555
H1 C2 1_555 1_555
H2 C3 1_555 1_555
H3 C4 1_555 1_555
H4 C6 1_555 1_555
H5 C6 1_555 1_555
H6 C7 1_555 1_555
H7 C7 1_555 1_555
H8 C8 1_555 1_555
H9 C8 1_555 1_555
H10 N2 1_555 1_555
H11 N3 1_555 1_555
H12 C10 1_555 1_555
H13 C10 1_555 1_555
H14 C10 1_555 1_555

#END
