
#######################################################################
#
#                 Cambridge Crystallographic Data Centre
#                                CCDC 
#
#######################################################################
#
# If this CIF has been generated from an entry in the Cambridge 
# Structural Database, then it will include bibliographic, chemical, 
# crystal, experimental, refinement or atomic coordinate data resulting 
# from the CCDC's data processing and validation procedures.
#
#######################################################################

data_WANXUE
_chemical_formula_moiety         'C13 H19 N5 O1,H2 O1'
_chemical_name_systematic        
"N-Cyano-N'-methyl-N''-(4-(5-methoxy-2-pyridyl)butyl)guanidine monohydrate"
_chemical_properties_biological  'histamine H!2$-antagonist activity'
_symmetry_cell_setting           triclinic
_symmetry_space_group_name_H-M   'P -1'
_symmetry_Int_Tables_number      2
_space_group_name_Hall           '-P 1'
loop_
_symmetry_equiv_pos_site_id
_symmetry_equiv_pos_as_xyz
1 x,y,z
2 -x,-y,-z
_cell_length_a                   7.700(1)
_cell_length_b                   9.331(1)
_cell_length_c                   10.767(1)
_cell_angle_alpha                78.52(1)
_cell_angle_beta                 85.56(1)
_cell_angle_gamma                76.46(1)
_cell_volume                     736.662
_exptl_crystal_colour            colorless
_cell_formula_units_Z            2
loop_
_atom_site_label
_atom_site_type_symbol
_atom_site_fract_x
_atom_site_fract_y
_atom_site_fract_z
C1 C 0.2384(2) 0.4526(1) 0.9095(1)
C2 C 0.2435(2) 0.5838(1) 0.9482(1)
C3 C 0.2767(2) 0.5788(1) 1.0732(1)
C4 C 0.3053(2) 0.4415(1) 1.1534(1)
N1 N 0.2994(2) 0.3139(1) 1.1159(1)
C5 C 0.2653(2) 0.3184(1) 0.9957(1)
C6 C 0.2596(3) 0.1708(2) 0.9610(1)
C7 C 0.2093(2) 0.1766(1) 0.8277(1)
C8 C 0.1950(2) 0.0252(1) 0.8017(1)
C9 C 0.1485(2) 0.0374(1) 0.6654(1)
N2 N 0.1157(1) -0.1013(1) 0.6393(1)
C10 C 0.2414(1) -0.2055(1) 0.5955(1)
N3 N 0.1988(1) -0.3321(1) 0.5807(1)
C11 C 0.0261(2) -0.3670(1) 0.6126(1)
N4 N 0.4054(1) -0.1790(1) 0.5686(1)
C12 C 0.5248(1) -0.2851(1) 0.5258(1)
N5 N 0.6368(1) -0.3730(1) 0.4882(1)
O1 O 0.2792(2) 0.7116(1) 1.1072(1)
C13 C 0.3166(3) 0.7064(2) 1.2355(2)
H1 H 0.3076(26) 0.8138(22) 1.2401(18)
H2 H 0.2229(27) 0.6652(24) 1.2953(20)
H3 H 0.4390(24) 0.6421(20) 1.2539(17)
H4 H 0.3379(22) 0.4272(18) 1.2403(15)
H5 H 0.2126(22) 0.4570(19) 0.8229(16)
H6 H 0.2248(22) 0.6781(19) 0.8874(16)
H7 H 0.1861(28) 0.1157(23) 1.0206(20)
H8 H 0.3694(29) 0.0959(25) 0.9868(21)
H9 H 0.0929(22) 0.2517(19) 0.8097(16)
H10 H 0.2943(22) 0.2211(18) 0.7679(15)
H11 H 0.1025(22) -0.0090(19) 0.8590(16)
H12 H 0.3096(22) -0.0510(19) 0.8199(16)
H13 H 0.0351(21) 0.1133(18) 0.6422(15)
H14 H 0.2423(20) 0.0683(17) 0.6083(14)
H15 H 0.0047(21) -0.1120(18) 0.6479(15)
H16 H 0.2837(18) -0.4028(16) 0.5540(13)
H17 H 0.0416(21) -0.4728(18) 0.6074(15)
H18 H -0.0154(22) -0.3557(19) 0.6999(16)
H19 H -0.0657(22) -0.3025(19) 0.5609(16)
O2 O 0.2706(1) 0.0637(1) 0.3105(1)
H20 H 0.2944(22) 0.1378(20) 0.2497(17)
H21 H 0.3522(26) 0.0427(21) 0.3679(19)
loop_
_geom_bond_atom_site_label_1
_geom_bond_atom_site_label_2
_geom_bond_site_symmetry_1
_geom_bond_site_symmetry_2
C1 C2 1_555 1_555
C2 C3 1_555 1_555
C3 C4 1_555 1_555
C4 N1 1_555 1_555
N1 C5 1_555 1_555
C5 C1 1_555 1_555
C6 C5 1_555 1_555
C7 C6 1_555 1_555
C8 C7 1_555 1_555
C9 C8 1_555 1_555
N2 C9 1_555 1_555
C10 N2 1_555 1_555
N3 C10 1_555 1_555
C11 N3 1_555 1_555
N4 C10 1_555 1_555
C12 N4 1_555 1_555
N5 C12 1_555 1_555
O1 C3 1_555 1_555
C13 O1 1_555 1_555
O2 H20 1_555 1_555
H1 C13 1_555 1_555
H2 C13 1_555 1_555
H3 C13 1_555 1_555
H4 C4 1_555 1_555
H5 C1 1_555 1_555
H6 C2 1_555 1_555
H7 C6 1_555 1_555
H8 C6 1_555 1_555
H9 C7 1_555 1_555
H10 C7 1_555 1_555
H11 C8 1_555 1_555
H12 C8 1_555 1_555
H13 C9 1_555 1_555
H14 C9 1_555 1_555
H15 N2 1_555 1_555
H16 N3 1_555 1_555
H17 C11 1_555 1_555
H18 C11 1_555 1_555
H19 C11 1_555 1_555
H21 O2 1_555 1_555

#END
