
#######################################################################
#
#                 Cambridge Crystallographic Data Centre
#                                CCDC 
#
#######################################################################
#
# If this CIF has been generated from an entry in the Cambridge 
# Structural Database, then it will include bibliographic, chemical, 
# crystal, experimental, refinement or atomic coordinate data resulting 
# from the CCDC's data processing and validation procedures.
#
#######################################################################

data_WANXOY
_chemical_formula_moiety         'C12 H16 Br1 N5'
_chemical_name_systematic        
N-Cyano-N'-methyl-N''-(4-(3-bromo-2-pyridyl)butyl)guanidine
_chemical_properties_biological  'histamine H!2$-antagonist activity'
_symmetry_cell_setting           monoclinic
_symmetry_space_group_name_H-M   'P 21/c'
_symmetry_Int_Tables_number      14
_space_group_name_Hall           '-P 2ybc'
loop_
_symmetry_equiv_pos_site_id
_symmetry_equiv_pos_as_xyz
1 x,y,z
2 -x,1/2+y,1/2-z
3 -x,-y,-z
4 x,1/2-y,1/2+z
_cell_length_a                   14.104(8)
_cell_length_b                   12.678(4)
_cell_length_c                   7.812(3)
_cell_angle_alpha                90
_cell_angle_beta                 101.92(4)
_cell_angle_gamma                90
_cell_volume                     1366.75
_exptl_crystal_colour            yellow
_cell_formula_units_Z            4
loop_
_atom_site_label
_atom_site_type_symbol
_atom_site_fract_x
_atom_site_fract_y
_atom_site_fract_z
C1 C 0.0856(3) 0.2078(4) 0.1891(7)
C2 C 0.0009(4) 0.1667(4) 0.2166(9)
C3 C -0.0696(4) 0.2345(5) 0.2422(9)
C4 C -0.0522(4) 0.3415(5) 0.2388(8)
N1 N 0.0303(3) 0.3821(3) 0.2131(6)
C5 C 0.1006(3) 0.3171(4) 0.1880(6)
C6 C 0.1946(4) 0.3635(3) 0.1613(7)
C7 C 0.1999(4) 0.4834(4) 0.1630(8)
C8 C 0.2952(4) 0.5200(4) 0.1276(8)
C9 C 0.3058(4) 0.6394(4) 0.1327(8)
N2 N 0.3984(3) 0.6692(3) 0.0935(6)
C10 C 0.4248(3) 0.7702(4) 0.0821(7)
N3 N 0.5095(3) 0.7912(3) 0.0418(6)
C11 C 0.5757(4) 0.7109(4) 0.0060(8)
N4 N 0.3628(3) 0.8429(3) 0.1146(6)
C12 C 0.3919(4) 0.9416(4) 0.1201(8)
N5 N 0.4122(4) 1.0288(4) 0.1295(9)
Br1 Br 0.18648(4) 0.11594(4) 0.15380(8)
H1 H -0.009(4) 0.090(5) 0.224(8)
H2 H -0.134(4) 0.210(4) 0.255(6)
H3 H -0.101(3) 0.393(4) 0.258(6)
H4 H 0.248(4) 0.336(4) 0.256(7)
H5 H 0.211(4) 0.333(4) 0.053(7)
H6 H 0.193(3) 0.509(4) 0.280(7)
H7 H 0.140(3) 0.511(4) 0.083(6)
H8 H 0.354(4) 0.493(4) 0.208(6)
H9 H 0.302(4) 0.505(4) 0.006(7)
H10 H 0.301(4) 0.663(5) 0.253(8)
H11 H 0.252(4) 0.672(4) 0.048(7)
H12 H 0.448(5) 0.615(5) 0.098(9)
H13 H 0.540(4) 0.856(5) 0.009(8)
H14 H 0.629(4) 0.749(5) -0.031(7)
H15 H 0.599(4) 0.663(4) 0.106(7)
H16 H 0.550(3) 0.664(4) -0.094(6)
loop_
_geom_bond_atom_site_label_1
_geom_bond_atom_site_label_2
_geom_bond_site_symmetry_1
_geom_bond_site_symmetry_2
C1 C2 1_555 1_555
C2 C3 1_555 1_555
C3 C4 1_555 1_555
C4 N1 1_555 1_555
N1 C5 1_555 1_555
C5 C1 1_555 1_555
C6 C5 1_555 1_555
C7 C6 1_555 1_555
C8 C7 1_555 1_555
C9 C8 1_555 1_555
N2 C9 1_555 1_555
C10 N2 1_555 1_555
N3 C10 1_555 1_555
C11 N3 1_555 1_555
N4 C10 1_555 1_555
C12 N4 1_555 1_555
N5 C12 1_555 1_555
Br1 C1 1_555 1_555
H1 C2 1_555 1_555
H2 C3 1_555 1_555
H3 C4 1_555 1_555
H4 C6 1_555 1_555
H5 C6 1_555 1_555
H6 C7 1_555 1_555
H7 C7 1_555 1_555
H8 C8 1_555 1_555
H9 C8 1_555 1_555
H10 C9 1_555 1_555
H11 C9 1_555 1_555
H12 N2 1_555 1_555
H13 N3 1_555 1_555
H14 C11 1_555 1_555
H15 C11 1_555 1_555
H16 C11 1_555 1_555

#END
