
#######################################################################
#
#                 Cambridge Crystallographic Data Centre
#                                CCDC 
#
#######################################################################
#
# If this CIF has been generated from an entry in the Cambridge 
# Structural Database, then it will include bibliographic, chemical, 
# crystal, experimental, refinement or atomic coordinate data resulting 
# from the CCDC's data processing and validation procedures.
#
#######################################################################

data_WANXIS
_chemical_formula_moiety         'C12 H16 F1 N5'
_chemical_name_systematic        
N-Cyano-N'-methyl-N''-(4-(3-fluoro-2-pyridyl)butyl)guanidine
_chemical_properties_biological  'histamine H!2$-antagonist activity'
_symmetry_cell_setting           monoclinic
_symmetry_space_group_name_H-M   'P 21/n'
_symmetry_Int_Tables_number      14
_space_group_name_Hall           '-P 2yn'
loop_
_symmetry_equiv_pos_site_id
_symmetry_equiv_pos_as_xyz
1 x,y,z
2 1/2-x,1/2+y,1/2-z
3 -x,-y,-z
4 1/2+x,1/2-y,1/2+z
_cell_length_a                   4.6267(3)
_cell_length_b                   13.846(1)
_cell_length_c                   19.828(2)
_cell_angle_alpha                90
_cell_angle_beta                 93.14(1)
_cell_angle_gamma                90
_cell_volume                     1268.3
_exptl_crystal_colour            colorless
_cell_formula_units_Z            4
loop_
_atom_site_label
_atom_site_type_symbol
_atom_site_fract_x
_atom_site_fract_y
_atom_site_fract_z
C1 C 0.9202(5) -0.6265(2) 0.0641(1)
C2 C 1.1146(6) -0.6997(2) 0.0538(1)
C3 C 1.2416(6) -0.7425(2) 0.1101(1)
C4 C 1.1653(6) -0.7112(2) 0.1723(1)
N1 N 0.9782(4) -0.6397(1) 0.1820(1)
C5 C 0.8539(4) -0.5966(1) 0.1279(1)
C6 C 0.6509(5) -0.5139(2) 0.1374(1)
C7 C 0.8058(5) -0.4168(2) 0.1421(1)
C8 C 0.6006(5) -0.3329(2) 0.1513(1)
C9 C 0.7559(5) -0.2363(2) 0.1553(1)
N2 N 0.5637(4) -0.1543(1) 0.1628(1)
C10 C 0.4116(4) -0.1154(1) 0.1098(1)
N3 N 0.2332(4) -0.0418(1) 0.1209(1)
C11 C 0.2059(8) 0.0048(2) 0.1846(1)
N4 N 0.4455(4) -0.1537(1) 0.0495(1)
C12 C 0.3182(5) -0.1109(2) -0.0033(1)
N5 N 0.2153(5) -0.0789(2) -0.0524(1)
F1 F 0.7864(4) -0.5828(1) 0.0098(1)
H1 H 1.151(7) -0.716(3) 0.007(2)
H2 H 1.387(7) -0.795(2) 0.112(2)
H3 H 1.254(6) -0.741(2) 0.213(1)
H4 H 0.549(8) -0.524(3) 0.179(2)
H5 H 0.496(8) -0.510(3) 0.101(2)
H6 H 0.954(7) -0.419(2) 0.179(2)
H7 H 0.914(7) -0.406(2) 0.100(2)
H8 H 0.497(7) -0.344(2) 0.196(2)
H9 H 0.451(7) -0.333(2) 0.114(2)
H10 H 0.899(6) -0.237(2) 0.197(1)
H11 H 0.867(5) -0.225(2) 0.113(1)
H12 H 0.547(6) -0.131(2) 0.208(2)
H13 H 0.123(6) -0.016(2) 0.084(2)
H14 H 0.045(8) 0.054(3) 0.180(2)
H15 H 0.168(8) -0.042(3) 0.220(2)
H16 H 0.394(8) 0.036(3) 0.198(2)
loop_
_geom_bond_atom_site_label_1
_geom_bond_atom_site_label_2
_geom_bond_site_symmetry_1
_geom_bond_site_symmetry_2
C1 C2 1_555 1_555
C2 C3 1_555 1_555
C3 C4 1_555 1_555
C4 N1 1_555 1_555
N1 C5 1_555 1_555
C5 C1 1_555 1_555
C6 C5 1_555 1_555
C7 C6 1_555 1_555
C8 C7 1_555 1_555
C9 C8 1_555 1_555
N2 C9 1_555 1_555
C10 N2 1_555 1_555
N3 C10 1_555 1_555
C11 N3 1_555 1_555
N4 C10 1_555 1_555
C12 N4 1_555 1_555
N5 C12 1_555 1_555
F1 C1 1_555 1_555
H1 C2 1_555 1_555
H2 C3 1_555 1_555
H3 C4 1_555 1_555
H4 C6 1_555 1_555
H5 C6 1_555 1_555
H6 C7 1_555 1_555
H7 C7 1_555 1_555
H8 C8 1_555 1_555
H9 C8 1_555 1_555
H10 C9 1_555 1_555
H11 C9 1_555 1_555
H12 N2 1_555 1_555
H13 N3 1_555 1_555
H14 C11 1_555 1_555
H15 C11 1_555 1_555
H16 C11 1_555 1_555

#END
