
#######################################################################
#
#                 Cambridge Crystallographic Data Centre
#                                CCDC 
#
#######################################################################
#
# If this CIF has been generated from an entry in the Cambridge 
# Structural Database, then it will include bibliographic, chemical, 
# crystal, experimental, refinement or atomic coordinate data resulting 
# from the CCDC's data processing and validation procedures.
#
#######################################################################

data_WANYES
_chemical_formula_moiety         'C15 H13 Br1 O3'
_chemical_name_systematic        
7-bromo-3,3-dimethyl-3,4-dihydro-1H-benzo[c]chromene-1,6(2H)-dione
_symmetry_cell_setting           monoclinic
_symmetry_space_group_name_H-M   'P 21/c'
_symmetry_Int_Tables_number      14
_space_group_name_Hall           '-P 2ybc'
loop_
_symmetry_equiv_pos_site_id
_symmetry_equiv_pos_as_xyz
1 x,y,z
2 -x,1/2+y,1/2-z
3 -x,-y,-z
4 x,1/2-y,1/2+z
_cell_length_a                   7.4930(7)
_cell_length_b                   23.948(2)
_cell_length_c                   7.4662(7)
_cell_angle_alpha                90
_cell_angle_beta                 91.0940(10)
_cell_angle_gamma                90
_cell_volume                     1339.51
_exptl_crystal_colour            colorless
_exptl_crystal_description       block
_cell_formula_units_Z            4
loop_
_atom_site_label
_atom_site_type_symbol
_atom_site_fract_x
_atom_site_fract_y
_atom_site_fract_z
Br1 Br 1.10352(7) 0.377181(17) 0.17913(6)
C1 C 0.8800(5) 0.26371(14) 0.2415(5)
C2 C 1.0595(4) 0.25622(14) 0.1724(4)
C3 C 1.1693(5) 0.30200(16) 0.1343(4)
C4 C 1.3356(6) 0.2944(2) 0.0645(5)
H1 H 1.4068 0.3252 0.0399
C5 C 1.3973(5) 0.2415(2) 0.0310(5)
H2 H 1.5092 0.2368 -0.0187
C6 C 1.2955(4) 0.19525(17) 0.0703(4)
H3 H 1.3396 0.1597 0.0481
C7 C 1.1261(4) 0.20171(14) 0.1434(4)
C8 C 1.0145(4) 0.15390(13) 0.1905(4)
C9 C 1.0737(4) 0.09488(15) 0.1825(5)
C10 C 0.9451(5) 0.05042(14) 0.2402(5)
H4 H 0.9675 0.0426 0.3661
H5 H 0.9704 0.0165 0.1742
C11 C 0.7463(4) 0.06420(13) 0.2141(5)
C12 C 0.7166(4) 0.12068(13) 0.3043(5)
H6 H 0.5980 0.1341 0.2726
H7 H 0.7225 0.1158 0.4332
C13 C 0.8500(4) 0.16321(12) 0.2517(4)
C14 C 0.6961(5) 0.06704(16) 0.0160(5)
H8 H 0.7638 0.0960 -0.0401
H9 H 0.5710 0.0750 0.0026
H10 H 0.7217 0.0319 -0.0396
C15 C 0.6339(6) 0.01959(17) 0.3053(7)
H11 H 0.6508 -0.0157 0.2468
H12 H 0.5101 0.0299 0.2973
H13 H 0.6700 0.0166 0.4289
O1 O 0.8020(4) 0.30583(11) 0.2704(5)
O2 O 0.7845(3) 0.21564(9) 0.2758(3)
O3 O 1.2224(4) 0.08124(13) 0.1402(5)
loop_
_geom_bond_atom_site_label_1
_geom_bond_atom_site_label_2
_geom_bond_site_symmetry_1
_geom_bond_site_symmetry_2
Br1 C3 1_555 1_555
C1 C2 1_555 1_555
C2 C3 1_555 1_555
C3 C4 1_555 1_555
C4 H1 1_555 1_555
C5 C4 1_555 1_555
H2 C5 1_555 1_555
C6 C5 1_555 1_555
H3 C6 1_555 1_555
C7 C2 1_555 1_555
C8 C7 1_555 1_555
C9 C8 1_555 1_555
C10 C9 1_555 1_555
H4 C10 1_555 1_555
H5 C10 1_555 1_555
C11 C10 1_555 1_555
C12 C11 1_555 1_555
H6 C12 1_555 1_555
H7 C12 1_555 1_555
C13 C8 1_555 1_555
C14 C11 1_555 1_555
H8 C14 1_555 1_555
H9 C14 1_555 1_555
H10 C14 1_555 1_555
C15 C11 1_555 1_555
H11 C15 1_555 1_555
H12 C15 1_555 1_555
H13 C15 1_555 1_555
O1 C1 1_555 1_555
O2 C1 1_555 1_555
O3 C9 1_555 1_555
C6 C7 1_555 1_555
C12 C13 1_555 1_555
C13 O2 1_555 1_555

#END
