
#######################################################################
#
#                 Cambridge Crystallographic Data Centre
#                                CCDC 
#
#######################################################################
#
# If this CIF has been generated from an entry in the Cambridge 
# Structural Database, then it will include bibliographic, chemical, 
# crystal, experimental, refinement or atomic coordinate data resulting 
# from the CCDC's data processing and validation procedures.
#
#######################################################################

data_WANYIW
_chemical_formula_moiety         'C12 H9 Br1 O3'
_chemical_name_systematic        4-acetyl-6-bromo-3-methyl-1H-isochromen-1-one
_symmetry_cell_setting           orthorhombic
_symmetry_space_group_name_H-M   'P n a 21'
_symmetry_Int_Tables_number      33
_space_group_name_Hall           'P 2c -2n'
loop_
_symmetry_equiv_pos_site_id
_symmetry_equiv_pos_as_xyz
1 x,y,z
2 -x,-y,1/2+z
3 1/2+x,1/2-y,z
4 1/2-x,1/2+y,1/2+z
_cell_length_a                   15.476(2)
_cell_length_b                   12.9994(17)
_cell_length_c                   5.4283(7)
_cell_angle_alpha                90
_cell_angle_beta                 90
_cell_angle_gamma                90
_cell_volume                     1092.06
_exptl_crystal_colour            colorless
_exptl_crystal_description       block
_cell_formula_units_Z            4
loop_
_atom_site_label
_atom_site_type_symbol
_atom_site_fract_x
_atom_site_fract_y
_atom_site_fract_z
Br1 Br 0.35391(4) 0.18860(4) 1.3667(2)
C1 C 0.2580(3) 0.3711(4) 0.8054(9)
O1 O 0.2450(3) 0.5216(3) 0.4393(7)
C2 C 0.3215(4) 0.5153(4) 0.5676(12)
C3 C 0.3281(3) 0.4366(4) 0.7563(11)
C4 C 0.1800(3) 0.3836(4) 0.6594(10)
C5 C 0.1757(4) 0.4575(4) 0.4896(10)
C6 C 0.4050(3) 0.4269(4) 0.8878(16)
H1 H 0.4511 0.4706 0.8534
C7 C 0.1006(4) 0.4864(5) 0.3304(14)
H2 H 0.0512 0.4459 0.3755
H3 H 0.1148 0.4738 0.1609
H4 H 0.0876 0.5580 0.3526
C8 C 0.1038(3) 0.3133(4) 0.7071(11)
O2 O 0.3770(3) 0.5765(4) 0.5117(11)
C9 C 0.2666(4) 0.2964(4) 0.9865(11)
H5 H 0.2212 0.2518 1.0206
C10 C 0.4132(4) 0.3536(5) 1.0674(13)
H6 H 0.4644 0.3469 1.1557
C11 C 0.3431(4) 0.2890(5) 1.1152(11)
O3 O 0.0569(3) 0.3272(4) 0.8703(18)
C12 C 0.0937(5) 0.2255(6) 0.5324(13)
H7 H 0.0421 0.1879 0.5721
H8 H 0.1428 0.1808 0.5457
H9 H 0.0897 0.2513 0.3671
loop_
_geom_bond_atom_site_label_1
_geom_bond_atom_site_label_2
_geom_bond_site_symmetry_1
_geom_bond_site_symmetry_2
Br1 C11 1_555 1_555
C1 C3 1_555 1_555
O1 C2 1_555 1_555
C2 C3 1_555 1_555
C3 C6 1_555 1_555
C4 C1 1_555 1_555
C5 O1 1_555 1_555
C6 H1 1_555 1_555
C7 C5 1_555 1_555
H2 C7 1_555 1_555
H3 C7 1_555 1_555
H4 C7 1_555 1_555
C8 C4 1_555 1_555
O2 C2 1_555 1_555
C9 C1 1_555 1_555
H5 C9 1_555 1_555
C10 C6 1_555 1_555
H6 C10 1_555 1_555
C11 C9 1_555 1_555
O3 C8 1_555 1_555
C12 C8 1_555 1_555
H7 C12 1_555 1_555
H8 C12 1_555 1_555
H9 C12 1_555 1_555
C4 C5 1_555 1_555
C10 C11 1_555 1_555

#END
