
#######################################################################
#
#                 Cambridge Crystallographic Data Centre
#                                CCDC 
#
#######################################################################
#
# If this CIF has been generated from an entry in the Cambridge 
# Structural Database, then it will include bibliographic, chemical, 
# crystal, experimental, refinement or atomic coordinate data resulting 
# from the CCDC's data processing and validation procedures.
#
#######################################################################

data_WAPDUP
_chemical_name_common            
'6,14-bis(4,5-bis(propylsulfanyl)-1,3-dithiol-2-ylidene)-22,30-bis(4-(butylsulfanyl)-5-(propylsulfanyl)-1,3-dithiol-2-ylidene)-2,2,10,10,18,18,26,26-octamethyl-5,7,13,15,21,23,29,31-octathia-33,34,35,36-tetraazanonacyclo[25.5.1.1$3,9!.1$11,17!.1$19,25!.0$4,8!.0$12,16!.0$20,24!.0$28,32!]hexatriaconta-1(32),3,8,11,16,19,24,27-octaene bis(isochromeno[6,5,4-def]isochromene-1,3,6,8-tetrone)'
_chemical_formula_moiety         'C68 H84 N4 S24,2(C14 H4 O6)'
_chemical_name_systematic        
"2,2,7,7,12,12,17,17-octamethyl-4; 5,9; 10,14; 15,19; 20-tetrakis(2-[4,5-bis(propylsulfanyl)-2H-1,3-dithiol-2-ylidene]-[1,3]dithiolo)[4,5-c]calix[4]pyrrole bis(naphtho[1,8-cd:4,5-c'd']dipyran-1,3,6,8-tetrone)"
_symmetry_cell_setting           monoclinic
_symmetry_space_group_name_H-M   'C 2/c'
_symmetry_Int_Tables_number      15
_space_group_name_Hall           '-C 2yn'
loop_
_symmetry_equiv_pos_site_id
_symmetry_equiv_pos_as_xyz
1 x,y,z
2 -x,y,1/2-z
3 1/2+x,1/2+y,z
4 1/2-x,1/2+y,1/2-z
5 -x,-y,-z
6 x,-y,1/2+z
7 1/2-x,1/2-y,-z
8 1/2+x,1/2-y,1/2+z
_cell_length_a                   44.129(12)
_cell_length_b                   14.749(4)
_cell_length_c                   16.465(4)
_cell_angle_alpha                90
_cell_angle_beta                 108.637(3)
_cell_angle_gamma                90
_cell_volume                     10154.4
_exptl_crystal_colour            black
_exptl_crystal_description       block
_cell_formula_units_Z            4
loop_
_atom_site_label
_atom_site_type_symbol
_atom_site_fract_x
_atom_site_fract_y
_atom_site_fract_z
C1 C -0.07076(11) 0.1333(3) -0.1387(3)
S1 S -0.07195(3) 0.20978(9) -0.22239(7)
C2 C -0.11198(12) 0.1882(3) -0.2822(3)
C3 C -0.12763(11) 0.1256(4) -0.2526(3)
S2 S -0.10578(3) 0.06967(10) -0.15615(8)
C4 C -0.04493(11) 0.1258(3) -0.0686(3)
S3 S -0.01047(3) 0.19093(8) -0.05617(7)
C5 C 0.00382(10) 0.1762(3) 0.0559(2)
C6 C 0.02743(10) 0.2149(3) 0.1216(3)
N1 N 0.02680(9) 0.1710(2) 0.1949(2)
H1 H 0.039960 0.183144 0.246417
C7 C 0.00340(10) 0.1066(3) 0.1783(2)
C8 C -0.01134(10) 0.1085(3) 0.0902(3)
S4 S -0.04295(3) 0.04928(9) 0.01584(7)
S5 S -0.12966(3) 0.25313(10) -0.37426(8)
C9 C -0.10391(15) 0.2231(4) -0.4365(4)
H2 H -0.111622 0.254833 -0.492330
H3 H -0.082074 0.245498 -0.406144
C10 C -0.10205(18) 0.1239(5) -0.4529(4)
H4 H -0.093937 0.092110 -0.397238
H5 H -0.086388 0.114343 -0.483809
S6 S -0.16858(3) 0.10596(12) -0.29877(9)
C11 C -0.17388(14) -0.0062(4) -0.2654(4)
H6 H -0.162884 -0.011269 -0.202893
H7 H -0.196970 -0.016702 -0.275714
C12 C -0.1334(3) 0.0820(6) -0.5043(6)
H8 H -0.148562 0.086138 -0.471935
H9 H -0.130087 0.018209 -0.515632
H10 H -0.142105 0.114470 -0.558785
C13 C -0.16141(17) -0.0794(5) -0.3102(5)
H11 H -0.137900 -0.073437 -0.294620
H12 H -0.170622 -0.070694 -0.372940
C14 C -0.1695(2) -0.1742(5) -0.2874(7)
H13 H -0.158384 -0.185836 -0.226543
H14 H -0.162624 -0.218796 -0.322151
H15 H -0.192613 -0.179249 -0.298934
C15 C 0.05222(10) 0.2863(3) 0.1256(3)
C16 C 0.08543(11) 0.2427(4) 0.1529(4)
H16 H 0.090564 0.219721 0.211566
H17 H 0.101359 0.288071 0.150481
H18 H 0.085632 0.192521 0.114087
C17 C 0.04548(12) 0.3309(3) 0.0368(3)
H19 H 0.046842 0.285018 -0.004944
H20 H 0.061323 0.378567 0.040200
H21 H 0.024005 0.357515 0.018687
C18 C 0.000000 0.0465(4) 0.250000
C19 C 0.02966(13) -0.0128(3) 0.2841(3)
H22 H 0.048308 0.025566 0.311033
H23 H 0.033119 -0.046681 0.236619
H24 H 0.026628 -0.055353 0.326532
C20 C 0.05877(12) 0.4640(3) 0.2949(3)
C21 C 0.02738(11) 0.4698(3) 0.2464(3)
N2 N 0.02309(9) 0.4055(3) 0.1820(2)
H25 H 0.004807 0.395662 0.141429
C22 C 0.05077(10) 0.3593(3) 0.1895(3)
C23 C 0.07336(11) 0.3944(3) 0.2600(3)
C24 C 0.2121(2) 0.7004(7) 0.6194(6)
C25 C 0.2540(3) 0.4092(9) 0.4630(10)
H26 H 0.265909 0.361776 0.443298
H27 H 0.233033 0.411712 0.417078
C26 C 0.1410(3) 0.4749(9) 0.4638(9)
S7 S 0.14593(10) 0.5559(3) 0.54435(19)
C27 C 0.1870(3) 0.5330(9) 0.5930(7)
C28 C 0.2004(3) 0.4614(9) 0.5634(9)
S8 S 0.17314(8) 0.4008(2) 0.4785(3)
C29 C 0.1136(6) 0.4627(18) 0.3977(18)
S9 S 0.07942(16) 0.5295(5) 0.3837(5)
S10 S 0.11105(14) 0.3769(5) 0.3212(4)
S11 S 0.23855(11) 0.4236(3) 0.6068(3)
C30 C 0.2456(5) 0.3615(15) 0.5203(14)
H28 H 0.262528 0.316243 0.545483
H29 H 0.225815 0.327677 0.489950
C31 C 0.2663(8) 0.4756(12) 0.444(2)
H30 H 0.259184 0.482227 0.381583
H31 H 0.289569 0.469031 0.465507
H32 H 0.259978 0.529371 0.469782
C32 C 0.000000 0.5286(4) 0.250000
C33 C 0.01074(16) 0.5892(4) 0.3303(4)
H33 H -0.006920 0.629063 0.331244
H34 H 0.029069 0.626024 0.329119
H35 H 0.016887 0.551054 0.381770
C34 C 0.2080(6) 0.8010(13) 0.6190(17)
H36 H 0.218151 0.824749 0.676929
H37 H 0.185147 0.815811 0.600108
H38 H 0.217995 0.828390 0.579654
H39 H 0.197672 0.678670 0.563515
H40 H 0.234152 0.689676 0.618789
C35 C 0.2076(7) 0.6414(16) 0.6810(16)
H41 H 0.184470 0.642000 0.673721
H42 H 0.218591 0.669043 0.737544
S12 S 0.21946(8) 0.5256(3) 0.68839(19)
C1A C 0.07076(11) 0.1333(3) 0.6387(3)
S1A S 0.07195(3) 0.20978(9) 0.72239(7)
C2A C 0.11198(12) 0.1882(3) 0.7822(3)
C3A C 0.12763(11) 0.1256(4) 0.7526(3)
S2A S 0.10578(3) 0.06967(10) 0.65615(8)
C4A C 0.04493(11) 0.1258(3) 0.5686(3)
S3A S 0.01047(3) 0.19093(8) 0.55617(7)
C5A C -0.00382(10) 0.1762(3) 0.4441(2)
C6A C -0.02743(10) 0.2149(3) 0.3784(3)
N1A N -0.02680(9) 0.1710(2) 0.3051(2)
H1A H -0.039960 0.183144 0.253583
C7A C -0.00340(10) 0.1066(3) 0.3217(2)
C8A C 0.01134(10) 0.1085(3) 0.4098(3)
S4A S 0.04295(3) 0.04928(9) 0.48416(7)
S5A S 0.12966(3) 0.25313(10) 0.87426(8)
C9A C 0.10391(15) 0.2231(4) 0.9365(4)
H2A H 0.111622 0.254833 0.992330
H3A H 0.082074 0.245498 0.906144
C10A C 0.10205(18) 0.1239(5) 0.9529(4)
H4A H 0.093937 0.092110 0.897238
H5A H 0.086388 0.114343 0.983809
S6A S 0.16858(3) 0.10596(12) 0.79877(9)
C11A C 0.17388(14) -0.0062(4) 0.7654(4)
H6A H 0.162884 -0.011269 0.702893
H7A H 0.196970 -0.016702 0.775714
C12A C 0.1334(3) 0.0820(6) 1.0043(6)
H8A H 0.148562 0.086138 0.971935
H9A H 0.130087 0.018209 1.015632
H10A H 0.142105 0.114470 1.058785
C13A C 0.16141(17) -0.0794(5) 0.8102(5)
H11A H 0.137900 -0.073437 0.794620
H12A H 0.170622 -0.070694 0.872940
C14A C 0.1695(2) -0.1742(5) 0.7874(7)
H13A H 0.158384 -0.185836 0.726543
H14A H 0.162624 -0.218796 0.822151
H15A H 0.192613 -0.179249 0.798934
C15A C -0.05222(10) 0.2863(3) 0.3744(3)
C16A C -0.08543(11) 0.2427(4) 0.3471(4)
H16A H -0.090564 0.219721 0.288434
H17A H -0.101359 0.288071 0.349519
H18A H -0.085632 0.192521 0.385913
C17A C -0.04548(12) 0.3309(3) 0.4632(3)
H19A H -0.046842 0.285018 0.504944
H20A H -0.061323 0.378567 0.459800
H21A H -0.024005 0.357515 0.481313
C19A C -0.02966(13) -0.0128(3) 0.2159(3)
H22A H -0.048308 0.025566 0.188967
H23A H -0.033119 -0.046681 0.263381
H24A H -0.026628 -0.055353 0.173468
C20A C -0.05877(12) 0.4640(3) 0.2051(3)
C21A C -0.02738(11) 0.4698(3) 0.2536(3)
N2A N -0.02309(9) 0.4055(3) 0.3180(2)
H25A H -0.004807 0.395662 0.358571
C22A C -0.05077(10) 0.3593(3) 0.3105(3)
C23A C -0.07336(11) 0.3944(3) 0.2400(3)
C24A C -0.2121(2) 0.7004(7) -0.1194(6)
C25A C -0.2540(3) 0.4092(9) 0.0370(10)
H26A H -0.265909 0.361776 0.056702
H27A H -0.233033 0.411712 0.082922
C26A C -0.1410(3) 0.4749(9) 0.0362(9)
S7A S -0.14593(10) 0.5559(3) -0.04435(19)
C27A C -0.1870(3) 0.5330(9) -0.0930(7)
C28A C -0.2004(3) 0.4614(9) -0.0634(9)
S8A S -0.17314(8) 0.4008(2) 0.0215(3)
C29A C -0.1136(6) 0.4627(18) 0.1023(18)
S9A S -0.07942(16) 0.5295(5) 0.1163(5)
S10A S -0.11105(14) 0.3769(5) 0.1788(4)
S11A S -0.23855(11) 0.4236(3) -0.1068(3)
C30A C -0.2456(5) 0.3615(15) -0.0203(14)
H28A H -0.262528 0.316243 -0.045483
H29A H -0.225815 0.327677 0.010050
C31A C -0.2663(8) 0.4756(12) 0.056(2)
H30A H -0.259184 0.482227 0.118417
H31A H -0.289569 0.469031 0.034493
H32A H -0.259978 0.529371 0.030218
C33A C -0.01074(16) 0.5892(4) 0.1697(4)
H33A H 0.006920 0.629063 0.168756
H34A H -0.029069 0.626024 0.170881
H35A H -0.016887 0.551054 0.118230
C34A C -0.2080(6) 0.8010(13) -0.1190(17)
H36A H -0.218151 0.824749 -0.176929
H37A H -0.185147 0.815811 -0.100108
H38A H -0.217995 0.828390 -0.079654
H39A H -0.197672 0.678670 -0.063515
H40A H -0.234152 0.689676 -0.118789
C35A C -0.2076(7) 0.6414(16) -0.1810(16)
H41A H -0.184470 0.642000 -0.173721
H42A H -0.218591 0.669043 -0.237544
S12A S -0.21946(8) 0.5256(3) -0.18839(19)
C36 C -0.08828(12) 0.3566(4) -0.0625(3)
C37 C -0.09099(14) 0.4131(4) -0.1297(4)
H43 H -0.073328 0.449776 -0.130102
C38 C -0.11970(15) 0.4179(4) -0.1988(4)
H44 H -0.121279 0.457272 -0.245650
C39 C -0.14532(13) 0.3659(4) -0.1984(3)
C40 C -0.14298(12) 0.3056(4) -0.1302(3)
C41 C -0.16899(13) 0.2515(5) -0.1292(3)
C42 C -0.16555(15) 0.1911(6) -0.0630(4)
H45 H -0.182856 0.152590 -0.063315
C43 C -0.13687(16) 0.1860(5) 0.0046(4)
H46 H -0.134912 0.144713 0.050298
C44 C -0.11158(12) 0.2398(4) 0.0055(3)
C45 C -0.11400(11) 0.3007(4) -0.0621(3)
C46 C -0.05830(12) 0.3520(4) 0.0110(4)
O1 O -0.05730(8) 0.2913(3) 0.0761(2)
C47 C -0.08180(13) 0.2354(4) 0.0778(3)
O2 O -0.03500(9) 0.3962(3) 0.0196(3)
O3 O -0.07730(10) 0.1868(3) 0.1395(2)
C48 C -0.17583(16) 0.3720(5) -0.2701(4)
O4 O -0.20089(10) 0.3186(3) -0.2641(3)
C49 C -0.19942(15) 0.2591(5) -0.1981(4)
O5 O -0.18076(12) 0.4191(4) -0.3308(3)
O6 O -0.22338(11) 0.2198(5) -0.2021(3)
C50? C 0.1491(3) 0.4492(9) 0.4511(8)
S13? S 0.15707(8) 0.5157(3) 0.54303(19)
C51? C 0.1971(3) 0.4834(11) 0.5870(7)
C52? C 0.2090(3) 0.4246(8) 0.5404(7)
S14? S 0.18231(8) 0.3848(2) 0.4450(2)
C53? C 0.1210(7) 0.4447(17) 0.3879(19)
S15? S 0.08792(15) 0.5084(5) 0.3898(5)
S16? S 0.11699(15) 0.3705(5) 0.3018(4)
H47? H 0.197672 0.678670 0.563515
H48? H 0.234152 0.689676 0.618789
S17? S 0.24759(8) 0.3812(3) 0.5741(3)
H49? H 0.272177 0.373893 0.456671
H50? H 0.234550 0.393543 0.414938
C54? C 0.2609(5) 0.5116(11) 0.4627(12)
H51? H 0.241603 0.547412 0.459964
H52? H 0.278479 0.529199 0.514725
C55? C 0.2704(3) 0.5260(11) 0.3826(10)
H53? H 0.293110 0.512011 0.395218
H54? H 0.266434 0.589248 0.364003
H55? H 0.257634 0.485956 0.336820
C56? C 0.2445(9) 0.730(3) 0.535(2)
H56? H 0.257844 0.674439 0.551862
H57? H 0.253130 0.772412 0.583614
H58? H 0.191702 0.733603 0.609046
H59? H 0.228631 0.737804 0.660514
C57? C 0.2189(7) 0.707(2) 0.5423(15)
H60? H 0.214214 0.646049 0.515219
H61? H 0.202758 0.748427 0.505488
S18? S 0.2082(2) 0.6012(4) 0.6790(5)
loop_
_geom_bond_atom_site_label_1
_geom_bond_atom_site_label_2
_geom_bond_site_symmetry_1
_geom_bond_site_symmetry_2
C1 S1 1_555 1_555
S1 C2 1_555 1_555
C2 C3 1_555 1_555
C3 S2 1_555 1_555
S2 C1 1_555 1_555
C4 C1 1_555 1_555
S3 C4 1_555 1_555
C5 S3 1_555 1_555
C6 C5 1_555 1_555
N1 C6 1_555 1_555
H1 N1 1_555 1_555
C7 N1 1_555 1_555
C8 C5 1_555 1_555
S4 C4 1_555 1_555
S5 C2 1_555 1_555
C9 S5 1_555 1_555
H2 C9 1_555 1_555
H3 C9 1_555 1_555
C10 C9 1_555 1_555
H4 C10 1_555 1_555
H5 C10 1_555 1_555
S6 C3 1_555 1_555
C11 S6 1_555 1_555
H6 C11 1_555 1_555
H7 C11 1_555 1_555
C12 C10 1_555 1_555
H8 C12 1_555 1_555
H9 C12 1_555 1_555
H10 C12 1_555 1_555
C13 C11 1_555 1_555
H11 C13 1_555 1_555
H12 C13 1_555 1_555
C14 C13 1_555 1_555
H13 C14 1_555 1_555
H14 C14 1_555 1_555
H15 C14 1_555 1_555
C15 C6 1_555 1_555
C16 C15 1_555 1_555
H16 C16 1_555 1_555
H17 C16 1_555 1_555
H18 C16 1_555 1_555
C17 C15 1_555 1_555
H19 C17 1_555 1_555
H20 C17 1_555 1_555
H21 C17 1_555 1_555
C18 C7 1_555 1_555
C19 C18 1_555 1_555
H22 C19 1_555 1_555
H23 C19 1_555 1_555
H24 C19 1_555 1_555
C20 C21 1_555 1_555
C21 N2 1_555 1_555
N2 H25 1_555 1_555
C22 C15 1_555 1_555
C23 C20 1_555 1_555
C24 C34 1_555 1_555
C25 H26 1_555 1_555
H27 C25 1_555 1_555
C26 S7 1_555 1_555
S7 C27 1_555 1_555
C27 C28 1_555 1_555
C28 S8 1_555 1_555
S8 C26 1_555 1_555
C29 C26 1_555 1_555
S9 C20 1_555 1_555
S10 C23 1_555 1_555
S11 C28 1_555 1_555
C30 C25 1_555 1_555
H28 C30 1_555 1_555
H29 C30 1_555 1_555
C31 C25 1_555 1_555
H30 C31 1_555 1_555
H31 C31 1_555 1_555
H32 C31 1_555 1_555
C32 C21 1_555 1_555
C33 C32 1_555 1_555
H33 C33 1_555 1_555
H34 C33 1_555 1_555
H35 C33 1_555 1_555
C34 H36 1_555 1_555
H37 C34 1_555 1_555
H38 C34 1_555 1_555
H39 C24 1_555 1_555
H40 C24 1_555 1_555
C35 C24 1_555 1_555
H41 C35 1_555 1_555
H42 C35 1_555 1_555
S12 C27 1_555 1_555
C36 C37 1_555 1_555
C37 H43 1_555 1_555
C38 C37 1_555 1_555
H44 C38 1_555 1_555
C39 C38 1_555 1_555
C40 C39 1_555 1_555
C41 C40 1_555 1_555
C42 C41 1_555 1_555
H45 C42 1_555 1_555
C43 C42 1_555 1_555
H46 C43 1_555 1_555
C44 C43 1_555 1_555
C45 C36 1_555 1_555
C46 C36 1_555 1_555
O1 C46 1_555 1_555
C47 C44 1_555 1_555
O2 C46 1_555 1_555
O3 C47 1_555 1_555
C48 C39 1_555 1_555
O4 C48 1_555 1_555
C49 C41 1_555 1_555
O5 C48 1_555 1_555
O6 C49 1_555 1_555
C1A S1A 1_555 1_555
S1A C2A 1_555 1_555
C2A C3A 1_555 1_555
C3A S2A 1_555 1_555
S2A C1A 1_555 1_555
C4A C1A 1_555 1_555
S3A C4A 1_555 1_555
C5A S3A 1_555 1_555
C6A C5A 1_555 1_555
N1A C6A 1_555 1_555
H1A N1A 1_555 1_555
C7A C18 1_555 1_555
C8A C5A 1_555 1_555
S4A C4A 1_555 1_555
S5A C2A 1_555 1_555
C9A S5A 1_555 1_555
H2A C9A 1_555 1_555
H3A C9A 1_555 1_555
C10A C9A 1_555 1_555
H4A C10A 1_555 1_555
H5A C10A 1_555 1_555
S6A C3A 1_555 1_555
C11A S6A 1_555 1_555
H6A C11A 1_555 1_555
H7A C11A 1_555 1_555
C12A C10A 1_555 1_555
H8A C12A 1_555 1_555
H9A C12A 1_555 1_555
H10A C12A 1_555 1_555
C13A C11A 1_555 1_555
H11A C13A 1_555 1_555
H12A C13A 1_555 1_555
C14A C13A 1_555 1_555
H13A C14A 1_555 1_555
H14A C14A 1_555 1_555
H15A C14A 1_555 1_555
C15A C6A 1_555 1_555
C16A C15A 1_555 1_555
H16A C16A 1_555 1_555
H17A C16A 1_555 1_555
H18A C16A 1_555 1_555
C17A C15A 1_555 1_555
H19A C17A 1_555 1_555
H20A C17A 1_555 1_555
H21A C17A 1_555 1_555
C19A C18 1_555 1_555
H22A C19A 1_555 1_555
H23A C19A 1_555 1_555
H24A C19A 1_555 1_555
C20A C21A 1_555 1_555
C21A C32 1_555 1_555
N2A C21A 1_555 1_555
H25A N2A 1_555 1_555
C22A C15A 1_555 1_555
C23A C20A 1_555 1_555
C24A C34A 1_555 1_555
C25A H26A 1_555 1_555
H27A C25A 1_555 1_555
C26A S7A 1_555 1_555
S7A C27A 1_555 1_555
C27A C28A 1_555 1_555
C28A S8A 1_555 1_555
S8A C26A 1_555 1_555
C29A C26A 1_555 1_555
S9A C20A 1_555 1_555
S10A C23A 1_555 1_555
S11A C28A 1_555 1_555
C30A C25A 1_555 1_555
H28A C30A 1_555 1_555
H29A C30A 1_555 1_555
C31A C25A 1_555 1_555
H30A C31A 1_555 1_555
H31A C31A 1_555 1_555
H32A C31A 1_555 1_555
C33A C32 1_555 1_555
H33A C33A 1_555 1_555
H34A C33A 1_555 1_555
H35A C33A 1_555 1_555
C34A H36A 1_555 1_555
H37A C34A 1_555 1_555
H38A C34A 1_555 1_555
H39A C24A 1_555 1_555
H40A C24A 1_555 1_555
C35A C24A 1_555 1_555
H41A C35A 1_555 1_555
H42A C35A 1_555 1_555
S12A C27A 1_555 1_555
C7 C8 1_555 1_555
C8 S4 1_555 1_555
N2 C22 1_555 1_555
C22 C23 1_555 1_555
C29 S9 1_555 1_555
C29 S10 1_555 1_555
S11 C30 1_555 1_555
C35 S12 1_555 1_555
C40 C45 1_555 1_555
C44 C45 1_555 1_555
O1 C47 1_555 1_555
O4 C49 1_555 1_555
N1A C7A 1_555 1_555
C7A C8A 1_555 1_555
C8A S4A 1_555 1_555
N2A C22A 1_555 1_555
C22A C23A 1_555 1_555
C29A S9A 1_555 1_555
C29A S10A 1_555 1_555
S11A C30A 1_555 1_555
C35A S12A 1_555 1_555

#END
