
#######################################################################
#
#                 Cambridge Crystallographic Data Centre
#                                CCDC 
#
#######################################################################
#
# If this CIF has been generated from an entry in the Cambridge 
# Structural Database, then it will include bibliographic, chemical, 
# crystal, experimental, refinement or atomic coordinate data resulting 
# from the CCDC's data processing and validation procedures.
#
#######################################################################

data_WAPREM
_chemical_name_common            
"2,2'-((1,1-Dimethyl-3,4-diphenyl-1H-silole-2,5-diyl)bis(4,1-phenylenemethylylidene))dimalononitrile hexane solvate"
_chemical_formula_moiety         'C38 H26 N4 Si1,C6 H14'
_chemical_name_systematic        
"2,2'-((1,1-Dimethyl-3,4-diphenyl-1H-silole-2,5-diyl)bis(4,1-phenylenemethylylidene))dimalononitrile n-hexane solvate"
_symmetry_cell_setting           monoclinic
_symmetry_space_group_name_H-M   'C 2/c'
_symmetry_Int_Tables_number      15
_space_group_name_Hall           '-C 2yn'
loop_
_symmetry_equiv_pos_site_id
_symmetry_equiv_pos_as_xyz
1 x,y,z
2 -x,y,1/2-z
3 1/2+x,1/2+y,z
4 1/2-x,1/2+y,1/2-z
5 -x,-y,-z
6 x,-y,1/2+z
7 1/2-x,1/2-y,-z
8 1/2+x,1/2-y,1/2+z
_cell_length_a                   30.7917(4)
_cell_length_b                   10.2374(1)
_cell_length_c                   11.7082(2)
_cell_angle_alpha                90
_cell_angle_beta                 90.481(1)
_cell_angle_gamma                90
_cell_volume                     3690.61
_exptl_crystal_colour            orange/yellow
_exptl_crystal_description       plate
_cell_formula_units_Z            4
_exptl_crystal_recrystallization_method hexane/tetrahydrofuran
loop_
_atom_site_label
_atom_site_type_symbol
_atom_site_fract_x
_atom_site_fract_y
_atom_site_fract_z
Si1 Si 0.5000 0.55696(4) 0.2500
N1 N 0.23114(4) 0.38946(12) 0.34883(10)
N2 N 0.17120(4) 0.65023(12) 0.09860(11)
C1 C 0.51704(5) 0.65940(15) 0.12659(14)
H1 H 0.5454 0.6987 0.1432
H2 H 0.4956 0.7286 0.1135
H3 H 0.5191 0.6047 0.0581
C2 C 0.47607(4) 0.31018(11) 0.23509(9)
C3 C 0.45224(4) 0.18378(11) 0.22841(10)
C4 C 0.45202(4) 0.09824(12) 0.32117(11)
H4 H 0.4678 0.1199 0.3887
C5 C 0.42898(4) -0.01830(13) 0.31562(12)
H5 H 0.4289 -0.0756 0.3795
C6 C 0.40615(5) -0.05138(13) 0.21761(13)
H6 H 0.3905 -0.1312 0.2141
C7 C 0.40620(5) 0.03199(14) 0.12492(12)
H7 H 0.3906 0.0094 0.0575
C8 C 0.42911(4) 0.14903(12) 0.13007(11)
H8 H 0.4290 0.2059 0.0659
C9 C 0.45791(4) 0.42961(11) 0.21801(10)
C10 C 0.41170(4) 0.45965(11) 0.19545(10)
C11 C 0.37766(4) 0.39717(11) 0.25308(10)
H9 H 0.3842 0.3294 0.3059
C12 C 0.33499(4) 0.43254(11) 0.23421(10)
H10 H 0.3126 0.3896 0.2750
C13 C 0.32411(4) 0.53133(12) 0.15534(10)
C14 C 0.35807(4) 0.59387(12) 0.09729(11)
H11 H 0.3516 0.6604 0.0432
C15 C 0.40088(4) 0.55946(12) 0.11820(11)
H12 H 0.4234 0.6044 0.0795
C16 C 0.28030(4) 0.57503(12) 0.12816(10)
H13 H 0.2783 0.6352 0.0666
C17 C 0.24182(4) 0.54388(11) 0.17641(11)
C18 C 0.23608(4) 0.45750(12) 0.27197(11)
C19 C 0.20246(4) 0.60309(12) 0.13303(11)
N1A N 0.76886(4) 0.38946(12) 0.15117(10)
N2A N 0.82880(4) 0.65023(12) 0.40140(11)
C1A C 0.48296(5) 0.65940(15) 0.37341(14)
H1A H 0.4546 0.6987 0.3568
H2A H 0.5044 0.7286 0.3865
H3A H 0.4809 0.6047 0.4419
C2A C 0.52393(4) 0.31018(11) 0.26491(9)
C3A C 0.54776(4) 0.18378(11) 0.27159(10)
C4A C 0.54798(4) 0.09824(12) 0.17883(11)
H4A H 0.5322 0.1199 0.1113
C5A C 0.57102(4) -0.01830(13) 0.18438(12)
H5A H 0.5711 -0.0756 0.1205
C6A C 0.59385(5) -0.05138(13) 0.28239(13)
H6A H 0.6095 -0.1312 0.2859
C7A C 0.59380(5) 0.03199(14) 0.37508(12)
H7A H 0.6094 0.0094 0.4425
C8A C 0.57089(4) 0.14903(12) 0.36993(11)
H8A H 0.5710 0.2059 0.4341
C9A C 0.54209(4) 0.42961(11) 0.28199(10)
C10A C 0.58830(4) 0.45965(11) 0.30455(10)
C11A C 0.62234(4) 0.39717(11) 0.24692(10)
H9A H 0.6158 0.3294 0.1941
C12A C 0.66501(4) 0.43254(11) 0.26579(10)
H10A H 0.6874 0.3896 0.2250
C13A C 0.67589(4) 0.53133(12) 0.34466(10)
C14A C 0.64193(4) 0.59387(12) 0.40271(11)
H11A H 0.6484 0.6604 0.4568
C15A C 0.59912(4) 0.55946(12) 0.38180(11)
H12A H 0.5766 0.6044 0.4205
C16A C 0.71970(4) 0.57503(12) 0.37184(10)
H13A H 0.7217 0.6352 0.4334
C17A C 0.75818(4) 0.54388(11) 0.32359(11)
C18A C 0.76392(4) 0.45750(12) 0.22803(11)
C19A C 0.79754(4) 0.60309(12) 0.36697(11)
C20 C 0.22568(4) 0.26202(13) -0.00821(11)
H14 H 0.2199 0.3570 -0.0036
H15 H 0.2168 0.2321 -0.0854
C21 C 0.19834(5) 0.19194(13) 0.08022(12)
H16 H 0.2084 0.2183 0.1574
H17 H 0.2030 0.0967 0.0728
C22 C 0.14997(5) 0.22028(15) 0.06916(13)
H18 H 0.1342 0.1724 0.1283
H19 H 0.1396 0.1925 -0.0064
H20 H 0.1449 0.3142 0.0784
C20F C 0.27432(4) 0.23798(13) 0.00821(11)
H14F H 0.2801 0.1430 0.0036
H15F H 0.2832 0.2679 0.0854
C21F C 0.30166(5) 0.30806(13) -0.08022(12)
H16F H 0.2916 0.2817 -0.1574
H17F H 0.2970 0.4033 -0.0728
C22F C 0.35003(5) 0.27972(15) -0.06916(13)
H18F H 0.3658 0.3276 -0.1283
H19F H 0.3604 0.3075 0.0064
H20F H 0.3551 0.1858 -0.0784
loop_
_geom_bond_atom_site_label_1
_geom_bond_atom_site_label_2
_geom_bond_site_symmetry_1
_geom_bond_site_symmetry_2
Si1 C1 1_555 1_555
N1 C18 1_555 1_555
N2 C19 1_555 1_555
C1 H1 1_555 1_555
H2 C1 1_555 1_555
H3 C1 1_555 1_555
C2 C3 1_555 1_555
C3 C4 1_555 1_555
C4 H4 1_555 1_555
C5 C4 1_555 1_555
H5 C5 1_555 1_555
C6 C5 1_555 1_555
H6 C6 1_555 1_555
C7 C6 1_555 1_555
H7 C7 1_555 1_555
C8 C3 1_555 1_555
H8 C8 1_555 1_555
C9 Si1 1_555 1_555
C10 C9 1_555 1_555
C11 C10 1_555 1_555
H9 C11 1_555 1_555
C12 C11 1_555 1_555
H10 C12 1_555 1_555
C13 C12 1_555 1_555
C14 C13 1_555 1_555
H11 C14 1_555 1_555
C15 C10 1_555 1_555
H12 C15 1_555 1_555
C16 C13 1_555 1_555
H13 C16 1_555 1_555
C17 C16 1_555 1_555
C18 C17 1_555 1_555
C19 C17 1_555 1_555
C20 H14 1_555 1_555
H15 C20 1_555 1_555
C21 C20 1_555 1_555
H16 C21 1_555 1_555
H17 C21 1_555 1_555
C22 C21 1_555 1_555
H18 C22 1_555 1_555
H19 C22 1_555 1_555
H20 C22 1_555 1_555
N1A C18A 1_555 1_555
N2A C19A 1_555 1_555
C1A Si1 1_555 1_555
H1A C1A 1_555 1_555
H2A C1A 1_555 1_555
H3A C1A 1_555 1_555
C2A C2 1_555 1_555
C3A C2A 1_555 1_555
C4A C3A 1_555 1_555
H4A C4A 1_555 1_555
C5A C4A 1_555 1_555
H5A C5A 1_555 1_555
C6A C5A 1_555 1_555
H6A C6A 1_555 1_555
C7A C6A 1_555 1_555
H7A C7A 1_555 1_555
C8A C3A 1_555 1_555
H8A C8A 1_555 1_555
C9A Si1 1_555 1_555
C10A C9A 1_555 1_555
C11A C10A 1_555 1_555
H9A C11A 1_555 1_555
C12A C11A 1_555 1_555
H10A C12A 1_555 1_555
C13A C12A 1_555 1_555
C14A C13A 1_555 1_555
H11A C14A 1_555 1_555
C15A C10A 1_555 1_555
H12A C15A 1_555 1_555
C16A C13A 1_555 1_555
H13A C16A 1_555 1_555
C17A C16A 1_555 1_555
C18A C17A 1_555 1_555
C19A C17A 1_555 1_555
C20F C20 1_555 1_555
H14F C20F 1_555 1_555
H15F C20F 1_555 1_555
C21F C20F 1_555 1_555
H16F C21F 1_555 1_555
H17F C21F 1_555 1_555
C22F C21F 1_555 1_555
H18F C22F 1_555 1_555
H19F C22F 1_555 1_555
H20F C22F 1_555 1_555
C2 C9 1_555 1_555
C7 C8 1_555 1_555
C14 C15 1_555 1_555
C2A C9A 1_555 1_555
C7A C8A 1_555 1_555
C14A C15A 1_555 1_555

#END
