
#######################################################################
#
#                 Cambridge Crystallographic Data Centre
#                                CCDC 
#
#######################################################################
#
# If this CIF has been generated from an entry in the Cambridge 
# Structural Database, then it will include bibliographic, chemical, 
# crystal, experimental, refinement or atomic coordinate data resulting 
# from the CCDC's data processing and validation procedures.
#
#######################################################################

data_WAPVEP
_chemical_formula_moiety         'C29 H22 N2 O7'
_chemical_name_systematic        
"[(2'R,3'S,4'S)-1,1''-Diacetyl-4',5'-dihydro-4'-(4-methoxyphenyl)dispiro[3H-indole-3,2'(3'H)-furan-3',3''-[3H]indole]-2,2'',5'-(1H,1'H)-trione]"
_symmetry_cell_setting           monoclinic
_symmetry_space_group_name_H-M   'P 21/c'
_symmetry_Int_Tables_number      14
_space_group_name_Hall           '-P 2ybc'
loop_
_symmetry_equiv_pos_site_id
_symmetry_equiv_pos_as_xyz
1 x,y,z
2 -x,1/2+y,1/2-z
3 -x,-y,-z
4 x,1/2-y,1/2+z
_cell_length_a                   17.615(4)
_cell_length_b                   9.1530(18)
_cell_length_c                   15.264(3)
_cell_angle_alpha                90
_cell_angle_beta                 92.83(3)
_cell_angle_gamma                90
_cell_volume                     2458.01
_exptl_crystal_colour            colorless
_chemical_melting_point          236-238deg.C
_cell_formula_units_Z            4
_exptl_crystal_recrystallization_method 'petroleum ether/acetone'
loop_
_atom_site_label
_atom_site_type_symbol
_atom_site_fract_x
_atom_site_fract_y
_atom_site_fract_z
O1 O 0.06231(17) -0.1811(3) 0.9912(2)
O2 O 0.13386(19) 0.0240(4) 0.56580(18)
O3 O 0.22269(11) 0.1505(2) 1.02313(12)
O4 O 0.33485(12) 0.1200(2) 0.71072(12)
O5 O 0.39832(11) 0.3368(2) 0.94196(14)
O6 O 0.29437(10) 0.29291(19) 0.85806(12)
O7 O 0.46927(13) -0.1797(2) 1.23611(13)
N1 N 0.17196(12) -0.0674(2) 0.96559(14)
N2 N 0.20313(14) 0.1016(3) 0.68439(14)
C1 C 0.0958(2) 0.0146(5) 1.0888(2)
H1 H 0.0497 -0.0103 1.1162
H2 H 0.0926 0.1131 1.0674
H3 H 0.1379 0.0063 1.1309
C2 C 0.1072(2) -0.0871(4) 1.0142(3)
C3 C 0.19356(14) -0.1647(3) 0.89762(16)
C4 C 0.16454(17) -0.3011(3) 0.8749(2)
H4 H 0.1230 -0.3398 0.9023
C5 C 0.1996(2) -0.3771(3) 0.8101(2)
H5 H 0.1805 -0.4681 0.7930
C6 C 0.26159(19) -0.3232(3) 0.7699(2)
H6 H 0.2840 -0.3778 0.7269
C7 C 0.29085(17) -0.1878(3) 0.79330(18)
H7 H 0.3335 -0.1514 0.7672
C8 C 0.25541(14) -0.1074(3) 0.85629(16)
C9 C 0.22139(14) 0.0527(3) 0.97009(17)
C10 C 0.27283(13) 0.0429(3) 0.89212(15)
C11 C 0.35547(14) 0.0846(3) 0.91921(17)
H8 H 0.3874 0.0471 0.8735
C12 C 0.38645(13) 0.0208(3) 1.00550(16)
C13 C 0.40896(15) -0.1241(3) 1.00823(18)
H9 H 0.4060 -0.1792 0.9570
C14 C 0.43578(17) -0.1886(3) 1.08565(19)
H10 H 0.4499 -0.2865 1.0863
C15 C 0.44166(15) -0.1071(3) 1.16254(18)
C16 C 0.4785(2) -0.0983(4) 1.3155(2)
H11 H 0.4979 -0.1611 1.3617
H12 H 0.4303 -0.0594 1.3306
H13 H 0.5135 -0.0196 1.3077
C17 C 0.41954(16) 0.0376(3) 1.16114(18)
H14 H 0.4233 0.0934 1.2121
C18 C 0.39177(16) 0.0989(3) 1.08321(18)
H15 H 0.3761 0.1959 1.0830
C19 C 0.35532(15) 0.2480(3) 0.91114(18)
C20 C 0.24942(15) 0.1714(3) 0.82715(16)
C21 C 0.16658(15) 0.2049(3) 0.81437(18)
C22 C 0.11835(16) 0.2750(3) 0.8694(2)
H16 H 0.1359 0.3098 0.9240
C23 C 0.04278(18) 0.2920(4) 0.8408(2)
H17 H 0.0090 0.3385 0.8765
C24 C 0.01784(19) 0.2406(5) 0.7601(3)
H18 H -0.0331 0.2526 0.7426
C25 C 0.06512(19) 0.1719(4) 0.7039(2)
H19 H 0.0471 0.1373 0.6495
C26 C 0.14058(17) 0.1568(3) 0.73177(19)
C27 C 0.1961(2) 0.0333(4) 0.6009(2)
C28 C 0.2661(3) -0.0236(5) 0.5627(2)
H20 H 0.2534 -0.0667 0.5066
H21 H 0.2889 -0.0961 0.6011
H22 H 0.3013 0.0551 0.5558
C29 C 0.27101(17) 0.1286(3) 0.73388(18)
loop_
_geom_bond_atom_site_label_1
_geom_bond_atom_site_label_2
_geom_bond_site_symmetry_1
_geom_bond_site_symmetry_2
O1 C2 1_555 1_555
O2 C27 1_555 1_555
O3 C9 1_555 1_555
O4 C29 1_555 1_555
O5 C19 1_555 1_555
O6 C19 1_555 1_555
O7 C15 1_555 1_555
N1 C2 1_555 1_555
N2 C26 1_555 1_555
C1 H1 1_555 1_555
H2 C1 1_555 1_555
H3 C1 1_555 1_555
C2 C1 1_555 1_555
C3 N1 1_555 1_555
C4 C3 1_555 1_555
H4 C4 1_555 1_555
C5 C4 1_555 1_555
H5 C5 1_555 1_555
C6 C5 1_555 1_555
H6 C6 1_555 1_555
C7 C6 1_555 1_555
H7 C7 1_555 1_555
C8 C3 1_555 1_555
C9 N1 1_555 1_555
C10 C8 1_555 1_555
C11 C10 1_555 1_555
H8 C11 1_555 1_555
C12 C11 1_555 1_555
C13 C12 1_555 1_555
H9 C13 1_555 1_555
C14 C13 1_555 1_555
H10 C14 1_555 1_555
C15 C14 1_555 1_555
C16 O7 1_555 1_555
H11 C16 1_555 1_555
H12 C16 1_555 1_555
H13 C16 1_555 1_555
C17 C15 1_555 1_555
H14 C17 1_555 1_555
C18 C12 1_555 1_555
H15 C18 1_555 1_555
C19 C11 1_555 1_555
C20 O6 1_555 1_555
C21 C20 1_555 1_555
C22 C21 1_555 1_555
H16 C22 1_555 1_555
C23 C22 1_555 1_555
H17 C23 1_555 1_555
C24 C23 1_555 1_555
H18 C24 1_555 1_555
C25 C24 1_555 1_555
H19 C25 1_555 1_555
C26 C21 1_555 1_555
C27 N2 1_555 1_555
C28 C27 1_555 1_555
H20 C28 1_555 1_555
H21 C28 1_555 1_555
H22 C28 1_555 1_555
C29 N2 1_555 1_555
C7 C8 1_555 1_555
C9 C10 1_555 1_555
C10 C20 1_555 1_555
C17 C18 1_555 1_555
C20 C29 1_555 1_555
C25 C26 1_555 1_555

#END
