
#######################################################################
#
#                 Cambridge Crystallographic Data Centre
#                                CCDC 
#
#######################################################################
#
# If this CIF has been generated from an entry in the Cambridge 
# Structural Database, then it will include bibliographic, chemical, 
# crystal, experimental, refinement or atomic coordinate data resulting 
# from the CCDC's data processing and validation procedures.
#
#######################################################################

data_WAPWOZ
_chemical_formula_moiety         'C19 H25 N1'
_chemical_name_systematic        (2.2)(1.3)Adamantano-2,6-pyridinophane
_symmetry_cell_setting           orthorhombic
_symmetry_space_group_name_H-M   'P b c a'
_symmetry_Int_Tables_number      61
_space_group_name_Hall           '-P 2ac 2ab'
loop_
_symmetry_equiv_pos_site_id
_symmetry_equiv_pos_as_xyz
1 x,y,z
2 1/2-x,-y,1/2+z
3 1/2+x,1/2-y,-z
4 -x,1/2+y,1/2-z
5 -x,-y,-z
6 1/2+x,y,1/2-z
7 1/2-x,1/2+y,z
8 x,1/2-y,1/2+z
_cell_length_a                   15.849(1)
_cell_length_b                   8.989(1)
_cell_length_c                   20.543(1)
_cell_angle_alpha                90
_cell_angle_beta                 90
_cell_angle_gamma                90
_cell_volume                     2926.69
_exptl_crystal_colour            colorless
_chemical_melting_point          89deg.C
_cell_formula_units_Z            8
loop_
_atom_site_label
_atom_site_type_symbol
_atom_site_fract_x
_atom_site_fract_y
_atom_site_fract_z
C1 C 0.48111(12) 0.88416(19) 0.09488(10)
C2 C 0.41809(11) 0.77021(18) 0.06321(9)
C3 C 0.40596(10) 0.62395(18) 0.10125(8)
C4 C 0.33816(10) 0.51199(19) 0.07748(9)
C5 C 0.34377(11) 0.36953(19) 0.12066(9)
C6 C 0.31501(12) 0.41262(21) 0.18915(9)
C7 C 0.37731(10) 0.52804(20) 0.21524(8)
C8 C 0.46650(10) 0.46742(20) 0.21684(8)
C9 C 0.49616(10) 0.41612(17) 0.14877(8)
C10 C 0.48545(10) 0.52850(17) 0.09323(7)
C11 C 0.43208(12) 0.29589(18) 0.12724(9)
C12 C 0.38121(10) 0.66375(18) 0.17175(9)
C13 C 0.58992(11) 0.37233(19) 0.15316(10)
C14 C 0.64942(11) 0.49360(22) 0.18379(9)
C15 C 0.65239(10) 0.63927(19) 0.14675(8)
C16 C 0.71602(11) 0.66569(22) 0.10108(10)
C17 C 0.70646(12) 0.77885(23) 0.05735(10)
C18 C 0.63178(13) 0.85661(20) 0.05623(9)
C19 C 0.57072(11) 0.82776(18) 0.10285(9)
N1 N 0.58496(9) 0.72998(15) 0.15161(7)
H1 H 0.4598 0.9130 0.1368
H2 H 0.4827 0.9715 0.0680
H3 H 0.4382 0.7456 0.0205
H4 H 0.3642 0.8175 0.0582
H5 H 0.3480 0.4870 0.0327
H6 H 0.2830 0.5554 0.0810
H7 H 0.3050 0.2971 0.1037
H8 H 0.3133 0.3268 0.2169
H9 H 0.2594 0.4550 0.1873
H10 H 0.3606 0.5568 0.2583
H11 H 0.4693 0.3854 0.2467
H12 H 0.5036 0.5439 0.2325
H13 H 0.5339 0.5926 0.0916
H14 H 0.4825 0.4756 0.0527
H15 H 0.4488 0.2549 0.0861
H16 H 0.4301 0.2167 0.1585
H17 H 0.3270 0.7114 0.1716
H18 H 0.4216 0.7329 0.1890
H19 H 0.6097 0.3500 0.1101
H20 H 0.5943 0.2830 0.1785
H21 H 0.7056 0.4542 0.1865
H22 H 0.6307 0.5139 0.2273
H23 H 0.7659 0.6052 0.1007
H24 H 0.7513 0.8031 0.0278
H25 H 0.6218 0.9310 0.0236
loop_
_geom_bond_atom_site_label_1
_geom_bond_atom_site_label_2
_geom_bond_site_symmetry_1
_geom_bond_site_symmetry_2
C1 C2 1_555 1_555
C2 C3 1_555 1_555
C3 C4 1_555 1_555
C4 C5 1_555 1_555
C5 C6 1_555 1_555
C6 C7 1_555 1_555
C7 C8 1_555 1_555
C8 C9 1_555 1_555
C9 C10 1_555 1_555
C10 C3 1_555 1_555
C11 C5 1_555 1_555
C12 C3 1_555 1_555
C13 C9 1_555 1_555
C14 C13 1_555 1_555
C15 C14 1_555 1_555
C16 C15 1_555 1_555
C17 C16 1_555 1_555
C18 C17 1_555 1_555
C19 C1 1_555 1_555
N1 C15 1_555 1_555
H1 C1 1_555 1_555
H2 C1 1_555 1_555
H3 C2 1_555 1_555
H4 C2 1_555 1_555
H5 C4 1_555 1_555
H6 C4 1_555 1_555
H7 C5 1_555 1_555
H8 C6 1_555 1_555
H9 C6 1_555 1_555
H10 C7 1_555 1_555
H11 C8 1_555 1_555
H12 C8 1_555 1_555
H13 C10 1_555 1_555
H14 C10 1_555 1_555
H15 C11 1_555 1_555
H16 C11 1_555 1_555
H17 C12 1_555 1_555
H18 C12 1_555 1_555
H19 C13 1_555 1_555
H20 C13 1_555 1_555
H21 C14 1_555 1_555
H22 C14 1_555 1_555
H23 C16 1_555 1_555
H24 C17 1_555 1_555
H25 C18 1_555 1_555
C7 C12 1_555 1_555
C9 C11 1_555 1_555
C18 C19 1_555 1_555
C19 N1 1_555 1_555

#END
