
#######################################################################
#
#                 Cambridge Crystallographic Data Centre
#                                CCDC 
#
#######################################################################
#
# If this CIF has been generated from an entry in the Cambridge 
# Structural Database, then it will include bibliographic, chemical, 
# crystal, experimental, refinement or atomic coordinate data resulting 
# from the CCDC's data processing and validation procedures.
#
#######################################################################

data_WAQJUW
_chemical_name_common            '4-(hydroxymethyl)coumarin 7-benzoate'
_chemical_formula_moiety         'C17 H12 O5'
_chemical_name_systematic        
'4-(hydroxymethyl)-2-oxo-2H-1-benzopyran-7-yl benzoate'
_symmetry_cell_setting           triclinic
_symmetry_space_group_name_H-M   'P -1'
_symmetry_Int_Tables_number      2
_space_group_name_Hall           '-P 1'
loop_
_symmetry_equiv_pos_site_id
_symmetry_equiv_pos_as_xyz
1 x,y,z
2 -x,-y,-z
_cell_length_a                   7.1640(4)
_cell_length_b                   9.2165(5)
_cell_length_c                   10.1606(5)
_cell_angle_alpha                85.162(4)
_cell_angle_beta                 82.217(4)
_cell_angle_gamma                81.222(5)
_cell_volume                     655.518
_exptl_crystal_colour            colorless
_exptl_crystal_description       plate
_cell_formula_units_Z            2
_exptl_crystal_recrystallization_method hexane/dichloromethane
loop_
_atom_site_label
_atom_site_type_symbol
_atom_site_fract_x
_atom_site_fract_y
_atom_site_fract_z
O1 O 0.79157(16) 0.44374(12) 0.87166(10)
O2 O 0.77669(15) 0.36403(11) 0.67445(10)
O3 O 0.77354(17) 0.91599(11) 0.57624(11)
O4 O 0.66338(16) 0.17885(12) 0.27398(11)
O5 O 0.96975(16) 0.07077(13) 0.24764(11)
C1 C 0.7839(2) 0.47749(16) 0.75451(14)
C2 C 0.7826(2) 0.62380(16) 0.68984(14)
H1 H 0.790575 0.702976 0.741966
C3 C 0.7704(2) 0.65230(15) 0.55816(14)
C4 C 0.7542(2) 0.53151(15) 0.47829(14)
C5 C 0.7333(2) 0.54837(16) 0.34166(14)
H2 H 0.733620 0.642713 0.296140
C6 C 0.7122(2) 0.42994(17) 0.27274(15)
H3 H 0.699834 0.441666 0.180386
C7 C 0.7095(2) 0.29339(16) 0.34174(15)
C8 C 0.7327(2) 0.26920(16) 0.47498(15)
H4 H 0.733479 0.174161 0.519278
C9 C 0.7550(2) 0.39087(16) 0.54168(14)
C10 C 0.7700(2) 0.80412(15) 0.49011(14)
H5 H 0.882252 0.802654 0.421409
H6 H 0.654878 0.828856 0.444095
C11 C 0.8061(2) 0.07115(16) 0.23125(14)
C12 C 0.7333(2) -0.04185(15) 0.16424(13)
C13 C 0.5395(2) -0.05116(16) 0.17458(14)
H7 H 0.449585 0.017338 0.223512
C14 C 0.4785(2) -0.16125(16) 0.11289(14)
H8 H 0.346756 -0.169247 0.120659
C15 C 0.6111(2) -0.26005(16) 0.03952(14)
H9 H 0.568819 -0.333969 -0.004088
C16 C 0.8046(2) -0.25132(16) 0.02964(14)
H10 H 0.893974 -0.319305 -0.020197
C17 C 0.8669(2) -0.14295(16) 0.09282(14)
H11 H 0.999031 -0.137420 0.087644
H12 H 0.883(3) 0.901(2) 0.607(2)
loop_
_geom_bond_atom_site_label_1
_geom_bond_atom_site_label_2
_geom_bond_site_symmetry_1
_geom_bond_site_symmetry_2
O1 C1 1_555 1_555
O2 C1 1_555 1_555
O3 C10 1_555 1_555
O4 C7 1_555 1_555
O5 C11 1_555 1_555
C1 C2 1_555 1_555
C2 H1 1_555 1_555
C3 C2 1_555 1_555
C4 C3 1_555 1_555
C5 C4 1_555 1_555
H2 C5 1_555 1_555
C6 C5 1_555 1_555
H3 C6 1_555 1_555
C7 C6 1_555 1_555
C8 C7 1_555 1_555
H4 C8 1_555 1_555
C9 O2 1_555 1_555
C10 C3 1_555 1_555
H5 C10 1_555 1_555
H6 C10 1_555 1_555
C11 O4 1_555 1_555
C12 C11 1_555 1_555
C13 C12 1_555 1_555
H7 C13 1_555 1_555
C14 C13 1_555 1_555
H8 C14 1_555 1_555
C15 C14 1_555 1_555
H9 C15 1_555 1_555
C16 C15 1_555 1_555
H10 C16 1_555 1_555
C17 C12 1_555 1_555
H11 C17 1_555 1_555
H12 O3 1_555 1_555
C4 C9 1_555 1_555
C8 C9 1_555 1_555
C16 C17 1_555 1_555

#END
