
#######################################################################
#
#                 Cambridge Crystallographic Data Centre
#                                CCDC 
#
#######################################################################
#
# If this CIF has been generated from an entry in the Cambridge 
# Structural Database, then it will include bibliographic, chemical, 
# crystal, experimental, refinement or atomic coordinate data resulting 
# from the CCDC's data processing and validation procedures.
#
#######################################################################

data_WAQPOW
_chemical_formula_moiety         'C24 H18 Cl1 N1 O2 S1'
_chemical_name_systematic        
'ethyl 4-chloro-9-methyl-1-phenylpyrrolo[3,2,1-kl]phenothiazine-2-carboxylate'
_symmetry_cell_setting           triclinic
_symmetry_space_group_name_H-M   'P -1'
_symmetry_Int_Tables_number      2
_space_group_name_Hall           '-P 1'
loop_
_symmetry_equiv_pos_site_id
_symmetry_equiv_pos_as_xyz
1 x,y,z
2 -x,-y,-z
_cell_length_a                   9.5389(3)
_cell_length_b                   10.7066(3)
_cell_length_c                   11.2370(3)
_cell_angle_alpha                66.5410(10)
_cell_angle_beta                 73.749(2)
_cell_angle_gamma                85.725(2)
_cell_volume                     1009.82
_exptl_crystal_colour            colorless
_exptl_crystal_description       block
_cell_formula_units_Z            2
loop_
_atom_site_label
_atom_site_type_symbol
_atom_site_fract_x
_atom_site_fract_y
_atom_site_fract_z
Cl1 Cl 0.06615(9) 1.08339(7) 0.28612(8)
S1 S 0.42194(9) 0.81467(8) 0.00612(6)
O1 O 0.1159(2) 0.38188(18) 0.70205(17)
O2 O 0.0116(2) 0.5812(2) 0.67515(18)
N1 N 0.35597(19) 0.57940(18) 0.29569(18)
C1 C 0.2960(2) 0.7059(2) 0.2773(2)
C2 C 0.1985(2) 0.7013(2) 0.3980(2)
C3 C 0.2936(2) 0.4914(2) 0.4296(2)
C4 C 0.3240(2) 0.3445(2) 0.4846(2)
C5 C 0.1970(2) 0.5631(2) 0.4933(2)
C6 C 0.4818(2) 0.5638(2) 0.1969(2)
C7 C 0.0988(2) 0.5123(2) 0.6308(2)
C8 C 0.3201(2) 0.8232(2) 0.1583(2)
C9 C 0.5731(2) 0.4558(3) 0.2291(2)
H1 H 0.5531 0.3919 0.3177
C10 C 0.1250(3) 0.8185(2) 0.4029(2)
H2 H 0.0591 0.8178 0.4818
C11 C 0.2501(3) 0.9390(2) 0.1644(2)
H3 H 0.2665 1.0199 0.0879
C12 C 0.2730(3) 0.2553(3) 0.4434(3)
H4 H 0.2226 0.2875 0.3778
C13 C 0.5171(3) 0.6641(3) 0.0649(2)
C14 C 0.6938(3) 0.4396(3) 0.1334(3)
C15 C 0.1546(3) 0.9340(2) 0.2861(3)
C16 C 0.4006(3) 0.2936(3) 0.5818(3)
H5 H 0.4348 0.3526 0.6107
C17 C 0.0272(3) 0.3241(3) 0.8405(2)
H6 H -0.0755 0.3236 0.8440
H7 H 0.0418 0.3770 0.8893
C18 C 0.6378(3) 0.6476(3) -0.0302(3)
H8 H 0.6611 0.7133 -0.1179
C19 C 0.7235(3) 0.5369(3) 0.0020(3)
H9 H 0.8018 0.5270 -0.0644
C20 C 0.4262(3) 0.1570(3) 0.6356(3)
H10 H 0.4792 0.1242 0.6991
C21 C 0.2974(3) 0.1177(3) 0.5004(4)
H11 H 0.2616 0.0574 0.4738
C22 C 0.7879(3) 0.3187(3) 0.1737(3)
H12 H 0.8662 0.3229 0.0966
H13 H 0.7297 0.2361 0.2071
H14 H 0.8275 0.3199 0.2429
C23 C 0.3736(3) 0.0693(3) 0.5954(4)
H15 H 0.3897 -0.0233 0.6326
C24 C 0.0746(4) 0.1824(3) 0.9009(3)
H16 H 0.0190 0.1403 0.9936
H17 H 0.1766 0.1845 0.8959
H18 H 0.0587 0.1312 0.8522
loop_
_geom_bond_atom_site_label_1
_geom_bond_atom_site_label_2
_geom_bond_site_symmetry_1
_geom_bond_site_symmetry_2
Cl1 C15 1_555 1_555
S1 C8 1_555 1_555
O1 C7 1_555 1_555
O2 C7 1_555 1_555
N1 C1 1_555 1_555
C1 C2 1_555 1_555
C2 C5 1_555 1_555
C3 N1 1_555 1_555
C4 C3 1_555 1_555
C5 C3 1_555 1_555
C6 N1 1_555 1_555
C7 C5 1_555 1_555
C8 C1 1_555 1_555
C9 C6 1_555 1_555
H1 C9 1_555 1_555
C10 C2 1_555 1_555
H2 C10 1_555 1_555
C11 C8 1_555 1_555
H3 C11 1_555 1_555
C12 C4 1_555 1_555
H4 C12 1_555 1_555
C13 S1 1_555 1_555
C14 C9 1_555 1_555
C15 C10 1_555 1_555
C16 C4 1_555 1_555
H5 C16 1_555 1_555
C17 O1 1_555 1_555
H6 C17 1_555 1_555
H7 C17 1_555 1_555
C18 C13 1_555 1_555
H8 C18 1_555 1_555
C19 C14 1_555 1_555
H9 C19 1_555 1_555
C20 C16 1_555 1_555
H10 C20 1_555 1_555
C21 C12 1_555 1_555
H11 C21 1_555 1_555
C22 C14 1_555 1_555
H12 C22 1_555 1_555
H13 C22 1_555 1_555
H14 C22 1_555 1_555
C23 C20 1_555 1_555
H15 C23 1_555 1_555
C24 C17 1_555 1_555
H16 C24 1_555 1_555
H17 C24 1_555 1_555
H18 C24 1_555 1_555
C6 C13 1_555 1_555
C11 C15 1_555 1_555
C18 C19 1_555 1_555
C21 C23 1_555 1_555

#END
