
#######################################################################
#
#                 Cambridge Crystallographic Data Centre
#                                CCDC 
#
#######################################################################
#
# If this CIF has been generated from an entry in the Cambridge 
# Structural Database, then it will include bibliographic, chemical, 
# crystal, experimental, refinement or atomic coordinate data resulting 
# from the CCDC's data processing and validation procedures.
#
#######################################################################

data_WAQTOZ
_chemical_name_common            (5'R)-Isoaustinone
_chemical_formula_moiety         'C25 H30 O6'
_chemical_name_systematic        
11-Hydroxy-2,2',2',6,9,12-hexamethyl-15-methylene-6'H,10H-spiro[13-oxatetracyclo[7.5.1.0^1,11^.0^2,7^]pentadec-6-ene-5,3'-pyran]-6',10,14-trione
_symmetry_cell_setting           monoclinic
_symmetry_space_group_name_H-M   'I 2'
_symmetry_Int_Tables_number      5
_space_group_name_Hall           'I 2y'
loop_
_symmetry_equiv_pos_site_id
_symmetry_equiv_pos_as_xyz
1 x,y,z
2 -x,y,-z
3 1/2+x,1/2+y,1/2+z
4 1/2-x,1/2+y,1/2-z
_cell_length_a                   16.9929(9)
_cell_length_b                   7.3879(4)
_cell_length_c                   17.1390(9)
_cell_angle_alpha                90
_cell_angle_beta                 95.180(3)
_cell_angle_gamma                90
_cell_volume                     2142.87
_exptl_crystal_colour            colorless
_exptl_crystal_description       block
_cell_formula_units_Z            4
loop_
_atom_site_label
_atom_site_type_symbol
_atom_site_fract_x
_atom_site_fract_y
_atom_site_fract_z
O1 O 0.31807(4) 0.01814(11) 0.46165(4)
O2 O 0.31665(5) -0.26418(11) 0.50302(5)
O3 O -0.08141(5) 0.63957(12) 0.36019(5)
O4 O -0.15317(5) 0.39299(14) 0.32898(5)
O5 O -0.02798(5) 0.07774(14) 0.37375(5)
O6 O -0.02401(6) -0.07418(12) 0.22309(5)
C1 C 0.28139(6) -0.12224(17) 0.49322(6)
C2 C 0.19827(7) -0.09884(17) 0.50849(6)
C3 C 0.15668(6) 0.04219(16) 0.48035(6)
C4 C 0.19161(6) 0.19512(15) 0.43685(6)
C5 C 0.28292(6) 0.20161(15) 0.46101(6)
C6 C 0.30332(7) 0.27707(17) 0.54352(7)
C7 C 0.32836(7) 0.30562(19) 0.40361(7)
C8 C 0.17084(6) 0.16228(15) 0.34813(6)
C9 C 0.11714(6) 0.26182(15) 0.30504(6)
C10 C 0.06657(6) 0.40949(15) 0.33749(6)
C11 C 0.07121(6) 0.40237(18) 0.42707(6)
C12 C 0.15606(7) 0.37600(17) 0.46186(6)
C13 C 0.21101(7) 0.00421(18) 0.31145(7)
C14 C 0.09491(8) 0.59665(17) 0.31200(8)
C15 C 0.10259(6) 0.23454(18) 0.21666(6)
C16 C 0.01378(6) 0.22887(15) 0.18463(6)
C17 C -0.02410(6) 0.39780(15) 0.21265(6)
C18 C -0.02052(6) 0.37510(16) 0.30185(6)
C19 C 0.00494(8) 0.1928(2) 0.09696(7)
C20 C -0.05515(7) 0.53219(17) 0.16986(7)
C21 C -0.02251(7) 0.08729(17) 0.23338(6)
C22 C -0.05224(6) 0.17855(16) 0.30510(6)
C23 C -0.14339(6) 0.20926(19) 0.30052(7)
C24 C -0.08441(7) 0.48815(18) 0.33438(7)
C25 C -0.19165(8) 0.1836(2) 0.22293(8)
H1 H -0.0329(10) -0.033(3) 0.3632(10)
H2 H 0.1771(6) -0.1928(17) 0.5358(6)
H3 H 0.1022(7) 0.0512(17) 0.4872(6)
H4 H 0.2764(7) 0.212(2) 0.5841(8)
H5 H 0.2944(7) 0.407(2) 0.5466(7)
H6 H 0.3609(8) 0.2669(17) 0.5562(7)
H7 H 0.3838(8) 0.2973(19) 0.4187(7)
H8 H 0.3133(8) 0.431(2) 0.4044(8)
H9 H 0.3180(7) 0.2653(17) 0.3503(7)
H10 H 0.0517(6) 0.5118(17) 0.4479(7)
H11 H 0.0351(7) 0.2979(17) 0.4431(7)
H12 H 0.1575(7) 0.3796(19) 0.5164(7)
H13 H 0.1912(6) 0.4740(16) 0.4469(6)
H14 H 0.1742(7) -0.0731(18) 0.2800(7)
H15 H 0.2363(8) -0.077(2) 0.3496(8)
H16 H 0.2513(8) 0.041(2) 0.2749(8)
H17 H 0.0589(8) 0.692(2) 0.3300(8)
H18 H 0.0988(7) 0.6059(17) 0.2562(7)
H19 H 0.1473(7) 0.6178(17) 0.3380(7)
H20 H 0.1265(7) 0.3307(16) 0.1888(6)
H21 H 0.1260(6) 0.1255(16) 0.2013(7)
H22 H -0.0497(7) 0.2013(17) 0.0761(6)
H23 H 0.0238(7) 0.0705(19) 0.0877(7)
H24 H 0.0368(8) 0.275(2) 0.0704(8)
H25 H -0.0563(6) 0.5338(17) 0.1138(7)
H26 H -0.0757(7) 0.6364(17) 0.1919(7)
H27 H -0.1647(7) 0.1358(17) 0.3427(7)
H28 H -0.2467(8) 0.2145(18) 0.2274(7)
H29 H -0.1870(7) 0.053(2) 0.2058(8)
H30 H -0.1740(8) 0.2584(19) 0.1805(8)
loop_
_geom_bond_atom_site_label_1
_geom_bond_atom_site_label_2
_geom_bond_site_symmetry_1
_geom_bond_site_symmetry_2
O1 C1 1_555 1_555
O2 C1 1_555 1_555
O3 C24 1_555 1_555
O4 C23 1_555 1_555
O5 C22 1_555 1_555
O6 C21 1_555 1_555
C1 C2 1_555 1_555
C2 C3 1_555 1_555
C3 C4 1_555 1_555
C4 C5 1_555 1_555
C5 O1 1_555 1_555
C6 C5 1_555 1_555
C7 C5 1_555 1_555
C8 C4 1_555 1_555
C9 C8 1_555 1_555
C10 C9 1_555 1_555
C11 C10 1_555 1_555
C12 C4 1_555 1_555
C13 C8 1_555 1_555
C14 C10 1_555 1_555
C15 C9 1_555 1_555
C16 C15 1_555 1_555
C17 C16 1_555 1_555
C18 C10 1_555 1_555
C19 C16 1_555 1_555
C20 C17 1_555 1_555
C21 C16 1_555 1_555
C22 C18 1_555 1_555
C23 C22 1_555 1_555
C24 O4 1_555 1_555
C25 C23 1_555 1_555
H1 O5 1_555 1_555
H2 C2 1_555 1_555
H3 C3 1_555 1_555
H4 C6 1_555 1_555
H5 C6 1_555 1_555
H6 C6 1_555 1_555
H7 C7 1_555 1_555
H8 C7 1_555 1_555
H9 C7 1_555 1_555
H10 C11 1_555 1_555
H11 C11 1_555 1_555
H12 C12 1_555 1_555
H13 C12 1_555 1_555
H14 C13 1_555 1_555
H15 C13 1_555 1_555
H16 C13 1_555 1_555
H17 C14 1_555 1_555
H18 C14 1_555 1_555
H19 C14 1_555 1_555
H20 C15 1_555 1_555
H21 C15 1_555 1_555
H22 C19 1_555 1_555
H23 C19 1_555 1_555
H24 C19 1_555 1_555
H25 C20 1_555 1_555
H26 C20 1_555 1_555
H27 C23 1_555 1_555
H28 C25 1_555 1_555
H29 C25 1_555 1_555
H30 C25 1_555 1_555
C11 C12 1_555 1_555
C17 C18 1_555 1_555
C18 C24 1_555 1_555
C21 C22 1_555 1_555

#END
