
#######################################################################
#
#                 Cambridge Crystallographic Data Centre
#                                CCDC 
#
#######################################################################
#
# If this CIF has been generated from an entry in the Cambridge 
# Structural Database, then it will include bibliographic, chemical, 
# crystal, experimental, refinement or atomic coordinate data resulting 
# from the CCDC's data processing and validation procedures.
#
#######################################################################

data_WAQXAQ
_chemical_formula_moiety         'C27 H21 N1 O2 S2'
_chemical_name_systematic        
1-((4-methylphenyl)sulfonyl)-2-phenyl-3-(phenylsulfanyl)-1H-indole
_symmetry_cell_setting           orthorhombic
_symmetry_space_group_name_H-M   'P 21 21 21'
_symmetry_Int_Tables_number      19
_space_group_name_Hall           'P 2ac 2ab'
loop_
_symmetry_equiv_pos_site_id
_symmetry_equiv_pos_as_xyz
1 x,y,z
2 1/2-x,-y,1/2+z
3 -x,1/2+y,1/2-z
4 1/2+x,1/2-y,-z
_cell_length_a                   5.9608(4)
_cell_length_b                   18.7773(9)
_cell_length_c                   20.3817(11)
_cell_angle_alpha                90
_cell_angle_beta                 90
_cell_angle_gamma                90
_cell_volume                     2281.28
_exptl_crystal_colour            colorless
_exptl_crystal_description       block
_cell_formula_units_Z            4
loop_
_atom_site_label
_atom_site_type_symbol
_atom_site_fract_x
_atom_site_fract_y
_atom_site_fract_z
C1 C 0.3602(3) 0.88030(10) 0.70328(9)
C2 C 0.5042(4) 0.86304(11) 0.65403(9)
C3 C 0.4378(4) 0.79516(10) 0.62671(9)
C4 C 0.5247(5) 0.75508(13) 0.57487(10)
H1 H 0.6538 0.7692 0.5528
C5 C 0.4118(6) 0.69389(13) 0.55766(12)
H2 H 0.4672 0.6657 0.5238
C6 C 0.2186(6) 0.67357(12) 0.58962(12)
H3 H 0.1452 0.6324 0.5761
C7 C 0.1302(5) 0.71229(10) 0.64105(11)
H4 H -0.0003 0.6982 0.6624
C8 C 0.2467(4) 0.77374(10) 0.65940(9)
C9 C 0.3562(3) 0.94677(10) 0.74126(10)
C10 C 0.1763(4) 0.99420(11) 0.73642(12)
H5 H 0.0499 0.9819 0.7122
C11 C 0.1863(5) 1.05930(12) 0.76761(14)
H6 H 0.0658 1.0905 0.7645
C12 C 0.3721(5) 1.07859(12) 0.80325(13)
H7 H 0.3788 1.1231 0.8231
C13 C 0.5468(4) 1.03214(12) 0.80933(12)
H8 H 0.6709 1.0446 0.8345
C14 C 0.5409(4) 0.96650(11) 0.77831(10)
H9 H 0.6617 0.9355 0.7824
C15 C 0.2738(4) 0.75925(11) 0.82401(10)
C16 C 0.3036(6) 0.68632(13) 0.81748(13)
H10 H 0.2141 0.6606 0.7886
C17 C 0.4649(6) 0.65217(15) 0.85361(15)
H11 H 0.4826 0.6032 0.8491
C18 C 0.5995(6) 0.68829(17) 0.89587(14)
C19 C 0.5717(6) 0.76181(17) 0.90165(14)
H12 H 0.6638 0.7875 0.9299
C20 C 0.4091(5) 0.79687(13) 0.86591(13)
H13 H 0.3914 0.8459 0.8702
C21 C 0.7846(7) 0.6510(2) 0.9343(2)
H14 H 0.7215 0.6125 0.9592
H15 H 0.8544 0.6844 0.9636
H16 H 0.8947 0.6327 0.9044
C22 C 0.6043(4) 0.95635(11) 0.55404(11)
C23 C 0.7388(6) 1.00418(15) 0.52051(14)
H17 H 0.8803 1.0155 0.5366
C24 C 0.6624(8) 1.03547(15) 0.46249(16)
H18 H 0.7526 1.0681 0.4405
C25 C 0.4581(7) 1.01862(16) 0.43797(16)
H19 H 0.4103 1.0384 0.3985
C26 C 0.3224(5) 0.97261(14) 0.47123(12)
H20 H 0.1807 0.9620 0.4549
C27 C 0.3945(4) 0.94144(12) 0.52942(11)
H21 H 0.3003 0.9103 0.5518
N1 N 0.1943(3) 0.82616(8) 0.70777(7)
O1 O -0.1019(3) 0.75316(10) 0.75997(9)
O2 O 0.0107(3) 0.86726(9) 0.81092(8)
S1 S 0.06704(9) 0.80275(3) 0.77845(3)
S2 S 0.72212(10) 0.91657(4) 0.62515(3)
loop_
_geom_bond_atom_site_label_1
_geom_bond_atom_site_label_2
_geom_bond_site_symmetry_1
_geom_bond_site_symmetry_2
C1 C2 1_555 1_555
C2 C3 1_555 1_555
C3 C4 1_555 1_555
C4 H1 1_555 1_555
C5 C4 1_555 1_555
H2 C5 1_555 1_555
C6 C5 1_555 1_555
H3 C6 1_555 1_555
C7 C6 1_555 1_555
H4 C7 1_555 1_555
C8 C3 1_555 1_555
C9 C1 1_555 1_555
C10 C9 1_555 1_555
H5 C10 1_555 1_555
C11 C10 1_555 1_555
H6 C11 1_555 1_555
C12 C11 1_555 1_555
H7 C12 1_555 1_555
C13 C12 1_555 1_555
H8 C13 1_555 1_555
C14 C9 1_555 1_555
H9 C14 1_555 1_555
C15 C16 1_555 1_555
C16 H10 1_555 1_555
C17 C16 1_555 1_555
H11 C17 1_555 1_555
C18 C17 1_555 1_555
C19 C18 1_555 1_555
H12 C19 1_555 1_555
C20 C15 1_555 1_555
H13 C20 1_555 1_555
C21 C18 1_555 1_555
H14 C21 1_555 1_555
H15 C21 1_555 1_555
H16 C21 1_555 1_555
C22 C23 1_555 1_555
C23 H17 1_555 1_555
C24 C23 1_555 1_555
H18 C24 1_555 1_555
C25 C24 1_555 1_555
H19 C25 1_555 1_555
C26 C25 1_555 1_555
H20 C26 1_555 1_555
C27 C22 1_555 1_555
H21 C27 1_555 1_555
N1 C1 1_555 1_555
O1 S1 1_555 1_555
O2 S1 1_555 1_555
S1 C15 1_555 1_555
S2 C2 1_555 1_555
C7 C8 1_555 1_555
C8 N1 1_555 1_555
C13 C14 1_555 1_555
C19 C20 1_555 1_555
C22 S2 1_555 1_555
C26 C27 1_555 1_555
N1 S1 1_555 1_555

#END
