
#######################################################################
#
#                 Cambridge Crystallographic Data Centre
#                                CCDC 
#
#######################################################################
#
# If this CIF has been generated from an entry in the Cambridge 
# Structural Database, then it will include bibliographic, chemical, 
# crystal, experimental, refinement or atomic coordinate data resulting 
# from the CCDC's data processing and validation procedures.
#
#######################################################################

data_WAQZIA
_chemical_formula_moiety         'C37 H27 Br1 N2 O2'
_chemical_name_systematic        
4'-benzoyl-1-benzyl-5'-(4-bromophenyl)-3'-phenyl-1',5'-dihydrospiro[indole-3,2'-pyrrol]-2(1H)-one
_symmetry_cell_setting           monoclinic
_symmetry_space_group_name_H-M   'P 21'
_symmetry_Int_Tables_number      4
_space_group_name_Hall           'P 2yb'
loop_
_symmetry_equiv_pos_site_id
_symmetry_equiv_pos_as_xyz
1 x,y,z
2 -x,1/2+y,-z
_cell_length_a                   17.9007(6)
_cell_length_b                   13.4705(4)
_cell_length_c                   18.9244(7)
_cell_angle_alpha                90
_cell_angle_beta                 98.1603(16)
_cell_angle_gamma                90
_cell_volume                     4517.06
_exptl_crystal_colour            white
_exptl_crystal_description       BLOCK
_cell_formula_units_Z            6
_exptl_crystal_recrystallization_method 'diethyl ether/n-hexane'
loop_
_atom_site_label
_atom_site_type_symbol
_atom_site_fract_x
_atom_site_fract_y
_atom_site_fract_z
C1 C 0.82696(17) -1.9842(3) 0.3861(2)
O1 O 0.85391(14) -1.97494(19) 0.44807(14)
N1 N 0.80944(14) -2.07178(19) 0.35153(15)
C2 C 0.5900(2) -1.6229(3) 0.4317(2)
H1 H 0.6081 -1.6119 0.4796
C3 C 0.84231(16) -1.7352(2) 0.37153(17)
H2 H 0.8742 -1.7353 0.4181
C4 C 0.60937(19) -1.6719(3) 0.3154(2)
H3 H 0.6408 -1.6963 0.2843
C5 C 0.78281(17) -1.9554(2) 0.26388(16)
C6 C 0.66697(15) -1.8933(2) 0.36960(16)
C7 C 0.69685(19) -2.1773(3) 0.42239(18)
H4 H 0.6976 -2.1087 0.4277
C8 C 0.64504(18) -1.8915(2) 0.43676(18)
H5 H 0.6767 -1.8627 0.4744
C9 C 0.71746(17) -1.6780(2) 0.41481(16)
C10 C 0.76025(15) -1.7531(2) 0.38048(15)
C11 C 0.63747(18) -1.6583(2) 0.38667(18)
N2 N 0.85837(15) -1.8221(2) 0.33021(15)
H6 H 0.8965 -1.8267 0.3074
C12 C 0.73819(15) -1.8441(2) 0.35922(14)
C13 C 0.5772(2) -1.9317(3) 0.4491(2)
H7 H 0.5634 -1.9292 0.4946
C14 C 0.7645(2) -1.9227(3) 0.19499(18)
H8 H 0.7657 -1.8554 0.1843
O2 O 0.74960(14) -1.63037(17) 0.46486(13)
C15 C 0.7536(3) -2.3269(3) 0.3916(2)
H9 H 0.7932 -2.3607 0.3754
C16 C 0.61995(18) -1.9385(2) 0.31483(19)
H10 H 0.6336 -1.9419 0.2693
C17 C 0.5351(2) -1.6496(3) 0.2899(3)
H11 H 0.5172 -1.6574 0.2416
C18 C 0.5152(3) -1.6033(4) 0.4060(4)
H12 H 0.4831 -1.5810 0.4372
C19 C 0.82513(19) -2.1694(2) 0.38344(19)
H13 H 0.8593 -2.1615 0.4277
H14 H 0.8507 -2.2091 0.3515
C20 C 0.7425(3) -2.0913(3) 0.1581(2)
H15 H 0.7274 -2.1368 0.1219
C21 C 0.78325(18) -2.0562(2) 0.27816(17)
C22 C 0.7623(2) -2.1249(3) 0.2257(2)
H16 H 0.7617 -2.1923 0.2361
C23 C 0.6358(2) -2.2304(3) 0.4382(2)
H17 H 0.5951 -2.1973 0.4530
C24 C 0.75671(19) -2.2246(2) 0.39886(16)
C25 C 0.6344(3) -2.3308(4) 0.4326(2)
H18 H 0.5938 -2.3664 0.4453
C26 C 0.80309(16) -1.8990(2) 0.33207(16)
C27 C 0.5517(2) -1.9791(3) 0.3285(3)
H19 H 0.5200 -2.0097 0.2917
C28 C 0.5306(2) -1.9747(3) 0.3950(3)
H20 H 0.4845 -2.0010 0.4031
Br1 Br 0.87712(2) -1.34498(2) 0.20961(2)
C29 C 0.90489(16) -1.5693(2) 0.35931(17)
H21 H 0.9356 -1.5815 0.4024
C30 C 0.85211(16) -1.6387(2) 0.33254(16)
C31 C 0.86702(18) -1.4647(2) 0.25971(17)
C32 C 0.80846(19) -1.6206(3) 0.26831(18)
H22 H 0.7740 -1.6683 0.2488
C33 C 0.91305(18) -1.4817(2) 0.32321(18)
H23 H 0.9490 -1.4351 0.3415
C34 C 0.81475(18) -1.5323(3) 0.23187(18)
H24 H 0.7837 -1.5196 0.1891
C35 C 0.6917(3) -2.3790(3) 0.4084(3)
H25 H 0.6897 -2.4476 0.4030
C36 C 0.7440(2) -1.9923(3) 0.1414(2)
H26 H 0.7313 -1.9717 0.0944
C37 C 0.4877(3) -1.6161(3) 0.3355(4)
H27 H 0.4374 -1.6024 0.3187
Br2 Br 0.57704(2) -0.70099(3) 0.64120(3)
C38 C 0.88146(17) -0.9694(2) 0.81705(16)
N3 N 0.86840(15) -1.3351(2) 0.57253(13)
C39 C 0.97367(18) -1.4677(3) 0.65921(19)
H28 H 0.9764 -1.4016 0.6735
O3 O 0.94607(15) -1.20238(19) 0.56280(13)
C40 C 0.90481(15) -1.2121(2) 0.74433(14)
O4 O 0.93583(13) -0.90348(18) 0.72145(13)
C41 C 0.7571(2) -1.4384(3) 0.5939(2)
H29 H 0.7760 -1.4973 0.5780
C42 C 0.86544(15) -1.0448(2) 0.68853(16)
C43 C 0.86611(15) -1.1441(2) 0.68970(15)
C44 C 0.94001(18) -1.4918(2) 0.59152(17)
C45 C 0.82343(19) -1.0221(3) 0.83829(19)
H30 H 0.7967 -1.0669 0.8070
C46 C 0.77142(18) -1.2644(2) 0.62012(16)
C47 C 0.88970(19) -1.2384(2) 0.58053(16)
C48 C 0.82903(16) -1.1832(2) 0.61704(15)
C49 C 0.65640(18) -0.7928(2) 0.63512(19)
C50 C 0.72016(19) -0.7620(2) 0.60937(17)
H31 H 0.7257 -0.6963 0.5960
C51 C 0.8440(3) -0.9437(4) 0.9524(2)
H32 H 0.8312 -0.9356 0.9980
C52 C 0.98201(16) -1.2047(2) 0.76425(17)
H33 H 1.0087 -1.1546 0.7450
C53 C 0.89866(16) -0.9701(2) 0.74245(16)
C54 C 0.82984(17) -1.0048(2) 0.61787(16)
H34 H 0.8689 -0.9753 0.5930
C55 C 0.70102(18) -1.2613(3) 0.64184(18)
H35 H 0.6819 -1.2022 0.6572
C56 C 0.8040(2) -1.0096(3) 0.9056(2)
H36 H 0.7640 -1.0454 0.9194
C57 C 0.9052(2) -1.3525(3) 0.82299(19)
H37 H 0.8787 -1.4019 0.8432
C58 C 0.86733(18) -1.2879(2) 0.77395(17)
H38 H 0.8156 -1.2954 0.7605
C59 C 0.9021(3) -0.8905(3) 0.9323(2)
H39 H 0.9289 -0.8461 0.9639
C60 C 0.9813(2) -1.3445(3) 0.84208(18)
H40 H 1.0069 -1.3886 0.8748
C61 C 0.7043(2) -0.9554(2) 0.6503(2)
H41 H 0.6984 -1.0208 0.6644
C62 C 1.02000(19) -1.2709(3) 0.8125(2)
H42 H 1.0720 -1.2655 0.8250
C63 C 1.0033(2) -1.5405(3) 0.7059(2)
H43 H 1.0272 -1.5235 0.7511
C64 C 0.6598(2) -1.3479(4) 0.6402(2)
H44 H 0.6125 -1.3471 0.6551
N4 N 0.80008(15) -1.09363(19) 0.58004(14)
H45 H 0.7693 -1.0932 0.5408
C65 C 0.79742(18) -1.3522(3) 0.59538(16)
C66 C 0.64789(19) -0.8879(3) 0.6563(2)
H46 H 0.6046 -0.9072 0.6746
C67 C 0.9103(2) -1.4115(3) 0.54027(19)
H47 H 0.9522 -1.3808 0.5214
H48 H 0.8775 -1.4411 0.5006
C68 C 0.9208(2) -0.9032(3) 0.8647(2)
H49 H 0.9604 -0.8668 0.8508
C69 C 0.76906(16) -0.9288(2) 0.62392(17)
C70 C 0.6875(3) -1.4354(3) 0.6168(2)
H50 H 0.6590 -1.4931 0.6164
C71 C 0.77611(18) -0.8309(2) 0.60365(16)
H51 H 0.8195 -0.8110 0.5858
C72 C 0.9635(2) -1.6638(3) 0.6196(3)
H52 H 0.9589 -1.7301 0.6060
C73 C 0.9354(2) -1.5897(3) 0.5726(2)
H53 H 0.9127 -1.6069 0.5270
C74 C 0.9976(2) -1.6385(4) 0.6854(3)
H54 H 1.0175 -1.6877 0.7171
N5 N 0.82675(14) -0.5762(2) 1.04629(14)
C75 C 0.4457(2) -0.6974(4) 0.8124(2)
H55 H 0.4257 -0.6338 0.8052
O5 O 0.81405(12) -0.7426(2) 1.06880(13)
N6 N 0.66331(14) -0.6764(2) 1.09905(13)
H56 H 0.6658 -0.6532 1.1416
C76 C 0.62081(16) -0.7582(2) 0.99198(16)
O6 O 0.59088(19) -0.9223(2) 0.96410(16)
C77 C 0.6884(2) -0.5719(3) 0.87590(18)
H57 H 0.6674 -0.5202 0.8990
C78 C 0.66592(16) -0.6871(2) 0.97458(16)
C79 C 0.78726(18) -0.6609(3) 1.05480(17)
C80 C 0.70464(18) -0.5231(3) 1.04048(16)
C81 C 0.6488(2) -0.4539(3) 1.03811(19)
H58 H 0.5994 -0.4733 1.0406
C82 C 0.69194(16) -0.6661(2) 0.90501(16)
C83 C 0.4432(2) -0.8336(3) 1.15040(19)
H59 H 0.4258 -0.8860 1.1756
C84 C 0.51383(19) -0.8372(3) 1.13011(18)
H60 H 0.5441 -0.8924 1.1421
C85 C 0.77847(19) -0.4933(3) 1.03746(17)
C86 C 0.7228(2) -0.7414(3) 0.86984(18)
H61 H 0.7249 -0.8053 0.8886
C87 C 0.49367(18) -0.6790(3) 1.07572(18)
H62 H 0.5106 -0.6262 1.0506
C88 C 0.7962(3) -0.3948(3) 1.0290(2)
H63 H 0.8451 -0.3746 1.0250
C89 C 0.61894(16) -0.7630(3) 1.07190(16)
H64 H 0.6449 -0.8233 1.0910
C90 C 0.52786(18) -0.8110(2) 0.88149(18)
C91 C 0.42280(19) -0.6753(3) 1.09575(19)
H65 H 0.3917 -0.6208 1.0839
C92 C 0.7477(3) -0.6301(4) 0.7785(2)
H66 H 0.7670 -0.6178 0.7362
C93 C 0.6663(3) -0.3547(4) 1.0320(2)
H67 H 0.6288 -0.3067 1.0312
C94 C 0.4218(3) -0.7716(5) 0.7655(3)
H68 H 0.3855 -0.7581 0.7265
C95 C 0.54073(17) -0.7611(3) 1.09262(16)
C96 C 0.7162(2) -0.5542(3) 0.8121(2)
H69 H 0.7135 -0.4909 0.7923
C97 C 0.58090(19) -0.8370(3) 0.94590(18)
C98 C 0.7512(2) -0.7229(4) 0.8061(2)
H70 H 0.7723 -0.7742 0.7827
C99 C 0.49931(18) -0.7168(3) 0.87031(19)
H71 H 0.5162 -0.6661 0.9019
C100 C 0.70268(16) -0.6352(3) 1.04330(16)
C101 C 0.39894(19) -0.7524(3) 1.13315(19)
Br3 Br 0.30148(3) -0.74877(4) 1.16085(3)
C102 C 0.94874(17) -0.6034(2) 1.0004(2)
C103 C 1.0295(3) -0.6520(4) 0.8914(3)
H72 H 1.0572 -0.6657 0.8545
C104 C 0.7378(3) -0.3278(3) 1.0270(2)
H73 H 0.7483 -0.2607 1.0220
C105 C 1.0233(2) -0.6311(3) 1.0154(3)
H74 H 1.0468 -0.6332 1.0625
C106 C 0.5032(2) -0.8856(3) 0.8324(2)
H75 H 0.5227 -0.9496 0.8387
C107 C 0.4500(3) -0.8636(4) 0.7750(2)
H76 H 0.4334 -0.9130 0.7422
C108 C 1.0637(3) -0.6558(4) 0.9607(3)
H77 H 1.1140 -0.6750 0.9711
C109 C 0.9155(2) -0.6029(3) 0.9310(2)
H78 H 0.8650 -0.5848 0.9206
C110 C 0.9541(3) -0.6280(3) 0.8761(2)
H79 H 0.9298 -0.6289 0.8292
C111 C 0.90867(18) -0.5731(3) 1.06210(19)
H80 H 0.9247 -0.6167 1.1022
H81 H 0.9240 -0.5062 1.0765
loop_
_geom_bond_atom_site_label_1
_geom_bond_atom_site_label_2
_geom_bond_site_symmetry_1
_geom_bond_site_symmetry_2
C1 O1 1_555 1_555
N1 C1 1_555 1_555
C2 H1 1_555 1_555
C3 H2 1_555 1_555
C4 H3 1_555 1_555
C5 C14 1_555 1_555
C6 C8 1_555 1_555
C7 H4 1_555 1_555
C8 H5 1_555 1_555
C9 C10 1_555 1_555
C10 C3 1_555 1_555
C11 C2 1_555 1_555
N2 C3 1_555 1_555
H6 N2 1_555 1_555
C12 C6 1_555 1_555
C13 C8 1_555 1_555
H7 C13 1_555 1_555
C14 H8 1_555 1_555
O2 C9 1_555 1_555
C15 H9 1_555 1_555
C16 C6 1_555 1_555
H10 C16 1_555 1_555
C17 C4 1_555 1_555
H11 C17 1_555 1_555
C18 C2 1_555 1_555
H12 C18 1_555 1_555
C19 N1 1_555 1_555
H13 C19 1_555 1_555
H14 C19 1_555 1_555
C20 H15 1_555 1_555
C21 N1 1_555 1_555
C22 C20 1_555 1_555
H16 C22 1_555 1_555
C23 C7 1_555 1_555
H17 C23 1_555 1_555
C24 C7 1_555 1_555
C25 C23 1_555 1_555
H18 C25 1_555 1_555
C26 C1 1_555 1_555
C27 C16 1_555 1_555
H19 C27 1_555 1_555
C28 C13 1_555 1_555
H20 C28 1_555 1_555
Br1 C31 1_555 1_555
C29 H21 1_555 1_555
C30 C3 1_555 1_555
C31 C33 1_555 1_555
C32 C30 1_555 1_555
H22 C32 1_555 1_555
C33 C29 1_555 1_555
H23 C33 1_555 1_555
C34 C31 1_555 1_555
H24 C34 1_555 1_555
C35 C15 1_555 1_555
H25 C35 1_555 1_555
C36 C14 1_555 1_555
H26 C36 1_555 1_555
C37 C17 1_555 1_555
H27 C37 1_555 1_555
Br2 C49 1_555 1_555
C38 C45 1_555 1_555
N3 C47 1_555 1_555
C39 H28 1_555 1_555
O3 C47 1_555 1_555
C40 C43 1_555 1_555
O4 C53 1_555 1_555
C41 H29 1_555 1_555
C42 C43 1_555 1_555
C43 C48 1_555 1_555
C44 C39 1_555 1_555
C45 H30 1_555 1_555
C46 C48 1_555 1_555
C47 C48 1_555 1_555
C48 N4 1_555 1_555
C49 C50 1_555 1_555
C50 H31 1_555 1_555
C51 H32 1_555 1_555
C52 C40 1_555 1_555
H33 C52 1_555 1_555
C53 C38 1_555 1_555
C54 C42 1_555 1_555
H34 C54 1_555 1_555
C55 C46 1_555 1_555
H35 C55 1_555 1_555
C56 C45 1_555 1_555
H36 C56 1_555 1_555
C57 H37 1_555 1_555
C58 C40 1_555 1_555
H38 C58 1_555 1_555
C59 C51 1_555 1_555
H39 C59 1_555 1_555
C60 C57 1_555 1_555
H40 C60 1_555 1_555
C61 H41 1_555 1_555
C62 C52 1_555 1_555
H42 C62 1_555 1_555
C63 C39 1_555 1_555
H43 C63 1_555 1_555
C64 C55 1_555 1_555
H44 C64 1_555 1_555
N4 C54 1_555 1_555
H45 N4 1_555 1_555
C65 N3 1_555 1_555
C66 C49 1_555 1_555
H46 C66 1_555 1_555
C67 N3 1_555 1_555
H47 C67 1_555 1_555
H48 C67 1_555 1_555
C68 C38 1_555 1_555
H49 C68 1_555 1_555
C69 C54 1_555 1_555
C70 C41 1_555 1_555
H50 C70 1_555 1_555
C71 C50 1_555 1_555
H51 C71 1_555 1_555
C72 H52 1_555 1_555
C73 C44 1_555 1_555
H53 C73 1_555 1_555
C74 C63 1_555 1_555
H54 C74 1_555 1_555
N5 C79 1_555 1_555
C75 H55 1_555 1_555
O5 C79 1_555 1_555
N6 H56 1_555 1_555
C76 C78 1_555 1_555
O6 C97 1_555 1_555
C77 H57 1_555 1_555
C78 C82 1_555 1_555
C79 C100 1_555 1_555
C80 C81 1_555 1_555
C81 H58 1_555 1_555
C82 C77 1_555 1_555
C83 H59 1_555 1_555
C84 C83 1_555 1_555
H60 C84 1_555 1_555
C85 N5 1_555 1_555
C86 C82 1_555 1_555
H61 C86 1_555 1_555
C87 H62 1_555 1_555
C88 C85 1_555 1_555
H63 C88 1_555 1_555
C89 N6 1_555 1_555
H64 C89 1_555 1_555
C90 C97 1_555 1_555
C91 C87 1_555 1_555
H65 C91 1_555 1_555
C92 H66 1_555 1_555
C93 C81 1_555 1_555
H67 C93 1_555 1_555
C94 C75 1_555 1_555
H68 C94 1_555 1_555
C95 C84 1_555 1_555
C96 C77 1_555 1_555
H69 C96 1_555 1_555
C97 C76 1_555 1_555
C98 C86 1_555 1_555
H70 C98 1_555 1_555
C99 C75 1_555 1_555
H71 C99 1_555 1_555
C100 N6 1_555 1_555
C101 C83 1_555 1_555
Br3 C101 1_555 1_555
C102 C105 1_555 1_555
C103 H72 1_555 1_555
C104 C88 1_555 1_555
H73 C104 1_555 1_555
C105 H74 1_555 1_555
C106 C90 1_555 1_555
H75 C106 1_555 1_555
C107 C94 1_555 1_555
H76 C107 1_555 1_555
C108 C103 1_555 1_555
H77 C108 1_555 1_555
C109 C102 1_555 1_555
H78 C109 1_555 1_555
C110 C103 1_555 1_555
H79 C110 1_555 1_555
C111 N5 1_555 1_555
H80 C111 1_555 1_555
H81 C111 1_555 1_555
C4 C11 1_555 1_555
C5 C21 1_555 1_555
C5 C26 1_555 1_555
C9 C11 1_555 1_555
C10 C12 1_555 1_555
N2 C26 1_555 1_555
C12 C26 1_555 1_555
C15 C24 1_555 1_555
C18 C37 1_555 1_555
C19 C24 1_555 1_555
C20 C36 1_555 1_555
C21 C22 1_555 1_555
C25 C35 1_555 1_555
C27 C28 1_555 1_555
C29 C30 1_555 1_555
C32 C34 1_555 1_555
C41 C65 1_555 1_555
C42 C53 1_555 1_555
C44 C67 1_555 1_555
C46 C65 1_555 1_555
C51 C56 1_555 1_555
C57 C58 1_555 1_555
C59 C68 1_555 1_555
C60 C62 1_555 1_555
C61 C66 1_555 1_555
C61 C69 1_555 1_555
C64 C70 1_555 1_555
C69 C71 1_555 1_555
C72 C73 1_555 1_555
C72 C74 1_555 1_555
C76 C89 1_555 1_555
C78 C100 1_555 1_555
C80 C85 1_555 1_555
C80 C100 1_555 1_555
C87 C95 1_555 1_555
C89 C95 1_555 1_555
C90 C99 1_555 1_555
C91 C101 1_555 1_555
C92 C96 1_555 1_555
C92 C98 1_555 1_555
C93 C104 1_555 1_555
C102 C111 1_555 1_555
C105 C108 1_555 1_555
C106 C107 1_555 1_555
C109 C110 1_555 1_555

#END
