
#######################################################################
#
#                 Cambridge Crystallographic Data Centre
#                                CCDC 
#
#######################################################################
#
# If this CIF has been generated from an entry in the Cambridge 
# Structural Database, then it will include bibliographic, chemical, 
# crystal, experimental, refinement or atomic coordinate data resulting 
# from the CCDC's data processing and validation procedures.
#
#######################################################################

data_WARGAA
_chemical_formula_moiety         'C21 H22 O3'
_chemical_name_systematic        
'methyl 3-(7-methoxy-10-methylphenanthren-9-yl)-2-methylpropanoate'
_symmetry_cell_setting           orthorhombic
_symmetry_space_group_name_H-M   'P 21 21 21'
_symmetry_Int_Tables_number      19
_space_group_name_Hall           'P 2ac 2ab'
loop_
_symmetry_equiv_pos_site_id
_symmetry_equiv_pos_as_xyz
1 x,y,z
2 1/2-x,-y,1/2+z
3 1/2+x,1/2-y,-z
4 -x,1/2+y,1/2-z
_cell_length_a                   5.18168(13)
_cell_length_b                   17.7177(4)
_cell_length_c                   18.7318(4)
_cell_angle_alpha                90
_cell_angle_beta                 90
_cell_angle_gamma                90
_cell_volume                     1719.72
_cell_formula_units_Z            4
loop_
_atom_site_label
_atom_site_type_symbol
_atom_site_fract_x
_atom_site_fract_y
_atom_site_fract_z
O1 O -0.1515(5) -0.45919(13) -0.15181(10)
O2 O -0.8406(9) -0.67718(18) 0.07242(16)
O3 O -0.6782(8) -0.62824(16) -0.02602(13)
C1 C -0.4815(5) -0.43400(14) 0.09315(13)
C2 C -0.4760(5) -0.39727(14) 0.15762(13)
C3 C -0.2919(5) -0.33717(14) 0.16989(13)
C4 C -0.2801(6) -0.29795(17) 0.23549(15)
H1 H -0.3969 -0.3104 0.2713
C5 C -0.1021(7) -0.24215(17) 0.24805(16)
H2 H -0.0977 -0.2177 0.2920
C6 C 0.0708(7) -0.22244(17) 0.19485(17)
H3 H 0.1920 -0.1847 0.2031
C7 C 0.0638(6) -0.25837(14) 0.13017(16)
H4 H 0.1800 -0.2442 0.0948
C8 C -0.1151(5) -0.31629(13) 0.11587(13)
C9 C -0.1210(5) -0.35509(12) 0.04792(12)
C10 C 0.0518(5) -0.33804(14) -0.00817(13)
H5 H 0.1772 -0.3013 -0.0009
C11 C 0.0409(5) -0.37378(15) -0.07286(14)
H6 H 0.1586 -0.3618 -0.1086
C12 C -0.1479(5) -0.42836(15) -0.08479(12)
C13 C -0.3165(5) -0.44771(14) -0.03127(13)
H7 H -0.4401 -0.4847 -0.0397
C14 C -0.3056(5) -0.41232(13) 0.03655(12)
C15 C -0.6589(6) -0.41732(18) 0.21736(14)
H8 H -0.7821 -0.4537 0.2006
H9 H -0.7477 -0.3727 0.2330
H10 H -0.5632 -0.4383 0.2565
C16 C -0.6633(6) -0.49857(15) 0.07815(14)
H11 H -0.7404 -0.4915 0.0314
H12 H -0.8011 -0.4981 0.1132
C17 C -0.5263(7) -0.57659(16) 0.08030(16)
H13 H -0.3683 -0.5725 0.0518
C18 C -0.7003(8) -0.63310(17) 0.04403(17)
C19 C -0.4500(11) -0.6009(2) 0.1538(2)
H14 H -0.3297 -0.5653 0.1734
H15 H -0.3708 -0.6499 0.1516
H16 H -0.6004 -0.6032 0.1837
C20 C -0.8368(16) -0.6783(3) -0.0677(3)
H17 H -0.7808 -0.6773 -0.1166
H18 H -1.0135 -0.6623 -0.0650
H19 H -0.8217 -0.7287 -0.0494
C21 C -0.3641(8) -0.5048(2) -0.17010(18)
H20 H -0.3530 -0.5185 -0.2196
H21 H -0.5211 -0.4773 -0.1619
H22 H -0.3632 -0.5496 -0.1412
loop_
_geom_bond_atom_site_label_1
_geom_bond_atom_site_label_2
_geom_bond_site_symmetry_1
_geom_bond_site_symmetry_2
O1 C12 1_555 1_555
O2 C18 1_555 1_555
O3 C18 1_555 1_555
C1 C2 1_555 1_555
C2 C3 1_555 1_555
C3 C4 1_555 1_555
C4 H1 1_555 1_555
C5 C4 1_555 1_555
H2 C5 1_555 1_555
C6 C5 1_555 1_555
H3 C6 1_555 1_555
C7 C6 1_555 1_555
H4 C7 1_555 1_555
C8 C3 1_555 1_555
C9 C8 1_555 1_555
C10 C9 1_555 1_555
H5 C10 1_555 1_555
C11 C10 1_555 1_555
H6 C11 1_555 1_555
C12 C11 1_555 1_555
C13 C12 1_555 1_555
H7 C13 1_555 1_555
C14 C1 1_555 1_555
C15 C2 1_555 1_555
H8 C15 1_555 1_555
H9 C15 1_555 1_555
H10 C15 1_555 1_555
C16 C1 1_555 1_555
H11 C16 1_555 1_555
H12 C16 1_555 1_555
C17 C16 1_555 1_555
H13 C17 1_555 1_555
C18 C17 1_555 1_555
C19 C17 1_555 1_555
H14 C19 1_555 1_555
H15 C19 1_555 1_555
H16 C19 1_555 1_555
C20 O3 1_555 1_555
H17 C20 1_555 1_555
H18 C20 1_555 1_555
H19 C20 1_555 1_555
C21 O1 1_555 1_555
H20 C21 1_555 1_555
H21 C21 1_555 1_555
H22 C21 1_555 1_555
C7 C8 1_555 1_555
C9 C14 1_555 1_555
C13 C14 1_555 1_555

#END
