
#######################################################################
#
#                 Cambridge Crystallographic Data Centre
#                                CCDC 
#
#######################################################################
#
# If this CIF has been generated from an entry in the Cambridge 
# Structural Database, then it will include bibliographic, chemical, 
# crystal, experimental, refinement or atomic coordinate data resulting 
# from the CCDC's data processing and validation procedures.
#
#######################################################################

data_WARLEH
_chemical_formula_moiety         'C20 H16 N2 O2,C2 H6 O1'
_chemical_name_systematic        
'2,3-Dihydro-2-(2-hydroxyphenyl)-3-phenylquinazolin-4(1H)-one ethanol solvate'
_symmetry_cell_setting           orthorhombic
_symmetry_space_group_name_H-M   'P b c a'
_symmetry_Int_Tables_number      61
_space_group_name_Hall           '-P 2ac 2ab'
loop_
_symmetry_equiv_pos_site_id
_symmetry_equiv_pos_as_xyz
1 x,y,z
2 1/2-x,-y,1/2+z
3 -x,1/2+y,1/2-z
4 1/2+x,1/2-y,-z
5 -x,-y,-z
6 1/2+x,y,1/2-z
7 x,1/2-y,1/2+z
8 1/2-x,1/2+y,z
_cell_length_a                   12.889(11)
_cell_length_b                   16.170(14)
_cell_length_c                   17.729(15)
_cell_angle_alpha                90
_cell_angle_beta                 90
_cell_angle_gamma                90
_cell_volume                     3694.99
_exptl_crystal_description       needle
_chemical_melting_point          '248-250 deg.C'
_cell_formula_units_Z            8
_exptl_crystal_recrystallization_method acetonitrile/ethanol
loop_
_atom_site_label
_atom_site_type_symbol
_atom_site_fract_x
_atom_site_fract_y
_atom_site_fract_z
N1 N 0.61848(12) 0.14668(10) 0.32581(9)
N2 N 0.48254(13) 0.18160(10) 0.24066(9)
O1 O 0.77229(12) 0.21423(9) 0.32015(8)
O2 O 0.29956(12) 0.13470(10) 0.34322(9)
C1 C 0.68106(17) 0.20985(12) 0.30172(11)
C2 C 0.63167(15) 0.27014(11) 0.25002(11)
C3 C 0.53343(15) 0.25521(12) 0.22070(11)
C4 C 0.49099(19) 0.30934(14) 0.16757(12)
C5 C 0.5472(2) 0.37836(14) 0.14659(14)
C6 C 0.6442(2) 0.39430(15) 0.17583(14)
C7 C 0.68676(19) 0.33995(13) 0.22717(13)
C8 C 0.50579(15) 0.15150(13) 0.31773(11)
C9 C 0.45262(16) 0.20312(11) 0.37826(11)
C10 C 0.34634(17) 0.19338(12) 0.38713(11)
C11 C 0.2918(2) 0.24113(15) 0.43901(13)
C12 C 0.3450(2) 0.29613(16) 0.48409(14)
C13 C 0.4509(2) 0.30512(15) 0.47817(13)
C14 C 0.5042(2) 0.25866(14) 0.42490(13)
C15 C 0.66087(16) 0.08014(12) 0.37042(11)
C16 C 0.74316(18) 0.03524(14) 0.34245(14)
C17 C 0.7818(2) -0.03030(15) 0.38368(15)
C18 C 0.7384(2) -0.05150(15) 0.45217(15)
C19 C 0.6567(2) -0.00639(15) 0.47973(14)
C20 C 0.61738(18) 0.06017(14) 0.43962(13)
H1 H 0.4119(19) 0.1809(13) 0.2328(14)
H2 H 0.231(2) 0.1252(14) 0.3553(14)
H3 H 0.4225(19) 0.2977(14) 0.1455(14)
H4 H 0.5153(18) 0.4169(15) 0.1103(14)
H5 H 0.6822(19) 0.4450(16) 0.1605(14)
H6 H 0.759(2) 0.3481(14) 0.2479(14)
H7 H 0.4786(18) 0.0933(15) 0.3227(13)
H8 H 0.216(2) 0.2319(13) 0.4409(14)
H9 H 0.3087(19) 0.3262(14) 0.5213(14)
H10 H 0.4905(18) 0.3454(14) 0.5141(14)
H11 H 0.581(2) 0.2655(14) 0.4198(14)
H12 H 0.7747(19) 0.0489(14) 0.2933(14)
H13 H 0.838(2) -0.0607(14) 0.3631(14)
H14 H 0.7657(19) -0.0964(15) 0.4800(14)
H15 H 0.6297(19) -0.0209(14) 0.5274(15)
H16 H 0.5600(19) 0.0899(14) 0.4582(14)
O3 O 0.10324(12) 0.09565(9) 0.37595(10)
C21 C 0.0787(2) 0.01036(16) 0.38916(15)
C22 C 0.0635(3) -0.03686(19) 0.31839(18)
H17 H 0.0602(19) 0.1149(15) 0.3411(15)
H18 H 0.139(2) -0.0128(14) 0.4174(14)
H19 H 0.013(2) 0.0081(15) 0.4202(14)
H20 H 0.0558(19) -0.0956(16) 0.3285(14)
H21 H 0.123(2) -0.0287(14) 0.2827(14)
H22 H 0.005(2) -0.0132(15) 0.2922(14)
loop_
_geom_bond_atom_site_label_1
_geom_bond_atom_site_label_2
_geom_bond_site_symmetry_1
_geom_bond_site_symmetry_2
N1 C1 1_555 1_555
N2 C3 1_555 1_555
O1 C1 1_555 1_555
O2 C10 1_555 1_555
O3 C21 1_555 1_555
C1 C2 1_555 1_555
C2 C3 1_555 1_555
C3 C4 1_555 1_555
C4 C5 1_555 1_555
C5 C6 1_555 1_555
C6 C7 1_555 1_555
C7 C2 1_555 1_555
C8 N1 1_555 1_555
C9 C8 1_555 1_555
C10 C9 1_555 1_555
C11 C10 1_555 1_555
C12 C11 1_555 1_555
C13 C12 1_555 1_555
C14 C9 1_555 1_555
C15 N1 1_555 1_555
C16 C15 1_555 1_555
C17 C16 1_555 1_555
C18 C17 1_555 1_555
C19 C18 1_555 1_555
C20 C15 1_555 1_555
C21 C22 1_555 1_555
C22 H20 1_555 1_555
H1 N2 1_555 1_555
H2 O2 1_555 1_555
H3 C4 1_555 1_555
H4 C5 1_555 1_555
H5 C6 1_555 1_555
H6 C7 1_555 1_555
H7 C8 1_555 1_555
H8 C11 1_555 1_555
H9 C12 1_555 1_555
H10 C13 1_555 1_555
H11 C14 1_555 1_555
H12 C16 1_555 1_555
H13 C17 1_555 1_555
H14 C18 1_555 1_555
H15 C19 1_555 1_555
H16 C20 1_555 1_555
H17 O3 1_555 1_555
H18 C21 1_555 1_555
H19 C21 1_555 1_555
H21 C22 1_555 1_555
H22 C22 1_555 1_555
N2 C8 1_555 1_555
C13 C14 1_555 1_555
C19 C20 1_555 1_555

#END
