
#######################################################################
#
#                 Cambridge Crystallographic Data Centre
#                                CCDC 
#
#######################################################################
#
# If this CIF has been generated from an entry in the Cambridge 
# Structural Database, then it will include bibliographic, chemical, 
# crystal, experimental, refinement or atomic coordinate data resulting 
# from the CCDC's data processing and validation procedures.
#
#######################################################################

data_WARSOY
_chemical_name_common            
'Tetra-isobutylresorcin(4)arene acetonitrile clathrate monohydrate'
_chemical_formula_moiety         'C44 H56 O8,2(C2 H3 N1),H2 O1'
_chemical_name_systematic        
'2,8,14,20-Tetra-isobutyl-4,6,10,12,16,18,22,24-octahydroxycalix(4)arene acetonitrile clathrate monohydrate'
_symmetry_cell_setting           monoclinic
_symmetry_space_group_name_H-M   'P 2/n'
_symmetry_Int_Tables_number      13
_space_group_name_Hall           '-P 2yac'
loop_
_symmetry_equiv_pos_site_id
_symmetry_equiv_pos_as_xyz
1 x,y,z
2 1/2-x,y,1/2-z
3 -x,-y,-z
4 1/2+x,-y,1/2+z
_cell_length_a                   13.7570(18)
_cell_length_b                   9.0961(12)
_cell_length_c                   19.453(3)
_cell_angle_alpha                90
_cell_angle_beta                 103.017(3)
_cell_angle_gamma                90
_cell_volume                     2371.7
_exptl_crystal_colour            colorless
_exptl_crystal_description       block
_cell_formula_units_Z            2
loop_
_atom_site_label
_atom_site_type_symbol
_atom_site_fract_x
_atom_site_fract_y
_atom_site_fract_z
N2 N 0.2500 1.0161(10) 0.2500
C25 C 0.2327(10) 0.7248(11) 0.2233(6)
C26 C 0.2500 0.8820(10) 0.2500
C25A C 0.2673(10) 0.7248(11) 0.2767(6)
O5 O 0.1977(3) 0.5008(5) 1.1111(2)
H29 H 0.189(6) 0.441(7) 1.074(3)
H30 H 0.18(4) 0.592(11) 1.096(5)
O1 O 0.0120(2) 0.6028(4) 0.54967(18)
H1 H 0.0169 0.5255 0.5290
O2 O -0.1218(2) 0.6547(4) 0.63156(16)
H2 H -0.1607 0.5929 0.6403
O3 O -0.0395(2) 0.6757(4) 0.88472(16)
H3 H -0.0830 0.6125 0.8796
O4 O 0.3488(2) 0.6124(4) 0.53362(17)
H4 H 0.4000 0.6613 0.5441
C1 C 0.1028(3) 0.6727(5) 0.5653(2)
C2 C 0.1119(3) 0.8064(4) 0.6009(2)
C3 C 0.2058(3) 0.8701(4) 0.6161(2)
H5 H 0.2141 0.9574 0.6417
C4 C 0.1834(3) 0.6082(5) 0.5456(2)
H6 H 0.1762 0.5173 0.5232
C5 C -0.0669(3) 0.7119(5) 0.6936(2)
C6 C -0.0826(3) 0.6624(5) 0.7574(2)
H7 H -0.1302 0.5903 0.7585
C7 C -0.0270(3) 0.7206(5) 0.8194(2)
C8 C 0.0471(3) 0.8250(4) 0.8190(2)
C9 C 0.0626(3) 0.8682(4) 0.75411(19)
H8 H 0.1135 0.9349 0.7531
C10 C 0.0057(3) 0.8166(4) 0.6901(2)
C11 C 0.2750(3) 0.6793(5) 0.5594(2)
C12 C 0.2880(3) 0.8125(4) 0.59585(19)
C13 C 0.0218(3) 0.8765(4) 0.6206(2)
H9 H -0.0367 0.8480 0.5841
C14 C 0.0261(3) 1.0457(5) 0.6206(2)
H10 H 0.0849 1.0770 0.6552
H11 H 0.0337 1.0786 0.5747
C15 C -0.0650(4) 1.1205(5) 0.6370(2)
H12 H -0.0708 1.0878 0.6839
C16 C -0.0484(5) 1.2860(6) 0.6403(4)
H13 H 0.0126 1.3079 0.6737
H14 H -0.1031 1.3331 0.6546
H15 H -0.0442 1.3215 0.5945
C17 C -0.1597(4) 1.0788(7) 0.5854(3)
H16 H -0.1672 0.9738 0.5848
H17 H -0.1569 1.1126 0.5391
H18 H -0.2156 1.1233 0.5993
C18 C 0.3894(3) 0.8883(4) 0.6130(2)
H19 H 0.4229 0.8644 0.5749
C19 C 0.3805(3) 1.0572(5) 0.6153(2)
H20 H 0.3420 1.0904 0.5699
H21 H 0.3431 1.0825 0.6503
C20 C 0.4789(4) 1.1417(6) 0.6321(3)
H22 H 0.5174 1.1067 0.6778
C21 C 0.5405(6) 1.1173(9) 0.5791(4)
H23 H 0.5534 1.0141 0.5759
H24 H 0.6025 1.1691 0.5934
H25 H 0.5051 1.1529 0.5339
C22 C 0.4578(6) 1.3048(7) 0.6397(5)
H26 H 0.5196 1.3579 0.6508
H27 H 0.4231 1.3181 0.6769
H28 H 0.4173 1.3410 0.5963
O1A O 0.4880(2) 0.6028(4) 0.95033(18)
H1A H 0.4831 0.5255 0.9710
O2A O 0.6218(2) 0.6547(4) 0.86844(16)
H2A H 0.6607 0.5929 0.8597
O3A O 0.5395(2) 0.6757(4) 0.61528(16)
H3A H 0.5830 0.6125 0.6204
O4A O 0.1512(2) 0.6124(4) 0.96638(17)
H4A H 0.1000 0.6613 0.9559
C1A C 0.3972(3) 0.6727(5) 0.9347(2)
C2A C 0.3881(3) 0.8064(4) 0.8991(2)
C3A C 0.2942(3) 0.8701(4) 0.8839(2)
H5A H 0.2859 0.9574 0.8583
C4A C 0.3166(3) 0.6082(5) 0.9544(2)
H6A H 0.3238 0.5173 0.9768
C5A C 0.5669(3) 0.7119(5) 0.8064(2)
C6A C 0.5826(3) 0.6624(5) 0.7426(2)
H7A H 0.6302 0.5903 0.7415
C7A C 0.5270(3) 0.7206(5) 0.6806(2)
C8A C 0.4529(3) 0.8250(4) 0.6810(2)
C9A C 0.4374(3) 0.8682(4) 0.74589(19)
H8A H 0.3865 0.9349 0.7469
C10A C 0.4943(3) 0.8166(4) 0.8099(2)
C11A C 0.2250(3) 0.6793(5) 0.9406(2)
C12A C 0.2120(3) 0.8125(4) 0.90415(19)
C13A C 0.4782(3) 0.8765(4) 0.8794(2)
H9A H 0.5367 0.8480 0.9159
C14A C 0.4739(3) 1.0457(5) 0.8794(2)
H10A H 0.4151 1.0770 0.8448
H11A H 0.4663 1.0786 0.9253
C15A C 0.5650(4) 1.1205(5) 0.8630(2)
H12A H 0.5708 1.0878 0.8161
C16A C 0.5484(5) 1.2860(6) 0.8597(4)
H13A H 0.4874 1.3079 0.8263
H14A H 0.6031 1.3331 0.8454
H15A H 0.5442 1.3215 0.9055
C17A C 0.6597(4) 1.0788(7) 0.9146(3)
H16A H 0.6672 0.9738 0.9152
H17A H 0.6569 1.1126 0.9609
H18A H 0.7156 1.1233 0.9007
C18A C 0.1106(3) 0.8883(4) 0.8870(2)
H19A H 0.0771 0.8644 0.9251
C19A C 0.1195(3) 1.0572(5) 0.8847(2)
H20A H 0.1580 1.0904 0.9301
H21A H 0.1569 1.0825 0.8497
C20A C 0.0211(4) 1.1417(6) 0.8679(3)
H22A H -0.0174 1.1067 0.8222
C21A C -0.0405(6) 1.1173(9) 0.9209(4)
H23A H -0.0534 1.0141 0.9241
H24A H -0.1025 1.1691 0.9066
H25A H -0.0051 1.1529 0.9661
C22A C 0.0422(6) 1.3048(7) 0.8603(5)
H26A H -0.0196 1.3579 0.8492
H27A H 0.0769 1.3181 0.8231
H28A H 0.0827 1.3410 0.9037
N1? N 0.7500 0.7635(12) 0.2500
C23? C 0.728(2) 0.4659(13) 0.245(3)
C24? C 0.7500 0.6310(12) 0.2500
loop_
_geom_bond_atom_site_label_1
_geom_bond_atom_site_label_2
_geom_bond_site_symmetry_1
_geom_bond_site_symmetry_2
O1 H1 1_555 1_555
O2 H2 1_555 1_555
O3 H3 1_555 1_555
O4 H4 1_555 1_555
C1 O1 1_555 1_555
C2 C1 1_555 1_555
C3 C2 1_555 1_555
H5 C3 1_555 1_555
C4 C1 1_555 1_555
H6 C4 1_555 1_555
C5 O2 1_555 1_555
C6 C5 1_555 1_555
H7 C6 1_555 1_555
C7 O3 1_555 1_555
C8 C7 1_555 1_555
C9 C8 1_555 1_555
H8 C9 1_555 1_555
C10 C5 1_555 1_555
C11 O4 1_555 1_555
C12 C3 1_555 1_555
C13 C2 1_555 1_555
H9 C13 1_555 1_555
C14 C13 1_555 1_555
H10 C14 1_555 1_555
H11 C14 1_555 1_555
C15 C14 1_555 1_555
H12 C15 1_555 1_555
C16 C15 1_555 1_555
H13 C16 1_555 1_555
H14 C16 1_555 1_555
H15 C16 1_555 1_555
C17 C15 1_555 1_555
H16 C17 1_555 1_555
H17 C17 1_555 1_555
H18 C17 1_555 1_555
C18 C12 1_555 1_555
H19 C18 1_555 1_555
C19 C18 1_555 1_555
H20 C19 1_555 1_555
H21 C19 1_555 1_555
C20 C19 1_555 1_555
H22 C20 1_555 1_555
C21 C20 1_555 1_555
H23 C21 1_555 1_555
H24 C21 1_555 1_555
H25 C21 1_555 1_555
C22 C20 1_555 1_555
H26 C22 1_555 1_555
H27 C22 1_555 1_555
H28 C22 1_555 1_555
N2 C26 1_555 1_555
C25 C26 1_555 1_555
C26 C25A 1_555 1_555
O5 H29 1_555 1_555
H30 O5 1_555 1_555
O1A H1A 1_555 1_555
O2A H2A 1_555 1_555
O3A H3A 1_555 1_555
O4A H4A 1_555 1_555
C1A O1A 1_555 1_555
C2A C1A 1_555 1_555
C3A C2A 1_555 1_555
H5A C3A 1_555 1_555
C4A C1A 1_555 1_555
H6A C4A 1_555 1_555
C5A O2A 1_555 1_555
C6A C5A 1_555 1_555
H7A C6A 1_555 1_555
C7A O3A 1_555 1_555
C8A C18 1_555 1_555
C9A C8A 1_555 1_555
H8A C9A 1_555 1_555
C10A C5A 1_555 1_555
C11A O4A 1_555 1_555
C12A C3A 1_555 1_555
C13A C2A 1_555 1_555
H9A C13A 1_555 1_555
C14A C13A 1_555 1_555
H10A C14A 1_555 1_555
H11A C14A 1_555 1_555
C15A C14A 1_555 1_555
H12A C15A 1_555 1_555
C16A C15A 1_555 1_555
H13A C16A 1_555 1_555
H14A C16A 1_555 1_555
H15A C16A 1_555 1_555
C17A C15A 1_555 1_555
H16A C17A 1_555 1_555
H17A C17A 1_555 1_555
H18A C17A 1_555 1_555
C18A C8 1_555 1_555
H19A C18A 1_555 1_555
C19A C18A 1_555 1_555
H20A C19A 1_555 1_555
H21A C19A 1_555 1_555
C20A C19A 1_555 1_555
H22A C20A 1_555 1_555
C21A C20A 1_555 1_555
H23A C21A 1_555 1_555
H24A C21A 1_555 1_555
H25A C21A 1_555 1_555
C22A C20A 1_555 1_555
H26A C22A 1_555 1_555
H27A C22A 1_555 1_555
H28A C22A 1_555 1_555
C25A C25 1_555 1_555
C4 C11 1_555 1_555
C6 C7 1_555 1_555
C9 C10 1_555 1_555
C10 C13 1_555 1_555
C11 C12 1_555 1_555
C4A C11A 1_555 1_555
C6A C7A 1_555 1_555
C7A C8A 1_555 1_555
C9A C10A 1_555 1_555
C10A C13A 1_555 1_555
C11A C12A 1_555 1_555
C12A C18A 1_555 1_555

#END
