
#######################################################################
#
#                 Cambridge Crystallographic Data Centre
#                                CCDC 
#
#######################################################################
#
# If this CIF has been generated from an entry in the Cambridge 
# Structural Database, then it will include bibliographic, chemical, 
# crystal, experimental, refinement or atomic coordinate data resulting 
# from the CCDC's data processing and validation procedures.
#
#######################################################################

data_WARSIS
_chemical_name_common            
'Tetra-isobutylresorcin(4)arene acetone solvate'
_chemical_formula_moiety         'C44 H56 O8,2(C3 H6 O1)'
_chemical_name_systematic        
'2,8,14,20-Tetra-isobutyl-4,6,10,12,16,18,22,24-octahydroxycalix(4)arene acetone solvate'
_symmetry_cell_setting           triclinic
_symmetry_space_group_name_H-M   'P -1'
_symmetry_Int_Tables_number      2
_space_group_name_Hall           '-P 1'
loop_
_symmetry_equiv_pos_site_id
_symmetry_equiv_pos_as_xyz
1 x,y,z
2 -x,-y,-z
_cell_length_a                   10.0440(7)
_cell_length_b                   13.7498(9)
_cell_length_c                   17.6374(12)
_cell_angle_alpha                77.726(2)
_cell_angle_beta                 86.733(2)
_cell_angle_gamma                88.634(2)
_cell_volume                     2376.06
_exptl_crystal_colour            colorless
_exptl_crystal_description       block
_cell_formula_units_Z            2
loop_
_atom_site_label
_atom_site_type_symbol
_atom_site_fract_x
_atom_site_fract_y
_atom_site_fract_z
O1 O 0.7679(2) 0.04884(17) 0.06224(13)
H1 H 0.7660 -0.0063 0.0939
O2 O 0.7755(2) 0.39177(16) 0.03878(13)
H2 H 0.7751 0.4377 0.0635
O3 O 0.8505(2) 0.55551(16) 0.09994(13)
H3 H 0.8829 0.6068 0.0707
O4 O 1.2960(2) 0.52972(16) 0.19045(14)
H4 H 1.3051 0.5817 0.1557
O5 O 1.4414(2) 0.36399(16) 0.16765(13)
H5 H 1.4079 0.4095 0.1879
O6 O 1.4401(2) 0.02295(16) 0.17658(13)
H6 H 1.4056 -0.0313 0.1993
O7 O 1.2935(2) -0.15535(16) 0.21205(13)
H7 H 1.2989 -0.1953 0.1820
O8 O 0.8347(2) -0.14323(16) 0.14360(13)
H8 H 0.8642 -0.1847 0.1179
C1 C 0.7689(3) 0.1242(2) 0.10218(18)
C2 C 0.7719(3) 0.2193(2) 0.05670(19)
H9 H 0.7742 0.2282 0.0017
C3 C 0.7717(3) 0.3015(2) 0.09006(18)
C4 C 0.7678(3) 0.2901(2) 0.17031(18)
C5 C 0.7664(3) 0.1934(2) 0.21453(18)
H10 H 0.7651 0.1846 0.2695
C6 C 0.7667(3) 0.1087(2) 0.18307(18)
C7 C 0.9088(3) 0.4229(2) 0.20221(18)
C8 C 0.9457(3) 0.5093(2) 0.14962(18)
C9 C 1.0736(3) 0.5474(2) 0.14446(19)
H11 H 1.0967 0.6067 0.1080
C10 C 1.1663(3) 0.4968(2) 0.19366(19)
C11 C 1.1362(3) 0.4094(2) 0.24700(18)
C12 C 1.0074(3) 0.3738(2) 0.24898(18)
H12 H 0.9856 0.3130 0.2840
C13 C 1.3900(3) 0.2739(2) 0.20598(18)
C14 C 1.4368(3) 0.1927(2) 0.17836(19)
H13 H 1.5029 0.2013 0.1368
C15 C 1.3889(3) 0.0983(2) 0.21028(18)
C16 C 1.2962(3) 0.0834(2) 0.27348(18)
C17 C 1.2527(3) 0.1673(2) 0.29984(18)
H14 H 1.1887 0.1583 0.3424
C18 C 1.2955(3) 0.2637(2) 0.26883(18)
C19 C 1.1635(3) -0.1216(2) 0.21780(18)
C20 C 1.0643(3) -0.1533(2) 0.17768(19)
H15 H 1.0838 -0.2010 0.1466
C21 C 0.9366(3) -0.1148(2) 0.18343(18)
C22 C 0.9053(3) -0.0439(2) 0.22778(18)
C23 C 1.0082(3) -0.0151(2) 0.26738(18)
H16 H 0.9893 0.0330 0.2981
C24 C 1.1373(3) -0.0531(2) 0.26426(18)
C25 C 0.7680(3) 0.3810(2) 0.20685(19)
H17 H 0.7129 0.4332 0.1739
C26 C 0.7046(3) 0.3654(2) 0.28957(19)
H18 H 0.6145 0.3374 0.2900
H19 H 0.7586 0.3156 0.3243
C27 C 0.6922(4) 0.4599(3) 0.3224(2)
H20 H 0.7842 0.4847 0.3252
C28 C 0.6135(4) 0.5423(3) 0.2728(2)
H21 H 0.6558 0.5589 0.2203
H22 H 0.6115 0.6013 0.2958
H23 H 0.5222 0.5201 0.2702
C29 C 0.6292(5) 0.4341(3) 0.4044(2)
H24 H 0.6218 0.4942 0.4259
H25 H 0.6850 0.3845 0.4370
H26 H 0.5402 0.4069 0.4033
C30 C 1.2419(3) 0.3534(2) 0.29918(18)
H27 H 1.3184 0.3999 0.2951
C31 C 1.1951(3) 0.3272(2) 0.38549(18)
H28 H 1.1245 0.2766 0.3921
H29 H 1.2710 0.2961 0.4156
C32 C 1.1414(4) 0.4135(2) 0.4207(2)
H30 H 1.0549 0.4363 0.3969
C33 C 1.2338(4) 0.5019(3) 0.4053(3)
H31 H 1.1936 0.5549 0.4288
H32 H 1.2481 0.5265 0.3491
H33 H 1.3195 0.4815 0.4280
C34 C 1.1128(4) 0.3760(3) 0.5075(2)
H34 H 1.0782 0.4310 0.5305
H35 H 1.1953 0.3499 0.5317
H36 H 1.0466 0.3231 0.5161
C35 C 1.2468(3) -0.0209(2) 0.31041(18)
H37 H 1.3241 -0.0674 0.3074
C36 C 1.2037(3) -0.0336(2) 0.39676(18)
H38 H 1.2796 -0.0157 0.4243
H39 H 1.1302 0.0142 0.4017
C37 C 1.1577(4) -0.1372(2) 0.4375(2)
H40 H 1.0726 -0.1502 0.4148
C38 C 1.1282(5) -0.1414(3) 0.5234(2)
H41 H 1.0977 -0.2082 0.5489
H42 H 1.0584 -0.0924 0.5300
H43 H 1.2093 -0.1264 0.5469
C39 C 1.2563(4) -0.2191(3) 0.4266(2)
H44 H 1.2203 -0.2838 0.4532
H45 H 1.3409 -0.2084 0.4484
H46 H 1.2714 -0.2181 0.3710
C40 C 0.7665(3) 0.0026(2) 0.23173(18)
H47 H 0.7067 -0.0366 0.2064
C41 C 0.7095(3) -0.0058(2) 0.31532(18)
H48 H 0.7653 0.0340 0.3416
H49 H 0.6187 0.0239 0.3137
C42 C 0.7018(3) -0.1116(2) 0.36415(19)
H50 H 0.7949 -0.1383 0.3705
C43 C 0.6248(4) -0.1817(3) 0.3271(2)
H51 H 0.6667 -0.1839 0.2759
H52 H 0.5325 -0.1577 0.3211
H53 H 0.6255 -0.2486 0.3603
C44 C 0.6402(4) -0.1085(3) 0.4443(2)
H54 H 0.6355 -0.1763 0.4760
H55 H 0.5502 -0.0796 0.4394
H56 H 0.6952 -0.0677 0.4692
O9 O 0.8982(2) 0.75003(16) 1.03318(12)
C45 C 0.8837(4) 0.9005(2) 0.9394(2)
H57 H 0.8847 0.9308 0.9849
H58 H 0.8006 0.9189 0.9130
H59 H 0.9598 0.9245 0.9035
C46 C 0.8929(3) 0.7903(2) 0.96463(19)
C47 C 0.8927(4) 0.7309(3) 0.9038(2)
H60 H 0.8989 0.6599 0.9280
H61 H 0.9692 0.7493 0.8669
H62 H 0.8099 0.7440 0.8763
O10 O 0.3691(2) 0.71612(16) 0.11792(13)
C48 C 0.5217(4) 0.8336(3) 0.0474(2)
H63 H 0.4699 0.8790 0.0740
H64 H 0.5164 0.8563 -0.0089
H65 H 0.6150 0.8327 0.0610
C49 C 0.4666(3) 0.7315(3) 0.0720(2)
C50 C 0.5291(4) 0.6493(3) 0.0392(2)
H66 H 0.4817 0.5873 0.0609
H67 H 0.6227 0.6414 0.0524
H68 H 0.5241 0.6650 -0.0175
loop_
_geom_bond_atom_site_label_1
_geom_bond_atom_site_label_2
_geom_bond_site_symmetry_1
_geom_bond_site_symmetry_2
O1 H1 1_555 1_555
O2 H2 1_555 1_555
O3 H3 1_555 1_555
O4 H4 1_555 1_555
O5 H5 1_555 1_555
O6 H6 1_555 1_555
O7 H7 1_555 1_555
O8 H8 1_555 1_555
O9 C46 1_555 1_555
O10 C49 1_555 1_555
C1 O1 1_555 1_555
C2 C1 1_555 1_555
H9 C2 1_555 1_555
C3 O2 1_555 1_555
C4 C3 1_555 1_555
C5 C4 1_555 1_555
H10 C5 1_555 1_555
C6 C1 1_555 1_555
C7 C8 1_555 1_555
C8 O3 1_555 1_555
C9 C8 1_555 1_555
H11 C9 1_555 1_555
C10 O4 1_555 1_555
C11 C10 1_555 1_555
C12 C7 1_555 1_555
H12 C12 1_555 1_555
C13 O5 1_555 1_555
C14 C13 1_555 1_555
H13 C14 1_555 1_555
C15 O6 1_555 1_555
C16 C15 1_555 1_555
C17 C16 1_555 1_555
H14 C17 1_555 1_555
C18 C13 1_555 1_555
C19 O7 1_555 1_555
C20 C19 1_555 1_555
H15 C20 1_555 1_555
C21 O8 1_555 1_555
C22 C21 1_555 1_555
C23 C22 1_555 1_555
H16 C23 1_555 1_555
C24 C19 1_555 1_555
C25 C4 1_555 1_555
H17 C25 1_555 1_555
C26 C25 1_555 1_555
H18 C26 1_555 1_555
H19 C26 1_555 1_555
C27 C26 1_555 1_555
H20 C27 1_555 1_555
C28 C27 1_555 1_555
H21 C28 1_555 1_555
H22 C28 1_555 1_555
H23 C28 1_555 1_555
C29 C27 1_555 1_555
H24 C29 1_555 1_555
H25 C29 1_555 1_555
H26 C29 1_555 1_555
C30 C11 1_555 1_555
H27 C30 1_555 1_555
C31 C30 1_555 1_555
H28 C31 1_555 1_555
H29 C31 1_555 1_555
C32 C31 1_555 1_555
H30 C32 1_555 1_555
C33 C32 1_555 1_555
H31 C33 1_555 1_555
H32 C33 1_555 1_555
H33 C33 1_555 1_555
C34 C32 1_555 1_555
H34 C34 1_555 1_555
H35 C34 1_555 1_555
H36 C34 1_555 1_555
C35 C16 1_555 1_555
H37 C35 1_555 1_555
C36 C35 1_555 1_555
H38 C36 1_555 1_555
H39 C36 1_555 1_555
C37 C36 1_555 1_555
H40 C37 1_555 1_555
C38 C37 1_555 1_555
H41 C38 1_555 1_555
H42 C38 1_555 1_555
H43 C38 1_555 1_555
C39 C37 1_555 1_555
H44 C39 1_555 1_555
H45 C39 1_555 1_555
H46 C39 1_555 1_555
C40 C6 1_555 1_555
H47 C40 1_555 1_555
C41 C40 1_555 1_555
H48 C41 1_555 1_555
H49 C41 1_555 1_555
C42 C41 1_555 1_555
H50 C42 1_555 1_555
C43 C42 1_555 1_555
H51 C43 1_555 1_555
H52 C43 1_555 1_555
H53 C43 1_555 1_555
C44 C42 1_555 1_555
H54 C44 1_555 1_555
H55 C44 1_555 1_555
H56 C44 1_555 1_555
C45 H57 1_555 1_555
H58 C45 1_555 1_555
H59 C45 1_555 1_555
C46 C45 1_555 1_555
C47 C46 1_555 1_555
H60 C47 1_555 1_555
H61 C47 1_555 1_555
H62 C47 1_555 1_555
C48 H63 1_555 1_555
H64 C48 1_555 1_555
H65 C48 1_555 1_555
C49 C48 1_555 1_555
C50 C49 1_555 1_555
H66 C50 1_555 1_555
H67 C50 1_555 1_555
H68 C50 1_555 1_555
C2 C3 1_555 1_555
C5 C6 1_555 1_555
C7 C25 1_555 1_555
C9 C10 1_555 1_555
C11 C12 1_555 1_555
C14 C15 1_555 1_555
C17 C18 1_555 1_555
C18 C30 1_555 1_555
C20 C21 1_555 1_555
C22 C40 1_555 1_555
C23 C24 1_555 1_555
C24 C35 1_555 1_555

#END
