
#######################################################################
#
#                 Cambridge Crystallographic Data Centre
#                                CCDC 
#
#######################################################################
#
# If this CIF has been generated from an entry in the Cambridge 
# Structural Database, then it will include bibliographic, chemical, 
# crystal, experimental, refinement or atomic coordinate data resulting 
# from the CCDC's data processing and validation procedures.
#
#######################################################################

data_WARXOE
_chemical_formula_moiety         'C90 H90 O12'
_chemical_name_systematic        
hexakis(2-(2-Acetyloxy-5-t-butylphenyl)ethynyl)benzene
_symmetry_cell_setting           rhombohedral
_symmetry_space_group_name_H-M   'R -3'
_symmetry_Int_Tables_number      148
_space_group_name_Hall           '-R 3'
loop_
_symmetry_equiv_pos_site_id
_symmetry_equiv_pos_as_xyz
1 x,y,z
2 -y,x-y,z
3 -x+y,-x,z
4 2/3+x,1/3+y,1/3+z
5 2/3-y,1/3+x-y,1/3+z
6 2/3-x+y,1/3-x,1/3+z
7 1/3+x,2/3+y,2/3+z
8 1/3-y,2/3+x-y,2/3+z
9 1/3-x+y,2/3-x,2/3+z
10 -x,-y,-z
11 y,-x+y,-z
12 x-y,x,-z
13 1/3-x,2/3-y,2/3-z
14 1/3+y,2/3-x+y,2/3-z
15 1/3+x-y,2/3+x,2/3-z
16 2/3-x,1/3-y,1/3-z
17 2/3+y,1/3-x+y,1/3-z
18 2/3+x-y,1/3+x,1/3-z
_cell_length_a                   25.3635(11)
_cell_length_b                   25.3635(11)
_cell_length_c                   11.5951(7)
_cell_angle_alpha                90
_cell_angle_beta                 90
_cell_angle_gamma                120
_cell_volume                     6459.87
_exptl_crystal_colour            colorless
_exptl_crystal_description       block
_cell_formula_units_Z            3
loop_
_atom_site_label
_atom_site_type_symbol
_atom_site_fract_x
_atom_site_fract_y
_atom_site_fract_z
C1 C 0.3692(3) 0.7303(2) 0.1681(4)
C2 C 0.4055(2) 0.7949(3) 0.1766(5)
C3 C 0.4357(2) 0.8488(3) 0.1946(5)
C4 C 0.4705(2) 0.9125(2) 0.2202(5)
C5 C 0.4487(3) 0.9380(3) 0.2987(6)
C6 C 0.4816(4) 0.9977(4) 0.3242(7)
H1 H 0.4670 1.0144 0.3781
C7 C 0.5373(4) 1.0345(3) 0.2708(7)
H2 H 0.5595 1.0755 0.2903
C8 C 0.5603(3) 1.0119(3) 0.1899(6)
C9 C 0.5253(3) 0.9490(3) 0.1685(5)
H3 H 0.5402 0.9315 0.1168
C10 C 0.3817(5) 0.8724(5) 0.4358(11)
C11 C 0.3156(4) 0.8382(5) 0.4721(9)
H4 H 0.2907 0.8170 0.4069
H5 H 0.3041 0.8664 0.5012
H6 H 0.3101 0.8094 0.5313
C12 C 0.6179(3) 1.0501(3) 0.1225(7)
C13 C 0.6618(5) 1.0301(5) 0.1304(10)
H7 H 0.6451 0.9903 0.0971
H8 H 0.6715 1.0286 0.2100
H9 H 0.6981 1.0580 0.0895
C14 C 0.6056(5) 1.0591(6) 0.0081(11)
H10 H 0.6425 1.0892 -0.0281
H11 H 0.5765 1.0728 0.0080
H12 H 0.5894 1.0215 -0.0336
C15 C 0.6565(7) 1.1107(7) 0.1807(15)
H13 H 0.6738 1.1051 0.2500
H14 H 0.6316 1.1283 0.1995
H15 H 0.6886 1.1375 0.1296
O1 O 0.3883(2) 0.9029(2) 0.3420(5)
O2 O 0.4234(3) 0.8733(3) 0.4894(6)
C1P C 0.3970(2) 0.6944(4) 0.1652(4)
C1Q C 0.3056(4) 0.7025(3) 0.1652(4)
C1A C 0.2697(2) 0.6389(4) 0.1681(4)
C1B C 0.3611(4) 0.6308(3) 0.1681(4)
C1O C 0.2975(3) 0.6030(2) 0.1652(4)
C2P C 0.4616(3) 0.7227(4) 0.1567(5)
C2Q C 0.2773(4) 0.7388(2) 0.1567(5)
C2A C 0.2051(3) 0.6106(4) 0.1766(5)
C2B C 0.3894(4) 0.5945(2) 0.1766(5)
C2O C 0.2612(2) 0.5384(3) 0.1567(5)
C3P C 0.5155(3) 0.7464(4) 0.1387(5)
C3Q C 0.2536(4) 0.7690(2) 0.1387(5)
C3A C 0.1512(3) 0.5869(4) 0.1946(5)
C3B C 0.4131(4) 0.5643(2) 0.1946(5)
C3O C 0.2310(2) 0.4845(3) 0.1387(5)
C4P C 0.5792(2) 0.7753(3) 0.1131(5)
C4Q C 0.2247(3) 0.8038(2) 0.1131(5)
C4A C 0.0875(2) 0.5580(3) 0.2202(5)
C4B C 0.4420(3) 0.5295(2) 0.2202(5)
C4O C 0.1962(2) 0.4208(2) 0.1131(5)
C5P C 0.6047(3) 0.8226(4) 0.0346(6)
C5Q C 0.1774(4) 0.7820(3) 0.0346(6)
C5A C 0.0620(3) 0.5107(4) 0.2987(6)
C5B C 0.4893(4) 0.5513(3) 0.2987(6)
C5O C 0.2180(3) 0.3953(3) 0.0346(6)
C6P C 0.6644(4) 0.8494(6) 0.0091(7)
C6Q C 0.1506(6) 0.8149(4) 0.0091(7)
C6A C 0.0023(4) 0.4839(6) 0.3242(7)
C6B C 0.5161(6) 0.5184(4) 0.3242(7)
C6O C 0.1851(4) 0.3356(4) 0.0091(7)
H1P H 0.6811 0.8807 -0.0448
H1Q H 0.1193 0.8003 -0.0448
H1A H -0.0144 0.4526 0.3781
H1B H 0.5474 0.5330 0.3781
H1O H 0.1997 0.3189 -0.0448
C7P C 0.7012(3) 0.8305(5) 0.0625(7)
C7Q C 0.1695(5) 0.8706(4) 0.0625(7)
C7A C -0.0345(3) 0.5028(5) 0.2708(7)
C7B C 0.4972(5) 0.4627(4) 0.2708(7)
C7O C 0.1294(4) 0.2988(3) 0.0625(7)
H2P H 0.7422 0.8493 0.0430
H2Q H 0.1507 0.8928 0.0430
H2A H -0.0755 0.4840 0.2903
H2B H 0.5160 0.4405 0.2903
H2O H 0.1072 0.2578 0.0430
C8P C 0.6786(3) 0.7849(4) 0.1434(6)
C8Q C 0.2151(4) 0.8936(3) 0.1434(6)
C8A C -0.0119(3) 0.5484(4) 0.1899(6)
C8B C 0.4516(4) 0.4397(3) 0.1899(6)
C8O C 0.1064(3) 0.3214(3) 0.1434(6)
C9P C 0.6157(3) 0.7570(4) 0.1648(5)
C9Q C 0.2430(4) 0.8586(3) 0.1648(5)
C9A C 0.0510(3) 0.5763(4) 0.1685(5)
C9B C 0.4237(4) 0.4747(3) 0.1685(5)
C9O C 0.1414(3) 0.3843(3) 0.1648(5)
H3P H 0.5982 0.7246 0.2165
H3Q H 0.2754 0.8735 0.2165
H3A H 0.0685 0.6087 0.1168
H3B H 0.3913 0.4598 0.1168
H3O H 0.1265 0.4018 0.2165
C10P C 0.5391(5) 0.8240(7) -0.1025(11)
C10Q C 0.1760(7) 0.7150(5) -0.1025(11)
C10A C 0.1276(5) 0.5093(7) 0.4358(11)
C10B C 0.4907(7) 0.6183(5) 0.4358(11)
C10O C 0.2850(5) 0.4609(5) -0.1025(11)
C11P C 0.5049(5) 0.8559(6) -0.1388(9)
C11Q C 0.1441(6) 0.6489(4) -0.1388(9)
C11A C 0.1618(5) 0.4774(6) 0.4721(9)
C11B C 0.5226(6) 0.6844(4) 0.4721(9)
C11O C 0.3511(4) 0.4951(5) -0.1388(9)
H4P H 0.4837 0.8596 -0.0736
H4Q H 0.1404 0.6240 -0.0736
H4A H 0.1830 0.4737 0.4069
H4B H 0.5263 0.7093 0.4069
H4O H 0.3760 0.5163 -0.0736
H5P H 0.5331 0.8956 -0.1679
H5Q H 0.1044 0.6374 -0.1679
H5A H 0.1336 0.4377 0.5012
H5B H 0.5623 0.6959 0.5012
H5O H 0.3626 0.4669 -0.1679
H6P H 0.4761 0.8326 -0.1980
H6Q H 0.1674 0.6434 -0.1980
H6A H 0.1906 0.5007 0.5313
H6B H 0.4993 0.6899 0.5313
H6O H 0.3566 0.5239 -0.1980
C12P C 0.7168(3) 0.7655(4) 0.2108(7)
C12Q C 0.2345(4) 0.9512(3) 0.2108(7)
C12A C -0.0501(3) 0.5678(4) 0.1225(7)
C12B C 0.4322(4) 0.3821(3) 0.1225(7)
C12O C 0.0488(3) 0.2832(3) 0.2108(7)
C13P C 0.6968(5) 0.7016(7) 0.2029(10)
C13Q C 0.2984(7) 0.9951(5) 0.2029(10)
C13A C -0.0301(5) 0.6317(7) 0.1304(10)
C13B C 0.3683(7) 0.3382(5) 0.1304(10)
C13O C 0.0049(5) 0.3032(5) 0.2029(10)
H7P H 0.6570 0.6785 0.2362
H7Q H 0.3215 0.9784 0.2362
H7A H 0.0097 0.6548 0.0971
H7B H 0.3452 0.3549 0.0971
H7O H 0.0216 0.3430 0.2362
H8P H 0.6953 0.6904 0.1233
H8Q H 0.3096 1.0048 0.1233
H8A H -0.0286 0.6429 0.2100
H8B H 0.3571 0.3285 0.2100
H8O H -0.0048 0.3047 0.1233
H9P H 0.7247 0.6932 0.2438
H9Q H 0.3068 1.0314 0.2438
H9A H -0.0580 0.6401 0.0895
H9B H 0.3599 0.3019 0.0895
H9O H -0.0314 0.2753 0.2438
C14P C 0.7258(6) 0.7868(8) 0.3252(11)
C14Q C 0.2132(8) 0.9389(5) 0.3252(11)
C14A C -0.0591(6) 0.5465(8) 0.0081(11)
C14B C 0.4535(8) 0.3944(5) 0.0081(11)
C14O C 0.0611(5) 0.2742(6) 0.3252(11)
H10P H 0.7559 0.7800 0.3614
H10Q H 0.2200 0.9758 0.3614
H10A H -0.0892 0.5533 -0.0281
H10B H 0.4467 0.3575 -0.0281
H10O H 0.0242 0.2441 0.3614
H11P H 0.7395 0.8296 0.3253
H11Q H 0.1704 0.9098 0.3253
H11A H -0.0728 0.5037 0.0080
H11B H 0.4963 0.4235 0.0080
H11O H 0.0902 0.2605 0.3253
H12P H 0.6882 0.7654 0.3669
H12Q H 0.2346 0.9227 0.3669
H12A H -0.0215 0.5679 -0.0336
H12B H 0.4321 0.4106 -0.0336
H12O H 0.0773 0.3118 0.3669
C15P C 0.7774(7) 0.7875(10) 0.1526(15)
C15Q C 0.2125(10) 0.9898(7) 0.1526(15)
C15A C -0.1107(7) 0.5458(10) 0.1807(15)
C15B C 0.4542(10) 0.3435(7) 0.1807(15)
C15O C 0.0102(7) 0.2226(7) 0.1526(15)
H13P H 0.7718 0.7646 0.0833
H13Q H 0.2354 1.0071 0.0833
H13A H -0.1051 0.5687 0.2500
H13B H 0.4313 0.3262 0.2500
H13O H -0.0071 0.2282 0.0833
H14P H 0.7950 0.8300 0.1338
H14Q H 0.1700 0.9649 0.1338
H14A H -0.1283 0.5033 0.1995
H14B H 0.4967 0.3684 0.1995
H14O H 0.0351 0.2050 0.1338
H15P H 0.8042 0.7822 0.2037
H15Q H 0.2178 1.0219 0.2037
H15A H -0.1375 0.5511 0.1296
H15B H 0.4489 0.3114 0.1296
H15O H -0.0219 0.1958 0.2037
O1P O 0.5696(2) 0.8479(3) -0.0087(5)
O1Q O 0.1521(3) 0.7216(2) -0.0087(5)
O1A O 0.0971(2) 0.4854(3) 0.3420(5)
O1B O 0.5146(3) 0.6117(2) 0.3420(5)
O1O O 0.2784(2) 0.4304(2) -0.0087(5)
O2P O 0.5400(3) 0.7832(4) -0.1561(6)
O2Q O 0.2168(4) 0.7567(3) -0.1561(6)
O2A O 0.1267(3) 0.5501(4) 0.4894(6)
O2B O 0.4499(4) 0.5766(3) 0.4894(6)
O2O O 0.2433(3) 0.4600(3) -0.1561(6)
loop_
_geom_bond_atom_site_label_1
_geom_bond_atom_site_label_2
_geom_bond_site_symmetry_1
_geom_bond_site_symmetry_2
C1 C2 1_555 1_555
C2 C3 1_555 1_555
C3 C4 1_555 1_555
C4 C5 1_555 1_555
C5 C6 1_555 1_555
C6 H1 1_555 1_555
C7 C6 1_555 1_555
H2 C7 1_555 1_555
C8 C7 1_555 1_555
C9 C4 1_555 1_555
H3 C9 1_555 1_555
C10 C11 1_555 1_555
C11 H4 1_555 1_555
H5 C11 1_555 1_555
H6 C11 1_555 1_555
C12 C8 1_555 1_555
C13 C12 1_555 1_555
H7 C13 1_555 1_555
H8 C13 1_555 1_555
H9 C13 1_555 1_555
C14 C12 1_555 1_555
H10 C14 1_555 1_555
H11 C14 1_555 1_555
H12 C14 1_555 1_555
C15 C12 1_555 1_555
H13 C15 1_555 1_555
H14 C15 1_555 1_555
H15 C15 1_555 1_555
O1 C5 1_555 1_555
O2 C10 1_555 1_555
C1P C1 1_555 1_555
C1Q C1 1_555 1_555
C1A C1Q 1_555 1_555
C1B C1P 1_555 1_555
C1O C1A 1_555 1_555
C2P C1P 1_555 1_555
C2Q C1Q 1_555 1_555
C2A C1A 1_555 1_555
C2B C1B 1_555 1_555
C2O C1O 1_555 1_555
C3P C2P 1_555 1_555
C3Q C2Q 1_555 1_555
C3A C2A 1_555 1_555
C3B C2B 1_555 1_555
C3O C2O 1_555 1_555
C4P C3P 1_555 1_555
C4Q C3Q 1_555 1_555
C4A C3A 1_555 1_555
C4B C3B 1_555 1_555
C4O C3O 1_555 1_555
C5P C4P 1_555 1_555
C5Q C4Q 1_555 1_555
C5A C4A 1_555 1_555
C5B C4B 1_555 1_555
C5O C4O 1_555 1_555
C6P C5P 1_555 1_555
C6Q C5Q 1_555 1_555
C6A C5A 1_555 1_555
C6B C5B 1_555 1_555
C6O C5O 1_555 1_555
H1P C6P 1_555 1_555
H1Q C6Q 1_555 1_555
H1A C6A 1_555 1_555
H1B C6B 1_555 1_555
H1O C6O 1_555 1_555
C7P C6P 1_555 1_555
C7Q C6Q 1_555 1_555
C7A C6A 1_555 1_555
C7B C6B 1_555 1_555
C7O C6O 1_555 1_555
H2P C7P 1_555 1_555
H2Q C7Q 1_555 1_555
H2A C7A 1_555 1_555
H2B C7B 1_555 1_555
H2O C7O 1_555 1_555
C8P C7P 1_555 1_555
C8Q C7Q 1_555 1_555
C8A C7A 1_555 1_555
C8B C7B 1_555 1_555
C8O C7O 1_555 1_555
C9P C4P 1_555 1_555
C9Q C4Q 1_555 1_555
C9A C4A 1_555 1_555
C9B C4B 1_555 1_555
C9O C4O 1_555 1_555
H3P C9P 1_555 1_555
H3Q C9Q 1_555 1_555
H3A C9A 1_555 1_555
H3B C9B 1_555 1_555
H3O C9O 1_555 1_555
C10P C11P 1_555 1_555
C10Q C11Q 1_555 1_555
C10A C11A 1_555 1_555
C10B C11B 1_555 1_555
C10O C11O 1_555 1_555
C11P H4P 1_555 1_555
C11Q H4Q 1_555 1_555
C11A H4A 1_555 1_555
C11B H4B 1_555 1_555
C11O H4O 1_555 1_555
H5P C11P 1_555 1_555
H5Q C11Q 1_555 1_555
H5A C11A 1_555 1_555
H5B C11B 1_555 1_555
H5O C11O 1_555 1_555
H6P C11P 1_555 1_555
H6Q C11Q 1_555 1_555
H6A C11A 1_555 1_555
H6B C11B 1_555 1_555
H6O C11O 1_555 1_555
C12P C8P 1_555 1_555
C12Q C8Q 1_555 1_555
C12A C8A 1_555 1_555
C12B C8B 1_555 1_555
C12O C8O 1_555 1_555
C13P C12P 1_555 1_555
C13Q C12Q 1_555 1_555
C13A C12A 1_555 1_555
C13B C12B 1_555 1_555
C13O C12O 1_555 1_555
H7P C13P 1_555 1_555
H7Q C13Q 1_555 1_555
H7A C13A 1_555 1_555
H7B C13B 1_555 1_555
H7O C13O 1_555 1_555
H8P C13P 1_555 1_555
H8Q C13Q 1_555 1_555
H8A C13A 1_555 1_555
H8B C13B 1_555 1_555
H8O C13O 1_555 1_555
H9P C13P 1_555 1_555
H9Q C13Q 1_555 1_555
H9A C13A 1_555 1_555
H9B C13B 1_555 1_555
H9O C13O 1_555 1_555
C14P C12P 1_555 1_555
C14Q C12Q 1_555 1_555
C14A C12A 1_555 1_555
C14B C12B 1_555 1_555
C14O C12O 1_555 1_555
H10P C14P 1_555 1_555
H10Q C14Q 1_555 1_555
H10A C14A 1_555 1_555
H10B C14B 1_555 1_555
H10O C14O 1_555 1_555
H11P C14P 1_555 1_555
H11Q C14Q 1_555 1_555
H11A C14A 1_555 1_555
H11B C14B 1_555 1_555
H11O C14O 1_555 1_555
H12P C14P 1_555 1_555
H12Q C14Q 1_555 1_555
H12A C14A 1_555 1_555
H12B C14B 1_555 1_555
H12O C14O 1_555 1_555
C15P C12P 1_555 1_555
C15Q C12Q 1_555 1_555
C15A C12A 1_555 1_555
C15B C12B 1_555 1_555
C15O C12O 1_555 1_555
H13P C15P 1_555 1_555
H13Q C15Q 1_555 1_555
H13A C15A 1_555 1_555
H13B C15B 1_555 1_555
H13O C15O 1_555 1_555
H14P C15P 1_555 1_555
H14Q C15Q 1_555 1_555
H14A C15A 1_555 1_555
H14B C15B 1_555 1_555
H14O C15O 1_555 1_555
H15P C15P 1_555 1_555
H15Q C15Q 1_555 1_555
H15A C15A 1_555 1_555
H15B C15B 1_555 1_555
H15O C15O 1_555 1_555
O1P C5P 1_555 1_555
O1Q C5Q 1_555 1_555
O1A C5A 1_555 1_555
O1B C5B 1_555 1_555
O1O C5O 1_555 1_555
O2P C10P 1_555 1_555
O2Q C10Q 1_555 1_555
O2A C10A 1_555 1_555
O2B C10B 1_555 1_555
O2O C10O 1_555 1_555
C8 C9 1_555 1_555
C10 O1 1_555 1_555
C1B C1O 1_555 1_555
C8P C9P 1_555 1_555
C8Q C9Q 1_555 1_555
C8A C9A 1_555 1_555
C8B C9B 1_555 1_555
C8O C9O 1_555 1_555
C10P O1P 1_555 1_555
C10Q O1Q 1_555 1_555
C10A O1A 1_555 1_555
C10B O1B 1_555 1_555
C10O O1O 1_555 1_555

#END
