
#######################################################################
#
#                 Cambridge Crystallographic Data Centre
#                                CCDC 
#
#######################################################################
#
# If this CIF has been generated from an entry in the Cambridge 
# Structural Database, then it will include bibliographic, chemical, 
# crystal, experimental, refinement or atomic coordinate data resulting 
# from the CCDC's data processing and validation procedures.
#
#######################################################################

data_WARYAP
_chemical_formula_moiety         'C12 H15 N3 O4'
_chemical_name_systematic        
(R,S)-N-(Carboxymethyl)-N'-(carbamoyl(benzyl)methyl)urea
_symmetry_cell_setting           orthorhombic
_symmetry_space_group_name_H-M   'P c a 21'
_symmetry_Int_Tables_number      29
_space_group_name_Hall           'P 2c -2ac'
loop_
_symmetry_equiv_pos_site_id
_symmetry_equiv_pos_as_xyz
1 x,y,z
2 1/2-x,y,1/2+z
3 1/2+x,-y,z
4 -x,-y,1/2+z
_cell_length_a                   9.338
_cell_length_b                   7.618
_cell_length_c                   37.360
_cell_angle_alpha                90
_cell_angle_beta                 90
_cell_angle_gamma                90
_cell_volume                     2657.67
_exptl_crystal_colour            colorless
_chemical_melting_point          182-185deg.C
_cell_formula_units_Z            8
loop_
_atom_site_label
_atom_site_type_symbol
_atom_site_fract_x
_atom_site_fract_y
_atom_site_fract_z
O1 O 0.453(1) -0.364(1) 0.2521
O2 O 0.810(1) -0.419(2) 0.2962(4)
O3 O 0.787(1) -0.254(2) 0.2474(5)
O4 O 0.125(1) -0.258(1) 0.2579(5)
N1 N 0.372(1) -0.105(1) 0.2290(5)
N2 N 0.535(1) -0.104(2) 0.2753(5)
N3 N 0.110(1) -0.429(2) 0.2103(4)
C1 C 0.451(2) -0.200(2) 0.2523(6)
C2 C 0.272(2) -0.192(2) 0.2063(5)
C3 C 0.159(2) -0.300(3) 0.2276(6)
C4 C 0.635(2) -0.196(2) 0.2982(6)
C5 C 0.750(2) -0.290(2) 0.2771(6)
C18 C 0.197(2) -0.059(3) 0.1830(6)
C19 C 0.287(2) 0.027(2) 0.1558(5)
C20 C 0.357(2) -0.056(3) 0.1289(9)
C21 C 0.437(4) 0.012(5) 0.1052(8)
C22 C 0.464(3) 0.182(8) 0.105(1)
C23 C 0.392(3) 0.289(3) 0.131(1)
C24 C 0.311(2) 0.209(3) 0.1562(6)
H1 H 0.6794 -0.1110 0.3136
H2 H 0.5832 -0.2769 0.3126
H12 H 0.3467 -0.1795 0.1288
H13 H 0.4863 -0.0515 0.0866
H14 H 0.5218 0.2428 0.0888
H15 H 0.4050 0.4163 0.1315
H16 H 0.2648 0.2722 0.1761
H17 H 0.3245 -0.2746 0.1920
H18 H 0.1201 -0.1173 0.1717
H19 H 0.1605 0.0294 0.1986
H23 H 0.8886 -0.4834 0.2858
H24 H 0.3798 0.0201 0.2279
H25 H 0.5276 0.0199 0.2760
H29 H 0.0415 -0.5050 0.2209
H30 H 0.1449 -0.4515 0.1870
O5 O 0.827(1) 0.142(1) 0.3939(3)
O6 O 0.495(1) 0.244(2) 0.3976(4)
O7 O 0.472(1) 0.081(1) 0.3494(5)
O8 O 1.157(1) 0.241(2) 0.3883(5)
N4 N 0.907(1) 0.396(2) 0.4163(5)
N5 N 0.745(1) 0.392(2) 0.3706(5)
N6 N 1.169(1) 0.065(2) 0.4361(4)
C6 C 0.826(2) 0.305(2) 0.3936(6)
C7 C 0.647(2) 0.299(2) 0.3476(5)
C8 C 0.528(2) 0.208(2) 0.3683(6)
C9 C 1.006(1) 0.304(2) 0.4403(5)
C10 C 1.122(2) 0.206(2) 0.4179(7)
C11 C 1.084(1) 0.430(2) 0.4648(5)
C12 C 0.990(2) 0.536(3) 0.4896(7)
C13 C 0.914(2) 0.440(3) 0.5150(6)
C14 C 0.835(2) 0.547(5) 0.5404(8)
C15 C 0.829(2) 0.720(4) 0.5392(7)
C16 C 0.908(3) 0.807(3) 0.5131(6)
C17 C 0.988(2) 0.706(3) 0.4893(6)
H3 H 0.6059 0.3784 0.3315
H4 H 0.7014 0.2122 0.3356
H5 H 1.1460 0.3596 0.4802
H6 H 1.1404 0.5061 0.4514
H7 H 0.9136 0.3150 0.5167
H8 H 0.7877 0.4947 0.5599
H9 H 0.7729 0.7889 0.5556
H10 H 0.9047 0.9293 0.5122
H11 H 1.0489 0.7673 0.4728
H21 H 1.2360 -0.0111 0.4254
H22 H 0.3992 0.0083 0.3593
H26 H 0.9014 0.5184 0.4173
H27 H 0.7477 0.5181 0.3698
H28 H 0.9544 0.2233 0.4545
H20? H 1.1386 0.0451 0.4502
loop_
_geom_bond_atom_site_label_1
_geom_bond_atom_site_label_2
_geom_bond_site_symmetry_1
_geom_bond_site_symmetry_2
O1 C1 1_555 1_555
O2 C5 1_555 1_555
O3 C5 1_555 1_555
O4 C3 1_555 1_555
O5 C6 1_555 1_555
O6 C8 1_555 1_555
O7 C8 1_555 1_555
O8 C10 1_555 1_555
N1 C1 1_555 1_555
N2 C1 1_555 1_555
N3 C3 1_555 1_555
N4 C6 1_555 1_555
N5 C6 1_555 1_555
N6 C10 1_555 1_555
C2 N1 1_555 1_555
C3 C2 1_555 1_555
C4 N2 1_555 1_555
C5 C4 1_555 1_555
C7 N5 1_555 1_555
C8 C7 1_555 1_555
C9 N4 1_555 1_555
C10 C9 1_555 1_555
C11 C9 1_555 1_555
C12 C11 1_555 1_555
C13 C12 1_555 1_555
C14 C13 1_555 1_555
C15 C14 1_555 1_555
C16 C15 1_555 1_555
C17 C12 1_555 1_555
C18 C2 1_555 1_555
C19 C18 1_555 1_555
C20 C19 1_555 1_555
C21 C20 1_555 1_555
C22 C21 1_555 1_555
C23 C22 1_555 1_555
C24 C19 1_555 1_555
H1 C4 1_555 1_555
H2 C4 1_555 1_555
H3 C7 1_555 1_555
H4 C7 1_555 1_555
H5 C11 1_555 1_555
H6 C11 1_555 1_555
H7 C13 1_555 1_555
H8 C14 1_555 1_555
H9 C15 1_555 1_555
H10 C16 1_555 1_555
H11 C17 1_555 1_555
H12 C20 1_555 1_555
H13 C21 1_555 1_555
H14 C22 1_555 1_555
H15 C23 1_555 1_555
H16 C24 1_555 1_555
H17 C2 1_555 1_555
H18 C18 1_555 1_555
H19 C18 1_555 1_555
H21 N6 1_555 1_555
H22 O7 1_555 1_555
H23 O2 1_555 1_555
H24 N1 1_555 1_555
H25 N2 1_555 1_555
H26 N4 1_555 1_555
H27 N5 1_555 1_555
H28 C9 1_555 1_555
H29 N3 1_555 1_555
H30 N3 1_555 1_555
C16 C17 1_555 1_555
C23 C24 1_555 1_555

#END
