
#######################################################################
#
#                 Cambridge Crystallographic Data Centre
#                                CCDC 
#
#######################################################################
#
# If this CIF has been generated from an entry in the Cambridge 
# Structural Database, then it will include bibliographic, chemical, 
# crystal, experimental, refinement or atomic coordinate data resulting 
# from the CCDC's data processing and validation procedures.
#
#######################################################################

data_WARZOE
_chemical_formula_moiety         'C12 H15 N1 O1 S2'
_chemical_name_systematic        'N-(4-Methylbenzoyl)glycine ethyl dithioester'
_symmetry_cell_setting           orthorhombic
_symmetry_space_group_name_H-M   'P b c a'
_symmetry_Int_Tables_number      61
_space_group_name_Hall           '-P 2ac 2ab'
loop_
_symmetry_equiv_pos_site_id
_symmetry_equiv_pos_as_xyz
1 x,y,z
2 1/2-x,1/2+y,z
3 x,1/2-y,1/2+z
4 1/2-x,-y,1/2+z
5 -x,-y,-z
6 1/2+x,1/2-y,-z
7 -x,1/2+y,1/2-z
8 1/2+x,y,1/2-z
_cell_length_a                   9.7843(14)
_cell_length_b                   13.0059(22)
_cell_length_c                   20.913(4)
_cell_angle_alpha                90
_cell_angle_beta                 90
_cell_angle_gamma                90
_cell_volume                     2661.26
_exptl_crystal_colour            yellow
_cell_formula_units_Z            8
loop_
_atom_site_label
_atom_site_type_symbol
_atom_site_fract_x
_atom_site_fract_y
_atom_site_fract_z
S1 S 0.25879(18) 0.69536(13) 0.11367(8)
S2 S 0.30027(22) 0.47097(15) 0.09220(10)
O1 O 0.4237(4) 0.6727(4) 0.27073(20)
N1 N 0.2069(5) 0.6451(4) 0.24282(23)
C1 C 0.4469(9) 0.6958(7) 0.0145(4)
C2 C 0.2980(8) 0.6930(6) 0.0295(3)
C3 C 0.2672(5) 0.5703(4) 0.1364(3)
C4 C 0.2392(6) 0.5532(5) 0.2077(3)
C5 C 0.3030(7) 0.6994(5) 0.2739(3)
C6 C 0.2598(6) 0.7915(5) 0.3098(3)
C7 C 0.1235(6) 0.8110(5) 0.3264(3)
C8 C 0.0883(7) 0.8969(6) 0.3607(3)
C9 C 0.1867(10) 0.9669(5) 0.3810(3)
C10 C 0.3199(9) 0.9480(7) 0.3648(3)
C11 C 0.3587(7) 0.8622(6) 0.3310(3)
C12 C 0.1458(10) 1.0603(6) 0.4185(3)
loop_
_geom_bond_atom_site_label_1
_geom_bond_atom_site_label_2
_geom_bond_site_symmetry_1
_geom_bond_site_symmetry_2
S1 C2 1_555 1_555
S2 C3 1_555 1_555
O1 C5 1_555 1_555
N1 C4 1_555 1_555
C1 C2 1_555 1_555
C3 S1 1_555 1_555
C4 C3 1_555 1_555
C5 N1 1_555 1_555
C6 C5 1_555 1_555
C7 C6 1_555 1_555
C8 C7 1_555 1_555
C9 C8 1_555 1_555
C10 C9 1_555 1_555
C11 C6 1_555 1_555
C12 C9 1_555 1_555
C10 C11 1_555 1_555

#END
