
#######################################################################
#
#                 Cambridge Crystallographic Data Centre
#                                CCDC 
#
#######################################################################
#
# If this CIF has been generated from an entry in the Cambridge 
# Structural Database, then it will include bibliographic, chemical, 
# crystal, experimental, refinement or atomic coordinate data resulting 
# from the CCDC's data processing and validation procedures.
#
#######################################################################

data_WASCEZ
_chemical_compound_source        
'metabolite in the faeces of Sprague-Dawley rats, produced by the action of gut microflora on the soy isoflavone daidzein'
_chemical_name_common            '(-)-(S)-Equol monohydrate'
_chemical_formula_moiety         'C15 H14 O3,H2 O1'
_chemical_name_systematic        
'(3S)-3,4-Dihydro-3-(4-hydroxyphenyl)-2H-1-benzopyran-7-ol monohydrate'
_chemical_properties_biological  
'no activity against the proliferation of osteoblasts'
_symmetry_cell_setting           triclinic
_symmetry_space_group_name_H-M   'P 1'
_symmetry_Int_Tables_number      1
_space_group_name_Hall           'P 1'
loop_
_symmetry_equiv_pos_site_id
_symmetry_equiv_pos_as_xyz
1 x,y,z
_cell_length_a                   10.077(2)
_cell_length_b                   10.341(2)
_cell_length_c                   13.166(3)
_cell_angle_alpha                100.36(2)
_cell_angle_beta                 96.98(2)
_cell_angle_gamma                102.73(2)
_cell_volume                     1297.74
_exptl_crystal_colour            colorless
_exptl_crystal_description       parallelepiped
_chemical_melting_point          192-194deg.C
_cell_formula_units_Z            4
_exptl_crystal_recrystallization_method acetone
loop_
_atom_site_label
_atom_site_type_symbol
_atom_site_fract_x
_atom_site_fract_y
_atom_site_fract_z
O1 O 1.8882(4) 1.0841(4) 0.3648(2)
H1 H 1.9472 1.0727 0.4086
O2 O 1.7712(4) 0.9865(4) -0.0004(2)
O3 O 1.8274(4) 0.5257(4) -0.5220(2)
H2 H 1.7905 0.4448 -0.5295
C1 C 1.8797(5) 0.9966(5) 0.2714(4)
C2 C 1.8279(5) 1.0299(5) 0.1816(4)
H3 H 1.7993 1.1099 0.1850
C3 C 1.8178(5) 0.9450(5) 0.0861(4)
C4 C 1.8567(5) 0.8218(5) 0.0795(3)
C5 C 1.9076(5) 0.7925(5) 0.1718(3)
H4 H 1.9351 0.7119 0.1693
C6 C 1.9199(5) 0.8764(5) 0.2674(3)
H5 H 1.9546 0.8532 0.3285
C7 C 1.8492(5) 0.7310(5) -0.0248(3)
H6 H 1.7632 0.6612 -0.0414
H7 H 1.9248 0.6869 -0.0220
C8 C 1.7491(5) 0.8957(5) -0.1003(3)
H8 H 1.7511 0.9477 -0.1548
H9 H 1.6584 0.8339 -0.1118
C9 C 1.8575(5) 0.8137(5) -0.1086(3)
H10 H 1.9483 0.8783 -0.0920
C10 C 1.8438(5) 0.7326(5) -0.2180(3)
C11 C 1.8998(7) 0.7941(6) -0.2927(4)
H11 H 1.9433 0.8862 -0.2744
C12 C 1.8943(7) 0.7255(6) -0.3927(5)
H12 H 1.9347 0.7705 -0.4405
C13 C 1.8294(5) 0.5907(6) -0.4222(4)
C14 C 1.7703(6) 0.5265(6) -0.3514(4)
H13 H 1.7256 0.4347 -0.3706
C15 C 1.7769(6) 0.5990(6) -0.2493(4)
H14 H 1.7345 0.5547 -0.2018
O4 O 1.4889(4) 0.3393(4) -0.1998(3)
H15 H 1.4438 0.3637 -0.2456
O5 O 1.5681(4) 0.4028(3) 0.1662(2)
O6 O 1.5123(4) 0.8990(4) 0.6778(3)
H16 H 1.5662 0.9742 0.6948
C16 C 1.4939(5) 0.4208(5) -0.1053(4)
C17 C 1.5302(5) 0.3762(5) -0.0160(4)
H17 H 1.5497 0.2917 -0.0212
C18 C 1.5376(5) 0.4568(5) 0.0813(4)
C19 C 1.5142(5) 0.5854(5) 0.0925(3)
C20 C 1.4772(5) 0.6264(5) 0.0007(4)
H18 H 1.4599 0.7119 0.0057
C21 C 1.4649(5) 0.5473(6) -0.0967(4)
H19 H 1.4374 0.5776 -0.1563
C22 C 1.5312(5) 0.6758(5) 0.1977(4)
H20 H 1.4419 0.6898 0.2101
H21 H 1.5910 0.7635 0.1982
C23 C 1.5334(5) 0.4678(5) 0.2632(3)
H22 H 1.5700 0.4316 0.3205
H23 H 1.4338 0.4479 0.2581
C24 C 1.5914(5) 0.6188(5) 0.2855(3)
H24 H 1.6910 0.6353 0.2858
C25 C 1.5706(5) 0.6908(5) 0.3918(3)
C26 C 1.4890(6) 0.6284(6) 0.4530(4)
H25 H 1.4434 0.5372 0.4303
C27 C 1.4731(7) 0.6998(6) 0.5491(4)
H26 H 1.4188 0.6547 0.5905
C28 C 1.5341(5) 0.8315(6) 0.5832(4)
C29 C 1.6153(6) 0.8974(6) 0.5224(4)
H27 H 1.6579 0.9894 0.5446
C30 C 1.6330(6) 0.8268(6) 0.4292(4)
H28 H 1.6894 0.8722 0.3892
O7 O 1.0605(4) 0.0287(4) -0.4837(2)
H29 H 1.1278 0.0010 -0.4976
O8 O 0.9221(4) 0.2996(4) -0.2121(2)
O9 O 1.0484(4) 0.6138(4) 0.3856(3)
H30 H 0.9804 0.5871 0.4116
C31 C 1.0812(5) 0.0857(5) -0.3792(3)
C32 C 0.9947(5) 0.1652(5) -0.3451(4)
H31 H 0.9256 0.1792 -0.3924
C33 C 1.0123(5) 0.2230(5) -0.2406(4)
C34 C 1.1109(5) 0.2025(6) -0.1673(4)
C35 C 1.1966(6) 0.1231(6) -0.2056(4)
H32 H 1.2661 0.1088 -0.1589
C36 C 1.1821(5) 0.0661(5) -0.3088(4)
H33 H 1.2410 0.0135 -0.3316
C37 C 1.1289(6) 0.2659(7) -0.0530(4)
H34 H 1.2066 0.3450 -0.0353
H35 H 1.1486 0.2016 -0.0115
C38 C 0.9575(6) 0.3833(6) -0.1082(4)
H36 H 0.8791 0.4178 -0.0912
H37 H 1.0332 0.4604 -0.1067
C39 C 0.9986(5) 0.3081(5) -0.0265(3)
H38 H 0.9252 0.2254 -0.0341
C40 C 1.0136(5) 0.3913(5) 0.0824(4)
C41 C 0.9041(5) 0.3750(5) 0.1369(3)
H39 H 0.8219 0.3123 0.1048
C42 C 0.9122(5) 0.4476(5) 0.2358(4)
H40 H 0.8360 0.4346 0.2697
C43 C 1.0321(5) 0.5393(5) 0.2851(4)
C44 C 1.1409(5) 0.5598(5) 0.2321(4)
H41 H 1.2222 0.6240 0.2640
C45 C 1.1317(5) 0.4869(5) 0.1325(4)
H42 H 1.2071 0.5026 0.0981
O10 O 1.3223(4) 0.3912(4) 0.6415(2)
H43 H 1.2620 0.4314 0.6521
O11 O 1.4617(4) 0.1054(4) 0.3798(2)
O12 O 1.3079(4) -0.2081(4) -0.2240(3)
H44 H 1.3724 -0.1668 -0.2473
C46 C 1.3016(5) 0.3298(5) 0.5384(4)
C47 C 1.3881(5) 0.2473(5) 0.5074(3)
H45 H 1.4558 0.2339 0.5562
C48 C 1.3719(5) 0.1867(5) 0.4045(4)
C49 C 1.2711(5) 0.2003(5) 0.3285(4)
C50 C 1.1857(5) 0.2815(5) 0.3621(3)
H46 H 1.1159 0.2920 0.3135
C51 C 1.2010(5) 0.3471(5) 0.4647(4)
H47 H 1.1437 0.4029 0.4846
C52 C 1.2547(5) 0.1305(6) 0.2152(3)
H48 H 1.2952 0.1953 0.1758
H49 H 1.1574 0.0963 0.1861
C53 C 1.4664(5) 0.0638(6) 0.2698(4)
H50 H 1.5155 -0.0072 0.2605
H51 H 1.5173 0.1403 0.2456
C54 C 1.3252(5) 0.0126(5) 0.2048(3)
H52 H 1.2724 -0.0588 0.2342
C55 C 1.3271(5) -0.0466(5) 0.0908(3)
C56 C 1.2237(5) -0.1555(5) 0.0365(3)
H53 H 1.1561 -0.1953 0.0714
C57 C 1.2172(5) -0.2078(5) -0.0687(4)
H54 H 1.1450 -0.2807 -0.1043
C58 C 1.3177(5) -0.1516(5) -0.1204(3)
C59 C 1.4214(5) -0.0431(5) -0.0684(4)
H55 H 1.4887 -0.0038 -0.1037
C60 C 1.4270(5) 0.0096(5) 0.0382(4)
H56 H 1.4987 0.0830 0.0736
O13 O 1.7404(5) 0.2594(5) -0.5529(4)
H58 H 1.664(4) 0.206(7) -0.569(6)
H63 H 1.776(6) 0.223(6) -0.599(4)
O14 O 1.6392(5) 1.1551(5) 0.7399(5)
H57 H 1.717(4) 1.194(7) 0.736(5)
H62 H 1.596(6) 1.213(5) 0.735(5)
O15 O 1.2326(6) -0.1243(6) -0.5454(5)
H60 H 1.203(8) -0.178(6) -0.508(5)
H64 H 1.215(17) -0.168(16) -0.607(5)
O16 O 1.1378(5) 0.5313(6) 0.6928(4)
H59 H 1.188(6) 0.611(3) 0.712(5)
H61 H 1.055(3) 0.500(8) 0.687(5)
loop_
_geom_bond_atom_site_label_1
_geom_bond_atom_site_label_2
_geom_bond_site_symmetry_1
_geom_bond_site_symmetry_2
O1 H1 1_555 1_555
O2 C3 1_555 1_555
O3 H2 1_555 1_555
C1 O1 1_555 1_555
C2 C1 1_555 1_555
H3 C2 1_555 1_555
C3 C2 1_555 1_555
C4 C3 1_555 1_555
C5 C4 1_555 1_555
H4 C5 1_555 1_555
C6 C1 1_555 1_555
H5 C6 1_555 1_555
C7 C4 1_555 1_555
H6 C7 1_555 1_555
H7 C7 1_555 1_555
C8 O2 1_555 1_555
H8 C8 1_555 1_555
H9 C8 1_555 1_555
C9 C7 1_555 1_555
H10 C9 1_555 1_555
C10 C9 1_555 1_555
C11 C10 1_555 1_555
H11 C11 1_555 1_555
C12 C11 1_555 1_555
H12 C12 1_555 1_555
C13 O3 1_555 1_555
C14 C13 1_555 1_555
H13 C14 1_555 1_555
C15 C10 1_555 1_555
H14 C15 1_555 1_555
O4 H15 1_555 1_555
O5 C18 1_555 1_555
O6 H16 1_555 1_555
C16 O4 1_555 1_555
C17 C16 1_555 1_555
H17 C17 1_555 1_555
C18 C17 1_555 1_555
C19 C18 1_555 1_555
C20 C19 1_555 1_555
H18 C20 1_555 1_555
C21 C16 1_555 1_555
H19 C21 1_555 1_555
C22 C19 1_555 1_555
H20 C22 1_555 1_555
H21 C22 1_555 1_555
C23 O5 1_555 1_555
H22 C23 1_555 1_555
H23 C23 1_555 1_555
C24 C22 1_555 1_555
H24 C24 1_555 1_555
C25 C24 1_555 1_555
C26 C25 1_555 1_555
H25 C26 1_555 1_555
C27 C26 1_555 1_555
H26 C27 1_555 1_555
C28 O6 1_555 1_555
C29 C28 1_555 1_555
H27 C29 1_555 1_555
C30 C25 1_555 1_555
H28 C30 1_555 1_555
O7 H29 1_555 1_555
O8 C33 1_555 1_555
O9 H30 1_555 1_555
C31 O7 1_555 1_555
C32 C31 1_555 1_555
H31 C32 1_555 1_555
C33 C32 1_555 1_555
C34 C33 1_555 1_555
C35 C34 1_555 1_555
H32 C35 1_555 1_555
C36 C31 1_555 1_555
H33 C36 1_555 1_555
C37 C34 1_555 1_555
H34 C37 1_555 1_555
H35 C37 1_555 1_555
C38 O8 1_555 1_555
H36 C38 1_555 1_555
H37 C38 1_555 1_555
C39 C37 1_555 1_555
H38 C39 1_555 1_555
C40 C39 1_555 1_555
C41 C40 1_555 1_555
H39 C41 1_555 1_555
C42 C41 1_555 1_555
H40 C42 1_555 1_555
C43 O9 1_555 1_555
C44 C43 1_555 1_555
H41 C44 1_555 1_555
C45 C40 1_555 1_555
H42 C45 1_555 1_555
O10 H43 1_555 1_555
O11 C48 1_555 1_555
O12 H44 1_555 1_555
C46 O10 1_555 1_555
C47 C46 1_555 1_555
H45 C47 1_555 1_555
C48 C47 1_555 1_555
C49 C48 1_555 1_555
C50 C49 1_555 1_555
H46 C50 1_555 1_555
C51 C46 1_555 1_555
H47 C51 1_555 1_555
C52 C49 1_555 1_555
H48 C52 1_555 1_555
H49 C52 1_555 1_555
C53 O11 1_555 1_555
H50 C53 1_555 1_555
H51 C53 1_555 1_555
C54 C52 1_555 1_555
H52 C54 1_555 1_555
C55 C54 1_555 1_555
C56 C55 1_555 1_555
H53 C56 1_555 1_555
C57 C56 1_555 1_555
H54 C57 1_555 1_555
C58 O12 1_555 1_555
C59 C58 1_555 1_555
H55 C59 1_555 1_555
C60 C55 1_555 1_555
H56 C60 1_555 1_555
O13 H58 1_555 1_555
O14 H57 1_555 1_555
O15 H60 1_555 1_555
O16 H59 1_555 1_555
H61 O16 1_555 1_555
H62 O14 1_555 1_555
H63 O13 1_555 1_555
H64 O15 1_555 1_555
C5 C6 1_555 1_555
C8 C9 1_555 1_555
C12 C13 1_555 1_555
C14 C15 1_555 1_555
C20 C21 1_555 1_555
C23 C24 1_555 1_555
C27 C28 1_555 1_555
C29 C30 1_555 1_555
C35 C36 1_555 1_555
C38 C39 1_555 1_555
C42 C43 1_555 1_555
C44 C45 1_555 1_555
C50 C51 1_555 1_555
C53 C54 1_555 1_555
C57 C58 1_555 1_555
C59 C60 1_555 1_555

#END
