
#######################################################################
#
#                 Cambridge Crystallographic Data Centre
#                                CCDC 
#
#######################################################################
#
# If this CIF has been generated from an entry in the Cambridge 
# Structural Database, then it will include bibliographic, chemical, 
# crystal, experimental, refinement or atomic coordinate data resulting 
# from the CCDC's data processing and validation procedures.
#
#######################################################################

data_WASCOK
_chemical_formula_moiety         'C52 H50 N4 P2,1.25(C1 H1 Cl3)'
_chemical_name_systematic        
'5,22-Diphenyl-5,11a,12,13,14,15,15a,22,28a,29,30,31,32,32a-tetradecahydrohexabenzo[b,f,i,m,q,t][1,4,12,15,8,19]tetra-azadiphosphacyclodocosine chloroform solvate'
_symmetry_cell_setting           monoclinic
_symmetry_space_group_name_H-M   'P 21'
_symmetry_Int_Tables_number      4
_space_group_name_Hall           'P 2yb'
loop_
_symmetry_equiv_pos_site_id
_symmetry_equiv_pos_as_xyz
1 x,y,z
2 -x,1/2+y,-z
_cell_length_a                   11.2842(5)
_cell_length_b                   14.6742(7)
_cell_length_c                   17.0956(8)
_cell_angle_alpha                90
_cell_angle_beta                 106.457(5)
_cell_angle_gamma                90
_cell_volume                     2714.83
_exptl_crystal_colour            yellow
_exptl_crystal_description       block
_cell_formula_units_Z            2
loop_
_atom_site_label
_atom_site_type_symbol
_atom_site_fract_x
_atom_site_fract_y
_atom_site_fract_z
P1 P -1.33284(19) -1.90170(16) -1.71457(12)
P2 P -1.4704(2) -2.23079(16) -1.86903(12)
N1 N -1.5503(6) -2.0012(5) -1.7475(4)
N2 N -1.5504(7) -2.0530(5) -1.9098(4)
N3 N -1.0005(7) -2.0402(5) -1.6954(4)
N4 N -1.1230(7) -2.2758(5) -1.7009(4)
C1 C -1.6624(7) -2.0155(6) -1.8128(4)
H1 H -1.6868 -2.0811 -1.8148
C2 C -1.7664(8) -1.9554(7) -1.7975(5)
H2 H -1.7839 -1.9760 -1.7468
H3 H -1.7371 -1.8916 -1.7892
C3 C -1.8838(8) -1.9582(7) -1.8658(5)
H4 H -1.9447 -1.9156 -1.8541
H5 H -1.9191 -2.0204 -1.8707
C4 C -1.8576(9) -1.9309(9) -1.9471(5)
H6 H -1.8277 -1.8672 -1.9438
H7 H -1.9345 -1.9352 -1.9926
C5 C -1.7580(8) -1.9962(8) -1.9628(5)
H8 H -1.7885 -2.0598 -1.9665
H9 H -1.7421 -1.9804 -2.0152
C6 C -1.6375(7) -1.9882(6) -1.8931(5)
H10 H -1.6039 -1.9248 -1.8897
C7 C -1.5039(8) -2.0682(6) -1.7017(5)
H11 H -1.5448 -2.1254 -1.7106
C8 C -1.3889(8) -2.0591(7) -1.6356(5)
C9 C -1.3623(8) -2.1261(7) -1.5787(5)
H12 H -1.4159 -2.1770 -1.5833
C10 C -1.2535(10) -2.1195(9) -1.5122(6)
H13 H -1.2334 -2.1668 -1.4726
C11 C -1.1804(10) -2.0484(8) -1.5051(6)
H14 H -1.1096 -2.0440 -1.4592
C12 C -1.2039(8) -1.9803(6) -1.5625(5)
H15 H -1.1488 -1.9301 -1.5562
C13 C -1.3088(8) -1.9841(6) -1.6304(5)
C14 C -1.4320(7) -1.8158(6) -1.6871(6)
C15 C -1.4430(10) -1.8034(8) -1.6117(7)
H16 H -1.4026 -1.8415 -1.5671
C16 C -1.5233(15) -1.7256(12) -1.6029(12)
H17 H -1.5259 -1.7114 -1.5492
C17 C -1.5898(15) -1.6756(10) -1.6615(14)
H18 H -1.6434 -1.6293 -1.6526
C18 C -1.5775(11) -1.6937(9) -1.7336(11)
H19 H -1.6249 -1.6583 -1.7781
C19 C -1.5002(9) -1.7609(7) -1.7508(7)
H20 H -1.4944 -1.7690 -1.8047
C20 C -1.1842(7) -1.8426(6) -1.6882(5)
C21 C -1.0787(8) -1.8854(6) -1.6988(4)
C22 C -0.9683(8) -1.8381(6) -1.6887(5)
H21 H -0.8978 -1.8691 -1.6952
C23 C -0.9609(8) -1.7480(7) -1.6697(5)
H22 H -0.8861 -1.7157 -1.6648
C24 C -1.0606(9) -1.7039(7) -1.6577(5)
H23 H -1.0531 -1.6414 -1.6427
C25 C -1.1726(8) -1.7474(7) -1.6667(5)
H24 H -1.2410 -1.7148 -1.6588
C26 C -1.0879(8) -1.9828(6) -1.7220(5)
H25 H -1.1628 -2.0039 -1.7586
C27 C -1.4468(8) -2.0256(6) -1.9134(5)
H26 H -1.4277 -1.9626 -1.9058
C28 C -1.3555(8) -2.0867(6) -1.9288(5)
C29 C -1.2584(8) -2.0462(6) -1.9544(5)
H27 H -1.2544 -1.9818 -1.9587
C30 C -1.1703(9) -2.0997(7) -1.9729(6)
H28 H -1.1077 -2.0732 -1.9928
C31 C -1.1744(8) -2.1912(8) -1.9622(5)
H29 H -1.1122 -2.2284 -1.9732
C32 C -1.2684(8) -2.2323(7) -1.9352(5)
H30 H -1.2701 -2.2966 -1.9295
C33 C -1.3578(7) -2.1795(6) -1.9168(4)
C34 C -1.6047(7) -2.2518(6) -1.9545(5)
C35 C -1.7155(9) -2.2692(7) -1.9364(6)
H31 H -1.7176 -2.2721 -1.8813
C36 C -1.8252(10) -2.2825(8) -2.0011(10)
H32 H -1.9019 -2.2943 -1.9904
C37 C -1.8166(14) -2.2777(8) -2.0817(8)
H33 H -1.8895 -2.2853 -2.1256
C38 C -1.7120(11) -2.2631(8) -2.0981(7)
H34 H -1.7088 -2.2610 -2.1530
C39 C -1.6091(10) -2.2512(7) -2.0360(5)
H35 H -1.5337 -2.2417 -2.0493
C40 C -1.4077(8) -2.3462(6) -1.8462(5)
C41 C -1.3013(7) -2.3580(6) -1.7809(5)
C42 C -1.2542(8) -2.4455(6) -1.7578(5)
H36 H -1.1809 -2.4531 -1.7142
C43 C -1.3145(9) -2.5197(7) -1.7985(6)
H37 H -1.2821 -2.5787 -1.7826
C44 C -1.4173(10) -2.5117(6) -1.8597(6)
H38 H -1.4575 -2.5646 -1.8868
C45 C -1.4666(9) -2.4243(7) -1.8844(5)
H39 H -1.5408 -2.4189 -1.9277
C46 C -1.2350(9) -2.2776(6) -1.7356(5)
H40 H -1.2819 -2.2244 -1.7333
C47 C -1.0241(8) -2.1349(6) -1.7230(5)
H41 H -1.0890 -2.1338 -1.7767
C48 C -0.9084(9) -2.1788(8) -1.7370(6)
H42 H -0.8752 -2.1392 -1.7727
H43 H -0.9302 -2.2383 -1.7645
C49 C -0.8100(9) -2.1924(7) -1.6551(7)
H44 H -0.7835 -2.1321 -1.6302
H45 H -0.7369 -2.2226 -1.6647
C50 C -0.8566(10) -2.2492(8) -1.5962(6)
H46 H -0.8773 -2.3113 -1.6187
H47 H -0.7913 -2.2546 -1.5437
C51 C -0.9767(9) -2.2026(7) -1.5815(5)
H48 H -0.9542 -2.1431 -1.5540
H49 H -1.0103 -2.2419 -1.5458
C52 C -1.0756(8) -2.1886(6) -1.6641(5)
H50 H -1.1458 -2.1534 -1.6542
Cl1 Cl -1.1513(4) -1.3951(3) -1.52922(19)
Cl2 Cl -1.2885(4) -1.5603(3) -1.5489(2)
Cl3 Cl -1.3295(3) -1.4224(4) -1.4411(2)
C53 C -1.2188(10) -1.4740(7) -1.4813(6)
H51 H -1.1532 -1.5018 -1.4354
Cl4 Cl -2.0055(14) -2.5721(10) -1.8459(6)
Cl5 Cl -1.8710(13) -2.4994(9) -1.6985(7)
C54 C -1.953(3) -2.4799(18) -1.7999(14)
H52 H -2.0248 -2.4394 -1.8008
Cl6 Cl -1.8517(18) -2.4197(15) -1.8439(11)
loop_
_geom_bond_atom_site_label_1
_geom_bond_atom_site_label_2
_geom_bond_site_symmetry_1
_geom_bond_site_symmetry_2
P1 C13 1_555 1_555
P2 C33 1_555 1_555
Cl1 C53 1_555 1_555
Cl2 C53 1_555 1_555
Cl3 C53 1_555 1_555
N1 C1 1_555 1_555
N2 C6 1_555 1_555
N3 C26 1_555 1_555
N4 C46 1_555 1_555
C1 H1 1_555 1_555
C2 C1 1_555 1_555
H2 C2 1_555 1_555
H3 C2 1_555 1_555
C3 C2 1_555 1_555
H4 C3 1_555 1_555
H5 C3 1_555 1_555
C4 C3 1_555 1_555
H6 C4 1_555 1_555
H7 C4 1_555 1_555
C5 C4 1_555 1_555
H8 C5 1_555 1_555
H9 C5 1_555 1_555
C6 C1 1_555 1_555
H10 C6 1_555 1_555
C7 N1 1_555 1_555
H11 C7 1_555 1_555
C8 C7 1_555 1_555
C9 C8 1_555 1_555
H12 C9 1_555 1_555
C10 C9 1_555 1_555
H13 C10 1_555 1_555
C11 C10 1_555 1_555
H14 C11 1_555 1_555
C12 C11 1_555 1_555
H15 C12 1_555 1_555
C13 C8 1_555 1_555
C14 P1 1_555 1_555
C15 C14 1_555 1_555
H16 C15 1_555 1_555
C16 C15 1_555 1_555
H17 C16 1_555 1_555
C17 C16 1_555 1_555
H18 C17 1_555 1_555
C18 C17 1_555 1_555
H19 C18 1_555 1_555
C19 C14 1_555 1_555
H20 C19 1_555 1_555
C20 P1 1_555 1_555
C21 C20 1_555 1_555
C22 C21 1_555 1_555
H21 C22 1_555 1_555
C23 C22 1_555 1_555
H22 C23 1_555 1_555
C24 C23 1_555 1_555
H23 C24 1_555 1_555
C25 C20 1_555 1_555
H24 C25 1_555 1_555
C26 C21 1_555 1_555
H25 C26 1_555 1_555
C27 N2 1_555 1_555
H26 C27 1_555 1_555
C28 C27 1_555 1_555
C29 C28 1_555 1_555
H27 C29 1_555 1_555
C30 C29 1_555 1_555
H28 C30 1_555 1_555
C31 C30 1_555 1_555
H29 C31 1_555 1_555
C32 C31 1_555 1_555
H30 C32 1_555 1_555
C33 C28 1_555 1_555
C34 P2 1_555 1_555
C35 C34 1_555 1_555
H31 C35 1_555 1_555
C36 C35 1_555 1_555
H32 C36 1_555 1_555
C37 C36 1_555 1_555
H33 C37 1_555 1_555
C38 C37 1_555 1_555
H34 C38 1_555 1_555
C39 C34 1_555 1_555
H35 C39 1_555 1_555
C40 P2 1_555 1_555
C41 C40 1_555 1_555
C42 C41 1_555 1_555
H36 C42 1_555 1_555
C43 C42 1_555 1_555
H37 C43 1_555 1_555
C44 C43 1_555 1_555
H38 C44 1_555 1_555
C45 C40 1_555 1_555
H39 C45 1_555 1_555
C46 C41 1_555 1_555
H40 C46 1_555 1_555
C47 N3 1_555 1_555
H41 C47 1_555 1_555
C48 C47 1_555 1_555
H42 C48 1_555 1_555
H43 C48 1_555 1_555
C49 C48 1_555 1_555
H44 C49 1_555 1_555
H45 C49 1_555 1_555
C50 C49 1_555 1_555
H46 C50 1_555 1_555
H47 C50 1_555 1_555
C51 C50 1_555 1_555
H48 C51 1_555 1_555
H49 C51 1_555 1_555
C52 N4 1_555 1_555
H50 C52 1_555 1_555
C53 H51 1_555 1_555
Cl4 C54 1_555 1_555
Cl5 C54 1_555 1_555
C54 H52 1_555 1_555
Cl6 C54 1_555 1_555
C5 C6 1_555 1_555
C12 C13 1_555 1_555
C18 C19 1_555 1_555
C24 C25 1_555 1_555
C32 C33 1_555 1_555
C38 C39 1_555 1_555
C44 C45 1_555 1_555
C47 C52 1_555 1_555
C51 C52 1_555 1_555

#END
