
#######################################################################
#
#                 Cambridge Crystallographic Data Centre
#                                CCDC 
#
#######################################################################
#
# If this CIF has been generated from an entry in the Cambridge 
# Structural Database, then it will include bibliographic, chemical, 
# crystal, experimental, refinement or atomic coordinate data resulting 
# from the CCDC's data processing and validation procedures.
#
#######################################################################

data_WASDIF
_chemical_formula_moiety         'C15 H10 Br1 N3 O4'
_chemical_name_systematic        
"Methyl 6'-amino-5-bromo-5'-cyano-2-oxo-1,2-dihydrospiro[indole-3,4'-pyran]-2'-carboxylate"
_symmetry_cell_setting           monoclinic
_symmetry_space_group_name_H-M   'C 2'
_symmetry_Int_Tables_number      5
_space_group_name_Hall           'C 2y'
loop_
_symmetry_equiv_pos_site_id
_symmetry_equiv_pos_as_xyz
1 x,y,z
2 -x,y,-z
3 1/2+x,1/2+y,z
4 1/2-x,1/2+y,-z
_cell_length_a                   30.213(17)
_cell_length_b                   10.702(6)
_cell_length_c                   12.031(7)
_cell_angle_alpha                90
_cell_angle_beta                 100.427(8)
_cell_angle_gamma                90
_cell_volume                     3825.86
_exptl_crystal_colour            colorless
_exptl_crystal_description       block
_cell_formula_units_Z            8
loop_
_atom_site_label
_atom_site_type_symbol
_atom_site_fract_x
_atom_site_fract_y
_atom_site_fract_z
Br1 Br 0.95616(4) 1.07368(16) 0.63457(10)
C1 C 0.9210(3) 1.0462(10) 0.4027(8)
H1 H 0.9180 0.9628 0.4220
C2 C 0.9400(3) 1.1364(13) 0.4850(7)
C3 C 0.9432(3) 1.2541(11) 0.4590(9)
H2 H 0.9542 1.3106 0.5160
C4 C 0.9312(3) 1.2962(11) 0.3532(9)
H3 H 0.9341 1.3802 0.3362
C5 C 0.9146(3) 1.2121(10) 0.2709(8)
C6 C 0.9079(2) 1.0855(9) 0.2991(8)
C7 C 0.8879(3) 1.0201(8) 0.1890(6)
C8 C 0.8856(3) 1.1215(9) 0.0979(10)
C9 C 0.8424(3) 0.9707(9) 0.1929(7)
H4 H 0.8212 1.0279 0.2089
C10 C 0.8292(3) 0.8586(9) 0.1767(7)
C11 C 0.7829(3) 0.8068(14) 0.1883(9)
C12 C 0.7308(4) 0.6527(10) 0.1788(11)
H5 H 0.7099 0.7209 0.1654
H6 H 0.7329 0.6238 0.2551
H7 H 0.7206 0.5858 0.1274
C13 C 0.9003(3) 0.7902(9) 0.1568(7)
C14 C 0.9150(3) 0.9058(9) 0.1630(8)
C15 C 0.9606(4) 0.9240(9) 0.1532(8)
N1 N 0.8993(3) 1.2315(8) 0.1600(8)
H15 H 0.8981 1.3044 0.1295
N2 N 0.9996(3) 0.9416(8) 0.1377(8)
N3 N 0.9234(2) 0.6861(6) 0.1424(5)
H16 H 0.9513 0.6911 0.1361
H17 H 0.9104 0.6144 0.1395
O1 O 0.87513(19) 1.1128(5) -0.0034(5)
O2 O 0.7567(2) 0.8816(7) 0.2216(6)
O3 O 0.77486(19) 0.6947(6) 0.1615(6)
O4 O 0.85633(16) 0.7601(5) 0.1597(5)
Br2 Br 0.83700(5) 0.52647(15) 0.37089(10)
C16 C 0.8503(3) 0.5369(13) 0.6095(9)
H8 H 0.8470 0.6224 0.5966
C17 C 0.8455(3) 0.4590(15) 0.5184(10)
C18 C 0.8488(3) 0.3255(14) 0.5463(11)
H9 H 0.8446 0.2673 0.4879
C19 C 0.8570(3) 0.2883(11) 0.6447(9)
H10 H 0.8600 0.2029 0.6582
C20 C 0.8616(3) 0.3635(9) 0.7297(9)
C21 C 0.8595(3) 0.4957(8) 0.7184(7)
C22 C 0.8626(2) 0.5610(8) 0.8276(6)
C23 C 0.8756(3) 0.4530(8) 0.9094(10)
C24 C 0.8170(2) 0.6080(10) 0.8418(7)
H11 H 0.7933 0.5515 0.8263
C25 C 0.8077(3) 0.7144(8) 0.8722(7)
C26 C 0.7596(3) 0.7613(11) 0.8882(8)
C27 C 0.7122(3) 0.9049(10) 0.9335(8)
H12 H 0.6974 0.9502 0.8684
H13 H 0.7146 0.9570 0.9993
H14 H 0.6951 0.8315 0.9436
C28 C 0.8813(3) 0.7922(9) 0.8697(7)
C29 C 0.8950(3) 0.6789(10) 0.8473(7)
C30 C 0.9404(3) 0.6566(8) 0.8395(8)
N4 N 0.8733(2) 0.3427(7) 0.8503(7)
H18 H 0.8781 0.2703 0.8812
N5 N 0.9754(3) 0.6402(9) 0.8355(9)
N6 N 0.9041(2) 0.8942(7) 0.8783(6)
H19 H 0.9317 0.8934 0.8692
H20 H 0.8918 0.9632 0.8933
O5 O 0.88634(19) 0.4599(5) 1.0152(5)
O6 O 0.7309(2) 0.6849(7) 0.8724(8)
O7 O 0.75663(18) 0.8687(6) 0.9174(5)
O8 O 0.83794(19) 0.8149(5) 0.8868(5)
loop_
_geom_bond_atom_site_label_1
_geom_bond_atom_site_label_2
_geom_bond_site_symmetry_1
_geom_bond_site_symmetry_2
Br1 C2 1_555 1_555
Br2 C17 1_555 1_555
C1 H1 1_555 1_555
C2 C1 1_555 1_555
C3 C2 1_555 1_555
H2 C3 1_555 1_555
C4 C3 1_555 1_555
H3 C4 1_555 1_555
C5 C4 1_555 1_555
C6 C1 1_555 1_555
C7 C6 1_555 1_555
C8 C7 1_555 1_555
C9 C7 1_555 1_555
H4 C9 1_555 1_555
C10 C9 1_555 1_555
C11 C10 1_555 1_555
C12 H5 1_555 1_555
H6 C12 1_555 1_555
H7 C12 1_555 1_555
C13 C14 1_555 1_555
C14 C7 1_555 1_555
C15 C14 1_555 1_555
C16 H8 1_555 1_555
C17 C16 1_555 1_555
C18 C17 1_555 1_555
H9 C18 1_555 1_555
C19 C18 1_555 1_555
H10 C19 1_555 1_555
C20 C19 1_555 1_555
C21 C16 1_555 1_555
C22 C21 1_555 1_555
C23 C22 1_555 1_555
C24 C22 1_555 1_555
H11 C24 1_555 1_555
C25 C24 1_555 1_555
C26 C25 1_555 1_555
C27 H12 1_555 1_555
H13 C27 1_555 1_555
H14 C27 1_555 1_555
C28 C29 1_555 1_555
C29 C22 1_555 1_555
C30 C29 1_555 1_555
N1 C5 1_555 1_555
H15 N1 1_555 1_555
N2 C15 1_555 1_555
N3 C13 1_555 1_555
H16 N3 1_555 1_555
H17 N3 1_555 1_555
N4 C20 1_555 1_555
H18 N4 1_555 1_555
N5 C30 1_555 1_555
N6 C28 1_555 1_555
H19 N6 1_555 1_555
H20 N6 1_555 1_555
O1 C8 1_555 1_555
O2 C11 1_555 1_555
O3 C11 1_555 1_555
O4 C10 1_555 1_555
O5 C23 1_555 1_555
O6 C26 1_555 1_555
O7 C26 1_555 1_555
O8 C25 1_555 1_555
C5 C6 1_555 1_555
C8 N1 1_555 1_555
C12 O3 1_555 1_555
C13 O4 1_555 1_555
C20 C21 1_555 1_555
C23 N4 1_555 1_555
C27 O7 1_555 1_555
C28 O8 1_555 1_555

#END
