
#######################################################################
#
#                 Cambridge Crystallographic Data Centre
#                                CCDC 
#
#######################################################################
#
# If this CIF has been generated from an entry in the Cambridge 
# Structural Database, then it will include bibliographic, chemical, 
# crystal, experimental, refinement or atomic coordinate data resulting 
# from the CCDC's data processing and validation procedures.
#
#######################################################################

data_WASKAF
_chemical_formula_moiety         'C17 H16 N3 1+,0.5(H2 O1),Cl1 1-'
_chemical_name_systematic        
'2-{[2-(4-methylphenyl)hydrazinylidene]methyl}quinolinium chloride hemihydrate'
_symmetry_cell_setting           monoclinic
_symmetry_space_group_name_H-M   'P 21/a'
_symmetry_Int_Tables_number      14
_space_group_name_Hall           '-P 2yab'
loop_
_symmetry_equiv_pos_site_id
_symmetry_equiv_pos_as_xyz
1 x,y,z
2 1/2-x,1/2+y,-z
3 -x,-y,-z
4 1/2+x,1/2-y,z
_cell_length_a                   13.0070(10)
_cell_length_b                   17.3207(9)
_cell_length_c                   14.7900(11)
_cell_angle_alpha                90
_cell_angle_beta                 103.129(6)
_cell_angle_gamma                90
_cell_volume                     3244.95
_exptl_crystal_colour            orange
_exptl_crystal_description       plate
_cell_formula_units_Z            8
loop_
_atom_site_label
_atom_site_type_symbol
_atom_site_fract_x
_atom_site_fract_y
_atom_site_fract_z
N1 N 0.2668(2) 0.47150(17) 0.47890(18)
N2 N 0.3634(2) 0.45027(16) 0.52253(19)
N3 N 0.5275(2) 0.46583(16) 0.74873(18)
C1 C 0.3944(2) 0.4720(2) 0.6084(2)
C2 C 0.4989(3) 0.44884(19) 0.6576(2)
C3 C 0.6241(2) 0.4454(2) 0.8052(2)
C4 C 0.6965(2) 0.40636(19) 0.7649(2)
C5 C 0.6672(2) 0.38790(18) 0.6690(2)
C6 C 0.5708(2) 0.4084(2) 0.6170(2)
C7 C 0.7951(3) 0.38575(19) 0.8225(2)
C8 C 0.8170(3) 0.4037(2) 0.9148(2)
C9 C 0.7428(3) 0.4429(2) 0.9536(2)
C10 C 0.6467(3) 0.4641(2) 0.8997(2)
C11 C 0.2257(2) 0.4504(2) 0.3861(2)
C12 C 0.1252(3) 0.4781(2) 0.3440(2)
C13 C 0.0823(3) 0.4595(2) 0.2517(2)
C14 C 0.1364(3) 0.4140(2) 0.2011(2)
C15 C 0.2362(3) 0.3873(2) 0.2452(2)
C16 C 0.2805(3) 0.4044(2) 0.3370(2)
C17 C 0.0897(3) 0.3946(3) 0.0999(2)
H1 H 0.35020 0.50200 0.63780
H2 H 0.227(2) 0.5010(18) 0.506(2)
H3 H 0.481(2) 0.484(2) 0.778(2)
H4 H 0.71540 0.36100 0.64080
H5 H 0.55190 0.39540 0.55300
H6 H 0.84610 0.35950 0.79700
H7 H 0.88320 0.38950 0.95320
H8 H 0.75950 0.45490 1.01800
H9 H 0.59660 0.49070 0.92600
H10 H 0.08680 0.50910 0.37790
H11 H 0.01430 0.47850 0.22260
H12 H 0.27480 0.35650 0.21120
H13 H 0.34810 0.38460 0.36610
H14 H 0.12030 0.34610 0.08400
H15 H 0.10580 0.43620 0.06040
H16 H 0.01300 0.38890 0.09010
N4 N 0.2466(2) 0.31007(16) 0.62310(19)
N5 N 0.2095(2) 0.27733(16) 0.54138(18)
N6 N -0.0032(2) 0.29910(16) 0.34528(19)
C18 C 0.1226(3) 0.3050(2) 0.4899(2)
C19 C 0.0859(3) 0.27046(19) 0.3996(2)
C20 C -0.0461(2) 0.2739(2) 0.2558(2)
C21 C 0.0044(3) 0.2144(2) 0.2199(2)
C22 C 0.0981(3) 0.1824(2) 0.2773(2)
C23 C 0.1376(3) 0.2102(2) 0.3640(2)
C24 C -0.0381(3) 0.1890(2) 0.1280(2)
C25 C -0.1280(3) 0.2234(2) 0.0772(3)
C26 C -0.1776(3) 0.2831(2) 0.1151(2)
C27 C -0.1379(3) 0.3091(2) 0.2033(2)
C28 C 0.3423(2) 0.28377(19) 0.6803(2)
C29 C 0.3732(3) 0.31526(19) 0.7689(2)
C30 C 0.4664(3) 0.2903(2) 0.8274(2)
C31 C 0.5280(3) 0.2334(2) 0.8008(2)
C32 C 0.4958(3) 0.2029(2) 0.7113(2)
C33 C 0.4038(2) 0.22768(19) 0.6507(2)
C34 C 0.6295(3) 0.2058(3) 0.8655(3)
H20 H 0.214(2) 0.3505(15) 0.640(2)
H21 H -0.039(2) 0.3340(17) 0.369(2)
H22 H 0.08520 0.34590 0.51080
H23 H 0.13320 0.14120 0.25440
H24 H 0.20060 0.18880 0.40090
H25 H -0.00490 0.14860 0.10190
H26 H -0.15680 0.20660 0.01550
H27 H -0.23990 0.30580 0.07890
H28 H -0.17140 0.34990 0.22860
H29 H 0.33100 0.35350 0.78910
H30 H 0.48830 0.31280 0.88730
H31 H 0.53780 0.16430 0.69140
H32 H 0.38320 0.20660 0.59000
H33 H 0.64490 0.15300 0.84870
H34 H 0.62110 0.20670 0.92970
H35 H 0.68770 0.23990 0.85960
Cl1 Cl 0.14920(7) 0.01619(5) 0.15414(6)
Cl2 Cl 0.37248(7) 0.08993(5) 0.43919(6)
O1 O 0.6617(2) 0.05428(15) 0.69373(19)
H39 H 0.709(3) 0.037(2) 0.738(2)
H40 H 0.639(3) 0.0180(18) 0.656(2)
H17? H 0.03910 0.43470 0.07230
H18? H 0.05360 0.34460 0.09590
H19? H 0.14640 0.39190 0.06620
H36? H 0.65760 0.24670 0.90990
H37? H 0.68140 0.19300 0.82900
H38? H 0.61480 0.15980 0.89910
loop_
_geom_bond_atom_site_label_1
_geom_bond_atom_site_label_2
_geom_bond_site_symmetry_1
_geom_bond_site_symmetry_2
N1 N2 1_555 1_555
N2 C1 1_555 1_555
N3 C2 1_555 1_555
C1 C2 1_555 1_555
C2 C6 1_555 1_555
C3 N3 1_555 1_555
C4 C3 1_555 1_555
C5 C4 1_555 1_555
C6 C5 1_555 1_555
C7 C4 1_555 1_555
C8 C7 1_555 1_555
C9 C8 1_555 1_555
C10 C3 1_555 1_555
C11 N1 1_555 1_555
C12 C11 1_555 1_555
C13 C12 1_555 1_555
C14 C13 1_555 1_555
C15 C14 1_555 1_555
C16 C11 1_555 1_555
C17 C14 1_555 1_555
H1 C1 1_555 1_555
H2 N1 1_555 1_555
H3 N3 1_555 1_555
H4 C5 1_555 1_555
H5 C6 1_555 1_555
H6 C7 1_555 1_555
H7 C8 1_555 1_555
H8 C9 1_555 1_555
H9 C10 1_555 1_555
H10 C12 1_555 1_555
H11 C13 1_555 1_555
H12 C15 1_555 1_555
H13 C16 1_555 1_555
H14 C17 1_555 1_555
H15 C17 1_555 1_555
H16 C17 1_555 1_555
N4 N5 1_555 1_555
N5 C18 1_555 1_555
N6 C19 1_555 1_555
C18 C19 1_555 1_555
C19 C23 1_555 1_555
C20 N6 1_555 1_555
C21 C20 1_555 1_555
C22 C21 1_555 1_555
C23 C22 1_555 1_555
C24 C21 1_555 1_555
C25 C24 1_555 1_555
C26 C25 1_555 1_555
C27 C20 1_555 1_555
C28 N4 1_555 1_555
C29 C28 1_555 1_555
C30 C29 1_555 1_555
C31 C30 1_555 1_555
C32 C31 1_555 1_555
C33 C28 1_555 1_555
C34 C31 1_555 1_555
H20 N4 1_555 1_555
H21 N6 1_555 1_555
H22 C18 1_555 1_555
H23 C22 1_555 1_555
H24 C23 1_555 1_555
H25 C24 1_555 1_555
H26 C25 1_555 1_555
H27 C26 1_555 1_555
H28 C27 1_555 1_555
H29 C29 1_555 1_555
H30 C30 1_555 1_555
H31 C32 1_555 1_555
H32 C33 1_555 1_555
H33 C34 1_555 1_555
H34 C34 1_555 1_555
H35 C34 1_555 1_555
O1 H39 1_555 1_555
H40 O1 1_555 1_555
C9 C10 1_555 1_555
C15 C16 1_555 1_555
C26 C27 1_555 1_555
C32 C33 1_555 1_555

#END
