
#######################################################################
#
#                 Cambridge Crystallographic Data Centre
#                                CCDC 
#
#######################################################################
#
# If this CIF has been generated from an entry in the Cambridge 
# Structural Database, then it will include bibliographic, chemical, 
# crystal, experimental, refinement or atomic coordinate data resulting 
# from the CCDC's data processing and validation procedures.
#
#######################################################################

data_WASRAJ01
_chemical_formula_moiety         'C6 H6 N4 O4'
_chemical_name_systematic        2,4-Dinitrophenylhydrazine
_symmetry_cell_setting           monoclinic
_symmetry_space_group_name_H-M   'P 21/c'
_symmetry_Int_Tables_number      14
_space_group_name_Hall           '-P 2ybc'
loop_
_symmetry_equiv_pos_site_id
_symmetry_equiv_pos_as_xyz
1 x,y,z
2 -x,1/2+y,1/2-z
3 -x,-y,-z
4 x,1/2-y,1/2+z
_cell_length_a                   4.7917(2)
_cell_length_b                   11.5905(6)
_cell_length_c                   14.0496(5)
_cell_angle_alpha                90
_cell_angle_beta                 98.372(3)
_cell_angle_gamma                90
_cell_volume                     771.974
_exptl_crystal_colour            orange
_exptl_crystal_description       plate
_cell_formula_units_Z            4
_exptl_crystal_recrystallization_method ethanol
loop_
_atom_site_label
_atom_site_type_symbol
_atom_site_fract_x
_atom_site_fract_y
_atom_site_fract_z
O1 O 0.7714(3) 0.38510(13) 0.26608(10)
O2 O 0.4354(3) 0.48759(13) 0.31092(11)
O3 O 0.0413(3) 0.39687(14) 0.59366(11)
O4 O 0.2072(3) 0.25219(14) 0.68243(10)
N1 N 0.8872(4) 0.18027(15) 0.33876(11)
N2 N 0.5923(4) 0.40231(15) 0.32000(11)
N3 N 0.1951(4) 0.31214(16) 0.60898(12)
N4 N 1.0180(4) 0.07058(15) 0.34824(12)
C1 C 0.7212(4) 0.21498(17) 0.40275(13)
C2 C 0.5699(4) 0.32132(17) 0.39589(13)
C3 C 0.3937(4) 0.35209(18) 0.46204(13)
C4 C 0.3720(4) 0.27957(17) 0.53799(13)
C5 C 0.5205(4) 0.17504(18) 0.54867(13)
C6 C 0.6891(5) 0.14360(18) 0.48299(14)
H1 H 0.9143 0.2259 0.2909
H2 H 0.2900 0.4222 0.4549
H3 H 0.5036 0.1261 0.6018
H4 H 0.7876 0.0723 0.4909
H5 H 0.9208 0.0275 0.2950
H6 H 1.2186 0.0905 0.3511
loop_
_geom_bond_atom_site_label_1
_geom_bond_atom_site_label_2
_geom_bond_site_symmetry_1
_geom_bond_site_symmetry_2
O1 N2 1_555 1_555
O2 N2 1_555 1_555
O3 N3 1_555 1_555
O4 N3 1_555 1_555
N1 N4 1_555 1_555
N2 C2 1_555 1_555
N3 C4 1_555 1_555
N4 H5 1_555 1_555
C1 N1 1_555 1_555
C2 C1 1_555 1_555
C3 C2 1_555 1_555
C4 C3 1_555 1_555
C5 C4 1_555 1_555
C6 C1 1_555 1_555
H1 N1 1_555 1_555
H2 C3 1_555 1_555
H3 C5 1_555 1_555
H4 C6 1_555 1_555
H6 N4 1_555 1_555
C5 C6 1_555 1_555

#END
