
#######################################################################
#
#                 Cambridge Crystallographic Data Centre
#                                CCDC 
#
#######################################################################
#
# If this CIF has been generated from an entry in the Cambridge 
# Structural Database, then it will include bibliographic, chemical, 
# crystal, experimental, refinement or atomic coordinate data resulting 
# from the CCDC's data processing and validation procedures.
#
#######################################################################

data_WASTEP01
_chemical_name_common            Risperidone
_chemical_formula_moiety         'C23 H27 F1 N4 O2'
_chemical_name_systematic        
3-(2-(4-(6-Fluoro-1,2-benzisoxazol-3-yl)piperidino)ethyl)-6,7,8,9-tetrahydro-2-methyl-4H-pyrido(1,2-a)pyrimidin-4-one
_chemical_properties_biological  'antipsychotic agent'
_symmetry_cell_setting           triclinic
_symmetry_space_group_name_H-M   'P -1'
_symmetry_Int_Tables_number      2
_space_group_name_Hall           '-P 1'
loop_
_symmetry_equiv_pos_site_id
_symmetry_equiv_pos_as_xyz
1 x,y,z
2 -x,-y,-z
_cell_length_a                   9.938(4)
_cell_length_b                   11.016(6)
_cell_length_c                   20.274(9)
_cell_angle_alpha                75.240(17)
_cell_angle_beta                 79.514(13)
_cell_angle_gamma                81.397(17)
_cell_volume                     2097.98
_exptl_crystal_colour            colorless
_exptl_crystal_description       needle
_cell_formula_units_Z            4
_exptl_crystal_recrystallization_method ethanol/water
loop_
_atom_site_label
_atom_site_type_symbol
_atom_site_fract_x
_atom_site_fract_y
_atom_site_fract_z
F1 F -0.43529(16) 0.6723(2) 0.31536(9)
O1 O 0.03428(19) 0.7445(2) 0.28246(11)
O2 O 0.8642(2) 0.2433(2) 0.50955(12)
N1 N 0.1514(2) 0.6612(2) 0.30565(13)
N2 N 0.4383(2) 0.3322(2) 0.44176(11)
N3 N 0.8983(2) 0.0682(2) 0.59419(11)
N4 N 0.7159(2) -0.0373(2) 0.66190(12)
C1 C -0.0785(2) 0.6807(2) 0.30832(13)
C2 C -0.2100(2) 0.7236(2) 0.29494(13)
C3 C -0.3023(2) 0.6385(2) 0.32612(13)
C4 C -0.2729(3) 0.5213(3) 0.36887(14)
C5 C -0.1387(2) 0.4821(2) 0.37953(13)
C6 C -0.0410(2) 0.5630(2) 0.34881(12)
C7 C 0.1060(2) 0.5581(3) 0.34299(13)
C8 C 0.2026(2) 0.4476(2) 0.37271(13)
C9 C 0.3473(2) 0.4484(3) 0.33703(14)
C10 C 0.4381(2) 0.3350(3) 0.36954(14)
C11 C 0.3006(2) 0.3224(3) 0.47846(14)
C12 C 0.2011(2) 0.4343(3) 0.44947(13)
C13 C 0.5353(2) 0.2298(3) 0.47353(14)
C14 C 0.5714(2) 0.2546(3) 0.53857(16)
C15 C 0.6675(2) 0.1509(2) 0.57559(13)
C16 C 0.8125(2) 0.1618(3) 0.55620(14)
C17 C 1.0484(2) 0.0799(3) 0.57326(17)
C18 C 1.1349(3) -0.0112(4) 0.6192(2)
C19 C 1.0864(3) -0.1243(5) 0.6548(2)
C20 C 0.9447(2) -0.1236(3) 0.68401(18)
C21 C 0.8480(2) -0.0262(2) 0.64460(14)
C22 C 0.6262(2) 0.0524(2) 0.62672(14)
C23 C 0.4794(2) 0.0305(3) 0.64950(18)
H1 H -0.2339 0.8026 0.2674
H2 H -0.3423 0.4699 0.3900
H3 H -0.1149 0.4028 0.4069
H4 H 0.1689 0.3715 0.3680
H5 H 0.3825 0.5243 0.3395
H6 H 0.3489 0.4480 0.2891
H7 H 0.5313 0.3390 0.3450
H8 H 0.4040 0.2588 0.3666
H9 H 0.3012 0.3195 0.5266
H10 H 0.2696 0.2454 0.4747
H11 H 0.2278 0.5109 0.4563
H12 H 0.1088 0.4217 0.4737
H13 H 0.4939 0.1512 0.4855
H14 H 0.6188 0.2230 0.4408
H15 H 0.4868 0.2647 0.5701
H16 H 0.6148 0.3323 0.5257
H17 H 1.0646 0.1645 0.5733
H18 H 1.0751 0.0663 0.5270
H19 H 1.1513 0.0308 0.6532
H20 H 1.2215 -0.0310 0.5911
H21 H 1.1395 -0.1593 0.6923
H22 H 1.1037 -0.1796 0.6231
H23 H 0.9354 -0.1090 0.7299
H24 H 0.9172 -0.2061 0.6873
H25 H 0.4515 0.0417 0.6957
H26 H 0.4680 -0.0539 0.6485
H27 H 0.4237 0.0897 0.6191
F2 F 0.19762(16) 0.29901(19) 0.15606(10)
O3 O 0.63702(19) 0.2636(2) 0.22463(10)
O4 O 1.4669(2) 0.7711(2) -0.00742(10)
N5 N 0.7415(2) 0.3495(2) 0.20516(12)
N6 N 1.0271(2) 0.6695(2) 0.05724(11)
N7 N 1.5015(2) 0.9463(2) -0.09250(11)
N8 N 1.3358(2) 1.0453(2) -0.16215(12)
C24 C 0.5314(2) 0.3199(2) 0.18976(13)
C25 C 0.4101(2) 0.2692(2) 0.19489(13)
C26 C 0.3195(2) 0.3432(3) 0.15407(16)
C27 C 0.3435(2) 0.4596(3) 0.11143(16)
C28 C 0.4633(2) 0.5079(2) 0.10857(14)
C29 C 0.5598(2) 0.4355(2) 0.14898(13)
C30 C 0.6959(2) 0.4485(2) 0.16125(13)
C31 C 0.7784(2) 0.5574(2) 0.13248(13)
C32 C 0.9109(2) 0.5410(3) 0.16283(13)
C33 C 0.9924(2) 0.6534(3) 0.13153(13)
C34 C 0.9026(2) 0.6922(3) 0.02545(14)
C35 C 0.8139(2) 0.5836(3) 0.05403(13)
C36 C 1.1166(2) 0.7701(3) 0.02606(14)
C37 C 1.2048(2) 0.7494(2) -0.04044(13)
C38 C 1.2905(2) 0.8555(2) -0.07606(12)
C39 C 1.4231(2) 0.8508(2) -0.05536(13)
C40 C 1.6400(2) 0.9392(3) -0.07317(16)
C41 C 1.7334(3) 1.0210(4) -0.1259(2)
C42 C 1.6693(3) 1.1427(5) -0.1558(2)
C43 C 1.5467(3) 1.1398(3) -0.18280(19)
C44 C 1.4552(2) 1.0397(3) -0.14375(14)
C45 C 1.2545(2) 0.9510(2) -0.12871(14)
C46 C 1.1188(2) 0.9636(3) -0.15511(18)
H28 H 0.3914 0.1913 0.2237
H29 H 0.2779 0.5051 0.0846
H30 H 0.4805 0.5867 0.0805
H31 H 0.7223 0.6323 0.1440
H32 H 0.8883 0.5326 0.2123
H33 H 0.9665 0.4652 0.1536
H34 H 0.9377 0.7290 0.1415
H35 H 1.0765 0.6396 0.1516
H36 H 0.8499 0.7693 0.0345
H37 H 0.9284 0.7015 -0.0239
H38 H 0.7292 0.6051 0.0342
H39 H 0.8636 0.5082 0.0413
H40 H 1.0598 0.8502 0.0162
H41 H 1.1764 0.7722 0.0585
H42 H 1.1449 0.7412 -0.0715
H43 H 1.2659 0.6720 -0.0298
H44 H 1.6294 0.9652 -0.0301
H45 H 1.6818 0.8524 -0.0669
H46 H 1.8083 1.0328 -0.1042
H47 H 1.7700 0.9779 -0.1626
H48 H 1.6459 1.1909 -0.1206
H49 H 1.7348 1.1845 -0.1931
H50 H 1.4926 1.2212 -0.1844
H51 H 1.5742 1.1276 -0.2293
H52 H 1.0487 0.9349 -0.1173
H53 H 1.1278 0.9135 -0.1884
H54 H 1.0938 1.0506 -0.1764
loop_
_geom_bond_atom_site_label_1
_geom_bond_atom_site_label_2
_geom_bond_site_symmetry_1
_geom_bond_site_symmetry_2
F1 C3 1_555 1_555
O1 N1 1_555 1_555
O2 C16 1_555 1_555
N1 C7 1_555 1_555
N2 C10 1_555 1_555
N3 C16 1_555 1_555
N4 C21 1_555 1_555
C1 O1 1_555 1_555
C2 C1 1_555 1_555
C3 C2 1_555 1_555
C4 C3 1_555 1_555
C5 C4 1_555 1_555
C6 C1 1_555 1_555
C7 C6 1_555 1_555
C8 C7 1_555 1_555
C9 C8 1_555 1_555
C10 C9 1_555 1_555
C11 N2 1_555 1_555
C12 C8 1_555 1_555
C13 N2 1_555 1_555
C14 C13 1_555 1_555
C15 C14 1_555 1_555
C16 C15 1_555 1_555
C17 N3 1_555 1_555
C18 C17 1_555 1_555
C19 C18 1_555 1_555
C20 C19 1_555 1_555
C21 N3 1_555 1_555
C22 N4 1_555 1_555
C23 C22 1_555 1_555
H1 C2 1_555 1_555
H2 C4 1_555 1_555
H3 C5 1_555 1_555
H4 C8 1_555 1_555
H5 C9 1_555 1_555
H6 C9 1_555 1_555
H7 C10 1_555 1_555
H8 C10 1_555 1_555
H9 C11 1_555 1_555
H10 C11 1_555 1_555
H11 C12 1_555 1_555
H12 C12 1_555 1_555
H13 C13 1_555 1_555
H14 C13 1_555 1_555
H15 C14 1_555 1_555
H16 C14 1_555 1_555
H17 C17 1_555 1_555
H18 C17 1_555 1_555
H19 C18 1_555 1_555
H20 C18 1_555 1_555
H21 C19 1_555 1_555
H22 C19 1_555 1_555
H23 C20 1_555 1_555
H24 C20 1_555 1_555
H25 C23 1_555 1_555
H26 C23 1_555 1_555
H27 C23 1_555 1_555
F2 C26 1_555 1_555
O3 N5 1_555 1_555
O4 C39 1_555 1_555
N5 C30 1_555 1_555
N6 C33 1_555 1_555
N7 C39 1_555 1_555
N8 C44 1_555 1_555
C24 O3 1_555 1_555
C25 C24 1_555 1_555
C26 C25 1_555 1_555
C27 C26 1_555 1_555
C28 C27 1_555 1_555
C29 C24 1_555 1_555
C30 C29 1_555 1_555
C31 C30 1_555 1_555
C32 C31 1_555 1_555
C33 C32 1_555 1_555
C34 N6 1_555 1_555
C35 C31 1_555 1_555
C36 N6 1_555 1_555
C37 C36 1_555 1_555
C38 C37 1_555 1_555
C39 C38 1_555 1_555
C40 N7 1_555 1_555
C41 C40 1_555 1_555
C42 C41 1_555 1_555
C43 C42 1_555 1_555
C44 N7 1_555 1_555
C45 N8 1_555 1_555
C46 C45 1_555 1_555
H28 C25 1_555 1_555
H29 C27 1_555 1_555
H30 C28 1_555 1_555
H31 C31 1_555 1_555
H32 C32 1_555 1_555
H33 C32 1_555 1_555
H34 C33 1_555 1_555
H35 C33 1_555 1_555
H36 C34 1_555 1_555
H37 C34 1_555 1_555
H38 C35 1_555 1_555
H39 C35 1_555 1_555
H40 C36 1_555 1_555
H41 C36 1_555 1_555
H42 C37 1_555 1_555
H43 C37 1_555 1_555
H44 C40 1_555 1_555
H45 C40 1_555 1_555
H46 C41 1_555 1_555
H47 C41 1_555 1_555
H48 C42 1_555 1_555
H49 C42 1_555 1_555
H50 C43 1_555 1_555
H51 C43 1_555 1_555
H52 C46 1_555 1_555
H53 C46 1_555 1_555
H54 C46 1_555 1_555
C5 C6 1_555 1_555
C11 C12 1_555 1_555
C15 C22 1_555 1_555
C20 C21 1_555 1_555
C28 C29 1_555 1_555
C34 C35 1_555 1_555
C38 C45 1_555 1_555
C43 C44 1_555 1_555

#END
