
#######################################################################
#
#                 Cambridge Crystallographic Data Centre
#                                CCDC 
#
#######################################################################
#
# If this CIF has been generated from an entry in the Cambridge 
# Structural Database, then it will include bibliographic, chemical, 
# crystal, experimental, refinement or atomic coordinate data resulting 
# from the CCDC's data processing and validation procedures.
#
#######################################################################

data_WASYEV
_chemical_formula_moiety         'C17 H18 N2 O3'
_chemical_name_systematic        
(+)-2-(2-((2S,7aS)-2,3,5,6,7,7a-Hexahydro-3-oxo-1H-pyrrolizin-2-yl)ethyl)-1H-isoindole-1,3(2H)-dione
_symmetry_cell_setting           orthorhombic
_symmetry_space_group_name_H-M   'P 21 21 21'
_symmetry_Int_Tables_number      19
_space_group_name_Hall           'P 2ac 2ab'
loop_
_symmetry_equiv_pos_site_id
_symmetry_equiv_pos_as_xyz
1 x,y,z
2 1/2-x,-y,1/2+z
3 -x,1/2+y,1/2-z
4 1/2+x,1/2-y,-z
_cell_length_a                   7.8001(2)
_cell_length_b                   8.7746(2)
_cell_length_c                   22.0016(5)
_cell_angle_alpha                90
_cell_angle_beta                 90
_cell_angle_gamma                90
_cell_volume                     1505.85
_exptl_crystal_colour            colorless
_chemical_melting_point          106-109deg.C
_cell_formula_units_Z            4
_exptl_crystal_recrystallization_method hexane
loop_
_atom_site_label
_atom_site_type_symbol
_atom_site_fract_x
_atom_site_fract_y
_atom_site_fract_z
C1 C 1.4305(2) 0.7227(2) 0.63666(7)
H1 H 1.3741 0.7670 0.6010
H2 H 1.4466 0.6132 0.6299
C2 C 1.6015(2) 0.8015(2) 0.64947(8)
H3 H 1.6891 0.7270 0.6611
H4 H 1.6414 0.8574 0.6136
C3 C 1.5640(2) 0.9109(2) 0.70188(8)
H5 H 1.6674 0.9305 0.7259
H6 H 1.5187 1.0080 0.6868
C4 C 1.4302(2) 0.82620(18) 0.73908(7)
H7 H 1.4863 0.7495 0.7654
C5 C 1.2964(2) 0.9158(2) 0.77530(8)
H8 H 1.3015 1.0244 0.7651
H9 H 1.3157 0.9040 0.8191
C6 C 1.1227(2) 0.84820(18) 0.75705(7)
H10 H 1.0414 0.9326 0.7493
C7 C 1.1611(2) 0.7677(2) 0.69674(7)
N1 N 1.33047(17) 0.75083(15) 0.69192(5)
O1 O 1.05473(19) 0.7234(2) 0.65985(6)
C8 C 1.0414(2) 0.73730(19) 0.80195(7)
H11 H 0.9376 0.6937 0.7839
H12 H 1.1215 0.6537 0.8100
C9 C 0.9951(3) 0.8151(2) 0.86175(8)
H13 H 1.1006 0.8400 0.8838
H14 H 0.9349 0.9107 0.8531
N2 N 0.88700(17) 0.71890(15) 0.89989(6)
C10 C 0.94862(19) 0.60687(19) 0.93911(7)
C11 C 0.79619(19) 0.54115(17) 0.96979(7)
C12 C 0.65262(18) 0.61548(17) 0.94792(6)
C13 C 0.7092(2) 0.73060(18) 0.90292(7)
O2 O 0.62439(19) 0.81947(16) 0.87323(6)
O3 O 1.09828(15) 0.57387(18) 0.94546(7)
C14 C 0.7837(2) 0.4262(2) 1.01228(7)
H15 H 0.8814 0.3754 1.0269
C15 C 0.6197(2) 0.3887(2) 1.03262(7)
H16 H 0.6062 0.3111 1.0617
C16 C 0.4770(2) 0.4636(2) 1.01076(8)
H17 H 0.3681 0.4358 1.0252
C17 C 0.49043(19) 0.5789(2) 0.96798(8)
H18 H 0.3930 0.6300 0.9533
loop_
_geom_bond_atom_site_label_1
_geom_bond_atom_site_label_2
_geom_bond_site_symmetry_1
_geom_bond_site_symmetry_2
C1 H1 1_555 1_555
H2 C1 1_555 1_555
C2 C1 1_555 1_555
H3 C2 1_555 1_555
H4 C2 1_555 1_555
C3 C2 1_555 1_555
H5 C3 1_555 1_555
H6 C3 1_555 1_555
C4 C3 1_555 1_555
H7 C4 1_555 1_555
C5 C4 1_555 1_555
H8 C5 1_555 1_555
H9 C5 1_555 1_555
C6 C5 1_555 1_555
H10 C6 1_555 1_555
C7 C6 1_555 1_555
N1 C1 1_555 1_555
O1 C7 1_555 1_555
C8 C6 1_555 1_555
H11 C8 1_555 1_555
H12 C8 1_555 1_555
C9 C8 1_555 1_555
H13 C9 1_555 1_555
H14 C9 1_555 1_555
N2 C9 1_555 1_555
C10 N2 1_555 1_555
C11 C10 1_555 1_555
C12 C11 1_555 1_555
C13 N2 1_555 1_555
O2 C13 1_555 1_555
O3 C10 1_555 1_555
C14 C11 1_555 1_555
H15 C14 1_555 1_555
C15 C14 1_555 1_555
H16 C15 1_555 1_555
C16 C15 1_555 1_555
H17 C16 1_555 1_555
C17 C12 1_555 1_555
H18 C17 1_555 1_555
C4 N1 1_555 1_555
C7 N1 1_555 1_555
C12 C13 1_555 1_555
C16 C17 1_555 1_555

#END
