
#######################################################################
#
#                 Cambridge Crystallographic Data Centre
#                                CCDC 
#
#######################################################################
#
# If this CIF has been generated from an entry in the Cambridge 
# Structural Database, then it will include bibliographic, chemical, 
# crystal, experimental, refinement or atomic coordinate data resulting 
# from the CCDC's data processing and validation procedures.
#
#######################################################################

data_WATFIJ
_chemical_name_common            N-methylxanthevodine
_chemical_formula_moiety         'C17 H15 N1 O5'
_chemical_name_systematic        
4,11-dimethoxy-5-methyl-2H-[1,3]dioxolo[4,5-b]acridin-10(5H)-one
_symmetry_cell_setting           triclinic
_symmetry_space_group_name_H-M   'P -1'
_symmetry_Int_Tables_number      2
_space_group_name_Hall           '-P 1'
loop_
_symmetry_equiv_pos_site_id
_symmetry_equiv_pos_as_xyz
1 x,y,z
2 -x,-y,-z
_cell_length_a                   7.4136(8)
_cell_length_b                   7.9834(8)
_cell_length_c                   11.7999(11)
_cell_angle_alpha                97.516(8)
_cell_angle_beta                 90.170(8)
_cell_angle_gamma                94.349(8)
_cell_volume                     690.333
_exptl_crystal_colour            'pale yellow'
_exptl_crystal_description       block
_cell_formula_units_Z            2
_exptl_crystal_recrystallization_method water/methanol
loop_
_atom_site_label
_atom_site_type_symbol
_atom_site_fract_x
_atom_site_fract_y
_atom_site_fract_z
O1 O 0.0951(3) 0.7470(3) 1.49517(17)
O2 O 0.0344(3) 0.6643(2) 1.25502(18)
O3 O 0.5183(3) 1.3108(2) 1.24566(17)
O4 O 0.4177(3) 1.2602(3) 1.45255(16)
O5 O 0.2472(3) 0.9917(3) 1.58568(16)
N1 N 0.2205(3) 0.8829(3) 1.11184(18)
C1 C 0.1598(4) 0.8318(4) 1.6034(2)
H1 H 0.0587 0.8485 1.6559
H2 H 0.2455 0.7638 1.6368
C2 C 0.1697(3) 0.8404(3) 1.4153(2)
C3 C 0.1490(3) 0.8002(3) 1.2993(2)
C4 C 0.2326(3) 0.9170(3) 1.2306(2)
C5 C 0.2561(3) 1.0109(3) 1.0447(2)
C6 C 0.2086(4) 0.9896(4) 0.9273(2)
H3 H 0.1523 0.8859 0.8929
C7 C 0.2442(4) 1.1201(4) 0.8633(2)
H4 H 0.2113 1.1042 0.7854
C8 C 0.3283(4) 1.2755(4) 0.9114(2)
H5 H 0.3514 1.3639 0.8669
C9 C 0.3763(4) 1.2966(3) 1.0247(2)
H6 H 0.4331 1.4009 1.0577
C10 C 0.3428(3) 1.1665(3) 1.0927(2)
C11 C 0.4058(3) 1.1922(3) 1.2121(2)
C12 C 0.3247(3) 1.0714(3) 1.2843(2)
C13 C 0.3351(3) 1.1090(3) 1.4069(2)
C14 C 0.2596(4) 0.9878(3) 1.4687(2)
C15 C 0.0814(6) 0.5017(4) 1.2797(3)
H7 H 0.2092 0.4911 1.2659
H8 H 0.0110 0.4132 1.2307
H9 H 0.0558 0.4909 1.3590
C16 C 0.3803(4) 1.3245(4) 1.5684(3)
H10 H 0.2505 1.3187 1.5796
H11 H 0.4294 1.4413 1.5846
H12 H 0.4356 1.2569 1.6196
C17 C 0.1846(4) 0.7098(3) 1.0535(2)
H13 H 0.0557 0.6866 1.0390
H14 H 0.2262 0.6301 1.1013
H15 H 0.2483 0.6981 0.9815
loop_
_geom_bond_atom_site_label_1
_geom_bond_atom_site_label_2
_geom_bond_site_symmetry_1
_geom_bond_site_symmetry_2
O1 C1 1_555 1_555
O2 C3 1_555 1_555
O3 C11 1_555 1_555
O4 C13 1_555 1_555
O5 C1 1_555 1_555
N1 C4 1_555 1_555
C1 H1 1_555 1_555
H2 C1 1_555 1_555
C2 O1 1_555 1_555
C3 C2 1_555 1_555
C4 C3 1_555 1_555
C5 N1 1_555 1_555
C6 C5 1_555 1_555
H3 C6 1_555 1_555
C7 C6 1_555 1_555
H4 C7 1_555 1_555
C8 C7 1_555 1_555
H5 C8 1_555 1_555
C9 C8 1_555 1_555
H6 C9 1_555 1_555
C10 C5 1_555 1_555
C11 C10 1_555 1_555
C12 C4 1_555 1_555
C13 C12 1_555 1_555
C14 O5 1_555 1_555
C15 O2 1_555 1_555
H7 C15 1_555 1_555
H8 C15 1_555 1_555
H9 C15 1_555 1_555
C16 O4 1_555 1_555
H10 C16 1_555 1_555
H11 C16 1_555 1_555
H12 C16 1_555 1_555
C17 N1 1_555 1_555
H13 C17 1_555 1_555
H14 C17 1_555 1_555
H15 C17 1_555 1_555
C2 C14 1_555 1_555
C9 C10 1_555 1_555
C11 C12 1_555 1_555
C13 C14 1_555 1_555

#END
