
#######################################################################
#
#                 Cambridge Crystallographic Data Centre
#                                CCDC 
#
#######################################################################
#
# If this CIF has been generated from an entry in the Cambridge 
# Structural Database, then it will include bibliographic, chemical, 
# crystal, experimental, refinement or atomic coordinate data resulting 
# from the CCDC's data processing and validation procedures.
#
#######################################################################

data_WATFUV
_chemical_formula_moiety         'C17 H15 N1 O2'
_chemical_name_systematic        3-benzoyl-4-phenylpyrrolidin-2-one
_symmetry_cell_setting           triclinic
_symmetry_space_group_name_H-M   'P -1'
_symmetry_Int_Tables_number      2
_space_group_name_Hall           '-P 1'
loop_
_symmetry_equiv_pos_site_id
_symmetry_equiv_pos_as_xyz
1 x,y,z
2 -x,-y,-z
_cell_length_a                   5.6408(8)
_cell_length_b                   10.3136(10)
_cell_length_c                   12.233(2)
_cell_angle_alpha                74.130(5)
_cell_angle_beta                 89.422(6)
_cell_angle_gamma                86.861(6)
_cell_volume                     683.517
_exptl_crystal_colour            colorless
_exptl_crystal_description       BLOCK
_cell_formula_units_Z            2
loop_
_atom_site_label
_atom_site_type_symbol
_atom_site_fract_x
_atom_site_fract_y
_atom_site_fract_z
O1 O 0.3316(5) 0.55602(19) 0.36185(19)
O2 O -0.1800(3) 0.3673(2) 0.28060(19)
N1 N 0.4169(4) 0.3435(2) 0.47858(19)
H1 H 0.4669 0.3664 0.5364
C1 C 0.3317(5) 0.4327(3) 0.3847(2)
C2 C 0.2387(4) 0.3535(2) 0.3064(2)
H2 H 0.3570 0.3524 0.2475
C3 C 0.2250(4) 0.2102(2) 0.3844(2)
H3 H 0.0702 0.2034 0.4221
C4 C 0.4177(5) 0.2054(2) 0.4743(2)
H4 H 0.3772 0.1459 0.5474
H5 H 0.5713 0.1756 0.4510
C5 C 0.2552(4) 0.0980(2) 0.3274(2)
C6 C 0.0889(5) -0.0002(3) 0.3439(2)
H6 H -0.0442 0.0058 0.3881
C7 C 0.1179(6) -0.1062(3) 0.2957(3)
H7 H 0.0052 -0.1712 0.3082
C8 C 0.3129(6) -0.1164(3) 0.2293(3)
H8 H 0.3329 -0.1880 0.1969
C9 C 0.4787(6) -0.0188(3) 0.2113(3)
H9 H 0.6096 -0.0242 0.1656
C10 C 0.4516(5) 0.0863(3) 0.2604(2)
H10 H 0.5661 0.1502 0.2487
C11 C 0.0050(4) 0.4175(2) 0.2492(2)
C12 C 0.0132(4) 0.5439(2) 0.1556(2)
C13 C -0.1836(5) 0.6357(3) 0.1374(3)
H11 H -0.3132 0.6185 0.1858
C14 C -0.1874(6) 0.7508(3) 0.0488(3)
H12 H -0.3185 0.8118 0.0383
C15 C 0.0018(7) 0.7770(3) -0.0249(3)
H13 H -0.0029 0.8545 -0.0856
C16 C 0.1979(6) 0.6878(3) -0.0082(3)
H14 H 0.3261 0.7051 -0.0575
C17 C 0.2033(5) 0.5727(3) 0.0820(2)
H15 H 0.3370 0.5136 0.0936
loop_
_geom_bond_atom_site_label_1
_geom_bond_atom_site_label_2
_geom_bond_site_symmetry_1
_geom_bond_site_symmetry_2
O1 C1 1_555 1_555
O2 C11 1_555 1_555
N1 H1 1_555 1_555
C1 N1 1_555 1_555
C2 C1 1_555 1_555
H2 C2 1_555 1_555
C3 C2 1_555 1_555
H3 C3 1_555 1_555
C4 N1 1_555 1_555
H4 C4 1_555 1_555
H5 C4 1_555 1_555
C5 C3 1_555 1_555
C6 C5 1_555 1_555
H6 C6 1_555 1_555
C7 C6 1_555 1_555
H7 C7 1_555 1_555
C8 C7 1_555 1_555
H8 C8 1_555 1_555
C9 C8 1_555 1_555
H9 C9 1_555 1_555
C10 C5 1_555 1_555
H10 C10 1_555 1_555
C11 C2 1_555 1_555
C12 C11 1_555 1_555
C13 C12 1_555 1_555
H11 C13 1_555 1_555
C14 C13 1_555 1_555
H12 C14 1_555 1_555
C15 C14 1_555 1_555
H13 C15 1_555 1_555
C16 C15 1_555 1_555
H14 C16 1_555 1_555
C17 C12 1_555 1_555
H15 C17 1_555 1_555
C3 C4 1_555 1_555
C9 C10 1_555 1_555
C16 C17 1_555 1_555

#END
