
#######################################################################
#
#                 Cambridge Crystallographic Data Centre
#                                CCDC 
#
#######################################################################
#
# If this CIF has been generated from an entry in the Cambridge 
# Structural Database, then it will include bibliographic, chemical, 
# crystal, experimental, refinement or atomic coordinate data resulting 
# from the CCDC's data processing and validation procedures.
#
#######################################################################

data_WATGIK
_chemical_formula_moiety         'C8 H14 N3 1+,C2 N3 1-'
_chemical_name_systematic        
'1-(cyanomethyl)-4-aza-1-azoniabicyclo[2.2.2]octane dicyanoazanide'
_symmetry_cell_setting           monoclinic
_symmetry_space_group_name_H-M   'P 21/n'
_symmetry_Int_Tables_number      14
_space_group_name_Hall           '-P 2yn'
loop_
_symmetry_equiv_pos_site_id
_symmetry_equiv_pos_as_xyz
1 x,y,z
2 1/2-x,1/2+y,1/2-z
3 -x,-y,-z
4 1/2+x,1/2-y,1/2+z
_cell_length_a                   7.0888(14)
_cell_length_b                   14.392(3)
_cell_length_c                   10.586(2)
_cell_angle_alpha                90
_cell_angle_beta                 97.40(3)
_cell_angle_gamma                90
_cell_volume                     1071.01
_exptl_crystal_colour            colorless
_exptl_crystal_description       block
_cell_formula_units_Z            4
loop_
_atom_site_label
_atom_site_type_symbol
_atom_site_fract_x
_atom_site_fract_y
_atom_site_fract_z
N1 N 0.1969(2) 0.53816(11) 0.16196(15)
N2 N 0.2019(2) 0.71041(10) 0.22358(13)
C1 C 0.2053(3) 0.81201(13) 0.25549(17)
H1 H 0.3264 0.8395 0.2361
H2 H 0.0998 0.8437 0.2019
C2 C 0.0344(3) 0.56027(13) 0.22991(18)
H3 H 0.0457 0.5249 0.3107
H4 H -0.0848 0.5408 0.1774
C3 C 0.3746(3) 0.66165(13) 0.29295(19)
H5 H 0.3696 0.6628 0.3860
H6 H 0.4924 0.6934 0.2756
C4 C 0.0242(3) 0.66448(13) 0.25901(19)
H7 H -0.0899 0.6921 0.2093
H8 H 0.0154 0.6740 0.3507
C5 C 0.3734(3) 0.56059(13) 0.24500(18)
H9 H 0.4832 0.5509 0.1974
H10 H 0.3877 0.5179 0.3190
N3 N 0.1716(3) 0.83968(13) 0.49531(17)
C6 C 0.2065(3) 0.70011(14) 0.08175(17)
H11 H 0.3277 0.7249 0.0584
H12 H 0.1004 0.7354 0.0342
C7 C 0.1866(3) 0.82743(12) 0.39037(18)
C8 C 0.1879(3) 0.59598(14) 0.04768(17)
H13 H 0.0653 0.5851 -0.0065
H14 H 0.2915 0.5779 -0.0017
C9 C 0.2537(3) 0.49593(15) 0.55293(18)
C10 C 0.2177(3) 0.62320(13) 0.67518(19)
N4 N 0.2390(3) 0.41856(14) 0.52270(17)
N5 N 0.1727(3) 0.66386(13) 0.76101(18)
N6 N 0.2827(3) 0.58506(13) 0.57709(18)
loop_
_geom_bond_atom_site_label_1
_geom_bond_atom_site_label_2
_geom_bond_site_symmetry_1
_geom_bond_site_symmetry_2
N1 C2 1_555 1_555
N2 C1 1_555 1_555
C1 H1 1_555 1_555
H2 C1 1_555 1_555
C2 H3 1_555 1_555
H4 C2 1_555 1_555
C3 N2 1_555 1_555
H5 C3 1_555 1_555
H6 C3 1_555 1_555
C4 N2 1_555 1_555
H7 C4 1_555 1_555
H8 C4 1_555 1_555
C5 N1 1_555 1_555
H9 C5 1_555 1_555
H10 C5 1_555 1_555
N3 C7 1_555 1_555
C6 N2 1_555 1_555
H11 C6 1_555 1_555
H12 C6 1_555 1_555
C7 C1 1_555 1_555
C8 N1 1_555 1_555
H13 C8 1_555 1_555
H14 C8 1_555 1_555
C9 N4 1_555 1_555
C10 N5 1_555 1_555
N6 C9 1_555 1_555
C2 C4 1_555 1_555
C3 C5 1_555 1_555
C6 C8 1_555 1_555
C10 N6 1_555 1_555

#END
