
#######################################################################
#
#                 Cambridge Crystallographic Data Centre
#                                CCDC 
#
#######################################################################
#
# If this CIF has been generated from an entry in the Cambridge 
# Structural Database, then it will include bibliographic, chemical, 
# crystal, experimental, refinement or atomic coordinate data resulting 
# from the CCDC's data processing and validation procedures.
#
#######################################################################

data_WATGAC
_chemical_formula_moiety         'C13 H15 N1 O3'
_chemical_name_systematic        3-acetyl-4-(4-methoxyphenyl)pyrrolidin-2-one
_symmetry_cell_setting           monoclinic
_symmetry_space_group_name_H-M   'P 21/c'
_symmetry_Int_Tables_number      14
_space_group_name_Hall           '-P 2ybc'
loop_
_symmetry_equiv_pos_site_id
_symmetry_equiv_pos_as_xyz
1 x,y,z
2 -x,1/2+y,1/2-z
3 -x,-y,-z
4 x,1/2-y,1/2+z
_cell_length_a                   5.21520(7)
_cell_length_b                   9.89840(14)
_cell_length_c                   23.0406(3)
_cell_angle_alpha                90
_cell_angle_beta                 94.5570(5)
_cell_angle_gamma                90
_cell_volume                     1185.65
_exptl_crystal_colour            colorless
_exptl_crystal_description       BLOCK
_cell_formula_units_Z            4
loop_
_atom_site_label
_atom_site_type_symbol
_atom_site_fract_x
_atom_site_fract_y
_atom_site_fract_z
O1 O -0.2321(2) 0.60871(12) -0.00961(5)
O2 O -0.1110(3) 0.89766(12) 0.07880(6)
O3 O 0.5947(3) 0.72831(15) 0.34232(6)
N1 N -0.3354(3) 0.51152(14) 0.07559(6)
H1 H -0.4636 0.4626 0.0611
C1 C -0.2006(3) 0.59178(15) 0.04341(7)
C2 C -0.0002(3) 0.66506(15) 0.08436(6)
H2 H 0.1676 0.6183 0.0842
C3 C -0.1068(3) 0.64796(16) 0.14398(6)
H3 H -0.2383 0.7191 0.1473
C4 C -0.2496(4) 0.51245(18) 0.13744(7)
H4 H -0.1344 0.4364 0.1476
H5 H -0.3957 0.5094 0.1617
C5 C 0.0848(3) 0.66110(15) 0.19640(6)
C6 C 0.2773(3) 0.75824(18) 0.19832(7)
H6 H 0.2938 0.8129 0.1654
C7 C 0.4455(3) 0.77708(19) 0.24715(8)
H7 H 0.5744 0.8434 0.2471
C8 C 0.4238(3) 0.69834(17) 0.29601(7)
C9 C 0.2354(4) 0.60115(19) 0.29535(7)
H8 H 0.2199 0.5466 0.3283
C10 C 0.0673(4) 0.58347(18) 0.24591(8)
H9 H -0.0614 0.5171 0.2461
C11 C 0.6083(5) 0.6407(3) 0.38991(9)
H10 H 0.4431 0.6382 0.4065
H11 H 0.7391 0.6722 0.4191
H12 H 0.6523 0.5507 0.3773
C12 C 0.0257(3) 0.80877(16) 0.06285(7)
C13 C 0.2217(4) 0.8314(2) 0.02037(9)
H13 H 0.1945 0.9192 0.0023
H14 H 0.2063 0.7617 -0.0093
H15 H 0.3923 0.8281 0.0404
loop_
_geom_bond_atom_site_label_1
_geom_bond_atom_site_label_2
_geom_bond_site_symmetry_1
_geom_bond_site_symmetry_2
O1 C1 1_555 1_555
O2 C12 1_555 1_555
O3 C8 1_555 1_555
N1 H1 1_555 1_555
C1 N1 1_555 1_555
C2 C1 1_555 1_555
H2 C2 1_555 1_555
C3 C2 1_555 1_555
H3 C3 1_555 1_555
C4 N1 1_555 1_555
H4 C4 1_555 1_555
H5 C4 1_555 1_555
C5 C3 1_555 1_555
C6 C5 1_555 1_555
H6 C6 1_555 1_555
C7 C6 1_555 1_555
H7 C7 1_555 1_555
C8 C7 1_555 1_555
C9 C8 1_555 1_555
H8 C9 1_555 1_555
C10 C5 1_555 1_555
H9 C10 1_555 1_555
C11 O3 1_555 1_555
H10 C11 1_555 1_555
H11 C11 1_555 1_555
H12 C11 1_555 1_555
C12 C2 1_555 1_555
C13 C12 1_555 1_555
H13 C13 1_555 1_555
H14 C13 1_555 1_555
H15 C13 1_555 1_555
C3 C4 1_555 1_555
C9 C10 1_555 1_555

#END
