
#######################################################################
#
#                 Cambridge Crystallographic Data Centre
#                                CCDC 
#
#######################################################################
#
# If this CIF has been generated from an entry in the Cambridge 
# Structural Database, then it will include bibliographic, chemical, 
# crystal, experimental, refinement or atomic coordinate data resulting 
# from the CCDC's data processing and validation procedures.
#
#######################################################################

data_WATGEG
_chemical_name_common            1-phenyl-2-tosyl-9H-pyrrolo[1,2-a]indole
_chemical_formula_moiety         'C24 H19 N1 O2 S1'
_chemical_name_systematic        
2-((4-methylphenyl)sulfonyl)-1-phenyl-9H-pyrrolo[1,2-a]indole
_symmetry_cell_setting           monoclinic
_symmetry_space_group_name_H-M   'C 2/c'
_symmetry_Int_Tables_number      15
_space_group_name_Hall           '-C 2yn'
loop_
_symmetry_equiv_pos_site_id
_symmetry_equiv_pos_as_xyz
1 x,y,z
2 -x,y,1/2-z
3 1/2+x,1/2+y,z
4 1/2-x,1/2+y,1/2-z
5 -x,-y,-z
6 x,-y,1/2+z
7 1/2-x,1/2-y,-z
8 1/2+x,1/2-y,1/2+z
_cell_length_a                   16.382(4)
_cell_length_b                   18.322(4)
_cell_length_c                   14.538(3)
_cell_angle_alpha                90
_cell_angle_beta                 120.472(3)
_cell_angle_gamma                90
_cell_volume                     3760.88
_cell_formula_units_Z            8
loop_
_atom_site_label
_atom_site_type_symbol
_atom_site_fract_x
_atom_site_fract_y
_atom_site_fract_z
S1 S 0.04879(3) 0.29530(3) 0.56519(4)
N1 N -0.08895(10) 0.37223(8) 0.28237(12)
C1 C -0.10516(12) 0.30019(9) 0.25433(15)
C2 C -0.16573(12) 0.29419(9) 0.13644(14)
C3 C -0.06021(11) 0.25875(10) 0.34421(14)
C4 C -0.06619(12) 0.17916(10) 0.34528(13)
C5 C -0.03199(12) 0.25358(11) 0.59365(13)
O1 O 0.07404(11) 0.36480(9) 0.61582(12)
C6 C -0.18033(12) 0.37254(10) 0.10375(15)
C7 C -0.01546(12) 0.31050(11) 0.42908(15)
C8 C -0.03491(12) 0.37926(11) 0.38853(15)
C9 C -0.16052(12) 0.19117(11) 0.63884(14)
O2 O 0.12273(9) 0.24421(9) 0.58947(12)
C10 C -0.13505(12) 0.41742(10) 0.19177(15)
C11 C -0.15461(14) 0.14645(10) 0.29050(15)
C12 C -0.08807(15) 0.29652(11) 0.61521(18)
C13 C -0.03878(14) 0.17993(11) 0.59511(17)
C14 C -0.10288(16) 0.14934(12) 0.61745(18)
C15 C -0.23065(14) 0.40298(11) 0.00404(17)
C16 C -0.13930(15) 0.49160(11) 0.18501(18)
C17 C -0.15247(14) 0.26517(12) 0.63679(17)
C18 C 0.01202(15) 0.13489(11) 0.39625(17)
C19 C -0.22914(15) 0.15805(12) 0.66531(18)
C20 C -0.16322(17) 0.07226(12) 0.28934(18)
C21 C -0.23577(17) 0.47746(12) -0.0039(2)
C22 C -0.19259(17) 0.52095(12) 0.0841(2)
C23 C 0.00304(18) 0.06078(12) 0.39429(19)
C24 C -0.0844(2) 0.02899(13) 0.34120(19)
H1 H -0.00017(14) 0.15046(11) 0.58103(17)
H2 H -0.10745(16) 0.09877(12) 0.61813(18)
H3 H -0.19132(14) 0.29482(12) 0.65025(17)
H4 H -0.08266(15) 0.34705(11) 0.61530(18)
H5 H 0.07204(15) 0.15574(11) 0.43266(17)
H6 H 0.05685(18) 0.03170(12) 0.42938(19)
H7 H -0.0903(2) -0.02152(13) 0.34025(19)
H8 H -0.22298(17) 0.05097(12) 0.25311(18)
H9 H -0.20854(14) 0.17527(10) 0.25424(15)
H10 H -0.10790(15) 0.52097(11) 0.24529(18)
H11 H -0.19915(17) 0.57134(12) 0.0761(2)
H12 H -0.26953(17) 0.49889(12) -0.0711(2)
H13 H -0.26052(14) 0.37379(11) -0.05658(17)
H14 H -0.13369(12) 0.26803(9) 0.10581(14)
H15 H -0.22530(12) 0.27015(9) 0.11608(14)
H16 H -0.01472(12) 0.42265(11) 0.42686(15)
H17 H -0.2910(3) 0.1571(8) 0.6026(3)
H18 H -0.2097(6) 0.1091(3) 0.6907(11)
H19 H -0.2309(8) 0.1865(5) 0.7197(9)
loop_
_geom_bond_atom_site_label_1
_geom_bond_atom_site_label_2
_geom_bond_site_symmetry_1
_geom_bond_site_symmetry_2
S1 C5 1_555 1_555
N1 C1 1_555 1_555
C1 C2 1_555 1_555
C2 C6 1_555 1_555
C3 C1 1_555 1_555
C4 C3 1_555 1_555
C5 C12 1_555 1_555
O1 S1 1_555 1_555
C6 C10 1_555 1_555
C7 S1 1_555 1_555
C8 N1 1_555 1_555
C9 C14 1_555 1_555
O2 S1 1_555 1_555
C10 N1 1_555 1_555
C11 C4 1_555 1_555
C12 C17 1_555 1_555
C13 C5 1_555 1_555
C14 C13 1_555 1_555
C15 C6 1_555 1_555
C16 C10 1_555 1_555
C17 C9 1_555 1_555
C18 C4 1_555 1_555
C19 C9 1_555 1_555
C20 C11 1_555 1_555
C21 C15 1_555 1_555
C22 C16 1_555 1_555
C23 C18 1_555 1_555
C24 C20 1_555 1_555
H1 C13 1_555 1_555
H2 C14 1_555 1_555
H3 C17 1_555 1_555
H4 C12 1_555 1_555
H5 C18 1_555 1_555
H6 C23 1_555 1_555
H7 C24 1_555 1_555
H8 C20 1_555 1_555
H9 C11 1_555 1_555
H10 C16 1_555 1_555
H11 C22 1_555 1_555
H12 C21 1_555 1_555
H13 C15 1_555 1_555
H14 C2 1_555 1_555
H15 C2 1_555 1_555
H16 C8 1_555 1_555
H17 C19 1_555 1_555
H18 C19 1_555 1_555
H19 C19 1_555 1_555
C3 C7 1_555 1_555
C7 C8 1_555 1_555
C21 C22 1_555 1_555
C23 C24 1_555 1_555

#END
