
#######################################################################
#
#                 Cambridge Crystallographic Data Centre
#                                CCDC 
#
#######################################################################
#
# If this CIF has been generated from an entry in the Cambridge 
# Structural Database, then it will include bibliographic, chemical, 
# crystal, experimental, refinement or atomic coordinate data resulting 
# from the CCDC's data processing and validation procedures.
#
#######################################################################

data_WATQIR
_chemical_formula_moiety         'C16 H16 N2 O6'
_chemical_name_systematic        
'Dimethyl 2,2a,3,5,5a,6-hexahydro-3,5-dioxo-4-phenyl-pyrrolo-[3,4-c][1H]pyrrole-2,6-dicarboxylate'
_symmetry_cell_setting           monoclinic
_symmetry_space_group_name_H-M   'P 21/c'
_symmetry_Int_Tables_number      14
_space_group_name_Hall           '-P 2ybc'
loop_
_symmetry_equiv_pos_site_id
_symmetry_equiv_pos_as_xyz
1 x,y,z
2 x,1/2-y,1/2+z
3 -x,-y,-z
4 -x,1/2+y,1/2-z
_cell_length_a                   8.7139(4)
_cell_length_b                   16.7814(8)
_cell_length_c                   10.7419(7)
_cell_angle_alpha                90
_cell_angle_beta                 90.406(5)
_cell_angle_gamma                90
_cell_volume                     1570.76
_exptl_crystal_colour            colorless
_exptl_crystal_description       rectangular
_cell_formula_units_Z            4
_exptl_crystal_recrystallization_method chloroform
loop_
_atom_site_label
_atom_site_type_symbol
_atom_site_fract_x
_atom_site_fract_y
_atom_site_fract_z
O1 O 0.51866(19) 0.22270(9) 0.23347(16)
O2 O 0.50127(18) 0.49008(9) 0.17414(15)
O3 O 0.8756(2) 0.21364(11) 0.25799(15)
O4 O 0.8584(2) 0.50072(11) 0.21540(17)
O5 O 0.79634(17) 0.14094(8) 0.09457(13)
O6 O 0.7932(2) 0.55355(9) 0.03076(15)
N1 N 0.47988(18) 0.35740(9) 0.22098(15)
N2 N 0.8743(2) 0.35042(11) 0.1095(2)
C1 C 0.2323(3) 0.34498(16) 0.3206(2)
C2 C 0.1415(3) 0.35239(19) 0.4241(3)
C3 C 0.2022(3) 0.37997(17) 0.5343(2)
C4 C 0.3545(3) 0.40021(16) 0.5420(2)
C5 C 0.4470(3) 0.39269(14) 0.4389(2)
C6 C 0.3851(2) 0.36536(11) 0.32922(18)
C7 C 0.5361(2) 0.28490(11) 0.17950(18)
C8 C 0.5285(2) 0.42156(12) 0.14965(18)
C9 C 0.6224(2) 0.29925(12) 0.05960(18)
C10 C 0.6200(2) 0.38959(12) 0.04213(18)
C11 C 0.7962(2) 0.27832(13) 0.06964(19)
C12 C 0.7930(2) 0.41436(13) 0.0467(2)
C13 C 0.8284(2) 0.20840(13) 0.15283(19)
C14 C 0.8201(2) 0.49340(14) 0.1087(2)
C15 C 0.7991(4) 0.06877(17) 0.1682(3)
C16 C 0.7975(4) 0.63277(16) 0.0832(3)
H1 H 0.192(3) 0.3268(17) 0.242(3)
H2 H 0.033(4) 0.3385(17) 0.418(3)
H3 H 0.137(3) 0.3846(16) 0.606(3)
H4 H 0.399(3) 0.4207(16) 0.618(3)
H5 H 0.550(3) 0.4068(15) 0.441(2)
H6 H 0.571(3) 0.2694(14) -0.002(2)
H7 H 0.571(3) 0.4081(13) -0.032(2)
H8 H 0.829(2) 0.2650(12) -0.0089(19)
H9 H 0.826(2) 0.4184(12) -0.032(2)
H10 H 0.865(3) 0.3565(15) 0.187(2)
H11 H 0.894(4) 0.0650(18) 0.218(3)
H12 H 0.794(4) 0.024(2) 0.112(3)
H13 H 0.718(4) 0.072(2) 0.224(3)
H14 H 0.892(4) 0.6440(17) 0.127(3)
H15 H 0.781(3) 0.6713(19) 0.017(3)
H16 H 0.714(4) 0.6383(17) 0.146(3)
loop_
_geom_bond_atom_site_label_1
_geom_bond_atom_site_label_2
_geom_bond_site_symmetry_1
_geom_bond_site_symmetry_2
O1 C7 1_555 1_555
O2 C8 1_555 1_555
O3 C13 1_555 1_555
O4 C14 1_555 1_555
O5 C13 1_555 1_555
O6 C14 1_555 1_555
N1 C6 1_555 1_555
N2 C11 1_555 1_555
C1 C2 1_555 1_555
C2 C3 1_555 1_555
C3 C4 1_555 1_555
C4 C5 1_555 1_555
C5 C6 1_555 1_555
C6 C1 1_555 1_555
C7 N1 1_555 1_555
C8 N1 1_555 1_555
C9 C7 1_555 1_555
C10 C8 1_555 1_555
C11 C9 1_555 1_555
C12 N2 1_555 1_555
C13 C11 1_555 1_555
C14 C12 1_555 1_555
C15 O5 1_555 1_555
C16 O6 1_555 1_555
H1 C1 1_555 1_555
H2 C2 1_555 1_555
H3 C3 1_555 1_555
H4 C4 1_555 1_555
H5 C5 1_555 1_555
H6 C9 1_555 1_555
H7 C10 1_555 1_555
H8 C11 1_555 1_555
H9 C12 1_555 1_555
H10 N2 1_555 1_555
H11 C15 1_555 1_555
H12 C15 1_555 1_555
H13 C15 1_555 1_555
H14 C16 1_555 1_555
H15 C16 1_555 1_555
H16 C16 1_555 1_555
C9 C10 1_555 1_555
C10 C12 1_555 1_555

#END
