
#######################################################################
#
#                 Cambridge Crystallographic Data Centre
#                                CCDC 
#
#######################################################################
#
# If this CIF has been generated from an entry in the Cambridge 
# Structural Database, then it will include bibliographic, chemical, 
# crystal, experimental, refinement or atomic coordinate data resulting 
# from the CCDC's data processing and validation procedures.
#
#######################################################################

data_WATTUJ
_chemical_name_common            
(E)-Phenyl(1-phenyl-2-tosylprop-1-en-1-yl)selane
_chemical_formula_moiety         'C22 H20 O2 S1 Se1'
_chemical_name_systematic        
'4-methylphenyl 1-phenyl-1-(phenylselanyl)prop-1-en-2-yl sulfone'
_symmetry_cell_setting           triclinic
_symmetry_space_group_name_H-M   'P -1'
_symmetry_Int_Tables_number      2
_space_group_name_Hall           '-P 1'
loop_
_symmetry_equiv_pos_site_id
_symmetry_equiv_pos_as_xyz
1 x,y,z
2 -x,-y,-z
_cell_length_a                   8.642
_cell_length_b                   11.567
_cell_length_c                   11.642
_cell_angle_alpha                101.14
_cell_angle_beta                 95.54
_cell_angle_gamma                95.45
_cell_volume                     1128.78
_exptl_crystal_colour            colorless
_exptl_crystal_description       block
_cell_formula_units_Z            2
loop_
_atom_site_label
_atom_site_type_symbol
_atom_site_fract_x
_atom_site_fract_y
_atom_site_fract_z
C1 C 0.6108(9) 0.1773(7) 0.1717(9)
C2 C 0.7565(10) 0.1196(7) 0.1704(8)
C3 C 0.5813(10) 0.0209(8) 0.3486(9)
C4 C 0.6996(12) 0.0493(9) 0.4379(9)
H1 H 0.7339 0.1291 0.4682
C5 C 0.8094(11) 0.4218(7) 0.0850(9)
C6 C 0.5634(10) 0.2530(7) 0.1108(9)
C7 C 0.9649(10) 0.4100(8) 0.1114(9)
H2 H 1.0030 0.3381 0.0856
C8 C 1.0265(10) 0.1234(10) 0.2440(11)
H3 H 1.1151 0.1620 0.2932
C9 C 0.8904(10) 0.1774(8) 0.2405(9)
H4 H 0.8891 0.2530 0.2854
C10 C 0.7629(10) 0.0063(7) 0.1086(9)
H5 H 0.6731 -0.0372 0.0649
C11 C 0.7534(12) 0.5296(8) 0.1214(10)
H6 H 0.6488 0.5384 0.1023
C12 C 1.0320(13) 0.0149(9) 0.1767(12)
H7 H 1.1250 -0.0195 0.1759
C13 C 1.0141(14) 0.6131(9) 0.2196(10)
C14 C 0.4157(13) 0.3128(10) 0.1253(12)
H8 H 0.4051 0.3642 0.0700
H9 H 0.4220 0.3586 0.2041
H10 H 0.3266 0.2536 0.1110
C15 C 0.9007(15) -0.0424(9) 0.1110(11)
H11 H 0.9037 -0.1176 0.0658
C16 C 0.7112(18) -0.1529(12) 0.4370(15)
H12 H 0.7554 -0.2122 0.4680
C17 C 0.5270(12) -0.0979(8) 0.3031(9)
H13 H 0.4451 -0.1177 0.2422
C18 C 1.0656(12) 0.5074(9) 0.1778(10)
H14 H 1.1711 0.4993 0.1937
C19 C 0.8562(15) 0.6244(8) 0.1869(10)
H15 H 0.8195 0.6974 0.2098
C20 C 1.1178(17) 0.7159(10) 0.2901(12)
H16 H 1.0586 0.7818 0.3087
H17 H 1.2005 0.7368 0.2458
H18 H 1.1618 0.6961 0.3617
C21 C 0.5895(16) -0.1821(9) 0.3449(12)
H19 H 0.5530 -0.2612 0.3133
C22 C 0.7677(13) -0.0302(12) 0.4834(12)
H20 H 0.8499 -0.0082 0.5439
O1 O 0.7695(8) 0.2084(5) -0.0400(6)
O2 O 0.5735(8) 0.3450(6) -0.0727(6)
S1 S 0.6792(3) 0.3011(2) 0.0057(2)
Se1 Se 0.47728(11) 0.13906(9) 0.28808(12)
loop_
_geom_bond_atom_site_label_1
_geom_bond_atom_site_label_2
_geom_bond_site_symmetry_1
_geom_bond_site_symmetry_2
C1 C2 1_555 1_555
C2 C9 1_555 1_555
C3 C4 1_555 1_555
C4 H1 1_555 1_555
C5 C7 1_555 1_555
C6 C1 1_555 1_555
C7 H2 1_555 1_555
C8 H3 1_555 1_555
C9 C8 1_555 1_555
H4 C9 1_555 1_555
C10 C2 1_555 1_555
H5 C10 1_555 1_555
C11 C5 1_555 1_555
H6 C11 1_555 1_555
C12 C8 1_555 1_555
H7 C12 1_555 1_555
C13 C18 1_555 1_555
C14 C6 1_555 1_555
H8 C14 1_555 1_555
H9 C14 1_555 1_555
H10 C14 1_555 1_555
C15 C10 1_555 1_555
H11 C15 1_555 1_555
C16 H12 1_555 1_555
C17 C3 1_555 1_555
H13 C17 1_555 1_555
C18 C7 1_555 1_555
H14 C18 1_555 1_555
C19 C11 1_555 1_555
H15 C19 1_555 1_555
C20 C13 1_555 1_555
H16 C20 1_555 1_555
H17 C20 1_555 1_555
H18 C20 1_555 1_555
C21 C16 1_555 1_555
H19 C21 1_555 1_555
C22 C4 1_555 1_555
H20 C22 1_555 1_555
O1 S1 1_555 1_555
O2 S1 1_555 1_555
S1 C5 1_555 1_555
Se1 C1 1_555 1_555
C3 Se1 1_555 1_555
C6 S1 1_555 1_555
C12 C15 1_555 1_555
C13 C19 1_555 1_555
C16 C22 1_555 1_555
C17 C21 1_555 1_555

#END
