
#######################################################################
#
#                 Cambridge Crystallographic Data Centre
#                                CCDC 
#
#######################################################################
#
# If this CIF has been generated from an entry in the Cambridge 
# Structural Database, then it will include bibliographic, chemical, 
# crystal, experimental, refinement or atomic coordinate data resulting 
# from the CCDC's data processing and validation procedures.
#
#######################################################################

data_WATVEV
_chemical_name_common            
(E)-(6-Chloro-1-tosylhex-1-en-2-yl)(phenyl)selane
_chemical_formula_moiety         'C19 H21 Cl1 O2 S1 Se1'
_chemical_name_systematic        
'6-chloro-2-(phenylselanyl)hex-1-en-1-yl 4-methylphenyl sulfone'
_symmetry_cell_setting           triclinic
_symmetry_space_group_name_H-M   'P -1'
_symmetry_Int_Tables_number      2
_space_group_name_Hall           '-P 1'
loop_
_symmetry_equiv_pos_site_id
_symmetry_equiv_pos_as_xyz
1 x,y,z
2 -x,-y,-z
_cell_length_a                   7.317
_cell_length_b                   8.140
_cell_length_c                   18.413
_cell_angle_alpha                86.10
_cell_angle_beta                 80.49
_cell_angle_gamma                64.64
_cell_volume                     977.378
_exptl_crystal_colour            colorless
_exptl_crystal_description       block
_cell_formula_units_Z            2
loop_
_atom_site_label
_atom_site_type_symbol
_atom_site_fract_x
_atom_site_fract_y
_atom_site_fract_z
Se1 Se 0.32087(12) 0.37863(8) 0.13835(4)
S1 S 0.5968(2) -0.20315(17) 0.21653(8)
Cl1 Cl -0.5106(3) 0.3549(4) 0.39618(14)
O1 O 0.7504(7) -0.3320(5) 0.1645(2)
C1 C 0.5417(9) 0.0078(7) 0.1749(3)
H1 H 0.6339 0.0131 0.1345
C2 C 0.7107(9) -0.2091(6) 0.2949(3)
C3 C 0.5552(9) 0.3037(7) 0.0638(3)
O2 O 0.4132(7) -0.2248(6) 0.2417(3)
C4 C 0.3788(9) 0.1632(8) 0.1957(3)
C5 C -0.1310(9) 0.2692(8) 0.3223(3)
H2 H -0.1363 0.3760 0.3447
H3 H -0.0806 0.1681 0.3558
C6 C -0.3416(12) 0.3023(11) 0.3111(4)
H4 H -0.3374 0.1948 0.2898
H5 H -0.3918 0.4022 0.2771
C7 C 0.7142(13) 0.3429(8) 0.0706(4)
H6 H 0.7108 0.4016 0.1128
C8 C 0.9146(9) -0.2397(7) 0.2862(3)
H7 H 0.9911 -0.2547 0.2395
C9 C 0.6909(12) -0.2007(9) 0.4238(4)
H8 H 0.6150 -0.1874 0.4705
C10 C 0.0158(10) 0.2272(8) 0.2504(4)
H9 H -0.0340 0.3278 0.2165
H10 H 0.0233 0.1195 0.2281
C11 C 0.2238(10) 0.1967(9) 0.2638(3)
H11 H 0.2122 0.3023 0.2890
H12 H 0.2733 0.0933 0.2963
C12 C 0.8819(15) 0.2131(14) -0.0459(6)
H13 H 0.9931 0.1834 -0.0834
C13 C 1.0016(11) -0.2474(9) 0.3474(4)
H14 H 1.1374 -0.2648 0.3416
C14 C 0.5610(10) 0.2179(8) 0.0015(4)
H15 H 0.4531 0.1899 -0.0035
C15 C 0.5989(10) -0.1906(8) 0.3641(3)
H16 H 0.4626 -0.1715 0.3701
C16 C 0.8933(12) -0.2302(9) 0.4172(4)
C17 C 0.7245(15) 0.1733(11) -0.0531(4)
H17 H 0.7278 0.1153 -0.0955
C18 C 0.8773(14) 0.2976(13) 0.0168(8)
H18 H 0.9864 0.3236 0.0223
C19 C 0.9923(18) -0.2461(12) 0.4858(5)
H19 H 0.8937 -0.2331 0.5290
H20 H 1.0390 -0.1522 0.4852
H21 H 1.1063 -0.3628 0.4862
loop_
_geom_bond_atom_site_label_1
_geom_bond_atom_site_label_2
_geom_bond_site_symmetry_1
_geom_bond_site_symmetry_2
Se1 C3 1_555 1_555
S1 O1 1_555 1_555
Cl1 C6 1_555 1_555
C1 S1 1_555 1_555
H1 C1 1_555 1_555
C2 S1 1_555 1_555
C3 C7 1_555 1_555
O2 S1 1_555 1_555
C4 Se1 1_555 1_555
C5 H2 1_555 1_555
H3 C5 1_555 1_555
C6 C5 1_555 1_555
H4 C6 1_555 1_555
H5 C6 1_555 1_555
C7 H6 1_555 1_555
C8 C2 1_555 1_555
H7 C8 1_555 1_555
C9 H8 1_555 1_555
C10 C5 1_555 1_555
H9 C10 1_555 1_555
H10 C10 1_555 1_555
C11 C4 1_555 1_555
H11 C11 1_555 1_555
H12 C11 1_555 1_555
C12 H13 1_555 1_555
C13 C8 1_555 1_555
H14 C13 1_555 1_555
C14 C3 1_555 1_555
H15 C14 1_555 1_555
C15 C2 1_555 1_555
H16 C15 1_555 1_555
C16 C9 1_555 1_555
C17 C12 1_555 1_555
H17 C17 1_555 1_555
C18 C7 1_555 1_555
H18 C18 1_555 1_555
C19 C16 1_555 1_555
H19 C19 1_555 1_555
H20 C19 1_555 1_555
H21 C19 1_555 1_555
C1 C4 1_555 1_555
C9 C15 1_555 1_555
C10 C11 1_555 1_555
C12 C18 1_555 1_555
C13 C16 1_555 1_555
C14 C17 1_555 1_555

#END
