
#######################################################################
#
#                 Cambridge Crystallographic Data Centre
#                                CCDC 
#
#######################################################################
#
# If this CIF has been generated from an entry in the Cambridge 
# Structural Database, then it will include bibliographic, chemical, 
# crystal, experimental, refinement or atomic coordinate data resulting 
# from the CCDC's data processing and validation procedures.
#
#######################################################################

data_WATZOJ
_chemical_formula_moiety         'C16 H17 Cl4 F3 N2 O3 S1'
_chemical_name_systematic        
2,2,2-trichloro-N-(2-((4-chloro-2-(trifluoromethyl)phenyl)sulfamoyl)cycloheptyl)acetamide
_symmetry_cell_setting           monoclinic
_symmetry_space_group_name_H-M   'P 21/n'
_symmetry_Int_Tables_number      14
_space_group_name_Hall           '-P 2yn'
loop_
_symmetry_equiv_pos_site_id
_symmetry_equiv_pos_as_xyz
1 x,y,z
2 1/2-x,1/2+y,1/2-z
3 -x,-y,-z
4 1/2+x,1/2-y,1/2+z
_cell_length_a                   11.2837(8)
_cell_length_b                   11.3883(6)
_cell_length_c                   16.6115(11)
_cell_angle_alpha                90
_cell_angle_beta                 92.619(6)
_cell_angle_gamma                90
_cell_volume                     2132.38
_exptl_crystal_colour            colorless
_exptl_crystal_description       block
_cell_formula_units_Z            4
loop_
_atom_site_label
_atom_site_type_symbol
_atom_site_fract_x
_atom_site_fract_y
_atom_site_fract_z
Cl1 Cl 0.29377(14) 0.90121(12) 0.19606(10)
Cl2 Cl 0.29239(10) 0.65659(11) 0.16236(8)
Cl3 Cl 0.47134(14) 0.80260(18) 0.09747(8)
Cl4 Cl 0.69118(14) 0.79126(13) -0.13891(7)
S1 S 0.71375(7) 0.45724(6) 0.20979(5)
F1 F 0.9712(3) 0.6915(4) 0.1578(2)
F2 F 1.0358(2) 0.5455(2) 0.0996(2)
F3 F 1.0501(3) 0.7101(3) 0.0469(2)
O1 O 0.5937(2) 0.45299(19) 0.17679(14)
O2 O 0.7576(2) 0.36122(18) 0.25733(15)
O3 O 0.4861(2) 0.8358(2) 0.30503(16)
N1 N 0.8029(2) 0.4663(2) 0.13430(15)
N2 N 0.5238(3) 0.6558(2) 0.25430(17)
C1 C 0.3838(3) 0.7792(3) 0.1809(2)
C2 C 0.4703(3) 0.7591(3) 0.25544(19)
C3 C 0.6202(3) 0.6232(3) 0.31199(19)
H1 H 0.6395 0.6936 0.3438
C4 C 0.5787(4) 0.5307(3) 0.3709(2)
H2 H 0.5808 0.4544 0.3450
H3 H 0.4968 0.5469 0.3826
C5 C 0.6523(4) 0.5249(4) 0.4503(2)
H4 H 0.6446 0.5994 0.4780
H5 H 0.6186 0.4649 0.4838
C6 C 0.7825(4) 0.4992(4) 0.4434(2)
H6 H 0.7907 0.4276 0.4124
H7 H 0.8176 0.4851 0.4969
C7 C 0.8516(4) 0.5968(4) 0.4038(2)
H8 H 0.8200 0.6714 0.4210
H9 H 0.9334 0.5926 0.4243
C8 C 0.8514(3) 0.5971(3) 0.3133(2)
H10 H 0.8976 0.5301 0.2969
H11 H 0.8932 0.6670 0.2969
C9 C 0.7313(3) 0.5935(2) 0.26493(17)
H12 H 0.7361 0.6548 0.2239
C10 C 0.9791(3) 0.6436(3) 0.0866(2)
C11 C 0.8611(3) 0.6283(3) 0.04440(19)
C12 C 0.8330(4) 0.7017(3) -0.0208(2)
H13 H 0.8880 0.7568 -0.0367
C13 C 0.7256(4) 0.6935(4) -0.0614(2)
C14 C 0.6465(4) 0.6085(4) -0.0419(2)
H14 H 0.5742 0.6015 -0.0707
C15 C 0.6752(3) 0.5323(4) 0.0218(2)
H15 H 0.6226 0.4726 0.0337
C16 C 0.7795(3) 0.5435(3) 0.06740(18)
loop_
_geom_bond_atom_site_label_1
_geom_bond_atom_site_label_2
_geom_bond_site_symmetry_1
_geom_bond_site_symmetry_2
Cl1 C1 1_555 1_555
Cl2 C1 1_555 1_555
Cl3 C1 1_555 1_555
Cl4 C13 1_555 1_555
S1 O1 1_555 1_555
F1 C10 1_555 1_555
F2 C10 1_555 1_555
F3 C10 1_555 1_555
O2 S1 1_555 1_555
O3 C2 1_555 1_555
N1 S1 1_555 1_555
N2 C2 1_555 1_555
C1 C2 1_555 1_555
C3 N2 1_555 1_555
H1 C3 1_555 1_555
C4 C3 1_555 1_555
H2 C4 1_555 1_555
H3 C4 1_555 1_555
C5 C4 1_555 1_555
H4 C5 1_555 1_555
H5 C5 1_555 1_555
C6 C5 1_555 1_555
H6 C6 1_555 1_555
H7 C6 1_555 1_555
C7 C6 1_555 1_555
H8 C7 1_555 1_555
H9 C7 1_555 1_555
C8 C7 1_555 1_555
H10 C8 1_555 1_555
H11 C8 1_555 1_555
C9 S1 1_555 1_555
H12 C9 1_555 1_555
C10 C11 1_555 1_555
C11 C12 1_555 1_555
C12 H13 1_555 1_555
C13 C12 1_555 1_555
C14 C13 1_555 1_555
H14 C14 1_555 1_555
C15 C14 1_555 1_555
H15 C15 1_555 1_555
C16 N1 1_555 1_555
C3 C9 1_555 1_555
C8 C9 1_555 1_555
C11 C16 1_555 1_555
C15 C16 1_555 1_555

#END
