
#######################################################################
#
#                 Cambridge Crystallographic Data Centre
#                                CCDC 
#
#######################################################################
#
# If this CIF has been generated from an entry in the Cambridge 
# Structural Database, then it will include bibliographic, chemical, 
# crystal, experimental, refinement or atomic coordinate data resulting 
# from the CCDC's data processing and validation procedures.
#
#######################################################################

data_WAVCUR01
_chemical_formula_moiety         'C16 H17 N2 O5 S1 1-,K1 1+'
_chemical_name_systematic        'Potassium phenoxymethylpenicillin'
_chemical_properties_biological  'antibiotic activity'
_symmetry_cell_setting           triclinic
_symmetry_space_group_name_H-M   'P 1'
_symmetry_Int_Tables_number      1
_space_group_name_Hall           'P 1'
loop_
_symmetry_equiv_pos_site_id
_symmetry_equiv_pos_as_xyz
1 x,y,z
_cell_length_a                   9.377(2)
_cell_length_b                   12.517(5)
_cell_length_c                   15.384(2)
_cell_angle_alpha                93.73(2)
_cell_angle_beta                 99.30(1)
_cell_angle_gamma                89.71(2)
_cell_volume                     1778.11
_cell_formula_units_Z            4
loop_
_atom_site_label
_atom_site_type_symbol
_atom_site_fract_x
_atom_site_fract_y
_atom_site_fract_z
K1 K 0.0439(1) 0.4681(1) 0.0077(1)
K2 K 0.0357(1) -0.0370(1) 0.0003(1)
K3 K 0.8348(1) 0.7118(1) -0.0085(1)
K4 K 0.8378(1) 0.2165(1) 0.0004(1)
S1 S 0.2432(2) 0.3706(1) 0.7349(1)
N1 N 0.3174(4) 0.3132(3) 0.8961(3)
N2 N 0.5622(4) 0.4350(3) 0.8163(3)
O1 O 0.0198(4) 0.3011(3) 0.8882(3)
O2 O 0.0380(4) 0.1217(3) 0.8893(3)
O3 O 0.5509(4) 0.2604(4) 0.9537(3)
O4 O 0.7578(4) 0.4921(4) 0.9133(3)
O5 O 0.7005(5) 0.4062(5) 0.6866(3)
C1 C 0.2355(5) 0.2263(4) 0.7520(3)
C2 C 0.0969(7) 0.1774(5) 0.6957(3)
C3 C 0.3692(7) 0.1710(5) 0.7251(4)
C4 C 0.2356(5) 0.2202(4) 0.8538(3)
C5 C 0.0838(5) 0.2146(4) 0.8793(3)
C6 C 0.3062(5) 0.4115(3) 0.8488(3)
C7 C 0.4716(5) 0.4322(4) 0.8834(3)
C8 C 0.4640(5) 0.3215(4) 0.9202(3)
C9 C 0.7044(5) 0.4625(4) 0.8382(3)
C10 C 0.7904(5) 0.4486(5) 0.7647(4)
C11 C 0.7662(6) 0.3564(6) 0.6205(4)
C12 C 0.8764(7) 0.4059(6) 0.5878(5)
C13 C 0.9316(9) 0.3569(7) 0.5184(5)
C14 C 0.8783(9) 0.2646(8) 0.4795(5)
C15 C 0.767(1) 0.2114(8) 0.5128(7)
C16 C 0.7130(9) 0.2582(9) 0.5833(6)
H1 H 0.5212(4) 0.4143(3) 0.7531(3)
H2 H 0.0907(7) 0.0990(5) 0.7044(3)
H3 H 0.1008(7) 0.1880(5) 0.6319(3)
H4 H 0.0103(7) 0.2140(5) 0.7131(3)
H5 H 0.3658(7) 0.0926(5) 0.7345(4)
H6 H 0.3692(7) 0.1815(5) 0.6610(4)
H7 H 0.4589(7) 0.2038(5) 0.7611(4)
H8 H 0.2847(5) 0.1538(4) 0.8757(3)
H9 H 0.2444(5) 0.4727(3) 0.8642(3)
H10 H 0.5131(5) 0.4993(4) 0.9171(3)
H11 H 0.8311(5) 0.5194(5) 0.7531(4)
H12 H 0.8711(5) 0.3979(5) 0.7814(4)
H13 H 0.9175(7) 0.4757(6) 0.6169(5)
H14 H 1.0159(9) 0.3908(7) 0.4978(5)
H15 H 0.9164(9) 0.2329(8) 0.4265(5)
H16 H 0.725(1) 0.1425(8) 0.4828(7)
H17 H 0.6369(9) 0.2198(9) 0.6086(6)
S2 S 0.2414(2) 0.8700(1) 0.7297(1)
N3 N 0.3135(4) 0.8110(3) 0.8905(3)
N4 N 0.5571(4) 0.9431(3) 0.8120(3)
O6 O 0.0124(4) 0.7974(3) 0.8738(3)
O7 O 0.0374(4) 0.6196(3) 0.8825(3)
O8 O 0.5481(4) 0.7563(4) 0.9444(3)
O9 O 0.7496(5) 0.9999(5) 0.9111(3)
O10 O 0.6898(5) 0.9836(4) 0.6742(3)
C17 C 0.2395(5) 0.7251(4) 0.7457(3)
C18 C 0.1088(6) 0.6714(5) 0.6869(4)
C19 C 0.3783(6) 0.6751(5) 0.7232(4)
C20 C 0.2345(5) 0.7184(4) 0.8468(3)
C21 C 0.0805(5) 0.7122(4) 0.8698(3)
C22 C 0.3021(5) 0.9098(3) 0.8443(3)
C23 C 0.4663(5) 0.9315(4) 0.8789(3)
C24 C 0.4617(5) 0.8188(5) 0.9128(4)
C25 C 0.6935(5) 0.9794(5) 0.8348(4)
C26 C 0.7772(7) 0.9955(6) 0.7600(4)
C27 C 0.6674(7) 0.8839(5) 0.6306(5)
C28 C 0.583(1) 0.8823(8) 0.5491(5)
C29 C 0.553(1) 0.786(1) 0.4983(7)
C30 C 0.614(1) 0.6925(8) 0.5299(7)
C31 C 0.6948(9) 0.6962(7) 0.6108(7)
C32 C 0.7260(7) 0.7916(6) 0.6655(5)
H18 H 0.5174(4) 0.9219(3) 0.7487(3)
H19 H 0.1068(6) 0.5928(5) 0.6957(4)
H20 H 0.1176(6) 0.6827(5) 0.6239(4)
H21 H 0.0175(6) 0.7044(5) 0.7009(4)
H22 H 0.3774(6) 0.5964(5) 0.7318(4)
H23 H 0.3827(6) 0.6867(5) 0.6597(4)
H24 H 0.4646(6) 0.7095(5) 0.7617(4)
H25 H 0.2839(5) 0.6522(4) 0.8690(3)
H26 H 0.2399(5) 0.9703(3) 0.8607(3)
H27 H 0.5074(5) 0.9967(4) 0.9156(3)
H28 H 0.8536(7) 0.9396(6) 0.7626(4)
H29 H 0.8237(7) 1.0684(6) 0.7683(4)
H30 H 0.540(1) 0.9504(8) 0.5268(5)
H31 H 0.491(1) 0.784(1) 0.4386(7)
H32 H 0.600(1) 0.6231(8) 0.4933(7)
H33 H 0.7329(9) 0.6273(7) 0.6346(7)
H34 H 0.7844(7) 0.7921(6) 0.7263(5)
S3 S 0.6307(2) 0.6638(1) 0.2706(1)
N5 N 0.5654(4) 0.5744(3) 0.1091(3)
N6 N 0.3141(4) 0.7165(4) 0.1811(3)
O11 O 0.8538(5) 0.3941(3) 0.1175(3)
O12 O 0.8653(4) 0.5740(3) 0.1173(3)
O13 O 0.3331(4) 0.5029(4) 0.0576(4)
O14 O 0.1262(4) 0.7576(5) 0.0768(3)
O15 O 0.1796(5) 0.7788(5) 0.3106(3)
C33 C 0.6517(5) 0.5171(4) 0.2534(4)
C34 C 0.7919(8) 0.4874(5) 0.3108(4)
C35 C 0.5229(8) 0.4613(5) 0.2818(5)
C36 C 0.6535(5) 0.4928(3) 0.1527(3)
C37 C 0.8031(5) 0.4871(4) 0.1266(4)
C38 C 0.5725(5) 0.6822(4) 0.1524(4)
C39 C 0.4081(5) 0.6930(4) 0.1168(3)
C40 C 0.4175(5) 0.5742(5) 0.0867(4)
C41 C 0.1768(5) 0.7501(4) 0.1533(4)
C42 C 0.0894(7) 0.7762(6) 0.2275(4)
C43 C 0.1239(6) 0.8325(5) 0.3784(4)
C44 C 0.0204(8) 0.7842(6) 0.4161(6)
C45 C -0.035(1) 0.8369(8) 0.4872(6)
C46 C 0.013(1) 0.936(1) 0.5170(6)
C47 C 0.116(1) 0.981(1) 0.480(1)
C48 C 0.172(1) 0.9343(9) 0.4079(9)
H35 H 0.3498(4) 0.7075(4) 0.2453(3)
H36 H 0.8075(8) 0.4082(5) 0.3031(4)
H37 H 0.7849(8) 0.5068(5) 0.3744(4)
H38 H 0.8751(8) 0.5268(5) 0.2941(4)
H39 H 0.5320(8) 0.3821(5) 0.2728(5)
H40 H 0.4315(8) 0.4849(5) 0.2448(5)
H41 H 0.5202(8) 0.4814(5) 0.3455(5)
H42 H 0.6118(5) 0.4196(3) 0.1339(3)
H43 H 0.6330(5) 0.7409(4) 0.1352(4)
H44 H 0.3646(5) 0.7489(4) 0.0769(3)
H45 H 0.0114(7) 0.7209(6) 0.2254(4)
H46 H 0.0450(7) 0.8482(6) 0.2187(4)
H47 H -0.0154(8) 0.7101(6) 0.3951(6)
H48 H -0.111(1) 0.8017(8) 0.5148(6)
H49 H -0.023(1) 0.972(1) 0.5695(6)
H50 H 0.148(1) 1.056(1) 0.502(1)
H51 H 0.244(1) 0.9704(9) 0.3777(9)
S4 S 0.6359(2) 0.1593(1) 0.2683(1)
N7 N 0.5576(4) 0.0787(3) 0.1054(3)
N8 N 0.3164(4) 0.2120(4) 0.1878(3)
O16 O 0.8583(4) 0.0639(3) 0.1135(3)
O17 O 0.8287(4) -0.1153(3) 0.1034(3)
O18 O 0.3230(4) 0.0171(4) 0.0492(3)
O19 O 0.1179(4) 0.2460(5) 0.0896(3)
O20 O 0.1667(5) 0.2243(3) 0.3230(3)
C49 C 0.6397(5) 0.0119(4) 0.2471(4)
C50 C 0.7758(7) -0.0298(5) 0.3019(4)
C51 C 0.5048(7) -0.0364(5) 0.2741(5)
C52 C 0.6385(5) -0.0093(4) 0.1452(3)
C53 C 0.7888(5) -0.0201(3) 0.1186(3)
C54 C 0.5714(5) 0.1836(4) 0.1531(3)
C55 C 0.4054(5) 0.2012(4) 0.1200(3)
C56 C 0.4105(5) 0.0839(4) 0.0827(3)
C57 C 0.1713(5) 0.2301(5) 0.1642(4)
C58 C 0.0828(6) 0.2246(5) 0.2377(4)
C59 C 0.2063(7) 0.3220(5) 0.3660(4)
C60 C 0.2943(9) 0.3166(9) 0.4490(5)
C61 C 0.336(1) 0.410(1) 0.4985(7)
C62 C 0.294(1) 0.506(1) 0.468(1)
C63 C 0.211(1) 0.5104(8) 0.3850(9)
C64 C 0.1701(7) 0.4173(6) 0.3353(6)
H52 H 0.3595(4) 0.2064(4) 0.2515(3)
H53 H 0.7818(7) -0.1093(5) 0.2913(4)
H54 H 0.7725(7) -0.0117(5) 0.3660(4)
H55 H 0.8625(7) 0.0053(5) 0.2850(4)
H56 H 0.5051(7) -0.1161(5) 0.2629(5)
H57 H 0.4160(7) -0.0068(5) 0.2391(5)
H58 H 0.5056(7) -0.0183(5) 0.3387(5)
H59 H 0.5879(5) -0.0787(4) 0.1234(3)
H60 H 0.6329(5) 0.2423(4) 0.1369(3)
H61 H 0.3637(5) 0.2624(4) 0.0856(3)
H62 H 0.0245(6) 0.1565(5) 0.2267(4)
H63 H 0.0165(6) 0.2872(5) 0.2359(4)
H64 H 0.3215(9) 0.2449(9) 0.4717(5)
H65 H 0.402(1) 0.407(1) 0.5568(7)
H66 H 0.322(1) 0.573(1) 0.506(1)
H67 H 0.184(1) 0.5838(8) 0.3661(9)
H68 H 0.1110(7) 0.4223(6) 0.2752(6)
loop_
_geom_bond_atom_site_label_1
_geom_bond_atom_site_label_2
_geom_bond_site_symmetry_1
_geom_bond_site_symmetry_2
S1 C1 1_555 1_555
N1 C4 1_555 1_555
N2 C7 1_555 1_555
O1 C5 1_555 1_555
O2 C5 1_555 1_555
O3 C8 1_555 1_555
O4 C9 1_555 1_555
O5 C10 1_555 1_555
C1 C2 1_555 1_555
C2 H2 1_555 1_555
C3 C1 1_555 1_555
C4 C1 1_555 1_555
C5 C4 1_555 1_555
C6 S1 1_555 1_555
C7 C6 1_555 1_555
C8 N1 1_555 1_555
C9 N2 1_555 1_555
C10 C9 1_555 1_555
C11 O5 1_555 1_555
C12 C11 1_555 1_555
C13 C12 1_555 1_555
C14 C13 1_555 1_555
C15 C14 1_555 1_555
C16 C11 1_555 1_555
H1 N2 1_555 1_555
H3 C2 1_555 1_555
H4 C2 1_555 1_555
H5 C3 1_555 1_555
H6 C3 1_555 1_555
H7 C3 1_555 1_555
H8 C4 1_555 1_555
H9 C6 1_555 1_555
H10 C7 1_555 1_555
H11 C10 1_555 1_555
H12 C10 1_555 1_555
H13 C12 1_555 1_555
H14 C13 1_555 1_555
H15 C14 1_555 1_555
H16 C15 1_555 1_555
H17 C16 1_555 1_555
S2 C17 1_555 1_555
N3 C20 1_555 1_555
N4 C23 1_555 1_555
O6 C21 1_555 1_555
O7 C21 1_555 1_555
O8 C24 1_555 1_555
O9 C25 1_555 1_555
O10 C26 1_555 1_555
C17 C18 1_555 1_555
C18 H19 1_555 1_555
C19 C17 1_555 1_555
C20 C17 1_555 1_555
C21 C20 1_555 1_555
C22 S2 1_555 1_555
C23 C22 1_555 1_555
C24 N3 1_555 1_555
C25 N4 1_555 1_555
C26 C25 1_555 1_555
C27 O10 1_555 1_555
C28 C27 1_555 1_555
C29 C28 1_555 1_555
C30 C29 1_555 1_555
C31 C30 1_555 1_555
C32 C27 1_555 1_555
H18 N4 1_555 1_555
H20 C18 1_555 1_555
H21 C18 1_555 1_555
H22 C19 1_555 1_555
H23 C19 1_555 1_555
H24 C19 1_555 1_555
H25 C20 1_555 1_555
H26 C22 1_555 1_555
H27 C23 1_555 1_555
H28 C26 1_555 1_555
H29 C26 1_555 1_555
H30 C28 1_555 1_555
H31 C29 1_555 1_555
H32 C30 1_555 1_555
H33 C31 1_555 1_555
H34 C32 1_555 1_555
S3 C33 1_555 1_555
N5 C36 1_555 1_555
N6 C39 1_555 1_555
O11 C37 1_555 1_555
O12 C37 1_555 1_555
O13 C40 1_555 1_555
O14 C41 1_555 1_555
O15 C42 1_555 1_555
C33 C34 1_555 1_555
C34 H36 1_555 1_555
C35 C33 1_555 1_555
C36 C33 1_555 1_555
C37 C36 1_555 1_555
C38 S3 1_555 1_555
C39 C38 1_555 1_555
C40 N5 1_555 1_555
C41 N6 1_555 1_555
C42 C41 1_555 1_555
C43 O15 1_555 1_555
C44 C43 1_555 1_555
C45 C44 1_555 1_555
C46 C45 1_555 1_555
C47 C46 1_555 1_555
C48 C43 1_555 1_555
H35 N6 1_555 1_555
H37 C34 1_555 1_555
H38 C34 1_555 1_555
H39 C35 1_555 1_555
H40 C35 1_555 1_555
H41 C35 1_555 1_555
H42 C36 1_555 1_555
H43 C38 1_555 1_555
H44 C39 1_555 1_555
H45 C42 1_555 1_555
H46 C42 1_555 1_555
H47 C44 1_555 1_555
H48 C45 1_555 1_555
H49 C46 1_555 1_555
H50 C47 1_555 1_555
H51 C48 1_555 1_555
S4 C49 1_555 1_555
N7 C52 1_555 1_555
N8 C55 1_555 1_555
O16 C53 1_555 1_555
O17 C53 1_555 1_555
O18 C56 1_555 1_555
O19 C57 1_555 1_555
O20 C58 1_555 1_555
C49 C50 1_555 1_555
C50 H53 1_555 1_555
C51 C49 1_555 1_555
C52 C49 1_555 1_555
C53 C52 1_555 1_555
C54 S4 1_555 1_555
C55 C54 1_555 1_555
C56 N7 1_555 1_555
C57 N8 1_555 1_555
C58 C57 1_555 1_555
C59 O20 1_555 1_555
C60 C59 1_555 1_555
C61 C60 1_555 1_555
C62 C61 1_555 1_555
C63 C62 1_555 1_555
C64 C59 1_555 1_555
H52 N8 1_555 1_555
H54 C50 1_555 1_555
H55 C50 1_555 1_555
H56 C51 1_555 1_555
H57 C51 1_555 1_555
H58 C51 1_555 1_555
H59 C52 1_555 1_555
H60 C54 1_555 1_555
H61 C55 1_555 1_555
H62 C58 1_555 1_555
H63 C58 1_555 1_555
H64 C60 1_555 1_555
H65 C61 1_555 1_555
H66 C62 1_555 1_555
H67 C63 1_555 1_555
H68 C64 1_555 1_555
N1 C6 1_555 1_555
C7 C8 1_555 1_555
C15 C16 1_555 1_555
N3 C22 1_555 1_555
C23 C24 1_555 1_555
C31 C32 1_555 1_555
N5 C38 1_555 1_555
C39 C40 1_555 1_555
C47 C48 1_555 1_555
N7 C54 1_555 1_555
C55 C56 1_555 1_555
C63 C64 1_555 1_555

#END
