
#######################################################################
#
#                 Cambridge Crystallographic Data Centre
#                                CCDC 
#
#######################################################################
#
# If this CIF has been generated from an entry in the Cambridge 
# Structural Database, then it will include bibliographic, chemical, 
# crystal, experimental, refinement or atomic coordinate data resulting 
# from the CCDC's data processing and validation procedures.
#
#######################################################################

data_WAVCIH
_chemical_formula_moiety         'C29 H25 B1 F6 N2 O1,C3 H6 O1'
_chemical_name_systematic        
'diphenyl-[((R*,S*)-2,8-bis(trifluoromethyl)quinolin-4-yl)-(piperidin-2-yl)methanolato]-boron acetone solvate'
_symmetry_cell_setting           triclinic
_symmetry_space_group_name_H-M   'P -1'
_symmetry_Int_Tables_number      2
_space_group_name_Hall           '-P 1'
loop_
_symmetry_equiv_pos_site_id
_symmetry_equiv_pos_as_xyz
1 x,y,z
2 -x,-y,-z
_cell_length_a                   9.5114(3)
_cell_length_b                   12.4359(3)
_cell_length_c                   12.5346(4)
_cell_angle_alpha                80.982(2)
_cell_angle_beta                 84.649(2)
_cell_angle_gamma                80.578(2)
_cell_volume                     1441.07
_exptl_crystal_colour            colorless
_exptl_crystal_description       sheet
_cell_formula_units_Z            2
loop_
_atom_site_label
_atom_site_type_symbol
_atom_site_fract_x
_atom_site_fract_y
_atom_site_fract_z
O1 O 0.15548(16) 0.24015(13) 0.16444(12)
F1 F 0.83790(19) 0.33864(13) -0.19313(13)
F2 F 0.73936(18) 0.50655(12) -0.18856(13)
N1 N 0.5269(2) 0.36908(16) -0.12177(15)
F3 F 0.93552(18) 0.44513(16) -0.11261(14)
N2 N 0.2495(2) 0.08769(16) 0.29861(16)
H1 H 0.272(3) 0.118(2) 0.350(2)
C1 C 0.7290(3) 0.38108(18) -0.02443(19)
C2 C 0.3017(2) 0.23910(18) 0.17518(17)
H2 H 0.3121 0.2816 0.2347
C3 C 0.5175(2) 0.31394(17) 0.07430(17)
C4 C 0.3159(3) 0.30622(19) -0.02536(18)
H3 H 0.2215 0.2921 -0.0296
C5 C 0.3776(2) 0.28810(17) 0.07224(17)
C6 C 0.0434(2) 0.23799(19) 0.36178(18)
C7 C 0.5879(2) 0.35468(18) -0.02548(18)
C8 C 0.7933(3) 0.3689(2) 0.0704(2)
H4 H 0.8864 0.3875 0.0700
C9 C -0.0222(2) 0.10712(19) 0.22703(19)
C10 C 0.5892(3) 0.30127(19) 0.17120(18)
H5 H 0.5435 0.2733 0.2381
C11 C 0.3967(3) 0.34623(19) -0.11884(18)
F4 F 0.3756(3) 0.44824(18) -0.29442(16)
C12 C -0.0121(2) 0.35092(19) 0.34293(19)
F5 F 0.3782(3) 0.27944(16) -0.28115(17)
F6 F 0.1972(2) 0.3814(4) -0.22226(17)
C13 C 0.2544(3) -0.03322(19) 0.3368(2)
H6 H 0.1690 -0.0449 0.3860
H7 H 0.3398 -0.0605 0.3784
C14 C 0.3670(3) 0.04729(19) 0.11893(19)
H8 H 0.4489 0.0621 0.0669
H9 H 0.2787 0.0694 0.0798
C15 C -0.0670(3) 0.3572(2) 0.5343(2)
H10 H -0.1055 0.3969 0.5919
C16 C -0.0671(3) 0.4095(2) 0.4275(2)
H11 H -0.1049 0.4854 0.4122
C17 C 0.3605(2) 0.11611(18) 0.20982(18)
H12 H 0.4563 0.1081 0.2394
C18 C 0.8096(3) 0.4179(2) -0.1294(2)
C19 C -0.0101(3) 0.2468(2) 0.55573(19)
H13 H -0.0072 0.2108 0.6284
C20 C 0.7228(3) 0.3288(2) 0.16942(19)
H14 H 0.7685 0.3211 0.2350
C21 C 0.0428(3) 0.1885(2) 0.47063(19)
H15 H 0.0799 0.1125 0.4867
C22 C 0.2595(3) -0.0995(2) 0.2442(2)
H16 H 0.1948 -0.1487 0.2387
C23 C 0.3829(3) -0.0761(2) 0.1609(2)
H17 H 0.3826 -0.1178 0.0999
H18 H 0.4749 -0.1002 0.1948
C24 C -0.2168(3) -0.0021(2) 0.2727(3)
H19 H -0.2761 -0.0394 0.3264
B1 B 0.0980(3) 0.1712(2) 0.2608(2)
C25 C 0.3353(3) 0.3627(2) -0.22822(19)
C26 C -0.0411(3) 0.1049(2) 0.1180(2)
H20 H 0.0187 0.1410 0.0638
C27 C -0.2315(3) -0.0030(2) 0.1645(3)
H21 H -0.3010 -0.0410 0.1434
C28 C -0.1449(3) 0.0515(2) 0.0866(2)
H22 H -0.1562 0.0524 0.0119
C29 C -0.1148(3) 0.0538(2) 0.3035(2)
H23 H -0.1078 0.0557 0.3782
O2 O 0.4305(2) 0.18123(17) 0.43854(17)
C30 C 0.4556(3) 0.2708(2) 0.4536(2)
C31 C 0.3416(3) 0.3694(3) 0.4491(2)
H24 H 0.3524 0.4166 0.3794
H25 H 0.3501 0.4108 0.5080
H26 H 0.2475 0.3454 0.4569
C32 C 0.6027(3) 0.2874(3) 0.4738(2)
H27 H 0.6054 0.2969 0.5497
H28 H 0.6276 0.3531 0.4267
H29 H 0.6713 0.2229 0.4582
loop_
_geom_bond_atom_site_label_1
_geom_bond_atom_site_label_2
_geom_bond_site_symmetry_1
_geom_bond_site_symmetry_2
O1 C2 1_555 1_555
F1 C18 1_555 1_555
F2 C18 1_555 1_555
N1 C7 1_555 1_555
F3 C18 1_555 1_555
N2 H1 1_555 1_555
C1 C7 1_555 1_555
C2 H2 1_555 1_555
C3 C5 1_555 1_555
C4 H3 1_555 1_555
C5 C2 1_555 1_555
C6 C12 1_555 1_555
C7 C3 1_555 1_555
C8 C1 1_555 1_555
H4 C8 1_555 1_555
C9 B1 1_555 1_555
C10 C3 1_555 1_555
H5 C10 1_555 1_555
C11 N1 1_555 1_555
F4 C25 1_555 1_555
C12 C16 1_555 1_555
F5 C25 1_555 1_555
F6 C25 1_555 1_555
C13 N2 1_555 1_555
H6 C13 1_555 1_555
H7 C13 1_555 1_555
C14 H8 1_555 1_555
H9 C14 1_555 1_555
C15 H10 1_555 1_555
C16 C15 1_555 1_555
H11 C16 1_555 1_555
C17 N2 1_555 1_555
H12 C17 1_555 1_555
C18 C1 1_555 1_555
C19 C15 1_555 1_555
H13 C19 1_555 1_555
C20 C8 1_555 1_555
H14 C20 1_555 1_555
C21 C6 1_555 1_555
H15 C21 1_555 1_555
C22 C13 1_555 1_555
H16 C22 1_555 1_555
C23 C14 1_555 1_555
H17 C23 1_555 1_555
H18 C23 1_555 1_555
C24 H19 1_555 1_555
B1 O1 1_555 1_555
C25 C11 1_555 1_555
C26 C9 1_555 1_555
H20 C26 1_555 1_555
C27 C24 1_555 1_555
H21 C27 1_555 1_555
C28 C26 1_555 1_555
H22 C28 1_555 1_555
C29 C9 1_555 1_555
H23 C29 1_555 1_555
O2 C30 1_555 1_555
C30 C31 1_555 1_555
C31 H24 1_555 1_555
H25 C31 1_555 1_555
H26 C31 1_555 1_555
C32 C30 1_555 1_555
H27 C32 1_555 1_555
H28 C32 1_555 1_555
H29 C32 1_555 1_555
N2 B1 1_555 1_555
C2 C17 1_555 1_555
C4 C5 1_555 1_555
C4 C11 1_555 1_555
C6 B1 1_555 1_555
C10 C20 1_555 1_555
C14 C17 1_555 1_555
C19 C21 1_555 1_555
C22 C23 1_555 1_555
C24 C29 1_555 1_555
C27 C28 1_555 1_555

#END
