
#######################################################################
#
#                 Cambridge Crystallographic Data Centre
#                                CCDC 
#
#######################################################################
#
# If this CIF has been generated from an entry in the Cambridge 
# Structural Database, then it will include bibliographic, chemical, 
# crystal, experimental, refinement or atomic coordinate data resulting 
# from the CCDC's data processing and validation procedures.
#
#######################################################################

data_WAVMOY
_chemical_formula_moiety         'C28 H25 Cl1 O3'
_chemical_name_systematic        
2''-chloro-5'-(2-oxo-2-phenylethyl)-1',2',3',4',5',6'-hexahydro-1,1':3',1''-terphenyl-2',4'-dicarbaldehyde
_symmetry_cell_setting           monoclinic
_symmetry_space_group_name_H-M   'P 21'
_symmetry_Int_Tables_number      4
_space_group_name_Hall           'P 2yb'
loop_
_symmetry_equiv_pos_site_id
_symmetry_equiv_pos_as_xyz
1 x,y,z
2 -x,1/2+y,-z
_cell_length_a                   6.5747(5)
_cell_length_b                   16.8602(9)
_cell_length_c                   10.7211(7)
_cell_angle_alpha                90
_cell_angle_beta                 93.733(7)
_cell_angle_gamma                90
_cell_volume                     1185.92
_cell_formula_units_Z            2
loop_
_atom_site_label
_atom_site_type_symbol
_atom_site_fract_x
_atom_site_fract_y
_atom_site_fract_z
Cl1 Cl -0.1860(3) -0.42723(7) -0.11401(14)
O1 O -0.7126(9) -0.3526(3) 0.0739(4)
O2 O -0.1806(6) -0.1800(3) -0.3556(3)
O3 O 0.1731(4) -0.10589(16) -0.1542(3)
C1 C -0.3738(6) -0.25985(18) -0.0877(3)
H1 H -0.2493 -0.2847 -0.0507
C2 C -0.5144(7) -0.24225(19) 0.0191(3)
H2 H -0.6429 -0.2199 -0.0166
C3 C -0.4143(6) -0.1830(2) 0.1133(3)
H3 H -0.2891 -0.2074 0.1499
C4 C -0.3540(6) -0.10797(19) 0.0460(3)
H4 H -0.2869 -0.0720 0.1062
H5 H -0.4762 -0.0819 0.0109
C5 C -0.2127(5) -0.12397(18) -0.0580(3)
H6 H -0.0900 -0.1494 -0.0198
C6 C -0.3123(5) -0.18290(19) -0.1522(3)
H7 H -0.4354 -0.1584 -0.1916
C7 C -0.4744(6) -0.3179(2) -0.1811(3)
C8 C -0.4063(7) -0.3948(2) -0.1962(4)
C9 C -0.5081(8) -0.4473(2) -0.2785(4)
H8 H -0.4579 -0.4982 -0.2888
C10 C -0.6821(8) -0.4234(3) -0.3439(4)
H9 H -0.7535 -0.4589 -0.3966
C11 C -0.7532(7) -0.3469(3) -0.3325(4)
H10 H -0.8695 -0.3301 -0.3790
C12 C -0.6488(6) -0.2957(2) -0.2509(4)
H11 H -0.6979 -0.2444 -0.2425
C13 C -0.5574(11) -0.3186(3) 0.0828(4)
H12 H -0.4524 -0.3409 0.1337
C14 C -0.5512(6) -0.1660(2) 0.2192(3)
C15 C -0.4794(7) -0.1744(2) 0.3418(3)
H13 H -0.3458 -0.1909 0.3601
C16 C -0.6031(9) -0.1585(3) 0.4386(4)
H14 H -0.5510 -0.1640 0.5209
C17 C -0.8005(9) -0.1349(3) 0.4148(4)
H15 H -0.8841 -0.1256 0.4799
C18 C -0.8719(7) -0.1255(3) 0.2943(4)
H16 H -1.0054 -0.1087 0.2768
C19 C -0.7488(7) -0.1407(2) 0.1964(4)
H17 H -0.8008 -0.1336 0.1144
C20 C -0.1737(7) -0.2047(2) -0.2529(4)
H18 H -0.0720 -0.2416 -0.2318
C21 C -0.1453(6) -0.0471(2) -0.1191(4)
H19 H -0.2487 -0.0322 -0.1835
H20 H -0.1393 -0.0055 -0.0565
C22 C 0.0573(6) -0.0507(2) -0.1768(4)
C23 C 0.1154(6) 0.0151(2) -0.2598(3)
C24 C 0.2979(7) 0.0084(3) -0.3175(4)
H21 H 0.3791 -0.0363 -0.3036
C25 C 0.3590(9) 0.0677(4) -0.3950(5)
H22 H 0.4827 0.0634 -0.4320
C26 C 0.2410(11) 0.1316(3) -0.4175(4)
H23 H 0.2812 0.1702 -0.4727
C27 C 0.0644(10) 0.1408(3) -0.3611(5)
H24 H -0.0133 0.1864 -0.3756
C28 C -0.0016(7) 0.0821(2) -0.2813(4)
H25 H -0.1236 0.0881 -0.2429
loop_
_geom_bond_atom_site_label_1
_geom_bond_atom_site_label_2
_geom_bond_site_symmetry_1
_geom_bond_site_symmetry_2
Cl1 C8 1_555 1_555
O1 C13 1_555 1_555
O2 C20 1_555 1_555
O3 C22 1_555 1_555
C1 H1 1_555 1_555
C2 C1 1_555 1_555
H2 C2 1_555 1_555
C3 C2 1_555 1_555
H3 C3 1_555 1_555
C4 C3 1_555 1_555
H4 C4 1_555 1_555
H5 C4 1_555 1_555
C5 C4 1_555 1_555
H6 C5 1_555 1_555
C6 C1 1_555 1_555
H7 C6 1_555 1_555
C7 C1 1_555 1_555
C8 C7 1_555 1_555
C9 C8 1_555 1_555
H8 C9 1_555 1_555
C10 C9 1_555 1_555
H9 C10 1_555 1_555
C11 C10 1_555 1_555
H10 C11 1_555 1_555
C12 C7 1_555 1_555
H11 C12 1_555 1_555
C13 C2 1_555 1_555
H12 C13 1_555 1_555
C14 C3 1_555 1_555
C15 C14 1_555 1_555
H13 C15 1_555 1_555
C16 C15 1_555 1_555
H14 C16 1_555 1_555
C17 C16 1_555 1_555
H15 C17 1_555 1_555
C18 C17 1_555 1_555
H16 C18 1_555 1_555
C19 C14 1_555 1_555
H17 C19 1_555 1_555
C20 C6 1_555 1_555
H18 C20 1_555 1_555
C21 C5 1_555 1_555
H19 C21 1_555 1_555
H20 C21 1_555 1_555
C22 C21 1_555 1_555
C23 C22 1_555 1_555
C24 C23 1_555 1_555
H21 C24 1_555 1_555
C25 C24 1_555 1_555
H22 C25 1_555 1_555
C26 C25 1_555 1_555
H23 C26 1_555 1_555
C27 C26 1_555 1_555
H24 C27 1_555 1_555
C28 C23 1_555 1_555
H25 C28 1_555 1_555
C5 C6 1_555 1_555
C11 C12 1_555 1_555
C18 C19 1_555 1_555
C27 C28 1_555 1_555

#END
