
#######################################################################
#
#                 Cambridge Crystallographic Data Centre
#                                CCDC 
#
#######################################################################
#
# If this CIF has been generated from an entry in the Cambridge 
# Structural Database, then it will include bibliographic, chemical, 
# crystal, experimental, refinement or atomic coordinate data resulting 
# from the CCDC's data processing and validation procedures.
#
#######################################################################

data_WAVMIS
_chemical_compound_source        'Ervatamia officinalis'
_chemical_name_common            'Lirofoline A'
_chemical_formula_moiety         'C20 H24 N2 O2'
_chemical_name_systematic        
16-ethyl-6-methoxy-10,12-diazapentacyclo[12.3.1.0^2,10^.0^4,9^.0^12,17^]octadeca-2,4,6,8-tetraene-3-carbaldehyde
_symmetry_cell_setting           orthorhombic
_symmetry_space_group_name_H-M   'P 21 21 21'
_symmetry_Int_Tables_number      19
_space_group_name_Hall           'P 2ac 2ab'
loop_
_symmetry_equiv_pos_site_id
_symmetry_equiv_pos_as_xyz
1 x,y,z
2 1/2-x,-y,1/2+z
3 -x,1/2+y,1/2-z
4 1/2+x,1/2-y,-z
_cell_length_a                   8.75070(10)
_cell_length_b                   14.3787(2)
_cell_length_c                   27.3576(4)
_cell_angle_alpha                90
_cell_angle_beta                 90
_cell_angle_gamma                90
_cell_volume                     3442.23
_exptl_crystal_colour            colorless
_cell_formula_units_Z            8
loop_
_atom_site_label
_atom_site_type_symbol
_atom_site_fract_x
_atom_site_fract_y
_atom_site_fract_z
O1 O 0.9721(2) 0.72318(11) 0.06570(5)
O2 O 1.0673(2) 1.00764(10) 0.18928(6)
N1 N 0.8130(2) 0.76178(11) 0.25914(6)
N2 N 0.7572(2) 0.73187(11) 0.34373(6)
C1 C 0.8663(2) 0.84832(13) 0.26999(7)
C2 C 0.9158(3) 0.70862(15) 0.35930(9)
H1 H 0.977713 0.694085 0.330906
H2 H 0.914430 0.654595 0.380533
C3 C 0.7283(3) 0.70303(14) 0.29435(8)
H3 H 0.619643 0.707197 0.287662
H4 H 0.759016 0.638655 0.290361
C4 C 1.0049(3) 0.97559(14) 0.22566(8)
H5 H 1.003880 1.012046 0.253737
C5 C 0.9336(2) 0.88613(13) 0.22810(7)
C6 C 0.9194(2) 0.81792(13) 0.18977(7)
C7 C 0.9656(2) 0.81490(14) 0.14069(8)
H6 H 1.016320 0.864813 0.126391
C8 C 0.9334(3) 0.73536(15) 0.11428(8)
C9 C 0.8566(3) 0.65960(15) 0.13531(8)
H7 H 0.836945 0.607109 0.116473
C10 C 0.8099(3) 0.66169(15) 0.18347(8)
H8 H 0.758033 0.611880 0.197444
C11 C 0.8434(2) 0.74147(14) 0.21028(7)
C12 C 0.9837(3) 0.79156(16) 0.38639(8)
H9 H 1.082161 0.774426 0.400890
C13 C 0.8715(3) 0.81975(17) 0.42637(8)
H10 H 0.917795 0.866065 0.447469
H11 H 0.845252 0.766045 0.446120
C14 C 0.8540(2) 0.88543(13) 0.32108(7)
H12 H 0.828444 0.951750 0.319873
C15 C 1.0050(3) 0.87199(16) 0.35046(8)
H13 H 1.088510 0.858323 0.328273
H14 H 1.029617 0.928546 0.368122
C16 C 0.5790(4) 0.8556(2) 0.48283(9)
H15 H 0.660505 0.823803 0.499364
H16 H 0.482975 0.837671 0.496927
H17 H 0.592486 0.921515 0.486216
C17 C 0.5808(3) 0.82964(17) 0.42865(9)
H18 H 0.569764 0.762771 0.425585
H19 H 0.493832 0.858371 0.412689
C18 C 0.7268(3) 0.85979(15) 0.40249(8)
H20 H 0.733003 0.927744 0.404419
C19 C 0.7276(2) 0.83290(14) 0.34858(7)
H21 H 0.628213 0.847763 0.334042
C20 C 1.0792(3) 0.78704(18) 0.04614(8)
H22 H 1.032666 0.847309 0.043506
H23 H 1.110909 0.766426 0.014349
H24 H 1.166430 0.790678 0.067319
O3 O 0.67841(19) 0.14882(11) 0.38813(5)
O4 O 0.3548(2) -0.12785(12) 0.30328(6)
N3 N 0.59690(19) 0.06495(11) 0.19366(6)
N4 N 0.5980(2) 0.06156(12) 0.10551(6)
C21 C 0.4945(2) -0.00592(14) 0.19575(7)
C22 C 0.7050(3) -0.01755(16) 0.09757(9)
H25 H 0.766268 -0.027363 0.126662
H26 H 0.773312 -0.003459 0.070638
C23 C 0.6375(3) 0.11510(14) 0.14803(7)
H27 H 0.584033 0.174160 0.147101
H28 H 0.746377 0.127780 0.147805
C24 C 0.3719(3) -0.10323(15) 0.26063(8)
H29 H 0.319652 -0.136528 0.236763
C25 C 0.4654(2) -0.02778(13) 0.24465(7)
C26 C 0.5521(2) 0.03690(13) 0.27397(7)
C27 C 0.5618(2) 0.05334(14) 0.32451(7)
H30 H 0.506465 0.017837 0.346738
C28 C 0.6568(3) 0.12436(14) 0.33988(7)
C29 C 0.7417(3) 0.17779(15) 0.30668(8)
H31 H 0.806753 0.223768 0.318453
C30 C 0.7308(2) 0.16361(14) 0.25698(8)
H32 H 0.785898 0.199720 0.234958
C31 C 0.6340(2) 0.09304(13) 0.24114(7)
C32 C 0.6136(3) -0.10522(16) 0.08606(8)
H33 H 0.683210 -0.155688 0.076893
C33 C 0.5060(3) -0.08351(17) 0.04350(8)
H34 H 0.456001 -0.140031 0.032610
H35 H 0.563646 -0.058125 0.016307
C34 C 0.4311(2) -0.04660(14) 0.14969(7)
H36 H 0.324321 -0.064312 0.155085
C35 C 0.5221(3) -0.13307(15) 0.13112(8)
H37 H 0.590514 -0.155042 0.156523
H38 H 0.451957 -0.182950 0.122973
C36 C 0.2949(3) 0.0234(2) -0.02561(9)
H39 H 0.371207 -0.017070 -0.039143
H40 H 0.275309 0.073480 -0.047961
H41 H 0.202399 -0.010979 -0.020225
C37 C 0.3518(3) 0.06278(17) 0.02280(8)
H42 H 0.275313 0.104915 0.035785
H43 H 0.444124 0.098402 0.016962
C38 C 0.3854(3) -0.01231(14) 0.06079(7)
H44 H 0.290079 -0.046277 0.066775
C39 C 0.4384(2) 0.02825(14) 0.10957(7)
H45 H 0.371931 0.080367 0.118574
C40 C 0.5669(3) 0.11893(17) 0.42222(8)
H46 H 0.467527 0.138475 0.411472
H47 H 0.588268 0.145705 0.453634
H48 H 0.569308 0.052339 0.424671
loop_
_geom_bond_atom_site_label_1
_geom_bond_atom_site_label_2
_geom_bond_site_symmetry_1
_geom_bond_site_symmetry_2
O1 C8 1_555 1_555
O2 C4 1_555 1_555
N1 C1 1_555 1_555
N2 C2 1_555 1_555
C1 C5 1_555 1_555
C2 H1 1_555 1_555
H2 C2 1_555 1_555
C3 N1 1_555 1_555
H3 C3 1_555 1_555
H4 C3 1_555 1_555
C4 H5 1_555 1_555
C5 C4 1_555 1_555
C6 C5 1_555 1_555
C7 C6 1_555 1_555
H6 C7 1_555 1_555
C8 C7 1_555 1_555
C9 C8 1_555 1_555
H7 C9 1_555 1_555
C10 C9 1_555 1_555
H8 C10 1_555 1_555
C11 N1 1_555 1_555
C12 C2 1_555 1_555
H9 C12 1_555 1_555
C13 C12 1_555 1_555
H10 C13 1_555 1_555
H11 C13 1_555 1_555
C14 C1 1_555 1_555
H12 C14 1_555 1_555
C15 C12 1_555 1_555
H13 C15 1_555 1_555
H14 C15 1_555 1_555
C16 H15 1_555 1_555
H16 C16 1_555 1_555
H17 C16 1_555 1_555
C17 C16 1_555 1_555
H18 C17 1_555 1_555
H19 C17 1_555 1_555
C18 C13 1_555 1_555
H20 C18 1_555 1_555
C19 N2 1_555 1_555
H21 C19 1_555 1_555
C20 O1 1_555 1_555
H22 C20 1_555 1_555
H23 C20 1_555 1_555
H24 C20 1_555 1_555
O3 C28 1_555 1_555
O4 C24 1_555 1_555
N3 C21 1_555 1_555
N4 C22 1_555 1_555
C21 C25 1_555 1_555
C22 H25 1_555 1_555
H26 C22 1_555 1_555
C23 N3 1_555 1_555
H27 C23 1_555 1_555
H28 C23 1_555 1_555
C24 H29 1_555 1_555
C25 C24 1_555 1_555
C26 C25 1_555 1_555
C27 C26 1_555 1_555
H30 C27 1_555 1_555
C28 C27 1_555 1_555
C29 C28 1_555 1_555
H31 C29 1_555 1_555
C30 C29 1_555 1_555
H32 C30 1_555 1_555
C31 N3 1_555 1_555
C32 C22 1_555 1_555
H33 C32 1_555 1_555
C33 C32 1_555 1_555
H34 C33 1_555 1_555
H35 C33 1_555 1_555
C34 C21 1_555 1_555
H36 C34 1_555 1_555
C35 C32 1_555 1_555
H37 C35 1_555 1_555
H38 C35 1_555 1_555
C36 H39 1_555 1_555
H40 C36 1_555 1_555
H41 C36 1_555 1_555
C37 C36 1_555 1_555
H42 C37 1_555 1_555
H43 C37 1_555 1_555
C38 C33 1_555 1_555
H44 C38 1_555 1_555
C39 N4 1_555 1_555
H45 C39 1_555 1_555
C40 O3 1_555 1_555
H46 C40 1_555 1_555
H47 C40 1_555 1_555
H48 C40 1_555 1_555
N2 C3 1_555 1_555
C6 C11 1_555 1_555
C10 C11 1_555 1_555
C14 C15 1_555 1_555
C14 C19 1_555 1_555
C17 C18 1_555 1_555
C18 C19 1_555 1_555
N4 C23 1_555 1_555
C26 C31 1_555 1_555
C30 C31 1_555 1_555
C34 C35 1_555 1_555
C34 C39 1_555 1_555
C37 C38 1_555 1_555
C38 C39 1_555 1_555

#END
