
#######################################################################
#
#                 Cambridge Crystallographic Data Centre
#                                CCDC 
#
#######################################################################
#
# If this CIF has been generated from an entry in the Cambridge 
# Structural Database, then it will include bibliographic, chemical, 
# crystal, experimental, refinement or atomic coordinate data resulting 
# from the CCDC's data processing and validation procedures.
#
#######################################################################

data_WAVNEP
_chemical_compound_source        
'locust-associated actinobacteria Amycolatopsis sp. Hca4'
_chemical_name_common            'rifamorpholine A'
_chemical_formula_moiety         'C37 H45 N1 O13'
_chemical_name_systematic        
"5,10,11,19,21-pentahydroxy-15-methoxy-3,6,8,16,18,20,22-heptamethyl-2,9-dioxo-2,3,8,9-tetrahydro-1H-8,3-(epoxytrideca[1,10,12]trieno)furo[3',2':5,6]naphtho[1,2-b][1,4]oxazin-17-yl acetate"
_chemical_properties_biological  'tested for anti-bacterial activity'
_symmetry_cell_setting           monoclinic
_symmetry_space_group_name_H-M   'P 21'
_symmetry_Int_Tables_number      4
_space_group_name_Hall           'P 2yb'
loop_
_symmetry_equiv_pos_site_id
_symmetry_equiv_pos_as_xyz
1 x,y,z
2 -x,1/2+y,-z
_cell_length_a                   11.89730(10)
_cell_length_b                   14.2852(2)
_cell_length_c                   11.9193(2)
_cell_angle_alpha                90
_cell_angle_beta                 114.7490(10)
_cell_angle_gamma                90
_cell_volume                     1839.68
_exptl_crystal_colour            orange
_exptl_crystal_description       block
_cell_formula_units_Z            2
loop_
_atom_site_label
_atom_site_type_symbol
_atom_site_fract_x
_atom_site_fract_y
_atom_site_fract_z
O1 O 0.19872(17) 0.13972(13) 0.14443(18)
O2 O 0.02434(17) 0.05393(15) 0.0838(2)
O3 O 0.2641(2) 0.0108(2) 0.4002(2)
O4 O 0.54607(18) 0.23358(17) 0.6724(2)
O5 O 0.6916(2) 0.11203(18) 0.7296(2)
O6 O 0.6645(3) 0.28480(17) 0.5075(3)
O7 O 0.7590(3) 0.23319(16) 0.3568(3)
H1 H 0.7292 0.2513 0.4038
O8 O 0.8338(3) 0.14582(17) 0.1984(3)
H2 H 0.7962 0.1956 0.1869
O9 O 0.9415(2) -0.16848(16) 0.1399(2)
O10 O 0.87963(17) -0.14264(13) 0.40138(18)
O11 O 0.82575(19) -0.15668(15) 0.5904(2)
H3 H 0.8478 -0.1724 0.5365
O12 O 0.25744(18) -0.18821(14) -0.09912(19)
H4 H 0.2127 -0.1681 -0.0655
O13 O 0.13420(18) -0.06874(14) -0.02337(19)
H5 H 0.0909 -0.0483 0.0117
N1 N 0.9006(2) -0.03695(18) 0.2229(2)
H6 H 0.9278 -0.0011 0.1819
C1 C 0.0764(2) 0.1294(2) 0.1042(2)
C2 C 0.0131(3) 0.2220(2) 0.0882(3)
H7 H 0.0394 0.2527 0.1687
H8 H -0.0768 0.2126 0.0521
H9 H 0.0351 0.2615 0.0331
C3 C 0.2764(2) 0.05543(19) 0.1753(3)
H10 H 0.2268 0.0014 0.1834
C4 C 0.3836(2) 0.0743(2) 0.3015(3)
H11 H 0.4286 0.1316 0.2946
C5 C 0.3300(2) 0.0932(2) 0.3970(3)
H12 H 0.2708 0.1469 0.3680
C6 C 0.1948(4) 0.0190(5) 0.4706(4)
H13 H 0.2511 0.0260 0.5580
H14 H 0.1441 -0.0372 0.4596
H15 H 0.1410 0.0741 0.4432
C7 C 0.4307(3) 0.1162(2) 0.5220(3)
H16 H 0.4820 0.0674 0.5713
C8 C 0.4491(2) 0.2028(2) 0.5642(3)
H17 H 0.3907 0.2485 0.5164
C9 C 0.6664(3) 0.2090(2) 0.6906(3)
C10 C 0.7336(2) 0.0683(2) 0.6525(3)
C11 C 0.7376(3) 0.1250(2) 0.5600(3)
C12 C 0.6884(3) 0.2139(2) 0.5721(3)
C13 C 0.7765(2) 0.08710(19) 0.4700(3)
C14 C 0.7845(3) 0.1404(2) 0.3750(3)
C15 C 0.8230(3) 0.0988(2) 0.2909(3)
C16 C 0.8560(2) 0.0041(2) 0.3034(3)
C17 C 0.9020(2) -0.1311(2) 0.2078(3)
C18 C 0.8434(3) -0.1873(2) 0.2794(3)
C19 C 0.8463(2) -0.04917(19) 0.3946(3)
C20 C 0.8074(2) -0.01033(19) 0.4813(3)
C21 C 0.7989(2) -0.0642(2) 0.5790(3)
C22 C 0.7647(3) -0.0262(2) 0.6673(3)
C23 C 0.7637(4) -0.0821(3) 0.7728(4)
H18 H 0.8478 -0.1036 0.8248
H19 H 0.7091 -0.1363 0.7409
H20 H 0.7336 -0.0430 0.8221
C24 C 0.7037(3) -0.1879(2) 0.2109(3)
H21 H 0.6581 -0.2220 0.2463
C25 C 0.6399(3) -0.1437(2) 0.1039(3)
H22 H 0.6855 -0.1077 0.0701
C26 C 0.5059(3) -0.1466(2) 0.0353(3)
H23 H 0.4602 -0.1844 0.0670
C27 C 0.4428(3) -0.0995(2) -0.0696(3)
C28 C 0.3045(3) -0.1110(2) -0.1428(3)
H24 H 0.2933 -0.1291 -0.2279
C29 C 0.2246(2) -0.0223(2) -0.1600(2)
H25 H 0.2678 0.0308 -0.1802
C30 C 0.1992(2) 0.00757(19) -0.0482(2)
H26 H 0.1422 0.0627 -0.0738
C31 C 0.3143(2) 0.03511(19) 0.0690(3)
H27 H 0.3715 -0.0199 0.0937
C32 C 0.3838(3) 0.1171(2) 0.0465(3)
H28 H 0.3277 0.1707 0.0156
H29 H 0.4149 0.0992 -0.0147
H30 H 0.4534 0.1343 0.1241
C33 C 0.0994(2) -0.0372(2) -0.2718(3)
H31 H 0.0564 -0.0906 -0.2559
H32 H 0.1137 -0.0496 -0.3457
H33 H 0.0485 0.0192 -0.2850
C34 C 0.5015(3) -0.0392(3) -0.1342(4)
H34 H 0.5798 -0.0137 -0.0733
H35 H 0.4455 0.0124 -0.1766
H36 H 0.5173 -0.0770 -0.1947
C35 C 0.8969(3) -0.2846(2) 0.3085(3)
H37 H 0.9856 -0.2807 0.3623
H38 H 0.8850 -0.3166 0.2316
H39 H 0.8551 -0.3197 0.3505
C36 C 0.7545(3) 0.2727(4) 0.7897(4)
H40 H 0.7393 0.3378 0.7612
H41 H 0.8399 0.2556 0.8070
H42 H 0.7412 0.2660 0.8651
C37 C 0.4743(3) -0.0080(2) 0.3390(3)
H43 H 0.5393 0.0031 0.4219
H44 H 0.5117 -0.0139 0.2801
H45 H 0.4299 -0.0658 0.3390
loop_
_geom_bond_atom_site_label_1
_geom_bond_atom_site_label_2
_geom_bond_site_symmetry_1
_geom_bond_site_symmetry_2
O1 C1 1_555 1_555
O2 C1 1_555 1_555
O3 C5 1_555 1_555
O4 C8 1_555 1_555
O5 C9 1_555 1_555
O6 C12 1_555 1_555
O7 H1 1_555 1_555
O8 H2 1_555 1_555
O9 C17 1_555 1_555
O10 C18 1_555 1_555
O11 H3 1_555 1_555
O12 H4 1_555 1_555
O13 H5 1_555 1_555
N1 H6 1_555 1_555
C1 C2 1_555 1_555
C2 H7 1_555 1_555
H8 C2 1_555 1_555
H9 C2 1_555 1_555
C3 O1 1_555 1_555
H10 C3 1_555 1_555
C4 C3 1_555 1_555
H11 C4 1_555 1_555
C5 C4 1_555 1_555
H12 C5 1_555 1_555
C6 O3 1_555 1_555
H13 C6 1_555 1_555
H14 C6 1_555 1_555
H15 C6 1_555 1_555
C7 C5 1_555 1_555
H16 C7 1_555 1_555
C8 C7 1_555 1_555
H17 C8 1_555 1_555
C9 O4 1_555 1_555
C10 O5 1_555 1_555
C11 C10 1_555 1_555
C12 C9 1_555 1_555
C13 C11 1_555 1_555
C14 O7 1_555 1_555
C15 O8 1_555 1_555
C16 N1 1_555 1_555
C17 N1 1_555 1_555
C18 C17 1_555 1_555
C19 O10 1_555 1_555
C20 C13 1_555 1_555
C21 O11 1_555 1_555
C22 C10 1_555 1_555
C23 C22 1_555 1_555
H18 C23 1_555 1_555
H19 C23 1_555 1_555
H20 C23 1_555 1_555
C24 C18 1_555 1_555
H21 C24 1_555 1_555
C25 C24 1_555 1_555
H22 C25 1_555 1_555
C26 C25 1_555 1_555
H23 C26 1_555 1_555
C27 C26 1_555 1_555
C28 O12 1_555 1_555
H24 C28 1_555 1_555
C29 C28 1_555 1_555
H25 C29 1_555 1_555
C30 O13 1_555 1_555
H26 C30 1_555 1_555
C31 C3 1_555 1_555
H27 C31 1_555 1_555
C32 C31 1_555 1_555
H28 C32 1_555 1_555
H29 C32 1_555 1_555
H30 C32 1_555 1_555
C33 C29 1_555 1_555
H31 C33 1_555 1_555
H32 C33 1_555 1_555
H33 C33 1_555 1_555
C34 C27 1_555 1_555
H34 C34 1_555 1_555
H35 C34 1_555 1_555
H36 C34 1_555 1_555
C35 C18 1_555 1_555
H37 C35 1_555 1_555
H38 C35 1_555 1_555
H39 C35 1_555 1_555
C36 C9 1_555 1_555
H40 C36 1_555 1_555
H41 C36 1_555 1_555
H42 C36 1_555 1_555
C37 C4 1_555 1_555
H43 C37 1_555 1_555
H44 C37 1_555 1_555
H45 C37 1_555 1_555
C11 C12 1_555 1_555
C13 C14 1_555 1_555
C14 C15 1_555 1_555
C15 C16 1_555 1_555
C16 C19 1_555 1_555
C19 C20 1_555 1_555
C20 C21 1_555 1_555
C21 C22 1_555 1_555
C27 C28 1_555 1_555
C29 C30 1_555 1_555
C30 C31 1_555 1_555

#END
