
#######################################################################
#
#                 Cambridge Crystallographic Data Centre
#                                CCDC 
#
#######################################################################
#
# If this CIF has been generated from an entry in the Cambridge 
# Structural Database, then it will include bibliographic, chemical, 
# crystal, experimental, refinement or atomic coordinate data resulting 
# from the CCDC's data processing and validation procedures.
#
#######################################################################

data_WAVNAL
_chemical_compound_source        'Ervatamia officinalis'
_chemical_name_common            'ervaoffine F'
_chemical_formula_moiety         'C19 H24 N2 O2'
_chemical_name_systematic        
6-ethyl-7-(5-methoxy-1H-indol-2-yl)-2-azabicyclo[2.2.2]octane-2-carbaldehyde
_symmetry_cell_setting           orthorhombic
_symmetry_space_group_name_H-M   'P 21 21 21'
_symmetry_Int_Tables_number      19
_space_group_name_Hall           'P 2ac 2ab'
loop_
_symmetry_equiv_pos_site_id
_symmetry_equiv_pos_as_xyz
1 x,y,z
2 1/2-x,-y,1/2+z
3 1/2+x,1/2-y,-z
4 -x,1/2+y,1/2-z
_cell_length_a                   7.00418(8)
_cell_length_b                   15.07922(14)
_cell_length_c                   15.68796(17)
_cell_angle_alpha                90
_cell_angle_beta                 90
_cell_angle_gamma                90
_cell_volume                     1656.92
_exptl_crystal_colour            colorless
_exptl_crystal_description       block
_cell_formula_units_Z            4
loop_
_atom_site_label
_atom_site_type_symbol
_atom_site_fract_x
_atom_site_fract_y
_atom_site_fract_z
O1 O 0.52112(19) -0.00174(9) 0.93292(9)
O2 O 0.04429(18) 0.34091(7) 0.68060(7)
N1 N -0.1478(2) 0.10958(9) 0.93733(8)
H1 H -0.241721 0.073512 0.943981
N2 N 0.2863(2) -0.01955(9) 1.03140(9)
C1 C -0.0025(2) 0.12338(10) 0.99522(10)
C2 C 0.4063(3) 0.00781(12) 1.10389(11)
H2 H 0.484906 0.058157 1.088120
H3 H 0.489325 -0.040469 1.121054
C3 C 0.3542(3) -0.01839(11) 0.95222(11)
H4 H 0.269576 -0.031051 0.908180
C4 C 0.1217(2) 0.18533(10) 0.96288(10)
H5 H 0.231709 0.206362 0.989183
C5 C 0.0503(2) 0.21151(10) 0.88121(10)
C6 C 0.1134(2) 0.27242(10) 0.81877(10)
H6 H 0.224417 0.305252 0.826630
C7 C 0.0051(3) 0.28167(10) 0.74571(10)
C8 C -0.1617(3) 0.23132(11) 0.73218(10)
H7 H -0.229849 0.238216 0.681730
C9 C -0.2254(3) 0.17186(11) 0.79286(11)
H8 H -0.336132 0.138964 0.784390
C10 C -0.1183(2) 0.16286(10) 0.86709(10)
C11 C 0.2724(2) 0.03285(11) 1.17676(11)
H9 H 0.346895 0.055682 1.224860
C12 C 0.1593(3) -0.04890(11) 1.20491(11)
H10 H 0.066853 -0.032190 1.248077
H11 H 0.245219 -0.092381 1.229462
C13 C 0.0062(2) 0.06645(10) 1.07325(10)
H12 H -0.123366 0.060214 1.096011
C14 C 0.1362(3) 0.10471(11) 1.14474(10)
H13 H 0.208929 0.154416 1.122704
H14 H 0.057951 0.125873 1.191525
C15 C 0.0175(3) -0.23119(11) 1.03667(11)
H15 H 0.052187 -0.203938 0.983576
H16 H -0.117855 -0.226254 1.044910
H17 H 0.053084 -0.292669 1.035647
C16 C 0.1211(3) -0.18467(10) 1.10956(11)
H18 H 0.256617 -0.183511 1.096792
H19 H 0.104155 -0.219315 1.161100
C17 C 0.0544(2) -0.08981(10) 1.12680(10)
H20 H -0.082359 -0.091776 1.139934
C18 C 0.0825(2) -0.02737(10) 1.05040(10)
H21 H 0.014370 -0.050531 1.000578
C19 C 0.2033(3) 0.39824(12) 0.69203(12)
H22 H 0.211153 0.438580 0.644819
H23 H 0.318201 0.363705 0.695038
H24 H 0.187802 0.431163 0.743946
loop_
_geom_bond_atom_site_label_1
_geom_bond_atom_site_label_2
_geom_bond_site_symmetry_1
_geom_bond_site_symmetry_2
O1 C3 1_555 1_555
O2 C7 1_555 1_555
N1 H1 1_555 1_555
N2 C2 1_555 1_555
C1 N1 1_555 1_555
C2 H2 1_555 1_555
H3 C2 1_555 1_555
C3 N2 1_555 1_555
H4 C3 1_555 1_555
C4 C1 1_555 1_555
H5 C4 1_555 1_555
C5 C4 1_555 1_555
C6 C5 1_555 1_555
H6 C6 1_555 1_555
C7 C6 1_555 1_555
C8 C7 1_555 1_555
H7 C8 1_555 1_555
C9 C8 1_555 1_555
H8 C9 1_555 1_555
C10 N1 1_555 1_555
C11 C2 1_555 1_555
H9 C11 1_555 1_555
C12 C11 1_555 1_555
H10 C12 1_555 1_555
H11 C12 1_555 1_555
C13 C1 1_555 1_555
H12 C13 1_555 1_555
C14 C11 1_555 1_555
H13 C14 1_555 1_555
H14 C14 1_555 1_555
C15 H15 1_555 1_555
H16 C15 1_555 1_555
H17 C15 1_555 1_555
C16 C15 1_555 1_555
H18 C16 1_555 1_555
H19 C16 1_555 1_555
C17 C12 1_555 1_555
H20 C17 1_555 1_555
C18 N2 1_555 1_555
H21 C18 1_555 1_555
C19 O2 1_555 1_555
H22 C19 1_555 1_555
H23 C19 1_555 1_555
H24 C19 1_555 1_555
C5 C10 1_555 1_555
C9 C10 1_555 1_555
C13 C14 1_555 1_555
C13 C18 1_555 1_555
C16 C17 1_555 1_555
C17 C18 1_555 1_555

#END
