
#######################################################################
#
#                 Cambridge Crystallographic Data Centre
#                                CCDC 
#
#######################################################################
#
# If this CIF has been generated from an entry in the Cambridge 
# Structural Database, then it will include bibliographic, chemical, 
# crystal, experimental, refinement or atomic coordinate data resulting 
# from the CCDC's data processing and validation procedures.
#
#######################################################################

data_WAVNOY
_chemical_formula_moiety         'C25 H33 N1 O3 S1 Si1'
_chemical_name_systematic        
N-(1-Methoxyprop-2-en-1-yl)-4-methyl-N-(1-phenyl-5-(trimethylsilyl)pent-4-yn-2-yl)benzenesulfonamide
_symmetry_cell_setting           monoclinic
_symmetry_space_group_name_H-M   'C 2'
_symmetry_Int_Tables_number      5
_space_group_name_Hall           'C 2y'
loop_
_symmetry_equiv_pos_site_id
_symmetry_equiv_pos_as_xyz
1 x,y,z
2 -x,y,-z
3 1/2+x,1/2+y,z
4 1/2-x,1/2+y,-z
_cell_length_a                   19.543(2)
_cell_length_b                   7.6021(9)
_cell_length_c                   19.030(3)
_cell_angle_alpha                90
_cell_angle_beta                 117.214(5)
_cell_angle_gamma                90
_cell_volume                     2514.28
_exptl_crystal_colour            colorless
_exptl_crystal_description       block
_cell_formula_units_Z            4
loop_
_atom_site_label
_atom_site_type_symbol
_atom_site_fract_x
_atom_site_fract_y
_atom_site_fract_z
Si1 Si 1.041916(18) 0.48844(5) 0.701813(19)
S1 S 0.790840(15) 0.99232(4) 0.691295(17)
N1 N 0.86148(6) 0.91668(14) 0.77172(6)
O1 O 0.94466(6) 1.05541(14) 0.89334(6)
O2 O 0.72698(5) 0.87520(15) 0.67092(6)
O3 O 0.78158(6) 1.17553(14) 0.70193(6)
C1 C 1.07142(9) 0.2539(2) 0.71662(9)
C2 C 1.00743(11) 0.5523(3) 0.59674(10)
C3 C 1.12390(9) 0.6313(2) 0.76536(10)
C4 C 0.96185(7) 0.51899(17) 0.72594(7)
C5 C 0.90814(7) 0.54772(16) 0.73962(7)
C6 C 0.84451(7) 0.58701(17) 0.75769(8)
C7 C 0.85877(7) 0.74985(16) 0.81017(7)
C8 C 0.80223(8) 0.7582(2) 0.84570(9)
C9 C 0.81938(7) 0.62820(17) 0.91157(7)
C10 C 0.76611(7) 0.5001(2) 0.90538(8)
C11 C 0.88774(8) 0.6377(2) 0.98161(8)
C12 C 0.78018(9) 0.3866(2) 0.96825(9)
C13 C 0.90254(9) 0.5245(2) 1.04433(8)
C14 C 0.84838(9) 0.3986(2) 1.03749(9)
C15 C 0.82004(6) 0.97856(19) 0.61615(7)
C16 C 0.85419(9) 1.1221(2) 0.60029(9)
C17 C 0.80641(9) 0.8259(2) 0.57167(9)
C18 C 0.87397(9) 1.1126(2) 0.53892(9)
C19 C 0.82668(9) 0.8195(2) 0.51057(9)
C20 C 0.86000(8) 0.9621(2) 0.49278(7)
C21 C 0.87950(11) 0.9552(3) 0.42475(10)
C22 C 0.93068(7) 1.02837(16) 0.81489(7)
C23 C 1.00044(8) 0.94450(18) 0.81609(8)
C24 C 1.06870(9) 0.9407(2) 0.87931(10)
C25 C 0.90140(14) 1.1955(3) 0.90290(12)
H1 H 1.0901(13) 0.218(3) 0.7673(14)
H2 H 1.1108(13) 0.234(3) 0.6993(12)
H3 H 1.0283(11) 0.188(3) 0.6798(12)
H4 H 1.0477(14) 0.526(3) 0.5838(14)
H5 H 0.9632(12) 0.494(4) 0.5574(12)
H6 H 0.9942(14) 0.681(4) 0.5878(14)
H7 H 1.1032(15) 0.753(4) 0.7467(15)
H8 H 1.1591(12) 0.619(3) 0.7463(13)
H9 H 1.1376(11) 0.610(3) 0.8122(12)
H10 H 0.7936(11) 0.603(3) 0.7086(13)
H11 H 0.8354(10) 0.480(3) 0.7856(10)
H12 H 0.9086(11) 0.747(3) 0.8514(11)
H13 H 0.7519(9) 0.752(2) 0.8044(9)
H14 H 0.8064(12) 0.867(3) 0.8657(13)
H15 H 0.7183(9) 0.493(3) 0.8551(10)
H16 H 0.9239(11) 0.731(3) 0.9876(12)
H17 H 0.7422(13) 0.314(3) 0.9651(12)
H18 H 0.9529(13) 0.533(3) 1.0927(12)
H19 H 0.8589(13) 0.310(3) 1.0822(13)
H20 H 0.8584(13) 1.212(3) 0.6225(14)
H21 H 0.7789(12) 0.725(3) 0.5791(13)
H22 H 0.8919(12) 1.226(3) 0.5270(13)
H23 H 0.8184(13) 0.726(3) 0.4816(13)
H24 H 0.8483(11) 0.857(3) 0.3868(12)
H25 H 0.932(2) 0.943(5) 0.4382(18)
H26 H 0.8765(19) 1.058(5) 0.4089(19)
H27 H 0.9181(10) 1.139(3) 0.7799(11)
H28 H 0.9924(10) 0.894(3) 0.7631(10)
H29 H 1.0753(12) 0.992(3) 0.9262(12)
H30 H 1.1136(13) 0.887(3) 0.8751(13)
H31 H 0.9122(15) 1.196(4) 0.9575(18)
H32 H 0.8410(15) 1.189(3) 0.8638(15)
H33 H 0.9120(18) 1.288(5) 0.8877(17)
loop_
_geom_bond_atom_site_label_1
_geom_bond_atom_site_label_2
_geom_bond_site_symmetry_1
_geom_bond_site_symmetry_2
Si1 C1 1_555 1_555
S1 N1 1_555 1_555
N1 C7 1_555 1_555
O1 C22 1_555 1_555
O2 S1 1_555 1_555
O3 S1 1_555 1_555
C1 H1 1_555 1_555
C2 Si1 1_555 1_555
C3 Si1 1_555 1_555
C4 Si1 1_555 1_555
C5 C4 1_555 1_555
C6 C5 1_555 1_555
C7 C6 1_555 1_555
C8 C7 1_555 1_555
C9 C8 1_555 1_555
C10 C9 1_555 1_555
C11 C9 1_555 1_555
C12 C10 1_555 1_555
C13 C11 1_555 1_555
C14 C12 1_555 1_555
C15 S1 1_555 1_555
C16 C15 1_555 1_555
C17 C15 1_555 1_555
C18 C16 1_555 1_555
C19 C17 1_555 1_555
C20 C18 1_555 1_555
C21 C20 1_555 1_555
C22 N1 1_555 1_555
C23 C22 1_555 1_555
C24 C23 1_555 1_555
C25 O1 1_555 1_555
H2 C1 1_555 1_555
H3 C1 1_555 1_555
H4 C2 1_555 1_555
H5 C2 1_555 1_555
H6 C2 1_555 1_555
H7 C3 1_555 1_555
H8 C3 1_555 1_555
H9 C3 1_555 1_555
H10 C6 1_555 1_555
H11 C6 1_555 1_555
H12 C7 1_555 1_555
H13 C8 1_555 1_555
H14 C8 1_555 1_555
H15 C10 1_555 1_555
H16 C11 1_555 1_555
H17 C12 1_555 1_555
H18 C13 1_555 1_555
H19 C14 1_555 1_555
H20 C16 1_555 1_555
H21 C17 1_555 1_555
H22 C18 1_555 1_555
H23 C19 1_555 1_555
H24 C21 1_555 1_555
H25 C21 1_555 1_555
H26 C21 1_555 1_555
H27 C22 1_555 1_555
H28 C23 1_555 1_555
H29 C24 1_555 1_555
H30 C24 1_555 1_555
H31 C25 1_555 1_555
H32 C25 1_555 1_555
H33 C25 1_555 1_555
C13 C14 1_555 1_555
C19 C20 1_555 1_555

#END
