
#######################################################################
#
#                 Cambridge Crystallographic Data Centre
#                                CCDC 
#
#######################################################################
#
# If this CIF has been generated from an entry in the Cambridge 
# Structural Database, then it will include bibliographic, chemical, 
# crystal, experimental, refinement or atomic coordinate data resulting 
# from the CCDC's data processing and validation procedures.
#
#######################################################################

data_WAWDUU
_chemical_compound_source        
'South China Sea gorgonian Suberogorgia reticulata'
_chemical_name_common            'Suberoretisteroid A methanol solvate'
_chemical_formula_moiety         'C29 H44 O6,C1 H4 O1'
_chemical_name_systematic        
'(3S*,16S*,20R*,22R*,24S*)-3,22,25-Trihydroxy-16,24:20,24-diepoxycholest-5-en-3-yl acetate methanol solvate'
_symmetry_cell_setting           monoclinic
_symmetry_space_group_name_H-M   'P 21'
_symmetry_Int_Tables_number      4
_space_group_name_Hall           'P 2yb'
loop_
_symmetry_equiv_pos_site_id
_symmetry_equiv_pos_as_xyz
1 x,y,z
2 -x,1/2+y,-z
_cell_length_a                   8.6596(17)
_cell_length_b                   22.247(4)
_cell_length_c                   15.891(3)
_cell_angle_alpha                90
_cell_angle_beta                 105.314(3)
_cell_angle_gamma                90
_cell_volume                     2952.7
_exptl_crystal_colour            colorless
_exptl_crystal_description       block
_cell_formula_units_Z            4
loop_
_atom_site_label
_atom_site_type_symbol
_atom_site_fract_x
_atom_site_fract_y
_atom_site_fract_z
O1 O -0.4001(7) 0.5089(3) 0.0273(4)
O2 O -0.3176(9) 0.4521(4) -0.0679(4)
O3 O 0.7014(7) 0.4619(3) 0.5906(4)
O4 O 0.5882(7) 0.4443(3) 0.7048(3)
O5 O 0.6271(11) 0.2942(3) 0.6367(5)
H1 H 0.5887 0.2657 0.6569
O6 O 0.8714(9) 0.4800(4) 0.8229(4)
H2 H 0.8191 0.4505 0.8296
C1 C -0.2224(11) 0.4545(5) 0.2549(5)
H7 H -0.2672 0.4523 0.3047
H8 H -0.1993 0.4138 0.2401
C2 C -0.3510(11) 0.4821(5) 0.1761(5)
H9 H -0.4484 0.4584 0.1637
H10 H -0.3764 0.5229 0.1893
C3 C -0.2811(11) 0.4816(5) 0.0990(5)
H11 H -0.2594 0.4402 0.0842
C4 C -0.1310(11) 0.5185(4) 0.1163(5)
H12 H -0.1580 0.5604 0.1217
H13 H -0.0860 0.5151 0.0667
C5 C -0.0062(12) 0.4998(4) 0.1975(6)
C6 C 0.1429(12) 0.4882(4) 0.1972(5)
H14 H 0.1673 0.4911 0.1437
C7 C 0.2726(11) 0.4716(5) 0.2717(5)
H15 H 0.3646 0.4966 0.2721
H16 H 0.3023 0.4303 0.2644
C8 C 0.2357(10) 0.4773(4) 0.3601(5)
H17 H 0.2440 0.5194 0.3790
C9 C 0.0583(11) 0.4540(4) 0.3466(5)
H18 H 0.0553 0.4132 0.3229
C10 C -0.0656(11) 0.4897(4) 0.2814(5)
C11 C 0.0199(12) 0.4480(5) 0.4370(5)
H19 H 0.0089 0.4878 0.4594
H20 H -0.0819 0.4275 0.4289
C12 C 0.1489(12) 0.4133(4) 0.5046(6)
H21 H 0.1193 0.4127 0.5594
H22 H 0.1506 0.3721 0.4851
C13 C 0.3157(11) 0.4391(4) 0.5209(5)
C14 C 0.3449(11) 0.4393(5) 0.4269(5)
H23 H 0.3326 0.3978 0.4054
C15 C 0.5273(12) 0.4556(6) 0.4467(5)
H24 H 0.5447 0.4985 0.4549
H25 H 0.5729 0.4419 0.4004
C16 C 0.5994(12) 0.4197(5) 0.5346(6)
H26 H 0.6624 0.3854 0.5235
C17 C 0.4585(11) 0.3975(4) 0.5674(5)
H27 H 0.4323 0.3571 0.5434
C18 C 0.3278(12) 0.5029(4) 0.5600(5)
H28 H 0.2615 0.5056 0.5997
H29 H 0.2926 0.5318 0.5140
H30 H 0.4370 0.5111 0.5908
C19 C -0.0940(12) 0.5519(5) 0.3155(6)
H31 H -0.1539 0.5479 0.3582
H32 H -0.1529 0.5763 0.2680
H33 H 0.0072 0.5706 0.3419
C20 C 0.5091(11) 0.3910(4) 0.6663(5)
C21 C 0.3696(12) 0.3795(5) 0.7090(5)
H34 H 0.4125 0.3670 0.7684
H35 H 0.3010 0.3486 0.6773
H36 H 0.3092 0.4159 0.7076
C22 C 0.6418(12) 0.3441(4) 0.6935(6)
H37 H 0.6460 0.3298 0.7524
C23 C 0.7955(12) 0.3809(4) 0.6962(6)
H38 H 0.8727 0.3776 0.7527
H39 H 0.8449 0.3677 0.6513
C24 C 0.7321(12) 0.4448(6) 0.6795(6)
C25 C 0.8370(12) 0.4942(5) 0.7301(5)
C26 C 1.0021(12) 0.4945(5) 0.7125(6)
H40 H 1.0697 0.5230 0.7504
H41 H 0.9916 0.5056 0.6528
H42 H 1.0486 0.4552 0.7231
C27 C 0.7601(14) 0.5553(5) 0.7173(7)
H43 H 0.6515 0.5521 0.7208
H44 H 0.7614 0.5706 0.6610
H45 H 0.8183 0.5820 0.7618
C28 C -0.4053(12) 0.4930(5) -0.0530(7)
C29 C -0.5343(13) 0.5211(6) -0.1200(5)
H46 H -0.5178 0.5137 -0.1765
H47 H -0.5344 0.5636 -0.1099
H48 H -0.6352 0.5044 -0.1176
O7 O -0.1029(7) 0.2022(3) 0.6421(3)
O8 O 0.0906(9) 0.2554(4) 0.7336(4)
O9 O 0.4458(7) 0.2556(3) 0.0763(3)
O10 O 0.2228(7) 0.2713(3) -0.0382(3)
O11 O 0.3244(9) 0.4226(3) 0.0287(4)
H3 H 0.2892 0.4536 0.0026
O12 O 0.3941(8) 0.2373(4) -0.1555(3)
H4 H 0.3468 0.2696 -0.1613
C30 C -0.1479(11) 0.2596(4) 0.4140(5)
H49 H -0.2411 0.2640 0.3647
H50 H -0.1058 0.2996 0.4306
C31 C -0.2030(10) 0.2316(5) 0.4926(5)
H51 H -0.2857 0.2561 0.5065
H52 H -0.2442 0.1913 0.4786
C32 C -0.0500(11) 0.2306(5) 0.5702(5)
H53 H -0.0084 0.2712 0.5858
C33 C 0.0751(12) 0.1903(5) 0.5471(5)
H54 H 0.1705 0.1890 0.5956
H55 H 0.0335 0.1497 0.5365
C34 C 0.1180(13) 0.2136(5) 0.4664(6)
C35 C 0.2708(12) 0.2232(6) 0.4694(6)
H56 H 0.3462 0.2170 0.5224
C36 C 0.3303(11) 0.2431(5) 0.3937(5)
H57 H 0.4226 0.2191 0.3915
H58 H 0.3645 0.2847 0.4022
C37 C 0.2024(11) 0.2373(5) 0.3068(5)
H59 H 0.1902 0.1955 0.2866
C38 C 0.0422(11) 0.2626(4) 0.3204(5)
H60 H 0.0649 0.3027 0.3464
C39 C -0.0217(11) 0.2236(4) 0.3847(5)
C40 C -0.0880(11) 0.2702(5) 0.2307(5)
H61 H -0.1233 0.2308 0.2073
H62 H -0.1799 0.2912 0.2405
C41 C -0.0238(11) 0.3054(4) 0.1634(5)
H63 H -0.1062 0.3071 0.1086
H64 H 0.0000 0.3463 0.1839
C42 C 0.1269(11) 0.2771(4) 0.1477(5)
C43 C 0.2515(10) 0.2778(5) 0.2416(5)
H65 H 0.2577 0.3190 0.2639
C44 C 0.4132(11) 0.2633(5) 0.2200(5)
H66 H 0.5036 0.2774 0.2659
H67 H 0.4247 0.2204 0.2120
C45 C 0.3995(11) 0.2978(4) 0.1344(6)
H68 H 0.4735 0.3320 0.1453
C46 C 0.2231(9) 0.3210(4) 0.1011(5)
H69 H 0.2187 0.3614 0.1248
C47 C 0.1024(11) 0.2147(4) 0.1089(5)
H70 H 0.0446 0.1907 0.1405
H71 H 0.2045 0.1965 0.1126
H72 H 0.0424 0.2172 0.0488
C48 C -0.0847(13) 0.1635(5) 0.3496(6)
H73 H -0.0176 0.1471 0.3160
H74 H -0.1918 0.1679 0.3132
H75 H -0.0852 0.1370 0.3972
C49 C 0.1748(10) 0.3258(4) 0.0014(5)
C50 C 0.0006(11) 0.3366(5) -0.0419(5)
H76 H -0.0181 0.3331 -0.1040
H77 H -0.0286 0.3761 -0.0275
H78 H -0.0629 0.3073 -0.0217
C51 C 0.2858(13) 0.3733(4) -0.0286(6)
H79 H 0.2345 0.3873 -0.0879
C52 C 0.4308(12) 0.3356(4) -0.0284(6)
H80 H 0.4560 0.3387 -0.0842
H81 H 0.5227 0.3493 0.0169
C53 C 0.3917(11) 0.2726(5) -0.0119(6)
C54 C 0.4524(11) 0.2230(4) -0.0628(6)
C55 C 0.6336(10) 0.2245(5) -0.0456(6)
H82 H 0.6660 0.1971 -0.0844
H83 H 0.6821 0.2129 0.0137
H84 H 0.6672 0.2645 -0.0552
C56 C 0.3923(13) 0.1628(4) -0.0470(7)
H85 H 0.2774 0.1632 -0.0626
H86 H 0.4321 0.1526 0.0135
H87 H 0.4286 0.1335 -0.0819
C57 C -0.0183(14) 0.2215(6) 0.7209(7)
C58 C -0.0760(12) 0.1900(6) 0.7928(5)
H88 H -0.0585 0.1475 0.7903
H89 H -0.1881 0.1976 0.7845
H90 H -0.0175 0.2051 0.8487
O13 O 0.5034(11) 0.1997(4) 0.7086(5)
H5 H 0.5430 0.2085 0.7599
C59 C 0.5086(16) 0.1378(6) 0.6986(9)
H91 H 0.6156 0.1237 0.7238
H92 H 0.4769 0.1280 0.6376
H93 H 0.4369 0.1190 0.7274
O14 O 0.1163(10) 0.5136(3) 0.9556(4)
H6 H 0.0845 0.5059 0.9035
C60 C 0.1277(17) 0.5753(6) 0.9669(8)
H94 H 0.0398 0.5894 0.9879
H95 H 0.1243 0.5942 0.9122
H96 H 0.2268 0.5850 1.0086
loop_
_geom_bond_atom_site_label_1
_geom_bond_atom_site_label_2
_geom_bond_site_symmetry_1
_geom_bond_site_symmetry_2
O1 C3 1_555 1_555
O2 C28 1_555 1_555
O3 C16 1_555 1_555
O4 C20 1_555 1_555
O5 H1 1_555 1_555
O6 H2 1_555 1_555
O7 C32 1_555 1_555
O8 C57 1_555 1_555
O9 C45 1_555 1_555
O10 C49 1_555 1_555
O11 H3 1_555 1_555
O12 H4 1_555 1_555
O13 H5 1_555 1_555
O14 H6 1_555 1_555
C1 H7 1_555 1_555
H8 C1 1_555 1_555
C2 C1 1_555 1_555
H9 C2 1_555 1_555
H10 C2 1_555 1_555
C3 C2 1_555 1_555
H11 C3 1_555 1_555
C4 C3 1_555 1_555
H12 C4 1_555 1_555
H13 C4 1_555 1_555
C5 C4 1_555 1_555
C6 C5 1_555 1_555
H14 C6 1_555 1_555
C7 C6 1_555 1_555
H15 C7 1_555 1_555
H16 C7 1_555 1_555
C8 C7 1_555 1_555
H17 C8 1_555 1_555
C9 C8 1_555 1_555
H18 C9 1_555 1_555
C10 C1 1_555 1_555
C11 C9 1_555 1_555
H19 C11 1_555 1_555
H20 C11 1_555 1_555
C12 C11 1_555 1_555
H21 C12 1_555 1_555
H22 C12 1_555 1_555
C13 C12 1_555 1_555
C14 C8 1_555 1_555
H23 C14 1_555 1_555
C15 C14 1_555 1_555
H24 C15 1_555 1_555
H25 C15 1_555 1_555
C16 C15 1_555 1_555
H26 C16 1_555 1_555
C17 C13 1_555 1_555
H27 C17 1_555 1_555
C18 C13 1_555 1_555
H28 C18 1_555 1_555
H29 C18 1_555 1_555
H30 C18 1_555 1_555
C19 C10 1_555 1_555
H31 C19 1_555 1_555
H32 C19 1_555 1_555
H33 C19 1_555 1_555
C20 C17 1_555 1_555
C21 C20 1_555 1_555
H34 C21 1_555 1_555
H35 C21 1_555 1_555
H36 C21 1_555 1_555
C22 O5 1_555 1_555
H37 C22 1_555 1_555
C23 C22 1_555 1_555
H38 C23 1_555 1_555
H39 C23 1_555 1_555
C24 O3 1_555 1_555
C25 O6 1_555 1_555
C26 C25 1_555 1_555
H40 C26 1_555 1_555
H41 C26 1_555 1_555
H42 C26 1_555 1_555
C27 C25 1_555 1_555
H43 C27 1_555 1_555
H44 C27 1_555 1_555
H45 C27 1_555 1_555
C28 O1 1_555 1_555
C29 C28 1_555 1_555
H46 C29 1_555 1_555
H47 C29 1_555 1_555
H48 C29 1_555 1_555
C30 H49 1_555 1_555
H50 C30 1_555 1_555
C31 C30 1_555 1_555
H51 C31 1_555 1_555
H52 C31 1_555 1_555
C32 C31 1_555 1_555
H53 C32 1_555 1_555
C33 C32 1_555 1_555
H54 C33 1_555 1_555
H55 C33 1_555 1_555
C34 C33 1_555 1_555
C35 C34 1_555 1_555
H56 C35 1_555 1_555
C36 C35 1_555 1_555
H57 C36 1_555 1_555
H58 C36 1_555 1_555
C37 C36 1_555 1_555
H59 C37 1_555 1_555
C38 C37 1_555 1_555
H60 C38 1_555 1_555
C39 C30 1_555 1_555
C40 C38 1_555 1_555
H61 C40 1_555 1_555
H62 C40 1_555 1_555
C41 C40 1_555 1_555
H63 C41 1_555 1_555
H64 C41 1_555 1_555
C42 C41 1_555 1_555
C43 C37 1_555 1_555
H65 C43 1_555 1_555
C44 C43 1_555 1_555
H66 C44 1_555 1_555
H67 C44 1_555 1_555
C45 C44 1_555 1_555
H68 C45 1_555 1_555
C46 C42 1_555 1_555
H69 C46 1_555 1_555
C47 C42 1_555 1_555
H70 C47 1_555 1_555
H71 C47 1_555 1_555
H72 C47 1_555 1_555
C48 C39 1_555 1_555
H73 C48 1_555 1_555
H74 C48 1_555 1_555
H75 C48 1_555 1_555
C49 C46 1_555 1_555
C50 C49 1_555 1_555
H76 C50 1_555 1_555
H77 C50 1_555 1_555
H78 C50 1_555 1_555
C51 O11 1_555 1_555
H79 C51 1_555 1_555
C52 C51 1_555 1_555
H80 C52 1_555 1_555
H81 C52 1_555 1_555
C53 O9 1_555 1_555
C54 O12 1_555 1_555
C55 C54 1_555 1_555
H82 C55 1_555 1_555
H83 C55 1_555 1_555
H84 C55 1_555 1_555
C56 C54 1_555 1_555
H85 C56 1_555 1_555
H86 C56 1_555 1_555
H87 C56 1_555 1_555
C57 O7 1_555 1_555
C58 C57 1_555 1_555
H88 C58 1_555 1_555
H89 C58 1_555 1_555
H90 C58 1_555 1_555
C59 O13 1_555 1_555
H91 C59 1_555 1_555
H92 C59 1_555 1_555
H93 C59 1_555 1_555
C60 O14 1_555 1_555
H94 C60 1_555 1_555
H95 C60 1_555 1_555
H96 C60 1_555 1_555
O4 C24 1_555 1_555
O10 C53 1_555 1_555
C5 C10 1_555 1_555
C9 C10 1_555 1_555
C13 C14 1_555 1_555
C16 C17 1_555 1_555
C20 C22 1_555 1_555
C23 C24 1_555 1_555
C24 C25 1_555 1_555
C34 C39 1_555 1_555
C38 C39 1_555 1_555
C42 C43 1_555 1_555
C45 C46 1_555 1_555
C49 C51 1_555 1_555
C52 C53 1_555 1_555
C53 C54 1_555 1_555

#END
