
#######################################################################
#
#                 Cambridge Crystallographic Data Centre
#                                CCDC 
#
#######################################################################
#
# If this CIF has been generated from an entry in the Cambridge 
# Structural Database, then it will include bibliographic, chemical, 
# crystal, experimental, refinement or atomic coordinate data resulting 
# from the CCDC's data processing and validation procedures.
#
#######################################################################

data_WAWDUU01
_chemical_compound_source        
'South China Sea gorgonian coral Subergorgia reticulata'
_chemical_name_common            'Reticulatin methanol solvate'
_chemical_formula_moiety         'C29 H44 O6,C1 H4 O1'
_chemical_name_systematic        
'22,25-Dihydroxy-16,24:20,24-diepoxycholest-5-en-3-yl acetate methanol solvate'
_symmetry_cell_setting           monoclinic
_symmetry_space_group_name_H-M   'C 2'
_symmetry_Int_Tables_number      5
_space_group_name_Hall           'C 2y'
loop_
_symmetry_equiv_pos_site_id
_symmetry_equiv_pos_as_xyz
1 x,y,z
2 -x,y,-z
3 1/2+x,1/2+y,z
4 1/2-x,1/2+y,-z
_cell_length_a                   30.680(4)
_cell_length_b                   8.6581(11)
_cell_length_c                   24.466(3)
_cell_angle_alpha                90
_cell_angle_beta                 114.501(2)
_cell_angle_gamma                90
_cell_volume                     5913.71
_exptl_crystal_colour            colorless
_exptl_crystal_description       block
_cell_formula_units_Z            8
loop_
_atom_site_label
_atom_site_type_symbol
_atom_site_fract_x
_atom_site_fract_y
_atom_site_fract_z
C1 C -0.00664(9) -0.1319(4) 0.09946(13)
H1 H -0.0274 -0.1020 0.0587
H2 H 0.0172 -0.2023 0.0974
C2 C -0.03664(10) -0.2182(4) 0.12636(14)
H3 H -0.0523 -0.3061 0.1013
H4 H -0.0161 -0.2560 0.1661
C3 C -0.07358(9) -0.1102(4) 0.13023(13)
H5 H -0.0948 -0.0752 0.0898
C4 C -0.05005(11) 0.0272(4) 0.16869(13)
H6 H -0.0313 -0.0068 0.2096
H7 H -0.0745 0.0974 0.1692
C5 C -0.01775(9) 0.1118(4) 0.14565(12)
C6 C -0.02201(10) 0.2615(4) 0.13661(14)
H8 H -0.0462 0.3112 0.1434
C7 C 0.00866(10) 0.3587(4) 0.11634(14)
H9 H 0.0190 0.4494 0.1417
H10 H -0.0102 0.3932 0.0756
C8 C 0.05277(8) 0.2724(3) 0.11837(11)
H11 H 0.0769 0.2698 0.1600
C9 C 0.03964(8) 0.1063(3) 0.09626(11)
H12 H 0.0135 0.1144 0.0561
C10 C 0.01907(8) 0.0136(3) 0.13434(11)
C11 C 0.08095(9) 0.0239(3) 0.08753(13)
H13 H 0.1060 -0.0001 0.1267
H14 H 0.0691 -0.0731 0.0668
C12 C 0.10300(9) 0.1179(3) 0.05191(12)
H15 H 0.1304 0.0626 0.0516
H16 H 0.0796 0.1282 0.0107
C13 C 0.11882(8) 0.2779(3) 0.07860(10)
C14 C 0.07385(8) 0.3552(3) 0.08013(11)
H17 H 0.0492 0.3498 0.0388
C15 C 0.08671(10) 0.5246(3) 0.09173(14)
H18 H 0.1037 0.5446 0.1344
H19 H 0.0582 0.5886 0.0758
C16 C 0.11882(9) 0.5562(3) 0.05890(12)
H20 H 0.1020 0.6229 0.0241
C17 C 0.12901(8) 0.3976(3) 0.03776(10)
H21 H 0.1038 0.3823 -0.0027
C18 C 0.16020(8) 0.2688(4) 0.14150(10)
H22 H 0.1505 0.2075 0.1672
H23 H 0.1683 0.3709 0.1579
H24 H 0.1876 0.2222 0.1387
C19 C 0.05904(10) -0.0353(4) 0.19530(12)
H25 H 0.0776 0.0536 0.2150
H26 H 0.0794 -0.1101 0.1887
H27 H 0.0449 -0.0797 0.2201
C20 C 0.17658(9) 0.4003(3) 0.03072(10)
C21 C 0.19289(10) 0.2447(4) 0.01875(13)
H28 H 0.2230 0.2556 0.0158
H29 H 0.1695 0.2039 -0.0183
H30 H 0.1966 0.1755 0.0510
C22 C 0.17431(9) 0.5235(4) -0.01641(11)
H31 H 0.1992 0.5009 -0.0305
C23 C 0.18678(10) 0.6735(4) 0.01907(12)
H32 H 0.1595 0.7428 0.0056
H33 H 0.2134 0.7249 0.0150
C24 C 0.20055(9) 0.6231(3) 0.08410(11)
C25 C 0.24227(10) 0.7073(4) 0.13250(12)
C26 C 0.23173(12) 0.8797(4) 0.13190(16)
H34 H 0.2585 0.9307 0.1626
H35 H 0.2036 0.8947 0.1393
H36 H 0.2265 0.9222 0.0934
C27 C 0.25430(12) 0.6383(4) 0.19388(13)
H37 H 0.2604 0.5298 0.1930
H38 H 0.2279 0.6533 0.2047
H39 H 0.2823 0.6881 0.2230
C28 C -0.14717(11) -0.1517(4) 0.13862(16)
C29 C -0.17249(12) -0.2458(4) 0.16737(17)
H40 H -0.2037 -0.2032 0.1575
H41 H -0.1545 -0.2448 0.2102
H42 H -0.1756 -0.3502 0.1530
O1 O -0.10154(6) -0.1936(2) 0.15670(9)
O2 O -0.16548(8) -0.0504(3) 0.10335(13)
O3 O 0.16129(6) 0.6326(2) 0.10038(8)
O4 O 0.21348(6) 0.4648(2) 0.08450(7)
O5 O 0.12951(7) 0.5337(3) -0.06666(8)
H91 H 0.1300 0.4798 -0.0940
O6 O 0.28282(7) 0.6969(3) 0.11788(11)
H92 H 0.2871 0.6065 0.1114
C30 C -0.07214(9) 1.0833(3) 0.40281(13)
H43 H -0.0643 1.0554 0.4442
H44 H -0.0473 1.1527 0.4028
C31 C -0.11982(9) 1.1695(3) 0.37790(14)
H45 H -0.1178 1.2588 0.4028
H46 H -0.1270 1.2053 0.3375
C32 C -0.15906(9) 1.0636(3) 0.37700(11)
H47 H -0.1531 1.0340 0.4182
C33 C -0.16220(9) 0.9213(3) 0.34032(12)
H48 H -0.1731 0.9504 0.2984
H49 H -0.1858 0.8517 0.3436
C34 C -0.11467(8) 0.8371(3) 0.36013(11)
C35 C -0.11236(8) 0.6872(3) 0.36949(12)
H50 H -0.1404 0.6370 0.3651
C36 C -0.06829(8) 0.5911(3) 0.38656(12)
H51 H -0.0757 0.5008 0.3608
H52 H -0.0584 0.5557 0.4276
C37 C -0.02678(8) 0.6785(3) 0.38148(11)
H53 H -0.0319 0.6809 0.3392
C38 C -0.02483(8) 0.8445(3) 0.40387(10)
H54 H -0.0229 0.8360 0.4447
C39 C -0.07128(9) 0.9355(3) 0.36782(11)
C40 C 0.02140(9) 0.9276(3) 0.41008(13)
H55 H 0.0192 0.9508 0.3702
H56 H 0.0235 1.0251 0.4306
C41 C 0.06749(9) 0.8361(3) 0.44420(12)
H57 H 0.0944 0.8923 0.4430
H58 H 0.0726 0.8263 0.4859
C42 C 0.06544(8) 0.6750(3) 0.41757(11)
C43 C 0.02008(8) 0.5968(3) 0.41757(11)
H59 H 0.0239 0.6006 0.4594
C44 C 0.02534(9) 0.4278(3) 0.40507(14)
H60 H 0.0136 0.4090 0.3622
H61 H 0.0079 0.3625 0.4214
C45 C 0.07954(9) 0.3973(3) 0.43679(12)
H62 H 0.0866 0.3293 0.4714
C46 C 0.10306(8) 0.5579(3) 0.45806(10)
H63 H 0.1047 0.5725 0.4986
C47 C 0.06414(9) 0.6852(4) 0.35408(11)
H64 H 0.0362 0.7414 0.3283
H65 H 0.0631 0.5830 0.3384
H66 H 0.0923 0.7376 0.3559
C48 C -0.07454(11) 0.9815(4) 0.30509(12)
H67 H -0.0685 0.8925 0.2858
H68 H -0.0511 1.0596 0.3094
H69 H -0.1060 1.0208 0.2811
C49 C 0.15531(8) 0.5575(3) 0.46500(10)
C50 C 0.17933(9) 0.7127(4) 0.47743(13)
H70 H 0.2116 0.7020 0.4811
H71 H 0.1797 0.7534 0.5141
H72 H 0.1620 0.7818 0.4449
C51 C 0.18472(9) 0.4328(4) 0.51147(11)
H73 H 0.2189 0.4561 0.5256
C52 C 0.17360(9) 0.2836(4) 0.47489(12)
H74 H 0.1555 0.2128 0.4882
H75 H 0.2028 0.2331 0.4783
C53 C 0.14393(8) 0.3365(3) 0.41044(11)
C54 C 0.15380(9) 0.2565(4) 0.36121(13)
C55 C 0.12572(12) 0.3305(4) 0.29998(12)
H76 H 0.1331 0.4387 0.3021
H77 H 0.0920 0.3172 0.2887
H78 H 0.1344 0.2822 0.2706
C56 C 0.14347(12) 0.0849(4) 0.35963(16)
H79 H 0.1506 0.0367 0.3289
H80 H 0.1103 0.0695 0.3511
H81 H 0.1630 0.0399 0.3979
C57 C -0.23772(10) 1.1111(4) 0.36892(13)
C58 C -0.28186(10) 1.2060(4) 0.33814(16)
H82 H -0.3048 1.1803 0.3539
H83 H -0.2952 1.1852 0.2958
H84 H -0.2739 1.3136 0.3449
O7 O -0.20416(6) 1.1475(2) 0.34988(8)
O8 O -0.23278(7) 1.0156(3) 0.40625(10)
O9 O 0.09420(6) 0.3253(2) 0.39427(7)
O10 O 0.15651(5) 0.4952(2) 0.41057(7)
O11 O 0.17325(7) 0.4192(3) 0.56161(8)
H93 H 0.1919 0.4717 0.5894
O12 O 0.20424(6) 0.2685(3) 0.37648(11)
H94 H 0.2126 0.3589 0.3838
C59 C 0.24772(14) 0.0808(6) 0.28342(14)
H85 H 0.2476 0.1825 0.2677
H86 H 0.2161 0.0375 0.2648
H87 H 0.2697 0.0165 0.2750
O13 O 0.26188(8) 0.0894(3) 0.34538(9)
H95 H 0.2434 0.1455 0.3526
C60 C 0.11125(15) 0.3843(6) 0.77917(16)
H88 H 0.0874 0.4639 0.7698
H89 H 0.0959 0.2875 0.7635
H90 H 0.1330 0.4093 0.7614
O14 O 0.13628(9) 0.3732(4) 0.84078(10)
H96 H 0.1586 0.3127 0.8487
loop_
_geom_bond_atom_site_label_1
_geom_bond_atom_site_label_2
_geom_bond_site_symmetry_1
_geom_bond_site_symmetry_2
C1 H1 1_555 1_555
H2 C1 1_555 1_555
C2 C1 1_555 1_555
H3 C2 1_555 1_555
H4 C2 1_555 1_555
C3 C2 1_555 1_555
H5 C3 1_555 1_555
C4 C3 1_555 1_555
H6 C4 1_555 1_555
H7 C4 1_555 1_555
C5 C4 1_555 1_555
C6 C5 1_555 1_555
H8 C6 1_555 1_555
C7 C6 1_555 1_555
H9 C7 1_555 1_555
H10 C7 1_555 1_555
C8 C7 1_555 1_555
H11 C8 1_555 1_555
C9 C8 1_555 1_555
H12 C9 1_555 1_555
C10 C1 1_555 1_555
C11 C9 1_555 1_555
H13 C11 1_555 1_555
H14 C11 1_555 1_555
C12 C11 1_555 1_555
H15 C12 1_555 1_555
H16 C12 1_555 1_555
C13 C12 1_555 1_555
C14 C8 1_555 1_555
H17 C14 1_555 1_555
C15 C14 1_555 1_555
H18 C15 1_555 1_555
H19 C15 1_555 1_555
C16 C15 1_555 1_555
H20 C16 1_555 1_555
C17 C13 1_555 1_555
H21 C17 1_555 1_555
C18 C13 1_555 1_555
H22 C18 1_555 1_555
H23 C18 1_555 1_555
H24 C18 1_555 1_555
C19 C10 1_555 1_555
H25 C19 1_555 1_555
H26 C19 1_555 1_555
H27 C19 1_555 1_555
C20 C17 1_555 1_555
C21 C20 1_555 1_555
H28 C21 1_555 1_555
H29 C21 1_555 1_555
H30 C21 1_555 1_555
C22 C20 1_555 1_555
H31 C22 1_555 1_555
C23 C22 1_555 1_555
H32 C23 1_555 1_555
H33 C23 1_555 1_555
C24 C23 1_555 1_555
C25 C24 1_555 1_555
C26 C25 1_555 1_555
H34 C26 1_555 1_555
H35 C26 1_555 1_555
H36 C26 1_555 1_555
C27 C25 1_555 1_555
H37 C27 1_555 1_555
H38 C27 1_555 1_555
H39 C27 1_555 1_555
C28 C29 1_555 1_555
C29 H40 1_555 1_555
H41 C29 1_555 1_555
H42 C29 1_555 1_555
C30 H43 1_555 1_555
H44 C30 1_555 1_555
C31 C30 1_555 1_555
H45 C31 1_555 1_555
H46 C31 1_555 1_555
C32 C31 1_555 1_555
H47 C32 1_555 1_555
C33 C32 1_555 1_555
H48 C33 1_555 1_555
H49 C33 1_555 1_555
C34 C33 1_555 1_555
C35 C34 1_555 1_555
H50 C35 1_555 1_555
C36 C35 1_555 1_555
H51 C36 1_555 1_555
H52 C36 1_555 1_555
C37 C36 1_555 1_555
H53 C37 1_555 1_555
C38 C37 1_555 1_555
H54 C38 1_555 1_555
C39 C30 1_555 1_555
C40 C38 1_555 1_555
H55 C40 1_555 1_555
H56 C40 1_555 1_555
C41 C40 1_555 1_555
H57 C41 1_555 1_555
H58 C41 1_555 1_555
C42 C41 1_555 1_555
C43 C37 1_555 1_555
H59 C43 1_555 1_555
C44 C43 1_555 1_555
H60 C44 1_555 1_555
H61 C44 1_555 1_555
C45 C44 1_555 1_555
H62 C45 1_555 1_555
C46 C42 1_555 1_555
H63 C46 1_555 1_555
C47 C42 1_555 1_555
H64 C47 1_555 1_555
H65 C47 1_555 1_555
H66 C47 1_555 1_555
C48 C39 1_555 1_555
H67 C48 1_555 1_555
H68 C48 1_555 1_555
H69 C48 1_555 1_555
C49 C46 1_555 1_555
C50 C49 1_555 1_555
H70 C50 1_555 1_555
H71 C50 1_555 1_555
H72 C50 1_555 1_555
C51 C49 1_555 1_555
H73 C51 1_555 1_555
C52 C51 1_555 1_555
H74 C52 1_555 1_555
H75 C52 1_555 1_555
C53 C52 1_555 1_555
C54 C53 1_555 1_555
C55 C54 1_555 1_555
H76 C55 1_555 1_555
H77 C55 1_555 1_555
H78 C55 1_555 1_555
C56 C54 1_555 1_555
H79 C56 1_555 1_555
H80 C56 1_555 1_555
H81 C56 1_555 1_555
C57 C58 1_555 1_555
C58 H82 1_555 1_555
H83 C58 1_555 1_555
H84 C58 1_555 1_555
C59 H85 1_555 1_555
H86 C59 1_555 1_555
H87 C59 1_555 1_555
C60 H88 1_555 1_555
H89 C60 1_555 1_555
H90 C60 1_555 1_555
O1 C3 1_555 1_555
O2 C28 1_555 1_555
O3 C16 1_555 1_555
O4 C20 1_555 1_555
O5 C22 1_555 1_555
H91 O5 1_555 1_555
O6 C25 1_555 1_555
H92 O6 1_555 1_555
O7 C32 1_555 1_555
O8 C57 1_555 1_555
O9 C45 1_555 1_555
O10 C49 1_555 1_555
O11 C51 1_555 1_555
H93 O11 1_555 1_555
O12 C54 1_555 1_555
H94 O12 1_555 1_555
O13 C59 1_555 1_555
H95 O13 1_555 1_555
O14 C60 1_555 1_555
H96 O14 1_555 1_555
C5 C10 1_555 1_555
C9 C10 1_555 1_555
C13 C14 1_555 1_555
C16 C17 1_555 1_555
C24 O3 1_555 1_555
C24 O4 1_555 1_555
C28 O1 1_555 1_555
C34 C39 1_555 1_555
C38 C39 1_555 1_555
C42 C43 1_555 1_555
C45 C46 1_555 1_555
C53 O9 1_555 1_555
C53 O10 1_555 1_555
C57 O7 1_555 1_555

#END
