
#######################################################################
#
#                 Cambridge Crystallographic Data Centre
#                                CCDC 
#
#######################################################################
#
# If this CIF has been generated from an entry in the Cambridge 
# Structural Database, then it will include bibliographic, chemical, 
# crystal, experimental, refinement or atomic coordinate data resulting 
# from the CCDC's data processing and validation procedures.
#
#######################################################################

data_WAWFUW
_chemical_formula_moiety         'C7 H5 I1 N2 O4'
_chemical_name_systematic        3-Iodo-2,6-dinitrotoluene
_symmetry_cell_setting           monoclinic
_symmetry_space_group_name_H-M   'P 21/c'
_symmetry_Int_Tables_number      14
_space_group_name_Hall           '-P 2ybc'
loop_
_symmetry_equiv_pos_site_id
_symmetry_equiv_pos_as_xyz
1 x,y,z
2 -x,1/2+y,1/2-z
3 -x,-y,-z
4 x,1/2-y,1/2+z
_cell_length_a                   11.0997(5)
_cell_length_b                   6.9493(3)
_cell_length_c                   12.3296(5)
_cell_angle_alpha                90
_cell_angle_beta                 92.084(2)
_cell_angle_gamma                90
_cell_volume                     950.416
_exptl_crystal_colour            'pale yellow'
_exptl_crystal_description       block
_cell_formula_units_Z            4
loop_
_atom_site_label
_atom_site_type_symbol
_atom_site_fract_x
_atom_site_fract_y
_atom_site_fract_z
C1 C 0.7256(3) 1.0278(5) -0.0381(2)
C2 C 0.6582(3) 0.8596(5) -0.0365(3)
C3 C 0.6803(4) 0.7314(6) 0.0480(3)
C4 C 0.7626(4) 0.7760(6) 0.1292(3)
C5 C 0.8268(3) 0.9455(6) 0.1241(3)
C6 C 0.8125(3) 1.0783(5) 0.0406(3)
C7 C 0.8804(4) 1.2631(7) 0.0358(4)
N1 N 0.9112(4) 0.9825(5) 0.2160(3)
O1 O 0.8761(3) 0.9482(6) 0.3070(2)
O2 O 1.0102(4) 1.0444(6) 0.1978(3)
N2 N 0.6986(3) 1.1659(5) -0.1261(2)
O3 O 0.6341(3) 1.3010(4) -0.1076(3)
O4 O 0.7396(3) 1.1356(4) -0.2142(2)
I1 I 0.52258(2) 0.80126(4) -0.153334(18)
H1 H 0.636(3) 0.629(5) 0.048(3)
H2 H 0.773(3) 0.703(5) 0.182(3)
H3 H 0.850(3) 1.344(4) -0.012(3)
H4 H 0.878(3) 1.324(4) 0.097(2)
H5 H 0.950(3) 1.247(5) 0.015(3)
loop_
_geom_bond_atom_site_label_1
_geom_bond_atom_site_label_2
_geom_bond_site_symmetry_1
_geom_bond_site_symmetry_2
C1 C2 1_555 1_555
C2 C3 1_555 1_555
C3 C4 1_555 1_555
C4 C5 1_555 1_555
C5 C6 1_555 1_555
C6 C1 1_555 1_555
C7 C6 1_555 1_555
N1 C5 1_555 1_555
O1 N1 1_555 1_555
O2 N1 1_555 1_555
N2 C1 1_555 1_555
O3 N2 1_555 1_555
O4 N2 1_555 1_555
I1 C2 1_555 1_555
H1 C3 1_555 1_555
H2 C4 1_555 1_555
H3 C7 1_555 1_555
H4 C7 1_555 1_555
H5 C7 1_555 1_555

#END
