
#######################################################################
#
#                 Cambridge Crystallographic Data Centre
#                                CCDC 
#
#######################################################################
#
# If this CIF has been generated from an entry in the Cambridge 
# Structural Database, then it will include bibliographic, chemical, 
# crystal, experimental, refinement or atomic coordinate data resulting 
# from the CCDC's data processing and validation procedures.
#
#######################################################################

data_WAWGEJ
_chemical_formula_moiety         'C90 H78 N12 O6,4.5(C2 H6 O1 S1),0.25(H2 O1)'
_chemical_name_systematic        
'4,17,22,35,40,53-hexakis(pyridin-3-yloxy)-7,14,25,32,43,50-hexaazadecacyclo[50.2.2.2^2,5^.2^16,19^.2^20,23^.2^34,37^.2^38,41^.0^8,13^.0^26,31^.0^44,49^]hexahexaconta-1(54),2,4,6,14,16,18,20,22,24,32,34,36,38,40,42,50,52,55,57,59,61,63,65-tetracosaene dimethyl sulfoxide solvate hydrate'
_symmetry_cell_setting           monoclinic
_symmetry_space_group_name_H-M   'P 21'
_symmetry_Int_Tables_number      4
_space_group_name_Hall           'P 2yb'
loop_
_symmetry_equiv_pos_site_id
_symmetry_equiv_pos_as_xyz
1 x,y,z
2 -x,1/2+y,-z
_cell_length_a                   20.8628(9)
_cell_length_b                   21.7014(13)
_cell_length_c                   22.9812(10)
_cell_angle_alpha                90
_cell_angle_beta                 116.100(2)
_cell_angle_gamma                90
_cell_volume                     9343.78
_exptl_crystal_colour            colorless
_exptl_crystal_description       Prism
_cell_formula_units_Z            4
_exptl_crystal_preparation       Fiber
loop_
_atom_site_label
_atom_site_type_symbol
_atom_site_fract_x
_atom_site_fract_y
_atom_site_fract_z
O1 O 0.70971(14) 0.28287(13) 0.16273(13)
O2 O 1.04812(14) 0.38347(13) 0.07769(13)
O3 O 1.09573(14) 0.14409(13) 0.24704(13)
O4 O 1.26198(15) 0.46698(13) 0.46597(12)
O5 O 0.98966(13) 0.32258(11) 0.54751(12)
O6 O 0.79042(13) 0.56878(13) 0.23028(13)
N1 N 0.60049(15) 0.48753(15) 0.18748(14)
N2 N 0.59206(16) 0.43336(16) 0.07132(14)
N3 N 0.6095(2) 0.1553(2) 0.0564(2)
N4 N 1.1374(2) 0.4326(2) 0.2463(2)
N5 N 1.06959(16) 0.20885(16) 0.02700(14)
N6 N 1.20074(16) 0.18849(15) 0.13922(14)
N7 N 0.9524(2) 0.1222(2) 0.2964(2)
N8 N 1.0863(3) 0.5390(2) 0.3747(2)
N9 N 1.26828(15) 0.38982(14) 0.63073(14)
N10 N 1.14929(15) 0.44734(14) 0.63895(14)
N11 N 0.98257(19) 0.16000(17) 0.50982(19)
N12 N 0.9390(2) 0.6431(2) 0.21718(19)
C1 C 0.54179(17) 0.50210(18) 0.12485(16)
H1 H 0.5550 0.5381 0.1052
C2 C 0.47479(19) 0.5174(2) 0.13305(18)
H2 H 0.4648 0.4834 0.1567
H3 H 0.4831 0.5553 0.1593
C3 C 0.4102(2) 0.5267(2) 0.06784(19)
H4 H 0.3674 0.5341 0.0750
H5 H 0.4179 0.5636 0.0464
C4 C 0.3974(2) 0.4712(2) 0.02402(19)
H6 H 0.3574 0.4800 -0.0188
H7 H 0.3837 0.4355 0.0429
C5 C 0.4641(2) 0.4551(2) 0.01538(18)
H8 H 0.4553 0.4171 -0.0108
H9 H 0.4745 0.4888 -0.0082
C6 C 0.52828(17) 0.44546(19) 0.08109(17)
H10 H 0.5190 0.4090 0.1029
C7 C 0.63242(19) 0.39017(18) 0.10506(17)
H11 H 0.6186 0.3670 0.1328
C8 C 0.69989(18) 0.37488(18) 0.10250(17)
C9 C 0.73170(18) 0.41533(17) 0.07524(17)
H12 H 0.7108 0.4546 0.0601
C10 C 0.79265(19) 0.39885(18) 0.07021(17)
H13 H 0.8148 0.4276 0.0537
C11 C 0.82278(18) 0.33969(18) 0.08935(17)
C12 C 0.73322(19) 0.31866(18) 0.12596(17)
C13 C 0.68092(18) 0.22476(18) 0.13949(18)
C14 C 0.6937(2) 0.1795(2) 0.1848(2)
H14 H 0.7229 0.1880 0.2293
C15 C 0.6647(2) 0.1227(2) 0.1665(2)
H15 H 0.6728 0.0913 0.1977
C16 C 0.6243(3) 0.1121(2) 0.1033(3)
H16 H 0.6048 0.0721 0.0906
C17 C 0.6388(2) 0.2130(2) 0.0754(2)
H17 H 0.6298 0.2445 0.0441
C18 C 0.88450(18) 0.32003(18) 0.07804(17)
C19 C 0.88785(19) 0.25956(18) 0.05719(17)
H18 H 0.8511 0.2310 0.0516
C20 C 0.94390(19) 0.24136(18) 0.04478(17)
H19 H 0.9452 0.2005 0.0306
C21 C 0.99927(18) 0.28261(18) 0.05290(16)
C22 C 0.99489(18) 0.34163(18) 0.07339(17)
C23 C 0.93896(19) 0.36127(18) 0.08582(17)
H20 H 0.9377 0.4024 0.0995
C24 C 1.07563(19) 0.42197(19) 0.13152(19)
C25 C 1.0759(2) 0.4846(2) 0.1227(2)
H21 H 1.0553 0.5019 0.0804
C26 C 1.1065(3) 0.5211(2) 0.1761(3)
H22 H 1.1075 0.5646 0.1719
C27 C 1.1364(3) 0.4932(3) 0.2373(3)
H23 H 1.1570 0.5190 0.2744
C28 C 1.1072(2) 0.3981(2) 0.1933(2)
H24 H 1.1075 0.3546 0.1983
C29 C 1.06126(18) 0.26314(18) 0.04198(16)
H25 H 1.0964 0.2930 0.0465
C30 C 1.13602(19) 0.19594(18) 0.02240(17)
H26 H 1.1613 0.2357 0.0250
C31 C 1.1197(2) 0.1652(2) -0.04234(18)
H27 H 1.0917 0.1272 -0.0467
H28 H 1.0905 0.1933 -0.0781
C32 C 1.1880(2) 0.1492(2) -0.04749(18)
H29 H 1.2133 0.1876 -0.0481
H30 H 1.1759 0.1270 -0.0887
C33 C 1.2367(2) 0.1091(2) 0.00900(19)
H31 H 1.2139 0.0685 0.0062
H32 H 1.2822 0.1023 0.0062
C34 C 1.2522(2) 0.1389(2) 0.07376(19)
H33 H 1.2803 0.1769 0.0788
H34 H 1.2814 0.1103 0.1092
C35 C 1.1840(2) 0.15470(18) 0.07971(17)
H35 H 1.1580 0.1159 0.0794
C36 C 1.17055(19) 0.17184(17) 0.17416(16)
H36 H 1.1400 0.1369 0.1618
C37 C 1.18229(19) 0.20593(17) 0.23376(16)
C38 C 1.2328(2) 0.25321(19) 0.25662(17)
H37 H 1.2603 0.2627 0.2341
C39 C 1.2435(2) 0.28651(18) 0.31139(17)
H38 H 1.2779 0.3186 0.3258
C40 C 1.20418(19) 0.27334(17) 0.34570(16)
C41 C 1.1550(2) 0.22592(18) 0.32441(17)
H39 H 1.1287 0.2157 0.3479
C42 C 1.14393(19) 0.19302(17) 0.26877(17)
C43 C 1.03176(19) 0.15105(18) 0.25297(17)
C44 C 0.9803(2) 0.1909(2) 0.2123(2)
H40 H 0.9903 0.2146 0.1825
C45 C 0.9044(2) 0.1638(2) 0.2543(2)
C46 C 1.0190(2) 0.11604(19) 0.29622(17)
H41 H 1.0540 0.0886 0.3250
C47 C 1.21639(19) 0.30923(17) 0.40509(16)
C48 C 1.2138(2) 0.28115(18) 0.45913(18)
H42 H 1.2019 0.2387 0.4574
C49 C 1.2283(2) 0.31450(18) 0.51466(17)
H43 H 1.2281 0.2942 0.5512
C50 C 1.24343(18) 0.37776(17) 0.51835(16)
C51 C 1.2442(2) 0.40483(17) 0.46372(18)
C52 C 1.2316(2) 0.37183(18) 0.40816(17)
H44 H 1.2333 0.3920 0.3722
C53 C 1.2064(2) 0.50691(18) 0.43028(17)
C54 C 1.2271(3) 0.5647(2) 0.4194(2)
H45 H 1.2766 0.5734 0.4357
C55 C 1.1808(2) 0.60834(18) 0.38734(19)
H46 H 1.1966 0.6473 0.3799
C56 C 1.1128(3) 0.5964(2) 0.3661(3)
H47 H 1.0794 0.6279 0.3438
C57 C 1.1353(2) 0.4934(2) 0.4083(2)
H48 H 1.1201 0.4542 0.4158
C58 C 1.25780(18) 0.41452(17) 0.57728(16)
H49 H 1.2592 0.4582 0.5749
C59 C 1.27791(18) 0.43151(17) 0.68412(15)
H50 H 1.2828 0.4748 0.6716
C60 C 1.34483(18) 0.41390(18) 0.74544(16)
H51 H 1.3415 0.3702 0.7563
H52 H 1.3875 0.4184 0.7374
C61 C 1.35296(19) 0.4546(2) 0.80221(17)
H53 H 1.3602 0.4978 0.7927
H54 H 1.3956 0.4415 0.8415
C62 C 1.2872(2) 0.4507(2) 0.81492(18)
H55 H 1.2826 0.4083 0.8286
H56 H 1.2929 0.4792 0.8505
C63 C 1.22045(19) 0.4674(2) 0.75468(17)
H57 H 1.2231 0.5111 0.7437
H58 H 1.1783 0.4626 0.7635
C64 C 1.21102(18) 0.42659(18) 0.69662(16)
H59 H 1.2040 0.3828 0.7060
C65 C 1.10209(18) 0.40722(17) 0.60843(16)
H60 H 1.1080 0.3663 0.6246
C66 C 1.03808(17) 0.42285(17) 0.54827(16)
C67 C 1.02849(19) 0.48165(17) 0.51999(17)
H61 H 1.0639 0.5124 0.5401
C68 C 0.96854(18) 0.49564(17) 0.46346(17)
H62 H 0.9632 0.5358 0.4454
C69 C 0.91560(17) 0.45117(17) 0.43252(16)
C70 C 0.92471(18) 0.39292(17) 0.46030(16)
H63 H 0.8897 0.3619 0.4401
C71 C 0.98473(18) 0.37992(17) 0.51744(16)
C72 C 0.99576(18) 0.27002(17) 0.51561(17)
C73 C 1.0218(2) 0.27018(19) 0.46978(19)
H64 H 1.0350 0.3074 0.4562
C74 C 1.0276(3) 0.2137(2) 0.4445(2)
H65 H 1.0453 0.2114 0.4129
C75 C 1.0074(2) 0.1602(2) 0.4657(2)
H66 H 1.0117 0.1219 0.4476
C76 C 0.9764(2) 0.2146(2) 0.5342(2)
H67 H 0.9580 0.2156 0.5654
C77 C 0.85002(17) 0.46563(16) 0.37238(16)
C78 C 0.85236(18) 0.50898(17) 0.32840(17)
H68 H 0.8961 0.5286 0.3363
C79 C 0.79036(18) 0.52348(17) 0.27297(16)
C80 C 0.72534(18) 0.49612(17) 0.25993(16)
C81 C 0.72400(18) 0.45254(18) 0.30392(17)
H69 H 0.6802 0.4328 0.2957
C82 C 0.78470(18) 0.43734(17) 0.35921(17)
H70 H 0.7821 0.4076 0.3884
C83 C 0.85073(18) 0.57411(19) 0.22003(17)
C84 C 0.8778(2) 0.5251(2) 0.1998(2)
H71 H 0.8571 0.4852 0.1937
C85 C 0.9376(3) 0.5371(3) 0.1886(2)
H72 H 0.9587 0.5053 0.1744
C86 C 0.9651(3) 0.5962(2) 0.1988(2)
H73 H 1.0062 0.6033 0.1919
C87 C 0.8822(2) 0.6312(2) 0.22785(19)
H74 H 0.8623 0.6642 0.2417
C88 C 0.66063(18) 0.51146(17) 0.20022(16)
H75 H 0.6642 0.5401 0.1705
C89 C 0.7927(2) 0.30017(18) 0.11814(18)
C90 C 0.9178(2) 0.1980(2) 0.2127(2)
H76 H 0.8835 0.2263 0.1844
H77 H 0.812(2) 0.263(2) 0.1336(18)
H78 H 0.859(2) 0.169(2) 0.2538(19)
O7 O 0.42044(16) 0.40331(13) 0.42030(12)
O8 O 0.52177(13) 0.13972(12) 0.71566(12)
O9 O 0.54041(13) 0.43755(12) 0.84559(14)
O10 O 0.94420(13) 0.31861(13) 0.89990(13)
O11 O 0.82563(13) 0.47680(13) 0.75798(11)
O12 O 0.80310(13) 0.28379(11) 0.42737(12)
N13 N 0.58735(16) 0.31367(14) 0.33477(13)
N14 N 0.44940(16) 0.27157(15) 0.30857(14)
N15 N 0.4962(2) 0.55542(18) 0.4623(2)
N16 N 0.52945(18) -0.02545(15) 0.70499(16)
N17 N 0.41117(16) 0.23427(15) 0.79673(14)
N18 N 0.50813(15) 0.27826(15) 0.92132(14)
N19 N 0.5721(2) 0.5747(2) 0.94755(19)
N20 N 0.8381(3) 0.2737(2) 0.7297(2)
N21 N 1.02837(15) 0.49017(15) 0.94121(14)
N22 N 1.03668(15) 0.49070(15) 0.81736(14)
N23 N 0.6786(2) 0.5568(2) 0.7656(2)
N24 N 0.82342(18) 0.14242(16) 0.35608(16)
C91 C 0.54341(18) 0.28304(17) 0.27343(16)
H79 H 0.5529 0.2377 0.2782
C92 C 0.56035(19) 0.30827(18) 0.21907(16)
H80 H 0.5529 0.3534 0.2155
H81 H 0.6110 0.3000 0.2298
C93 C 0.5123(2) 0.27789(19) 0.15431(17)
H82 H 0.5223 0.2960 0.1196
H83 H 0.5231 0.2333 0.1567
C94 C 0.4341(2) 0.2869(2) 0.13788(17)
H84 H 0.4043 0.2648 0.0972
H85 H 0.4221 0.3313 0.1308
C95 C 0.4170(2) 0.2629(2) 0.19217(16)
H86 H 0.4250 0.2178 0.1968
H87 H 0.3662 0.2709 0.1811
C96 C 0.46468(18) 0.29491(17) 0.25627(15)
H88 H 0.4554 0.3403 0.2515
C97 C 0.44311(18) 0.31223(18) 0.34519(16)
H89 H 0.4448 0.3544 0.3349
C98 C 0.43327(19) 0.29671(19) 0.40347(17)
C99 C 0.4330(2) 0.23564(19) 0.42266(18)
H90 H 0.4346 0.2031 0.3957
C100 C 0.4304(2) 0.22199(19) 0.48042(17)
H91 H 0.4300 0.1801 0.4924
C101 C 0.42817(18) 0.26887(18) 0.52147(16)
C102 C 0.42419(19) 0.32969(18) 0.50053(16)
H92 H 0.4196 0.3622 0.5261
C103 C 0.42696(19) 0.34299(18) 0.44276(16)
C104 C 0.4692(2) 0.44721(19) 0.45715(19)
C105 C 0.5309(2) 0.43588(19) 0.5128(2)
H93 H 0.5432 0.3953 0.5297
C106 C 0.5748(2) 0.4861(2) 0.5434(2)
H94 H 0.6175 0.4804 0.5821
C107 C 0.5553(3) 0.5442(2) 0.5169(3)
H95 H 0.5854 0.5779 0.5385
C108 C 0.4539(3) 0.5076(2) 0.4332(2)
H96 H 0.4115 0.5148 0.3947
C109 C 0.43364(17) 0.25411(17) 0.58658(16)
C110 C 0.40609(18) 0.29281(17) 0.61820(17)
H97 H 0.3829 0.3299 0.5977
C111 C 0.41168(19) 0.27850(17) 0.67893(17)
H98 H 0.3909 0.3052 0.6986
C112 C 0.44737(18) 0.22547(16) 0.71195(16)
C113 C 0.47862(18) 0.18892(16) 0.68120(16)
C114 C 0.47098(18) 0.20141(17) 0.61953(16)
H99 H 0.4910 0.1743 0.5994
C115 C 0.49616(18) 0.08060(17) 0.69660(16)
C116 C 0.4247(2) 0.06652(19) 0.66060(19)
H100 H 0.3890 0.0976 0.6461
C117 C 0.4079(2) 0.0052(2) 0.6469(2)
H101 H 0.3597 -0.0068 0.6216
C118 C 0.4612(2) -0.0389(2) 0.6699(2)
H102 H 0.4482 -0.0809 0.6600
C119 C 0.54667(19) 0.03399(18) 0.71797(17)
H103 H 0.5954 0.0447 0.7428
C120 C 0.44825(19) 0.20669(17) 0.77367(17)
H104 H 0.4774 0.1730 0.7968
C121 C 0.41096(19) 0.21047(18) 0.85613(16)
H105 H 0.4448 0.1750 0.8728
C122 C 0.3354(2) 0.1891(2) 0.84119(17)
H106 H 0.3213 0.1550 0.8094
H107 H 0.3015 0.2235 0.8217
C123 C 0.3313(2) 0.1672(2) 0.90288(18)
H108 H 0.2819 0.1545 0.8923
H109 H 0.3629 0.1311 0.9210
C124 C 0.3542(2) 0.2190(2) 0.95293(18)
H110 H 0.3530 0.2040 0.9931
H111 H 0.3203 0.2538 0.9360
C125 C 0.4298(2) 0.2413(2) 0.96832(17)
H112 H 0.4427 0.2759 0.9994
H113 H 0.4642 0.2074 0.9888
C126 C 0.43455(18) 0.26230(18) 0.90667(16)
H114 H 0.4032 0.2991 0.8883
C127 C 0.51727(18) 0.32596(17) 0.89459(17)
H115 H 0.4775 0.3516 0.8703
C128 C 0.58776(19) 0.34298(18) 0.89992(18)
C129 C 0.64589(19) 0.30213(17) 0.92565(17)
H116 H 0.6398 0.2627 0.9406
C130 C 0.71132(18) 0.31822(17) 0.92955(17)
H117 H 0.7492 0.2891 0.9457
C131 C 0.72335(18) 0.37645(17) 0.91032(17)
C132 C 0.66627(19) 0.41761(17) 0.88410(18)
H118 H 0.6729 0.4573 0.8702
C133 C 0.59943(19) 0.39996(17) 0.87846(18)
C134 C 0.54473(18) 0.49808(17) 0.86595(18)
C135 C 0.5167(2) 0.54269(19) 0.81845(19)
H119 H 0.4977 0.5315 0.7740
C136 C 0.5166(2) 0.6023(2) 0.8356(2)
H120 H 0.4974 0.6337 0.8036
C137 C 0.5446(3) 0.6163(2) 0.8998(2)
H121 H 0.5447 0.6582 0.9116
C138 C 0.5709(2) 0.5132(2) 0.92993(19)
H122 H 0.5882 0.4821 0.9622
C139 C 0.79466(18) 0.39300(17) 0.91616(16)
C140 C 0.82325(19) 0.45220(17) 0.93462(17)
H123 H 0.7960 0.4831 0.9428
C141 C 0.89087(18) 0.46605(17) 0.94110(17)
H124 H 0.9096 0.5063 0.9543
C142 C 0.93190(18) 0.42226(17) 0.92873(16)
C143 C 0.90251(18) 0.36360(17) 0.91018(17)
C144 C 0.83546(19) 0.34861(17) 0.90426(17)
H125 H 0.8173 0.3081 0.8921
C145 C 0.91027(19) 0.28441(18) 0.84298(18)
C146 C 0.9258(2) 0.2224(2) 0.8466(2)
H126 H 0.9562 0.2054 0.8876
C147 C 0.9003(2) 0.18577(17) 0.7957(2)
H127 H 0.9113 0.1430 0.7996
C148 C 0.8583(3) 0.2111(2) 0.7382(3)
H128 H 0.8411 0.1853 0.7009
C149 C 0.8658(2) 0.3105(2) 0.7848(2)
H129 H 0.8541 0.3530 0.7822
C150 C 1.00194(18) 0.43654(18) 0.93101(16)
H130 H 1.0285 0.4040 0.9245
C151 C 1.09589(18) 0.49842(18) 0.93702(17)
H131 H 1.1182 0.4572 0.9388
C152 C 1.1465(2) 0.5378(2) 0.99372(18)
H132 H 1.1226 0.5771 0.9943
H133 H 1.1578 0.5159 1.0349
C153 C 1.2155(2) 0.5516(3) 0.9887(2)
H134 H 1.2460 0.5787 1.0251
H135 H 1.2418 0.5127 0.9924
C154 C 1.2009(2) 0.5828(2) 0.9249(2)
H136 H 1.2463 0.5891 0.9218
H137 H 1.1788 0.6237 0.9227
C155 C 1.1508(2) 0.5426(2) 0.86870(18)
H138 H 1.1406 0.5635 0.8272
H139 H 1.1747 0.5030 0.8694
C156 C 1.08109(18) 0.53009(17) 0.87237(17)
H140 H 1.0558 0.5700 0.8693
C157 C 0.96993(18) 0.50117(16) 0.78990(16)
H141 H 0.9502 0.5307 0.8080
C158 C 0.92283(18) 0.46818(16) 0.73052(16)
C159 C 0.94890(19) 0.44714(18) 0.68740(18)
H142 H 0.9978 0.4531 0.6976
C160 C 0.90447(19) 0.41781(18) 0.63009(17)
H143 H 0.9231 0.4046 0.6012
C161 C 0.83241(18) 0.40749(16) 0.61438(17)
C162 C 0.80618(18) 0.42854(17) 0.65714(16)
H144 H 0.7576 0.4218 0.6477
C163 C 0.85058(18) 0.45909(17) 0.71293(16)
C164 C 0.76963(18) 0.51755(17) 0.73925(17)
C165 C 0.7508(2) 0.55854(19) 0.68901(19)
H145 H 0.7756 0.5589 0.6628
C166 C 0.6961(2) 0.5989(2) 0.6769(2)
H146 H 0.6820 0.6274 0.6421
C167 C 0.6616(3) 0.5973(3) 0.7166(3)
H147 H 0.6243 0.6261 0.7088
C168 C 0.7326(2) 0.5177(2) 0.77641(19)
H148 H 0.7458 0.4890 0.8110
C169 C 0.78532(18) 0.37618(16) 0.55268(16)
C170 C 0.71170(19) 0.38673(18) 0.52250(17)
H149 H 0.6910 0.4130 0.5426
C171 C 0.66863(19) 0.35950(18) 0.46377(17)
H150 H 0.6187 0.3673 0.4446
C172 C 0.69619(18) 0.32097(17) 0.43183(16)
C173 C 0.77011(18) 0.31158(16) 0.46186(16)
C174 C 0.81349(18) 0.33715(17) 0.52132(17)
H151 H 0.8631 0.3281 0.5412
C175 C 0.80282(17) 0.22042(16) 0.41922(16)
C176 C 0.78958(19) 0.17744(17) 0.45663(17)
H152 H 0.7773 0.1893 0.4903
C177 C 0.7951(2) 0.11649(19) 0.44288(19)
H153 H 0.7875 0.0852 0.4680
C178 C 0.81147(19) 0.10040(18) 0.3928(2)
H154 H 0.8144 0.0579 0.3842
C179 C 0.8191(2) 0.20170(18) 0.36972(18)
H155 H 0.8275 0.2323 0.3443
C180 C 0.65004(19) 0.29316(17) 0.36866(16)
H156 H 0.6672 0.2596 0.3530
S1 S 0.75639(9) 0.15737(10) 0.85678(11)
O13 O 0.7574(5) 0.2219(3) 0.8358(6)
C181 C 0.6725(4) 0.1434(6) 0.8583(5)
C182 C 0.7334(4) 0.1132(3) 0.7822(3)
S2 S 0.61908(6) 0.05014(6) 0.38579(5)
O14 O 0.5838(2) 0.00306(17) 0.33468(16)
C183 C 0.5998(4) 0.1244(3) 0.3490(3)
C184 C 0.5651(4) 0.0563(3) 0.4278(3)
S3 S 0.19700(8) 0.10425(8) 0.46878(8)
O15 O 0.1676(2) 0.0750(2) 0.4010(2)
C185 C 0.2867(5) 0.1162(5) 0.4846(4)
C186 C 0.2059(5) 0.0386(6) 0.5191(5)
S4 S 0.68429(5) 0.92842(5) 0.84383(5)
O16 O 0.70360(18) 0.99476(15) 0.85635(15)
C187 C 0.7598(3) 0.8858(3) 0.9024(3)
C188 C 0.6959(3) 0.9086(2) 0.7735(2)
S5 S 0.75550(5) 0.66577(5) 0.33753(5)
O17 O 0.72000(17) 0.66149(17) 0.38183(16)
C189 C 0.8490(2) 0.6576(2) 0.3886(2)
C190 C 0.7574(2) 0.7454(2) 0.3183(2)
S6 S 0.96525(12) 0.38769(9) 0.29585(16)
O18 O 0.9904(6) 0.4153(7) 0.3470(8)
C191 C 0.8943(7) 0.3403(10) 0.2931(10)
C192 C 1.0235(6) 0.3310(5) 0.2911(6)
S7 S 0.0766(2) 0.32177(19) 0.7344(2)
O19 O 0.1185(6) 0.2739(5) 0.7205(6)
C193 C -0.0074(7) 0.2856(10) 0.7168(10)
C194 C 0.1076(14) 0.3315(11) 0.8197(6)
S8 S 0.68229(6) 0.21804(6) 0.56503(6)
O20 O 0.6596(2) 0.17610(16) 0.50770(17)
C195 C 0.6075(3) 0.2675(3) 0.5503(3)
C196 C 0.6763(3) 0.1745(3) 0.6291(3)
S9 S 0.64364(6) 0.38357(5) 0.71930(5)
O21 O 0.65296(17) 0.37689(18) 0.65853(16)
C197 C 0.5601(3) 0.4227(3) 0.6958(3)
C198 C 0.6168(3) 0.3096(2) 0.7355(2)
O22 O 0.9881(3) 0.0952(3) 0.9851(3)
S10? S 0.7308(2) 0.15955(16) 0.8179(2)
O23? O 0.7458(8) 0.2271(5) 0.8209(9)
C199? C 0.6670(7) 0.1525(8) 0.8499(8)
S11? S 0.1982(2) 0.0839(2) 0.4496(2)
O24? O 0.1447(6) 0.1300(5) 0.4402(6)
C200? C 0.2909(9) 0.1265(8) 0.4975(8)
C201? C 0.2195(9) 0.0376(10) 0.5214(9)
S12? S 0.9922(2) 0.3341(2) 0.3263(2)
O25? O 1.0222(4) 0.3811(4) 0.3788(3)
C202? C 0.8975(6) 0.3361(9) 0.2918(8)
C203? C 1.0027(10) 0.3635(8) 0.2594(6)
S13? S 0.10432(19) 0.32569(16) 0.76449(19)
O26? O 0.1580(5) 0.2799(4) 0.7674(5)
C204? C 0.0182(7) 0.2917(7) 0.7175(8)
C205? C 0.0915(11) 0.3173(10) 0.8361(7)
H157? H 0.935(2) 0.097(2) 0.331(2)
loop_
_geom_bond_atom_site_label_1
_geom_bond_atom_site_label_2
_geom_bond_site_symmetry_1
_geom_bond_site_symmetry_2
O1 C12 1_555 1_555
O2 C22 1_555 1_555
O3 C42 1_555 1_555
O4 C51 1_555 1_555
O5 C71 1_555 1_555
O6 C79 1_555 1_555
N1 C1 1_555 1_555
N2 C6 1_555 1_555
N3 C16 1_555 1_555
N4 C27 1_555 1_555
N5 C29 1_555 1_555
N6 C35 1_555 1_555
N7 C45 1_555 1_555
N8 C56 1_555 1_555
N9 C58 1_555 1_555
N10 C64 1_555 1_555
N11 C75 1_555 1_555
N12 C86 1_555 1_555
C1 H1 1_555 1_555
C2 C1 1_555 1_555
H2 C2 1_555 1_555
H3 C2 1_555 1_555
C3 C2 1_555 1_555
H4 C3 1_555 1_555
H5 C3 1_555 1_555
C4 C3 1_555 1_555
H6 C4 1_555 1_555
H7 C4 1_555 1_555
C5 C4 1_555 1_555
H8 C5 1_555 1_555
H9 C5 1_555 1_555
C6 C1 1_555 1_555
H10 C6 1_555 1_555
C7 N2 1_555 1_555
H11 C7 1_555 1_555
C8 C7 1_555 1_555
C9 C8 1_555 1_555
H12 C9 1_555 1_555
C10 C9 1_555 1_555
H13 C10 1_555 1_555
C11 C10 1_555 1_555
C12 C8 1_555 1_555
C13 O1 1_555 1_555
C14 C13 1_555 1_555
H14 C14 1_555 1_555
C15 C14 1_555 1_555
H15 C15 1_555 1_555
C16 C15 1_555 1_555
H16 C16 1_555 1_555
C17 N3 1_555 1_555
H17 C17 1_555 1_555
C18 C11 1_555 1_555
C19 C18 1_555 1_555
H18 C19 1_555 1_555
C20 C19 1_555 1_555
H19 C20 1_555 1_555
C21 C20 1_555 1_555
C22 C21 1_555 1_555
C23 C18 1_555 1_555
H20 C23 1_555 1_555
C24 O2 1_555 1_555
C25 C24 1_555 1_555
H21 C25 1_555 1_555
C26 C25 1_555 1_555
H22 C26 1_555 1_555
C27 C26 1_555 1_555
H23 C27 1_555 1_555
C28 N4 1_555 1_555
H24 C28 1_555 1_555
C29 C21 1_555 1_555
H25 C29 1_555 1_555
C30 N5 1_555 1_555
H26 C30 1_555 1_555
C31 C30 1_555 1_555
H27 C31 1_555 1_555
H28 C31 1_555 1_555
C32 C31 1_555 1_555
H29 C32 1_555 1_555
H30 C32 1_555 1_555
C33 C32 1_555 1_555
H31 C33 1_555 1_555
H32 C33 1_555 1_555
C34 C33 1_555 1_555
H33 C34 1_555 1_555
H34 C34 1_555 1_555
C35 C30 1_555 1_555
H35 C35 1_555 1_555
C36 N6 1_555 1_555
H36 C36 1_555 1_555
C37 C36 1_555 1_555
C38 C37 1_555 1_555
H37 C38 1_555 1_555
C39 C38 1_555 1_555
H38 C39 1_555 1_555
C40 C39 1_555 1_555
C41 C40 1_555 1_555
H39 C41 1_555 1_555
C42 C37 1_555 1_555
C43 O3 1_555 1_555
C44 C43 1_555 1_555
H40 C44 1_555 1_555
C45 C90 1_555 1_555
C46 N7 1_555 1_555
H41 C46 1_555 1_555
C47 C40 1_555 1_555
C48 C47 1_555 1_555
H42 C48 1_555 1_555
C49 C48 1_555 1_555
H43 C49 1_555 1_555
C50 C49 1_555 1_555
C51 C50 1_555 1_555
C52 C47 1_555 1_555
H44 C52 1_555 1_555
C53 O4 1_555 1_555
C54 C53 1_555 1_555
H45 C54 1_555 1_555
C55 C54 1_555 1_555
H46 C55 1_555 1_555
C56 C55 1_555 1_555
H47 C56 1_555 1_555
C57 N8 1_555 1_555
H48 C57 1_555 1_555
C58 C50 1_555 1_555
H49 C58 1_555 1_555
C59 N9 1_555 1_555
H50 C59 1_555 1_555
C60 C59 1_555 1_555
H51 C60 1_555 1_555
H52 C60 1_555 1_555
C61 C60 1_555 1_555
H53 C61 1_555 1_555
H54 C61 1_555 1_555
C62 C61 1_555 1_555
H55 C62 1_555 1_555
H56 C62 1_555 1_555
C63 C62 1_555 1_555
H57 C63 1_555 1_555
H58 C63 1_555 1_555
C64 C59 1_555 1_555
H59 C64 1_555 1_555
C65 N10 1_555 1_555
H60 C65 1_555 1_555
C66 C65 1_555 1_555
C67 C66 1_555 1_555
H61 C67 1_555 1_555
C68 C67 1_555 1_555
H62 C68 1_555 1_555
C69 C68 1_555 1_555
C70 C69 1_555 1_555
H63 C70 1_555 1_555
C71 C66 1_555 1_555
C72 O5 1_555 1_555
C73 C72 1_555 1_555
H64 C73 1_555 1_555
C74 C73 1_555 1_555
H65 C74 1_555 1_555
C75 C74 1_555 1_555
H66 C75 1_555 1_555
C76 N11 1_555 1_555
H67 C76 1_555 1_555
C77 C69 1_555 1_555
C78 C77 1_555 1_555
H68 C78 1_555 1_555
C79 C78 1_555 1_555
C80 C79 1_555 1_555
C81 C80 1_555 1_555
H69 C81 1_555 1_555
C82 C77 1_555 1_555
H70 C82 1_555 1_555
C83 O6 1_555 1_555
C84 C83 1_555 1_555
H71 C84 1_555 1_555
C85 C84 1_555 1_555
H72 C85 1_555 1_555
C86 C85 1_555 1_555
H73 C86 1_555 1_555
C87 N12 1_555 1_555
H74 C87 1_555 1_555
C88 N1 1_555 1_555
H75 C88 1_555 1_555
C89 C11 1_555 1_555
C90 C44 1_555 1_555
H76 C90 1_555 1_555
H77 C89 1_555 1_555
H78 C45 1_555 1_555
O7 C103 1_555 1_555
O8 C113 1_555 1_555
O9 C133 1_555 1_555
O10 C143 1_555 1_555
O11 C163 1_555 1_555
O12 C173 1_555 1_555
N13 C91 1_555 1_555
N14 C96 1_555 1_555
N15 C107 1_555 1_555
N16 C118 1_555 1_555
N17 C120 1_555 1_555
N18 C126 1_555 1_555
N19 C137 1_555 1_555
N20 C148 1_555 1_555
N21 C150 1_555 1_555
N22 C156 1_555 1_555
N23 C167 1_555 1_555
N24 C178 1_555 1_555
C91 H79 1_555 1_555
C92 C91 1_555 1_555
H80 C92 1_555 1_555
H81 C92 1_555 1_555
C93 C92 1_555 1_555
H82 C93 1_555 1_555
H83 C93 1_555 1_555
C94 C93 1_555 1_555
H84 C94 1_555 1_555
H85 C94 1_555 1_555
C95 C94 1_555 1_555
H86 C95 1_555 1_555
H87 C95 1_555 1_555
C96 C91 1_555 1_555
H88 C96 1_555 1_555
C97 N14 1_555 1_555
H89 C97 1_555 1_555
C98 C97 1_555 1_555
C99 C98 1_555 1_555
H90 C99 1_555 1_555
C100 C99 1_555 1_555
H91 C100 1_555 1_555
C101 C100 1_555 1_555
C102 C101 1_555 1_555
H92 C102 1_555 1_555
C103 C98 1_555 1_555
C104 O7 1_555 1_555
C105 C104 1_555 1_555
H93 C105 1_555 1_555
C106 C105 1_555 1_555
H94 C106 1_555 1_555
C107 C106 1_555 1_555
H95 C107 1_555 1_555
C108 N15 1_555 1_555
H96 C108 1_555 1_555
C109 C101 1_555 1_555
C110 C109 1_555 1_555
H97 C110 1_555 1_555
C111 C110 1_555 1_555
H98 C111 1_555 1_555
C112 C111 1_555 1_555
C113 C112 1_555 1_555
C114 C109 1_555 1_555
H99 C114 1_555 1_555
C115 O8 1_555 1_555
C116 C115 1_555 1_555
H100 C116 1_555 1_555
C117 C116 1_555 1_555
H101 C117 1_555 1_555
C118 C117 1_555 1_555
H102 C118 1_555 1_555
C119 N16 1_555 1_555
H103 C119 1_555 1_555
C120 C112 1_555 1_555
H104 C120 1_555 1_555
C121 N17 1_555 1_555
H105 C121 1_555 1_555
C122 C121 1_555 1_555
H106 C122 1_555 1_555
H107 C122 1_555 1_555
C123 C122 1_555 1_555
H108 C123 1_555 1_555
H109 C123 1_555 1_555
C124 C123 1_555 1_555
H110 C124 1_555 1_555
H111 C124 1_555 1_555
C125 C124 1_555 1_555
H112 C125 1_555 1_555
H113 C125 1_555 1_555
C126 C121 1_555 1_555
H114 C126 1_555 1_555
C127 N18 1_555 1_555
H115 C127 1_555 1_555
C128 C127 1_555 1_555
C129 C128 1_555 1_555
H116 C129 1_555 1_555
C130 C129 1_555 1_555
H117 C130 1_555 1_555
C131 C130 1_555 1_555
C132 C131 1_555 1_555
H118 C132 1_555 1_555
C133 C128 1_555 1_555
C134 O9 1_555 1_555
C135 C134 1_555 1_555
H119 C135 1_555 1_555
C136 C135 1_555 1_555
H120 C136 1_555 1_555
C137 C136 1_555 1_555
H121 C137 1_555 1_555
C138 N19 1_555 1_555
H122 C138 1_555 1_555
C139 C131 1_555 1_555
C140 C139 1_555 1_555
H123 C140 1_555 1_555
C141 C140 1_555 1_555
H124 C141 1_555 1_555
C142 C141 1_555 1_555
C143 C142 1_555 1_555
C144 C139 1_555 1_555
H125 C144 1_555 1_555
C145 O10 1_555 1_555
C146 C145 1_555 1_555
H126 C146 1_555 1_555
C147 C146 1_555 1_555
H127 C147 1_555 1_555
C148 C147 1_555 1_555
H128 C148 1_555 1_555
C149 N20 1_555 1_555
H129 C149 1_555 1_555
C150 C142 1_555 1_555
H130 C150 1_555 1_555
C151 N21 1_555 1_555
H131 C151 1_555 1_555
C152 C151 1_555 1_555
H132 C152 1_555 1_555
H133 C152 1_555 1_555
C153 C152 1_555 1_555
H134 C153 1_555 1_555
H135 C153 1_555 1_555
C154 C153 1_555 1_555
H136 C154 1_555 1_555
H137 C154 1_555 1_555
C155 C154 1_555 1_555
H138 C155 1_555 1_555
H139 C155 1_555 1_555
C156 C151 1_555 1_555
H140 C156 1_555 1_555
C157 N22 1_555 1_555
H141 C157 1_555 1_555
C158 C157 1_555 1_555
C159 C158 1_555 1_555
H142 C159 1_555 1_555
C160 C159 1_555 1_555
H143 C160 1_555 1_555
C161 C160 1_555 1_555
C162 C161 1_555 1_555
H144 C162 1_555 1_555
C163 C158 1_555 1_555
C164 O11 1_555 1_555
C165 C164 1_555 1_555
H145 C165 1_555 1_555
C166 C165 1_555 1_555
H146 C166 1_555 1_555
C167 C166 1_555 1_555
H147 C167 1_555 1_555
C168 N23 1_555 1_555
H148 C168 1_555 1_555
C169 C161 1_555 1_555
C170 C169 1_555 1_555
H149 C170 1_555 1_555
C171 C170 1_555 1_555
H150 C171 1_555 1_555
C172 C171 1_555 1_555
C173 C172 1_555 1_555
C174 C169 1_555 1_555
H151 C174 1_555 1_555
C175 O12 1_555 1_555
C176 C175 1_555 1_555
H152 C176 1_555 1_555
C177 C176 1_555 1_555
H153 C177 1_555 1_555
C178 C177 1_555 1_555
H154 C178 1_555 1_555
C179 N24 1_555 1_555
H155 C179 1_555 1_555
C180 N13 1_555 1_555
H156 C180 1_555 1_555
S1 O13 1_555 1_555
C181 S1 1_555 1_555
C182 S1 1_555 1_555
S2 O14 1_555 1_555
C183 S2 1_555 1_555
C184 S2 1_555 1_555
S3 O15 1_555 1_555
C185 S3 1_555 1_555
C186 S3 1_555 1_555
S4 O16 1_555 1_555
C187 S4 1_555 1_555
C188 S4 1_555 1_555
S5 O17 1_555 1_555
C189 S5 1_555 1_555
C190 S5 1_555 1_555
S6 O18 1_555 1_555
C191 S6 1_555 1_555
C192 S6 1_555 1_555
S7 O19 1_555 1_555
C193 S7 1_555 1_555
C194 S7 1_555 1_555
S8 O20 1_555 1_555
C195 S8 1_555 1_555
C196 S8 1_555 1_555
S9 O21 1_555 1_555
C197 S9 1_555 1_555
C198 S9 1_555 1_555
C5 C6 1_555 1_555
C12 C89 1_555 1_555
C13 C17 1_555 1_555
C22 C23 1_555 1_555
C24 C28 1_555 1_555
C34 C35 1_555 1_555
C41 C42 1_555 1_555
C43 C46 1_555 1_555
C51 C52 1_555 1_555
C53 C57 1_555 1_555
C63 C64 1_555 1_555
C70 C71 1_555 1_555
C72 C76 1_555 1_555
C80 C88 1_555 1_555
C81 C82 1_555 1_555
C83 C87 1_555 1_555
C95 C96 1_555 1_555
C102 C103 1_555 1_555
C104 C108 1_555 1_555
C113 C114 1_555 1_555
C115 C119 1_555 1_555
C125 C126 1_555 1_555
C132 C133 1_555 1_555
C134 C138 1_555 1_555
C143 C144 1_555 1_555
C145 C149 1_555 1_555
C155 C156 1_555 1_555
C162 C163 1_555 1_555
C164 C168 1_555 1_555
C172 C180 1_555 1_555
C173 C174 1_555 1_555
C175 C179 1_555 1_555

#END
