
#######################################################################
#
#                 Cambridge Crystallographic Data Centre
#                                CCDC 
#
#######################################################################
#
# If this CIF has been generated from an entry in the Cambridge 
# Structural Database, then it will include bibliographic, chemical, 
# crystal, experimental, refinement or atomic coordinate data resulting 
# from the CCDC's data processing and validation procedures.
#
#######################################################################

data_WAWJIQ
_chemical_name_common            
"2-(4-Bromophenyl)-13''-methoxycarbonyl-8,8,18,18-tetramethylbacterio-13'-oxophorbine hexane solvate"
_chemical_formula_moiety         'C34 H31 Br1 N4 O3,0.5(C6 H14)'
_chemical_name_systematic        
'methyl 8-(4-bromophenyl)-4,4,14,14-tetramethyl-20-oxo-13,14-dihydrophorbine-21-carboxylate hexane solvate'
_symmetry_cell_setting           triclinic
_symmetry_space_group_name_H-M   'P -1'
_symmetry_Int_Tables_number      2
_space_group_name_Hall           '-P 1'
loop_
_symmetry_equiv_pos_site_id
_symmetry_equiv_pos_as_xyz
1 x,y,z
2 -x,-y,-z
_cell_length_a                   9.4036(12)
_cell_length_b                   13.463(2)
_cell_length_c                   14.262(2)
_cell_angle_alpha                68.045(5)
_cell_angle_beta                 86.331(7)
_cell_angle_gamma                72.802(7)
_cell_volume                     1597.55
_exptl_crystal_colour            'dark purple'
_exptl_crystal_description       needle
_cell_formula_units_Z            2
_exptl_crystal_recrystallization_method n-hexane/chloroform
loop_
_atom_site_label
_atom_site_type_symbol
_atom_site_fract_x
_atom_site_fract_y
_atom_site_fract_z
Br1 Br 1.03268(3) 0.72220(2) 0.03868(2)
O1 O -0.47979(16) 0.70309(12) 0.53676(11)
O2 O -0.38497(17) 0.89291(13) 0.30796(12)
O3 O -0.35457(17) 0.94655(13) 0.43425(12)
N1 N 0.28245(19) 0.50733(14) 0.24465(13)
H1 H 0.197(3) 0.5171(19) 0.2669(17)
N2 N 0.06655(18) 0.36521(14) 0.30149(12)
N3 N -0.10274(19) 0.51030(14) 0.39016(13)
H2 H -0.027(3) 0.4973(18) 0.3595(17)
N4 N 0.08967(18) 0.66921(14) 0.32022(12)
C1 C 0.3636(2) 0.58269(17) 0.22156(15)
C2 C 0.4961(2) 0.53835(17) 0.17484(15)
C3 C 0.4831(2) 0.44259(18) 0.16842(16)
H3 H 0.5533 0.3965 0.1396
C4 C 0.3486(2) 0.42228(17) 0.21134(15)
C5 C 0.2969(2) 0.33498(17) 0.21519(15)
H4 H 0.3593 0.2848 0.1869
C6 C 0.1661(2) 0.30933(17) 0.25465(15)
C7 C 0.1265(2) 0.21124(18) 0.24771(17)
H5 H 0.2044 0.1399 0.2827
H6 H 0.1135 0.2206 0.1763
C8 C -0.0214(2) 0.21407(17) 0.30097(15)
C9 C -0.0451(2) 0.31441(17) 0.33197(15)
C10 C -0.1637(2) 0.34844(17) 0.38436(15)
H7 H -0.2326 0.3059 0.4024
C11 C -0.1937(2) 0.44112(17) 0.41434(16)
C12 C -0.3145(2) 0.48421(17) 0.46414(16)
H8 H -0.3938 0.4531 0.4905
C13 C -0.2959(2) 0.58296(17) 0.46754(15)
C14 C -0.3640(2) 0.67854(18) 0.49622(15)
C15 C -0.2558(2) 0.75413(17) 0.46286(15)
H9 H -0.2137 0.7576 0.5238
C16 C -0.1644(2) 0.59620(17) 0.42004(15)
C17 C -0.1320(2) 0.69521(17) 0.41122(15)
C18 C -0.0166(2) 0.73158(17) 0.36332(15)
C19 C 0.0154(2) 0.83806(18) 0.35334(17)
H10 H 0.0444 0.8354 0.42
H11 H -0.0725 0.9039 0.3234
C20 C 0.1456(2) 0.84235(17) 0.28240(16)
C21 C 0.1875(2) 0.72541(17) 0.27867(15)
C22 C 0.3169(2) 0.68390(18) 0.23425(15)
H12 H 0.3799 0.7309 0.21
C23 C 0.6216(2) 0.58546(17) 0.14205(15)
C24 C 0.6665(2) 0.64513(18) 0.19059(15)
H13 H 0.613 0.6574 0.246
C25 C 0.7867(2) 0.68667(19) 0.15980(16)
H14 H 0.8142 0.7286 0.1926
C26 C 0.8664(2) 0.66641(19) 0.08088(15)
C27 C 0.8271(2) 0.60631(19) 0.03164(16)
H15 H 0.8834 0.5922 -0.0222
C28 C 0.7045(2) 0.56705(18) 0.06206(16)
H16 H 0.6762 0.5268 0.0278
C29 C -0.0089(3) 0.10758(18) 0.39387(16)
H17 H 0.0741 0.0948 0.4393
H18 H 0.009 0.0438 0.3727
H19 H -0.1018 0.1157 0.4294
C30 C -0.1499(2) 0.2338(2) 0.22942(17)
H20 H -0.2429 0.24 0.265
H21 H -0.1301 0.1708 0.2069
H22 H -0.1591 0.3032 0.1706
C31 C -0.3389(2) 0.87044(18) 0.39246(17)
C32 C -0.4339(3) 1.0608(2) 0.3712(2)
H23 H -0.3849 1.0831 0.3071
H24 H -0.4333 1.1109 0.4063
H25 H -0.5371 1.0656 0.3576
C33 C 0.2751(2) 0.8632(2) 0.3242(2)
H26 H 0.3109 0.8041 0.3905
H27 H 0.2412 0.9361 0.3312
H28 H 0.3563 0.8628 0.2775
C34 C 0.0928(3) 0.9293(2) 0.17633(18)
H29 H 0.1744 0.9236 0.1305
H30 H 0.0619 1.0045 0.1786
H31 H 0.0082 0.9155 0.1518
C35 C 0.3640(3) 0.8407(2) -0.0638(2)
H32 H 0.349 0.7945 0.0056
H33 H 0.396 0.7935 -0.104
H34 H 0.2702 0.8986 -0.094
C36 C 0.4845(3) 0.8968(2) -0.06234(19)
H35 H 0.5799 0.838 -0.0344
H36 H 0.4993 0.9432 -0.1326
C37 C 0.4442(3) 0.9698(2) 0.00017(19)
H37 H 0.3462 1.0259 -0.0258
H38 H 0.4335 0.9223 0.0709
C35A C 0.6360(3) 1.1593(2) 0.0638(2)
H32A H 0.651 1.2055 -0.0056
H33A H 0.604 1.2065 0.104
H34A H 0.7298 1.1014 0.094
C36A C 0.5155(3) 1.1032(2) 0.06234(19)
H35A H 0.4201 1.162 0.0344
H36A H 0.5007 1.0568 0.1326
C37A C 0.5558(3) 1.0302(2) -0.00017(19)
H37A H 0.6538 0.9741 0.0258
H38A H 0.5665 1.0777 -0.0709
loop_
_geom_bond_atom_site_label_1
_geom_bond_atom_site_label_2
_geom_bond_site_symmetry_1
_geom_bond_site_symmetry_2
Br1 C26 1_555 1_555
O1 C14 1_555 1_555
O2 C31 1_555 1_555
O3 C31 1_555 1_555
N1 H1 1_555 1_555
N2 C6 1_555 1_555
N3 H2 1_555 1_555
N4 C18 1_555 1_555
C1 N1 1_555 1_555
C2 C1 1_555 1_555
C3 C2 1_555 1_555
H3 C3 1_555 1_555
C4 N1 1_555 1_555
C5 C4 1_555 1_555
H4 C5 1_555 1_555
C6 C5 1_555 1_555
C7 C6 1_555 1_555
H5 C7 1_555 1_555
H6 C7 1_555 1_555
C8 C7 1_555 1_555
C9 N2 1_555 1_555
C10 C9 1_555 1_555
H7 C10 1_555 1_555
C11 N3 1_555 1_555
C12 C11 1_555 1_555
H8 C12 1_555 1_555
C13 C12 1_555 1_555
C14 C13 1_555 1_555
C15 C14 1_555 1_555
H9 C15 1_555 1_555
C16 N3 1_555 1_555
C17 C15 1_555 1_555
C18 C17 1_555 1_555
C19 C18 1_555 1_555
H10 C19 1_555 1_555
H11 C19 1_555 1_555
C20 C19 1_555 1_555
C21 N4 1_555 1_555
C22 C1 1_555 1_555
H12 C22 1_555 1_555
C23 C2 1_555 1_555
C24 C23 1_555 1_555
H13 C24 1_555 1_555
C25 C24 1_555 1_555
H14 C25 1_555 1_555
C26 C25 1_555 1_555
C27 C26 1_555 1_555
H15 C27 1_555 1_555
C28 C23 1_555 1_555
H16 C28 1_555 1_555
C29 C8 1_555 1_555
H17 C29 1_555 1_555
H18 C29 1_555 1_555
H19 C29 1_555 1_555
C30 C8 1_555 1_555
H20 C30 1_555 1_555
H21 C30 1_555 1_555
H22 C30 1_555 1_555
C31 C15 1_555 1_555
C32 O3 1_555 1_555
H23 C32 1_555 1_555
H24 C32 1_555 1_555
H25 C32 1_555 1_555
C33 C20 1_555 1_555
H26 C33 1_555 1_555
H27 C33 1_555 1_555
H28 C33 1_555 1_555
C34 C20 1_555 1_555
H29 C34 1_555 1_555
H30 C34 1_555 1_555
H31 C34 1_555 1_555
C35 H32 1_555 1_555
H33 C35 1_555 1_555
H34 C35 1_555 1_555
C36 C35 1_555 1_555
H35 C36 1_555 1_555
H36 C36 1_555 1_555
C37 C36 1_555 1_555
H37 C37 1_555 1_555
H38 C37 1_555 1_555
C35A H32A 1_555 1_555
H33A C35A 1_555 1_555
H34A C35A 1_555 1_555
C36A C35A 1_555 1_555
H35A C36A 1_555 1_555
H36A C36A 1_555 1_555
C37A C37 1_555 1_555
H37A C37A 1_555 1_555
H38A C37A 1_555 1_555
C3 C4 1_555 1_555
C8 C9 1_555 1_555
C10 C11 1_555 1_555
C13 C16 1_555 1_555
C16 C17 1_555 1_555
C20 C21 1_555 1_555
C21 C22 1_555 1_555
C27 C28 1_555 1_555
C36A C37A 1_555 1_555

#END
