
#######################################################################
#
#                 Cambridge Crystallographic Data Centre
#                                CCDC 
#
#######################################################################
#
# If this CIF has been generated from an entry in the Cambridge 
# Structural Database, then it will include bibliographic, chemical, 
# crystal, experimental, refinement or atomic coordinate data resulting 
# from the CCDC's data processing and validation procedures.
#
#######################################################################

data_WAWMEN
_chemical_formula_moiety         'C13 H9 I1 N2 O3'
_chemical_name_systematic        N-(2-Iodophenyl)-2-nitrobenzamide
_symmetry_cell_setting           orthorhombic
_symmetry_space_group_name_H-M   'P 21 21 21'
_symmetry_Int_Tables_number      19
_space_group_name_Hall           'P 2ac 2ab'
loop_
_symmetry_equiv_pos_site_id
_symmetry_equiv_pos_as_xyz
1 x,y,z
2 1/2-x,-y,1/2+z
3 1/2+x,1/2-y,-z
4 -x,1/2+y,1/2-z
_cell_length_a                   8.8908(2)
_cell_length_b                   9.7468(2)
_cell_length_c                   15.0112(2)
_cell_angle_alpha                90
_cell_angle_beta                 90
_cell_angle_gamma                90
_cell_volume                     1300.82
_exptl_crystal_colour            colorless
_exptl_crystal_description       rod
_cell_formula_units_Z            4
_exptl_crystal_recrystallization_method ethanol
loop_
_atom_site_label
_atom_site_type_symbol
_atom_site_fract_x
_atom_site_fract_y
_atom_site_fract_z
I1 I 0.234667(15) 0.361146(12) 0.554690(8)
O1 O 0.58838(14) 0.78158(14) 0.54509(9)
O2 O 0.29408(17) 0.96800(15) 0.54663(10)
O3 O 0.14921(17) 1.06565(17) 0.45001(12)
N1 N 0.35996(17) 0.67587(16) 0.54408(10)
N2 N 0.2527(2) 0.98893(15) 0.46979(12)
C1 C 0.4340(2) 0.8130(2) 0.41738(12)
C2 C 0.3341(2) 0.9186(2) 0.39740(13)
C3 C 0.3090(3) 0.9629(2) 0.31086(14)
C4 C 0.3884(3) 0.9028(2) 0.24173(14)
C5 C 0.4920(2) 0.8002(2) 0.25987(14)
C6 C 0.5139(2) 0.7555(2) 0.34644(14)
C7 C 0.4662(2) 0.7582(2) 0.50910(14)
C8 C 0.36400(19) 0.6263(2) 0.63295(12)
C9 C 0.3135(2) 0.49537(19) 0.65383(13)
C10 C 0.3134(2) 0.4499(2) 0.74139(13)
C11 C 0.3654(2) 0.5342(2) 0.80897(13)
C12 C 0.4144(2) 0.6655(2) 0.78910(13)
C13 C 0.4131(2) 0.7119(2) 0.70196(13)
H1 H 0.2720 0.6694 0.5176
H2 H 0.2383 1.0337 0.2991
H3 H 0.3718 0.9318 0.1821
H4 H 0.5482 0.7604 0.2127
H5 H 0.5845 0.6845 0.3578
H6 H 0.2775 0.3605 0.7551
H7 H 0.3675 0.5020 0.8687
H8 H 0.4489 0.7240 0.8354
H9 H 0.4459 0.8025 0.6889
loop_
_geom_bond_atom_site_label_1
_geom_bond_atom_site_label_2
_geom_bond_site_symmetry_1
_geom_bond_site_symmetry_2
I1 C9 1_555 1_555
O1 C7 1_555 1_555
O2 N2 1_555 1_555
O3 N2 1_555 1_555
N1 C7 1_555 1_555
N2 C2 1_555 1_555
C1 C2 1_555 1_555
C2 C3 1_555 1_555
C3 C4 1_555 1_555
C4 C5 1_555 1_555
C5 C6 1_555 1_555
C6 C1 1_555 1_555
C7 C1 1_555 1_555
C8 N1 1_555 1_555
C9 C8 1_555 1_555
C10 C9 1_555 1_555
C11 C10 1_555 1_555
C12 C11 1_555 1_555
C13 C8 1_555 1_555
H1 N1 1_555 1_555
H2 C3 1_555 1_555
H3 C4 1_555 1_555
H4 C5 1_555 1_555
H5 C6 1_555 1_555
H6 C10 1_555 1_555
H7 C11 1_555 1_555
H8 C12 1_555 1_555
H9 C13 1_555 1_555
C12 C13 1_555 1_555

#END
