
#######################################################################
#
#                 Cambridge Crystallographic Data Centre
#                                CCDC 
#
#######################################################################
#
# If this CIF has been generated from an entry in the Cambridge 
# Structural Database, then it will include bibliographic, chemical, 
# crystal, experimental, refinement or atomic coordinate data resulting 
# from the CCDC's data processing and validation procedures.
#
#######################################################################

data_WAWMAJ
_chemical_formula_moiety         'C13 H9 I1 N2 O3'
_chemical_name_systematic        N-(2-Nitrophenyl)-2-iodobenzamide
_symmetry_cell_setting           triclinic
_symmetry_space_group_name_H-M   'P -1'
_symmetry_Int_Tables_number      2
_space_group_name_Hall           '-P 1'
loop_
_symmetry_equiv_pos_site_id
_symmetry_equiv_pos_as_xyz
1 x,y,z
2 -x,-y,-z
_cell_length_a                   7.2773(2)
_cell_length_b                   7.62070(10)
_cell_length_c                   11.6821(3)
_cell_angle_alpha                100.248(2)
_cell_angle_beta                 107.7770(10)
_cell_angle_gamma                92.529(2)
_cell_volume                     603.732
_exptl_crystal_colour            yellow
_exptl_crystal_description       plate
_cell_formula_units_Z            2
_exptl_crystal_recrystallization_method ethanol
loop_
_atom_site_label
_atom_site_type_symbol
_atom_site_fract_x
_atom_site_fract_y
_atom_site_fract_z
I1 I -0.108891(17) 0.241979(16) 0.116436(11)
O1 O 0.0865(2) 0.40677(19) 0.39863(13)
O2 O -0.0404(2) 0.1305(2) 0.71175(14)
O3 O 0.1146(2) 0.2554(2) 0.90012(15)
N1 N 0.0731(2) 0.2290(2) 0.53551(15)
N2 N 0.1022(2) 0.2218(2) 0.79120(16)
C1 C -0.2053(3) 0.2139(2) 0.35607(18)
C2 C -0.2769(3) 0.1909(2) 0.22784(18)
C3 C -0.4689(3) 0.1214(3) 0.16427(19)
C4 C -0.5920(3) 0.0720(3) 0.2264(2)
C5 C -0.5246(3) 0.0964(3) 0.35323(19)
C6 C -0.3340(3) 0.1684(3) 0.41702(19)
C7 C -0.0017(3) 0.2940(2) 0.42967(18)
C8 C 0.2438(3) 0.2985(2) 0.63227(18)
C9 C 0.2627(3) 0.2908(2) 0.75486(18)
C10 C 0.4352(3) 0.3532(3) 0.85005(19)
C11 C 0.5930(3) 0.4266(3) 0.8256(2)
C12 C 0.5763(3) 0.4384(3) 0.70539(19)
C13 C 0.4050(3) 0.3756(3) 0.61060(18)
H1 H 0.0073 0.1346 0.5432
H2 H -0.5162 0.1076 0.0775
H3 H -0.7215 0.0218 0.1821
H4 H -0.6082 0.0641 0.3964
H5 H -0.2898 0.1872 0.5041
H6 H 0.4444 0.3453 0.9318
H7 H 0.7112 0.4683 0.8900
H8 H 0.6835 0.4901 0.6880
H9 H 0.3969 0.3852 0.5293
loop_
_geom_bond_atom_site_label_1
_geom_bond_atom_site_label_2
_geom_bond_site_symmetry_1
_geom_bond_site_symmetry_2
I1 C2 1_555 1_555
O1 C7 1_555 1_555
O2 N2 1_555 1_555
O3 N2 1_555 1_555
N1 C7 1_555 1_555
N2 C9 1_555 1_555
C1 C2 1_555 1_555
C2 C3 1_555 1_555
C3 C4 1_555 1_555
C4 C5 1_555 1_555
C5 C6 1_555 1_555
C6 C1 1_555 1_555
C7 C1 1_555 1_555
C8 N1 1_555 1_555
C9 C8 1_555 1_555
C10 C9 1_555 1_555
C11 C10 1_555 1_555
C12 C11 1_555 1_555
C13 C8 1_555 1_555
H1 N1 1_555 1_555
H2 C3 1_555 1_555
H3 C4 1_555 1_555
H4 C5 1_555 1_555
H5 C6 1_555 1_555
H6 C10 1_555 1_555
H7 C11 1_555 1_555
H8 C12 1_555 1_555
H9 C13 1_555 1_555
C12 C13 1_555 1_555

#END
