
#######################################################################
#
#                 Cambridge Crystallographic Data Centre
#                                CCDC 
#
#######################################################################
#
# If this CIF has been generated from an entry in the Cambridge 
# Structural Database, then it will include bibliographic, chemical, 
# crystal, experimental, refinement or atomic coordinate data resulting 
# from the CCDC's data processing and validation procedures.
#
#######################################################################

data_WAWNEP
_chemical_formula_moiety         'C28 H25 N1 O6 S1'
_chemical_name_systematic        
2,3-bis(Methoxycarbonyl)-4-phenyl-5-(p-toluenesulfonyl(phenyl)methyl)pyrrole
_symmetry_cell_setting           monoclinic
_symmetry_space_group_name_H-M   'P 21/c'
_symmetry_Int_Tables_number      14
_space_group_name_Hall           '-P 2ybc'
loop_
_symmetry_equiv_pos_site_id
_symmetry_equiv_pos_as_xyz
1 x,y,z
2 -x,1/2+y,1/2-z
3 -x,-y,-z
4 x,1/2-y,1/2+z
_cell_length_a                   10.2723(19)
_cell_length_b                   24.826(5)
_cell_length_c                   11.016(2)
_cell_angle_alpha                90
_cell_angle_beta                 115.990(2)
_cell_angle_gamma                90
_cell_volume                     2525.2
_exptl_crystal_colour            colorless
_exptl_crystal_description       block
_cell_formula_units_Z            4
loop_
_atom_site_label
_atom_site_type_symbol
_atom_site_fract_x
_atom_site_fract_y
_atom_site_fract_z
S1 S 0.14281(6) 0.04770(2) 0.76290(5)
O1 O 0.28479(16) 0.03764(7) 0.86758(15)
O2 O 0.07176(16) 0.00605(6) 0.66444(14)
O3 O -0.45865(16) 0.14258(7) 0.25828(17)
O4 O -0.36057(15) 0.05990(6) 0.29630(16)
O5 O -0.2974(2) 0.26522(7) 0.3919(2)
O6 O -0.36480(18) 0.22057(6) 0.53036(17)
N1 N -0.09894(17) 0.09928(6) 0.48266(16)
H1 H -0.0919 0.0664 0.4618
C1 C 0.0096(2) 0.12864(8) 0.57921(19)
C2 C -0.0427(2) 0.17976(8) 0.5817(2)
C3 C -0.1887(2) 0.18047(8) 0.4847(2)
C4 C -0.2208(2) 0.13058(8) 0.4244(2)
C5 C -0.3589(2) 0.11285(9) 0.3176(2)
C6 C -0.4943(2) 0.03856(11) 0.1935(3)
H2 H -0.4849 0.0004 0.1858
H3 H -0.5152 0.0555 0.1086
H4 H -0.5717 0.0456 0.2179
C7 C -0.2901(2) 0.22683(9) 0.4596(2)
C8 C -0.4569(3) 0.26427(11) 0.5312(3)
H5 H -0.5043 0.2547 0.5863
H6 H -0.5283 0.2712 0.4407
H7 H -0.3994 0.2960 0.5672
C9 C 0.0409(2) 0.22581(8) 0.6649(2)
C10 C -0.0082(3) 0.25587(10) 0.7427(2)
H8 H -0.0936 0.2461 0.7468
C11 C 0.0686(3) 0.30001(11) 0.8138(3)
H9 H 0.0341 0.3201 0.8648
C12 C 0.1958(3) 0.31463(11) 0.8103(3)
H10 H 0.2473 0.3444 0.8590
C13 C 0.2462(3) 0.28543(11) 0.7351(3)
H11 H 0.3329 0.2950 0.7333
C14 C 0.1687(2) 0.24150(9) 0.6614(2)
H12 H 0.2028 0.2222 0.6089
C15 C 0.1561(2) 0.10784(8) 0.6742(2)
H13 H 0.1974 0.1356 0.7441
C16 C 0.2693(2) 0.09800(8) 0.6240(2)
C17 C 0.2482(2) 0.06265(9) 0.5198(2)
H14 H 0.1604 0.0447 0.4754
C18 C 0.3581(3) 0.05416(10) 0.4821(3)
H15 H 0.3441 0.0301 0.4128
C19 C 0.4873(3) 0.08067(11) 0.5454(3)
H16 H 0.5602 0.0746 0.5185
C20 C 0.5099(3) 0.11607(11) 0.6480(3)
H17 H 0.5974 0.1343 0.6906
C21 C 0.4013(2) 0.12435(10) 0.6875(2)
H18 H 0.4168 0.1480 0.7580
C22 C 0.0285(2) 0.06567(9) 0.8373(2)
C23 C 0.0595(4) 0.10936(13) 0.9218(3)
H19 H 0.1384 0.1312 0.9359
C24 C -0.0259(4) 0.12080(12) 0.9855(3)
H20 H -0.0059 0.1513 1.0398
C25 C -0.1394(3) 0.08864(10) 0.9712(3)
C26 C -0.1668(3) 0.04508(12) 0.8889(3)
H21 H -0.2427 0.0222 0.8787
C27 C -0.0854(3) 0.03372(11) 0.8200(3)
H22 H -0.1087 0.0043 0.7621
C28 C -0.2299(4) 0.10097(12) 1.0444(3)
H23 H -0.3034 0.0739 1.0233
H24 H -0.2746 0.1356 1.0167
H25 H -0.1693 0.1012 1.1400
loop_
_geom_bond_atom_site_label_1
_geom_bond_atom_site_label_2
_geom_bond_site_symmetry_1
_geom_bond_site_symmetry_2
S1 O1 1_555 1_555
O2 S1 1_555 1_555
O3 C5 1_555 1_555
O4 C5 1_555 1_555
O5 C7 1_555 1_555
O6 C7 1_555 1_555
N1 H1 1_555 1_555
C1 N1 1_555 1_555
C2 C1 1_555 1_555
C3 C2 1_555 1_555
C4 N1 1_555 1_555
C5 C4 1_555 1_555
C6 O4 1_555 1_555
H2 C6 1_555 1_555
H3 C6 1_555 1_555
H4 C6 1_555 1_555
C7 C3 1_555 1_555
C8 O6 1_555 1_555
H5 C8 1_555 1_555
H6 C8 1_555 1_555
H7 C8 1_555 1_555
C9 C2 1_555 1_555
C10 C9 1_555 1_555
H8 C10 1_555 1_555
C11 C10 1_555 1_555
H9 C11 1_555 1_555
C12 C11 1_555 1_555
H10 C12 1_555 1_555
C13 C12 1_555 1_555
H11 C13 1_555 1_555
C14 C9 1_555 1_555
H12 C14 1_555 1_555
C15 S1 1_555 1_555
H13 C15 1_555 1_555
C16 C15 1_555 1_555
C17 C16 1_555 1_555
H14 C17 1_555 1_555
C18 C17 1_555 1_555
H15 C18 1_555 1_555
C19 C18 1_555 1_555
H16 C19 1_555 1_555
C20 C19 1_555 1_555
H17 C20 1_555 1_555
C21 C16 1_555 1_555
H18 C21 1_555 1_555
C22 S1 1_555 1_555
C23 C22 1_555 1_555
H19 C23 1_555 1_555
C24 C23 1_555 1_555
H20 C24 1_555 1_555
C25 C24 1_555 1_555
C26 C25 1_555 1_555
H21 C26 1_555 1_555
C27 C22 1_555 1_555
H22 C27 1_555 1_555
C28 C25 1_555 1_555
H23 C28 1_555 1_555
H24 C28 1_555 1_555
H25 C28 1_555 1_555
C1 C15 1_555 1_555
C3 C4 1_555 1_555
C13 C14 1_555 1_555
C20 C21 1_555 1_555
C26 C27 1_555 1_555

#END
