
#######################################################################
#
#                 Cambridge Crystallographic Data Centre
#                                CCDC 
#
#######################################################################
#
# If this CIF has been generated from an entry in the Cambridge 
# Structural Database, then it will include bibliographic, chemical, 
# crystal, experimental, refinement or atomic coordinate data resulting 
# from the CCDC's data processing and validation procedures.
#
#######################################################################

data_WAWNIT
_chemical_formula_moiety         'C28 H25 N1 O6 S1,2(C1 H1 Cl3)'
_chemical_name_systematic        
'Dimethyl 4-(((4-methylphenyl)sulfonyl)(phenyl)methyl)-5-phenyl-1H-pyrrole-2,3-dicarboxylate chloroform solvate'
_symmetry_cell_setting           monoclinic
_symmetry_space_group_name_H-M   'C 2/c'
_symmetry_Int_Tables_number      15
_space_group_name_Hall           '-C 2yn'
loop_
_symmetry_equiv_pos_site_id
_symmetry_equiv_pos_as_xyz
1 x,y,z
2 -x,y,1/2-z
3 1/2+x,1/2+y,z
4 1/2-x,1/2+y,1/2-z
5 -x,-y,-z
6 x,-y,1/2+z
7 1/2-x,1/2-y,-z
8 1/2+x,1/2-y,1/2+z
_cell_length_a                   36.890(7)
_cell_length_b                   8.6961(16)
_cell_length_c                   25.944(5)
_cell_angle_alpha                90
_cell_angle_beta                 124.401(3)
_cell_angle_gamma                90
_cell_volume                     6867.18
_exptl_crystal_description       block
_cell_formula_units_Z            8
loop_
_atom_site_label
_atom_site_type_symbol
_atom_site_fract_x
_atom_site_fract_y
_atom_site_fract_z
N1 N 0.06951(10) 0.0358(4) 0.83208(14)
H1 H 0.0509 0.0275 0.7923
O1 O 0.23114(10) 0.3494(3) 1.03805(13)
O2 O 0.15930(10) 0.3460(3) 1.02490(13)
O3 O 0.09526(11) 0.1186(4) 1.01906(14)
O4 O 0.11049(10) -0.1265(3) 1.01288(13)
O5 O 0.01217(9) -0.0483(3) 0.90271(12)
O6 O -0.01509(10) -0.0400(4) 0.80044(13)
S1 S 0.18464(4) 0.31877(11) 0.99951(4)
C1 C 0.16062(13) 0.4276(4) 0.93050(18)
C2 C 0.18173(14) 0.4440(5) 0.9009(2)
H2 H 0.2087 0.3970 0.9167
C3 C 0.16192(16) 0.5317(5) 0.8473(2)
H3 H 0.1757 0.5417 0.8266
C4 C 0.12275(17) 0.6041(5) 0.8236(2)
C5 C 0.1008(2) 0.6936(6) 0.7631(2)
H4 H 0.0916 0.6241 0.7291
H5 H 0.1211 0.7668 0.7654
H6 H 0.0756 0.7468 0.7563
C6 C 0.1033(2) 0.5885(7) 0.8545(3)
H7 H 0.0767 0.6378 0.8393
C7 C 0.17836(12) 0.1195(4) 0.97462(16)
H8 H 0.1944 0.1098 0.9550
C8 C 0.20047(12) 0.0084(4) 1.02983(17)
C9 C 0.21378(15) 0.0438(5) 1.08944(19)
H9 H 0.2102 0.1433 1.0990
C10 C 0.23279(17) -0.0684(7) 1.1360(2)
H10 H 0.2420 -0.0426 1.1765
C11 C 0.23798(18) -0.2138(7) 1.1231(3)
H11 H 0.2503 -0.2882 1.1543
C12 C 0.22502(19) -0.2511(6) 1.0637(3)
H12 H 0.2291 -0.3506 1.0548
C13 C 0.20573(16) -0.1407(5) 1.0168(2)
H13 H 0.1963 -0.1674 0.9763
C14 C 0.13157(12) 0.0784(4) 0.92500(16)
C15 C 0.09815(12) 0.0360(4) 0.93364(16)
C16 C 0.06009(13) 0.0110(4) 0.87520(17)
C17 C 0.11232(13) 0.0755(4) 0.86051(17)
C18 C 0.10114(13) 0.0179(5) 0.99323(17)
C19 C 0.11445(19) -0.1588(6) 1.0708(2)
H14 H 0.1361 -0.0920 1.1031
H15 H 0.1232 -0.2638 1.0826
H16 H 0.0866 -0.1418 1.0649
C20 C -0.03132(15) -0.0839(6) 0.8874(2)
H17 H -0.0514 -0.0039 0.8616
H18 H -0.0302 -0.0915 0.9252
H19 H -0.0411 -0.1800 0.8654
C21 C 0.01543(14) -0.0286(4) 0.85468(19)
C22 C 0.13036(14) 0.1111(4) 0.82355(17)
C23 C 0.10594(15) 0.1982(5) 0.76977(19)
H20 H 0.0781 0.2322 0.7569
C24 C 0.1223(2) 0.2354(6) 0.7349(2)
H21 H 0.1053 0.2921 0.6983
C25 C 0.1638(2) 0.1884(6) 0.7543(2)
H22 H 0.1752 0.2162 0.7315
C26 C 0.18827(17) 0.1011(6) 0.8069(2)
H23 H 0.2162 0.0688 0.8198
C27 C 0.17156(14) 0.0603(5) 0.84140(19)
H24 H 0.1881 -0.0014 0.8766
C28 C 0.12206(18) 0.5007(7) 0.9083(2)
H25 H 0.1083 0.4921 0.9290
C29 C 0.15427(18) 0.6670(6) 0.6413(2)
H26 H 0.1516 0.7064 0.6039
Cl1 Cl 0.19597(7) 0.5298(3) 0.67589(9)
Cl2 Cl 0.16577(8) 0.8208(2) 0.69141(8)
Cl3 Cl 0.10454(6) 0.58217(18) 0.61867(8)
C30 C 0.02781(19) 0.6085(6) 0.4264(3)
H27 H 0.0544 0.6715 0.4506
Cl4 Cl 0.04229(6) 0.41566(16) 0.44639(9)
Cl5 Cl -0.00939(7) 0.6674(2) 0.44365(13)
Cl6 Cl 0.00582(7) 0.6331(2) 0.34771(9)
loop_
_geom_bond_atom_site_label_1
_geom_bond_atom_site_label_2
_geom_bond_site_symmetry_1
_geom_bond_site_symmetry_2
N1 H1 1_555 1_555
O1 S1 1_555 1_555
O2 S1 1_555 1_555
O3 C18 1_555 1_555
O4 C18 1_555 1_555
O5 C20 1_555 1_555
O6 C21 1_555 1_555
S1 C1 1_555 1_555
C1 C2 1_555 1_555
C2 H2 1_555 1_555
C3 C2 1_555 1_555
H3 C3 1_555 1_555
C4 C3 1_555 1_555
C5 C4 1_555 1_555
H4 C5 1_555 1_555
H5 C5 1_555 1_555
H6 C5 1_555 1_555
C6 C4 1_555 1_555
H7 C6 1_555 1_555
C7 S1 1_555 1_555
H8 C7 1_555 1_555
C8 C7 1_555 1_555
C9 C8 1_555 1_555
H9 C9 1_555 1_555
C10 C9 1_555 1_555
H10 C10 1_555 1_555
C11 C10 1_555 1_555
H11 C11 1_555 1_555
C12 C11 1_555 1_555
H12 C12 1_555 1_555
C13 C8 1_555 1_555
H13 C13 1_555 1_555
C14 C7 1_555 1_555
C15 C14 1_555 1_555
C16 N1 1_555 1_555
C17 N1 1_555 1_555
C18 C15 1_555 1_555
C19 O4 1_555 1_555
H14 C19 1_555 1_555
H15 C19 1_555 1_555
H16 C19 1_555 1_555
C20 H17 1_555 1_555
H18 C20 1_555 1_555
H19 C20 1_555 1_555
C21 O5 1_555 1_555
C22 C17 1_555 1_555
C23 C22 1_555 1_555
H20 C23 1_555 1_555
C24 C23 1_555 1_555
H21 C24 1_555 1_555
C25 C24 1_555 1_555
H22 C25 1_555 1_555
C26 C25 1_555 1_555
H23 C26 1_555 1_555
C27 C22 1_555 1_555
H24 C27 1_555 1_555
C28 C1 1_555 1_555
H25 C28 1_555 1_555
C29 H26 1_555 1_555
Cl1 C29 1_555 1_555
Cl2 C29 1_555 1_555
Cl3 C29 1_555 1_555
C30 H27 1_555 1_555
Cl4 C30 1_555 1_555
Cl5 C30 1_555 1_555
Cl6 C30 1_555 1_555
C6 C28 1_555 1_555
C12 C13 1_555 1_555
C14 C17 1_555 1_555
C15 C16 1_555 1_555
C16 C21 1_555 1_555
C26 C27 1_555 1_555

#END
