
#######################################################################
#
#                 Cambridge Crystallographic Data Centre
#                                CCDC 
#
#######################################################################
#
# If this CIF has been generated from an entry in the Cambridge 
# Structural Database, then it will include bibliographic, chemical, 
# crystal, experimental, refinement or atomic coordinate data resulting 
# from the CCDC's data processing and validation procedures.
#
#######################################################################

data_WAWRER
_chemical_formula_moiety         'C24 H36 Si4'
_chemical_name_systematic        
1,1,4,4-tetrakis(Trimethylsilylethynyl)-1,2,3-butatriene
_symmetry_cell_setting           monoclinic
_symmetry_space_group_name_H-M   'P 21/c'
_symmetry_Int_Tables_number      14
_space_group_name_Hall           '-P 2ybc'
loop_
_symmetry_equiv_pos_site_id
_symmetry_equiv_pos_as_xyz
1 x,y,z
2 -x,1/2+y,1/2-z
3 -x,-y,-z
4 x,1/2-y,1/2+z
_cell_length_a                   10.870(2)
_cell_length_b                   10.121(2)
_cell_length_c                   15.241(2)
_cell_angle_alpha                90
_cell_angle_beta                 122.30(2)
_cell_angle_gamma                90
_cell_volume                     1417.29
_exptl_crystal_colour            brown
_cell_formula_units_Z            2
_chemical_properties_physical    heat-sensitive
loop_
_atom_site_label
_atom_site_type_symbol
_atom_site_fract_x
_atom_site_fract_y
_atom_site_fract_z
Si1 Si 0.00292(2) 0.47087(2) 0.20775(2)
Si2 Si -0.53464(2) 0.17807(2) -0.34601(2)
C1 C -0.04317(7) 0.04596(7) -0.00830(5)
C2 C -0.13647(7) 0.14602(7) -0.02654(5)
C3 C -0.09838(7) 0.24558(7) 0.05006(5)
C4 C -0.06185(8) 0.33179(7) 0.11501(6)
C5 C 0.06731(12) 0.60047(9) 0.15485(9)
C6 C -0.15192(9) 0.53058(8) 0.21633(7)
C7 C 0.15634(10) 0.41097(10) 0.33573(7)
C8 C -0.27050(7) 0.15611(7) -0.12406(5)
C9 C -0.38138(8) 0.16597(8) -0.20997(6)
C10 C -0.58543(11) 0.00613(10) -0.39639(8)
C11 C -0.68833(10) 0.26481(11) -0.35021(9)
C12 C -0.46847(12) 0.27292(13) -0.41756(9)
H1 H 0.10257(12) 0.67599(9) 0.20122(9)
H2 H 0.14550(12) 0.56525(9) 0.14884(9)
H3 H -0.01256(12) 0.62772(9) 0.08693(9)
H4 H -0.12002(9) 0.60380(8) 0.26478(7)
H5 H -0.23008(9) 0.55973(8) 0.14838(7)
H6 H -0.18652(9) 0.45941(8) 0.24031(7)
H7 H 0.19175(10) 0.48288(10) 0.38548(7)
H8 H 0.12263(10) 0.33950(10) 0.36010(7)
H9 H 0.23445(10) 0.37938(10) 0.32817(7)
H10 H -0.66617(11) 0.00836(10) -0.46814(8)
H11 H -0.50275(11) -0.03703(10) -0.39217(8)
H12 H -0.61382(11) -0.04248(10) -0.35510(8)
H13 H -0.76944(10) 0.27156(11) -0.42162(9)
H14 H -0.71826(10) 0.21550(11) -0.31011(9)
H15 H -0.65754(10) 0.35268(11) -0.32110(9)
H16 H -0.54651(12) 0.28143(13) -0.48979(9)
H17 H -0.43725(12) 0.36007(13) -0.38702(9)
H18 H -0.38718(12) 0.22667(13) -0.41315(9)
C1B C 0.04317(7) -0.04596(7) 0.00830(5)
C2B C 0.13647(7) -0.14602(7) 0.02654(5)
C3B C 0.09838(7) -0.24558(7) -0.05006(5)
C8B C 0.27050(7) -0.15611(7) 0.12406(5)
C4B C 0.06185(8) -0.33179(7) -0.11501(6)
C9B C 0.38138(8) -0.16597(8) 0.20997(6)
Si1B Si -0.00292(2) -0.47087(2) -0.20775(2)
Si2B Si 0.53464(2) -0.17807(2) 0.34601(2)
C5B C -0.06731(12) -0.60047(9) -0.15485(9)
C6B C 0.15192(9) -0.53058(8) -0.21633(7)
C7B C -0.15634(10) -0.41097(10) -0.33573(7)
C10B C 0.58543(11) -0.00613(10) 0.39639(8)
C11B C 0.68833(10) -0.26481(11) 0.35021(9)
C12B C 0.46847(12) -0.27292(13) 0.41756(9)
H1B H -0.10257(12) -0.67599(9) -0.20122(9)
H2B H -0.14550(12) -0.56525(9) -0.14884(9)
H3B H 0.01256(12) -0.62772(9) -0.08693(9)
H4B H 0.12002(9) -0.60380(8) -0.26478(7)
H5B H 0.23008(9) -0.55973(8) -0.14838(7)
H6B H 0.18652(9) -0.45941(8) -0.24031(7)
H7B H -0.19175(10) -0.48288(10) -0.38548(7)
H8B H -0.12263(10) -0.33950(10) -0.36010(7)
H9B H -0.23445(10) -0.37938(10) -0.32817(7)
H10B H 0.66617(11) -0.00836(10) 0.46814(8)
H11B H 0.50275(11) 0.03703(10) 0.39217(8)
H12B H 0.61382(11) 0.04248(10) 0.35510(8)
H13B H 0.76944(10) -0.27156(11) 0.42162(9)
H14B H 0.71826(10) -0.21550(11) 0.31011(9)
H15B H 0.65754(10) -0.35268(11) 0.32110(9)
H16B H 0.54651(12) -0.28143(13) 0.48979(9)
H17B H 0.43725(12) -0.36007(13) 0.38702(9)
H18B H 0.38718(12) -0.22667(13) 0.41315(9)
loop_
_geom_bond_atom_site_label_1
_geom_bond_atom_site_label_2
_geom_bond_site_symmetry_1
_geom_bond_site_symmetry_2
Si1 C4 1_555 1_555
Si2 C9 1_555 1_555
C1 C2 1_555 1_555
C2 C3 1_555 1_555
C3 C4 1_555 1_555
C5 Si1 1_555 1_555
C6 Si1 1_555 1_555
C7 Si1 1_555 1_555
C8 C2 1_555 1_555
C9 C8 1_555 1_555
C10 Si2 1_555 1_555
C11 Si2 1_555 1_555
C12 Si2 1_555 1_555
H1 C5 1_555 1_555
H2 C5 1_555 1_555
H3 C5 1_555 1_555
H4 C6 1_555 1_555
H5 C6 1_555 1_555
H6 C6 1_555 1_555
H7 C7 1_555 1_555
H8 C7 1_555 1_555
H9 C7 1_555 1_555
H10 C10 1_555 1_555
H11 C10 1_555 1_555
H12 C10 1_555 1_555
H13 C11 1_555 1_555
H14 C11 1_555 1_555
H15 C11 1_555 1_555
H16 C12 1_555 1_555
H17 C12 1_555 1_555
H18 C12 1_555 1_555
C1B C1 1_555 1_555
C2B C1B 1_555 1_555
C3B C2B 1_555 1_555
C8B C2B 1_555 1_555
C4B C3B 1_555 1_555
C9B C8B 1_555 1_555
Si1B C4B 1_555 1_555
Si2B C9B 1_555 1_555
C5B Si1B 1_555 1_555
C6B Si1B 1_555 1_555
C7B Si1B 1_555 1_555
C10B Si2B 1_555 1_555
C11B Si2B 1_555 1_555
C12B Si2B 1_555 1_555
H1B C5B 1_555 1_555
H2B C5B 1_555 1_555
H3B C5B 1_555 1_555
H4B C6B 1_555 1_555
H5B C6B 1_555 1_555
H6B C6B 1_555 1_555
H7B C7B 1_555 1_555
H8B C7B 1_555 1_555
H9B C7B 1_555 1_555
H10B C10B 1_555 1_555
H11B C10B 1_555 1_555
H12B C10B 1_555 1_555
H13B C11B 1_555 1_555
H14B C11B 1_555 1_555
H15B C11B 1_555 1_555
H16B C12B 1_555 1_555
H17B C12B 1_555 1_555
H18B C12B 1_555 1_555

#END
