
#######################################################################
#
#                 Cambridge Crystallographic Data Centre
#                                CCDC 
#
#######################################################################
#
# If this CIF has been generated from an entry in the Cambridge 
# Structural Database, then it will include bibliographic, chemical, 
# crystal, experimental, refinement or atomic coordinate data resulting 
# from the CCDC's data processing and validation procedures.
#
#######################################################################

data_WAWRIW
_chemical_formula_moiety         'C17 H18 N2 O3'
_chemical_name_systematic        
(-)-2-(2-((2R,7aS)-2,3,5,6,7,7a-Hexahydro-3-oxo-1H-pyrrolizin-2-yl)ethyl)-1H-isoindole-1,3(2H)-dione
_symmetry_cell_setting           orthorhombic
_symmetry_space_group_name_H-M   'P 21 21 21'
_symmetry_Int_Tables_number      19
_space_group_name_Hall           'P 2ac 2ab'
loop_
_symmetry_equiv_pos_site_id
_symmetry_equiv_pos_as_xyz
1 x,y,z
2 1/2-x,-y,1/2+z
3 -x,1/2+y,1/2-z
4 1/2+x,1/2-y,-z
_cell_length_a                   7.6825(2)
_cell_length_b                   8.7790(3)
_cell_length_c                   21.7314(9)
_cell_angle_alpha                90
_cell_angle_beta                 90
_cell_angle_gamma                90
_cell_volume                     1465.67
_exptl_crystal_colour            colorless
_chemical_melting_point          159-161deg.C
_cell_formula_units_Z            4
_exptl_crystal_recrystallization_method hexane
loop_
_atom_site_label
_atom_site_type_symbol
_atom_site_fract_x
_atom_site_fract_y
_atom_site_fract_z
C1 C 1.4514(3) 0.2694(2) 0.85759(9)
H1 H 1.4606 0.1574 0.8536
H2 H 1.4243 0.2954 0.9009
C2 C 1.6192(3) 0.3484(3) 0.83605(9)
H3 H 1.7196 0.2779 0.8384
H4 H 1.6441 0.4393 0.8616
C3 C 1.5824(2) 0.3943(3) 0.76889(9)
H5 H 1.6555 0.4818 0.7563
H6 H 1.6038 0.3081 0.7405
C4 C 1.3915(2) 0.4371(2) 0.77005(9)
H7 H 1.3775 0.5444 0.7846
C5 C 1.2779(3) 0.4094(2) 0.71336(9)
H8 H 1.3351 0.3375 0.6847
H9 H 1.2548 0.5061 0.6914
C6 C 1.1080(2) 0.3412(2) 0.73887(8)
H10 H 1.0262 0.4263 0.7490
C7 C 1.1675(2) 0.2664(2) 0.79885(8)
N1 N 1.3199(2) 0.33119(18) 0.81556(7)
O1 O 1.09145(19) 0.16506(16) 0.82669(6)
C8 C 1.0156(2) 0.2294(2) 0.69685(8)
H11 H 0.9092 0.1914 0.7175
H12 H 1.0926 0.1412 0.6889
C9 C 0.9661(2) 0.3038(2) 0.63594(8)
H13 H 0.9026 0.3996 0.6444
H14 H 1.0737 0.3302 0.6132
N2 N 0.85828(19) 0.20649(19) 0.59738(7)
C10 C 0.9234(2) 0.0896(2) 0.56054(9)
C11 C 0.7715(2) 0.0275(2) 0.52621(8)
C12 C 0.6247(2) 0.1085(2) 0.54410(8)
C13 C 0.6800(2) 0.2272(2) 0.58895(8)
O2 O 0.59275(19) 0.32437(17) 0.61389(7)
O3 O 1.07402(18) 0.04951(17) 0.55894(7)
C14 C 0.7603(3) -0.0903(2) 0.48426(9)
H15 H 0.8609 -0.1450 0.4716
C15 C 0.5957(3) -0.1260(2) 0.46124(9)
H16 H 0.5837 -0.2068 0.4325
C16 C 0.4495(3) -0.0455(2) 0.47970(9)
H17 H 0.3389 -0.0725 0.4635
C17 C 0.4616(2) 0.0739(2) 0.52156(9)
H18 H 0.3615 0.1294 0.5341
loop_
_geom_bond_atom_site_label_1
_geom_bond_atom_site_label_2
_geom_bond_site_symmetry_1
_geom_bond_site_symmetry_2
C1 H1 1_555 1_555
H2 C1 1_555 1_555
C2 C1 1_555 1_555
H3 C2 1_555 1_555
H4 C2 1_555 1_555
C3 C2 1_555 1_555
H5 C3 1_555 1_555
H6 C3 1_555 1_555
C4 C3 1_555 1_555
H7 C4 1_555 1_555
C5 C4 1_555 1_555
H8 C5 1_555 1_555
H9 C5 1_555 1_555
C6 C5 1_555 1_555
H10 C6 1_555 1_555
C7 C6 1_555 1_555
N1 C1 1_555 1_555
O1 C7 1_555 1_555
C8 C6 1_555 1_555
H11 C8 1_555 1_555
H12 C8 1_555 1_555
C9 C8 1_555 1_555
H13 C9 1_555 1_555
H14 C9 1_555 1_555
N2 C9 1_555 1_555
C10 N2 1_555 1_555
C11 C10 1_555 1_555
C12 C11 1_555 1_555
C13 N2 1_555 1_555
O2 C13 1_555 1_555
O3 C10 1_555 1_555
C14 C11 1_555 1_555
H15 C14 1_555 1_555
C15 C14 1_555 1_555
H16 C15 1_555 1_555
C16 C15 1_555 1_555
H17 C16 1_555 1_555
C17 C12 1_555 1_555
H18 C17 1_555 1_555
C4 N1 1_555 1_555
C7 N1 1_555 1_555
C12 C13 1_555 1_555
C16 C17 1_555 1_555

#END
