
#######################################################################
#
#                 Cambridge Crystallographic Data Centre
#                                CCDC 
#
#######################################################################
#
# If this CIF has been generated from an entry in the Cambridge 
# Structural Database, then it will include bibliographic, chemical, 
# crystal, experimental, refinement or atomic coordinate data resulting 
# from the CCDC's data processing and validation procedures.
#
#######################################################################

data_WAWSAR
_chemical_formula_moiety         'C46 H62 O6 S2'
_chemical_name_systematic        
4,8-bis(dodecyloxy)-2,6-diphenylbenzo[1,2-b:4,5-b']bisthiophene-1,1,5,5-tetrone
_symmetry_cell_setting           monoclinic
_symmetry_space_group_name_H-M   'P 21/c'
_symmetry_Int_Tables_number      14
_space_group_name_Hall           '-P 2ybc'
loop_
_symmetry_equiv_pos_site_id
_symmetry_equiv_pos_as_xyz
1 x,y,z
2 -x,1/2+y,1/2-z
3 -x,-y,-z
4 x,1/2-y,1/2+z
_cell_length_a                   14.9364(3)
_cell_length_b                   7.6637(2)
_cell_length_c                   18.4671(4)
_cell_angle_alpha                90
_cell_angle_beta                 97.5930(10)
_cell_angle_gamma                90
_cell_volume                     2095.36
_exptl_crystal_colour            orange
_exptl_crystal_description       plate
_cell_formula_units_Z            2
loop_
_atom_site_label
_atom_site_type_symbol
_atom_site_fract_x
_atom_site_fract_y
_atom_site_fract_z
S1 S 0.51206(2) 0.19738(5) 0.11282(2)
O1 O 0.65045(7) 0.50629(15) 0.10754(6)
O2 O 0.48931(8) 0.26276(15) 0.18113(6)
O3 O 0.58952(8) 0.08601(15) 0.11470(6)
C1 C 0.57526(11) 0.5102(2) 0.05683(9)
C2 C 0.51424(11) 0.3732(2) 0.05060(9)
C3 C 0.38656(11) 0.2017(2) 0.00328(9)
H1 H 0.3348 0.1741 -0.0304
C4 C 0.44033(11) 0.3584(2) -0.00401(9)
C5 C 0.38196(11) -0.0702(2) 0.08196(9)
C6 C 0.41504(11) 0.0990(2) 0.06071(9)
C7 C 0.31712(11) -0.1592(2) 0.03396(9)
H2 H 0.2938 -0.1072 -0.0113
C8 C 0.73379(11) 0.5716(2) 0.22250(9)
H3 H 0.7863 0.5870 0.1955
H4 H 0.7323 0.4480 0.2378
C9 C 0.64839(11) 0.6130(2) 0.17232(9)
H5 H 0.5946 0.5846 0.1962
H6 H 0.6463 0.7384 0.1593
C10 C 0.83920(11) 0.7502(2) 0.41332(9)
H7 H 0.8464 0.8726 0.3979
H8 H 0.7836 0.7441 0.4371
C11 C 0.74588(11) 0.6877(2) 0.29024(9)
H9 H 0.6904 0.6821 0.3142
H10 H 0.7538 0.8100 0.2751
C12 C 0.41507(11) -0.1486(2) 0.14878(9)
H11 H 0.4585 -0.0893 0.1822
C13 C 0.32134(12) -0.3994(2) 0.11772(10)
H12 H 0.3015 -0.5124 0.1295
C14 C 0.92703(12) 0.8174(2) 0.53732(9)
H13 H 0.8718 0.8026 0.5610
H14 H 0.9299 0.9409 0.5221
C15 C 0.91970(12) 0.7020(2) 0.46952(9)
H15 H 0.9138 0.5788 0.4842
H16 H 0.9759 0.7128 0.4468
C16 C 1.00927(12) 0.7772(2) 0.59304(9)
H17 H 1.0646 0.7981 0.5702
H18 H 1.0081 0.6521 0.6063
C17 C 0.28671(12) -0.3220(2) 0.05183(10)
H19 H 0.2423 -0.3809 0.0192
C18 C 0.82673(12) 0.6350(2) 0.34533(9)
H20 H 0.8188 0.5125 0.3603
H21 H 0.8821 0.6406 0.3213
C19 C 1.01390(11) 0.8863(2) 0.66257(9)
H22 H 1.0183 1.0111 0.6496
H23 H 0.9570 0.8705 0.6839
C20 C 0.38462(12) -0.3126(2) 0.16633(10)
H24 H 0.4072 -0.3652 0.2117
C21 C 1.09323(12) 0.8402(2) 0.72016(9)
H25 H 1.0891 0.7155 0.7333
H26 H 1.1503 0.8569 0.6991
C22 C 1.09604(13) 0.9504(3) 0.78910(10)
H27 H 1.1022 1.0747 0.7760
H28 H 1.0379 0.9371 0.8088
C23 C 1.17240(16) 0.9030(4) 0.84844(12)
H29 H 1.2303 0.9153 0.8294
H30 H 1.1650 0.7821 0.8639
H31 H 1.1712 0.9811 0.8903
S1B S 0.48794(2) 0.80262(5) -0.11282(2)
O1B O 0.34955(7) 0.49371(15) -0.10754(6)
O2B O 0.51069(8) 0.73724(15) -0.18113(6)
O3B O 0.41048(8) 0.91399(15) -0.11470(6)
C1B C 0.42474(11) 0.4898(2) -0.05683(9)
C2B C 0.48576(11) 0.6268(2) -0.05060(9)
C3B C 0.61344(11) 0.7983(2) -0.00328(9)
H1B H 0.6652 0.8259 0.0304
C4B C 0.55967(11) 0.6416(2) 0.00401(9)
C5B C 0.61804(11) 1.0702(2) -0.08196(9)
C6B C 0.58496(11) 0.9010(2) -0.06071(9)
C7B C 0.68288(11) 1.1592(2) -0.03396(9)
H2B H 0.7062 1.1072 0.0113
C8B C 0.26621(11) 0.4284(2) -0.22250(9)
H3B H 0.2137 0.4130 -0.1955
H4B H 0.2677 0.5520 -0.2378
C9B C 0.35161(11) 0.3870(2) -0.17232(9)
H5B H 0.4054 0.4154 -0.1962
H6B H 0.3537 0.2616 -0.1593
C10B C 0.16080(11) 0.2498(2) -0.41332(9)
H7B H 0.1536 0.1274 -0.3979
H8B H 0.2164 0.2559 -0.4371
C11B C 0.25412(11) 0.3123(2) -0.29024(9)
H9B H 0.3096 0.3179 -0.3142
H10B H 0.2462 0.1900 -0.2751
C12B C 0.58493(11) 1.1486(2) -0.14878(9)
H11B H 0.5415 1.0893 -0.1822
C13B C 0.67866(12) 1.3994(2) -0.11772(10)
H12B H 0.6985 1.5124 -0.1295
C14B C 0.07297(12) 0.1826(2) -0.53732(9)
H13B H 0.1282 0.1974 -0.5610
H14B H 0.0701 0.0591 -0.5221
C15B C 0.08030(12) 0.2980(2) -0.46952(9)
H15B H 0.0862 0.4212 -0.4842
H16B H 0.0241 0.2872 -0.4468
C16B C -0.00927(12) 0.2228(2) -0.59304(9)
H17B H -0.0646 0.2019 -0.5702
H18B H -0.0081 0.3479 -0.6063
C17B C 0.71329(12) 1.3220(2) -0.05183(10)
H19B H 0.7577 1.3809 -0.0192
C18B C 0.17327(12) 0.3650(2) -0.34533(9)
H20B H 0.1812 0.4875 -0.3603
H21B H 0.1179 0.3594 -0.3213
C19B C -0.01390(11) 0.1137(2) -0.66257(9)
H22B H -0.0183 -0.0111 -0.6496
H23B H 0.0430 0.1295 -0.6839
C20B C 0.61538(12) 1.3126(2) -0.16633(10)
H24B H 0.5928 1.3652 -0.2117
C21B C -0.09323(12) 0.1598(2) -0.72016(9)
H25B H -0.0891 0.2845 -0.7333
H26B H -0.1503 0.1431 -0.6991
C22B C -0.09604(13) 0.0496(3) -0.78910(10)
H27B H -0.1022 -0.0747 -0.7760
H28B H -0.0379 0.0629 -0.8088
C23B C -0.17240(16) 0.0970(4) -0.84844(12)
H29B H -0.2303 0.0847 -0.8294
H30B H -0.1650 0.2179 -0.8639
H31B H -0.1712 0.0189 -0.8903
loop_
_geom_bond_atom_site_label_1
_geom_bond_atom_site_label_2
_geom_bond_site_symmetry_1
_geom_bond_site_symmetry_2
S1 O2 1_555 1_555
O1 C1 1_555 1_555
O3 S1 1_555 1_555
C1 C2 1_555 1_555
C2 S1 1_555 1_555
C3 H1 1_555 1_555
C4 C2 1_555 1_555
C5 C6 1_555 1_555
C6 S1 1_555 1_555
C7 C5 1_555 1_555
H2 C7 1_555 1_555
C8 H3 1_555 1_555
H4 C8 1_555 1_555
C9 O1 1_555 1_555
H5 C9 1_555 1_555
H6 C9 1_555 1_555
C10 H7 1_555 1_555
H8 C10 1_555 1_555
C11 C8 1_555 1_555
H9 C11 1_555 1_555
H10 C11 1_555 1_555
C12 C5 1_555 1_555
H11 C12 1_555 1_555
C13 H12 1_555 1_555
C14 H13 1_555 1_555
H14 C14 1_555 1_555
C15 C10 1_555 1_555
H15 C15 1_555 1_555
H16 C15 1_555 1_555
C16 C14 1_555 1_555
H17 C16 1_555 1_555
H18 C16 1_555 1_555
C17 C7 1_555 1_555
H19 C17 1_555 1_555
C18 C10 1_555 1_555
H20 C18 1_555 1_555
H21 C18 1_555 1_555
C19 C16 1_555 1_555
H22 C19 1_555 1_555
H23 C19 1_555 1_555
C20 C12 1_555 1_555
H24 C20 1_555 1_555
C21 C19 1_555 1_555
H25 C21 1_555 1_555
H26 C21 1_555 1_555
C22 C21 1_555 1_555
H27 C22 1_555 1_555
H28 C22 1_555 1_555
C23 C22 1_555 1_555
H29 C23 1_555 1_555
H30 C23 1_555 1_555
H31 C23 1_555 1_555
S1B O2B 1_555 1_555
O1B C1B 1_555 1_555
O3B S1B 1_555 1_555
C1B C4 1_555 1_555
C2B S1B 1_555 1_555
C3B H1B 1_555 1_555
C4B C1 1_555 1_555
C5B C6B 1_555 1_555
C6B S1B 1_555 1_555
C7B C5B 1_555 1_555
H2B C7B 1_555 1_555
C8B H3B 1_555 1_555
H4B C8B 1_555 1_555
C9B O1B 1_555 1_555
H5B C9B 1_555 1_555
H6B C9B 1_555 1_555
C10B H7B 1_555 1_555
H8B C10B 1_555 1_555
C11B C8B 1_555 1_555
H9B C11B 1_555 1_555
H10B C11B 1_555 1_555
C12B C5B 1_555 1_555
H11B C12B 1_555 1_555
C13B H12B 1_555 1_555
C14B H13B 1_555 1_555
H14B C14B 1_555 1_555
C15B C10B 1_555 1_555
H15B C15B 1_555 1_555
H16B C15B 1_555 1_555
C16B C14B 1_555 1_555
H17B C16B 1_555 1_555
H18B C16B 1_555 1_555
C17B C7B 1_555 1_555
H19B C17B 1_555 1_555
C18B C10B 1_555 1_555
H20B C18B 1_555 1_555
H21B C18B 1_555 1_555
C19B C16B 1_555 1_555
H22B C19B 1_555 1_555
H23B C19B 1_555 1_555
C20B C12B 1_555 1_555
H24B C20B 1_555 1_555
C21B C19B 1_555 1_555
H25B C21B 1_555 1_555
H26B C21B 1_555 1_555
C22B C21B 1_555 1_555
H27B C22B 1_555 1_555
H28B C22B 1_555 1_555
C23B C22B 1_555 1_555
H29B C23B 1_555 1_555
H30B C23B 1_555 1_555
H31B C23B 1_555 1_555
C3 C4 1_555 1_555
C3 C6 1_555 1_555
C8 C9 1_555 1_555
C11 C18 1_555 1_555
C13 C17 1_555 1_555
C13 C20 1_555 1_555
C14 C15 1_555 1_555
C1B C2B 1_555 1_555
C2B C4B 1_555 1_555
C3B C4B 1_555 1_555
C3B C6B 1_555 1_555
C8B C9B 1_555 1_555
C11B C18B 1_555 1_555
C13B C17B 1_555 1_555
C13B C20B 1_555 1_555
C14B C15B 1_555 1_555

#END
