
#######################################################################
#
#                 Cambridge Crystallographic Data Centre
#                                CCDC 
#
#######################################################################
#
# If this CIF has been generated from an entry in the Cambridge 
# Structural Database, then it will include bibliographic, chemical, 
# crystal, experimental, refinement or atomic coordinate data resulting 
# from the CCDC's data processing and validation procedures.
#
#######################################################################

data_WAWYOL
_chemical_formula_moiety         'C22 H22 N2 O2,C5 H12'
_chemical_name_systematic        
'4,6-bis[(1-phenylethyl)amino]benzene-1,3-diol pentane solvate'
_symmetry_cell_setting           orthorhombic
_symmetry_space_group_name_H-M   'P 21 21 21'
_symmetry_Int_Tables_number      19
_space_group_name_Hall           'P 2ac 2ab'
loop_
_symmetry_equiv_pos_site_id
_symmetry_equiv_pos_as_xyz
1 x,y,z
2 1/2+x,1/2-y,-z
3 -x,1/2+y,1/2-z
4 1/2-x,-y,1/2+z
_cell_length_a                   12.666(2)
_cell_length_b                   13.200(3)
_cell_length_c                   13.728(3)
_cell_angle_alpha                90
_cell_angle_beta                 90
_cell_angle_gamma                90
_cell_volume                     2295.2
_exptl_crystal_colour            purple
_exptl_crystal_description       plate
_cell_formula_units_Z            4
loop_
_atom_site_label
_atom_site_type_symbol
_atom_site_fract_x
_atom_site_fract_y
_atom_site_fract_z
C1 C 0.1433(4) 0.0660(5) 0.7846(5)
C2 C 0.1841(5) -0.0421(6) 0.7780(4)
C3 C 0.2422(5) -0.0802(6) 0.8558(5)
H1 H 0.2685 -0.1475 0.8525
C4 C 0.2632(5) -0.0212(6) 0.9399(4)
C5 C 0.2270(4) 0.0878(6) 0.9378(4)
C6 C 0.1657(4) 0.1268(5) 0.8625(4)
H2 H 0.1399 0.1944 0.8652
C7 C 0.0441(5) 0.1931(7) 0.6927(5)
H3 H -0.0040 0.2050 0.7494
C8 C -0.0235(6) 0.1889(8) 0.5989(6)
H4 H -0.0310 0.1184 0.5778
H5 H 0.0112 0.2282 0.5474
H6 H -0.0934 0.2176 0.6119
C9 C 0.1228(6) 0.2783(8) 0.6885(5)
C10 C 0.0976(6) 0.3737(7) 0.7338(6)
H7 H 0.0314 0.3832 0.7651
C11 C 0.1682(8) 0.4483(8) 0.7313(7)
H8 H 0.1539 0.5098 0.7647
C12 C 0.2621(10) 0.4378(9) 0.6810(7)
H9 H 0.3089 0.4939 0.6775
C13 C 0.2899(7) 0.3480(9) 0.6356(6)
H10 H 0.3556 0.3410 0.6030
C14 C 0.2191(5) 0.2693(6) 0.6393(6)
H11 H 0.2359 0.2073 0.6077
C15 C 0.2565(6) 0.2534(6) 1.0172(5)
H12 H 0.2592 0.2812 0.9495
C16 C 0.3534(6) 0.2945(7) 1.0722(5)
H13 H 0.3480 0.3684 1.0778
H14 H 0.4178 0.2770 1.0363
H15 H 0.3562 0.2645 1.1374
C17 C 0.1557(4) 0.2854(6) 1.0606(4)
C18 C 0.1139(5) 0.2341(5) 1.1401(5)
H16 H 0.1474 0.1745 1.1637
C19 C 0.0230(5) 0.2699(6) 1.1853(4)
H17 H -0.0055 0.2349 1.2397
C20 C -0.0260(4) 0.3571(6) 1.1509(4)
H18 H -0.0881 0.3815 1.1817
C21 C 0.0158(5) 0.4084(5) 1.0713(5)
H19 H -0.0177 0.4679 1.0478
C22 C 0.1066(5) 0.3725(6) 1.0261(4)
H20 H 0.1352 0.4076 0.9718
N1 N 0.0949(4) 0.0961(5) 0.7054(4)
H21 H 0.0933 0.0538 0.6559
N2 N 0.2670(4) 0.1436(5) 1.0101(3)
H22 H 0.3019 0.1121 1.0564
O1 O 0.1596(4) -0.0908(4) 0.7034(3)
O2 O 0.3179(4) -0.0493(4) 1.0103(3)
loop_
_geom_bond_atom_site_label_1
_geom_bond_atom_site_label_2
_geom_bond_site_symmetry_1
_geom_bond_site_symmetry_2
C1 C2 1_555 1_555
C2 C3 1_555 1_555
C3 H1 1_555 1_555
C4 C3 1_555 1_555
C5 C4 1_555 1_555
C6 C1 1_555 1_555
H2 C6 1_555 1_555
C7 H3 1_555 1_555
C8 C7 1_555 1_555
H4 C8 1_555 1_555
H5 C8 1_555 1_555
H6 C8 1_555 1_555
C9 C7 1_555 1_555
C10 C9 1_555 1_555
H7 C10 1_555 1_555
C11 C10 1_555 1_555
H8 C11 1_555 1_555
C12 C11 1_555 1_555
H9 C12 1_555 1_555
C13 C12 1_555 1_555
H10 C13 1_555 1_555
C14 C9 1_555 1_555
H11 C14 1_555 1_555
C15 H12 1_555 1_555
C16 C15 1_555 1_555
H13 C16 1_555 1_555
H14 C16 1_555 1_555
H15 C16 1_555 1_555
C17 C15 1_555 1_555
C18 C17 1_555 1_555
H16 C18 1_555 1_555
C19 C18 1_555 1_555
H17 C19 1_555 1_555
C20 C19 1_555 1_555
H18 C20 1_555 1_555
C21 C20 1_555 1_555
H19 C21 1_555 1_555
C22 C17 1_555 1_555
H20 C22 1_555 1_555
N1 C1 1_555 1_555
H21 N1 1_555 1_555
N2 C5 1_555 1_555
H22 N2 1_555 1_555
O1 C2 1_555 1_555
O2 C4 1_555 1_555
C5 C6 1_555 1_555
C7 N1 1_555 1_555
C13 C14 1_555 1_555
C15 N2 1_555 1_555
C21 C22 1_555 1_555

#END
