
#######################################################################
#
#                 Cambridge Crystallographic Data Centre
#                                CCDC 
#
#######################################################################
#
# If this CIF has been generated from an entry in the Cambridge 
# Structural Database, then it will include bibliographic, chemical, 
# crystal, experimental, refinement or atomic coordinate data resulting 
# from the CCDC's data processing and validation procedures.
#
#######################################################################

data_WAWZIG
_chemical_formula_moiety         'C36 H34 N2 O2'
_chemical_name_systematic        
4-[(3,3-diphenylpropyl)amino]-6-[(3,3-diphenylpropyl)iminio]-3-oxocyclohexa-1,4-dien-1-olate
_symmetry_cell_setting           monoclinic
_symmetry_space_group_name_H-M   'P 21/c'
_symmetry_Int_Tables_number      14
_space_group_name_Hall           '-P 2ybc'
loop_
_symmetry_equiv_pos_site_id
_symmetry_equiv_pos_as_xyz
1 x,y,z
2 -x,1/2+y,1/2-z
3 -x,-y,-z
4 x,1/2-y,1/2+z
_cell_length_a                   8.284(9)
_cell_length_b                   30.84(3)
_cell_length_c                   11.178(13)
_cell_angle_alpha                90
_cell_angle_beta                 98.85(3)
_cell_angle_gamma                90
_cell_volume                     2821.74
_exptl_crystal_colour            purple
_exptl_crystal_description       block
_cell_formula_units_Z            4
loop_
_atom_site_label
_atom_site_type_symbol
_atom_site_fract_x
_atom_site_fract_y
_atom_site_fract_z
C1 C 1.0774(4) 0.96754(12) 0.1401(4)
H1 H 1.0022 0.9485 0.0936
C2 C 1.0458(4) 0.98318(11) 0.2506(4)
C3 C 1.1595(5) 1.01514(13) 0.3232(4)
C4 C 1.3008(5) 1.02779(12) 0.2766(4)
H2 H 1.3715 1.0486 0.3201
C5 C 1.3409(4) 1.01134(12) 0.1707(4)
C6 C 1.2198(4) 0.97989(11) 0.0982(4)
C7 C 0.7940(4) 0.94016(13) 0.2488(4)
H3 H 0.8461 0.9115 0.2423
H4 H 0.7447 0.9494 0.1664
C8 C 0.6613(4) 0.93626(12) 0.3283(4)
H5 H 0.5998 0.9639 0.3252
H6 H 0.7132 0.9316 0.4132
C9 C 0.5413(4) 0.89905(12) 0.2900(4)
H7 H 0.4954 0.9037 0.2028
C10 C 0.3966(5) 0.89845(13) 0.3611(4)
C11 C 0.3876(5) 0.92565(15) 0.4581(5)
H8 H 0.4713 0.9464 0.4816
C12 C 0.2549(6) 0.92268(17) 0.5219(5)
H9 H 0.2505 0.9408 0.5901
C13 C 0.1313(6) 0.8936(2) 0.4859(7)
H10 H 0.0398 0.8923 0.5276
C14 C 0.1397(6) 0.86644(18) 0.3899(6)
H11 H 0.0553 0.8459 0.3664
C15 C 0.2699(5) 0.86894(15) 0.3277(5)
H12 H 0.2740 0.8502 0.2607
C16 C 0.6234(5) 0.85478(13) 0.2996(4)
C17 C 0.7135(5) 0.84083(14) 0.4076(4)
H13 H 0.7277 0.8600 0.4749
C18 C 0.7832(6) 0.80027(16) 0.4210(5)
H14 H 0.8430 0.7916 0.4966
C19 C 0.7652(7) 0.77251(18) 0.3238(7)
H15 H 0.8155 0.7448 0.3313
C20 C 0.6758(9) 0.78462(19) 0.2171(6)
H16 H 0.6605 0.7649 0.1510
C21 C 0.6060(7) 0.82585(17) 0.2036(5)
H17 H 0.5459 0.8342 0.1278
C22 C 1.1795(5) 0.93335(12) -0.0826(4)
H18 H 1.2185 0.9344 -0.1619
H19 H 1.0613 0.9401 -0.0960
C23 C 1.2062(5) 0.88777(12) -0.0293(4)
H20 H 1.1690 0.8873 0.0507
H21 H 1.3248 0.8815 -0.0161
C24 C 1.1172(5) 0.85126(12) -0.1083(4)
H22 H 1.1597 0.8518 -0.1873
C25 C 1.1667(5) 0.80750(13) -0.0488(4)
C26 C 1.2877(6) 0.78250(15) -0.0890(5)
H23 H 1.3378 0.7924 -0.1549
C27 C 1.3359(8) 0.74324(18) -0.0339(6)
H24 H 1.4172 0.7262 -0.0630
C28 C 1.2660(8) 0.72902(18) 0.0626(7)
H25 H 1.2990 0.7022 0.1004
C29 C 1.1498(7) 0.75334(17) 0.1042(5)
H26 H 1.1031 0.7436 0.1718
C30 C 1.0984(6) 0.79225(15) 0.0491(5)
H27 H 1.0158 0.8087 0.0786
C31 C 0.9309(5) 0.85724(13) -0.1373(4)
C32 C 0.8405(5) 0.87330(15) -0.0523(5)
H28 H 0.8945 0.8809 0.0260
C33 C 0.6731(6) 0.87833(16) -0.0800(5)
H29 H 0.6141 0.8903 -0.0215
C34 C 0.5903(6) 0.86604(17) -0.1926(5)
H30 H 0.4753 0.8696 -0.2117
C35 C 0.6771(6) 0.84883(16) -0.2751(5)
H31 H 0.6216 0.8394 -0.3514
C36 C 0.8468(6) 0.84482(14) -0.2490(4)
H32 H 0.9055 0.8334 -0.3086
N1 N 0.9179(4) 0.97180(10) 0.2999(3)
H33 H 0.9058 0.9841 0.3690
N2 N 1.2660(3) 0.96547(9) -0.0023(3)
H34 H 1.3566 0.9762 -0.0223
O1 O 1.1175(4) 1.02841(10) 0.4195(3)
O2 O 1.4677(3) 1.02001(9) 0.1269(3)
loop_
_geom_bond_atom_site_label_1
_geom_bond_atom_site_label_2
_geom_bond_site_symmetry_1
_geom_bond_site_symmetry_2
C1 H1 1_555 1_555
C2 C1 1_555 1_555
C3 C2 1_555 1_555
C4 C3 1_555 1_555
H2 C4 1_555 1_555
C5 C4 1_555 1_555
C6 C1 1_555 1_555
C7 H3 1_555 1_555
H4 C7 1_555 1_555
C8 C7 1_555 1_555
H5 C8 1_555 1_555
H6 C8 1_555 1_555
C9 C8 1_555 1_555
H7 C9 1_555 1_555
C10 C9 1_555 1_555
C11 C10 1_555 1_555
H8 C11 1_555 1_555
C12 C11 1_555 1_555
H9 C12 1_555 1_555
C13 C12 1_555 1_555
H10 C13 1_555 1_555
C14 C13 1_555 1_555
H11 C14 1_555 1_555
C15 C10 1_555 1_555
H12 C15 1_555 1_555
C16 C9 1_555 1_555
C17 C16 1_555 1_555
H13 C17 1_555 1_555
C18 C17 1_555 1_555
H14 C18 1_555 1_555
C19 C18 1_555 1_555
H15 C19 1_555 1_555
C20 C19 1_555 1_555
H16 C20 1_555 1_555
C21 C16 1_555 1_555
H17 C21 1_555 1_555
C22 H18 1_555 1_555
H19 C22 1_555 1_555
C23 C22 1_555 1_555
H20 C23 1_555 1_555
H21 C23 1_555 1_555
C24 C23 1_555 1_555
H22 C24 1_555 1_555
C25 C24 1_555 1_555
C26 C25 1_555 1_555
H23 C26 1_555 1_555
C27 C26 1_555 1_555
H24 C27 1_555 1_555
C28 C27 1_555 1_555
H25 C28 1_555 1_555
C29 C28 1_555 1_555
H26 C29 1_555 1_555
C30 C25 1_555 1_555
H27 C30 1_555 1_555
C31 C24 1_555 1_555
C32 C31 1_555 1_555
H28 C32 1_555 1_555
C33 C32 1_555 1_555
H29 C33 1_555 1_555
C34 C33 1_555 1_555
H30 C34 1_555 1_555
C35 C34 1_555 1_555
H31 C35 1_555 1_555
C36 C31 1_555 1_555
H32 C36 1_555 1_555
N1 C2 1_555 1_555
H33 N1 1_555 1_555
N2 C6 1_555 1_555
H34 N2 1_555 1_555
O1 C3 1_555 1_555
O2 C5 1_555 1_555
C5 C6 1_555 1_555
C7 N1 1_555 1_555
C14 C15 1_555 1_555
C20 C21 1_555 1_555
C22 N2 1_555 1_555
C29 C30 1_555 1_555
C35 C36 1_555 1_555

#END
