
#######################################################################
#
#                 Cambridge Crystallographic Data Centre
#                                CCDC 
#
#######################################################################
#
# If this CIF has been generated from an entry in the Cambridge 
# Structural Database, then it will include bibliographic, chemical, 
# crystal, experimental, refinement or atomic coordinate data resulting 
# from the CCDC's data processing and validation procedures.
#
#######################################################################

data_WAWZUS
_chemical_formula_moiety         'C26 H30 N2 O6'
_chemical_name_systematic        
4-{[2-(3,4-dimethoxyphenyl)ethyl]amino}-6-{[2-(3,4-dimethoxyphenyl)ethyl]iminio}-3-oxocyclohexa-1,4-dien-1-olate
_symmetry_cell_setting           monoclinic
_symmetry_space_group_name_H-M   'P 21/c'
_symmetry_Int_Tables_number      14
_space_group_name_Hall           '-P 2ybc'
loop_
_symmetry_equiv_pos_site_id
_symmetry_equiv_pos_as_xyz
1 x,y,z
2 -x,1/2+y,1/2-z
3 -x,-y,-z
4 x,1/2-y,1/2+z
_cell_length_a                   12.5230(4)
_cell_length_b                   9.9321(3)
_cell_length_c                   20.2298(7)
_cell_angle_alpha                90
_cell_angle_beta                 111.348(2)
_cell_angle_gamma                90
_cell_volume                     2343.53
_exptl_crystal_colour            red
_exptl_crystal_description       prism
_cell_formula_units_Z            4
loop_
_atom_site_label
_atom_site_type_symbol
_atom_site_fract_x
_atom_site_fract_y
_atom_site_fract_z
C1 C 0.59352(13) 0.64776(17) 1.02038(8)
H1 H 0.6327 0.6214 0.9901
C2 C 0.51808(13) 0.75582(17) 1.00315(8)
C3 C 0.45737(14) 0.80503(17) 1.05217(9)
C4 C 0.48047(15) 0.73554(18) 1.11574(8)
H2 H 0.4457 0.7656 1.1477
C5 C 0.55235(13) 0.62412(18) 1.13421(8)
C6 C 0.60986(12) 0.57961(17) 1.08289(8)
C7 C 0.52931(15) 0.80385(19) 0.88569(8)
H3 H 0.5239 0.7070 0.8733
H4 H 0.6106 0.8315 0.9002
C8 C 0.45630(15) 0.88565(19) 0.82151(9)
H5 H 0.4625 0.9822 0.8345
H6 H 0.4866 0.8740 0.7830
C9 C 0.33101(15) 0.84484(17) 0.79437(8)
C10 C 0.29420(15) 0.72999(17) 0.75149(8)
H7 H 0.3483 0.6791 0.7390
C11 C 0.18074(15) 0.68954(17) 0.72711(8)
C12 C 0.10081(15) 0.76291(19) 0.74715(9)
C13 C 0.13583(16) 0.87703(19) 0.78836(9)
H8 H 0.0820 0.9282 0.8009
C14 C 0.25033(16) 0.91708(18) 0.81159(9)
H9 H 0.2735 0.9958 0.8399
C15 C 0.21354(18) 0.5089(2) 0.65837(10)
H10 H 0.2413 0.5703 0.6302
H11 H 0.1722 0.4340 0.6284
H12 H 0.2788 0.4738 0.6983
C16 C -0.09059(18) 0.7771(2) 0.74566(12)
H13 H -0.0645 0.7720 0.7975
H14 H -0.1648 0.7317 0.7247
H15 H -0.0986 0.8717 0.7309
C17 C 0.74000(14) 0.40160(18) 1.06958(9)
H16 H 0.7022 0.4128 1.0176
H17 H 0.7430 0.3042 1.0804
C18 C 0.86051(14) 0.45740(19) 1.09350(9)
H18 H 0.8945 0.4537 1.1460
H19 H 0.8564 0.5533 1.0794
C19 C 0.93953(13) 0.38440(17) 1.06378(8)
C20 C 1.05469(14) 0.42268(18) 1.08984(9)
H20 H 1.0796 0.4919 1.1245
C21 C 1.13283(13) 0.36162(17) 1.06610(8)
C22 C 1.09759(13) 0.25855(16) 1.01542(8)
C23 C 0.98399(14) 0.22088(18) 0.98884(9)
H21 H 0.9590 0.1524 0.9537
C24 C 0.90520(14) 0.28340(19) 1.01348(9)
H22 H 0.8272 0.2559 0.9953
C25 C 1.28751(17) 0.4842(3) 1.14746(12)
H23 H 1.2477 0.5708 1.1348
H24 H 1.3701 0.4981 1.1602
H25 H 1.2731 0.4453 1.1879
C26 C 1.15331(16) 0.09212(19) 0.94918(10)
H26 H 1.1168 0.0217 0.9676
H27 H 1.2227 0.0560 0.9440
H28 H 1.1000 0.1225 0.9028
N1 N 0.48940(13) 0.82551(15) 0.94431(7)
H29 H 0.4410 0.8924 0.9396
N2 N 0.67341(11) 0.47080(15) 1.10518(7)
H30 H 0.6758 0.4365 1.1458
O1 O 0.39196(12) 0.90322(13) 1.03092(7)
O2 O 0.57385(11) 0.55379(14) 1.18890(6)
O3 O 0.13775(11) 0.58027(13) 0.68502(6)
O4 O -0.00890(11) 0.71282(15) 0.72218(7)
O5 O 1.24637(10) 0.39469(14) 1.08843(7)
O6 O 1.18305(10) 0.20269(13) 0.99723(6)
loop_
_geom_bond_atom_site_label_1
_geom_bond_atom_site_label_2
_geom_bond_site_symmetry_1
_geom_bond_site_symmetry_2
C1 H1 1_555 1_555
C2 C1 1_555 1_555
C3 C2 1_555 1_555
C4 C3 1_555 1_555
H2 C4 1_555 1_555
C5 C4 1_555 1_555
C6 C1 1_555 1_555
C7 H3 1_555 1_555
H4 C7 1_555 1_555
C8 C7 1_555 1_555
H5 C8 1_555 1_555
H6 C8 1_555 1_555
C9 C8 1_555 1_555
C10 C9 1_555 1_555
H7 C10 1_555 1_555
C11 C10 1_555 1_555
C12 C11 1_555 1_555
C13 C12 1_555 1_555
H8 C13 1_555 1_555
C14 C9 1_555 1_555
H9 C14 1_555 1_555
C15 H10 1_555 1_555
H11 C15 1_555 1_555
H12 C15 1_555 1_555
C16 H13 1_555 1_555
H14 C16 1_555 1_555
H15 C16 1_555 1_555
C17 H16 1_555 1_555
H17 C17 1_555 1_555
C18 C17 1_555 1_555
H18 C18 1_555 1_555
H19 C18 1_555 1_555
C19 C18 1_555 1_555
C20 C19 1_555 1_555
H20 C20 1_555 1_555
C21 C20 1_555 1_555
C22 C21 1_555 1_555
C23 C22 1_555 1_555
H21 C23 1_555 1_555
C24 C19 1_555 1_555
H22 C24 1_555 1_555
C25 H23 1_555 1_555
H24 C25 1_555 1_555
H25 C25 1_555 1_555
C26 H26 1_555 1_555
H27 C26 1_555 1_555
H28 C26 1_555 1_555
N1 C2 1_555 1_555
H29 N1 1_555 1_555
N2 C6 1_555 1_555
H30 N2 1_555 1_555
O1 C3 1_555 1_555
O2 C5 1_555 1_555
O3 C11 1_555 1_555
O4 C12 1_555 1_555
O5 C21 1_555 1_555
O6 C22 1_555 1_555
C5 C6 1_555 1_555
C7 N1 1_555 1_555
C13 C14 1_555 1_555
C15 O3 1_555 1_555
C16 O4 1_555 1_555
C17 N2 1_555 1_555
C23 C24 1_555 1_555
C25 O5 1_555 1_555
C26 O6 1_555 1_555

#END
