
#######################################################################
#
#                 Cambridge Crystallographic Data Centre
#                                CCDC 
#
#######################################################################
#
# If this CIF has been generated from an entry in the Cambridge 
# Structural Database, then it will include bibliographic, chemical, 
# crystal, experimental, refinement or atomic coordinate data resulting 
# from the CCDC's data processing and validation procedures.
#
#######################################################################

data_WAWZAY
_chemical_formula_moiety         'C20 H20 N4 O2'
_chemical_name_systematic        
4-{[(4-aminophenyl)methyl]amino}-6-{[(4-aminophenyl)methyl]iminio}-3-oxocyclohexa-1,4-dien-1-olate
_symmetry_cell_setting           triclinic
_symmetry_space_group_name_H-M   'P -1'
_symmetry_Int_Tables_number      2
_space_group_name_Hall           '-P 1'
loop_
_symmetry_equiv_pos_site_id
_symmetry_equiv_pos_as_xyz
1 x,y,z
2 -x,-y,-z
_cell_length_a                   9.4739(8)
_cell_length_b                   10.4564(10)
_cell_length_c                   10.8136(16)
_cell_angle_alpha                109.389(3)
_cell_angle_beta                 110.956(2)
_cell_angle_gamma                104.273(2)
_cell_volume                     858.684
_exptl_crystal_colour            red
_exptl_crystal_description       block
_cell_formula_units_Z            2
loop_
_atom_site_label
_atom_site_type_symbol
_atom_site_fract_x
_atom_site_fract_y
_atom_site_fract_z
C1 C 1.01687(18) 0.96947(18) 0.83316(18)
H1 H 0.9296 0.8724 0.7698
C2 C 0.98081(17) 1.09261(18) 0.87268(17)
C3 C 1.11798(19) 1.25011(19) 0.97431(18)
C4 C 1.28206(19) 1.26344(19) 1.02805(19)
H2 H 1.3695 1.3596 1.0968
C5 C 1.32329(18) 1.14338(19) 0.98594(18)
C6 C 1.18170(18) 0.98877(18) 0.88684(17)
C7 C 0.67882(17) 0.94896(18) 0.74744(18)
H3 H 0.5958 0.9690 0.7769
H4 H 0.7051 0.8747 0.7779
C8 C 0.60039(17) 0.88073(17) 0.57916(17)
C9 C 0.66628(18) 0.93483(18) 0.50196(18)
H5 H 0.7716 1.0170 0.5561
C10 C 0.58157(19) 0.87142(19) 0.34724(19)
H6 H 0.6299 0.9100 0.2968
C11 C 0.42583(18) 0.75133(18) 0.26495(18)
C12 C 0.36170(19) 0.69309(19) 0.34146(19)
H7 H 0.2578 0.6092 0.2875
C13 C 0.44828(18) 0.75656(19) 0.49535(19)
H8 H 0.4031 0.7146 0.5455
C14 C 1.1187(2) 0.72019(19) 0.7722(2)
H9 H 1.0531 0.6939 0.8207
H10 H 1.1864 0.6616 0.7715
C15 C 1.00182(19) 0.67839(18) 0.61356(19)
C16 C 1.0595(2) 0.7141(2) 0.5227(2)
H11 H 1.1757 0.7637 0.5610
C17 C 0.9528(2) 0.6794(2) 0.3787(2)
H12 H 0.9961 0.7040 0.3187
C18 C 0.7815(2) 0.60822(18) 0.32040(19)
C19 C 0.7222(2) 0.5704(2) 0.4093(2)
H13 H 0.6061 0.5203 0.3709
C20 C 0.83095(19) 0.60511(19) 0.5533(2)
H14 H 0.7880 0.5783 0.6125
N1 N 0.82916(15) 1.08621(16) 0.83049(15)
N2 N 0.3295(2) 0.6956(2) 0.11037(18)
N3 N 1.22990(16) 0.87960(16) 0.86037(16)
N4 N 0.6724(2) 0.57119(19) 0.17335(18)
O1 O 1.07439(14) 1.35461(13) 1.00044(15)
O2 O 1.46787(13) 1.15111(14) 1.02296(14)
H15 H 0.822(2) 1.171(2) 0.865(2)
H16 H 1.344(2) 0.906(2) 0.907(2)
H17 H 0.388(2) 0.714(2) 0.068(2)
H18 H 0.256(3) 0.606(2) 0.068(2)
H19 H 0.716(3) 0.626(3) 0.135(3)
H20 H 0.569(3) 0.569(3) 0.158(3)
loop_
_geom_bond_atom_site_label_1
_geom_bond_atom_site_label_2
_geom_bond_site_symmetry_1
_geom_bond_site_symmetry_2
C1 H1 1_555 1_555
C2 C1 1_555 1_555
C3 C2 1_555 1_555
C4 C3 1_555 1_555
H2 C4 1_555 1_555
C5 C4 1_555 1_555
C6 C1 1_555 1_555
C7 H3 1_555 1_555
H4 C7 1_555 1_555
C8 C7 1_555 1_555
C9 C8 1_555 1_555
H5 C9 1_555 1_555
C10 C9 1_555 1_555
H6 C10 1_555 1_555
C11 C10 1_555 1_555
C12 C11 1_555 1_555
H7 C12 1_555 1_555
C13 C8 1_555 1_555
H8 C13 1_555 1_555
C14 H9 1_555 1_555
H10 C14 1_555 1_555
C15 C14 1_555 1_555
C16 C15 1_555 1_555
H11 C16 1_555 1_555
C17 C16 1_555 1_555
H12 C17 1_555 1_555
C18 C17 1_555 1_555
C19 C18 1_555 1_555
H13 C19 1_555 1_555
C20 C15 1_555 1_555
H14 C20 1_555 1_555
N1 C2 1_555 1_555
N2 C11 1_555 1_555
N3 C6 1_555 1_555
N4 C18 1_555 1_555
O1 C3 1_555 1_555
O2 C5 1_555 1_555
H15 N1 1_555 1_555
H16 N3 1_555 1_555
H17 N2 1_555 1_555
H18 N2 1_555 1_555
H19 N4 1_555 1_555
H20 N4 1_555 1_555
C5 C6 1_555 1_555
C7 N1 1_555 1_555
C12 C13 1_555 1_555
C14 N3 1_555 1_555
C19 C20 1_555 1_555

#END
