
#######################################################################
#
#                 Cambridge Crystallographic Data Centre
#                                CCDC 
#
#######################################################################
#
# If this CIF has been generated from an entry in the Cambridge 
# Structural Database, then it will include bibliographic, chemical, 
# crystal, experimental, refinement or atomic coordinate data resulting 
# from the CCDC's data processing and validation procedures.
#
#######################################################################

data_WAXHIP
_chemical_formula_moiety         'C21 H21 Br2 N1 O2'
_chemical_name_systematic        
't-butyl (6,7-dibromo-2-phenyl-1,2-dihydronaphthalen-1-yl)carbamate'
_symmetry_cell_setting           monoclinic
_symmetry_space_group_name_H-M   'P 21'
_symmetry_Int_Tables_number      4
_space_group_name_Hall           'P 2yb'
loop_
_symmetry_equiv_pos_site_id
_symmetry_equiv_pos_as_xyz
1 x,y,z
2 -x,1/2+y,-z
_cell_length_a                   9.684(3)
_cell_length_b                   10.919(3)
_cell_length_c                   10.120(3)
_cell_angle_alpha                90
_cell_angle_beta                 113.639(4)
_cell_angle_gamma                90
_cell_volume                     980.294
_exptl_crystal_colour            colorless
_exptl_crystal_description       block
_cell_formula_units_Z            2
loop_
_atom_site_label
_atom_site_type_symbol
_atom_site_fract_x
_atom_site_fract_y
_atom_site_fract_z
Br1 Br 0.68408(9) 1.09425(8) 1.06283(10)
Br2 Br 0.43749(8) 0.89183(7) 0.83597(8)
O1 O 0.5811(5) 0.3748(5) 0.7764(6)
O2 O 0.7107(6) 0.5188(6) 0.7061(6)
N1 N 0.7701(7) 0.4726(6) 0.9437(7)
H1 H 0.7524 0.4228 1.0036
C1 C 0.3719(10) 0.2485(9) 0.6649(10)
H2 H 0.4416 0.1814 0.7115
H3 H 0.2928 0.2191 0.5748
H4 H 0.3261 0.2780 0.7295
C2 C 0.4577(8) 0.3527(8) 0.6320(8)
C3 C 0.6863(8) 0.4605(7) 0.7983(8)
C4 C 0.8877(8) 0.5654(7) 1.0023(9)
H5 H 0.9284 0.5796 0.9271
C5 C 0.8280(8) 0.6891(8) 1.0277(8)
C6 C 0.6821(8) 0.7260(7) 0.9473(9)
H6 H 0.6120 0.6695 0.8842
C7 C 0.6356(8) 0.8472(7) 0.9576(8)
C8 C 0.7384(9) 0.9289(7) 1.0529(10)
C9 C 0.3623(10) 0.4679(9) 0.5883(10)
H7 H 0.3303 0.4912 0.6653
H8 H 0.2733 0.4525 0.4993
H9 H 0.4217 0.5345 0.5723
C10 C 0.5217(10) 0.3142(10) 0.5229(10)
H10 H 0.5864 0.3796 0.5132
H11 H 0.4388 0.2992 0.4292
H12 H 0.5812 0.2392 0.5563
C11 C 1.0206(8) 0.5146(8) 1.1365(8)
H13 H 1.0759 0.4552 1.1003
C12 C 1.1300(8) 0.6170(8) 1.2109(9)
H14 H 1.2332 0.5972 1.2638
C13 C 1.0871(8) 0.7334(8) 1.2048(9)
H15 H 1.1603 0.7933 1.2556
C14 C 0.9310(8) 0.7726(8) 1.1228(9)
C15 C 0.8842(8) 0.8902(8) 1.1374(8)
H16 H 0.9524 0.9447 1.2057
C16 C 0.9776(8) 0.4462(7) 1.2454(8)
C17 C 0.9187(8) 0.5062(8) 1.3336(8)
H17 H 0.9017 0.5921 1.3244
C18 C 0.8848(10) 0.4399(9) 1.4355(9)
H18 H 0.8461 0.4811 1.4960
C19 C 0.9077(10) 0.3142(9) 1.4484(10)
H19 H 0.8823 0.2693 1.5159
C20 C 0.9679(10) 0.2539(9) 1.3622(10)
H20 H 0.9859 0.1682 1.3724
C21 C 1.0013(10) 0.3195(8) 1.2618(10)
H21 H 1.0413 0.2777 1.2026
loop_
_geom_bond_atom_site_label_1
_geom_bond_atom_site_label_2
_geom_bond_site_symmetry_1
_geom_bond_site_symmetry_2
Br1 C8 1_555 1_555
Br2 C7 1_555 1_555
O1 C2 1_555 1_555
O2 C3 1_555 1_555
N1 H1 1_555 1_555
C1 H2 1_555 1_555
H3 C1 1_555 1_555
H4 C1 1_555 1_555
C2 C1 1_555 1_555
C3 O1 1_555 1_555
C4 N1 1_555 1_555
H5 C4 1_555 1_555
C5 C4 1_555 1_555
C6 C5 1_555 1_555
H6 C6 1_555 1_555
C7 C6 1_555 1_555
C8 C7 1_555 1_555
C9 C2 1_555 1_555
H7 C9 1_555 1_555
H8 C9 1_555 1_555
H9 C9 1_555 1_555
C10 C2 1_555 1_555
H10 C10 1_555 1_555
H11 C10 1_555 1_555
H12 C10 1_555 1_555
C11 C4 1_555 1_555
H13 C11 1_555 1_555
C12 C11 1_555 1_555
H14 C12 1_555 1_555
C13 C12 1_555 1_555
H15 C13 1_555 1_555
C14 C5 1_555 1_555
C15 C8 1_555 1_555
H16 C15 1_555 1_555
C16 C11 1_555 1_555
C17 C16 1_555 1_555
H17 C17 1_555 1_555
C18 C17 1_555 1_555
H18 C18 1_555 1_555
C19 C18 1_555 1_555
H19 C19 1_555 1_555
C20 C19 1_555 1_555
H20 C20 1_555 1_555
C21 C16 1_555 1_555
H21 C21 1_555 1_555
N1 C3 1_555 1_555
C13 C14 1_555 1_555
C14 C15 1_555 1_555
C20 C21 1_555 1_555

#END
