
#######################################################################
#
#                 Cambridge Crystallographic Data Centre
#                                CCDC 
#
#######################################################################
#
# If this CIF has been generated from an entry in the Cambridge 
# Structural Database, then it will include bibliographic, chemical, 
# crystal, experimental, refinement or atomic coordinate data resulting 
# from the CCDC's data processing and validation procedures.
#
#######################################################################

data_WAXLIS
_chemical_formula_moiety         'C19 H20 Br1 N1 O2'
_chemical_name_systematic        
(Z)-3-(4-Bromophenyl)-N-(4-isopropylphenyl)-2-methoxyacrylamide
_chemical_properties_biological  'tested for immunosuppresive activity'
_symmetry_cell_setting           triclinic
_symmetry_space_group_name_H-M   'P -1'
_symmetry_Int_Tables_number      2
_space_group_name_Hall           '-P 1'
loop_
_symmetry_equiv_pos_site_id
_symmetry_equiv_pos_as_xyz
1 x,y,z
2 -x,-y,-z
_cell_length_a                   5.5840(11)
_cell_length_b                   9.3800(19)
_cell_length_c                   17.889(4)
_cell_angle_alpha                103.23(3)
_cell_angle_beta                 95.01(3)
_cell_angle_gamma                99.62(3)
_cell_volume                     891.563
_exptl_crystal_colour            colorless
_exptl_crystal_description       block
_cell_formula_units_Z            2
loop_
_atom_site_label
_atom_site_type_symbol
_atom_site_fract_x
_atom_site_fract_y
_atom_site_fract_z
Br1 Br 0.5894(2) 0.59879(13) 1.42687(5)
C1 C 0.5480(17) 0.6178(10) 1.3233(5)
C2 C 0.6982(15) 0.5667(10) 1.2730(5)
H1 H 0.8209 0.5196 1.2883
C3 C 0.6697(14) 0.5844(9) 1.1990(5)
H2 H 0.7765 0.5508 1.1649
C4 C 0.4825(13) 0.6523(8) 1.1733(4)
C5 C 0.3286(15) 0.7051(9) 1.2280(5)
H3 H 0.2029 0.7510 1.2135
C6 C 0.3642(16) 0.6888(10) 1.3026(5)
H4 H 0.2652 0.7253 1.3387
C7 C 0.4682(14) 0.6731(9) 1.0945(4)
H5 H 0.6021 0.6532 1.0693
C8 C 0.2990(13) 0.7150(9) 1.0531(4)
C9 C 0.0578(18) 0.8953(10) 1.0988(5)
H6 H -0.1003 0.9028 1.1148
H7 H 0.0766 0.9376 1.0551
H8 H 0.1831 0.9486 1.1407
C10 C 0.3383(14) 0.7337(8) 0.9737(4)
C11 C 0.1178(14) 0.7611(8) 0.8538(4)
C12 C 0.3124(16) 0.8383(10) 0.8258(5)
H9 H 0.4640 0.8723 0.8562
C13 C 0.2802(15) 0.8641(10) 0.7532(5)
H10 H 0.4122 0.9159 0.7358
C14 C 0.0573(15) 0.8156(9) 0.7044(5)
C15 C -0.1350(15) 0.7395(9) 0.7340(5)
H11 H -0.2865 0.7057 0.7035
C16 C -0.1092(14) 0.7129(8) 0.8064(4)
H12 H -0.2423 0.6629 0.8240
C17 C 0.0215(17) 0.8455(11) 0.6247(5)
H13 H -0.1309 0.7787 0.5978
C18 C 0.215(3) 0.808(2) 0.5764(7)
H14 H 0.1804 0.8289 0.5270
H15 H 0.2189 0.7034 0.5690
H16 H 0.3707 0.8659 0.6018
C19 C -0.022(3) 1.0021(14) 0.6310(7)
H17 H -0.0459 1.0188 0.5801
H18 H 0.1173 1.0724 0.6610
H19 H -0.1652 1.0146 0.6559
N1 N 0.1317(11) 0.7378(8) 0.9282(3)
H20 H -0.0040 0.7246 0.9474
O1 O 0.0787(9) 0.7425(6) 1.0777(3)
O2 O 0.5425(11) 0.7408(8) 0.9515(3)
loop_
_geom_bond_atom_site_label_1
_geom_bond_atom_site_label_2
_geom_bond_site_symmetry_1
_geom_bond_site_symmetry_2
Br1 C1 1_555 1_555
C1 C2 1_555 1_555
C2 H1 1_555 1_555
C3 C2 1_555 1_555
H2 C3 1_555 1_555
C4 C3 1_555 1_555
C5 C4 1_555 1_555
H3 C5 1_555 1_555
C6 C1 1_555 1_555
H4 C6 1_555 1_555
C7 C4 1_555 1_555
H5 C7 1_555 1_555
C8 C7 1_555 1_555
C9 H6 1_555 1_555
H7 C9 1_555 1_555
H8 C9 1_555 1_555
C10 C8 1_555 1_555
C11 C12 1_555 1_555
C12 H9 1_555 1_555
C13 C12 1_555 1_555
H10 C13 1_555 1_555
C14 C13 1_555 1_555
C15 C14 1_555 1_555
H11 C15 1_555 1_555
C16 C11 1_555 1_555
H12 C16 1_555 1_555
C17 C14 1_555 1_555
H13 C17 1_555 1_555
C18 C17 1_555 1_555
H14 C18 1_555 1_555
H15 C18 1_555 1_555
H16 C18 1_555 1_555
C19 C17 1_555 1_555
H17 C19 1_555 1_555
H18 C19 1_555 1_555
H19 C19 1_555 1_555
N1 C10 1_555 1_555
H20 N1 1_555 1_555
O1 C8 1_555 1_555
O2 C10 1_555 1_555
C5 C6 1_555 1_555
C9 O1 1_555 1_555
C11 N1 1_555 1_555
C15 C16 1_555 1_555

#END
