
#######################################################################
#
#                 Cambridge Crystallographic Data Centre
#                                CCDC 
#
#######################################################################
#
# If this CIF has been generated from an entry in the Cambridge 
# Structural Database, then it will include bibliographic, chemical, 
# crystal, experimental, refinement or atomic coordinate data resulting 
# from the CCDC's data processing and validation procedures.
#
#######################################################################

data_WAXLUE
_chemical_formula_moiety         'C23 H21 N1 O3'
_chemical_name_systematic        
'Methyl 1-isobutoxynaphtho[2,3-f]quinoline-3-carboxylate'
_symmetry_cell_setting           monoclinic
_symmetry_space_group_name_H-M   'P 21/c'
_symmetry_Int_Tables_number      14
_space_group_name_Hall           '-P 2ybc'
loop_
_symmetry_equiv_pos_site_id
_symmetry_equiv_pos_as_xyz
1 x,y,z
2 -x,1/2+y,1/2-z
3 -x,-y,-z
4 x,1/2-y,1/2+z
_cell_length_a                   14.132(3)
_cell_length_b                   7.9776(16)
_cell_length_c                   16.829(3)
_cell_angle_alpha                90
_cell_angle_beta                 102.71(3)
_cell_angle_gamma                90
_cell_volume                     1850.8
_exptl_crystal_colour            yellow
_exptl_crystal_description       platelet
_cell_formula_units_Z            4
loop_
_atom_site_label
_atom_site_type_symbol
_atom_site_fract_x
_atom_site_fract_y
_atom_site_fract_z
O1 O 0.68238(9) 0.38365(18) -0.00318(7)
O2 O 0.29177(10) 0.0937(2) -0.02525(8)
O3 O 0.37323(11) 0.0840(2) -0.12532(8)
N1 N 0.43530(11) 0.2487(2) 0.07596(9)
C1 C 0.59582(13) 0.3759(2) 0.10407(10)
C2 C 0.50886(13) 0.3289(2) 0.12614(10)
C3 C 0.49290(14) 0.3690(2) 0.20668(11)
H1 H 0.4348 0.3379 0.2198
C4 C 0.55942(14) 0.4489(3) 0.26186(11)
H2 H 0.5461 0.4767 0.3120
C5 C 0.88584(17) 0.6653(3) 0.35813(14)
H3 H 0.8747 0.6802 0.4101
C6 C 0.97217(17) 0.7048(4) 0.34254(16)
H4 H 1.0210 0.7460 0.3843
C7 C 0.99029(18) 0.6849(4) 0.26327(18)
H5 H 1.0501 0.7165 0.2537
C8 C 0.92268(16) 0.6212(3) 0.20202(15)
H6 H 0.9362 0.6075 0.1508
C9 C 0.76002(14) 0.5050(3) 0.15341(12)
H7 H 0.7737 0.4892 0.1023
C10 C 0.72036(15) 0.5631(3) 0.30682(11)
H8 H 0.7057 0.5858 0.3570
C11 C 0.65041(14) 0.4922(2) 0.24515(10)
C12 C 0.67045(13) 0.4586(2) 0.16562(10)
C13 C 0.81146(14) 0.6004(3) 0.29462(12)
C14 C 0.83071(14) 0.5747(3) 0.21535(12)
C15 C 0.44655(13) 0.2134(2) 0.00072(11)
C16 C 0.52746(13) 0.2544(3) -0.02848(10)
H9 H 0.5312 0.2268 -0.0814
C17 C 0.60225(13) 0.3367(2) 0.02218(10)
C18 C 0.68789(13) 0.3517(3) -0.08728(10)
H10 H 0.6288 0.3896 -0.1239
H11 H 0.6947 0.2323 -0.0956
C19 C 0.77292(14) 0.4428(3) -0.10497(11)
H12 H 0.7663 0.5618 -0.0927
C20 C 0.86684(15) 0.3802(4) -0.05332(14)
H13 H 0.8657 0.3926 0.0032
H14 H 0.9197 0.4440 -0.0650
H15 H 0.8751 0.2641 -0.0651
C21 C 0.77329(16) 0.4265(3) -0.19629(12)
H16 H 0.7134 0.4692 -0.2283
H17 H 0.7801 0.3106 -0.2094
H18 H 0.8266 0.4894 -0.2079
C22 C 0.36803(14) 0.1234(3) -0.05698(12)
C23 C 0.21337(15) 0.0104(4) -0.07958(14)
H19 H 0.1610 -0.0070 -0.0526
H20 H 0.2354 -0.0959 -0.0954
H21 H 0.1913 0.0783 -0.1271
loop_
_geom_bond_atom_site_label_1
_geom_bond_atom_site_label_2
_geom_bond_site_symmetry_1
_geom_bond_site_symmetry_2
O1 C17 1_555 1_555
O2 C22 1_555 1_555
O3 C22 1_555 1_555
N1 C2 1_555 1_555
C1 C2 1_555 1_555
C2 C3 1_555 1_555
C3 H1 1_555 1_555
C4 C3 1_555 1_555
H2 C4 1_555 1_555
C5 H3 1_555 1_555
C6 C5 1_555 1_555
H4 C6 1_555 1_555
C7 C6 1_555 1_555
H5 C7 1_555 1_555
C8 C7 1_555 1_555
H6 C8 1_555 1_555
C9 H7 1_555 1_555
C10 H8 1_555 1_555
C11 C4 1_555 1_555
C12 C1 1_555 1_555
C13 C5 1_555 1_555
C14 C8 1_555 1_555
C15 N1 1_555 1_555
C16 C15 1_555 1_555
H9 C16 1_555 1_555
C17 C1 1_555 1_555
C18 O1 1_555 1_555
H10 C18 1_555 1_555
H11 C18 1_555 1_555
C19 C18 1_555 1_555
H12 C19 1_555 1_555
C20 C19 1_555 1_555
H13 C20 1_555 1_555
H14 C20 1_555 1_555
H15 C20 1_555 1_555
C21 C19 1_555 1_555
H16 C21 1_555 1_555
H17 C21 1_555 1_555
H18 C21 1_555 1_555
C22 C15 1_555 1_555
C23 O2 1_555 1_555
H19 C23 1_555 1_555
H20 C23 1_555 1_555
H21 C23 1_555 1_555
C9 C12 1_555 1_555
C9 C14 1_555 1_555
C10 C11 1_555 1_555
C10 C13 1_555 1_555
C11 C12 1_555 1_555
C13 C14 1_555 1_555
C16 C17 1_555 1_555

#END
