
#######################################################################
#
#                 Cambridge Crystallographic Data Centre
#                                CCDC 
#
#######################################################################
#
# If this CIF has been generated from an entry in the Cambridge 
# Structural Database, then it will include bibliographic, chemical, 
# crystal, experimental, refinement or atomic coordinate data resulting 
# from the CCDC's data processing and validation procedures.
#
#######################################################################

data_WAXNAM
_chemical_name_common            
6-phenyl-7,8,9,14-tetrahydroquinolino[2',3':7,6]cyclohept[1,2-b]indole
_chemical_formula_moiety         'C26 H20 N2'
_chemical_name_systematic        
8-Phenyl-5,6,7,14-tetrahydroindolo[3',2':6,7]cyclohepta[1,2-b]quinoline
_symmetry_cell_setting           triclinic
_symmetry_space_group_name_H-M   'P -1'
_symmetry_Int_Tables_number      2
_space_group_name_Hall           '-P 1'
loop_
_symmetry_equiv_pos_site_id
_symmetry_equiv_pos_as_xyz
1 x,y,z
2 -x,-y,-z
_cell_length_a                   9.8278(19)
_cell_length_b                   9.9678(19)
_cell_length_c                   10.3031(19)
_cell_angle_alpha                94.011(3)
_cell_angle_beta                 115.404(3)
_cell_angle_gamma                94.364(3)
_cell_volume                     903.153
_exptl_crystal_colour            colorless
_exptl_crystal_description       block
_cell_formula_units_Z            2
loop_
_atom_site_label
_atom_site_type_symbol
_atom_site_fract_x
_atom_site_fract_y
_atom_site_fract_z
C1 C 0.22404(14) 1.21426(13) 0.71626(13)
C2 C 0.19433(15) 1.24261(15) 0.83569(14)
H1 H 0.1416 1.1766 0.8650
C3 C 0.24509(17) 1.37080(16) 0.90891(16)
H2 H 0.2272 1.3936 0.9909
C4 C 0.32253(18) 1.46868(15) 0.86569(16)
H3 H 0.3542 1.5566 0.9178
C5 C 0.35354(17) 1.43956(14) 0.74894(16)
H4 H 0.4069 1.5062 0.7210
C6 C 0.30467(14) 1.30930(13) 0.67199(14)
C7 C 0.32202(14) 1.24328(13) 0.55232(13)
C8 C 0.41403(15) 1.30648(13) 0.48304(14)
H5 H 0.5128 1.3486 0.5603
H6 H 0.3607 1.3797 0.4292
C9 C 0.44351(14) 1.20942(13) 0.38047(15)
H7 H 0.5099 1.1439 0.4365
H8 H 0.4980 1.2611 0.3349
C10 C 0.29682(14) 1.13103(13) 0.26096(14)
H9 H 0.2131 1.1880 0.2397
H10 H 0.3107 1.1146 0.1718
C11 C 0.25176(13) 0.99726(12) 0.29976(12)
C12 C 0.22821(13) 0.99205(12) 0.42711(12)
C13 C 0.24906(13) 1.11279(12) 0.52661(13)
C14 C 0.23102(13) 0.87643(12) 0.21546(12)
C15 C 0.18679(13) 0.75259(12) 0.25664(12)
C16 C 0.16347(14) 0.62419(13) 0.17657(13)
H11 H 0.1791 0.6177 0.0916
C17 C 0.11864(15) 0.50964(13) 0.22105(14)
H12 H 0.1018 0.4245 0.1657
C18 C 0.09720(15) 0.51677(13) 0.34811(14)
H13 H 0.0672 0.4365 0.3784
C19 C 0.11948(14) 0.63882(13) 0.42774(13)
H14 H 0.1054 0.6429 0.5135
C20 C 0.16343(13) 0.75937(12) 0.38337(12)
C21 C 0.25093(13) 0.86879(12) 0.07963(13)
C22 C 0.39315(14) 0.85956(13) 0.08401(14)
H15 H 0.4798 0.8646 0.1745
C23 C 0.40910(16) 0.84300(14) -0.04364(14)
H16 H 0.5066 0.8373 -0.0402
C24 C 0.28292(16) 0.83478(13) -0.17600(14)
H17 H 0.2938 0.8226 -0.2632
C25 C 0.14101(15) 0.84439(14) -0.18103(14)
H18 H 0.0546 0.8392 -0.2717
C26 C 0.12491(14) 0.86162(14) -0.05368(14)
H19 H 0.0274 0.8686 -0.0575
N1 N 0.19003(12) 1.09726(11) 0.62559(11)
H20 H 0.1382 1.0229 0.6295
N2 N 0.18331(11) 0.87853(10) 0.46561(11)
loop_
_geom_bond_atom_site_label_1
_geom_bond_atom_site_label_2
_geom_bond_site_symmetry_1
_geom_bond_site_symmetry_2
C1 C2 1_555 1_555
C2 H1 1_555 1_555
C3 C2 1_555 1_555
H2 C3 1_555 1_555
C4 C3 1_555 1_555
H3 C4 1_555 1_555
C5 C4 1_555 1_555
H4 C5 1_555 1_555
C6 C1 1_555 1_555
C7 C6 1_555 1_555
C8 C7 1_555 1_555
H5 C8 1_555 1_555
H6 C8 1_555 1_555
C9 C8 1_555 1_555
H7 C9 1_555 1_555
H8 C9 1_555 1_555
C10 C9 1_555 1_555
H9 C10 1_555 1_555
H10 C10 1_555 1_555
C11 C10 1_555 1_555
C12 C11 1_555 1_555
C13 C7 1_555 1_555
C14 C11 1_555 1_555
C15 C14 1_555 1_555
C16 C15 1_555 1_555
H11 C16 1_555 1_555
C17 C16 1_555 1_555
H12 C17 1_555 1_555
C18 C17 1_555 1_555
H13 C18 1_555 1_555
C19 C18 1_555 1_555
H14 C19 1_555 1_555
C20 C15 1_555 1_555
C21 C14 1_555 1_555
C22 C21 1_555 1_555
H15 C22 1_555 1_555
C23 C22 1_555 1_555
H16 C23 1_555 1_555
C24 C23 1_555 1_555
H17 C24 1_555 1_555
C25 C24 1_555 1_555
H18 C25 1_555 1_555
C26 C21 1_555 1_555
H19 C26 1_555 1_555
N1 C1 1_555 1_555
H20 N1 1_555 1_555
N2 C12 1_555 1_555
C5 C6 1_555 1_555
C12 C13 1_555 1_555
C13 N1 1_555 1_555
C19 C20 1_555 1_555
C20 N2 1_555 1_555
C25 C26 1_555 1_555

#END
