
#######################################################################
#
#                 Cambridge Crystallographic Data Centre
#                                CCDC 
#
#######################################################################
#
# If this CIF has been generated from an entry in the Cambridge 
# Structural Database, then it will include bibliographic, chemical, 
# crystal, experimental, refinement or atomic coordinate data resulting 
# from the CCDC's data processing and validation procedures.
#
#######################################################################

data_WAXNEQ
_chemical_name_common            
11-Chloro-6-phenyl-7,8,9,14-tetrahydroquinolino[2',3':7,6]cyclohept[1,2-b]indole
_chemical_formula_moiety         'C26 H19 Cl1 N2'
_chemical_name_systematic        
3-Chloro-8-phenyl-5,6,7,14-tetrahydroindolo[3',2':6,7]cyclohepta[1,2-b]quinoline
_symmetry_cell_setting           triclinic
_symmetry_space_group_name_H-M   'P -1'
_symmetry_Int_Tables_number      2
_space_group_name_Hall           '-P 1'
loop_
_symmetry_equiv_pos_site_id
_symmetry_equiv_pos_as_xyz
1 x,y,z
2 -x,-y,-z
_cell_length_a                   9.7228(17)
_cell_length_b                   12.426(2)
_cell_length_c                   15.940(3)
_cell_angle_alpha                94.975(2)
_cell_angle_beta                 95.935(2)
_cell_angle_gamma                95.461(2)
_cell_volume                     1897.69
_exptl_crystal_colour            colorless
_exptl_crystal_description       block
_cell_formula_units_Z            4
loop_
_atom_site_label
_atom_site_type_symbol
_atom_site_fract_x
_atom_site_fract_y
_atom_site_fract_z
C1 C -0.01649(13) 0.30036(10) -0.03993(8)
C2 C -0.05400(13) 0.32553(11) -0.12283(8)
H1 H -0.1284 0.2825 -0.1572
C3 C 0.01579(13) 0.41202(11) -0.15517(8)
H2 H -0.0094 0.4298 -0.2111
C4 C 0.12489(12) 0.47226(10) -0.10219(7)
C5 C 0.16315(12) 0.44681(10) -0.01889(7)
C6 C 0.09038(13) 0.35910(10) 0.01269(8)
H3 H 0.1142 0.3409 0.0686
C7 C 0.30461(12) 0.59202(10) -0.04383(7)
C8 C 0.40969(12) 0.68305(10) -0.04911(7)
C9 C 0.49013(12) 0.73961(10) 0.02457(7)
C10 C 0.45535(13) 0.71441(10) 0.11100(7)
H4 H 0.3569 0.7258 0.1157
H5 H 0.5136 0.7659 0.1543
C11 C 0.47791(13) 0.59783(11) 0.12985(8)
H6 H 0.5542 0.5734 0.0987
H7 H 0.5070 0.5973 0.1912
C12 C 0.34823(13) 0.51831(10) 0.10487(7)
H8 H 0.3739 0.4438 0.1099
H9 H 0.2806 0.5323 0.1459
C13 C 0.27808(12) 0.52296(10) 0.01748(7)
C14 C 0.51925(13) 0.79063(10) -0.13885(8)
C15 C 0.61268(13) 0.84526(10) -0.07085(8)
C16 C 0.59467(12) 0.81878(10) 0.01300(8)
C17 C 0.68465(12) 0.87926(10) 0.08696(8)
C18 C 0.67658(14) 0.98955(11) 0.10734(9)
H10 H 0.6147 1.0270 0.0733
C19 C 0.75844(15) 1.04516(12) 0.17708(10)
H11 H 0.7517 1.1203 0.1908
C20 C 0.84981(15) 0.99169(12) 0.22675(9)
H12 H 0.9057 1.0299 0.2745
C21 C 0.85949(14) 0.88206(12) 0.20651(9)
H13 H 0.9228 0.8452 0.2401
C22 C 0.77657(13) 0.82602(11) 0.13712(8)
H14 H 0.7828 0.7507 0.1239
C23 C 0.52570(14) 0.82122(10) -0.22214(8)
H15 H 0.4635 0.7846 -0.2678
C24 C 0.62168(15) 0.90366(11) -0.23673(8)
H16 H 0.6231 0.9260 -0.2922
C25 C 0.71809(15) 0.95550(11) -0.17021(9)
H17 H 0.7858 1.0111 -0.1814
C26 C 0.71497(14) 0.92627(11) -0.08918(9)
H18 H 0.7820 0.9607 -0.0450
Cl1 Cl -0.10765(4) 0.18904(3) -0.00408(2)
N3 N 0.42099(11) 0.70892(8) -0.12743(6)
N4 N 0.21208(11) 0.56021(9) -0.11578(7)
H38 H 0.2131(16) 0.5930(13) -0.1605(10)
C27 C 0.79527(13) 1.05466(10) 0.47776(8)
C28 C 0.67743(13) 0.99899(10) 0.43330(8)
H19 H 0.6348 1.0240 0.3833
C29 C 0.62249(13) 0.90384(10) 0.46462(8)
C30 C 0.68686(12) 0.87010(10) 0.53993(8)
C31 C 0.80813(13) 0.92642(10) 0.58341(8)
H20 H 0.8521 0.9018 0.6332
C32 C 0.86181(13) 1.01945(11) 0.55132(8)
H21 H 0.9442 1.0598 0.5792
C33 C 0.49984(12) 0.75089(10) 0.49325(7)
C34 C 0.40772(12) 0.65216(10) 0.50023(7)
C35 C 0.32491(12) 0.59409(10) 0.42752(7)
C36 C 0.32292(14) 0.63813(10) 0.34245(8)
H22 H 0.2565 0.5901 0.3010
H23 H 0.4164 0.6369 0.3231
C37 C 0.28158(14) 0.75478(10) 0.34381(8)
H24 H 0.2277 0.7635 0.2891
H25 H 0.2208 0.7669 0.3891
C38 C 0.40695(14) 0.83944(11) 0.35878(8)
H26 H 0.4585 0.8352 0.3084
H27 H 0.3741 0.9124 0.3647
C39 C 0.50427(13) 0.82736(10) 0.43518(8)
C40 C 0.33443(12) 0.52668(10) 0.58919(7)
C41 C 0.25089(12) 0.46161(10) 0.52149(7)
C42 C 0.24855(12) 0.49814(10) 0.43888(7)
C43 C 0.16672(12) 0.42855(10) 0.36638(7)
C44 C 0.02201(13) 0.41065(10) 0.36078(8)
H28 H -0.0262 0.4460 0.4022
C45 C -0.05197(13) 0.34120(11) 0.29478(8)
H29 H -0.1504 0.3292 0.2914
C46 C 0.01747(14) 0.28942(10) 0.23397(8)
H30 H -0.0332 0.2415 0.1893
C47 C 0.16088(14) 0.30765(10) 0.23850(8)
H31 H 0.2085 0.2726 0.1966
C48 C 0.23526(13) 0.37705(10) 0.30409(7)
H32 H 0.3336 0.3896 0.3066
C49 C 0.33712(13) 0.49454(11) 0.67239(8)
H33 H 0.3913 0.5384 0.7181
C50 C 0.26180(13) 0.40027(11) 0.68740(8)
H34 H 0.2630 0.3798 0.7435
C51 C 0.18280(13) 0.33385(11) 0.61999(8)
H35 H 0.1329 0.2678 0.6307
C52 C 0.17724(13) 0.36376(10) 0.53883(8)
H36 H 0.1234 0.3183 0.4939
Cl2 Cl 0.86417(4) 1.17456(3) 0.44155(2)
N1 N 0.41322(11) 0.61966(8) 0.57726(6)
N2 N 0.60902(11) 0.77877(9) 0.55700(7)
H37 H 0.6263(17) 0.7406(13) 0.5982(10)
loop_
_geom_bond_atom_site_label_1
_geom_bond_atom_site_label_2
_geom_bond_site_symmetry_1
_geom_bond_site_symmetry_2
C1 C2 1_555 1_555
C2 H1 1_555 1_555
C3 C2 1_555 1_555
H2 C3 1_555 1_555
C4 C3 1_555 1_555
C5 C4 1_555 1_555
C6 C1 1_555 1_555
H3 C6 1_555 1_555
C7 C8 1_555 1_555
C8 C9 1_555 1_555
C9 C10 1_555 1_555
C10 H4 1_555 1_555
H5 C10 1_555 1_555
C11 C10 1_555 1_555
H6 C11 1_555 1_555
H7 C11 1_555 1_555
C12 C11 1_555 1_555
H8 C12 1_555 1_555
H9 C12 1_555 1_555
C13 C5 1_555 1_555
C14 C15 1_555 1_555
C15 C16 1_555 1_555
C16 C9 1_555 1_555
C17 C16 1_555 1_555
C18 C17 1_555 1_555
H10 C18 1_555 1_555
C19 C18 1_555 1_555
H11 C19 1_555 1_555
C20 C19 1_555 1_555
H12 C20 1_555 1_555
C21 C20 1_555 1_555
H13 C21 1_555 1_555
C22 C17 1_555 1_555
H14 C22 1_555 1_555
C23 C14 1_555 1_555
H15 C23 1_555 1_555
C24 C23 1_555 1_555
H16 C24 1_555 1_555
C25 C24 1_555 1_555
H17 C25 1_555 1_555
C26 C15 1_555 1_555
H18 C26 1_555 1_555
C27 C28 1_555 1_555
C28 H19 1_555 1_555
C29 C28 1_555 1_555
C30 C29 1_555 1_555
C31 C30 1_555 1_555
H20 C31 1_555 1_555
C32 C27 1_555 1_555
H21 C32 1_555 1_555
C33 C34 1_555 1_555
C34 C35 1_555 1_555
C35 C36 1_555 1_555
C36 H22 1_555 1_555
H23 C36 1_555 1_555
C37 C36 1_555 1_555
H24 C37 1_555 1_555
H25 C37 1_555 1_555
C38 C37 1_555 1_555
H26 C38 1_555 1_555
H27 C38 1_555 1_555
C39 C29 1_555 1_555
C40 C41 1_555 1_555
C41 C42 1_555 1_555
C42 C35 1_555 1_555
C43 C42 1_555 1_555
C44 C43 1_555 1_555
H28 C44 1_555 1_555
C45 C44 1_555 1_555
H29 C45 1_555 1_555
C46 C45 1_555 1_555
H30 C46 1_555 1_555
C47 C46 1_555 1_555
H31 C47 1_555 1_555
C48 C43 1_555 1_555
H32 C48 1_555 1_555
C49 C40 1_555 1_555
H33 C49 1_555 1_555
C50 C49 1_555 1_555
H34 C50 1_555 1_555
C51 C50 1_555 1_555
H35 C51 1_555 1_555
C52 C41 1_555 1_555
H36 C52 1_555 1_555
Cl1 C1 1_555 1_555
Cl2 C27 1_555 1_555
N1 C34 1_555 1_555
N2 C30 1_555 1_555
H37 N2 1_555 1_555
N3 C8 1_555 1_555
N4 C4 1_555 1_555
H38 N4 1_555 1_555
C5 C6 1_555 1_555
C7 C13 1_555 1_555
C7 N4 1_555 1_555
C12 C13 1_555 1_555
C14 N3 1_555 1_555
C21 C22 1_555 1_555
C25 C26 1_555 1_555
C31 C32 1_555 1_555
C33 C39 1_555 1_555
C33 N2 1_555 1_555
C38 C39 1_555 1_555
C40 N1 1_555 1_555
C47 C48 1_555 1_555
C51 C52 1_555 1_555

#END
