
#######################################################################
#
#                 Cambridge Crystallographic Data Centre
#                                CCDC 
#
#######################################################################
#
# If this CIF has been generated from an entry in the Cambridge 
# Structural Database, then it will include bibliographic, chemical, 
# crystal, experimental, refinement or atomic coordinate data resulting 
# from the CCDC's data processing and validation procedures.
#
#######################################################################

data_WAXPUJ
_chemical_formula_moiety         'C22 H19 N3 O1'
_chemical_name_systematic        
N-(2-(1H-indol-3-yl)ethyl)-N-phenylpyridine-2-carboxamide
_symmetry_cell_setting           orthorhombic
_symmetry_space_group_name_H-M   'P n a 21'
_symmetry_Int_Tables_number      33
_space_group_name_Hall           'P 2c -2n'
loop_
_symmetry_equiv_pos_site_id
_symmetry_equiv_pos_as_xyz
1 x,y,z
2 -x,-y,1/2+z
3 1/2+x,1/2-y,z
4 1/2-x,1/2+y,1/2+z
_cell_length_a                   9.4346(2)
_cell_length_b                   13.9909(4)
_cell_length_c                   14.0519(4)
_cell_angle_alpha                90
_cell_angle_beta                 90
_cell_angle_gamma                90
_cell_volume                     1854.83
_exptl_crystal_colour            colorless
_exptl_crystal_description       Rectangular
_cell_formula_units_Z            4
loop_
_atom_site_label
_atom_site_type_symbol
_atom_site_fract_x
_atom_site_fract_y
_atom_site_fract_z
C1 C 0.5957(3) -0.03900(19) 0.2092(2)
H1 H 0.5628 -0.0079 0.2634
C2 C 0.7312(2) -0.12796(16) 0.1156(2)
C3 C 0.8383(3) -0.18289(19) 0.0748(2)
H2 H 0.9132 -0.2060 0.1112
C4 C 0.8296(3) -0.2016(2) -0.0204(3)
H3 H 0.9003 -0.2380 -0.0490
C5 C 0.7195(3) -0.1683(2) -0.0754(3)
H4 H 0.7173 -0.1825 -0.1400
C6 C 0.6127(3) -0.11432(19) -0.0361(2)
H5 H 0.5383 -0.0926 -0.0737
C7 C 0.6172(2) -0.09256(15) 0.06075(18)
C8 C 0.5325(2) -0.03529(16) 0.1219(2)
C9 C 0.4044(2) 0.02302(17) 0.0933(2)
H6 H 0.3878 0.0714 0.1415
H7 H 0.4252 0.0556 0.0341
C10 C 0.2711(2) -0.03447(17) 0.0808(2)
H8 H 0.2890 -0.0869 0.0373
H9 H 0.2431 -0.0614 0.1416
C11 C 0.1354(2) 0.02824(16) -0.05223(19)
C12 C 0.0075(2) 0.08227(16) -0.08712(18)
C13 C -0.0809(3) 0.1858(2) -0.1970(2)
H10 H -0.0660 0.2277 -0.2474
C14 C -0.2164(3) 0.1753(2) -0.1633(2)
H11 H -0.2913 0.2088 -0.1904
C15 C -0.2388(3) 0.11402(19) -0.0886(2)
H12 H -0.3297 0.1043 -0.0649
C16 C -0.1250(2) 0.06721(18) -0.0493(2)
H13 H -0.1374 0.0261 0.0020
C17 C 0.1064(2) 0.10127(15) 0.10424(18)
C18 C 0.1516(3) 0.19318(17) 0.08785(19)
H14 H 0.2094 0.2062 0.0358
C19 C 0.1116(3) 0.2662(2) 0.1481(2)
H15 H 0.1419 0.3284 0.1366
C20 C 0.0276(3) 0.2466(2) 0.2243(2)
H16 H 0.0013 0.2957 0.2654
C21 C -0.0183(3) 0.1559(3) 0.2411(2)
H17 H -0.0762 0.1434 0.2932
C22 C 0.0211(3) 0.0821(2) 0.1809(2)
H18 H -0.0101 0.0201 0.1923
N1 N 0.7141(2) -0.09487(15) 0.20563(16)
H19 H 0.7691 -0.1072 0.2529
N2 N 0.15519(18) 0.02510(13) 0.04344(15)
N3 N 0.0307(2) 0.13944(15) -0.16160(16)
O1 O 0.21157(19) -0.01377(14) -0.10859(14)
loop_
_geom_bond_atom_site_label_1
_geom_bond_atom_site_label_2
_geom_bond_site_symmetry_1
_geom_bond_site_symmetry_2
C1 H1 1_555 1_555
C2 C3 1_555 1_555
C3 H2 1_555 1_555
C4 C3 1_555 1_555
H3 C4 1_555 1_555
C5 C4 1_555 1_555
H4 C5 1_555 1_555
C6 C5 1_555 1_555
H5 C6 1_555 1_555
C7 C2 1_555 1_555
C8 C1 1_555 1_555
C9 C8 1_555 1_555
H6 C9 1_555 1_555
H7 C9 1_555 1_555
C10 C9 1_555 1_555
H8 C10 1_555 1_555
H9 C10 1_555 1_555
C11 C12 1_555 1_555
C12 C16 1_555 1_555
C13 H10 1_555 1_555
C14 C13 1_555 1_555
H11 C14 1_555 1_555
C15 C14 1_555 1_555
H12 C15 1_555 1_555
C16 C15 1_555 1_555
H13 C16 1_555 1_555
C17 C18 1_555 1_555
C18 H14 1_555 1_555
C19 C18 1_555 1_555
H15 C19 1_555 1_555
C20 C19 1_555 1_555
H16 C20 1_555 1_555
C21 C20 1_555 1_555
H17 C21 1_555 1_555
C22 C17 1_555 1_555
H18 C22 1_555 1_555
N1 C1 1_555 1_555
H19 N1 1_555 1_555
N2 C10 1_555 1_555
N3 C12 1_555 1_555
O1 C11 1_555 1_555
C2 N1 1_555 1_555
C6 C7 1_555 1_555
C7 C8 1_555 1_555
C11 N2 1_555 1_555
C13 N3 1_555 1_555
C17 N2 1_555 1_555
C21 C22 1_555 1_555

#END
