
#######################################################################
#
#                 Cambridge Crystallographic Data Centre
#                                CCDC 
#
#######################################################################
#
# If this CIF has been generated from an entry in the Cambridge 
# Structural Database, then it will include bibliographic, chemical, 
# crystal, experimental, refinement or atomic coordinate data resulting 
# from the CCDC's data processing and validation procedures.
#
#######################################################################

data_WAXZUT
_chemical_name_common            
(Z)-5-(3,3-dimethyl-1-(phenylthio)but-1-en-1-yl)benzo[d][1,3]dioxole
_chemical_formula_moiety         'C19 H20 O2 S1'
_chemical_name_systematic        
5-[3,3-dimethyl-1-(phenylsulfanyl)but-1-en-1-yl]-2H-1,3-benzodioxole
_symmetry_cell_setting           monoclinic
_symmetry_space_group_name_H-M   'C c'
_symmetry_Int_Tables_number      9
_space_group_name_Hall           'C -2yc'
loop_
_symmetry_equiv_pos_site_id
_symmetry_equiv_pos_as_xyz
1 x,y,z
2 x,-y,1/2+z
3 1/2+x,1/2+y,z
4 1/2+x,1/2-y,1/2+z
_cell_length_a                   15.0719(4)
_cell_length_b                   9.4326(2)
_cell_length_c                   11.4784(3)
_cell_angle_alpha                90
_cell_angle_beta                 92.5702(12)
_cell_angle_gamma                90
_cell_volume                     1630.21
_exptl_crystal_colour            colorless
_exptl_crystal_description       rod
_cell_formula_units_Z            4
loop_
_atom_site_label
_atom_site_type_symbol
_atom_site_fract_x
_atom_site_fract_y
_atom_site_fract_z
C1 C 0.44318(17) 0.6041(2) 0.6440(2)
H1 H 0.479744 0.673230 0.682517
C2 C 0.35655(17) 0.5857(2) 0.67111(19)
O1 O 0.30881(12) 0.66204(18) 0.74898(15)
C3 C 0.22342(19) 0.5953(3) 0.7497(2)
H2 H 0.216038 0.547076 0.825231
H3 H 0.175916 0.667202 0.738851
C4 C 0.56969(16) 0.5285(2) 0.5211(2)
O2 O 0.21765(12) 0.4945(2) 0.65679(15)
C5 C 0.30164(16) 0.4852(3) 0.6165(2)
C6 C 0.33136(16) 0.3994(2) 0.5298(2)
H4 H 0.293846 0.330852 0.492221
C7 C 0.41995(17) 0.4178(2) 0.4994(2)
H5 H 0.442252 0.361751 0.438545
C8 C 0.47608(16) 0.5160(2) 0.55608(19)
S1 S 0.61746(4) 0.70128(6) 0.53340(4)
C9 C 0.55116(16) 0.8018(2) 0.4312(2)
C10 C 0.50933(17) 0.7418(3) 0.3322(2)
H6 H 0.510412 0.642040 0.321009
C11 C 0.46621(19) 0.8283(3) 0.2503(2)
H7 H 0.437449 0.787236 0.183178
C12 C 0.46447(19) 0.9743(3) 0.2652(2)
H8 H 0.435741 1.033061 0.207821
C13 C 0.50508(19) 1.0336(3) 0.3646(2)
H9 H 0.503799 1.133451 0.375435
C14 C 0.54759(17) 0.9480(3) 0.4482(2)
H10 H 0.574175 0.988988 0.516835
C15 C 0.61734(16) 0.4165(3) 0.48929(19)
H11 H 0.589402 0.327702 0.500981
C16 C 0.70838(17) 0.4061(3) 0.4377(2)
C17 C 0.7216(2) 0.2520(3) 0.3985(3)
H12 H 0.716717 0.188502 0.465517
H13 H 0.780561 0.241791 0.366772
H14 H 0.676023 0.227439 0.338361
C18 C 0.78291(18) 0.4435(3) 0.5281(2)
H15 H 0.778137 0.543589 0.549810
H16 H 0.840650 0.426584 0.494591
H17 H 0.777510 0.384171 0.597475
C19 C 0.71428(18) 0.5011(3) 0.3292(2)
H18 H 0.665269 0.478462 0.273280
H19 H 0.770995 0.484490 0.292923
H20 H 0.710326 0.600868 0.352268
loop_
_geom_bond_atom_site_label_1
_geom_bond_atom_site_label_2
_geom_bond_site_symmetry_1
_geom_bond_site_symmetry_2
C1 H1 1_555 1_555
C2 C1 1_555 1_555
O1 C2 1_555 1_555
C3 O1 1_555 1_555
H2 C3 1_555 1_555
H3 C3 1_555 1_555
C4 C8 1_555 1_555
O2 C3 1_555 1_555
C5 C2 1_555 1_555
C6 C5 1_555 1_555
H4 C6 1_555 1_555
C7 C6 1_555 1_555
H5 C7 1_555 1_555
C8 C1 1_555 1_555
S1 C4 1_555 1_555
C9 S1 1_555 1_555
C10 C9 1_555 1_555
H6 C10 1_555 1_555
C11 C10 1_555 1_555
H7 C11 1_555 1_555
C12 C11 1_555 1_555
H8 C12 1_555 1_555
C13 C12 1_555 1_555
H9 C13 1_555 1_555
C14 C9 1_555 1_555
H10 C14 1_555 1_555
C15 C4 1_555 1_555
H11 C15 1_555 1_555
C16 C15 1_555 1_555
C17 C16 1_555 1_555
H12 C17 1_555 1_555
H13 C17 1_555 1_555
H14 C17 1_555 1_555
C18 C16 1_555 1_555
H15 C18 1_555 1_555
H16 C18 1_555 1_555
H17 C18 1_555 1_555
C19 C16 1_555 1_555
H18 C19 1_555 1_555
H19 C19 1_555 1_555
H20 C19 1_555 1_555
O2 C5 1_555 1_555
C7 C8 1_555 1_555
C13 C14 1_555 1_555

#END
