
#######################################################################
#
#                 Cambridge Crystallographic Data Centre
#                                CCDC 
#
#######################################################################
#
# If this CIF has been generated from an entry in the Cambridge 
# Structural Database, then it will include bibliographic, chemical, 
# crystal, experimental, refinement or atomic coordinate data resulting 
# from the CCDC's data processing and validation procedures.
#
#######################################################################

data_WAYQIZ
_chemical_formula_moiety         'C32 H22'
_chemical_name_systematic        5,10-bis(2-phenylvinyl)indeno[2,1-a]indene
_symmetry_cell_setting           monoclinic
_symmetry_space_group_name_H-M   'C 2/c'
_symmetry_Int_Tables_number      15
_space_group_name_Hall           '-C 2yn'
loop_
_symmetry_equiv_pos_site_id
_symmetry_equiv_pos_as_xyz
1 x,y,z
2 -x,y,1/2-z
3 1/2+x,1/2+y,z
4 1/2-x,1/2+y,1/2-z
5 -x,-y,-z
6 x,-y,1/2+z
7 1/2-x,1/2-y,-z
8 1/2+x,1/2-y,1/2+z
_cell_length_a                   22.311(13)
_cell_length_b                   5.562(3)
_cell_length_c                   17.381(10)
_cell_angle_alpha                90
_cell_angle_beta                 102.805(10)
_cell_angle_gamma                90
_cell_volume                     2103.23
_exptl_crystal_colour            black
_exptl_crystal_description       rod
_cell_formula_units_Z            4
loop_
_atom_site_label
_atom_site_type_symbol
_atom_site_fract_x
_atom_site_fract_y
_atom_site_fract_z
C1 C 0.41853(11) 1.0790(4) 0.46874(13)
C2 C 0.43453(11) 1.2656(4) 0.52543(13)
C3 C 0.39226(12) 1.4322(4) 0.53796(13)
H1 H 0.4035 1.5528 0.5754
C4 C 0.33208(12) 1.4172(5) 0.49339(14)
H2 H 0.3031 1.5301 0.5006
C5 C 0.31536(12) 1.2355(5) 0.43855(15)
H3 H 0.2750 1.2268 0.4097
C6 C 0.35794(12) 1.0647(5) 0.42557(14)
H4 H 0.3461 0.9430 0.3886
C7 C 0.47588(11) 0.9427(4) 0.47024(12)
C8 C 0.49841(11) 0.7513(4) 0.43589(13)
C9 C 0.47090(12) 0.5822(5) 0.37453(14)
H5 H 0.4975 0.4662 0.3626
C10 C 0.41360(13) 0.5686(5) 0.33304(16)
H6 H 0.3865 0.6843 0.3439
C11 C 0.38779(12) 0.3913(5) 0.27165(13)
C12 C 0.32781(13) 0.4175(5) 0.22657(16)
H7 H 0.3040 0.5463 0.2363
C13 C 0.30333(12) 0.2539(5) 0.16740(15)
H8 H 0.2632 0.2726 0.1386
C14 C 0.33829(13) 0.0646(5) 0.15127(15)
H9 H 0.3224 -0.0423 0.1107
C15 C 0.39730(13) 0.0348(5) 0.19598(15)
H10 H 0.4211 -0.0932 0.1855
C16 C 0.42127(12) 0.1939(5) 0.25621(13)
H11 H 0.4605 0.1679 0.2869
C1D C 0.58147(11) 0.9210(4) 0.53126(13)
C2D C 0.56547(11) 0.7344(4) 0.47457(13)
C3D C 0.60774(12) 0.5678(4) 0.46204(13)
H1D H 0.5965 0.4472 0.4246
C4D C 0.66792(12) 0.5828(5) 0.50661(14)
H2D H 0.6969 0.4699 0.4994
C5D C 0.68464(12) 0.7645(5) 0.56145(15)
H3D H 0.7250 0.7732 0.5903
C6D C 0.64206(12) 0.9353(5) 0.57443(14)
H4D H 0.6539 1.0570 0.6114
C7D C 0.52412(11) 1.0573(4) 0.52976(12)
C8D C 0.50159(11) 1.2487(4) 0.56411(13)
C9D C 0.52910(12) 1.4178(5) 0.62547(14)
H5D H 0.5025 1.5338 0.6374
C10D C 0.58640(13) 1.4314(5) 0.66696(16)
H6D H 0.6135 1.3157 0.6561
C11D C 0.61221(12) 1.6087(5) 0.72835(13)
C12D C 0.67219(13) 1.5825(5) 0.77343(16)
H7D H 0.6960 1.4537 0.7637
C13D C 0.69667(12) 1.7461(5) 0.83260(15)
H8D H 0.7368 1.7274 0.8614
C14D C 0.66171(13) 1.9354(5) 0.84873(15)
H9D H 0.6776 2.0423 0.8893
C15D C 0.60270(13) 1.9652(5) 0.80402(15)
H10D H 0.5789 2.0932 0.8145
C16D C 0.57873(12) 1.8061(5) 0.74379(13)
H11D H 0.5395 1.8321 0.7131
loop_
_geom_bond_atom_site_label_1
_geom_bond_atom_site_label_2
_geom_bond_site_symmetry_1
_geom_bond_site_symmetry_2
C1 C2 1_555 1_555
C2 C3 1_555 1_555
C3 H1 1_555 1_555
C4 C3 1_555 1_555
H2 C4 1_555 1_555
C5 C4 1_555 1_555
H3 C5 1_555 1_555
C6 C1 1_555 1_555
H4 C6 1_555 1_555
C7 C1 1_555 1_555
C8 C7 1_555 1_555
C9 C8 1_555 1_555
H5 C9 1_555 1_555
C10 C9 1_555 1_555
H6 C10 1_555 1_555
C11 C10 1_555 1_555
C12 C11 1_555 1_555
H7 C12 1_555 1_555
C13 C12 1_555 1_555
H8 C13 1_555 1_555
C14 C13 1_555 1_555
H9 C14 1_555 1_555
C15 C14 1_555 1_555
H10 C15 1_555 1_555
C16 C11 1_555 1_555
H11 C16 1_555 1_555
C1D C2D 1_555 1_555
C2D C8 1_555 1_555
C3D C2D 1_555 1_555
H1D C3D 1_555 1_555
C4D C3D 1_555 1_555
H2D C4D 1_555 1_555
C5D C4D 1_555 1_555
H3D C5D 1_555 1_555
C6D C1D 1_555 1_555
H4D C6D 1_555 1_555
C7D C7 1_555 1_555
C8D C2 1_555 1_555
C9D C8D 1_555 1_555
H5D C9D 1_555 1_555
C10D C9D 1_555 1_555
H6D C10D 1_555 1_555
C11D C10D 1_555 1_555
C12D C11D 1_555 1_555
H7D C12D 1_555 1_555
C13D C12D 1_555 1_555
H8D C13D 1_555 1_555
C14D C13D 1_555 1_555
H9D C14D 1_555 1_555
C15D C14D 1_555 1_555
H10D C15D 1_555 1_555
C16D C11D 1_555 1_555
H11D C16D 1_555 1_555
C5 C6 1_555 1_555
C15 C16 1_555 1_555
C1D C7D 1_555 1_555
C5D C6D 1_555 1_555
C7D C8D 1_555 1_555
C15D C16D 1_555 1_555

#END
