
#######################################################################
#
#                 Cambridge Crystallographic Data Centre
#                                CCDC 
#
#######################################################################
#
# If this CIF has been generated from an entry in the Cambridge 
# Structural Database, then it will include bibliographic, chemical, 
# crystal, experimental, refinement or atomic coordinate data resulting 
# from the CCDC's data processing and validation procedures.
#
#######################################################################

data_WAZLIS
_chemical_formula_moiety         'C19 H22 O2'
_chemical_name_systematic        
2-Hydroxy-hexacyclo(11.2.2.1^2,6^.1^8,11^.0^7,12^.0^13,18^)nonadeca-5,9-dien-15-one
_symmetry_cell_setting           monoclinic
_symmetry_space_group_name_H-M   'P 21/c'
_symmetry_Int_Tables_number      14
_space_group_name_Hall           '-P 2ybc'
loop_
_symmetry_equiv_pos_site_id
_symmetry_equiv_pos_as_xyz
1 x,y,z
2 -x,1/2+y,1/2-z
3 -x,-y,-z
4 x,1/2-y,1/2+z
_cell_length_a                   6.582(1)
_cell_length_b                   17.926(5)
_cell_length_c                   12.696(3)
_cell_angle_alpha                90
_cell_angle_beta                 98.00(2)
_cell_angle_gamma                90
_cell_volume                     1483.41
_cell_formula_units_Z            4
loop_
_atom_site_label
_atom_site_type_symbol
_atom_site_fract_x
_atom_site_fract_y
_atom_site_fract_z
O1 O 0.3579(4) 0.6030(1) 0.4122(2)
O2 O 0.6896(4) 0.5561(2) 0.6395(2)
C1 C 0.2422(8) 0.8947(2) 0.5109(4)
C2 C 0.1533(7) 0.8265(2) 0.5679(3)
C3 C 0.3411(7) 0.8034(2) 0.6519(3)
C4 C 0.5157(7) 0.8565(2) 0.6239(3)
C5 C 0.4499(9) 0.9315(3) 0.6628(4)
C6 C 0.2873(9) 0.9535(3) 0.5975(5)
C7 C 0.4606(7) 0.8693(2) 0.5025(3)
C8 C 0.5442(6) 0.5989(2) 0.6320(3)
C9 C 0.5701(6) 0.6807(2) 0.6629(3)
C10 C 0.3613(6) 0.7180(2) 0.6385(3)
C11 C 0.2121(6) 0.6805(2) 0.7057(3)
C12 C 0.2146(6) 0.5950(2) 0.6919(3)
C13 C 0.3249(6) 0.5757(2) 0.5961(3)
C14 C 0.2382(6) 0.6207(2) 0.4961(3)
C15 C 0.2818(6) 0.7035(2) 0.5209(3)
C16 C 0.1069(6) 0.7580(2) 0.4982(3)
C17 C -0.0635(6) 0.7411(3) 0.4348(3)
C18 C -0.0866(6) 0.6656(3) 0.3811(3)
C19 C 0.0124(6) 0.6053(2) 0.4582(3)
H1 H 0.3374 0.5429 0.3932
H2 H 0.1374 0.9101 0.4454
H3 H 0.0183 0.8513 0.6047
H4 H 0.3180 0.8148 0.7307
H5 H 0.6766 0.8346 0.6528
H6 H 0.5410 0.9451 0.7480
H7 H 0.1870 1.0019 0.5904
H8 H 0.5541 0.9147 0.4763
H9 H 0.4551 0.8181 0.4569
H10 H 0.6919 0.7072 0.6138
H11 H 0.6657 0.6834 0.7376
H12 H 0.0465 0.7040 0.6802
H13 H 0.2272 0.6902 0.7777
H14 H 0.2795 0.5697 0.7568
H15 H 0.0545 0.5742 0.6766
H16 H 0.3330 0.5173 0.5703
H17 H 0.4125 0.7174 0.4712
H18 H -0.1831 0.7789 0.4084
H19 H -0.0266 0.6639 0.3008
H20 H -0.2326 0.6467 0.3668
H21 H -0.0621 0.6026 0.5231
H22 H -0.0151 0.5529 0.4124
loop_
_geom_bond_atom_site_label_1
_geom_bond_atom_site_label_2
_geom_bond_site_symmetry_1
_geom_bond_site_symmetry_2
O1 C14 1_555 1_555
O2 C8 1_555 1_555
C1 C2 1_555 1_555
C2 C3 1_555 1_555
C3 C4 1_555 1_555
C4 C5 1_555 1_555
C5 C6 1_555 1_555
C6 C1 1_555 1_555
C7 C1 1_555 1_555
C8 C9 1_555 1_555
C9 C10 1_555 1_555
C10 C3 1_555 1_555
C11 C10 1_555 1_555
C12 C11 1_555 1_555
C13 C8 1_555 1_555
C14 C13 1_555 1_555
C15 C10 1_555 1_555
C16 C2 1_555 1_555
C17 C16 1_555 1_555
C18 C17 1_555 1_555
C19 C14 1_555 1_555
H1 O1 1_555 1_555
H2 C1 1_555 1_555
H3 C2 1_555 1_555
H4 C3 1_555 1_555
H5 C4 1_555 1_555
H6 C5 1_555 1_555
H7 C6 1_555 1_555
H8 C7 1_555 1_555
H9 C7 1_555 1_555
H10 C9 1_555 1_555
H11 C9 1_555 1_555
H12 C11 1_555 1_555
H13 C11 1_555 1_555
H14 C12 1_555 1_555
H15 C12 1_555 1_555
H16 C13 1_555 1_555
H17 C15 1_555 1_555
H18 C17 1_555 1_555
H19 C18 1_555 1_555
H20 C18 1_555 1_555
H21 C19 1_555 1_555
H22 C19 1_555 1_555
C4 C7 1_555 1_555
C12 C13 1_555 1_555
C14 C15 1_555 1_555
C15 C16 1_555 1_555
C18 C19 1_555 1_555

#END
