
#######################################################################
#
#                 Cambridge Crystallographic Data Centre
#                                CCDC 
#
#######################################################################
#
# If this CIF has been generated from an entry in the Cambridge 
# Structural Database, then it will include bibliographic, chemical, 
# crystal, experimental, refinement or atomic coordinate data resulting 
# from the CCDC's data processing and validation procedures.
#
#######################################################################

data_WAZLAK
_chemical_formula_moiety         'C19 H22 O2'
_chemical_name_systematic        
cis-exo-2,3-bis(3-Oxocyclohexenyl)norborn-5-ene
_symmetry_cell_setting           orthorhombic
_symmetry_space_group_name_H-M   'P n a 21'
_symmetry_Int_Tables_number      33
_space_group_name_Hall           'P 2c -2n'
loop_
_symmetry_equiv_pos_site_id
_symmetry_equiv_pos_as_xyz
1 x,y,z
2 1/2-x,1/2+y,1/2+z
3 1/2+x,1/2-y,z
4 -x,-y,1/2+z
_cell_length_a                   30.427(11)
_cell_length_b                   5.891(2)
_cell_length_c                   8.397(2)
_cell_angle_alpha                90
_cell_angle_beta                 90
_cell_angle_gamma                90
_cell_volume                     1505.12
_cell_formula_units_Z            4
loop_
_atom_site_label
_atom_site_type_symbol
_atom_site_fract_x
_atom_site_fract_y
_atom_site_fract_z
O1 O 0.2464(2) 0.1269(9) 0.0777
O2 O 0.5148(2) 0.4691(13) -0.1792(10)
C1 C 0.4018(2) 0.1345(15) -0.5688(9)
C2 C 0.3935(2) 0.0371(11) -0.4001(9)
C3 C 0.3422(2) 0.0858(11) -0.3754(9)
C4 C 0.3308(2) 0.2169(14) -0.5334(9)
C5 C 0.3339(3) 0.0387(16) -0.6593(9)
C6 C 0.3762(3) -0.0140(15) -0.6804(10)
C7 C 0.3736(3) 0.3480(14) -0.5664(9)
C8 C 0.4865(2) 0.3241(16) -0.1577(11)
C9 C 0.4552(2) 0.2717(14) -0.2842(9)
C10 C 0.4246(2) 0.1102(12) -0.2695(9)
C11 C 0.4209(2) -0.0214(14) -0.1171(9)
C12 C 0.4579(3) -0.0031(21) -0.0064(15)
C13 C 0.4841(3) 0.1934(17) -0.0102(12)
C14 C 0.2747(2) 0.2216(15) 0.0002(11)
C15 C 0.2961(2) 0.1125(12) -0.1356(9)
C16 C 0.3271(2) 0.2102(11) -0.2283(8)
C17 C 0.3416(2) 0.4470(12) -0.1911(10)
C18 C 0.3352(2) 0.5101(12) -0.0180(10)
C19 C 0.2880(2) 0.4604(15) 0.0332(10)
H1 H 0.4320 0.1594 -0.5966
H2 H 0.3963 -0.1235 -0.4070
H3 H 0.3270 -0.0564 -0.3777
H4 H 0.3040 0.3056 -0.5298
H5 H 0.3095 -0.0271 -0.7144
H6 H 0.3877 -0.1213 -0.7525
H7 H 0.3728 0.4275 -0.6656
H8 H 0.3811 0.4501 -0.4809
H9 H 0.4563 0.3540 -0.3825
H10 H 0.4163 -0.1791 -0.1432
H11 H 0.3951 0.0276 -0.0587
H12 H 0.4671 -0.1248 0.0563
H13 H 0.4785 -0.0660 -0.0929
H14 H 0.4975 0.2515 0.0871
H15 H 0.4562 0.2781 0.0228
H16 H 0.2875 -0.0410 -0.1578
H17 H 0.3723 0.4602 -0.2157
H18 H 0.3259 0.5525 -0.2569
H19 H 0.3551 0.4285 0.0503
H20 H 0.3401 0.6699 -0.0020
H21 H 0.2842 0.4899 0.1452
H22 H 0.2682 0.5596 -0.0228
loop_
_geom_bond_atom_site_label_1
_geom_bond_atom_site_label_2
_geom_bond_site_symmetry_1
_geom_bond_site_symmetry_2
O1 C14 1_555 1_555
O2 C8 1_555 1_555
C1 C2 1_555 1_555
C2 C3 1_555 1_555
C3 C4 1_555 1_555
C4 C5 1_555 1_555
C5 C6 1_555 1_555
C6 C1 1_555 1_555
C7 C1 1_555 1_555
C8 C9 1_555 1_555
C9 C10 1_555 1_555
C10 C2 1_555 1_555
C11 C10 1_555 1_555
C12 C11 1_555 1_555
C13 C8 1_555 1_555
C14 C15 1_555 1_555
C15 C16 1_555 1_555
C16 C3 1_555 1_555
C17 C16 1_555 1_555
C18 C17 1_555 1_555
C19 C14 1_555 1_555
H1 C1 1_555 1_555
H2 C2 1_555 1_555
H3 C3 1_555 1_555
H4 C4 1_555 1_555
H5 C5 1_555 1_555
H6 C6 1_555 1_555
H7 C7 1_555 1_555
H8 C7 1_555 1_555
H9 C9 1_555 1_555
H10 C11 1_555 1_555
H11 C11 1_555 1_555
H12 C12 1_555 1_555
H13 C12 1_555 1_555
H14 C13 1_555 1_555
H15 C13 1_555 1_555
H16 C15 1_555 1_555
H17 C17 1_555 1_555
H18 C17 1_555 1_555
H19 C18 1_555 1_555
H20 C18 1_555 1_555
H21 C19 1_555 1_555
H22 C19 1_555 1_555
C4 C7 1_555 1_555
C12 C13 1_555 1_555
C18 C19 1_555 1_555

#END
