
#######################################################################
#
#                 Cambridge Crystallographic Data Centre
#                                CCDC 
#
#######################################################################
#
# If this CIF has been generated from an entry in the Cambridge 
# Structural Database, then it will include bibliographic, chemical, 
# crystal, experimental, refinement or atomic coordinate data resulting 
# from the CCDC's data processing and validation procedures.
#
#######################################################################

data_WAZMIW
_chemical_formula_moiety         'C20 H20 F2 N2 O2'
_chemical_name_systematic        
(R,R)-2-fluoro-6-(((2-((3-fluoro-2-hydroxybenzylidene)amino)cyclohexyl)imino)methyl)phenol
_symmetry_cell_setting           trigonal
_symmetry_space_group_name_H-M   'P 32 2 1'
_symmetry_Int_Tables_number      154
_space_group_name_Hall           'P 32 2"'
loop_
_symmetry_equiv_pos_site_id
_symmetry_equiv_pos_as_xyz
1 x,y,z
2 -y,x-y,2/3+z
3 -x+y,-x,1/3+z
4 y,x,-z
5 x-y,-y,1/3-z
6 -x,-x+y,2/3-z
_cell_length_a                   11.14762(19)
_cell_length_b                   11.14762(19)
_cell_length_c                   38.1285(6)
_cell_angle_alpha                90
_cell_angle_beta                 90
_cell_angle_gamma                120
_cell_volume                     4103.41
_exptl_crystal_colour            'yellowish yellow'
_exptl_crystal_description       block
_cell_formula_units_Z            9
loop_
_atom_site_label
_atom_site_type_symbol
_atom_site_fract_x
_atom_site_fract_y
_atom_site_fract_z
F1 F 0.5274(2) 0.3903(3) 0.84423(6)
O1 O 0.3596(3) 0.4972(3) 0.84132(6)
H1 H 0.3039 0.5230 0.8370
N1 N 0.1372(3) 0.4782(3) 0.81777(7)
C1 C 0.3256(4) 0.3818(4) 0.82306(8)
C2 C 0.1140(4) 0.3721(4) 0.79977(8)
H2 H 0.0372 0.3306 0.7851
C3 C 0.2066(4) 0.3153(4) 0.80202(8)
C4 C 0.0445(3) 0.5349(4) 0.81659(9)
H3 H -0.0156 0.4992 0.7959
C5 C 0.4112(4) 0.3246(4) 0.82439(9)
C6 C 0.3835(4) 0.2064(4) 0.80655(10)
H4 H 0.4426 0.1704 0.8084
C7 C 0.1783(4) 0.1953(4) 0.78351(9)
H5 H 0.0995 0.1514 0.7695
C8 C 0.2654(5) 0.1417(4) 0.78573(10)
H6 H 0.2454 0.0621 0.7733
C9 C 0.1308(4) 0.6920(4) 0.81453(12)
H7 H 0.1972 0.7257 0.8336
H8 H 0.1822 0.7181 0.7927
C10 C 0.0427(6) 0.7602(5) 0.81656(15)
H9 H -0.0185 0.7332 0.7964
H10 H 0.1019 0.8601 0.8161
F1E F -0.5274(2) -0.1371(4) 0.82244(6)
O1E O -0.3596(3) 0.1376(4) 0.82535(6)
H1E H -0.3039 0.2191 0.8297
N1E N -0.1372(3) 0.3410(4) 0.84890(7)
C1E C -0.3256(4) 0.0562(6) 0.84361(8)
C2E C -0.1140(4) 0.2581(6) 0.86690(8)
H2E H -0.0372 0.2934 0.8816
C3E C -0.2066(4) 0.1087(6) 0.86465(8)
C4E C -0.0445(3) 0.4904(5) 0.85008(9)
H3E H 0.0156 0.5148 0.8708
C5E C -0.4112(4) -0.0866(6) 0.84228(9)
C6E C -0.3835(4) -0.1771(6) 0.86012(10)
H4E H -0.4426 -0.2722 0.8583
C7E C -0.1783(4) 0.0170(6) 0.88316(9)
H5E H -0.0995 0.0519 0.8972
C8E C -0.2654(5) -0.1237(6) 0.88094(10)
H6E H -0.2454 -0.1833 0.8934
C9E C -0.1308(4) 0.5612(6) 0.85214(12)
H7E H -0.1972 0.5285 0.8331
H8E H -0.1822 0.5359 0.8740
C10E C -0.0427(6) 0.7175(8) 0.85011(15)
H9E H 0.0185 0.7517 0.8703
H10E H -0.1019 0.7582 0.8506
F2 F 0.0627(3) -0.0869(3) 0.72844(6)
F3 F 1.0910(3) 0.4058(3) 0.67814(7)
O2 O 0.2868(3) -0.1127(3) 0.73923(6)
H11 H 0.3457 -0.1361 0.7401
O3 O 0.9347(3) 0.1449(3) 0.70042(8)
H12 H 0.8828 0.0705 0.7099
N2 N 0.7270(3) -0.0290(3) 0.73670(7)
N3 N 0.4395(3) -0.2096(3) 0.71625(7)
C11 C 0.7885(4) 0.2079(4) 0.73270(8)
C12 C 0.2233(4) -0.1478(4) 0.70782(9)
C13 C 0.3813(4) -0.2296(4) 0.68642(9)
H13 H 0.4107 -0.2636 0.6681
C14 C 0.2691(4) -0.2001(4) 0.68046(8)
C15 C 0.7029(3) 0.0667(4) 0.74578(8)
H14 H 0.6298 0.0466 0.7609
C16 C 0.6408(3) -0.1694(4) 0.75038(8)
H15 H 0.5903 -0.1653 0.7710
C17 C 0.9011(4) 0.2384(4) 0.71057(9)
C18 C 0.5361(4) -0.2599(4) 0.72246(8)
H16 H 0.5847 -0.2554 0.7006
C19 C 0.1080(4) -0.1363(4) 0.70199(9)
C20 C 0.5472(4) -0.4670(4) 0.74570(9)
H17 H 0.4915 -0.5610 0.7543
H18 H 0.5987 -0.4692 0.7254
C21 C 0.1980(4) -0.2346(4) 0.64850(9)
H19 H 0.2294 -0.2666 0.6301
C22 C 0.9822(4) 0.3759(4) 0.69903(9)
C23 C 0.6478(4) -0.3768(4) 0.77416(9)
H20 H 0.7090 -0.4121 0.7802
H21 H 0.5966 -0.3800 0.7950
C24 C 0.0827(4) -0.2220(4) 0.64373(10)
H22 H 0.0359 -0.2466 0.6224
C25 C 0.8391(4) 0.4450(4) 0.72929(9)
H23 H 0.8174 0.5129 0.7352
C26 C 0.9524(4) 0.4771(4) 0.70768(10)
H24 H 1.0072 0.5668 0.6992
C27 C 0.7597(4) 0.3119(4) 0.74179(9)
H25 H 0.6855 0.2911 0.7566
C28 C 0.7334(4) -0.2274(4) 0.76153(10)
H26 H 0.7903 -0.2236 0.7418
H27 H 0.7945 -0.1707 0.7802
C29 C 0.0360(4) -0.1723(4) 0.67095(11)
H28 H -0.0422 -0.1637 0.6681
C30 C 0.4527(4) -0.4105(4) 0.73494(9)
H29 H 0.3957 -0.4159 0.7548
H30 H 0.3917 -0.4673 0.7163
loop_
_geom_bond_atom_site_label_1
_geom_bond_atom_site_label_2
_geom_bond_site_symmetry_1
_geom_bond_site_symmetry_2
F1 C5 1_555 1_555
O1 H1 1_555 1_555
N1 C2 1_555 1_555
C1 O1 1_555 1_555
C2 H2 1_555 1_555
C3 C1 1_555 1_555
C4 N1 1_555 1_555
H3 C4 1_555 1_555
C5 C1 1_555 1_555
C6 C5 1_555 1_555
H4 C6 1_555 1_555
C7 C3 1_555 1_555
H5 C7 1_555 1_555
C8 C6 1_555 1_555
H6 C8 1_555 1_555
C9 C4 1_555 1_555
H7 C9 1_555 1_555
H8 C9 1_555 1_555
C10 C9 1_555 1_555
H9 C10 1_555 1_555
H10 C10 1_555 1_555
F2 C19 1_555 1_555
F3 C22 1_555 1_555
O2 H11 1_555 1_555
O3 H12 1_555 1_555
N2 C15 1_555 1_555
N3 C13 1_555 1_555
C11 C15 1_555 1_555
C12 O2 1_555 1_555
C13 H13 1_555 1_555
C14 C12 1_555 1_555
C15 H14 1_555 1_555
C16 N2 1_555 1_555
H15 C16 1_555 1_555
C17 O3 1_555 1_555
C18 N3 1_555 1_555
H16 C18 1_555 1_555
C19 C12 1_555 1_555
C20 H17 1_555 1_555
H18 C20 1_555 1_555
C21 C14 1_555 1_555
H19 C21 1_555 1_555
C22 C17 1_555 1_555
C23 C20 1_555 1_555
H20 C23 1_555 1_555
H21 C23 1_555 1_555
C24 C21 1_555 1_555
H22 C24 1_555 1_555
C25 H23 1_555 1_555
C26 C22 1_555 1_555
H24 C26 1_555 1_555
C27 C11 1_555 1_555
H25 C27 1_555 1_555
C28 C16 1_555 1_555
H26 C28 1_555 1_555
H27 C28 1_555 1_555
C29 C19 1_555 1_555
H28 C29 1_555 1_555
C30 C18 1_555 1_555
H29 C30 1_555 1_555
H30 C30 1_555 1_555
F1E C5E 1_555 1_555
O1E H1E 1_555 1_555
N1E C2E 1_555 1_555
C1E O1E 1_555 1_555
C2E H2E 1_555 1_555
C3E C1E 1_555 1_555
C4E C4 1_555 1_555
H3E C4E 1_555 1_555
C5E C1E 1_555 1_555
C6E C5E 1_555 1_555
H4E C6E 1_555 1_555
C7E C3E 1_555 1_555
H5E C7E 1_555 1_555
C8E C6E 1_555 1_555
H6E C8E 1_555 1_555
C9E C4E 1_555 1_555
H7E C9E 1_555 1_555
H8E C9E 1_555 1_555
C10E C10 1_555 1_555
H9E C10E 1_555 1_555
H10E C10E 1_555 1_555
C2 C3 1_555 1_555
C7 C8 1_555 1_555
C11 C17 1_555 1_555
C13 C14 1_555 1_555
C16 C18 1_555 1_555
C20 C30 1_555 1_555
C23 C28 1_555 1_555
C24 C29 1_555 1_555
C25 C26 1_555 1_555
C25 C27 1_555 1_555
N1E C4E 1_555 1_555
C2E C3E 1_555 1_555
C7E C8E 1_555 1_555
C9E C10E 1_555 1_555

#END
