
#######################################################################
#
#                 Cambridge Crystallographic Data Centre
#                                CCDC 
#
#######################################################################
#
# If this CIF has been generated from an entry in the Cambridge 
# Structural Database, then it will include bibliographic, chemical, 
# crystal, experimental, refinement or atomic coordinate data resulting 
# from the CCDC's data processing and validation procedures.
#
#######################################################################

data_WAZVIF
_chemical_formula_moiety         'C21 H25 Br1 N2 O1'
_chemical_name_systematic        
5-(2-bromophenyl)-N-t-butyl-1-phenylprolinamide
_symmetry_cell_setting           monoclinic
_symmetry_space_group_name_H-M   'P 21/c'
_symmetry_Int_Tables_number      14
_space_group_name_Hall           '-P 2ybc'
loop_
_symmetry_equiv_pos_site_id
_symmetry_equiv_pos_as_xyz
1 x,y,z
2 -x,1/2+y,1/2-z
3 -x,-y,-z
4 x,1/2-y,1/2+z
_cell_length_a                   11.680(2)
_cell_length_b                   18.925(2)
_cell_length_c                   18.718(4)
_cell_angle_alpha                90
_cell_angle_beta                 105.504(15)
_cell_angle_gamma                90
_cell_volume                     3986.95
_exptl_crystal_colour            yellow
_exptl_crystal_description       prism
_cell_formula_units_Z            8
loop_
_atom_site_label
_atom_site_type_symbol
_atom_site_fract_x
_atom_site_fract_y
_atom_site_fract_z
Br1 Br 0.97089(2) 0.175796(14) 0.601451(15)
O1 O 0.52310(15) 0.08074(8) 0.29748(9)
N1 N 0.72034(17) 0.16656(10) 0.36351(10)
N2 N 0.41268(17) 0.17927(11) 0.25612(11)
H1 H 0.415(2) 0.2201(14) 0.2557(13)
C1 C 0.7857(2) 0.17242(12) 0.44210(13)
H2 H 0.8615 0.1988 0.4466
C2 C 0.7017(2) 0.21752(13) 0.47450(13)
H3 H 0.7092 0.2049 0.5269
H4 H 0.7185 0.2685 0.4714
C3 C 0.5787(2) 0.19880(13) 0.42536(13)
H5 H 0.5200 0.2360 0.4274
H6 H 0.5508 0.1531 0.4401
C4 C 0.5995(2) 0.19429(12) 0.34808(13)
H7 H 0.5957 0.2425 0.3257
C5 C 0.8130(2) 0.10107(12) 0.48048(13)
C6 C 0.7601(2) 0.03897(13) 0.44677(14)
H8 H 0.7079 0.0411 0.3982
C7 C 0.7822(2) -0.02576(13) 0.48255(15)
H9 H 0.7459 -0.0674 0.4583
C8 C 0.8569(2) -0.02984(14) 0.55365(15)
H10 H 0.8702 -0.0740 0.5786
C9 C 0.9125(2) 0.03062(14) 0.58844(14)
H11 H 0.9646 0.0282 0.6370
C10 C 0.8906(2) 0.09460(13) 0.55117(14)
C11 C 0.7803(2) 0.16278(12) 0.30879(13)
C12 C 0.7269(2) 0.18313(13) 0.23543(13)
H12 H 0.6465 0.1984 0.2218
C13 C 0.7905(2) 0.18116(14) 0.18259(14)
H13 H 0.7535 0.1960 0.1333
C14 C 0.9069(2) 0.15792(15) 0.20047(15)
H14 H 0.9502 0.1570 0.1641
C15 C 0.9592(2) 0.13593(15) 0.27240(16)
H15 H 1.0388 0.1192 0.2851
C16 C 0.8973(2) 0.13794(14) 0.32605(14)
H16 H 0.9347 0.1223 0.3750
C17 C 0.5086(2) 0.14555(12) 0.29725(12)
C18 C 0.3119(2) 0.14744(12) 0.19980(13)
C19 C 0.2187(2) 0.20560(13) 0.17708(15)
H17 H 0.1903 0.2192 0.2199
H18 H 0.1518 0.1882 0.1373
H19 H 0.2541 0.2468 0.1594
C20 C 0.3544(2) 0.12410(14) 0.13301(14)
H20 H 0.3815 0.1654 0.1106
H21 H 0.2887 0.1014 0.0965
H22 H 0.4201 0.0905 0.1492
C21 C 0.2602(2) 0.08483(13) 0.23255(15)
H23 H 0.3177 0.0459 0.2423
H24 H 0.1865 0.0692 0.1973
H25 H 0.2434 0.0993 0.2790
Br2 Br 0.05139(3) 0.436640(15) 0.451640(17)
O2 O 0.43894(15) 0.32964(8) 0.25128(9)
N3 N 0.37101(17) 0.42177(11) 0.35190(11)
N4 N 0.47548(19) 0.42587(11) 0.18733(11)
H26 H 0.472(2) 0.4670(15) 0.1859(15)
C22 C 0.2581(2) 0.42648(12) 0.37187(13)
H27 H 0.2672 0.4612 0.4133
C23 C 0.1724(2) 0.45759(14) 0.30147(14)
H28 H 0.0915 0.4378 0.2936
H29 H 0.1683 0.5097 0.3048
C24 C 0.2268(2) 0.43544(14) 0.23930(14)
H30 H 0.2011 0.4672 0.1959
H31 H 0.2051 0.3862 0.2234
C25 C 0.3602(2) 0.44234(12) 0.27557(13)
H32 H 0.3862 0.4924 0.2733
C26 C 0.2177(2) 0.35572(13) 0.39614(13)
C27 C 0.2704(2) 0.29220(13) 0.38501(13)
H33 H 0.3291 0.2922 0.3583
C28 C 0.2392(2) 0.22868(14) 0.41209(15)
H34 H 0.2761 0.1859 0.4036
C29 C 0.1543(3) 0.22794(14) 0.45140(16)
H35 H 0.1345 0.1848 0.4712
C30 C 0.0982(2) 0.28989(14) 0.46187(15)
H36 H 0.0386 0.2896 0.4879
C31 C 0.1303(2) 0.35247(13) 0.43388(14)
C32 C 0.4794(2) 0.42136(12) 0.40557(13)
C33 C 0.5865(2) 0.43384(13) 0.38693(14)
H37 H 0.5848 0.4446 0.3371
C34 C 0.6943(2) 0.43070(13) 0.44042(15)
H38 H 0.7657 0.4390 0.4266
C35 C 0.7001(2) 0.41577(13) 0.51356(14)
H39 H 0.7744 0.4132 0.5498
C36 C 0.5946(2) 0.40461(13) 0.53290(14)
H40 H 0.5970 0.3952 0.5831
C37 C 0.4860(2) 0.40697(13) 0.48016(13)
H41 H 0.4151 0.3988 0.4946
C38 C 0.4302(2) 0.39339(12) 0.23740(13)
C39 C 0.5524(2) 0.39257(12) 0.14511(14)
C40 C 0.5686(3) 0.44800(14) 0.08921(15)
H42 H 0.4913 0.4591 0.0550
H43 H 0.6219 0.4295 0.0612
H44 H 0.6031 0.4910 0.1156
C41 C 0.6721(2) 0.37359(14) 0.19848(15)
H45 H 0.7114 0.4167 0.2219
H46 H 0.7223 0.3504 0.1710
H47 H 0.6595 0.3415 0.2367
C42 C 0.4915(2) 0.32682(14) 0.10390(14)
H48 H 0.4819 0.2913 0.1399
H49 H 0.5405 0.3073 0.0735
H50 H 0.4134 0.3399 0.0719
loop_
_geom_bond_atom_site_label_1
_geom_bond_atom_site_label_2
_geom_bond_site_symmetry_1
_geom_bond_site_symmetry_2
Br1 C10 1_555 1_555
O1 C17 1_555 1_555
N1 C1 1_555 1_555
N2 H1 1_555 1_555
C1 H2 1_555 1_555
C2 C1 1_555 1_555
H3 C2 1_555 1_555
H4 C2 1_555 1_555
C3 C2 1_555 1_555
H5 C3 1_555 1_555
H6 C3 1_555 1_555
C4 N1 1_555 1_555
H7 C4 1_555 1_555
C5 C1 1_555 1_555
C6 C5 1_555 1_555
H8 C6 1_555 1_555
C7 C6 1_555 1_555
H9 C7 1_555 1_555
C8 C7 1_555 1_555
H10 C8 1_555 1_555
C9 C8 1_555 1_555
H11 C9 1_555 1_555
C10 C5 1_555 1_555
C11 N1 1_555 1_555
C12 C11 1_555 1_555
H12 C12 1_555 1_555
C13 C12 1_555 1_555
H13 C13 1_555 1_555
C14 C13 1_555 1_555
H14 C14 1_555 1_555
C15 C14 1_555 1_555
H15 C15 1_555 1_555
C16 C11 1_555 1_555
H16 C16 1_555 1_555
C17 N2 1_555 1_555
C18 N2 1_555 1_555
C19 C18 1_555 1_555
H17 C19 1_555 1_555
H18 C19 1_555 1_555
H19 C19 1_555 1_555
C20 C18 1_555 1_555
H20 C20 1_555 1_555
H21 C20 1_555 1_555
H22 C20 1_555 1_555
C21 C18 1_555 1_555
H23 C21 1_555 1_555
H24 C21 1_555 1_555
H25 C21 1_555 1_555
Br2 C31 1_555 1_555
O2 C38 1_555 1_555
N3 C22 1_555 1_555
N4 H26 1_555 1_555
C22 H27 1_555 1_555
C23 C22 1_555 1_555
H28 C23 1_555 1_555
H29 C23 1_555 1_555
C24 C23 1_555 1_555
H30 C24 1_555 1_555
H31 C24 1_555 1_555
C25 N3 1_555 1_555
H32 C25 1_555 1_555
C26 C22 1_555 1_555
C27 C26 1_555 1_555
H33 C27 1_555 1_555
C28 C27 1_555 1_555
H34 C28 1_555 1_555
C29 C28 1_555 1_555
H35 C29 1_555 1_555
C30 C29 1_555 1_555
H36 C30 1_555 1_555
C31 C26 1_555 1_555
C32 N3 1_555 1_555
C33 C32 1_555 1_555
H37 C33 1_555 1_555
C34 C33 1_555 1_555
H38 C34 1_555 1_555
C35 C34 1_555 1_555
H39 C35 1_555 1_555
C36 C35 1_555 1_555
H40 C36 1_555 1_555
C37 C32 1_555 1_555
H41 C37 1_555 1_555
C38 N4 1_555 1_555
C39 N4 1_555 1_555
C40 C39 1_555 1_555
H42 C40 1_555 1_555
H43 C40 1_555 1_555
H44 C40 1_555 1_555
C41 C39 1_555 1_555
H45 C41 1_555 1_555
H46 C41 1_555 1_555
H47 C41 1_555 1_555
C42 C39 1_555 1_555
H48 C42 1_555 1_555
H49 C42 1_555 1_555
H50 C42 1_555 1_555
C3 C4 1_555 1_555
C4 C17 1_555 1_555
C9 C10 1_555 1_555
C15 C16 1_555 1_555
C24 C25 1_555 1_555
C25 C38 1_555 1_555
C30 C31 1_555 1_555
C36 C37 1_555 1_555

#END
