
#######################################################################
#
#                 Cambridge Crystallographic Data Centre
#                                CCDC 
#
#######################################################################
#
# If this CIF has been generated from an entry in the Cambridge 
# Structural Database, then it will include bibliographic, chemical, 
# crystal, experimental, refinement or atomic coordinate data resulting 
# from the CCDC's data processing and validation procedures.
#
#######################################################################

data_WEBGAN
_chemical_formula_moiety         'C36 H40 N8 O4 2+,2(F6 P1 1-),3(C2 H3 N1)'
_chemical_name_systematic        
'14,17,28,31-Tetraoxa-8,11,34,35,36,46-hexaaza-5,40-diazoniaheptacyclo[38.2.2.2^2,5^.1^8,11^.1^34,37^.0^18,23^.0^22,27^]octatetraconta-1(42),2,4,9,11(46),18,20,22,24,26,34(45),35,37,40,43,47-hexadecaene bis(hexafluorophosphate) acetonitrile solvate'
_symmetry_cell_setting           monoclinic
_symmetry_space_group_name_H-M   'P 21/c'
_symmetry_Int_Tables_number      14
_space_group_name_Hall           '-P 2ybc'
loop_
_symmetry_equiv_pos_site_id
_symmetry_equiv_pos_as_xyz
1 x,y,z
2 -x,1/2+y,1/2-z
3 -x,-y,-z
4 x,1/2-y,1/2+z
_cell_length_a                   14.4526(7)
_cell_length_b                   26.2634(15)
_cell_length_c                   13.1445(8)
_cell_angle_alpha                90
_cell_angle_beta                 106.054(4)
_cell_angle_gamma                90
_cell_volume                     4794.74
_exptl_crystal_colour            red
_exptl_crystal_description       plate
_cell_formula_units_Z            4
loop_
_atom_site_label
_atom_site_type_symbol
_atom_site_fract_x
_atom_site_fract_y
_atom_site_fract_z
O1 O 0.73052(16) 0.64149(10) 0.4578(2)
O2 O 0.86971(17) 0.57490(10) 0.5584(2)
O3 O 0.44395(17) 0.92816(10) 0.3300(2)
O4 O 0.57341(16) 0.85209(10) 0.4360(2)
N1 N 1.03673(19) 0.63746(11) 0.5794(2)
N2 N 1.0543(2) 0.64602(14) 0.4848(3)
N3 N 1.0487(2) 0.69867(13) 0.4739(3)
N4 N 0.90266(18) 0.72410(11) 0.2598(2)
N5 N 0.40105(19) 0.75349(13) 0.1365(2)
N6 N 0.28453(19) 0.78847(12) 0.3811(2)
N7 N 0.2933(2) 0.83344(13) 0.4267(2)
N8 N 0.2850(2) 0.86837(12) 0.3509(3)
C1 C 0.6571(2) 0.67547(14) 0.4476(3)
C2 C 0.6874(2) 0.72728(14) 0.4564(3)
C3 C 0.7864(2) 0.74087(14) 0.4800(3)
H1 H 0.8344 0.7151 0.4920
C4 C 0.8122(2) 0.79082(14) 0.4851(3)
H2 H 0.8784 0.7996 0.5000
C5 C 0.7426(2) 0.83001(15) 0.4687(3)
H3 H 0.7618 0.8647 0.4712
C6 C 0.6465(2) 0.81748(14) 0.4492(3)
C7 C 0.6164(2) 0.76603(14) 0.4416(3)
C8 C 0.5174(2) 0.75187(15) 0.4199(3)
H4 H 0.4692 0.7774 0.4087
C9 C 0.4919(2) 0.70165(15) 0.4150(3)
H5 H 0.4260 0.6928 0.4022
C10 C 0.5612(2) 0.66259(15) 0.4287(3)
H6 H 0.5421 0.6279 0.4250
C11 C 0.7095(3) 0.58829(14) 0.4549(3)
H7 H 0.6608 0.5795 0.3880
H8 H 0.6841 0.5788 0.5149
C12 C 0.8017(3) 0.56066(15) 0.4623(3)
H9 H 0.7908 0.5234 0.4612
H10 H 0.8262 0.5697 0.4014
C13 C 0.9619(2) 0.55327(14) 0.5688(3)
H11 H 0.9721 0.5481 0.4981
H12 H 0.9668 0.5198 0.6046
C14 C 1.0367(2) 0.58922(14) 0.6332(3)
H13 H 1.0238 0.5954 0.7024
H14 H 1.1011 0.5733 0.6469
C15 C 1.0216(2) 0.68118(12) 0.6237(2)
H15 H 1.0082 0.6848 0.6901
C16 C 1.02859(19) 0.71838(12) 0.5597(3)
H16 H 1.0207 0.7536 0.5720
C17 C 1.0658(2) 0.73161(14) 0.3884(3)
H17 H 1.1352 0.7305 0.3924
H18 H 1.0496 0.7672 0.4015
C18 C 1.0084(2) 0.71670(15) 0.2770(3)
H19 H 1.0301 0.7375 0.2251
H20 H 1.0212 0.6805 0.2646
C19 C 0.8457(2) 0.68373(14) 0.2582(3)
H21 H 0.8736 0.6509 0.2726
C20 C 0.7481(2) 0.68898(14) 0.2362(3)
H22 H 0.7088 0.6599 0.2349
C21 C 0.7059(2) 0.73731(14) 0.2156(3)
C22 C 0.7672(2) 0.77884(14) 0.2194(3)
H23 H 0.7412 0.8122 0.2064
C23 C 0.8652(2) 0.77163(14) 0.2421(3)
H24 H 0.9066 0.8000 0.2453
C24 C 0.5990(2) 0.74342(14) 0.1888(3)
C25 C 0.5390(2) 0.70091(15) 0.1687(3)
H25 H 0.5660 0.6677 0.1724
C26 C 0.4408(2) 0.70690(15) 0.1434(3)
H26 H 0.4004 0.6777 0.1307
C27 C 0.4575(2) 0.79549(15) 0.1559(3)
H27 H 0.4286 0.8282 0.1510
C28 C 0.5566(2) 0.79132(15) 0.1826(3)
H28 H 0.5956 0.8210 0.1967
C29 C 0.2940(2) 0.75782(18) 0.1077(3)
H29 H 0.2653 0.7320 0.0533
H30 H 0.2746 0.7919 0.0769
C30 C 0.2555(2) 0.75024(16) 0.2029(3)
H31 H 0.2248 0.7198 0.2151
C31 C 0.2700(2) 0.79486(15) 0.2756(3)
C32 C 0.2699(2) 0.84617(15) 0.2559(3)
H32 H 0.2610 0.8624 0.1894
C33 C 0.2927(3) 0.92240(16) 0.3782(4)
H33 H 0.3221 0.9261 0.4553
H34 H 0.2274 0.9374 0.3609
C34 C 0.3528(3) 0.95119(16) 0.3194(4)
H35 H 0.3172 0.9529 0.2434
H36 H 0.3626 0.9865 0.3468
C35 C 0.5087(3) 0.93502(16) 0.4312(3)
H37 H 0.4784 0.9235 0.4862
H38 H 0.5248 0.9716 0.4431
C36 C 0.5988(3) 0.90485(15) 0.4390(3)
H39 H 0.6253 0.9133 0.3792
H40 H 0.6481 0.9128 0.5060
P1 P 0.88424(7) 0.54699(4) 0.16369(9)
F1 F 0.95247(16) 0.57261(9) 0.2686(2)
F2 F 0.81343(18) 0.52207(10) 0.0599(2)
F3 F 0.90411(17) 0.59397(11) 0.0975(2)
F4 F 0.79372(15) 0.57681(9) 0.1826(2)
F5 F 0.8626(2) 0.50177(10) 0.2344(2)
F6 F 0.9728(2) 0.51692(12) 0.1469(3)
P2 P 0.28652(7) 0.58739(4) 0.43873(9)
F7 F 0.2468(2) 0.58092(10) 0.5399(2)
F8 F 0.3264(2) 0.59500(13) 0.3395(3)
F9 F 0.31123(17) 0.52811(9) 0.4427(2)
F10 F 0.18207(18) 0.57712(12) 0.3654(2)
F11 F 0.26324(19) 0.64707(10) 0.4389(3)
F12 F 0.39140(18) 0.59817(12) 0.5133(3)
N9 N 0.6946(2) 0.59815(14) 0.7158(3)
C37 C 0.7578(3) 0.57151(15) 0.7481(3)
C38 C 0.8388(3) 0.53729(18) 0.7908(4)
H41 H 0.8426 0.5292 0.8646
H42 H 0.8986 0.5538 0.7874
H43 H 0.8296 0.5058 0.7491
N10 N 0.4840(4) 0.57131(19) 0.1875(4)
C39 C 0.4839(3) 0.54164(19) 0.2506(4)
C40 C 0.4862(3) 0.50429(18) 0.3340(4)
H44 H 0.5519 0.4913 0.3620
H45 H 0.4427 0.4760 0.3047
H46 H 0.4655 0.5206 0.3912
N11 N 0.0183(4) 0.86597(17) 0.3937(4)
C41 C 0.0658(4) 0.88315(18) 0.4694(4)
C42 C 0.1268(4) 0.9058(3) 0.5645(5)
H47 H 0.1831 0.8840 0.5929
H48 H 0.0907 0.9092 0.6172
H49 H 0.1480 0.9395 0.5480
loop_
_geom_bond_atom_site_label_1
_geom_bond_atom_site_label_2
_geom_bond_site_symmetry_1
_geom_bond_site_symmetry_2
O1 C1 1_555 1_555
O2 C12 1_555 1_555
O3 C34 1_555 1_555
O4 C6 1_555 1_555
N1 N2 1_555 1_555
N2 N3 1_555 1_555
N3 C16 1_555 1_555
N4 C18 1_555 1_555
N5 C26 1_555 1_555
N6 N7 1_555 1_555
N7 N8 1_555 1_555
N8 C32 1_555 1_555
C1 C2 1_555 1_555
C2 C3 1_555 1_555
C3 H1 1_555 1_555
C4 C3 1_555 1_555
H2 C4 1_555 1_555
C5 C4 1_555 1_555
H3 C5 1_555 1_555
C6 C5 1_555 1_555
C7 C2 1_555 1_555
C8 C7 1_555 1_555
H4 C8 1_555 1_555
C9 C8 1_555 1_555
H5 C9 1_555 1_555
C10 C1 1_555 1_555
H6 C10 1_555 1_555
C11 O1 1_555 1_555
H7 C11 1_555 1_555
H8 C11 1_555 1_555
C12 C11 1_555 1_555
H9 C12 1_555 1_555
H10 C12 1_555 1_555
C13 O2 1_555 1_555
H11 C13 1_555 1_555
H12 C13 1_555 1_555
C14 N1 1_555 1_555
H13 C14 1_555 1_555
H14 C14 1_555 1_555
C15 N1 1_555 1_555
H15 C15 1_555 1_555
C16 C15 1_555 1_555
H16 C16 1_555 1_555
C17 N3 1_555 1_555
H17 C17 1_555 1_555
H18 C17 1_555 1_555
C18 C17 1_555 1_555
H19 C18 1_555 1_555
H20 C18 1_555 1_555
C19 N4 1_555 1_555
H21 C19 1_555 1_555
C20 C19 1_555 1_555
H22 C20 1_555 1_555
C21 C20 1_555 1_555
C22 C21 1_555 1_555
H23 C22 1_555 1_555
C23 N4 1_555 1_555
H24 C23 1_555 1_555
C24 C21 1_555 1_555
C25 C24 1_555 1_555
H25 C25 1_555 1_555
C26 C25 1_555 1_555
H26 C26 1_555 1_555
C27 N5 1_555 1_555
H27 C27 1_555 1_555
C28 C24 1_555 1_555
H28 C28 1_555 1_555
C29 N5 1_555 1_555
H29 C29 1_555 1_555
H30 C29 1_555 1_555
C30 C29 1_555 1_555
H31 C30 1_555 1_555
C31 N6 1_555 1_555
C32 C31 1_555 1_555
H32 C32 1_555 1_555
C33 N8 1_555 1_555
H33 C33 1_555 1_555
H34 C33 1_555 1_555
C34 C33 1_555 1_555
H35 C34 1_555 1_555
H36 C34 1_555 1_555
C35 O3 1_555 1_555
H37 C35 1_555 1_555
H38 C35 1_555 1_555
C36 O4 1_555 1_555
H39 C36 1_555 1_555
H40 C36 1_555 1_555
P1 F1 1_555 1_555
F2 P1 1_555 1_555
F3 P1 1_555 1_555
F4 P1 1_555 1_555
F5 P1 1_555 1_555
F6 P1 1_555 1_555
P2 F7 1_555 1_555
F8 P2 1_555 1_555
F9 P2 1_555 1_555
F10 P2 1_555 1_555
F11 P2 1_555 1_555
F12 P2 1_555 1_555
N9 C37 1_555 1_555
C37 C38 1_555 1_555
C38 H41 1_555 1_555
H42 C38 1_555 1_555
H43 C38 1_555 1_555
N10 C39 1_555 1_555
C39 C40 1_555 1_555
C40 H44 1_555 1_555
H45 C40 1_555 1_555
H46 C40 1_555 1_555
N11 C41 1_555 1_555
C41 C42 1_555 1_555
C42 H47 1_555 1_555
H48 C42 1_555 1_555
H49 C42 1_555 1_555
C6 C7 1_555 1_555
C9 C10 1_555 1_555
C13 C14 1_555 1_555
C22 C23 1_555 1_555
C27 C28 1_555 1_555
C30 C31 1_555 1_555
C35 C36 1_555 1_555

#END
