
#######################################################################
#
#                 Cambridge Crystallographic Data Centre
#                                CCDC 
#
#######################################################################
#
# If this CIF has been generated from an entry in the Cambridge 
# Structural Database, then it will include bibliographic, chemical, 
# crystal, experimental, refinement or atomic coordinate data resulting 
# from the CCDC's data processing and validation procedures.
#
#######################################################################

data_WEBGIV
_chemical_formula_moiety         
'C36 H40 N8 O4 2+,C36 H32 N4 4+,6(F6 P1 1-),2(C3 H6 O1)'
_chemical_name_systematic        
'26-Aza-5,12,19-triazoniaheptacyclo[24.2.2.2^2,5^.2^7,10^.2^12,15^.2^16,19^.2^21,24^]tetraconta-1(28),2,4,7,9,12,14,16,18,21,23,26,29,31,33,35,37,39-octadecaene hexafluorophosphate 14,17,28,31-tetraoxa-5,9,10,11,34,35,36,40-octaazaheptacyclo[38.2.2.2^2,5^.1^8,11^.1^34,37^.0^18,23^.0^22,27^]octatetraconta-1(42),2,4,8(46),9,18,20,22,24,26,35,37(45),40,43,47-pentadecaene hexakis(hexafluorophosphate) acetone solvate'
_symmetry_cell_setting           monoclinic
_symmetry_space_group_name_H-M   'P 21/n'
_symmetry_Int_Tables_number      14
_space_group_name_Hall           '-P 2yn'
loop_
_symmetry_equiv_pos_site_id
_symmetry_equiv_pos_as_xyz
1 x,y,z
2 1/2-x,1/2+y,1/2-z
3 -x,-y,-z
4 1/2+x,1/2-y,1/2+z
_cell_length_a                   32.7648(17)
_cell_length_b                   11.0431(6)
_cell_length_c                   33.1123(16)
_cell_angle_alpha                90
_cell_angle_beta                 117.905(3)
_cell_angle_gamma                90
_cell_volume                     10587.8
_exptl_crystal_colour            violet
_exptl_crystal_description       plate
_cell_formula_units_Z            4
loop_
_atom_site_label
_atom_site_type_symbol
_atom_site_fract_x
_atom_site_fract_y
_atom_site_fract_z
O1 O 0.43243(15) 0.3301(5) 0.25988(14)
O2 O 0.4503(3) 0.1239(8) 0.3211(3)
O3 O 0.41056(16) 0.4809(4) 0.07758(13)
O4 O 0.47968(16) 0.3349(4) 0.05899(14)
N1 N 0.4970(2) -0.1008(7) 0.3589(3)
N2 N 0.5110(2) -0.1065(6) 0.32848(19)
N3 N 0.5541(2) -0.1426(5) 0.3480(2)
N4 N 0.6646(2) -0.0495(6) 0.41759(19)
N5 N 0.56823(19) 0.2328(5) 0.11307(18)
N6 N 0.5685(2) 0.2054(6) 0.15190(19)
N7 N 0.60309(19) 0.2676(5) 0.18429(19)
N8 N 0.70708(18) 0.2685(6) 0.2588(2)
C1 C 0.4079(2) 0.3781(6) 0.2168(2)
C2 C 0.3612(2) 0.4016(6) 0.1967(2)
H1 H 0.3438 0.3877 0.2125
C3 C 0.3399(3) 0.4477(7) 0.1510(3)
H2 H 0.3081 0.4691 0.1373
C4 C 0.5064(2) 0.4018(6) 0.19104(19)
H3 H 0.5391 0.3947 0.2063
C5 C 0.3627(2) 0.4621(6) 0.1267(2)
H4 H 0.3465 0.4877 0.0957
C6 C 0.4111(2) 0.4390(6) 0.1471(2)
C7 C 0.4085(3) 0.3068(8) 0.2848(3)
H5 H 0.3816 0.2542 0.2668
H6 H 0.3972 0.3837 0.2913
C8 C 0.4411(3) 0.2443(10) 0.3297(3)
H7 H 0.4703 0.2902 0.3451
H8 H 0.4267 0.2426 0.3502
C9 C 0.4408(7) 0.045(3) 0.3517(12)
H9 H 0.4088 0.0578 0.3466
H10 H 0.4624 0.0635 0.3841
C10 C 0.4473(8) -0.085(2) 0.3401(12)
H11 H 0.4345 -0.1429 0.3540
H12 H 0.4316 -0.0973 0.3066
C11 C 0.5678(2) -0.1610(7) 0.3931(2)
C12 C 0.5312(4) -0.1312(10) 0.3989(3)
H13 H 0.5301 -0.1319 0.4270
C13 C 0.6144(3) -0.2117(7) 0.4232(2)
H14 H 0.6239 -0.2614 0.4042
H15 H 0.6120 -0.2665 0.4456
C14 C 0.6525(3) -0.1181(7) 0.4494(3)
H16 H 0.6419 -0.0609 0.4655
H17 H 0.6804 -0.1600 0.4726
C15 C 0.6547(2) 0.0682(6) 0.4104(2)
H18 H 0.6397 0.1066 0.4255
C16 C 0.6653(2) 0.1349(6) 0.38211(19)
H19 H 0.6586 0.2191 0.3781
C17 C 0.6866(2) 0.0769(7) 0.3589(2)
C18 C 0.6980(3) -0.0435(7) 0.3688(3)
H20 H 0.7141 -0.0845 0.3554
C19 C 0.6862(3) -0.1045(7) 0.3979(3)
H21 H 0.6937 -0.1879 0.4039
C20 C 0.4367(2) 0.4515(5) 0.12318(19)
C21 C 0.4837(2) 0.4353(5) 0.1448(2)
H22 H 0.5007 0.4467 0.1285
C22 C 0.4820(2) 0.3792(6) 0.21445(19)
H23 H 0.4975 0.3509 0.2451
C23 C 0.4341(2) 0.3981(5) 0.19291(19)
C24 C 0.4341(3) 0.5148(7) 0.0513(2)
H24 H 0.4636 0.5552 0.0720
H25 H 0.4148 0.5745 0.0278
C25 C 0.4444(3) 0.4118(7) 0.0283(2)
H26 H 0.4159 0.3636 0.0112
H27 H 0.4536 0.4445 0.0059
C26 C 0.5004(3) 0.2673(8) 0.0373(2)
H28 H 0.5173 0.3225 0.0268
H29 H 0.4762 0.2255 0.0102
C27 C 0.5332(2) 0.1757(7) 0.0699(2)
H30 H 0.5154 0.1148 0.0772
H31 H 0.5492 0.1332 0.0550
C28 C 0.6242(2) 0.3327(6) 0.1653(2)
C29 C 0.6024(2) 0.3103(7) 0.1189(2)
H32 H 0.6097 0.3420 0.0964
C30 C 0.6652(3) 0.4079(8) 0.1936(2)
H33 H 0.6582 0.4582 0.2143
H34 H 0.6707 0.4636 0.1732
C31 C 0.7095(2) 0.3382(9) 0.2222(3)
H35 H 0.7155 0.2822 0.2022
H36 H 0.7357 0.3958 0.2359
C32 C 0.7123(2) 0.3245(8) 0.2969(2)
H37 H 0.7202 0.4080 0.3009
C33 C 0.7066(2) 0.2660(6) 0.3302(2)
H38 H 0.7101 0.3086 0.3566
C34 C 0.6956(2) 0.1436(7) 0.3252(2)
C35 C 0.6917(2) 0.0871(7) 0.2861(3)
H39 H 0.6850 0.0029 0.2821
C36 C 0.6970(2) 0.1489(8) 0.2537(3)
H40 H 0.6938 0.1080 0.2271
N9 N 0.50196(18) 0.0604(5) 0.22142(16)
N10 N 0.2976(2) 0.2562(5) 0.03451(18)
N11 N 0.3418(2) 0.7914(5) 0.11616(17)
N12 N 0.54264(19) 0.5901(5) 0.30548(18)
C37 C 0.5022(2) 0.0944(6) 0.1833(2)
H41 H 0.5307 0.0986 0.1825
C38 C 0.4614(2) 0.1243(6) 0.1441(2)
H42 H 0.4622 0.1478 0.1169
C39 C 0.4203(2) 0.1191(5) 0.14572(19)
C40 C 0.4212(2) 0.0831(6) 0.1868(2)
H43 H 0.3934 0.0793 0.1891
C41 C 0.4627(2) 0.0534(6) 0.2236(2)
H44 H 0.4632 0.0274 0.2511
C42 C 0.3763(3) 0.1593(6) 0.1053(2)
C43 C 0.3753(3) 0.1960(7) 0.0649(2)
H45 H 0.4020 0.1878 0.0609
C44 C 0.3356(3) 0.2442(7) 0.0307(2)
H46 H 0.3355 0.2699 0.0033
C45 C 0.2963(3) 0.2125(7) 0.0723(2)
H47 H 0.2682 0.2146 0.0740
C46 C 0.3350(2) 0.1656(7) 0.1076(2)
H48 H 0.3339 0.1369 0.1341
C47 C 0.2567(3) 0.3256(7) 0.0005(2)
H49 H 0.2543 0.3173 -0.0303
H50 H 0.2281 0.2929 -0.0005
C48 C 0.2622(2) 0.4553(7) 0.0140(2)
C49 C 0.2445(2) 0.4988(7) 0.0426(2)
H51 H 0.2251 0.4481 0.0495
C50 C 0.2547(2) 0.6135(7) 0.0606(2)
H52 H 0.2437 0.6411 0.0809
C51 C 0.2814(2) 0.6886(7) 0.0487(2)
C52 C 0.2957(2) 0.6521(6) 0.0181(2)
H53 H 0.3120 0.7071 0.0088
C53 C 0.2867(2) 0.5350(7) 0.0000(2)
H54 H 0.2968 0.5096 -0.0212
C54 C 0.2975(2) 0.8104(7) 0.0734(2)
H55 H 0.3022 0.8692 0.0533
H56 H 0.2738 0.8433 0.0809
C55 C 0.3813(2) 0.7899(6) 0.1148(2)
H57 H 0.3816 0.8093 0.0870
C56 C 0.4218(2) 0.7611(6) 0.1524(2)
H58 H 0.4500 0.7616 0.1508
C57 C 0.4215(2) 0.7309(6) 0.1931(2)
C58 C 0.3800(2) 0.7355(7) 0.1939(2)
H59 H 0.3789 0.7165 0.2213
C59 C 0.3398(2) 0.7676(7) 0.1551(2)
H60 H 0.3113 0.7727 0.1560
C60 C 0.4651(2) 0.6883(6) 0.2337(2)
C61 C 0.5080(2) 0.7039(6) 0.2365(2)
H61 H 0.5114 0.7501 0.2140
C62 C 0.5465(2) 0.6516(6) 0.2725(2)
H62 H 0.5760 0.6596 0.2737
C63 C 0.5019(2) 0.5820(6) 0.3051(2)
H63 H 0.4999 0.5421 0.3295
C64 C 0.4632(2) 0.6299(6) 0.2703(2)
H64 H 0.4346 0.6238 0.2709
C65 C 0.5841(2) 0.5245(7) 0.3417(2)
H65 H 0.5842 0.5296 0.3716
H66 H 0.6130 0.5612 0.3447
C66 C 0.5806(2) 0.3934(6) 0.3266(2)
C67 C 0.5587(2) 0.3102(7) 0.3396(2)
H67 H 0.5494 0.3323 0.3618
C68 C 0.5494(2) 0.1942(8) 0.32174(19)
H68 H 0.5342 0.1374 0.3317
C69 C 0.5628(2) 0.1622(6) 0.28908(19)
C70 C 0.5876(2) 0.2434(6) 0.2777(2)
H69 H 0.5989 0.2200 0.2571
C71 C 0.5962(2) 0.3593(7) 0.2961(2)
H70 H 0.6128 0.4155 0.2876
C72 C 0.5472(2) 0.0416(6) 0.2631(2)
H71 H 0.5706 0.0131 0.2543
H72 H 0.5440 -0.0206 0.2830
P1 P 0.70360(7) 0.50768(18) 0.46264(6)
F1 F 0.7109(2) 0.4218(4) 0.50460(14)
F2 F 0.7034(2) 0.3943(4) 0.43435(15)
F3 F 0.69481(18) 0.5934(4) 0.42093(15)
F4 F 0.70344(16) 0.6214(4) 0.49241(16)
F5 F 0.75772(17) 0.5195(6) 0.48222(15)
F6 F 0.64913(17) 0.4967(5) 0.44335(14)
O5 O 0.5472(2) 0.8631(5) 0.17901(19)
C73 C 0.5552(3) 0.6977(8) 0.1387(3)
H73 H 0.5849 0.6566 0.1487
H74 H 0.5383 0.6986 0.1052
H75 H 0.5370 0.6545 0.1507
C74 C 0.5632(3) 0.8212(8) 0.1557(3)
C75 C 0.5937(4) 0.8982(9) 0.1433(3)
H76 H 0.5913 0.9831 0.1507
H77 H 0.5838 0.8905 0.1106
H78 H 0.6258 0.8712 0.1608
P2 P 0.07004(6) 0.39172(19) 0.47135(6)
F7 F 0.05384(18) 0.3083(7) 0.42769(17)
F8 F 0.0807(2) 0.2744(5) 0.50238(17)
F9 F 0.0871(2) 0.4666(6) 0.5178(2)
F10 F 0.0588(2) 0.5095(7) 0.4429(3)
F11 F 0.01948(16) 0.3887(5) 0.46521(16)
F12 F 0.12068(15) 0.3970(6) 0.47697(15)
O6 O 0.1889(2) 0.3995(6) 0.6495(2)
C76 C 0.1997(3) 0.5137(7) 0.5953(3)
H79 H 0.1897 0.5824 0.6073
H80 H 0.1812 0.5106 0.5620
H81 H 0.2324 0.5234 0.6034
C77 C 0.1934(2) 0.3980(7) 0.6157(3)
C78 C 0.1949(3) 0.2844(7) 0.5909(3)
H82 H 0.1967 0.2133 0.6093
H83 H 0.2221 0.2869 0.5859
H84 H 0.1669 0.2796 0.5614
P3 P 0.67394(6) 0.69469(17) 0.27927(6)
F13 F 0.6799(3) 0.5942(7) 0.3143(3)
F14 F 0.63040(19) 0.6203(7) 0.2461(2)
F15 F 0.6697(3) 0.7908(9) 0.2435(3)
F16 F 0.71798(18) 0.7659(6) 0.3148(2)
F17 F 0.70743(16) 0.6190(4) 0.26555(17)
F18 F 0.64290(19) 0.7704(6) 0.2937(3)
P4 P 0.82912(6) 0.12155(16) 0.40669(5)
F19 F 0.86094(14) 0.2283(3) 0.43852(13)
F20 F 0.84656(14) 0.0344(4) 0.45041(13)
F21 F 0.79636(13) 0.0145(3) 0.37544(13)
F22 F 0.81126(13) 0.2070(3) 0.36290(11)
F23 F 0.87034(14) 0.0748(4) 0.39819(15)
F24 F 0.78797(14) 0.1673(4) 0.41674(11)
P5 P 0.1862(2) 0.5039(6) 0.2799(2)
F25 F 0.1763(4) 0.6437(10) 0.2877(4)
F26 F 0.1753(4) 0.5285(11) 0.2283(4)
F27 F 0.1897(4) 0.3627(10) 0.2740(4)
F28 F 0.1946(4) 0.4860(12) 0.3312(4)
F29 F 0.1326(4) 0.4774(11) 0.2650(4)
F30 F 0.2386(4) 0.5243(12) 0.2934(4)
C79? C 0.4278(12) 0.019(3) 0.3116(18)
C80? C 0.4544(14) -0.035(4) 0.3579(14)
F31? F 0.7695(6) 0.3080(16) 0.6531(6)
F32? F 0.7872(6) 0.3565(16) 0.7257(6)
F33? F 0.7822(7) 0.5704(18) 0.7095(7)
F34? F 0.7795(6) 0.5020(18) 0.6415(7)
F35? F 0.8358(7) 0.4288(18) 0.6982(7)
F36? F 0.7277(7) 0.4436(16) 0.6641(7)
H85? H 0.4311 -0.0271 0.2877
H86? H 0.3946 0.0297 0.3028
H87? H 0.4349 -0.0934 0.3639
H88? H 0.4646 0.0289 0.3816
P6? P 0.7813(4) 0.4387(9) 0.6826(4)
loop_
_geom_bond_atom_site_label_1
_geom_bond_atom_site_label_2
_geom_bond_site_symmetry_1
_geom_bond_site_symmetry_2
O1 C1 1_555 1_555
O2 C8 1_555 1_555
O3 C20 1_555 1_555
O4 C25 1_555 1_555
N1 N2 1_555 1_555
N2 N3 1_555 1_555
N3 C11 1_555 1_555
N4 C14 1_555 1_555
N5 N6 1_555 1_555
N6 N7 1_555 1_555
N7 C28 1_555 1_555
N8 C31 1_555 1_555
C1 C2 1_555 1_555
C2 H1 1_555 1_555
C3 C2 1_555 1_555
H2 C3 1_555 1_555
C4 H3 1_555 1_555
C5 C3 1_555 1_555
H4 C5 1_555 1_555
C6 C5 1_555 1_555
C7 O1 1_555 1_555
H5 C7 1_555 1_555
H6 C7 1_555 1_555
C8 C7 1_555 1_555
H7 C8 1_555 1_555
H8 C8 1_555 1_555
C9 O2 1_555 1_555
H9 C9 1_555 1_555
H10 C9 1_555 1_555
C10 N1 1_555 1_555
H11 C10 1_555 1_555
H12 C10 1_555 1_555
C11 C12 1_555 1_555
C12 N1 1_555 1_555
H13 C12 1_555 1_555
C13 C11 1_555 1_555
H14 C13 1_555 1_555
H15 C13 1_555 1_555
C14 C13 1_555 1_555
H16 C14 1_555 1_555
H17 C14 1_555 1_555
C15 N4 1_555 1_555
H18 C15 1_555 1_555
C16 C15 1_555 1_555
H19 C16 1_555 1_555
C17 C16 1_555 1_555
C18 C17 1_555 1_555
H20 C18 1_555 1_555
C19 N4 1_555 1_555
H21 C19 1_555 1_555
C20 C6 1_555 1_555
C21 C4 1_555 1_555
H22 C21 1_555 1_555
C22 C4 1_555 1_555
H23 C22 1_555 1_555
C23 C1 1_555 1_555
C24 O3 1_555 1_555
H24 C24 1_555 1_555
H25 C24 1_555 1_555
C25 C24 1_555 1_555
H26 C25 1_555 1_555
H27 C25 1_555 1_555
C26 O4 1_555 1_555
H28 C26 1_555 1_555
H29 C26 1_555 1_555
C27 N5 1_555 1_555
H30 C27 1_555 1_555
H31 C27 1_555 1_555
C28 C29 1_555 1_555
C29 N5 1_555 1_555
H32 C29 1_555 1_555
C30 C28 1_555 1_555
H33 C30 1_555 1_555
H34 C30 1_555 1_555
C31 C30 1_555 1_555
H35 C31 1_555 1_555
H36 C31 1_555 1_555
C32 N8 1_555 1_555
H37 C32 1_555 1_555
C33 C32 1_555 1_555
H38 C33 1_555 1_555
C34 C17 1_555 1_555
C35 C34 1_555 1_555
H39 C35 1_555 1_555
C36 N8 1_555 1_555
H40 C36 1_555 1_555
N9 C37 1_555 1_555
N10 C44 1_555 1_555
N11 C54 1_555 1_555
N12 C62 1_555 1_555
C37 H41 1_555 1_555
C38 C37 1_555 1_555
H42 C38 1_555 1_555
C39 C38 1_555 1_555
C40 C39 1_555 1_555
H43 C40 1_555 1_555
C41 N9 1_555 1_555
H44 C41 1_555 1_555
C42 C39 1_555 1_555
C43 C42 1_555 1_555
H45 C43 1_555 1_555
C44 C43 1_555 1_555
H46 C44 1_555 1_555
C45 N10 1_555 1_555
H47 C45 1_555 1_555
C46 C42 1_555 1_555
H48 C46 1_555 1_555
C47 N10 1_555 1_555
H49 C47 1_555 1_555
H50 C47 1_555 1_555
C48 C47 1_555 1_555
C49 C48 1_555 1_555
H51 C49 1_555 1_555
C50 C49 1_555 1_555
H52 C50 1_555 1_555
C51 C50 1_555 1_555
C52 C51 1_555 1_555
H53 C52 1_555 1_555
C53 C48 1_555 1_555
H54 C53 1_555 1_555
C54 C51 1_555 1_555
H55 C54 1_555 1_555
H56 C54 1_555 1_555
C55 N11 1_555 1_555
H57 C55 1_555 1_555
C56 C55 1_555 1_555
H58 C56 1_555 1_555
C57 C56 1_555 1_555
C58 C57 1_555 1_555
H59 C58 1_555 1_555
C59 N11 1_555 1_555
H60 C59 1_555 1_555
C60 C57 1_555 1_555
C61 C60 1_555 1_555
H61 C61 1_555 1_555
C62 C61 1_555 1_555
H62 C62 1_555 1_555
C63 N12 1_555 1_555
H63 C63 1_555 1_555
C64 C60 1_555 1_555
H64 C64 1_555 1_555
C65 N12 1_555 1_555
H65 C65 1_555 1_555
H66 C65 1_555 1_555
C66 C65 1_555 1_555
C67 C66 1_555 1_555
H67 C67 1_555 1_555
C68 C67 1_555 1_555
H68 C68 1_555 1_555
C69 C68 1_555 1_555
C70 C69 1_555 1_555
H69 C70 1_555 1_555
C71 C66 1_555 1_555
H70 C71 1_555 1_555
C72 N9 1_555 1_555
H71 C72 1_555 1_555
H72 C72 1_555 1_555
P1 F1 1_555 1_555
F2 P1 1_555 1_555
F3 P1 1_555 1_555
F4 P1 1_555 1_555
F5 P1 1_555 1_555
F6 P1 1_555 1_555
O5 C74 1_555 1_555
C73 H73 1_555 1_555
H74 C73 1_555 1_555
H75 C73 1_555 1_555
C74 C73 1_555 1_555
C75 C74 1_555 1_555
H76 C75 1_555 1_555
H77 C75 1_555 1_555
H78 C75 1_555 1_555
P2 F7 1_555 1_555
F8 P2 1_555 1_555
F9 P2 1_555 1_555
F10 P2 1_555 1_555
F11 P2 1_555 1_555
F12 P2 1_555 1_555
O6 C77 1_555 1_555
C76 H79 1_555 1_555
H80 C76 1_555 1_555
H81 C76 1_555 1_555
C77 C76 1_555 1_555
C78 C77 1_555 1_555
H82 C78 1_555 1_555
H83 C78 1_555 1_555
H84 C78 1_555 1_555
P3 F13 1_555 1_555
F14 P3 1_555 1_555
F15 P3 1_555 1_555
F16 P3 1_555 1_555
F17 P3 1_555 1_555
F18 P3 1_555 1_555
P4 F19 1_555 1_555
F20 P4 1_555 1_555
F21 P4 1_555 1_555
F22 P4 1_555 1_555
F23 P4 1_555 1_555
F24 P4 1_555 1_555
P5 F25 1_555 1_555
F26 P5 1_555 1_555
F27 P5 1_555 1_555
F28 P5 1_555 1_555
F29 P5 1_555 1_555
F30 P5 1_555 1_555
C6 C23 1_555 1_555
C9 C10 1_555 1_555
C18 C19 1_555 1_555
C20 C21 1_555 1_555
C22 C23 1_555 1_555
C26 C27 1_555 1_555
C33 C34 1_555 1_555
C35 C36 1_555 1_555
C40 C41 1_555 1_555
C45 C46 1_555 1_555
C52 C53 1_555 1_555
C58 C59 1_555 1_555
C63 C64 1_555 1_555
C69 C72 1_555 1_555
C70 C71 1_555 1_555

#END
