
#######################################################################
#
#                 Cambridge Crystallographic Data Centre
#                                CCDC 
#
#######################################################################
#
# If this CIF has been generated from an entry in the Cambridge 
# Structural Database, then it will include bibliographic, chemical, 
# crystal, experimental, refinement or atomic coordinate data resulting 
# from the CCDC's data processing and validation procedures.
#
#######################################################################

data_WEBGER
_chemical_formula_moiety         'C36 H40 N8 O4,C36 H32 N4 3+,3(F6 P1 1-)'
_chemical_name_systematic        
'26-Aza-5,12,19-triazoniaheptacyclo[24.2.2.2^2,5^.2^7,10^.2^12,15^.2^16,19^.2^21,24^]tetraconta-1(28),2,4,7,9,12,14,16,18,21,23,26,29,31,33,35,37,39-octadecaene hexafluorophosphate 14,17,28,31-tetraoxa-5,9,10,11,34,35,36,40-octaazaheptacyclo[38.2.2.2^2,5^.1^8,11^.1^34,37^.0^18,23^.0^22,27^]octatetraconta-1(42),2,4,8(46),9,18,20,22,24,26,35,37(45),40,43,47-pentadecaene tris(hexafluorophosphate)'
_symmetry_cell_setting           triclinic
_symmetry_space_group_name_H-M   'P -1'
_symmetry_Int_Tables_number      2
_space_group_name_Hall           '-P 1'
loop_
_symmetry_equiv_pos_site_id
_symmetry_equiv_pos_as_xyz
1 x,y,z
2 -x,-y,-z
_cell_length_a                   14.0583(3)
_cell_length_b                   14.1964(4)
_cell_length_c                   22.7651(6)
_cell_angle_alpha                77.4660(10)
_cell_angle_beta                 78.1360(10)
_cell_angle_gamma                86.7390(10)
_cell_volume                     4340.02
_exptl_crystal_colour            black
_exptl_crystal_description       block
_cell_formula_units_Z            2
loop_
_atom_site_label
_atom_site_type_symbol
_atom_site_fract_x
_atom_site_fract_y
_atom_site_fract_z
O1 O 0.33829(16) 0.3154(2) 0.03724(11)
O2 O 0.48349(19) 0.18395(19) 0.07450(12)
O3 O 0.12629(19) 0.6798(2) 0.07320(13)
O4 O 0.11126(18) 0.7928(2) 0.17235(12)
N1 N 0.5791(2) 0.1249(2) 0.17921(15)
N2 N 0.6319(3) 0.0778(3) 0.22039(17)
N3 N 0.5712(3) 0.0570(3) 0.27398(17)
N4 N 0.4273(2) 0.2350(2) 0.34427(13)
N5 N 0.3032(2) 0.9099(2) 0.14525(14)
N6 N 0.3442(3) 0.8489(3) 0.11029(15)
N7 N 0.4337(2) 0.8302(2) 0.12095(15)
N8 N 0.51579(19) 0.7316(2) 0.26393(12)
C1 C 0.2561(2) 0.3704(3) 0.05056(14)
C2 C 0.1652(2) 0.3318(3) 0.07446(17)
H1 H 0.1560 0.2642 0.0819
C3 C 0.0860(2) 0.3945(3) 0.08775(18)
H2 H 0.0228 0.3682 0.1030
C4 C 0.0968(2) 0.4893(3) 0.07961(17)
H3 H 0.0421 0.5292 0.0902
C5 C 0.1904(2) 0.5312(3) 0.05494(14)
C6 C 0.3269(3) 0.2131(3) 0.05172(18)
H4 H 0.2808 0.1949 0.0286
H5 H 0.3004 0.1910 0.0961
C7 C 0.4237(3) 0.1663(3) 0.03489(18)
H6 H 0.4161 0.0960 0.0396
H7 H 0.4537 0.1936 -0.0084
C8 C 0.5686(3) 0.1249(3) 0.07238(18)
H8 H 0.6073 0.1352 0.0300
H9 H 0.5511 0.0559 0.0861
C9 C 0.6262(3) 0.1535(3) 0.11481(19)
H10 H 0.6916 0.1230 0.1086
H11 H 0.6346 0.2243 0.1041
C10 C 0.4800(3) 0.0907(3) 0.26695(18)
C11 C 0.4854(3) 0.1341(3) 0.20649(18)
H12 H 0.4340 0.1644 0.1877
C12 C 0.3960(3) 0.0795(3) 0.31947(19)
H13 H 0.3862 0.0100 0.3377
H14 H 0.3367 0.1051 0.3041
C13 C 0.4092(4) 0.1316(3) 0.36952(18)
H15 H 0.3501 0.1239 0.4023
H16 H 0.4646 0.1021 0.3880
C14 C 0.3519(3) 0.2983(3) 0.33961(14)
H17 H 0.2873 0.2750 0.3516
C15 C 0.3665(2) 0.3937(3) 0.31836(13)
H18 H 0.3120 0.4361 0.3164
C16 C 0.4623(2) 0.4329(2) 0.29863(12)
C17 C 0.5384(2) 0.3623(2) 0.29994(14)
H19 H 0.6037 0.3824 0.2845
C18 C 0.5203(3) 0.2676(3) 0.32254(15)
H20 H 0.5731 0.2228 0.3234
C19 C 0.2057(3) 0.6306(3) 0.04875(15)
C20 C 0.2964(3) 0.6688(3) 0.02273(16)
H21 H 0.3055 0.7363 0.0163
C21 C 0.3748(2) 0.6091(3) 0.00577(14)
H22 H 0.4368 0.6367 -0.0122
C22 C 0.3643(2) 0.5116(3) 0.01443(14)
H23 H 0.4189 0.4718 0.0037
C23 C 0.2709(2) 0.4700(3) 0.03968(13)
C24 C 0.0642(3) 0.8084(3) 0.1214(2)
H24 H 0.0447 0.8772 0.1113
H25 H 0.0045 0.7693 0.1325
C25 C 0.1276(4) 0.7825(3) 0.0671(2)
H26 H 0.1043 0.8152 0.0295
H27 H 0.1948 0.8037 0.0637
C26 C 0.1278(3) 0.8783(3) 0.1914(2)
H28 H 0.1500 0.8602 0.2309
H29 H 0.0655 0.9142 0.1985
C27 C 0.2022(3) 0.9444(3) 0.1456(2)
H30 H 0.1884 0.9505 0.1040
H31 H 0.1953 1.0093 0.1554
C28 C 0.4480(3) 0.8823(3) 0.16175(16)
C29 C 0.3651(3) 0.9318(3) 0.17766(18)
H32 H 0.3532 0.9735 0.2059
C30 C 0.5432(3) 0.8784(3) 0.1832(2)
H33 H 0.5687 0.9446 0.1745
H34 H 0.5908 0.8398 0.1594
C31 C 0.5351(3) 0.8352(3) 0.25111(19)
H35 H 0.5963 0.8455 0.2638
H36 H 0.4817 0.8679 0.2752
C32 C 0.5907(2) 0.6679(2) 0.25342(14)
H37 H 0.6552 0.6914 0.2396
C33 C 0.5755(2) 0.5724(2) 0.26213(12)
H38 H 0.6294 0.5302 0.2544
C34 C 0.4795(2) 0.5335(2) 0.28291(12)
C35 C 0.4039(2) 0.6039(2) 0.29021(12)
H39 H 0.3382 0.5834 0.3016
C36 C 0.4225(2) 0.6978(2) 0.28145(14)
H40 H 0.3700 0.7421 0.2875
N9 N 0.20350(16) 0.5106(2) 0.19794(11)
N10 N 0.71360(16) 0.5065(2) 0.11193(10)
N11 N 0.74344(16) 0.5278(2) 0.38269(11)
N12 N 0.23269(17) 0.5157(2) 0.47153(11)
C37 C 0.2509(2) 0.4254(2) 0.19675(13)
H41 H 0.2147 0.3675 0.2079
C38 C 0.3501(2) 0.4208(2) 0.17973(12)
H42 H 0.3817 0.3600 0.1789
C39 C 0.40585(19) 0.5057(2) 0.16346(12)
C40 C 0.3527(2) 0.5932(2) 0.16396(12)
H43 H 0.3864 0.6526 0.1517
C41 C 0.2540(2) 0.5937(2) 0.18176(13)
H44 H 0.2201 0.6533 0.1828
C42 C 0.51044(19) 0.5052(2) 0.14614(12)
C43 C 0.5672(2) 0.4188(2) 0.14987(13)
H45 H 0.5358 0.3582 0.1639
C44 C 0.6666(2) 0.4216(2) 0.13355(13)
H46 H 0.7031 0.3629 0.1375
C45 C 0.6621(2) 0.5910(2) 0.10702(12)
H47 H 0.6955 0.6504 0.0919
C46 C 0.5631(2) 0.5916(2) 0.12347(13)
H48 H 0.5289 0.6516 0.1196
C47 C 0.82133(19) 0.5087(3) 0.10447(13)
H49 H 0.8478 0.5652 0.0726
H50 H 0.8511 0.4495 0.0918
C48 C 0.84391(18) 0.5151(2) 0.16579(13)
C49 C 0.85116(19) 0.4304(2) 0.20983(13)
H51 H 0.8518 0.3692 0.1992
C50 C 0.85739(19) 0.4364(3) 0.26917(14)
H52 H 0.8632 0.3791 0.2989
C51 C 0.85521(18) 0.5252(2) 0.28529(13)
C52 C 0.85285(19) 0.6102(2) 0.24040(14)
H53 H 0.8551 0.6714 0.2506
C53 C 0.84727(19) 0.6042(2) 0.18120(14)
H54 H 0.8457 0.6617 0.1508
C54 C 0.8479(2) 0.5315(3) 0.35190(14)
H55 H 0.8841 0.4770 0.3729
H56 H 0.8766 0.5925 0.3539
C55 C 0.6915(2) 0.6111(3) 0.38545(13)
H57 H 0.7242 0.6711 0.3737
C56 C 0.5929(2) 0.6098(3) 0.40492(13)
H58 H 0.5587 0.6689 0.4074
C57 C 0.5403(2) 0.5231(2) 0.42143(12)
C58 C 0.5980(2) 0.4378(2) 0.41851(12)
H59 H 0.5674 0.3768 0.4300
C59 C 0.6964(2) 0.4424(3) 0.39950(13)
H60 H 0.7330 0.3843 0.3980
C60 C 0.4367(2) 0.5199(3) 0.43963(12)
C61 C 0.3787(2) 0.6048(3) 0.44151(14)
H61 H 0.4094 0.6657 0.4320
C62 C 0.2793(2) 0.6007(3) 0.45680(14)
H62 H 0.2424 0.6588 0.4570
C63 C 0.2851(2) 0.4322(3) 0.47086(13)
H63 H 0.2520 0.3725 0.4813
C64 C 0.3844(2) 0.4323(3) 0.45548(13)
H64 H 0.4189 0.3729 0.4554
C65 C 0.1254(2) 0.5140(3) 0.47673(15)
H65 H 0.0949 0.5714 0.4915
H66 H 0.0983 0.4556 0.5066
C66 C 0.10375(18) 0.5140(3) 0.41449(14)
C67 C 0.0994(2) 0.6006(3) 0.37258(15)
H67 H 0.1009 0.6601 0.3850
C68 C 0.0927(2) 0.6002(3) 0.31261(14)
H68 H 0.0895 0.6596 0.2842
C69 C 0.09063(18) 0.5134(3) 0.29391(14)
C70 C 0.09065(19) 0.4276(2) 0.33652(14)
H69 H 0.0861 0.3682 0.3245
C71 C 0.09723(19) 0.4272(3) 0.39668(14)
H70 H 0.0973 0.3678 0.4256
C72 C 0.0990(2) 0.5129(3) 0.22667(14)
H71 H 0.0663 0.4556 0.2223
H72 H 0.0673 0.5714 0.2063
P1 P 0.13224(10) 0.15116(9) 0.25356(5)
F1 F 0.0351(3) 0.0997(3) 0.29077(18)
F2 F 0.1075(3) 0.1362(2) 0.19109(14)
F3 F 0.2324(2) 0.1997(2) 0.21597(13)
F4 F 0.1591(2) 0.1678(2) 0.31493(12)
F5 F 0.1881(3) 0.0483(2) 0.26184(13)
F6 F 0.07938(18) 0.2543(2) 0.24415(13)
P2 P 0.19279(7) 0.09389(10) 0.94321(6)
F7 F 0.0831(2) 0.0773(3) 0.94741(18)
F8 F 0.2072(4) 0.1147(7) 0.8722(2)
F9 F 0.3033(2) 0.1003(6) 0.9442(2)
F10 F 0.1763(2) 0.0760(3) 1.01542(15)
F11 F 0.2131(6) -0.0134(5) 0.9451(5)
F12 F 0.1743(5) 0.2012(3) 0.9429(2)
P3 P 0.5853(2) 0.1330(2) 0.50368(15)
F13 F 0.5033(7) 0.0561(6) 0.5124(6)
F14 F 0.6171(8) 0.1272(7) 0.4340(4)
F15 F 0.6686(5) 0.2088(6) 0.4935(4)
F16 F 0.5557(7) 0.1422(8) 0.5739(4)
F17 F 0.6616(6) 0.0507(6) 0.5179(4)
F18 F 0.5047(5) 0.2137(5) 0.4855(4)
P4? P 0.1166(3) 0.1889(4) 0.5514(3)
F19? F 0.1331(7) 0.2846(7) 0.5696(3)
F20? F 0.2094(9) 0.1333(14) 0.5721(8)
F21? F 0.0947(11) 0.0907(8) 0.5331(8)
F22? F 0.0266(6) 0.2359(7) 0.5308(4)
F23? F 0.1794(8) 0.2212(9) 0.4846(5)
F24? F 0.0510(7) 0.1538(9) 0.6177(5)
P5? P 0.1543(6) 0.1506(4) 0.5270(3)
F25? F 0.0689(9) 0.1047(12) 0.5065(6)
F26? F 0.0906(13) 0.2464(10) 0.5355(6)
F27? F 0.2295(14) 0.2059(12) 0.5467(10)
F28? F 0.2223(10) 0.0655(10) 0.5147(9)
F29? F 0.1876(12) 0.2035(12) 0.4577(6)
F30? F 0.1134(12) 0.0941(9) 0.5941(5)
loop_
_geom_bond_atom_site_label_1
_geom_bond_atom_site_label_2
_geom_bond_site_symmetry_1
_geom_bond_site_symmetry_2
O1 C1 1_555 1_555
O2 C7 1_555 1_555
O3 C19 1_555 1_555
O4 C24 1_555 1_555
N1 N2 1_555 1_555
N2 N3 1_555 1_555
N3 C10 1_555 1_555
N4 C13 1_555 1_555
N5 N6 1_555 1_555
N6 N7 1_555 1_555
N7 C28 1_555 1_555
N8 C31 1_555 1_555
C1 C2 1_555 1_555
C2 H1 1_555 1_555
C3 C2 1_555 1_555
H2 C3 1_555 1_555
C4 C3 1_555 1_555
H3 C4 1_555 1_555
C5 C4 1_555 1_555
C6 O1 1_555 1_555
H4 C6 1_555 1_555
H5 C6 1_555 1_555
C7 C6 1_555 1_555
H6 C7 1_555 1_555
H7 C7 1_555 1_555
C8 O2 1_555 1_555
H8 C8 1_555 1_555
H9 C8 1_555 1_555
C9 N1 1_555 1_555
H10 C9 1_555 1_555
H11 C9 1_555 1_555
C10 C11 1_555 1_555
C11 N1 1_555 1_555
H12 C11 1_555 1_555
C12 C10 1_555 1_555
H13 C12 1_555 1_555
H14 C12 1_555 1_555
C13 C12 1_555 1_555
H15 C13 1_555 1_555
H16 C13 1_555 1_555
C14 N4 1_555 1_555
H17 C14 1_555 1_555
C15 C14 1_555 1_555
H18 C15 1_555 1_555
C16 C15 1_555 1_555
C17 C16 1_555 1_555
H19 C17 1_555 1_555
C18 N4 1_555 1_555
H20 C18 1_555 1_555
C19 C5 1_555 1_555
C20 C19 1_555 1_555
H21 C20 1_555 1_555
C21 C20 1_555 1_555
H22 C21 1_555 1_555
C22 C21 1_555 1_555
H23 C22 1_555 1_555
C23 C1 1_555 1_555
C24 H24 1_555 1_555
H25 C24 1_555 1_555
C25 O3 1_555 1_555
H26 C25 1_555 1_555
H27 C25 1_555 1_555
C26 O4 1_555 1_555
H28 C26 1_555 1_555
H29 C26 1_555 1_555
C27 N5 1_555 1_555
H30 C27 1_555 1_555
H31 C27 1_555 1_555
C28 C29 1_555 1_555
C29 N5 1_555 1_555
H32 C29 1_555 1_555
C30 C28 1_555 1_555
H33 C30 1_555 1_555
H34 C30 1_555 1_555
C31 C30 1_555 1_555
H35 C31 1_555 1_555
H36 C31 1_555 1_555
C32 N8 1_555 1_555
H37 C32 1_555 1_555
C33 C32 1_555 1_555
H38 C33 1_555 1_555
C34 C16 1_555 1_555
C35 C34 1_555 1_555
H39 C35 1_555 1_555
C36 N8 1_555 1_555
H40 C36 1_555 1_555
N9 C37 1_555 1_555
N10 C44 1_555 1_555
N11 C54 1_555 1_555
N12 C62 1_555 1_555
C37 H41 1_555 1_555
C38 C37 1_555 1_555
H42 C38 1_555 1_555
C39 C38 1_555 1_555
C40 C39 1_555 1_555
H43 C40 1_555 1_555
C41 N9 1_555 1_555
H44 C41 1_555 1_555
C42 C39 1_555 1_555
C43 C42 1_555 1_555
H45 C43 1_555 1_555
C44 C43 1_555 1_555
H46 C44 1_555 1_555
C45 N10 1_555 1_555
H47 C45 1_555 1_555
C46 C42 1_555 1_555
H48 C46 1_555 1_555
C47 N10 1_555 1_555
H49 C47 1_555 1_555
H50 C47 1_555 1_555
C48 C47 1_555 1_555
C49 C48 1_555 1_555
H51 C49 1_555 1_555
C50 C49 1_555 1_555
H52 C50 1_555 1_555
C51 C50 1_555 1_555
C52 C51 1_555 1_555
H53 C52 1_555 1_555
C53 C48 1_555 1_555
H54 C53 1_555 1_555
C54 C51 1_555 1_555
H55 C54 1_555 1_555
H56 C54 1_555 1_555
C55 N11 1_555 1_555
H57 C55 1_555 1_555
C56 C55 1_555 1_555
H58 C56 1_555 1_555
C57 C56 1_555 1_555
C58 C57 1_555 1_555
H59 C58 1_555 1_555
C59 N11 1_555 1_555
H60 C59 1_555 1_555
C60 C57 1_555 1_555
C61 C60 1_555 1_555
H61 C61 1_555 1_555
C62 C61 1_555 1_555
H62 C62 1_555 1_555
C63 N12 1_555 1_555
H63 C63 1_555 1_555
C64 C60 1_555 1_555
H64 C64 1_555 1_555
C65 N12 1_555 1_555
H65 C65 1_555 1_555
H66 C65 1_555 1_555
C66 C65 1_555 1_555
C67 C66 1_555 1_555
H67 C67 1_555 1_555
C68 C67 1_555 1_555
H68 C68 1_555 1_555
C69 C68 1_555 1_555
C70 C69 1_555 1_555
H69 C70 1_555 1_555
C71 C66 1_555 1_555
H70 C71 1_555 1_555
C72 N9 1_555 1_555
H71 C72 1_555 1_555
H72 C72 1_555 1_555
P1 F1 1_555 1_555
F2 P1 1_555 1_555
F3 P1 1_555 1_555
F4 P1 1_555 1_555
F5 P1 1_555 1_555
F6 P1 1_555 1_555
P2 F7 1_555 1_555
F8 P2 1_555 1_555
F9 P2 1_555 1_555
F10 P2 1_555 1_555
F11 P2 1_555 1_555
F12 P2 1_555 1_555
P3 F13 1_555 1_555
F14 P3 1_555 1_555
F15 P3 1_555 1_555
F16 P3 1_555 1_555
F17 P3 1_555 1_555
F18 P3 1_555 1_555
C5 C23 1_555 1_555
C8 C9 1_555 1_555
C17 C18 1_555 1_555
C22 C23 1_555 1_555
C24 C25 1_555 1_555
C26 C27 1_555 1_555
C33 C34 1_555 1_555
C35 C36 1_555 1_555
C40 C41 1_555 1_555
C45 C46 1_555 1_555
C52 C53 1_555 1_555
C58 C59 1_555 1_555
C63 C64 1_555 1_555
C69 C72 1_555 1_555
C70 C71 1_555 1_555

#END
