
#######################################################################
#
#                 Cambridge Crystallographic Data Centre
#                                CCDC 
#
#######################################################################
#
# If this CIF has been generated from an entry in the Cambridge 
# Structural Database, then it will include bibliographic, chemical, 
# crystal, experimental, refinement or atomic coordinate data resulting 
# from the CCDC's data processing and validation procedures.
#
#######################################################################

data_WEBKUL
_chemical_formula_moiety         'C18 H28 N2'
_chemical_name_systematic        
9,12-Di-t-butyl-7,10-diazatetracyclo[5.3.2.0^1,6^.0^6,8^]dodeca-9,11-diene
_symmetry_cell_setting           orthorhombic
_symmetry_space_group_name_H-M   'P 21 21 21'
_symmetry_Int_Tables_number      19
_space_group_name_Hall           'P 2ac 2ab'
loop_
_symmetry_equiv_pos_site_id
_symmetry_equiv_pos_as_xyz
1 x,y,z
2 1/2-x,-y,1/2+z
3 -x,1/2+y,1/2-z
4 1/2+x,1/2-y,-z
_cell_length_a                   9.951(2)
_cell_length_b                   11.461(2)
_cell_length_c                   15.275(3)
_cell_angle_alpha                90
_cell_angle_beta                 90
_cell_angle_gamma                90
_cell_volume                     1742.09
_cell_formula_units_Z            4
loop_
_atom_site_label
_atom_site_type_symbol
_atom_site_fract_x
_atom_site_fract_y
_atom_site_fract_z
C1 C 0.6492(8) 0.2362(8) 0.7573(7)
C2 C 0.4880(11) 0.2971(12) 0.6515(8)
C3 C 0.5174(10) 0.4017(11) 0.6958(7)
H1 H 0.5109 0.4752 0.6634
C4 C 0.6447(7) 0.3737(7) 0.7470(9)
C5 C 0.4829(15) 0.2896(15) 0.8474(8)
C6 C 0.5529(12) 0.2025(10) 0.8248(7)
H2 H 0.5443 0.1278 0.8479
C7 C 0.7874(7) 0.1863(6) 0.7487(11)
H3 H 0.8026 0.1390 0.8004
H4 H 0.7849 0.1330 0.6994
C8 C 0.9049(10) 0.2569(8) 0.7376(13)
H5 H 0.9424 0.2379 0.6807
H6 H 0.9698 0.2316 0.7810
C9 C 0.8971(7) 0.3832(8) 0.7429(13)
H7 H 0.9634 0.4083 0.7855
H8 H 0.9252 0.4139 0.6867
C10 C 0.7711(8) 0.4394(7) 0.7654(11)
H9 H 0.7667 0.5130 0.7341
H10 H 0.7730 0.4575 0.8274
C11 C 0.3670(14) 0.2841(13) 0.5867(7)
C12 C 0.2330(13) 0.3294(12) 0.6284(8)
H11 H 0.2504 0.3995 0.6609
H12 H 0.1972 0.2710 0.6669
H13 H 0.1691 0.3456 0.5829
C13 C 0.4008(11) 0.3775(13) 0.5179(8)
H14 H 0.4660 0.3471 0.4776
H15 H 0.4367 0.4453 0.5465
H16 H 0.3206 0.3985 0.4867
C14 C 0.3600(14) 0.1666(11) 0.5429(7)
H17 H 0.3644 0.1063 0.5864
H18 H 0.4341 0.1584 0.5031
H19 H 0.2771 0.1601 0.5111
C15 C 0.3710(13) 0.2983(11) 0.9135(7)
C16 C 0.2431(11) 0.3310(12) 0.8719(6)
H20 H 0.1744 0.3371 0.9158
H21 H 0.2183 0.2725 0.8300
H22 H 0.2531 0.4048 0.8429
C17 C 0.4200(11) 0.3895(10) 0.9862(6)
H23 H 0.3537 0.3946 1.0317
H24 H 0.4320 0.4648 0.9599
H25 H 0.5037 0.3636 1.0107
C18 C 0.3551(10) 0.1801(10) 0.9586(6)
H26 H 0.3227 0.1238 0.9170
H27 H 0.2920 0.1870 1.0058
H28 H 0.4404 0.1551 0.9811
N1 N 0.5217(10) 0.3972(9) 0.8023(7)
N2 N 0.5583(9) 0.2031(10) 0.6765(6)
loop_
_geom_bond_atom_site_label_1
_geom_bond_atom_site_label_2
_geom_bond_site_symmetry_1
_geom_bond_site_symmetry_2
C1 C4 1_555 1_555
C2 C3 1_555 1_555
C3 H1 1_555 1_555
C4 C3 1_555 1_555
C5 C6 1_555 1_555
C6 C1 1_555 1_555
H2 C6 1_555 1_555
C7 C1 1_555 1_555
H3 C7 1_555 1_555
H4 C7 1_555 1_555
C8 C7 1_555 1_555
H5 C8 1_555 1_555
H6 C8 1_555 1_555
C9 C8 1_555 1_555
H7 C9 1_555 1_555
H8 C9 1_555 1_555
C10 C4 1_555 1_555
H9 C10 1_555 1_555
H10 C10 1_555 1_555
C11 C2 1_555 1_555
C12 C11 1_555 1_555
H11 C12 1_555 1_555
H12 C12 1_555 1_555
H13 C12 1_555 1_555
C13 C11 1_555 1_555
H14 C13 1_555 1_555
H15 C13 1_555 1_555
H16 C13 1_555 1_555
C14 C11 1_555 1_555
H17 C14 1_555 1_555
H18 C14 1_555 1_555
H19 C14 1_555 1_555
C15 C5 1_555 1_555
C16 C15 1_555 1_555
H20 C16 1_555 1_555
H21 C16 1_555 1_555
H22 C16 1_555 1_555
C17 C15 1_555 1_555
H23 C17 1_555 1_555
H24 C17 1_555 1_555
H25 C17 1_555 1_555
C18 C15 1_555 1_555
H26 C18 1_555 1_555
H27 C18 1_555 1_555
H28 C18 1_555 1_555
N1 C3 1_555 1_555
N2 C1 1_555 1_555
C2 N2 1_555 1_555
C4 N1 1_555 1_555
C5 N1 1_555 1_555
C9 C10 1_555 1_555

#END
