
#######################################################################
#
#                 Cambridge Crystallographic Data Centre
#                                CCDC 
#
#######################################################################
#
# If this CIF has been generated from an entry in the Cambridge 
# Structural Database, then it will include bibliographic, chemical, 
# crystal, experimental, refinement or atomic coordinate data resulting 
# from the CCDC's data processing and validation procedures.
#
#######################################################################

data_WEBLIA
_chemical_formula_moiety         'C25 H33 N3 O1'
_chemical_name_systematic        
3,14-Di-t-butyl-5-phenyl-2,5,7-triazatetracyclo[5.5.2.0^1,8^.0^4,8^]tetradeca-2,13-dien-6-one
_symmetry_cell_setting           tetragonal
_symmetry_space_group_name_H-M   'I 41 c d'
_symmetry_Int_Tables_number      110
_space_group_name_Hall           'I 4bw -2c'
loop_
_symmetry_equiv_pos_site_id
_symmetry_equiv_pos_as_xyz
1 x,y,z
2 1/2-x,1/2-y,1/2+z
3 -y,1/2+x,1/4+z
4 1/2+y,-x,3/4+z
5 x,-y,1/2+z
6 1/2-x,1/2+y,z
7 -y,1/2-x,3/4+z
8 1/2+y,x,1/4+z
9 1/2+x,1/2+y,1/2+z
10 -x,-y,z
11 1/2-y,x,3/4+z
12 y,1/2-x,1/4+z
13 1/2+x,1/2-y,z
14 -x,y,1/2+z
15 1/2-y,-x,1/4+z
16 y,1/2+x,3/4+z
_cell_length_a                   23.684(3)
_cell_length_b                   23.684(3)
_cell_length_c                   16.094(3)
_cell_angle_alpha                90
_cell_angle_beta                 90
_cell_angle_gamma                90
_cell_volume                     9027.64
_cell_formula_units_Z            16
loop_
_atom_site_label
_atom_site_type_symbol
_atom_site_fract_x
_atom_site_fract_y
_atom_site_fract_z
C1 C 0.0375(3) 0.1833(3) 0.6318(5)
C2 C 0.0992(4) 0.2013(3) 0.6426(4)
H1 H 0.1253 0.1733 0.6194
C3 C 0.1011(3) 0.2560(3) 0.5947(4)
C4 C 0.0437(3) 0.3342(3) 0.6380(5)
C5 C 0.0226(3) 0.3137(3) 0.5682(5)
H2 H -0.0048 0.3324 0.5374
C6 C 0.0470(4) 0.2567(4) 0.5424(4)
C7 C 0.0524(4) 0.2463(4) 0.4526(5)
H3 H 0.0546 0.2059 0.4431
H4 H 0.0188 0.2602 0.4248
C8 C 0.1020(5) 0.2731(5) 0.4155(6)
H5 H 0.0989 0.3138 0.4204
H6 H 0.1043 0.2636 0.3570
C9 C 0.1539(5) 0.2531(4) 0.4595(6)
H7 H 0.1871 0.2674 0.4310
H8 H 0.1553 0.2122 0.4580
C10 C 0.1547(4) 0.2734(4) 0.5514(5)
H9 H 0.1869 0.2571 0.5799
H10 H 0.1584 0.3142 0.5531
C11 C 0.0269(4) 0.3844(3) 0.6867(5)
C12 C -0.0126(4) 0.4211(4) 0.6334(6)
H11 H 0.0066 0.4321 0.5834
H12 H -0.0231 0.4542 0.6642
H13 H -0.0458 0.3999 0.6195
C13 C 0.0780(3) 0.4200(3) 0.7082(6)
H14 H 0.1047 0.3975 0.7387
H15 H 0.0665 0.4515 0.7416
H16 H 0.0953 0.4335 0.6581
C14 C -0.0037(4) 0.3661(3) 0.7650(5)
H17 H -0.0353 0.3427 0.7504
H18 H -0.0169 0.3988 0.7944
H19 H 0.0217 0.3451 0.7998
C15 C 0.0112(4) 0.1361(4) 0.6802(5)
C16 C -0.0417(4) 0.1169(4) 0.6363(6)
H20 H -0.0663 0.1486 0.6278
H21 H -0.0606 0.0891 0.6696
H22 H -0.0319 0.1007 0.5836
C17 C 0.0494(4) 0.0849(4) 0.6930(6)
H23 H 0.0624 0.0715 0.6401
H24 H 0.0286 0.0555 0.7204
H25 H 0.0812 0.0955 0.7265
C18 C -0.0054(5) 0.1590(4) 0.7648(5)
H26 H 0.0277 0.1631 0.7986
H27 H -0.0312 0.1332 0.7911
H28 H -0.0234 0.1951 0.7583
C19 C 0.1035(3) 0.2756(3) 0.7370(5)
C20 C 0.1487(4) 0.1872(3) 0.7835(5)
C21 C 0.1930(3) 0.1522(4) 0.7544(5)
H29 H 0.2008 0.1499 0.6979
C22 C 0.2246(4) 0.1214(4) 0.8113(6)
H30 H 0.2537 0.0983 0.7925
C23 C 0.2140(4) 0.1246(4) 0.8919(6)
H31 H 0.2358 0.1039 0.9290
C24 C 0.1717(5) 0.1576(4) 0.9210(5)
H32 H 0.1647 0.1590 0.9778
C25 C 0.1378(4) 0.1902(4) 0.8659(5)
H33 H 0.1089 0.2131 0.8861
N1 N 0.0112(3) 0.2111(3) 0.5781(4)
N2 N 0.0892(3) 0.2981(3) 0.6615(3)
N3 N 0.1164(3) 0.2191(3) 0.7258(4)
O1 O 0.1065(2) 0.3011(2) 0.8026(3)
loop_
_geom_bond_atom_site_label_1
_geom_bond_atom_site_label_2
_geom_bond_site_symmetry_1
_geom_bond_site_symmetry_2
C1 C2 1_555 1_555
C2 H1 1_555 1_555
C3 C2 1_555 1_555
C4 C5 1_555 1_555
C5 H2 1_555 1_555
C6 C3 1_555 1_555
C7 C6 1_555 1_555
H3 C7 1_555 1_555
H4 C7 1_555 1_555
C8 C7 1_555 1_555
H5 C8 1_555 1_555
H6 C8 1_555 1_555
C9 C8 1_555 1_555
H7 C9 1_555 1_555
H8 C9 1_555 1_555
C10 C3 1_555 1_555
H9 C10 1_555 1_555
H10 C10 1_555 1_555
C11 C4 1_555 1_555
C12 C11 1_555 1_555
H11 C12 1_555 1_555
H12 C12 1_555 1_555
H13 C12 1_555 1_555
C13 C11 1_555 1_555
H14 C13 1_555 1_555
H15 C13 1_555 1_555
H16 C13 1_555 1_555
C14 C11 1_555 1_555
H17 C14 1_555 1_555
H18 C14 1_555 1_555
H19 C14 1_555 1_555
C15 C1 1_555 1_555
C16 C15 1_555 1_555
H20 C16 1_555 1_555
H21 C16 1_555 1_555
H22 C16 1_555 1_555
C17 C15 1_555 1_555
H23 C17 1_555 1_555
H24 C17 1_555 1_555
H25 C17 1_555 1_555
C18 C15 1_555 1_555
H26 C18 1_555 1_555
H27 C18 1_555 1_555
H28 C18 1_555 1_555
C19 N2 1_555 1_555
C20 C21 1_555 1_555
C21 H29 1_555 1_555
C22 C21 1_555 1_555
H30 C22 1_555 1_555
C23 C22 1_555 1_555
H31 C23 1_555 1_555
C24 C23 1_555 1_555
H32 C24 1_555 1_555
C25 C20 1_555 1_555
H33 C25 1_555 1_555
N1 C1 1_555 1_555
N2 C3 1_555 1_555
N3 C2 1_555 1_555
O1 C19 1_555 1_555
C4 N2 1_555 1_555
C5 C6 1_555 1_555
C6 N1 1_555 1_555
C9 C10 1_555 1_555
C19 N3 1_555 1_555
C20 N3 1_555 1_555
C24 C25 1_555 1_555

#END
