
#######################################################################
#
#                 Cambridge Crystallographic Data Centre
#                                CCDC 
#
#######################################################################
#
# If this CIF has been generated from an entry in the Cambridge 
# Structural Database, then it will include bibliographic, chemical, 
# crystal, experimental, refinement or atomic coordinate data resulting 
# from the CCDC's data processing and validation procedures.
#
#######################################################################

data_WEBSON
_chemical_formula_moiety         'C29 H35 N2 1+,C1 F3 O3 S1 1-'
_chemical_name_systematic        
'1,3-Dimesityl-4,4-dimethyl-5-phenyl-4,5-dihydro-1H-imidazol-3-ium trifluoromethanesulfonate'
_symmetry_cell_setting           orthorhombic
_symmetry_space_group_name_H-M   'P 21 21 21'
_symmetry_Int_Tables_number      19
_space_group_name_Hall           'P 2ac 2ab'
loop_
_symmetry_equiv_pos_site_id
_symmetry_equiv_pos_as_xyz
1 x,y,z
2 1/2-x,-y,1/2+z
3 -x,1/2+y,1/2-z
4 1/2+x,1/2-y,-z
_cell_length_a                   11.5154(5)
_cell_length_b                   14.5123(6)
_cell_length_c                   17.4192(7)
_cell_angle_alpha                90
_cell_angle_beta                 90
_cell_angle_gamma                90
_cell_volume                     2911.01
_exptl_crystal_colour            colorless
_exptl_crystal_description       block
_cell_formula_units_Z            4
loop_
_atom_site_label
_atom_site_type_symbol
_atom_site_fract_x
_atom_site_fract_y
_atom_site_fract_z
S1 S 0.09358(17) 0.02964(13) 0.95999(12)
O1 O 0.1099(12) -0.0121(7) 0.8888(4)
O2 O 0.1706(9) 0.0892(7) 0.9879(10)
O3 O -0.0161(6) 0.0661(6) 0.9715(4)
F1 F 0.0491(10) -0.1351(6) 1.0015(5)
F2 F 0.2111(7) -0.1025(6) 1.0210(4)
F3 F 0.0785(7) -0.0496(5) 1.0920(3)
C1 C 0.1048(10) -0.0632(6) 1.0245(4)
N1 N 0.5184(4) 0.1197(3) 0.9637(3)
N2 N 0.4522(4) 0.1940(3) 0.8636(2)
C2 C 0.5188(4) 0.0641(4) 1.0332(3)
C3 C 0.5254(5) 0.1086(4) 1.1040(3)
C4 C 0.5316(5) 0.0541(4) 1.1680(4)
H1 H 0.5354 0.0827 1.2157
C5 C 0.5325(5) -0.0414(4) 1.1657(4)
C6 C 0.5217(6) -0.0814(4) 1.0943(4)
H2 H 0.5197 -0.1454 1.0912
C7 C 0.5135(5) -0.0315(4) 1.0272(3)
C8 C 0.5257(7) 0.2130(4) 1.1125(4)
H3 H 0.5298 0.2288 1.1660
H4 H 0.4557 0.2378 1.0909
H5 H 0.5916 0.2382 1.0862
C9 C 0.5415(7) -0.0976(5) 1.2379(4)
H6 H 0.5422 -0.1620 1.2250
H7 H 0.4760 -0.0848 1.2703
H8 H 0.6118 -0.0821 1.2645
C10 C 0.4927(7) -0.0809(5) 0.9526(4)
H9 H 0.4935 -0.1462 0.9613
H10 H 0.5528 -0.0650 0.9168
H11 H 0.4187 -0.0630 0.9322
C11 C 0.3721(4) 0.2254(4) 0.8060(3)
C12 C 0.3177(5) 0.1599(4) 0.7593(3)
C13 C 0.2481(6) 0.1924(5) 0.7006(4)
H12 H 0.2125 0.1500 0.6682
C14 C 0.2296(6) 0.2840(5) 0.6884(4)
C15 C 0.2819(5) 0.3470(5) 0.7370(4)
H13 H 0.2680 0.4095 0.7296
C16 C 0.3541(4) 0.3200(4) 0.7963(3)
C17 C 0.3348(7) 0.0568(4) 0.7690(4)
H14 H 0.2903 0.0247 0.7308
H15 H 0.3092 0.0386 0.8192
H16 H 0.4155 0.0421 0.7631
C18 C 0.1550(8) 0.3158(7) 0.6218(5)
H17 H 0.1264 0.2631 0.5944
H18 H 0.2007 0.3532 0.5878
H19 H 0.0908 0.3511 0.6409
C19 C 0.4085(6) 0.3903(4) 0.8475(4)
H20 H 0.3861 0.4509 0.8310
H21 H 0.4915 0.3846 0.8451
H22 H 0.3830 0.3806 0.8993
C20 C 0.6368(5) 0.2348(4) 0.7914(3)
C21 C 0.7158(6) 0.3080(4) 0.7883(4)
H23 H 0.7303 0.3440 0.8314
C22 C 0.7716(7) 0.3255(6) 0.7200(7)
H24 H 0.8243 0.3739 0.7177
C23 C 0.7528(8) 0.2758(8) 0.6574(6)
H25 H 0.7928 0.2889 0.6124
C24 C 0.6748(7) 0.2058(7) 0.6593(4)
H26 H 0.6615 0.1712 0.6152
C25 C 0.6147(6) 0.1851(5) 0.7262(4)
H27 H 0.5599 0.1380 0.7267
C26 C 0.6275(5) 0.1498(4) 0.9234(3)
C27 C 0.5780(5) 0.2196(5) 0.8671(4)
H28 H 0.5809 0.2791 0.8937
C28 C 0.4266(5) 0.1424(3) 0.9239(3)
H29 H 0.3516 0.1242 0.9365
C29 C 0.7218(7) 0.1845(9) 0.9750(6)
H30 H 0.6942 0.2370 1.0031
H31 H 0.7879 0.2019 0.9447
H32 H 0.7437 0.1367 1.0103
C30 C 0.6851(8) 0.0709(6) 0.8865(7)
H33 H 0.7545 0.0915 0.8612
H34 H 0.6336 0.0438 0.8495
H35 H 0.7048 0.0259 0.9247
loop_
_geom_bond_atom_site_label_1
_geom_bond_atom_site_label_2
_geom_bond_site_symmetry_1
_geom_bond_site_symmetry_2
S1 O1 1_555 1_555
O2 S1 1_555 1_555
O3 S1 1_555 1_555
F1 C1 1_555 1_555
F2 C1 1_555 1_555
F3 C1 1_555 1_555
C1 S1 1_555 1_555
N1 C2 1_555 1_555
N2 C11 1_555 1_555
C2 C3 1_555 1_555
C3 C4 1_555 1_555
C4 H1 1_555 1_555
C5 C4 1_555 1_555
C6 C5 1_555 1_555
H2 C6 1_555 1_555
C7 C2 1_555 1_555
C8 C3 1_555 1_555
H3 C8 1_555 1_555
H4 C8 1_555 1_555
H5 C8 1_555 1_555
C9 C5 1_555 1_555
H6 C9 1_555 1_555
H7 C9 1_555 1_555
H8 C9 1_555 1_555
C10 C7 1_555 1_555
H9 C10 1_555 1_555
H10 C10 1_555 1_555
H11 C10 1_555 1_555
C11 C12 1_555 1_555
C12 C13 1_555 1_555
C13 H12 1_555 1_555
C14 C13 1_555 1_555
C15 C14 1_555 1_555
H13 C15 1_555 1_555
C16 C11 1_555 1_555
C17 C12 1_555 1_555
H14 C17 1_555 1_555
H15 C17 1_555 1_555
H16 C17 1_555 1_555
C18 C14 1_555 1_555
H17 C18 1_555 1_555
H18 C18 1_555 1_555
H19 C18 1_555 1_555
C19 C16 1_555 1_555
H20 C19 1_555 1_555
H21 C19 1_555 1_555
H22 C19 1_555 1_555
C20 C21 1_555 1_555
C21 H23 1_555 1_555
C22 C21 1_555 1_555
H24 C22 1_555 1_555
C23 C22 1_555 1_555
H25 C23 1_555 1_555
C24 C23 1_555 1_555
H26 C24 1_555 1_555
C25 C20 1_555 1_555
H27 C25 1_555 1_555
C26 N1 1_555 1_555
C27 N2 1_555 1_555
H28 C27 1_555 1_555
C28 N1 1_555 1_555
H29 C28 1_555 1_555
C29 C26 1_555 1_555
H30 C29 1_555 1_555
H31 C29 1_555 1_555
H32 C29 1_555 1_555
C30 C26 1_555 1_555
H33 C30 1_555 1_555
H34 C30 1_555 1_555
H35 C30 1_555 1_555
N2 C28 1_555 1_555
C6 C7 1_555 1_555
C15 C16 1_555 1_555
C20 C27 1_555 1_555
C24 C25 1_555 1_555
C26 C27 1_555 1_555

#END
