
#######################################################################
#
#                 Cambridge Crystallographic Data Centre
#                                CCDC 
#
#######################################################################
#
# If this CIF has been generated from an entry in the Cambridge 
# Structural Database, then it will include bibliographic, chemical, 
# crystal, experimental, refinement or atomic coordinate data resulting 
# from the CCDC's data processing and validation procedures.
#
#######################################################################

data_WEBWOR
_chemical_formula_moiety         'C6 H9 N2 1+,C7 H3 N2 O6 1-'
_chemical_name_systematic        'Pyridin-2-ylmethanaminium 3,5-dinitrobenzoate'
_symmetry_cell_setting           monoclinic
_symmetry_space_group_name_H-M   'P 21/n'
_symmetry_Int_Tables_number      14
_space_group_name_Hall           '-P 2yn'
loop_
_symmetry_equiv_pos_site_id
_symmetry_equiv_pos_as_xyz
1 x,y,z
2 1/2-x,1/2+y,1/2-z
3 -x,-y,-z
4 1/2+x,1/2-y,1/2+z
_cell_length_a                   6.5494(13)
_cell_length_b                   9.1960(18)
_cell_length_c                   23.512(5)
_cell_angle_alpha                90
_cell_angle_beta                 90.39(3)
_cell_angle_gamma                90
_cell_volume                     1416.05
_exptl_crystal_colour            colorless
_exptl_crystal_description       block
_cell_formula_units_Z            4
loop_
_atom_site_label
_atom_site_type_symbol
_atom_site_fract_x
_atom_site_fract_y
_atom_site_fract_z
C1 C 0.7865(3) 0.1185(2) 0.10467(8)
C2 C 0.8475(2) 0.17357(18) 0.16336(7)
O1 O 0.6086(2) 0.07499(19) 0.09883(6)
O2 O 0.9179(2) 0.12543(17) 0.06633(5)
C3 C 1.0310(3) 0.24462(18) 0.17255(7)
H1 H 1.1242 0.2552 0.1432
C4 C 1.0741(3) 0.29972(18) 0.22606(7)
C5 C 0.9435(3) 0.28622(19) 0.27114(7)
H2 H 0.9745 0.3248 0.3067
C6 C 0.7644(3) 0.21265(18) 0.26088(7)
C7 C 0.7130(3) 0.15629(18) 0.20820(7)
H3 H 0.5900 0.1075 0.2029
N1 N 1.2660(2) 0.38028(18) 0.23556(7)
O3 O 1.3875(2) 0.38738(17) 0.19646(7)
O4 O 1.2938(2) 0.43640(19) 0.28217(7)
N2 N 0.6193(3) 0.20032(19) 0.30817(7)
O5 O 0.4692(2) 0.12372(18) 0.30170(7)
O6 O 0.6540(2) 0.2712(2) 0.35098(6)
N3 N 0.5691(2) 0.76556(17) 0.02466(7)
C8 C 0.4260(3) 0.7284(2) 0.06206(8)
C9 C 0.4297(4) 0.5990(2) 0.09190(9)
H4 H 0.3279 0.5772 0.1180
C10 C 0.5865(4) 0.5032(3) 0.08232(11)
H5 H 0.5914 0.4146 0.1014
C11 C 0.7360(4) 0.5398(3) 0.04426(10)
H6 H 0.8453 0.4777 0.0376
C12 C 0.7199(3) 0.6702(2) 0.01642(9)
H7 H 0.8201 0.6938 -0.0098
C13 C 0.2533(3) 0.8326(2) 0.07195(9)
H8 H 0.1258 0.7856 0.0615
H9 H 0.2475 0.8556 0.1122
N4 N 0.2725(2) 0.96826(16) 0.03957(6)
H10 H 0.1670 1.0259 0.0471
H11 H 0.2741 0.9482 0.0025
H12 H 0.3880 1.0129 0.0494
loop_
_geom_bond_atom_site_label_1
_geom_bond_atom_site_label_2
_geom_bond_site_symmetry_1
_geom_bond_site_symmetry_2
C1 C2 1_555 1_555
C2 C3 1_555 1_555
O1 C1 1_555 1_555
O2 C1 1_555 1_555
C3 H1 1_555 1_555
C4 C3 1_555 1_555
C5 C4 1_555 1_555
H2 C5 1_555 1_555
C6 C5 1_555 1_555
C7 C2 1_555 1_555
H3 C7 1_555 1_555
N1 C4 1_555 1_555
O3 N1 1_555 1_555
O4 N1 1_555 1_555
N2 C6 1_555 1_555
O5 N2 1_555 1_555
O6 N2 1_555 1_555
N3 C8 1_555 1_555
C8 C9 1_555 1_555
C9 H4 1_555 1_555
C10 C9 1_555 1_555
H5 C10 1_555 1_555
C11 C10 1_555 1_555
H6 C11 1_555 1_555
C12 N3 1_555 1_555
H7 C12 1_555 1_555
C13 C8 1_555 1_555
H8 C13 1_555 1_555
H9 C13 1_555 1_555
N4 C13 1_555 1_555
H10 N4 1_555 1_555
H11 N4 1_555 1_555
H12 N4 1_555 1_555
C6 C7 1_555 1_555
C11 C12 1_555 1_555

#END
