
#######################################################################
#
#                 Cambridge Crystallographic Data Centre
#                                CCDC 
#
#######################################################################
#
# If this CIF has been generated from an entry in the Cambridge 
# Structural Database, then it will include bibliographic, chemical, 
# crystal, experimental, refinement or atomic coordinate data resulting 
# from the CCDC's data processing and validation procedures.
#
#######################################################################

data_WEBXAE
_chemical_formula_moiety         '2(C6 H9 N2 1+),2(C7 H3 N2 O6 1-)'
_chemical_name_systematic        'Pyridin-4-ylmethanaminium 3,5-dinitrobenzoate'
_symmetry_cell_setting           triclinic
_symmetry_space_group_name_H-M   'P -1'
_symmetry_Int_Tables_number      2
_space_group_name_Hall           '-P 1'
loop_
_symmetry_equiv_pos_site_id
_symmetry_equiv_pos_as_xyz
1 x,y,z
2 -x,-y,-z
_cell_length_a                   7.4234(15)
_cell_length_b                   11.738(2)
_cell_length_c                   17.698(4)
_cell_angle_alpha                102.99(3)
_cell_angle_beta                 100.52(3)
_cell_angle_gamma                101.26(3)
_cell_volume                     1431.76
_exptl_crystal_colour            colorless
_exptl_crystal_description       block
_cell_formula_units_Z            2
loop_
_atom_site_label
_atom_site_type_symbol
_atom_site_fract_x
_atom_site_fract_y
_atom_site_fract_z
C1 C 0.4188(4) 0.3197(2) 0.32498(17)
O1 O 0.4020(3) 0.25954(18) 0.37464(13)
O2 O 0.3309(3) 0.29186(16) 0.25386(11)
C2 C 0.5646(3) 0.4411(2) 0.35684(15)
C3 C 0.6644(4) 0.4775(2) 0.43678(15)
H1 H 0.6417 0.4287 0.4705
C4 C 0.7978(4) 0.5874(2) 0.46510(15)
C5 C 0.8375(3) 0.6621(2) 0.41701(15)
H2 H 0.9289 0.7349 0.4368
C6 C 0.7366(4) 0.6248(2) 0.33864(15)
C7 C 0.6015(3) 0.5153(2) 0.30724(15)
H3 H 0.5367 0.4920 0.2539
N1 N 0.9048(4) 0.6248(2) 0.54898(15)
O3 O 1.0156(4) 0.7240(2) 0.57372(14)
O4 O 0.8785(3) 0.5555(2) 0.58959(13)
N2 N 0.7754(4) 0.7041(2) 0.28647(15)
O5 O 0.8976(3) 0.79856(19) 0.31507(14)
O6 O 0.6817(4) 0.6725(2) 0.21757(14)
C8 C -0.0415(3) 0.1933(2) -0.02807(15)
C9 C 0.0662(3) 0.32356(19) 0.01693(14)
C10 C 0.0562(3) 0.3689(2) 0.09554(14)
H4 H -0.0099 0.3198 0.1210
C11 C 0.1464(3) 0.4884(2) 0.13521(14)
C12 C 0.2497(3) 0.5652(2) 0.10111(16)
H5 H 0.3106 0.6447 0.1289
C13 C 0.2574(3) 0.5167(2) 0.02312(15)
C14 C 0.1661(3) 0.3981(2) -0.02013(14)
H6 H 0.1719 0.3695 -0.0729
O7 O -0.0898(2) 0.12561(14) 0.01445(10)
O8 O -0.0762(3) 0.16538(15) -0.10228(10)
O9 O 0.2208(4) 0.6372(2) 0.25409(14)
O10 O 0.0025(4) 0.4781(2) 0.24011(13)
N3 N 0.1224(4) 0.5382(2) 0.21613(14)
N4 N 0.3622(3) 0.5964(2) -0.01656(16)
O11 O 0.4472(3) 0.69897(17) 0.02339(14)
O12 O 0.3618(3) 0.55644(19) -0.08643(14)
N5 N 0.7390(3) -0.0678(2) 0.48526(13)
C15 C 0.5683(4) -0.1433(2) 0.46410(15)
H7 H 0.5446 -0.2000 0.4926
C16 C 0.4239(4) -0.1430(2) 0.40257(15)
H8 H 0.3078 -0.1987 0.3903
C17 C 0.4539(3) -0.0585(2) 0.35914(14)
C18 C 0.6323(3) 0.0193(2) 0.37966(15)
H9 H 0.6599 0.0767 0.3521
C19 C 0.7692(4) 0.0110(2) 0.44153(16)
H10 H 0.8887 0.0629 0.4535
C20 C 0.2965(4) -0.0498(2) 0.29523(15)
H11 H 0.3493 -0.0210 0.2547
H12 H 0.2126 -0.1292 0.2699
N6 N 0.1870(3) 0.03424(17) 0.32977(12)
H13 H 0.0951 0.0383 0.2912
H14 H 0.2637 0.1073 0.3524
H15 H 0.1368 0.0071 0.3663
N7 N 0.8651(3) 0.05395(19) 0.21731(12)
C21 C 0.7237(4) -0.0353(2) 0.16739(16)
H16 H 0.7350 -0.1142 0.1609
C22 C 0.5622(3) -0.0161(2) 0.12514(15)
H17 H 0.4678 -0.0810 0.0912
C23 C 0.5412(3) 0.1009(2) 0.13355(13)
C24 C 0.6874(3) 0.1937(2) 0.18484(14)
H18 H 0.6800 0.2735 0.1922
C25 C 0.8443(3) 0.1664(2) 0.22495(15)
H19 H 0.9410 0.2297 0.2592
C26 C 0.3663(3) 0.1250(2) 0.08805(14)
H20 H 0.3909 0.2096 0.0889
H21 H 0.3370 0.0778 0.0328
N8 N 0.2001(2) 0.09393(16) 0.12264(11)
H22 H 0.0997 0.1091 0.0944
H23 H 0.2255 0.1382 0.1730
H24 H 0.1758 0.0160 0.1211
loop_
_geom_bond_atom_site_label_1
_geom_bond_atom_site_label_2
_geom_bond_site_symmetry_1
_geom_bond_site_symmetry_2
C1 O1 1_555 1_555
O2 C1 1_555 1_555
C2 C1 1_555 1_555
C3 C2 1_555 1_555
H1 C3 1_555 1_555
C4 C3 1_555 1_555
C5 C4 1_555 1_555
H2 C5 1_555 1_555
C6 C5 1_555 1_555
C7 C2 1_555 1_555
H3 C7 1_555 1_555
N1 C4 1_555 1_555
O3 N1 1_555 1_555
O4 N1 1_555 1_555
N2 C6 1_555 1_555
O5 N2 1_555 1_555
O6 N2 1_555 1_555
C8 C9 1_555 1_555
C9 C10 1_555 1_555
C10 H4 1_555 1_555
C11 C10 1_555 1_555
C12 C11 1_555 1_555
H5 C12 1_555 1_555
C13 C12 1_555 1_555
C14 C9 1_555 1_555
H6 C14 1_555 1_555
O7 C8 1_555 1_555
O8 C8 1_555 1_555
O9 N3 1_555 1_555
O10 N3 1_555 1_555
N3 C11 1_555 1_555
N4 C13 1_555 1_555
O11 N4 1_555 1_555
O12 N4 1_555 1_555
N5 C15 1_555 1_555
C15 H7 1_555 1_555
C16 C15 1_555 1_555
H8 C16 1_555 1_555
C17 C16 1_555 1_555
C18 C17 1_555 1_555
H9 C18 1_555 1_555
C19 N5 1_555 1_555
H10 C19 1_555 1_555
C20 C17 1_555 1_555
H11 C20 1_555 1_555
H12 C20 1_555 1_555
N6 C20 1_555 1_555
H13 N6 1_555 1_555
H14 N6 1_555 1_555
H15 N6 1_555 1_555
N7 C21 1_555 1_555
C21 H16 1_555 1_555
C22 C21 1_555 1_555
H17 C22 1_555 1_555
C23 C22 1_555 1_555
C24 C23 1_555 1_555
H18 C24 1_555 1_555
C25 N7 1_555 1_555
H19 C25 1_555 1_555
C26 C23 1_555 1_555
H20 C26 1_555 1_555
H21 C26 1_555 1_555
N8 C26 1_555 1_555
H22 N8 1_555 1_555
H23 N8 1_555 1_555
H24 N8 1_555 1_555
C6 C7 1_555 1_555
C13 C14 1_555 1_555
C18 C19 1_555 1_555
C24 C25 1_555 1_555

#END
