
#######################################################################
#
#                 Cambridge Crystallographic Data Centre
#                                CCDC 
#
#######################################################################
#
# If this CIF has been generated from an entry in the Cambridge 
# Structural Database, then it will include bibliographic, chemical, 
# crystal, experimental, refinement or atomic coordinate data resulting 
# from the CCDC's data processing and validation procedures.
#
#######################################################################

data_WEBYAG
_chemical_formula_moiety         'C24 H16 Br1 N1 O1'
_chemical_name_systematic        4-(3-bromophenyl)-1-phenyl-9H-carbazol-2-ol
_symmetry_cell_setting           monoclinic
_symmetry_space_group_name_H-M   'P 21/c'
_symmetry_Int_Tables_number      14
_space_group_name_Hall           '-P 2ybc'
loop_
_symmetry_equiv_pos_site_id
_symmetry_equiv_pos_as_xyz
1 x,y,z
2 -x,1/2+y,1/2-z
3 -x,-y,-z
4 x,1/2-y,1/2+z
_cell_length_a                   13.4828(15)
_cell_length_b                   12.6147(14)
_cell_length_c                   10.8771(12)
_cell_angle_alpha                90
_cell_angle_beta                 91.315(3)
_cell_angle_gamma                90
_cell_volume                     1849.51
_exptl_crystal_description       prism
_cell_formula_units_Z            4
loop_
_atom_site_label
_atom_site_type_symbol
_atom_site_fract_x
_atom_site_fract_y
_atom_site_fract_z
Br1 Br 1.13584(6) 0.12151(8) 0.71649(9)
O1 O 0.5715(3) 0.1123(3) 0.8575(5)
H1 H 0.6079 0.0626 0.8766
N1 N 0.6117(5) 0.4545(5) 0.6645(6)
C1 C 1.0310(5) 0.1289(5) 0.4862(7)
H2 H 1.0911 0.1117 0.4511
C2 C 1.0244(5) 0.1408(5) 0.6110(7)
C3 C 0.9357(4) 0.1670(5) 0.6658(6)
H3 H 0.9319 0.1719 0.7509
C4 C 0.8526(4) 0.1856(4) 0.5906(6)
C5 C 0.7581(4) 0.2195(5) 0.6505(6)
C6 C 0.7083(4) 0.1517(5) 0.7263(6)
H4 H 0.7325 0.0835 0.7391
C7 C 0.6227(4) 0.1830(5) 0.7838(6)
C8 C 0.5819(4) 0.2826(5) 0.7698(6)
C9 C 0.4950(4) 0.3195(4) 0.8406(6)
C10 C 0.5039(5) 0.3388(5) 0.9648(7)
H5 H 0.5640 0.3259 1.0058
C11 C 0.4243(6) 0.3773(6) 1.0293(7)
H6 H 0.4310 0.3902 1.1132
C12 C 0.3362(6) 0.3965(6) 0.9697(9)
H7 H 0.2834 0.4245 1.0126
C13 C 0.7209(4) 0.3225(4) 0.6334(6)
C14 C 0.6331(4) 0.3505(5) 0.6926(5)
C15 C 0.4048(5) 0.3380(5) 0.7817(7)
H8 H 0.3974 0.3259 0.6976
C16 C 0.3251(5) 0.3749(6) 0.8483(8)
H9 H 0.2637 0.3848 0.8092
C17 C 0.6829(4) 0.4946(5) 0.5900(6)
C18 C 0.6917(5) 0.5962(5) 0.5409(6)
H10 H 0.6434 0.6474 0.5542
C19 C 0.7731(5) 0.6186(6) 0.4727(7)
H11 H 0.7804 0.6859 0.4394
C20 C 0.8449(5) 0.5422(6) 0.4526(6)
H12 H 0.8998 0.5595 0.4065
C21 C 0.8363(5) 0.4406(5) 0.4999(6)
H13 H 0.8846 0.3899 0.4852
C22 C 0.7541(4) 0.4158(4) 0.5697(6)
C23 C 0.8582(5) 0.1725(5) 0.4659(7)
H14 H 0.8023 0.1835 0.4158
C24 C 0.9473(6) 0.1426(5) 0.4143(7)
H15 H 0.9502 0.1317 0.3298
H16 H 0.569(4) 0.481(4) 0.681(5)
loop_
_geom_bond_atom_site_label_1
_geom_bond_atom_site_label_2
_geom_bond_site_symmetry_1
_geom_bond_site_symmetry_2
Br1 C2 1_555 1_555
O1 H1 1_555 1_555
N1 C14 1_555 1_555
C1 H2 1_555 1_555
C2 C1 1_555 1_555
C3 C2 1_555 1_555
H3 C3 1_555 1_555
C4 C3 1_555 1_555
C5 C4 1_555 1_555
C6 C5 1_555 1_555
H4 C6 1_555 1_555
C7 O1 1_555 1_555
C8 C7 1_555 1_555
C9 C8 1_555 1_555
C10 C9 1_555 1_555
H5 C10 1_555 1_555
C11 C10 1_555 1_555
H6 C11 1_555 1_555
C12 C11 1_555 1_555
H7 C12 1_555 1_555
C13 C5 1_555 1_555
C14 C8 1_555 1_555
C15 C9 1_555 1_555
H8 C15 1_555 1_555
C16 C12 1_555 1_555
H9 C16 1_555 1_555
C17 N1 1_555 1_555
C18 C17 1_555 1_555
H10 C18 1_555 1_555
C19 C18 1_555 1_555
H11 C19 1_555 1_555
C20 C19 1_555 1_555
H12 C20 1_555 1_555
C21 C20 1_555 1_555
H13 C21 1_555 1_555
C22 C13 1_555 1_555
C23 C4 1_555 1_555
H14 C23 1_555 1_555
C24 C1 1_555 1_555
H15 C24 1_555 1_555
H16 N1 1_555 1_555
C6 C7 1_555 1_555
C13 C14 1_555 1_555
C15 C16 1_555 1_555
C17 C22 1_555 1_555
C21 C22 1_555 1_555
C23 C24 1_555 1_555

#END
