
#######################################################################
#
#                 Cambridge Crystallographic Data Centre
#                                CCDC 
#
#######################################################################
#
# If this CIF has been generated from an entry in the Cambridge 
# Structural Database, then it will include bibliographic, chemical, 
# crystal, experimental, refinement or atomic coordinate data resulting 
# from the CCDC's data processing and validation procedures.
#
#######################################################################

data_WECGUI
_chemical_name_common            'Etoricoxib hemihydrate'
_chemical_formula_moiety         'C18 H15 Cl1 N2 O2 S1,0.5(H2 O1)'
_chemical_name_systematic        
"5-Chloro-6'-methyl-3-(4-(methylsulfonyl)phenyl)-2,3'-bipyridine hemihydrate"
_symmetry_cell_setting           orthorhombic
_symmetry_space_group_name_H-M   'P c c n'
_symmetry_Int_Tables_number      56
_space_group_name_Hall           '-P 2ab 2ac'
loop_
_symmetry_equiv_pos_site_id
_symmetry_equiv_pos_as_xyz
1 x,y,z
2 1/2-x,1/2-y,z
3 -x,1/2+y,1/2-z
4 1/2+x,-y,1/2-z
5 -x,-y,-z
6 1/2+x,1/2+y,-z
7 x,1/2-y,1/2+z
8 1/2-x,y,1/2+z
_cell_length_a                   20.9182(15)
_cell_length_b                   12.4873(8)
_cell_length_c                   12.8222(8)
_cell_angle_alpha                90
_cell_angle_beta                 90
_cell_angle_gamma                90
_cell_volume                     3349.31
_exptl_crystal_colour            colorless
_exptl_crystal_description       block
_cell_formula_units_Z            8
loop_
_atom_site_label
_atom_site_type_symbol
_atom_site_fract_x
_atom_site_fract_y
_atom_site_fract_z
C1 C 0.37795(7) 0.58936(12) 0.45789(12)
C2 C 0.33964(7) 0.65687(13) 0.39934(12)
H1 H 0.3058 0.6930 0.4305
C3 C 0.35213(7) 0.67026(13) 0.29348(12)
H2 H 0.3261 0.7145 0.2534
C4 C 0.40363(7) 0.61733(12) 0.24747(12)
C5 C 0.44266(7) 0.55137(12) 0.30848(12)
H3 H 0.4776 0.5173 0.2784
C6 C 0.42970(7) 0.53635(13) 0.41318(12)
H4 H 0.4552 0.4914 0.4533
C7 C 0.41353(7) 0.62194(12) 0.13252(12)
C8 C 0.36206(7) 0.59112(13) 0.07045(12)
H5 H 0.3223 0.5783 0.1002
C9 C 0.37077(7) 0.57985(12) -0.03592(12)
C10 C 0.43034(8) 0.59984(13) -0.07846(12)
H6 H 0.4366 0.5880 -0.1493
C11 C 0.47153(7) 0.64829(12) 0.08241(12)
C12 C 0.52776(7) 0.69650(12) 0.13565(12)
C13 C 0.58760(7) 0.69295(13) 0.08810(13)
H7 H 0.5916 0.6532 0.0271
C14 C 0.63514(7) 0.79895(12) 0.21332(13)
C15 C 0.57796(8) 0.80295(12) 0.26843(12)
H8 H 0.5760 0.8393 0.3316
C16 C 0.52425(7) 0.75310(12) 0.22958(12)
H9 H 0.4858 0.7571 0.2657
C17 C 0.69314(8) 0.85900(15) 0.24928(16)
C18 C 0.34308(12) 0.43416(16) 0.60415(17)
N1 N 0.47891(6) 0.63543(11) -0.02145(10)
N2 N 0.63986(6) 0.74283(12) 0.12413(11)
O1 O 0.30547(6) 0.63232(11) 0.61783(9)
O2 O 0.41921(6) 0.59072(11) 0.64963(10)
S1 S 0.361349(19) 0.57084(3) 0.59226(3)
Cl1 Cl 0.308190(19) 0.54048(4) -0.11517(3)
H10 H 0.7291(11) 0.8460(18) 0.2056(18)
H11 H 0.6844(11) 0.934(2) 0.2505(18)
H12 H 0.7039(12) 0.838(2) 0.321(2)
H13 H 0.3077(11) 0.4169(19) 0.565(2)
H14 H 0.3815(12) 0.393(2) 0.5810(19)
H15 H 0.3346(12) 0.425(2) 0.676(2)
O3 O 0.7500 0.7500 0.48911(15)
H16 H 0.7198(14) 0.753(2) 0.529(2)
H16A H 0.7802(14) 0.747(2) 0.529(2)
loop_
_geom_bond_atom_site_label_1
_geom_bond_atom_site_label_2
_geom_bond_site_symmetry_1
_geom_bond_site_symmetry_2
C1 C2 1_555 1_555
C2 H1 1_555 1_555
C3 C2 1_555 1_555
H2 C3 1_555 1_555
C4 C3 1_555 1_555
C5 C4 1_555 1_555
H3 C5 1_555 1_555
C6 C1 1_555 1_555
H4 C6 1_555 1_555
C7 C4 1_555 1_555
C8 C7 1_555 1_555
H5 C8 1_555 1_555
C9 C8 1_555 1_555
C10 C9 1_555 1_555
H6 C10 1_555 1_555
C11 C7 1_555 1_555
C12 C11 1_555 1_555
C13 C12 1_555 1_555
H7 C13 1_555 1_555
C14 C15 1_555 1_555
C15 H8 1_555 1_555
C16 C12 1_555 1_555
H9 C16 1_555 1_555
C17 C14 1_555 1_555
C18 S1 1_555 1_555
N1 C10 1_555 1_555
N2 C13 1_555 1_555
O1 S1 1_555 1_555
O2 S1 1_555 1_555
S1 C1 1_555 1_555
Cl1 C9 1_555 1_555
H10 C17 1_555 1_555
H11 C17 1_555 1_555
H12 C17 1_555 1_555
H13 C18 1_555 1_555
H14 C18 1_555 1_555
H15 C18 1_555 1_555
O3 H16 1_555 1_555
H16A O3 1_555 1_555
C5 C6 1_555 1_555
C11 N1 1_555 1_555
C14 N2 1_555 1_555
C15 C16 1_555 1_555

#END
