
#######################################################################
#
#                 Cambridge Crystallographic Data Centre
#                                CCDC 
#
#######################################################################
#
# If this CIF has been generated from an entry in the Cambridge 
# Structural Database, then it will include bibliographic, chemical, 
# crystal, experimental, refinement or atomic coordinate data resulting 
# from the CCDC's data processing and validation procedures.
#
#######################################################################

data_WECGIW
_chemical_name_common            Etoricoxib
_chemical_formula_moiety         'C18 H15 Cl1 N2 O2 S1'
_chemical_name_systematic        
5-Chloro-6'-methyl-3-(4-(methylsulfonyl)phenyl)-2,3'-bipyridine
_chemical_properties_biological  'selective COX-2 inhibitor'
_symmetry_cell_setting           orthorhombic
_symmetry_space_group_name_H-M   'P c a 21'
_symmetry_Int_Tables_number      29
_space_group_name_Hall           'P 2c -2ac'
loop_
_symmetry_equiv_pos_site_id
_symmetry_equiv_pos_as_xyz
1 x,y,z
2 -x,-y,1/2+z
3 1/2+x,-y,z
4 1/2-x,y,1/2+z
_cell_length_a                   29.950(12)
_cell_length_b                   4.995(2)
_cell_length_c                   22.828(10)
_cell_angle_alpha                90
_cell_angle_beta                 90
_cell_angle_gamma                90
_cell_volume                     3415.07
_exptl_crystal_colour            colorless
_exptl_crystal_description       needle
_cell_formula_units_Z            8
loop_
_atom_site_label
_atom_site_type_symbol
_atom_site_fract_x
_atom_site_fract_y
_atom_site_fract_z
C1 C 0.29796(9) 0.7107(6) 0.21945(13)
C2 C 0.32882(9) 0.7562(6) 0.17514(14)
H1 H 0.3544 0.8557 0.1825
C3 C 0.32101(9) 0.6511(6) 0.11933(14)
H2 H 0.3415 0.6812 0.0895
C4 C 0.28257(9) 0.5010(6) 0.10809(13)
C5 C 0.25281(9) 0.4480(6) 0.15429(13)
H3 H 0.2279 0.3411 0.1476
C6 C 0.26006(9) 0.5530(6) 0.20961(13)
H4 H 0.2400 0.5192 0.2398
C7 C 0.27538(9) 0.3955(6) 0.04816(12)
C8 C 0.30813(9) 0.2291(6) 0.02464(13)
H5 H 0.3339 0.1920 0.0458
C9 C 0.30213(10) 0.1209(7) -0.02968(15)
C10 C 0.26356(12) 0.1778(8) -0.06075(15)
H6 H 0.2591 0.0979 -0.0971
C11 C 0.23756(9) 0.4520(7) 0.01315(13)
C12 C 0.20093(9) 0.6287(7) 0.03185(14)
C13 C 0.15720(10) 0.5776(7) 0.01283(16)
H7 H 0.1513 0.4371 -0.0128
C14 C 0.12339(10) 0.7380(8) 0.03265(17)
H8 H 0.0944 0.7090 0.0195
C15 C 0.13166(9) 0.9407(7) 0.07153(16)
C16 C 0.20627(9) 0.8506(6) 0.06795(14)
H9 H 0.2353 0.8951 0.0788
C17 C 0.09476(11) 1.1040(8) 0.09839(19)
H10 H 0.0854 1.0224 0.1344
H11 H 0.0700 1.1119 0.0718
H12 H 0.1054 1.2820 0.1061
C18 C 0.31556(12) 0.6223(8) 0.34048(15)
H13 H 0.3192 0.7030 0.3783
H14 H 0.3420 0.5240 0.3306
H15 H 0.2905 0.5027 0.3412
N1 N 0.17330(8) 1.0062(6) 0.08849(13)
N2 N 0.23269(9) 0.3440(6) -0.03992(12)
O1 O 0.34590(7) 1.0389(5) 0.28250(10)
O2 O 0.26515(7) 1.0073(5) 0.30327(10)
S1 S 0.30627(2) 0.87556(16) 0.28743(3)
Cl1 Cl 0.34179(3) -0.0950(2) -0.05920(4)
C19 C 0.45507(9) 0.3867(6) 0.13966(12)
C20 C 0.49325(9) 0.5417(6) 0.14744(13)
H16 H 0.5130 0.5686 0.1166
C21 C 0.50146(9) 0.6554(6) 0.20182(13)
H17 H 0.5269 0.7591 0.2075
C22 C 0.47123(9) 0.6143(6) 0.24875(13)
C23 C 0.43258(9) 0.4686(6) 0.23892(14)
H18 H 0.4120 0.4478 0.2691
C24 C 0.42402(9) 0.3532(6) 0.18486(14)
H19 H 0.3980 0.2551 0.1787
C25 C 0.48060(9) 0.7270(6) 0.30847(13)
C26 C 0.44887(10) 0.8994(7) 0.33352(14)
H20 H 0.4222 0.9347 0.3141
C27 C 0.45731(12) 1.0147(8) 0.38635(15)
C28 C 0.49682(13) 0.9508(9) 0.41449(16)
H21 H 0.5025 1.0289 0.4507
C29 C 0.52002(10) 0.6701(7) 0.34065(13)
C30 C 0.55637(10) 0.4914(7) 0.31900(14)
C31 C 0.60076(10) 0.5437(7) 0.33365(15)
H22 H 0.6078 0.6858 0.3583
C32 C 0.63398(10) 0.3834(7) 0.31129(16)
H23 H 0.6636 0.4145 0.3216
C33 C 0.62354(10) 0.1769(7) 0.27373(16)
C34 C 0.54892(9) 0.2694(6) 0.28478(16)
H24 H 0.5194 0.2245 0.2770
C35 C 0.65898(10) 0.0121(9) 0.24398(18)
H25 H 0.6480 -0.1662 0.2377
H26 H 0.6851 0.0055 0.2683
H27 H 0.6664 0.0918 0.2070
C36 C 0.43559(11) 0.4709(7) 0.02037(14)
H28 H 0.4602 0.5943 0.0193
H29 H 0.4088 0.5648 0.0309
H30 H 0.4319 0.3908 -0.0175
N3 N 0.52706(10) 0.7839(6) 0.39261(12)
N4 N 0.58093(8) 0.1104(6) 0.26133(13)
O3 O 0.48754(7) 0.0851(5) 0.05568(9)
O4 O 0.40686(7) 0.0526(4) 0.07876(11)
S2 S 0.44651(2) 0.21747(15) 0.07288(3)
Cl2 Cl 0.42036(4) 1.2372(2) 0.41689(4)
loop_
_geom_bond_atom_site_label_1
_geom_bond_atom_site_label_2
_geom_bond_site_symmetry_1
_geom_bond_site_symmetry_2
C1 C2 1_555 1_555
C2 H1 1_555 1_555
C3 C2 1_555 1_555
H2 C3 1_555 1_555
C4 C3 1_555 1_555
C5 C4 1_555 1_555
H3 C5 1_555 1_555
C6 C1 1_555 1_555
H4 C6 1_555 1_555
C7 C4 1_555 1_555
C8 C7 1_555 1_555
H5 C8 1_555 1_555
C9 C8 1_555 1_555
C10 C9 1_555 1_555
H6 C10 1_555 1_555
C11 C7 1_555 1_555
C12 C11 1_555 1_555
C13 C12 1_555 1_555
H7 C13 1_555 1_555
C14 C13 1_555 1_555
H8 C14 1_555 1_555
C15 C14 1_555 1_555
C16 C12 1_555 1_555
H9 C16 1_555 1_555
C17 C15 1_555 1_555
H10 C17 1_555 1_555
H11 C17 1_555 1_555
H12 C17 1_555 1_555
C18 H13 1_555 1_555
H14 C18 1_555 1_555
H15 C18 1_555 1_555
N1 C15 1_555 1_555
N2 C10 1_555 1_555
O1 S1 1_555 1_555
O2 S1 1_555 1_555
S1 C1 1_555 1_555
Cl1 C9 1_555 1_555
C19 C20 1_555 1_555
C20 H16 1_555 1_555
C21 C20 1_555 1_555
H17 C21 1_555 1_555
C22 C21 1_555 1_555
C23 C22 1_555 1_555
H18 C23 1_555 1_555
C24 C19 1_555 1_555
H19 C24 1_555 1_555
C25 C22 1_555 1_555
C26 C25 1_555 1_555
H20 C26 1_555 1_555
C27 C26 1_555 1_555
C28 C27 1_555 1_555
H21 C28 1_555 1_555
C29 C25 1_555 1_555
C30 C29 1_555 1_555
C31 C30 1_555 1_555
H22 C31 1_555 1_555
C32 C31 1_555 1_555
H23 C32 1_555 1_555
C33 C32 1_555 1_555
C34 C30 1_555 1_555
H24 C34 1_555 1_555
C35 C33 1_555 1_555
H25 C35 1_555 1_555
H26 C35 1_555 1_555
H27 C35 1_555 1_555
C36 H28 1_555 1_555
H29 C36 1_555 1_555
H30 C36 1_555 1_555
N3 C28 1_555 1_555
N4 C33 1_555 1_555
O3 S2 1_555 1_555
O4 S2 1_555 1_555
S2 C19 1_555 1_555
Cl2 C27 1_555 1_555
C5 C6 1_555 1_555
C11 N2 1_555 1_555
C16 N1 1_555 1_555
C18 S1 1_555 1_555
C23 C24 1_555 1_555
C29 N3 1_555 1_555
C34 N4 1_555 1_555
C36 S2 1_555 1_555

#END
