
#######################################################################
#
#                 Cambridge Crystallographic Data Centre
#                                CCDC 
#
#######################################################################
#
# If this CIF has been generated from an entry in the Cambridge 
# Structural Database, then it will include bibliographic, chemical, 
# crystal, experimental, refinement or atomic coordinate data resulting 
# from the CCDC's data processing and validation procedures.
#
#######################################################################

data_WECHAP
_chemical_name_common            'Etoricoxib hydrate'
_chemical_formula_moiety         'C18 H15 Cl1 N2 O2 S1,0.69(H2 O1)'
_chemical_name_systematic        
"5-Chloro-6'-methyl-3-(4-(methylsulfonyl)phenyl)-2,3'-bipyridine hydrate"
_symmetry_cell_setting           monoclinic
_symmetry_space_group_name_H-M   'P 21/c'
_symmetry_Int_Tables_number      14
_space_group_name_Hall           '-P 2ybc'
loop_
_symmetry_equiv_pos_site_id
_symmetry_equiv_pos_as_xyz
1 x,y,z
2 -x,1/2+y,1/2-z
3 -x,-y,-z
4 x,1/2-y,1/2+z
_cell_length_a                   10.889(2)
_cell_length_b                   12.359(3)
_cell_length_c                   12.803(3)
_cell_angle_alpha                90
_cell_angle_beta                 93.496(7)
_cell_angle_gamma                90
_cell_volume                     1719.78
_exptl_crystal_colour            colorless
_exptl_crystal_description       block
_cell_formula_units_Z            4
loop_
_atom_site_label
_atom_site_type_symbol
_atom_site_fract_x
_atom_site_fract_y
_atom_site_fract_z
C1 C 0.7451(2) 0.42266(17) 0.09560(15)
C2 C 0.8293(2) 0.36464(18) 0.15859(17)
H1 H 0.8960 0.3312 0.1299
C3 C 0.8131(2) 0.35694(19) 0.26504(17)
H2 H 0.8692 0.3179 0.3078
C4 C 0.71369(19) 0.40714(17) 0.30840(15)
C5 C 0.63025(19) 0.46531(17) 0.24337(16)
H3 H 0.5640 0.4996 0.2718
C6 C 0.6448(2) 0.47268(17) 0.13689(17)
H4 H 0.5881 0.5106 0.0937
C7 C 0.70156(18) 0.40021(17) 0.42385(15)
C8 C 0.8016(2) 0.43277(19) 0.48867(17)
C9 C 0.79146(19) 0.43288(18) 0.59573(17)
C10 C 0.6828(2) 0.40182(19) 0.63638(17)
C11 C 0.59455(19) 0.36548(16) 0.47045(16)
C12 C 0.48290(19) 0.32354(17) 0.41132(16)
C13 C 0.3696(2) 0.33567(19) 0.45292(18)
C14 C 0.2662(2) 0.24943(19) 0.3149(2)
C15 C 0.3745(2) 0.23566(19) 0.2667(2)
C16 C 0.4840(2) 0.27034(17) 0.31533(18)
C17 C 0.1465(3) 0.2069(2) 0.2673(2)
H5 H 0.0832 0.2601 0.2742
H6 H 0.1250 0.1417 0.3026
H7 H 0.1547 0.1917 0.1945
C18 C 0.8188(3) 0.5680(2) -0.0549(2)
H8 H 0.7583 0.6177 -0.0319
H9 H 0.8321 0.5812 -0.1272
H10 H 0.8947 0.5779 -0.0137
N1 N 0.58691(17) 0.36806(15) 0.57556(14)
N2 N 0.26334(17) 0.29920(17) 0.40827(17)
O1 O 0.86381(18) 0.36318(15) -0.06488(13)
O2 O 0.65034(18) 0.42398(18) -0.09630(13)
S1 S 0.76650(5) 0.43486(4) -0.03987(4)
Cl1 Cl 0.91357(5) 0.47422(5) 0.67962(4)
H11 H 0.878(2) 0.458(2) 0.458(2)
H12 H 0.672(2) 0.401(2) 0.712(2)
H13 H 0.365(2) 0.3715(19) 0.5165(19)
H14 H 0.373(2) 0.199(2) 0.202(2)
H15 H 0.559(2) 0.255(2) 0.285(2)
O3 O 0.0443(2) 0.3011(2) 0.5110(2)
loop_
_geom_bond_atom_site_label_1
_geom_bond_atom_site_label_2
_geom_bond_site_symmetry_1
_geom_bond_site_symmetry_2
C1 C2 1_555 1_555
C2 H1 1_555 1_555
C3 C2 1_555 1_555
H2 C3 1_555 1_555
C4 C3 1_555 1_555
C5 C4 1_555 1_555
H3 C5 1_555 1_555
C6 C1 1_555 1_555
H4 C6 1_555 1_555
C7 C4 1_555 1_555
C8 C7 1_555 1_555
C9 C8 1_555 1_555
C10 C9 1_555 1_555
C11 C7 1_555 1_555
C12 C11 1_555 1_555
C13 C12 1_555 1_555
C14 C15 1_555 1_555
C15 C16 1_555 1_555
C16 C12 1_555 1_555
C17 C14 1_555 1_555
H5 C17 1_555 1_555
H6 C17 1_555 1_555
H7 C17 1_555 1_555
C18 H8 1_555 1_555
H9 C18 1_555 1_555
H10 C18 1_555 1_555
N1 C10 1_555 1_555
N2 C13 1_555 1_555
O1 S1 1_555 1_555
O2 S1 1_555 1_555
S1 C1 1_555 1_555
Cl1 C9 1_555 1_555
H11 C8 1_555 1_555
H12 C10 1_555 1_555
H13 C13 1_555 1_555
H14 C15 1_555 1_555
H15 C16 1_555 1_555
C5 C6 1_555 1_555
C11 N1 1_555 1_555
C14 N2 1_555 1_555
C18 S1 1_555 1_555

#END
