
#######################################################################
#
#                 Cambridge Crystallographic Data Centre
#                                CCDC 
#
#######################################################################
#
# If this CIF has been generated from an entry in the Cambridge 
# Structural Database, then it will include bibliographic, chemical, 
# crystal, experimental, refinement or atomic coordinate data resulting 
# from the CCDC's data processing and validation procedures.
#
#######################################################################

data_WECJUL
_chemical_formula_moiety         'C23 H14 F1 I1 O1,C1 H4 O1'
_chemical_name_systematic        
'2-Fluoro-6-iodo-11-phenyl-11H-benzo[a]fluoren-11-ol methanol solvate'
_symmetry_cell_setting           triclinic
_symmetry_space_group_name_H-M   'P -1'
_symmetry_Int_Tables_number      2
_space_group_name_Hall           '-P 1'
loop_
_symmetry_equiv_pos_site_id
_symmetry_equiv_pos_as_xyz
1 x,y,z
2 -x,-y,-z
_cell_length_a                   9.566(8)
_cell_length_b                   9.734(9)
_cell_length_c                   11.985(8)
_cell_angle_alpha                105.07(5)
_cell_angle_beta                 98.08(5)
_cell_angle_gamma                102.89(5)
_cell_volume                     1026.82
_exptl_crystal_colour            pink
_exptl_crystal_description       block
_cell_formula_units_Z            2
loop_
_atom_site_label
_atom_site_type_symbol
_atom_site_fract_x
_atom_site_fract_y
_atom_site_fract_z
F1 F 0.8606(7) -0.3943(6) 0.5785(5)
I1 I 1.25096(6) 0.52411(7) 0.75710(5)
O1 O 0.6247(5) 0.0412(5) 0.6618(4)
H1 H 0.5997 0.1007 0.6314
C1 C 0.7445(7) 0.1190(7) 0.7629(5)
C2 C 0.7501(7) 0.2844(7) 0.8100(5)
C3 C 0.6401(8) 0.3407(9) 0.8528(6)
H3 H 0.5524 0.2787 0.8560
C4 C 0.6673(10) 0.4963(10) 0.8914(8)
H4 H 0.5963 0.5382 0.9204
C5 C 0.7976(10) 0.5858(9) 0.8863(8)
H5 H 0.8132 0.6878 0.9120
C6 C 0.9085(9) 0.5274(9) 0.8432(7)
H6 H 0.9964 0.5900 0.8411
C7 C 0.8846(8) 0.3745(8) 0.8037(6)
C8 C 0.9754(7) 0.2756(8) 0.7522(5)
C9 C 1.1170(8) 0.3055(8) 0.7251(6)
C10 C 1.1748(9) 0.1938(9) 0.6762(6)
H7 H 1.2677 0.2162 0.6594
C11 C 1.0939(8) 0.0421(9) 0.6502(6)
C12 C 0.9505(7) 0.0084(8) 0.6770(5)
C13 C 0.8944(7) 0.1310(8) 0.7282(5)
C14 C 0.8711(9) -0.1434(8) 0.6525(6)
H8 H 0.7788 -0.1686 0.6699
C15 C 0.9356(11) -0.2507(9) 0.6024(6)
C16 C 1.0748(11) -0.2200(10) 0.5740(7)
H9 H 1.1130 -0.2967 0.5393
C17 C 1.1535(10) -0.0754(10) 0.5981(6)
H10 H 1.2461 -0.0539 0.5805
C18 C 0.7263(7) 0.0440(7) 0.8604(5)
C19 C 0.8371(9) 0.0906(10) 0.9634(6)
H11 H 0.9219 0.1636 0.9701
C20 C 0.8223(9) 0.0301(10) 1.0549(6)
H12 H 0.8973 0.0624 1.1220
C21 C 0.6967(10) -0.0785(10) 1.0476(7)
H13 H 0.6860 -0.1178 1.1098
C22 C 0.5871(9) -0.1276(9) 0.9456(7)
H14 H 0.5031 -0.2013 0.9394
C23 C 0.6013(8) -0.0679(8) 0.8529(6)
H15 H 0.5271 -0.1027 0.7852
O2 O 0.5090(12) 0.1953(7) 0.5343(7)
H2 H 0.4323 0.1493 0.4861
C24 C 0.5489(13) 0.3375(10) 0.5292(9)
H16 H 0.4683 0.3804 0.5374
H17 H 0.5748 0.3371 0.4546
H18 H 0.6316 0.3947 0.5921
loop_
_geom_bond_atom_site_label_1
_geom_bond_atom_site_label_2
_geom_bond_site_symmetry_1
_geom_bond_site_symmetry_2
F1 C15 1_555 1_555
I1 C9 1_555 1_555
O1 H1 1_555 1_555
O2 H2 1_555 1_555
C1 O1 1_555 1_555
C2 C1 1_555 1_555
C3 C2 1_555 1_555
H3 C3 1_555 1_555
C4 C3 1_555 1_555
H4 C4 1_555 1_555
C5 C4 1_555 1_555
H5 C5 1_555 1_555
C6 C5 1_555 1_555
H6 C6 1_555 1_555
C7 C2 1_555 1_555
C8 C7 1_555 1_555
C9 C8 1_555 1_555
C10 C9 1_555 1_555
H7 C10 1_555 1_555
C11 C10 1_555 1_555
C12 C11 1_555 1_555
C13 C1 1_555 1_555
C14 C12 1_555 1_555
H8 C14 1_555 1_555
C15 C14 1_555 1_555
C16 C15 1_555 1_555
H9 C16 1_555 1_555
C17 C11 1_555 1_555
H10 C17 1_555 1_555
C18 C1 1_555 1_555
C19 C18 1_555 1_555
H11 C19 1_555 1_555
C20 C19 1_555 1_555
H12 C20 1_555 1_555
C21 C20 1_555 1_555
H13 C21 1_555 1_555
C22 C21 1_555 1_555
H14 C22 1_555 1_555
C23 C18 1_555 1_555
H15 C23 1_555 1_555
C24 O2 1_555 1_555
H16 C24 1_555 1_555
H17 C24 1_555 1_555
H18 C24 1_555 1_555
C6 C7 1_555 1_555
C8 C13 1_555 1_555
C12 C13 1_555 1_555
C16 C17 1_555 1_555
C22 C23 1_555 1_555

#END
