
#######################################################################
#
#                 Cambridge Crystallographic Data Centre
#                                CCDC 
#
#######################################################################
#
# If this CIF has been generated from an entry in the Cambridge 
# Structural Database, then it will include bibliographic, chemical, 
# crystal, experimental, refinement or atomic coordinate data resulting 
# from the CCDC's data processing and validation procedures.
#
#######################################################################

data_WECKIA
_chemical_formula_moiety         'C31 H27 N1 O3 S1'
_chemical_name_systematic        
3-(4-Methoxyphenyl)-5-methyl-1-((4-methylphenyl)sulfonyl)-2-phenyl-3,4-dihydro-1H-cyclopenta[cd]indole
_symmetry_cell_setting           monoclinic
_symmetry_space_group_name_H-M   'P 21/c'
_symmetry_Int_Tables_number      14
_space_group_name_Hall           '-P 2ybc'
loop_
_symmetry_equiv_pos_site_id
_symmetry_equiv_pos_as_xyz
1 x,y,z
2 -x,1/2+y,1/2-z
3 -x,-y,-z
4 x,1/2-y,1/2+z
_cell_length_a                   13.792(6)
_cell_length_b                   11.557(5)
_cell_length_c                   16.464(7)
_cell_angle_alpha                90
_cell_angle_beta                 105.732(5)
_cell_angle_gamma                90
_cell_volume                     2525.96
_exptl_crystal_colour            colorless
_exptl_crystal_description       block
_cell_formula_units_Z            4
loop_
_atom_site_label
_atom_site_type_symbol
_atom_site_fract_x
_atom_site_fract_y
_atom_site_fract_z
S1 S 0.39768(5) 0.41500(7) 0.18838(4)
N1 N 0.27489(15) 0.40244(17) 0.13951(12)
O1 O 0.41592(15) 0.3630(2) 0.26913(11)
O2 O 0.41957(15) 0.53487(17) 0.18164(13)
O3 O 0.11587(17) -0.15167(18) -0.20973(13)
C1 C 0.23140(19) 0.4777(2) 0.06961(15)
C2 C 0.2381(2) 0.5920(2) 0.04618(17)
H1 H 0.2860 0.6423 0.0784
C3 C 0.1686(2) 0.6279(2) -0.02868(18)
H2 H 0.1733 0.7039 -0.0458
C4 C 0.0923(2) 0.5585(2) -0.08016(16)
C5 C 0.08854(19) 0.4447(2) -0.05523(15)
C6 C 0.15936(18) 0.4110(2) 0.01616(15)
C7 C 0.0182(2) 0.6052(2) -0.15816(17)
H3 H -0.0274 0.5448 -0.1844
H4 H 0.0538 0.6327 -0.1969
H5 H -0.0192 0.6677 -0.1428
C8 C 0.0234(2) 0.3388(2) -0.08530(16)
H6 H 0.0274 0.3157 -0.1409
H7 H -0.0464 0.3552 -0.0880
C9 C 0.06632(19) 0.2388(2) -0.01799(14)
H8 H 0.0155 0.2210 0.0118
C10 C 0.15626(18) 0.2975(2) 0.04423(14)
C11 C 0.22610(18) 0.2877(2) 0.11990(15)
C12 C 0.24909(18) 0.1916(2) 0.18060(15)
C13 C 0.2438(2) 0.2043(3) 0.26302(16)
H9 H 0.2284 0.2761 0.2818
C14 C 0.2611(2) 0.1112(3) 0.31729(19)
H10 H 0.2568 0.1207 0.3723
C15 C 0.2845(3) 0.0053(3) 0.2914(2)
H11 H 0.2973 -0.0568 0.3287
C16 C 0.2891(3) -0.0087(3) 0.2099(2)
H12 H 0.3038 -0.0810 0.1915
C17 C 0.2722(2) 0.0838(3) 0.15491(18)
H13 H 0.2764 0.0735 0.0999
C18 C 0.08674(19) 0.1310(2) -0.06147(14)
C19 C 0.1780(2) 0.1094(2) -0.07817(15)
H14 H 0.2317 0.1593 -0.0565
C20 C 0.1920(2) 0.0154(2) -0.12644(16)
H15 H 0.2540 0.0030 -0.1371
C21 C 0.1129(2) -0.0592(2) -0.15832(16)
C22 C 0.0215(2) -0.0401(3) -0.14102(17)
H16 H -0.0318 -0.0910 -0.1618
C23 C 0.0088(2) 0.0532(2) -0.09356(16)
H17 H -0.0532 0.0647 -0.0826
C24 C 0.2055(3) -0.1734(3) -0.2320(2)
H18 H 0.1969 -0.2402 -0.2680
H19 H 0.2592 -0.1872 -0.1820
H20 H 0.2218 -0.1076 -0.2614
C25 C 0.45562(19) 0.3321(2) 0.12573(16)
C26 C 0.4963(2) 0.2262(3) 0.15287(18)
H21 H 0.4958 0.1988 0.2059
C27 C 0.5379(2) 0.1606(3) 0.10108(19)
H22 H 0.5649 0.0885 0.1196
C28 C 0.5406(2) 0.1994(3) 0.02220(19)
C29 C 0.4980(2) 0.3057(3) -0.00441(18)
H23 H 0.4977 0.3326 -0.0577
C30 C 0.4560(2) 0.3728(3) 0.04645(18)
H24 H 0.4282 0.4446 0.0279
C31 C 0.5891(3) 0.1288(3) -0.0329(2)
H25 H 0.6145 0.0579 -0.0047
H26 H 0.6437 0.1719 -0.0440
H27 H 0.5402 0.1117 -0.0852
loop_
_geom_bond_atom_site_label_1
_geom_bond_atom_site_label_2
_geom_bond_site_symmetry_1
_geom_bond_site_symmetry_2
S1 N1 1_555 1_555
N1 C1 1_555 1_555
O1 S1 1_555 1_555
O2 S1 1_555 1_555
O3 C21 1_555 1_555
C1 C2 1_555 1_555
C2 H1 1_555 1_555
C3 C2 1_555 1_555
H2 C3 1_555 1_555
C4 C3 1_555 1_555
C5 C4 1_555 1_555
C6 C1 1_555 1_555
C7 C4 1_555 1_555
H3 C7 1_555 1_555
H4 C7 1_555 1_555
H5 C7 1_555 1_555
C8 C5 1_555 1_555
H6 C8 1_555 1_555
H7 C8 1_555 1_555
C9 C8 1_555 1_555
H8 C9 1_555 1_555
C10 C6 1_555 1_555
C11 N1 1_555 1_555
C12 C11 1_555 1_555
C13 C12 1_555 1_555
H9 C13 1_555 1_555
C14 C13 1_555 1_555
H10 C14 1_555 1_555
C15 C14 1_555 1_555
H11 C15 1_555 1_555
C16 C15 1_555 1_555
H12 C16 1_555 1_555
C17 C12 1_555 1_555
H13 C17 1_555 1_555
C18 C9 1_555 1_555
C19 C18 1_555 1_555
H14 C19 1_555 1_555
C20 C19 1_555 1_555
H15 C20 1_555 1_555
C21 C20 1_555 1_555
C22 C21 1_555 1_555
H16 C22 1_555 1_555
C23 C18 1_555 1_555
H17 C23 1_555 1_555
C24 O3 1_555 1_555
H18 C24 1_555 1_555
H19 C24 1_555 1_555
H20 C24 1_555 1_555
C25 S1 1_555 1_555
C26 C25 1_555 1_555
H21 C26 1_555 1_555
C27 C26 1_555 1_555
H22 C27 1_555 1_555
C28 C27 1_555 1_555
C29 C28 1_555 1_555
H23 C29 1_555 1_555
C30 C25 1_555 1_555
H24 C30 1_555 1_555
C31 C28 1_555 1_555
H25 C31 1_555 1_555
H26 C31 1_555 1_555
H27 C31 1_555 1_555
C5 C6 1_555 1_555
C9 C10 1_555 1_555
C10 C11 1_555 1_555
C16 C17 1_555 1_555
C22 C23 1_555 1_555
C29 C30 1_555 1_555

#END
