
#######################################################################
#
#                 Cambridge Crystallographic Data Centre
#                                CCDC 
#
#######################################################################
#
# If this CIF has been generated from an entry in the Cambridge 
# Structural Database, then it will include bibliographic, chemical, 
# crystal, experimental, refinement or atomic coordinate data resulting 
# from the CCDC's data processing and validation procedures.
#
#######################################################################

data_WECLUL
_chemical_formula_moiety         'C66 H72 O18'
_chemical_name_systematic        
1,4,7,10,13,16(1,3)-hexakis(2-(Methoxycarbonylmethoxy)benzena)cyclo-octadecaphane
_symmetry_cell_setting           triclinic
_symmetry_space_group_name_H-M   'P -1'
_symmetry_Int_Tables_number      2
_space_group_name_Hall           '-P 1'
loop_
_symmetry_equiv_pos_site_id
_symmetry_equiv_pos_as_xyz
1 x,y,z
2 -x,-y,-z
_cell_length_a                   11.171(1)
_cell_length_b                   12.220(1)
_cell_length_c                   12.885(1)
_cell_angle_alpha                100.86(1)
_cell_angle_beta                 103.53(1)
_cell_angle_gamma                113.99(1)
_cell_volume                     1480.66
_exptl_crystal_colour            colorless
_chemical_melting_point          150-152deg.C
_cell_formula_units_Z            1
loop_
_atom_site_label
_atom_site_type_symbol
_atom_site_fract_x
_atom_site_fract_y
_atom_site_fract_z
C1 C 0.7945(5) 0.3210(4) 0.5738(4)
C2 C 0.8960(4) 0.3270(4) 0.5117(4)
C3 C 0.8426(4) 0.2003(4) 0.4257(4)
C4 C 0.7404(4) 0.1602(4) 0.3218(4)
C5 C 0.6788(4) 0.0398(4) 0.2469(4)
C6 C 0.7260(5) -0.0427(4) 0.2785(4)
C7 C 0.8289(5) -0.0055(5) 0.3803(4)
C8 C 0.8867(4) 0.1145(5) 0.4530(4)
O1 O 0.6937(3) 0.2441(3) 0.2937(3)
C9 C 0.7624(5) 0.3100(5) 0.2277(4)
C10 C 0.6841(5) 0.3716(5) 0.1785(4)
O2 O 0.6035(4) 0.3958(4) 0.2131(3)
O3 O 0.7123(4) 0.3951(4) 0.0904(3)
C11 C 0.6467(6) 0.4592(6) 0.0372(5)
C12 C 0.5629(4) -0.0057(4) 0.1365(4)
C13 C 0.4172(4) -0.0854(4) 0.1389(3)
C14 C 0.3791(4) -0.0167(4) 0.2245(3)
C15 C 0.3412(4) 0.0754(4) 0.2065(3)
C16 C 0.3132(4) 0.1445(4) 0.2872(4)
C17 C 0.3214(4) 0.1163(4) 0.3873(4)
C18 C 0.3569(5) 0.0259(5) 0.4073(4)
C19 C 0.3877(4) -0.0387(4) 0.3263(4)
O4 O 0.3401(3) 0.1021(3) 0.1057(2)
C20 C 0.2051(4) 0.0535(4) 0.0252(3)
C21 C 0.1987(5) 0.1429(5) -0.0377(4)
O5 O 0.2940(4) 0.2388(3) -0.0297(3)
O6 O 0.0703(3) 0.0975(3) -0.1068(3)
C22 C 0.0430(5) 0.1700(5) -0.1772(4)
C23 C 0.2846(4) 0.2514(4) 0.2719(4)
C24 C 0.1426(4) 0.2371(4) 0.2776(4)
C25 C 0.1263(4) 0.3491(4) 0.2591(4)
C26 C 0.1597(4) 0.4540(4) 0.3469(4)
C27 C 0.8410(5) 0.4373(4) 0.6698(4)
C28 C 0.8833(5) 0.4380(6) 0.7803(5)
C29 C 0.9209(6) 0.5429(6) 0.8685(5)
C30 C 0.0848(5) 0.3533(5) 0.1514(4)
O7 O 0.1839(3) 0.4456(3) 0.4556(3)
C31 C 0.3220(5) 0.4903(4) 0.5215(4)
C32 C 0.3313(5) 0.4040(5) 0.5901(4)
O8 O 0.2388(3) 0.3250(3) 0.6042(3)
O9 O 0.4637(3) 0.4326(3) 0.6329(3)
C33 C 0.4960(5) 0.3729(5) 0.7114(4)
H1 H 0.7763 0.2506 0.6018
H2 H 0.7084 0.3039 0.5198
H3 H 0.9852 0.3504 0.5652
H4 H 0.9071 0.3900 0.4748
H5 H 0.6854 -0.1274 0.2284
H6 H 0.8601 -0.0637 0.4004
H7 H 0.9592 0.1407 0.5237
H8 H 0.7676 0.2525 0.1691
H9 H 0.8555 0.3735 0.2745
H10 H 0.6749 0.4714 -0.0264
H11 H 0.5470 0.4095 0.0122
H12 H 0.6750 0.5398 0.0895
H13 H 0.5812 -0.0530 0.0795
H14 H 0.5640 0.0665 0.1166
H15 H 0.4143 -0.1593 0.1562
H16 H 0.3487 -0.1124 0.0659
H17 H 0.2992 0.1606 0.4433
H18 H 0.3608 0.0076 0.4769
H19 H 0.4159 -0.1002 0.3413
H20 H 0.1392 0.0408 0.0638
H21 H 0.1795 -0.0265 -0.0267
H22 H -0.0540 0.1271 -0.2233
H23 H 0.0661 0.2517 -0.1300
H24 H 0.0991 0.1799 -0.2244
H25 H 0.2881 0.2594 0.1998
H26 H 0.3570 0.3285 0.3288
H27 H 0.1383 0.2313 0.3501
H28 H 0.0688 0.1609 0.2207
H29 H 0.8867 0.3653 0.7958
H30 H 0.9505 0.5427 0.9447
H31 H 0.0593 0.2817 0.0888
H32 H 0.3589 0.5747 0.5706
H33 H 0.3763 0.4918 0.4735
H34 H 0.5944 0.3996 0.7374
H35 H 0.4686 0.3947 0.7743
H36 H 0.4455 0.2831 0.6753
C27A C 0.1590(5) 0.5627(4) 0.3302(4)
C26A C 0.8403(4) 0.5460(4) 0.6531(4)
C30A C 0.9152(5) 0.6467(5) 0.8486(4)
C29A C 0.0791(6) 0.4571(6) 0.1315(5)
C1A C 0.2055(5) 0.6790(4) 0.4262(4)
C28A C 0.1167(5) 0.5620(6) 0.2197(5)
C25A C 0.8737(4) 0.6509(4) 0.7409(4)
O7A O 0.8161(3) 0.5544(3) 0.5444(3)
H31A H 0.9407 0.7183 0.9112
H30A H 0.0495 0.4573 0.0553
C2A C 0.1040(4) 0.6730(4) 0.4883(4)
H1A H 0.2237 0.7494 0.3982
H2A H 0.2916 0.6961 0.4802
H29A H 0.1133 0.6347 0.2042
C24A C 0.8574(4) 0.7629(4) 0.7224(4)
C31A C 0.6780(5) 0.5097(4) 0.4785(4)
C3A C 0.1574(4) 0.7997(4) 0.5743(4)
H3A H 0.0148 0.6496 0.4348
H4A H 0.0929 0.6100 0.5252
C23A C 0.7154(4) 0.7486(4) 0.7281(4)
H27A H 0.8617 0.7687 0.6499
H28A H 0.9312 0.8391 0.7793
C32A C 0.6687(5) 0.5960(5) 0.4099(4)
H32A H 0.6411 0.4253 0.4294
H33A H 0.6237 0.5082 0.5265
C4A C 0.2596(4) 0.8398(4) 0.6782(4)
C8A C 0.1133(4) 0.8855(5) 0.5470(4)
C16A C 0.6868(4) 0.8555(4) 0.7128(4)
H25A H 0.7119 0.7406 0.8002
H26A H 0.6430 0.6715 0.6712
O8A O 0.7612(3) 0.6750(3) 0.3958(3)
O9A O 0.5363(3) 0.5674(3) 0.3671(3)
C5A C 0.3212(4) 0.9602(4) 0.7531(4)
O1A O 0.3063(3) 0.7559(3) 0.7063(3)
C7A C 0.1711(5) 1.0055(5) 0.6197(4)
H7A H 0.0408 0.8593 0.4763
C15A C 0.6588(4) 0.9246(4) 0.7935(3)
C17A C 0.6786(4) 0.8837(4) 0.6127(4)
C33A C 0.5040(5) 0.6271(5) 0.2886(4)
C6A C 0.2740(5) 1.0427(4) 0.7215(4)
C12A C 0.4371(4) 1.0057(4) 0.8635(4)
C9A C 0.2376(5) 0.6900(5) 0.7723(4)
H6A H 0.1399 1.0637 0.5996
C14A C 0.6209(4) 1.0167(4) 0.7755(3)
O4A O 0.6599(3) 0.8979(3) 0.8943(2)
C18A C 0.6431(5) 0.9741(5) 0.5927(4)
H17A H 0.7008 0.8394 0.5567
H34A H 0.4056 0.6004 0.2626
H35A H 0.5314 0.6053 0.2257
H36A H 0.5545 0.7169 0.3247
H5A H 0.3146 1.1274 0.7716
C13A C 0.5828(4) 1.0854(4) 0.8611(3)
H13A H 0.4188 1.0530 0.9205
H14A H 0.4360 0.9335 0.8834
C10A C 0.3159(5) 0.6284(5) 0.8215(4)
H8A H 0.2324 0.7475 0.8309
H9A H 0.1445 0.6265 0.7255
C19A C 0.6123(4) 1.0387(4) 0.6737(4)
C20A C 0.7949(4) 0.9465(4) 0.9748(3)
H18A H 0.6392 0.9924 0.5231
H15A H 0.5857 1.1593 0.8438
H16A H 0.6513 1.1124 0.9341
O2A O 0.3965(4) 0.6042(4) 0.7869(3)
O3A O 0.2877(4) 0.6049(4) 0.9096(3)
H19A H 0.5841 1.1002 0.6587
C21A C 0.8013(5) 0.8571(5) 1.0377(4)
H20A H 0.8608 0.9592 0.9362
H21A H 0.8205 1.0265 1.0267
C11A C 0.3533(6) 0.5408(6) 0.9628(5)
O5A O 0.7060(4) 0.7612(3) 1.0297(3)
O6A O 0.9297(3) 0.9025(3) 1.1068(3)
H10A H 0.3251 0.5286 1.0264
H11A H 0.4530 0.5905 0.9878
H12A H 0.3250 0.4602 0.9105
C22A C 0.9570(5) 0.8300(5) 1.1772(4)
H22A H 1.0540 0.8729 1.2233
H23A H 0.9339 0.7483 1.1300
H24A H 0.9009 0.8201 1.2244
loop_
_geom_bond_atom_site_label_1
_geom_bond_atom_site_label_2
_geom_bond_site_symmetry_1
_geom_bond_site_symmetry_2
C1 C2 1_555 1_555
C2 C3 1_555 1_555
C3 C4 1_555 1_555
C4 C5 1_555 1_555
C5 C6 1_555 1_555
C6 C7 1_555 1_555
C7 C8 1_555 1_555
C8 C3 1_555 1_555
O1 C4 1_555 1_555
C9 O1 1_555 1_555
C10 C9 1_555 1_555
O2 C10 1_555 1_555
O3 C10 1_555 1_555
C11 O3 1_555 1_555
C12 C5 1_555 1_555
C13 C12 1_555 1_555
C14 C13 1_555 1_555
C15 C14 1_555 1_555
C16 C15 1_555 1_555
C17 C16 1_555 1_555
C18 C17 1_555 1_555
C19 C14 1_555 1_555
O4 C15 1_555 1_555
C20 O4 1_555 1_555
C21 C20 1_555 1_555
O5 C21 1_555 1_555
O6 C21 1_555 1_555
C22 O6 1_555 1_555
C23 C16 1_555 1_555
C24 C23 1_555 1_555
C25 C24 1_555 1_555
C26 C25 1_555 1_555
C27 C1 1_555 1_555
C28 C27 1_555 1_555
C29 C28 1_555 1_555
C30 C25 1_555 1_555
O7 C26 1_555 1_555
C31 O7 1_555 1_555
C32 C31 1_555 1_555
O8 C32 1_555 1_555
O9 C32 1_555 1_555
C33 O9 1_555 1_555
H1 C1 1_555 1_555
H2 C1 1_555 1_555
H3 C2 1_555 1_555
H4 C2 1_555 1_555
H5 C6 1_555 1_555
H6 C7 1_555 1_555
H7 C8 1_555 1_555
H8 C9 1_555 1_555
H9 C9 1_555 1_555
H10 C11 1_555 1_555
H11 C11 1_555 1_555
H12 C11 1_555 1_555
H13 C12 1_555 1_555
H14 C12 1_555 1_555
H15 C13 1_555 1_555
H16 C13 1_555 1_555
H17 C17 1_555 1_555
H18 C18 1_555 1_555
H19 C19 1_555 1_555
H20 C20 1_555 1_555
H21 C20 1_555 1_555
H22 C22 1_555 1_555
H23 C22 1_555 1_555
H24 C22 1_555 1_555
H25 C23 1_555 1_555
H26 C23 1_555 1_555
H27 C24 1_555 1_555
H28 C24 1_555 1_555
H29 C28 1_555 1_555
H30 C29 1_555 1_555
H31 C30 1_555 1_555
H32 C31 1_555 1_555
H33 C31 1_555 1_555
H34 C33 1_555 1_555
H35 C33 1_555 1_555
H36 C33 1_555 1_555
C27A C26 1_555 1_555
C26A C27 1_555 1_555
C30A C29 1_555 1_555
C29A C30 1_555 1_555
C1A C27A 1_555 1_555
C28A C27A 1_555 1_555
C25A C26A 1_555 1_555
O7A C26A 1_555 1_555
H31A C30A 1_555 1_555
H30A C29A 1_555 1_555
C2A C1A 1_555 1_555
H1A C1A 1_555 1_555
H2A C1A 1_555 1_555
H29A C28A 1_555 1_555
C24A C25A 1_555 1_555
C31A O7A 1_555 1_555
C3A C2A 1_555 1_555
H3A C2A 1_555 1_555
H4A C2A 1_555 1_555
C23A C24A 1_555 1_555
H27A C24A 1_555 1_555
H28A C24A 1_555 1_555
C32A C31A 1_555 1_555
H32A C31A 1_555 1_555
H33A C31A 1_555 1_555
C4A C3A 1_555 1_555
C8A C3A 1_555 1_555
C16A C23A 1_555 1_555
H25A C23A 1_555 1_555
H26A C23A 1_555 1_555
O8A C32A 1_555 1_555
O9A C32A 1_555 1_555
C5A C4A 1_555 1_555
O1A C4A 1_555 1_555
C7A C8A 1_555 1_555
H7A C8A 1_555 1_555
C15A C16A 1_555 1_555
C17A C16A 1_555 1_555
C33A O9A 1_555 1_555
C6A C5A 1_555 1_555
C12A C5A 1_555 1_555
C9A O1A 1_555 1_555
H6A C7A 1_555 1_555
C14A C15A 1_555 1_555
O4A C15A 1_555 1_555
C18A C17A 1_555 1_555
H17A C17A 1_555 1_555
H34A C33A 1_555 1_555
H35A C33A 1_555 1_555
H36A C33A 1_555 1_555
H5A C6A 1_555 1_555
C13A C12A 1_555 1_555
H13A C12A 1_555 1_555
H14A C12A 1_555 1_555
C10A C9A 1_555 1_555
H8A C9A 1_555 1_555
H9A C9A 1_555 1_555
C19A C14A 1_555 1_555
C20A O4A 1_555 1_555
H18A C18A 1_555 1_555
H15A C13A 1_555 1_555
H16A C13A 1_555 1_555
O2A C10A 1_555 1_555
O3A C10A 1_555 1_555
H19A C19A 1_555 1_555
C21A C20A 1_555 1_555
H20A C20A 1_555 1_555
H21A C20A 1_555 1_555
C11A O3A 1_555 1_555
O5A C21A 1_555 1_555
O6A C21A 1_555 1_555
H10A C11A 1_555 1_555
H11A C11A 1_555 1_555
H12A C11A 1_555 1_555
C22A O6A 1_555 1_555
H22A C22A 1_555 1_555
H23A C22A 1_555 1_555
H24A C22A 1_555 1_555
C18 C19 1_555 1_555
C30A C25A 1_555 1_555
C29A C28A 1_555 1_555
C7A C6A 1_555 1_555
C14A C13A 1_555 1_555
C18A C19A 1_555 1_555

#END
