
#######################################################################
#
#                 Cambridge Crystallographic Data Centre
#                                CCDC 
#
#######################################################################
#
# If this CIF has been generated from an entry in the Cambridge 
# Structural Database, then it will include bibliographic, chemical, 
# crystal, experimental, refinement or atomic coordinate data resulting 
# from the CCDC's data processing and validation procedures.
#
#######################################################################

data_WECLAT
_chemical_formula_moiety         'C37 H47 N1 O7'
_chemical_name_systematic        
't-Butyl (1-(benzyloxy)-1-(8-(benzyloxy)-1,4-dioxaspiro[4.5]dec-7-yl)-3-(4-methoxyphenyl)propan-2-yl)carbamate'
_symmetry_cell_setting           triclinic
_symmetry_space_group_name_H-M   'P -1'
_symmetry_Int_Tables_number      2
_space_group_name_Hall           '-P 1'
loop_
_symmetry_equiv_pos_site_id
_symmetry_equiv_pos_as_xyz
1 x,y,z
2 -x,-y,-z
_cell_length_a                   8.472(11)
_cell_length_b                   14.485(18)
_cell_length_c                   15.543(20)
_cell_angle_alpha                68.440(11)
_cell_angle_beta                 79.441(13)
_cell_angle_gamma                74.597(12)
_cell_volume                     1702.4
_exptl_crystal_colour            colorless
_exptl_crystal_description       stick
_cell_formula_units_Z            2
loop_
_atom_site_label
_atom_site_type_symbol
_atom_site_fract_x
_atom_site_fract_y
_atom_site_fract_z
C1 C 0.8478(6) -0.0543(3) 0.4471(3)
H1 H 0.7963 -0.0619 0.5067
C2 C 0.9045(7) -0.1391(3) 0.4198(4)
H2 H 0.8881 -0.2026 0.4596
C3 C 0.9846(7) -0.1277(4) 0.3337(5)
H3 H 1.0292 -0.1842 0.3152
C4 C 0.9996(7) -0.0334(4) 0.2742(4)
H4 H 1.0511 -0.0254 0.2145
C5 C 0.9392(5) 0.0499(3) 0.3022(3)
H5 H 0.9490 0.1140 0.2609
C6 C 0.8652(5) 0.0399(3) 0.3893(3)
C7 C 0.8065(6) 0.1324(3) 0.4172(3)
H6 H 0.7602 0.1135 0.4816
H7 H 0.8983 0.1629 0.4118
C8 C 0.6239(4) 0.2965(2) 0.3795(2)
H8 H 0.7164 0.3203 0.3876
C9 C 0.5062(5) 0.2802(3) 0.4681(2)
H9 H 0.4244 0.2466 0.4638
H10 H 0.5672 0.2358 0.5207
C10 C 0.4196(5) 0.3792(3) 0.4849(2)
H11 H 0.3409 0.3655 0.5394
H12 H 0.4996 0.4092 0.4966
C11 C 0.3318(4) 0.4528(2) 0.4025(2)
C12 C 0.0685(6) 0.4946(3) 0.3624(3)
H13 H -0.0343 0.4794 0.3970
H14 H 0.0609 0.5091 0.2970
C13 C 0.1057(6) 0.5838(3) 0.3775(3)
H15 H 0.1176 0.6380 0.3188
H16 H 0.0181 0.6101 0.4177
C14 C 0.4497(4) 0.4722(2) 0.3151(2)
H17 H 0.5305 0.5052 0.3215
H18 H 0.3892 0.5181 0.2628
C15 C 0.5391(4) 0.3742(2) 0.2949(2)
H19 H 0.4544 0.3450 0.2855
C16 C 0.6602(4) 0.3915(2) 0.2051(2)
H20 H 0.7286 0.3251 0.2055
C17 C 0.7749(4) 0.4625(2) 0.1919(2)
H21 H 0.8078 0.4513 0.2528
C18 C 0.9316(4) 0.4426(3) 0.1271(2)
H22 H 0.8981 0.4495 0.0682
H23 H 0.9907 0.4957 0.1150
C19 C 1.0491(4) 0.3421(2) 0.1603(2)
C20 C 1.1133(5) 0.2834(3) 0.1039(3)
H24 H 1.0755 0.3051 0.0456
C21 C 1.2298(5) 0.1949(3) 0.1299(3)
H25 H 1.2704 0.1585 0.0892
C22 C 1.2872(4) 0.1596(3) 0.2166(3)
C23 C 1.2252(4) 0.2150(3) 0.2759(3)
H26 H 1.2610 0.1922 0.3347
C24 C 1.1088(4) 0.3049(3) 0.2466(2)
H27 H 1.0690 0.3419 0.2868
C25 C 1.4694(6) 0.0347(3) 0.3235(3)
H28 H 1.5108 0.0870 0.3302
H29 H 1.5572 -0.0238 0.3264
H30 H 1.3848 0.0161 0.3728
C26 C 0.5212(5) 0.3614(3) 0.0973(2)
H31 H 0.4351 0.3971 0.0559
H32 H 0.4755 0.3141 0.1524
C27 C 0.6605(4) 0.3027(3) 0.0498(2)
C28 C 0.7127(6) 0.1995(3) 0.0897(3)
H33 H 0.6637 0.1667 0.1477
C29 C 0.8340(7) 0.1435(4) 0.0471(5)
H34 H 0.8662 0.0736 0.0758
C30 C 0.9067(7) 0.1897(5) -0.0365(5)
H35 H 0.9891 0.1513 -0.0656
C31 C 0.8611(6) 0.2926(5) -0.0794(3)
H36 H 0.9131 0.3241 -0.1369
C32 C 0.7363(5) 0.3498(3) -0.0363(3)
H37 H 0.7038 0.4196 -0.0653
C33 C 0.6915(5) 0.6412(2) 0.1871(3)
C34 C 0.5417(5) 0.8152(3) 0.1744(3)
C35 C 0.4555(7) 0.7838(3) 0.2680(3)
H38 H 0.3746 0.7481 0.2685
H39 H 0.4024 0.8428 0.2850
H40 H 0.5332 0.7399 0.3116
C36 C 0.4156(8) 0.8882(3) 0.1073(4)
H41 H 0.4682 0.9066 0.0451
H42 H 0.3709 0.9483 0.1240
H43 H 0.3285 0.8556 0.1109
C37 C 0.6810(7) 0.8619(4) 0.1628(6)
H44 H 0.7422 0.8278 0.2162
H45 H 0.6412 0.9324 0.1564
H46 H 0.7511 0.8561 0.1082
N1 N 0.6879(3) 0.56817(18) 0.15446(18)
H47 H 0.6308 0.5846 0.1086
O1 O 0.6854(3) 0.20365(15) 0.35955(15)
O2 O 0.2540(3) 0.54565(18) 0.41950(18)
O3 O 0.1998(3) 0.41339(18) 0.39435(18)
O4 O 0.5718(3) 0.43380(15) 0.12360(14)
O5 O 1.4032(3) 0.0710(2) 0.2368(2)
O6 O 0.7693(4) 0.6292(2) 0.2491(2)
O7 O 0.5941(4) 0.72888(17) 0.14018(16)
loop_
_geom_bond_atom_site_label_1
_geom_bond_atom_site_label_2
_geom_bond_site_symmetry_1
_geom_bond_site_symmetry_2
C1 H1 1_555 1_555
C2 C1 1_555 1_555
H2 C2 1_555 1_555
C3 C2 1_555 1_555
H3 C3 1_555 1_555
C4 C3 1_555 1_555
H4 C4 1_555 1_555
C5 C4 1_555 1_555
H5 C5 1_555 1_555
C6 C1 1_555 1_555
C7 C6 1_555 1_555
H6 C7 1_555 1_555
H7 C7 1_555 1_555
C8 H8 1_555 1_555
C9 C8 1_555 1_555
H9 C9 1_555 1_555
H10 C9 1_555 1_555
C10 C9 1_555 1_555
H11 C10 1_555 1_555
H12 C10 1_555 1_555
C11 C10 1_555 1_555
C12 H13 1_555 1_555
H14 C12 1_555 1_555
C13 C12 1_555 1_555
H15 C13 1_555 1_555
H16 C13 1_555 1_555
C14 C11 1_555 1_555
H17 C14 1_555 1_555
H18 C14 1_555 1_555
C15 C8 1_555 1_555
H19 C15 1_555 1_555
C16 C15 1_555 1_555
H20 C16 1_555 1_555
C17 C16 1_555 1_555
H21 C17 1_555 1_555
C18 C17 1_555 1_555
H22 C18 1_555 1_555
H23 C18 1_555 1_555
C19 C18 1_555 1_555
C20 C19 1_555 1_555
H24 C20 1_555 1_555
C21 C20 1_555 1_555
H25 C21 1_555 1_555
C22 C21 1_555 1_555
C23 C22 1_555 1_555
H26 C23 1_555 1_555
C24 C19 1_555 1_555
H27 C24 1_555 1_555
C25 H28 1_555 1_555
H29 C25 1_555 1_555
H30 C25 1_555 1_555
C26 H31 1_555 1_555
H32 C26 1_555 1_555
C27 C26 1_555 1_555
C28 C27 1_555 1_555
H33 C28 1_555 1_555
C29 C28 1_555 1_555
H34 C29 1_555 1_555
C30 C29 1_555 1_555
H35 C30 1_555 1_555
C31 C30 1_555 1_555
H36 C31 1_555 1_555
C32 C27 1_555 1_555
H37 C32 1_555 1_555
C33 N1 1_555 1_555
C34 C35 1_555 1_555
C35 H38 1_555 1_555
H39 C35 1_555 1_555
H40 C35 1_555 1_555
C36 C34 1_555 1_555
H41 C36 1_555 1_555
H42 C36 1_555 1_555
H43 C36 1_555 1_555
C37 C34 1_555 1_555
H44 C37 1_555 1_555
H45 C37 1_555 1_555
H46 C37 1_555 1_555
N1 C17 1_555 1_555
H47 N1 1_555 1_555
O1 C7 1_555 1_555
O2 C11 1_555 1_555
O3 C11 1_555 1_555
O4 C16 1_555 1_555
O5 C22 1_555 1_555
O6 C33 1_555 1_555
O7 C33 1_555 1_555
C5 C6 1_555 1_555
C8 O1 1_555 1_555
C12 O3 1_555 1_555
C13 O2 1_555 1_555
C14 C15 1_555 1_555
C23 C24 1_555 1_555
C25 O5 1_555 1_555
C26 O4 1_555 1_555
C31 C32 1_555 1_555
C34 O7 1_555 1_555

#END
