
#######################################################################
#
#                 Cambridge Crystallographic Data Centre
#                                CCDC 
#
#######################################################################
#
# If this CIF has been generated from an entry in the Cambridge 
# Structural Database, then it will include bibliographic, chemical, 
# crystal, experimental, refinement or atomic coordinate data resulting 
# from the CCDC's data processing and validation procedures.
#
#######################################################################

data_WECLOF
_chemical_formula_moiety         'C54 H60 O6,C1 H1 Cl3'
_chemical_name_systematic        
'1,4,7,10,13,16(1,3)-hexakis(5-Methoxybenzena)cyclo-octadecaphane chloroform solvate'
_symmetry_cell_setting           monoclinic
_symmetry_space_group_name_H-M   'P 21/c'
_symmetry_Int_Tables_number      14
_space_group_name_Hall           '-P 2ybc'
loop_
_symmetry_equiv_pos_site_id
_symmetry_equiv_pos_as_xyz
1 x,y,z
2 -x,1/2+y,1/2-z
3 -x,-y,-z
4 x,1/2-y,1/2+z
_cell_length_a                   11.403(1)
_cell_length_b                   7.253(1)
_cell_length_c                   30.641(3)
_cell_angle_alpha                90
_cell_angle_beta                 100.03
_cell_angle_gamma                90
_cell_volume                     2495.46
_exptl_crystal_colour            colorless
_cell_formula_units_Z            2
loop_
_atom_site_label
_atom_site_type_symbol
_atom_site_fract_x
_atom_site_fract_y
_atom_site_fract_z
O1 O 0.0993(5) -0.0164(8) 0.0575(2)
C1 C 0.1118(6) 0.5985(10) -0.0506(2)
C2 C 0.2027(6) 0.4463(10) -0.0426(2)
C3 C 0.2185(5) 0.3617(9) 0.0032(2)
C4 C 0.1548(6) 0.2067(10) 0.0111(2)
C5 C 0.1681(5) 0.1353(10) 0.0539(2)
C6 C 0.2461(5) 0.2139(10) 0.0884(2)
C7 C 0.3089(5) 0.3698(10) 0.0806(2)
C8 C 0.2923(5) 0.4418(9) 0.0387(2)
C9 C 0.0921(13) -0.0674(26) 0.1061(5)
O2 O 0.6530(4) 0.4922(6) 0.2928(1)
C10 C 0.3939(6) 0.4564(10) 0.1185(2)
C11 C 0.5053(5) 0.3489(10) 0.1332(2)
C12 C 0.5886(5) 0.4470(8) 0.1707(2)
C13 C 0.5801(5) 0.4146(9) 0.2147(2)
C14 C 0.6548(5) 0.5106(9) 0.2477(2)
C15 C 0.7358(5) 0.6353(8) 0.2372(2)
C16 C 0.7448(5) 0.6703(8) 0.1934(2)
C17 C 0.6693(5) 0.5732(9) 0.1607(2)
C18 C 0.5627(6) 0.3784(10) 0.3056(2)
O3 O 1.0751(4) 1.4604(6) 0.2081(1)
C19 C 0.8292(5) 0.8151(8) 0.1813(2)
C20 C 0.7675(5) 0.9996(9) 0.1701(2)
C21 C 0.8459(5) 1.1462(9) 0.1562(2)
C22 C 0.9293(5) 1.2375(9) 0.1870(2)
C23 C 0.9981(5) 1.3763(10) 0.1746(2)
C24 C 0.9876(5) 1.4223(9) 0.1301(2)
C25 C 0.0946(6) 0.6667(9) -0.0981(2)
C26 C 0.8343(5) 1.1968(10) 0.1116(2)
C27 C 1.1505(6) 1.5997(11) 0.1971(2)
H1 H 0.1388 0.6985 -0.0309
H2 H 0.0371 0.5554 -0.0441
H3 H 0.2780 0.4932 -0.0476
H4 H 0.1779 0.3522 -0.0642
H5 H 0.1018 0.1478 -0.0125
H6 H 0.2564 0.1602 0.1175
H7 H 0.3341 0.5527 0.0338
H8 H 0.0505 0.0273 0.1191
H9 H 0.0504 -0.1823 0.1066
H10 H 0.1712 -0.0798 0.1227
H11 H 0.3536 0.4718 0.1433
H12 H 0.4151 0.5764 0.1092
H13 H 0.5455 0.3323 0.1084
H14 H 0.4846 0.2295 0.1430
H15 H 0.5256 0.3247 0.2226
H16 H 0.7858 0.7010 0.2606
H17 H 0.6733 0.5977 0.1302
H18 H 0.5723 0.3776 0.3373
H19 H 0.4854 0.4259 0.2933
H20 H 0.5703 0.2550 0.2951
H21 H 0.8615 0.7738 0.1561
H22 H 0.8938 0.8314 0.2057
H23 H 0.7376 1.0413 0.1958
H24 H 0.7006 0.9802 0.1468
H25 H 0.9380 1.2046 0.2178
H26 H 1.0382 1.5159 0.1212
H27 H 0.7758 1.1365 0.0900
H28 H 1.1981 1.6461 0.2238
H29 H 1.2015 1.5509 0.1781
H30 H 1.1033 1.6980 0.1822
C25B C 0.9054(6) 1.3333(9) 0.0981(2)
C24B C 0.0124(5) 0.5777(9) -0.1301(2)
C26B C 0.1657(5) 0.8032(10) -0.1116(2)
C1B C 0.8882(6) 1.4015(10) 0.0506(2)
C23B C 0.0019(5) 0.6237(10) -0.1746(2)
H26B H -0.0382 0.4841 -0.1212
C21B C 0.1541(5) 0.8538(9) -0.1562(2)
H27B H 0.2242 0.8635 -0.0900
C2B C 0.7973(6) 1.5537(10) 0.0426(2)
H1B H 0.8612 1.3015 0.0309
H2B H 0.9629 1.4446 0.0441
O3B O -0.0751(4) 0.5396(6) -0.2081(1)
C22B C 0.0707(5) 0.7625(9) -0.1870(2)
C20B C 0.2325(5) 1.0004(9) -0.1701(2)
C3B C 0.7815(5) 1.6383(9) -0.0032(2)
H3B H 0.7220 1.5068 0.0476
H4B H 0.8221 1.6478 0.0642
C27B C -0.1505(6) 0.4003(11) -0.1971(2)
H25B H 0.0620 0.7954 -0.2178
C19B C 0.1708(5) 1.1849(8) -0.1813(2)
H23B H 0.2624 0.9587 -0.1958
H24B H 0.2994 1.0198 -0.1468
C4B C 0.8452(6) 1.7933(10) -0.0111(2)
C8B C 0.7077(5) 1.5582(9) -0.0387(2)
H28B H -0.1981 0.3539 -0.2238
H29B H -0.2015 0.4491 -0.1781
H30B H -0.1033 0.3020 -0.1822
C16B C 0.2552(5) 1.3297(8) -0.1934(2)
H21B H 0.1385 1.2262 -0.1561
H22B H 0.1062 1.1686 -0.2057
C5B C 0.8319(5) 1.8647(10) -0.0539(2)
H5B H 0.8982 1.8522 0.0125
C7B C 0.6911(5) 1.6302(10) -0.0806(2)
H7B H 0.6659 1.4473 -0.0338
C15B C 0.2642(5) 1.3647(8) -0.2372(2)
C17B C 0.3307(5) 1.4268(9) -0.1607(2)
O1B O 0.9007(5) 2.0164(8) -0.0575(2)
C6B C 0.7539(5) 1.7861(10) -0.0884(2)
C10B C 0.6061(6) 1.5436(10) -0.1185(2)
C14B C 0.3452(5) 1.4894(9) -0.2477(2)
H16B H 0.2142 1.2990 -0.2606
C12B C 0.4114(5) 1.5530(8) -0.1707(2)
H17B H 0.3267 1.4023 -0.1302
C9B C 0.9079(13) 2.0674(26) -0.1061(5)
H6B H 0.7436 1.8398 -0.1175
C11B C 0.4947(5) 1.6511(10) -0.1332(2)
H11B H 0.6464 1.5282 -0.1433
H12B H 0.5849 1.4236 -0.1092
O2B O 0.3470(4) 1.5078(6) -0.2928(1)
C13B C 0.4199(5) 1.5854(9) -0.2147(2)
H8B H 0.9495 1.9727 -0.1191
H9B H 0.9496 2.1823 -0.1066
H10B H 0.8288 2.0798 -0.1227
H13B H 0.4545 1.6677 -0.1084
H14B H 0.5154 1.7705 -0.1430
C18B C 0.4373(6) 1.6216(10) -0.3056(2)
H15B H 0.4744 1.6753 -0.2226
H18B H 0.4277 1.6224 -0.3373
H19B H 0.5146 1.5741 -0.2933
H20B H 0.4297 1.7450 -0.2951
C28? C 0.1240(21) -0.1333(40) 0.0923(8)
C29? C 0.4576(11) 0.0106(19) 0.0191(5)
Cl1? Cl 0.5737(5) 0.1628(8) 0.0156(2)
Cl2? Cl 0.5256(6) -0.1235(8) 0.0641(2)
H31? H 0.1668 -0.2412 0.0859
H32? H 0.1703 -0.0670 0.1164
H33? H 0.0495 -0.1695 0.1002
H34? H 0.3890 0.0749 0.0255
loop_
_geom_bond_atom_site_label_1
_geom_bond_atom_site_label_2
_geom_bond_site_symmetry_1
_geom_bond_site_symmetry_2
O1 C5 1_555 1_555
C1 C2 1_555 1_555
C2 C3 1_555 1_555
C3 C4 1_555 1_555
C4 C5 1_555 1_555
C5 C6 1_555 1_555
C6 C7 1_555 1_555
C7 C8 1_555 1_555
C8 C3 1_555 1_555
C9 O1 1_555 1_555
O2 C14 1_555 1_555
C10 C7 1_555 1_555
C11 C10 1_555 1_555
C12 C11 1_555 1_555
C13 C12 1_555 1_555
C14 C13 1_555 1_555
C15 C14 1_555 1_555
C16 C15 1_555 1_555
C17 C12 1_555 1_555
C18 O2 1_555 1_555
O3 C23 1_555 1_555
C19 C16 1_555 1_555
C20 C19 1_555 1_555
C21 C20 1_555 1_555
C22 C21 1_555 1_555
C23 C22 1_555 1_555
C24 C23 1_555 1_555
C25 C1 1_555 1_555
C26 C21 1_555 1_555
C27 O3 1_555 1_555
H1 C1 1_555 1_555
H2 C1 1_555 1_555
H3 C2 1_555 1_555
H4 C2 1_555 1_555
H5 C4 1_555 1_555
H6 C6 1_555 1_555
H7 C8 1_555 1_555
H8 C9 1_555 1_555
H9 C9 1_555 1_555
H10 C9 1_555 1_555
H11 C10 1_555 1_555
H12 C10 1_555 1_555
H13 C11 1_555 1_555
H14 C11 1_555 1_555
H15 C13 1_555 1_555
H16 C15 1_555 1_555
H17 C17 1_555 1_555
H18 C18 1_555 1_555
H19 C18 1_555 1_555
H20 C18 1_555 1_555
H21 C19 1_555 1_555
H22 C19 1_555 1_555
H23 C20 1_555 1_555
H24 C20 1_555 1_555
H25 C22 1_555 1_555
H26 C24 1_555 1_555
H27 C26 1_555 1_555
H28 C27 1_555 1_555
H29 C27 1_555 1_555
H30 C27 1_555 1_555
C25B C24 1_555 1_555
C24B C25 1_555 1_555
C26B C25 1_555 1_555
C1B C25B 1_555 1_555
C23B C24B 1_555 1_555
H26B C24B 1_555 1_555
C21B C26B 1_555 1_555
H27B C26B 1_555 1_555
C2B C1B 1_555 1_555
H1B C1B 1_555 1_555
H2B C1B 1_555 1_555
O3B C23B 1_555 1_555
C22B C23B 1_555 1_555
C20B C21B 1_555 1_555
C3B C2B 1_555 1_555
H3B C2B 1_555 1_555
H4B C2B 1_555 1_555
C27B O3B 1_555 1_555
H25B C22B 1_555 1_555
C19B C20B 1_555 1_555
H23B C20B 1_555 1_555
H24B C20B 1_555 1_555
C4B C3B 1_555 1_555
C8B C3B 1_555 1_555
H28B C27B 1_555 1_555
H29B C27B 1_555 1_555
H30B C27B 1_555 1_555
C16B C19B 1_555 1_555
H21B C19B 1_555 1_555
H22B C19B 1_555 1_555
C5B C4B 1_555 1_555
H5B C4B 1_555 1_555
C7B C8B 1_555 1_555
H7B C8B 1_555 1_555
C15B C16B 1_555 1_555
C17B C16B 1_555 1_555
O1B C5B 1_555 1_555
C6B C5B 1_555 1_555
C10B C7B 1_555 1_555
C14B C15B 1_555 1_555
H16B C15B 1_555 1_555
C12B C17B 1_555 1_555
H17B C17B 1_555 1_555
C9B O1B 1_555 1_555
H6B C6B 1_555 1_555
C11B C10B 1_555 1_555
H11B C10B 1_555 1_555
H12B C10B 1_555 1_555
O2B C14B 1_555 1_555
C13B C14B 1_555 1_555
H8B C9B 1_555 1_555
H9B C9B 1_555 1_555
H10B C9B 1_555 1_555
H13B C11B 1_555 1_555
H14B C11B 1_555 1_555
C18B O2B 1_555 1_555
H15B C13B 1_555 1_555
H18B C18B 1_555 1_555
H19B C18B 1_555 1_555
H20B C18B 1_555 1_555
C16 C17 1_555 1_555
C26 C25B 1_555 1_555
C21B C22B 1_555 1_555
C7B C6B 1_555 1_555
C12B C11B 1_555 1_555
C12B C13B 1_555 1_555

#END
