
#######################################################################
#
#                 Cambridge Crystallographic Data Centre
#                                CCDC 
#
#######################################################################
#
# If this CIF has been generated from an entry in the Cambridge 
# Structural Database, then it will include bibliographic, chemical, 
# crystal, experimental, refinement or atomic coordinate data resulting 
# from the CCDC's data processing and validation procedures.
#
#######################################################################

data_WECMIC
_chemical_formula_moiety         'C13 H16 Br1 N1 O1'
_chemical_name_systematic        6-(2-Bromophenyl)-4,5-dimethylpiperidin-2-one
_symmetry_cell_setting           triclinic
_symmetry_space_group_name_H-M   'P -1'
_symmetry_Int_Tables_number      2
_space_group_name_Hall           '-P 1'
loop_
_symmetry_equiv_pos_site_id
_symmetry_equiv_pos_as_xyz
1 x,y,z
2 -x,-y,-z
_cell_length_a                   6.7541(4)
_cell_length_b                   8.2457(4)
_cell_length_c                   11.7883(6)
_cell_angle_alpha                105.503(3)
_cell_angle_beta                 99.665(4)
_cell_angle_gamma                94.576(4)
_cell_volume                     618.259
_exptl_crystal_colour            yellow
_exptl_crystal_description       prism
_cell_formula_units_Z            2
loop_
_atom_site_label
_atom_site_type_symbol
_atom_site_fract_x
_atom_site_fract_y
_atom_site_fract_z
Br1 Br 0.33838(12) 1.20973(8) 0.26225(6)
O1 O -0.0783(7) 0.4105(6) 0.1074(4)
N1 N 0.1450(7) 0.6462(7) 0.1469(4)
H1 H 0.1669 0.6128 0.0731
C1 C 0.4896(10) 1.0376(9) 0.1885(6)
C2 C 0.7617(10) 0.9713(12) 0.0885(7)
H2 H 0.8772 1.0072 0.0608
C3 C 0.7029(10) 0.7971(12) 0.0686(6)
H3 H 0.7757 0.7152 0.0263
C4 C 0.5358(9) 0.7463(9) 0.1121(6)
H4 H 0.4954 0.6289 0.0999
C5 C 0.4280(9) 0.8656(8) 0.1730(5)
C6 C 0.2443(9) 0.8146(8) 0.2224(5)
H5 H 0.1461 0.8979 0.2160
C7 C 0.2979(10) 0.8169(8) 0.3549(6)
H6 H 0.3420 0.9378 0.4034
C8 C 0.0966(11) 0.7588(10) 0.3876(6)
H7 H -0.0051 0.8320 0.3648
C9 C 0.0184(10) 0.5760(9) 0.3132(6)
H8 H 0.1003 0.4991 0.3467
H9 H -0.1231 0.5493 0.3214
C10 C 0.0241(9) 0.5396(9) 0.1811(6)
C11 C 0.4712(11) 0.7178(10) 0.3804(6)
H10 H 0.5946 0.7706 0.3641
H11 H 0.4379 0.6006 0.3287
H12 H 0.4934 0.7182 0.4647
C12 C 0.1150(13) 0.7794(11) 0.5212(7)
H13 H 0.1988 0.6972 0.5441
H14 H -0.0201 0.7594 0.5388
H15 H 0.1780 0.8948 0.5668
C13 C 0.6553(11) 1.0901(10) 0.1472(6)
H16 H 0.6952 1.2075 0.1592
loop_
_geom_bond_atom_site_label_1
_geom_bond_atom_site_label_2
_geom_bond_site_symmetry_1
_geom_bond_site_symmetry_2
Br1 C1 1_555 1_555
O1 C10 1_555 1_555
N1 H1 1_555 1_555
C1 C5 1_555 1_555
C2 H2 1_555 1_555
C3 C2 1_555 1_555
H3 C3 1_555 1_555
C4 C3 1_555 1_555
H4 C4 1_555 1_555
C5 C4 1_555 1_555
C6 N1 1_555 1_555
H5 C6 1_555 1_555
C7 C6 1_555 1_555
H6 C7 1_555 1_555
C8 C7 1_555 1_555
H7 C8 1_555 1_555
C9 C8 1_555 1_555
H8 C9 1_555 1_555
H9 C9 1_555 1_555
C10 N1 1_555 1_555
C11 C7 1_555 1_555
H10 C11 1_555 1_555
H11 C11 1_555 1_555
H12 C11 1_555 1_555
C12 C8 1_555 1_555
H13 C12 1_555 1_555
H14 C12 1_555 1_555
H15 C12 1_555 1_555
C13 C1 1_555 1_555
H16 C13 1_555 1_555
C2 C13 1_555 1_555
C5 C6 1_555 1_555
C9 C10 1_555 1_555

#END
