
#######################################################################
#
#                 Cambridge Crystallographic Data Centre
#                                CCDC 
#
#######################################################################
#
# If this CIF has been generated from an entry in the Cambridge 
# Structural Database, then it will include bibliographic, chemical, 
# crystal, experimental, refinement or atomic coordinate data resulting 
# from the CCDC's data processing and validation procedures.
#
#######################################################################

data_WECPID
_chemical_formula_moiety         'C25 H20 O1'
_chemical_name_systematic        
anti-3-Oxo-1,5(1,4)-dinaphthalenacycloheptaphane
_symmetry_cell_setting           monoclinic
_symmetry_space_group_name_H-M   'P 21/n'
_symmetry_Int_Tables_number      14
_space_group_name_Hall           '-P 2yn'
loop_
_symmetry_equiv_pos_site_id
_symmetry_equiv_pos_as_xyz
1 x,y,z
2 1/2-x,1/2+y,1/2-z
3 -x,-y,-z
4 1/2+x,1/2-y,1/2+z
_cell_length_a                   8.179(1)
_cell_length_b                   14.052(1)
_cell_length_c                   15.183(1)
_cell_angle_alpha                90
_cell_angle_beta                 97.31(1)
_cell_angle_gamma                90
_cell_volume                     1730.82
_exptl_crystal_colour            colorless
_chemical_melting_point          210-212deg.C
_cell_formula_units_Z            4
loop_
_atom_site_label
_atom_site_type_symbol
_atom_site_fract_x
_atom_site_fract_y
_atom_site_fract_z
O1 O 0.1535(3) 0.3694(2) 0.0638(2)
C1 C 0.6747(3) 0.6821(2) 0.3107(2)
C2 C 0.7964(3) 0.6251(2) 0.2588(2)
C3 C 0.7332(3) 0.5268(2) 0.2350(2)
C4 C 0.7139(3) 0.4586(2) 0.3018(2)
C5 C 0.8026(3) 0.4650(2) 0.3880(2)
C6 C 0.7751(4) 0.4028(3) 0.4533(2)
C7 C 0.6568(4) 0.3318(2) 0.4366(2)
C8 C 0.5695(4) 0.3235(2) 0.3550(2)
C9 C 0.5958(3) 0.3845(2) 0.2842(2)
C10 C 0.5065(3) 0.3778(2) 0.1979(2)
C11 C 0.5514(3) 0.4335(2) 0.1318(2)
C12 C 0.6631(3) 0.5086(2) 0.1504(2)
C13 C 0.3532(3) 0.3158(2) 0.1784(2)
C14 C 0.2061(3) 0.3744(2) 0.1421(2)
C15 C 0.1250(3) 0.4396(2) 0.2030(2)
C16 C 0.2322(2) 0.5235(2) 0.2357(2)
C17 C 0.2737(3) 0.5955(2) 0.1766(2)
C18 C 0.1895(3) 0.6056(2) 0.0897(2)
C19 C 0.2351(4) 0.6729(2) 0.0338(2)
C20 C 0.3676(4) 0.7324(2) 0.0598(2)
C21 C 0.4525(3) 0.7248(2) 0.1424(2)
C22 C 0.4082(3) 0.6573(2) 0.2035(2)
C23 C 0.4980(3) 0.6470(2) 0.2895(2)
C24 C 0.4368(3) 0.5881(2) 0.3485(2)
C25 C 0.3037(3) 0.5263(2) 0.3214(2)
H1 H 0.6895 0.7484 0.2961
H2 H 0.7087 0.6754 0.3733
H3 H 0.9020 0.6203 0.2942
H4 H 0.8110 0.6589 0.2053
H5 H 0.8835 0.5144 0.3999
H6 H 0.8380 0.4078 0.5110
H7 H 0.6355 0.2888 0.4829
H8 H 0.4868 0.2751 0.3434
H9 H 0.5068 0.4200 0.0715
H10 H 0.6902 0.5488 0.1032
H11 H 0.3313 0.2847 0.2320
H12 H 0.3721 0.2678 0.1359
H13 H 0.1009 0.4034 0.2534
H14 H 0.0227 0.4627 0.1724
H15 H 0.0988 0.5639 0.0707
H16 H 0.1755 0.6794 -0.0246
H17 H 0.3992 0.7794 0.0193
H18 H 0.5447 0.7659 0.1597
H19 H 0.4853 0.5886 0.4095
H20 H 0.2619 0.4854 0.3640
loop_
_geom_bond_atom_site_label_1
_geom_bond_atom_site_label_2
_geom_bond_site_symmetry_1
_geom_bond_site_symmetry_2
O1 C14 1_555 1_555
C1 C2 1_555 1_555
C2 C3 1_555 1_555
C3 C4 1_555 1_555
C4 C5 1_555 1_555
C5 C6 1_555 1_555
C6 C7 1_555 1_555
C7 C8 1_555 1_555
C8 C9 1_555 1_555
C9 C4 1_555 1_555
C10 C9 1_555 1_555
C11 C10 1_555 1_555
C12 C3 1_555 1_555
C13 C10 1_555 1_555
C14 C13 1_555 1_555
C15 C14 1_555 1_555
C16 C15 1_555 1_555
C17 C16 1_555 1_555
C18 C17 1_555 1_555
C19 C18 1_555 1_555
C20 C19 1_555 1_555
C21 C20 1_555 1_555
C22 C17 1_555 1_555
C23 C1 1_555 1_555
C24 C23 1_555 1_555
C25 C16 1_555 1_555
H1 C1 1_555 1_555
H2 C1 1_555 1_555
H3 C2 1_555 1_555
H4 C2 1_555 1_555
H5 C5 1_555 1_555
H6 C6 1_555 1_555
H7 C7 1_555 1_555
H8 C8 1_555 1_555
H9 C11 1_555 1_555
H10 C12 1_555 1_555
H11 C13 1_555 1_555
H12 C13 1_555 1_555
H13 C15 1_555 1_555
H14 C15 1_555 1_555
H15 C18 1_555 1_555
H16 C19 1_555 1_555
H17 C20 1_555 1_555
H18 C21 1_555 1_555
H19 C24 1_555 1_555
H20 C25 1_555 1_555
C11 C12 1_555 1_555
C21 C22 1_555 1_555
C22 C23 1_555 1_555
C24 C25 1_555 1_555

#END
