
#######################################################################
#
#                 Cambridge Crystallographic Data Centre
#                                CCDC 
#
#######################################################################
#
# If this CIF has been generated from an entry in the Cambridge 
# Structural Database, then it will include bibliographic, chemical, 
# crystal, experimental, refinement or atomic coordinate data resulting 
# from the CCDC's data processing and validation procedures.
#
#######################################################################

data_WECQEC
_chemical_formula_moiety         'C22 H40 I2 O1 Si1'
_chemical_name_systematic        
((3,7-bis(3-iodopropyl)tricyclo[4.3.1.0^3,7^]dec-8-yl)oxy)-(t-butyl)dimethylsilane
_symmetry_cell_setting           triclinic
_symmetry_space_group_name_H-M   'P -1'
_symmetry_Int_Tables_number      2
_space_group_name_Hall           '-P 1'
loop_
_symmetry_equiv_pos_site_id
_symmetry_equiv_pos_as_xyz
1 x,y,z
2 -x,-y,-z
_cell_length_a                   12.045(5)
_cell_length_b                   12.170(5)
_cell_length_c                   18.967(8)
_cell_angle_alpha                74.718(4)
_cell_angle_beta                 73.818(4)
_cell_angle_gamma                89.647(4)
_cell_volume                     2568.95
_exptl_crystal_colour            colorless
_exptl_crystal_description       block
_cell_formula_units_Z            4
loop_
_atom_site_label
_atom_site_type_symbol
_atom_site_fract_x
_atom_site_fract_y
_atom_site_fract_z
C1 C 0.1755(9) 0.3453(10) 0.2381(7)
H1 H 0.2243 0.3264 0.2726
C2 C 0.2085(11) 0.2738(11) 0.1799(8)
H2 H 0.2664 0.2222 0.1922
H3 H 0.1407 0.2283 0.1829
C3 C 0.2559(11) 0.3509(12) 0.1001(8)
H4 H 0.2772 0.3050 0.0636
C4 C 0.3621(11) 0.4198(12) 0.0974(9)
H5 H 0.3993 0.4637 0.0453
H6 H 0.4170 0.3687 0.1147
C5 C 0.3261(9) 0.5023(11) 0.1495(7)
H7 H 0.3758 0.4965 0.1832
C6 C 0.1959(9) 0.4746(10) 0.1971(7)
C7 C 0.3284(11) 0.6253(12) 0.1025(9)
H8 H 0.3924 0.6425 0.0561
H9 H 0.3348 0.6785 0.1316
C8 C 0.2115(11) 0.6301(11) 0.0846(8)
H10 H 0.2236 0.6411 0.0304
H11 H 0.1705 0.6932 0.0992
C9 C 0.1622(11) 0.4305(11) 0.0814(8)
H12 H 0.1871 0.4726 0.0279
H13 H 0.0910 0.3853 0.0906
C10 C 0.1399(10) 0.5147(10) 0.1309(7)
C11 C 0.0113(9) 0.5339(11) 0.1539(6)
H14 H -0.0015 0.5844 0.1869
H15 H -0.0313 0.4614 0.1834
C12 C -0.0386(11) 0.5847(11) 0.0877(7)
H16 H 0.0065 0.6554 0.0568
H17 H -0.0293 0.5324 0.0561
C13 C -0.1655(12) 0.6093(14) 0.1105(9)
H18 H -0.1848 0.6549 0.0658
H19 H -0.1772 0.6540 0.1472
C14 C 0.1593(9) 0.5418(10) 0.2566(7)
H20 H 0.1584 0.6214 0.2297
H21 H 0.0803 0.5152 0.2869
C15 C 0.2323(12) 0.5361(12) 0.3114(8)
H22 H 0.2413 0.4565 0.3344
H23 H 0.3089 0.5721 0.2824
C16 C 0.1835(12) 0.5916(11) 0.3735(8)
H24 H 0.2282 0.5734 0.4099
H25 H 0.1045 0.5601 0.4000
C17 C 0.0484(15) 0.2608(16) 0.4400(9)
H26 H 0.1309 0.2618 0.4313
H27 H 0.0108 0.2077 0.4883
H28 H 0.0235 0.3358 0.4404
C18 C 0.0753(13) 0.0781(12) 0.3571(10)
H29 H 0.0520 0.0505 0.3201
H30 H 0.0492 0.0232 0.4061
H31 H 0.1583 0.0897 0.3423
C19 C -0.1498(10) 0.2027(10) 0.3789(8)
C20 C -0.2009(11) 0.3162(13) 0.3839(10)
H32 H -0.1594 0.3758 0.3400
H33 H -0.1945 0.3330 0.4293
H34 H -0.2811 0.3114 0.3854
C21 C -0.2072(12) 0.1104(13) 0.4542(8)
H35 H -0.1962 0.1340 0.4964
H36 H -0.1725 0.0395 0.4527
H37 H -0.2887 0.1003 0.4602
C22 C -0.1773(12) 0.1694(13) 0.3123(9)
H38 H -0.2592 0.1517 0.3246
H39 H -0.1368 0.1037 0.3038
H40 H -0.1530 0.2319 0.2670
I1 I -0.28024(10) 0.45839(12) 0.15923(7)
I2 I 0.18352(8) 0.77369(8) 0.33365(6)
O1 O 0.0566(6) 0.3161(6) 0.2821(5)
Si1 Si 0.0098(3) 0.2168(3) 0.3628(2)
C23 C 0.4565(9) 0.1589(9) 0.7557(7)
H41 H 0.5332 0.1763 0.7183
C24 C 0.4495(10) 0.2322(10) 0.8109(7)
H42 H 0.5196 0.2822 0.7945
H43 H 0.3842 0.2793 0.8108
C25 C 0.4351(10) 0.1563(11) 0.8904(8)
H44 H 0.4310 0.2029 0.9259
C26 C 0.5408(12) 0.0857(12) 0.8869(8)
H45 H 0.6109 0.1363 0.8655
H46 H 0.5392 0.0424 0.9381
C27 C 0.5421(9) 0.0050(11) 0.8387(7)
H47 H 0.6187 0.0081 0.8024
C28 C 0.4449(9) 0.0305(9) 0.7961(7)
C29 C 0.5014(11) -0.1200(11) 0.8892(8)
H48 H 0.5297 -0.1747 0.8605
H49 H 0.5292 -0.1368 0.9340
C30 C 0.3682(10) -0.1239(11) 0.9121(8)
H50 H 0.3370 -0.1865 0.8988
H51 H 0.3372 -0.1345 0.9666
C31 C 0.3362(10) -0.0106(10) 0.8685(7)
C32 C 0.3251(11) 0.0785(11) 0.9152(8)
H52 H 0.2606 0.1243 0.9086
H53 H 0.3086 0.0389 0.9690
C33 C 0.4528(10) -0.0397(10) 0.7384(7)
H54 H 0.4302 -0.1189 0.7667
H55 H 0.3964 -0.0140 0.7108
C34 C 0.5701(11) -0.0348(11) 0.6804(8)
H56 H 0.6249 -0.0694 0.7071
H57 H 0.5973 0.0447 0.6556
C35 C 0.5692(12) -0.0938(10) 0.6201(8)
H58 H 0.6424 -0.0752 0.5803
H59 H 0.5081 -0.0661 0.5972
C36 C 0.2195(9) -0.0239(10) 0.8502(7)
H60 H 0.2029 0.0498 0.8216
H61 H 0.2279 -0.0754 0.8180
C37 C 0.1176(10) -0.0695(13) 0.9210(8)
H62 H 0.1022 -0.0129 0.9495
H63 H 0.1386 -0.1376 0.9532
C38 C 0.0077(11) -0.0983(13) 0.9034(9)
H64 H -0.0488 -0.1386 0.9508
H65 H 0.0250 -0.1497 0.8711
C39 C 0.4488(13) 0.4232(12) 0.6370(9)
H66 H 0.4892 0.4104 0.6752
H67 H 0.3853 0.4693 0.6497
H68 H 0.5010 0.4619 0.5883
C40 C 0.4979(14) 0.2409(15) 0.5568(9)
H69 H 0.5717 0.2354 0.5671
H70 H 0.5055 0.2964 0.5089
H71 H 0.4716 0.1679 0.5546
C41 C 0.1614(10) 0.3275(12) 0.6842(8)
H72 H 0.0871 0.3374 0.6749
H73 H 0.1902 0.3975 0.6894
H74 H 0.1537 0.2678 0.7303
C42 C 0.2017(13) 0.1820(12) 0.6124(9)
H75 H 0.1793 0.1283 0.6621
H76 H 0.2626 0.1531 0.5789
H77 H 0.1362 0.1928 0.5925
C43 C 0.2446(9) 0.2959(10) 0.6185(7)
C44 C 0.2509(12) 0.3880(12) 0.5431(8)
H78 H 0.1799 0.3827 0.5301
H79 H 0.3146 0.3760 0.5029
H80 H 0.2621 0.4625 0.5495
I3 I 0.54197(8) -0.27687(8) 0.66635(6)
I4 I -0.06809(9) 0.04615(11) 0.84856(7)
O2 O 0.3720(6) 0.1868(6) 0.7148(4)
Si2 Si 0.3930(3) 0.2847(3) 0.6328(2)
loop_
_geom_bond_atom_site_label_1
_geom_bond_atom_site_label_2
_geom_bond_site_symmetry_1
_geom_bond_site_symmetry_2
C1 H1 1_555 1_555
C2 C1 1_555 1_555
H2 C2 1_555 1_555
H3 C2 1_555 1_555
C3 C2 1_555 1_555
H4 C3 1_555 1_555
C4 C3 1_555 1_555
H5 C4 1_555 1_555
H6 C4 1_555 1_555
C5 C4 1_555 1_555
H7 C5 1_555 1_555
C6 C1 1_555 1_555
C7 C5 1_555 1_555
H8 C7 1_555 1_555
H9 C7 1_555 1_555
C8 C7 1_555 1_555
H10 C8 1_555 1_555
H11 C8 1_555 1_555
C9 C3 1_555 1_555
H12 C9 1_555 1_555
H13 C9 1_555 1_555
C10 C6 1_555 1_555
C11 C10 1_555 1_555
H14 C11 1_555 1_555
H15 C11 1_555 1_555
C12 C11 1_555 1_555
H16 C12 1_555 1_555
H17 C12 1_555 1_555
C13 C12 1_555 1_555
H18 C13 1_555 1_555
H19 C13 1_555 1_555
C14 C6 1_555 1_555
H20 C14 1_555 1_555
H21 C14 1_555 1_555
C15 C14 1_555 1_555
H22 C15 1_555 1_555
H23 C15 1_555 1_555
C16 C15 1_555 1_555
H24 C16 1_555 1_555
H25 C16 1_555 1_555
C17 H26 1_555 1_555
H27 C17 1_555 1_555
H28 C17 1_555 1_555
C18 H29 1_555 1_555
H30 C18 1_555 1_555
H31 C18 1_555 1_555
C19 C20 1_555 1_555
C20 H32 1_555 1_555
H33 C20 1_555 1_555
H34 C20 1_555 1_555
C21 C19 1_555 1_555
H35 C21 1_555 1_555
H36 C21 1_555 1_555
H37 C21 1_555 1_555
C22 C19 1_555 1_555
H38 C22 1_555 1_555
H39 C22 1_555 1_555
H40 C22 1_555 1_555
C23 H41 1_555 1_555
C24 C23 1_555 1_555
H42 C24 1_555 1_555
H43 C24 1_555 1_555
C25 C24 1_555 1_555
H44 C25 1_555 1_555
C26 C25 1_555 1_555
H45 C26 1_555 1_555
H46 C26 1_555 1_555
C27 C26 1_555 1_555
H47 C27 1_555 1_555
C28 C23 1_555 1_555
C29 C27 1_555 1_555
H48 C29 1_555 1_555
H49 C29 1_555 1_555
C30 C29 1_555 1_555
H50 C30 1_555 1_555
H51 C30 1_555 1_555
C31 C28 1_555 1_555
C32 C25 1_555 1_555
H52 C32 1_555 1_555
H53 C32 1_555 1_555
C33 C28 1_555 1_555
H54 C33 1_555 1_555
H55 C33 1_555 1_555
C34 C33 1_555 1_555
H56 C34 1_555 1_555
H57 C34 1_555 1_555
C35 C34 1_555 1_555
H58 C35 1_555 1_555
H59 C35 1_555 1_555
C36 C31 1_555 1_555
H60 C36 1_555 1_555
H61 C36 1_555 1_555
C37 C36 1_555 1_555
H62 C37 1_555 1_555
H63 C37 1_555 1_555
C38 C37 1_555 1_555
H64 C38 1_555 1_555
H65 C38 1_555 1_555
C39 H66 1_555 1_555
H67 C39 1_555 1_555
H68 C39 1_555 1_555
C40 H69 1_555 1_555
H70 C40 1_555 1_555
H71 C40 1_555 1_555
C41 H72 1_555 1_555
H73 C41 1_555 1_555
H74 C41 1_555 1_555
C42 H75 1_555 1_555
H76 C42 1_555 1_555
H77 C42 1_555 1_555
C43 C41 1_555 1_555
C44 C43 1_555 1_555
H78 C44 1_555 1_555
H79 C44 1_555 1_555
H80 C44 1_555 1_555
I1 C13 1_555 1_555
I2 C16 1_555 1_555
I3 C35 1_555 1_555
I4 C38 1_555 1_555
O1 C1 1_555 1_555
O2 C23 1_555 1_555
Si1 C17 1_555 1_555
Si2 C39 1_555 1_555
C5 C6 1_555 1_555
C8 C10 1_555 1_555
C9 C10 1_555 1_555
C18 Si1 1_555 1_555
C19 Si1 1_555 1_555
C27 C28 1_555 1_555
C30 C31 1_555 1_555
C31 C32 1_555 1_555
C40 Si2 1_555 1_555
C42 C43 1_555 1_555
C43 Si2 1_555 1_555
O1 Si1 1_555 1_555
O2 Si2 1_555 1_555

#END
