
#######################################################################
#
#                 Cambridge Crystallographic Data Centre
#                                CCDC 
#
#######################################################################
#
# If this CIF has been generated from an entry in the Cambridge 
# Structural Database, then it will include bibliographic, chemical, 
# crystal, experimental, refinement or atomic coordinate data resulting 
# from the CCDC's data processing and validation procedures.
#
#######################################################################

data_WECVEI
_chemical_formula_moiety         'C16 H18 O2 P1 S2 1-,C6 H16 N1 1+'
_chemical_name_systematic        
'N,N,N-triethylaminium O,O-bis(3,5-dimethylphenyl) phosphorodithioate'
_symmetry_cell_setting           monoclinic
_symmetry_space_group_name_H-M   'P 21/c'
_symmetry_Int_Tables_number      14
_space_group_name_Hall           '-P 2ybc'
loop_
_symmetry_equiv_pos_site_id
_symmetry_equiv_pos_as_xyz
1 x,y,z
2 -x,1/2+y,1/2-z
3 -x,-y,-z
4 x,1/2-y,1/2+z
_cell_length_a                   8.1973(7)
_cell_length_b                   11.6205(8)
_cell_length_c                   25.602(2)
_cell_angle_alpha                90
_cell_angle_beta                 93.769(7)
_cell_angle_gamma                90
_cell_volume                     2433.49
_exptl_crystal_colour            yellow
_exptl_crystal_description       block
_cell_formula_units_Z            4
loop_
_atom_site_label
_atom_site_type_symbol
_atom_site_fract_x
_atom_site_fract_y
_atom_site_fract_z
P1 P 0.31550(10) 0.12459(7) 0.17028(3)
S1 S 0.48315(11) 0.24192(7) 0.18593(4)
S2 S 0.28232(12) 0.00483(8) 0.22124(4)
O1 O 0.1378(3) 0.18301(19) 0.15726(9)
O2 O 0.3578(2) 0.07372(19) 0.11425(8)
C1 C 0.2780(4) -0.0124(3) 0.08452(12)
C2 C 0.2084(4) 0.3275(3) 0.09344(12)
H1 H 0.3071 0.2915 0.0879
C3 C -0.0920(4) 0.4297(3) 0.10751(12)
C4 C 0.1035(4) 0.2807(3) 0.12747(11)
C5 C 0.3049(4) -0.1525(3) 0.01752(14)
C6 C 0.1661(4) 0.4287(3) 0.06752(11)
C7 C -0.2552(4) 0.4838(3) 0.11551(15)
H2 H -0.3409 0.4320 0.1035
H3 H -0.2653 0.5543 0.0961
H4 H -0.2636 0.4995 0.1520
C8 C 0.0168(4) 0.4783(3) 0.07494(12)
H5 H -0.0116 0.5463 0.0575
C9 C 0.1392(5) -0.1744(3) 0.01806(14)
H6 H 0.0918 -0.2291 -0.0047
C10 C 0.3736(4) -0.0708(3) 0.05142(13)
H7 H 0.4850 -0.0554 0.0518
C11 C -0.0470(4) 0.3297(3) 0.13383(12)
H8 H -0.1185 0.2954 0.1559
C12 C 0.1132(4) -0.0347(3) 0.08508(14)
H9 H 0.0495 0.0051 0.1078
C13 C 0.0430(4) -0.1169(3) 0.05156(14)
C14 C -0.1391(4) -0.1402(4) 0.05083(19)
H10 H -0.1732 -0.1821 0.0197
H11 H -0.1972 -0.0685 0.0513
H12 H -0.1623 -0.1849 0.0810
C15 C 0.4080(6) -0.2141(4) -0.01977(19)
H13 H 0.4351 -0.1624 -0.0471
H14 H 0.3483 -0.2786 -0.0347
H15 H 0.5065 -0.2409 -0.0014
C16 C 0.2863(4) 0.4856(4) 0.03332(14)
H16 H 0.2391 0.5548 0.0185
H17 H 0.3115 0.4340 0.0057
H18 H 0.3847 0.5040 0.0540
N1 N 0.2953(4) 0.6029(3) 0.22780(13)
C17 C 0.2436(6) 0.4837(4) 0.2470(2)
H19 H 0.1431 0.4609 0.2276
H20 H 0.3272 0.4281 0.2396
C18 C 0.1645(5) 0.6917(3) 0.23177(17)
H21 H 0.2119 0.7672 0.2272
H22 H 0.1254 0.6888 0.2667
C19 C 0.4447(8) 0.7032(5) 0.1602(2)
H23 H 0.3641 0.7633 0.1577
H24 H 0.4890 0.6925 0.1268
H25 H 0.5308 0.7242 0.1857
C20 C 0.3666(6) 0.5933(5) 0.17672(18)
H26 H 0.2815 0.5717 0.1504
H27 H 0.4481 0.5327 0.1785
C21 C 0.0214(6) 0.6772(5) 0.1925(2)
H28 H 0.0527 0.6995 0.1585
H29 H -0.0674 0.7247 0.2023
H30 H -0.0125 0.5981 0.1917
C22 C 0.2179(7) 0.4813(5) 0.3039(3)
H31 H 0.3122 0.5125 0.3231
H32 H 0.2014 0.4033 0.3147
H33 H 0.1234 0.5264 0.3106
H34 H 0.378(5) 0.629(3) 0.2523(16)
loop_
_geom_bond_atom_site_label_1
_geom_bond_atom_site_label_2
_geom_bond_site_symmetry_1
_geom_bond_site_symmetry_2
P1 S1 1_555 1_555
S2 P1 1_555 1_555
O1 P1 1_555 1_555
O2 P1 1_555 1_555
C1 O2 1_555 1_555
C2 H1 1_555 1_555
C3 C7 1_555 1_555
C4 O1 1_555 1_555
C5 C9 1_555 1_555
C6 C2 1_555 1_555
C7 H2 1_555 1_555
H3 C7 1_555 1_555
H4 C7 1_555 1_555
C8 C3 1_555 1_555
H5 C8 1_555 1_555
C9 H6 1_555 1_555
C10 C1 1_555 1_555
H7 C10 1_555 1_555
C11 C3 1_555 1_555
H8 C11 1_555 1_555
C12 C1 1_555 1_555
H9 C12 1_555 1_555
C13 C9 1_555 1_555
C14 C13 1_555 1_555
H10 C14 1_555 1_555
H11 C14 1_555 1_555
H12 C14 1_555 1_555
C15 C5 1_555 1_555
H13 C15 1_555 1_555
H14 C15 1_555 1_555
H15 C15 1_555 1_555
C16 C6 1_555 1_555
H16 C16 1_555 1_555
H17 C16 1_555 1_555
H18 C16 1_555 1_555
N1 C17 1_555 1_555
C17 H19 1_555 1_555
H20 C17 1_555 1_555
C18 N1 1_555 1_555
H21 C18 1_555 1_555
H22 C18 1_555 1_555
C19 H23 1_555 1_555
H24 C19 1_555 1_555
H25 C19 1_555 1_555
C20 N1 1_555 1_555
H26 C20 1_555 1_555
H27 C20 1_555 1_555
C21 C18 1_555 1_555
H28 C21 1_555 1_555
H29 C21 1_555 1_555
H30 C21 1_555 1_555
C22 C17 1_555 1_555
H31 C22 1_555 1_555
H32 C22 1_555 1_555
H33 C22 1_555 1_555
H34 N1 1_555 1_555
C2 C4 1_555 1_555
C4 C11 1_555 1_555
C5 C10 1_555 1_555
C6 C8 1_555 1_555
C12 C13 1_555 1_555
C19 C20 1_555 1_555

#END
