
#######################################################################
#
#                 Cambridge Crystallographic Data Centre
#                                CCDC 
#
#######################################################################
#
# If this CIF has been generated from an entry in the Cambridge 
# Structural Database, then it will include bibliographic, chemical, 
# crystal, experimental, refinement or atomic coordinate data resulting 
# from the CCDC's data processing and validation procedures.
#
#######################################################################

data_WECXUZ
_chemical_compound_source        'Phyllanthus niruri Linn (Euphorbiaceae)'
_chemical_name_common            epibubbialine
_chemical_formula_moiety         'C12 H15 N1 O3'
_chemical_name_systematic        
14-Hydroxy-12-oxa-6-azatetracyclo[5.5.2.0^1,9^.0^2,6^]tetradec-9-en-11-one
_symmetry_cell_setting           orthorhombic
_symmetry_space_group_name_H-M   'P 21 21 21'
_symmetry_Int_Tables_number      19
_space_group_name_Hall           'P 2ac 2ab'
loop_
_symmetry_equiv_pos_site_id
_symmetry_equiv_pos_as_xyz
1 x,y,z
2 1/2+x,1/2-y,-z
3 -x,1/2+y,1/2-z
4 1/2-x,-y,1/2+z
_cell_length_a                   5.8131(10)
_cell_length_b                   8.2332(15)
_cell_length_c                   21.585(4)
_cell_angle_alpha                90
_cell_angle_beta                 90
_cell_angle_gamma                90
_cell_volume                     1033.07
_exptl_crystal_colour            colorless
_exptl_crystal_description       block
_cell_formula_units_Z            4
loop_
_atom_site_label
_atom_site_type_symbol
_atom_site_fract_x
_atom_site_fract_y
_atom_site_fract_z
O1 O 0.34809(19) 0.02262(15) 0.24636(5)
O2 O 0.1564(2) 0.09843(19) 0.33198(6)
O3 O 0.7611(2) 0.09290(16) 0.05969(5)
H1 H 0.9009 0.0981 0.0673
N1 N 0.2458(2) 0.07223(15) 0.07794(5)
C1 C 0.2115(3) 0.1285(2) 0.27944(8)
C2 C 0.1573(3) 0.2670(2) 0.23963(8)
H2 H 0.0666 0.3566 0.2510
C3 C 0.2563(3) 0.24620(19) 0.18503(8)
C4 C 0.3787(3) 0.0867(2) 0.18479(7)
C5 C 0.2758(3) 0.3374(2) 0.12531(8)
H3 H 0.3700 0.4351 0.1307
H4 H 0.1233 0.3699 0.1104
C6 C 0.3907(3) 0.2196(2) 0.07913(7)
H5 H 0.3943 0.2694 0.0374
C7 C 0.6387(3) 0.1919(2) 0.10230(7)
H6 H 0.7169 0.2985 0.1051
C8 C 0.6305(3) 0.1154(2) 0.16808(7)
H7 H 0.7148 0.0123 0.1685
H8 H 0.7017 0.1888 0.1982
C9 C 0.2582(3) -0.02153(19) 0.13717(6)
H9 H 0.0987 -0.0394 0.1517
C10 C 0.3587(3) -0.1863(2) 0.12064(8)
H10 H 0.3076 -0.2709 0.1495
H11 H 0.5272 -0.1836 0.1197
C11 C 0.2584(4) -0.2110(2) 0.05631(7)
H12 H 0.3428 -0.2949 0.0335
H13 H 0.0956 -0.2414 0.0585
C12 C 0.2888(3) -0.0454(2) 0.02654(7)
H14 H 0.4449 -0.0329 0.0101
H15 H 0.1782 -0.0297 -0.0072
loop_
_geom_bond_atom_site_label_1
_geom_bond_atom_site_label_2
_geom_bond_site_symmetry_1
_geom_bond_site_symmetry_2
O1 C1 1_555 1_555
O2 C1 1_555 1_555
O3 H1 1_555 1_555
N1 C6 1_555 1_555
C1 C2 1_555 1_555
C2 H2 1_555 1_555
C3 C2 1_555 1_555
C4 O1 1_555 1_555
C5 C3 1_555 1_555
H3 C5 1_555 1_555
H4 C5 1_555 1_555
C6 C5 1_555 1_555
H5 C6 1_555 1_555
C7 O3 1_555 1_555
H6 C7 1_555 1_555
C8 C4 1_555 1_555
H7 C8 1_555 1_555
H8 C8 1_555 1_555
C9 N1 1_555 1_555
H9 C9 1_555 1_555
C10 C9 1_555 1_555
H10 C10 1_555 1_555
H11 C10 1_555 1_555
C11 C10 1_555 1_555
H12 C11 1_555 1_555
H13 C11 1_555 1_555
C12 N1 1_555 1_555
H14 C12 1_555 1_555
H15 C12 1_555 1_555
C3 C4 1_555 1_555
C4 C9 1_555 1_555
C6 C7 1_555 1_555
C7 C8 1_555 1_555
C11 C12 1_555 1_555

#END
