
#######################################################################
#
#                 Cambridge Crystallographic Data Centre
#                                CCDC 
#
#######################################################################
#
# If this CIF has been generated from an entry in the Cambridge 
# Structural Database, then it will include bibliographic, chemical, 
# crystal, experimental, refinement or atomic coordinate data resulting 
# from the CCDC's data processing and validation procedures.
#
#######################################################################

data_WECXAF
_chemical_formula_moiety         
'C12 H28 N1 1+,C3 H3 N4 O2 S1 1-,C2 H6 N4 S1,H2 O1'
_chemical_name_systematic        
'N,N,N-tetrapropylammonium (3-amino-1,2,4-thiadiazol-5-yl)carbamate 1-(diaminomethylene)thiourea monohydrate'
_symmetry_cell_setting           monoclinic
_symmetry_space_group_name_H-M   'P 21/c'
_symmetry_Int_Tables_number      14
_space_group_name_Hall           '-P 2ybc'
loop_
_symmetry_equiv_pos_site_id
_symmetry_equiv_pos_as_xyz
1 x,y,z
2 -x,1/2+y,1/2-z
3 -x,-y,-z
4 x,1/2-y,1/2+z
_cell_length_a                   18.2044(3)
_cell_length_b                   8.5037(2)
_cell_length_c                   17.0979(3)
_cell_angle_alpha                90
_cell_angle_beta                 96.3840(10)
_cell_angle_gamma                90
_cell_volume                     2630.42
_exptl_crystal_colour            colorless
_exptl_crystal_description       block
_cell_formula_units_Z            4
loop_
_atom_site_label
_atom_site_type_symbol
_atom_site_fract_x
_atom_site_fract_y
_atom_site_fract_z
C1 C 0.24815(15) 0.6901(3) 0.55310(15)
C2 C 0.16026(14) 0.6689(3) 0.43603(15)
C3 C 0.07224(15) 0.6332(4) 0.34142(17)
N1 N 0.22552(11) 0.7177(3) 0.47293(11)
H29 H 0.2549 0.7685 0.4460
N2 N 0.13965(11) 0.7015(3) 0.36168(12)
N3 N 0.04148(14) 0.6469(4) 0.26565(15)
H30 H 0.0000 0.6018 0.2507
H31 H 0.0635 0.7007 0.2326
N4 N 0.04112(13) 0.5528(3) 0.39397(14)
O1 O 0.30972(10) 0.7403(2) 0.57937(10)
O2 O 0.20310(10) 0.6178(2) 0.58965(10)
S1 S 0.09703(4) 0.55746(10) 0.47817(4)
C4 C 0.40318(13) 0.6070(3) 0.90387(14)
C5 C 0.32150(13) 0.6588(3) 0.78858(14)
N5 N 0.41150(12) 0.6393(3) 0.98033(12)
H32 H 0.3764 0.6845 1.0016
H33 H 0.4520 0.6149 1.0086
N6 N 0.33626(10) 0.6524(2) 0.86708(11)
N7 N 0.25175(11) 0.6902(2) 0.76047(12)
H34 H 0.2397 0.6979 0.7105
H35 H 0.2188 0.7028 0.7923
N8 N 0.36886(11) 0.6410(3) 0.73632(12)
H36 H 0.3542 0.6499 0.6870
H37 H 0.4145 0.6206 0.7516
S2 S 0.47288(4) 0.51026(10) 0.86634(4)
C6 C 0.69965(18) 0.7757(3) 0.85991(17)
H1 H 0.7366 0.8495 0.8828
H2 H 0.6604 0.8366 0.8313
C7 C 0.6681(2) 0.6906(4) 0.92603(19)
H3 H 0.6319 0.6141 0.9043
H4 H 0.7073 0.6346 0.9575
C8 C 0.6321(3) 0.8044(5) 0.9773(2)
H5 H 0.6122 0.7480 1.0188
H6 H 0.5929 0.8591 0.9462
H7 H 0.6681 0.8789 0.9996
C9 C 0.67765(17) 0.5632(3) 0.75886(18)
H8 H 0.7018 0.5011 0.7216
H9 H 0.6610 0.4912 0.7972
C10 C 0.61037(19) 0.6412(4) 0.7151(2)
H10 H 0.5821 0.6930 0.7525
H11 H 0.6262 0.7206 0.6798
C11 C 0.56219(19) 0.5224(4) 0.6684(2)
H12 H 0.5202 0.5747 0.6409
H13 H 0.5456 0.4452 0.7034
H14 H 0.5901 0.4717 0.6311
C12 C 0.76547(18) 0.7855(3) 0.74396(17)
H15 H 0.7248 0.8464 0.7181
H16 H 0.7986 0.8584 0.7739
C13 C 0.8066(2) 0.7120(4) 0.6812(2)
H17 H 0.7744 0.6396 0.6499
H18 H 0.8488 0.6533 0.7057
C14 C 0.8327(2) 0.8399(5) 0.6288(2)
H19 H 0.8594 0.7931 0.5893
H20 H 0.8645 0.9114 0.6601
H21 H 0.7908 0.8962 0.6038
C15 C 0.79557(17) 0.5713(3) 0.84232(18)
H22 H 0.7738 0.5007 0.8779
H23 H 0.8157 0.5071 0.8029
C16 C 0.85857(19) 0.6590(4) 0.8885(2)
H24 H 0.8832 0.7247 0.8531
H25 H 0.8392 0.7267 0.9270
C17 C 0.9132(2) 0.5454(5) 0.9297(2)
H26 H 0.9530 0.6029 0.9582
H27 H 0.9325 0.4788 0.8915
H28 H 0.8890 0.4822 0.9657
N9 N 0.73466(13) 0.6738(2) 0.80138(13)
O3 O 0.08683(13) 0.5818(3) 0.68018(12)
H38 H 0.1175 0.6060 0.6481
H39 H 0.0473 0.5504 0.6537
loop_
_geom_bond_atom_site_label_1
_geom_bond_atom_site_label_2
_geom_bond_site_symmetry_1
_geom_bond_site_symmetry_2
C1 N1 1_555 1_555
C2 N1 1_555 1_555
C3 N2 1_555 1_555
C4 N5 1_555 1_555
C5 N6 1_555 1_555
C6 H1 1_555 1_555
H2 C6 1_555 1_555
C7 C6 1_555 1_555
H3 C7 1_555 1_555
H4 C7 1_555 1_555
C8 C7 1_555 1_555
H5 C8 1_555 1_555
H6 C8 1_555 1_555
H7 C8 1_555 1_555
C9 H8 1_555 1_555
H9 C9 1_555 1_555
C10 C9 1_555 1_555
H10 C10 1_555 1_555
H11 C10 1_555 1_555
C11 C10 1_555 1_555
H12 C11 1_555 1_555
H13 C11 1_555 1_555
H14 C11 1_555 1_555
C12 H15 1_555 1_555
H16 C12 1_555 1_555
C13 C12 1_555 1_555
H17 C13 1_555 1_555
H18 C13 1_555 1_555
C14 C13 1_555 1_555
H19 C14 1_555 1_555
H20 C14 1_555 1_555
H21 C14 1_555 1_555
C15 H22 1_555 1_555
H23 C15 1_555 1_555
C16 C15 1_555 1_555
H24 C16 1_555 1_555
H25 C16 1_555 1_555
C17 C16 1_555 1_555
H26 C17 1_555 1_555
H27 C17 1_555 1_555
H28 C17 1_555 1_555
N1 H29 1_555 1_555
N2 C2 1_555 1_555
N3 C3 1_555 1_555
H30 N3 1_555 1_555
H31 N3 1_555 1_555
N4 C3 1_555 1_555
N5 H32 1_555 1_555
H33 N5 1_555 1_555
N6 C4 1_555 1_555
N7 C5 1_555 1_555
H34 N7 1_555 1_555
H35 N7 1_555 1_555
N8 C5 1_555 1_555
H36 N8 1_555 1_555
H37 N8 1_555 1_555
N9 C6 1_555 1_555
O1 C1 1_555 1_555
O2 C1 1_555 1_555
O3 H38 1_555 1_555
H39 O3 1_555 1_555
S1 C2 1_555 1_555
S2 C4 1_555 1_555
C9 N9 1_555 1_555
C12 N9 1_555 1_555
C15 N9 1_555 1_555
N4 S1 1_555 1_555

#END
