
#######################################################################
#
#                 Cambridge Crystallographic Data Centre
#                                CCDC 
#
#######################################################################
#
# If this CIF has been generated from an entry in the Cambridge 
# Structural Database, then it will include bibliographic, chemical, 
# crystal, experimental, refinement or atomic coordinate data resulting 
# from the CCDC's data processing and validation procedures.
#
#######################################################################

data_WECXEJ
_chemical_formula_moiety         'C16 H36 N1 1+,C3 H3 N4 O2 S1 1-,C2 H6 N4 S1'
_chemical_name_systematic        
'N,N,N-tetrabutylammonium (3-amino-1,2,4-thiadiazol-5-yl)carbamate 1-(diaminomethylene)thiourea'
_symmetry_cell_setting           triclinic
_symmetry_space_group_name_H-M   'P -1'
_symmetry_Int_Tables_number      2
_space_group_name_Hall           '-P 1'
loop_
_symmetry_equiv_pos_site_id
_symmetry_equiv_pos_as_xyz
1 x,y,z
2 -x,-y,-z
_cell_length_a                   8.78010(10)
_cell_length_b                   12.19550(10)
_cell_length_c                   14.2657(2)
_cell_angle_alpha                89.8650(10)
_cell_angle_beta                 82.8420(10)
_cell_angle_gamma                75.6050(10)
_cell_volume                     1467.4
_exptl_crystal_colour            colorless
_exptl_crystal_description       block
_cell_formula_units_Z            2
loop_
_atom_site_label
_atom_site_type_symbol
_atom_site_fract_x
_atom_site_fract_y
_atom_site_fract_z
C1 C 0.82440(17) 0.11665(11) 0.58915(10)
N1 N 0.92946(14) 0.02499(9) 0.62647(7)
H1 H 0.9859 -0.0289 0.5888
O1 O 0.83165(14) 0.11950(10) 0.50179(7)
S1 S 0.83919(6) 0.12056(3) 0.80356(3)
C2 C 0.94386(16) 0.01945(10) 0.71965(9)
N2 N 1.04265(14) -0.06405(9) 0.75613(7)
O2 O 0.73479(15) 0.18519(10) 0.64876(8)
C3 C 1.03409(18) -0.04127(12) 0.85117(9)
N3 N 1.13395(19) -0.11474(12) 0.90170(9)
H2 H 1.1326 -0.1018 0.9611
H3 H 1.1983 -0.1741 0.8742
N4 N 0.93387(19) 0.05014(11) 0.88919(9)
S2 S 0.24139(5) 0.60571(3) 0.80732(3)
C4 C 0.29504(15) 0.62094(11) 0.68917(10)
C5 C 0.46974(19) 0.44079(13) 0.64369(11)
N5 N 0.23493(14) 0.72113(10) 0.65359(8)
H4 H 0.2592 0.7328 0.5948
H5 H 0.1718 0.7742 0.6894
N6 N 0.39138(15) 0.54644(10) 0.62543(8)
N7 N 0.5635(2) 0.38173(14) 0.57237(11)
H10 H 0.6161 0.3135 0.5803
H11 H 0.5722 0.4113 0.5178
N8 N 0.4622(2) 0.39015(12) 0.72506(10)
H14 H 0.5170 0.3218 0.7296
H15 H 0.4025 0.4254 0.7737
C6 C 0.3153(3) 0.38356(17) 0.21717(18)
H6 H 0.3317 0.4230 0.2725
H7 H 0.4095 0.3737 0.1714
C7 C 0.178(2) 0.4522(14) 0.1764(13)
H8 H 0.0897 0.4791 0.2256
H9 H 0.1453 0.4073 0.1303
C8 C 0.2297(18) 0.5548(13) 0.1278(11)
H12 H 0.2579 0.6012 0.1747
H13 H 0.3219 0.5274 0.0812
C9 C 0.0904(10) 0.6270(5) 0.0789(5)
H16 H 0.1241 0.6873 0.0459
H17 H 0.0020 0.6583 0.1258
H18 H 0.0595 0.5799 0.0348
N9 N 0.29088(17) 0.26755(13) 0.24500(13)
C10 C 0.4467(2) 0.19806(19) 0.27354(18)
H19 H 0.5272 0.1884 0.2190
H20 H 0.4783 0.2408 0.3216
C11 C 0.4434(3) 0.08240(19) 0.3109(2)
H21 H 0.3588 0.0900 0.3630
H22 H 0.4227 0.0357 0.2615
C12 C 0.5985(3) 0.0269(2) 0.3440(3)
H23 H 0.6823 0.0234 0.2920
H24 H 0.6166 0.0740 0.3940
C13 C 0.6109(4) -0.0880(3) 0.3792(3)
H25 H 0.7122 -0.1160 0.4010
H26 H 0.6004 -0.1370 0.3291
H27 H 0.5282 -0.0860 0.4304
C14 C 0.2430(2) 0.20992(18) 0.16374(16)
H28 H 0.2348 0.1351 0.1830
H29 H 0.1383 0.2524 0.1523
C15 C 0.3512(4) 0.1975(2) 0.0725(2)
H30 H 0.4535 0.1484 0.0811
H31 H 0.3670 0.2710 0.0546
C16 C 0.2844(5) 0.1481(4) -0.0067(2)
H32 H 0.2769 0.0728 0.0117
H33 H 0.1768 0.1933 -0.0077
C17 C 0.360(3) 0.1382(16) -0.1011(11)
H34 H 0.2998 0.1072 -0.1409
H35 H 0.4648 0.0891 -0.1039
H36 H 0.3673 0.2117 -0.1226
C20 C 0.1600(2) 0.27958(17) 0.32699(15)
H37 H 0.1399 0.2056 0.3380
H38 H 0.0643 0.3286 0.3082
C21 C 0.1888(3) 0.32606(19) 0.41989(17)
H39 H 0.2890 0.2821 0.4372
H40 H 0.1959 0.4038 0.4123
C22 C 0.0584(3) 0.3220(2) 0.49717(19)
H41 H 0.0497 0.2444 0.5026
H42 H -0.0409 0.3671 0.4796
C23 C 0.0816(4) 0.3643(3) 0.5924(2)
H43 H -0.0060 0.3590 0.6382
H44 H 0.0873 0.4418 0.5884
H45 H 0.1783 0.3189 0.6113
C18? C 0.385(7) 0.173(4) -0.097(2)
C19? C 0.203(3) 0.2363(17) -0.0633(15)
C24? C 0.178(2) 0.4705(14) 0.1759(16)
C25? C 0.1961(15) 0.5774(11) 0.1542(10)
C26? C 0.3250(13) 0.5774(7) 0.0740(5)
H46? H 0.1582 0.4363 0.1187
H47? H 0.0829 0.4798 0.2209
H48? H 0.2199 0.6120 0.2099
H49? H 0.0966 0.6235 0.1377
H50? H 0.3386 0.6528 0.0665
H51? H 0.2961 0.5518 0.0167
H52? H 0.4225 0.5276 0.0876
loop_
_geom_bond_atom_site_label_1
_geom_bond_atom_site_label_2
_geom_bond_site_symmetry_1
_geom_bond_site_symmetry_2
C1 N1 1_555 1_555
N1 H1 1_555 1_555
O1 C1 1_555 1_555
S1 C2 1_555 1_555
C2 N1 1_555 1_555
N2 C2 1_555 1_555
O2 C1 1_555 1_555
S2 C4 1_555 1_555
C3 N2 1_555 1_555
N3 C3 1_555 1_555
H2 N3 1_555 1_555
H3 N3 1_555 1_555
C4 N5 1_555 1_555
N4 S1 1_555 1_555
C5 N6 1_555 1_555
N5 H4 1_555 1_555
H5 N5 1_555 1_555
C6 H6 1_555 1_555
H7 C6 1_555 1_555
N6 C4 1_555 1_555
C7 C6 1_555 1_555
H8 C7 1_555 1_555
H9 C7 1_555 1_555
N7 C5 1_555 1_555
H10 N7 1_555 1_555
H11 N7 1_555 1_555
C8 C7 1_555 1_555
H12 C8 1_555 1_555
H13 C8 1_555 1_555
N8 C5 1_555 1_555
H14 N8 1_555 1_555
H15 N8 1_555 1_555
C9 C8 1_555 1_555
H16 C9 1_555 1_555
H17 C9 1_555 1_555
H18 C9 1_555 1_555
N9 C6 1_555 1_555
C10 N9 1_555 1_555
H19 C10 1_555 1_555
H20 C10 1_555 1_555
C11 C10 1_555 1_555
H21 C11 1_555 1_555
H22 C11 1_555 1_555
C12 C11 1_555 1_555
H23 C12 1_555 1_555
H24 C12 1_555 1_555
C13 C12 1_555 1_555
H25 C13 1_555 1_555
H26 C13 1_555 1_555
H27 C13 1_555 1_555
C14 N9 1_555 1_555
H28 C14 1_555 1_555
H29 C14 1_555 1_555
C15 C14 1_555 1_555
H30 C15 1_555 1_555
H31 C15 1_555 1_555
C16 C15 1_555 1_555
H32 C16 1_555 1_555
H33 C16 1_555 1_555
C17 C16 1_555 1_555
H34 C17 1_555 1_555
H35 C17 1_555 1_555
H36 C17 1_555 1_555
C20 N9 1_555 1_555
H37 C20 1_555 1_555
H38 C20 1_555 1_555
C21 C20 1_555 1_555
H39 C21 1_555 1_555
H40 C21 1_555 1_555
C22 C21 1_555 1_555
H41 C22 1_555 1_555
H42 C22 1_555 1_555
C23 C22 1_555 1_555
H43 C23 1_555 1_555
H44 C23 1_555 1_555
H45 C23 1_555 1_555
C3 N4 1_555 1_555

#END
