
#######################################################################
#
#                 Cambridge Crystallographic Data Centre
#                                CCDC 
#
#######################################################################
#
# If this CIF has been generated from an entry in the Cambridge 
# Structural Database, then it will include bibliographic, chemical, 
# crystal, experimental, refinement or atomic coordinate data resulting 
# from the CCDC's data processing and validation procedures.
#
#######################################################################

data_WECYUA
_chemical_formula_moiety         'C21 H15 N3 O3'
_chemical_name_systematic        
4-Benzyl-2-(4-nitrophenyl)-3\l^5^-quinazolin-3-oxide
_symmetry_cell_setting           monoclinic
_symmetry_space_group_name_H-M   'P 21/c'
_symmetry_Int_Tables_number      14
_space_group_name_Hall           '-P 2ybc'
loop_
_symmetry_equiv_pos_site_id
_symmetry_equiv_pos_as_xyz
1 x,y,z
2 -x,1/2+y,1/2-z
3 -x,-y,-z
4 x,1/2-y,1/2+z
_cell_length_a                   4.1224(10)
_cell_length_b                   25.202(6)
_cell_length_c                   16.108(4)
_cell_angle_alpha                90
_cell_angle_beta                 91.051(5)
_cell_angle_gamma                90
_cell_volume                     1673.22
_exptl_crystal_colour            yellow
_exptl_crystal_description       parallelepiped
_cell_formula_units_Z            4
loop_
_atom_site_label
_atom_site_type_symbol
_atom_site_fract_x
_atom_site_fract_y
_atom_site_fract_z
O1 O 0.9044(4) 0.75715(5) 0.34849(8)
O2 O 1.0468(6) 1.03030(7) 0.33138(14)
O3 O 0.7495(6) 1.01488(7) 0.43412(14)
N1 N 0.4187(4) 0.79374(5) 0.17547(8)
N2 N 0.7192(3) 0.75016(5) 0.28307(8)
N3 N 0.8735(5) 1.00135(7) 0.37063(12)
C1 C 0.4616(4) 0.69797(6) 0.17812(10)
C2 C 0.3818(4) 0.64924(7) 0.13914(11)
H1 H 0.4554 0.6175 0.1621
C3 C 0.1966(5) 0.64865(7) 0.06773(11)
H2 H 0.1429 0.6163 0.0432
C4 C 0.0868(5) 0.69585(8) 0.03110(11)
H3 H -0.0358 0.6947 -0.0179
C5 C 0.1590(5) 0.74356(7) 0.06706(11)
H4 H 0.0843 0.7749 0.0428
C6 C 0.3468(4) 0.74530(6) 0.14094(10)
C7 C 0.5930(4) 0.79548(6) 0.24292(10)
C8 C 0.6564(4) 0.70167(6) 0.25159(10)
C9 C 0.8184(4) 0.65520(7) 0.29325(11)
H5 H 1.0193 0.6675 0.3189
H6 H 0.8750 0.6298 0.2507
C10 C 0.6250(4) 0.62638(6) 0.35882(10)
C11 C 0.5574(5) 0.65002(7) 0.43420(11)
H7 H 0.6178 0.6851 0.4438
C12 C 0.4002(6) 0.62180(9) 0.49554(12)
H8 H 0.3579 0.6379 0.5461
C13 C 0.3067(6) 0.57019(9) 0.48191(14)
H9 H 0.2024 0.5513 0.5232
C14 C 0.3680(6) 0.54666(8) 0.40712(14)
H10 H 0.3025 0.5119 0.3975
C15 C 0.5270(5) 0.57441(7) 0.34590(12)
H11 H 0.5685 0.5580 0.2955
C16 C 0.6749(4) 0.84813(6) 0.27945(10)
C17 C 0.8281(5) 0.88519(7) 0.22952(12)
H12 H 0.8838 0.8762 0.1756
C18 C 0.8979(5) 0.93537(7) 0.25970(12)
H13 H 1.0056 0.9600 0.2272
C19 C 0.8044(5) 0.94798(7) 0.33869(12)
C20 C 0.6476(5) 0.91223(7) 0.38933(12)
H14 H 0.5850 0.9219 0.4424
C21 C 0.5865(5) 0.86191(7) 0.35906(11)
H15 H 0.4850 0.8371 0.3924
loop_
_geom_bond_atom_site_label_1
_geom_bond_atom_site_label_2
_geom_bond_site_symmetry_1
_geom_bond_site_symmetry_2
O1 N2 1_555 1_555
O2 N3 1_555 1_555
O3 N3 1_555 1_555
N1 C6 1_555 1_555
N2 C7 1_555 1_555
N3 C19 1_555 1_555
C1 C2 1_555 1_555
C2 H1 1_555 1_555
C3 C2 1_555 1_555
H2 C3 1_555 1_555
C4 C3 1_555 1_555
H3 C4 1_555 1_555
C5 C4 1_555 1_555
H4 C5 1_555 1_555
C6 C1 1_555 1_555
C7 N1 1_555 1_555
C8 N2 1_555 1_555
C9 C8 1_555 1_555
H5 C9 1_555 1_555
H6 C9 1_555 1_555
C10 C9 1_555 1_555
C11 C10 1_555 1_555
H7 C11 1_555 1_555
C12 C11 1_555 1_555
H8 C12 1_555 1_555
C13 C12 1_555 1_555
H9 C13 1_555 1_555
C14 C13 1_555 1_555
H10 C14 1_555 1_555
C15 C10 1_555 1_555
H11 C15 1_555 1_555
C16 C7 1_555 1_555
C17 C16 1_555 1_555
H12 C17 1_555 1_555
C18 C17 1_555 1_555
H13 C18 1_555 1_555
C19 C18 1_555 1_555
C20 C19 1_555 1_555
H14 C20 1_555 1_555
C21 C16 1_555 1_555
H15 C21 1_555 1_555
C1 C8 1_555 1_555
C5 C6 1_555 1_555
C14 C15 1_555 1_555
C20 C21 1_555 1_555

#END
