
#######################################################################
#
#                 Cambridge Crystallographic Data Centre
#                                CCDC 
#
#######################################################################
#
# If this CIF has been generated from an entry in the Cambridge 
# Structural Database, then it will include bibliographic, chemical, 
# crystal, experimental, refinement or atomic coordinate data resulting 
# from the CCDC's data processing and validation procedures.
#
#######################################################################

data_WECYOU
_chemical_formula_moiety         'C21 H15 N1 O1'
_chemical_name_systematic        4-Benzylidene-2-phenyl-4H-3,1-benzoxazine
_symmetry_cell_setting           monoclinic
_symmetry_space_group_name_H-M   'C 2/c'
_symmetry_Int_Tables_number      15
_space_group_name_Hall           '-C 2yn'
loop_
_symmetry_equiv_pos_site_id
_symmetry_equiv_pos_as_xyz
1 x,y,z
2 -x,y,1/2-z
3 1/2+x,1/2+y,z
4 1/2-x,1/2+y,1/2-z
5 -x,-y,-z
6 x,-y,1/2+z
7 1/2-x,1/2-y,-z
8 1/2+x,1/2-y,1/2+z
_cell_length_a                   22.8463(13)
_cell_length_b                   7.3088(4)
_cell_length_c                   19.0038(11)
_cell_angle_alpha                90
_cell_angle_beta                 102.8790(10)
_cell_angle_gamma                90
_cell_volume                     3093.41
_exptl_crystal_colour            yellow
_exptl_crystal_description       parallelepiped
_cell_formula_units_Z            8
loop_
_atom_site_label
_atom_site_type_symbol
_atom_site_fract_x
_atom_site_fract_y
_atom_site_fract_z
N1 N -0.03362(5) 0.82117(18) -0.09513(7)
O1 O 0.03881(4) 0.75847(14) 0.01105(5)
C1 C 0.02045(6) 0.81254(18) -0.05966(7)
C2 C -0.00329(6) 0.70144(19) 0.04945(7)
C3 C -0.06636(6) 0.70620(18) 0.01096(8)
C4 C -0.07919(6) 0.76692(19) -0.06012(8)
C5 C -0.13837(7) 0.7725(2) -0.09947(9)
H1 H -0.1468 0.8135 -0.1470
C6 C -0.18430(7) 0.7179(3) -0.06870(10)
H2 H -0.2237 0.7213 -0.0954
C7 C -0.17219(7) 0.6581(3) 0.00166(11)
H3 H -0.2035 0.6211 0.0223
C8 C -0.11385(7) 0.6527(2) 0.04191(9)
H4 H -0.1061 0.6134 0.0896
C9 C 0.07158(6) 0.86123(18) -0.09183(7)
C10 C 0.05998(7) 0.9371(2) -0.16064(8)
H5 H 0.0205 0.9557 -0.1855
C11 C 0.10677(9) 0.9851(3) -0.19232(9)
H6 H 0.0986 1.0360 -0.2383
C12 C 0.16508(8) 0.9578(3) -0.15606(9)
H7 H 0.1964 0.9903 -0.1775
C13 C 0.17728(7) 0.8826(3) -0.08814(9)
H8 H 0.2169 0.8640 -0.0638
C14 C 0.13095(6) 0.8340(2) -0.05564(8)
H9 H 0.1395 0.7833 -0.0096
C15 C 0.01775(7) 0.6458(2) 0.11733(8)
H10 H -0.0114 0.6060 0.1410
C16 C 0.07929(7) 0.6374(2) 0.16041(7)
C17 C 0.12708(7) 0.7366(2) 0.14475(8)
H11 H 0.1204 0.8126 0.1045
C18 C 0.18401(8) 0.7237(3) 0.18805(10)
H12 H 0.2153 0.7900 0.1764
C19 C 0.19507(9) 0.6142(3) 0.24813(10)
H13 H 0.2337 0.6056 0.2769
C20 C 0.14874(10) 0.5172(3) 0.26567(9)
H14 H 0.1559 0.4439 0.3067
C21 C 0.09155(8) 0.5282(2) 0.22247(8)
H15 H 0.0606 0.4619 0.2349
loop_
_geom_bond_atom_site_label_1
_geom_bond_atom_site_label_2
_geom_bond_site_symmetry_1
_geom_bond_site_symmetry_2
N1 C1 1_555 1_555
O1 C1 1_555 1_555
C1 C9 1_555 1_555
C2 O1 1_555 1_555
C3 C2 1_555 1_555
C4 N1 1_555 1_555
C5 C4 1_555 1_555
H1 C5 1_555 1_555
C6 C5 1_555 1_555
H2 C6 1_555 1_555
C7 C6 1_555 1_555
H3 C7 1_555 1_555
C8 C3 1_555 1_555
H4 C8 1_555 1_555
C9 C10 1_555 1_555
C10 H5 1_555 1_555
C11 C10 1_555 1_555
H6 C11 1_555 1_555
C12 C11 1_555 1_555
H7 C12 1_555 1_555
C13 C12 1_555 1_555
H8 C13 1_555 1_555
C14 C9 1_555 1_555
H9 C14 1_555 1_555
C15 C2 1_555 1_555
H10 C15 1_555 1_555
C16 C15 1_555 1_555
C17 C16 1_555 1_555
H11 C17 1_555 1_555
C18 C17 1_555 1_555
H12 C18 1_555 1_555
C19 C18 1_555 1_555
H13 C19 1_555 1_555
C20 C19 1_555 1_555
H14 C20 1_555 1_555
C21 C16 1_555 1_555
H15 C21 1_555 1_555
C3 C4 1_555 1_555
C7 C8 1_555 1_555
C13 C14 1_555 1_555
C20 C21 1_555 1_555

#END
