
#######################################################################
#
#                 Cambridge Crystallographic Data Centre
#                                CCDC 
#
#######################################################################
#
# If this CIF has been generated from an entry in the Cambridge 
# Structural Database, then it will include bibliographic, chemical, 
# crystal, experimental, refinement or atomic coordinate data resulting 
# from the CCDC's data processing and validation procedures.
#
#######################################################################

data_WECZEL
_chemical_formula_moiety         'C19 H20 O2 Si1'
_chemical_name_systematic        
3-(Phenyl(trimethylsilyl)methylene)-2,3-dihydro-4H-chromen-4-one
_symmetry_cell_setting           monoclinic
_symmetry_space_group_name_H-M   'P 21/c'
_symmetry_Int_Tables_number      14
_space_group_name_Hall           '-P 2ybc'
loop_
_symmetry_equiv_pos_site_id
_symmetry_equiv_pos_as_xyz
1 x,y,z
2 -x,1/2+y,1/2-z
3 -x,-y,-z
4 x,1/2-y,1/2+z
_cell_length_a                   10.1857(15)
_cell_length_b                   14.343(2)
_cell_length_c                   12.8009(14)
_cell_angle_alpha                90
_cell_angle_beta                 117.856(8)
_cell_angle_gamma                90
_cell_volume                     1653.43
_exptl_crystal_colour            colorless
_exptl_crystal_description       block
_cell_formula_units_Z            4
loop_
_atom_site_label
_atom_site_type_symbol
_atom_site_fract_x
_atom_site_fract_y
_atom_site_fract_z
Si1 Si 0.68951(5) 0.34172(3) 0.32768(4)
O1 O 0.84278(12) 0.63276(8) 0.60258(9)
O2 O 0.61371(13) 0.38597(8) 0.52246(10)
C1 C 0.87618(19) 0.57817(13) 0.88938(15)
H1 H 0.9252 0.6022 0.9675
C2 C 0.78854(18) 0.49850(13) 0.86618(14)
H2 H 0.7769 0.4691 0.9278
C3 C 0.71905(18) 0.46263(12) 0.75347(14)
H3 H 0.6591 0.4084 0.7375
C4 C 0.73610(17) 0.50556(11) 0.66183(13)
C5 C 0.82154(17) 0.58677(12) 0.68688(14)
C6 C 0.89282(18) 0.62245(12) 0.80129(14)
H4 H 0.9524 0.6769 0.8182
C7 C 0.72732(18) 0.61649(11) 0.48320(13)
H5 H 0.7545 0.6473 0.4268
H6 H 0.6332 0.6444 0.4732
C8 C 0.70491(17) 0.51370(11) 0.45605(13)
C9 C 0.67695(17) 0.46145(11) 0.54435(14)
C10 C 0.70885(16) 0.47194(11) 0.36322(13)
C11 C 0.73460(18) 0.53167(11) 0.27844(13)
C12 C 0.6152(2) 0.56058(13) 0.17325(15)
H7 H 0.5173 0.5422 0.1555
C13 C 0.6372(2) 0.61588(14) 0.09411(16)
H8 H 0.5544 0.6357 0.0230
C14 C 0.7783(2) 0.64232(12) 0.11787(16)
H9 H 0.7932 0.6807 0.0639
C15 C 0.8974(2) 0.61268(13) 0.22036(17)
H10 H 0.9951 0.6301 0.2366
C16 C 0.87638(19) 0.55743(12) 0.30047(16)
H11 H 0.9598 0.5372 0.3708
C17 C 0.7537(2) 0.32515(13) 0.21419(15)
H12 H 0.7376 0.2602 0.1872
H13 H 0.8597 0.3400 0.2488
H14 H 0.6974 0.3665 0.1469
C18 C 0.49303(19) 0.30328(13) 0.26206(16)
H15 H 0.4324 0.3417 0.1927
H16 H 0.4571 0.3101 0.3205
H17 H 0.4859 0.2378 0.2383
C19 C 0.8188(2) 0.27133(13) 0.45755(15)
H18 H 0.7807 0.2680 0.5150
H19 H 0.9171 0.3007 0.4944
H20 H 0.8267 0.2083 0.4316
loop_
_geom_bond_atom_site_label_1
_geom_bond_atom_site_label_2
_geom_bond_site_symmetry_1
_geom_bond_site_symmetry_2
Si1 C10 1_555 1_555
O1 C5 1_555 1_555
O2 C9 1_555 1_555
C1 H1 1_555 1_555
C2 C1 1_555 1_555
H2 C2 1_555 1_555
C3 C2 1_555 1_555
H3 C3 1_555 1_555
C4 C3 1_555 1_555
C5 C4 1_555 1_555
C6 C1 1_555 1_555
H4 C6 1_555 1_555
C7 O1 1_555 1_555
H5 C7 1_555 1_555
H6 C7 1_555 1_555
C8 C7 1_555 1_555
C9 C4 1_555 1_555
C10 C8 1_555 1_555
C11 C10 1_555 1_555
C12 C11 1_555 1_555
H7 C12 1_555 1_555
C13 C12 1_555 1_555
H8 C13 1_555 1_555
C14 C13 1_555 1_555
H9 C14 1_555 1_555
C15 C14 1_555 1_555
H10 C15 1_555 1_555
C16 C11 1_555 1_555
H11 C16 1_555 1_555
C17 Si1 1_555 1_555
H12 C17 1_555 1_555
H13 C17 1_555 1_555
H14 C17 1_555 1_555
C18 Si1 1_555 1_555
H15 C18 1_555 1_555
H16 C18 1_555 1_555
H17 C18 1_555 1_555
C19 Si1 1_555 1_555
H18 C19 1_555 1_555
H19 C19 1_555 1_555
H20 C19 1_555 1_555
C5 C6 1_555 1_555
C8 C9 1_555 1_555
C15 C16 1_555 1_555

#END
