
#######################################################################
#
#                 Cambridge Crystallographic Data Centre
#                                CCDC 
#
#######################################################################
#
# If this CIF has been generated from an entry in the Cambridge 
# Structural Database, then it will include bibliographic, chemical, 
# crystal, experimental, refinement or atomic coordinate data resulting 
# from the CCDC's data processing and validation procedures.
#
#######################################################################

data_WECZAI
_chemical_formula_moiety         'C21 H22 N4 O2'
_chemical_name_systematic        
'ethyl 3,3-dicyano-2-(2,2-dimethylpropylidene)-1,2,3,10b-tetrahydropyrrolo[2,1-a]phthalazine-1-carboxylate'
_symmetry_cell_setting           monoclinic
_symmetry_space_group_name_H-M   'P 21/c'
_symmetry_Int_Tables_number      14
_space_group_name_Hall           '-P 2ybc'
loop_
_symmetry_equiv_pos_site_id
_symmetry_equiv_pos_as_xyz
1 x,y,z
2 -x,1/2+y,1/2-z
3 -x,-y,-z
4 x,1/2-y,1/2+z
_cell_length_a                   11.298(2)
_cell_length_b                   17.426(4)
_cell_length_c                   10.279(2)
_cell_angle_alpha                90
_cell_angle_beta                 105.49(3)
_cell_angle_gamma                90
_cell_volume                     1950.21
_exptl_crystal_colour            colorless
_exptl_crystal_description       block
_cell_formula_units_Z            4
loop_
_atom_site_label
_atom_site_type_symbol
_atom_site_fract_x
_atom_site_fract_y
_atom_site_fract_z
O1 O 0.98600(10) -0.00899(7) 0.22253(12)
O2 O 0.91672(11) 0.05075(7) 0.38171(12)
N1 N 0.38201(15) 0.05940(11) 0.11696(18)
N2 N 0.60461(15) 0.07762(9) 0.52386(16)
N3 N 0.68076(12) 0.11986(7) 0.22780(14)
N4 N 0.63217(13) 0.19332(8) 0.21962(15)
C1 C 0.88548(17) 0.12361(11) -0.00021(18)
H1 H 0.9002 0.0722 -0.0142
C2 C 0.94793(19) 0.18032(12) -0.0495(2)
H2 H 1.0042 0.1666 -0.0969
C3 C 0.92748(18) 0.25688(12) -0.0289(2)
H3 H 0.9706 0.2944 -0.0615
C4 C 0.84313(17) 0.27781(11) 0.0401(2)
H4 H 0.8293 0.3294 0.0537
C5 C 0.77836(15) 0.22144(10) 0.08948(17)
C6 C 0.80102(14) 0.14387(9) 0.06991(16)
C7 C 0.72024(14) 0.08707(9) 0.11476(16)
H5 H 0.6474 0.0777 0.0397
C8 C 0.68269(16) 0.24104(10) 0.15578(19)
H6 H 0.6566 0.2918 0.1513
C9 C 0.77172(14) 0.00907(9) 0.17601(16)
H7 H 0.7745 -0.0280 0.1052
C10 C 0.67569(14) -0.01378(9) 0.24853(16)
C11 C 0.60961(14) 0.06101(9) 0.27172(16)
C12 C 0.47920(16) 0.05957(10) 0.18703(18)
C13 C 0.60857(14) 0.07174(9) 0.41423(17)
C14 C 0.63787(15) -0.08121(10) 0.28191(17)
H8 H 0.5753 -0.0776 0.3248
C15 C 0.67642(17) -0.16256(10) 0.26392(18)
C16 C 0.5705(2) -0.19924(12) 0.1553(2)
H9 H 0.4946 -0.1915 0.1787
H10 H 0.5854 -0.2532 0.1501
H11 H 0.5655 -0.1758 0.0695
C17 C 0.6889(2) -0.20494(12) 0.3968(2)
H12 H 0.7562 -0.1838 0.4650
H13 H 0.7039 -0.2584 0.3849
H14 H 0.6144 -0.1994 0.4240
C18 C 0.79506(19) -0.16998(11) 0.2205(2)
H15 H 0.7834 -0.1482 0.1322
H16 H 0.8164 -0.2232 0.2185
H17 H 0.8600 -0.1432 0.2835
C19 C 0.89794(14) 0.01967(9) 0.27374(16)
C20 C 1.11219(16) 0.00125(12) 0.3052(2)
H18 H 1.1642 -0.0382 0.2831
H19 H 1.1148 -0.0040 0.3999
C21 C 1.1596(2) 0.07883(15) 0.2812(3)
H20 H 1.1557 0.0843 0.1872
H21 H 1.2432 0.0841 0.3340
H22 H 1.1102 0.1178 0.3069
loop_
_geom_bond_atom_site_label_1
_geom_bond_atom_site_label_2
_geom_bond_site_symmetry_1
_geom_bond_site_symmetry_2
O1 C19 1_555 1_555
O2 C19 1_555 1_555
N1 C12 1_555 1_555
N2 C13 1_555 1_555
N3 N4 1_555 1_555
N4 C8 1_555 1_555
C1 H1 1_555 1_555
C2 C1 1_555 1_555
H2 C2 1_555 1_555
C3 C2 1_555 1_555
H3 C3 1_555 1_555
C4 C3 1_555 1_555
H4 C4 1_555 1_555
C5 C4 1_555 1_555
C6 C1 1_555 1_555
C7 N3 1_555 1_555
H5 C7 1_555 1_555
C8 C5 1_555 1_555
H6 C8 1_555 1_555
C9 C7 1_555 1_555
H7 C9 1_555 1_555
C10 C9 1_555 1_555
C11 N3 1_555 1_555
C12 C11 1_555 1_555
C13 C11 1_555 1_555
C14 C10 1_555 1_555
H8 C14 1_555 1_555
C15 C14 1_555 1_555
C16 C15 1_555 1_555
H9 C16 1_555 1_555
H10 C16 1_555 1_555
H11 C16 1_555 1_555
C17 C15 1_555 1_555
H12 C17 1_555 1_555
H13 C17 1_555 1_555
H14 C17 1_555 1_555
C18 C15 1_555 1_555
H15 C18 1_555 1_555
H16 C18 1_555 1_555
H17 C18 1_555 1_555
C19 C9 1_555 1_555
C20 O1 1_555 1_555
H18 C20 1_555 1_555
H19 C20 1_555 1_555
C21 C20 1_555 1_555
H20 C21 1_555 1_555
H21 C21 1_555 1_555
H22 C21 1_555 1_555
C5 C6 1_555 1_555
C6 C7 1_555 1_555
C10 C11 1_555 1_555

#END
