
#######################################################################
#
#                 Cambridge Crystallographic Data Centre
#                                CCDC 
#
#######################################################################
#
# If this CIF has been generated from an entry in the Cambridge 
# Structural Database, then it will include bibliographic, chemical, 
# crystal, experimental, refinement or atomic coordinate data resulting 
# from the CCDC's data processing and validation procedures.
#
#######################################################################

data_WECZIP
_chemical_formula_moiety         'C20 H19 Br1 N2 O5'
_chemical_name_systematic        
'Ethyl 3-(1-(2-bromophenyl)-2-nitroethyl)-1-methyl-2-oxoindoline-3-carboxylate'
_symmetry_cell_setting           orthorhombic
_symmetry_space_group_name_H-M   'P 21 21 21'
_symmetry_Int_Tables_number      19
_space_group_name_Hall           'P 2ac 2ab'
loop_
_symmetry_equiv_pos_site_id
_symmetry_equiv_pos_as_xyz
1 x,y,z
2 1/2-x,-y,1/2+z
3 -x,1/2+y,1/2-z
4 1/2+x,1/2-y,-z
_cell_length_a                   8.5393(7)
_cell_length_b                   8.8580(7)
_cell_length_c                   53.031(4)
_cell_angle_alpha                90
_cell_angle_beta                 90
_cell_angle_gamma                90
_cell_volume                     4011.32
_exptl_crystal_colour            colorless
_exptl_crystal_description       prismatic
_cell_formula_units_Z            8
loop_
_atom_site_label
_atom_site_type_symbol
_atom_site_fract_x
_atom_site_fract_y
_atom_site_fract_z
Br1 Br 0.79170(5) 0.48002(4) 0.155502(7)
N1 N 0.5738(3) 1.0286(3) 0.19934(5)
N2 N 0.8449(3) 0.5202(3) 0.23695(5)
O1 O 0.5879(3) 0.9340(3) 0.23921(4)
O2 O 0.8616(3) 0.4167(3) 0.22234(5)
O3 O 0.9327(3) 0.5471(4) 0.25409(5)
O4 O 0.2967(3) 0.7639(3) 0.22682(4)
O5 O 0.3633(2) 0.5626(2) 0.20354(4)
C1 C 0.5680(3) 0.9175(3) 0.21680(6)
C2 C 0.5372(3) 0.7670(3) 0.20321(5)
C3 C 0.5159(3) 0.8197(3) 0.17615(5)
C4 C 0.5421(3) 0.9741(4) 0.17520(6)
C5 C 0.5328(4) 1.0525(4) 0.15288(7)
H1 H 0.5505 1.1561 0.1523
C6 C 0.4960(5) 0.9716(5) 0.13125(7)
H2 H 0.4892 1.0221 0.1159
C7 C 0.4697(4) 0.8199(5) 0.13200(6)
H3 H 0.4461 0.7683 0.1172
C8 C 0.4779(3) 0.7418(4) 0.15451(6)
H4 H 0.4582 0.6387 0.1550
C9 C 0.6777(3) 0.6567(3) 0.20586(5)
H5 H 0.6486 0.5622 0.1975
C10 C 0.7070(3) 0.6206(4) 0.23365(5)
H6 H 0.7243 0.7139 0.2428
H7 H 0.6150 0.5720 0.2407
C11 C 0.8226(3) 0.7172(3) 0.19272(5)
C12 C 0.9018(3) 0.8403(4) 0.20242(6)
H8 H 0.8683 0.8823 0.2176
C13 C 1.0305(4) 0.9032(4) 0.19008(7)
H9 H 1.0803 0.9875 0.1968
C14 C 1.0831(4) 0.8415(5) 0.16830(7)
H10 H 1.1679 0.8843 0.1599
C15 C 1.0107(4) 0.7147(5) 0.15845(6)
H11 H 1.0484 0.6702 0.1438
C16 C 0.8821(3) 0.6552(4) 0.17059(5)
C17 C 0.3841(3) 0.6993(3) 0.21313(5)
C18 C 0.2135(3) 0.4911(4) 0.20973(6)
H12 H 0.2062 0.4738 0.2278
H13 H 0.1273 0.5559 0.2047
C19 C 0.2061(6) 0.3477(6) 0.19614(10)
H14 H 0.1993 0.3669 0.1784
H15 H 0.1154 0.2922 0.2015
H16 H 0.2986 0.2898 0.1996
C20 C 0.6258(6) 1.1803(4) 0.20549(9)
H17 H 0.6608 1.1832 0.2227
H18 H 0.5405 1.2497 0.2033
H19 H 0.7104 1.2083 0.1945
Br2 Br 0.36842(7) 0.38833(5) 0.112798(9)
N3 N -0.1407(3) 0.4232(4) 0.04152(6)
N4 N 0.3769(5) 0.0723(4) 0.05282(7)
O6 O -0.0092(3) 0.2792(3) 0.01281(4)
O7 O 0.3550(6) -0.0576(5) 0.04835(11)
O8 O 0.4784(4) 0.1135(4) 0.06673(7)
O9 O 0.3741(3) 0.5406(3) 0.02933(5)
O10 O 0.1572(3) 0.5878(3) 0.00754(5)
C21 C -0.0116(4) 0.3677(4) 0.03002(6)
C22 C 0.1330(4) 0.4350(4) 0.04359(5)
C23 C 0.0568(4) 0.5459(4) 0.06187(6)
C24 C -0.1032(4) 0.5278(4) 0.06050(6)
C25 C -0.2019(6) 0.6088(5) 0.07582(8)
H20 H -0.3098 0.5951 0.0754
C26 C -0.1319(7) 0.7125(5) 0.09200(8)
H21 H -0.1950 0.7674 0.1030
C27 C 0.0263(7) 0.7366(5) 0.09240(8)
H22 H 0.0679 0.8107 0.1029
C28 C 0.1237(5) 0.6524(4) 0.07749(6)
H23 H 0.2316 0.6665 0.0779
C29 C 0.2275(4) 0.3108(4) 0.05780(5)
H24 H 0.3235 0.3580 0.0641
C30 C 0.2764(4) 0.1843(4) 0.03983(6)
H25 H 0.1837 0.1343 0.0333
H26 H 0.3330 0.2270 0.0257
C31 C 0.1388(4) 0.2504(4) 0.08052(6)
C32 C 0.0040(5) 0.1664(4) 0.07731(7)
H27 H -0.0283 0.1435 0.0610
C33 C -0.0844(5) 0.1154(5) 0.09722(9)
H28 H -0.1766 0.0623 0.0943
C34 C -0.0363(7) 0.1428(5) 0.12100(9)
H29 H -0.0956 0.1080 0.1345
C35 C 0.0972(7) 0.2203(5) 0.12542(8)
H30 H 0.1308 0.2362 0.1419
C36 C 0.1846(5) 0.2765(4) 0.10528(7)
C37 C 0.2385(4) 0.5248(4) 0.02616(6)
C38 C 0.2453(5) 0.6878(6) -0.00966(8)
H31 H 0.1739 0.7562 -0.0181
H32 H 0.3202 0.7473 -0.0002
C39 C 0.3276(8) 0.5937(6) -0.02833(9)
H33 H 0.3985 0.5269 -0.0198
H34 H 0.3854 0.6574 -0.0396
H35 H 0.2527 0.5356 -0.0377
C40 C -0.2985(5) 0.3737(6) 0.03516(10)
H36 H -0.3546 0.4554 0.0274
H37 H -0.3520 0.3429 0.0502
H38 H -0.2930 0.2902 0.0236
loop_
_geom_bond_atom_site_label_1
_geom_bond_atom_site_label_2
_geom_bond_site_symmetry_1
_geom_bond_site_symmetry_2
Br1 C16 1_555 1_555
Br2 C36 1_555 1_555
N1 C1 1_555 1_555
N2 O2 1_555 1_555
N3 C21 1_555 1_555
N4 O7 1_555 1_555
O1 C1 1_555 1_555
O3 N2 1_555 1_555
O4 C17 1_555 1_555
O5 C17 1_555 1_555
O6 C21 1_555 1_555
O8 N4 1_555 1_555
O9 C37 1_555 1_555
O10 C37 1_555 1_555
C1 C2 1_555 1_555
C2 C3 1_555 1_555
C3 C4 1_555 1_555
C4 N1 1_555 1_555
C5 C4 1_555 1_555
H1 C5 1_555 1_555
C6 C5 1_555 1_555
H2 C6 1_555 1_555
C7 C6 1_555 1_555
H3 C7 1_555 1_555
C8 C3 1_555 1_555
H4 C8 1_555 1_555
C9 C2 1_555 1_555
H5 C9 1_555 1_555
C10 N2 1_555 1_555
H6 C10 1_555 1_555
H7 C10 1_555 1_555
C11 C9 1_555 1_555
C12 C11 1_555 1_555
H8 C12 1_555 1_555
C13 C12 1_555 1_555
H9 C13 1_555 1_555
C14 C13 1_555 1_555
H10 C14 1_555 1_555
C15 C14 1_555 1_555
H11 C15 1_555 1_555
C16 C11 1_555 1_555
C17 C2 1_555 1_555
C18 O5 1_555 1_555
H12 C18 1_555 1_555
H13 C18 1_555 1_555
C19 C18 1_555 1_555
H14 C19 1_555 1_555
H15 C19 1_555 1_555
H16 C19 1_555 1_555
C20 N1 1_555 1_555
H17 C20 1_555 1_555
H18 C20 1_555 1_555
H19 C20 1_555 1_555
C21 C22 1_555 1_555
C22 C23 1_555 1_555
C23 C24 1_555 1_555
C24 N3 1_555 1_555
C25 C24 1_555 1_555
H20 C25 1_555 1_555
C26 C25 1_555 1_555
H21 C26 1_555 1_555
C27 C26 1_555 1_555
H22 C27 1_555 1_555
C28 C23 1_555 1_555
H23 C28 1_555 1_555
C29 C22 1_555 1_555
H24 C29 1_555 1_555
C30 N4 1_555 1_555
H25 C30 1_555 1_555
H26 C30 1_555 1_555
C31 C29 1_555 1_555
C32 C31 1_555 1_555
H27 C32 1_555 1_555
C33 C32 1_555 1_555
H28 C33 1_555 1_555
C34 C33 1_555 1_555
H29 C34 1_555 1_555
C35 C34 1_555 1_555
H30 C35 1_555 1_555
C36 C31 1_555 1_555
C37 C22 1_555 1_555
C38 O10 1_555 1_555
H31 C38 1_555 1_555
H32 C38 1_555 1_555
C39 C38 1_555 1_555
H33 C39 1_555 1_555
H34 C39 1_555 1_555
H35 C39 1_555 1_555
C40 N3 1_555 1_555
H36 C40 1_555 1_555
H37 C40 1_555 1_555
H38 C40 1_555 1_555
C7 C8 1_555 1_555
C9 C10 1_555 1_555
C15 C16 1_555 1_555
C27 C28 1_555 1_555
C29 C30 1_555 1_555
C35 C36 1_555 1_555

#END
