
#######################################################################
#
#                 Cambridge Crystallographic Data Centre
#                                CCDC 
#
#######################################################################
#
# If this CIF has been generated from an entry in the Cambridge 
# Structural Database, then it will include bibliographic, chemical, 
# crystal, experimental, refinement or atomic coordinate data resulting 
# from the CCDC's data processing and validation procedures.
#
#######################################################################

data_WEDBUE
_chemical_formula_moiety         'C20 H20 Cl2 O6'
_chemical_name_systematic        
'Ethyl 4-(3,4-dichlorophenyl)-2-(2-hydroxy-4,5-dimethoxyphenyl)-4-oxobutanoate'
_symmetry_cell_setting           monoclinic
_symmetry_space_group_name_H-M   'P 21'
_symmetry_Int_Tables_number      4
_space_group_name_Hall           'P 2yb'
loop_
_symmetry_equiv_pos_site_id
_symmetry_equiv_pos_as_xyz
1 x,y,z
2 -x,1/2+y,-z
_cell_length_a                   12.407(2)
_cell_length_b                   11.5041(12)
_cell_length_c                   14.505(2)
_cell_angle_alpha                90
_cell_angle_beta                 102.817(18)
_cell_angle_gamma                90
_cell_volume                     2018.73
_exptl_crystal_colour            colorless
_exptl_crystal_description       block
_cell_formula_units_Z            4
loop_
_atom_site_label
_atom_site_type_symbol
_atom_site_fract_x
_atom_site_fract_y
_atom_site_fract_z
Cl1 Cl 0.65128(11) 0.71929(10) 0.29078(9)
Cl2 Cl 0.90926(12) 0.76249(11) 0.33379(10)
O1 O 0.5132(3) -0.0247(2) 0.3977(3)
H1 H 0.4856 -0.0844 0.3721
O2 O 0.1342(3) 0.1020(3) 0.3068(3)
O3 O 0.1820(3) 0.2917(3) 0.4019(3)
O4 O 0.7955(3) 0.2690(3) 0.5319(3)
O5 O 0.5970(3) 0.2670(3) 0.6430(2)
O6 O 0.6303(3) 0.0819(3) 0.6258(2)
C1 C 0.7419(4) 0.6229(3) 0.3580(3)
C2 C 0.8537(4) 0.6419(4) 0.3761(3)
C3 C 0.9257(4) 0.5651(4) 0.4305(4)
H3 H 1.0012 0.5804 0.4450
C4 C 0.8850(4) 0.4638(4) 0.4640(4)
H4 H 0.9332 0.4109 0.5002
C5 C 0.7713(4) 0.4431(3) 0.4424(3)
C6 C 0.6995(4) 0.5233(3) 0.3889(3)
H5 H 0.6237 0.5098 0.3742
C7 C 0.7330(4) 0.3320(4) 0.4807(4)
C8 C 0.6116(3) 0.3049(3) 0.4505(3)
H6 H 0.5901 0.3055 0.3820
H7 H 0.5700 0.3654 0.4738
C9 C 0.5811(4) 0.1861(3) 0.4871(3)
H8 H 0.6271 0.1261 0.4670
C10 C 0.4604(4) 0.1591(3) 0.4438(3)
C11 C 0.4318(4) 0.0552(4) 0.3989(3)
C12 C 0.3228(4) 0.0346(4) 0.3508(3)
H9 H 0.3049 -0.0337 0.3164
C13 C 0.2425(4) 0.1150(4) 0.3543(3)
C14 C 0.2683(4) 0.2185(4) 0.4034(3)
C15 C 0.3754(3) 0.2368(4) 0.4466(3)
H10 H 0.3932 0.3056 0.4801
C16 C 0.1070(5) 0.0032(4) 0.2452(4)
H11 H 0.1514 0.0042 0.1988
H12 H 0.0302 0.0064 0.2141
H13 H 0.1212 -0.0670 0.2817
C17 C 0.2020(5) 0.3867(5) 0.4656(4)
H14 H 0.2498 0.4416 0.4447
H15 H 0.2365 0.3593 0.5276
H16 H 0.1332 0.4238 0.4675
C18 C 0.6037(4) 0.1864(4) 0.5933(4)
C19 C 0.6678(5) 0.0681(5) 0.7302(4)
H17 H 0.6316 0.1251 0.7623
H18 H 0.6492 -0.0089 0.7491
C20 C 0.7882(5) 0.0851(7) 0.7553(5)
H19 H 0.8216 0.0426 0.7120
H20 H 0.8168 0.0575 0.8184
H21 H 0.8047 0.1663 0.7518
Cl3 Cl 0.63205(11) 0.09934(10) 0.26144(10)
Cl4 Cl 0.88255(13) 0.07078(12) 0.35121(11)
O7 O 0.4776(3) 0.8294(3) 0.1065(3)
H2 H 0.4496 0.8943 0.1025
O8 O 0.1046(3) 0.6958(3) -0.0107(3)
O9 O 0.1747(3) 0.5068(3) -0.0708(3)
O10 O 0.7853(3) 0.5662(3) 0.1070(3)
O11 O 0.6174(3) 0.5463(3) -0.0943(2)
O12 O 0.6066(3) 0.7382(2) -0.0792(2)
C21 C 0.7247(4) 0.2047(4) 0.2447(3)
C22 C 0.8350(4) 0.1910(4) 0.2851(3)
C23 C 0.9086(4) 0.2766(4) 0.2720(3)
H22 H 0.9834 0.2684 0.2995
C24 C 0.8726(4) 0.3725(4) 0.2192(3)
H23 H 0.9232 0.4282 0.2093
C25 C 0.7605(4) 0.3877(3) 0.1799(3)
C26 C 0.6881(4) 0.3030(3) 0.1938(3)
H24 H 0.6129 0.3123 0.1682
C27 C 0.7207(4) 0.4965(4) 0.1254(3)
C28 C 0.5974(3) 0.5122(3) 0.0965(3)
H25 H 0.5669 0.5105 0.1526
H26 H 0.5658 0.4477 0.0564
C29 C 0.5639(4) 0.6269(3) 0.0432(3)
H27 H 0.6024 0.6901 0.0824
C30 C 0.4414(4) 0.6484(4) 0.0293(3)
C31 C 0.4020(4) 0.7508(4) 0.0616(3)
C32 C 0.2900(4) 0.7691(4) 0.0491(3)
H28 H 0.2642 0.8373 0.0710
C33 C 0.2162(4) 0.6871(5) 0.0044(4)
C34 C 0.2545(4) 0.5840(5) -0.0281(3)
C35 C 0.3644(4) 0.5667(4) -0.0150(3)
H29 H 0.3895 0.4978 -0.0365
C36 C 0.0659(5) 0.8000(5) 0.0247(4)
H30 H 0.0864 0.8657 -0.0085
H31 H 0.0984 0.8073 0.0909
H32 H -0.0131 0.7970 0.0153
C37 C 0.2096(4) 0.4053(5) -0.1081(4)
H33 H 0.2489 0.4250 -0.1560
H34 H 0.1464 0.3587 -0.1354
H35 H 0.2574 0.3625 -0.0586
C38 C 0.5991(4) 0.6294(4) -0.0488(3)
C39 C 0.6446(5) 0.7559(5) -0.1654(4)
H36 H 0.6075 0.8227 -0.1991
H37 H 0.6271 0.6883 -0.2059
C40 C 0.7638(5) 0.7751(6) -0.1429(5)
H38 H 0.7886 0.7881 -0.2002
H39 H 0.8003 0.7081 -0.1110
H40 H 0.7808 0.8419 -0.1026
loop_
_geom_bond_atom_site_label_1
_geom_bond_atom_site_label_2
_geom_bond_site_symmetry_1
_geom_bond_site_symmetry_2
Cl1 C1 1_555 1_555
Cl2 C2 1_555 1_555
Cl3 C21 1_555 1_555
Cl4 C22 1_555 1_555
O1 H1 1_555 1_555
O2 C13 1_555 1_555
O3 C14 1_555 1_555
O4 C7 1_555 1_555
O5 C18 1_555 1_555
O6 C18 1_555 1_555
O7 H2 1_555 1_555
O8 C33 1_555 1_555
O9 C34 1_555 1_555
O10 C27 1_555 1_555
O11 C38 1_555 1_555
O12 C38 1_555 1_555
C1 C2 1_555 1_555
C2 C3 1_555 1_555
C3 H3 1_555 1_555
C4 C3 1_555 1_555
H4 C4 1_555 1_555
C5 C4 1_555 1_555
C6 C1 1_555 1_555
H5 C6 1_555 1_555
C7 C5 1_555 1_555
C8 C7 1_555 1_555
H6 C8 1_555 1_555
H7 C8 1_555 1_555
C9 C8 1_555 1_555
H8 C9 1_555 1_555
C10 C9 1_555 1_555
C11 O1 1_555 1_555
C12 C11 1_555 1_555
H9 C12 1_555 1_555
C13 C12 1_555 1_555
C14 C13 1_555 1_555
C15 C10 1_555 1_555
H10 C15 1_555 1_555
C16 O2 1_555 1_555
H11 C16 1_555 1_555
H12 C16 1_555 1_555
H13 C16 1_555 1_555
C17 O3 1_555 1_555
H14 C17 1_555 1_555
H15 C17 1_555 1_555
H16 C17 1_555 1_555
C18 C9 1_555 1_555
C19 O6 1_555 1_555
H17 C19 1_555 1_555
H18 C19 1_555 1_555
C20 C19 1_555 1_555
H19 C20 1_555 1_555
H20 C20 1_555 1_555
H21 C20 1_555 1_555
C21 C22 1_555 1_555
C22 C23 1_555 1_555
C23 H22 1_555 1_555
C24 C23 1_555 1_555
H23 C24 1_555 1_555
C25 C24 1_555 1_555
C26 C21 1_555 1_555
H24 C26 1_555 1_555
C27 C25 1_555 1_555
C28 C27 1_555 1_555
H25 C28 1_555 1_555
H26 C28 1_555 1_555
C29 C28 1_555 1_555
H27 C29 1_555 1_555
C30 C29 1_555 1_555
C31 O7 1_555 1_555
C32 C31 1_555 1_555
H28 C32 1_555 1_555
C33 C32 1_555 1_555
C34 C33 1_555 1_555
C35 C30 1_555 1_555
H29 C35 1_555 1_555
C36 O8 1_555 1_555
H30 C36 1_555 1_555
H31 C36 1_555 1_555
H32 C36 1_555 1_555
C37 O9 1_555 1_555
H33 C37 1_555 1_555
H34 C37 1_555 1_555
H35 C37 1_555 1_555
C38 C29 1_555 1_555
C39 O12 1_555 1_555
H36 C39 1_555 1_555
H37 C39 1_555 1_555
C40 C39 1_555 1_555
H38 C40 1_555 1_555
H39 C40 1_555 1_555
H40 C40 1_555 1_555
C5 C6 1_555 1_555
C10 C11 1_555 1_555
C14 C15 1_555 1_555
C25 C26 1_555 1_555
C30 C31 1_555 1_555
C34 C35 1_555 1_555

#END
