
#######################################################################
#
#                 Cambridge Crystallographic Data Centre
#                                CCDC 
#
#######################################################################
#
# If this CIF has been generated from an entry in the Cambridge 
# Structural Database, then it will include bibliographic, chemical, 
# crystal, experimental, refinement or atomic coordinate data resulting 
# from the CCDC's data processing and validation procedures.
#
#######################################################################

data_WEDCOA
_chemical_compound_source        
'isolated from Aphanamixis polystachya (Wall.) R. Parker'
_chemical_name_common            
6-[1-(5,5-dimethyl-4-oxo-4,5-dihydrofuran-2-yl)-5-methylbicyclo[3.2.0]heptan-6-yl]-4-methyl-5,6-dihydro-2H-pyran-2-one
_chemical_formula_moiety         'C20 H26 O4'
_chemical_name_systematic        
(S)-6-((1R,5R,6S)-1-(5,5-dimethyl-4-oxo-4,5-dihydrofuran-2-yl)-5-methylbicyclo[3.2.0]heptan-6-yl)-4-methyl-5,6-dihydro-2H-pyran-2-one
_symmetry_cell_setting           monoclinic
_symmetry_space_group_name_H-M   'P 21'
_symmetry_Int_Tables_number      4
_space_group_name_Hall           'P 2yb'
loop_
_symmetry_equiv_pos_site_id
_symmetry_equiv_pos_as_xyz
1 x,y,z
2 -x,1/2+y,-z
_cell_length_a                   16.2652(4)
_cell_length_b                   7.12079(14)
_cell_length_c                   16.7537(4)
_cell_angle_alpha                90
_cell_angle_beta                 106.349(3)
_cell_angle_gamma                90
_cell_volume                     1861.97
_exptl_crystal_colour            colorless
_exptl_crystal_description       block
_cell_formula_units_Z            4
loop_
_atom_site_label
_atom_site_type_symbol
_atom_site_fract_x
_atom_site_fract_y
_atom_site_fract_z
O1 O 0.35274(12) 0.7122(3) 0.34928(16)
O2 O 0.48940(10) 0.7631(2) 0.40807(10)
O3 O 0.87912(11) 0.5596(4) 0.44465(11)
O4 O 0.8274(2) 0.4090(6) 0.23724(15)
C1 C 0.41307(15) 0.8151(4) 0.35653(17)
C2 C 0.40758(16) 1.0002(4) 0.31790(16)
H1 H 0.3606 1.0281 0.2731
C3 C 0.46763(16) 1.1300(3) 0.34474(15)
C4 C 0.54834(15) 1.0765(3) 0.40958(15)
H2 H 0.5429 1.1069 0.4643
H3 H 0.5960 1.1478 0.4011
C5 C 0.56573(14) 0.8694(3) 0.40500(14)
H4 H 0.5784 0.8427 0.3523
C6 C 0.63639(15) 0.7903(3) 0.47540(15)
H5 H 0.6242 0.8133 0.5286
C7 C 0.73231(15) 0.8383(4) 0.48269(16)
C8 C 0.78027(19) 0.9076(4) 0.5698(2)
H6 H 0.8369 0.9525 0.5709
H7 H 0.7491 1.0089 0.5868
C9 C 0.7866(2) 0.7388(5) 0.62684(17)
H8 H 0.8333 0.7540 0.6773
H9 H 0.7336 0.7204 0.6416
C10 C 0.80364(18) 0.5759(4) 0.57524(15)
H10 H 0.7849 0.4585 0.5939
H11 H 0.8643 0.5667 0.5797
C11 C 0.75216(14) 0.6182(3) 0.48520(14)
C12 C 0.79257(15) 0.5491(4) 0.42217(15)
C13 C 0.7595(2) 0.4878(5) 0.34399(17)
H12 H 0.7016 0.4689 0.3179
C14 C 0.8280(2) 0.4563(6) 0.3072(2)
C15 C 0.9096(2) 0.4988(7) 0.37476(19)
C16 C 0.9590(3) 0.6591(9) 0.3517(3)
H13 H 0.9217 0.7653 0.3349
H14 H 0.9809 0.6215 0.3065
H15 H 1.0058 0.6926 0.3988
C17 C 0.9624(3) 0.3213(9) 0.4000(3)
H16 H 1.0153 0.3519 0.4406
H17 H 0.9742 0.2669 0.3520
H18 H 0.9310 0.2332 0.4234
C18 C 0.65488(15) 0.5800(4) 0.46655(17)
H19 H 0.6292 0.5312 0.4111
H20 H 0.6404 0.5016 0.5080
C19 C 0.7508(2) 0.9486(5) 0.4126(2)
H21 H 0.7154 0.9028 0.3602
H22 H 0.8101 0.9339 0.4146
H23 H 0.7388 1.0790 0.4183
C20 C 0.4587(2) 1.3281(4) 0.31504(19)
H24 H 0.5011 1.3542 0.2866
H25 H 0.4667 1.4111 0.3617
H26 H 0.4026 1.3465 0.2776
O5 O 0.56938(14) 0.6519(3) 0.22312(12)
O6 O 0.59819(12) 0.9023(3) 0.05190(11)
O7 O 0.95052(13) 0.4963(2) 0.08914(13)
O8 O 1.0335(2) 0.2648(3) 0.1499(2)
C21 C 1.0229(2) 0.4324(4) 0.1438(2)
C22 C 1.08634(19) 0.5682(4) 0.18733(18)
H27 H 1.1304 0.5290 0.2328
C23 C 1.08316(17) 0.7462(4) 0.16397(16)
C24 C 1.00604(17) 0.8139(4) 0.09870(16)
H28 H 1.0170 0.8096 0.0448
H29 H 0.9942 0.9431 0.1100
C25 C 0.92951(16) 0.6933(3) 0.09721(15)
H30 H 0.9149 0.7102 0.1496
C26 C 0.85174(16) 0.7330(3) 0.02630(15)
H31 H 0.8674 0.7397 -0.0260
C27 C 0.79281(16) 0.9047(3) 0.03332(15)
C28 C 0.77974(18) 1.0412(4) -0.03863(18)
H32 H 0.8344 1.0818 -0.0451
H33 H 0.7482 1.1508 -0.0294
C29 C 0.7291(2) 0.9344(5) -0.11515(18)
H34 H 0.7661 0.8529 -0.1361
H35 H 0.6995 1.0197 -0.1590
C30 C 0.66569(18) 0.8203(5) -0.08247(16)
H36 H 0.6480 0.7085 -0.1160
H37 H 0.6152 0.8947 -0.0843
C31 C 0.71239(15) 0.7665(3) 0.00749(14)
C32 C 0.65637(15) 0.7630(3) 0.06392(14)
C33 C 0.65571(16) 0.6478(4) 0.12732(15)
H38 H 0.6908 0.5436 0.1442
C34 C 0.59163(17) 0.7132(4) 0.16422(15)
C35 C 0.55231(18) 0.8858(4) 0.11520(16)
C36 C 0.5691(3) 1.0607(5) 0.1672(2)
H39 H 0.6296 1.0742 0.1922
H40 H 0.5404 1.0522 0.2099
H41 H 0.5479 1.1677 0.1326
C37 C 0.4581(2) 0.8526(6) 0.0713(2)
H42 H 0.4356 0.9578 0.0361
H43 H 0.4270 0.8385 0.1120
H44 H 0.4520 0.7406 0.0383
C38 C 0.77475(17) 0.5993(4) 0.01681(18)
H45 H 0.7635 0.5207 -0.0324
H46 H 0.7786 0.5238 0.0659
C39 C 0.81072(18) 0.9996(4) 0.11772(18)
H47 H 0.7667 1.0902 0.1165
H48 H 0.8653 1.0616 0.1304
H49 H 0.8115 0.9070 0.1595
C40 C 1.1552(2) 0.8801(5) 0.1971(2)
H50 H 1.1771 0.9218 0.1526
H51 H 1.1999 0.8185 0.2387
H52 H 1.1348 0.9863 0.2214
loop_
_geom_bond_atom_site_label_1
_geom_bond_atom_site_label_2
_geom_bond_site_symmetry_1
_geom_bond_site_symmetry_2
O1 C1 1_555 1_555
O2 C1 1_555 1_555
O3 C12 1_555 1_555
O4 C14 1_555 1_555
C1 C2 1_555 1_555
C2 H1 1_555 1_555
C3 C2 1_555 1_555
C4 C3 1_555 1_555
H2 C4 1_555 1_555
H3 C4 1_555 1_555
C5 O2 1_555 1_555
H4 C5 1_555 1_555
C6 C5 1_555 1_555
H5 C6 1_555 1_555
C7 C6 1_555 1_555
C8 C7 1_555 1_555
H6 C8 1_555 1_555
H7 C8 1_555 1_555
C9 C8 1_555 1_555
H8 C9 1_555 1_555
H9 C9 1_555 1_555
C10 C9 1_555 1_555
H10 C10 1_555 1_555
H11 C10 1_555 1_555
C11 C7 1_555 1_555
C12 C11 1_555 1_555
C13 C12 1_555 1_555
H12 C13 1_555 1_555
C14 C13 1_555 1_555
C15 O3 1_555 1_555
C16 C15 1_555 1_555
H13 C16 1_555 1_555
H14 C16 1_555 1_555
H15 C16 1_555 1_555
C17 C15 1_555 1_555
H16 C17 1_555 1_555
H17 C17 1_555 1_555
H18 C17 1_555 1_555
C18 C6 1_555 1_555
H19 C18 1_555 1_555
H20 C18 1_555 1_555
C19 C7 1_555 1_555
H21 C19 1_555 1_555
H22 C19 1_555 1_555
H23 C19 1_555 1_555
C20 C3 1_555 1_555
H24 C20 1_555 1_555
H25 C20 1_555 1_555
H26 C20 1_555 1_555
O5 C34 1_555 1_555
O6 C32 1_555 1_555
O7 C21 1_555 1_555
O8 C21 1_555 1_555
C21 C22 1_555 1_555
C22 H27 1_555 1_555
C23 C22 1_555 1_555
C24 C23 1_555 1_555
H28 C24 1_555 1_555
H29 C24 1_555 1_555
C25 O7 1_555 1_555
H30 C25 1_555 1_555
C26 C25 1_555 1_555
H31 C26 1_555 1_555
C27 C26 1_555 1_555
C28 C27 1_555 1_555
H32 C28 1_555 1_555
H33 C28 1_555 1_555
C29 C28 1_555 1_555
H34 C29 1_555 1_555
H35 C29 1_555 1_555
C30 C29 1_555 1_555
H36 C30 1_555 1_555
H37 C30 1_555 1_555
C31 C27 1_555 1_555
C32 C31 1_555 1_555
C33 C32 1_555 1_555
H38 C33 1_555 1_555
C34 C33 1_555 1_555
C35 O6 1_555 1_555
C36 C35 1_555 1_555
H39 C36 1_555 1_555
H40 C36 1_555 1_555
H41 C36 1_555 1_555
C37 C35 1_555 1_555
H42 C37 1_555 1_555
H43 C37 1_555 1_555
H44 C37 1_555 1_555
C38 C26 1_555 1_555
H45 C38 1_555 1_555
H46 C38 1_555 1_555
C39 C27 1_555 1_555
H47 C39 1_555 1_555
H48 C39 1_555 1_555
H49 C39 1_555 1_555
C40 C23 1_555 1_555
H50 C40 1_555 1_555
H51 C40 1_555 1_555
H52 C40 1_555 1_555
C4 C5 1_555 1_555
C10 C11 1_555 1_555
C11 C18 1_555 1_555
C14 C15 1_555 1_555
C24 C25 1_555 1_555
C30 C31 1_555 1_555
C31 C38 1_555 1_555
C34 C35 1_555 1_555

#END
