
#######################################################################
#
#                 Cambridge Crystallographic Data Centre
#                                CCDC 
#
#######################################################################
#
# If this CIF has been generated from an entry in the Cambridge 
# Structural Database, then it will include bibliographic, chemical, 
# crystal, experimental, refinement or atomic coordinate data resulting 
# from the CCDC's data processing and validation procedures.
#
#######################################################################

data_WEDDEQ
_chemical_formula_moiety         'C28 H20 O2'
_chemical_name_systematic        
7-(4-Methoxyphenyl)-12H-indeno[1,2-b]phenanthren-12-ol
_symmetry_cell_setting           orthorhombic
_symmetry_space_group_name_H-M   'P b c a'
_symmetry_Int_Tables_number      61
_space_group_name_Hall           '-P 2ac 2ab'
loop_
_symmetry_equiv_pos_site_id
_symmetry_equiv_pos_as_xyz
1 x,y,z
2 1/2-x,-y,1/2+z
3 -x,1/2+y,1/2-z
4 1/2+x,1/2-y,-z
5 -x,-y,-z
6 1/2+x,y,1/2-z
7 x,1/2-y,1/2+z
8 1/2-x,1/2+y,z
_cell_length_a                   5.3660(3)
_cell_length_b                   24.1093(15)
_cell_length_c                   33.171(2)
_cell_angle_alpha                90
_cell_angle_beta                 90
_cell_angle_gamma                90
_cell_volume                     4291.35
_cell_formula_units_Z            8
loop_
_atom_site_label
_atom_site_type_symbol
_atom_site_fract_x
_atom_site_fract_y
_atom_site_fract_z
C1 C 0.1133(3) 0.20866(7) 0.19165(5)
C2 C -0.0349(4) 0.24481(9) 0.21298(6)
H1 H -0.1552 0.2316 0.2307
C3 C -0.0018(5) 0.30113(9) 0.20750(7)
H2 H -0.1011 0.3260 0.2217
C4 C 0.1760(4) 0.32101(8) 0.18135(7)
H3 H 0.1984 0.3591 0.1786
C5 C 0.3226(4) 0.28478(8) 0.15896(5)
H4 H 0.4415 0.2982 0.1411
C6 C 0.2879(3) 0.22824(7) 0.16383(5)
C7 C 0.4119(3) 0.18003(6) 0.14514(5)
C8 C 0.5765(3) 0.17613(6) 0.11309(5)
C9 C 0.6829(3) 0.12373(7) 0.10448(5)
C10 C 0.8699(4) 0.11827(8) 0.07391(6)
H5 H 0.9131 0.1491 0.0586
C11 C 0.9838(4) 0.06993(8) 0.06680(6)
H6 H 1.1044 0.0681 0.0467
C12 C 0.9259(4) 0.02124(8) 0.08908(6)
C13 C 1.0558(4) -0.02862(8) 0.08271(8)
H7 H 1.1826 -0.0297 0.0636
C14 C 1.0000(5) -0.07545(9) 0.10392(8)
H8 H 1.0872 -0.1082 0.0992
C15 C 0.8121(5) -0.07382(8) 0.13252(8)
H9 H 0.7722 -0.1057 0.1469
C16 C 0.6850(4) -0.02573(8) 0.13970(7)
H10 H 0.5600 -0.0255 0.1591
C17 C 0.7374(3) 0.02346(7) 0.11860(5)
C18 C 0.6146(3) 0.07574(7) 0.12672(5)
C19 C 0.4251(3) 0.08112(7) 0.15632(5)
H11 H 0.3670 0.0499 0.1698
C20 C 0.3282(3) 0.13173(7) 0.16500(5)
C21 C 0.1205(3) 0.14613(7) 0.19404(5)
H12 H -0.0373 0.1308 0.1842
C22 C 0.6301(3) 0.22527(7) 0.08714(5)
C23 C 0.8301(4) 0.26003(8) 0.09416(6)
H13 H 0.9368 0.2523 0.1155
C24 C 0.8764(4) 0.30594(8) 0.07040(6)
H14 H 1.0116 0.3288 0.0760
C25 C 0.7221(3) 0.31754(7) 0.03862(5)
C26 C 0.5246(3) 0.28318(7) 0.03059(5)
H15 H 0.4202 0.2907 0.0089
C27 C 0.4803(3) 0.23743(7) 0.05462(5)
H16 H 0.3463 0.2143 0.0487
C28 C 0.9558(5) 0.39818(9) 0.02026(8)
H17 H 0.9351 0.4159 0.0460
H18 H 0.9627 0.4258 -0.0005
H19 H 1.1078 0.3772 0.0203
O1 O 0.1719(2) 0.12516(5) 0.23353(3)
H20 H 0.0441 0.1258 0.2471
O2 O 0.7510(3) 0.36204(5) 0.01303(4)
loop_
_geom_bond_atom_site_label_1
_geom_bond_atom_site_label_2
_geom_bond_site_symmetry_1
_geom_bond_site_symmetry_2
C1 C2 1_555 1_555
C2 H1 1_555 1_555
C3 C2 1_555 1_555
H2 C3 1_555 1_555
C4 C3 1_555 1_555
H3 C4 1_555 1_555
C5 C4 1_555 1_555
H4 C5 1_555 1_555
C6 C1 1_555 1_555
C7 C6 1_555 1_555
C8 C7 1_555 1_555
C9 C8 1_555 1_555
C10 C9 1_555 1_555
H5 C10 1_555 1_555
C11 C10 1_555 1_555
H6 C11 1_555 1_555
C12 C11 1_555 1_555
C13 C12 1_555 1_555
H7 C13 1_555 1_555
C14 C13 1_555 1_555
H8 C14 1_555 1_555
C15 C14 1_555 1_555
H9 C15 1_555 1_555
C16 C15 1_555 1_555
H10 C16 1_555 1_555
C17 C12 1_555 1_555
C18 C9 1_555 1_555
C19 C18 1_555 1_555
H11 C19 1_555 1_555
C20 C7 1_555 1_555
C21 C1 1_555 1_555
H12 C21 1_555 1_555
C22 C8 1_555 1_555
C23 C22 1_555 1_555
H13 C23 1_555 1_555
C24 C23 1_555 1_555
H14 C24 1_555 1_555
C25 C24 1_555 1_555
C26 C25 1_555 1_555
H15 C26 1_555 1_555
C27 C22 1_555 1_555
H16 C27 1_555 1_555
C28 H17 1_555 1_555
H18 C28 1_555 1_555
H19 C28 1_555 1_555
O1 C21 1_555 1_555
H20 O1 1_555 1_555
O2 C25 1_555 1_555
C5 C6 1_555 1_555
C16 C17 1_555 1_555
C17 C18 1_555 1_555
C19 C20 1_555 1_555
C20 C21 1_555 1_555
C26 C27 1_555 1_555
C28 O2 1_555 1_555

#END
