
#######################################################################
#
#                 Cambridge Crystallographic Data Centre
#                                CCDC 
#
#######################################################################
#
# If this CIF has been generated from an entry in the Cambridge 
# Structural Database, then it will include bibliographic, chemical, 
# crystal, experimental, refinement or atomic coordinate data resulting 
# from the CCDC's data processing and validation procedures.
#
#######################################################################

data_WEDDAM
_chemical_formula_moiety         'C24 H17 Cl1 O1'
_chemical_name_systematic        
8-Chloro-5-(4-methylphenyl)-11H-benzo[b]fluoren-11-ol
_symmetry_cell_setting           triclinic
_symmetry_space_group_name_H-M   'P -1'
_symmetry_Int_Tables_number      2
_space_group_name_Hall           '-P 1'
loop_
_symmetry_equiv_pos_site_id
_symmetry_equiv_pos_as_xyz
1 x,y,z
2 -x,-y,-z
_cell_length_a                   9.7354(11)
_cell_length_b                   9.9868(11)
_cell_length_c                   11.4709(13)
_cell_angle_alpha                70.7550(10)
_cell_angle_beta                 66.1040(10)
_cell_angle_gamma                63.4670(10)
_cell_volume                     897.081
_cell_formula_units_Z            2
loop_
_atom_site_label
_atom_site_type_symbol
_atom_site_fract_x
_atom_site_fract_y
_atom_site_fract_z
C1 C 0.3468(2) 1.1626(2) 0.6824(2)
C2 C 0.1839(2) 1.2322(2) 0.7402(2)
H1 H 0.1245 1.3238 0.6984
C3 C 0.1105(3) 1.1643(3) 0.8603(3)
H2 H 0.0007 1.2103 0.8999
C4 C 0.1984(3) 1.0284(3) 0.9227(2)
H3 H 0.1471 0.9846 1.0044
C5 C 0.3618(2) 0.9559(2) 0.86588(19)
H4 H 0.4199 0.8641 0.9084
C6 C 0.4370(2) 1.0230(2) 0.74436(17)
C7 C 0.6043(2) 0.97281(18) 0.65655(16)
C8 C 0.6123(2) 1.08524(19) 0.54078(17)
C9 C 0.4509(3) 1.2158(2) 0.5526(2)
C10 C 0.7492(2) 1.06934(19) 0.43994(16)
H5 H 0.7516 1.1444 0.3658
C11 C 0.8894(2) 0.93791(18) 0.44730(15)
C12 C 1.0339(2) 0.9171(2) 0.34365(16)
H6 H 1.0393 0.9912 0.2690
C13 C 1.1657(2) 0.7889(2) 0.35242(17)
C14 C 1.1629(2) 0.6746(2) 0.46330(19)
H7 H 1.2538 0.5870 0.4670
C15 C 1.0248(2) 0.69376(19) 0.56576(18)
H8 H 1.0235 0.6188 0.6400
C16 C 0.8834(2) 0.82436(17) 0.56222(15)
C17 C 0.7376(2) 0.84441(17) 0.66908(15)
C18 C 0.73477(19) 0.72834(17) 0.79123(15)
C19 C 0.7119(2) 0.5959(2) 0.80579(17)
H9 H 0.6985 0.5770 0.7377
C20 C 0.7088(2) 0.4913(2) 0.92085(18)
H10 H 0.6919 0.4036 0.9290
C21 C 0.7302(2) 0.5138(2) 1.02293(17)
C22 C 0.7510(3) 0.6469(3) 1.00877(19)
H11 H 0.7636 0.6659 1.0772
C23 C 0.7534(3) 0.7526(2) 0.89476(18)
H12 H 0.7678 0.8412 0.8877
C24 C 0.7300(3) 0.3980(3) 1.1474(2)
H13 H 0.6933 0.3235 1.1469
H14 H 0.6593 0.4483 1.2200
H15 H 0.8373 0.3486 1.1543
Cl1 Cl 1.34511(6) 0.76425(7) 0.22465(5)
O1 O 0.4520(3) 1.3552(2) 0.5292(3)
H16 H 0.4898 1.3598 0.5793
H17 H 0.398(4) 1.237(4) 0.460(3)
O2? O 0.4034(7) 1.2946(7) 0.4573(5)
loop_
_geom_bond_atom_site_label_1
_geom_bond_atom_site_label_2
_geom_bond_site_symmetry_1
_geom_bond_site_symmetry_2
C1 C2 1_555 1_555
C2 H1 1_555 1_555
C3 C2 1_555 1_555
H2 C3 1_555 1_555
C4 C3 1_555 1_555
H3 C4 1_555 1_555
C5 C4 1_555 1_555
H4 C5 1_555 1_555
C6 C1 1_555 1_555
C7 C6 1_555 1_555
C8 C7 1_555 1_555
C9 C1 1_555 1_555
C10 C8 1_555 1_555
H5 C10 1_555 1_555
C11 C10 1_555 1_555
C12 C11 1_555 1_555
H6 C12 1_555 1_555
C13 C12 1_555 1_555
C14 C13 1_555 1_555
H7 C14 1_555 1_555
C15 C14 1_555 1_555
H8 C15 1_555 1_555
C16 C11 1_555 1_555
C17 C7 1_555 1_555
C18 C17 1_555 1_555
C19 C18 1_555 1_555
H9 C19 1_555 1_555
C20 C19 1_555 1_555
H10 C20 1_555 1_555
C21 C20 1_555 1_555
C22 C21 1_555 1_555
H11 C22 1_555 1_555
C23 C18 1_555 1_555
H12 C23 1_555 1_555
C24 C21 1_555 1_555
H13 C24 1_555 1_555
H14 C24 1_555 1_555
H15 C24 1_555 1_555
Cl1 C13 1_555 1_555
O1 C9 1_555 1_555
H16 O1 1_555 1_555
H17 C9 1_555 1_555
C5 C6 1_555 1_555
C8 C9 1_555 1_555
C15 C16 1_555 1_555
C16 C17 1_555 1_555
C22 C23 1_555 1_555

#END
