
#######################################################################
#
#                 Cambridge Crystallographic Data Centre
#                                CCDC 
#
#######################################################################
#
# If this CIF has been generated from an entry in the Cambridge 
# Structural Database, then it will include bibliographic, chemical, 
# crystal, experimental, refinement or atomic coordinate data resulting 
# from the CCDC's data processing and validation procedures.
#
#######################################################################

data_WEDFES
_chemical_formula_moiety         'C13 H11 Br1 N2 O4'
_chemical_name_systematic        
5-Bromo-7-(2-nitrophenyl)-6,7-dioxoheptanenitrile
_symmetry_cell_setting           triclinic
_symmetry_space_group_name_H-M   'P -1'
_symmetry_Int_Tables_number      2
_space_group_name_Hall           '-P 1'
loop_
_symmetry_equiv_pos_site_id
_symmetry_equiv_pos_as_xyz
1 x,y,z
2 -x,-y,-z
_cell_length_a                   7.2450(3)
_cell_length_b                   7.9610(3)
_cell_length_c                   12.1234(6)
_cell_angle_alpha                101.287(2)
_cell_angle_beta                 95.781(2)
_cell_angle_gamma                90.823(2)
_cell_volume                     681.819
_exptl_crystal_colour            yellow
_exptl_crystal_description       prism
_cell_formula_units_Z            2
loop_
_atom_site_label
_atom_site_type_symbol
_atom_site_fract_x
_atom_site_fract_y
_atom_site_fract_z
C1 C 0.2020(7) -0.1852(6) 0.1254(4)
C2 C 0.0912(8) -0.2810(6) 0.0356(5)
H1 H 0.1377 -0.3746 -0.0106
C3 C -0.0906(8) -0.2356(7) 0.0156(5)
H2 H -0.1672 -0.2996 -0.0446
C4 C -0.1588(7) -0.0989(8) 0.0826(5)
H3 H -0.2814 -0.0695 0.0683
C5 C -0.0463(7) -0.0038(6) 0.1716(5)
H4 H -0.0945 0.0894 0.2173
C6 C 0.1370(6) -0.0434(6) 0.1950(4)
C7 C 0.2531(6) 0.0737(6) 0.2880(4)
C8 C 0.4221(6) 0.1662(6) 0.2554(4)
C9 C 0.5275(6) 0.2986(6) 0.3466(4)
H5 H 0.4390 0.3669 0.3909
C10 C 0.6502(7) 0.4171(6) 0.2996(4)
H6 H 0.5755 0.4654 0.2432
H7 H 0.7449 0.3504 0.2618
C11 C 0.7443(7) 0.5626(6) 0.3881(5)
H8 H 0.6506 0.6385 0.4191
H9 H 0.8068 0.5158 0.4494
C12 C 0.8839(7) 0.6649(7) 0.3409(5)
H10 H 0.8215 0.7124 0.2800
H11 H 0.9348 0.7596 0.3997
C13 C 1.0346(7) 0.5603(7) 0.2986(5)
N1 N 1.1495(7) 0.4745(7) 0.2665(5)
N2 N 0.3888(6) -0.2426(5) 0.1532(4)
O1 O 0.4660(6) -0.1856(5) 0.2469(4)
O2 O 0.4559(7) -0.3465(6) 0.0822(5)
O3 O 0.2050(5) 0.1133(5) 0.3819(3)
O4 O 0.4588(5) 0.1353(4) 0.1594(3)
Br1 Br 0.67056(8) 0.16533(7) 0.44281(5)
loop_
_geom_bond_atom_site_label_1
_geom_bond_atom_site_label_2
_geom_bond_site_symmetry_1
_geom_bond_site_symmetry_2
C1 C2 1_555 1_555
C2 H1 1_555 1_555
C3 C2 1_555 1_555
H2 C3 1_555 1_555
C4 C3 1_555 1_555
H3 C4 1_555 1_555
C5 C4 1_555 1_555
H4 C5 1_555 1_555
C6 C1 1_555 1_555
C7 C6 1_555 1_555
C8 C7 1_555 1_555
C9 C8 1_555 1_555
H5 C9 1_555 1_555
C10 C9 1_555 1_555
H6 C10 1_555 1_555
H7 C10 1_555 1_555
C11 C10 1_555 1_555
H8 C11 1_555 1_555
H9 C11 1_555 1_555
C12 C11 1_555 1_555
H10 C12 1_555 1_555
H11 C12 1_555 1_555
C13 C12 1_555 1_555
N1 C13 1_555 1_555
N2 C1 1_555 1_555
O1 N2 1_555 1_555
O2 N2 1_555 1_555
O3 C7 1_555 1_555
O4 C8 1_555 1_555
Br1 C9 1_555 1_555
C5 C6 1_555 1_555

#END
