
#######################################################################
#
#                 Cambridge Crystallographic Data Centre
#                                CCDC 
#
#######################################################################
#
# If this CIF has been generated from an entry in the Cambridge 
# Structural Database, then it will include bibliographic, chemical, 
# crystal, experimental, refinement or atomic coordinate data resulting 
# from the CCDC's data processing and validation procedures.
#
#######################################################################

data_WEDFUJ
_chemical_formula_moiety         'C20 H19 N1 O3 S1'
_chemical_name_systematic        
'(3-cyclopropylisoquinolin-1-yl)methyl 4-methylbenzenesulfonate'
_symmetry_cell_setting           triclinic
_symmetry_space_group_name_H-M   'P -1'
_symmetry_Int_Tables_number      2
_space_group_name_Hall           '-P 1'
loop_
_symmetry_equiv_pos_site_id
_symmetry_equiv_pos_as_xyz
1 x,y,z
2 -x,-y,-z
_cell_length_a                   8.4931(15)
_cell_length_b                   9.6843(18)
_cell_length_c                   12.261(2)
_cell_angle_alpha                69.554(5)
_cell_angle_beta                 86.337(5)
_cell_angle_gamma                68.475(5)
_cell_volume                     876.637
_exptl_crystal_colour            colorless
_exptl_crystal_description       block
_cell_formula_units_Z            2
loop_
_atom_site_label
_atom_site_type_symbol
_atom_site_fract_x
_atom_site_fract_y
_atom_site_fract_z
C1 C 0.4662(2) 0.95191(19) 0.66073(14)
H1 H 0.5577 0.8608 0.7006
C2 C 0.4672(2) 1.1008(2) 0.64401(16)
H2 H 0.5599 1.1089 0.6741
C3 C 0.3334(2) 1.23718(19) 0.58370(14)
C4 C 0.3324(3) 1.3982(2) 0.5703(2)
H3 H 0.2483 1.4437 0.6168
H4 H 0.3061 1.4658 0.4898
H5 H 0.4421 1.3877 0.5958
C5 C 0.1986(2) 1.22274(18) 0.53768(15)
H6 H 0.1096 1.3137 0.4945
C6 C 0.1930(2) 1.07598(18) 0.55441(14)
H7 H 0.1006 1.0679 0.5240
C7 C 0.32685(18) 0.94166(16) 0.61696(11)
C8 C 0.3371(2) 0.6823(2) 0.87247(13)
H8 H 0.3384 0.7776 0.8813
H9 H 0.4527 0.6166 0.8662
C9 C 0.26410(18) 0.59369(18) 0.97607(12)
C10 C 0.26569(18) 0.44060(18) 0.99052(13)
C11 C 0.3400(2) 0.3582(2) 0.91403(15)
H10 H 0.3914 0.4040 0.8495
C12 C 0.3365(2) 0.2114(2) 0.93466(18)
H11 H 0.3862 0.1573 0.8843
C13 C 0.2586(3) 0.1416(2) 1.03138(19)
H12 H 0.2568 0.0418 1.0439
C14 C 0.1860(2) 0.2169(2) 1.10682(16)
H13 H 0.1340 0.1691 1.1700
C15 C 0.18912(19) 0.36906(18) 1.08962(13)
C16 C 0.1225(2) 0.4508(2) 1.16654(13)
H14 H 0.0707 0.4067 1.2314
C17 C 0.1331(2) 0.5954(2) 1.14703(13)
C18 C 0.0706(2) 0.6828(2) 1.22792(15)
H15 H 0.0106 0.6357 1.2925
C19 C 0.0098(3) 0.8598(2) 1.18408(18)
H16 H 0.0145 0.9138 1.1015
H17 H -0.0861 0.9158 1.2195
C20 C 0.1720(3) 0.7660(3) 1.25588(18)
H18 H 0.1753 0.7646 1.3352
H19 H 0.2759 0.7625 1.2172
N1 N 0.20346(16) 0.66691(15) 1.05044(11)
O1 O 0.19283(18) 0.76733(14) 0.56693(11)
O2 O 0.48090(16) 0.63870(13) 0.66344(10)
O3 O 0.23103(13) 0.72382(12) 0.76783(9)
S1 S 0.31514(5) 0.75533(4) 0.64694(3)
loop_
_geom_bond_atom_site_label_1
_geom_bond_atom_site_label_2
_geom_bond_site_symmetry_1
_geom_bond_site_symmetry_2
C1 H1 1_555 1_555
C2 C1 1_555 1_555
H2 C2 1_555 1_555
C3 C2 1_555 1_555
C4 C3 1_555 1_555
H3 C4 1_555 1_555
H4 C4 1_555 1_555
H5 C4 1_555 1_555
C5 C3 1_555 1_555
H6 C5 1_555 1_555
C6 C5 1_555 1_555
H7 C6 1_555 1_555
C7 C1 1_555 1_555
C8 H8 1_555 1_555
H9 C8 1_555 1_555
C9 C8 1_555 1_555
C10 C9 1_555 1_555
C11 C10 1_555 1_555
H10 C11 1_555 1_555
C12 C11 1_555 1_555
H11 C12 1_555 1_555
C13 C12 1_555 1_555
H12 C13 1_555 1_555
C14 C13 1_555 1_555
H13 C14 1_555 1_555
C15 C10 1_555 1_555
C16 C15 1_555 1_555
H14 C16 1_555 1_555
C17 C16 1_555 1_555
C18 C17 1_555 1_555
H15 C18 1_555 1_555
C19 C18 1_555 1_555
H16 C19 1_555 1_555
H17 C19 1_555 1_555
C20 C18 1_555 1_555
H18 C20 1_555 1_555
H19 C20 1_555 1_555
N1 C9 1_555 1_555
O1 S1 1_555 1_555
O2 S1 1_555 1_555
O3 C8 1_555 1_555
S1 C7 1_555 1_555
C6 C7 1_555 1_555
C14 C15 1_555 1_555
C17 N1 1_555 1_555
C19 C20 1_555 1_555
O3 S1 1_555 1_555

#END
