
#######################################################################
#
#                 Cambridge Crystallographic Data Centre
#                                CCDC 
#
#######################################################################
#
# If this CIF has been generated from an entry in the Cambridge 
# Structural Database, then it will include bibliographic, chemical, 
# crystal, experimental, refinement or atomic coordinate data resulting 
# from the CCDC's data processing and validation procedures.
#
#######################################################################

data_WEDGOE
_chemical_formula_moiety         'C29 H23 Cl1 N2 O2 S1'
_chemical_name_systematic        
N-benzyl-N-(7-chloro-2,3-diphenylquinolin-4-yl)methanesulfonamide
_symmetry_cell_setting           triclinic
_symmetry_space_group_name_H-M   'P -1'
_symmetry_Int_Tables_number      2
_space_group_name_Hall           '-P 1'
loop_
_symmetry_equiv_pos_site_id
_symmetry_equiv_pos_as_xyz
1 x,y,z
2 -x,-y,-z
_cell_length_a                   8.6682(3)
_cell_length_b                   9.7662(3)
_cell_length_c                   15.0145(5)
_cell_angle_alpha                86.512(2)
_cell_angle_beta                 84.571(2)
_cell_angle_gamma                76.519(2)
_cell_volume                     1229.5
_exptl_crystal_colour            colorless
_exptl_crystal_description       BLOCK
_cell_formula_units_Z            2
loop_
_atom_site_label
_atom_site_type_symbol
_atom_site_fract_x
_atom_site_fract_y
_atom_site_fract_z
S1 S 0.25813(6) 0.55612(5) 0.24060(4)
Cl1 Cl -0.12091(7) -0.02255(6) 0.40376(4)
N1 N 0.3998(2) 0.00537(18) 0.22812(13)
O1 O 0.19807(18) 0.49288(16) 0.17218(11)
C1 C 0.3781(2) 0.2833(2) 0.27425(14)
C2 C 0.1530(2) 0.0009(2) 0.31140(15)
H1 H 0.1614 -0.0925 0.2939
C3 C 0.2564(2) 0.2136(2) 0.30757(14)
C4 C 0.0264(2) 0.0663(2) 0.36581(15)
C5 C 0.0088(2) 0.2040(2) 0.39299(15)
H2 H -0.0806 0.2461 0.4317
N2 N 0.3622(2) 0.42637(18) 0.29853(12)
O2 O 0.1499(2) 0.64721(16) 0.30090(12)
C6 C 0.1209(2) 0.2769(2) 0.36355(15)
H3 H 0.1082 0.3712 0.3807
C7 C 0.3947(3) 0.6531(2) 0.19161(17)
H4 H 0.4359 0.6965 0.2386
H5 H 0.4831 0.5898 0.1585
H6 H 0.3410 0.7268 0.1505
C8 C 0.5061(2) 0.2152(2) 0.21966(14)
C9 C 0.2721(2) 0.0743(2) 0.28118(14)
C10 C 0.5130(2) 0.0718(2) 0.19949(15)
C11 C 0.6238(2) 0.2938(2) 0.17616(14)
C12 C 0.6156(3) 0.3396(2) 0.08733(15)
H7 H 0.5390 0.3162 0.0533
C13 C 0.3997(2) 0.3826(2) 0.46253(15)
C14 C 0.6489(3) -0.0120(2) 0.14272(16)
C15 C 0.7183(3) 0.4195(2) 0.04756(16)
H8 H 0.7109 0.4517 -0.0132
C16 C 0.4385(3) 0.4585(3) 0.37635(16)
H9 H 0.4058 0.5612 0.3851
H10 H 0.5553 0.4343 0.3623
C17 C 0.5004(3) 0.2590(3) 0.48890(18)
H11 H 0.5922 0.2197 0.4511
C18 C 0.8310(3) 0.4522(2) 0.09602(17)
H12 H 0.9002 0.5080 0.0689
C19 C 0.2651(3) 0.4362(3) 0.51849(16)
H13 H 0.1935 0.5209 0.5012
C20 C 0.8061(3) -0.0132(3) 0.15558(19)
H14 H 0.8293 0.0405 0.2012
C21 C 0.7405(3) 0.3251(3) 0.22337(17)
H15 H 0.7497 0.2918 0.2838
C22 C 0.8434(3) 0.4040(3) 0.18388(18)
H16 H 0.9224 0.4249 0.2171
C23 C 0.6184(3) -0.0935(2) 0.07717(18)
H17 H 0.5118 -0.0971 0.0699
C24 C 0.2341(4) 0.3679(4) 0.59877(19)
H18 H 0.1410 0.4052 0.6362
C25 C 0.3368(5) 0.2468(4) 0.6246(2)
H19 H 0.3163 0.2009 0.6807
C26 C 0.9288(3) -0.0930(3) 0.1015(2)
H20 H 1.0362 -0.0955 0.1111
C27 C 0.4692(4) 0.1913(3) 0.5700(2)
H21 H 0.5399 0.1063 0.5878
C28 C 0.7412(4) -0.1697(3) 0.0221(2)
H22 H 0.7185 -0.2228 -0.0239
C29 C 0.8963(4) -0.1685(3) 0.0340(2)
H23 H 0.9808 -0.2197 -0.0044
loop_
_geom_bond_atom_site_label_1
_geom_bond_atom_site_label_2
_geom_bond_site_symmetry_1
_geom_bond_site_symmetry_2
S1 O1 1_555 1_555
Cl1 C4 1_555 1_555
N1 C9 1_555 1_555
C1 C3 1_555 1_555
C2 H1 1_555 1_555
C3 C6 1_555 1_555
C4 C2 1_555 1_555
C5 C4 1_555 1_555
H2 C5 1_555 1_555
N2 S1 1_555 1_555
O2 S1 1_555 1_555
C6 C5 1_555 1_555
H3 C6 1_555 1_555
C7 S1 1_555 1_555
H4 C7 1_555 1_555
H5 C7 1_555 1_555
H6 C7 1_555 1_555
C8 C1 1_555 1_555
C9 C2 1_555 1_555
C10 N1 1_555 1_555
C11 C8 1_555 1_555
C12 C11 1_555 1_555
H7 C12 1_555 1_555
C13 C16 1_555 1_555
C14 C10 1_555 1_555
C15 C12 1_555 1_555
H8 C15 1_555 1_555
C16 N2 1_555 1_555
H9 C16 1_555 1_555
H10 C16 1_555 1_555
C17 C13 1_555 1_555
H11 C17 1_555 1_555
C18 C15 1_555 1_555
H12 C18 1_555 1_555
C19 C13 1_555 1_555
H13 C19 1_555 1_555
C20 C14 1_555 1_555
H14 C20 1_555 1_555
C21 C11 1_555 1_555
H15 C21 1_555 1_555
C22 C18 1_555 1_555
H16 C22 1_555 1_555
C23 C14 1_555 1_555
H17 C23 1_555 1_555
C24 C19 1_555 1_555
H18 C24 1_555 1_555
C25 C24 1_555 1_555
H19 C25 1_555 1_555
C26 C20 1_555 1_555
H20 C26 1_555 1_555
C27 C17 1_555 1_555
H21 C27 1_555 1_555
C28 C23 1_555 1_555
H22 C28 1_555 1_555
C29 C26 1_555 1_555
H23 C29 1_555 1_555
C1 N2 1_555 1_555
C3 C9 1_555 1_555
C8 C10 1_555 1_555
C21 C22 1_555 1_555
C25 C27 1_555 1_555
C28 C29 1_555 1_555

#END
