
#######################################################################
#
#                 Cambridge Crystallographic Data Centre
#                                CCDC 
#
#######################################################################
#
# If this CIF has been generated from an entry in the Cambridge 
# Structural Database, then it will include bibliographic, chemical, 
# crystal, experimental, refinement or atomic coordinate data resulting 
# from the CCDC's data processing and validation procedures.
#
#######################################################################

data_WEDHAR
_chemical_formula_moiety         'C20 H17 Br1 N2 O3'
_chemical_name_systematic        
't-butyl 6-bromo-3-cyano-2-oxo-3-phenyl-2,3-dihydro-1H-indole-1-carboxylate'
_symmetry_cell_setting           monoclinic
_symmetry_space_group_name_H-M   'P 21'
_symmetry_Int_Tables_number      4
_space_group_name_Hall           'P 2yb'
loop_
_symmetry_equiv_pos_site_id
_symmetry_equiv_pos_as_xyz
1 x,y,z
2 -x,1/2+y,-z
_cell_length_a                   6.3659(7)
_cell_length_b                   14.6244(17)
_cell_length_c                   10.2478(12)
_cell_angle_alpha                90
_cell_angle_beta                 97.967(4)
_cell_angle_gamma                90
_cell_volume                     944.836
_cell_formula_units_Z            2
loop_
_atom_site_label
_atom_site_type_symbol
_atom_site_fract_x
_atom_site_fract_y
_atom_site_fract_z
Br1 Br 0.82631(5) 0.69702(2) 0.45906(3)
C1 C 0.6567(4) 0.7694(2) 0.5573(3)
C2 C 0.1002(4) 0.95875(19) 0.6355(3)
C3 C 0.6025(5) 0.83397(19) 0.7636(3)
H1 H 0.6436 0.8418 0.8536
C4 C 0.3626(4) 1.03008(19) 0.8111(3)
O1 O -0.0950(3) 0.97275(16) 0.3847(2)
C5 C 0.7208(5) 0.78015(19) 0.6904(3)
H2 H 0.8431 0.7513 0.7307
C6 C 0.0769(5) 0.9240(2) 0.3926(3)
O2 O -0.0524(3) 1.00452(17) 0.6374(2)
C7 C 0.4221(4) 0.87584(17) 0.7008(3)
C8 C 0.2713(4) 0.93877(19) 0.7578(3)
N1 N 0.1691(3) 0.91469(17) 0.5263(2)
C9 C 0.5143(6) 1.1976(3) 0.9053(4)
H3 H 0.5674 1.2534 0.9386
C10 C -0.0580(8) 1.0567(3) 0.1815(4)
H4 H 0.0537 1.0168 0.1624
H5 H 0.0016 1.1067 0.2349
H6 H -0.1332 1.0799 0.1005
N2 N 0.0892(5) 0.8524(2) 0.9348(3)
C11 C 0.5526(5) 1.0618(2) 0.7807(4)
H7 H 0.6305 1.0267 0.7289
C12 C 0.3586(4) 0.86382(17) 0.5665(2)
C13 C -0.3770(8) 1.0641(4) 0.2983(4)
H8 H -0.3119 1.1173 0.3415
H9 H -0.4518 1.0311 0.3585
H10 H -0.4746 1.0825 0.2230
C14 C 0.3249(7) 1.1676(3) 0.9341(4)
H11 H 0.2466 1.2037 0.9844
C15 C -0.3016(7) 0.9230(3) 0.1780(4)
H12 H -0.3776 0.8858 0.2329
H13 H -0.1895 0.8877 0.1491
H14 H -0.3969 0.9434 0.1027
C16 C -0.2094(5) 1.0041(2) 0.2547(3)
C17 C 0.2473(6) 1.0833(2) 0.8889(3)
H15 H 0.1185 1.0623 0.9103
C18 C 0.4743(5) 0.8097(2) 0.4908(3)
H16 H 0.4325 0.8009 0.4011
C19 C 0.1661(4) 0.8907(2) 0.8578(3)
C20 C 0.6287(6) 1.1467(3) 0.8274(5)
H17 H 0.7566 1.1687 0.8060
O3 O 0.1550(4) 0.8881(2) 0.3057(2)
loop_
_geom_bond_atom_site_label_1
_geom_bond_atom_site_label_2
_geom_bond_site_symmetry_1
_geom_bond_site_symmetry_2
Br1 C1 1_555 1_555
C1 C5 1_555 1_555
C2 O2 1_555 1_555
C3 H1 1_555 1_555
C4 C8 1_555 1_555
O1 C6 1_555 1_555
C5 C3 1_555 1_555
H2 C5 1_555 1_555
C6 N1 1_555 1_555
C7 C3 1_555 1_555
C8 C2 1_555 1_555
N1 C2 1_555 1_555
C9 H3 1_555 1_555
C10 H4 1_555 1_555
H5 C10 1_555 1_555
H6 C10 1_555 1_555
N2 C19 1_555 1_555
C11 C4 1_555 1_555
H7 C11 1_555 1_555
C12 C7 1_555 1_555
C13 H8 1_555 1_555
H9 C13 1_555 1_555
H10 C13 1_555 1_555
C14 C9 1_555 1_555
H11 C14 1_555 1_555
C15 H12 1_555 1_555
H13 C15 1_555 1_555
H14 C15 1_555 1_555
C16 O1 1_555 1_555
C17 C4 1_555 1_555
H15 C17 1_555 1_555
C18 C1 1_555 1_555
H16 C18 1_555 1_555
C19 C8 1_555 1_555
C20 C9 1_555 1_555
H17 C20 1_555 1_555
O3 C6 1_555 1_555
C7 C8 1_555 1_555
N1 C12 1_555 1_555
C10 C16 1_555 1_555
C11 C20 1_555 1_555
C12 C18 1_555 1_555
C13 C16 1_555 1_555
C14 C17 1_555 1_555
C15 C16 1_555 1_555

#END
