
#######################################################################
#
#                 Cambridge Crystallographic Data Centre
#                                CCDC 
#
#######################################################################
#
# If this CIF has been generated from an entry in the Cambridge 
# Structural Database, then it will include bibliographic, chemical, 
# crystal, experimental, refinement or atomic coordinate data resulting 
# from the CCDC's data processing and validation procedures.
#
#######################################################################

data_WEDHOF
_chemical_formula_moiety         'C29 H24 N2 O2 S1,C1 H2 Cl2'
_chemical_name_systematic        
'N-benzyl-1-(2,3-diphenylquinolin-4-yl)methanesulfonamide dichloromethane solvate'
_symmetry_cell_setting           monoclinic
_symmetry_space_group_name_H-M   'P 21/c'
_symmetry_Int_Tables_number      14
_space_group_name_Hall           '-P 2ybc'
loop_
_symmetry_equiv_pos_site_id
_symmetry_equiv_pos_as_xyz
1 x,y,z
2 -x,1/2+y,1/2-z
3 -x,-y,-z
4 x,1/2-y,1/2+z
_cell_length_a                   8.96670(10)
_cell_length_b                   17.0670(2)
_cell_length_c                   17.6913(2)
_cell_angle_alpha                90
_cell_angle_beta                 93.9700(10)
_cell_angle_gamma                90
_cell_volume                     2700.89
_exptl_crystal_colour            colorless
_exptl_crystal_description       BLOCK
_cell_formula_units_Z            4
loop_
_atom_site_label
_atom_site_type_symbol
_atom_site_fract_x
_atom_site_fract_y
_atom_site_fract_z
S1 S 0.82035(5) 0.32676(3) 0.19386(2)
O1 O 0.96250(15) 0.30207(10) 0.22742(8)
O2 O 0.81375(18) 0.38455(9) 0.13522(8)
N1 N 0.75789(17) 0.21091(9) -0.08392(8)
C1 C 0.7205(2) 0.24169(11) 0.15643(10)
H1 H 0.7596 0.1945 0.1837
H2 H 0.6135 0.2470 0.1662
C2 C 0.3819(2) 0.24617(13) -0.12040(12)
H3 H 0.3533 0.2093 -0.0839
C3 C 0.2785(3) 0.27098(16) -0.17767(13)
H4 H 0.1799 0.2502 -0.1809
C4 C 0.3193(3) 0.32564(16) -0.22964(12)
H5 H 0.2483 0.3429 -0.2684
C5 C 0.4626(3) 0.35546(15) -0.22569(12)
H6 H 0.4897 0.3936 -0.2613
C6 C 0.5670(2) 0.32977(13) -0.16970(11)
H7 H 0.6663 0.3495 -0.1677
C7 C 0.5270(2) 0.27536(11) -0.11660(10)
C8 C 0.3757(2) 0.26529(12) 0.07871(12)
H8 H 0.3796 0.2101 0.0859
C9 C 0.2544(2) 0.30724(14) 0.10190(13)
H9 H 0.1762 0.2808 0.1251
C10 C 0.2472(2) 0.38714(14) 0.09124(13)
H10 H 0.1641 0.4160 0.1069
C11 C 0.3609(3) 0.42469(14) 0.05787(15)
H11 H 0.3561 0.4798 0.0504
C12 C 0.4829(3) 0.38311(13) 0.03491(13)
H12 H 0.5610 0.4099 0.0120
C13 C 0.4916(2) 0.30291(11) 0.04516(10)
C14 C 0.6417(2) 0.24680(11) -0.05773(10)
C15 C 0.62393(19) 0.25867(10) 0.02109(10)
C16 C 0.73329(19) 0.23018(10) 0.07279(10)
C17 C 0.85765(19) 0.18931(10) 0.04608(10)
C18 C 0.9718(2) 0.15414(11) 0.09453(11)
H13 H 0.9695 0.1595 0.1479
C19 C 1.0840(2) 0.11294(13) 0.06537(12)
H14 H 1.1577 0.0884 0.0986
C20 C 1.0922(2) 0.10621(14) -0.01373(12)
H15 H 1.1724 0.0781 -0.0334
C21 C 0.9859(2) 0.13979(13) -0.06219(11)
H16 H 0.9925 0.1353 -0.1154
C22 C 0.8654(2) 0.18136(11) -0.03323(10)
C23 C 0.3577(2) 0.45092(13) 0.29644(12)
H17 H 0.2946 0.4263 0.2581
C24 C 0.2967(2) 0.50112(13) 0.34745(12)
H18 H 0.1923 0.5114 0.3437
C25 C 0.3877(2) 0.53633(12) 0.40393(12)
H19 H 0.3459 0.5702 0.4394
C26 C 0.5397(2) 0.52209(12) 0.40853(11)
H20 H 0.6023 0.5465 0.4471
C27 C 0.6015(2) 0.47219(11) 0.35706(11)
H21 H 0.7062 0.4628 0.3604
C28 C 0.5106(2) 0.43618(11) 0.30092(11)
C29 C 0.5699(2) 0.38163(14) 0.24304(12)
H22 H 0.5057 0.3344 0.2387
H23 H 0.5638 0.4080 0.1931
N2 N 0.72480(17) 0.35745(10) 0.26198(9)
H24 H 0.7643 0.3596 0.3089
Cl1 Cl 0.07304(8) 0.59787(4) 0.04075(4)
Cl2 Cl 0.03148(9) 0.56342(5) 0.19951(4)
C30 C -0.0541(3) 0.56613(16) 0.10705(14)
H25 H -0.1407 0.6022 0.1056
H26 H -0.0915 0.5132 0.0928
loop_
_geom_bond_atom_site_label_1
_geom_bond_atom_site_label_2
_geom_bond_site_symmetry_1
_geom_bond_site_symmetry_2
S1 O1 1_555 1_555
O2 S1 1_555 1_555
N1 C14 1_555 1_555
C1 S1 1_555 1_555
H1 C1 1_555 1_555
H2 C1 1_555 1_555
C2 H3 1_555 1_555
C3 C2 1_555 1_555
H4 C3 1_555 1_555
C4 C3 1_555 1_555
H5 C4 1_555 1_555
C5 C4 1_555 1_555
H6 C5 1_555 1_555
C6 C5 1_555 1_555
H7 C6 1_555 1_555
C7 C2 1_555 1_555
C8 H8 1_555 1_555
C9 C8 1_555 1_555
H9 C9 1_555 1_555
C10 C9 1_555 1_555
H10 C10 1_555 1_555
C11 C10 1_555 1_555
H11 C11 1_555 1_555
C12 C11 1_555 1_555
H12 C12 1_555 1_555
C13 C8 1_555 1_555
C14 C7 1_555 1_555
C15 C13 1_555 1_555
C16 C1 1_555 1_555
C17 C16 1_555 1_555
C18 C17 1_555 1_555
H13 C18 1_555 1_555
C19 C18 1_555 1_555
H14 C19 1_555 1_555
C20 C19 1_555 1_555
H15 C20 1_555 1_555
C21 C20 1_555 1_555
H16 C21 1_555 1_555
C22 N1 1_555 1_555
C23 H17 1_555 1_555
C24 C23 1_555 1_555
H18 C24 1_555 1_555
C25 C24 1_555 1_555
H19 C25 1_555 1_555
C26 C25 1_555 1_555
H20 C26 1_555 1_555
C27 C26 1_555 1_555
H21 C27 1_555 1_555
C28 C23 1_555 1_555
C29 C28 1_555 1_555
H22 C29 1_555 1_555
H23 C29 1_555 1_555
N2 S1 1_555 1_555
H24 N2 1_555 1_555
Cl1 C30 1_555 1_555
Cl2 C30 1_555 1_555
C30 H25 1_555 1_555
H26 C30 1_555 1_555
C6 C7 1_555 1_555
C12 C13 1_555 1_555
C14 C15 1_555 1_555
C15 C16 1_555 1_555
C17 C22 1_555 1_555
C21 C22 1_555 1_555
C27 C28 1_555 1_555
C29 N2 1_555 1_555

#END
