
#######################################################################
#
#                 Cambridge Crystallographic Data Centre
#                                CCDC 
#
#######################################################################
#
# If this CIF has been generated from an entry in the Cambridge 
# Structural Database, then it will include bibliographic, chemical, 
# crystal, experimental, refinement or atomic coordinate data resulting 
# from the CCDC's data processing and validation procedures.
#
#######################################################################

data_WEDHES10
_chemical_formula_moiety         'C17 H24 O4 S1'
_chemical_name_systematic        
c-4-Isopropenyl-r-1,t-2-dihydroxy-t-1-methyl-c-3-(phenylsulfonylmethyl)-cyclohexane
_symmetry_cell_setting           orthorhombic
_symmetry_space_group_name_H-M   'P c n b'
_symmetry_Int_Tables_number      60
_space_group_name_Hall           '-P 2b 2ac'
loop_
_symmetry_equiv_pos_site_id
_symmetry_equiv_pos_as_xyz
1 x,y,z
2 -x,1/2-y,z
3 1/2+x,-y,1/2-z
4 1/2-x,1/2+y,1/2-z
5 -x,-y,-z
6 x,1/2+y,-z
7 1/2-x,y,1/2+z
8 1/2+x,1/2-y,1/2+z
_cell_length_a                   17.559(2)
_cell_length_b                   18.894(3)
_cell_length_c                   10.478(2)
_cell_angle_alpha                90
_cell_angle_beta                 90
_cell_angle_gamma                90
_cell_volume                     3476.18
_cell_formula_units_Z            8
loop_
_atom_site_label
_atom_site_type_symbol
_atom_site_fract_x
_atom_site_fract_y
_atom_site_fract_z
S1 S -0.00306(4) 0.07980(4) 0.22578(8)
O1 O 0.2049(1) 0.0022(1) 0.3081(2)
O2 O 0.1724(1) -0.0308(1) -0.0255(2)
O3 O -0.0440(1) 0.1061(2) 0.1181(2)
O4 O -0.0096(2) 0.0055(1) 0.2521(3)
C1 C 0.2275(2) -0.0150(2) 0.1799(3)
C2 C -0.0330(2) 0.1280(2) 0.3602(3)
C3 C -0.0754(2) 0.1891(2) 0.3434(4)
C4 C 0.1302(2) 0.0730(2) 0.0861(3)
C5 C 0.1559(2) -0.0042(2) 0.0999(2)
C6 C 0.2910(2) 0.0352(2) 0.1378(3)
C7 C 0.2652(2) 0.1115(2) 0.1311(4)
C8 C 0.0940(2) 0.1038(2) 0.2082(3)
C9 C 0.1970(2) 0.1202(2) 0.0412(3)
C10 C -0.1016(2) 0.2251(2) 0.4493(5)
C11 C 0.2533(3) -0.0919(2) 0.1758(4)
C12 C -0.0163(3) 0.1028(2) 0.4795(4)
C13 C -0.0443(4) 0.1407(3) 0.5857(4)
C14 C -0.0870(3) 0.2004(3) 0.5652(6)
C15 C 0.1724(2) 0.1963(2) 0.0176(4)
C16 C 0.2006(3) 0.2512(3) 0.0804(6)
C17 C 0.1122(4) 0.2058(4) -0.0814(6)
H1 H -0.095(3) 0.223(3) 0.652(5)
H2 H -0.129(3) 0.270(2) 0.444(5)
H3 H -0.088(3) 0.201(2) 0.253(4)
H4 H -0.026(4) 0.124(3) 0.664(5)
H5 H 0.018(3) 0.064(2) 0.487(5)
H6 H 0.093(2) 0.157(2) 0.208(3)
H7 H 0.117(2) 0.092(2) 0.284(4)
H8 H 0.091(2) 0.075(2) 0.021(3)
H9 H 0.114(2) -0.034(2) 0.144(3)
H10 H 0.241(3) -0.009(2) 0.349(4)
H11 H 0.290(3) -0.098(2) 0.237(5)
H12 H 0.205(3) -0.122(2) 0.202(4)
H13 H 0.311(2) 0.019(2) 0.047(4)
H14 H 0.333(3) 0.030(2) 0.196(4)
H15 H 0.249(3) 0.127(2) 0.224(4)
H16 H 0.210(2) 0.100(2) -0.037(4)
H17 H 0.229(4) 0.240(3) 0.157(6)
H18 H 0.182(3) 0.300(3) 0.057(6)
H19 H 0.060(4) 0.180(3) -0.053(6)
H20 H 0.106(4) 0.173(3) -0.152(6)
H21 H 0.270(3) -0.104(2) 0.093(5)
H22 H 0.112(4) 0.260(3) -0.076(6)
H23 H 0.307(2) 0.142(2) 0.095(4)
H24 H 0.140(3) -0.054(2) -0.051(4)
loop_
_geom_bond_atom_site_label_1
_geom_bond_atom_site_label_2
_geom_bond_site_symmetry_1
_geom_bond_site_symmetry_2
S1 O3 1_555 1_555
O1 C1 1_555 1_555
O2 C5 1_555 1_555
O4 S1 1_555 1_555
C1 C5 1_555 1_555
C2 S1 1_555 1_555
C3 C2 1_555 1_555
C4 C5 1_555 1_555
C5 H9 1_555 1_555
C6 C1 1_555 1_555
C7 C6 1_555 1_555
C8 S1 1_555 1_555
C9 C4 1_555 1_555
C10 C3 1_555 1_555
C11 C1 1_555 1_555
C12 C2 1_555 1_555
C13 C12 1_555 1_555
C14 C10 1_555 1_555
C15 C9 1_555 1_555
C16 C15 1_555 1_555
C17 C15 1_555 1_555
H1 C14 1_555 1_555
H2 C10 1_555 1_555
H3 C3 1_555 1_555
H4 C13 1_555 1_555
H5 C12 1_555 1_555
H6 C8 1_555 1_555
H7 C8 1_555 1_555
H8 C4 1_555 1_555
H10 O1 1_555 1_555
H11 C11 1_555 1_555
H12 C11 1_555 1_555
H13 C6 1_555 1_555
H14 C6 1_555 1_555
H15 C7 1_555 1_555
H16 C9 1_555 1_555
H17 C16 1_555 1_555
H18 C16 1_555 1_555
H19 C17 1_555 1_555
H20 C17 1_555 1_555
H21 C11 1_555 1_555
H22 C17 1_555 1_555
H23 C7 1_555 1_555
H24 O2 1_555 1_555
C4 C8 1_555 1_555
C7 C9 1_555 1_555
C13 C14 1_555 1_555

#END
