
#######################################################################
#
#                 Cambridge Crystallographic Data Centre
#                                CCDC 
#
#######################################################################
#
# If this CIF has been generated from an entry in the Cambridge 
# Structural Database, then it will include bibliographic, chemical, 
# crystal, experimental, refinement or atomic coordinate data resulting 
# from the CCDC's data processing and validation procedures.
#
#######################################################################

data_WEDLEW
_chemical_formula_moiety         'C14 H26 O2'
_chemical_name_systematic        
8-Hydroxy-4-isopropyl-8-methylspiro(4.5)decanol
_symmetry_cell_setting           monoclinic
_symmetry_space_group_name_H-M   'C 2/c'
_symmetry_Int_Tables_number      15
_space_group_name_Hall           '-C 2yn'
loop_
_symmetry_equiv_pos_site_id
_symmetry_equiv_pos_as_xyz
1 x,y,z
2 1/2+x,1/2+y,z
3 -x,y,1/2-z
4 1/2-x,1/2+y,1/2-z
5 -x,-y,-z
6 1/2-x,1/2-y,-z
7 x,-y,1/2+z
8 1/2+x,1/2-y,1/2+z
_cell_length_a                   29.154(8)
_cell_length_b                   7.258(3)
_cell_length_c                   14.312(4)
_cell_angle_alpha                90
_cell_angle_beta                 112.010
_cell_angle_gamma                90
_cell_volume                     2807.7
_chemical_melting_point          134.5-135.5deg.C
_cell_formula_units_Z            8
loop_
_atom_site_label
_atom_site_type_symbol
_atom_site_fract_x
_atom_site_fract_y
_atom_site_fract_z
O1 O 0.0415(2) -0.1511(3) -0.1005(2)
C1 C 0.0489(2) -0.2980(5) -0.0290(3)
C2 C 0.0521(3) -0.4821(7) -0.0770(4)
C3 C 0.1058(3) -0.4908(7) -0.0713(4)
C4 C 0.1364(3) -0.4293(7) 0.0369(3)
C5 C 0.1020(2) -0.2789(5) 0.0600(3)
C6 C 0.1225(2) -0.0822(5) 0.0679(3)
C7 C 0.0917(3) 0.0587(5) 0.1020(3)
C8 C 0.0887(3) 0.0101(6) 0.2028(3)
C9 C 0.0669(2) -0.1817(6) 0.1942(3)
C10 C 0.0946(2) -0.3253(6) 0.1595(3)
O2 O 0.0575(2) 0.1452(4) 0.2199(2)
C11 C 0.1386(3) 0.0241(7) 0.2889(3)
C12 C 0.1880(2) -0.3817(9) 0.0579(5)
C13 C 0.2116(2) -0.5298(10) 0.0116(6)
C14 C 0.2213(3) -0.3666(9) 0.1703(5)
H1 H 0.0196 -0.1581 -0.1431
H2 H 0.0298 -0.2841 0.0045
H3 H 0.0269 -0.4869 -0.1428
H4 H 0.0409 -0.5721 -0.0388
H5 H 0.1063 -0.3954 -0.1234
H6 H 0.1152 -0.6054 -0.0757
H7 H 0.1281 -0.5380 0.0825
H8 H 0.1287 -0.0458 0.0076
H9 H 0.1532 -0.0806 0.1161
H10 H 0.0571 0.0746 0.0468
H11 H 0.1097 0.1724 0.1044
H12 H 0.0307 -0.1732 0.1482
H13 H 0.0669 -0.2216 0.2596
H14 H 0.1295 -0.3539 0.2168
H15 H 0.0747 -0.4350 0.1515
H16 H 0.0248 0.1292 0.2389
H17 H 0.1511 0.1472 0.2916
H18 H 0.1351 -0.0043 0.3514
H19 H 0.1612 -0.0613 0.2779
H20 H 0.2007 -0.2502 0.0233
H21 H 0.2041 -0.5574 -0.0628
H22 H 0.2450 -0.4792 0.0156
H23 H 0.2073 -0.6674 0.0464
H24 H 0.1916 -0.3664 0.2076
H25 H 0.2182 -0.4789 0.1983
H26 H 0.2635 -0.3256 0.1778
loop_
_geom_bond_atom_site_label_1
_geom_bond_atom_site_label_2
_geom_bond_site_symmetry_1
_geom_bond_site_symmetry_2
O1 C1 1_555 1_555
C1 C2 1_555 1_555
C2 C3 1_555 1_555
C3 C4 1_555 1_555
C4 C5 1_555 1_555
C5 C1 1_555 1_555
C6 C5 1_555 1_555
C7 C6 1_555 1_555
C8 C7 1_555 1_555
C9 C8 1_555 1_555
C10 C5 1_555 1_555
O2 C8 1_555 1_555
C11 C8 1_555 1_555
C12 C4 1_555 1_555
C13 C12 1_555 1_555
C14 C12 1_555 1_555
H1 O1 1_555 1_555
H2 C1 1_555 1_555
H3 C2 1_555 1_555
H4 C2 1_555 1_555
H5 C3 1_555 1_555
H6 C3 1_555 1_555
H7 C4 1_555 1_555
H8 C6 1_555 1_555
H9 C6 1_555 1_555
H10 C7 1_555 1_555
H11 C7 1_555 1_555
H12 C9 1_555 1_555
H13 C9 1_555 1_555
H14 C10 1_555 1_555
H15 C10 1_555 1_555
H16 O2 1_555 1_555
H17 C11 1_555 1_555
H18 C11 1_555 1_555
H19 C11 1_555 1_555
H20 C12 1_555 1_555
H21 C13 1_555 1_555
H22 C13 1_555 1_555
H23 C13 1_555 1_555
H24 C14 1_555 1_555
H25 C14 1_555 1_555
H26 C14 1_555 1_555
C9 C10 1_555 1_555

#END
