
#######################################################################
#
#                 Cambridge Crystallographic Data Centre
#                                CCDC 
#
#######################################################################
#
# If this CIF has been generated from an entry in the Cambridge 
# Structural Database, then it will include bibliographic, chemical, 
# crystal, experimental, refinement or atomic coordinate data resulting 
# from the CCDC's data processing and validation procedures.
#
#######################################################################

data_WEDMAW
_chemical_formula_moiety         'C25 H21 N1 O3 S1'
_chemical_name_systematic        
(5-{[(4-methylphenyl)sulfonyl]methyl}-2-phenyl-1H-pyrrol-3-yl)(phenyl)methanone
_symmetry_cell_setting           triclinic
_symmetry_space_group_name_H-M   'P 1'
_symmetry_Int_Tables_number      1
_space_group_name_Hall           'P 1'
loop_
_symmetry_equiv_pos_site_id
_symmetry_equiv_pos_as_xyz
1 x,y,z
_cell_length_a                   14.339(3)
_cell_length_b                   15.396(3)
_cell_length_c                   18.846(3)
_cell_angle_alpha                90
_cell_angle_beta                 90
_cell_angle_gamma                90
_cell_volume                     4160.5
_cell_formula_units_Z            8
loop_
_atom_site_label
_atom_site_type_symbol
_atom_site_fract_x
_atom_site_fract_y
_atom_site_fract_z
C1 C -0.0452(16) 0.3723(15) -0.4519(13)
C2 C -0.0344(16) 0.4262(14) -0.3863(12)
C3 C 0.0290(14) 0.4105(13) -0.3368(11)
C4 C 0.0403(16) 0.4653(14) -0.2762(12)
C5 C -0.0247(12) 0.5244(11) -0.2620(9)
C6 C -0.1001(13) 0.5371(12) -0.3082(10)
C7 C -0.1075(13) 0.4883(12) -0.3678(10)
C8 C -0.0195(12) 0.6997(11) -0.2155(10)
C9 C 0.0705(12) 0.7192(11) -0.2489(9)
C10 C 0.2164(13) 0.7732(12) -0.2606(10)
C11 C 0.1958(11) 0.7340(10) -0.3247(9)
C12 C 0.3858(15) 0.7995(14) -0.2432(11)
C13 C 0.4618(16) 0.8455(15) -0.2079(12)
C14 C 0.3493(14) 0.9482(13) -0.1584(11)
C15 C 0.2716(15) 0.6686(13) -0.5074(11)
C16 C 0.2118(14) 0.5697(13) -0.4158(11)
C17 C 0.2934(11) 0.8293(10) -0.2299(9)
C18 C 0.4411(16) 0.9208(15) -0.1694(13)
C19 C 0.1048(13) 0.6957(12) -0.3153(10)
C20 C 0.2756(15) 0.8987(14) -0.1888(11)
C21 C 0.2568(13) 0.7268(12) -0.3832(10)
C22 C 0.2312(14) 0.5171(12) -0.5349(11)
C23 C 0.2066(13) 0.5040(12) -0.4692(10)
C24 C 0.2639(14) 0.6006(13) -0.5536(11)
C25 C 0.2440(11) 0.6523(11) -0.4373(9)
N1 N 0.1372(10) 0.7667(9) -0.2158(8)
O1 O -0.1061(9) 0.5766(9) -0.1469(7)
O2 O 0.0645(10) 0.5713(9) -0.1517(8)
O3 O 0.3171(9) 0.7809(9) -0.3976(7)
S1 S -0.0192(3) 0.5882(3) -0.1845(3)
C26 C 0.5782(17) 0.8830(16) 0.0492(13)
C27 C 0.2997(17) 0.7373(15) -0.0346(13)
C28 C 0.2679(15) 0.6554(14) -0.0556(12)
C29 C 0.2661(15) 0.5894(13) -0.0068(11)
C30 C 0.2914(12) 0.6044(11) 0.0660(9)
C31 C 0.3241(13) 0.6858(12) 0.0851(10)
C32 C 0.3314(15) 0.7511(13) 0.0331(11)
C33 C 0.2760(13) 0.5310(12) 0.1180(10)
C34 C 0.3357(12) 0.5249(11) 0.1765(9)
C35 C 0.3217(12) 0.4795(11) 0.2413(10)
C36 C 0.2436(12) 0.4288(11) 0.2694(10)
C37 C 0.1458(14) 0.4569(13) 0.2578(11)
C38 C 0.0731(16) 0.4114(15) 0.2910(13)
C39 C 0.0924(16) 0.3364(15) 0.3307(13)
C40 C 0.1866(14) 0.3096(13) 0.3403(11)
C41 C 0.2583(13) 0.3559(12) 0.3129(10)
C42 C 0.4289(13) 0.5617(12) 0.1846(10)
C43 C 0.4636(12) 0.5391(11) 0.2511(9)
C44 C 0.5516(13) 0.5562(12) 0.2827(10)
C45 C 0.5563(12) 0.7320(11) 0.2367(9)
C46 C 0.6327(14) 0.7192(13) 0.1917(11)
N2 N 0.3979(10) 0.4903(10) 0.2846(8)
C47 C 0.5723(13) 0.8305(12) 0.1158(10)
C48 C 0.6424(13) 0.7696(12) 0.1290(10)
C49 C 0.4998(15) 0.8461(14) 0.1642(12)
C50 C 0.4921(14) 0.7933(13) 0.2261(11)
O4 O 0.6402(9) 0.6800(9) 0.3533(7)
O5 O 0.4695(11) 0.6853(10) 0.3505(8)
O6 O 0.2158(10) 0.4784(9) 0.1011(7)
S2 S 0.5538(3) 0.6687(3) 0.3149(3)
C51 C 0.7111(14) 0.1842(13) 0.0859(11)
C52 C 0.7687(15) 0.0886(14) -0.0067(11)
C53 C 0.7639(16) 0.1571(15) -0.0554(12)
C54 C 0.4545(15) 0.3848(14) 0.0493(12)
C55 C 0.4630(15) 0.3296(13) 0.1161(11)
C56 C 0.5320(18) 0.3451(16) 0.1633(14)
C57 C 0.5414(15) 0.2956(13) 0.2254(11)
C58 C 0.4759(13) 0.2298(12) 0.2385(10)
C59 C 0.3955(14) 0.2679(13) 0.1283(11)
C60 C 0.4012(14) 0.2177(13) 0.1910(11)
C61 C 0.4817(11) 0.0574(10) 0.2838(9)
C62 C 0.5699(11) 0.0392(10) 0.2481(9)
C63 C 0.6064(12) 0.0623(11) 0.1848(9)
C64 C 0.6985(12) 0.0238(11) 0.1798(9)
C65 C 0.7160(12) -0.0184(11) 0.2415(10)
C66 C 0.7918(11) -0.0721(11) 0.2699(9)
C67 C 0.8875(14) -0.0429(13) 0.2577(11)
C68 C 0.9596(16) -0.0895(15) 0.2910(12)
C69 C 0.9393(14) -0.1632(13) 0.3295(11)
C70 C 0.8482(15) -0.1937(14) 0.3425(12)
C71 C 0.7746(13) -0.1435(12) 0.3118(10)
C72 C 0.7564(12) 0.0312(11) 0.1167(9)
C73 C 0.7406(11) 0.1053(11) 0.0638(9)
C74 C 0.7288(17) 0.2373(15) -0.0355(13)
C75 C 0.7048(16) 0.2512(14) 0.0356(12)
N3 N 0.6395(9) -0.0125(9) 0.2842(7)
O7 O 0.3954(9) 0.1820(8) 0.3531(7)
O8 O 0.5656(9) 0.1867(8) 0.3501(7)
O9 O 0.8209(9) -0.0223(9) 0.1050(7)
S3 S 0.4805(3) 0.1681(3) 0.3149(3)
C76 C 0.7522(14) -0.1594(13) -0.2128(11)
C77 C 0.4538(14) 0.1400(13) -0.2695(11)
C78 C 0.4614(12) 0.0857(11) -0.3393(10)
C79 C 0.5298(13) 0.1017(12) -0.3900(10)
C80 C 0.5391(14) 0.0529(13) -0.4483(11)
C81 C 0.4763(12) -0.0122(12) -0.4609(10)
C82 C 0.4042(13) -0.0300(12) -0.4115(10)
C83 C 0.3964(15) 0.0191(14) -0.3505(12)
C84 C 0.4881(13) -0.1863(12) -0.5097(10)
C85 C 0.5762(13) -0.2102(12) -0.4723(10)
C86 C 0.7193(13) -0.2655(11) -0.4596(10)
C87 C 0.6978(12) -0.2213(11) -0.3941(9)
C88 C 0.6045(14) -0.1815(13) -0.4059(11)
C89 C 0.7988(14) -0.3146(13) -0.4855(11)
C90 C 0.7817(14) -0.3867(13) -0.5244(11)
C91 C 0.8546(15) -0.4373(14) -0.5539(12)
C92 C 0.9491(16) -0.4063(15) -0.5448(12)
C93 C 0.9676(16) -0.3377(15) -0.4985(12)
C94 C 0.8906(16) -0.2893(15) -0.4718(12)
C95 C 0.7554(14) -0.2112(13) -0.3334(11)
C96 C 0.7345(14) -0.1384(13) -0.2823(11)
C97 C 0.6995(14) -0.0615(13) -0.3062(11)
C98 C 0.7384(15) -0.0927(14) -0.1631(12)
C99 C 0.6857(17) 0.0078(15) -0.2549(13)
C100 C 0.6988(17) -0.0104(16) -0.1810(13)
N4 N 0.6433(10) -0.2549(9) -0.5028(8)
O10 O 0.5721(10) -0.0574(9) -0.5737(8)
O11 O 0.4004(10) -0.0652(9) -0.5790(8)
O12 O 0.8164(9) -0.2655(9) -0.3186(7)
S4 S 0.4841(4) -0.0758(3) -0.5379(3)
C101 C 0.1983(15) 0.7671(14) 0.3188(12)
C102 C 0.1873(15) 0.7524(14) 0.2428(12)
C103 C 0.4479(15) 1.1652(14) -0.0441(12)
C104 C 0.4643(15) 1.0969(14) 0.0007(11)
C105 C 0.3914(16) 1.0465(15) 0.0284(12)
C106 C 0.2999(13) 1.0743(12) 0.0142(10)
C107 C 0.2832(14) 1.1482(13) -0.0282(11)
C108 C 0.3556(17) 1.1920(15) -0.0588(13)
C109 C 0.2216(12) 1.0224(11) 0.0414(9)
C110 C 0.0769(12) 0.9654(11) 0.0278(10)
C111 C -0.0157(12) 0.9449(11) -0.0098(10)
C112 C -0.0245(12) 0.7715(11) 0.0405(9)
C113 C 0.0411(15) 0.7074(14) 0.0519(11)
C114 C 0.0270(13) 0.6556(12) 0.1119(11)
C115 C -0.0393(14) 0.6699(13) 0.1599(11)
C116 C -0.1018(14) 0.7400(13) 0.1511(11)
C117 C -0.0959(13) 0.7883(12) 0.0874(10)
C118 C -0.0488(16) 0.6143(14) 0.2317(12)
C119 C 0.2024(12) 0.9766(11) 0.0996(10)
C120 C 0.1044(12) 0.9395(11) 0.0952(10)
C121 C 0.2539(13) 0.9692(12) 0.1660(10)
C122 C 0.2335(13) 0.8991(12) 0.2174(10)
C123 C 0.2010(15) 0.8179(14) 0.1953(12)
C124 C 0.2315(16) 0.8473(15) 0.3382(12)
C125 C 0.2537(13) 0.9145(12) 0.2860(10)
N5 N 0.1428(10) 1.0156(9) -0.0039(7)
O13 O 0.0696(9) 0.8139(8) -0.0734(7)
O14 O -0.1007(9) 0.8221(9) -0.0775(7)
O15 O 0.3199(11) 1.0200(10) 0.1768(8)
S5 S -0.0160(3) 0.8331(3) -0.0383(3)
C126 C 0.5801(16) 0.6409(15) -0.2694(12)
C127 C 0.5753(13) 0.5876(12) -0.3397(10)
C128 C 0.6347(15) 0.5182(14) -0.3477(11)
C129 C 0.6274(14) 0.4680(13) -0.4125(11)
C130 C 0.5562(13) 0.4855(12) -0.4615(10)
C131 C 0.4937(14) 0.5520(13) -0.4485(11)
C132 C 0.5030(14) 0.6003(13) -0.3898(11)
C133 C 0.5452(13) 0.3126(12) -0.5093(10)
C134 C 0.4578(12) 0.2916(11) -0.4722(9)
C135 C 0.3159(12) 0.2346(11) -0.4611(10)
C136 C 0.3276(12) 0.2838(11) -0.3997(10)
C137 C 0.4268(12) 0.3171(11) -0.4046(10)
C138 C 0.2334(15) 0.1843(14) -0.4829(12)
C139 C 0.2532(13) 0.1098(12) -0.5281(10)
C140 C 0.1765(18) 0.0645(16) -0.5562(13)
C141 C 0.0835(15) 0.0928(14) -0.5426(12)
C142 C 0.0686(14) 0.1608(13) -0.4971(11)
C143 C 0.1416(14) 0.2109(13) -0.4724(11)
C144 C 0.2813(14) 0.2890(12) -0.3329(10)
C145 C 0.2996(15) 0.3592(14) -0.2834(12)
C146 C 0.3331(15) 0.4391(13) -0.3063(11)
C147 C 0.3505(17) 0.5041(16) -0.2560(13)
C148 C 0.3322(18) 0.4874(17) -0.1809(14)
C149 C 0.3002(18) 0.4095(16) -0.1606(13)
C150 C 0.2840(14) 0.3412(13) -0.2135(11)
N6 N 0.3896(10) 0.2433(9) -0.5049(8)
O16 O 0.2103(11) 0.2388(10) -0.3231(9)
O17 O 0.4642(10) 0.4429(9) -0.5737(8)
O18 O 0.6347(11) 0.4340(10) -0.5773(8)
S6 S 0.5499(4) 0.4237(3) -0.5381(3)
C151 C 0.6854(15) 0.4497(14) -0.1566(12)
C152 C 0.7584(14) 0.4039(13) -0.1857(10)
C153 C 0.7408(12) 0.3285(11) -0.2308(10)
C154 C 0.6461(15) 0.3010(14) -0.2436(12)
C155 C 0.5726(15) 0.3490(14) -0.2097(12)
C156 C 0.5931(15) 0.4238(14) -0.1680(11)
C157 C 0.8180(13) 0.2752(12) -0.2603(10)
C158 C 0.9620(12) 0.2156(11) -0.2487(9)
C159 C 0.9284(12) 0.1952(11) -0.3162(9)
C160 C 0.8282(12) 0.2290(11) -0.3179(9)
C161 C 1.0525(12) 0.1991(11) -0.2160(9)
C162 C 1.0581(13) 0.0262(12) -0.2618(11)
C163 C 1.1344(14) 0.0399(13) -0.3077(11)
C164 C 1.1369(13) -0.0121(12) -0.3689(10)
C165 C 1.0708(15) -0.0755(13) -0.3826(11)
C166 C 1.0015(15) -0.0881(14) -0.3378(12)
C167 C 0.9898(14) -0.0348(13) -0.2732(11)
C168 C 1.0771(17) -0.1272(16) -0.4518(13)
C169 C 0.7782(13) 0.2258(12) -0.3825(10)
C170 C 0.7913(12) 0.1540(11) -0.4370(9)
C171 C 0.8196(13) 0.0717(12) -0.4151(10)
C172 C 0.8301(17) 0.0064(15) -0.4672(13)
C173 C 0.8024(15) 0.0182(14) -0.5367(11)
C174 C 0.7660(16) 0.1010(15) -0.5541(13)
C175 C 0.7656(14) 0.1676(13) -0.5079(11)
N7 N 0.8947(10) 0.2687(9) -0.2165(7)
O19 O 0.9681(10) 0.0715(9) -0.1502(8)
O20 O 1.1390(9) 0.0756(8) -0.1472(7)
O21 O 0.7096(10) 0.2759(9) -0.3925(8)
S7 S 1.0536(4) 0.0884(3) -0.1849(3)
C176 C 0.8365(17) 0.2685(15) 0.3179(13)
C177 C 0.8474(15) 0.2522(14) 0.2446(12)
C178 C 0.8329(13) 0.3181(12) 0.1961(10)
C179 C 0.7990(14) 0.3988(13) 0.2176(11)
C180 C 0.7839(13) 0.4140(13) 0.2875(11)
C181 C 0.7990(18) 0.3517(17) 0.3378(14)
C182 C 0.7785(15) 0.4693(14) 0.1659(11)
C183 C 0.8296(11) 0.4734(10) 0.1037(9)
C184 C 0.8153(12) 0.5218(12) 0.0404(10)
C185 C 0.7334(13) 0.5724(12) 0.0138(10)
C186 C 0.7506(13) 0.6455(12) -0.0267(10)
C187 C 0.6757(16) 0.6925(15) -0.0572(12)
C188 C 0.5827(17) 0.6644(16) -0.0436(13)
C189 C 0.5663(15) 0.5961(15) 0.0002(12)
C190 C 0.6434(13) 0.5462(12) 0.0289(10)
C191 C 0.9596(14) 0.4640(13) 0.0255(11)
C192 C 0.9277(12) 0.4427(11) 0.0932(9)
C193 C 1.0482(14) 0.4425(13) -0.0096(11)
C194 C 1.0552(12) 0.2685(11) 0.0403(9)
C195 C 1.1305(13) 0.2864(12) 0.0864(10)
C196 C 0.9901(13) 0.2046(12) 0.0511(10)
C197 C 1.0731(12) 0.1710(11) 0.1604(10)
C198 C 1.1351(13) 0.2372(12) 0.1487(10)
C199 C 1.0801(15) 0.1181(14) 0.2332(12)
C200 C 1.0027(12) 0.1569(11) 0.1109(10)
N8 N 0.8925(10) 0.5142(9) -0.0048(7)
O22 O 0.7156(11) 0.5193(10) 0.1801(8)
O23 O 0.9647(10) 0.3156(10) -0.0752(8)
O24 O 1.1328(10) 0.3240(9) -0.0787(8)
S8 S 1.0508(4) 0.3332(3) -0.0387(3)
loop_
_geom_bond_atom_site_label_1
_geom_bond_atom_site_label_2
_geom_bond_site_symmetry_1
_geom_bond_site_symmetry_2
C1 C2 1_555 1_555
C2 C3 1_555 1_555
C3 C4 1_555 1_555
C4 C5 1_555 1_555
C5 C6 1_555 1_555
C6 C7 1_555 1_555
C7 C2 1_555 1_555
C8 C9 1_555 1_555
C9 C19 1_555 1_555
C10 C11 1_555 1_555
C11 C19 1_555 1_555
C12 C13 1_555 1_555
C13 C18 1_555 1_555
C14 C18 1_555 1_555
C15 C24 1_555 1_555
C16 C23 1_555 1_555
C17 C10 1_555 1_555
C20 C14 1_555 1_555
C21 C11 1_555 1_555
C22 C23 1_555 1_555
C24 C22 1_555 1_555
C25 C15 1_555 1_555
N1 C9 1_555 1_555
O1 S1 1_555 1_555
O2 S1 1_555 1_555
O3 C21 1_555 1_555
S1 C5 1_555 1_555
C26 C47 1_555 1_555
C27 C28 1_555 1_555
C28 C29 1_555 1_555
C29 C30 1_555 1_555
C30 C31 1_555 1_555
C31 C32 1_555 1_555
C32 C27 1_555 1_555
C33 C30 1_555 1_555
C34 C33 1_555 1_555
C35 C34 1_555 1_555
C36 C35 1_555 1_555
C37 C36 1_555 1_555
C38 C37 1_555 1_555
C39 C38 1_555 1_555
C40 C39 1_555 1_555
C41 C36 1_555 1_555
C42 C34 1_555 1_555
C43 C42 1_555 1_555
C44 C43 1_555 1_555
C45 C46 1_555 1_555
C46 C48 1_555 1_555
N2 C35 1_555 1_555
C47 C48 1_555 1_555
C49 C47 1_555 1_555
C50 C45 1_555 1_555
O4 S2 1_555 1_555
O5 S2 1_555 1_555
O6 C33 1_555 1_555
S2 C44 1_555 1_555
C51 C73 1_555 1_555
C52 C53 1_555 1_555
C53 C74 1_555 1_555
C54 C55 1_555 1_555
C55 C56 1_555 1_555
C56 C57 1_555 1_555
C57 C58 1_555 1_555
C58 C60 1_555 1_555
C59 C55 1_555 1_555
C60 C59 1_555 1_555
C61 C62 1_555 1_555
C62 C63 1_555 1_555
C63 C64 1_555 1_555
C64 C65 1_555 1_555
C65 C66 1_555 1_555
C66 C67 1_555 1_555
C67 C68 1_555 1_555
C68 C69 1_555 1_555
C69 C70 1_555 1_555
C70 C71 1_555 1_555
C71 C66 1_555 1_555
C72 C64 1_555 1_555
C73 C52 1_555 1_555
C74 C75 1_555 1_555
C75 C51 1_555 1_555
N3 C62 1_555 1_555
O7 S3 1_555 1_555
O8 S3 1_555 1_555
O9 C72 1_555 1_555
S3 C58 1_555 1_555
C76 C96 1_555 1_555
C77 C78 1_555 1_555
C78 C79 1_555 1_555
C79 C80 1_555 1_555
C80 C81 1_555 1_555
C81 C82 1_555 1_555
C82 C83 1_555 1_555
C83 C78 1_555 1_555
C84 C85 1_555 1_555
C85 C88 1_555 1_555
C86 C87 1_555 1_555
C87 C88 1_555 1_555
C89 C86 1_555 1_555
C90 C89 1_555 1_555
C91 C90 1_555 1_555
C92 C91 1_555 1_555
C93 C92 1_555 1_555
C94 C89 1_555 1_555
C95 C87 1_555 1_555
C96 C95 1_555 1_555
C97 C96 1_555 1_555
C98 C76 1_555 1_555
C99 C97 1_555 1_555
C100 C98 1_555 1_555
N4 C85 1_555 1_555
O10 S4 1_555 1_555
O11 S4 1_555 1_555
O12 C95 1_555 1_555
S4 C81 1_555 1_555
C101 C102 1_555 1_555
C102 C123 1_555 1_555
C103 C104 1_555 1_555
C104 C105 1_555 1_555
C105 C106 1_555 1_555
C106 C107 1_555 1_555
C107 C108 1_555 1_555
C108 C103 1_555 1_555
C109 C106 1_555 1_555
C110 C111 1_555 1_555
C111 S5 1_555 1_555
C112 C113 1_555 1_555
C113 C114 1_555 1_555
C114 C115 1_555 1_555
C115 C116 1_555 1_555
C116 C117 1_555 1_555
C117 C112 1_555 1_555
C118 C115 1_555 1_555
C119 C109 1_555 1_555
C120 C110 1_555 1_555
C121 C119 1_555 1_555
C122 C121 1_555 1_555
C123 C122 1_555 1_555
C124 C101 1_555 1_555
C125 C122 1_555 1_555
N5 C109 1_555 1_555
O13 S5 1_555 1_555
O14 S5 1_555 1_555
O15 C121 1_555 1_555
S5 C112 1_555 1_555
C126 C127 1_555 1_555
C127 C128 1_555 1_555
C128 C129 1_555 1_555
C129 C130 1_555 1_555
C130 C131 1_555 1_555
C131 C132 1_555 1_555
C132 C127 1_555 1_555
C133 C134 1_555 1_555
C134 C137 1_555 1_555
C135 C136 1_555 1_555
C136 C137 1_555 1_555
C138 C135 1_555 1_555
C139 C138 1_555 1_555
C140 C139 1_555 1_555
C141 C140 1_555 1_555
C142 C141 1_555 1_555
C143 C138 1_555 1_555
C144 C136 1_555 1_555
C145 C144 1_555 1_555
C146 C145 1_555 1_555
C147 C146 1_555 1_555
C148 C147 1_555 1_555
C149 C148 1_555 1_555
C150 C145 1_555 1_555
N6 C134 1_555 1_555
O16 C144 1_555 1_555
O17 S6 1_555 1_555
O18 S6 1_555 1_555
S6 C130 1_555 1_555
C151 C152 1_555 1_555
C152 C153 1_555 1_555
C153 C154 1_555 1_555
C154 C155 1_555 1_555
C155 C156 1_555 1_555
C156 C151 1_555 1_555
C157 C153 1_555 1_555
C158 C159 1_555 1_555
C159 C160 1_555 1_555
C160 C157 1_555 1_555
C161 C158 1_555 1_555
C162 C163 1_555 1_555
C163 C164 1_555 1_555
C164 C165 1_555 1_555
C165 C166 1_555 1_555
C166 C167 1_555 1_555
C167 C162 1_555 1_555
C168 C165 1_555 1_555
C169 C160 1_555 1_555
C170 C169 1_555 1_555
C171 C170 1_555 1_555
C172 C171 1_555 1_555
C173 C172 1_555 1_555
C174 C173 1_555 1_555
C175 C170 1_555 1_555
N7 C157 1_555 1_555
O19 S7 1_555 1_555
O20 S7 1_555 1_555
O21 C169 1_555 1_555
S7 C161 1_555 1_555
C176 C177 1_555 1_555
C177 C178 1_555 1_555
C178 C179 1_555 1_555
C179 C180 1_555 1_555
C180 C181 1_555 1_555
C181 C176 1_555 1_555
C182 C179 1_555 1_555
C183 C182 1_555 1_555
C184 C183 1_555 1_555
C185 C184 1_555 1_555
C186 C185 1_555 1_555
C187 C186 1_555 1_555
C188 C187 1_555 1_555
C189 C188 1_555 1_555
C190 C185 1_555 1_555
C191 C192 1_555 1_555
C192 C183 1_555 1_555
C193 C191 1_555 1_555
C194 C195 1_555 1_555
C195 C198 1_555 1_555
C196 C194 1_555 1_555
C197 C198 1_555 1_555
C199 C197 1_555 1_555
C200 C196 1_555 1_555
N8 C184 1_555 1_555
O22 C182 1_555 1_555
O23 S8 1_555 1_555
O24 S8 1_555 1_555
S8 C193 1_555 1_555
C8 S1 1_555 1_555
C10 N1 1_555 1_555
C12 C17 1_555 1_555
C16 C25 1_555 1_555
C17 C20 1_555 1_555
C21 C25 1_555 1_555
C40 C41 1_555 1_555
C43 N2 1_555 1_555
C45 S2 1_555 1_555
C49 C50 1_555 1_555
C61 S3 1_555 1_555
C65 N3 1_555 1_555
C72 C73 1_555 1_555
C84 S4 1_555 1_555
C86 N4 1_555 1_555
C93 C94 1_555 1_555
C99 C100 1_555 1_555
C110 N5 1_555 1_555
C119 C120 1_555 1_555
C124 C125 1_555 1_555
C133 S6 1_555 1_555
C135 N6 1_555 1_555
C142 C143 1_555 1_555
C149 C150 1_555 1_555
C158 N7 1_555 1_555
C162 S7 1_555 1_555
C174 C175 1_555 1_555
C189 C190 1_555 1_555
C191 N8 1_555 1_555
C194 S8 1_555 1_555
C197 C200 1_555 1_555

#END
