
#######################################################################
#
#                 Cambridge Crystallographic Data Centre
#                                CCDC 
#
#######################################################################
#
# If this CIF has been generated from an entry in the Cambridge 
# Structural Database, then it will include bibliographic, chemical, 
# crystal, experimental, refinement or atomic coordinate data resulting 
# from the CCDC's data processing and validation procedures.
#
#######################################################################

data_WEDMOH
_chemical_formula_moiety         'C13 H19 Cl1 O2'
_chemical_name_systematic        1\b,9\b-Diacetyl-7\a-chloro-cis-hydrindane
_symmetry_cell_setting           monoclinic
_symmetry_space_group_name_H-M   'P 21/a'
_symmetry_Int_Tables_number      14
_space_group_name_Hall           '-P 2yab'
loop_
_symmetry_equiv_pos_site_id
_symmetry_equiv_pos_as_xyz
1 x,y,z
2 1/2-x,1/2+y,-z
3 -x,-y,-z
4 1/2+x,1/2-y,z
_cell_length_a                   10.867(1)
_cell_length_b                   10.334(2)
_cell_length_c                   11.869(1)
_cell_angle_alpha                90
_cell_angle_beta                 102.65(1)
_cell_angle_gamma                90
_cell_volume                     1300.53
_exptl_crystal_colour            colorless
_chemical_melting_point          85-87deg.C
_cell_formula_units_Z            4
loop_
_atom_site_label
_atom_site_type_symbol
_atom_site_fract_x
_atom_site_fract_y
_atom_site_fract_z
Cl1 Cl 0.0036(1) 0.2162(1) 0.6357(1)
C1 C -0.1597(2) 0.3334(2) 0.8046(2)
C2 C -0.2196(3) 0.4241(3) 0.8828(3)
C3 C -0.1711(3) 0.5600(3) 0.8691(3)
C4 C -0.2415(2) 0.5746(3) 0.6516(2)
C5 C -0.2096(3) 0.5403(3) 0.5368(3)
C6 C -0.1637(3) 0.4016(3) 0.5376(2)
C7 C -0.0500(2) 0.3832(2) 0.6359(2)
C8 C -0.0708(2) 0.4208(2) 0.7542(2)
C9 C -0.1273(2) 0.5580(2) 0.7539(2)
C10 C -0.0297(2) 0.6638(3) 0.7530(2)
C11 C -0.0696(3) 0.8018(3) 0.7602(3)
C12 C -0.0968(2) 0.2201(2) 0.8758(2)
C13 C -0.1772(3) 0.1042(3) 0.8799(3)
O1 O 0.0786(2) 0.6378(2) 0.7502(2)
O2 O 0.0109(2) 0.2257(2) 0.9303(2)
H1 H -0.1502 0.8218 0.7764
H2 H -0.0690 0.8270 0.6824
H3 H -0.0048 0.8480 0.8129
H4 H -0.2554 0.1255 0.9004
H5 H -0.1349 0.0380 0.9308
H6 H -0.1936 0.0734 0.8018
H7 H -0.2249(20) 0.3018(23) 0.7453(20)
H8 H -0.2022(25) 0.3985(29) 0.9593(27)
H9 H -0.3079(26) 0.4172(26) 0.8633(22)
H10 H -0.1018(26) 0.5842(30) 0.9319(25)
H11 H -0.2341(23) 0.6298(26) 0.8656(22)
H12 H -0.3091(20) 0.5156(24) 0.6640(19)
H13 H -0.2688(21) 0.6648(27) 0.6556(21)
H14 H -0.2745(27) 0.5503(29) 0.4771(28)
H15 H -0.1401(30) 0.5996(36) 0.5288(27)
H16 H -0.1393(25) 0.3785(29) 0.4702(27)
H17 H -0.2307(22) 0.3370(26) 0.5477(20)
H18 H 0.0160(20) 0.4336(26) 0.6218(20)
H19 H 0.0079(20) 0.4177(23) 0.8041(19)
loop_
_geom_bond_atom_site_label_1
_geom_bond_atom_site_label_2
_geom_bond_site_symmetry_1
_geom_bond_site_symmetry_2
Cl1 C7 1_555 1_555
C1 C2 1_555 1_555
C2 C3 1_555 1_555
C3 C9 1_555 1_555
C4 C5 1_555 1_555
C5 C6 1_555 1_555
C6 C7 1_555 1_555
C7 C8 1_555 1_555
C8 C1 1_555 1_555
C9 C4 1_555 1_555
C10 C9 1_555 1_555
C11 C10 1_555 1_555
C12 C1 1_555 1_555
C13 C12 1_555 1_555
O1 C10 1_555 1_555
O2 C12 1_555 1_555
H1 C11 1_555 1_555
H2 C11 1_555 1_555
H3 C11 1_555 1_555
H4 C13 1_555 1_555
H5 C13 1_555 1_555
H6 C13 1_555 1_555
H7 C1 1_555 1_555
H8 C2 1_555 1_555
H9 C2 1_555 1_555
H10 C3 1_555 1_555
H11 C3 1_555 1_555
H12 C4 1_555 1_555
H13 C4 1_555 1_555
H14 C5 1_555 1_555
H15 C5 1_555 1_555
H16 C6 1_555 1_555
H17 C6 1_555 1_555
H18 C7 1_555 1_555
H19 C8 1_555 1_555
C8 C9 1_555 1_555

#END
