
#######################################################################
#
#                 Cambridge Crystallographic Data Centre
#                                CCDC 
#
#######################################################################
#
# If this CIF has been generated from an entry in the Cambridge 
# Structural Database, then it will include bibliographic, chemical, 
# crystal, experimental, refinement or atomic coordinate data resulting 
# from the CCDC's data processing and validation procedures.
#
#######################################################################

data_WEDQAA
_chemical_formula_moiety         'C27 H26 N2 O3 S1,C3 H6 O1'
_chemical_name_systematic        
'8-methyl-3a-{2-methylidene-1-[(4-methylphenyl)sulfonyl]-2,3-dihydro-1H-indol-3-yl}-3,3a,8,8a-tetrahydro-2H-furo[2,3-b]indole acetone solvate'
_symmetry_cell_setting           triclinic
_symmetry_space_group_name_H-M   'P -1'
_symmetry_Int_Tables_number      2
_space_group_name_Hall           '-P 1'
loop_
_symmetry_equiv_pos_site_id
_symmetry_equiv_pos_as_xyz
1 x,y,z
2 -x,-y,-z
_cell_length_a                   9.0918(15)
_cell_length_b                   12.255(2)
_cell_length_c                   12.832(2)
_cell_angle_alpha                74.988(3)
_cell_angle_beta                 88.662(3)
_cell_angle_gamma                88.721(3)
_cell_volume                     1380.37
_exptl_crystal_colour            colorless
_exptl_crystal_description       plate
_cell_formula_units_Z            2
loop_
_atom_site_label
_atom_site_type_symbol
_atom_site_fract_x
_atom_site_fract_y
_atom_site_fract_z
S1 S 0.56743(8) 0.27795(7) 0.18815(8)
O1 O 0.6697(3) 0.2004(2) 0.2518(3)
O2 O 0.5858(3) 0.3122(2) 0.0735(2)
O3 O -0.0307(3) -0.10406(18) 0.42084(18)
N1 N 0.4046(2) 0.21841(19) 0.21230(19)
N2 N -0.0365(3) -0.0373(2) 0.2282(2)
C1 C 0.5558(3) 0.3991(2) 0.2368(3)
C2 C 0.4817(4) 0.4932(3) 0.1789(3)
H1 H 0.4382 0.4930 0.1124
C3 C 0.4707(4) 0.5879(3) 0.2174(3)
H2 H 0.4190 0.6527 0.1768
C4 C 0.5323(5) 0.5910(3) 0.3128(3)
C5 C 0.6057(5) 0.4970(3) 0.3703(3)
H3 H 0.6490 0.4981 0.4367
C6 C 0.6184(4) 0.3999(3) 0.3338(3)
H4 H 0.6693 0.3350 0.3748
C7 C 0.5160(7) 0.6938(3) 0.3558(4)
H5 H 0.5126 0.7617 0.2954
H6 H 0.6000 0.6976 0.4011
H7 H 0.4248 0.6891 0.3988
C8 C 0.2790(3) 0.2573(2) 0.1472(2)
C9 C 0.2716(5) 0.3255(3) 0.0428(3)
H8 H 0.3583 0.3504 0.0015
C10 C 0.1336(6) 0.3560(4) 0.0010(3)
H9 H 0.1263 0.4060 -0.0690
C11 C 0.0094(5) 0.3175(3) 0.0555(4)
H10 H -0.0836 0.3391 0.0235
C12 C 0.0173(4) 0.2457(2) 0.1594(3)
H11 H -0.0700 0.2180 0.1985
C13 C 0.1529(3) 0.2154(2) 0.2046(2)
C14 C 0.1922(3) 0.1390(2) 0.3124(2)
H12 H 0.1355 0.1638 0.3702
C15 C 0.3532(3) 0.1633(2) 0.3203(2)
C16 C 0.4290(5) 0.1434(3) 0.4094(3)
H13 H 0.5285 0.1661 0.4067
H14 H 0.3842 0.1064 0.4765
C17 C 0.1616(3) 0.0126(2) 0.3228(2)
C18 C 0.2150(4) -0.0662(2) 0.4292(2)
H15 H 0.3159 -0.0952 0.4209
H16 H 0.2134 -0.0269 0.4876
C19 C 0.1071(4) -0.1591(3) 0.4517(3)
H17 H 0.1314 -0.2138 0.4089
H18 H 0.1056 -0.1995 0.5293
C20 C -0.0054(3) -0.0122(2) 0.3280(2)
H19 H -0.0634 0.0560 0.3348
C21 C 0.0922(4) -0.0599(2) 0.1776(2)
C22 C 0.2139(3) -0.0285(2) 0.2263(2)
C23 C 0.3530(4) -0.0422(2) 0.1883(2)
H20 H 0.4364 -0.0213 0.2216
C24 C 0.3700(5) -0.0878(3) 0.0988(3)
H21 H 0.4655 -0.0967 0.0702
C25 C 0.2498(6) -0.1194(3) 0.0529(3)
H22 H 0.2637 -0.1518 -0.0064
C26 C 0.1093(5) -0.1058(3) 0.0896(3)
H23 H 0.0265 -0.1271 0.0561
C27 C -0.1799(4) -0.0796(4) 0.2109(4)
H24 H -0.1931 -0.0706 0.1336
H25 H -0.2572 -0.0369 0.2384
H26 H -0.1858 -0.1598 0.2492
O4 O 0.1612(6) 0.5725(4) 0.4282(4)
C28 C 0.1102(6) 0.5260(4) 0.3666(4)
C29 C 0.1497(8) 0.4063(4) 0.3897(5)
H27 H 0.2519 0.3978 0.3668
H28 H 0.0846 0.3688 0.3505
H29 H 0.1391 0.3719 0.4674
C30 C 0.0308(10) 0.6005(7) 0.2796(6)
H30 H -0.0752 0.5902 0.2929
H31 H 0.0585 0.5829 0.2114
H32 H 0.0553 0.6790 0.2754
loop_
_geom_bond_atom_site_label_1
_geom_bond_atom_site_label_2
_geom_bond_site_symmetry_1
_geom_bond_site_symmetry_2
S1 O1 1_555 1_555
O2 S1 1_555 1_555
O3 C19 1_555 1_555
N1 S1 1_555 1_555
N2 C20 1_555 1_555
C1 S1 1_555 1_555
C2 C1 1_555 1_555
H1 C2 1_555 1_555
C3 C2 1_555 1_555
H2 C3 1_555 1_555
C4 C3 1_555 1_555
C5 C4 1_555 1_555
H3 C5 1_555 1_555
C6 C1 1_555 1_555
H4 C6 1_555 1_555
C7 C4 1_555 1_555
H5 C7 1_555 1_555
H6 C7 1_555 1_555
H7 C7 1_555 1_555
C8 N1 1_555 1_555
C9 C8 1_555 1_555
H8 C9 1_555 1_555
C10 C9 1_555 1_555
H9 C10 1_555 1_555
C11 C10 1_555 1_555
H10 C11 1_555 1_555
C12 C11 1_555 1_555
H11 C12 1_555 1_555
C13 C8 1_555 1_555
C14 C13 1_555 1_555
H12 C14 1_555 1_555
C15 N1 1_555 1_555
C16 C15 1_555 1_555
H13 C16 1_555 1_555
H14 C16 1_555 1_555
C17 C14 1_555 1_555
C18 C17 1_555 1_555
H15 C18 1_555 1_555
H16 C18 1_555 1_555
C19 C18 1_555 1_555
H17 C19 1_555 1_555
H18 C19 1_555 1_555
C20 O3 1_555 1_555
H19 C20 1_555 1_555
C21 N2 1_555 1_555
C22 C17 1_555 1_555
C23 C22 1_555 1_555
H20 C23 1_555 1_555
C24 C23 1_555 1_555
H21 C24 1_555 1_555
C25 C24 1_555 1_555
H22 C25 1_555 1_555
C26 C21 1_555 1_555
H23 C26 1_555 1_555
C27 N2 1_555 1_555
H24 C27 1_555 1_555
H25 C27 1_555 1_555
H26 C27 1_555 1_555
O4 C28 1_555 1_555
C28 C29 1_555 1_555
C29 H27 1_555 1_555
H28 C29 1_555 1_555
H29 C29 1_555 1_555
C30 C28 1_555 1_555
H30 C30 1_555 1_555
H31 C30 1_555 1_555
H32 C30 1_555 1_555
C5 C6 1_555 1_555
C12 C13 1_555 1_555
C14 C15 1_555 1_555
C17 C20 1_555 1_555
C21 C22 1_555 1_555
C25 C26 1_555 1_555

#END
