
#######################################################################
#
#                 Cambridge Crystallographic Data Centre
#                                CCDC 
#
#######################################################################
#
# If this CIF has been generated from an entry in the Cambridge 
# Structural Database, then it will include bibliographic, chemical, 
# crystal, experimental, refinement or atomic coordinate data resulting 
# from the CCDC's data processing and validation procedures.
#
#######################################################################

data_WEDTIL
_chemical_formula_moiety         'C14 H11 Cl1 N4 O1 S1'
_chemical_name_systematic        
4-((3-chloropyrazin-2-yl)sulfanyl)-5-methyl-2-phenyl-1,2-dihydro-3H-pyrazol-3-one
_symmetry_cell_setting           monoclinic
_symmetry_space_group_name_H-M   'P 21/c'
_symmetry_Int_Tables_number      14
_space_group_name_Hall           '-P 2ybc'
loop_
_symmetry_equiv_pos_site_id
_symmetry_equiv_pos_as_xyz
1 x,y,z
2 -x,1/2+y,1/2-z
3 -x,-y,-z
4 x,1/2-y,1/2+z
_cell_length_a                   9.676(5)
_cell_length_b                   12.483(6)
_cell_length_c                   11.857(6)
_cell_angle_alpha                90
_cell_angle_beta                 98.414(16)
_cell_angle_gamma                90
_cell_volume                     1416.74
_exptl_crystal_description       needle
_cell_formula_units_Z            4
loop_
_atom_site_label
_atom_site_type_symbol
_atom_site_fract_x
_atom_site_fract_y
_atom_site_fract_z
Cl1 Cl 0.59677(10) 0.61305(6) 0.15370(7)
S1 S 0.82963(8) 0.47179(6) 0.07644(6)
O1 O 1.0591(2) 0.28594(16) 0.18569(15)
N1 N 0.4519(3) 0.4392(2) 0.1680(2)
N2 N 1.0602(2) 0.23203(18) -0.00118(17)
N3 N 0.9946(2) 0.26354(18) -0.10706(17)
H1 H 1.0072 0.2354 -0.1710
N4 N 0.6540(3) 0.30660(19) 0.0985(2)
C1 C 0.4320(3) 0.3335(3) 0.1572(3)
H2 H 0.3490 0.3035 0.1730
C2 C 0.5703(3) 0.4755(2) 0.1425(2)
C3 C 0.6742(3) 0.4115(2) 0.1065(2)
C4 C 0.9159(3) 0.3668(2) 0.0200(2)
C5 C 1.0131(3) 0.2960(2) 0.0819(2)
C6 C 1.1432(3) 0.1380(2) 0.0104(2)
C7 C 1.2348(3) 0.1176(2) -0.0657(2)
H3 H 1.2456 0.1668 -0.1227
C8 C 1.3107(4) 0.0231(3) -0.0566(3)
H4 H 1.3725 0.0087 -0.1078
C9 C 1.2953(4) -0.0493(3) 0.0278(3)
H5 H 1.3467 -0.1125 0.0338
C10 C 1.2038(4) -0.0282(2) 0.1032(3)
H6 H 1.1934 -0.0779 0.1598
C11 C 1.1271(3) 0.0654(2) 0.0965(2)
H7 H 1.0660 0.0796 0.1484
C12 C 0.9083(3) 0.3447(2) -0.0946(2)
C13 C 0.8272(3) 0.3976(3) -0.1964(2)
H8 H 0.8636 0.4683 -0.2049
H9 H 0.7307 0.4024 -0.1865
H10 H 0.8353 0.3562 -0.2634
C14 C 0.5318(3) 0.2696(3) 0.1234(3)
H11 H 0.5146 0.1964 0.1171
loop_
_geom_bond_atom_site_label_1
_geom_bond_atom_site_label_2
_geom_bond_site_symmetry_1
_geom_bond_site_symmetry_2
Cl1 C2 1_555 1_555
S1 C3 1_555 1_555
O1 C5 1_555 1_555
N1 C1 1_555 1_555
N2 N3 1_555 1_555
N3 H1 1_555 1_555
N4 C3 1_555 1_555
C1 H2 1_555 1_555
C2 N1 1_555 1_555
C3 C2 1_555 1_555
C4 S1 1_555 1_555
C5 N2 1_555 1_555
C6 N2 1_555 1_555
C7 C6 1_555 1_555
H3 C7 1_555 1_555
C8 C7 1_555 1_555
H4 C8 1_555 1_555
C9 C8 1_555 1_555
H5 C9 1_555 1_555
C10 C9 1_555 1_555
H6 C10 1_555 1_555
C11 C6 1_555 1_555
H7 C11 1_555 1_555
C12 N3 1_555 1_555
C13 C12 1_555 1_555
H8 C13 1_555 1_555
H9 C13 1_555 1_555
H10 C13 1_555 1_555
C14 N4 1_555 1_555
H11 C14 1_555 1_555
C1 C14 1_555 1_555
C4 C5 1_555 1_555
C4 C12 1_555 1_555
C10 C11 1_555 1_555

#END
