
#######################################################################
#
#                 Cambridge Crystallographic Data Centre
#                                CCDC 
#
#######################################################################
#
# If this CIF has been generated from an entry in the Cambridge 
# Structural Database, then it will include bibliographic, chemical, 
# crystal, experimental, refinement or atomic coordinate data resulting 
# from the CCDC's data processing and validation procedures.
#
#######################################################################

data_WEDWIM
_chemical_formula_moiety         'C66 H62 N4 O4 S2,3(C1 H1 Cl3)'
_chemical_name_systematic        
"2,2'-((9-(4,5-Dimethyl-1,3-dithiol-2-ylidene)-9H-fluorene-2,7-diyl)bis(ethyne-2,1-diyl-4,1-phenylene))bis(5-(4-((2-ethylhexyl)oxy)phenyl)-1,3,4-oxadiazole) chloroform solvate"
_symmetry_cell_setting           triclinic
_symmetry_space_group_name_H-M   'P -1'
_symmetry_Int_Tables_number      2
_space_group_name_Hall           '-P 1'
loop_
_symmetry_equiv_pos_site_id
_symmetry_equiv_pos_as_xyz
1 x,y,z
2 -x,-y,-z
_cell_length_a                   11.559(3)
_cell_length_b                   13.703(4)
_cell_length_c                   22.000(5)
_cell_angle_alpha                105.61(1)
_cell_angle_beta                 94.59(1)
_cell_angle_gamma                95.14(1)
_cell_volume                     3322.87
_exptl_crystal_colour            yellow
_exptl_crystal_description       block
_chemical_melting_point          '566.9-568.0 K'
_cell_formula_units_Z            2
loop_
_atom_site_label
_atom_site_type_symbol
_atom_site_fract_x
_atom_site_fract_y
_atom_site_fract_z
S1 S 0.27711(6) 0.59664(5) 0.81841(3)
S2 S 0.25391(6) 0.38285(5) 0.74885(3)
O1 O 0.52644(18) 1.41534(14) 1.05441(9)
O2 O 0.44345(15) -0.40996(13) 0.45296(8)
O3 O 0.2556(2) 1.7769(3) 1.19951(16)
O4 O 0.6113(2) -0.81861(17) 0.28970(11)
N1 N 0.7093(2) 1.44760(18) 1.03592(11)
N2 N 0.6706(2) 1.53913(18) 1.06913(11)
N3 N 0.2575(2) -0.40003(17) 0.46751(11)
N4 N 0.2698(2) -0.50059(17) 0.43267(11)
C1 C 0.5380(2) 0.6957(2) 0.82178(12)
H1 H 0.4658 0.7141 0.8363
C2 C 0.6374(3) 0.7669(2) 0.83781(13)
C3 C 0.7449(3) 0.7398(2) 0.81733(14)
H2 H 0.8120 0.7886 0.8290
C4 C 0.7538(3) 0.6428(2) 0.78056(14)
H3 H 0.8266 0.6247 0.7668
C5 C 0.7193(2) 0.4059(2) 0.69325(13)
H4 H 0.7978 0.4335 0.6944
C6 C 0.6828(2) 0.3058(2) 0.66042(13)
H5 H 0.7366 0.2646 0.6387
C7 C 0.5670(2) 0.2643(2) 0.65858(12)
C8 C 0.4863(2) 0.3250(2) 0.68985(12)
H6 H 0.4077 0.2969 0.6882
C9 C 0.4598(2) 0.50690(19) 0.76124(12)
C10 C 0.5461(2) 0.5972(2) 0.78460(12)
C11 C 0.6549(2) 0.5712(2) 0.76351(13)
C12 C 0.6395(2) 0.4661(2) 0.72535(12)
C13 C 0.5221(2) 0.4259(2) 0.72338(12)
C14 C 0.3464(2) 0.49735(19) 0.77389(12)
C15 C 0.1440(2) 0.5245(2) 0.81910(14)
C16 C 0.1329(2) 0.4263(2) 0.78645(14)
C17 C 0.0561(3) 0.5811(2) 0.85730(16)
H7 H -0.0138 0.5341 0.8554
H8 H 0.0350 0.6367 0.8400
H9 H 0.0901 0.6092 0.9014
C18 C 0.0290(3) 0.3477(2) 0.77687(17)
H10 H -0.0276 0.3748 0.8059
H11 H 0.0543 0.2862 0.7857
H12 H -0.0073 0.3309 0.7331
C19 C 0.6284(3) 0.8704(2) 0.87448(14)
C20 C 0.6213(3) 0.9565(2) 0.90250(14)
C21 C 0.6186(3) 1.0626(2) 0.93479(13)
C22 C 0.7166(3) 1.1323(2) 0.93888(14)
H13 H 0.7840 1.1092 0.9205
C23 C 0.7165(3) 1.2336(2) 0.96961(14)
H14 H 0.7837 1.2801 0.9718
C24 C 0.6184(3) 1.2689(2) 0.99720(13)
C25 C 0.5194(3) 1.2007(2) 0.99333(14)
H15 H 0.4516 1.2239 1.0113
C26 C 0.5197(3) 1.0989(2) 0.96221(14)
H16 H 0.4523 1.0524 0.9594
C27 C 0.6228(3) 1.3778(2) 1.02867(13)
C28 C 0.5637(3) 1.5169(2) 1.07906(13)
C29 C 0.4843(3) 1.5850(2) 1.11082(13)
C30 C 0.5254(3) 1.6871(2) 1.13998(13)
H17 H 0.6044 1.7109 1.1385
C31 C 0.4523(3) 1.7536(3) 1.17066(15)
H18 H 0.4811 1.8227 1.1910
C32 C 0.3363(3) 1.7180(3) 1.17153(17)
C33 C 0.2946(3) 1.6169(3) 1.14282(19)
H19 H 0.2151 1.5934 1.1434
C34 C 0.3678(3) 1.5504(3) 1.11296(16)
H20 H 0.3395 1.4810 1.0936
C35 C 0.2913(4) 1.8760(5) 1.2368(2)
H21 H 0.3347 1.9146 1.2190
H22 H 0.3579 1.8802 1.2691
C36 C 0.1695(5) 1.8915(5) 1.2616(3)
H23 H 0.1363 1.8284 1.2717
C37 C 0.1978(13) 1.9732(11) 1.3213(6)
H24 H 0.2329 2.0358 1.3123
H25 H 0.2540 1.9534 1.3510
C38 C 0.0840(6) 1.9965(6) 1.3525(3)
H26 H 0.0353 2.0278 1.3255
H27 H 0.0419 1.9295 1.3509
C39 C 0.0972(7) 2.0584(7) 1.4203(4)
H28 H 0.1390 2.1259 1.4227
H29 H 0.1434 2.0270 1.4482
C48 C -0.0244(3) 2.0718(4) 1.4369(2)
H44 H -0.0237 2.1375 1.4666
H45 H -0.0755 2.0674 1.3995
H46 H -0.0515 2.0199 1.4559
C49 C 0.0861(6) 1.9178(5) 1.2122(4)
H47 H 0.0765 1.8588 1.1739
H48 H 0.0103 1.9225 1.2302
C50 C 0.1173(4) 2.0206(4) 1.1981(2)
H49 H 0.1926 2.0168 1.1829
H50 H 0.0654 2.0247 1.1629
H51 H 0.1202 2.0794 1.2338
C54 C 0.5298(2) 0.1586(2) 0.62572(13)
C55 C 0.5005(2) 0.0704(2) 0.60008(13)
C56 C 0.4657(2) -0.0357(2) 0.56934(12)
C57 C 0.5487(2) -0.1024(2) 0.55006(14)
H59 H 0.6292 -0.0773 0.5572
C58 C 0.5148(2) -0.2047(2) 0.52059(13)
H60 H 0.5720 -0.2491 0.5075
C59 C 0.3972(2) -0.2429(2) 0.51018(12)
C60 C 0.3140(3) -0.1772(2) 0.52918(16)
H61 H 0.2337 -0.2028 0.5225
C61 C 0.3478(3) -0.0753(2) 0.55804(16)
H62 H 0.2903 -0.0311 0.5708
C62 C 0.3605(2) -0.3505(2) 0.47783(12)
C63 C 0.3797(2) -0.5024(2) 0.42519(12)
C64 C 0.4407(2) -0.5853(2) 0.39146(12)
C65 C 0.5604(2) -0.5713(2) 0.38822(13)
H63 H 0.6032 -0.5072 0.4094
C66 C 0.6176(3) -0.6491(2) 0.35434(13)
H64 H 0.6992 -0.6384 0.3524
C67 C 0.5549(3) -0.7429(2) 0.32319(13)
C68 C 0.4347(3) -0.7583(2) 0.32590(14)
H65 H 0.3922 -0.8224 0.3044
C69 C 0.3784(3) -0.6805(2) 0.35987(14)
H66 H 0.2967 -0.6912 0.3617
C77 C 0.5741(5) -0.9098(4) 0.2553(3)
H81 H 0.5066 -0.9072 0.2255
H82 H 0.5474 -0.9513 0.2830
C78 C 0.6682(5) -0.9601(4) 0.2179(3)
H83 H 0.6262 -1.0282 0.1940
C79 C 0.7188(7) -0.9401(7) 0.1832(4)
H84 H 0.6560 -0.9132 0.1616
H85 H 0.7191 -1.0102 0.1556
C80 C 0.8226(9) -0.8901(8) 0.1571(4)
H86 H 0.8291 -0.8155 0.1763
H87 H 0.8951 -0.9141 0.1716
C81 C 0.8169(9) -0.9083(9) 0.0875(4)
H88 H 0.7947 -0.9821 0.0679
H89 H 0.7539 -0.8723 0.0738
C82 C 0.9266(8) -0.8790(7) 0.0624(5)
H90 H 0.9139 -0.8953 0.0161
H91 H 0.9894 -0.9156 0.0746
H92 H 0.9482 -0.8056 0.0803
C83 C 0.7636(5) -0.9891(4) 0.2610(3)
H93 H 0.7730 -0.9389 0.3033
H94 H 0.8389 -0.9857 0.2428
C84 C 0.7331(4) -1.0973(3) 0.2697(2)
H95 H 0.7945 -1.1118 0.2967
H96 H 0.6612 -1.1002 0.2883
H97 H 0.7252 -1.1467 0.2290
Cl1 Cl -0.08173(6) -0.61117(6) 0.43109(3)
Cl2 Cl -0.04611(7) -0.56035(7) 0.31365(4)
Cl3 Cl 0.03569(8) -0.74203(6) 0.33489(5)
C85 C 0.0125(3) -0.6154(2) 0.37184(14)
H101 H 0.0891 -0.5757 0.3919
Cl4 Cl 0.19844(7) 0.35537(6) 0.51538(4)
Cl5 Cl -0.00023(8) 0.30752(8) 0.57800(5)
Cl6 Cl 0.20654(10) 0.20018(7) 0.58128(5)
C86 C 0.1537(3) 0.3167(2) 0.58019(16)
H102 H 0.1879 0.3695 0.6199
Cl7 Cl 0.82424(9) 0.70013(8) 0.95691(5)
Cl8 Cl 0.99153(14) 0.65025(18) 1.04511(10)
Cl9 Cl 0.83859(18) 0.80166(12) 1.08882(8)
C87 C 0.8555(3) 0.6858(3) 1.03320(18)
H103 H 0.7968 0.6318 1.0387
C40? C 0.2375(14) 0.9753(9) 1.2637(6)
H30? H 0.2993 0.0344 1.2814
C41? C 0.183(4) 0.953(2) 1.3201(17)
H31? H 0.2398 0.9294 1.3475
H32? H 0.1214 0.8960 1.3002
C42? C 0.1223(14) 0.0407(12) 1.3596(8)
H33? H 0.1829 0.0962 1.3838
H34? H 0.0677 0.0680 1.3330
C43? C 0.0565(8) 0.9858(7) 1.4022(5)
H35? H 0.1126 0.9697 1.4335
H36? H 0.0078 0.9221 1.3776
C44? C 0.2034(8) 0.9404(8) 1.2777(4)
H37? H 0.2411 0.0120 1.2965
C45? C 0.1691(8) 0.8953(8) 1.3310(4)
H38? H 0.2392 0.9038 1.3617
H39? H 0.1485 0.8211 1.3116
C46? C 0.0696(8) 0.9357(7) 1.3699(5)
H40? H -0.0047 0.9171 1.3416
H41? H 0.0630 0.9007 1.4036
C47? C 0.0843(11) 0.0503(9) 1.4007(8)
H42? H 0.0876 0.0878 1.3681
H43? H 0.1569 0.0713 1.4303
C51? C 0.1569(14) 0.0061(12) 1.2147(8)
H52? H 0.1189 0.0665 1.2355
H53? H 0.2059 0.0245 1.1836
C52? C 0.0641(14) 0.9182(12) 1.1804(9)
H54? H 0.0149 0.9378 1.1483
H55? H 0.0156 0.9008 1.2114
H56? H 0.1024 0.8589 1.1597
C53? C 0.0950(10) 0.9451(9) 1.2353(5)
H57? H 0.0389 0.9842 1.2578
H58? H 0.0604 0.8760 1.2166
C70? C 0.7173(6) -0.8224(5) 0.2897(3)
H67? H 0.7531 -0.8070 0.3341
H68? H 0.7518 -0.7700 0.2711
C71? C 0.7444(6) -0.9258(5) 0.2530(3)
H69? H 0.8303 -0.9268 0.2616
C72? C 0.7208(6) -0.8896(6) 0.1790(3)
H70? H 0.6366 -0.9035 0.1638
H71? H 0.7434 -0.8154 0.1879
C73? C 0.7888(6) -0.9461(5) 0.1269(3)
H72? H 0.7344 -0.9959 0.0936
H73? H 0.8448 -0.9841 0.1448
C74? C 0.8556(9) -0.8727(7) 0.0978(4)
H74? H 0.9135 -0.8256 0.1304
H75? H 0.8004 -0.8319 0.0820
C75? C 0.9189(8) -0.9336(7) 0.0409(4)
H76? H 0.9610 -0.8852 0.0226
H77? H 0.8613 -0.9795 0.0084
H78? H 0.9742 -0.9734 0.0568
C76? C 0.6852(7) -0.0089(5) 0.2762(3)
H79? H 0.6797 -0.9803 0.3220
H80? H 0.6045 -0.0255 0.2549
H98? H 0.6857 -0.1423 0.2867
H99? H 0.7372 -0.1286 0.2255
H100? H 0.8102 -0.0837 0.2918
Cl10? Cl 0.9206(6) 0.7926(4) 1.0920(3)
Cl11? Cl 0.9779(6) 0.6002(4) 1.0197(3)
loop_
_geom_bond_atom_site_label_1
_geom_bond_atom_site_label_2
_geom_bond_site_symmetry_1
_geom_bond_site_symmetry_2
S1 C14 1_555 1_555
S2 C14 1_555 1_555
O1 C27 1_555 1_555
O2 C62 1_555 1_555
O3 C32 1_555 1_555
O4 C67 1_555 1_555
N1 N2 1_555 1_555
N2 C28 1_555 1_555
N3 N4 1_555 1_555
N4 C63 1_555 1_555
C1 H1 1_555 1_555
C2 C1 1_555 1_555
C3 C2 1_555 1_555
H2 C3 1_555 1_555
C4 C3 1_555 1_555
H3 C4 1_555 1_555
C5 H4 1_555 1_555
C6 C5 1_555 1_555
H5 C6 1_555 1_555
C7 C6 1_555 1_555
C8 C7 1_555 1_555
H6 C8 1_555 1_555
C9 C10 1_555 1_555
C10 C1 1_555 1_555
C11 C4 1_555 1_555
C12 C5 1_555 1_555
C13 C8 1_555 1_555
C14 C9 1_555 1_555
C15 S1 1_555 1_555
C16 S2 1_555 1_555
C17 C15 1_555 1_555
H7 C17 1_555 1_555
H8 C17 1_555 1_555
H9 C17 1_555 1_555
C18 C16 1_555 1_555
H10 C18 1_555 1_555
H11 C18 1_555 1_555
H12 C18 1_555 1_555
C19 C2 1_555 1_555
C20 C19 1_555 1_555
C21 C20 1_555 1_555
C22 C21 1_555 1_555
H13 C22 1_555 1_555
C23 C22 1_555 1_555
H14 C23 1_555 1_555
C24 C23 1_555 1_555
C25 C24 1_555 1_555
H15 C25 1_555 1_555
C26 C21 1_555 1_555
H16 C26 1_555 1_555
C27 N1 1_555 1_555
C28 O1 1_555 1_555
C29 C28 1_555 1_555
C30 C29 1_555 1_555
H17 C30 1_555 1_555
C31 C30 1_555 1_555
H18 C31 1_555 1_555
C32 C31 1_555 1_555
C33 C32 1_555 1_555
H19 C33 1_555 1_555
C34 C29 1_555 1_555
H20 C34 1_555 1_555
C35 O3 1_555 1_555
H21 C35 1_555 1_555
H22 C35 1_555 1_555
C36 C35 1_555 1_555
H23 C36 1_555 1_555
C37 C36 1_555 1_555
H24 C37 1_555 1_555
H25 C37 1_555 1_555
C38 C37 1_555 1_555
H26 C38 1_555 1_555
H27 C38 1_555 1_555
C39 C38 1_555 1_555
H28 C39 1_555 1_555
H29 C39 1_555 1_555
C48 C39 1_555 1_555
H44 C48 1_555 1_555
H45 C48 1_555 1_555
H46 C48 1_555 1_555
C49 C36 1_555 1_555
H47 C49 1_555 1_555
H48 C49 1_555 1_555
C50 C49 1_555 1_555
H49 C50 1_555 1_555
H50 C50 1_555 1_555
H51 C50 1_555 1_555
C54 C7 1_555 1_555
C55 C54 1_555 1_555
C56 C55 1_555 1_555
C57 C56 1_555 1_555
H59 C57 1_555 1_555
C58 C57 1_555 1_555
H60 C58 1_555 1_555
C59 C58 1_555 1_555
C60 C59 1_555 1_555
H61 C60 1_555 1_555
C61 C56 1_555 1_555
H62 C61 1_555 1_555
C62 N3 1_555 1_555
C63 O2 1_555 1_555
C64 C63 1_555 1_555
C65 C64 1_555 1_555
H63 C65 1_555 1_555
C66 C65 1_555 1_555
H64 C66 1_555 1_555
C67 C66 1_555 1_555
C68 C67 1_555 1_555
H65 C68 1_555 1_555
C69 C64 1_555 1_555
H66 C69 1_555 1_555
C77 O4 1_555 1_555
H81 C77 1_555 1_555
H82 C77 1_555 1_555
C78 C77 1_555 1_555
H83 C78 1_555 1_555
C79 C78 1_555 1_555
H84 C79 1_555 1_555
H85 C79 1_555 1_555
C80 C79 1_555 1_555
H86 C80 1_555 1_555
H87 C80 1_555 1_555
C81 C80 1_555 1_555
H88 C81 1_555 1_555
H89 C81 1_555 1_555
C82 C81 1_555 1_555
H90 C82 1_555 1_555
H91 C82 1_555 1_555
H92 C82 1_555 1_555
C83 C78 1_555 1_555
H93 C83 1_555 1_555
H94 C83 1_555 1_555
C84 C83 1_555 1_555
H95 C84 1_555 1_555
H96 C84 1_555 1_555
H97 C84 1_555 1_555
Cl1 C85 1_555 1_555
Cl2 C85 1_555 1_555
Cl3 C85 1_555 1_555
C85 H101 1_555 1_555
Cl4 C86 1_555 1_555
Cl5 C86 1_555 1_555
Cl6 C86 1_555 1_555
C86 H102 1_555 1_555
Cl7 C87 1_555 1_555
Cl8 C87 1_555 1_555
Cl9 C87 1_555 1_555
C87 H103 1_555 1_555
C9 C13 1_555 1_555
C10 C11 1_555 1_555
C11 C12 1_555 1_555
C12 C13 1_555 1_555
C15 C16 1_555 1_555
C24 C27 1_555 1_555
C25 C26 1_555 1_555
C33 C34 1_555 1_555
C59 C62 1_555 1_555
C60 C61 1_555 1_555
C68 C69 1_555 1_555

#END
