
#######################################################################
#
#                 Cambridge Crystallographic Data Centre
#                                CCDC 
#
#######################################################################
#
# If this CIF has been generated from an entry in the Cambridge 
# Structural Database, then it will include bibliographic, chemical, 
# crystal, experimental, refinement or atomic coordinate data resulting 
# from the CCDC's data processing and validation procedures.
#
#######################################################################

data_WEFDUJ
_chemical_formula_moiety         'C29 H26 O7'
_chemical_name_systematic        
'methyl 4-(2-(8-(4-methoxyphenyl)-7,8-dihydro-6H-[1,3]dioxolo[4,5-g]chromen-6-ylidene)-3-oxobutyl)benzoate unknown solvate'
_symmetry_cell_setting           monoclinic
_symmetry_space_group_name_H-M   'P 21'
_symmetry_Int_Tables_number      4
_space_group_name_Hall           'P 2yb'
loop_
_symmetry_equiv_pos_site_id
_symmetry_equiv_pos_as_xyz
1 x,y,z
2 -x,1/2+y,-z
_cell_length_a                   11.2281(5)
_cell_length_b                   9.6521(5)
_cell_length_c                   24.3706(11)
_cell_angle_alpha                90
_cell_angle_beta                 101.793(2)
_cell_angle_gamma                90
_cell_volume                     2585.41
_exptl_crystal_colour            'light yellow'
_exptl_crystal_description       plate
_cell_formula_units_Z            4
loop_
_atom_site_label
_atom_site_type_symbol
_atom_site_fract_x
_atom_site_fract_y
_atom_site_fract_z
O1 O 0.1009(2) 0.1592(2) 0.28240(10)
O2 O 0.3068(2) 0.1125(2) 0.29629(9)
O3 O 0.14869(19) 0.4820(2) 0.43616(9)
O4 O 0.4760(2) 0.2041(2) 0.67558(10)
O5 O 0.3262(2) 0.8084(3) 0.53927(12)
O6 O -0.1475(2) 0.2107(2) 0.68291(9)
O7 O 0.0384(2) 0.1182(2) 0.68816(10)
C1 C 0.1883(3) 0.0622(3) 0.27054(14)
H1 H 0.1814 0.0534 0.2295
H2 H 0.1743 -0.0301 0.2858
C2 C 0.2852(3) 0.2066(3) 0.33594(13)
C3 C 0.3680(3) 0.2713(3) 0.37709(13)
H3 H 0.4526 0.2523 0.3822
C4 C 0.3231(3) 0.3673(3) 0.41153(13)
C5 C 0.4037(3) 0.4461(3) 0.45798(14)
H4 H 0.4853 0.4572 0.4481
C6 C 0.3473(3) 0.5913(3) 0.46012(15)
H5 H 0.3964 0.6451 0.4913
H6 H 0.3482 0.6412 0.4247
C7 C 0.2195(3) 0.5797(3) 0.46839(13)
C8 C 0.1990(3) 0.3933(3) 0.40170(13)
C9 C 0.1146(3) 0.3289(3) 0.35924(13)
H7 H 0.0301 0.3493 0.3528
C10 C 0.1620(3) 0.2340(3) 0.32750(13)
C11 C 0.4214(3) 0.3751(3) 0.51496(13)
C12 C 0.5034(3) 0.4300(3) 0.56075(15)
H8 H 0.5487 0.5104 0.5556
C13 C 0.5204(3) 0.3710(3) 0.61285(14)
H9 H 0.5774 0.4100 0.6431
C14 C 0.4540(3) 0.2536(3) 0.62155(13)
C15 C 0.3739(3) 0.1964(3) 0.57726(14)
H10 H 0.3293 0.1157 0.5827
C16 C 0.3579(3) 0.2565(3) 0.52442(13)
H11 H 0.3025 0.2156 0.4941
C17 C 0.1632(3) 0.6522(3) 0.50336(14)
C18 C 0.0323(3) 0.6188(3) 0.50565(14)
H12 H -0.0096 0.5861 0.4682
H13 H -0.0082 0.7054 0.5136
C19 C 0.0153(3) 0.5103(3) 0.54899(12)
C20 C 0.1096(3) 0.4248(3) 0.57507(13)
H14 H 0.1880 0.4341 0.5664
C21 C 0.0905(3) 0.3261(3) 0.61353(13)
H15 H 0.1560 0.2684 0.6309
C22 C -0.0231(3) 0.3102(3) 0.62708(12)
C23 C -0.1178(3) 0.3952(3) 0.60099(12)
H16 H -0.1962 0.3856 0.6095
C24 C -0.0982(3) 0.4936(3) 0.56267(13)
H17 H -0.1637 0.5511 0.5452
C25 C 0.4027(4) 0.0930(4) 0.68757(17)
H18 H 0.3166 0.1179 0.6758
H19 H 0.4213 0.0742 0.7279
H20 H 0.4195 0.0101 0.6672
C26 C 0.2253(3) 0.7616(3) 0.54072(15)
C27 C 0.1570(4) 0.8226(4) 0.5819(2)
H21 H 0.1334 0.7486 0.6050
H22 H 0.0839 0.8698 0.5615
H23 H 0.2091 0.8894 0.6059
C28 C -0.0381(3) 0.2019(3) 0.66901(12)
C29 C -0.1694(4) 0.1157(4) 0.72552(16)
H24 H -0.1638 0.0203 0.7126
H25 H -0.2508 0.1319 0.7329
H26 H -0.1084 0.1304 0.7600
O8 O 0.6661(2) 0.3368(2) -0.20822(9)
O9 O 0.4726(2) 0.3639(2) -0.18966(10)
O10 O 0.78874(17) 0.0167(2) -0.05552(8)
O11 O 0.73429(19) -0.3227(2) 0.04822(10)
O12 O 1.3490(2) 0.2834(2) 0.17363(9)
O13 O 1.1767(2) 0.3803(2) 0.18877(9)
O14 O 0.7165(3) 0.3298(2) 0.18373(10)
C30 C 0.5574(3) 0.4192(3) -0.22059(14)
H27 H 0.5764 0.5168 -0.2097
H28 H 0.5221 0.4162 -0.2613
C31 C 0.6543(3) 0.2575(3) -0.16263(11)
C32 C 0.7374(3) 0.1682(3) -0.13257(12)
H29 H 0.8151 0.1532 -0.1413
C33 C 0.7003(3) 0.1000(3) -0.08788(12)
C34 C 0.7565(3) -0.0829(3) -0.02058(12)
C35 C 0.6234(3) -0.0988(3) -0.02202(13)
H30 H 0.6116 -0.1498 0.0117
H31 H 0.5854 -0.1534 -0.0554
C36 C 0.5615(2) 0.0449(3) -0.02401(12)
H32 H 0.4716 0.0308 -0.0293
C37 C 0.5876(3) 0.1185(3) -0.07504(12)
C38 C 0.5030(3) 0.2068(3) -0.10828(12)
H33 H 0.4235 0.2186 -0.1012
C39 C 0.5394(3) 0.2754(3) -0.15127(12)
C40 C 0.8503(3) -0.1520(3) 0.01099(12)
C41 C 0.9801(3) -0.1153(3) 0.00794(13)
H34 H 0.9806 -0.0814 -0.0303
H35 H 1.0294 -0.2011 0.0137
C42 C 1.0416(3) -0.0071(3) 0.04973(11)
C43 C 1.1678(3) 0.0074(3) 0.05872(12)
H36 H 1.2126 -0.0511 0.0389
C44 C 1.2290(3) 0.1036(3) 0.09538(12)
H37 H 1.3149 0.1114 0.1006
C45 C 1.1649(3) 0.1900(3) 0.12495(11)
C46 C 1.0394(3) 0.1774(3) 0.11701(12)
H38 H 0.9952 0.2360 0.1370
C47 C 0.9779(3) 0.0791(3) 0.07974(12)
H39 H 0.8920 0.0706 0.0747
C48 C 0.6051(3) 0.1258(3) 0.03031(12)
C49 C 0.6667(3) 0.2504(3) 0.03253(12)
H40 H 0.6831 0.2877 -0.0012
C50 C 0.7057(3) 0.3232(3) 0.08220(12)
H41 H 0.7474 0.4088 0.0822
C51 C 0.6828(3) 0.2690(3) 0.13188(13)
C52 C 0.6212(4) 0.1438(3) 0.13081(14)
H42 H 0.6058 0.1058 0.1646
C53 C 0.5825(3) 0.0744(3) 0.08103(14)
H43 H 0.5395 -0.0104 0.0810
C54 C 1.2276(3) 0.2955(3) 0.16559(11)
C55 C 1.4184(3) 0.3776(3) 0.21369(14)
H44 H 1.3998 0.4732 0.2013
H45 H 1.5055 0.3600 0.2166
H46 H 1.3973 0.3637 0.2504
C56 C 0.8312(3) -0.2633(3) 0.04976(13)
C57 C 0.9405(4) -0.3084(4) 0.0924(2)
H47 H 0.9140 -0.3627 0.1217
H48 H 0.9854 -0.2266 0.1092
H49 H 0.9934 -0.3652 0.0742
C58 C 0.7866(4) 0.4539(4) 0.18750(16)
H50 H 0.8629 0.4355 0.1752
H51 H 0.8047 0.4864 0.2264
H52 H 0.7404 0.5252 0.1635
loop_
_geom_bond_atom_site_label_1
_geom_bond_atom_site_label_2
_geom_bond_site_symmetry_1
_geom_bond_site_symmetry_2
O1 C1 1_555 1_555
O2 C1 1_555 1_555
O3 C7 1_555 1_555
O4 C14 1_555 1_555
O5 C26 1_555 1_555
O6 C28 1_555 1_555
O7 C28 1_555 1_555
C1 H1 1_555 1_555
H2 C1 1_555 1_555
C2 O2 1_555 1_555
C3 C2 1_555 1_555
H3 C3 1_555 1_555
C4 C3 1_555 1_555
C5 C4 1_555 1_555
H4 C5 1_555 1_555
C6 C5 1_555 1_555
H5 C6 1_555 1_555
H6 C6 1_555 1_555
C7 C6 1_555 1_555
C8 O3 1_555 1_555
C9 C8 1_555 1_555
H7 C9 1_555 1_555
C10 O1 1_555 1_555
C11 C5 1_555 1_555
C12 C11 1_555 1_555
H8 C12 1_555 1_555
C13 C12 1_555 1_555
H9 C13 1_555 1_555
C14 C13 1_555 1_555
C15 C14 1_555 1_555
H10 C15 1_555 1_555
C16 C11 1_555 1_555
H11 C16 1_555 1_555
C17 C7 1_555 1_555
C18 C17 1_555 1_555
H12 C18 1_555 1_555
H13 C18 1_555 1_555
C19 C18 1_555 1_555
C20 C19 1_555 1_555
H14 C20 1_555 1_555
C21 C20 1_555 1_555
H15 C21 1_555 1_555
C22 C21 1_555 1_555
C23 C22 1_555 1_555
H16 C23 1_555 1_555
C24 C19 1_555 1_555
H17 C24 1_555 1_555
C25 O4 1_555 1_555
H18 C25 1_555 1_555
H19 C25 1_555 1_555
H20 C25 1_555 1_555
C26 C17 1_555 1_555
C27 C26 1_555 1_555
H21 C27 1_555 1_555
H22 C27 1_555 1_555
H23 C27 1_555 1_555
C28 C22 1_555 1_555
C29 O6 1_555 1_555
H24 C29 1_555 1_555
H25 C29 1_555 1_555
H26 C29 1_555 1_555
O8 C30 1_555 1_555
O9 C30 1_555 1_555
O10 C33 1_555 1_555
O11 C56 1_555 1_555
O12 C54 1_555 1_555
O13 C54 1_555 1_555
O14 C51 1_555 1_555
C30 H27 1_555 1_555
H28 C30 1_555 1_555
C31 O8 1_555 1_555
C32 C31 1_555 1_555
H29 C32 1_555 1_555
C33 C32 1_555 1_555
C34 O10 1_555 1_555
C35 C34 1_555 1_555
H30 C35 1_555 1_555
H31 C35 1_555 1_555
C36 C35 1_555 1_555
H32 C36 1_555 1_555
C37 C33 1_555 1_555
C38 C37 1_555 1_555
H33 C38 1_555 1_555
C39 O9 1_555 1_555
C40 C34 1_555 1_555
C41 C40 1_555 1_555
H34 C41 1_555 1_555
H35 C41 1_555 1_555
C42 C41 1_555 1_555
C43 C42 1_555 1_555
H36 C43 1_555 1_555
C44 C43 1_555 1_555
H37 C44 1_555 1_555
C45 C44 1_555 1_555
C46 C45 1_555 1_555
H38 C46 1_555 1_555
C47 C42 1_555 1_555
H39 C47 1_555 1_555
C48 C36 1_555 1_555
C49 C48 1_555 1_555
H40 C49 1_555 1_555
C50 C49 1_555 1_555
H41 C50 1_555 1_555
C51 C50 1_555 1_555
C52 C51 1_555 1_555
H42 C52 1_555 1_555
C53 C48 1_555 1_555
H43 C53 1_555 1_555
C54 C45 1_555 1_555
C55 O12 1_555 1_555
H44 C55 1_555 1_555
H45 C55 1_555 1_555
H46 C55 1_555 1_555
C56 C40 1_555 1_555
C57 C56 1_555 1_555
H47 C57 1_555 1_555
H48 C57 1_555 1_555
H49 C57 1_555 1_555
C58 O14 1_555 1_555
H50 C58 1_555 1_555
H51 C58 1_555 1_555
H52 C58 1_555 1_555
C2 C10 1_555 1_555
C4 C8 1_555 1_555
C9 C10 1_555 1_555
C15 C16 1_555 1_555
C23 C24 1_555 1_555
C31 C39 1_555 1_555
C36 C37 1_555 1_555
C38 C39 1_555 1_555
C46 C47 1_555 1_555
C52 C53 1_555 1_555

#END
