
#######################################################################
#
#                 Cambridge Crystallographic Data Centre
#                                CCDC 
#
#######################################################################
#
# If this CIF has been generated from an entry in the Cambridge 
# Structural Database, then it will include bibliographic, chemical, 
# crystal, experimental, refinement or atomic coordinate data resulting 
# from the CCDC's data processing and validation procedures.
#
#######################################################################

data_WEFDOC
_chemical_formula_moiety         'C21 H17 N1 O1'
_chemical_name_systematic        2,5,5-Triphenyl-4,5-dihydro-1,3-oxazole
_symmetry_cell_setting           triclinic
_symmetry_space_group_name_H-M   'P -1'
_symmetry_Int_Tables_number      2
_space_group_name_Hall           '-P 1'
loop_
_symmetry_equiv_pos_site_id
_symmetry_equiv_pos_as_xyz
1 x,y,z
2 -x,-y,-z
_cell_length_a                   10.4455(3)
_cell_length_b                   10.4752(3)
_cell_length_c                   29.5012(10)
_cell_angle_alpha                100.050(2)
_cell_angle_beta                 99.953(2)
_cell_angle_gamma                90.017(2)
_cell_volume                     3129.07
_exptl_crystal_colour            colorless
_exptl_crystal_description       block
_cell_formula_units_Z            8
loop_
_atom_site_label
_atom_site_type_symbol
_atom_site_fract_x
_atom_site_fract_y
_atom_site_fract_z
C1 C 0.57575(13) 0.31816(14) 0.45057(5)
H1 H 0.5352 0.3892 0.4384
C2 C 0.53478(15) 0.27543(16) 0.48774(6)
H2 H 0.4670 0.3184 0.5014
C3 C 0.59210(15) 0.17020(17) 0.50517(5)
H3 H 0.5641 0.1419 0.5309
C4 C 0.68997(13) 0.10663(15) 0.48511(5)
H4 H 0.7281 0.0337 0.4967
C5 C 0.73282(11) 0.14932(13) 0.44798(4)
H5 H 0.8001 0.1055 0.4342
C6 C 0.67706(11) 0.25623(12) 0.43106(4)
C7 C 0.72485(11) 0.30867(11) 0.39381(4)
C8 C 0.75422(11) 0.42527(12) 0.34137(4)
H6 H 0.7821 0.5173 0.3529
H7 H 0.7132 0.4151 0.3080
C9 C 0.87253(11) 0.33527(11) 0.34758(4)
C10 C 0.86363(10) 0.22897(11) 0.30496(4)
C11 C 0.84740(11) 0.09844(12) 0.30718(5)
H8 H 0.8449 0.0729 0.3364
C12 C 0.83474(12) 0.00519(13) 0.26661(5)
H9 H 0.8234 -0.0838 0.2683
C13 C 0.83854(12) 0.04109(13) 0.22393(5)
H10 H 0.8282 -0.0228 0.1963
C14 C 0.85758(12) 0.17113(14) 0.22151(5)
H11 H 0.8621 0.1960 0.1924
C15 C 0.86992(12) 0.26389(12) 0.26172(4)
H12 H 0.8828 0.3525 0.2600
C16 C 1.00482(11) 0.40630(11) 0.36227(4)
C17 C 1.11261(12) 0.36076(13) 0.34327(5)
H13 H 1.1043 0.2842 0.3202
C18 C 1.23236(13) 0.42637(14) 0.35768(6)
H14 H 1.3051 0.3942 0.3444
C19 C 1.24664(13) 0.53747(14) 0.39108(5)
H15 H 1.3285 0.5824 0.4006
C20 C 1.14009(13) 0.58307(14) 0.41071(5)
H16 H 1.1491 0.6591 0.4340
C21 C 1.02049(12) 0.51751(13) 0.39629(5)
H17 H 0.9482 0.5493 0.4099
N1 N 0.66335(10) 0.38437(10) 0.36900(4)
O1 O 0.84887(7) 0.27783(8) 0.38773(3)
C22 C 0.87609(13) 0.81976(14) 0.44954(5)
H18 H 0.9044 0.8899 0.4368
C23 C 0.95379(14) 0.77908(16) 0.48685(6)
H19 H 1.0350 0.8226 0.5001
C24 C 0.91470(15) 0.67571(16) 0.50520(5)
H20 H 0.9682 0.6493 0.5312
C25 C 0.79731(14) 0.61090(15) 0.48558(5)
H21 H 0.7712 0.5385 0.4976
C26 C 0.71757(12) 0.65187(13) 0.44829(4)
H22 H 0.6369 0.6075 0.4349
C27 C 0.75567(11) 0.75737(12) 0.43056(4)
C28 C 0.67099(10) 0.80729(11) 0.39287(4)
C29 C 0.58830(11) 0.91865(12) 0.33881(4)
H23 H 0.5978 0.9041 0.3055
H24 H 0.5696 1.0110 0.3486
C30 C 0.47709(10) 0.82880(11) 0.34627(4)
C31 C 0.36060(11) 0.90103(11) 0.36202(4)
C32 C 0.23357(12) 0.85478(13) 0.34492(5)
H25 H 0.2179 0.7764 0.3228
C33 C 0.12892(12) 0.92198(14) 0.35985(5)
H26 H 0.0426 0.8897 0.3475
C34 C 0.14988(13) 1.03504(13) 0.39237(5)
H27 H 0.0784 1.0810 0.4023
C35 C 0.27588(13) 1.08108(13) 0.41040(5)
H28 H 0.2911 1.1584 0.4331
C36 C 0.38023(12) 1.01437(13) 0.39536(4)
H29 H 0.4664 1.0466 0.4080
C37 C 0.44131(10) 0.72150(11) 0.30417(4)
C38 C 0.38425(11) 0.75454(12) 0.26131(4)
H30 H 0.3672 0.8427 0.2594
C39 C 0.35255(11) 0.66022(13) 0.22177(4)
H31 H 0.3117 0.6835 0.1931
C40 C 0.38034(12) 0.53064(13) 0.22380(5)
H32 H 0.3608 0.4660 0.1965
C41 C 0.43654(12) 0.49762(12) 0.26597(5)
H33 H 0.4551 0.4096 0.2676
C42 C 0.46629(11) 0.59149(12) 0.30608(4)
H34 H 0.5038 0.5671 0.3349
N2 N 0.70652(9) 0.88333(10) 0.36790(4)
O2 O 0.54199(7) 0.77220(8) 0.38636(3)
C43 C 0.17476(14) -0.38011(13) 0.04853(5)
H35 H 0.1039 -0.4094 0.0607
C44 C 0.21535(16) -0.45492(15) 0.01049(6)
H36 H 0.1711 -0.5350 -0.0037
C45 C 0.31991(17) -0.41431(15) -0.00721(5)
H37 H 0.3464 -0.4658 -0.0336
C46 C 0.38561(15) -0.29865(14) 0.01369(5)
H38 H 0.4587 -0.2716 0.0022
C47 C 0.34449(12) -0.22165(12) 0.05175(4)
H39 H 0.3892 -0.1418 0.0659
C48 C 0.23815(12) -0.26147(12) 0.06897(4)
C49 C 0.18836(11) -0.17983(11) 0.10759(4)
C50 C 0.07470(12) -0.10173(12) 0.16144(5)
H40 H 0.0887 -0.1145 0.1944
H41 H -0.0177 -0.0820 0.1519
C51 C 0.16534(11) 0.01044(11) 0.15567(4)
C52 C 0.09483(11) 0.12723(11) 0.13986(4)
C53 C 0.14164(13) 0.25322(13) 0.15773(5)
H42 H 0.2180 0.2679 0.1809
C54 C 0.07813(14) 0.35821(14) 0.14209(6)
H43 H 0.1114 0.4438 0.1547
C55 C -0.03287(14) 0.33899(14) 0.10841(5)
H44 H -0.0764 0.4109 0.0979
C56 C -0.07987(13) 0.21427(14) 0.09013(5)
H45 H -0.1561 0.2002 0.0669
C57 C -0.01642(12) 0.10904(13) 0.10555(5)
H46 H -0.0494 0.0236 0.0925
C58 C 0.26998(11) 0.04975(11) 0.19851(4)
C59 C 0.23257(12) 0.08552(12) 0.24198(4)
H47 H 0.1435 0.0781 0.2445
C60 C 0.32341(13) 0.13162(12) 0.28151(5)
H48 H 0.2971 0.1545 0.3111
C61 C 0.45351(13) 0.14429(12) 0.27769(5)
H49 H 0.5160 0.1788 0.3045
C62 C 0.49166(12) 0.10670(13) 0.23499(5)
H50 H 0.5809 0.1137 0.2327
C63 C 0.40114(12) 0.05872(12) 0.19534(5)
H51 H 0.4285 0.0321 0.1661
N3 N 0.10936(10) -0.21770(10) 0.13107(4)
O3 O 0.22638(8) -0.05214(8) 0.11624(3)
C64 C 0.84586(13) 0.77172(12) 0.05059(4)
H52 H 0.8907 0.7062 0.0649
C65 C 0.88787(15) 0.81219(14) 0.01282(5)
H53 H 0.9617 0.7747 0.0016
C66 C 0.82158(17) 0.90725(16) -0.00826(5)
H54 H 0.8488 0.9336 -0.0344
C67 C 0.71589(16) 0.96359(16) 0.00884(6)
H55 H 0.6714 1.0293 -0.0055
C68 C 0.67385(14) 0.92553(14) 0.04672(5)
H56 H 0.6020 0.9658 0.0586
C69 C 0.73819(12) 0.82735(12) 0.06725(4)
C70 C 0.68808(11) 0.78343(11) 0.10568(4)
C71 C 0.57677(12) 0.75912(12) 0.16040(5)
H57 H 0.4843 0.7297 0.1516
H58 H 0.5923 0.8051 0.1932
C72 C 0.66774(11) 0.64111(11) 0.15438(4)
C73 C 0.59775(11) 0.50858(11) 0.13904(4)
C74 C 0.48437(12) 0.49309(13) 0.10562(5)
H59 H 0.4501 0.5659 0.0930
C75 C 0.42072(14) 0.37285(14) 0.09049(5)
H60 H 0.3432 0.3642 0.0678
C76 C 0.46987(13) 0.26569(13) 0.10830(5)
H61 H 0.4260 0.1835 0.0981
C77 C 0.58306(14) 0.27889(13) 0.14098(5)
H62 H 0.6177 0.2054 0.1531
C78 C 0.64681(12) 0.39966(12) 0.15633(5)
H63 H 0.7246 0.4077 0.1788
C79 C 0.77398(11) 0.64606(11) 0.19679(4)
C80 C 0.73781(12) 0.65466(12) 0.24061(4)
H64 H 0.6485 0.6595 0.2433
C81 C 0.83142(13) 0.65621(12) 0.28019(5)
H65 H 0.8061 0.6644 0.3100
C82 C 0.96196(13) 0.64588(12) 0.27668(5)
H66 H 1.0258 0.6441 0.3037
C83 C 0.99818(12) 0.63816(14) 0.23323(5)
H67 H 1.0874 0.6322 0.2306
C84 C 0.90511(12) 0.63912(13) 0.19353(5)
H68 H 0.9311 0.6350 0.1640
N4 N 0.60902(10) 0.84408(10) 0.12938(4)
O4 O 0.72724(8) 0.66427(8) 0.11451(3)
loop_
_geom_bond_atom_site_label_1
_geom_bond_atom_site_label_2
_geom_bond_site_symmetry_1
_geom_bond_site_symmetry_2
C1 H1 1_555 1_555
C2 C1 1_555 1_555
H2 C2 1_555 1_555
C3 C2 1_555 1_555
H3 C3 1_555 1_555
C4 C3 1_555 1_555
H4 C4 1_555 1_555
C5 C4 1_555 1_555
H5 C5 1_555 1_555
C6 C1 1_555 1_555
C7 C6 1_555 1_555
C8 H6 1_555 1_555
H7 C8 1_555 1_555
C9 C8 1_555 1_555
C10 C9 1_555 1_555
C11 C10 1_555 1_555
H8 C11 1_555 1_555
C12 C11 1_555 1_555
H9 C12 1_555 1_555
C13 C12 1_555 1_555
H10 C13 1_555 1_555
C14 C13 1_555 1_555
H11 C14 1_555 1_555
C15 C10 1_555 1_555
H12 C15 1_555 1_555
C16 C9 1_555 1_555
C17 C16 1_555 1_555
H13 C17 1_555 1_555
C18 C17 1_555 1_555
H14 C18 1_555 1_555
C19 C18 1_555 1_555
H15 C19 1_555 1_555
C20 C19 1_555 1_555
H16 C20 1_555 1_555
C21 C16 1_555 1_555
H17 C21 1_555 1_555
C22 H18 1_555 1_555
C23 C22 1_555 1_555
H19 C23 1_555 1_555
C24 C23 1_555 1_555
H20 C24 1_555 1_555
C25 C24 1_555 1_555
H21 C25 1_555 1_555
C26 C25 1_555 1_555
H22 C26 1_555 1_555
C27 C22 1_555 1_555
C28 C27 1_555 1_555
C29 H23 1_555 1_555
H24 C29 1_555 1_555
C30 C29 1_555 1_555
C31 C30 1_555 1_555
C32 C31 1_555 1_555
H25 C32 1_555 1_555
C33 C32 1_555 1_555
H26 C33 1_555 1_555
C34 C33 1_555 1_555
H27 C34 1_555 1_555
C35 C34 1_555 1_555
H28 C35 1_555 1_555
C36 C31 1_555 1_555
H29 C36 1_555 1_555
C37 C30 1_555 1_555
C38 C37 1_555 1_555
H30 C38 1_555 1_555
C39 C38 1_555 1_555
H31 C39 1_555 1_555
C40 C39 1_555 1_555
H32 C40 1_555 1_555
C41 C40 1_555 1_555
H33 C41 1_555 1_555
C42 C37 1_555 1_555
H34 C42 1_555 1_555
C43 H35 1_555 1_555
C44 C43 1_555 1_555
H36 C44 1_555 1_555
C45 C44 1_555 1_555
H37 C45 1_555 1_555
C46 C45 1_555 1_555
H38 C46 1_555 1_555
C47 C46 1_555 1_555
H39 C47 1_555 1_555
C48 C43 1_555 1_555
C49 C48 1_555 1_555
C50 H40 1_555 1_555
H41 C50 1_555 1_555
C51 C50 1_555 1_555
C52 C51 1_555 1_555
C53 C52 1_555 1_555
H42 C53 1_555 1_555
C54 C53 1_555 1_555
H43 C54 1_555 1_555
C55 C54 1_555 1_555
H44 C55 1_555 1_555
C56 C55 1_555 1_555
H45 C56 1_555 1_555
C57 C52 1_555 1_555
H46 C57 1_555 1_555
C58 C51 1_555 1_555
C59 C58 1_555 1_555
H47 C59 1_555 1_555
C60 C59 1_555 1_555
H48 C60 1_555 1_555
C61 C60 1_555 1_555
H49 C61 1_555 1_555
C62 C61 1_555 1_555
H50 C62 1_555 1_555
C63 C58 1_555 1_555
H51 C63 1_555 1_555
C64 H52 1_555 1_555
C65 C64 1_555 1_555
H53 C65 1_555 1_555
C66 C65 1_555 1_555
H54 C66 1_555 1_555
C67 C66 1_555 1_555
H55 C67 1_555 1_555
C68 C67 1_555 1_555
H56 C68 1_555 1_555
C69 C64 1_555 1_555
C70 C69 1_555 1_555
C71 H57 1_555 1_555
H58 C71 1_555 1_555
C72 C71 1_555 1_555
C73 C72 1_555 1_555
C74 C73 1_555 1_555
H59 C74 1_555 1_555
C75 C74 1_555 1_555
H60 C75 1_555 1_555
C76 C75 1_555 1_555
H61 C76 1_555 1_555
C77 C76 1_555 1_555
H62 C77 1_555 1_555
C78 C73 1_555 1_555
H63 C78 1_555 1_555
C79 C72 1_555 1_555
C80 C79 1_555 1_555
H64 C80 1_555 1_555
C81 C80 1_555 1_555
H65 C81 1_555 1_555
C82 C81 1_555 1_555
H66 C82 1_555 1_555
C83 C82 1_555 1_555
H67 C83 1_555 1_555
C84 C79 1_555 1_555
H68 C84 1_555 1_555
N1 C7 1_555 1_555
N2 C28 1_555 1_555
N3 C49 1_555 1_555
N4 C70 1_555 1_555
O1 C7 1_555 1_555
O2 C28 1_555 1_555
O3 C49 1_555 1_555
O4 C70 1_555 1_555
C5 C6 1_555 1_555
C8 N1 1_555 1_555
C9 O1 1_555 1_555
C14 C15 1_555 1_555
C20 C21 1_555 1_555
C26 C27 1_555 1_555
C29 N2 1_555 1_555
C30 O2 1_555 1_555
C35 C36 1_555 1_555
C41 C42 1_555 1_555
C47 C48 1_555 1_555
C50 N3 1_555 1_555
C51 O3 1_555 1_555
C56 C57 1_555 1_555
C62 C63 1_555 1_555
C68 C69 1_555 1_555
C71 N4 1_555 1_555
C72 O4 1_555 1_555
C77 C78 1_555 1_555
C83 C84 1_555 1_555

#END
