
#######################################################################
#
#                 Cambridge Crystallographic Data Centre
#                                CCDC 
#
#######################################################################
#
# If this CIF has been generated from an entry in the Cambridge 
# Structural Database, then it will include bibliographic, chemical, 
# crystal, experimental, refinement or atomic coordinate data resulting 
# from the CCDC's data processing and validation procedures.
#
#######################################################################

data_WEFDUI
_chemical_formula_moiety         'C21 H21 N1 O1'
_chemical_name_systematic        2-(Benzylamino)-1,1-diphenylethanol
_symmetry_cell_setting           monoclinic
_symmetry_space_group_name_H-M   'P 21'
_symmetry_Int_Tables_number      4
_space_group_name_Hall           'P 2yb'
loop_
_symmetry_equiv_pos_site_id
_symmetry_equiv_pos_as_xyz
1 x,y,z
2 -x,1/2+y,-z
_cell_length_a                   12.3032(12)
_cell_length_b                   5.6451(5)
_cell_length_c                   12.6251(9)
_cell_angle_alpha                90
_cell_angle_beta                 111.284(3)
_cell_angle_gamma                90
_cell_volume                     817.041
_exptl_crystal_colour            colorless
_exptl_crystal_description       block
_cell_formula_units_Z            2
loop_
_atom_site_label
_atom_site_type_symbol
_atom_site_fract_x
_atom_site_fract_y
_atom_site_fract_z
C1 C 0.20485(14) 1.0330(3) 1.03916(15)
C2 C 0.27665(13) 1.0309(3) 0.96271(14)
C3 C 0.34857(14) 0.8380(3) 0.96577(15)
H1 H 0.3537 0.7108 1.0166
C4 C 0.41291(15) 0.8300(4) 0.89511(15)
H2 H 0.4619 0.6983 0.8979
C5 C 0.40508(15) 1.0151(4) 0.82063(15)
H3 H 0.4482 1.0095 0.7717
C6 C 0.33479(15) 1.2079(3) 0.81736(15)
H4 H 0.3303 1.3352 0.7667
C7 C 0.27035(14) 1.2161(3) 0.88824(14)
H5 H 0.2220 1.3489 0.8856
C8 C 0.28496(14) 0.9851(3) 1.16251(14)
C9 C 0.36966(14) 1.1543(4) 1.21604(15)
H6 H 0.3734 1.2961 1.1770
C10 C 0.44824(16) 1.1182(4) 1.32542(16)
H7 H 0.5068 1.2330 1.3602
C11 C 0.44181(16) 0.9151(4) 1.38448(16)
H8 H 0.4953 0.8911 1.4598
C12 C 0.35710(16) 0.7475(4) 1.33316(16)
H9 H 0.3519 0.6086 1.3736
C13 C 0.27948(15) 0.7818(4) 1.22239(15)
H10 H 0.2221 0.6649 1.1873
C14 C 0.10523(14) 0.8510(3) 0.99880(14)
H11 H 0.1396 0.6924 0.9989
H12 H 0.0658 0.8474 1.0546
C15 C 0.03507(15) 0.7657(4) 0.79137(14)
H13 H 0.0200 0.5947 0.7966
H14 H 0.1169 0.7849 0.7969
C16 C -0.04599(15) 0.8617(4) 0.67938(15)
C17 C -0.14831(15) 0.7451(4) 0.61638(16)
H15 H -0.1688 0.6025 0.6445
C18 C -0.22134(18) 0.8357(4) 0.51209(17)
H16 H -0.2906 0.7534 0.4688
C19 C -0.1931(2) 1.0449(4) 0.47167(17)
H17 H -0.2433 1.1072 0.4009
C20 C -0.09194(19) 1.1640(4) 0.53391(17)
H18 H -0.0725 1.3082 0.5063
C21 C -0.01897(17) 1.0718(4) 0.63690(16)
H19 H 0.0508 1.1535 0.6793
N1 N 0.01691(12) 0.8938(3) 0.88567(12)
O1 O 0.15653(10) 1.2658(2) 1.03032(10)
H20 H 0.1145 1.2741 1.0698
H21 H 0.0120(17) 1.045(5) 0.8716(17)
loop_
_geom_bond_atom_site_label_1
_geom_bond_atom_site_label_2
_geom_bond_site_symmetry_1
_geom_bond_site_symmetry_2
C1 C2 1_555 1_555
C2 C3 1_555 1_555
C3 H1 1_555 1_555
C4 C3 1_555 1_555
H2 C4 1_555 1_555
C5 C4 1_555 1_555
H3 C5 1_555 1_555
C6 C5 1_555 1_555
H4 C6 1_555 1_555
C7 C2 1_555 1_555
H5 C7 1_555 1_555
C8 C1 1_555 1_555
C9 C8 1_555 1_555
H6 C9 1_555 1_555
C10 C9 1_555 1_555
H7 C10 1_555 1_555
C11 C10 1_555 1_555
H8 C11 1_555 1_555
C12 C11 1_555 1_555
H9 C12 1_555 1_555
C13 C8 1_555 1_555
H10 C13 1_555 1_555
C14 C1 1_555 1_555
H11 C14 1_555 1_555
H12 C14 1_555 1_555
C15 H13 1_555 1_555
H14 C15 1_555 1_555
C16 C15 1_555 1_555
C17 C16 1_555 1_555
H15 C17 1_555 1_555
C18 C17 1_555 1_555
H16 C18 1_555 1_555
C19 C18 1_555 1_555
H17 C19 1_555 1_555
C20 C19 1_555 1_555
H18 C20 1_555 1_555
C21 C16 1_555 1_555
H19 C21 1_555 1_555
N1 C14 1_555 1_555
O1 C1 1_555 1_555
H20 O1 1_555 1_555
H21 N1 1_555 1_555
C6 C7 1_555 1_555
C12 C13 1_555 1_555
C15 N1 1_555 1_555
C20 C21 1_555 1_555

#END
