
#######################################################################
#
#                 Cambridge Crystallographic Data Centre
#                                CCDC 
#
#######################################################################
#
# If this CIF has been generated from an entry in the Cambridge 
# Structural Database, then it will include bibliographic, chemical, 
# crystal, experimental, refinement or atomic coordinate data resulting 
# from the CCDC's data processing and validation procedures.
#
#######################################################################

data_WEFHOH
_chemical_formula_moiety         'C22 H15 N1 O1'
_chemical_name_systematic        
"3-phenylspiro[indene-1,1'-isoindol]-3'(2'H)-one unknown solvate"
_symmetry_cell_setting           monoclinic
_symmetry_space_group_name_H-M   'P 21/n'
_symmetry_Int_Tables_number      14
_space_group_name_Hall           '-P 2yn'
loop_
_symmetry_equiv_pos_site_id
_symmetry_equiv_pos_as_xyz
1 x,y,z
2 1/2-x,1/2+y,1/2-z
3 -x,-y,-z
4 1/2+x,1/2-y,1/2+z
_cell_length_a                   8.8756(7)
_cell_length_b                   19.3954(11)
_cell_length_c                   10.7433(7)
_cell_angle_alpha                90
_cell_angle_beta                 94.890(7)
_cell_angle_gamma                90
_cell_volume                     1842.68
_exptl_crystal_colour            colorless
_exptl_crystal_description       block
_cell_formula_units_Z            4
loop_
_atom_site_label
_atom_site_type_symbol
_atom_site_fract_x
_atom_site_fract_y
_atom_site_fract_z
O1 O 0.29640(16) 0.00577(8) -0.05615(13)
N1 N 0.43120(19) 0.06891(8) 0.09647(16)
H1 H 0.5206 0.0512 0.0864
C1 C 0.0305(3) 0.09939(12) 0.0172(2)
H2 H -0.0099 0.0700 -0.0481
C2 C -0.0582(3) 0.14815(13) 0.0698(2)
H3 H -0.1616 0.1527 0.0398
C3 C 0.0013(3) 0.19068(13) 0.1658(2)
H4 H -0.0623 0.2239 0.1997
C4 C 0.1500(3) 0.18594(11) 0.2131(2)
H5 H 0.1897 0.2147 0.2796
C5 C 0.2395(2) 0.13752(10) 0.15970(19)
C6 C 0.1817(2) 0.09515(10) 0.06383(18)
C7 C 0.3046(2) 0.05067(10) 0.02513(18)
C8 C 0.4068(2) 0.12064(10) 0.19168(19)
C9 C 0.5073(2) 0.18376(10) 0.19349(19)
C10 C 0.5330(2) 0.22838(11) 0.0978(2)
H6 H 0.4929 0.2190 0.0146
C11 C 0.6187(3) 0.28738(11) 0.1250(2)
H7 H 0.6395 0.3184 0.0602
C12 C 0.6735(3) 0.30062(11) 0.2475(2)
H8 H 0.7291 0.3418 0.2657
C13 C 0.6498(3) 0.25583(11) 0.3440(2)
H9 H 0.6882 0.2659 0.4272
C14 C 0.5683(2) 0.19567(10) 0.31614(19)
C15 C 0.5222(2) 0.13808(10) 0.39588(19)
C16 C 0.4341(2) 0.09519(10) 0.32508(18)
H10 H 0.3933 0.0536 0.3548
C17 C 0.5684(2) 0.12871(10) 0.53103(19)
C18 C 0.7116(3) 0.14648(11) 0.5825(2)
H11 H 0.7818 0.1666 0.5312
C19 C 0.7534(3) 0.13516(12) 0.7084(2)
H12 H 0.8513 0.1481 0.7431
C20 C 0.6534(3) 0.10529(12) 0.7827(2)
H13 H 0.6826 0.0972 0.8686
C21 C 0.5096(3) 0.08690(12) 0.7328(2)
H14 H 0.4401 0.0663 0.7842
C22 C 0.4682(3) 0.09877(11) 0.6074(2)
H15 H 0.3698 0.0862 0.5732
loop_
_geom_bond_atom_site_label_1
_geom_bond_atom_site_label_2
_geom_bond_site_symmetry_1
_geom_bond_site_symmetry_2
O1 C7 1_555 1_555
N1 H1 1_555 1_555
C1 H2 1_555 1_555
C2 C1 1_555 1_555
H3 C2 1_555 1_555
C3 C2 1_555 1_555
H4 C3 1_555 1_555
C4 C3 1_555 1_555
H5 C4 1_555 1_555
C5 C4 1_555 1_555
C6 C1 1_555 1_555
C7 N1 1_555 1_555
C8 N1 1_555 1_555
C9 C8 1_555 1_555
C10 C9 1_555 1_555
H6 C10 1_555 1_555
C11 C10 1_555 1_555
H7 C11 1_555 1_555
C12 C11 1_555 1_555
H8 C12 1_555 1_555
C13 C12 1_555 1_555
H9 C13 1_555 1_555
C14 C9 1_555 1_555
C15 C14 1_555 1_555
C16 C8 1_555 1_555
H10 C16 1_555 1_555
C17 C15 1_555 1_555
C18 C17 1_555 1_555
H11 C18 1_555 1_555
C19 C18 1_555 1_555
H12 C19 1_555 1_555
C20 C19 1_555 1_555
H13 C20 1_555 1_555
C21 C20 1_555 1_555
H14 C21 1_555 1_555
C22 C17 1_555 1_555
H15 C22 1_555 1_555
C5 C6 1_555 1_555
C5 C8 1_555 1_555
C6 C7 1_555 1_555
C13 C14 1_555 1_555
C15 C16 1_555 1_555
C21 C22 1_555 1_555

#END
