
#######################################################################
#
#                 Cambridge Crystallographic Data Centre
#                                CCDC 
#
#######################################################################
#
# If this CIF has been generated from an entry in the Cambridge 
# Structural Database, then it will include bibliographic, chemical, 
# crystal, experimental, refinement or atomic coordinate data resulting 
# from the CCDC's data processing and validation procedures.
#
#######################################################################

data_WEFJAV
_chemical_formula_moiety         'C22 H15 N1 O1'
_chemical_name_systematic        2-(3,3-diphenylacryloyl)benzonitrile
_symmetry_cell_setting           monoclinic
_symmetry_space_group_name_H-M   'P 21/c'
_symmetry_Int_Tables_number      14
_space_group_name_Hall           '-P 2ybc'
loop_
_symmetry_equiv_pos_site_id
_symmetry_equiv_pos_as_xyz
1 x,y,z
2 -x,1/2+y,1/2-z
3 -x,-y,-z
4 x,1/2-y,1/2+z
_cell_length_a                   15.8397(12)
_cell_length_b                   12.2540(9)
_cell_length_c                   8.6865(5)
_cell_angle_alpha                90
_cell_angle_beta                 99.967(6)
_cell_angle_gamma                90
_cell_volume                     1660.6
_exptl_crystal_colour            colorless
_exptl_crystal_description       block
_cell_formula_units_Z            4
loop_
_atom_site_label
_atom_site_type_symbol
_atom_site_fract_x
_atom_site_fract_y
_atom_site_fract_z
O1 O 0.26401(8) 0.59784(10) 0.14481(11)
N1 N 0.12052(11) 0.38975(14) 0.1020(2)
C1 C 0.11043(10) 0.55493(13) 0.28204(16)
C2 C 0.03100(11) 0.57212(16) 0.32551(18)
H1 H -0.0157 0.5251 0.2877
C3 C 0.02009(12) 0.65749(18) 0.4234(2)
H2 H -0.0342 0.6698 0.4526
C4 C 0.08799(12) 0.72491(18) 0.4789(2)
H3 H 0.0800 0.7844 0.5451
C5 C 0.16781(11) 0.70704(15) 0.43929(19)
H4 H 0.2145 0.7532 0.4805
C6 C 0.18008(10) 0.62256(13) 0.34014(16)
C7 C 0.11849(11) 0.46396(14) 0.18133(19)
C8 C 0.26402(10) 0.61348(13) 0.28397(17)
C9 C 0.34570(11) 0.63232(13) 0.39138(17)
H5 H 0.3877 0.6745 0.3523
C10 C 0.36660(10) 0.59570(13) 0.53895(16)
C11 C 0.30867(9) 0.52092(13) 0.60660(16)
C12 C 0.27675(10) 0.42766(13) 0.52637(16)
H6 H 0.2922 0.4115 0.4279
C13 C 0.22271(10) 0.35802(13) 0.58832(18)
H7 H 0.2007 0.2948 0.5319
C14 C 0.20068(10) 0.38008(15) 0.73197(18)
H8 H 0.1638 0.3320 0.7747
C15 C 0.23240(11) 0.47223(16) 0.81353(17)
H9 H 0.2170 0.4877 0.9122
C16 C 0.28642(10) 0.54186(15) 0.75216(17)
H10 H 0.3086 0.6046 0.8095
C17 C 0.45114(10) 0.61996(13) 0.63613(16)
C18 C 0.48859(10) 0.54575(14) 0.74909(18)
H11 H 0.4590 0.4804 0.7648
C19 C 0.56828(11) 0.56555(15) 0.83903(18)
H12 H 0.5927 0.5141 0.9158
C20 C 0.61211(11) 0.65982(15) 0.81712(18)
H13 H 0.6668 0.6735 0.8784
C21 C 0.57619(11) 0.73413(15) 0.70599(19)
H14 H 0.6065 0.7990 0.6907
C22 C 0.49645(10) 0.71529(14) 0.61640(18)
H15 H 0.4723 0.7676 0.5408
loop_
_geom_bond_atom_site_label_1
_geom_bond_atom_site_label_2
_geom_bond_site_symmetry_1
_geom_bond_site_symmetry_2
O1 C8 1_555 1_555
N1 C7 1_555 1_555
C1 C2 1_555 1_555
C2 H1 1_555 1_555
C3 C2 1_555 1_555
H2 C3 1_555 1_555
C4 C3 1_555 1_555
H3 C4 1_555 1_555
C5 C4 1_555 1_555
H4 C5 1_555 1_555
C6 C1 1_555 1_555
C7 C1 1_555 1_555
C8 C6 1_555 1_555
C9 C8 1_555 1_555
H5 C9 1_555 1_555
C10 C9 1_555 1_555
C11 C10 1_555 1_555
C12 C11 1_555 1_555
H6 C12 1_555 1_555
C13 C12 1_555 1_555
H7 C13 1_555 1_555
C14 C13 1_555 1_555
H8 C14 1_555 1_555
C15 C14 1_555 1_555
H9 C15 1_555 1_555
C16 C11 1_555 1_555
H10 C16 1_555 1_555
C17 C10 1_555 1_555
C18 C17 1_555 1_555
H11 C18 1_555 1_555
C19 C18 1_555 1_555
H12 C19 1_555 1_555
C20 C19 1_555 1_555
H13 C20 1_555 1_555
C21 C20 1_555 1_555
H14 C21 1_555 1_555
C22 C17 1_555 1_555
H15 C22 1_555 1_555
C5 C6 1_555 1_555
C15 C16 1_555 1_555
C21 C22 1_555 1_555

#END
