
#######################################################################
#
#                 Cambridge Crystallographic Data Centre
#                                CCDC 
#
#######################################################################
#
# If this CIF has been generated from an entry in the Cambridge 
# Structural Database, then it will include bibliographic, chemical, 
# crystal, experimental, refinement or atomic coordinate data resulting 
# from the CCDC's data processing and validation procedures.
#
#######################################################################

data_WEFKIE
_chemical_formula_moiety         'C27 H18 F9 N1 S1'
_chemical_name_systematic        
3-(3,3,4,4,5,5-hexafluoro-2-{2-methyl-5-[3-(trifluoromethyl)phenyl]thiophen-3-yl}cyclopent-1-en-1-yl)-1,2-dimethyl-1H-indole
_symmetry_cell_setting           monoclinic
_symmetry_space_group_name_H-M   'P 21/c'
_symmetry_Int_Tables_number      14
_space_group_name_Hall           '-P 2ybc'
loop_
_symmetry_equiv_pos_site_id
_symmetry_equiv_pos_as_xyz
1 x,y,z
2 -x,1/2+y,1/2-z
3 -x,-y,-z
4 x,1/2-y,1/2+z
_cell_length_a                   20.898(8)
_cell_length_b                   14.098(6)
_cell_length_c                   8.553(3)
_cell_angle_alpha                90
_cell_angle_beta                 97.364(7)
_cell_angle_gamma                90
_cell_volume                     2499.1
_cell_formula_units_Z            4
loop_
_atom_site_label
_atom_site_type_symbol
_atom_site_fract_x
_atom_site_fract_y
_atom_site_fract_z
C1 C -0.0141(2) 0.6477(3) 0.5468(7)
H1 H -0.0346 0.6710 0.4517
C2 C -0.0429(2) 0.6531(3) 0.6820(10)
H2 H -0.0838 0.6797 0.6783
C3 C -0.0122(2) 0.6199(3) 0.8224(8)
H3 H -0.0323 0.6258 0.9128
C4 C 0.04748(18) 0.5782(3) 0.8331(5)
H4 H 0.0673 0.5558 0.9296
C5 C 0.07811(16) 0.5696(2) 0.6990(4)
C6 C 0.04748(18) 0.6059(2) 0.5562(5)
C7 C 0.0707(3) 0.6171(4) 0.2771(5)
H5 H 0.0333 0.5824 0.2322
H6 H 0.1064 0.6019 0.2214
H7 H 0.0621 0.6839 0.2689
C8 C 0.1936(3) 0.5132(4) 0.4157(6)
H8 H 0.2271 0.4825 0.4847
H9 H 0.2112 0.5667 0.3665
H10 H 0.1756 0.4693 0.3361
C9 C 0.1421(2) 0.5460(3) 0.5083(4)
C10 C 0.13893(16) 0.5324(2) 0.6663(4)
C11 C 0.18788(16) 0.4837(2) 0.7763(4)
C12 C 0.1736(2) 0.3856(3) 0.8386(6)
C13 C 0.2349(3) 0.3597(3) 0.9451(6)
C14 C 0.2832(2) 0.4343(4) 0.9206(8)
C15 C 0.24842(17) 0.5101(3) 0.8249(5)
C16 C 0.28103(17) 0.6000(3) 0.7979(4)
C17 C 0.25995(19) 0.6868(3) 0.8436(5)
C18 C 0.2025(2) 0.7083(4) 0.9234(6)
H11 H 0.1656 0.7177 0.8456
H12 H 0.2103 0.7649 0.9855
H13 H 0.1944 0.6563 0.9906
C19 C 0.34024(19) 0.6063(3) 0.7313(5)
H14 H 0.3612 0.5538 0.6963
C20 C 0.36311(19) 0.6962(3) 0.7238(5)
C21 C 0.4213(2) 0.7296(4) 0.6646(5)
C22 C 0.4699(2) 0.6658(5) 0.6403(6)
H15 H 0.4644 0.6019 0.6626
C23 C 0.5265(3) 0.6945(5) 0.5834(6)
C24 C 0.5336(4) 0.7896(8) 0.5505(8)
H16 H 0.5708 0.8105 0.5120
C25 C 0.4869(5) 0.8526(7) 0.5741(10)
H17 H 0.4926 0.9163 0.5510
C26 C 0.4309(3) 0.8246(4) 0.6316(7)
H18 H 0.3997 0.8693 0.6480
C27 C 0.5775(4) 0.6215(9) 0.5583(12)
F1 F 0.3065(4) 0.4686(5) 1.0653(10)
F2 F 0.3420(4) 0.4338(8) 0.942(2)
F3 F 0.2215(3) 0.3662(5) 1.0942(5)
F4 F 0.2474(5) 0.2730(7) 0.9684(15)
F5 F 0.1144(4) 0.3757(5) 0.8778(11)
F6 F 0.16250(18) 0.3213(2) 0.7187(5)
F7 F 0.6364(4) 0.6474(9) 0.589(3)
F8 F 0.5729(4) 0.5377(7) 0.632(2)
F9 F 0.6067(8) 0.651(2) 0.4475(18)
N1 N 0.08653(18) 0.5912(2) 0.4431(4)
S1 S 0.31171(6) 0.77448(8) 0.80245(15)
F10? F 0.3201(3) 0.3775(5) 0.8064(10)
F11? F 0.2601(7) 0.2881(9) 0.882(3)
F12? F 0.5608(5) 0.5743(8) 0.4314(13)
F13? F 0.1359(5) 0.4014(11) 0.9638(18)
F14? F 0.6092(10) 0.618(3) 0.6794(18)
loop_
_geom_bond_atom_site_label_1
_geom_bond_atom_site_label_2
_geom_bond_site_symmetry_1
_geom_bond_site_symmetry_2
C1 H1 1_555 1_555
C2 C1 1_555 1_555
H2 C2 1_555 1_555
C3 C2 1_555 1_555
H3 C3 1_555 1_555
C4 C3 1_555 1_555
H4 C4 1_555 1_555
C5 C4 1_555 1_555
C6 C1 1_555 1_555
C7 H5 1_555 1_555
H6 C7 1_555 1_555
H7 C7 1_555 1_555
C8 H8 1_555 1_555
H9 C8 1_555 1_555
H10 C8 1_555 1_555
C9 C8 1_555 1_555
C10 C5 1_555 1_555
C11 C10 1_555 1_555
C12 C11 1_555 1_555
C13 C12 1_555 1_555
C14 C13 1_555 1_555
C15 C11 1_555 1_555
C16 C15 1_555 1_555
C17 C16 1_555 1_555
C18 C17 1_555 1_555
H11 C18 1_555 1_555
H12 C18 1_555 1_555
H13 C18 1_555 1_555
C19 C16 1_555 1_555
H14 C19 1_555 1_555
C20 C19 1_555 1_555
C21 C20 1_555 1_555
C22 C21 1_555 1_555
H15 C22 1_555 1_555
C23 C22 1_555 1_555
C24 C23 1_555 1_555
H16 C24 1_555 1_555
C25 C24 1_555 1_555
H17 C25 1_555 1_555
C26 C21 1_555 1_555
H18 C26 1_555 1_555
C27 C23 1_555 1_555
F1 C14 1_555 1_555
F2 C14 1_555 1_555
F3 C13 1_555 1_555
F4 C13 1_555 1_555
F5 C12 1_555 1_555
F6 C12 1_555 1_555
F7 C27 1_555 1_555
F8 C27 1_555 1_555
F9 C27 1_555 1_555
N1 C6 1_555 1_555
S1 C17 1_555 1_555
C5 C6 1_555 1_555
C7 N1 1_555 1_555
C9 C10 1_555 1_555
C9 N1 1_555 1_555
C14 C15 1_555 1_555
C20 S1 1_555 1_555
C25 C26 1_555 1_555

#END
