
#######################################################################
#
#                 Cambridge Crystallographic Data Centre
#                                CCDC 
#
#######################################################################
#
# If this CIF has been generated from an entry in the Cambridge 
# Structural Database, then it will include bibliographic, chemical, 
# crystal, experimental, refinement or atomic coordinate data resulting 
# from the CCDC's data processing and validation procedures.
#
#######################################################################

data_WEFLUP
_chemical_formula_moiety         'C35 H23 Cl1'
_chemical_name_systematic        
1-Chloro-1,2,3-triphenylcyclopenta(l)phenanthrene
_symmetry_cell_setting           orthorhombic
_symmetry_space_group_name_H-M   'P 21 21 21'
_symmetry_Int_Tables_number      19
_space_group_name_Hall           'P 2ac 2ab'
loop_
_symmetry_equiv_pos_site_id
_symmetry_equiv_pos_as_xyz
1 x,y,z
2 1/2-x,-y,1/2+z
3 1/2+x,1/2-y,-z
4 -x,1/2+y,1/2-z
_cell_length_a                   8.7430(10)
_cell_length_b                   14.4590(10)
_cell_length_c                   19.084(2)
_cell_angle_alpha                90
_cell_angle_beta                 90
_cell_angle_gamma                90
_cell_volume                     2412.5
_exptl_crystal_colour            colorless
_exptl_crystal_description       prism
_chemical_melting_point          257-259deg.C
_cell_formula_units_Z            4
loop_
_atom_site_label
_atom_site_type_symbol
_atom_site_fract_x
_atom_site_fract_y
_atom_site_fract_z
Cl1 Cl 0.07484(11) 0.35516(8) 0.34248(6)
C1 C 0.2689(4) 0.3705(3) 0.3094(2)
C2 C 0.3513(5) 0.4459(3) 0.3496(2)
C3 C 0.4819(4) 0.4103(3) 0.3785(2)
C4 C 0.4835(5) 0.3081(3) 0.3657(2)
C5 C 0.3597(5) 0.2844(3) 0.3282(2)
C6 C 0.2678(5) 0.3865(3) 0.2299(2)
C7 C 0.1470(5) 0.3609(3) 0.1868(2)
H1 H 0.0570 0.3383 0.2063
C8 C 0.1608(6) 0.3691(4) 0.1149(2)
H2 H 0.0795 0.3513 0.0864
C9 C 0.2913(7) 0.4027(4) 0.0846(3)
H3 H 0.2991 0.4075 0.0362
C10 C 0.4112(6) 0.4296(4) 0.1272(3)
H4 H 0.5004 0.4532 0.1076
C11 C 0.3975(5) 0.4211(3) 0.1989(2)
H5 H 0.4787 0.4393 0.2272
C12 C 0.3115(5) 0.5407(3) 0.3554(2)
C13 C 0.1744(5) 0.5771(3) 0.3270(2)
H6 H 0.1093 0.5387 0.3017
C14 C 0.1366(6) 0.6681(3) 0.3364(3)
H7 H 0.0461 0.6912 0.3177
C15 C 0.2327(6) 0.7254(3) 0.3736(3)
H8 H 0.2060 0.7870 0.3803
C16 C 0.3661(6) 0.6930(3) 0.4006(3)
H9 H 0.4295 0.7334 0.4250
C17 C 0.4111(5) 0.5997(3) 0.3928(2)
C18 C 0.5541(5) 0.5645(3) 0.4207(2)
C19 C 0.6640(6) 0.6226(3) 0.4517(2)
H10 H 0.6415 0.6849 0.4579
C20 C 0.8030(6) 0.5896(3) 0.4728(3)
H11 H 0.8741 0.6299 0.4924
C21 C 0.8391(6) 0.4968(3) 0.4653(2)
H12 H 0.9339 0.4749 0.4799
C22 C 0.7350(5) 0.4377(3) 0.4365(2)
H13 H 0.7602 0.3755 0.4316
C23 C 0.5895(5) 0.4688(3) 0.4140(2)
C24 C 0.6041(5) 0.2429(3) 0.3893(2)
C25 C 0.6153(5) 0.2146(3) 0.4579(2)
H14 H 0.5444 0.2352 0.4907
C26 C 0.7315(6) 0.1557(4) 0.4784(2)
H15 H 0.7377 0.1370 0.5249
C27 C 0.8372(6) 0.1246(3) 0.4314(3)
H16 H 0.9162 0.0860 0.4458
C28 C 0.8252(6) 0.1514(4) 0.3624(3)
H17 H 0.8961 0.1303 0.3298
C29 C 0.7088(5) 0.2094(3) 0.3414(2)
H18 H 0.7007 0.2262 0.2945
C30 C 0.3069(4) 0.1903(3) 0.3120(2)
C31 C 0.2663(5) 0.1312(3) 0.3663(2)
H19 H 0.2768 0.1516 0.4122
C32 C 0.2111(5) 0.0437(3) 0.3542(3)
H20 H 0.1844 0.0057 0.3916
C33 C 0.1957(5) 0.0129(3) 0.2861(3)
H21 H 0.1586 -0.0463 0.2773
C34 C 0.2351(6) 0.0696(3) 0.2313(3)
H22 H 0.2244 0.0488 0.1855
C35 C 0.2905(5) 0.1574(3) 0.2442(2)
H23 H 0.3173 0.1951 0.2067
loop_
_geom_bond_atom_site_label_1
_geom_bond_atom_site_label_2
_geom_bond_site_symmetry_1
_geom_bond_site_symmetry_2
Cl1 C1 1_555 1_555
C1 C2 1_555 1_555
C2 C3 1_555 1_555
C3 C4 1_555 1_555
C4 C5 1_555 1_555
C5 C1 1_555 1_555
C6 C1 1_555 1_555
C7 C6 1_555 1_555
H1 C7 1_555 1_555
C8 C7 1_555 1_555
H2 C8 1_555 1_555
C9 C8 1_555 1_555
H3 C9 1_555 1_555
C10 C9 1_555 1_555
H4 C10 1_555 1_555
C11 C6 1_555 1_555
H5 C11 1_555 1_555
C12 C2 1_555 1_555
C13 C12 1_555 1_555
H6 C13 1_555 1_555
C14 C13 1_555 1_555
H7 C14 1_555 1_555
C15 C14 1_555 1_555
H8 C15 1_555 1_555
C16 C15 1_555 1_555
H9 C16 1_555 1_555
C17 C12 1_555 1_555
C18 C17 1_555 1_555
C19 C18 1_555 1_555
H10 C19 1_555 1_555
C20 C19 1_555 1_555
H11 C20 1_555 1_555
C21 C20 1_555 1_555
H12 C21 1_555 1_555
C22 C21 1_555 1_555
H13 C22 1_555 1_555
C23 C3 1_555 1_555
C24 C4 1_555 1_555
C25 C24 1_555 1_555
H14 C25 1_555 1_555
C26 C25 1_555 1_555
H15 C26 1_555 1_555
C27 C26 1_555 1_555
H16 C27 1_555 1_555
C28 C27 1_555 1_555
H17 C28 1_555 1_555
C29 C24 1_555 1_555
H18 C29 1_555 1_555
C30 C5 1_555 1_555
C31 C30 1_555 1_555
H19 C31 1_555 1_555
C32 C31 1_555 1_555
H20 C32 1_555 1_555
C33 C32 1_555 1_555
H21 C33 1_555 1_555
C34 C33 1_555 1_555
H22 C34 1_555 1_555
C35 C30 1_555 1_555
H23 C35 1_555 1_555
C10 C11 1_555 1_555
C16 C17 1_555 1_555
C18 C23 1_555 1_555
C22 C23 1_555 1_555
C28 C29 1_555 1_555
C34 C35 1_555 1_555

#END
