
#######################################################################
#
#                 Cambridge Crystallographic Data Centre
#                                CCDC 
#
#######################################################################
#
# If this CIF has been generated from an entry in the Cambridge 
# Structural Database, then it will include bibliographic, chemical, 
# crystal, experimental, refinement or atomic coordinate data resulting 
# from the CCDC's data processing and validation procedures.
#
#######################################################################

data_WEFLID
_chemical_formula_moiety         'C29 H18 O2'
_chemical_name_systematic        
1,4-Diphenylcyclo-3-pyran(l)phenanthrene-2-one
_symmetry_cell_setting           triclinic
_symmetry_space_group_name_H-M   'P -1'
_symmetry_Int_Tables_number      2
_space_group_name_Hall           '-P 1'
loop_
_symmetry_equiv_pos_site_id
_symmetry_equiv_pos_as_xyz
1 x,y,z
2 -x,-y,-z
_cell_length_a                   10.4184(19)
_cell_length_b                   10.5625(19)
_cell_length_c                   10.624(2)
_cell_angle_alpha                64.396(3)
_cell_angle_beta                 72.359(3)
_cell_angle_gamma                74.150(3)
_cell_volume                     990.886
_exptl_crystal_colour            orange
_exptl_crystal_description       prism
_chemical_melting_point          291-292deg.C(dec)
_cell_formula_units_Z            2
_exptl_crystal_recrystallization_method toluene
loop_
_atom_site_label
_atom_site_type_symbol
_atom_site_fract_x
_atom_site_fract_y
_atom_site_fract_z
O1 O 0.6011(3) 0.3267(3) 0.9537(3)
O2 O 0.43831(17) 0.33654(18) 1.14120(19)
C1 C 0.4737(4) 0.3137(4) 1.0319(4)
C3 C 0.38494(17) 0.24951(16) 0.99290(16)
C4 C 0.43336(16) 0.22557(15) 0.86847(16)
C5 C 0.55786(16) 0.27770(15) 0.77358(16)
C6 C 0.64115(16) 0.31248(16) 0.82619(16)
C7 C 0.25115(17) 0.22715(17) 1.09402(17)
C8 C 0.2460(2) 0.14281(19) 1.23907(18)
H1 H 0.3282 0.0976 1.2727
C9 C 0.1207(2) 0.1254(2) 1.33348(19)
H2 H 0.1177 0.0672 1.4316
C10 C 0.0013(2) 0.1911(2) 1.2872(2)
H3 H -0.0840 0.1795 1.3531
C11 C 0.00558(19) 0.27457(19) 1.1438(2)
H4 H -0.0769 0.3192 1.1107
C12 C 0.12960(18) 0.29278(18) 1.04920(19)
H5 H 0.1316 0.3515 0.9514
C13 C 0.37213(16) 0.14008(16) 0.82845(16)
C14 C 0.28350(17) 0.04613(16) 0.92846(18)
H6 H 0.2573 0.0406 1.0243
C15 C 0.23332(18) -0.03823(17) 0.89231(19)
H7 H 0.1702 -0.0979 0.9614
C16 C 0.27530(17) -0.03588(17) 0.75435(19)
H8 H 0.2429 -0.0957 0.7292
C17 C 0.36377(16) 0.05329(17) 0.65462(18)
H9 H 0.3925 0.0538 0.5606
C18 C 0.41307(16) 0.14388(16) 0.68752(17)
C19 C 0.50709(16) 0.23937(16) 0.57858(16)
C20 C 0.52067(17) 0.27538(17) 0.43192(17)
H10 H 0.4696 0.2350 0.4025
C21 C 0.60598(17) 0.36755(18) 0.33010(17)
H11 H 0.6149 0.3891 0.2316
C22 C 0.67877(16) 0.42883(18) 0.37191(17)
H12 H 0.7383 0.4923 0.3019
C23 C 0.66528(16) 0.39816(17) 0.51486(16)
H13 H 0.7131 0.4438 0.5420
C24 C 0.58254(16) 0.30120(16) 0.62066(16)
C25 C 0.78538(16) 0.33050(17) 0.76525(16)
C26 C 0.87724(17) 0.23159(17) 0.71306(17)
H14 H 0.8458 0.1545 0.7145
C27 C 1.01266(17) 0.24462(19) 0.65959(18)
H15 H 1.0739 0.1773 0.6232
C28 C 1.06003(19) 0.3543(2) 0.6584(2)
H16 H 1.1539 0.3625 0.6219
C29 C 0.97089(19) 0.4525(2) 0.7103(2)
H17 H 1.0038 0.5287 0.7088
C30 C 0.83454(18) 0.44126(18) 0.76429(19)
H18 H 0.7741 0.5089 0.8008
O3? O 0.4500(5) 0.2995(6) 1.0400(6)
O4? O 0.6504(3) 0.3690(4) 1.0232(4)
C2? C 0.5790(10) 0.3161(9) 0.9706(10)
loop_
_geom_bond_atom_site_label_1
_geom_bond_atom_site_label_2
_geom_bond_site_symmetry_1
_geom_bond_site_symmetry_2
O1 C1 1_555 1_555
O2 C1 1_555 1_555
C1 C3 1_555 1_555
C3 C4 1_555 1_555
C4 C5 1_555 1_555
C5 C6 1_555 1_555
C6 O1 1_555 1_555
C7 C3 1_555 1_555
C8 C7 1_555 1_555
H1 C8 1_555 1_555
C9 C8 1_555 1_555
H2 C9 1_555 1_555
C10 C9 1_555 1_555
H3 C10 1_555 1_555
C11 C10 1_555 1_555
H4 C11 1_555 1_555
C12 C7 1_555 1_555
H5 C12 1_555 1_555
C13 C4 1_555 1_555
C14 C13 1_555 1_555
H6 C14 1_555 1_555
C15 C14 1_555 1_555
H7 C15 1_555 1_555
C16 C15 1_555 1_555
H8 C16 1_555 1_555
C17 C16 1_555 1_555
H9 C17 1_555 1_555
C18 C13 1_555 1_555
C19 C18 1_555 1_555
C20 C19 1_555 1_555
H10 C20 1_555 1_555
C21 C20 1_555 1_555
H11 C21 1_555 1_555
C22 C21 1_555 1_555
H12 C22 1_555 1_555
C23 C22 1_555 1_555
H13 C23 1_555 1_555
C24 C5 1_555 1_555
C25 C6 1_555 1_555
C26 C25 1_555 1_555
H14 C26 1_555 1_555
C27 C26 1_555 1_555
H15 C27 1_555 1_555
C28 C27 1_555 1_555
H16 C28 1_555 1_555
C29 C28 1_555 1_555
H17 C29 1_555 1_555
C30 C25 1_555 1_555
H18 C30 1_555 1_555
C11 C12 1_555 1_555
C17 C18 1_555 1_555
C19 C24 1_555 1_555
C23 C24 1_555 1_555
C29 C30 1_555 1_555

#END
