
#######################################################################
#
#                 Cambridge Crystallographic Data Centre
#                                CCDC 
#
#######################################################################
#
# If this CIF has been generated from an entry in the Cambridge 
# Structural Database, then it will include bibliographic, chemical, 
# crystal, experimental, refinement or atomic coordinate data resulting 
# from the CCDC's data processing and validation procedures.
#
#######################################################################

data_WEFMAW
_chemical_formula_moiety         'C35 H24 O1'
_chemical_name_systematic        
1,1,3-Triphenylcyclopenta(l)phenanthrene-2-one
_symmetry_cell_setting           monoclinic
_symmetry_space_group_name_H-M   'P 21/c'
_symmetry_Int_Tables_number      14
_space_group_name_Hall           '-P 2ybc'
loop_
_symmetry_equiv_pos_site_id
_symmetry_equiv_pos_as_xyz
1 x,y,z
2 -x,1/2+y,1/2-z
3 -x,-y,-z
4 x,1/2-y,1/2+z
_cell_length_a                   16.241(5)
_cell_length_b                   9.821(3)
_cell_length_c                   14.979(5)
_cell_angle_alpha                90
_cell_angle_beta                 101.479(5)
_cell_angle_gamma                90
_cell_volume                     2341.4
_exptl_crystal_colour            colorless
_exptl_crystal_description       plate
_cell_formula_units_Z            4
loop_
_atom_site_label
_atom_site_type_symbol
_atom_site_fract_x
_atom_site_fract_y
_atom_site_fract_z
O1 O 0.42568(5) 0.83546(9) 0.07978(6)
C1 C 0.31595(7) 1.01042(12) 0.03858(8)
C2 C 0.35256(8) 0.86677(12) 0.06797(8)
C3 C 0.28144(7) 0.77141(12) 0.08140(8)
H1 H 0.2987 0.7189 0.1393
C4 C 0.21305(7) 0.87154(12) 0.09072(8)
C5 C 0.23137(7) 1.00095(12) 0.06848(8)
C6 C 0.37597(7) 1.11720(12) 0.09090(9)
C7 C 0.38516(8) 1.12350(13) 0.18571(9)
H2 H 0.3526 1.0649 0.2154
C8 C 0.44077(9) 1.21343(15) 0.23683(10)
H3 H 0.4466 1.2158 0.3012
C9 C 0.48811(9) 1.30033(15) 0.19396(11)
H4 H 0.5262 1.3628 0.2288
C10 C 0.47957(8) 1.29539(14) 0.10051(11)
H5 H 0.5118 1.3551 0.0711
C11 C 0.42407(8) 1.20359(13) 0.04870(10)
H6 H 0.4192 1.2003 -0.0155
C12 C 0.30661(7) 1.01905(12) -0.06602(8)
C13 C 0.37175(8) 0.97593(13) -0.10723(9)
H7 H 0.4214 0.9396 -0.0707
C14 C 0.36524(9) 0.98522(13) -0.20107(9)
H8 H 0.4100 0.9540 -0.2280
C15 C 0.29406(8) 1.03950(13) -0.25517(9)
H9 H 0.2901 1.0475 -0.3191
C16 C 0.22858(8) 1.08212(13) -0.21540(9)
H10 H 0.1793 1.1193 -0.2522
C17 C 0.23457(8) 1.07081(13) -0.12192(8)
H11 H 0.1887 1.0989 -0.0956
C18 C 0.26091(8) 0.67338(12) 0.00082(8)
C19 C 0.31356(8) 0.56344(13) -0.00547(9)
H12 H 0.3611 0.5475 0.0417
C20 C 0.29698(9) 0.47709(13) -0.08020(9)
H13 H 0.3337 0.4030 -0.0842
C21 C 0.22740(9) 0.49782(14) -0.14898(9)
H14 H 0.2160 0.4379 -0.1997
C22 C 0.17461(9) 0.60648(14) -0.14313(9)
H15 H 0.1265 0.6211 -0.1898
C23 C 0.19179(8) 0.69411(13) -0.06935(8)
H16 H 0.1558 0.7696 -0.0666
C24 C 0.13583(7) 0.83759(12) 0.11855(8)
C25 C 0.11858(8) 0.70354(12) 0.14327(8)
H17 H 0.1590 0.6340 0.1422
C26 C 0.04418(8) 0.67213(13) 0.16888(8)
H18 H 0.0336 0.5816 0.1858
C27 C -0.01593(8) 0.77380(13) 0.16992(9)
H19 H -0.0678 0.7519 0.1867
C28 C -0.00021(8) 0.90539(13) 0.14668(8)
H20 H -0.0415 0.9735 0.1479
C29 C 0.07593(7) 0.94157(12) 0.12099(8)
C30 C 0.09493(7) 1.08075(12) 0.09724(8)
C31 C 0.03670(8) 1.18782(12) 0.09630(8)
H21 H -0.0153 1.1699 0.1140
C32 C 0.05360(8) 1.31737(13) 0.07031(8)
H22 H 0.0128 1.3871 0.0686
C33 C 0.13061(8) 1.34690(13) 0.04643(8)
H23 H 0.1422 1.4367 0.0288
C34 C 0.18940(8) 1.24613(12) 0.04856(8)
H24 H 0.2421 1.2675 0.0337
C35 C 0.17302(7) 1.11093(12) 0.07254(8)
loop_
_geom_bond_atom_site_label_1
_geom_bond_atom_site_label_2
_geom_bond_site_symmetry_1
_geom_bond_site_symmetry_2
O1 C2 1_555 1_555
C1 C2 1_555 1_555
C2 C3 1_555 1_555
C3 H1 1_555 1_555
C4 C3 1_555 1_555
C5 C1 1_555 1_555
C6 C1 1_555 1_555
C7 C6 1_555 1_555
H2 C7 1_555 1_555
C8 C7 1_555 1_555
H3 C8 1_555 1_555
C9 C8 1_555 1_555
H4 C9 1_555 1_555
C10 C9 1_555 1_555
H5 C10 1_555 1_555
C11 C6 1_555 1_555
H6 C11 1_555 1_555
C12 C1 1_555 1_555
C13 C12 1_555 1_555
H7 C13 1_555 1_555
C14 C13 1_555 1_555
H8 C14 1_555 1_555
C15 C14 1_555 1_555
H9 C15 1_555 1_555
C16 C15 1_555 1_555
H10 C16 1_555 1_555
C17 C12 1_555 1_555
H11 C17 1_555 1_555
C18 C3 1_555 1_555
C19 C18 1_555 1_555
H12 C19 1_555 1_555
C20 C19 1_555 1_555
H13 C20 1_555 1_555
C21 C20 1_555 1_555
H14 C21 1_555 1_555
C22 C21 1_555 1_555
H15 C22 1_555 1_555
C23 C18 1_555 1_555
H16 C23 1_555 1_555
C24 C4 1_555 1_555
C25 C24 1_555 1_555
H17 C25 1_555 1_555
C26 C25 1_555 1_555
H18 C26 1_555 1_555
C27 C26 1_555 1_555
H19 C27 1_555 1_555
C28 C27 1_555 1_555
H20 C28 1_555 1_555
C29 C24 1_555 1_555
C30 C29 1_555 1_555
C31 C30 1_555 1_555
H21 C31 1_555 1_555
C32 C31 1_555 1_555
H22 C32 1_555 1_555
C33 C32 1_555 1_555
H23 C33 1_555 1_555
C34 C33 1_555 1_555
H24 C34 1_555 1_555
C35 C5 1_555 1_555
C4 C5 1_555 1_555
C10 C11 1_555 1_555
C16 C17 1_555 1_555
C22 C23 1_555 1_555
C28 C29 1_555 1_555
C30 C35 1_555 1_555
C34 C35 1_555 1_555

#END
