
#######################################################################
#
#                 Cambridge Crystallographic Data Centre
#                                CCDC 
#
#######################################################################
#
# If this CIF has been generated from an entry in the Cambridge 
# Structural Database, then it will include bibliographic, chemical, 
# crystal, experimental, refinement or atomic coordinate data resulting 
# from the CCDC's data processing and validation procedures.
#
#######################################################################

data_WEFNEB
_chemical_formula_moiety         'C15 H15 N1 O2 S1'
_chemical_name_systematic        2-Phenyl-N-(p-tolylsulfonyl)aziridine
_symmetry_cell_setting           monoclinic
_symmetry_space_group_name_H-M   'P 21/c'
_symmetry_Int_Tables_number      14
_space_group_name_Hall           '-P 2ybc'
loop_
_symmetry_equiv_pos_site_id
_symmetry_equiv_pos_as_xyz
1 x,y,z
2 -x,1/2+y,1/2-z
3 -x,-y,-z
4 x,1/2-y,1/2+z
_cell_length_a                   15.325(3)
_cell_length_b                   7.8364(16)
_cell_length_c                   11.773(2)
_cell_angle_alpha                90
_cell_angle_beta                 93.293(4)
_cell_angle_gamma                90
_cell_volume                     1411.52
_exptl_crystal_colour            colorless
_exptl_crystal_description       block
_chemical_melting_point          '362 K'
_cell_formula_units_Z            4
loop_
_atom_site_label
_atom_site_type_symbol
_atom_site_fract_x
_atom_site_fract_y
_atom_site_fract_z
S1 S 0.27831(3) 0.19666(8) 0.62634(5)
O1 O 0.32143(11) 0.3553(2) 0.61072(17)
O2 O 0.27091(10) 0.1369(2) 0.74008(12)
N1 N 0.17769(10) 0.1965(2) 0.56633(14)
C1 C -0.00079(15) 0.4123(3) 0.69969(19)
H1 H 0.0353 0.4842 0.7442
C2 C -0.08669(17) 0.3908(3) 0.7258(2)
H2 H -0.1083 0.4484 0.7873
C3 C -0.13995(15) 0.2843(4) 0.6610(2)
H3 H -0.1979 0.2693 0.6784
C4 C -0.10802(16) 0.2007(3) 0.5714(2)
H4 H -0.1442 0.1280 0.5276
C5 C -0.02285(15) 0.2230(3) 0.54489(19)
H5 H -0.0019 0.1657 0.4828
C6 C 0.03223(13) 0.3290(3) 0.60885(17)
C7 C 0.12466(17) 0.3545(3) 0.5815(2)
H6 H 0.1528(16) 0.435(3) 0.624(2)
C8 C 0.1597(2) 0.3178(5) 0.4719(3)
H7 H 0.2054(19) 0.378(4) 0.454(2)
H8 H 0.1206(19) 0.266(4) 0.418(2)
C9 C 0.32746(12) 0.0399(3) 0.54642(18)
C10 C 0.36502(16) 0.0802(4) 0.4465(2)
H9 H 0.3643 0.1920 0.4199
C11 C 0.40381(17) -0.0473(5) 0.3860(2)
H10 H 0.4290 -0.0195 0.3185
C12 C 0.40643(14) -0.2135(4) 0.4222(2)
C13 C 0.36713(16) -0.2509(3) 0.5203(2)
H11 H 0.3670 -0.3632 0.5458
C14 C 0.32780(14) -0.1272(3) 0.5826(2)
H12 H 0.3014 -0.1564 0.6491
C15 C 0.45135(19) -0.3501(4) 0.3570(3)
H13 H 0.5038 -0.3851 0.3991
H14 H 0.4659 -0.3059 0.2844
H15 H 0.4130 -0.4463 0.3459
loop_
_geom_bond_atom_site_label_1
_geom_bond_atom_site_label_2
_geom_bond_site_symmetry_1
_geom_bond_site_symmetry_2
S1 O1 1_555 1_555
O2 S1 1_555 1_555
N1 S1 1_555 1_555
C1 H1 1_555 1_555
C2 C1 1_555 1_555
H2 C2 1_555 1_555
C3 C2 1_555 1_555
H3 C3 1_555 1_555
C4 C3 1_555 1_555
H4 C4 1_555 1_555
C5 C4 1_555 1_555
H5 C5 1_555 1_555
C6 C1 1_555 1_555
C7 N1 1_555 1_555
H6 C7 1_555 1_555
C8 N1 1_555 1_555
H7 C8 1_555 1_555
H8 C8 1_555 1_555
C9 S1 1_555 1_555
C10 C9 1_555 1_555
H9 C10 1_555 1_555
C11 C10 1_555 1_555
H10 C11 1_555 1_555
C12 C11 1_555 1_555
C13 C12 1_555 1_555
H11 C13 1_555 1_555
C14 C9 1_555 1_555
H12 C14 1_555 1_555
C15 C12 1_555 1_555
H13 C15 1_555 1_555
H14 C15 1_555 1_555
H15 C15 1_555 1_555
C5 C6 1_555 1_555
C6 C7 1_555 1_555
C7 C8 1_555 1_555
C13 C14 1_555 1_555

#END
