
#######################################################################
#
#                 Cambridge Crystallographic Data Centre
#                                CCDC 
#
#######################################################################
#
# If this CIF has been generated from an entry in the Cambridge 
# Structural Database, then it will include bibliographic, chemical, 
# crystal, experimental, refinement or atomic coordinate data resulting 
# from the CCDC's data processing and validation procedures.
#
#######################################################################

data_WEFNUR
_chemical_formula_moiety         'C8 H20 N1 O5 1+,C7 H4 N1 O4 1-,H2 O1'
_chemical_name_systematic        
'(2-Hydroxy-1,1-bis(hydroxymethyl)ethyl)-bis(2-hydroxyethyl)ammonium 4-nitrobenzoate monohydrate'
_symmetry_cell_setting           triclinic
_symmetry_space_group_name_H-M   'P -1'
_symmetry_Int_Tables_number      2
_space_group_name_Hall           '-P 1'
loop_
_symmetry_equiv_pos_site_id
_symmetry_equiv_pos_as_xyz
1 x,y,z
2 -x,-y,-z
_cell_length_a                   6.5419(6)
_cell_length_b                   11.5935(10)
_cell_length_c                   13.4632(12)
_cell_angle_alpha                67.290(2)
_cell_angle_beta                 77.302(2)
_cell_angle_gamma                82.612(2)
_cell_volume                     917.809
_exptl_crystal_colour            colorless
_exptl_crystal_description       block
_cell_formula_units_Z            2
_exptl_crystal_recrystallization_method ethanol/water
loop_
_atom_site_label
_atom_site_type_symbol
_atom_site_fract_x
_atom_site_fract_y
_atom_site_fract_z
O1 O 0.3903(2) 0.24087(13) 0.21437(13)
H1 H 0.3510 0.3051 0.2264
O2 O 0.7053(2) 0.48794(12) 0.10816(12)
H2 H 0.6162 0.5126 0.1498
O3 O 1.0929(2) 0.29794(13) -0.00637(12)
H3 H 1.1511 0.3646 -0.0340
O4 O 1.1358(2) 0.04374(15) 0.33119(15)
H4 H 1.2274 0.0926 0.2929
O5 O 1.1888(3) 0.00643(15) 0.08718(14)
H5 H 1.2889 -0.0401 0.1081
N1 N 0.8513(2) 0.14766(14) 0.17532(12)
C1 C 0.5229(3) 0.27107(19) 0.11093(17)
H6 H 0.4753 0.3516 0.0622
H7 H 0.5107 0.2092 0.0807
C2 C 0.7846(3) 0.36638(17) 0.16754(15)
H8 H 0.7109 0.3379 0.2430
H9 H 0.9326 0.3684 0.1671
C3 C 0.8751(3) 0.32105(19) -0.00461(15)
H10 H 0.8302 0.2775 -0.0442
H11 H 0.8452 0.4100 -0.0409
C4 C 0.7533(3) 0.27667(16) 0.11354(14)
C5 C 0.7854(3) 0.09815(17) 0.29953(14)
H12 H 0.6568 0.1428 0.3190
H13 H 0.7562 0.0104 0.3253
C6 C 0.9494(3) 0.11183(19) 0.35648(16)
H14 H 0.9774 0.1995 0.3327
H15 H 0.8990 0.0804 0.4351
C7 C 0.8240(4) 0.04910(19) 0.13217(18)
H16 H 0.6910 0.0105 0.1689
H17 H 0.8220 0.0880 0.0543
C8 C 1.0004(4) -0.0496(2) 0.15127(19)
H18 H 1.0106 -0.0841 0.2282
H19 H 0.9744 -0.1171 0.1307
H24 H 0.984(3) 0.159(2) 0.1612(19)
O6 O 0.2025(3) 0.43071(16) 0.26168(15)
O7 O 0.4216(2) 0.57659(15) 0.23160(14)
O8 O -0.5679(3) 0.7061(2) 0.54362(18)
O9 O -0.3545(3) 0.84234(17) 0.52647(16)
N2 N -0.3965(3) 0.75195(18) 0.51016(15)
C9 C 0.2478(3) 0.52647(18) 0.27033(16)
C10 C 0.0783(3) 0.58862(17) 0.33189(15)
C11 C -0.1278(3) 0.5587(2) 0.3511(2)
H20 H -0.1617 0.5018 0.3246
C12 C -0.2841(3) 0.6123(2) 0.4091(2)
H21 H -0.4232 0.5927 0.4214
C13 C -0.2306(3) 0.69510(18) 0.44811(15)
C14 C -0.0276(3) 0.7274(2) 0.43053(17)
H22 H 0.0054 0.7840 0.4576
C15 C 0.1265(3) 0.6735(2) 0.37147(17)
H23 H 0.2650 0.6946 0.3581
O10 O 1.5201(3) -0.17079(17) 0.12201(18)
H25 H 1.489(3) -0.2450(17) 0.1584(17)
H26 H 1.628(3) -0.164(2) 0.0760(16)
loop_
_geom_bond_atom_site_label_1
_geom_bond_atom_site_label_2
_geom_bond_site_symmetry_1
_geom_bond_site_symmetry_2
O1 H1 1_555 1_555
O2 H2 1_555 1_555
O3 H3 1_555 1_555
O4 H4 1_555 1_555
O5 H5 1_555 1_555
O6 C9 1_555 1_555
O7 C9 1_555 1_555
O8 N2 1_555 1_555
O9 N2 1_555 1_555
O10 H25 1_555 1_555
N1 C4 1_555 1_555
N2 C13 1_555 1_555
C1 O1 1_555 1_555
H6 C1 1_555 1_555
H7 C1 1_555 1_555
C2 O2 1_555 1_555
H8 C2 1_555 1_555
H9 C2 1_555 1_555
C3 O3 1_555 1_555
H10 C3 1_555 1_555
H11 C3 1_555 1_555
C4 C1 1_555 1_555
C5 N1 1_555 1_555
H12 C5 1_555 1_555
H13 C5 1_555 1_555
C6 O4 1_555 1_555
H14 C6 1_555 1_555
H15 C6 1_555 1_555
C7 N1 1_555 1_555
H16 C7 1_555 1_555
H17 C7 1_555 1_555
C8 O5 1_555 1_555
H18 C8 1_555 1_555
H19 C8 1_555 1_555
C9 C10 1_555 1_555
C10 C11 1_555 1_555
C11 H20 1_555 1_555
C12 C11 1_555 1_555
H21 C12 1_555 1_555
C13 C12 1_555 1_555
C14 C13 1_555 1_555
H22 C14 1_555 1_555
C15 C10 1_555 1_555
H23 C15 1_555 1_555
H24 N1 1_555 1_555
H26 O10 1_555 1_555
C2 C4 1_555 1_555
C3 C4 1_555 1_555
C5 C6 1_555 1_555
C7 C8 1_555 1_555
C14 C15 1_555 1_555

#END
