
#######################################################################
#
#                 Cambridge Crystallographic Data Centre
#                                CCDC 
#
#######################################################################
#
# If this CIF has been generated from an entry in the Cambridge 
# Structural Database, then it will include bibliographic, chemical, 
# crystal, experimental, refinement or atomic coordinate data resulting 
# from the CCDC's data processing and validation procedures.
#
#######################################################################

data_WEFQOQ
_chemical_formula_moiety         'C17 H22 N2 O3'
_chemical_name_systematic        
1-methyl-3-{2-[4-(2-methylpropyl)phenyl]propanoyl}imidazolidine-2,4-dione
_symmetry_cell_setting           monoclinic
_symmetry_space_group_name_H-M   'P 21/c'
_symmetry_Int_Tables_number      14
_space_group_name_Hall           '-P 2ybc'
loop_
_symmetry_equiv_pos_site_id
_symmetry_equiv_pos_as_xyz
1 x,y,z
2 -x,1/2+y,1/2-z
3 -x,-y,-z
4 x,1/2-y,1/2+z
_cell_length_a                   18.419(4)
_cell_length_b                   5.7524(12)
_cell_length_c                   17.575(4)
_cell_angle_alpha                90
_cell_angle_beta                 117.267(3)
_cell_angle_gamma                90
_cell_volume                     1655.21
_exptl_crystal_colour            colorless
_exptl_crystal_description       block
_cell_formula_units_Z            4
loop_
_atom_site_label
_atom_site_type_symbol
_atom_site_fract_x
_atom_site_fract_y
_atom_site_fract_z
C1 C 0.4599(9) -0.411(2) 0.8904(6)
H1 H 0.4453 -0.5748 0.8759
H2 H 0.4342 -0.3533 0.9247
H3 H 0.5194 -0.3969 0.9233
C2 C 0.4309(5) -0.2720(19) 0.8103(5)
H4 H 0.4351 -0.3822 0.7685
C3 C 0.4957(3) -0.0918(14) 0.8250(4)
H5 H 0.4779 0.0067 0.7740
H6 H 0.5469 -0.1698 0.8359
H7 H 0.5043 0.0045 0.8744
C4 C 0.3503(2) -0.2073(7) 0.77167(19)
H8 H 0.3405 -0.1173 0.8141
H9 H 0.3173 -0.3509 0.7596
C5 C 0.31678(17) -0.0671(6) 0.69016(17)
C6 C 0.32311(19) -0.1494(5) 0.61925(18)
H10 H 0.3498 -0.2934 0.6230
C7 C 0.29163(18) -0.0269(5) 0.54361(18)
H11 H 0.2972 -0.0876 0.4963
C8 C 0.25185(16) 0.1835(5) 0.53525(16)
C9 C 0.24489(17) 0.2672(5) 0.60447(17)
H12 H 0.2175 0.4105 0.5999
C10 C 0.27761(17) 0.1446(6) 0.68206(18)
H13 H 0.2729 0.2070 0.7297
C11 C 0.21897(17) 0.3179(5) 0.45082(17)
H14 H 0.1862 0.4528 0.4539
C12 C 0.2877(2) 0.4097(6) 0.4329(2)
H15 H 0.2643 0.5051 0.3809
H16 H 0.3174 0.2785 0.4249
H17 H 0.3252 0.5042 0.4814
C13 C 0.16354(18) 0.1598(5) 0.37835(17)
C14 C 0.04497(19) -0.1123(5) 0.33390(18)
C15 C -0.03161(19) -0.1134(5) 0.34351(19)
H18 H -0.0805 -0.1056 0.2870
H19 H -0.0349 -0.2547 0.3739
C16 C 0.04303(16) 0.2164(5) 0.41027(16)
C17 C -0.09250(18) 0.1915(6) 0.4026(2)
H20 H -0.0730 0.3212 0.4433
H21 H -0.1165 0.0721 0.4240
H22 H -0.1339 0.2479 0.3469
N1 N 0.08919(14) 0.0872(4) 0.37723(13)
N2 N -0.02442(14) 0.0927(4) 0.39325(14)
O1 O 0.18075(14) 0.0879(5) 0.32445(13)
O2 O 0.06259(12) 0.4020(4) 0.44656(13)
O3 O 0.06621(16) -0.2551(4) 0.29864(15)
C18? C 0.4618(9) 0.065(3) 0.8583(9)
H23? H 0.4324 0.1694 0.8098
H24? H 0.5186 0.0493 0.8687
H25? H 0.4606 0.1282 0.9094
C19? C 0.4528(7) -0.295(2) 0.9233(7)
H26? H 0.4948 -0.2185 0.9744
H27? H 0.4741 -0.4421 0.9138
H28? H 0.4044 -0.3246 0.9313
C20? C 0.4286(6) -0.1289(18) 0.8418(6)
H29? H 0.4650 -0.2024 0.8205
loop_
_geom_bond_atom_site_label_1
_geom_bond_atom_site_label_2
_geom_bond_site_symmetry_1
_geom_bond_site_symmetry_2
C1 H1 1_555 1_555
H2 C1 1_555 1_555
H3 C1 1_555 1_555
C2 C1 1_555 1_555
H4 C2 1_555 1_555
C3 C2 1_555 1_555
H5 C3 1_555 1_555
H6 C3 1_555 1_555
H7 C3 1_555 1_555
C4 C2 1_555 1_555
H8 C4 1_555 1_555
H9 C4 1_555 1_555
C5 C4 1_555 1_555
C6 C5 1_555 1_555
H10 C6 1_555 1_555
C7 C6 1_555 1_555
H11 C7 1_555 1_555
C8 C7 1_555 1_555
C9 C8 1_555 1_555
H12 C9 1_555 1_555
C10 C5 1_555 1_555
H13 C10 1_555 1_555
C11 C8 1_555 1_555
H14 C11 1_555 1_555
C12 C11 1_555 1_555
H15 C12 1_555 1_555
H16 C12 1_555 1_555
H17 C12 1_555 1_555
C13 C11 1_555 1_555
C14 C15 1_555 1_555
C15 H18 1_555 1_555
H19 C15 1_555 1_555
C16 N1 1_555 1_555
C17 H20 1_555 1_555
H21 C17 1_555 1_555
H22 C17 1_555 1_555
N1 C13 1_555 1_555
N2 C15 1_555 1_555
O1 C13 1_555 1_555
O2 C16 1_555 1_555
O3 C14 1_555 1_555
C9 C10 1_555 1_555
C14 N1 1_555 1_555
C16 N2 1_555 1_555
C17 N2 1_555 1_555

#END
