
#######################################################################
#
#                 Cambridge Crystallographic Data Centre
#                                CCDC 
#
#######################################################################
#
# If this CIF has been generated from an entry in the Cambridge 
# Structural Database, then it will include bibliographic, chemical, 
# crystal, experimental, refinement or atomic coordinate data resulting 
# from the CCDC's data processing and validation procedures.
#
#######################################################################

data_WEFREG
_chemical_formula_moiety         'C19 H18 Cl1 N1 O2'
_chemical_name_systematic        
2-(7-Chloro-2-(4-methoxyphenyl)-1,2,3,4-tetrahydroisoquinolin-1-yl)acrylaldehyde
_symmetry_cell_setting           monoclinic
_symmetry_space_group_name_H-M   'P 21'
_symmetry_Int_Tables_number      4
_space_group_name_Hall           'P 2yb'
loop_
_symmetry_equiv_pos_site_id
_symmetry_equiv_pos_as_xyz
1 x,y,z
2 -x,1/2+y,-z
_cell_length_a                   6.634(19)
_cell_length_b                   7.46(2)
_cell_length_c                   16.24(4)
_cell_angle_alpha                90
_cell_angle_beta                 91.67(3)
_cell_angle_gamma                90
_cell_volume                     803.37
_exptl_crystal_colour            yellow
_exptl_crystal_description       block
_cell_formula_units_Z            2
loop_
_atom_site_label
_atom_site_type_symbol
_atom_site_fract_x
_atom_site_fract_y
_atom_site_fract_z
C1 C 0.3301(7) 0.1542(10) 0.3186(3)
H1 H 0.2367 0.1867 0.3609
H2 H 0.3748 0.0323 0.3291
C2 C 0.2235(9) 0.1624(10) 0.2361(4)
H3 H 0.1149 0.0752 0.2339
H4 H 0.1653 0.2806 0.2278
C3 C 0.3680(9) 0.1239(7) 0.1695(3)
C4 C 0.3231(9) 0.0153(9) 0.0997(3)
H5 H 0.1967 -0.0381 0.0942
C5 C 0.4596(12) -0.0121(9) 0.0411(3)
H6 H 0.4249 -0.0769 -0.0061
C6 C 0.6494(10) 0.0564(9) 0.0519(3)
C7 C 0.7028(9) 0.1612(7) 0.1184(3)
H7 H 0.8323 0.2083 0.1239
C8 C 0.5609(8) 0.1961(7) 0.1775(3)
C9 C 0.6078(7) 0.3202(7) 0.2495(3)
H8 H 0.7523 0.3078 0.2626
C10 C 0.5747(8) 0.5093(7) 0.2229(2)
C11 C 0.4104(10) 0.6046(9) 0.2370(3)
H9 H 0.3050 0.5537 0.2654
H10 H 0.4006 0.7224 0.2184
C12 C 0.7397(12) 0.6048(9) 0.1803(4)
H11 H 0.7132 0.7167 0.1572
C13 C 0.6132(7) 0.2845(7) 0.3973(3)
C14 C 0.7862(7) 0.3888(7) 0.4065(3)
H12 H 0.8292 0.4572 0.3625
C15 C 0.8952(7) 0.3919(7) 0.4804(3)
H13 H 1.0129 0.4594 0.4845
C16 C 0.8342(7) 0.2984(7) 0.5474(3)
C17 C 0.6578(7) 0.2020(7) 0.5394(3)
H14 H 0.6115 0.1397 0.5847
C18 C 0.5494(8) 0.1951(7) 0.4672(3)
H15 H 0.4302 0.1294 0.4645
C19 C 1.1210(8) 0.3837(9) 0.6296(3)
H16 H 1.2129 0.3369 0.5904
H17 H 1.1771 0.3683 0.6843
H18 H 1.0988 0.5089 0.6191
Cl1 Cl 0.8235(3) 0.0189(3) -0.02321(8)
N1 N 0.5036(6) 0.2743(6) 0.3232(2)
O1 O 0.9332(5) 0.2895(5) 0.62209(18)
O2 O 0.9068(8) 0.5417(9) 0.1748(3)
loop_
_geom_bond_atom_site_label_1
_geom_bond_atom_site_label_2
_geom_bond_site_symmetry_1
_geom_bond_site_symmetry_2
C1 H1 1_555 1_555
H2 C1 1_555 1_555
C2 C1 1_555 1_555
H3 C2 1_555 1_555
H4 C2 1_555 1_555
C3 C2 1_555 1_555
C4 C3 1_555 1_555
H5 C4 1_555 1_555
C5 C4 1_555 1_555
H6 C5 1_555 1_555
C6 C5 1_555 1_555
C7 C6 1_555 1_555
H7 C7 1_555 1_555
C8 C3 1_555 1_555
C9 C8 1_555 1_555
H8 C9 1_555 1_555
C10 C9 1_555 1_555
C11 C10 1_555 1_555
H9 C11 1_555 1_555
H10 C11 1_555 1_555
C12 C10 1_555 1_555
H11 C12 1_555 1_555
C13 C14 1_555 1_555
C14 H12 1_555 1_555
C15 C14 1_555 1_555
H13 C15 1_555 1_555
C16 C15 1_555 1_555
C17 C16 1_555 1_555
H14 C17 1_555 1_555
C18 C13 1_555 1_555
H15 C18 1_555 1_555
C19 H16 1_555 1_555
H17 C19 1_555 1_555
H18 C19 1_555 1_555
Cl1 C6 1_555 1_555
N1 C1 1_555 1_555
O1 C16 1_555 1_555
O2 C12 1_555 1_555
C7 C8 1_555 1_555
C9 N1 1_555 1_555
C13 N1 1_555 1_555
C17 C18 1_555 1_555
C19 O1 1_555 1_555

#END
