
#######################################################################
#
#                 Cambridge Crystallographic Data Centre
#                                CCDC 
#
#######################################################################
#
# If this CIF has been generated from an entry in the Cambridge 
# Structural Database, then it will include bibliographic, chemical, 
# crystal, experimental, refinement or atomic coordinate data resulting 
# from the CCDC's data processing and validation procedures.
#
#######################################################################

data_WEFROR
_chemical_name_common            
'(E)-1-(3-((E)-((2-hydroxynaphthalen-1-yl)methylene)amino)phenyl)ethanone O-benzyl oxime'
_chemical_formula_moiety         'C26 H22 N2 O2'
_chemical_name_systematic        
1-[({3-[N-(benzyloxy)ethanimidoyl]phenyl}imino)methyl]naphthalen-2-ol
_symmetry_cell_setting           monoclinic
_symmetry_space_group_name_H-M   'P 21/c'
_symmetry_Int_Tables_number      14
_space_group_name_Hall           '-P 2ybc'
loop_
_symmetry_equiv_pos_site_id
_symmetry_equiv_pos_as_xyz
1 x,y,z
2 -x,1/2+y,1/2-z
3 -x,-y,-z
4 x,1/2-y,1/2+z
_cell_length_a                   21.8152(18)
_cell_length_b                   4.3629(2)
_cell_length_c                   22.0099(12)
_cell_angle_alpha                90
_cell_angle_beta                 106.951(6)
_cell_angle_gamma                90
_cell_volume                     2003.84
_exptl_crystal_colour            'light yellow'
_exptl_crystal_description       block
_chemical_melting_point          '331-333 K'
_cell_formula_units_Z            4
loop_
_atom_site_label
_atom_site_type_symbol
_atom_site_fract_x
_atom_site_fract_y
_atom_site_fract_z
N1 N 0.10605(17) 0.1082(8) 0.47091(17)
O1 O 0.02905(14) -0.0204(7) 0.36222(15)
H1 H 0.0420 0.0658 0.3967
O2 O 0.34938(15) 0.9255(8) 0.62052(14)
C1 C 0.1495(2) -0.0493(10) 0.4551(2)
H2 H 0.1903 -0.0604 0.4837
C2 C 0.1856(2) -0.3908(9) 0.38058(19)
C3 C 0.13720(19) -0.2081(9) 0.39532(19)
C4 C 0.1705(2) -0.5433(10) 0.3206(2)
C5 C 0.1829(2) 0.4023(10) 0.5546(2)
H3 H 0.2150 0.3665 0.5353
C6 C 0.1223(2) 0.2772(9) 0.5279(2)
C7 C 0.2917(2) -0.6147(10) 0.4054(2)
H4 H 0.3325 -0.6364 0.4336
N2 N 0.28790(17) 0.7942(9) 0.59236(17)
C8 C 0.1964(2) 0.5795(10) 0.6093(2)
C9 C 0.2481(2) -0.4389(10) 0.4221(2)
H5 H 0.2594 -0.3472 0.4619
C10 C 0.1090(2) -0.5039(10) 0.2768(2)
H6 H 0.0992 -0.6008 0.2375
C11 C 0.2770(2) -0.7651(11) 0.3464(2)
H7 H 0.3072 -0.8878 0.3358
C12 C 0.0640(2) -0.3267(10) 0.2914(2)
H8 H 0.0243 -0.2998 0.2616
C13 C 0.0770(2) -0.1830(10) 0.3511(2)
C14 C 0.4411(2) 1.1474(12) 0.5997(2)
C15 C 0.2605(2) 0.7239(10) 0.6344(2)
C16 C 0.0747(2) 0.3352(10) 0.5575(2)
H9 H 0.0337 0.2576 0.5399
C17 C 0.2166(2) -0.7258(11) 0.3049(2)
H10 H 0.2062 -0.8224 0.2655
C18 C 0.1483(2) 0.6304(10) 0.6388(2)
H11 H 0.1567 0.7470 0.6756
C19 C 0.0880(2) 0.5052(10) 0.6122(2)
H12 H 0.0561 0.5368 0.6318
C20 C 0.5673(3) 1.3328(14) 0.6474(3)
H13 H 0.6102 1.3810 0.6661
C21 C 0.3727(2) 1.0456(14) 0.5710(2)
H14 H 0.3466 1.2179 0.5508
H15 H 0.3707 0.8894 0.5391
C22 C 0.2897(3) 0.7842(13) 0.7038(2)
H16 H 0.3301 0.6799 0.7183
H17 H 0.2615 0.7107 0.7268
H18 H 0.2962 1.0005 0.7107
C23 C 0.4875(5) 1.077(3) 0.5672(5)
H19 H 0.4758 0.9635 0.5299
C24 C 0.5495(6) 1.180(3) 0.5917(6)
H20 H 0.5793 1.1440 0.5697
C25 C 0.4598(6) 1.322(3) 0.6525(5)
H21 H 0.4298 1.3796 0.6729
C26 C 0.5223(5) 1.417(3) 0.6766(5)
H22 H 0.5340 1.5387 0.7129
H23? H 0.6094 1.4006 0.6631
C27? C 0.4688(5) 1.319(3) 0.5665(5)
H24? H 0.4454 1.3779 0.5257
C28? C 0.5320(6) 1.416(3) 0.5903(7)
H25? H 0.5496 1.5415 0.5656
C29? C 0.4770(5) 1.052(3) 0.6614(5)
H26? H 0.4578 0.9318 0.6857
C30? C 0.5402(5) 1.137(3) 0.6852(5)
H27? H 0.5648 1.0693 0.7249
loop_
_geom_bond_atom_site_label_1
_geom_bond_atom_site_label_2
_geom_bond_site_symmetry_1
_geom_bond_site_symmetry_2
N1 C1 1_555 1_555
O1 H1 1_555 1_555
O2 N2 1_555 1_555
C1 H2 1_555 1_555
C2 C3 1_555 1_555
C3 C1 1_555 1_555
C4 C2 1_555 1_555
C5 H3 1_555 1_555
C6 N1 1_555 1_555
C7 H4 1_555 1_555
N2 C15 1_555 1_555
C8 C5 1_555 1_555
C9 C2 1_555 1_555
H5 C9 1_555 1_555
C10 C4 1_555 1_555
H6 C10 1_555 1_555
C11 C7 1_555 1_555
H7 C11 1_555 1_555
C12 C10 1_555 1_555
H8 C12 1_555 1_555
C13 O1 1_555 1_555
C14 C21 1_555 1_555
C15 C8 1_555 1_555
C16 C6 1_555 1_555
H9 C16 1_555 1_555
C17 C4 1_555 1_555
H10 C17 1_555 1_555
C18 C8 1_555 1_555
H11 C18 1_555 1_555
C19 C16 1_555 1_555
H12 C19 1_555 1_555
C20 H13 1_555 1_555
C21 O2 1_555 1_555
H14 C21 1_555 1_555
H15 C21 1_555 1_555
C22 C15 1_555 1_555
H16 C22 1_555 1_555
H17 C22 1_555 1_555
H18 C22 1_555 1_555
C23 C14 1_555 1_555
H19 C23 1_555 1_555
C24 C20 1_555 1_555
H20 C24 1_555 1_555
C25 C14 1_555 1_555
H21 C25 1_555 1_555
C26 C20 1_555 1_555
H22 C26 1_555 1_555
C3 C13 1_555 1_555
C5 C6 1_555 1_555
C7 C9 1_555 1_555
C11 C17 1_555 1_555
C12 C13 1_555 1_555
C18 C19 1_555 1_555
C23 C24 1_555 1_555
C25 C26 1_555 1_555

#END
