
#######################################################################
#
#                 Cambridge Crystallographic Data Centre
#                                CCDC 
#
#######################################################################
#
# If this CIF has been generated from an entry in the Cambridge 
# Structural Database, then it will include bibliographic, chemical, 
# crystal, experimental, refinement or atomic coordinate data resulting 
# from the CCDC's data processing and validation procedures.
#
#######################################################################

data_WEFSOR
_chemical_formula_moiety         'C12 H19 O3 P1'
_chemical_name_systematic        
'(R)-(1-(4-Isobutylphenyl)ethyl)phosphonic acid'
_symmetry_cell_setting           monoclinic
_symmetry_space_group_name_H-M   'P 21'
_symmetry_Int_Tables_number      4
_space_group_name_Hall           'P 2yb'
loop_
_symmetry_equiv_pos_site_id
_symmetry_equiv_pos_as_xyz
1 x,y,z
2 -x,1/2+y,-z
_cell_length_a                   8.6055(10)
_cell_length_b                   8.1966(9)
_cell_length_c                   19.405(2)
_cell_angle_alpha                90
_cell_angle_beta                 100.105(2)
_cell_angle_gamma                90
_cell_volume                     1347.52
_exptl_crystal_colour            colorless
_exptl_crystal_description       prismatic
_cell_formula_units_Z            4
loop_
_atom_site_label
_atom_site_type_symbol
_atom_site_fract_x
_atom_site_fract_y
_atom_site_fract_z
P1 P 0.05331(7) 0.00661(8) 0.05719(4)
O1 O 0.0775(2) -0.0908(3) -0.00766(12)
O2 O 0.1117(2) 0.1760(3) 0.05003(12)
O3 O -0.1210(2) -0.0031(3) 0.06600(11)
C1 C 0.1577(3) -0.0885(4) 0.13504(15)
H1 H 0.2705 -0.0805 0.1331
C2 C 0.1180(5) -0.2700(4) 0.1366(2)
H2 H 0.1752 -0.3180 0.1787
H3 H 0.1471 -0.3230 0.0966
H4 H 0.0067 -0.2830 0.1356
C3 C 0.1305(3) 0.0068(4) 0.19886(15)
C4 C 0.0158(4) -0.0368(5) 0.2369(2)
H5 H -0.0487 -0.1261 0.2229
C5 C -0.0042(5) 0.0501(5) 0.2951(2)
H6 H -0.0822 0.0178 0.3199
C6 C 0.0876(5) 0.1841(5) 0.31818(19)
C7 C 0.1980(5) 0.2286(5) 0.2789(2)
H7 H 0.2601 0.3202 0.2919
C8 C 0.2194(5) 0.1416(5) 0.22101(19)
H8 H 0.2965 0.1751 0.1960
C9 C 0.0637(6) 0.2775(7) 0.3822(2)
H9 H 0.1611 0.3336 0.4012
H10 H 0.0420 0.2005 0.4173
C10 C -0.0706(7) 0.4031(8) 0.3693(3)
H11 H -0.1640 0.3480 0.3435
C11 C -0.0345(8) 0.5419(7) 0.3262(3)
H12 H -0.1246 0.6126 0.3165
H13 H -0.0094 0.5018 0.2830
H14 H 0.0539 0.6014 0.3511
C12 C -0.1095(11) 0.4576(12) 0.4381(4)
H15 H -0.0224 0.5183 0.4634
H16 H -0.1292 0.3639 0.4650
H17 H -0.2018 0.5255 0.4299
H35 H -0.182(3) 0.018(5) 0.0328(13)
H36 H 0.014(4) -0.157(4) -0.0230(19)
P2 P 0.47476(7) 0.41963(8) 0.05176(4)
O4 O 0.5401(3) 0.3557(3) -0.01231(11)
O5 O 0.3648(2) 0.5570(2) 0.02799(10)
O6 O 0.3980(3) 0.2781(3) 0.08593(12)
C13 C 0.6400(3) 0.4815(4) 0.11739(15)
H18 H 0.7041 0.5550 0.0941
C14 C 0.7444(4) 0.3360(5) 0.14299(19)
H19 H 0.8403 0.3738 0.1714
H20 H 0.7689 0.2771 0.1035
H21 H 0.6897 0.2655 0.1702
C15 C 0.5887(3) 0.5789(4) 0.17601(16)
C16 C 0.5298(5) 0.5040(6) 0.2300(2)
H22 H 0.5192 0.3910 0.2301
C17 C 0.4867(6) 0.5934(8) 0.2836(2)
H23 H 0.4494 0.5388 0.3194
C18 C 0.4970(5) 0.7611(8) 0.2861(2)
C19 C 0.5589(5) 0.8342(6) 0.2332(2)
H24 H 0.5711 0.9469 0.2339
C20 C 0.6040(4) 0.7466(5) 0.17912(18)
H25 H 0.6451 0.8014 0.1444
C21 C 0.433(2) 0.823(2) 0.3515(10)
H26 H 0.4205 0.7323 0.3821
H27 H 0.3310 0.8746 0.3373
C22 C 0.5558(17) 0.951(2) 0.3918(7)
H28 H 0.5791 1.0318 0.3577
C23 C 0.707(3) 0.872(3) 0.4240(14)
H29 H 0.7745 0.9517 0.4504
H30 H 0.7575 0.8282 0.3879
H31 H 0.6855 0.7860 0.4545
C24 C 0.479(2) 1.042(2) 0.4474(8)
H32 H 0.4346 0.9641 0.4754
H33 H 0.3963 1.1124 0.4243
H34 H 0.5569 1.1063 0.4768
H37 H 0.573(4) 0.261(3) -0.0099(17)
H38 H 0.311(3) 0.256(5) 0.0650(17)
C25? C 0.5278(15) 0.8468(18) 0.4106(6)
C26? C 0.683(4) 0.929(3) 0.4120(16)
C27? C 0.450(2) 0.935(2) 0.4638(9)
C28? C 0.444(3) 0.886(2) 0.3363(10)
H39? H 0.5381 0.7293 0.4196
H40? H 0.7401 0.8735 0.3807
H41? H 0.7427 0.9251 0.4586
H42? H 0.6658 1.0403 0.3976
H43? H 0.5296 0.9856 0.4981
H44? H 0.3910 0.8589 0.4865
H45? H 0.3803 1.0175 0.4407
H46? H 0.4707 0.9954 0.3234
H47? H 0.3304 0.8800 0.3337
loop_
_geom_bond_atom_site_label_1
_geom_bond_atom_site_label_2
_geom_bond_site_symmetry_1
_geom_bond_site_symmetry_2
P1 O1 1_555 1_555
P2 O4 1_555 1_555
O1 H36 1_555 1_555
O2 P1 1_555 1_555
O3 P1 1_555 1_555
O4 H37 1_555 1_555
O5 P2 1_555 1_555
O6 P2 1_555 1_555
C1 P1 1_555 1_555
H1 C1 1_555 1_555
C2 C1 1_555 1_555
H2 C2 1_555 1_555
H3 C2 1_555 1_555
H4 C2 1_555 1_555
C3 C1 1_555 1_555
C4 C3 1_555 1_555
H5 C4 1_555 1_555
C5 C4 1_555 1_555
H6 C5 1_555 1_555
C6 C5 1_555 1_555
C7 C6 1_555 1_555
H7 C7 1_555 1_555
C8 C3 1_555 1_555
H8 C8 1_555 1_555
C9 C6 1_555 1_555
H9 C9 1_555 1_555
H10 C9 1_555 1_555
C10 C9 1_555 1_555
H11 C10 1_555 1_555
C11 C10 1_555 1_555
H12 C11 1_555 1_555
H13 C11 1_555 1_555
H14 C11 1_555 1_555
C12 C10 1_555 1_555
H15 C12 1_555 1_555
H16 C12 1_555 1_555
H17 C12 1_555 1_555
C13 P2 1_555 1_555
H18 C13 1_555 1_555
C14 C13 1_555 1_555
H19 C14 1_555 1_555
H20 C14 1_555 1_555
H21 C14 1_555 1_555
C15 C13 1_555 1_555
C16 C15 1_555 1_555
H22 C16 1_555 1_555
C17 C16 1_555 1_555
H23 C17 1_555 1_555
C18 C17 1_555 1_555
C19 C18 1_555 1_555
H24 C19 1_555 1_555
C20 C15 1_555 1_555
H25 C20 1_555 1_555
C21 C18 1_555 1_555
H26 C21 1_555 1_555
H27 C21 1_555 1_555
C22 C21 1_555 1_555
H28 C22 1_555 1_555
C23 C22 1_555 1_555
H29 C23 1_555 1_555
H30 C23 1_555 1_555
H31 C23 1_555 1_555
C24 C22 1_555 1_555
H32 C24 1_555 1_555
H33 C24 1_555 1_555
H34 C24 1_555 1_555
H35 O3 1_555 1_555
H38 O6 1_555 1_555
C7 C8 1_555 1_555
C19 C20 1_555 1_555

#END
