
#######################################################################
#
#                 Cambridge Crystallographic Data Centre
#                                CCDC 
#
#######################################################################
#
# If this CIF has been generated from an entry in the Cambridge 
# Structural Database, then it will include bibliographic, chemical, 
# crystal, experimental, refinement or atomic coordinate data resulting 
# from the CCDC's data processing and validation procedures.
#
#######################################################################

data_WEFSUY
_chemical_formula_moiety         'C27 H31 N1 O1 S1'
_chemical_name_systematic        
2,6-di-t-butyl-4-[(10H-phenothiazin-10-yl)methyl]phenol
_symmetry_cell_setting           triclinic
_symmetry_space_group_name_H-M   'P -1'
_symmetry_Int_Tables_number      2
_space_group_name_Hall           '-P 1'
loop_
_symmetry_equiv_pos_site_id
_symmetry_equiv_pos_as_xyz
1 x,y,z
2 -x,-y,-z
_cell_length_a                   9.2279(8)
_cell_length_b                   10.2275(9)
_cell_length_c                   13.0749(12)
_cell_angle_alpha                73.910(2)
_cell_angle_beta                 79.621(2)
_cell_angle_gamma                72.216(2)
_cell_volume                     1122.82
_exptl_crystal_colour            colorless
_exptl_crystal_description       block
_cell_formula_units_Z            2
loop_
_atom_site_label
_atom_site_type_symbol
_atom_site_fract_x
_atom_site_fract_y
_atom_site_fract_z
S1 S 0.37889(3) 0.31619(3) 0.99383(2)
O1 O 0.74965(9) 0.16894(10) 0.42728(7)
H1 H 0.726210 0.166849 0.368695
N1 N 0.24683(10) 0.39775(10) 0.78933(7)
C1 C 0.25542(11) 0.25588(11) 0.84362(8)
C2 C 0.21012(12) 0.16478(12) 0.80132(9)
H2 H 0.174805 0.196884 0.732398
C3 C 0.21659(14) 0.02742(13) 0.85981(10)
H3 H 0.185728 -0.033707 0.830317
C4 C 0.26775(14) -0.02183(13) 0.96112(10)
H4 H 0.271101 -0.115652 1.000775
C5 C 0.31379(13) 0.06758(13) 1.00354(9)
H5 H 0.347789 0.035206 1.072873
C6 C 0.31026(12) 0.20453(12) 0.94477(8)
C7 C 0.23807(12) 0.47525(12) 0.95017(8)
C8 C 0.18419(14) 0.57530(13) 1.01172(9)
H6 H 0.219326 0.556245 1.079707
C9 C 0.07905(14) 0.70299(13) 0.97367(10)
H7 H 0.044495 0.772532 1.014458
C10 C 0.02487(13) 0.72814(12) 0.87554(9)
H8 H -0.047596 0.814998 0.849722
C11 C 0.07564(12) 0.62738(12) 0.81458(9)
H9 H 0.035679 0.644798 0.748544
C12 C 0.18521(11) 0.50078(11) 0.85041(8)
C13 C 0.23364(12) 0.44079(12) 0.67425(8)
H10 H 0.225469 0.543140 0.648669
H11 H 0.138737 0.425090 0.660852
C14 C 0.36921(11) 0.35994(11) 0.61137(8)
C15 C 0.35042(12) 0.33623(11) 0.51558(8)
H12 H 0.250375 0.363832 0.493963
C16 C 0.47385(11) 0.27307(11) 0.44980(8)
C17 C 0.62008(11) 0.23216(12) 0.48622(8)
C18 C 0.64327(11) 0.24995(11) 0.58478(8)
C19 C 0.51495(12) 0.31593(12) 0.64503(8)
H13 H 0.527430 0.331262 0.710957
C20 C 0.80225(12) 0.19630(12) 0.62711(9)
C21 C 0.91797(13) 0.26824(14) 0.55019(10)
H14 H 0.928189 0.248024 0.479826
H15 H 1.017628 0.231825 0.578673
H16 H 0.881662 0.370608 0.543182
C22 C 0.86204(14) 0.03489(14) 0.64205(11)
H17 H 0.790828 -0.010811 0.693814
H18 H 0.962929 0.001864 0.668581
H19 H 0.870424 0.010904 0.573279
C23 C 0.79426(14) 0.22772(16) 0.73665(10)
H20 H 0.760883 0.330156 0.729560
H21 H 0.895654 0.189377 0.762553
H22 H 0.721137 0.183659 0.787683
C24 C 0.44832(12) 0.24846(12) 0.34388(8)
C25 C 0.53611(14) 0.32884(14) 0.24721(9)
H23 H 0.507928 0.428918 0.248429
H24 H 0.509590 0.319917 0.180637
H25 H 0.646452 0.288632 0.251311
C26 C 0.27880(13) 0.30394(14) 0.32308(9)
H26 H 0.217494 0.255435 0.381867
H27 H 0.267091 0.285902 0.255620
H28 H 0.243870 0.405823 0.318501
C27 C 0.49549(15) 0.08921(13) 0.34730(10)
H29 H 0.602782 0.048433 0.361605
H30 H 0.483012 0.075947 0.278297
H31 H 0.430669 0.042056 0.404154
loop_
_geom_bond_atom_site_label_1
_geom_bond_atom_site_label_2
_geom_bond_site_symmetry_1
_geom_bond_site_symmetry_2
S1 C6 1_555 1_555
O1 H1 1_555 1_555
N1 C1 1_555 1_555
C1 C2 1_555 1_555
C2 H2 1_555 1_555
C3 C2 1_555 1_555
H3 C3 1_555 1_555
C4 C3 1_555 1_555
H4 C4 1_555 1_555
C5 C4 1_555 1_555
H5 C5 1_555 1_555
C6 C1 1_555 1_555
C7 S1 1_555 1_555
C8 C7 1_555 1_555
H6 C8 1_555 1_555
C9 C8 1_555 1_555
H7 C9 1_555 1_555
C10 C9 1_555 1_555
H8 C10 1_555 1_555
C11 C10 1_555 1_555
H9 C11 1_555 1_555
C12 N1 1_555 1_555
C13 N1 1_555 1_555
H10 C13 1_555 1_555
H11 C13 1_555 1_555
C14 C13 1_555 1_555
C15 C14 1_555 1_555
H12 C15 1_555 1_555
C16 C15 1_555 1_555
C17 O1 1_555 1_555
C18 C17 1_555 1_555
C19 C14 1_555 1_555
H13 C19 1_555 1_555
C20 C18 1_555 1_555
C21 C20 1_555 1_555
H14 C21 1_555 1_555
H15 C21 1_555 1_555
H16 C21 1_555 1_555
C22 C20 1_555 1_555
H17 C22 1_555 1_555
H18 C22 1_555 1_555
H19 C22 1_555 1_555
C23 C20 1_555 1_555
H20 C23 1_555 1_555
H21 C23 1_555 1_555
H22 C23 1_555 1_555
C24 C16 1_555 1_555
C25 C24 1_555 1_555
H23 C25 1_555 1_555
H24 C25 1_555 1_555
H25 C25 1_555 1_555
C26 C24 1_555 1_555
H26 C26 1_555 1_555
H27 C26 1_555 1_555
H28 C26 1_555 1_555
C27 C24 1_555 1_555
H29 C27 1_555 1_555
H30 C27 1_555 1_555
H31 C27 1_555 1_555
C5 C6 1_555 1_555
C7 C12 1_555 1_555
C11 C12 1_555 1_555
C16 C17 1_555 1_555
C18 C19 1_555 1_555

#END
