
#######################################################################
#
#                 Cambridge Crystallographic Data Centre
#                                CCDC 
#
#######################################################################
#
# If this CIF has been generated from an entry in the Cambridge 
# Structural Database, then it will include bibliographic, chemical, 
# crystal, experimental, refinement or atomic coordinate data resulting 
# from the CCDC's data processing and validation procedures.
#
#######################################################################

data_WEFTIN
_chemical_name_common            
'(E)-2,3-dihydroxybenzaldehyde O-(2-((((E)-1-(2,5- dihydroxyphenyl)ethylidene)amino)oxy)ethyl) oxime monohydrate'
_chemical_formula_moiety         'C17 H18 N2 O6,H2 O1'
_chemical_name_systematic        
'3-[8-(2,5-dihydroxyphenyl)-3,6-dioxa-2,7-diazanona-1,7-dien-1-yl]benzene-1,2-diol monohydrate'
_symmetry_cell_setting           monoclinic
_symmetry_space_group_name_H-M   'P 21/n'
_symmetry_Int_Tables_number      14
_space_group_name_Hall           '-P 2yn'
loop_
_symmetry_equiv_pos_site_id
_symmetry_equiv_pos_as_xyz
1 x,y,z
2 1/2-x,1/2+y,1/2-z
3 -x,-y,-z
4 1/2+x,1/2-y,1/2+z
_cell_length_a                   4.6318(11)
_cell_length_b                   13.472(3)
_cell_length_c                   27.120(7)
_cell_angle_alpha                90
_cell_angle_beta                 91.081(5)
_cell_angle_gamma                90
_cell_volume                     1691.98
_exptl_crystal_colour            'pale yellow'
_exptl_crystal_description       needle-like
_cell_formula_units_Z            4
loop_
_atom_site_label
_atom_site_type_symbol
_atom_site_fract_x
_atom_site_fract_y
_atom_site_fract_z
C1 C 0.0015(9) 0.3125(3) 0.52082(16)
C2 C 0.1650(10) 0.3512(4) 0.55968(17)
H1 H 0.1411 0.4174 0.5686
C3 C 0.3621(11) 0.2935(5) 0.58533(19)
H2 H 0.4722 0.3211 0.6109
C4 C 0.3972(11) 0.1938(5) 0.5732(2)
H3 H 0.5292 0.1547 0.5906
C5 C 0.2370(11) 0.1543(3) 0.53568(19)
C6 C 0.0434(9) 0.2134(3) 0.50816(16)
C7 C -0.2008(10) 0.3744(3) 0.49433(17)
H4 H -0.2304 0.4390 0.5052
C8 C -0.0881(14) 0.6020(4) 0.2973(2)
H5 H 0.0850 0.6237 0.3141
H6 H -0.2449 0.6015 0.3199
H7 H -0.1324 0.6465 0.2705
C9 C -0.6700(10) 0.3778(4) 0.39357(18)
H8 H -0.8132 0.4258 0.3825
H9 H -0.7715 0.3179 0.4028
C10 C -0.4757(10) 0.3543(3) 0.35149(17)
H10 H -0.3239 0.3093 0.3623
H11 H -0.5852 0.3227 0.3250
C11 C -0.0445(10) 0.5001(3) 0.27755(16)
C12 C 0.1555(9) 0.4824(3) 0.23658(16)
C13 C 0.2991(11) 0.5629(4) 0.21523(18)
H12 H 0.2625 0.6269 0.2263
C14 C 0.4920(11) 0.5488(4) 0.17836(19)
C15 C 0.5494(12) 0.4561(4) 0.16075(19)
H13 H 0.6817 0.4474 0.1358
C16 C 0.4099(11) 0.3761(4) 0.18033(18)
H14 H 0.4469 0.3130 0.1680
C17 C 0.2135(10) 0.3871(3) 0.21829(16)
N1 N -0.3411(8) 0.3438(3) 0.45641(14)
N2 N -0.1705(8) 0.4234(3) 0.29504(13)
O1 O -0.5229(7) 0.4164(2) 0.43602(12)
O2 O -0.3529(7) 0.4456(2) 0.33456(11)
O3 O 0.6191(10) 0.6326(3) 0.15868(18)
H15 H 0.7542 0.6183 0.1321
O4 O 0.0903(8) 0.3040(2) 0.23602(13)
H16 H -0.0102 0.3182 0.2596
O5 O -0.0990(8) 0.1681(3) 0.47050(13)
H17 H -0.1850 0.2098 0.4538
O6 O 0.2515(9) 0.0566(3) 0.52375(16)
H18 H 0.4473 0.0382 0.5329
O7 O 0.4427(11) 0.0850(5) 0.41109(18)
H19 H 0.3073 0.1106 0.3906
H20 H 0.3997 0.0982 0.4398
loop_
_geom_bond_atom_site_label_1
_geom_bond_atom_site_label_2
_geom_bond_site_symmetry_1
_geom_bond_site_symmetry_2
C1 C2 1_555 1_555
C2 H1 1_555 1_555
C3 C2 1_555 1_555
H2 C3 1_555 1_555
C4 C3 1_555 1_555
H3 C4 1_555 1_555
C5 C4 1_555 1_555
C6 C1 1_555 1_555
C7 C1 1_555 1_555
H4 C7 1_555 1_555
C8 H5 1_555 1_555
H6 C8 1_555 1_555
H7 C8 1_555 1_555
C9 H8 1_555 1_555
H9 C9 1_555 1_555
C10 C9 1_555 1_555
H10 C10 1_555 1_555
H11 C10 1_555 1_555
C11 C8 1_555 1_555
C12 C11 1_555 1_555
C13 C12 1_555 1_555
H12 C13 1_555 1_555
C14 C13 1_555 1_555
C15 C14 1_555 1_555
H13 C15 1_555 1_555
C16 C15 1_555 1_555
H14 C16 1_555 1_555
C17 C12 1_555 1_555
N1 C7 1_555 1_555
N2 C11 1_555 1_555
O1 C9 1_555 1_555
O2 C10 1_555 1_555
O3 C14 1_555 1_555
H15 O3 1_555 1_555
O4 C17 1_555 1_555
H16 O4 1_555 1_555
O5 C6 1_555 1_555
H17 O5 1_555 1_555
O6 C5 1_555 1_555
H18 O6 1_555 1_555
O7 H19 1_555 1_555
H20 O7 1_555 1_555
C5 C6 1_555 1_555
C16 C17 1_555 1_555
N1 O1 1_555 1_555
N2 O2 1_555 1_555

#END
