
#######################################################################
#
#                 Cambridge Crystallographic Data Centre
#                                CCDC 
#
#######################################################################
#
# If this CIF has been generated from an entry in the Cambridge 
# Structural Database, then it will include bibliographic, chemical, 
# crystal, experimental, refinement or atomic coordinate data resulting 
# from the CCDC's data processing and validation procedures.
#
#######################################################################

data_WEFTIL
_chemical_formula_moiety         'C16 H16 Br1 N1 O2'
_chemical_name_systematic        '4-Bromobenzaldehyde O-(2-ethoxybenzyl)oxime'
_chemical_properties_biological  'potential herbicidal activity'
_symmetry_cell_setting           triclinic
_symmetry_space_group_name_H-M   'P -1'
_symmetry_Int_Tables_number      2
_space_group_name_Hall           '-P 1'
loop_
_symmetry_equiv_pos_site_id
_symmetry_equiv_pos_as_xyz
1 x,y,z
2 -x,-y,-z
_cell_length_a                   7.626(3)
_cell_length_b                   7.833(3)
_cell_length_c                   13.934(6)
_cell_angle_alpha                91.501(7)
_cell_angle_beta                 92.925(7)
_cell_angle_gamma                115.968(6)
_cell_volume                     746.238
_exptl_crystal_colour            colorless
_exptl_crystal_description       prism
_chemical_melting_point          '333-334 K'
_cell_formula_units_Z            2
_exptl_crystal_recrystallization_method 'dichloromethane/petroleum ether'
loop_
_atom_site_label
_atom_site_type_symbol
_atom_site_fract_x
_atom_site_fract_y
_atom_site_fract_z
Br1 Br 0.72069(6) -0.42472(5) 1.18213(3)
N1 N 0.7450(4) 0.2154(3) 0.85015(17)
O1 O 0.7652(3) 0.3850(3) 0.81074(13)
O2 O 0.7343(3) 0.3788(3) 0.51731(13)
C1 C 0.7695(4) 0.2323(4) 0.9408(2)
H1 H 0.7962 0.3483 0.9721
C2 C 0.7568(4) 0.0743(4) 0.99718(19)
C3 C 0.7118(5) -0.1015(4) 0.9549(2)
H2 H 0.6871 -0.1206 0.8884
C4 C 0.7025(5) -0.2493(4) 1.0082(2)
H3 H 0.6736 -0.3670 0.9782
C5 C 0.7365(4) -0.2213(4) 1.1068(2)
C6 C 0.7787(5) -0.0501(4) 1.1507(2)
H4 H 0.8001 -0.0327 1.2173
C7 C 0.7896(5) 0.0977(4) 1.0964(2)
H5 H 0.8196 0.2154 1.1267
C8 C 0.7372(5) 0.3549(4) 0.7087(2)
H6 H 0.6068 0.2560 0.6908
H7 H 0.8312 0.3145 0.6850
C9 C 0.7635(4) 0.5371(4) 0.66527(19)
C10 C 0.7584(4) 0.5424(4) 0.56494(19)
C11 C 0.7784(4) 0.7061(4) 0.5222(2)
H8 H 0.7746 0.7096 0.4555
C12 C 0.8038(5) 0.8644(4) 0.5777(2)
H9 H 0.8172 0.9745 0.5484
C13 C 0.8095(5) 0.8597(4) 0.6760(2)
H10 H 0.8271 0.9666 0.7135
C14 C 0.7890(4) 0.6963(4) 0.7190(2)
H11 H 0.7926 0.6939 0.7858
C15 C 0.7194(5) 0.3727(5) 0.4143(2)
H12 H 0.8387 0.4679 0.3908
H13 H 0.6112 0.3979 0.3914
C16 C 0.6866(6) 0.1791(5) 0.3795(2)
H14 H 0.8001 0.1605 0.3972
H15 H 0.6633 0.1664 0.3107
H16 H 0.5753 0.0856 0.4081
loop_
_geom_bond_atom_site_label_1
_geom_bond_atom_site_label_2
_geom_bond_site_symmetry_1
_geom_bond_site_symmetry_2
Br1 C5 1_555 1_555
N1 O1 1_555 1_555
O1 C8 1_555 1_555
O2 C10 1_555 1_555
C1 N1 1_555 1_555
H1 C1 1_555 1_555
C2 C1 1_555 1_555
C3 C2 1_555 1_555
H2 C3 1_555 1_555
C4 C3 1_555 1_555
H3 C4 1_555 1_555
C5 C4 1_555 1_555
C6 C5 1_555 1_555
H4 C6 1_555 1_555
C7 C2 1_555 1_555
H5 C7 1_555 1_555
C8 H6 1_555 1_555
H7 C8 1_555 1_555
C9 C8 1_555 1_555
C10 C9 1_555 1_555
C11 C10 1_555 1_555
H8 C11 1_555 1_555
C12 C11 1_555 1_555
H9 C12 1_555 1_555
C13 C12 1_555 1_555
H10 C13 1_555 1_555
C14 C9 1_555 1_555
H11 C14 1_555 1_555
C15 O2 1_555 1_555
H12 C15 1_555 1_555
H13 C15 1_555 1_555
C16 C15 1_555 1_555
H14 C16 1_555 1_555
H15 C16 1_555 1_555
H16 C16 1_555 1_555
C6 C7 1_555 1_555
C13 C14 1_555 1_555

#END
