
#######################################################################
#
#                 Cambridge Crystallographic Data Centre
#                                CCDC 
#
#######################################################################
#
# If this CIF has been generated from an entry in the Cambridge 
# Structural Database, then it will include bibliographic, chemical, 
# crystal, experimental, refinement or atomic coordinate data resulting 
# from the CCDC's data processing and validation procedures.
#
#######################################################################

data_WEFVIN01
_chemical_formula_moiety         'C6 H5 F1 N2 O4'
_chemical_name_systematic        5-Fluoro-1-(carboxymethyl)uracil
_symmetry_cell_setting           monoclinic
_symmetry_space_group_name_H-M   'P 21/c'
_symmetry_Int_Tables_number      14
_space_group_name_Hall           '-P 2ybc'
loop_
_symmetry_equiv_pos_site_id
_symmetry_equiv_pos_as_xyz
1 x,y,z
2 -x,1/2+y,1/2-z
3 -x,-y,-z
4 x,1/2-y,1/2+z
_cell_length_a                   4.9363(5)
_cell_length_b                   17.0558(18)
_cell_length_c                   9.4940(8)
_cell_angle_alpha                90
_cell_angle_beta                 114.466(4)
_cell_angle_gamma                90
_cell_volume                     727.55
_exptl_crystal_colour            colorless
_exptl_crystal_description       block
_cell_formula_units_Z            4
_exptl_crystal_recrystallization_method 'anhydrous ethanol'
loop_
_atom_site_label
_atom_site_type_symbol
_atom_site_fract_x
_atom_site_fract_y
_atom_site_fract_z
F1 F -0.2607(3) 0.55144(9) 0.07069(18)
O1 O 0.7772(3) 0.68825(9) 0.40957(18)
O2 O 0.1259(3) 0.49076(9) 0.35115(18)
O3 O 0.1535(4) 0.81286(9) 0.29242(19)
O4 O 0.3316(3) 0.89748(8) 0.1724(2)
H1 H 0.2298 0.9294 0.1936
N1 N 0.3514(4) 0.68637(9) 0.18829(18)
N2 N 0.4569(4) 0.58688(9) 0.3699(2)
H2 H 0.5836 0.5645 0.4519
C1 C 0.5460(4) 0.65646(12) 0.3280(2)
C2 C 0.1895(4) 0.54940(11) 0.2957(2)
C3 C 0.0040(5) 0.58595(12) 0.1522(3)
C4 C 0.0818(4) 0.65138(12) 0.1033(2)
H3 H -0.0475 0.6739 0.0106
C5 C 0.4121(4) 0.76444(11) 0.1456(2)
H4 H 0.3255 0.7693 0.0338
H5 H 0.6254 0.7719 0.1832
C6 C 0.2840(4) 0.82655(11) 0.2133(2)
loop_
_geom_bond_atom_site_label_1
_geom_bond_atom_site_label_2
_geom_bond_site_symmetry_1
_geom_bond_site_symmetry_2
F1 C3 1_555 1_555
O1 C1 1_555 1_555
O2 C2 1_555 1_555
O3 C6 1_555 1_555
O4 H1 1_555 1_555
N1 C1 1_555 1_555
N2 H2 1_555 1_555
C1 N2 1_555 1_555
C2 N2 1_555 1_555
C3 C2 1_555 1_555
C4 N1 1_555 1_555
H3 C4 1_555 1_555
C5 N1 1_555 1_555
H4 C5 1_555 1_555
H5 C5 1_555 1_555
C6 O4 1_555 1_555
C3 C4 1_555 1_555
C5 C6 1_555 1_555

#END
