
#######################################################################
#
#                 Cambridge Crystallographic Data Centre
#                                CCDC 
#
#######################################################################
#
# If this CIF has been generated from an entry in the Cambridge 
# Structural Database, then it will include bibliographic, chemical, 
# crystal, experimental, refinement or atomic coordinate data resulting 
# from the CCDC's data processing and validation procedures.
#
#######################################################################

data_WEFWAG
_chemical_formula_moiety         'C17 H12 F6 O1 S2'
_chemical_name_systematic        
1-(2,5-Dimethyl-3-thienyl)-3,3,4,4,5,5-hexafluoro-2-(5-formyl-2-methyl-3-thienyl)cyclopent-1-ene
_symmetry_cell_setting           monoclinic
_symmetry_space_group_name_H-M   'P 21/c'
_symmetry_Int_Tables_number      14
_space_group_name_Hall           '-P 2ybc'
loop_
_symmetry_equiv_pos_site_id
_symmetry_equiv_pos_as_xyz
1 x,y,z
2 -x,1/2+y,1/2-z
3 -x,-y,-z
4 x,1/2-y,1/2+z
_cell_length_a                   17.1836(15)
_cell_length_b                   8.8408(8)
_cell_length_c                   11.6536(16)
_cell_angle_alpha                90
_cell_angle_beta                 93.342(9)
_cell_angle_gamma                90
_cell_volume                     1767.37
_exptl_crystal_colour            colorless
_exptl_crystal_description       prism
_chemical_melting_point          '382.2 K'
_cell_formula_units_Z            4
_chemical_properties_physical    light-sensitive
_exptl_crystal_recrystallization_method chloroform
_exptl_crystal_preparation       photochromic
loop_
_atom_site_label
_atom_site_type_symbol
_atom_site_fract_x
_atom_site_fract_y
_atom_site_fract_z
S1 S 0.42007(9) 0.70882(18) 0.49186(14)
S2 S 0.07985(9) 0.70498(19) 0.51493(14)
O1 O 0.5225(5) 0.7470(10) 0.2911(6)
C1 C 0.2871(3) 0.3389(6) 0.4874(5)
C2 C 0.2138(3) 0.3387(6) 0.5202(5)
C3 C 0.1851(4) 0.1788(7) 0.5327(5)
C4 C 0.2511(13) 0.0781(11) 0.5155(12)
F1 F 0.1530(5) 0.1444(8) 0.6282(7)
F2 F 0.1296(4) 0.1498(7) 0.4434(7)
F3 F 0.2406(4) -0.0466(7) 0.4505(8)
F4 F 0.2884(4) 0.0314(9) 0.6137(7)
F5 F 0.3289(7) 0.1549(11) 0.3552(8)
F6 F 0.3768(5) 0.1466(12) 0.5338(13)
C6 C 0.3137(4) 0.1796(7) 0.4629(6)
C7 C 0.3516(3) 0.5863(6) 0.5419(5)
C8 C 0.3412(3) 0.4657(6) 0.4699(5)
C9 C 0.3899(3) 0.4721(7) 0.3746(5)
H1 H 0.3906 0.3976 0.3183
C10 C 0.4344(3) 0.5972(7) 0.3749(5)
C11 C 0.4878(4) 0.6299(8) 0.2892(7)
H2 H 0.4957 0.5597 0.2315
C12 C 0.3172(4) 0.6211(7) 0.6547(5)
H3 H 0.3064 0.5282 0.6934
H4 H 0.2697 0.6771 0.6409
H5 H 0.3536 0.6800 0.7017
C13 C 0.1486(3) 0.5855(6) 0.4656(5)
C14 C 0.1609(3) 0.4653(6) 0.5384(5)
C15 C 0.1135(3) 0.4723(7) 0.6353(5)
H6 H 0.1149 0.4000 0.6934
C16 C 0.0661(3) 0.5957(7) 0.6333(5)
C17 C 0.0042(4) 0.6480(10) 0.7196(5)
H7 H 0.0198 0.6139 0.7957
H8 H -0.0458 0.6057 0.6966
H9 H 0.0007 0.7564 0.7191
C18 C 0.1843(4) 0.6182(7) 0.3531(5)
H10 H 0.1974 0.5248 0.3170
H11 H 0.2306 0.6778 0.3670
H12 H 0.1476 0.6730 0.3036
C5? C 0.253(2) 0.080(2) 0.4892(18)
F7? F 0.1891(10) 0.164(2) 0.6511(9)
F8? F 0.1101(6) 0.1525(19) 0.5164(14)
F9? F 0.2558(10) -0.0370(19) 0.5633(15)
F10? F 0.2136(9) 0.0281(18) 0.3944(11)
F11? F 0.2980(10) 0.163(2) 0.3464(9)
F12? F 0.3898(6) 0.156(3) 0.4768(13)
loop_
_geom_bond_atom_site_label_1
_geom_bond_atom_site_label_2
_geom_bond_site_symmetry_1
_geom_bond_site_symmetry_2
S1 C7 1_555 1_555
S2 C13 1_555 1_555
O1 C11 1_555 1_555
C1 C2 1_555 1_555
C2 C3 1_555 1_555
C3 C4 1_555 1_555
C4 F3 1_555 1_555
F1 C3 1_555 1_555
F2 C3 1_555 1_555
F4 C4 1_555 1_555
F5 C6 1_555 1_555
F6 C6 1_555 1_555
C6 C1 1_555 1_555
C7 C8 1_555 1_555
C8 C1 1_555 1_555
C9 C8 1_555 1_555
H1 C9 1_555 1_555
C10 S1 1_555 1_555
C11 C10 1_555 1_555
H2 C11 1_555 1_555
C12 C7 1_555 1_555
H3 C12 1_555 1_555
H4 C12 1_555 1_555
H5 C12 1_555 1_555
C13 C14 1_555 1_555
C14 C2 1_555 1_555
C15 C14 1_555 1_555
H6 C15 1_555 1_555
C16 S2 1_555 1_555
C17 C16 1_555 1_555
H7 C17 1_555 1_555
H8 C17 1_555 1_555
H9 C17 1_555 1_555
C18 C13 1_555 1_555
H10 C18 1_555 1_555
H11 C18 1_555 1_555
H12 C18 1_555 1_555
C4 C6 1_555 1_555
C9 C10 1_555 1_555
C15 C16 1_555 1_555

#END
