
#######################################################################
#
#                 Cambridge Crystallographic Data Centre
#                                CCDC 
#
#######################################################################
#
# If this CIF has been generated from an entry in the Cambridge 
# Structural Database, then it will include bibliographic, chemical, 
# crystal, experimental, refinement or atomic coordinate data resulting 
# from the CCDC's data processing and validation procedures.
#
#######################################################################

data_WEFWAI
_chemical_name_common            'palmatine genistein methanol'
_chemical_formula_moiety         'C21 H22 N1 O4 1+,C15 H9 O5 1-,C1 H4 O1'
_chemical_name_systematic        
'2,3,9,10-tetramethoxy-5,6-dihydroisoquinolino[3,2-a]isoquinolin-7-ium 5-hydroxy-3-(4-hydroxyphenyl)-4-oxo-4H-1-benzopyran-7-olate methanol solvate'
_symmetry_cell_setting           triclinic
_symmetry_space_group_name_H-M   'P -1'
_symmetry_Int_Tables_number      2
_space_group_name_Hall           '-P 1'
loop_
_symmetry_equiv_pos_site_id
_symmetry_equiv_pos_as_xyz
1 x,y,z
2 -x,-y,-z
_cell_length_a                   12.039(8)
_cell_length_b                   12.353(9)
_cell_length_c                   12.938(9)
_cell_angle_alpha                102.786(3)
_cell_angle_beta                 111.865(6)
_cell_angle_gamma                105.173(7)
_cell_volume                     1610.6
_exptl_crystal_colour            yellow
_exptl_crystal_description       block
_cell_formula_units_Z            2
_exptl_crystal_recrystallization_method methanol
loop_
_atom_site_label
_atom_site_type_symbol
_atom_site_fract_x
_atom_site_fract_y
_atom_site_fract_z
O1 O 0.19705(15) 0.41866(12) -0.04936(11)
O2 O 0.16415(16) 0.11830(13) 0.04068(13)
O3 O 0.10360(15) -0.00479(12) -0.17636(13)
O4 O 0.08866(14) 0.20298(13) -0.44399(11)
O5 O 0.24153(17) 0.39868(16) 0.55828(12)
C1 C 0.2090(2) 0.42017(18) 0.05954(17)
H1 H 0.2264 0.4932 0.1141
C2 C 0.19792(18) 0.32621(16) 0.09530(16)
C3 C 0.16968(18) 0.20967(17) 0.01147(16)
C4 C 0.11751(17) 0.09892(16) -0.19870(16)
C5 C 0.09717(18) 0.09813(17) -0.31065(16)
H2 H 0.0749 0.0265 -0.3699
C6 C 0.10948(18) 0.20442(18) -0.33766(16)
C7 C 0.14537(19) 0.31216(18) -0.24516(17)
H3 H 0.1559 0.3837 -0.2596
C8 C 0.16454(18) 0.31098(16) -0.13445(16)
C9 C 0.15081(17) 0.20653(16) -0.10553(15)
C10 C 0.21225(19) 0.34236(17) 0.21779(16)
C11 C 0.3143(2) 0.43618(19) 0.31671(17)
H4 H 0.3783 0.4877 0.3071
C12 C 0.3234(2) 0.4552(2) 0.42972(18)
H5 H 0.3924 0.5193 0.4946
C13 C 0.1180(2) 0.26720(17) 0.23567(17)
H6 H 0.0481 0.2038 0.1706
C14 C 0.1260(2) 0.28476(18) 0.34761(17)
H7 H 0.0619 0.2335 0.3573
C15 C 0.2296(2) 0.37864(18) 0.44597(17)
H8 H 0.124(3) 0.025(2) -0.092(2)
H9 H 0.179(3) 0.324(3) 0.555(3)
O6 O 0.20665(14) -0.22059(13) -0.08053(13)
O7 O 0.38751(17) -0.25844(16) -0.14829(14)
O8 O 0.56395(14) 0.32428(13) 0.81085(13)
O9 O 0.75132(13) 0.32190(13) 0.76184(13)
N1 N 0.31940(16) 0.00540(15) 0.25674(15)
C16 C 0.1529(3) -0.3471(2) -0.1092(3)
H10 H 0.1697 -0.3641 -0.0372
H11 H 0.1916 -0.3854 -0.1509
H12 H 0.0611 -0.3770 -0.1588
C17 C 0.4771(3) -0.2955(3) -0.1794(2)
H13 H 0.5202 -0.3285 -0.1234
H14 H 0.5398 -0.2276 -0.1776
H15 H 0.4315 -0.3553 -0.2580
C18 C 0.4303(2) -0.18132(19) -0.03613(19)
C19 C 0.3368(2) -0.16566(18) -0.00399(19)
C20 C 0.3753(2) -0.08678(18) 0.11117(18)
C21 C 0.5622(2) -0.1159(2) 0.04518(19)
H16 H 0.6245 -0.1246 0.0217
C22 C 0.6011(2) -0.04013(19) 0.15723(19)
H17 H 0.6889 0.0012 0.2091
C23 C 0.50826(19) -0.02451(17) 0.19458(18)
C24 C 0.54026(19) 0.04635(17) 0.31044(18)
H18 H 0.6270 0.0849 0.3662
C25 C 0.2847(2) -0.06515(18) 0.14712(19)
H19 H 0.1974 -0.1013 0.0926
C26 C 0.44834(18) 0.06076(17) 0.34425(18)
C27 C 0.47484(18) 0.12917(16) 0.46515(17)
C28 C 0.37452(19) 0.12398(17) 0.49562(19)
C29 C 0.2379(2) 0.0440(2) 0.4047(2)
H20 H 0.2194 -0.0358 0.4088
H21 H 0.1784 0.0752 0.4223
C30 C 0.2183(2) 0.0369(2) 0.2818(2)
H22 H 0.1336 -0.0232 0.2239
H23 H 0.2212 0.1136 0.2735
C31 C 0.4021(2) 0.18956(18) 0.61024(19)
H24 H 0.3345 0.1881 0.6291
C32 C 0.60373(19) 0.19681(17) 0.55377(18)
H25 H 0.6714 0.2008 0.5345
C33 C 0.62982(19) 0.25668(17) 0.66815(19)
C34 C 0.5277(2) 0.25674(17) 0.69648(19)
C35 C 0.4659(2) 0.3534(2) 0.8348(2)
H26 H 0.4031 0.2820 0.8277
H27 H 0.4242 0.3868 0.7786
H28 H 0.5050 0.4108 0.9141
C36 C 0.8588(2) 0.3396(3) 0.7370(2)
H29 H 0.8512 0.3816 0.6822
H30 H 0.8604 0.2631 0.7025
H31 H 0.9373 0.3858 0.8097
O10 O -0.15321(19) 0.2125(2) -0.53819(18)
C37 C -0.1391(4) 0.3170(4) -0.5668(3)
H32 H -0.2060 0.3444 -0.5642
H33 H -0.1456 0.2997 -0.6454
H34 H -0.0560 0.3783 -0.5102
H35 H -0.069(3) 0.205(3) -0.513(3)
loop_
_geom_bond_atom_site_label_1
_geom_bond_atom_site_label_2
_geom_bond_site_symmetry_1
_geom_bond_site_symmetry_2
O1 C1 1_555 1_555
O2 C3 1_555 1_555
O3 C4 1_555 1_555
O4 C6 1_555 1_555
O5 C15 1_555 1_555
C1 H1 1_555 1_555
C2 C1 1_555 1_555
C3 C2 1_555 1_555
C4 C5 1_555 1_555
C5 H2 1_555 1_555
C6 C5 1_555 1_555
C7 C6 1_555 1_555
H3 C7 1_555 1_555
C8 O1 1_555 1_555
C9 C3 1_555 1_555
C10 C2 1_555 1_555
C11 C10 1_555 1_555
H4 C11 1_555 1_555
C12 C11 1_555 1_555
H5 C12 1_555 1_555
C13 C10 1_555 1_555
H6 C13 1_555 1_555
C14 C13 1_555 1_555
H7 C14 1_555 1_555
C15 C12 1_555 1_555
H8 O3 1_555 1_555
H9 O5 1_555 1_555
O6 C16 1_555 1_555
O7 C17 1_555 1_555
O8 C34 1_555 1_555
O9 C33 1_555 1_555
N1 C25 1_555 1_555
C16 H10 1_555 1_555
H11 C16 1_555 1_555
H12 C16 1_555 1_555
C17 H13 1_555 1_555
H14 C17 1_555 1_555
H15 C17 1_555 1_555
C18 O7 1_555 1_555
C19 O6 1_555 1_555
C20 C19 1_555 1_555
C21 C18 1_555 1_555
H16 C21 1_555 1_555
C22 C21 1_555 1_555
H17 C22 1_555 1_555
C23 C20 1_555 1_555
C24 C23 1_555 1_555
H18 C24 1_555 1_555
C25 C20 1_555 1_555
H19 C25 1_555 1_555
C26 N1 1_555 1_555
C27 C26 1_555 1_555
C28 C27 1_555 1_555
C29 C28 1_555 1_555
H20 C29 1_555 1_555
H21 C29 1_555 1_555
C30 N1 1_555 1_555
H22 C30 1_555 1_555
H23 C30 1_555 1_555
C31 C28 1_555 1_555
H24 C31 1_555 1_555
C32 C27 1_555 1_555
H25 C32 1_555 1_555
C33 C32 1_555 1_555
C34 C31 1_555 1_555
C35 O8 1_555 1_555
H26 C35 1_555 1_555
H27 C35 1_555 1_555
H28 C35 1_555 1_555
C36 O9 1_555 1_555
H29 C36 1_555 1_555
H30 C36 1_555 1_555
H31 C36 1_555 1_555
O10 C37 1_555 1_555
C37 H32 1_555 1_555
H33 C37 1_555 1_555
H34 C37 1_555 1_555
H35 O10 1_555 1_555
C4 C9 1_555 1_555
C7 C8 1_555 1_555
C8 C9 1_555 1_555
C14 C15 1_555 1_555
C18 C19 1_555 1_555
C22 C23 1_555 1_555
C24 C26 1_555 1_555
C29 C30 1_555 1_555
C33 C34 1_555 1_555

#END
