
#######################################################################
#
#                 Cambridge Crystallographic Data Centre
#                                CCDC 
#
#######################################################################
#
# If this CIF has been generated from an entry in the Cambridge 
# Structural Database, then it will include bibliographic, chemical, 
# crystal, experimental, refinement or atomic coordinate data resulting 
# from the CCDC's data processing and validation procedures.
#
#######################################################################

data_WEGDOB
_chemical_compound_source        'Whole plant of Andrographis paniculate'
_chemical_formula_moiety         'C20 H28 O4'
_chemical_name_systematic        14-Deoxy-11,12-didehydroandrographolide
_symmetry_cell_setting           trigonal
_symmetry_space_group_name_H-M   'P 31'
_symmetry_Int_Tables_number      144
_space_group_name_Hall           'P 31'
loop_
_symmetry_equiv_pos_site_id
_symmetry_equiv_pos_as_xyz
1 x,y,z
2 -y,x-y,1/3+z
3 -x+y,-x,2/3+z
_cell_length_a                   15.860(3)
_cell_length_b                   15.860(3)
_cell_length_c                   6.437(2)
_cell_angle_alpha                90
_cell_angle_beta                 90
_cell_angle_gamma                120
_cell_volume                     1402.23
_chemical_melting_point          203-204deg.C
_cell_formula_units_Z            3
loop_
_atom_site_label
_atom_site_type_symbol
_atom_site_fract_x
_atom_site_fract_y
_atom_site_fract_z
O1 O 1.4185(2) 0.5878(3) 0.5064(60)
O2 O 1.2971(2) 0.4837(4) 0.7128(60)
O3 O 0.7190(1) 0.2699(1) 0.0614(60)
O4 O 0.6317(1) 0.2108(2) 0.4274(60)
C1 C 0.9726(2) 0.3369(1) 0.2375(60)
C2 C 0.8876(2) 0.3520(2) 0.1820(60)
C3 C 0.7983(2) 0.2565(2) 0.1256(60)
C4 C 0.7631(1) 0.1806(1) 0.3038(60)
C5 C 0.8519(2) 0.1707(1) 0.3744(60)
C6 C 0.8278(3) 0.0970(2) 0.5515(60)
C7 C 0.9095(3) 0.0730(3) 0.5796(60)
C8 C 1.0068(3) 0.1624(2) 0.6033(61)
C9 C 1.0327(2) 0.2393(2) 0.4349(60)
C10 C 0.9497(1) 0.2669(1) 0.4211(60)
C11 C 1.1311(2) 0.3267(2) 0.4621(60)
C12 C 1.1980(2) 0.3683(2) 0.3149(60)
C13 C 1.2920(2) 0.4572(2) 0.3407(60)
C14 C 1.3572(2) 0.5093(3) 0.1959(61)
C15 C 1.4417(3) 0.5977(4) 0.2908(61)
C16 C 1.3306(2) 0.5057(3) 0.5409(60)
C17 C 1.0653(5) 0.1734(5) 0.7637(61)
C18 C 0.9505(2) 0.3186(2) 0.6239(60)
C19 C 0.7180(2) 0.2081(2) 0.4846(61)
C20 C 0.6849(2) 0.0826(2) 0.2104(60)
H1 H 1.025(2) 0.395(2) 0.284(6)
H2 H 0.993(2) 0.312(2) 0.119(7)
H3 H 0.907(2) 0.401(2) 0.051(6)
H4 H 0.870(2) 0.383(2) 0.313(6)
H5 H 0.819(2) 0.224(2) 0.014(7)
H6 H 0.874(2) 0.148(2) 0.251(7)
H7 H 0.771(2) 0.036(2) 0.520(7)
H8 H 0.826(4) 0.138(4) 0.671(9)
H9 H 0.920(5) 0.053(5) 0.457(8)
H10 H 0.885(3) 0.026(3) 0.717(8)
H11 H 1.031(3) 0.210(3) 0.301(8)
H12 H 1.152(3) 0.358(3) 0.603(7)
H13 H 1.183(4) 0.340(4) 0.194(20)
H14 H 1.355(3) 0.495(3) 0.039(9)
H15 H 1.447(3) 0.663(4) 0.228(1)
H16 H 1.509(3) 0.597(4) 0.263(1)
H17 H 1.050(3) 0.133(3) 0.883(8)
H18 H 1.118(4) 0.237(4) 0.810(4)
H19 H 0.905(3) 0.348(3) 0.612(8)
H20 H 0.912(3) 0.277(3) 0.736(8)
H21 H 1.018(3) 0.371(3) 0.653(8)
H22 H 0.771(2) 0.279(2) 0.540(1)
H23 H 0.699(2) 0.155(2) 0.607(1)
H24 H 0.628(3) 0.083(3) 0.158(7)
H25 H 0.723(3) 0.067(3) 0.081(8)
H26 H 0.659(4) 0.041(4) 0.310(9)
loop_
_geom_bond_atom_site_label_1
_geom_bond_atom_site_label_2
_geom_bond_site_symmetry_1
_geom_bond_site_symmetry_2
O1 C15 1_555 1_555
O2 C16 1_555 1_555
O3 C3 1_555 1_555
O4 C19 1_555 1_555
C1 C2 1_555 1_555
C2 C3 1_555 1_555
C3 C4 1_555 1_555
C4 C5 1_555 1_555
C5 C6 1_555 1_555
C6 C7 1_555 1_555
C7 C8 1_555 1_555
C8 C9 1_555 1_555
C9 C10 1_555 1_555
C10 C1 1_555 1_555
C11 C9 1_555 1_555
C12 C11 1_555 1_555
C13 C12 1_555 1_555
C14 C13 1_555 1_555
C15 C14 1_555 1_555
C16 O1 1_555 1_555
C17 C8 1_555 1_555
C18 C10 1_555 1_555
C19 C4 1_555 1_555
C20 C4 1_555 1_555
H1 C1 1_555 1_555
H2 C1 1_555 1_555
H3 C2 1_555 1_555
H4 C2 1_555 1_555
H5 C3 1_555 1_555
H6 C5 1_555 1_555
H7 C6 1_555 1_555
H8 C6 1_555 1_555
H9 C7 1_555 1_555
H10 C7 1_555 1_555
H11 C9 1_555 1_555
H12 C11 1_555 1_555
H13 C12 1_555 1_555
H14 C14 1_555 1_555
H15 C15 1_555 1_555
H16 C15 1_555 1_555
H17 C17 1_555 1_555
H18 C17 1_555 1_555
H19 C18 1_555 1_555
H20 C18 1_555 1_555
H21 C18 1_555 1_555
H22 C19 1_555 1_555
H23 C19 1_555 1_555
H24 C20 1_555 1_555
H25 C20 1_555 1_555
H26 C20 1_555 1_555
C5 C10 1_555 1_555
C13 C16 1_555 1_555

#END
