
#######################################################################
#
#                 Cambridge Crystallographic Data Centre
#                                CCDC 
#
#######################################################################
#
# If this CIF has been generated from an entry in the Cambridge 
# Structural Database, then it will include bibliographic, chemical, 
# crystal, experimental, refinement or atomic coordinate data resulting 
# from the CCDC's data processing and validation procedures.
#
#######################################################################

data_WEGGUL
_chemical_formula_moiety         'C9 H17 Br1 O1'
_chemical_name_systematic        (1S*,3S*)-3-Bromo-1,5,5-trimethylcyclohexanol
_symmetry_cell_setting           tetragonal
_symmetry_space_group_name_H-M   'I -4'
_symmetry_Int_Tables_number      82
_space_group_name_Hall           'I -4'
loop_
_symmetry_equiv_pos_site_id
_symmetry_equiv_pos_as_xyz
1 x,y,z
2 -x,-y,z
3 y,-x,-z
4 -y,x,-z
5 1/2+x,1/2+y,1/2+z
6 1/2-x,1/2-y,1/2+z
7 1/2+y,1/2-x,1/2-z
8 1/2-y,1/2+x,1/2-z
_cell_length_a                   16.4220(3)
_cell_length_b                   16.4220(3)
_cell_length_c                   7.6968(3)
_cell_angle_alpha                90
_cell_angle_beta                 90
_cell_angle_gamma                90
_cell_volume                     2075.69
_exptl_crystal_colour            colorless
_exptl_crystal_description       tabular
_chemical_melting_point          '357 K'
_cell_formula_units_Z            8
loop_
_atom_site_label
_atom_site_type_symbol
_atom_site_fract_x
_atom_site_fract_y
_atom_site_fract_z
Br1 Br 0.23822(2) 0.264394(16) 0.13115(3)
C1 C 0.26023(14) 0.14948(12) 0.1879(3)
H1 H 0.2940 0.1472 0.2960
C2 C 0.30794(14) 0.11137(13) 0.0403(3)
H2 H 0.3588 0.1425 0.0211
H3 H 0.2753 0.1136 -0.0677
C3 C 0.32877(12) 0.02271(12) 0.0824(3)
C4 C 0.25146(13) -0.02445(12) 0.1308(3)
H4 H 0.2679 -0.0788 0.1742
H5 H 0.2192 -0.0330 0.0237
C5 C 0.19572(13) 0.01517(16) 0.2677(3)
C6 C 0.18119(14) 0.10517(15) 0.2202(4)
H6 H 0.1469 0.1082 0.1146
H7 H 0.1514 0.1323 0.3160
C7 C 0.37107(15) -0.01670(15) -0.0750(3)
H8 H 0.4188 0.0157 -0.1076
H9 H 0.3330 -0.0189 -0.1730
H10 H 0.3883 -0.0720 -0.0447
C8 C 0.23057(16) 0.00801(17) 0.4531(4)
H11 H 0.1935 0.0346 0.5353
H12 H 0.2840 0.0345 0.4578
H13 H 0.2363 -0.0496 0.4839
C9 C 0.11336(16) -0.0297(2) 0.2648(5)
H14 H 0.1217 -0.0870 0.2950
H15 H 0.0895 -0.0259 0.1484
H16 H 0.0764 -0.0046 0.3493
O1 O 0.38472(8) 0.02561(9) 0.2259(2)
H17 H 0.4039 -0.0211 0.2435
loop_
_geom_bond_atom_site_label_1
_geom_bond_atom_site_label_2
_geom_bond_site_symmetry_1
_geom_bond_site_symmetry_2
Br1 C1 1_555 1_555
C1 H1 1_555 1_555
C2 C1 1_555 1_555
H2 C2 1_555 1_555
H3 C2 1_555 1_555
C3 C2 1_555 1_555
C4 C3 1_555 1_555
H4 C4 1_555 1_555
H5 C4 1_555 1_555
C5 C4 1_555 1_555
C6 C1 1_555 1_555
H6 C6 1_555 1_555
H7 C6 1_555 1_555
C7 C3 1_555 1_555
H8 C7 1_555 1_555
H9 C7 1_555 1_555
H10 C7 1_555 1_555
C8 C5 1_555 1_555
H11 C8 1_555 1_555
H12 C8 1_555 1_555
H13 C8 1_555 1_555
C9 C5 1_555 1_555
H14 C9 1_555 1_555
H15 C9 1_555 1_555
H16 C9 1_555 1_555
O1 C3 1_555 1_555
H17 O1 1_555 1_555
C5 C6 1_555 1_555

#END
