
#######################################################################
#
#                 Cambridge Crystallographic Data Centre
#                                CCDC 
#
#######################################################################
#
# If this CIF has been generated from an entry in the Cambridge 
# Structural Database, then it will include bibliographic, chemical, 
# crystal, experimental, refinement or atomic coordinate data resulting 
# from the CCDC's data processing and validation procedures.
#
#######################################################################

data_WEGGOF
_chemical_formula_moiety         'C13 H23 Cl1 O1'
_chemical_name_systematic        
(1R,3R,6S,9R)-3-Chloro-5,5,9-trimethylbicyclo(4.4.0)decan-1-ol
_symmetry_cell_setting           monoclinic
_symmetry_space_group_name_H-M   'P 21'
_symmetry_Int_Tables_number      4
_space_group_name_Hall           'P 2yb'
loop_
_symmetry_equiv_pos_site_id
_symmetry_equiv_pos_as_xyz
1 x,y,z
2 -x,1/2+y,-z
_cell_length_a                   6.516(4)
_cell_length_b                   8.084(5)
_cell_length_c                   12.148(8)
_cell_angle_alpha                90
_cell_angle_beta                 94.748(9)
_cell_angle_gamma                90
_cell_volume                     637.704
_exptl_crystal_colour            colorless
_exptl_crystal_description       tabular
_chemical_melting_point          63-65deg.C
_cell_formula_units_Z            2
_exptl_crystal_recrystallization_method hexane
loop_
_atom_site_label
_atom_site_type_symbol
_atom_site_fract_x
_atom_site_fract_y
_atom_site_fract_z
C1 C 0.2187(3) 0.2645(2) 0.68388(16)
C2 C 0.1981(3) 0.3737(3) 0.58155(17)
H1 H 0.203(3) 0.308(3) 0.5152(19)
H2 H 0.061(3) 0.423(3) 0.5767(14)
C3 C 0.3444(3) 0.5194(3) 0.58238(17)
H3 H 0.306(3) 0.596(2) 0.5254(17)
C4 C 0.3549(4) 0.6135(3) 0.69072(18)
H4 H 0.225(3) 0.676(3) 0.6894(15)
H5 H 0.454(3) 0.701(3) 0.6914(16)
C5 C 0.3787(3) 0.5126(2) 0.79808(16)
C6 C 0.2216(3) 0.3677(3) 0.79043(15)
H6 H 0.085(3) 0.419(2) 0.7870(13)
C7 C 0.2353(4) 0.2526(3) 0.89059(17)
H7 H 0.364(4) 0.192(3) 0.8923(18)
H8 H 0.236(3) 0.320(2) 0.9585(17)
C8 C 0.0563(4) 0.1307(3) 0.88572(19)
H9 H -0.072(4) 0.195(3) 0.8888(16)
H10 H 0.073(3) 0.063(3) 0.9537(17)
C9 C 0.0411(4) 0.0281(3) 0.77967(17)
H11 H 0.167(3) -0.043(3) 0.7800(13)
C10 C 0.0378(3) 0.1425(3) 0.67982(18)
H12 H -0.093(3) 0.205(3) 0.6750(15)
H13 H 0.039(3) 0.078(2) 0.6133(17)
C11 C 0.6020(3) 0.4543(4) 0.82464(18)
H14 H 0.645(3) 0.383(3) 0.7700(18)
H15 H 0.619(3) 0.408(2) 0.9003(16)
H16 H 0.693(4) 0.552(3) 0.824(2)
C12 C 0.3276(5) 0.6318(4) 0.8908(2)
H17 H 0.357(3) 0.585(3) 0.9620(19)
H18 H 0.175(5) 0.663(4) 0.882(2)
H19 H 0.413(4) 0.732(4) 0.891(2)
C13 C -0.1459(4) -0.0855(3) 0.7724(2)
H20 H -0.272(4) -0.026(4) 0.7723(17)
H21 H -0.142(4) -0.157(4) 0.841(2)
H22 H -0.157(4) -0.156(4) 0.704(2)
Cl1 Cl 0.60046(8) 0.45367(8) 0.54668(4)
O1 O 0.4085(2) 0.17240(18) 0.68874(13)
H23 H 0.405(4) 0.120(4) 0.636(2)
loop_
_geom_bond_atom_site_label_1
_geom_bond_atom_site_label_2
_geom_bond_site_symmetry_1
_geom_bond_site_symmetry_2
C1 C2 1_555 1_555
C2 H1 1_555 1_555
H2 C2 1_555 1_555
C3 C2 1_555 1_555
H3 C3 1_555 1_555
C4 C3 1_555 1_555
H4 C4 1_555 1_555
H5 C4 1_555 1_555
C5 C4 1_555 1_555
C6 C1 1_555 1_555
H6 C6 1_555 1_555
C7 C6 1_555 1_555
H7 C7 1_555 1_555
H8 C7 1_555 1_555
C8 C7 1_555 1_555
H9 C8 1_555 1_555
H10 C8 1_555 1_555
C9 C8 1_555 1_555
H11 C9 1_555 1_555
C10 C1 1_555 1_555
H12 C10 1_555 1_555
H13 C10 1_555 1_555
C11 C5 1_555 1_555
H14 C11 1_555 1_555
H15 C11 1_555 1_555
H16 C11 1_555 1_555
C12 C5 1_555 1_555
H17 C12 1_555 1_555
H18 C12 1_555 1_555
H19 C12 1_555 1_555
C13 C9 1_555 1_555
H20 C13 1_555 1_555
H21 C13 1_555 1_555
H22 C13 1_555 1_555
Cl1 C3 1_555 1_555
O1 C1 1_555 1_555
H23 O1 1_555 1_555
C5 C6 1_555 1_555
C9 C10 1_555 1_555

#END
