
#######################################################################
#
#                 Cambridge Crystallographic Data Centre
#                                CCDC 
#
#######################################################################
#
# If this CIF has been generated from an entry in the Cambridge 
# Structural Database, then it will include bibliographic, chemical, 
# crystal, experimental, refinement or atomic coordinate data resulting 
# from the CCDC's data processing and validation procedures.
#
#######################################################################

data_WEGMUS
_chemical_formula_moiety         'C8 H10 N3 O2 1+,C24 H20 B1 1-'
_chemical_name_systematic        
'1-(2-Amino-2-oxoethyl)-4-carbamoylpyridinium tetraphenylborate'
_symmetry_cell_setting           orthorhombic
_symmetry_space_group_name_H-M   'P b c a'
_symmetry_Int_Tables_number      61
_space_group_name_Hall           '-P 2ac 2ab'
loop_
_symmetry_equiv_pos_site_id
_symmetry_equiv_pos_as_xyz
1 x,y,z
2 1/2+x,1/2-y,-z
3 -x,1/2+y,1/2-z
4 1/2-x,-y,1/2+z
5 -x,-y,-z
6 1/2-x,1/2+y,z
7 x,1/2-y,1/2+z
8 1/2+x,y,1/2-z
_cell_length_a                   9.8176(5)
_cell_length_b                   17.2416(7)
_cell_length_c                   30.5102(14)
_cell_angle_alpha                90
_cell_angle_beta                 90
_cell_angle_gamma                90
_cell_volume                     5164.5
_exptl_crystal_colour            yellow
_cell_formula_units_Z            8
loop_
_atom_site_label
_atom_site_type_symbol
_atom_site_fract_x
_atom_site_fract_y
_atom_site_fract_z
B1 B 0.3548(2) 0.24937(12) 0.37411(6)
C9 C 0.18843(18) 0.23769(9) 0.37750(6)
C10 C 0.12240(18) 0.22723(10) 0.41787(6)
H11 H 0.1762 0.2219 0.4436
C11 C -0.01872(19) 0.22434(10) 0.42173(7)
H12 H -0.0592 0.2190 0.4498
C12 C -0.10027(19) 0.22920(11) 0.38494(7)
H13 H -0.1965 0.2253 0.3873
C13 C -0.03902(18) 0.23984(11) 0.34446(7)
H14 H -0.0936 0.2435 0.3188
C14 C 0.10209(18) 0.24524(10) 0.34114(6)
H15 H 0.1414 0.2544 0.3132
C15 C 0.42180(17) 0.20757(9) 0.33091(6)
C16 C 0.35648(17) 0.15101(10) 0.30585(6)
H16 H 0.2666 0.1361 0.3137
C17 C 0.41746(18) 0.11548(10) 0.26978(6)
H17 H 0.3685 0.0780 0.2533
C18 C 0.54899(19) 0.13478(10) 0.25805(6)
H18 H 0.5909 0.1110 0.2334
C19 C 0.61916(18) 0.18921(10) 0.28267(6)
H19 H 0.7101 0.2025 0.2752
C20 C 0.55680(17) 0.22429(10) 0.31824(6)
H20 H 0.6071 0.2611 0.3348
C21 C 0.37658(17) 0.34413(10) 0.37268(6)
C22 C 0.34677(17) 0.38978(10) 0.40968(6)
H21 H 0.3186 0.3646 0.4359
C23 C 0.35678(18) 0.47008(11) 0.40953(6)
H22 H 0.3343 0.4985 0.4352
C24 C 0.39927(18) 0.50932(11) 0.37218(6)
H23 H 0.4087 0.5642 0.3722
C25 C 0.42771(18) 0.46644(10) 0.33474(7)
H24 H 0.4559 0.4921 0.3087
C26 C 0.41493(17) 0.38562(10) 0.33524(6)
H25 H 0.4331 0.3577 0.3090
C27 C 0.43344(17) 0.20982(10) 0.41561(6)
C28 C 0.39976(18) 0.13436(10) 0.42917(6)
H26 H 0.3269 0.1084 0.4149
C29 C 0.46822(19) 0.09615(11) 0.46247(6)
H27 H 0.4406 0.0456 0.4710
C30 C 0.57697(19) 0.13171(11) 0.48330(6)
H28 H 0.6247 0.1057 0.5061
C31 C 0.61526(18) 0.20572(11) 0.47050(6)
H29 H 0.6902 0.2305 0.4843
C32 C 0.54410(17) 0.24364(11) 0.43748(6)
H30 H 0.5715 0.2945 0.4294
O1 O 0.41188(13) 0.08345(8) 0.72027(4)
O2 O 0.12692(13) 0.06893(7) 0.52039(4)
N1 N 0.63316(16) 0.09522(9) 0.74030(5)
H1 H 0.6132 0.1114 0.7669
H2 H 0.7188 0.0902 0.7323
N2 N 0.47329(14) 0.03893(8) 0.63649(5)
N3 N 0.10419(16) -0.05825(9) 0.53682(5)
H3 H 0.0423 -0.0659 0.5164
H4 H 0.1305 -0.0970 0.5536
C1 C 0.53353(18) 0.07827(10) 0.71213(6)
C2 C 0.58507(17) 0.04932(10) 0.66800(6)
H5 H 0.6515 0.0870 0.6560
H6 H 0.6327 -0.0007 0.6721
C3 C 0.15798(17) 0.01186(10) 0.54234(6)
C4 C 0.46024(18) 0.08950(10) 0.60326(6)
H7 H 0.5230 0.1311 0.6004
C5 C 0.35670(18) 0.08135(10) 0.57340(6)
H8 H 0.3470 0.1176 0.5501
C6 C 0.26584(18) 0.01973(10) 0.57736(6)
C7 C 0.28062(18) -0.03081(10) 0.61245(6)
H9 H 0.2185 -0.0726 0.6162
C8 C 0.38511(19) -0.02033(10) 0.64172(6)
H10 H 0.3954 -0.0549 0.6657
loop_
_geom_bond_atom_site_label_1
_geom_bond_atom_site_label_2
_geom_bond_site_symmetry_1
_geom_bond_site_symmetry_2
B1 C9 1_555 1_555
O1 C1 1_555 1_555
O2 C3 1_555 1_555
N1 H1 1_555 1_555
H2 N1 1_555 1_555
N2 C2 1_555 1_555
N3 H3 1_555 1_555
H4 N3 1_555 1_555
C1 N1 1_555 1_555
C2 C1 1_555 1_555
H5 C2 1_555 1_555
H6 C2 1_555 1_555
C3 N3 1_555 1_555
C4 N2 1_555 1_555
H7 C4 1_555 1_555
C5 C4 1_555 1_555
H8 C5 1_555 1_555
C6 C3 1_555 1_555
C7 C6 1_555 1_555
H9 C7 1_555 1_555
C8 N2 1_555 1_555
H10 C8 1_555 1_555
C9 C10 1_555 1_555
C10 H11 1_555 1_555
C11 C10 1_555 1_555
H12 C11 1_555 1_555
C12 C11 1_555 1_555
H13 C12 1_555 1_555
C13 C12 1_555 1_555
H14 C13 1_555 1_555
C14 C9 1_555 1_555
H15 C14 1_555 1_555
C15 B1 1_555 1_555
C16 C15 1_555 1_555
H16 C16 1_555 1_555
C17 C16 1_555 1_555
H17 C17 1_555 1_555
C18 C17 1_555 1_555
H18 C18 1_555 1_555
C19 C18 1_555 1_555
H19 C19 1_555 1_555
C20 C15 1_555 1_555
H20 C20 1_555 1_555
C21 B1 1_555 1_555
C22 C21 1_555 1_555
H21 C22 1_555 1_555
C23 C22 1_555 1_555
H22 C23 1_555 1_555
C24 C23 1_555 1_555
H23 C24 1_555 1_555
C25 C24 1_555 1_555
H24 C25 1_555 1_555
C26 C21 1_555 1_555
H25 C26 1_555 1_555
C27 B1 1_555 1_555
C28 C27 1_555 1_555
H26 C28 1_555 1_555
C29 C28 1_555 1_555
H27 C29 1_555 1_555
C30 C29 1_555 1_555
H28 C30 1_555 1_555
C31 C30 1_555 1_555
H29 C31 1_555 1_555
C32 C27 1_555 1_555
H30 C32 1_555 1_555
C5 C6 1_555 1_555
C7 C8 1_555 1_555
C13 C14 1_555 1_555
C19 C20 1_555 1_555
C25 C26 1_555 1_555
C31 C32 1_555 1_555

#END
