
#######################################################################
#
#                 Cambridge Crystallographic Data Centre
#                                CCDC 
#
#######################################################################
#
# If this CIF has been generated from an entry in the Cambridge 
# Structural Database, then it will include bibliographic, chemical, 
# crystal, experimental, refinement or atomic coordinate data resulting 
# from the CCDC's data processing and validation procedures.
#
#######################################################################

data_WEGMOM
_chemical_formula_moiety         'C8 H10 N3 O2 1+,C1 F3 O3 S1 1-'
_chemical_name_systematic        
'1-(2-Amino-2-oxoethyl)-4-carbamoylpyridinium trifluoromethanesulfonate'
_symmetry_cell_setting           monoclinic
_symmetry_space_group_name_H-M   'P 21/n'
_symmetry_Int_Tables_number      14
_space_group_name_Hall           '-P 2yn'
loop_
_symmetry_equiv_pos_site_id
_symmetry_equiv_pos_as_xyz
1 x,y,z
2 1/2-x,1/2+y,1/2-z
3 -x,-y,-z
4 1/2+x,1/2-y,1/2+z
_cell_length_a                   11.6815(4)
_cell_length_b                   12.4142(5)
_cell_length_c                   18.5652(7)
_cell_angle_alpha                90
_cell_angle_beta                 100.7840(10)
_cell_angle_gamma                90
_cell_volume                     2644.71
_exptl_crystal_colour            colorless
_cell_formula_units_Z            8
loop_
_atom_site_label
_atom_site_type_symbol
_atom_site_fract_x
_atom_site_fract_y
_atom_site_fract_z
C1 C 0.26545(16) 0.20296(16) 0.06241(11)
F1 F 0.27864(10) 0.20423(10) 0.13519(6)
F2 F 0.19031(12) 0.12466(10) 0.03750(8)
F3 F 0.36878(11) 0.17678(12) 0.04664(7)
O1 O 0.21227(11) 0.31455(12) -0.05519(7)
O2 O 0.30522(14) 0.40508(12) 0.05736(9)
O3 O 0.10390(12) 0.34810(12) 0.04146(8)
S1 S 0.21631(4) 0.33285(4) 0.02164(3)
C2 C 0.26674(18) 0.70910(18) 0.92889(11)
F4 F 0.24156(15) 0.63221(11) 0.97276(8)
F5 F 0.20031(11) 0.69495(11) 0.86312(7)
F6 F 0.37720(11) 0.69434(14) 0.92205(8)
O4 O 0.12571(11) 0.84387(11) 0.97047(7)
O5 O 0.32633(12) 0.84022(13) 1.03588(8)
O6 O 0.27817(13) 0.91475(13) 0.91221(8)
S2 S 0.24771(4) 0.84229(4) 0.96647(3)
C3 C 0.21066(14) 0.83083(15) 0.16868(10)
H1 H 0.2800 0.7894 0.1803
C4 C 0.20931(14) 0.93533(15) 0.19205(10)
H2 H 0.2775 0.9660 0.2206
C5 C 0.10863(14) 0.99660(14) 0.17419(9)
C6 C 0.01134(15) 0.95130(14) 0.13005(10)
H3 H -0.0570 0.9930 0.1144
C7 C 0.01540(15) 0.84510(15) 0.10930(10)
H4 H -0.0517 0.8127 0.0806
C8 C 0.11052(15) 0.67176(14) 0.10997(10)
H5 H 0.1904 0.6469 0.1079
H6 H 0.0612 0.6608 0.0610
C9 C 0.06199(14) 0.60626(14) 0.16710(10)
C10 C 0.10517(14) 1.10467(14) 0.21079(10)
N1 N 0.11291(12) 0.78686(11) 0.12907(8)
N2 N 0.04958(13) 0.50191(12) 0.15245(9)
H13 H 0.0224 0.4589 0.1830
H14 H 0.0685 0.4757 0.1122
N3 N 0.02902(13) 1.17695(12) 0.17722(9)
H15 H 0.0212 1.2393 0.1983
H16 H -0.0134 1.1623 0.1340
O7 O 0.03756(11) 0.64933(10) 0.22224(7)
O8 O 0.16765(11) 1.11863(10) 0.27105(7)
C11 C 0.98291(16) 0.16780(16) 0.39632(11)
H7 H 1.0364 0.1961 0.4368
C12 C 0.99165(16) 0.06193(15) 0.37669(11)
H8 H 1.0501 0.0170 0.4038
C13 C 0.91463(14) 0.02114(14) 0.31705(10)
C14 C 0.82676(16) 0.08757(16) 0.28226(11)
H9 H 0.7703 0.0604 0.2429
C15 C 0.82043(17) 0.19242(16) 0.30411(11)
H10 H 0.7593 0.2375 0.2801
C16 C 0.89911(15) 0.34728(14) 0.37649(10)
H11 H 0.9424 0.3598 0.4269
H12 H 0.8178 0.3718 0.3740
C17 C 0.95541(14) 0.41182(14) 0.32206(10)
C18 C 0.92291(14) -0.08888(14) 0.28425(10)
N4 N 0.90004(12) 0.23172(11) 0.35925(8)
N5 N 0.95376(13) 0.51709(12) 0.33171(8)
H17 H 0.9849 0.5601 0.3030
H18 H 0.9215 0.5443 0.3669
N6 N 1.01984(13) -0.14526(12) 0.30657(8)
H19 H 1.0291 -0.2081 0.2865
H20 H 1.0747 -0.1197 0.3414
O9 O 0.99860(11) 0.36658(10) 0.27434(7)
O10 O 0.84296(11) -0.11980(10) 0.23590(7)
loop_
_geom_bond_atom_site_label_1
_geom_bond_atom_site_label_2
_geom_bond_site_symmetry_1
_geom_bond_site_symmetry_2
C1 F1 1_555 1_555
C2 F4 1_555 1_555
C3 H1 1_555 1_555
C4 C3 1_555 1_555
H2 C4 1_555 1_555
C5 C4 1_555 1_555
C6 C5 1_555 1_555
H3 C6 1_555 1_555
C7 C6 1_555 1_555
H4 C7 1_555 1_555
C8 H5 1_555 1_555
H6 C8 1_555 1_555
C9 C8 1_555 1_555
C10 C5 1_555 1_555
C11 H7 1_555 1_555
C12 C11 1_555 1_555
H8 C12 1_555 1_555
C13 C12 1_555 1_555
C14 C13 1_555 1_555
H9 C14 1_555 1_555
C15 C14 1_555 1_555
H10 C15 1_555 1_555
C16 H11 1_555 1_555
H12 C16 1_555 1_555
C17 C16 1_555 1_555
C18 C13 1_555 1_555
F2 C1 1_555 1_555
F3 C1 1_555 1_555
F5 C2 1_555 1_555
F6 C2 1_555 1_555
N1 C3 1_555 1_555
N2 C9 1_555 1_555
H13 N2 1_555 1_555
H14 N2 1_555 1_555
N3 C10 1_555 1_555
H15 N3 1_555 1_555
H16 N3 1_555 1_555
N4 C11 1_555 1_555
N5 C17 1_555 1_555
H17 N5 1_555 1_555
H18 N5 1_555 1_555
N6 C18 1_555 1_555
H19 N6 1_555 1_555
H20 N6 1_555 1_555
O1 S1 1_555 1_555
O2 S1 1_555 1_555
O3 S1 1_555 1_555
O4 S2 1_555 1_555
O5 S2 1_555 1_555
O6 S2 1_555 1_555
O7 C9 1_555 1_555
O8 C10 1_555 1_555
O9 C17 1_555 1_555
O10 C18 1_555 1_555
S1 C1 1_555 1_555
S2 C2 1_555 1_555
C7 N1 1_555 1_555
C8 N1 1_555 1_555
C15 N4 1_555 1_555
C16 N4 1_555 1_555

#END
