
#######################################################################
#
#                 Cambridge Crystallographic Data Centre
#                                CCDC 
#
#######################################################################
#
# If this CIF has been generated from an entry in the Cambridge 
# Structural Database, then it will include bibliographic, chemical, 
# crystal, experimental, refinement or atomic coordinate data resulting 
# from the CCDC's data processing and validation procedures.
#
#######################################################################

data_WEGREH
_chemical_formula_moiety         'C68 H80 N4 O4,C10 H16 N2 O2,4(C1 H1 Cl3)'
_chemical_name_systematic        
"11',29'-Di-t-butyl-5',17',23',35',38',40',43',45'-octamethyl-7',15',25',33'-tetraazadispiro[cyclohexane-1,2'-heptacyclo-[32.2.2.2^3,6^.2^16,19^.2^21,24^.1^9,13^.1^27,31^]hexatetracontane-20',1''-cyclohexane]-1'(36'),3',5',9'(44'),10',12',16',18',21',23',27'(39'),28',30',34',37',-40',42',45'-octadecaene-8',14',26',32'-tetrone N,N'-(ethane-1,2-diyl)-bis(N-methylacrylamide) chloroform solvate"
_symmetry_cell_setting           triclinic
_symmetry_space_group_name_H-M   'P -1'
_symmetry_Int_Tables_number      2
_space_group_name_Hall           '-P 1'
loop_
_symmetry_equiv_pos_site_id
_symmetry_equiv_pos_as_xyz
1 x,y,z
2 -x,-y,-z
_cell_length_a                   13.087(3)
_cell_length_b                   13.192(2)
_cell_length_c                   14.620(3)
_cell_angle_alpha                103.23(2)
_cell_angle_beta                 107.21(3)
_cell_angle_gamma                108.81(2)
_cell_volume                     2130.47
_exptl_crystal_colour            colorless
_exptl_crystal_description       block
_cell_formula_units_Z            1
loop_
_atom_site_label
_atom_site_type_symbol
_atom_site_fract_x
_atom_site_fract_y
_atom_site_fract_z
C1 C 1.1817(3) 0.2204(3) 0.3330(3)
H1 H 1.1469 0.2662 0.36
C2 C 1.1347(3) 0.1587(3) 0.2281(3)
C3 C 1.1869(3) 0.0921(3) 0.1897(3)
H2 H 1.1537 0.0491 0.1183
C4 C 1.2858(3) 0.0868(3) 0.2528(3)
C5 C 1.3312(3) 0.1487(3) 0.3582(3)
H3 H 1.3982 0.1454 0.4034
C6 C 1.2794(3) 0.2147(3) 0.3975(3)
C7 C 1.0269(3) 0.1616(3) 0.1558(3)
C8 C 1.3291(3) 0.2757(3) 0.5114(3)
C9 C 1.3452(4) 0.0164(4) 0.2085(3)
C10 C 1.4496(5) 0.0177(5) 0.2904(4)
H4 H 1.4236 -0.013 0.3386
H5 H 1.5101 0.0966 0.3274
H6 H 1.4824 -0.0299 0.258
C11 C 1.3869(5) 0.0640(5) 0.1340(4)
H7 H 1.3202 0.0636 0.0809
H8 H 1.4198 0.0163 0.102
H9 H 1.4476 0.1428 0.1713
C12 C 1.2549(4) -0.1094(4) 0.1513(4)
H10 H 1.2278 -0.1397 0.1993
H11 H 1.2918 -0.1548 0.1225
H12 H 1.1875 -0.1139 0.0958
C13 C 0.9097(3) 0.2782(3) 0.1432(3)
C14 C 0.7986(3) 0.2092(3) 0.1333(3)
C15 C 0.7060(3) 0.2403(3) 0.0981(3)
H13 H 0.6296 0.1927 0.0904
C16 C 0.7225(3) 0.3400(3) 0.0738(3)
C17 C 0.8340(3) 0.4038(3) 0.0819(3)
H14 H 0.8462 0.4693 0.0623
C18 C 0.9293(3) 0.3769(4) 0.1173(3)
C19 C 0.6230(3) 0.3810(3) 0.0498(3)
C20 C 0.5004(3) 0.2794(4) -0.0132(3)
H15 H 0.4885 0.2251 0.0236
H16 H 0.4388 0.3086 -0.0191
C21 C 0.4867(4) 0.2158(4) -0.1205(3)
H17 H 0.5448 0.1822 -0.1148
H18 H 0.4069 0.1523 -0.158
C22 C 0.5050(4) 0.2953(5) -0.1807(3)
H19 H 0.4411 0.3218 -0.1939
H20 H 0.5014 0.2529 -0.2477
C23 C 0.6238(4) 0.3987(4) -0.1213(3)
H21 H 0.6307 0.4531 -0.1583
H22 H 0.6878 0.3731 -0.1172
C24 C 0.6379(4) 0.4598(4) -0.0127(3)
H23 H 0.5789 0.4922 -0.0175
H24 H 0.7171 0.5244 0.0243
C25 C 0.7757(4) 0.1044(4) 0.1632(3)
H25 H 0.6924 0.0683 0.1512
H26 H 0.8247 0.1271 0.236
H27 H 0.7953 0.0498 0.1219
C26 C 1.0498(4) 0.4541(4) 0.1306(4)
H28 H 1.1059 0.4226 0.1564
H29 H 1.0743 0.5306 0.1797
H30 H 1.0477 0.4595 0.0644
C27 C 1.3381(4) 0.4332(3) 0.6468(3)
C28 C 1.4389(3) 0.5326(3) 0.7074(3)
C29 C 1.4521(3) 0.5905(3) 0.8057(3)
H31 H 1.5212 0.659 0.8478
C30 C 1.3682(3) 0.5520(3) 0.8447(3)
C31 C 1.2690(3) 0.4505(3) 0.7813(3)
H32 H 1.2103 0.4219 0.8061
C32 C 1.2526(3) 0.3894(3) 0.6833(3)
C33 C 1.5330(4) 0.5777(4) 0.6698(3)
H33 H 1.5972 0.6485 0.7233
H34 H 1.4997 0.5937 0.6082
H35 H 1.5637 0.5203 0.6534
C34 C 1.1442(4) 0.2782(4) 0.6196(3)
H36 H 1.1457 0.2463 0.5527
H37 H 1.0735 0.2926 0.6096
H38 H 1.1431 0.2234 0.6551
N1 N 1.0105(3) 0.2582(3) 0.1905(3)
N2 N 1.3178(3) 0.3747(3) 0.5427(2)
O1 O 0.9606(3) 0.0836(3) 0.0744(2)
O2 O 1.3747(3) 0.2364(3) 0.5714(2)
H49 H 1.072(4) 0.315(5) 0.242(4)
H50 H 1.296(4) 0.406(4) 0.497(4)
C1A C 0.8183(3) 0.7796(3) 0.6670(3)
H1A H 0.8531 0.7338 0.64
C2A C 0.8653(3) 0.8413(3) 0.7719(3)
C3A C 0.8131(3) 0.9079(3) 0.8103(3)
H2A H 0.8463 0.9509 0.8817
C4A C 0.7142(3) 0.9132(3) 0.7472(3)
C5A C 0.6688(3) 0.8513(3) 0.6418(3)
H3A H 0.6018 0.8546 0.5966
C6A C 0.7206(3) 0.7853(3) 0.6025(3)
C7A C 0.9731(3) 0.8384(3) 0.8442(3)
C8A C 0.6709(3) 0.7243(3) 0.4886(3)
C9A C 0.6548(4) 0.9836(4) 0.7915(3)
C10A C 0.5504(5) 0.9823(5) 0.7096(4)
H4A H 0.5764 1.013 0.6614
H5A H 0.4899 0.9034 0.6726
H6A H 0.5176 1.0299 0.742
C11A C 0.6131(5) 0.9360(5) 0.8660(4)
H7A H 0.6798 0.9364 0.9191
H8A H 0.5802 0.9837 0.898
H9A H 0.5524 0.8572 0.8287
C12A C 0.7451(4) 1.1094(4) 0.8487(4)
H10A H 0.7722 1.1397 0.8007
H11A H 0.7082 1.1548 0.8775
H12A H 0.8125 1.1139 0.9042
C13A C 1.0903(3) 0.7218(3) 0.8568(3)
C14A C 1.2014(3) 0.7908(3) 0.8667(3)
C15A C 1.2940(3) 0.7597(3) 0.9019(3)
H13A H 1.3704 0.8073 0.9096
C16A C 1.2775(3) 0.6600(3) 0.9262(3)
C17A C 1.1660(3) 0.5962(3) 0.9181(3)
H14A H 1.1538 0.5307 0.9377
C18A C 1.0707(3) 0.6231(4) 0.8827(3)
C19A C 1.3770(3) 0.6190(3) 0.9502(3)
C20A C 1.4996(3) 0.7206(4) 1.0132(3)
H15A H 1.5115 0.7749 0.9764
H16A H 1.5612 0.6914 1.0191
C21A C 1.5133(4) 0.7842(4) 1.1205(3)
H17A H 1.4552 0.8178 1.1148
H18A H 1.5931 0.8477 1.158
C22A C 1.4950(4) 0.7047(5) 1.1807(3)
H19A H 1.5589 0.6782 1.1939
H20A H 1.4986 0.7471 1.2477
C23A C 1.3762(4) 0.6013(4) 1.1213(3)
H21A H 1.3693 0.5469 1.1583
H22A H 1.3122 0.6269 1.1172
C24A C 1.3621(4) 0.5402(4) 1.0127(3)
H23A H 1.4211 0.5078 1.0175
H24A H 1.2829 0.4756 0.9757
C25A C 1.2243(4) 0.8956(4) 0.8368(3)
H25A H 1.3076 0.9317 0.8488
H26A H 1.1753 0.8729 0.764
H27A H 1.2047 0.9502 0.8781
C26A C 0.9502(4) 0.5459(4) 0.8694(4)
H28A H 0.8941 0.5774 0.8436
H29A H 0.9257 0.4694 0.8203
H30A H 0.9523 0.5405 0.9356
C27A C 0.6619(4) 0.5668(3) 0.3532(3)
C28A C 0.5611(3) 0.4674(3) 0.2926(3)
C29A C 0.5479(3) 0.4095(3) 0.1943(3)
H31A H 0.4788 0.341 0.1522
C30A C 0.6318(3) 0.4480(3) 0.1553(3)
C31A C 0.7310(3) 0.5495(3) 0.2187(3)
H32A H 0.7897 0.5781 0.1939
C32A C 0.7474(3) 0.6106(3) 0.3167(3)
C33A C 0.4670(4) 0.4223(4) 0.3302(3)
H33A H 0.4028 0.3515 0.2767
H34A H 0.5003 0.4063 0.3918
H35A H 0.4363 0.4797 0.3466
C34A C 0.8558(4) 0.7218(4) 0.3804(3)
H36A H 0.8543 0.7537 0.4473
H37A H 0.9265 0.7074 0.3904
H38A H 0.8569 0.7766 0.3449
N1A N 0.9895(3) 0.7418(3) 0.8095(3)
N2A N 0.6822(3) 0.6253(3) 0.4573(2)
O1A O 1.0394(3) 0.9164(3) 0.9256(2)
O2A O 0.6253(3) 0.7636(3) 0.4286(2)
H49A H 0.928(4) 0.685(5) 0.758(4)
H50A H 0.704(4) 0.594(4) 0.503(4)
C35 C 0.7806(6) 0.0206(5) 0.4974(4)
H39 H 0.7133 -0.0545 0.478
Cl1 Cl 0.8032(2) 0.03319(17) 0.38757(13)
Cl2 Cl 0.90903(14) 0.02529(15) 0.58593(13)
Cl3 Cl 0.7484(2) 0.13087(19) 0.55250(17)
C36 C 1.1042(4) 0.1794(4) 0.9135(4)
H40 H 1.0468 0.1082 0.9142
Cl4 Cl 1.16430(15) 0.14215(14) 0.82523(11)
Cl5 Cl 1.03129(12) 0.26395(13) 0.87640(12)
Cl6 Cl 1.21786(11) 0.25851(12) 1.03702(10)
C37 C 1.0510(6) 0.4875(5) 0.5266(4)
H41 H 1.0542 0.4888 0.5954
H42 H 1.0387 0.4098 0.4867
C38 C 1.2023(5) 0.5498(4) 0.4640(4)
C39 C 1.3125(5) 0.6369(5) 0.4723(4)
H43 H 1.362 0.6983 0.536
C40 C 1.3447(5) 0.6326(6) 0.3952(5)
H44 H 1.2965 0.5718 0.331
H45 H 1.4164 0.6903 0.4037
C41 C 1.2230(7) 0.6766(6) 0.6285(5)
H46 H 1.1766 0.6729 0.6704
H47 H 1.2313 0.7435 0.608
H48 H 1.3012 0.6834 0.6685
N3 N 1.1632(4) 0.5724(4) 0.5372(3)
O3 O 1.1484(3) 0.4582(3) 0.3897(3)
C37A C 0.9490(6) 0.5125(5) 0.4734(4)
H41A H 0.9458 0.5112 0.4046
H42A H 0.9613 0.5902 0.5133
C38A C 0.7977(5) 0.4502(4) 0.5360(4)
C39A C 0.6875(5) 0.3631(5) 0.5277(4)
H43A H 0.638 0.3017 0.464
C40A C 0.6553(5) 0.3674(6) 0.6048(5)
H44A H 0.7035 0.4282 0.669
H45A H 0.5836 0.3097 0.5963
C41A C 0.7770(7) 0.3234(6) 0.3715(5)
H46A H 0.8234 0.3271 0.3296
H47A H 0.7687 0.2565 0.392
H48A H 0.6988 0.3166 0.3315
N3A N 0.8368(4) 0.4276(4) 0.4628(3)
O3A O 0.8516(3) 0.5418(3) 0.6103(3)
loop_
_geom_bond_atom_site_label_1
_geom_bond_atom_site_label_2
_geom_bond_site_symmetry_1
_geom_bond_site_symmetry_2
C1 H1 1_555 1_555
C2 C1 1_555 1_555
C3 C2 1_555 1_555
H2 C3 1_555 1_555
C4 C3 1_555 1_555
C5 C4 1_555 1_555
H3 C5 1_555 1_555
C6 C1 1_555 1_555
C7 C2 1_555 1_555
C8 C6 1_555 1_555
C9 C4 1_555 1_555
C10 C9 1_555 1_555
H4 C10 1_555 1_555
H5 C10 1_555 1_555
H6 C10 1_555 1_555
C11 C9 1_555 1_555
H7 C11 1_555 1_555
H8 C11 1_555 1_555
H9 C11 1_555 1_555
C12 C9 1_555 1_555
H10 C12 1_555 1_555
H11 C12 1_555 1_555
H12 C12 1_555 1_555
C13 C14 1_555 1_555
C14 C15 1_555 1_555
C15 H13 1_555 1_555
C16 C15 1_555 1_555
C17 C16 1_555 1_555
H14 C17 1_555 1_555
C18 C13 1_555 1_555
C19 C16 1_555 1_555
C20 C19 1_555 1_555
H15 C20 1_555 1_555
H16 C20 1_555 1_555
C21 C20 1_555 1_555
H17 C21 1_555 1_555
H18 C21 1_555 1_555
C22 C21 1_555 1_555
H19 C22 1_555 1_555
H20 C22 1_555 1_555
C23 C22 1_555 1_555
H21 C23 1_555 1_555
H22 C23 1_555 1_555
C24 C19 1_555 1_555
H23 C24 1_555 1_555
H24 C24 1_555 1_555
C25 C14 1_555 1_555
H25 C25 1_555 1_555
H26 C25 1_555 1_555
H27 C25 1_555 1_555
C26 C18 1_555 1_555
H28 C26 1_555 1_555
H29 C26 1_555 1_555
H30 C26 1_555 1_555
C27 C28 1_555 1_555
C28 C29 1_555 1_555
C29 H31 1_555 1_555
C30 C29 1_555 1_555
C31 C30 1_555 1_555
H32 C31 1_555 1_555
C32 C27 1_555 1_555
C33 C28 1_555 1_555
H33 C33 1_555 1_555
H34 C33 1_555 1_555
H35 C33 1_555 1_555
C34 C32 1_555 1_555
H36 C34 1_555 1_555
H37 C34 1_555 1_555
H38 C34 1_555 1_555
C35 H39 1_555 1_555
C36 H40 1_555 1_555
C37 H41 1_555 1_555
H42 C37 1_555 1_555
C38 C39 1_555 1_555
C39 H43 1_555 1_555
C40 C39 1_555 1_555
H44 C40 1_555 1_555
H45 C40 1_555 1_555
C41 H46 1_555 1_555
H47 C41 1_555 1_555
H48 C41 1_555 1_555
N1 C7 1_555 1_555
N2 C8 1_555 1_555
N3 C37 1_555 1_555
O1 C7 1_555 1_555
O2 C8 1_555 1_555
O3 C38 1_555 1_555
Cl1 C35 1_555 1_555
Cl2 C35 1_555 1_555
Cl3 C35 1_555 1_555
Cl4 C36 1_555 1_555
Cl5 C36 1_555 1_555
Cl6 C36 1_555 1_555
H49 N1 1_555 1_555
H50 N2 1_555 1_555
C1A H1A 1_555 1_555
C2A C1A 1_555 1_555
C3A C2A 1_555 1_555
H2A C3A 1_555 1_555
C4A C3A 1_555 1_555
C5A C4A 1_555 1_555
H3A C5A 1_555 1_555
C6A C1A 1_555 1_555
C7A C2A 1_555 1_555
C8A C6A 1_555 1_555
C9A C4A 1_555 1_555
C10A C9A 1_555 1_555
H4A C10A 1_555 1_555
H5A C10A 1_555 1_555
H6A C10A 1_555 1_555
C11A C9A 1_555 1_555
H7A C11A 1_555 1_555
H8A C11A 1_555 1_555
H9A C11A 1_555 1_555
C12A C9A 1_555 1_555
H10A C12A 1_555 1_555
H11A C12A 1_555 1_555
H12A C12A 1_555 1_555
C13A C14A 1_555 1_555
C14A C15A 1_555 1_555
C15A H13A 1_555 1_555
C16A C15A 1_555 1_555
C17A C16A 1_555 1_555
H14A C17A 1_555 1_555
C18A C13A 1_555 1_555
C19A C30 1_555 1_555
C20A C19A 1_555 1_555
H15A C20A 1_555 1_555
H16A C20A 1_555 1_555
C21A C20A 1_555 1_555
H17A C21A 1_555 1_555
H18A C21A 1_555 1_555
C22A C21A 1_555 1_555
H19A C22A 1_555 1_555
H20A C22A 1_555 1_555
C23A C22A 1_555 1_555
H21A C23A 1_555 1_555
H22A C23A 1_555 1_555
C24A C19A 1_555 1_555
H23A C24A 1_555 1_555
H24A C24A 1_555 1_555
C25A C14A 1_555 1_555
H25A C25A 1_555 1_555
H26A C25A 1_555 1_555
H27A C25A 1_555 1_555
C26A C18A 1_555 1_555
H28A C26A 1_555 1_555
H29A C26A 1_555 1_555
H30A C26A 1_555 1_555
C27A C28A 1_555 1_555
C28A C29A 1_555 1_555
C29A H31A 1_555 1_555
C30A C19 1_555 1_555
C31A C30A 1_555 1_555
H32A C31A 1_555 1_555
C32A C27A 1_555 1_555
C33A C28A 1_555 1_555
H33A C33A 1_555 1_555
H34A C33A 1_555 1_555
H35A C33A 1_555 1_555
C34A C32A 1_555 1_555
H36A C34A 1_555 1_555
H37A C34A 1_555 1_555
H38A C34A 1_555 1_555
C37A C37 1_555 1_555
H41A C37A 1_555 1_555
H42A C37A 1_555 1_555
C38A C39A 1_555 1_555
C39A H43A 1_555 1_555
C40A C39A 1_555 1_555
H44A C40A 1_555 1_555
H45A C40A 1_555 1_555
C41A H46A 1_555 1_555
H47A C41A 1_555 1_555
H48A C41A 1_555 1_555
N1A C7A 1_555 1_555
N2A C8A 1_555 1_555
N3A C37A 1_555 1_555
O1A C7A 1_555 1_555
O2A C8A 1_555 1_555
O3A C38A 1_555 1_555
H49A N1A 1_555 1_555
H50A N2A 1_555 1_555
C5 C6 1_555 1_555
C13 N1 1_555 1_555
C17 C18 1_555 1_555
C23 C24 1_555 1_555
C27 N2 1_555 1_555
C31 C32 1_555 1_555
C38 N3 1_555 1_555
C41 N3 1_555 1_555
C5A C6A 1_555 1_555
C13A N1A 1_555 1_555
C16A C19A 1_555 1_555
C17A C18A 1_555 1_555
C23A C24A 1_555 1_555
C27A N2A 1_555 1_555
C29A C30A 1_555 1_555
C31A C32A 1_555 1_555
C38A N3A 1_555 1_555
C41A N3A 1_555 1_555

#END
