
#######################################################################
#
#                 Cambridge Crystallographic Data Centre
#                                CCDC 
#
#######################################################################
#
# If this CIF has been generated from an entry in the Cambridge 
# Structural Database, then it will include bibliographic, chemical, 
# crystal, experimental, refinement or atomic coordinate data resulting 
# from the CCDC's data processing and validation procedures.
#
#######################################################################

data_WEGVUC
_chemical_formula_moiety         'C31 H26 O2'
_chemical_name_systematic        
4'-(3,4-diphenylcyclopenta-1,3-dien-1-yl)-3,5-dimethoxy-1,1'-biphenyl
_symmetry_cell_setting           monoclinic
_symmetry_space_group_name_H-M   'P 21'
_symmetry_Int_Tables_number      4
_space_group_name_Hall           'P 2yb'
loop_
_symmetry_equiv_pos_site_id
_symmetry_equiv_pos_as_xyz
1 x,y,z
2 -x,1/2+y,-z
_cell_length_a                   11.8561(5)
_cell_length_b                   7.4706(3)
_cell_length_c                   13.2951(5)
_cell_angle_alpha                90
_cell_angle_beta                 96.076(3)
_cell_angle_gamma                90
_cell_volume                     1170.96
_exptl_crystal_colour            yellow
_exptl_crystal_description       block
_cell_formula_units_Z            2
loop_
_atom_site_label
_atom_site_type_symbol
_atom_site_fract_x
_atom_site_fract_y
_atom_site_fract_z
C1 C 0.83798(15) 0.4931(3) 0.73582(13)
C2 C 0.92338(15) 0.5171(3) 0.81135(13)
C3 C 0.87387(16) 0.5302(3) 0.90717(14)
H1 H 0.9150 0.5496 0.9697
C4 C 0.75909(15) 0.5101(3) 0.89214(13)
C5 C 0.72808(15) 0.4825(3) 0.78203(13)
H2 H 0.6761 0.5748 0.7546
H3 H 0.6927 0.3665 0.7692
C6 C 0.84417(16) 0.4808(3) 0.62610(13)
C7 C 0.77819(18) 0.3584(3) 0.56711(14)
H4 H 0.7272 0.2859 0.5968
C8 C 0.7878(2) 0.3434(4) 0.46431(17)
H5 H 0.7436 0.2602 0.4259
C9 C 0.8617(2) 0.4502(4) 0.41881(17)
H6 H 0.8685 0.4388 0.3500
C10 C 0.9256(2) 0.5741(4) 0.47592(18)
H7 H 0.9759 0.6467 0.4455
C11 C 0.91612(19) 0.5918(4) 0.57752(16)
H8 H 0.9583 0.6791 0.6145
C12 C 1.04741(15) 0.5161(3) 0.80532(13)
C13 C 1.09403(17) 0.4050(3) 0.73733(14)
H9 H 1.0468 0.3294 0.6963
C14 C 1.20927(18) 0.4039(4) 0.72910(16)
H10 H 1.2385 0.3305 0.6817
C15 C 1.28062(19) 0.5114(4) 0.79091(18)
H11 H 1.3580 0.5131 0.7845
C16 C 1.23681(19) 0.6163(3) 0.86221(19)
H12 H 1.2851 0.6850 0.9064
C17 C 1.12094(17) 0.6200(3) 0.86850(16)
H13 H 1.0921 0.6936 0.9161
C18 C 0.67932(16) 0.5045(3) 0.96908(13)
C19 C 0.57070(16) 0.4325(3) 0.94727(14)
H14 H 0.5474 0.3939 0.8819
C20 C 0.49730(17) 0.4175(3) 1.02059(14)
H15 H 0.4254 0.3697 1.0036
C21 C 0.52887(15) 0.4723(3) 1.11944(13)
C22 C 0.63533(16) 0.5488(3) 1.14049(14)
H16 H 0.6578 0.5892 1.2057
C23 C 0.70852(17) 0.5665(3) 1.06738(14)
H17 H 0.7787 0.6207 1.0838
C24 C 0.45279(16) 0.4471(2) 1.20070(14)
C25 C 0.33607(16) 0.4785(3) 1.18248(15)
H18 H 0.3040 0.5132 1.1186
C26 C 0.26862(16) 0.4572(3) 1.26118(16)
C27 C 0.31568(18) 0.4050(3) 1.35699(16)
H19 H 0.2701 0.3927 1.4093
C28 C 0.42965(18) 0.3720(3) 1.37361(15)
C29 C 0.49802(17) 0.3932(3) 1.29561(15)
H20 H 0.5754 0.3706 1.3077
C30 C 0.09875(19) 0.5259(4) 1.15675(18)
H21 H 0.0192 0.5416 1.1617
H22 H 0.1096 0.4295 1.1110
H23 H 0.1296 0.6342 1.1320
C31 C 0.4221(2) 0.3052(5) 1.54843(18)
H24 H 0.4704 0.2636 1.6062
H25 H 0.3603 0.2230 1.5338
H26 H 0.3928 0.4212 1.5626
O1 O 0.15437(12) 0.4855(3) 1.25297(12)
O2 O 0.48527(14) 0.3166(3) 1.46378(11)
loop_
_geom_bond_atom_site_label_1
_geom_bond_atom_site_label_2
_geom_bond_site_symmetry_1
_geom_bond_site_symmetry_2
C1 C2 1_555 1_555
C2 C3 1_555 1_555
C3 H1 1_555 1_555
C4 C3 1_555 1_555
C5 C1 1_555 1_555
H2 C5 1_555 1_555
H3 C5 1_555 1_555
C6 C1 1_555 1_555
C7 C6 1_555 1_555
H4 C7 1_555 1_555
C8 C7 1_555 1_555
H5 C8 1_555 1_555
C9 C8 1_555 1_555
H6 C9 1_555 1_555
C10 C9 1_555 1_555
H7 C10 1_555 1_555
C11 C6 1_555 1_555
H8 C11 1_555 1_555
C12 C2 1_555 1_555
C13 C12 1_555 1_555
H9 C13 1_555 1_555
C14 C13 1_555 1_555
H10 C14 1_555 1_555
C15 C14 1_555 1_555
H11 C15 1_555 1_555
C16 C15 1_555 1_555
H12 C16 1_555 1_555
C17 C12 1_555 1_555
H13 C17 1_555 1_555
C18 C4 1_555 1_555
C19 C18 1_555 1_555
H14 C19 1_555 1_555
C20 C19 1_555 1_555
H15 C20 1_555 1_555
C21 C20 1_555 1_555
C22 C21 1_555 1_555
H16 C22 1_555 1_555
C23 C18 1_555 1_555
H17 C23 1_555 1_555
C24 C21 1_555 1_555
C25 C24 1_555 1_555
H18 C25 1_555 1_555
C26 C25 1_555 1_555
C27 C26 1_555 1_555
H19 C27 1_555 1_555
C28 C27 1_555 1_555
C29 C24 1_555 1_555
H20 C29 1_555 1_555
C30 H21 1_555 1_555
H22 C30 1_555 1_555
H23 C30 1_555 1_555
C31 H24 1_555 1_555
H25 C31 1_555 1_555
H26 C31 1_555 1_555
O1 C26 1_555 1_555
O2 C28 1_555 1_555
C4 C5 1_555 1_555
C10 C11 1_555 1_555
C16 C17 1_555 1_555
C22 C23 1_555 1_555
C28 C29 1_555 1_555
C30 O1 1_555 1_555
C31 O2 1_555 1_555

#END
