
#######################################################################
#
#                 Cambridge Crystallographic Data Centre
#                                CCDC 
#
#######################################################################
#
# If this CIF has been generated from an entry in the Cambridge 
# Structural Database, then it will include bibliographic, chemical, 
# crystal, experimental, refinement or atomic coordinate data resulting 
# from the CCDC's data processing and validation procedures.
#
#######################################################################

data_WEGWAJ
_chemical_formula_moiety         'C25 H22 O2'
_chemical_name_systematic        
1,1'-[4-(3,5-dimethoxyphenyl)cyclopenta-1,3-diene-1,2-diyl]dibenzene
_symmetry_cell_setting           monoclinic
_symmetry_space_group_name_H-M   'P 21/c'
_symmetry_Int_Tables_number      14
_space_group_name_Hall           '-P 2ybc'
loop_
_symmetry_equiv_pos_site_id
_symmetry_equiv_pos_as_xyz
1 x,y,z
2 -x,1/2+y,1/2-z
3 -x,-y,-z
4 x,1/2-y,1/2+z
_cell_length_a                   13.3007(4)
_cell_length_b                   7.4316(2)
_cell_length_c                   20.1313(6)
_cell_angle_alpha                90
_cell_angle_beta                 107.834(2)
_cell_angle_gamma                90
_cell_volume                     1894.27
_exptl_crystal_colour            colorless
_exptl_crystal_description       block
_cell_formula_units_Z            4
loop_
_atom_site_label
_atom_site_type_symbol
_atom_site_fract_x
_atom_site_fract_y
_atom_site_fract_z
O1 O 0.64930(10) 0.26102(17) 0.67667(6)
O2 O 0.83508(10) 0.32354(19) 0.51055(6)
C1 C 0.27464(13) 0.2295(2) 0.36256(8)
C2 C 0.33101(13) 0.2520(2) 0.31720(8)
C3 C 0.44219(13) 0.2720(2) 0.35694(8)
H1 H 0.4961 0.2911 0.3373
C4 C 0.45638(13) 0.2590(2) 0.42604(8)
C5 C 0.35025(12) 0.2290(2) 0.43536(8)
H2 H 0.3334 0.3245 0.4631
H3 H 0.3481 0.1147 0.4581
C6 C 0.15954(13) 0.2176(2) 0.34812(8)
C7 C 0.11604(14) 0.1290(2) 0.39354(9)
H4 H 0.1602 0.0729 0.4330
C8 C 0.00723(15) 0.1231(2) 0.38073(11)
H5 H -0.0204 0.0622 0.4116
C9 C -0.05980(16) 0.2057(3) 0.32324(11)
H6 H -0.1325 0.2008 0.3148
C10 C -0.01772(15) 0.2964(3) 0.27793(10)
H7 H -0.0625 0.3535 0.2389
C11 C 0.08981(14) 0.3032(2) 0.29006(9)
H8 H 0.1167 0.3656 0.2592
C12 C 0.29344(12) 0.2461(2) 0.23984(8)
C13 C 0.24566(13) 0.0919(2) 0.20577(8)
H9 H 0.2357 -0.0060 0.2318
C14 C 0.21260(14) 0.0809(3) 0.13390(8)
H10 H 0.1809 -0.0239 0.1120
C15 C 0.22630(15) 0.2239(3) 0.09478(9)
H11 H 0.2046 0.2161 0.0464
C16 C 0.27201(17) 0.3784(3) 0.12721(10)
H12 H 0.2801 0.4767 0.1007
C17 C 0.30644(15) 0.3891(3) 0.19950(9)
H13 H 0.3387 0.4939 0.2210
C18 C 0.55509(13) 0.2695(2) 0.48423(8)
C19 C 0.55213(14) 0.2578(2) 0.55287(8)
H14 H 0.4881 0.2411 0.5617
C20 C 0.64460(14) 0.2710(2) 0.60766(8)
C21 C 0.74097(13) 0.2965(2) 0.59627(8)
H15 H 0.8026 0.3073 0.6336
C22 C 0.74396(13) 0.3056(2) 0.52816(9)
C23 C 0.65173(13) 0.2929(2) 0.47267(8)
H16 H 0.6548 0.3003 0.4272
C24 C 0.55378(17) 0.2184(3) 0.69110(10)
H17 H 0.5250 0.1090 0.6675
H18 H 0.5039 0.3144 0.6751
H19 H 0.5680 0.2030 0.7405
C25 C 0.93046(14) 0.3625(3) 0.56405(10)
H20 H 0.9435 0.2709 0.5993
H21 H 0.9244 0.4772 0.5845
H22 H 0.9879 0.3657 0.5446
loop_
_geom_bond_atom_site_label_1
_geom_bond_atom_site_label_2
_geom_bond_site_symmetry_1
_geom_bond_site_symmetry_2
O1 C20 1_555 1_555
O2 C22 1_555 1_555
C1 C2 1_555 1_555
C2 C3 1_555 1_555
C3 H1 1_555 1_555
C4 C3 1_555 1_555
C5 C1 1_555 1_555
H2 C5 1_555 1_555
H3 C5 1_555 1_555
C6 C1 1_555 1_555
C7 C6 1_555 1_555
H4 C7 1_555 1_555
C8 C7 1_555 1_555
H5 C8 1_555 1_555
C9 C8 1_555 1_555
H6 C9 1_555 1_555
C10 C9 1_555 1_555
H7 C10 1_555 1_555
C11 C6 1_555 1_555
H8 C11 1_555 1_555
C12 C2 1_555 1_555
C13 C12 1_555 1_555
H9 C13 1_555 1_555
C14 C13 1_555 1_555
H10 C14 1_555 1_555
C15 C14 1_555 1_555
H11 C15 1_555 1_555
C16 C15 1_555 1_555
H12 C16 1_555 1_555
C17 C12 1_555 1_555
H13 C17 1_555 1_555
C18 C4 1_555 1_555
C19 C18 1_555 1_555
H14 C19 1_555 1_555
C20 C19 1_555 1_555
C21 C20 1_555 1_555
H15 C21 1_555 1_555
C22 C21 1_555 1_555
C23 C18 1_555 1_555
H16 C23 1_555 1_555
C24 O1 1_555 1_555
H17 C24 1_555 1_555
H18 C24 1_555 1_555
H19 C24 1_555 1_555
C25 O2 1_555 1_555
H20 C25 1_555 1_555
H21 C25 1_555 1_555
H22 C25 1_555 1_555
C4 C5 1_555 1_555
C10 C11 1_555 1_555
C16 C17 1_555 1_555
C22 C23 1_555 1_555

#END
