
#######################################################################
#
#                 Cambridge Crystallographic Data Centre
#                                CCDC 
#
#######################################################################
#
# If this CIF has been generated from an entry in the Cambridge 
# Structural Database, then it will include bibliographic, chemical, 
# crystal, experimental, refinement or atomic coordinate data resulting 
# from the CCDC's data processing and validation procedures.
#
#######################################################################

data_WEHCUJ
_chemical_formula_moiety         'C22 H20 Br1 N1 O1'
_chemical_name_systematic        
4-(4-Bromophenyl)-2-(4-methoxyphenyl)-1,2,3,4-tetrahydroquinoline
_symmetry_cell_setting           orthorhombic
_symmetry_space_group_name_H-M   'P 21 21 21'
_symmetry_Int_Tables_number      19
_space_group_name_Hall           'P 2ac 2ab'
loop_
_symmetry_equiv_pos_site_id
_symmetry_equiv_pos_as_xyz
1 x,y,z
2 1/2-x,-y,1/2+z
3 -x,1/2+y,1/2-z
4 1/2+x,1/2-y,-z
_cell_length_a                   5.7061(5)
_cell_length_b                   17.0480(15)
_cell_length_c                   18.4614(16)
_cell_angle_alpha                90
_cell_angle_beta                 90
_cell_angle_gamma                90
_cell_volume                     1795.88
_exptl_crystal_colour            colorless
_exptl_crystal_description       needle
_cell_formula_units_Z            4
loop_
_atom_site_label
_atom_site_type_symbol
_atom_site_fract_x
_atom_site_fract_y
_atom_site_fract_z
Br1 Br 1.00758(4) 0.715336(11) 0.666051(10)
O1 O 0.4097(2) 0.09888(8) 0.43471(7)
N1 N 0.8193(3) 0.40603(10) 0.29892(9)
H1 H 0.8667 0.3603 0.2824
C1 C 0.9437(3) 0.47336(12) 0.28166(10)
C2 C 1.1094(4) 0.47076(13) 0.22522(11)
H2 H 1.1306 0.4233 0.1990
C3 C 1.2412(4) 0.53527(14) 0.20724(11)
H3 H 1.3522 0.5321 0.1690
C4 C 1.2123(4) 0.60523(14) 0.24490(11)
H4 H 1.3021 0.6502 0.2325
C5 C 1.0503(4) 0.60839(13) 0.30100(11)
H5 H 1.0312 0.6561 0.3269
C6 C 0.9145(3) 0.54339(12) 0.32040(10)
C7 C 0.7323(4) 0.54868(12) 0.38055(11)
H6 H 0.5893 0.5744 0.3602
C8 C 0.8104(4) 0.59560(11) 0.44613(11)
C9 C 1.0247(4) 0.58031(11) 0.47958(10)
H7 H 1.1315 0.5448 0.4575
C10 C 1.0849(4) 0.61613(12) 0.54468(10)
H8 H 1.2309 0.6053 0.5672
C11 C 0.9285(4) 0.66765(11) 0.57581(10)
C12 C 0.7159(4) 0.68537(12) 0.54382(11)
H9 H 0.6114 0.7218 0.5656
C13 C 0.6589(4) 0.64866(12) 0.47898(11)
H10 H 0.5130 0.6601 0.4566
C14 C 0.6625(3) 0.46605(12) 0.40672(10)
H11 H 0.7917 0.4440 0.4362
H12 H 0.5225 0.4702 0.4381
C15 C 0.6095(4) 0.41042(12) 0.34446(10)
H13 H 0.4766 0.4319 0.3153
C16 C 0.5482(3) 0.32873(11) 0.36985(10)
C17 C 0.3386(4) 0.29313(12) 0.34926(11)
H14 H 0.2296 0.3218 0.3208
C18 C 0.2854(3) 0.21661(12) 0.36942(11)
H15 H 0.1433 0.1929 0.3539
C19 C 0.4423(3) 0.17500(11) 0.41257(10)
C20 C 0.6495(3) 0.21036(12) 0.43581(10)
H16 H 0.7542 0.1826 0.4665
C21 C 0.7022(3) 0.28612(12) 0.41399(10)
H17 H 0.8450 0.3095 0.4292
C22 C 0.2125(4) 0.05884(12) 0.40403(12)
H18 H 0.2158 0.0036 0.4187
H19 H 0.2194 0.0623 0.3511
H20 H 0.0673 0.0832 0.4213
loop_
_geom_bond_atom_site_label_1
_geom_bond_atom_site_label_2
_geom_bond_site_symmetry_1
_geom_bond_site_symmetry_2
Br1 C11 1_555 1_555
O1 C19 1_555 1_555
N1 H1 1_555 1_555
C1 N1 1_555 1_555
C2 C1 1_555 1_555
H2 C2 1_555 1_555
C3 C2 1_555 1_555
H3 C3 1_555 1_555
C4 C3 1_555 1_555
H4 C4 1_555 1_555
C5 C4 1_555 1_555
H5 C5 1_555 1_555
C6 C1 1_555 1_555
C7 C6 1_555 1_555
H6 C7 1_555 1_555
C8 C7 1_555 1_555
C9 C8 1_555 1_555
H7 C9 1_555 1_555
C10 C9 1_555 1_555
H8 C10 1_555 1_555
C11 C10 1_555 1_555
C12 C11 1_555 1_555
H9 C12 1_555 1_555
C13 C8 1_555 1_555
H10 C13 1_555 1_555
C14 C7 1_555 1_555
H11 C14 1_555 1_555
H12 C14 1_555 1_555
C15 N1 1_555 1_555
H13 C15 1_555 1_555
C16 C15 1_555 1_555
C17 C16 1_555 1_555
H14 C17 1_555 1_555
C18 C17 1_555 1_555
H15 C18 1_555 1_555
C19 C18 1_555 1_555
C20 C19 1_555 1_555
H16 C20 1_555 1_555
C21 C16 1_555 1_555
H17 C21 1_555 1_555
C22 O1 1_555 1_555
H18 C22 1_555 1_555
H19 C22 1_555 1_555
H20 C22 1_555 1_555
C5 C6 1_555 1_555
C12 C13 1_555 1_555
C14 C15 1_555 1_555
C20 C21 1_555 1_555

#END
