
#######################################################################
#
#                 Cambridge Crystallographic Data Centre
#                                CCDC 
#
#######################################################################
#
# If this CIF has been generated from an entry in the Cambridge 
# Structural Database, then it will include bibliographic, chemical, 
# crystal, experimental, refinement or atomic coordinate data resulting 
# from the CCDC's data processing and validation procedures.
#
#######################################################################

data_WEHFAR01
_chemical_name_common            
20-Ethyl-1,16-dimethoxy-4-(methoxymethyl)aconitane-8,14-diol
_chemical_formula_moiety         'C24 H39 N1 O5'
_chemical_name_systematic        
(1S,4S,5R,7S,8S,9R,10R,11S,13S,14S,16S,17R)-N-methyl-8,14-dihydroxy-1,16-trimethoxy-4-(methoxymethylene)aconitane
_symmetry_cell_setting           orthorhombic
_symmetry_space_group_name_H-M   'P 21 21 21'
_symmetry_Int_Tables_number      19
_space_group_name_Hall           'P 2ac 2ab'
loop_
_symmetry_equiv_pos_site_id
_symmetry_equiv_pos_as_xyz
1 x,y,z
2 1/2-x,-y,1/2+z
3 -x,1/2+y,1/2-z
4 1/2+x,1/2-y,-z
_cell_length_a                   9.7124(4)
_cell_length_b                   13.9401(7)
_cell_length_c                   16.3729(8)
_cell_angle_alpha                90
_cell_angle_beta                 90
_cell_angle_gamma                90
_cell_volume                     2216.76
_exptl_crystal_colour            colorless
_exptl_crystal_description       block
_cell_formula_units_Z            4
loop_
_atom_site_label
_atom_site_type_symbol
_atom_site_fract_x
_atom_site_fract_y
_atom_site_fract_z
O1 O 0.32334(17) 0.44018(14) 0.41854(12)
O2 O 0.89891(18) 0.25592(15) 0.37591(14)
H1 H 0.9046 0.2223 0.3350
O3 O 0.7579(2) 0.17270(16) 0.23475(15)
H2 H 0.7429 0.1208 0.2565
O4 O 0.6335(2) 0.05223(14) 0.33745(13)
O5 O 0.7984(2) 0.70995(17) 0.35432(14)
N1 N 0.6111(2) 0.47017(16) 0.54202(13)
C1 C 0.4310(2) 0.50466(19) 0.39450(17)
H3 H 0.4124 0.5232 0.3378
C2 C 0.4232(3) 0.5949(2) 0.44516(18)
H4 H 0.4167 0.5780 0.5025
H5 H 0.3411 0.6306 0.4305
C3 C 0.5493(3) 0.6571(2) 0.43140(19)
H6 H 0.5462 0.7114 0.4683
H7 H 0.5480 0.6816 0.3760
C4 C 0.6830(3) 0.60164(19) 0.44529(16)
C5 C 0.6955(2) 0.51749(18) 0.38407(17)
H8 H 0.7034 0.5407 0.3278
C6 C 0.8211(3) 0.45461(19) 0.40829(18)
H9 H 0.8734 0.4363 0.3603
H10 H 0.8812 0.4891 0.4454
C7 C 0.7596(2) 0.3657(2) 0.45023(17)
H11 H 0.8128 0.3489 0.4990
C8 C 0.7561(3) 0.2812(2) 0.38994(17)
C9 C 0.6954(3) 0.31884(19) 0.30943(16)
H12 H 0.7625 0.3596 0.2812
C10 C 0.5624(2) 0.37418(19) 0.32477(16)
H13 H 0.5415 0.4092 0.2744
C11 C 0.5686(2) 0.44982(18) 0.39451(15)
C12 C 0.4537(3) 0.29090(19) 0.33160(18)
H14 H 0.4238 0.2833 0.3878
H15 H 0.3739 0.3047 0.2980
C13 C 0.5264(3) 0.1990(2) 0.30144(17)
H16 H 0.4657 0.1614 0.2659
C14 C 0.6491(3) 0.2379(2) 0.25413(17)
H17 H 0.6152 0.2659 0.2031
C15 C 0.6805(3) 0.1936(2) 0.42678(18)
H18 H 0.7498 0.1481 0.4447
H19 H 0.6317 0.2152 0.4751
C16 C 0.5773(3) 0.13917(19) 0.37274(18)
H20 H 0.4978 0.1216 0.4064
C17 C 0.6132(2) 0.40139(19) 0.47427(15)
H21 H 0.5530 0.3468 0.4864
C18 C 0.8026(3) 0.6714(2) 0.43440(19)
H22 H 0.7958 0.7227 0.4742
H23 H 0.8892 0.6382 0.4430
C19 C 0.6885(3) 0.55955(19) 0.53215(17)
H24 H 0.7839 0.5479 0.5465
H25 H 0.6525 0.6067 0.5701
C20 C 0.6367(3) 0.4256(2) 0.62167(17)
H26 H 0.7342 0.4300 0.6341
H27 H 0.6127 0.3582 0.6187
C21 C 0.5563(4) 0.4716(2) 0.68945(19)
H28 H 0.4601 0.4712 0.6759
H29 H 0.5868 0.5366 0.6966
H30 H 0.5706 0.4365 0.7392
C22 C 0.1962(3) 0.4556(2) 0.3787(2)
H31 H 0.2084 0.4491 0.3208
H32 H 0.1634 0.5189 0.3909
H33 H 0.1303 0.4091 0.3973
C23 C 0.9152(4) 0.7649(3) 0.3346(2)
H34 H 0.9080 0.7870 0.2793
H35 H 0.9964 0.7262 0.3404
H36 H 0.9210 0.8190 0.3707
C24 C 0.6424(4) -0.0258(2) 0.3919(2)
H37 H 0.6771 -0.0810 0.3635
H38 H 0.5527 -0.0399 0.4134
H39 H 0.7035 -0.0098 0.4359
loop_
_geom_bond_atom_site_label_1
_geom_bond_atom_site_label_2
_geom_bond_site_symmetry_1
_geom_bond_site_symmetry_2
O1 C1 1_555 1_555
O2 H1 1_555 1_555
O3 H2 1_555 1_555
O4 C16 1_555 1_555
O5 C18 1_555 1_555
N1 C17 1_555 1_555
C1 H3 1_555 1_555
C2 C1 1_555 1_555
H4 C2 1_555 1_555
H5 C2 1_555 1_555
C3 C2 1_555 1_555
H6 C3 1_555 1_555
H7 C3 1_555 1_555
C4 C3 1_555 1_555
C5 C4 1_555 1_555
H8 C5 1_555 1_555
C6 C5 1_555 1_555
H9 C6 1_555 1_555
H10 C6 1_555 1_555
C7 C6 1_555 1_555
H11 C7 1_555 1_555
C8 O2 1_555 1_555
C9 C8 1_555 1_555
H12 C9 1_555 1_555
C10 C9 1_555 1_555
H13 C10 1_555 1_555
C11 C1 1_555 1_555
C12 C10 1_555 1_555
H14 C12 1_555 1_555
H15 C12 1_555 1_555
C13 C12 1_555 1_555
H16 C13 1_555 1_555
C14 O3 1_555 1_555
H17 C14 1_555 1_555
C15 C8 1_555 1_555
H18 C15 1_555 1_555
H19 C15 1_555 1_555
C16 C13 1_555 1_555
H20 C16 1_555 1_555
C17 C7 1_555 1_555
H21 C17 1_555 1_555
C18 C4 1_555 1_555
H22 C18 1_555 1_555
H23 C18 1_555 1_555
C19 N1 1_555 1_555
H24 C19 1_555 1_555
H25 C19 1_555 1_555
C20 N1 1_555 1_555
H26 C20 1_555 1_555
H27 C20 1_555 1_555
C21 C20 1_555 1_555
H28 C21 1_555 1_555
H29 C21 1_555 1_555
H30 C21 1_555 1_555
C22 O1 1_555 1_555
H31 C22 1_555 1_555
H32 C22 1_555 1_555
H33 C22 1_555 1_555
C23 O5 1_555 1_555
H34 C23 1_555 1_555
H35 C23 1_555 1_555
H36 C23 1_555 1_555
C24 O4 1_555 1_555
H37 C24 1_555 1_555
H38 C24 1_555 1_555
H39 C24 1_555 1_555
C4 C19 1_555 1_555
C5 C11 1_555 1_555
C7 C8 1_555 1_555
C9 C14 1_555 1_555
C10 C11 1_555 1_555
C11 C17 1_555 1_555
C13 C14 1_555 1_555
C15 C16 1_555 1_555

#END
