
#######################################################################
#
#                 Cambridge Crystallographic Data Centre
#                                CCDC 
#
#######################################################################
#
# If this CIF has been generated from an entry in the Cambridge 
# Structural Database, then it will include bibliographic, chemical, 
# crystal, experimental, refinement or atomic coordinate data resulting 
# from the CCDC's data processing and validation procedures.
#
#######################################################################

data_WEHHUP
_chemical_formula_moiety         'C37 H24 N2 O2'
_chemical_name_systematic        
'[4-(10H-phenoxazin-10-yl)phenyl](9-phenyl-9H-carbazol-3-yl)methanone'
_symmetry_cell_setting           monoclinic
_symmetry_space_group_name_H-M   'P 21/n'
_symmetry_Int_Tables_number      14
_space_group_name_Hall           '-P 2yn'
loop_
_symmetry_equiv_pos_site_id
_symmetry_equiv_pos_as_xyz
1 x,y,z
2 1/2-x,1/2+y,1/2-z
3 -x,-y,-z
4 1/2+x,1/2-y,1/2+z
_cell_length_a                   12.0333(17)
_cell_length_b                   14.391(2)
_cell_length_c                   15.147(2)
_cell_angle_alpha                90
_cell_angle_beta                 102.855(6)
_cell_angle_gamma                90
_cell_volume                     2557.28
_exptl_crystal_description       sheet
_cell_formula_units_Z            4
loop_
_atom_site_label
_atom_site_type_symbol
_atom_site_fract_x
_atom_site_fract_y
_atom_site_fract_z
C1 C 1.2574(3) 0.5474(3) 1.2240(2)
C2 C 1.2221(3) 0.5752(3) 1.2996(3)
H1 H 1.2614 0.5554 1.3581
C3 C 1.1283(4) 0.6325(3) 1.2895(3)
H2 H 1.1033 0.6529 1.3415
C4 C 1.0709(3) 0.6603(3) 1.2052(3)
H3 H 1.0053 0.6986 1.1986
C5 C 1.1089(3) 0.6325(3) 1.1301(3)
H4 H 1.0698 0.6528 1.0718
C6 C 1.2030(3) 0.5754(3) 1.1383(2)
C7 C 1.3250(3) 0.4754(3) 1.0761(2)
C8 C 1.3555(3) 0.4307(3) 1.0048(3)
H5 H 1.3224 0.4493 0.9445
C9 C 1.4340(3) 0.3587(3) 1.0200(3)
H6 H 1.4542 0.3281 0.9702
C10 C 1.4823(3) 0.3316(3) 1.1065(3)
H7 H 1.5355 0.2819 1.1171
C11 C 1.4533(3) 0.3770(3) 1.1784(3)
H8 H 1.4878 0.3592 1.2386
C12 C 1.3756(3) 0.4471(3) 1.1633(2)
C13 C 1.1949(3) 0.5784(3) 0.9751(2)
C14 C 1.2469(3) 0.6485(3) 0.9374(3)
H9 H 1.3113 0.6797 0.9726
C15 C 1.2052(3) 0.6733(3) 0.8486(3)
H10 H 1.2429 0.7202 0.8221
C16 C 1.1090(3) 0.6310(3) 0.7973(2)
C17 C 1.0552(3) 0.5617(3) 0.8365(2)
H11 H 0.9882 0.5328 0.8027
C18 C 1.1000(3) 0.5353(3) 0.9249(2)
H12 H 1.0648 0.4867 0.9512
C19 C 1.0750(3) 0.6537(3) 0.7001(2)
C20 C 0.7344(3) 0.6377(3) 0.5500(2)
C21 C 0.7527(3) 0.6605(3) 0.6398(2)
H13 H 0.6907 0.6744 0.6670
C22 C 0.8630(3) 0.6629(3) 0.6896(2)
H14 H 0.8773 0.6777 0.7522
C23 C 0.9554(3) 0.6437(3) 0.6492(2)
C24 C 0.9355(3) 0.6217(3) 0.5588(2)
H15 H 0.9976 0.6094 0.5313
C25 C 0.8254(3) 0.6177(3) 0.5080(2)
C26 C 0.7764(3) 0.6013(3) 0.4140(2)
C27 C 0.8219(3) 0.5808(3) 0.3401(3)
H16 H 0.9016 0.5722 0.3470
C28 C 0.7498(4) 0.5731(3) 0.2567(3)
H17 H 0.7800 0.5605 0.2051
C29 C 0.6322(3) 0.5837(3) 0.2465(3)
H18 H 0.5838 0.5767 0.1881
C30 C 0.5853(3) 0.6036(3) 0.3180(3)
H19 H 0.5053 0.6110 0.3106
C31 C 0.6583(3) 0.6126(3) 0.4020(2)
C32 C 0.5233(3) 0.6548(3) 0.4982(2)
C33 C 0.4789(3) 0.6066(3) 0.5601(3)
H20 H 0.5211 0.5573 0.5936
C34 C 0.3731(3) 0.6295(3) 0.5740(3)
H21 H 0.3425 0.5964 0.6174
C35 C 0.3115(3) 0.7003(3) 0.5249(3)
H22 H 0.2387 0.7164 0.5347
C36 C 0.3557(3) 0.7479(3) 0.4613(3)
H23 H 0.3128 0.7961 0.4266
C37 C 0.4617(3) 0.7253(3) 0.4485(2)
H24 H 0.4927 0.7584 0.4053
N1 N 1.2454(3) 0.5478(2) 1.0642(2)
N2 N 0.6337(2) 0.6328(2) 0.4847(2)
O1 O 1.3532(2) 0.4914(2) 1.23741(17)
O2 O 1.1473(2) 0.6789(2) 0.66060(18)
loop_
_geom_bond_atom_site_label_1
_geom_bond_atom_site_label_2
_geom_bond_site_symmetry_1
_geom_bond_site_symmetry_2
C1 C2 1_555 1_555
C2 H1 1_555 1_555
C3 C2 1_555 1_555
H2 C3 1_555 1_555
C4 C3 1_555 1_555
H3 C4 1_555 1_555
C5 C4 1_555 1_555
H4 C5 1_555 1_555
C6 C1 1_555 1_555
C7 C8 1_555 1_555
C8 H5 1_555 1_555
C9 C8 1_555 1_555
H6 C9 1_555 1_555
C10 C9 1_555 1_555
H7 C10 1_555 1_555
C11 C10 1_555 1_555
H8 C11 1_555 1_555
C12 C7 1_555 1_555
C13 C14 1_555 1_555
C14 H9 1_555 1_555
C15 C14 1_555 1_555
H10 C15 1_555 1_555
C16 C15 1_555 1_555
C17 C16 1_555 1_555
H11 C17 1_555 1_555
C18 C13 1_555 1_555
H12 C18 1_555 1_555
C19 C16 1_555 1_555
C20 C21 1_555 1_555
C21 H13 1_555 1_555
C22 C21 1_555 1_555
H14 C22 1_555 1_555
C23 C19 1_555 1_555
C24 C23 1_555 1_555
H15 C24 1_555 1_555
C25 C20 1_555 1_555
C26 C25 1_555 1_555
C27 C26 1_555 1_555
H16 C27 1_555 1_555
C28 C27 1_555 1_555
H17 C28 1_555 1_555
C29 C28 1_555 1_555
H18 C29 1_555 1_555
C30 C29 1_555 1_555
H19 C30 1_555 1_555
C31 C26 1_555 1_555
C32 C33 1_555 1_555
C33 H20 1_555 1_555
C34 C33 1_555 1_555
H21 C34 1_555 1_555
C35 C34 1_555 1_555
H22 C35 1_555 1_555
C36 C35 1_555 1_555
H23 C36 1_555 1_555
C37 C32 1_555 1_555
H24 C37 1_555 1_555
N1 C6 1_555 1_555
N2 C20 1_555 1_555
O1 C1 1_555 1_555
O2 C19 1_555 1_555
C5 C6 1_555 1_555
C7 N1 1_555 1_555
C11 C12 1_555 1_555
C12 O1 1_555 1_555
C13 N1 1_555 1_555
C17 C18 1_555 1_555
C22 C23 1_555 1_555
C24 C25 1_555 1_555
C30 C31 1_555 1_555
C31 N2 1_555 1_555
C32 N2 1_555 1_555
C36 C37 1_555 1_555

#END
