
#######################################################################
#
#                 Cambridge Crystallographic Data Centre
#                                CCDC 
#
#######################################################################
#
# If this CIF has been generated from an entry in the Cambridge 
# Structural Database, then it will include bibliographic, chemical, 
# crystal, experimental, refinement or atomic coordinate data resulting 
# from the CCDC's data processing and validation procedures.
#
#######################################################################

data_WEHHOJ
_chemical_formula_moiety         'C40 H30 N2 O1'
_chemical_name_systematic        
'[4-(9,9-dimethylacridin-10(9H)-yl)phenyl](9-phenyl-9H-carbazol-3-yl)methanone'
_symmetry_cell_setting           orthorhombic
_symmetry_space_group_name_H-M   'P n a 21'
_symmetry_Int_Tables_number      33
_space_group_name_Hall           'P 2c -2n'
loop_
_symmetry_equiv_pos_site_id
_symmetry_equiv_pos_as_xyz
1 x,y,z
2 -x,-y,1/2+z
3 1/2+x,1/2-y,z
4 1/2-x,1/2+y,1/2+z
_cell_length_a                   28.925(5)
_cell_length_b                   16.256(2)
_cell_length_c                   6.1644(11)
_cell_angle_alpha                90
_cell_angle_beta                 90
_cell_angle_gamma                90
_cell_volume                     2898.53
_exptl_crystal_description       needle
_cell_formula_units_Z            4
loop_
_atom_site_label
_atom_site_type_symbol
_atom_site_fract_x
_atom_site_fract_y
_atom_site_fract_z
C1 C 0.72423(12) 0.22096(18) 0.6247(6)
C2 C 0.73760(12) 0.30379(18) 0.6381(6)
H1 H 0.7229 0.3437 0.5491
C3 C 0.77194(12) 0.3276(2) 0.7800(6)
H2 H 0.7808 0.3838 0.7870
C4 C 0.79359(12) 0.27130(18) 0.9111(6)
H3 H 0.8168 0.2881 1.0106
C5 C 0.78076(11) 0.18949(18) 0.8950(6)
H4 H 0.7959 0.1502 0.9842
C6 C 0.74642(12) 0.16250(18) 0.7529(6)
C7 C 0.73612(12) 0.07103(18) 0.7340(6)
C8 C 0.69256(11) 0.05664(18) 0.6032(6)
C9 C 0.67370(12) -0.02235(19) 0.5938(7)
H5 H 0.6869 -0.0646 0.6802
C10 C 0.63647(12) -0.04092(18) 0.4629(7)
H6 H 0.6247 -0.0955 0.4570
C11 C 0.61645(12) 0.02066(17) 0.3403(7)
H7 H 0.5908 0.0086 0.2496
C12 C 0.63363(11) 0.09936(18) 0.3495(6)
H8 H 0.6196 0.1417 0.2661
C13 C 0.67147(11) 0.11747(17) 0.4804(6)
C14 C 0.66352(11) 0.26199(16) 0.3691(6)
C15 C 0.67565(11) 0.28535(18) 0.1638(6)
H9 H 0.7007 0.2590 0.0924
C16 C 0.65150(11) 0.34720(17) 0.0604(6)
H10 H 0.6598 0.3630 -0.0827
C17 C 0.61498(12) 0.38667(17) 0.1648(6)
C18 C 0.60327(11) 0.36308(17) 0.3726(6)
H11 H 0.5786 0.3899 0.4456
C19 C 0.62718(12) 0.30060(17) 0.4754(6)
H12 H 0.6188 0.2842 0.6180
C20 C 0.58858(12) 0.45109(19) 0.0420(6)
C21 C 0.54113(12) 0.66933(17) 0.3426(6)
C22 C 0.52014(12) 0.64239(18) 0.1537(6)
H13 H 0.4957 0.6728 0.0891
C23 C 0.53561(12) 0.57051(18) 0.0622(6)
H14 H 0.5219 0.5516 -0.0687
C24 C 0.57131(11) 0.52415(18) 0.1579(6)
C25 C 0.59196(11) 0.55170(17) 0.3475(6)
H15 H 0.6159 0.5206 0.4137
C26 C 0.57731(11) 0.62488(17) 0.4391(6)
C27 C 0.59287(11) 0.67174(18) 0.6255(6)
C28 C 0.62608(12) 0.6594(2) 0.7843(6)
H16 H 0.6440 0.6105 0.7852
C29 C 0.63282(13) 0.7184(2) 0.9397(7)
H17 H 0.6561 0.7109 1.0464
C30 C 0.60562(13) 0.7896(2) 0.9425(7)
H18 H 0.6109 0.8299 1.0514
C31 C 0.57166(13) 0.8026(2) 0.7925(6)
H19 H 0.5528 0.8505 0.7974
C32 C 0.56561(12) 0.74362(18) 0.6330(6)
C33 C 0.50035(12) 0.80275(17) 0.4132(6)
C34 C 0.45427(12) 0.78295(19) 0.4072(6)
H20 H 0.4445 0.7279 0.4313
C35 C 0.42231(12) 0.8437(2) 0.3658(7)
H21 H 0.3904 0.8302 0.3601
C36 C 0.43604(13) 0.9234(2) 0.3326(7)
H22 H 0.4137 0.9650 0.3051
C37 C 0.48195(14) 0.9427(2) 0.3394(7)
H23 H 0.4916 0.9979 0.3168
C38 C 0.51446(13) 0.88240(18) 0.3788(7)
H24 H 0.5464 0.8959 0.3821
C39 C 0.77668(13) 0.0313(2) 0.6068(9)
H25 H 0.8057 0.0406 0.6853
H26 H 0.7787 0.0562 0.4623
H27 H 0.7713 -0.0279 0.5925
C40 C 0.73235(17) 0.0319(2) 0.9572(8)
H28 H 0.7065 0.0567 1.0364
H29 H 0.7611 0.0411 1.0377
H30 H 0.7270 -0.0273 0.9416
N1 N 0.68889(10) 0.19830(14) 0.4818(5)
N2 N 0.53425(9) 0.74106(14) 0.4596(5)
O1 O 0.58219(9) 0.44118(14) -0.1526(5)
loop_
_geom_bond_atom_site_label_1
_geom_bond_atom_site_label_2
_geom_bond_site_symmetry_1
_geom_bond_site_symmetry_2
C1 C2 1_555 1_555
C2 H1 1_555 1_555
C3 C2 1_555 1_555
H2 C3 1_555 1_555
C4 C3 1_555 1_555
H3 C4 1_555 1_555
C5 C4 1_555 1_555
H4 C5 1_555 1_555
C6 C1 1_555 1_555
C7 C6 1_555 1_555
C8 C7 1_555 1_555
C9 C8 1_555 1_555
H5 C9 1_555 1_555
C10 C9 1_555 1_555
H6 C10 1_555 1_555
C11 C10 1_555 1_555
H7 C11 1_555 1_555
C12 C11 1_555 1_555
H8 C12 1_555 1_555
C13 C8 1_555 1_555
C14 C15 1_555 1_555
C15 H9 1_555 1_555
C16 C15 1_555 1_555
H10 C16 1_555 1_555
C17 C16 1_555 1_555
C18 C17 1_555 1_555
H11 C18 1_555 1_555
C19 C14 1_555 1_555
H12 C19 1_555 1_555
C20 C17 1_555 1_555
C21 C22 1_555 1_555
C22 H13 1_555 1_555
C23 C22 1_555 1_555
H14 C23 1_555 1_555
C24 C20 1_555 1_555
C25 C24 1_555 1_555
H15 C25 1_555 1_555
C26 C21 1_555 1_555
C27 C26 1_555 1_555
C28 C27 1_555 1_555
H16 C28 1_555 1_555
C29 C28 1_555 1_555
H17 C29 1_555 1_555
C30 C29 1_555 1_555
H18 C30 1_555 1_555
C31 C30 1_555 1_555
H19 C31 1_555 1_555
C32 C27 1_555 1_555
C33 C34 1_555 1_555
C34 H20 1_555 1_555
C35 C34 1_555 1_555
H21 C35 1_555 1_555
C36 C35 1_555 1_555
H22 C36 1_555 1_555
C37 C36 1_555 1_555
H23 C37 1_555 1_555
C38 C33 1_555 1_555
H24 C38 1_555 1_555
C39 C7 1_555 1_555
H25 C39 1_555 1_555
H26 C39 1_555 1_555
H27 C39 1_555 1_555
C40 C7 1_555 1_555
H28 C40 1_555 1_555
H29 C40 1_555 1_555
H30 C40 1_555 1_555
N1 C1 1_555 1_555
N2 C21 1_555 1_555
O1 C20 1_555 1_555
C5 C6 1_555 1_555
C12 C13 1_555 1_555
C13 N1 1_555 1_555
C14 N1 1_555 1_555
C18 C19 1_555 1_555
C23 C24 1_555 1_555
C25 C26 1_555 1_555
C31 C32 1_555 1_555
C32 N2 1_555 1_555
C33 N2 1_555 1_555
C37 C38 1_555 1_555

#END
