
#######################################################################
#
#                 Cambridge Crystallographic Data Centre
#                                CCDC 
#
#######################################################################
#
# If this CIF has been generated from an entry in the Cambridge 
# Structural Database, then it will include bibliographic, chemical, 
# crystal, experimental, refinement or atomic coordinate data resulting 
# from the CCDC's data processing and validation procedures.
#
#######################################################################

data_WEJBAP
_chemical_formula_moiety         'C23 H35 N1 O4'
_chemical_name_systematic        18-Deoxy-13\b,14-dihydrolycoctam
_symmetry_cell_setting           monoclinic
_symmetry_space_group_name_H-M   'P 21'
_symmetry_Int_Tables_number      4
_space_group_name_Hall           'P 2yb'
loop_
_symmetry_equiv_pos_site_id
_symmetry_equiv_pos_as_xyz
1 x,y,z
2 -x,1/2+y,-z
_cell_length_a                   9.675(5)
_cell_length_b                   10.401(6)
_cell_length_c                   11.063(7)
_cell_angle_alpha                90
_cell_angle_beta                 110.86(3)
_cell_angle_gamma                90
_cell_volume                     1040.3
_exptl_crystal_colour            colorless
_exptl_crystal_description       needle
_chemical_melting_point          '484-486 K'
_cell_formula_units_Z            2
loop_
_atom_site_label
_atom_site_type_symbol
_atom_site_fract_x
_atom_site_fract_y
_atom_site_fract_z
O1 O 0.7998(3) 0.2269(3) 0.3992(3)
O2 O 0.5504(3) 0.0570(3) -0.0709(2)
O3 O 0.2990(3) -0.1443(3) 0.2343(3)
O4 O 0.5389(3) -0.3278(2) 0.3259(3)
H1 H 0.5147 -0.3577 0.2527
N1 N 0.6941(3) -0.0023(3) 0.1308(3)
C1 C 0.6472(4) 0.2025(3) 0.3249(4)
H2 H 0.5891 0.2351 0.3726
C2 C 0.6044(4) 0.2709(4) 0.1956(4)
H3 H 0.6753 0.2512 0.1558
H4 H 0.6040 0.3619 0.2101
C3 C 0.4533(4) 0.2288(4) 0.1045(4)
H5 H 0.4316 0.2656 0.0201
H6 H 0.3810 0.2571 0.1397
C4 C 0.4413(4) 0.0809(4) 0.0909(3)
C5 C 0.4646(4) 0.0220(4) 0.2231(3)
H7 H 0.3957 0.0640 0.2546
C6 C 0.4379(4) -0.1243(4) 0.2183(4)
H8 H 0.4322 -0.1555 0.1350
C7 C 0.5658(4) -0.1939(4) 0.3221(3)
C8 C 0.7075(4) -0.1644(4) 0.2980(3)
C9 C 0.5828(4) -0.1356(4) 0.4537(4)
H9 H 0.4882 -0.1403 0.4633
C10 C 0.6290(4) 0.0078(4) 0.4550(3)
H10 H 0.5632 0.0583 0.4833
C11 C 0.6205(4) 0.0550(4) 0.3196(3)
C12 C 0.7788(4) 0.0156(4) 0.5672(4)
H11 H 0.7912 0.0996 0.6055
H12 H 0.8556 0.0001 0.5330
C13 C 0.7708(5) -0.0860(5) 0.6598(4)
H13 H 0.7069 -0.0563 0.7034
C14 C 0.6988(5) -0.1980(4) 0.5721(4)
H14 H 0.7671 -0.2448 0.5435
H15 H 0.6511 -0.2561 0.6122
C15 C 0.8104(4) -0.2519(4) 0.3088(4)
H16 H 0.8991 -0.2304 0.2931
H17 H 0.7948 -0.3384 0.3316
C16 C 0.9141(5) -0.1143(5) 0.7692(4)
H18 H 0.8982 -0.1814 0.8224
H19 H 0.9882 -0.1410 0.7353
H20 H 0.9467 -0.0379 0.8201
C17 C 0.7249(4) -0.0230(3) 0.2719(3)
H21 H 0.8251 0.0027 0.3188
C18 C 0.2909(4) 0.0477(5) -0.0095(4)
H22 H 0.2827 -0.0440 -0.0193
H23 H 0.2132 0.0793 0.0175
H24 H 0.2825 0.0863 -0.0906
C19 C 0.5656(4) 0.0415(4) 0.0441(3)
C20 C 0.8143(4) -0.0370(4) 0.0855(4)
H25 H 0.7800 -0.0277 -0.0069
H26 H 0.8414 -0.1249 0.1082
C21 C 0.9517(5) 0.0440(5) 0.1429(5)
H27 H 1.0259 0.0163 0.1096
H28 H 0.9275 0.1324 0.1202
H29 H 0.9889 0.0352 0.2354
C22 C 0.8241(5) 0.3500(5) 0.4584(5)
H30 H 0.9276 0.3627 0.5058
H31 H 0.7883 0.4170 0.3952
H32 H 0.7710 0.3523 0.5169
C23 C 0.2121(4) -0.2467(5) 0.1608(5)
H33 H 0.1220 -0.2545 0.1781
H34 H 0.1891 -0.2315 0.0702
H35 H 0.2681 -0.3247 0.1855
loop_
_geom_bond_atom_site_label_1
_geom_bond_atom_site_label_2
_geom_bond_site_symmetry_1
_geom_bond_site_symmetry_2
O1 C1 1_555 1_555
O2 C19 1_555 1_555
O3 C6 1_555 1_555
O4 H1 1_555 1_555
N1 C17 1_555 1_555
C1 H2 1_555 1_555
C2 C1 1_555 1_555
H3 C2 1_555 1_555
H4 C2 1_555 1_555
C3 C2 1_555 1_555
H5 C3 1_555 1_555
H6 C3 1_555 1_555
C4 C3 1_555 1_555
C5 C4 1_555 1_555
H7 C5 1_555 1_555
C6 C5 1_555 1_555
H8 C6 1_555 1_555
C7 O4 1_555 1_555
C8 C7 1_555 1_555
C9 C7 1_555 1_555
H9 C9 1_555 1_555
C10 C9 1_555 1_555
H10 C10 1_555 1_555
C11 C1 1_555 1_555
C12 C10 1_555 1_555
H11 C12 1_555 1_555
H12 C12 1_555 1_555
C13 C12 1_555 1_555
H13 C13 1_555 1_555
C14 C9 1_555 1_555
H14 C14 1_555 1_555
H15 C14 1_555 1_555
C15 C8 1_555 1_555
H16 C15 1_555 1_555
H17 C15 1_555 1_555
C16 C13 1_555 1_555
H18 C16 1_555 1_555
H19 C16 1_555 1_555
H20 C16 1_555 1_555
C17 C8 1_555 1_555
H21 C17 1_555 1_555
C18 C4 1_555 1_555
H22 C18 1_555 1_555
H23 C18 1_555 1_555
H24 C18 1_555 1_555
C19 N1 1_555 1_555
C20 N1 1_555 1_555
H25 C20 1_555 1_555
H26 C20 1_555 1_555
C21 C20 1_555 1_555
H27 C21 1_555 1_555
H28 C21 1_555 1_555
H29 C21 1_555 1_555
C22 O1 1_555 1_555
H30 C22 1_555 1_555
H31 C22 1_555 1_555
H32 C22 1_555 1_555
C23 O3 1_555 1_555
H33 C23 1_555 1_555
H34 C23 1_555 1_555
H35 C23 1_555 1_555
C4 C19 1_555 1_555
C5 C11 1_555 1_555
C6 C7 1_555 1_555
C10 C11 1_555 1_555
C11 C17 1_555 1_555
C13 C14 1_555 1_555

#END
