
#######################################################################
#
#                 Cambridge Crystallographic Data Centre
#                                CCDC 
#
#######################################################################
#
# If this CIF has been generated from an entry in the Cambridge 
# Structural Database, then it will include bibliographic, chemical, 
# crystal, experimental, refinement or atomic coordinate data resulting 
# from the CCDC's data processing and validation procedures.
#
#######################################################################

data_WEJCAQ
_chemical_formula_moiety         'C14 H10 Cl1 N1 O4'
_chemical_name_systematic        'Benzyl 4-chloro-3-nitrobenzoate'
_symmetry_cell_setting           triclinic
_symmetry_space_group_name_H-M   'P -1'
_symmetry_Int_Tables_number      2
_space_group_name_Hall           '-P 1'
loop_
_symmetry_equiv_pos_site_id
_symmetry_equiv_pos_as_xyz
1 x,y,z
2 -x,-y,-z
_cell_length_a                   7.3497(2)
_cell_length_b                   12.8535(3)
_cell_length_c                   14.5334(4)
_cell_angle_alpha                109.9760(10)
_cell_angle_beta                 94.0280(10)
_cell_angle_gamma                92.5510(10)
_cell_volume                     1283.73
_exptl_crystal_colour            colorless
_exptl_crystal_description       plate
_chemical_melting_point          '341-342 K'
_cell_formula_units_Z            4
_exptl_crystal_recrystallization_method ethanol
loop_
_atom_site_label
_atom_site_type_symbol
_atom_site_fract_x
_atom_site_fract_y
_atom_site_fract_z
C1 C 0.20850(18) -0.02977(12) 0.57315(10)
C2 C 0.18768(18) -0.10177(12) 0.47587(10)
C3 C 0.23793(19) -0.06369(12) 0.40231(10)
N1 N 0.22188(17) -0.14479(10) 0.30173(9)
O1 O 0.08141(16) -0.20654(9) 0.27475(8)
O2 O 0.35007(16) -0.14814(10) 0.25163(8)
C4 C 0.30567(19) 0.04618(12) 0.42329(11)
Cl1 Cl 0.36433(5) 0.09830(3) 0.33396(3)
C5 C 0.32132(19) 0.11771(12) 0.52020(11)
C6 C 0.27419(19) 0.08017(12) 0.59466(11)
O3 O 0.12839(15) -0.17244(9) 0.63697(8)
C7 C 0.17174(19) -0.07574(12) 0.65225(10)
O4 O 0.19908(14) 0.00275(8) 0.74127(7)
C8 C 0.1990(2) -0.03537(14) 0.82551(11)
C9 C 0.0105(2) -0.05133(12) 0.85412(10)
C10 C -0.0931(2) 0.03917(13) 0.89158(11)
C11 C -0.2667(2) 0.02392(14) 0.91910(12)
C12 C -0.3377(2) -0.08070(14) 0.91071(11)
C13 C -0.2332(2) -0.17128(14) 0.87527(12)
C14 C -0.0605(2) -0.15640(13) 0.84648(11)
H1 H 0.1395 -0.1762 0.4602
H2 H 0.3647 0.1930 0.5356
H3 H 0.2867 0.1297 0.6608
H4 H 0.2729 0.0196 0.8823
H5 H 0.2577 -0.1065 0.8092
H6 H -0.0451 0.1115 0.8984
H7 H -0.3373 0.0860 0.9439
H8 H -0.4570 -0.0907 0.9290
H9 H -0.2799 -0.2431 0.8708
H10 H 0.0097 -0.2186 0.8213
C15 C 0.70667(19) 0.47155(12) 0.56947(11)
C16 C 0.68892(19) 0.40492(12) 0.47103(11)
C17 C 0.73954(19) 0.44869(12) 0.40101(11)
N2 N 0.71952(18) 0.37312(11) 0.29804(9)
O5 O 0.59118(16) 0.30233(9) 0.27348(8)
O6 O 0.83375(18) 0.38417(10) 0.24384(9)
C18 C 0.80848(19) 0.55909(13) 0.42780(11)
Cl2 Cl 0.87071(5) 0.62020(3) 0.34451(3)
C19 C 0.8237(2) 0.62549(13) 0.52649(11)
C20 C 0.77352(19) 0.58262(12) 0.59712(11)
O7 O 0.66065(16) 0.49559(9) 0.73335(8)
C21 C 0.65568(19) 0.42055(12) 0.64309(11)
O8 O 0.61447(15) 0.32259(9) 0.62264(8)
C22 C 0.6180(3) 0.45075(13) 0.81019(11)
C23 C 0.6432(2) 0.54489(13) 0.90611(11)
C24 C 0.8148(3) 0.57419(15) 0.95776(14)
C25 C 0.8381(4) 0.65914(18) 1.04780(15)
C26 C 0.6928(5) 0.71619(17) 1.08681(15)
C27 C 0.5219(4) 0.68898(16) 1.03605(17)
C28 C 0.4956(3) 0.60289(15) 0.94502(14)
H11 H 0.6423 0.3297 0.4518
H12 H 0.8690 0.7009 0.5456
H13 H 0.7844 0.6286 0.6644
H14 H 0.7007 0.3923 0.8111
H15 H 0.4903 0.4179 0.7978
H16 H 0.9168 0.5356 0.9310
H17 H 0.9558 0.6780 1.0828
H18 H 0.7097 0.7745 1.1488
H19 H 0.4212 0.7290 1.0631
H20 H 0.3777 0.5843 0.9102
loop_
_geom_bond_atom_site_label_1
_geom_bond_atom_site_label_2
_geom_bond_site_symmetry_1
_geom_bond_site_symmetry_2
C1 C2 1_555 1_555
C2 C3 1_555 1_555
C3 N1 1_555 1_555
N1 O1 1_555 1_555
O2 N1 1_555 1_555
C4 C3 1_555 1_555
Cl1 C4 1_555 1_555
C5 C4 1_555 1_555
C6 C1 1_555 1_555
O3 C7 1_555 1_555
C7 C1 1_555 1_555
O4 C7 1_555 1_555
C8 O4 1_555 1_555
C9 C8 1_555 1_555
C10 C9 1_555 1_555
C11 C10 1_555 1_555
C12 C11 1_555 1_555
C13 C12 1_555 1_555
C14 C9 1_555 1_555
C15 C16 1_555 1_555
C16 C17 1_555 1_555
C17 N2 1_555 1_555
N2 O5 1_555 1_555
O6 N2 1_555 1_555
C18 C17 1_555 1_555
Cl2 C18 1_555 1_555
C19 C18 1_555 1_555
C20 C15 1_555 1_555
O7 C21 1_555 1_555
C21 C15 1_555 1_555
O8 C21 1_555 1_555
C22 O7 1_555 1_555
C23 C22 1_555 1_555
C24 C23 1_555 1_555
C25 C24 1_555 1_555
C26 C25 1_555 1_555
C27 C26 1_555 1_555
C28 C23 1_555 1_555
H1 C2 1_555 1_555
H2 C5 1_555 1_555
H3 C6 1_555 1_555
H4 C8 1_555 1_555
H5 C8 1_555 1_555
H6 C10 1_555 1_555
H7 C11 1_555 1_555
H8 C12 1_555 1_555
H9 C13 1_555 1_555
H10 C14 1_555 1_555
H11 C16 1_555 1_555
H12 C19 1_555 1_555
H13 C20 1_555 1_555
H14 C22 1_555 1_555
H15 C22 1_555 1_555
H16 C24 1_555 1_555
H17 C25 1_555 1_555
H18 C26 1_555 1_555
H19 C27 1_555 1_555
H20 C28 1_555 1_555
C5 C6 1_555 1_555
C13 C14 1_555 1_555
C19 C20 1_555 1_555
C27 C28 1_555 1_555

#END
