
#######################################################################
#
#                 Cambridge Crystallographic Data Centre
#                                CCDC 
#
#######################################################################
#
# If this CIF has been generated from an entry in the Cambridge 
# Structural Database, then it will include bibliographic, chemical, 
# crystal, experimental, refinement or atomic coordinate data resulting 
# from the CCDC's data processing and validation procedures.
#
#######################################################################

data_WEJDOH
_chemical_formula_moiety         'C68 H8,2(C1 S2)'
_chemical_name_systematic        
'(1,2-phenylene-dimethyl)-C60fullerene carbon disulfide solvate'
_symmetry_cell_setting           monoclinic
_symmetry_space_group_name_H-M   'P 21/c'
_symmetry_Int_Tables_number      14
_space_group_name_Hall           '-P 2ybc'
loop_
_symmetry_equiv_pos_site_id
_symmetry_equiv_pos_as_xyz
1 x,y,z
2 -x,1/2+y,1/2-z
3 -x,-y,-z
4 x,1/2-y,1/2+z
_cell_length_a                   16.130(3)
_cell_length_b                   10.2406(18)
_cell_length_c                   23.601(4)
_cell_angle_alpha                90
_cell_angle_beta                 102.039(3)
_cell_angle_gamma                90
_cell_volume                     3812.69
_exptl_crystal_colour            black
_exptl_crystal_description       block
_cell_formula_units_Z            4
loop_
_atom_site_label
_atom_site_type_symbol
_atom_site_fract_x
_atom_site_fract_y
_atom_site_fract_z
S1 S 0.13315(11) 0.42621(16) 0.13425(8)
S2 S 0.30451(13) 0.4002(3) 0.09790(9)
C1 C 0.2193(4) 0.4140(6) 0.1157(2)
S3 S 0.44713(13) 0.8839(2) 0.07878(8)
S4 S 0.35299(19) 1.1140(2) 0.01241(11)
C2 C 0.4000(4) 0.9984(6) 0.0461(3)
C3 C 0.2861(3) 0.9217(5) 0.1674(2)
C4 C 0.0788(3) 0.9419(5) 0.2093(2)
C5 C 0.1296(3) 1.1480(5) 0.2416(2)
C6 C 0.1575(3) 0.6287(5) 0.2602(2)
C7 C 0.0589(3) 1.0172(5) 0.3052(2)
C8 C 0.0748(3) 0.8146(5) 0.2269(2)
C9 C 0.1719(3) 1.2216(5) 0.2892(2)
C10 C 0.0631(3) 0.7842(5) 0.2843(2)
C11 C 0.2253(4) 0.7772(6) 0.4428(2)
C12 C 0.1715(3) 1.1098(5) 0.1966(2)
C13 C 0.2836(4) 0.6814(6) 0.4283(2)
C14 C 0.2387(4) 0.5786(5) 0.2755(2)
C15 C 0.1582(4) 1.1910(5) 0.3466(2)
C16 C 0.1035(3) 1.0916(5) 0.3544(2)
C17 C 0.3146(3) 1.0434(5) 0.1859(2)
C18 C 0.0727(3) 1.0445(5) 0.2499(2)
C19 C 0.3012(4) 1.2443(5) 0.3542(3)
C20 C 0.2044(4) 1.0157(6) 0.4416(2)
C21 C 0.0544(3) 0.8841(6) 0.3227(2)
C22 C 0.1449(4) 0.7628(6) 0.4030(2)
C23 C 0.2544(4) 0.9020(6) 0.4622(2)
C24 C 0.1265(4) 1.0018(6) 0.4028(2)
C25 C 0.1534(4) 0.6591(5) 0.3632(2)
C26 C 0.2390(4) 0.6079(5) 0.3785(3)
C27 C 0.1338(3) 0.7170(5) 0.2117(2)
C28 C 0.1929(3) 0.8842(5) 0.1484(2)
C29 C 0.0964(3) 0.8745(6) 0.3837(2)
C30 C 0.0507(4) 0.7174(6) 0.0286(2)
C31 C 0.4369(3) 0.7329(6) 0.2756(3)
C32 C 0.3004(4) 1.2135(5) 0.2504(3)
C33 C -0.0623(4) 0.9040(6) 0.0536(2)
C34 C 0.1279(3) 0.9899(5) 0.1643(2)
C35 C 0.3357(4) 0.8091(6) 0.1888(2)
C36 C 0.2779(3) 0.7060(5) 0.1969(2)
C37 C 0.4821(3) 0.8061(6) 0.3249(3)
C38 C 0.2617(4) 1.1190(6) 0.4334(2)
C39 C 0.3429(4) 0.9339(6) 0.4668(2)
C40 C 0.3685(4) 0.7138(6) 0.4328(3)
C41 C 0.3478(4) 1.0711(6) 0.4488(2)
C42 C 0.3862(4) 1.1634(6) 0.2659(3)
C43 C 0.3835(4) 1.1960(5) 0.3689(3)
C44 C 0.3699(4) 0.6032(5) 0.3408(3)
C45 C 0.0638(4) 1.0369(6) 0.1082(2)
C46 C 0.3944(4) 1.0584(6) 0.2261(3)
C47 C 0.2813(4) 0.5685(5) 0.3356(3)
C48 C 0.4070(3) 1.1076(6) 0.4172(2)
C49 C 0.1142(3) 0.6700(5) 0.3044(2)
C50 C 0.1931(3) 0.7535(5) 0.1805(2)
C51 C 0.0250(4) 0.9213(6) 0.0731(2)
C52 C 0.3991(3) 0.8438(6) 0.4520(2)
C53 C 0.3013(4) 0.6179(5) 0.2427(2)
C54 C 0.4867(3) 0.9415(7) 0.3067(3)
C55 C 0.2391(4) 1.2060(5) 0.3870(2)
C56 C 0.3824(4) 0.6326(6) 0.2831(3)
C57 C 0.2551(4) 1.1410(5) 0.2011(2)
C58 C 0.4127(4) 0.6733(6) 0.3877(3)
C59 C 0.1734(4) 0.8577(6) 0.0815(2)
C60 C 0.2589(4) 1.2535(5) 0.2936(3)
C61 C 0.4785(3) 1.0417(6) 0.3446(3)
C62 C 0.4443(3) 0.9499(7) 0.2461(3)
C63 C 0.4139(3) 0.8224(6) 0.2266(3)
C64 C 0.4661(3) 1.0112(6) 0.4027(3)
C65 C 0.4700(3) 0.7774(6) 0.3797(3)
C66 C 0.4271(4) 1.1550(6) 0.3239(3)
C67 C -0.0917(4) 0.7927(7) 0.0217(2)
C68 C 0.4623(3) 0.8830(6) 0.4194(3)
C69 C 0.0816(4) 0.8290(6) 0.0594(2)
C70 C -0.0357(4) 0.7001(7) 0.0098(2)
H1 H -0.053(3) 0.614(5) -0.013(2)
H2 H 0.188(4) 0.937(6) 0.064(3)
H3 H 0.099(3) 1.086(5) 0.081(2)
H4 H 0.206(3) 0.777(5) 0.072(2)
H5 H 0.089(4) 0.642(7) 0.023(3)
H6 H 0.019(4) 1.100(5) 0.120(2)
H7 H -0.100(4) 0.967(6) 0.061(3)
H8 H -0.156(5) 0.779(8) 0.013(3)
loop_
_geom_bond_atom_site_label_1
_geom_bond_atom_site_label_2
_geom_bond_site_symmetry_1
_geom_bond_site_symmetry_2
S1 C1 1_555 1_555
S2 C1 1_555 1_555
S3 C2 1_555 1_555
S4 C2 1_555 1_555
C3 C17 1_555 1_555
C4 C8 1_555 1_555
C5 C9 1_555 1_555
C6 C14 1_555 1_555
C7 C16 1_555 1_555
C8 C10 1_555 1_555
C9 C15 1_555 1_555
C10 C21 1_555 1_555
C11 C13 1_555 1_555
C12 C5 1_555 1_555
C13 C26 1_555 1_555
C14 C47 1_555 1_555
C15 C16 1_555 1_555
C16 C24 1_555 1_555
C17 C46 1_555 1_555
C18 C4 1_555 1_555
C19 C43 1_555 1_555
C20 C23 1_555 1_555
C21 C7 1_555 1_555
C22 C11 1_555 1_555
C23 C11 1_555 1_555
C24 C20 1_555 1_555
C25 C22 1_555 1_555
C26 C25 1_555 1_555
C27 C6 1_555 1_555
C28 C3 1_555 1_555
C29 C21 1_555 1_555
C30 C69 1_555 1_555
C31 C37 1_555 1_555
C32 C42 1_555 1_555
C33 C51 1_555 1_555
C34 C4 1_555 1_555
C35 C3 1_555 1_555
C36 C35 1_555 1_555
C37 C54 1_555 1_555
C38 C20 1_555 1_555
C39 C23 1_555 1_555
C40 C13 1_555 1_555
C41 C38 1_555 1_555
C42 C46 1_555 1_555
C43 C48 1_555 1_555
C44 C47 1_555 1_555
C45 C34 1_555 1_555
C46 C62 1_555 1_555
C47 C26 1_555 1_555
C48 C41 1_555 1_555
C49 C6 1_555 1_555
C50 C27 1_555 1_555
C51 C45 1_555 1_555
C52 C39 1_555 1_555
C53 C14 1_555 1_555
C54 C61 1_555 1_555
C55 C15 1_555 1_555
C56 C31 1_555 1_555
C57 C12 1_555 1_555
C58 C40 1_555 1_555
C59 C28 1_555 1_555
C60 C9 1_555 1_555
C61 C64 1_555 1_555
C62 C54 1_555 1_555
C63 C31 1_555 1_555
C64 C48 1_555 1_555
C65 C37 1_555 1_555
C66 C42 1_555 1_555
C67 C33 1_555 1_555
C68 C52 1_555 1_555
C69 C51 1_555 1_555
C70 C30 1_555 1_555
H1 C70 1_555 1_555
H2 C59 1_555 1_555
H3 C45 1_555 1_555
H4 C59 1_555 1_555
H5 C30 1_555 1_555
H6 C45 1_555 1_555
H7 C33 1_555 1_555
H8 C67 1_555 1_555
C5 C18 1_555 1_555
C7 C18 1_555 1_555
C8 C27 1_555 1_555
C10 C49 1_555 1_555
C12 C34 1_555 1_555
C17 C57 1_555 1_555
C19 C55 1_555 1_555
C19 C60 1_555 1_555
C22 C29 1_555 1_555
C24 C29 1_555 1_555
C25 C49 1_555 1_555
C28 C34 1_555 1_555
C28 C50 1_555 1_555
C32 C57 1_555 1_555
C32 C60 1_555 1_555
C35 C63 1_555 1_555
C36 C50 1_555 1_555
C36 C53 1_555 1_555
C38 C55 1_555 1_555
C39 C41 1_555 1_555
C40 C52 1_555 1_555
C43 C66 1_555 1_555
C44 C56 1_555 1_555
C44 C58 1_555 1_555
C53 C56 1_555 1_555
C58 C65 1_555 1_555
C59 C69 1_555 1_555
C61 C66 1_555 1_555
C62 C63 1_555 1_555
C64 C68 1_555 1_555
C65 C68 1_555 1_555
C67 C70 1_555 1_555

#END
