
#######################################################################
#
#                 Cambridge Crystallographic Data Centre
#                                CCDC 
#
#######################################################################
#
# If this CIF has been generated from an entry in the Cambridge 
# Structural Database, then it will include bibliographic, chemical, 
# crystal, experimental, refinement or atomic coordinate data resulting 
# from the CCDC's data processing and validation procedures.
#
#######################################################################

data_WEJGOI
_chemical_formula_moiety         'C12 H22 O2 S1'
_chemical_name_systematic        
'(1R,2R,4S,5S)-1,2,4,8,8-pentamethyl-3-thiabicyclo(3.2.1)octane 3,3-dioxide'
_symmetry_cell_setting           orthorhombic
_symmetry_space_group_name_H-M   'P 21 21 21'
_symmetry_Int_Tables_number      19
_space_group_name_Hall           'P 2ac 2ab'
loop_
_symmetry_equiv_pos_site_id
_symmetry_equiv_pos_as_xyz
1 x,y,z
2 1/2-x,-y,1/2+z
3 -x,1/2+y,1/2-z
4 1/2+x,1/2-y,-z
_cell_length_a                   7.9967(6)
_cell_length_b                   10.6591(8)
_cell_length_c                   14.5696(10)
_cell_angle_alpha                90
_cell_angle_beta                 90
_cell_angle_gamma                90
_cell_volume                     1241.88
_exptl_crystal_colour            colorless
_exptl_crystal_description       block
_chemical_melting_point          '374.2 K'
_cell_formula_units_Z            4
_exptl_crystal_recrystallization_method 'petroleum ether/chloroform'
loop_
_atom_site_label
_atom_site_type_symbol
_atom_site_fract_x
_atom_site_fract_y
_atom_site_fract_z
C1 C 0.2135(2) 0.47098(14) 0.54548(10)
C2 C 0.0917(2) 0.58297(14) 0.53401(10)
H1 H 0.1532 0.6583 0.5527
C3 C -0.0176(2) 0.50733(17) 0.71181(11)
H2 H 0.0358 0.5748 0.7469
C4 C 0.1153(2) 0.40750(15) 0.69377(11)
H3 H 0.1467 0.3685 0.7522
C5 C 0.0579(3) 0.30437(16) 0.62680(13)
H4 H 0.1052 0.2239 0.6440
H5 H -0.0630 0.2974 0.6269
C6 C 0.1211(3) 0.34441(15) 0.53148(12)
H6 H 0.0281 0.3547 0.4894
H7 H 0.1967 0.2818 0.5067
C7 C 0.2738(2) 0.45953(15) 0.64728(10)
C8 C 0.4132(3) 0.36038(19) 0.65725(13)
H8 H 0.5154 0.3926 0.6319
H9 H 0.3816 0.2855 0.6250
H10 H 0.4294 0.3413 0.7210
C9 C 0.3436(2) 0.58064(18) 0.68883(12)
H11 H 0.3648 0.5682 0.7530
H12 H 0.2637 0.6471 0.6811
H13 H 0.4459 0.6026 0.6584
C10 C 0.3572(2) 0.4894(2) 0.47655(12)
H14 H 0.3157 0.4781 0.4153
H15 H 0.4436 0.4291 0.4885
H16 H 0.4018 0.5726 0.4828
C11 C 0.0290(3) 0.6068(2) 0.43614(12)
H17 H 0.1201 0.6356 0.3987
H18 H -0.0572 0.6694 0.4373
H19 H -0.0150 0.5303 0.4111
C12 C -0.1667(2) 0.4612(2) 0.76782(13)
H20 H -0.2177 0.3913 0.7372
H21 H -0.2469 0.5277 0.7740
H22 H -0.1294 0.4356 0.8276
O1 O -0.1465(2) 0.70070(15) 0.62453(12)
O2 O -0.21053(16) 0.49101(16) 0.56484(9)
S1 S -0.09118(6) 0.57445(4) 0.60622(3)
loop_
_geom_bond_atom_site_label_1
_geom_bond_atom_site_label_2
_geom_bond_site_symmetry_1
_geom_bond_site_symmetry_2
C1 C2 1_555 1_555
C2 H1 1_555 1_555
C3 H2 1_555 1_555
C4 C3 1_555 1_555
H3 C4 1_555 1_555
C5 C4 1_555 1_555
H4 C5 1_555 1_555
H5 C5 1_555 1_555
C6 C1 1_555 1_555
H6 C6 1_555 1_555
H7 C6 1_555 1_555
C7 C1 1_555 1_555
C8 C7 1_555 1_555
H8 C8 1_555 1_555
H9 C8 1_555 1_555
H10 C8 1_555 1_555
C9 C7 1_555 1_555
H11 C9 1_555 1_555
H12 C9 1_555 1_555
H13 C9 1_555 1_555
C10 C1 1_555 1_555
H14 C10 1_555 1_555
H15 C10 1_555 1_555
H16 C10 1_555 1_555
C11 C2 1_555 1_555
H17 C11 1_555 1_555
H18 C11 1_555 1_555
H19 C11 1_555 1_555
C12 C3 1_555 1_555
H20 C12 1_555 1_555
H21 C12 1_555 1_555
H22 C12 1_555 1_555
O1 S1 1_555 1_555
O2 S1 1_555 1_555
S1 C2 1_555 1_555
C3 S1 1_555 1_555
C4 C7 1_555 1_555
C5 C6 1_555 1_555

#END
