
#######################################################################
#
#                 Cambridge Crystallographic Data Centre
#                                CCDC 
#
#######################################################################
#
# If this CIF has been generated from an entry in the Cambridge 
# Structural Database, then it will include bibliographic, chemical, 
# crystal, experimental, refinement or atomic coordinate data resulting 
# from the CCDC's data processing and validation procedures.
#
#######################################################################

data_WEJSEM
_chemical_formula_moiety         'C4 H15 N3 2+,2(C14 H12 B1 O4 1-)'
_chemical_name_systematic        
"2,2'-azanediylbis(ethan-1-ammonium) bis(bis{2-[(oxy)methyl]phenolato}borate)"
_symmetry_cell_setting           monoclinic
_symmetry_space_group_name_H-M   'C 2/c'
_symmetry_Int_Tables_number      15
_space_group_name_Hall           '-C 2yn'
loop_
_symmetry_equiv_pos_site_id
_symmetry_equiv_pos_as_xyz
1 x,y,z
2 -x,y,1/2-z
3 1/2+x,1/2+y,z
4 1/2-x,1/2+y,1/2-z
5 -x,-y,-z
6 x,-y,1/2+z
7 1/2-x,1/2-y,-z
8 1/2+x,1/2-y,1/2+z
_cell_length_a                   23.5997(16)
_cell_length_b                   16.1185(11)
_cell_length_c                   17.0001(13)
_cell_angle_alpha                90
_cell_angle_beta                 98.083(2)
_cell_angle_gamma                90
_cell_volume                     6402.45
_exptl_crystal_description       block
_cell_formula_units_Z            8
loop_
_atom_site_label
_atom_site_type_symbol
_atom_site_fract_x
_atom_site_fract_y
_atom_site_fract_z
B1 B 0.25388(17) 0.1002(2) 0.5516(2)
C1 C 0.15921(14) 0.15174(19) 0.57006(18)
C2 C 0.11554(15) 0.2086(2) 0.54974(19)
H1 H 0.1221 0.2568 0.5201
C3 C 0.06259(16) 0.1953(2) 0.5726(2)
H2 H 0.0326 0.2340 0.5578
C4 C 0.05256(17) 0.1269(3) 0.6165(2)
H3 H 0.0160 0.1183 0.6324
C5 C 0.09609(16) 0.0706(2) 0.6373(2)
H4 H 0.0891 0.0231 0.6676
C6 C 0.14994(14) 0.08200(19) 0.61492(19)
C7 C 0.19961(15) 0.0243(2) 0.6364(2)
H5 H 0.2237 0.0444 0.6850
H6 H 0.1855 -0.0318 0.6471
C8 C 0.32395(13) 0.07911(18) 0.4575(2)
C9 C 0.33598(14) 0.07656(19) 0.3803(2)
H7 H 0.3058 0.0808 0.3371
C10 C 0.39214(16) 0.0677(2) 0.3658(3)
H8 H 0.4005 0.0660 0.3127
C11 C 0.43570(17) 0.0615(2) 0.4286(4)
H9 H 0.4741 0.0551 0.4188
C12 C 0.42370(16) 0.0644(2) 0.5053(3)
H10 H 0.4541 0.0605 0.5481
C13 C 0.36755(14) 0.07307(19) 0.5213(2)
C14 C 0.35244(15) 0.0776(2) 0.6040(2)
H11 H 0.3444 0.0212 0.6226
H12 H 0.3851 0.1006 0.6404
O1 O 0.21114(9) 0.16650(12) 0.54677(14)
O2 O 0.23233(9) 0.02079(12) 0.57291(14)
O3 O 0.26841(8) 0.08869(13) 0.46941(13)
O4 O 0.30333(9) 0.12897(13) 0.60522(14)
B2 B 0.22866(14) 0.2306(2) 0.1472(2)
C15 C 0.12502(13) 0.2258(2) 0.13520(18)
C16 C 0.07421(13) 0.1814(2) 0.1188(2)
H13 H 0.0751 0.1255 0.1013
C17 C 0.02326(16) 0.2170(3) 0.1274(3)
H14 H -0.0111 0.1859 0.1161
C18 C 0.02136(18) 0.2973(3) 0.1523(3)
H15 H -0.0142 0.3220 0.1589
C19 C 0.07172(17) 0.3429(3) 0.1680(2)
H16 H 0.0702 0.3990 0.1847
C20 C 0.12428(13) 0.3074(2) 0.15955(19)
C21 C 0.17943(14) 0.3547(2) 0.1773(2)
H17 H 0.1729 0.4135 0.1618
H18 H 0.1931 0.3528 0.2351
C22 C 0.32291(12) 0.19469(17) 0.11254(18)
C23 C 0.35667(13) 0.16820(18) 0.05667(19)
H19 H 0.3394 0.1516 0.0052
C24 C 0.41517(14) 0.1662(2) 0.0764(2)
H20 H 0.4384 0.1487 0.0381
C25 C 0.44042(14) 0.1894(3) 0.1515(2)
H21 H 0.4809 0.1879 0.1648
C26 C 0.40673(13) 0.2149(2) 0.2071(2)
H22 H 0.4244 0.2308 0.2586
C27 C 0.34739(12) 0.21762(18) 0.18921(18)
C28 C 0.30967(12) 0.24543(19) 0.24808(18)
H23 H 0.3264 0.2276 0.3021
H24 H 0.3072 0.3067 0.2478
O5 O 0.17468(8) 0.18588(13) 0.12821(13)
O6 O 0.22183(8) 0.32001(12) 0.13501(12)
O7 O 0.26525(8) 0.20026(13) 0.09001(11)
O8 O 0.25355(8) 0.21087(12) 0.22881(12)
C29 C 0.13681(12) 0.18278(17) 0.34219(18)
H25 H 0.1175 0.1946 0.3890
H26 H 0.1199 0.2196 0.2985
C30 C 0.12602(14) 0.09456(18) 0.31776(19)
H27 H 0.0851 0.0874 0.2963
H28 H 0.1490 0.0804 0.2752
C31 C 0.13009(14) -0.04774(18) 0.3666(2)
H29 H 0.1525 -0.0649 0.3243
H30 H 0.0890 -0.0552 0.3463
C32 C 0.14570(13) -0.10177(19) 0.4379(2)
H31 H 0.1264 -0.0808 0.4820
H32 H 0.1318 -0.1588 0.4252
N1 N 0.14106(10) 0.03861(14) 0.38514(15)
H33 H 0.1779 0.0459 0.4063
N2 N 0.19870(10) 0.20205(15) 0.36209(15)
H34 H 0.2156 0.2146 0.3193
H35 H 0.2136 0.1572 0.3890
H36 H 0.2001 0.2432 0.3981
N3 N 0.20818(11) -0.10403(16) 0.46379(15)
H37 H 0.2263 -0.1396 0.4350
H38 H 0.2125 -0.1167 0.5159
H39 H 0.2202 -0.0513 0.4607
loop_
_geom_bond_atom_site_label_1
_geom_bond_atom_site_label_2
_geom_bond_site_symmetry_1
_geom_bond_site_symmetry_2
B1 O1 1_555 1_555
C1 C2 1_555 1_555
C2 H1 1_555 1_555
C3 C2 1_555 1_555
H2 C3 1_555 1_555
C4 C3 1_555 1_555
H3 C4 1_555 1_555
C5 C4 1_555 1_555
H4 C5 1_555 1_555
C6 C1 1_555 1_555
C7 C6 1_555 1_555
H5 C7 1_555 1_555
H6 C7 1_555 1_555
C8 C9 1_555 1_555
C9 H7 1_555 1_555
C10 C9 1_555 1_555
H8 C10 1_555 1_555
C11 C10 1_555 1_555
H9 C11 1_555 1_555
C12 C11 1_555 1_555
H10 C12 1_555 1_555
C13 C8 1_555 1_555
C14 C13 1_555 1_555
H11 C14 1_555 1_555
H12 C14 1_555 1_555
O1 C1 1_555 1_555
O2 B1 1_555 1_555
O3 B1 1_555 1_555
O4 B1 1_555 1_555
B2 O5 1_555 1_555
C15 C16 1_555 1_555
C16 H13 1_555 1_555
C17 C16 1_555 1_555
H14 C17 1_555 1_555
C18 C17 1_555 1_555
H15 C18 1_555 1_555
C19 C18 1_555 1_555
H16 C19 1_555 1_555
C20 C15 1_555 1_555
C21 C20 1_555 1_555
H17 C21 1_555 1_555
H18 C21 1_555 1_555
C22 C23 1_555 1_555
C23 H19 1_555 1_555
C24 C23 1_555 1_555
H20 C24 1_555 1_555
C25 C24 1_555 1_555
H21 C25 1_555 1_555
C26 C25 1_555 1_555
H22 C26 1_555 1_555
C27 C22 1_555 1_555
C28 C27 1_555 1_555
H23 C28 1_555 1_555
H24 C28 1_555 1_555
O5 C15 1_555 1_555
O6 B2 1_555 1_555
O7 B2 1_555 1_555
O8 B2 1_555 1_555
C29 H25 1_555 1_555
H26 C29 1_555 1_555
C30 C29 1_555 1_555
H27 C30 1_555 1_555
H28 C30 1_555 1_555
C31 H29 1_555 1_555
H30 C31 1_555 1_555
C32 C31 1_555 1_555
H31 C32 1_555 1_555
H32 C32 1_555 1_555
N1 C30 1_555 1_555
H33 N1 1_555 1_555
N2 C29 1_555 1_555
H34 N2 1_555 1_555
H35 N2 1_555 1_555
H36 N2 1_555 1_555
N3 C32 1_555 1_555
H37 N3 1_555 1_555
H38 N3 1_555 1_555
H39 N3 1_555 1_555
C5 C6 1_555 1_555
C7 O2 1_555 1_555
C8 O3 1_555 1_555
C12 C13 1_555 1_555
C14 O4 1_555 1_555
C19 C20 1_555 1_555
C21 O6 1_555 1_555
C22 O7 1_555 1_555
C26 C27 1_555 1_555
C28 O8 1_555 1_555
C31 N1 1_555 1_555

#END
