
#######################################################################
#
#                 Cambridge Crystallographic Data Centre
#                                CCDC 
#
#######################################################################
#
# If this CIF has been generated from an entry in the Cambridge 
# Structural Database, then it will include bibliographic, chemical, 
# crystal, experimental, refinement or atomic coordinate data resulting 
# from the CCDC's data processing and validation procedures.
#
#######################################################################

data_WEJSAI
_chemical_formula_moiety         'C4 H15 N3 2+,2(C14 H10 B1 Cl2 O4 1-)'
_chemical_name_systematic        
"2,2'-azanediylbis(ethan-1-ammonium) bis(bis{4-chloro-2-[(oxy)methyl]phenolato}borate)"
_symmetry_cell_setting           monoclinic
_symmetry_space_group_name_H-M   'P 21/c'
_symmetry_Int_Tables_number      14
_space_group_name_Hall           '-P 2ybc'
loop_
_symmetry_equiv_pos_site_id
_symmetry_equiv_pos_as_xyz
1 x,y,z
2 -x,1/2+y,1/2-z
3 -x,-y,-z
4 x,1/2-y,1/2+z
_cell_length_a                   13.0127(9)
_cell_length_b                   16.2956(12)
_cell_length_c                   17.2220(13)
_cell_angle_alpha                90
_cell_angle_beta                 109.033(2)
_cell_angle_gamma                90
_cell_volume                     3452.27
_exptl_crystal_description       needle
_cell_formula_units_Z            4
loop_
_atom_site_label
_atom_site_type_symbol
_atom_site_fract_x
_atom_site_fract_y
_atom_site_fract_z
B1 B 0.4644(3) 0.5166(2) 0.1375(2)
C1 C 0.2709(3) 0.5193(2) 0.10817(19)
C2 C 0.1726(3) 0.5615(2) 0.0817(2)
H1 H 0.1687 0.6129 0.0548
C3 C 0.0805(3) 0.5300(3) 0.0941(2)
H2 H 0.0135 0.5589 0.0764
C4 C 0.0890(3) 0.4551(3) 0.1330(3)
C5 C 0.1845(3) 0.4117(2) 0.1573(2)
H3 H 0.1869 0.3595 0.1824
C6 C 0.2774(3) 0.4429(2) 0.1458(2)
C7 C 0.3832(3) 0.3975(2) 0.1742(2)
H4 H 0.4165 0.4039 0.2344
H5 H 0.3697 0.3383 0.1622
C8 C 0.6390(3) 0.56179(19) 0.1277(2)
C9 C 0.6998(3) 0.5888(2) 0.0790(2)
H6 H 0.6677 0.5919 0.0210
C10 C 0.8070(3) 0.6109(2) 0.1163(3)
H7 H 0.8497 0.6284 0.0839
C11 C 0.8516(3) 0.6075(2) 0.2000(3)
C12 C 0.7930(3) 0.5795(2) 0.2483(2)
H8 H 0.8260 0.5763 0.3062
C13 C 0.6859(3) 0.5560(2) 0.2121(2)
C14 C 0.6175(3) 0.5227(2) 0.2601(2)
H9 H 0.6226 0.4620 0.2622
H10 H 0.6448 0.5437 0.3172
Cl1 Cl -0.02487(10) 0.41490(9) 0.15217(8)
Cl2 Cl 0.98618(9) 0.63912(9) 0.24707(8)
O1 O 0.35920(17) 0.55544(13) 0.09737(13)
O2 O 0.45616(18) 0.42720(13) 0.13476(13)
O3 O 0.53411(18) 0.53938(13) 0.08954(13)
O4 O 0.50666(17) 0.54685(13) 0.22244(13)
B2 B 0.5161(3) 0.8517(2) 0.0385(2)
C15 C 0.3453(3) 0.9079(2) 0.0454(2)
C16 C 0.2649(3) 0.9672(2) 0.0225(2)
H11 H 0.2689 1.0093 -0.0145
C17 C 0.1792(3) 0.9658(3) 0.0527(3)
H12 H 0.1238 1.0064 0.0367
C18 C 0.1753(4) 0.9040(3) 0.1067(3)
C19 C 0.2523(4) 0.8432(2) 0.1275(2)
H13 H 0.2461 0.8001 0.1628
C20 C 0.3386(3) 0.8438(2) 0.0979(2)
C21 C 0.4251(3) 0.7788(2) 0.1193(2)
H14 H 0.4802 0.7920 0.1729
H15 H 0.3922 0.7252 0.1246
C22 C 0.6485(3) 0.8217(2) -0.0300(2)
C23 C 0.6742(3) 0.8103(2) -0.1011(2)
H16 H 0.6192 0.8157 -0.1530
C24 C 0.7794(4) 0.7910(2) -0.0971(3)
H17 H 0.7969 0.7827 -0.1459
C25 C 0.8584(4) 0.7841(3) -0.0214(3)
C26 C 0.8346(3) 0.7975(2) 0.0495(3)
H18 H 0.8906 0.7937 0.1011
C27 C 0.7294(3) 0.8164(2) 0.0463(2)
C28 C 0.7011(3) 0.8321(2) 0.1234(2)
H19 H 0.6868 0.7792 0.1463
H20 H 0.7632 0.8590 0.1650
Cl3 Cl 0.07296(12) 0.90503(9) 0.15160(10)
Cl4 Cl 0.99012(11) 0.75696(9) -0.01581(11)
O5 O 0.43151(19) 0.91459(13) 0.01789(14)
O6 O 0.4760(2) 0.77346(13) 0.05806(13)
O7 O 0.54386(19) 0.83928(14) -0.03668(14)
O8 O 0.60779(19) 0.88302(13) 0.10550(14)
C29 C 0.2720(3) 0.7626(2) 0.3714(2)
H21 H 0.2828 0.7255 0.4189
H22 H 0.1942 0.7605 0.3376
C30 C 0.3017(3) 0.8508(2) 0.4026(2)
H23 H 0.2856 0.8885 0.3551
H24 H 0.2561 0.8674 0.4361
C31 C 0.2902(3) 0.6636(2) 0.2719(2)
H25 H 0.3298 0.6573 0.2320
H26 H 0.2138 0.6769 0.2400
C32 C 0.2907(3) 0.5804(2) 0.3129(2)
H27 H 0.2622 0.5869 0.3592
H28 H 0.2423 0.5421 0.2727
N1 N 0.3360(2) 0.73428(17) 0.32351(19)
H29 H 0.3987 0.7165 0.3600
N2 N 0.4177(2) 0.85835(16) 0.45263(16)
H30 H 0.4477 0.8982 0.4309
H31 H 0.4531 0.8109 0.4524
H32 H 0.4250 0.8715 0.5049
N3 N 0.4019(2) 0.54543(16) 0.34364(16)
H33 H 0.4160 0.5223 0.3935
H34 H 0.4478 0.5868 0.3438
H35 H 0.4070 0.5094 0.3054
loop_
_geom_bond_atom_site_label_1
_geom_bond_atom_site_label_2
_geom_bond_site_symmetry_1
_geom_bond_site_symmetry_2
B1 O1 1_555 1_555
C1 C2 1_555 1_555
C2 H1 1_555 1_555
C3 C2 1_555 1_555
H2 C3 1_555 1_555
C4 C3 1_555 1_555
C5 C4 1_555 1_555
H3 C5 1_555 1_555
C6 C1 1_555 1_555
C7 C6 1_555 1_555
H4 C7 1_555 1_555
H5 C7 1_555 1_555
C8 C9 1_555 1_555
C9 H6 1_555 1_555
C10 C9 1_555 1_555
H7 C10 1_555 1_555
C11 C10 1_555 1_555
C12 C11 1_555 1_555
H8 C12 1_555 1_555
C13 C8 1_555 1_555
C14 C13 1_555 1_555
H9 C14 1_555 1_555
H10 C14 1_555 1_555
Cl1 C4 1_555 1_555
Cl2 C11 1_555 1_555
O1 C1 1_555 1_555
O2 B1 1_555 1_555
O3 B1 1_555 1_555
O4 B1 1_555 1_555
B2 O5 1_555 1_555
C15 C16 1_555 1_555
C16 H11 1_555 1_555
C17 C16 1_555 1_555
H12 C17 1_555 1_555
C18 C17 1_555 1_555
C19 C18 1_555 1_555
H13 C19 1_555 1_555
C20 C15 1_555 1_555
C21 C20 1_555 1_555
H14 C21 1_555 1_555
H15 C21 1_555 1_555
C22 C23 1_555 1_555
C23 H16 1_555 1_555
C24 C23 1_555 1_555
H17 C24 1_555 1_555
C25 C24 1_555 1_555
C26 C25 1_555 1_555
H18 C26 1_555 1_555
C27 C22 1_555 1_555
C28 C27 1_555 1_555
H19 C28 1_555 1_555
H20 C28 1_555 1_555
Cl3 C18 1_555 1_555
Cl4 C25 1_555 1_555
O5 C15 1_555 1_555
O6 B2 1_555 1_555
O7 B2 1_555 1_555
O8 B2 1_555 1_555
C29 H21 1_555 1_555
H22 C29 1_555 1_555
C30 C29 1_555 1_555
H23 C30 1_555 1_555
H24 C30 1_555 1_555
C31 H25 1_555 1_555
H26 C31 1_555 1_555
C32 C31 1_555 1_555
H27 C32 1_555 1_555
H28 C32 1_555 1_555
N1 C29 1_555 1_555
H29 N1 1_555 1_555
N2 C30 1_555 1_555
H30 N2 1_555 1_555
H31 N2 1_555 1_555
H32 N2 1_555 1_555
N3 C32 1_555 1_555
H33 N3 1_555 1_555
H34 N3 1_555 1_555
H35 N3 1_555 1_555
C5 C6 1_555 1_555
C7 O2 1_555 1_555
C8 O3 1_555 1_555
C12 C13 1_555 1_555
C14 O4 1_555 1_555
C19 C20 1_555 1_555
C21 O6 1_555 1_555
C22 O7 1_555 1_555
C26 C27 1_555 1_555
C28 O8 1_555 1_555
C31 N1 1_555 1_555

#END
