
#######################################################################
#
#                 Cambridge Crystallographic Data Centre
#                                CCDC 
#
#######################################################################
#
# If this CIF has been generated from an entry in the Cambridge 
# Structural Database, then it will include bibliographic, chemical, 
# crystal, experimental, refinement or atomic coordinate data resulting 
# from the CCDC's data processing and validation procedures.
#
#######################################################################

data_WEJXEQ
_chemical_formula_moiety         'C5 H3 N3 Se1'
_chemical_name_systematic        '[1,2,5]Selenadiazolo[3,4-b]pyridine'
_symmetry_cell_setting           monoclinic
_symmetry_space_group_name_H-M   'P 21/c'
_symmetry_Int_Tables_number      14
_space_group_name_Hall           '-P 2ybc'
loop_
_symmetry_equiv_pos_site_id
_symmetry_equiv_pos_as_xyz
1 x,y,z
2 -x,1/2+y,1/2-z
3 -x,-y,-z
4 x,1/2-y,1/2+z
_cell_length_a                   11.2836(8)
_cell_length_b                   8.3584(5)
_cell_length_c                   12.7110(8)
_cell_angle_alpha                90
_cell_angle_beta                 111.156(8)
_cell_angle_gamma                90
_cell_volume                     1118.01
_exptl_crystal_colour            'pale yellow'
_exptl_crystal_description       chunk
_cell_formula_units_Z            8
loop_
_atom_site_label
_atom_site_type_symbol
_atom_site_fract_x
_atom_site_fract_y
_atom_site_fract_z
Se1 Se 0.59937(5) 0.33132(7) 0.67223(4)
N1 N 0.4893(4) 0.1949(6) 0.6944(3)
N2 N 0.5440(4) 0.2994(6) 0.5229(3)
N3 N 0.3236(4) 0.0286(6) 0.5816(4)
C1 C 0.4184(5) 0.1374(6) 0.5941(4)
C2 C 0.2587(5) -0.0148(6) 0.4794(4)
H1 H 0.1926 -0.0903 0.4690
C3 C 0.2783(5) 0.0416(6) 0.3801(4)
H2 H 0.2241 0.0052 0.3079
C4 C 0.3733(5) 0.1463(7) 0.3882(4)
H3 H 0.3885 0.1834 0.3236
C5 C 0.4491(4) 0.1974(6) 0.4996(4)
Se2 Se 0.70875(5) 0.46389(7) 0.42954(4)
N4 N 0.8227(5) 0.5883(6) 0.4026(3)
N5 N 0.7669(4) 0.5049(6) 0.5779(3)
N6 N 0.9906(4) 0.7572(6) 0.5076(4)
C6 C 0.8942(5) 0.6523(6) 0.5001(4)
C7 C 1.0537(6) 0.8112(8) 0.6088(5)
H4 H 1.1198 0.8858 0.6165
C8 C 1.0319(5) 0.7678(7) 0.7083(5)
H5 H 1.0853 0.8099 0.7790
C9 C 0.9380(5) 0.6693(7) 0.7042(4)
H6 H 0.9213 0.6428 0.7702
C10 C 0.8631(5) 0.6049(6) 0.5966(4)
loop_
_geom_bond_atom_site_label_1
_geom_bond_atom_site_label_2
_geom_bond_site_symmetry_1
_geom_bond_site_symmetry_2
Se1 N1 1_555 1_555
N1 C1 1_555 1_555
N2 Se1 1_555 1_555
N3 C1 1_555 1_555
C1 C5 1_555 1_555
C2 N3 1_555 1_555
H1 C2 1_555 1_555
C3 C2 1_555 1_555
H2 C3 1_555 1_555
C4 C3 1_555 1_555
H3 C4 1_555 1_555
C5 N2 1_555 1_555
Se2 N4 1_555 1_555
N4 C6 1_555 1_555
N5 Se2 1_555 1_555
N6 C6 1_555 1_555
C6 C10 1_555 1_555
C7 N6 1_555 1_555
H4 C7 1_555 1_555
C8 C7 1_555 1_555
H5 C8 1_555 1_555
C9 C8 1_555 1_555
H6 C9 1_555 1_555
C10 N5 1_555 1_555
C4 C5 1_555 1_555
C9 C10 1_555 1_555

#END
