
#######################################################################
#
#                 Cambridge Crystallographic Data Centre
#                                CCDC 
#
#######################################################################
#
# If this CIF has been generated from an entry in the Cambridge 
# Structural Database, then it will include bibliographic, chemical, 
# crystal, experimental, refinement or atomic coordinate data resulting 
# from the CCDC's data processing and validation procedures.
#
#######################################################################

data_WEJZIX
_chemical_formula_moiety         'C20 H15 N1 O4'
_chemical_name_systematic        
3'-hydroxy-7-methoxy-7'-methylspiro[isoindole-1,2'-naphtho[1,8-bc]furan]-3(2H)-one
_symmetry_cell_setting           monoclinic
_symmetry_space_group_name_H-M   'P 21/c'
_symmetry_Int_Tables_number      14
_space_group_name_Hall           '-P 2ybc'
loop_
_symmetry_equiv_pos_site_id
_symmetry_equiv_pos_as_xyz
1 x,y,z
2 -x,1/2+y,1/2-z
3 -x,-y,-z
4 x,1/2-y,1/2+z
_cell_length_a                   12.3534(2)
_cell_length_b                   12.5563(2)
_cell_length_c                   20.7245(4)
_cell_angle_alpha                90
_cell_angle_beta                 98.7570(10)
_cell_angle_gamma                90
_cell_volume                     3177.17
_exptl_crystal_colour            colorless
_exptl_crystal_description       block
_cell_formula_units_Z            8
loop_
_atom_site_label
_atom_site_type_symbol
_atom_site_fract_x
_atom_site_fract_y
_atom_site_fract_z
O1 O 0.2913(3) 0.3794(3) 0.87384(16)
O2 O 0.3749(3) 0.1097(3) 0.75124(15)
H1 H 0.3392 0.1616 0.7333
O3 O 0.3211(3) 0.4335(3) 0.66419(16)
O4 O 0.1111(3) 0.1970(3) 0.85448(16)
N1 N 0.3537(4) 0.3756(3) 0.7710(2)
H2 H 0.4205 0.4011 0.7811
C1 C 0.0043(5) 0.2769(5) 0.6847(3)
H3 H -0.0598 0.2689 0.6533
C2 C 0.0075(5) 0.2321(4) 0.7454(3)
H4 H -0.0552 0.1953 0.7552
C3 C 0.1001(5) 0.2391(4) 0.7932(3)
C4 C 0.1887(4) 0.2949(4) 0.7767(2)
C5 C 0.2996(4) 0.3147(4) 0.8163(2)
C6 C 0.3495(4) 0.3322(4) 0.9281(2)
C7 C 0.3666(4) 0.3641(4) 0.9913(2)
H5 H 0.3391 0.4302 1.0040
C8 C 0.4275(4) 0.2944(5) 1.0384(2)
C9 C 0.4391(5) 0.3275(5) 1.1088(3)
H6 H 0.4785 0.2722 1.1363
H7 H 0.3662 0.3375 1.1212
H8 H 0.4800 0.3945 1.1149
C10 C 0.4730(4) 0.2007(4) 1.0208(2)
H9 H 0.5149 0.1576 1.0530
C11 C 0.4571(4) 0.1687(4) 0.9544(2)
C12 C 0.4961(4) 0.0757(4) 0.9246(2)
H10 H 0.5417 0.0262 0.9506
C13 C 0.4680(4) 0.0580(4) 0.8588(2)
H11 H 0.4944 -0.0047 0.8408
C14 C 0.4014(4) 0.1287(4) 0.8163(2)
C15 C 0.3658(4) 0.2192(4) 0.8437(2)
C16 C 0.2924(5) 0.3896(4) 0.7117(3)
C17 C 0.1838(5) 0.3396(4) 0.7158(3)
C18 C 0.0186(5) 0.1404(5) 0.8714(3)
H12 H -0.0454 0.1874 0.8661
H13 H 0.0347 0.1167 0.9169
H14 H 0.0033 0.0783 0.8428
C19 C 0.0916(5) 0.3330(4) 0.6682(3)
H15 H 0.0892 0.3655 0.6267
C20 C 0.3938(4) 0.2365(4) 0.9105(2)
O5 O 0.7448(3) 0.3941(3) 0.01788(15)
O6 O 0.9888(3) 0.3327(3) -0.00072(17)
O7 O 0.5927(3) 0.4269(3) -0.18615(17)
O8 O 0.7738(3) 0.1075(3) -0.10576(15)
H16 H 0.7524 0.0467 -0.1189
N2 N 0.6501(3) 0.3470(3) -0.0869(2)
H17 H 0.5854 0.3240 -0.0802
C21 C 0.6958(5) 0.2979(5) 0.2441(3)
H18 H 0.6174 0.2903 0.2459
H19 H 0.7182 0.3717 0.2540
H20 H 0.7374 0.2502 0.2761
C22 C 0.7181(5) 0.2692(4) 0.1763(3)
C23 C 0.7250(4) 0.3540(4) 0.1315(2)
H21 H 0.7187 0.4261 0.1443
C24 C 0.7406(4) 0.3289(4) 0.0703(2)
C25 C 0.7495(4) 0.3291(4) -0.0405(2)
C26 C 0.8343(4) 0.3759(4) -0.0770(2)
C27 C 0.9465(5) 0.3802(4) -0.0585(3)
C28 C 1.1051(4) 0.3356(5) 0.0180(3)
H22 H 1.1402 0.2972 -0.0144
H23 H 1.1247 0.3017 0.0608
H24 H 1.1301 0.4097 0.0204
C29 C 0.9573(5) 0.4799(4) -0.1565(3)
H25 H 1.0009 0.5161 -0.1835
C30 C 0.8456(5) 0.4759(4) -0.1753(3)
H26 H 0.8115 0.5084 -0.2146
C31 C 0.7853(4) 0.4225(4) -0.1346(2)
C32 C 0.6649(5) 0.4013(4) -0.1406(3)
C33 C 0.7506(4) 0.2223(4) 0.0520(2)
C34 C 0.7456(4) 0.1366(4) 0.0945(2)
C35 C 0.7281(4) 0.1633(4) 0.1583(2)
H27 H 0.7231 0.1084 0.1893
C36 C 0.7556(4) 0.0353(4) 0.0657(2)
H28 H 0.7555 -0.0273 0.0914
C37 C 0.7654(4) 0.0274(4) 0.0008(2)
H29 H 0.7718 -0.0416 -0.0171
C38 C 0.7664(4) 0.1168(4) -0.0410(2)
C39 C 0.7597(4) 0.2154(4) -0.0139(2)
C40 C 1.0082(5) 0.4327(4) -0.0992(3)
H30 H 1.0856 0.4364 -0.0879
loop_
_geom_bond_atom_site_label_1
_geom_bond_atom_site_label_2
_geom_bond_site_symmetry_1
_geom_bond_site_symmetry_2
O1 C5 1_555 1_555
O2 H1 1_555 1_555
O3 C16 1_555 1_555
O4 C3 1_555 1_555
N1 H2 1_555 1_555
C1 H3 1_555 1_555
C2 C1 1_555 1_555
H4 C2 1_555 1_555
C3 C2 1_555 1_555
C4 C3 1_555 1_555
C5 N1 1_555 1_555
C6 O1 1_555 1_555
C7 C6 1_555 1_555
H5 C7 1_555 1_555
C8 C7 1_555 1_555
C9 C8 1_555 1_555
H6 C9 1_555 1_555
H7 C9 1_555 1_555
H8 C9 1_555 1_555
C10 C8 1_555 1_555
H9 C10 1_555 1_555
C11 C10 1_555 1_555
C12 C11 1_555 1_555
H10 C12 1_555 1_555
C13 C12 1_555 1_555
H11 C13 1_555 1_555
C14 O2 1_555 1_555
C15 C5 1_555 1_555
C16 N1 1_555 1_555
C17 C4 1_555 1_555
C18 O4 1_555 1_555
H12 C18 1_555 1_555
H13 C18 1_555 1_555
H14 C18 1_555 1_555
C19 C1 1_555 1_555
H15 C19 1_555 1_555
C20 C6 1_555 1_555
O5 C24 1_555 1_555
O6 C27 1_555 1_555
O7 C32 1_555 1_555
O8 H16 1_555 1_555
N2 H17 1_555 1_555
C21 H18 1_555 1_555
H19 C21 1_555 1_555
H20 C21 1_555 1_555
C22 C21 1_555 1_555
C23 C22 1_555 1_555
H21 C23 1_555 1_555
C24 C23 1_555 1_555
C25 O5 1_555 1_555
C26 C25 1_555 1_555
C27 C26 1_555 1_555
C28 O6 1_555 1_555
H22 C28 1_555 1_555
H23 C28 1_555 1_555
H24 C28 1_555 1_555
C29 H25 1_555 1_555
C30 C29 1_555 1_555
H26 C30 1_555 1_555
C31 C26 1_555 1_555
C32 N2 1_555 1_555
C33 C24 1_555 1_555
C34 C33 1_555 1_555
C35 C22 1_555 1_555
H27 C35 1_555 1_555
C36 C34 1_555 1_555
H28 C36 1_555 1_555
C37 C36 1_555 1_555
H29 C37 1_555 1_555
C38 O8 1_555 1_555
C39 C25 1_555 1_555
C40 C27 1_555 1_555
H30 C40 1_555 1_555
C4 C5 1_555 1_555
C11 C20 1_555 1_555
C13 C14 1_555 1_555
C14 C15 1_555 1_555
C15 C20 1_555 1_555
C16 C17 1_555 1_555
C17 C19 1_555 1_555
N2 C25 1_555 1_555
C29 C40 1_555 1_555
C30 C31 1_555 1_555
C31 C32 1_555 1_555
C33 C39 1_555 1_555
C34 C35 1_555 1_555
C37 C38 1_555 1_555
C38 C39 1_555 1_555

#END
