
#######################################################################
#
#                 Cambridge Crystallographic Data Centre
#                                CCDC 
#
#######################################################################
#
# If this CIF has been generated from an entry in the Cambridge 
# Structural Database, then it will include bibliographic, chemical, 
# crystal, experimental, refinement or atomic coordinate data resulting 
# from the CCDC's data processing and validation procedures.
#
#######################################################################

data_WEKHEA02
_chemical_formula_moiety         'C15 H19 N1 O2'
_chemical_name_systematic        
2-(1-Hydroxycyclohexyl)-2-(4-methoxyphenyl)acetonitrile
_symmetry_cell_setting           monoclinic
_symmetry_space_group_name_H-M   'C 2/c'
_symmetry_Int_Tables_number      15
_space_group_name_Hall           '-C 2yn'
loop_
_symmetry_equiv_pos_site_id
_symmetry_equiv_pos_as_xyz
1 x,y,z
2 1/2+x,1/2+y,z
3 -x,y,1/2-z
4 1/2-x,1/2+y,1/2-z
5 -x,-y,-z
6 1/2-x,1/2-y,-z
7 x,-y,1/2+z
8 1/2+x,1/2-y,1/2+z
_cell_length_a                   23.551(5)
_cell_length_b                   5.5477(11)
_cell_length_c                   23.190(5)
_cell_angle_alpha                90
_cell_angle_beta                 115.22(3)
_cell_angle_gamma                90
_cell_volume                     2741.05
_exptl_crystal_colour            colorless
_exptl_crystal_description       block
_cell_formula_units_Z            8
_exptl_crystal_recrystallization_method ethanol
loop_
_atom_site_label
_atom_site_type_symbol
_atom_site_fract_x
_atom_site_fract_y
_atom_site_fract_z
O1 O 0.13602(5) 0.4012(2) 0.40199(5)
O2 O 0.15713(6) 0.0202(2) 0.14173(5)
N1 N 0.26456(7) 0.0009(3) 0.47205(7)
C1 C 0.10424(8) 0.1013(3) 0.45865(7)
C2 C 0.06030(10) 0.2684(4) 0.47232(9)
C3 C -0.00430(10) 0.2752(5) 0.41670(10)
C4 C 0.00015(8) 0.3432(4) 0.35553(9)
C5 C 0.04420(7) 0.1783(3) 0.34170(7)
C6 C 0.10910(7) 0.1671(2) 0.39717(6)
C7 C 0.15040(7) -0.0218(2) 0.38284(6)
C8 C 0.21473(8) -0.0116(3) 0.43356(7)
C9 C 0.15255(6) -0.0008(2) 0.31876(6)
C10 C 0.12288(7) -0.1721(3) 0.27182(7)
C11 C 0.12513(8) -0.1590(3) 0.21357(7)
C12 C 0.15713(7) 0.0258(3) 0.20044(7)
C13 C 0.18690(7) 0.1978(3) 0.24640(7)
C14 C 0.18435(7) 0.1825(3) 0.30469(7)
C15 C 0.18700(10) 0.2117(4) 0.12526(9)
H1 H 0.1640(10) 0.426(4) 0.4390(9)
H2 H 0.0892 -0.0630 0.4556
H3 H 0.1456 0.1089 0.4939
H4 H 0.0564 0.2135 0.5102
H5 H 0.0778 0.4297 0.4805
H6 H -0.0239 0.1182 0.4117
H7 H -0.0304 0.3915 0.4254
H8 H 0.0149 0.5080 0.3587
H9 H -0.0413 0.3352 0.3204
H10 H 0.0481 0.2356 0.3040
H11 H 0.0264 0.0174 0.3328
H12 H 0.1336 -0.1817 0.3847
H13 H 0.1011 -0.2978 0.2799
H14 H 0.1049 -0.2755 0.1828
H15 H 0.2086 0.3234 0.2382
H16 H 0.2046 0.2992 0.3354
H17 H 0.1660 0.3603 0.1251
H18 H 0.1851 0.1834 0.0837
H19 H 0.2300 0.2215 0.1558
loop_
_geom_bond_atom_site_label_1
_geom_bond_atom_site_label_2
_geom_bond_site_symmetry_1
_geom_bond_site_symmetry_2
O1 C6 1_555 1_555
O2 C12 1_555 1_555
N1 C8 1_555 1_555
C1 C2 1_555 1_555
C2 C3 1_555 1_555
C3 C4 1_555 1_555
C4 C5 1_555 1_555
C5 C6 1_555 1_555
C6 C1 1_555 1_555
C7 C6 1_555 1_555
C8 C7 1_555 1_555
C9 C7 1_555 1_555
C10 C9 1_555 1_555
C11 C10 1_555 1_555
C12 C11 1_555 1_555
C13 C12 1_555 1_555
C14 C9 1_555 1_555
C15 O2 1_555 1_555
H1 O1 1_555 1_555
H2 C1 1_555 1_555
H3 C1 1_555 1_555
H4 C2 1_555 1_555
H5 C2 1_555 1_555
H6 C3 1_555 1_555
H7 C3 1_555 1_555
H8 C4 1_555 1_555
H9 C4 1_555 1_555
H10 C5 1_555 1_555
H11 C5 1_555 1_555
H12 C7 1_555 1_555
H13 C10 1_555 1_555
H14 C11 1_555 1_555
H15 C13 1_555 1_555
H16 C14 1_555 1_555
H17 C15 1_555 1_555
H18 C15 1_555 1_555
H19 C15 1_555 1_555
C13 C14 1_555 1_555

#END
