
#######################################################################
#
#                 Cambridge Crystallographic Data Centre
#                                CCDC 
#
#######################################################################
#
# If this CIF has been generated from an entry in the Cambridge 
# Structural Database, then it will include bibliographic, chemical, 
# crystal, experimental, refinement or atomic coordinate data resulting 
# from the CCDC's data processing and validation procedures.
#
#######################################################################

data_WEKJOM
_chemical_formula_moiety         'C6 H7 F1 O2'
_chemical_name_systematic        cis-(1S)-3-Fluoro-3,5-cyclohexadiene-1,2-diol
_symmetry_cell_setting           orthorhombic
_symmetry_space_group_name_H-M   'P 21 21 2'
_symmetry_Int_Tables_number      18
_space_group_name_Hall           'P 2 2ab'
loop_
_symmetry_equiv_pos_site_id
_symmetry_equiv_pos_as_xyz
1 x,y,z
2 -x,-y,z
3 1/2-x,1/2+y,-z
4 1/2+x,1/2-y,-z
_cell_length_a                   12.037(8)
_cell_length_b                   12.651(9)
_cell_length_c                   8.347(6)
_cell_angle_alpha                90
_cell_angle_beta                 90
_cell_angle_gamma                90
_cell_volume                     1271.08
_exptl_crystal_colour            colorless
_exptl_crystal_description       needles
_cell_formula_units_Z            8
loop_
_atom_site_label
_atom_site_type_symbol
_atom_site_fract_x
_atom_site_fract_y
_atom_site_fract_z
C1 C 0.8867(5) 0.7250(5) 0.5512(8)
F1 F 0.9542(3) 0.6407(3) 0.5669(6)
C2 C 0.9247(5) 0.8255(5) 0.6312(7)
H1 H 0.9631 0.8080 0.7340
O1 O 1.0027(4) 0.8721(3) 0.5219(5)
H2 H 1.0266 0.9291 0.5604
C3 C 0.8250(5) 0.8959(5) 0.6652(7)
H3 H 0.7874 0.8667 0.7625
O2 O 0.8591(4) 1.0005(3) 0.7034(5)
H4 H 0.9065 0.9985 0.7772
C4 C 0.7400(6) 0.8977(6) 0.5336(8)
H5 H 0.6981 0.9601 0.5150
C5 C 0.7225(5) 0.8115(5) 0.4414(9)
H6 H 0.6642 0.8112 0.3647
C6 C 0.7929(6) 0.7200(5) 0.4602(8)
H7 H 0.7737 0.6556 0.4085
C7 C 0.6959(6) 1.0531(6) 0.0915(8)
F2 F 0.6300(3) 0.9690(4) 0.1219(7)
C8 C 0.8136(5) 1.0430(6) 0.1468(7)
H8 H 0.8150 1.0041 0.2511
O3 O 0.8715(4) 0.9798(3) 0.0254(5)
H9 H 0.9383 0.9723 0.0520
C9 C 0.8665(6) 1.1510(5) 0.1696(7)
H10 H 0.8338 1.1821 0.2692
O4 O 0.9840(4) 1.1445(4) 0.1941(5)
H11 H 0.9975 1.1025 0.2696
C10 C 0.8400(6) 1.2245(6) 0.0358(9)
H12 H 0.8930 1.2750 0.0004
C11 C 0.7381(7) 1.2179(6) -0.0349(9)
H13 H 0.7176 1.2699 -0.1116
C12 C 0.6598(6) 1.1341(6) 0.0032(9)
H14 H 0.5852 1.1369 -0.0337
loop_
_geom_bond_atom_site_label_1
_geom_bond_atom_site_label_2
_geom_bond_site_symmetry_1
_geom_bond_site_symmetry_2
C1 F1 1_555 1_555
C2 C1 1_555 1_555
H1 C2 1_555 1_555
O1 C2 1_555 1_555
H2 O1 1_555 1_555
C3 C2 1_555 1_555
H3 C3 1_555 1_555
O2 C3 1_555 1_555
H4 O2 1_555 1_555
C4 C3 1_555 1_555
H5 C4 1_555 1_555
C5 C4 1_555 1_555
H6 C5 1_555 1_555
C6 C1 1_555 1_555
H7 C6 1_555 1_555
C7 F2 1_555 1_555
C8 C7 1_555 1_555
H8 C8 1_555 1_555
O3 C8 1_555 1_555
H9 O3 1_555 1_555
C9 C8 1_555 1_555
H10 C9 1_555 1_555
O4 C9 1_555 1_555
H11 O4 1_555 1_555
C10 C9 1_555 1_555
H12 C10 1_555 1_555
C11 C10 1_555 1_555
H13 C11 1_555 1_555
C12 C7 1_555 1_555
H14 C12 1_555 1_555
C5 C6 1_555 1_555
C11 C12 1_555 1_555

#END
