
#######################################################################
#
#                 Cambridge Crystallographic Data Centre
#                                CCDC 
#
#######################################################################
#
# If this CIF has been generated from an entry in the Cambridge 
# Structural Database, then it will include bibliographic, chemical, 
# crystal, experimental, refinement or atomic coordinate data resulting 
# from the CCDC's data processing and validation procedures.
#
#######################################################################

data_WEKTUD
_chemical_formula_moiety         'C30 H66 Li4 N6 Si4'
_chemical_name_systematic        
bis(\m~3~-\h^5^-2-(t-butylaminomethyl)pyrrolato)-bis(\m~2~-bis(trimethylsilyl)imino)-tetra-lithium
_symmetry_cell_setting           monoclinic
_symmetry_space_group_name_H-M   'P 21/n'
_symmetry_Int_Tables_number      14
_space_group_name_Hall           '-P 2yn'
loop_
_symmetry_equiv_pos_site_id
_symmetry_equiv_pos_as_xyz
1 x,y,z
2 1/2-x,1/2+y,1/2-z
3 -x,-y,-z
4 1/2+x,1/2-y,1/2+z
_cell_length_a                   10.8200(9)
_cell_length_b                   13.6124(12)
_cell_length_c                   14.8062(13)
_cell_angle_alpha                90
_cell_angle_beta                 90.2780(10)
_cell_angle_gamma                90
_cell_volume                     2180.72
_exptl_crystal_colour            colorless
_exptl_crystal_description       block
_cell_formula_units_Z            2
loop_
_atom_site_label
_atom_site_type_symbol
_atom_site_fract_x
_atom_site_fract_y
_atom_site_fract_z
C1 C 0.5734(2) 0.49303(18) 0.13217(16)
H1 H 0.5199 0.4544 0.1660
C2 C 0.6973(3) 0.47635(19) 0.12473(17)
H2 H 0.7421 0.4256 0.1513
C3 C 0.7434(2) 0.55073(18) 0.06909(17)
H3 H 0.8251 0.5591 0.0514
C4 C 0.64473(19) 0.60885(15) 0.04570(14)
C5 C 0.6413(2) 0.70216(16) -0.00647(16)
H4 H 0.7251 0.7223 -0.0204
H5 H 0.5980 0.6914 -0.0631
C6 C 0.6561(2) 0.84516(17) 0.10338(18)
C7 C 0.7160(4) 0.7834(3) 0.1761(3)
H6 H 0.6531 0.7536 0.2126
H7 H 0.7676 0.8242 0.2134
H8 H 0.7653 0.7330 0.1487
C8 C 0.7557(3) 0.8980(3) 0.0503(3)
H9 H 0.8145 0.8510 0.0283
H10 H 0.7969 0.9445 0.0888
H11 H 0.7186 0.9319 0.0001
C9 C 0.5722(3) 0.9211(2) 0.1449(3)
H12 H 0.5285 0.9554 0.0979
H13 H 0.6206 0.9670 0.1793
H14 H 0.5139 0.8893 0.1839
C10 C 0.9253(3) 0.3253(3) -0.2379(3)
H15 H 0.9190 0.2556 -0.2472
H16 H 0.9412 0.3571 -0.2945
H17 H 0.9917 0.3388 -0.1965
C11 C 0.7936(3) 0.5100(2) -0.18355(19)
H18 H 0.8609 0.5263 -0.1438
H19 H 0.8100 0.5356 -0.2427
H20 H 0.7186 0.5383 -0.1609
C12 C 0.6554(3) 0.3490(3) -0.27870(19)
H21 H 0.5784 0.3772 -0.2600
H22 H 0.6806 0.3782 -0.3347
H23 H 0.6454 0.2795 -0.2868
C13 C 0.9516(2) 0.3057(2) 0.0285(2)
H24 H 0.9269 0.3596 0.0661
H25 H 0.9953 0.2581 0.0642
H26 H 1.0046 0.3293 -0.0186
C14 C 0.7126(3) 0.2024(2) 0.07305(19)
H27 H 0.6521 0.1569 0.0505
H28 H 0.7639 0.1703 0.1171
H29 H 0.6716 0.2573 0.1005
C15 C 0.8654(3) 0.1322(2) -0.0803(2)
H30 H 0.9239 0.1489 -0.1264
H31 H 0.9041 0.0898 -0.0368
H32 H 0.7961 0.0990 -0.1072
Li1 Li 0.5537(3) 0.2974(3) -0.1123(3)
Li2 Li 0.6413(3) 0.4370(3) -0.0232(3)
N1 N 0.53768(16) 0.57400(13) 0.08354(12)
N2 N 0.57887(16) 0.78162(13) 0.04459(13)
H33 H 0.5396 0.8210 0.0039
N3 N 0.72930(15) 0.32438(13) -0.09066(12)
Si1 Si 0.77657(6) 0.37255(6) -0.18987(5)
Si2 Si 0.81100(6) 0.24707(5) -0.02302(5)
C1B C 0.4266(2) 0.50697(18) -0.13217(16)
H1B H 0.4801 0.5456 -0.1660
C2B C 0.3027(3) 0.52365(19) -0.12473(17)
H2B H 0.2579 0.5744 -0.1513
C3B C 0.2566(2) 0.44927(18) -0.06909(17)
H3B H 0.1749 0.4409 -0.0514
C4B C 0.35527(19) 0.39115(15) -0.04570(14)
C5B C 0.3587(2) 0.29784(16) 0.00647(16)
H4B H 0.2749 0.2777 0.0204
H5B H 0.4020 0.3086 0.0631
C6B C 0.3439(2) 0.15484(17) -0.10338(18)
C7B C 0.2840(4) 0.2166(3) -0.1761(3)
H6B H 0.3469 0.2464 -0.2126
H7B H 0.2324 0.1758 -0.2134
H8B H 0.2347 0.2670 -0.1487
C8B C 0.2443(3) 0.1020(3) -0.0503(3)
H9B H 0.1855 0.1490 -0.0283
H10B H 0.2031 0.0555 -0.0888
H11B H 0.2814 0.0681 -0.0001
C9B C 0.4278(3) 0.0789(2) -0.1449(3)
H12B H 0.4715 0.0446 -0.0979
H13B H 0.3794 0.0330 -0.1793
H14B H 0.4861 0.1107 -0.1839
C10B C 0.0747(3) 0.6747(3) 0.2379(3)
H15B H 0.0810 0.7444 0.2472
H16B H 0.0588 0.6429 0.2945
H17B H 0.0083 0.6612 0.1965
C11B C 0.2064(3) 0.4900(2) 0.18355(19)
H18B H 0.1391 0.4737 0.1438
H19B H 0.1900 0.4644 0.2427
H20B H 0.2814 0.4617 0.1609
C12B C 0.3446(3) 0.6510(3) 0.27870(19)
H21B H 0.4216 0.6228 0.2600
H22B H 0.3194 0.6218 0.3347
H23B H 0.3546 0.7205 0.2868
C13B C 0.0484(2) 0.6943(2) -0.0285(2)
H24B H 0.0731 0.6404 -0.0661
H25B H 0.0047 0.7419 -0.0642
H26B H -0.0046 0.6707 0.0186
C14B C 0.2874(3) 0.7976(2) -0.07305(19)
H27B H 0.3479 0.8431 -0.0505
H28B H 0.2361 0.8297 -0.1171
H29B H 0.3284 0.7427 -0.1005
C15B C 0.1346(3) 0.8678(2) 0.0803(2)
H30B H 0.0761 0.8511 0.1264
H31B H 0.0959 0.9102 0.0368
H32B H 0.2039 0.9010 0.1072
Li1B Li 0.4463(3) 0.7026(3) 0.1123(3)
Li2B Li 0.3587(3) 0.5630(3) 0.0232(3)
N1B N 0.46232(16) 0.42600(13) -0.08354(12)
N2B N 0.42113(16) 0.21838(13) -0.04459(13)
H33B H 0.4604 0.1790 -0.0039
N3B N 0.27070(15) 0.67562(13) 0.09066(12)
Si1B Si 0.22343(6) 0.62745(6) 0.18987(5)
Si2B Si 0.18900(6) 0.75293(5) 0.02302(5)
loop_
_geom_bond_atom_site_label_1
_geom_bond_atom_site_label_2
_geom_bond_site_symmetry_1
_geom_bond_site_symmetry_2
C1 H1 1_555 1_555
C2 C1 1_555 1_555
H2 C2 1_555 1_555
C3 C2 1_555 1_555
H3 C3 1_555 1_555
C4 C3 1_555 1_555
C5 C4 1_555 1_555
H4 C5 1_555 1_555
H5 C5 1_555 1_555
C6 C7 1_555 1_555
C7 H6 1_555 1_555
H7 C7 1_555 1_555
H8 C7 1_555 1_555
C8 C6 1_555 1_555
H9 C8 1_555 1_555
H10 C8 1_555 1_555
H11 C8 1_555 1_555
C9 C6 1_555 1_555
H12 C9 1_555 1_555
H13 C9 1_555 1_555
H14 C9 1_555 1_555
C10 H15 1_555 1_555
H16 C10 1_555 1_555
H17 C10 1_555 1_555
C11 H18 1_555 1_555
H19 C11 1_555 1_555
H20 C11 1_555 1_555
C12 H21 1_555 1_555
H22 C12 1_555 1_555
H23 C12 1_555 1_555
C13 H24 1_555 1_555
H25 C13 1_555 1_555
H26 C13 1_555 1_555
C14 H27 1_555 1_555
H28 C14 1_555 1_555
H29 C14 1_555 1_555
C15 H30 1_555 1_555
H31 C15 1_555 1_555
H32 C15 1_555 1_555
Li1 N3 1_555 1_555
Li2 C1 1_555 1_555
N1 C1 1_555 1_555
N2 C5 1_555 1_555
H33 N2 1_555 1_555
N3 Li2 1_555 1_555
Si1 C10 1_555 1_555
Si2 C13 1_555 1_555
C1B H1B 1_555 1_555
C2B C1B 1_555 1_555
H2B C2B 1_555 1_555
C3B C2B 1_555 1_555
H3B C3B 1_555 1_555
C4B C3B 1_555 1_555
C5B C4B 1_555 1_555
H4B C5B 1_555 1_555
H5B C5B 1_555 1_555
C6B C7B 1_555 1_555
C7B H6B 1_555 1_555
H7B C7B 1_555 1_555
H8B C7B 1_555 1_555
C8B C6B 1_555 1_555
H9B C8B 1_555 1_555
H10B C8B 1_555 1_555
H11B C8B 1_555 1_555
C9B C6B 1_555 1_555
H12B C9B 1_555 1_555
H13B C9B 1_555 1_555
H14B C9B 1_555 1_555
C10B H15B 1_555 1_555
H16B C10B 1_555 1_555
H17B C10B 1_555 1_555
C11B H18B 1_555 1_555
H19B C11B 1_555 1_555
H20B C11B 1_555 1_555
C12B H21B 1_555 1_555
H22B C12B 1_555 1_555
H23B C12B 1_555 1_555
C13B H24B 1_555 1_555
H25B C13B 1_555 1_555
H26B C13B 1_555 1_555
C14B H27B 1_555 1_555
H28B C14B 1_555 1_555
H29B C14B 1_555 1_555
C15B H30B 1_555 1_555
H31B C15B 1_555 1_555
H32B C15B 1_555 1_555
Li1B N1 1_555 1_555
Li2B N1 1_555 1_555
N1B Li1 1_555 1_555
N2B Li1 1_555 1_555
H33B N2B 1_555 1_555
N3B Li1B 1_555 1_555
Si1B C10B 1_555 1_555
Si2B C13B 1_555 1_555
C2 Li2 1_555 1_555
C3 Li2 1_555 1_555
C4 Li2 1_555 1_555
C4 N1 1_555 1_555
C6 N2 1_555 1_555
C11 Si1 1_555 1_555
C12 Si1 1_555 1_555
C14 Si2 1_555 1_555
C15 Si2 1_555 1_555
Li2 N1 1_555 1_555
Li2 N1B 1_555 1_555
N2 Li1B 1_555 1_555
N3 Si1 1_555 1_555
N3 Si2 1_555 1_555
C1B Li2B 1_555 1_555
C1B N1B 1_555 1_555
C2B Li2B 1_555 1_555
C3B Li2B 1_555 1_555
C4B Li2B 1_555 1_555
C4B N1B 1_555 1_555
C5B N2B 1_555 1_555
C6B N2B 1_555 1_555
C11B Si1B 1_555 1_555
C12B Si1B 1_555 1_555
C14B Si2B 1_555 1_555
C15B Si2B 1_555 1_555
Li2B N1B 1_555 1_555
Li2B N3B 1_555 1_555
N3B Si1B 1_555 1_555
N3B Si2B 1_555 1_555

#END
