
#######################################################################
#
#                 Cambridge Crystallographic Data Centre
#                                CCDC 
#
#######################################################################
#
# If this CIF has been generated from an entry in the Cambridge 
# Structural Database, then it will include bibliographic, chemical, 
# crystal, experimental, refinement or atomic coordinate data resulting 
# from the CCDC's data processing and validation procedures.
#
#######################################################################

data_WEKXIW
_chemical_formula_moiety         'C18 H15 N1 O1'
_chemical_name_systematic        
2-(benzoyl)-3-(4-methylphenyl)cyclopropane-1-carbonitrile
_symmetry_cell_setting           orthorhombic
_symmetry_space_group_name_H-M   'P b c a'
_symmetry_Int_Tables_number      61
_space_group_name_Hall           '-P 2ac 2ab'
loop_
_symmetry_equiv_pos_site_id
_symmetry_equiv_pos_as_xyz
1 x,y,z
2 1/2-x,-y,1/2+z
3 1/2+x,1/2-y,-z
4 -x,1/2+y,1/2-z
5 -x,-y,-z
6 1/2+x,y,1/2-z
7 1/2-x,1/2+y,z
8 x,1/2-y,1/2+z
_cell_length_a                   5.7906(10)
_cell_length_b                   18.805(4)
_cell_length_c                   25.921(5)
_cell_angle_alpha                90
_cell_angle_beta                 90
_cell_angle_gamma                90
_cell_volume                     2822.6
_exptl_crystal_colour            white
_exptl_crystal_description       block
_cell_formula_units_Z            8
loop_
_atom_site_label
_atom_site_type_symbol
_atom_site_fract_x
_atom_site_fract_y
_atom_site_fract_z
O1 O 0.1117(4) 0.47965(11) 0.07631(9)
N1 N -0.0157(5) 0.52396(14) 0.19788(11)
C1 C 0.1583(6) 0.49946(15) 0.18791(11)
C2 C 0.3772(5) 0.46670(14) 0.17582(10)
H1 H 0.4970 0.4710 0.2023
C3 C 0.3775(5) 0.39799(13) 0.14555(10)
H2 H 0.2242 0.3829 0.1339
C4 C 0.4628(4) 0.46514(13) 0.12036(10)
H3 H 0.6299 0.4693 0.1152
C5 C 0.3125(5) 0.49928(15) 0.08115(11)
C6 C 0.4016(4) 0.55955(14) 0.04997(10)
C7 C 0.6094(5) 0.59184(15) 0.06049(11)
H4 H 0.7019 0.5746 0.0870
C8 C 0.6817(6) 0.64954(19) 0.03203(13)
H5 H 0.8211 0.6717 0.0397
C9 C 0.5472(7) 0.67426(18) -0.00766(13)
H6 H 0.5960 0.7132 -0.0269
C10 C 0.3424(6) 0.64213(19) -0.01916(12)
H7 H 0.2530 0.6588 -0.0464
C11 C 0.2684(5) 0.58510(17) 0.00960(11)
H8 H 0.1280 0.5635 0.0019
C12 C 0.5338(4) 0.33825(14) 0.15930(10)
C13 C 0.4696(5) 0.26985(14) 0.14721(11)
H9 H 0.3300 0.2621 0.1304
C14 C 0.6077(5) 0.21253(15) 0.15942(11)
H10 H 0.5586 0.1669 0.1509
C15 C 0.8175(5) 0.22127(15) 0.18409(10)
C16 C 0.8803(5) 0.29015(16) 0.19666(11)
H11 H 1.0192 0.2979 0.2137
C17 C 0.7427(5) 0.34730(15) 0.18457(10)
H12 H 0.7906 0.3929 0.1935
C18 C 0.9693(5) 0.15932(15) 0.19758(13)
H13 H 0.8772 0.1222 0.2125
H14 H 1.0844 0.1742 0.2219
H15 H 1.0434 0.1419 0.1669
loop_
_geom_bond_atom_site_label_1
_geom_bond_atom_site_label_2
_geom_bond_site_symmetry_1
_geom_bond_site_symmetry_2
O1 C5 1_555 1_555
N1 C1 1_555 1_555
C1 C2 1_555 1_555
C2 H1 1_555 1_555
C3 C2 1_555 1_555
H2 C3 1_555 1_555
C4 C2 1_555 1_555
H3 C4 1_555 1_555
C5 C4 1_555 1_555
C6 C5 1_555 1_555
C7 C6 1_555 1_555
H4 C7 1_555 1_555
C8 C7 1_555 1_555
H5 C8 1_555 1_555
C9 C8 1_555 1_555
H6 C9 1_555 1_555
C10 C9 1_555 1_555
H7 C10 1_555 1_555
C11 C6 1_555 1_555
H8 C11 1_555 1_555
C12 C3 1_555 1_555
C13 C12 1_555 1_555
H9 C13 1_555 1_555
C14 C13 1_555 1_555
H10 C14 1_555 1_555
C15 C14 1_555 1_555
C16 C15 1_555 1_555
H11 C16 1_555 1_555
C17 C12 1_555 1_555
H12 C17 1_555 1_555
C18 C15 1_555 1_555
H13 C18 1_555 1_555
H14 C18 1_555 1_555
H15 C18 1_555 1_555
C3 C4 1_555 1_555
C10 C11 1_555 1_555
C16 C17 1_555 1_555

#END
