
#######################################################################
#
#                 Cambridge Crystallographic Data Centre
#                                CCDC 
#
#######################################################################
#
# If this CIF has been generated from an entry in the Cambridge 
# Structural Database, then it will include bibliographic, chemical, 
# crystal, experimental, refinement or atomic coordinate data resulting 
# from the CCDC's data processing and validation procedures.
#
#######################################################################

data_WELLEH
_chemical_formula_moiety         'C9 H6 Cl1 F1 O1'
_chemical_name_systematic        3-(4-chlorophenyl)-3-fluoroprop-2-enal
_symmetry_cell_setting           monoclinic
_symmetry_space_group_name_H-M   'P 21/c'
_symmetry_Int_Tables_number      14
_space_group_name_Hall           '-P 2ybc'
loop_
_symmetry_equiv_pos_site_id
_symmetry_equiv_pos_as_xyz
1 x,y,z
2 -x,1/2+y,1/2-z
3 -x,-y,-z
4 x,1/2-y,1/2+z
_cell_length_a                   15.721(3)
_cell_length_b                   3.8568(7)
_cell_length_c                   14.528(2)
_cell_angle_alpha                90
_cell_angle_beta                 109.400(2)
_cell_angle_gamma                90
_cell_volume                     830.859
_cell_formula_units_Z            4
loop_
_atom_site_label
_atom_site_type_symbol
_atom_site_fract_x
_atom_site_fract_y
_atom_site_fract_z
Cl1 Cl 0.43679(3) 0.24356(13) 0.39139(3)
C1 C 0.24142(9) 0.4829(4) 0.09309(10)
C2 C 0.17843(10) 0.5639(4) -0.00358(10)
C3 C 0.36138(10) 0.3363(4) 0.27640(11)
C4 C 0.27969(11) 0.4871(4) 0.26803(11)
H1 H 0.2652 0.5400 0.3235
C5 C 0.21966(10) 0.5587(4) 0.17644(11)
H2 H 0.1642 0.6584 0.1702
F1 F 0.20840(8) 0.4602(4) -0.07615(7)
C6 C 0.09885(11) 0.7206(4) -0.02894(11)
H3 H 0.0773 0.7902 0.0205
C7 C 0.32466(10) 0.3315(4) 0.10392(12)
H4 H 0.3399 0.2792 0.0489
C8 C 0.38459(11) 0.2584(4) 0.19540(13)
H5 H 0.4401 0.1575 0.2023
C9 C 0.04347(12) 0.7900(5) -0.12885(12)
H6 H 0.0639 0.7138 -0.1786
O1 O -0.02749(9) 0.9408(5) -0.15101(9)
loop_
_geom_bond_atom_site_label_1
_geom_bond_atom_site_label_2
_geom_bond_site_symmetry_1
_geom_bond_site_symmetry_2
Cl1 C3 1_555 1_555
C1 C2 1_555 1_555
C2 F1 1_555 1_555
C3 C4 1_555 1_555
C4 H1 1_555 1_555
C5 C1 1_555 1_555
H2 C5 1_555 1_555
C6 C2 1_555 1_555
H3 C6 1_555 1_555
C7 C1 1_555 1_555
H4 C7 1_555 1_555
C8 C3 1_555 1_555
H5 C8 1_555 1_555
C9 C6 1_555 1_555
H6 C9 1_555 1_555
O1 C9 1_555 1_555
C4 C5 1_555 1_555
C7 C8 1_555 1_555

#END
