
#######################################################################
#
#                 Cambridge Crystallographic Data Centre
#                                CCDC 
#
#######################################################################
#
# If this CIF has been generated from an entry in the Cambridge 
# Structural Database, then it will include bibliographic, chemical, 
# crystal, experimental, refinement or atomic coordinate data resulting 
# from the CCDC's data processing and validation procedures.
#
#######################################################################

data_WELLUX
_chemical_compound_source        'dried rhizomes of Alisma orientale'
_chemical_name_common            '25-Methoxyalisol F'
_chemical_formula_moiety         'C31 H50 O5'
_chemical_name_systematic        
(8\a,9\b,11\b,14\b,16\b,23S,24R)-11,24-Dihydroxy-25-methoxy-16,23-epoxydam-mar-13(17)-en-3-one
_symmetry_cell_setting           orthorhombic
_symmetry_space_group_name_H-M   'P 21 21 21'
_symmetry_Int_Tables_number      19
_space_group_name_Hall           'P 2ac 2ab'
loop_
_symmetry_equiv_pos_site_id
_symmetry_equiv_pos_as_xyz
1 x,y,z
2 1/2+x,1/2-y,-z
3 -x,1/2+y,1/2-z
4 1/2-x,-y,1/2+z
_cell_length_a                   6.9902(2)
_cell_length_b                   11.1922(2)
_cell_length_c                   35.7200(8)
_cell_angle_alpha                90
_cell_angle_beta                 90
_cell_angle_gamma                90
_cell_volume                     2794.58
_exptl_crystal_colour            colorless
_exptl_crystal_description       plate
_chemical_melting_point          '180.0-181.2 deg.C'
_cell_formula_units_Z            4
loop_
_atom_site_label
_atom_site_type_symbol
_atom_site_fract_x
_atom_site_fract_y
_atom_site_fract_z
O1 O 0.5313(3) 0.6173(2) 0.71033(6)
O2 O 0.9097(3) 1.04794(18) 0.98037(6)
O3 O 0.7609(3) 1.04308(16) 1.09790(5)
O4 O 0.9664(9) 1.2264(3) 1.02686(8)
H1 H 1.0349 1.2105 1.0082
O5 O 0.6074(3) 0.54674(16) 0.87316(6)
H2 H 0.5035 0.5223 0.8822
C1 C 0.5487(4) 0.6887(3) 0.73577(8)
C2 C 0.7227(4) 0.7701(2) 0.73980(7)
C3 C 0.7477(4) 0.8031(2) 0.78207(8)
H3 H 0.6572 0.8706 0.7867
C4 C 0.6850(4) 0.7018(2) 0.80920(7)
C5 C 0.7555(4) 0.7289(2) 0.85026(8)
H4 H 0.8817 0.6874 0.8525
C6 C 0.7987(4) 0.8637(2) 0.85959(8)
C7 C 0.9062(4) 0.8659(2) 0.89855(8)
C8 C 0.9408(5) 0.9934(3) 0.91436(9)
H5 H 1.0755 1.0024 0.9224
H6 H 0.9133 1.0542 0.8950
C9 C 0.8063(5) 1.0089(2) 0.94767(8)
H7 H 0.7027 1.0671 0.9414
C10 C 0.7805(5) 1.0545(3) 1.01169(8)
H8 H 0.6680 1.1049 1.0046
C11 C 0.8942(7) 1.1185(3) 1.04246(9)
H9 H 1.0042 1.0669 1.0501
C12 C 0.7794(7) 1.1540(3) 1.07762(9)
C13 C 0.6214(5) 1.0409(3) 1.12681(9)
H10 H 0.6264 1.1160 1.1409
H11 H 0.6475 0.9739 1.1437
H12 H 0.4940 1.0312 1.1158
C14 C 0.3946(4) 0.7066(3) 0.76477(8)
H13 H 0.2894 0.6496 0.7599
H14 H 0.3421 0.7884 0.7622
C15 C 0.4655(4) 0.6893(3) 0.80535(8)
H15 H 0.4267 0.6091 0.8142
H16 H 0.4029 0.7492 0.8217
C16 C 0.7788(4) 0.5817(2) 0.79772(8)
H17 H 0.7481 0.5205 0.8164
H18 H 0.9179 0.5918 0.7963
H19 H 0.7298 0.5569 0.7732
C17 C 0.6283(4) 0.6715(2) 0.88074(8)
H20 H 0.4993 0.7100 0.8801
C18 C 0.7128(4) 0.6851(2) 0.92018(8)
H21 H 0.6154 0.6619 0.9389
H22 H 0.8234 0.6305 0.9229
C19 C 0.7762(4) 0.8109(2) 0.92754(7)
C20 C 0.6120(4) 0.9361(2) 0.86284(8)
H23 H 0.6425 1.0196 0.8685
H24 H 0.5329 0.9028 0.8829
H25 H 0.5420 0.9320 0.8391
C21 C 0.9268(4) 0.9223(2) 0.82870(8)
H26 H 0.8734 1.0018 0.8225
H27 H 1.0565 0.9349 0.8391
C22 C 0.9442(4) 0.8499(2) 0.79277(8)
H28 H 0.9953 0.9009 0.7724
H29 H 1.0334 0.7823 0.7966
C23 C 0.6692(4) 0.8852(3) 0.71845(8)
H30 H 0.6421 0.8657 0.6922
H31 H 0.7759 0.9418 0.7197
H32 H 0.5555 0.9211 0.7299
C24 C 0.8976(4) 0.7159(3) 0.72051(8)
H33 H 0.9358 0.6428 0.7336
H34 H 1.0033 0.7733 0.7211
H35 H 0.8658 0.6967 0.6945
C25 C 1.0990(4) 0.7981(3) 0.89736(8)
H36 H 1.1575 0.7990 0.9223
H37 H 1.1849 0.8370 0.8794
H38 H 1.0767 0.7153 0.8896
C26 C 0.7104(4) 0.9295(2) 1.02196(8)
H39 H 0.6239 0.9346 1.0438
H40 H 0.8211 0.8791 1.0290
C27 C 0.6033(4) 0.8708(2) 0.98888(8)
H41 H 0.5897 0.7834 0.9940
C28 C 0.4027(5) 0.9253(3) 0.98394(9)
H42 H 0.4145 1.0100 0.9774
H43 H 0.3310 0.9176 1.0074
H44 H 0.3348 0.8830 0.9639
C29 C 0.7231(4) 0.8870(2) 0.95423(8)
C30 C 0.8980(9) 1.2402(3) 1.10149(11)
H45 H 0.8323 1.2547 1.1253
H46 H 0.9138 1.3159 1.0881
H47 H 1.0240 1.2051 1.1064
C31 C 0.5839(10) 1.2063(4) 1.06811(11)
H48 H 0.5060 1.1456 1.0555
H49 H 0.6001 1.2753 1.0515
H50 H 0.5199 1.2318 1.0912
loop_
_geom_bond_atom_site_label_1
_geom_bond_atom_site_label_2
_geom_bond_site_symmetry_1
_geom_bond_site_symmetry_2
O1 C1 1_555 1_555
O2 C9 1_555 1_555
O3 C12 1_555 1_555
O4 H1 1_555 1_555
O5 H2 1_555 1_555
C1 C2 1_555 1_555
C2 C3 1_555 1_555
C3 H3 1_555 1_555
C4 C3 1_555 1_555
C5 C4 1_555 1_555
H4 C5 1_555 1_555
C6 C5 1_555 1_555
C7 C6 1_555 1_555
C8 C7 1_555 1_555
H5 C8 1_555 1_555
H6 C8 1_555 1_555
C9 C8 1_555 1_555
H7 C9 1_555 1_555
C10 O2 1_555 1_555
H8 C10 1_555 1_555
C11 O4 1_555 1_555
H9 C11 1_555 1_555
C12 C11 1_555 1_555
C13 O3 1_555 1_555
H10 C13 1_555 1_555
H11 C13 1_555 1_555
H12 C13 1_555 1_555
C14 C1 1_555 1_555
H13 C14 1_555 1_555
H14 C14 1_555 1_555
C15 C4 1_555 1_555
H15 C15 1_555 1_555
H16 C15 1_555 1_555
C16 C4 1_555 1_555
H17 C16 1_555 1_555
H18 C16 1_555 1_555
H19 C16 1_555 1_555
C17 O5 1_555 1_555
H20 C17 1_555 1_555
C18 C17 1_555 1_555
H21 C18 1_555 1_555
H22 C18 1_555 1_555
C19 C7 1_555 1_555
C20 C6 1_555 1_555
H23 C20 1_555 1_555
H24 C20 1_555 1_555
H25 C20 1_555 1_555
C21 C6 1_555 1_555
H26 C21 1_555 1_555
H27 C21 1_555 1_555
C22 C3 1_555 1_555
H28 C22 1_555 1_555
H29 C22 1_555 1_555
C23 C2 1_555 1_555
H30 C23 1_555 1_555
H31 C23 1_555 1_555
H32 C23 1_555 1_555
C24 C2 1_555 1_555
H33 C24 1_555 1_555
H34 C24 1_555 1_555
H35 C24 1_555 1_555
C25 C7 1_555 1_555
H36 C25 1_555 1_555
H37 C25 1_555 1_555
H38 C25 1_555 1_555
C26 C10 1_555 1_555
H39 C26 1_555 1_555
H40 C26 1_555 1_555
C27 C26 1_555 1_555
H41 C27 1_555 1_555
C28 C27 1_555 1_555
H42 C28 1_555 1_555
H43 C28 1_555 1_555
H44 C28 1_555 1_555
C29 C9 1_555 1_555
C30 C12 1_555 1_555
H45 C30 1_555 1_555
H46 C30 1_555 1_555
H47 C30 1_555 1_555
C31 C12 1_555 1_555
H48 C31 1_555 1_555
H49 C31 1_555 1_555
H50 C31 1_555 1_555
C5 C17 1_555 1_555
C10 C11 1_555 1_555
C14 C15 1_555 1_555
C18 C19 1_555 1_555
C19 C29 1_555 1_555
C21 C22 1_555 1_555
C27 C29 1_555 1_555

#END
