
#######################################################################
#
#                 Cambridge Crystallographic Data Centre
#                                CCDC 
#
#######################################################################
#
# If this CIF has been generated from an entry in the Cambridge 
# Structural Database, then it will include bibliographic, chemical, 
# crystal, experimental, refinement or atomic coordinate data resulting 
# from the CCDC's data processing and validation procedures.
#
#######################################################################

data_WELMIM
_chemical_formula_moiety         'C25 H23 Cl2 O1 P1'
_chemical_name_systematic        
'bis(3-chlorophenyl)(4,4-dimethyl-1-phenylpenta-1,2-dien-3-yl)phosphine oxide'
_symmetry_cell_setting           monoclinic
_symmetry_space_group_name_H-M   'C 2/c'
_symmetry_Int_Tables_number      15
_space_group_name_Hall           '-C 2yn'
loop_
_symmetry_equiv_pos_site_id
_symmetry_equiv_pos_as_xyz
1 x,y,z
2 -x,y,1/2-z
3 1/2+x,1/2+y,z
4 1/2-x,1/2+y,1/2-z
5 -x,-y,-z
6 x,-y,1/2+z
7 1/2-x,1/2-y,-z
8 1/2+x,1/2-y,1/2+z
_cell_length_a                   47.21(4)
_cell_length_b                   6.351(5)
_cell_length_c                   16.207(14)
_cell_angle_alpha                90
_cell_angle_beta                 106.114(10)
_cell_angle_gamma                90
_cell_volume                     4668.44
_exptl_crystal_colour            white
_exptl_crystal_description       Block
_cell_formula_units_Z            8
loop_
_atom_site_label
_atom_site_type_symbol
_atom_site_fract_x
_atom_site_fract_y
_atom_site_fract_z
P1 P 0.14615(2) 0.88679(12) 0.16108(5)
C1 C 0.18023(6) 0.7740(5) 0.22932(18)
C2 C 0.09290(7) 0.9329(5) 0.1970(2)
H1 H 0.0933 1.0672 0.1744
C3 C 0.11614(6) 0.7924(5) 0.20138(17)
C4 C 0.19854(6) 0.9068(5) 0.29030(19)
H2 H 0.1929 1.0448 0.2965
C5 C 0.14097(6) 0.7610(5) 0.05659(18)
C6 C 0.11493(8) 0.5899(5) 0.2361(2)
H3 H 0.1301 0.4942 0.2392
C7 C 0.07058(8) 0.4624(5) -0.0162(2)
C8 C 0.22509(7) 0.8318(6) 0.3412(2)
C9 C 0.15872(7) 0.8304(5) -0.0065(2)
C10 C 0.18914(7) 0.5655(5) 0.2210(2)
H4 H 0.1771 0.4756 0.1810
C11 C 0.09111(9) 0.5343(6) 0.2653(3)
H5 H 0.0905 0.4008 0.2884
C12 C 0.06820(8) 0.6717(7) 0.2612(2)
H6 H 0.0523 0.6322 0.2812
C13 C 0.16657(11) 0.6344(7) -0.0516(3)
H7 H 0.1488 0.5611 -0.0807
H8 H 0.1768 0.6769 -0.0925
H9 H 0.1790 0.5430 -0.0097
C14 C 0.05713(8) 0.6461(7) -0.0545(3)
H10 H 0.0682 0.7677 -0.0527
C15 C 0.02285(11) 0.2889(10) -0.0610(3)
H11 H 0.0115 0.1683 -0.0635
C16 C 0.02710(10) 0.6482(9) -0.0953(3)
H12 H 0.0185 0.7716 -0.1215
C17 C 0.00980(11) 0.4732(11) -0.0982(4)
H13 H -0.0104 0.4786 -0.1247
O1 O 0.14718(5) 1.1221(3) 0.16037(14)
C18 C 0.06931(7) 0.8715(6) 0.2263(2)
C19 C 0.13894(11) 0.9781(8) -0.0738(3)
H14 H 0.1210 0.9066 -0.1023
H15 H 0.1345 1.1019 -0.0458
H16 H 0.1491 1.0178 -0.1153
C20 C 0.18757(10) 0.9439(8) 0.0393(3)
H17 H 0.1832 1.0669 0.0679
H18 H 0.1999 0.8508 0.0808
H19 H 0.1977 0.9847 -0.0021
C21 C 0.21596(8) 0.4950(6) 0.2728(3)
H20 H 0.2218 0.3574 0.2668
C22 C 0.05296(9) 0.2824(7) -0.0198(3)
H21 H 0.0615 0.1578 0.0055
C23 C 0.23420(8) 0.6250(7) 0.3334(2)
H22 H 0.2521 0.5759 0.3681
C24 C 0.12144(7) 0.6066(5) 0.03880(19)
C25 C 0.10240(7) 0.4503(5) 0.0262(2)
H23 H 0.1099 0.3186 0.0461
Cl1 Cl 0.24838(2) 0.99921(19) 0.41669(7)
Cl2 Cl 0.04023(2) 1.0477(2) 0.21975(10)
loop_
_geom_bond_atom_site_label_1
_geom_bond_atom_site_label_2
_geom_bond_site_symmetry_1
_geom_bond_site_symmetry_2
P1 C1 1_555 1_555
C1 C4 1_555 1_555
C2 H1 1_555 1_555
C3 P1 1_555 1_555
C4 H2 1_555 1_555
C5 P1 1_555 1_555
C6 C3 1_555 1_555
H3 C6 1_555 1_555
C7 C14 1_555 1_555
C8 C4 1_555 1_555
C9 C5 1_555 1_555
C10 C1 1_555 1_555
H4 C10 1_555 1_555
C11 C6 1_555 1_555
H5 C11 1_555 1_555
C12 C11 1_555 1_555
H6 C12 1_555 1_555
C13 C9 1_555 1_555
H7 C13 1_555 1_555
H8 C13 1_555 1_555
H9 C13 1_555 1_555
C14 H10 1_555 1_555
C15 H11 1_555 1_555
C16 C14 1_555 1_555
H12 C16 1_555 1_555
C17 C15 1_555 1_555
H13 C17 1_555 1_555
O1 P1 1_555 1_555
C18 C2 1_555 1_555
C19 C9 1_555 1_555
H14 C19 1_555 1_555
H15 C19 1_555 1_555
H16 C19 1_555 1_555
C20 C9 1_555 1_555
H17 C20 1_555 1_555
H18 C20 1_555 1_555
H19 C20 1_555 1_555
C21 C10 1_555 1_555
H20 C21 1_555 1_555
C22 C7 1_555 1_555
H21 C22 1_555 1_555
C23 C8 1_555 1_555
H22 C23 1_555 1_555
C24 C5 1_555 1_555
C25 C7 1_555 1_555
H23 C25 1_555 1_555
Cl1 C8 1_555 1_555
Cl2 C18 1_555 1_555
C2 C3 1_555 1_555
C12 C18 1_555 1_555
C15 C22 1_555 1_555
C16 C17 1_555 1_555
C21 C23 1_555 1_555
C24 C25 1_555 1_555

#END
