
#######################################################################
#
#                 Cambridge Crystallographic Data Centre
#                                CCDC 
#
#######################################################################
#
# If this CIF has been generated from an entry in the Cambridge 
# Structural Database, then it will include bibliographic, chemical, 
# crystal, experimental, refinement or atomic coordinate data resulting 
# from the CCDC's data processing and validation procedures.
#
#######################################################################

data_WELNIN
_chemical_formula_moiety         'C15 H12 Br1 N1 O2'
_chemical_name_systematic        
2-bromo-8-methoxy-5-methylphenanthridin-6(5H)-one
_symmetry_cell_setting           monoclinic
_symmetry_space_group_name_H-M   'C 2/c'
_symmetry_Int_Tables_number      15
_space_group_name_Hall           '-C 2yn'
loop_
_symmetry_equiv_pos_site_id
_symmetry_equiv_pos_as_xyz
1 x,y,z
2 -x,y,1/2-z
3 1/2+x,1/2+y,z
4 1/2-x,1/2+y,1/2-z
5 -x,-y,-z
6 x,-y,1/2+z
7 1/2-x,1/2-y,-z
8 1/2+x,1/2-y,1/2+z
_cell_length_a                   6.8648(11)
_cell_length_b                   27.199(4)
_cell_length_c                   13.724(2)
_cell_angle_alpha                90
_cell_angle_beta                 95.381(4)
_cell_angle_gamma                90
_cell_volume                     2551.19
_exptl_crystal_colour            colorless
_exptl_crystal_description       needle
_cell_formula_units_Z            8
loop_
_atom_site_label
_atom_site_type_symbol
_atom_site_fract_x
_atom_site_fract_y
_atom_site_fract_z
Br1 Br 0.17702(15) 0.19510(3) -0.12210(6)
O1 O 0.3060(10) 0.1763(2) 0.5486(4)
O2 O 0.2654(10) 0.0164(2) 0.3559(4)
N1 N 0.2472(10) 0.0394(2) 0.1962(5)
C1 C 0.2874(12) 0.1609(3) 0.4534(5)
C2 C 0.2724(13) 0.1988(3) 0.3840(6)
H1 H 0.2749 0.2317 0.4045
C3 C 0.2540(12) 0.1878(3) 0.2864(6)
H2 H 0.2433 0.2135 0.2405
C4 C 0.2507(12) 0.1393(3) 0.2533(6)
C5 C 0.2624(11) 0.1017(3) 0.3236(6)
C6 C 0.2804(12) 0.1129(3) 0.4229(6)
H3 H 0.2877 0.0874 0.4694
C7 C 0.2591(13) 0.0497(3) 0.2948(6)
C8 C 0.2264(12) 0.0757(3) 0.1223(6)
C9 C 0.2312(11) 0.1260(3) 0.1494(5)
C10 C 0.2159(12) 0.1608(3) 0.0751(6)
H4 H 0.2158 0.1944 0.0911
C11 C 0.2008(12) 0.1467(3) -0.0213(5)
C12 C 0.2035(13) 0.0976(3) -0.0479(6)
H5 H 0.1950 0.0885 -0.1143
C13 C 0.2192(12) 0.0619(3) 0.0249(6)
H6 H 0.2249 0.0284 0.0081
C14 C 0.3161(15) 0.1392(3) 0.6230(6)
H7 H 0.1951 0.1205 0.6179
H8 H 0.3353 0.1545 0.6869
H9 H 0.4248 0.1173 0.6144
C15 C 0.2452(15) -0.0125(3) 0.1668(7)
H10 H 0.3531 -0.0187 0.1276
H11 H 0.1226 -0.0199 0.1287
H12 H 0.2588 -0.0331 0.2247
loop_
_geom_bond_atom_site_label_1
_geom_bond_atom_site_label_2
_geom_bond_site_symmetry_1
_geom_bond_site_symmetry_2
Br1 C11 1_555 1_555
O1 C1 1_555 1_555
O2 C7 1_555 1_555
N1 C7 1_555 1_555
C1 C2 1_555 1_555
C2 H1 1_555 1_555
C3 C2 1_555 1_555
H2 C3 1_555 1_555
C4 C3 1_555 1_555
C5 C4 1_555 1_555
C6 C1 1_555 1_555
H3 C6 1_555 1_555
C7 C5 1_555 1_555
C8 N1 1_555 1_555
C9 C4 1_555 1_555
C10 C9 1_555 1_555
H4 C10 1_555 1_555
C11 C10 1_555 1_555
C12 C11 1_555 1_555
H5 C12 1_555 1_555
C13 C8 1_555 1_555
H6 C13 1_555 1_555
C14 O1 1_555 1_555
H7 C14 1_555 1_555
H8 C14 1_555 1_555
H9 C14 1_555 1_555
C15 N1 1_555 1_555
H10 C15 1_555 1_555
H11 C15 1_555 1_555
H12 C15 1_555 1_555
C5 C6 1_555 1_555
C8 C9 1_555 1_555
C12 C13 1_555 1_555

#END
