
#######################################################################
#
#                 Cambridge Crystallographic Data Centre
#                                CCDC 
#
#######################################################################
#
# If this CIF has been generated from an entry in the Cambridge 
# Structural Database, then it will include bibliographic, chemical, 
# crystal, experimental, refinement or atomic coordinate data resulting 
# from the CCDC's data processing and validation procedures.
#
#######################################################################

data_WELQIQ
_chemical_formula_moiety         'C18 H12 N2 O10 S2 2-,H12 Mg1 O6 2+'
_chemical_name_systematic        
"hexa-aqua-magnesium 2,2'-(1,3,6,8-tetraoxo-1,3,6,8-tetrahydrobenzo[lmn][3,8]phenanthroline-2,7-diyl)bis(ethane-1-sulfonate)"
_symmetry_cell_setting           triclinic
_symmetry_space_group_name_H-M   'P -1'
_symmetry_Int_Tables_number      2
_space_group_name_Hall           '-P 1'
loop_
_symmetry_equiv_pos_site_id
_symmetry_equiv_pos_as_xyz
1 x,y,z
2 -x,-y,-z
_cell_length_a                   8.1898(5)
_cell_length_b                   8.9388(6)
_cell_length_c                   16.7878(10)
_cell_angle_alpha                87.381(5)
_cell_angle_beta                 80.708(5)
_cell_angle_gamma                83.888(5)
_cell_volume                     1205.45
_exptl_crystal_colour            colorless
_exptl_crystal_description       block
_cell_formula_units_Z            2
loop_
_atom_site_label
_atom_site_type_symbol
_atom_site_fract_x
_atom_site_fract_y
_atom_site_fract_z
Mg1 Mg 1.000000 1.000000 0.500000
O1 O 0.76391(15) 0.93827(15) 0.52482(8)
O2 O 0.98512(16) 1.06925(15) 0.61671(7)
O3 O 1.09644(16) 0.79196(14) 0.53742(8)
H1 H 1.197(4) 0.754(3) 0.5220(16)
H2 H 0.713(3) 0.921(3) 0.4856(15)
H3 H 0.706(4) 0.918(3) 0.5683(19)
H4 H 1.040(4) 0.727(4) 0.5570(19)
H5 H 1.051(5) 1.031(5) 0.646(2)
H6 H 0.942(4) 1.151(4) 0.6352(18)
O1A O 1.23609(15) 1.06173(15) 0.47518(8)
O2A O 1.01488(16) 0.93075(15) 0.38329(7)
O3A O 0.90356(16) 1.20804(14) 0.46258(8)
H1A H 0.803(4) 1.246(3) 0.4780(16)
H2A H 1.287(3) 1.079(3) 0.5144(15)
H3A H 1.294(4) 1.082(3) 0.4317(19)
H4A H 0.960(4) 1.273(4) 0.4430(19)
H5A H 0.949(5) 0.969(5) 0.354(2)
H6A H 1.058(4) 0.849(4) 0.3648(18)
Mg2 Mg 1.500000 0.500000 0.500000
O4 O 1.60180(15) 0.31683(14) 0.56321(7)
O5 O 1.56994(17) 0.38910(15) 0.39397(7)
O6 O 1.28070(15) 0.40717(14) 0.51823(8)
H7 H 1.536(3) 0.311(3) 0.3805(16)
H8 H 1.220(4) 0.413(3) 0.4827(18)
H9 H 1.657(4) 0.330(3) 0.6042(18)
H10 H 1.548(4) 0.248(3) 0.5731(16)
H11 H 1.589(4) 0.430(3) 0.3498(18)
H12 H 1.218(4) 0.406(4) 0.565(2)
O4A O 1.39820(15) 0.68317(14) 0.43679(7)
O5A O 1.43006(17) 0.61090(15) 0.60603(7)
O6A O 1.71930(15) 0.59283(14) 0.48177(8)
H7A H 1.464(3) 0.689(3) 0.6195(16)
H8A H 1.780(4) 0.587(3) 0.5173(18)
H9A H 1.343(4) 0.670(3) 0.3958(18)
H10A H 1.452(4) 0.752(3) 0.4269(16)
H11A H 1.411(4) 0.570(3) 0.6502(18)
H12A H 1.782(4) 0.594(4) 0.435(2)
S1 S 0.91130(5) 0.46779(4) 0.67389(2)
O7 O 0.89374(16) 0.57728(14) 0.60738(7)
O8 O 0.78759(17) 0.35889(15) 0.68280(8)
O9 O 1.07964(16) 0.39502(15) 0.66898(8)
O10 O 1.08816(15) 0.56475(14) 0.90655(7)
O11 O 0.83368(16) 0.95940(15) 0.77933(7)
N1 N 0.98241(18) 0.76743(17) 0.83787(8)
C1 C 0.8703(2) 0.5745(2) 0.76334(10)
H13 H 0.763081 0.633272 0.766046
H14 H 0.866239 0.506803 0.810312
C2 C 1.0054(2) 0.67931(19) 0.76401(10)
H15 H 1.112607 0.619885 0.758759
H16 H 1.006593 0.748078 0.717563
C3 C 0.9074(2) 0.9156(2) 0.83453(10)
C4 C 0.9240(2) 1.0151(2) 0.90094(10)
C5 C 0.9937(2) 0.95272(19) 0.96827(10)
C6 C 1.04768(19) 0.79786(19) 0.97355(10)
C7 C 1.0413(2) 0.69878(19) 0.90542(10)
C8 C 1.1109(2) 0.73858(19) 1.04089(10)
H17 H 1.143203 0.635916 1.044858
C9 C 1.1269(2) 0.8328(2) 1.10378(10)
H18 H 1.171809 0.792466 1.148493
S1A S 1.08870(5) 1.53221(4) 1.32611(2)
O7A O 1.10626(16) 1.42272(14) 1.39262(7)
O8A O 1.21241(17) 1.64111(15) 1.31720(8)
O9A O 0.92036(16) 1.60498(15) 1.33102(8)
O10A O 0.91184(15) 1.43525(14) 1.09345(7)
O11A O 1.16632(16) 1.04060(15) 1.22067(7)
N1A N 1.01759(18) 1.23257(17) 1.16213(8)
C1A C 1.1297(2) 1.4255(2) 1.23666(10)
H13A H 1.236919 1.366728 1.233954
H14A H 1.133761 1.493197 1.189688
C2A C 0.9946(2) 1.32069(19) 1.23599(10)
H15A H 0.887393 1.380115 1.241241
H16A H 0.993407 1.251922 1.282437
C3A C 1.0926(2) 1.0844(2) 1.16547(10)
C4A C 1.0760(2) 0.9849(2) 1.09906(10)
C5A C 1.0063(2) 1.04728(19) 1.03173(10)
C6A C 0.95232(19) 1.20214(19) 1.02645(10)
C7A C 0.9587(2) 1.30122(19) 1.09458(10)
C8A C 0.8891(2) 1.26142(19) 0.95911(10)
H17A H 0.856797 1.364084 0.955142
C9A C 0.8731(2) 1.1672(2) 0.89622(10)
H18A H 0.828191 1.207534 0.851507
S2 S 1.39776(5) -0.00784(4) 0.67661(2)
O12 O 1.39139(15) 0.10135(14) 0.60883(7)
O13 O 1.52821(15) -0.13243(14) 0.65746(7)
O14 O 1.23621(15) -0.05785(14) 0.70873(7)
O15 O 1.34929(15) 0.09130(14) 0.93877(7)
O16 O 1.40130(16) 0.49292(15) 0.76331(7)
N2 N 1.37301(17) 0.29272(16) 0.85166(8)
C10 C 1.4599(2) 0.09042(19) 0.75454(10)
H19 H 1.490194 0.019467 0.796444
H20 H 1.556499 0.141980 0.732806
C11 C 1.3186(2) 0.20433(19) 0.79044(10)
H21 H 1.283681 0.271382 0.747919
H22 H 1.224350 0.152137 0.815083
C12 C 1.4087(2) 0.4398(2) 0.83097(10)
C13 C 1.4585(2) 0.52812(19) 0.89427(10)
C14 C 1.4742(2) 0.45840(19) 0.97029(9)
C15 C 1.4398(2) 0.30783(19) 0.98816(10)
C16 C 1.3839(2) 0.22053(19) 0.92642(10)
C17 C 1.4595(2) 0.24065(19) 1.06218(10)
H23 H 1.438598 0.140887 1.072951
C18 C 1.4888(2) 0.6766(2) 0.87864(10)
H24 H 1.474943 0.721986 0.828897
S2A S 1.60224(5) 1.00784(4) 1.32339(2)
O12A O 1.60861(15) 0.89865(14) 1.39117(7)
O13A O 1.47179(15) 1.13243(14) 1.34254(7)
O14A O 1.76379(15) 1.05785(14) 1.29127(7)
O15A O 1.65071(15) 0.90870(14) 1.06123(7)
O16A O 1.59870(16) 0.50708(15) 1.23669(7)
N2A N 1.62699(17) 0.70728(16) 1.14834(8)
C10A C 1.5401(2) 0.90958(19) 1.24546(10)
H19A H 1.509806 0.980533 1.203556
H20A H 1.443501 0.858020 1.267194
C11A C 1.6814(2) 0.79567(19) 1.20956(10)
H21A H 1.716319 0.728618 1.252081
H22A H 1.775650 0.847863 1.184917
C12A C 1.5913(2) 0.5602(2) 1.16903(10)
C13A C 1.5415(2) 0.47188(19) 1.10573(10)
C14A C 1.5258(2) 0.54160(19) 1.02971(9)
C15A C 1.5602(2) 0.69217(19) 1.01184(10)
C16A C 1.6161(2) 0.77947(19) 1.07358(10)
C17A C 1.5405(2) 0.75935(19) 0.93782(10)
H23A H 1.561402 0.859113 0.927049
C18A C 1.5112(2) 0.3234(2) 1.12136(10)
H24A H 1.525057 0.278014 1.171103
loop_
_geom_bond_atom_site_label_1
_geom_bond_atom_site_label_2
_geom_bond_site_symmetry_1
_geom_bond_site_symmetry_2
Mg1 O1 1_555 1_555
O1 H2 1_555 1_555
O2 Mg1 1_555 1_555
O3 Mg1 1_555 1_555
H1 O3 1_555 1_555
H3 O1 1_555 1_555
H4 O3 1_555 1_555
H5 O2 1_555 1_555
H6 O2 1_555 1_555
Mg2 O4 1_555 1_555
O4 H9 1_555 1_555
O5 Mg2 1_555 1_555
O6 Mg2 1_555 1_555
H7 O5 1_555 1_555
H8 O6 1_555 1_555
H10 O4 1_555 1_555
H11 O5 1_555 1_555
H12 O6 1_555 1_555
S1 O7 1_555 1_555
O8 S1 1_555 1_555
O9 S1 1_555 1_555
O10 C7 1_555 1_555
O11 C3 1_555 1_555
N1 C2 1_555 1_555
C1 S1 1_555 1_555
H13 C1 1_555 1_555
H14 C1 1_555 1_555
C2 C1 1_555 1_555
H15 C2 1_555 1_555
H16 C2 1_555 1_555
C3 N1 1_555 1_555
C4 C3 1_555 1_555
C5 C4 1_555 1_555
C6 C5 1_555 1_555
C7 N1 1_555 1_555
C8 C6 1_555 1_555
H17 C8 1_555 1_555
C9 C8 1_555 1_555
H18 C9 1_555 1_555
S2 O12 1_555 1_555
O13 S2 1_555 1_555
O14 S2 1_555 1_555
O15 C16 1_555 1_555
O16 C12 1_555 1_555
N2 C11 1_555 1_555
C10 S2 1_555 1_555
H19 C10 1_555 1_555
H20 C10 1_555 1_555
C11 C10 1_555 1_555
H21 C11 1_555 1_555
H22 C11 1_555 1_555
C12 N2 1_555 1_555
C13 C12 1_555 1_555
C14 C13 1_555 1_555
C15 C14 1_555 1_555
C16 N2 1_555 1_555
C17 C15 1_555 1_555
H23 C17 1_555 1_555
C18 C13 1_555 1_555
H24 C18 1_555 1_555
O1A Mg1 1_555 1_555
O2A Mg1 1_555 1_555
O3A Mg1 1_555 1_555
H1A O3A 1_555 1_555
H2A O1A 1_555 1_555
H3A O1A 1_555 1_555
H4A O3A 1_555 1_555
H5A O2A 1_555 1_555
H6A O2A 1_555 1_555
O4A Mg2 1_555 1_555
O5A Mg2 1_555 1_555
O6A Mg2 1_555 1_555
H7A O5A 1_555 1_555
H8A O6A 1_555 1_555
H9A O4A 1_555 1_555
H10A O4A 1_555 1_555
H11A O5A 1_555 1_555
H12A O6A 1_555 1_555
S1A O7A 1_555 1_555
O8A S1A 1_555 1_555
O9A S1A 1_555 1_555
O10A C7A 1_555 1_555
O11A C3A 1_555 1_555
N1A C2A 1_555 1_555
C1A S1A 1_555 1_555
H13A C1A 1_555 1_555
H14A C1A 1_555 1_555
C2A C1A 1_555 1_555
H15A C2A 1_555 1_555
H16A C2A 1_555 1_555
C3A N1A 1_555 1_555
C4A C9 1_555 1_555
C5A C5 1_555 1_555
C6A C5A 1_555 1_555
C7A N1A 1_555 1_555
C8A C6A 1_555 1_555
H17A C8A 1_555 1_555
C9A C4 1_555 1_555
H18A C9A 1_555 1_555
S2A O12A 1_555 1_555
O13A S2A 1_555 1_555
O14A S2A 1_555 1_555
O15A C16A 1_555 1_555
O16A C12A 1_555 1_555
N2A C11A 1_555 1_555
C10A S2A 1_555 1_555
H19A C10A 1_555 1_555
H20A C10A 1_555 1_555
C11A C10A 1_555 1_555
H21A C11A 1_555 1_555
H22A C11A 1_555 1_555
C12A N2A 1_555 1_555
C13A C12A 1_555 1_555
C14A C14 1_555 1_555
C15A C14A 1_555 1_555
C16A N2A 1_555 1_555
C17A C18 1_555 1_555
H23A C17A 1_555 1_555
C18A C17 1_555 1_555
H24A C18A 1_555 1_555
C6 C7 1_555 1_555
C15 C16 1_555 1_555
C3A C4A 1_555 1_555
C4A C5A 1_555 1_555
C6A C7A 1_555 1_555
C8A C9A 1_555 1_555
C13A C14A 1_555 1_555
C13A C18A 1_555 1_555
C15A C16A 1_555 1_555
C15A C17A 1_555 1_555

#END
