
#######################################################################
#
#                 Cambridge Crystallographic Data Centre
#                                CCDC 
#
#######################################################################
#
# If this CIF has been generated from an entry in the Cambridge 
# Structural Database, then it will include bibliographic, chemical, 
# crystal, experimental, refinement or atomic coordinate data resulting 
# from the CCDC's data processing and validation procedures.
#
#######################################################################

data_WELWIV
_chemical_formula_moiety         'C17 H15 I1 N4 O4'
_chemical_name_systematic        
1-(2,4-Dinitrophenyl)-2-(2-iodo-5-phenylpent-2-en-1-ylidene)hydrazine
_symmetry_cell_setting           triclinic
_symmetry_space_group_name_H-M   'P -1'
_symmetry_Int_Tables_number      2
_space_group_name_Hall           '-P 1'
loop_
_symmetry_equiv_pos_site_id
_symmetry_equiv_pos_as_xyz
1 x,y,z
2 -x,-y,-z
_cell_length_a                   7.1296(10)
_cell_length_b                   7.4865(10)
_cell_length_c                   17.896(3)
_cell_angle_alpha                87.393(2)
_cell_angle_beta                 84.501(2)
_cell_angle_gamma                71.105(2)
_cell_volume                     899.474
_exptl_crystal_colour            red
_exptl_crystal_description       prismatic
_cell_formula_units_Z            2
loop_
_atom_site_label
_atom_site_type_symbol
_atom_site_fract_x
_atom_site_fract_y
_atom_site_fract_z
I1 I 0.76257(3) 0.84894(3) 0.674279(11)
N1 N 0.5339(3) 0.7405(3) 0.81837(13)
N2 N 0.4075(4) 0.7148(4) 0.87772(14)
N3 N 0.1202(3) 0.6694(3) 0.99928(13)
N4 N -0.3971(4) 1.1468(4) 0.87889(16)
O1 O 0.2962(3) 0.5731(4) 1.00392(13)
O2 O -0.0095(3) 0.6610(3) 1.04792(12)
O3 O -0.5182(4) 1.1048(4) 0.92236(17)
O4 O -0.4415(4) 1.2790(4) 0.83391(16)
C1 C 0.7143(4) 0.6376(4) 0.81888(15)
H1 H 0.7521 0.5531 0.8587
C2 C 0.8627(4) 0.6478(4) 0.75931(15)
C3 C 1.0519(4) 0.5393(4) 0.76016(18)
H2 H 1.0812 0.4586 0.8016
C4 C 1.2232(4) 0.5292(4) 0.70386(19)
H3 H 1.3204 0.5693 0.7268
H4 H 1.1769 0.6150 0.6623
C5 C 1.3216(5) 0.3301(5) 0.67427(19)
H5 H 1.3687 0.2455 0.7161
H6 H 1.2226 0.2898 0.6526
C6 C 1.4933(4) 0.3125(4) 0.61619(17)
C7 C 1.6527(5) 0.3663(5) 0.6314(2)
H7 H 1.6519 0.4192 0.6775
C8 C 1.8133(6) 0.3428(7) 0.5792(3)
H8 H 1.9190 0.3812 0.5904
C9 C 1.8200(7) 0.2645(7) 0.5118(3)
H9 H 1.9309 0.2454 0.4775
C10 C 1.6622(9) 0.2144(7) 0.4952(2)
H10 H 1.6637 0.1640 0.4486
C11 C 1.5001(6) 0.2372(5) 0.5466(2)
H11 H 1.3936 0.2014 0.5343
C12 C 0.2133(4) 0.8186(4) 0.88015(16)
C13 C 0.0686(4) 0.7974(4) 0.93686(15)
C14 C -0.1313(4) 0.9044(4) 0.93562(15)
H12 H -0.2248 0.8872 0.9727
C15 C -0.1886(4) 1.0347(4) 0.87960(16)
C16 C -0.0499(5) 1.0619(4) 0.82313(18)
H13 H -0.0912 1.1519 0.7854
C17 C 0.1445(4) 0.9568(4) 0.82354(17)
H14 H 0.2352 0.9759 0.7857
H15 H 0.448(6) 0.632(4) 0.9087(17)
loop_
_geom_bond_atom_site_label_1
_geom_bond_atom_site_label_2
_geom_bond_site_symmetry_1
_geom_bond_site_symmetry_2
I1 C2 1_555 1_555
N1 N2 1_555 1_555
N2 C12 1_555 1_555
N3 O1 1_555 1_555
N4 O3 1_555 1_555
O2 N3 1_555 1_555
O4 N4 1_555 1_555
C1 N1 1_555 1_555
H1 C1 1_555 1_555
C2 C1 1_555 1_555
C3 C2 1_555 1_555
H2 C3 1_555 1_555
C4 C3 1_555 1_555
H3 C4 1_555 1_555
H4 C4 1_555 1_555
C5 C4 1_555 1_555
H5 C5 1_555 1_555
H6 C5 1_555 1_555
C6 C5 1_555 1_555
C7 C6 1_555 1_555
H7 C7 1_555 1_555
C8 C7 1_555 1_555
H8 C8 1_555 1_555
C9 C8 1_555 1_555
H9 C9 1_555 1_555
C10 C9 1_555 1_555
H10 C10 1_555 1_555
C11 C6 1_555 1_555
H11 C11 1_555 1_555
C12 C13 1_555 1_555
C13 N3 1_555 1_555
C14 C13 1_555 1_555
H12 C14 1_555 1_555
C15 N4 1_555 1_555
C16 C15 1_555 1_555
H13 C16 1_555 1_555
C17 C12 1_555 1_555
H14 C17 1_555 1_555
H15 N2 1_555 1_555
C10 C11 1_555 1_555
C14 C15 1_555 1_555
C16 C17 1_555 1_555

#END
