
#######################################################################
#
#                 Cambridge Crystallographic Data Centre
#                                CCDC 
#
#######################################################################
#
# If this CIF has been generated from an entry in the Cambridge 
# Structural Database, then it will include bibliographic, chemical, 
# crystal, experimental, refinement or atomic coordinate data resulting 
# from the CCDC's data processing and validation procedures.
#
#######################################################################

data_WELWER
_chemical_formula_moiety         'C15 H19 I1 N4 O4'
_chemical_name_systematic        
1-(2,4-Dinitrophenyl)-2-(4-iodonon-3-en-5-ylidene)hydrazine
_symmetry_cell_setting           monoclinic
_symmetry_space_group_name_H-M   'P 21/n'
_symmetry_Int_Tables_number      14
_space_group_name_Hall           '-P 2yn'
loop_
_symmetry_equiv_pos_site_id
_symmetry_equiv_pos_as_xyz
1 x,y,z
2 1/2-x,1/2+y,1/2-z
3 -x,-y,-z
4 1/2+x,1/2-y,1/2+z
_cell_length_a                   12.5720(7)
_cell_length_b                   9.3235(5)
_cell_length_c                   15.1484(6)
_cell_angle_alpha                90
_cell_angle_beta                 90.258(4)
_cell_angle_gamma                90
_cell_volume                     1775.6
_exptl_crystal_colour            yellow
_exptl_crystal_description       block
_cell_formula_units_Z            4
loop_
_atom_site_label
_atom_site_type_symbol
_atom_site_fract_x
_atom_site_fract_y
_atom_site_fract_z
I1 I 0.03079(2) 0.36610(3) 1.117278(15)
O1 O 0.6085(2) -0.0010(4) 0.8320(2)
O2 O 0.6122(3) 0.1645(4) 0.9303(3)
O3 O 0.2851(2) -0.2001(3) 0.73851(19)
O4 O 0.1342(2) -0.1093(3) 0.77404(17)
N1 N 0.5652(3) 0.0797(4) 0.8842(2)
N2 N 0.2318(3) -0.1154(3) 0.78144(19)
N3 N 0.1223(2) 0.0729(3) 0.90494(16)
H1 H 0.0847 0.0199 0.8704
N4 N 0.0742(2) 0.1636(3) 0.96401(17)
C1 C 0.4497(3) 0.0730(4) 0.8917(2)
C2 C 0.3943(3) -0.0168(3) 0.8369(2)
H2 H 0.4298 -0.0746 0.7966
C3 C 0.2856(3) -0.0202(3) 0.84248(19)
C4 C 0.2287(3) 0.0683(3) 0.90196(19)
C5 C 0.2906(3) 0.1545(3) 0.9588(2)
H3 H 0.2569 0.2104 1.0011
C6 C 0.3977(3) 0.1577(4) 0.9532(2)
H4 H 0.4368 0.2169 0.9906
C7 C -0.0268(3) 0.1803(3) 0.9582(2)
C8 C -0.0741(3) 0.2800(3) 1.0223(2)
C9 C -0.1738(3) 0.3236(4) 1.0214(2)
H5 H -0.2173 0.2820 0.9787
C10 C -0.2259(3) 0.4309(4) 1.0799(3)
H6 H -0.1985 0.5253 1.0658
H7 H -0.2064 0.4101 1.1406
C11 C -0.3457(4) 0.4343(6) 1.0726(3)
H8 H -0.3660 0.4529 1.0126
H9 H -0.3732 0.5087 1.1100
H10 H -0.3742 0.3434 1.0908
C12 C -0.0957(3) 0.1114(4) 0.8882(2)
H11 H -0.1688 0.1091 0.9083
H12 H -0.0727 0.0132 0.8792
C13 C -0.0903(3) 0.1919(5) 0.8011(2)
H13 H -0.0177 0.1889 0.7798
H14 H -0.1082 0.2916 0.8116
C14 C -0.1638(5) 0.1334(6) 0.7290(3)
H15 H -0.2365 0.1397 0.7498
H16 H -0.1581 0.1953 0.6777
C15 C -0.1449(5) -0.0085(7) 0.7019(4)
H17 H -0.1952 -0.0346 0.6569
H18 H -0.1524 -0.0718 0.7515
H19 H -0.0741 -0.0161 0.6790
loop_
_geom_bond_atom_site_label_1
_geom_bond_atom_site_label_2
_geom_bond_site_symmetry_1
_geom_bond_site_symmetry_2
I1 C8 1_555 1_555
O1 N1 1_555 1_555
O2 N1 1_555 1_555
O3 N2 1_555 1_555
O4 N2 1_555 1_555
N1 C1 1_555 1_555
N2 C3 1_555 1_555
N3 H1 1_555 1_555
N4 N3 1_555 1_555
C1 C2 1_555 1_555
C2 H2 1_555 1_555
C3 C2 1_555 1_555
C4 N3 1_555 1_555
C5 C4 1_555 1_555
H3 C5 1_555 1_555
C6 C1 1_555 1_555
H4 C6 1_555 1_555
C7 N4 1_555 1_555
C8 C7 1_555 1_555
C9 C8 1_555 1_555
H5 C9 1_555 1_555
C10 C9 1_555 1_555
H6 C10 1_555 1_555
H7 C10 1_555 1_555
C11 C10 1_555 1_555
H8 C11 1_555 1_555
H9 C11 1_555 1_555
H10 C11 1_555 1_555
C12 C7 1_555 1_555
H11 C12 1_555 1_555
H12 C12 1_555 1_555
C13 C12 1_555 1_555
H13 C13 1_555 1_555
H14 C13 1_555 1_555
C14 C13 1_555 1_555
H15 C14 1_555 1_555
H16 C14 1_555 1_555
C15 C14 1_555 1_555
H17 C15 1_555 1_555
H18 C15 1_555 1_555
H19 C15 1_555 1_555
C3 C4 1_555 1_555
C5 C6 1_555 1_555

#END
