
#######################################################################
#
#                 Cambridge Crystallographic Data Centre
#                                CCDC 
#
#######################################################################
#
# If this CIF has been generated from an entry in the Cambridge 
# Structural Database, then it will include bibliographic, chemical, 
# crystal, experimental, refinement or atomic coordinate data resulting 
# from the CCDC's data processing and validation procedures.
#
#######################################################################

data_WEMLEI
_chemical_formula_moiety         'C20 H20 Br1 N1 O6'
_chemical_name_systematic        
'(2R,3aS,4S,7S,7aR)-1-[(benzyloxy)carbonyl]-5-bromo-7-ethyl-8-oxo-2,3,3a,4,7,7a-hexahydro-1H-4,7-(epoxymethano)indole-2-carboxylic acid'
_symmetry_cell_setting           monoclinic
_symmetry_space_group_name_H-M   'P 21'
_symmetry_Int_Tables_number      4
_space_group_name_Hall           'P 2yb'
loop_
_symmetry_equiv_pos_site_id
_symmetry_equiv_pos_as_xyz
1 x,y,z
2 -x,1/2+y,-z
_cell_length_a                   9.2859(7)
_cell_length_b                   11.4578(10)
_cell_length_c                   9.2905(8)
_cell_angle_alpha                90
_cell_angle_beta                 98.929(2)
_cell_angle_gamma                90
_cell_volume                     976.493
_exptl_crystal_colour            colorless
_exptl_crystal_description       block
_cell_formula_units_Z            2
loop_
_atom_site_label
_atom_site_type_symbol
_atom_site_fract_x
_atom_site_fract_y
_atom_site_fract_z
Br1 Br 0.97770(4) 0.11245(6) 0.51181(4)
O1 O 0.6639(2) 0.24032(16) 0.7077(2)
O2 O 0.4324(2) 0.27500(18) 0.6302(2)
O3 O 0.5217(3) -0.1855(2) 0.9807(2)
O4 O 0.5353(3) -0.0574(2) 1.1628(2)
H1 H 0.543(4) -0.112(3) 1.212(4)
O5 O 0.2530(2) -0.07406(19) 0.8413(2)
O6 O 0.3191(2) -0.1354(2) 0.6297(2)
N1 N 0.4571(2) -0.0040(2) 0.7760(2)
C1 C 0.0974(5) -0.0800(4) 1.0676(6)
H2 H 0.1732 -0.0270 1.0672
C2 C 0.0216(6) -0.0826(5) 1.1836(7)
H3 H 0.0478 -0.0312 1.2607
C3 C -0.0894(6) -0.1575(5) 1.1890(7)
H4 H -0.1409 -0.1566 1.2672
C4 C -0.1240(4) -0.2335(6) 1.0787(7)
H5 H -0.1985 -0.2872 1.0821
C5 C -0.0495(4) -0.2329(5) 0.9595(5)
H6 H -0.0753 -0.2857 0.8839
C6 C 0.0618(4) -0.1548(3) 0.9528(4)
C7 C 0.1387(4) -0.1582(3) 0.8222(4)
H7 H 0.1785 -0.2355 0.8118
H8 H 0.0705 -0.1408 0.7347
C8 C 0.3415(3) -0.0781(3) 0.7387(3)
C9 C 0.5685(3) 0.0041(2) 0.6834(3)
H9 H 0.5842 -0.0734 0.6438
C10 C 0.5346(3) 0.0942(2) 0.5535(3)
C11 C 0.6678(3) 0.0900(3) 0.4777(3)
H10 H 0.6634 0.0711 0.3798
C12 C 0.7888(3) 0.1153(3) 0.5625(3)
C13 C 0.7723(3) 0.1471(2) 0.7152(3)
H11 H 0.8655 0.1712 0.7717
C14 C 0.7079(3) 0.0422(3) 0.7852(3)
H12 H 0.7785 -0.0220 0.7988
C15 C 0.6605(3) 0.0751(3) 0.9317(3)
H13 H 0.7287 0.0440 1.0122
H14 H 0.6566 0.1593 0.9419
C16 C 0.5096(3) 0.0221(2) 0.9302(3)
H15 H 0.4449 0.0788 0.9667
C17 C 0.5213(3) -0.0876(3) 1.0235(3)
C18 C 0.5360(3) 0.2118(3) 0.6295(3)
C19 C 0.3916(3) 0.0716(3) 0.4512(3)
H16 H 0.3939 -0.0070 0.4126
H17 H 0.3120 0.0754 0.5073
C20 C 0.3606(4) 0.1562(3) 0.3246(4)
H18 H 0.2695 0.1364 0.2659
H19 H 0.4373 0.1517 0.2665
H20 H 0.3554 0.2342 0.3613
loop_
_geom_bond_atom_site_label_1
_geom_bond_atom_site_label_2
_geom_bond_site_symmetry_1
_geom_bond_site_symmetry_2
Br1 C12 1_555 1_555
O1 C13 1_555 1_555
O2 C18 1_555 1_555
O3 C17 1_555 1_555
O4 H1 1_555 1_555
O5 C7 1_555 1_555
O6 C8 1_555 1_555
N1 C8 1_555 1_555
C1 H2 1_555 1_555
C2 C1 1_555 1_555
H3 C2 1_555 1_555
C3 C2 1_555 1_555
H4 C3 1_555 1_555
C4 C3 1_555 1_555
H5 C4 1_555 1_555
C5 C4 1_555 1_555
H6 C5 1_555 1_555
C6 C1 1_555 1_555
C7 C6 1_555 1_555
H7 C7 1_555 1_555
H8 C7 1_555 1_555
C8 O5 1_555 1_555
C9 N1 1_555 1_555
H9 C9 1_555 1_555
C10 C9 1_555 1_555
C11 C10 1_555 1_555
H10 C11 1_555 1_555
C12 C11 1_555 1_555
C13 C12 1_555 1_555
H11 C13 1_555 1_555
C14 C9 1_555 1_555
H12 C14 1_555 1_555
C15 C14 1_555 1_555
H13 C15 1_555 1_555
H14 C15 1_555 1_555
C16 N1 1_555 1_555
H15 C16 1_555 1_555
C17 O4 1_555 1_555
C18 O1 1_555 1_555
C19 C10 1_555 1_555
H16 C19 1_555 1_555
H17 C19 1_555 1_555
C20 C19 1_555 1_555
H18 C20 1_555 1_555
H19 C20 1_555 1_555
H20 C20 1_555 1_555
C5 C6 1_555 1_555
C10 C18 1_555 1_555
C13 C14 1_555 1_555
C15 C16 1_555 1_555
C16 C17 1_555 1_555

#END
