
#######################################################################
#
#                 Cambridge Crystallographic Data Centre
#                                CCDC 
#
#######################################################################
#
# If this CIF has been generated from an entry in the Cambridge 
# Structural Database, then it will include bibliographic, chemical, 
# crystal, experimental, refinement or atomic coordinate data resulting 
# from the CCDC's data processing and validation procedures.
#
#######################################################################

data_WEMPUC
_chemical_formula_moiety         'C17 H13 N1 O2'
_chemical_name_systematic        
2-[(furan-2-yl)methylidene]-2,3,4,9-tetrahydro-1H-carbazol-1-one
_symmetry_cell_setting           monoclinic
_symmetry_space_group_name_H-M   'P 21/c'
_symmetry_Int_Tables_number      14
_space_group_name_Hall           '-P 2ybc'
loop_
_symmetry_equiv_pos_site_id
_symmetry_equiv_pos_as_xyz
1 x,y,z
2 -x,1/2+y,1/2-z
3 -x,-y,-z
4 x,1/2-y,1/2+z
_cell_length_a                   15.353(3)
_cell_length_b                   6.3143(13)
_cell_length_c                   26.941(6)
_cell_angle_alpha                90
_cell_angle_beta                 96.446(4)
_cell_angle_gamma                90
_cell_volume                     2595.24
_exptl_crystal_colour            green
_exptl_crystal_description       plate
_chemical_melting_point          '493 K'
_cell_formula_units_Z            8
loop_
_atom_site_label
_atom_site_type_symbol
_atom_site_fract_x
_atom_site_fract_y
_atom_site_fract_z
C1 C 0.61376(19) -0.2774(5) 0.60261(12)
C2 C 0.6086(2) -0.3856(5) 0.64790(12)
H1 H 0.578325 -0.516373 0.649057
C3 C 0.6495(2) -0.2924(5) 0.69026(12)
H2 H 0.647151 -0.360851 0.721474
C4 C 0.6952(2) -0.0974(6) 0.68913(13)
H3 H 0.722265 -0.038237 0.719436
C5 C 0.7008(2) 0.0072(5) 0.64487(12)
H4 H 0.732284 0.136616 0.644239
C6 C 0.65914(18) -0.0813(5) 0.60055(12)
C7 C 0.65038(19) -0.0186(5) 0.54922(12)
C8 C 0.6917(2) 0.1602(5) 0.52424(12)
H5 H 0.754404 0.127074 0.522669
H6 H 0.688716 0.289636 0.544707
C9 C 0.6481(2) 0.2046(5) 0.47127(12)
H7 H 0.604123 0.318043 0.473396
H8 H 0.693385 0.260999 0.451421
C10 C 0.60272(19) 0.0196(5) 0.44242(11)
C11 C 0.57529(19) -0.1702(5) 0.46952(12)
C12 C 0.60027(18) -0.1724(5) 0.52269(11)
C13 C 0.58102(19) 0.0203(5) 0.39250(12)
H9 H 0.553651 -0.104646 0.378684
C14 C 0.5942(2) 0.1873(6) 0.35736(12)
C15 C 0.6212(2) 0.3920(5) 0.35988(13)
H10 H 0.640850 0.468177 0.389436
C16 C 0.6147(2) 0.4717(6) 0.31037(14)
H11 H 0.629385 0.610371 0.300397
C17 C 0.5837(2) 0.3117(7) 0.28029(13)
H12 H 0.572466 0.321015 0.244960
N1 N 0.57937(16) -0.3319(4) 0.55481(9)
H13 H 0.539(3) -0.439(7) 0.5461(17)
O1 O 0.53202(14) -0.3178(3) 0.44786(8)
O2 O 0.57065(15) 0.1343(4) 0.30757(8)
C18 C 0.93890(19) 0.1893(5) 0.61166(12)
C19 C 0.9632(2) 0.0632(5) 0.65399(12)
H14 H 0.994298 -0.065812 0.651684
C20 C 0.9400(2) 0.1351(6) 0.69894(13)
H15 H 0.954511 0.052622 0.728186
C21 C 0.8948(2) 0.3294(6) 0.70257(13)
H16 H 0.880532 0.375123 0.734269
C22 C 0.8713(2) 0.4529(5) 0.66135(12)
H17 H 0.840757 0.582267 0.664425
C23 C 0.89304(19) 0.3854(5) 0.61422(12)
C24 C 0.87868(19) 0.4659(5) 0.56452(12)
C25 C 0.8270(2) 0.6529(5) 0.54360(12)
H18 H 0.843140 0.777687 0.564918
H19 H 0.763928 0.624526 0.545017
C26 C 0.8415(2) 0.7065(5) 0.48933(12)
H20 H 0.786330 0.766923 0.472647
H21 H 0.886640 0.818814 0.490275
C27 C 0.86940(18) 0.5264(5) 0.45686(12)
C28 C 0.91238(19) 0.3342(5) 0.48089(12)
C29 C 0.91589(18) 0.3218(5) 0.53430(12)
C30 C 0.86481(19) 0.5329(5) 0.40647(12)
H22 H 0.884312 0.409242 0.390938
C31 C 0.8343(2) 0.7024(5) 0.37323(12)
C32 C 0.8067(2) 0.9061(6) 0.37738(13)
H23 H 0.798959 0.978925 0.407429
C33 C 0.7916(2) 0.9893(6) 0.32760(14)
H24 H 0.772148 1.128015 0.318257
C34 C 0.8102(2) 0.8329(6) 0.29687(14)
H25 H 0.805718 0.844498 0.261516
N2 N 0.95203(17) 0.1539(4) 0.56271(10)
H26 H 0.985(2) 0.049(6) 0.5523(12)
O3 O 0.94238(15) 0.1899(4) 0.45586(8)
O4 O 0.83651(15) 0.6547(4) 0.32307(8)
loop_
_geom_bond_atom_site_label_1
_geom_bond_atom_site_label_2
_geom_bond_site_symmetry_1
_geom_bond_site_symmetry_2
C1 C2 1_555 1_555
C2 H1 1_555 1_555
C3 C2 1_555 1_555
H2 C3 1_555 1_555
C4 C3 1_555 1_555
H3 C4 1_555 1_555
C5 C4 1_555 1_555
H4 C5 1_555 1_555
C6 C1 1_555 1_555
C7 C6 1_555 1_555
C8 C7 1_555 1_555
H5 C8 1_555 1_555
H6 C8 1_555 1_555
C9 C8 1_555 1_555
H7 C9 1_555 1_555
H8 C9 1_555 1_555
C10 C9 1_555 1_555
C11 C10 1_555 1_555
C12 C7 1_555 1_555
C13 C10 1_555 1_555
H9 C13 1_555 1_555
C14 C13 1_555 1_555
C15 C14 1_555 1_555
H10 C15 1_555 1_555
C16 C15 1_555 1_555
H11 C16 1_555 1_555
C17 C16 1_555 1_555
H12 C17 1_555 1_555
N1 C1 1_555 1_555
H13 N1 1_555 1_555
O1 C11 1_555 1_555
O2 C14 1_555 1_555
C18 C19 1_555 1_555
C19 H14 1_555 1_555
C20 C19 1_555 1_555
H15 C20 1_555 1_555
C21 C20 1_555 1_555
H16 C21 1_555 1_555
C22 C21 1_555 1_555
H17 C22 1_555 1_555
C23 C18 1_555 1_555
C24 C23 1_555 1_555
C25 C24 1_555 1_555
H18 C25 1_555 1_555
H19 C25 1_555 1_555
C26 C25 1_555 1_555
H20 C26 1_555 1_555
H21 C26 1_555 1_555
C27 C26 1_555 1_555
C28 C27 1_555 1_555
C29 C24 1_555 1_555
C30 C27 1_555 1_555
H22 C30 1_555 1_555
C31 C30 1_555 1_555
C32 C31 1_555 1_555
H23 C32 1_555 1_555
C33 C32 1_555 1_555
H24 C33 1_555 1_555
C34 C33 1_555 1_555
H25 C34 1_555 1_555
N2 C18 1_555 1_555
H26 N2 1_555 1_555
O3 C28 1_555 1_555
O4 C31 1_555 1_555
C5 C6 1_555 1_555
C11 C12 1_555 1_555
C12 N1 1_555 1_555
C17 O2 1_555 1_555
C22 C23 1_555 1_555
C28 C29 1_555 1_555
C29 N2 1_555 1_555
C34 O4 1_555 1_555

#END
