
#######################################################################
#
#                 Cambridge Crystallographic Data Centre
#                                CCDC 
#
#######################################################################
#
# If this CIF has been generated from an entry in the Cambridge 
# Structural Database, then it will include bibliographic, chemical, 
# crystal, experimental, refinement or atomic coordinate data resulting 
# from the CCDC's data processing and validation procedures.
#
#######################################################################

data_WEMRAK
_chemical_name_common            
"4'-allyl-4,5,6,7,2',7'-hexachlorofluorescein allyl ester unknown solvate"
_chemical_formula_moiety         'C26 H14 Cl6 O5'
_chemical_name_systematic        
'prop-2-en-1-yl 2,3,4,5-tetrachloro-6-[2,7-dichloro-6-hydroxy-3-oxo-4-(prop-2-en-1-yl)-3H-xanthen-9-yl]benzoate unknown solvate'
_symmetry_cell_setting           tetragonal
_symmetry_space_group_name_H-M   'I 41/a'
_symmetry_Int_Tables_number      88
_space_group_name_Hall           '-I 4ad'
loop_
_symmetry_equiv_pos_site_id
_symmetry_equiv_pos_as_xyz
1 x,y,z
2 1/2-x,-y,1/2+z
3 3/4-y,1/4+x,1/4+z
4 3/4+y,3/4-x,3/4+z
5 1/2+x,1/2+y,1/2+z
6 -x,1/2-y,z
7 1/4-y,3/4+x,3/4+z
8 1/4+y,1/4-x,1/4+z
9 -x,-y,-z
10 1/2+x,y,1/2-z
11 1/4+y,3/4-x,3/4-z
12 1/4-y,1/4+x,1/4-z
13 1/2-x,1/2-y,1/2-z
14 x,1/2+y,-z
15 3/4+y,1/4-x,1/4-z
16 3/4-y,3/4+x,3/4-z
_cell_length_a                   41.432(2)
_cell_length_b                   41.432(2)
_cell_length_c                   7.7844(6)
_cell_angle_alpha                90
_cell_angle_beta                 90
_cell_angle_gamma                90
_cell_volume                     13362.8
_exptl_crystal_colour            red
_exptl_crystal_description       prism
_cell_formula_units_Z            16
loop_
_atom_site_label
_atom_site_type_symbol
_atom_site_fract_x
_atom_site_fract_y
_atom_site_fract_z
Cl1 Cl 0.39543(2) 0.48283(2) 0.58350(11)
Cl2 Cl 0.27839(2) 0.26500(2) 0.42276(14)
Cl3 Cl 0.31144(2) 0.41091(2) 0.23233(8)
Cl4 Cl 0.24970(2) 0.45200(2) 0.29555(8)
Cl5 Cl 0.21385(2) 0.44703(2) 0.64520(9)
Cl6 Cl 0.23918(2) 0.40045(2) 0.92801(9)
O1 O 0.45019(5) 0.44372(5) 0.4967(4)
H1 H 0.4637(10) 0.4339(10) 0.463(5)
O2 O 0.39550(4) 0.34387(4) 0.4569(3)
O3 O 0.34551(5) 0.24470(5) 0.3600(4)
C1 C 0.42382(6) 0.42571(6) 0.5078(4)
C2 C 0.39447(6) 0.44152(6) 0.5503(4)
C3 C 0.36604(6) 0.42505(6) 0.5618(3)
H2 H 0.346796 0.436173 0.591771
C4 C 0.36511(6) 0.39153(6) 0.5293(3)
C5 C 0.39438(6) 0.37617(6) 0.4901(4)
C6 C 0.42330(6) 0.39261(7) 0.4794(4)
H3 H 0.442660 0.381395 0.452782
C7 C 0.34334(7) 0.27382(6) 0.4012(5)
C8 C 0.37143(7) 0.29388(6) 0.4114(5)
C9 C 0.36809(6) 0.32553(6) 0.4539(4)
C10 C 0.33741(5) 0.34042(5) 0.4904(3)
C11 C 0.30949(6) 0.32027(6) 0.4812(3)
H4 H 0.288808 0.329055 0.505540
C12 C 0.31228(6) 0.28889(6) 0.4383(4)
C13 C 0.33624(5) 0.37283(6) 0.5269(3)
C14 C 0.30471(5) 0.38966(5) 0.5564(3)
C15 C 0.29226(5) 0.40932(5) 0.4272(3)
C16 C 0.26413(5) 0.42701(5) 0.4541(3)
C17 C 0.24778(5) 0.42433(6) 0.6088(3)
C18 C 0.25919(6) 0.40341(6) 0.7354(3)
C19 C 0.28768(6) 0.38606(6) 0.7089(3)
O4 O 0.32942(12) 0.37441(15) 0.9111(6)
O5 O 0.28648(16) 0.34190(13) 0.8881(7)
C20 C 0.30476(16) 0.36766(16) 0.8496(8)
C21 C 0.2973(2) 0.32063(19) 1.0245(10)
H5 H 0.309106 0.333258 1.112086
H6 H 0.278333 0.310548 1.080631
C22 C 0.3178(2) 0.29612(19) 0.9564(11)
H7 H 0.337240 0.303079 0.903352
C23 C 0.3123(3) 0.2639(2) 0.9600(14)
H8 H 0.293156 0.255742 1.011623
H9 H 0.327502 0.249450 0.910923
C24 C 0.40398(15) 0.28020(16) 0.3449(9)
H10 H 0.400391 0.264945 0.248897
H11 H 0.418248 0.297825 0.304871
C25 C 0.4188(4) 0.2628(3) 0.4996(15)
H12 H 0.405761 0.246742 0.551741
C26 C 0.4489(5) 0.2677(7) 0.573(4)
H13 H 0.463067 0.283467 0.526681
H14 H 0.455306 0.255248 0.669565
O6? O 0.32477(13) 0.36512(17) 0.9121(7)
O7? O 0.27778(16) 0.33861(12) 0.8719(7)
C27? C 0.29915(17) 0.36200(18) 0.8455(8)
C28? C 0.2864(2) 0.3138(2) 1.0020(11)
H15? H 0.302368 0.323054 1.082861
H16? H 0.266885 0.308056 1.068539
C29? C 0.2994(4) 0.2857(4) 0.928(2)
H17? H 0.285565 0.271263 0.867772
C30? C 0.3325(4) 0.2785(5) 0.942(3)
H18? H 0.346502 0.292773 1.001980
H19? H 0.340941 0.259395 0.891333
C31? C 0.40402(15) 0.27709(16) 0.4069(9)
H20? H 0.419940 0.288767 0.478513
H21? H 0.402203 0.254619 0.448981
C32? C 0.4134(3) 0.2777(4) 0.2274(16)
H22? H 0.414367 0.296477 0.157479
C33? C 0.4210(7) 0.2454(6) 0.171(4)
H23? H 0.419396 0.227889 0.249686
H24? H 0.427605 0.241649 0.056278
loop_
_geom_bond_atom_site_label_1
_geom_bond_atom_site_label_2
_geom_bond_site_symmetry_1
_geom_bond_site_symmetry_2
Cl1 C2 1_555 1_555
Cl2 C12 1_555 1_555
Cl3 C15 1_555 1_555
Cl4 C16 1_555 1_555
Cl5 C17 1_555 1_555
Cl6 C18 1_555 1_555
O1 H1 1_555 1_555
O2 C5 1_555 1_555
O3 C7 1_555 1_555
C1 O1 1_555 1_555
C2 C1 1_555 1_555
C3 C2 1_555 1_555
H2 C3 1_555 1_555
C4 C3 1_555 1_555
C5 C4 1_555 1_555
C6 C1 1_555 1_555
H3 C6 1_555 1_555
C7 C8 1_555 1_555
C8 C9 1_555 1_555
C9 O2 1_555 1_555
C10 C9 1_555 1_555
C11 C10 1_555 1_555
H4 C11 1_555 1_555
C12 C7 1_555 1_555
C13 C4 1_555 1_555
C14 C13 1_555 1_555
C15 C14 1_555 1_555
C16 C15 1_555 1_555
C17 C16 1_555 1_555
C18 C17 1_555 1_555
C19 C14 1_555 1_555
O4 C20 1_555 1_555
O5 C20 1_555 1_555
C20 C19 1_555 1_555
C21 O5 1_555 1_555
H5 C21 1_555 1_555
H6 C21 1_555 1_555
C22 C21 1_555 1_555
H7 C22 1_555 1_555
C23 C22 1_555 1_555
H8 C23 1_555 1_555
H9 C23 1_555 1_555
C24 C8 1_555 1_555
H10 C24 1_555 1_555
H11 C24 1_555 1_555
C25 C24 1_555 1_555
H12 C25 1_555 1_555
C26 C25 1_555 1_555
H13 C26 1_555 1_555
H14 C26 1_555 1_555
C5 C6 1_555 1_555
C10 C13 1_555 1_555
C11 C12 1_555 1_555
C18 C19 1_555 1_555

#END
