
#######################################################################
#
#                 Cambridge Crystallographic Data Centre
#                                CCDC 
#
#######################################################################
#
# If this CIF has been generated from an entry in the Cambridge 
# Structural Database, then it will include bibliographic, chemical, 
# crystal, experimental, refinement or atomic coordinate data resulting 
# from the CCDC's data processing and validation procedures.
#
#######################################################################

data_WEMVUG
_chemical_formula_moiety         'C15 H14 N2 O2'
_chemical_name_systematic        
6-Diazo-2,2-dimethyl-3,4,5,6-tetrahydro-2H-benzo(h)cromen-5-one
_symmetry_cell_setting           orthorhombic
_symmetry_space_group_name_H-M   'A b a 2'
_symmetry_Int_Tables_number      41
_space_group_name_Hall           'A 2 -2ab'
loop_
_symmetry_equiv_pos_site_id
_symmetry_equiv_pos_as_xyz
1 x,y,z
2 -x,-y,z
3 1/2+x,1/2-y,z
4 1/2-x,1/2+y,z
5 x,1/2+y,1/2+z
6 -x,1/2-y,1/2+z
7 1/2+x,-y,1/2+z
8 1/2-x,y,1/2+z
_cell_length_a                   22.2207(8)
_cell_length_b                   17.9666(6)
_cell_length_c                   6.4983(2)
_cell_angle_alpha                90
_cell_angle_beta                 90
_cell_angle_gamma                90
_cell_volume                     2594.32
_exptl_crystal_colour            orange
_exptl_crystal_description       block
_chemical_melting_point          '433-435 K'
_cell_formula_units_Z            8
_exptl_crystal_recrystallization_method ethanol
loop_
_atom_site_label
_atom_site_type_symbol
_atom_site_fract_x
_atom_site_fract_y
_atom_site_fract_z
C1 C 0.1133(4) 0.0651(5) 0.2414(13)
H2 H 0.0989 0.0132 0.2540
C2 C 0.06860(8) 0.11677(11) 0.3443(11)
C4 C 0.0083(4) 0.1190(5) 0.2447(17)
C6 C 0.0632(6) 0.1035(7) 0.5758(13)
C8 C 0.17566(8) 0.07146(11) 0.3371(11)
H11 H 0.1754 0.0505 0.4779
H12 H 0.2053 0.0435 0.2536
C9 C 0.19231(8) 0.15280(10) 0.3437(9)
C10 C 0.25550(8) 0.17128(10) 0.3435(9)
C11 C 0.26861(8) 0.25090(10) 0.3441(10)
C12 C 0.22387(8) 0.30907(10) 0.3455(9)
C13 C 0.23759(9) 0.38508(10) 0.3456(10)
H13 H 0.2784 0.4009 0.3457
C14 C 0.19170(9) 0.43741(12) 0.3457(10)
H14 H 0.2012 0.4890 0.3449
C15 C 0.13214(9) 0.41485(12) 0.3470(11)
H15 H 0.1010 0.4511 0.3480
C16 C 0.11761(9) 0.33965(11) 0.3468(11)
H16 H 0.0767 0.3245 0.3472
C17 C 0.16357(8) 0.28630(10) 0.3462(9)
C18 C 0.14981(8) 0.20683(10) 0.3465(9)
N1 N 0.32694(7) 0.26706(9) 0.3451(8)
N2 N 0.37666(8) 0.27636(11) 0.3436(11)
O1 O 0.08993(5) 0.19374(7) 0.3477(9)
O2 O 0.29636(6) 0.12395(7) 0.3419(6)
H1? H 0.1157 0.0774 0.0931
C3? C 0.0638(5) 0.1029(6) 0.1097(13)
H3? H 0.0313 0.1335 0.0527
H4? H 0.0551 0.0502 0.0845
H5? H 0.1019 0.1163 0.0436
H6? H -0.0178 0.1534 0.3202
H7? H -0.0094 0.0691 0.2462
H8? H 0.0126 0.1361 0.1022
C5? C 0.1109(5) 0.0626(7) 0.4488(14)
H9? H 0.0959 0.0111 0.4340
H10? H 0.1143 0.0743 0.5972
C7? C 0.0060(5) 0.1152(6) 0.4494(14)
loop_
_geom_bond_atom_site_label_1
_geom_bond_atom_site_label_2
_geom_bond_site_symmetry_1
_geom_bond_site_symmetry_2
C1 H2 1_555 1_555
C2 C1 1_555 1_555
C4 C2 1_555 1_555
C6 C2 1_555 1_555
C8 C1 1_555 1_555
H11 C8 1_555 1_555
H12 C8 1_555 1_555
C9 C8 1_555 1_555
C10 C9 1_555 1_555
C11 C10 1_555 1_555
C12 C11 1_555 1_555
C13 C12 1_555 1_555
H13 C13 1_555 1_555
C14 C13 1_555 1_555
H14 C14 1_555 1_555
C15 C14 1_555 1_555
H15 C15 1_555 1_555
C16 C15 1_555 1_555
H16 C16 1_555 1_555
C17 C12 1_555 1_555
C18 C9 1_555 1_555
N1 C11 1_555 1_555
N2 N1 1_555 1_555
O1 C2 1_555 1_555
O2 C10 1_555 1_555
C16 C17 1_555 1_555
C17 C18 1_555 1_555
C18 O1 1_555 1_555

#END
