
#######################################################################
#
#                 Cambridge Crystallographic Data Centre
#                                CCDC 
#
#######################################################################
#
# If this CIF has been generated from an entry in the Cambridge 
# Structural Database, then it will include bibliographic, chemical, 
# crystal, experimental, refinement or atomic coordinate data resulting 
# from the CCDC's data processing and validation procedures.
#
#######################################################################

data_WEMWIX
_chemical_formula_moiety         'C30 H21 B1 F2 N6'
_chemical_name_systematic        
'[1-(2-{[5-(1H-benzimidazol-1-yl)-1H-pyrrol-2-yl](4-methylphenyl)methylidene}-2H-pyrrol-5-yl)-1H-benzimidazolato](difluoro)boron'
_symmetry_cell_setting           monoclinic
_symmetry_space_group_name_H-M   'P 21/n'
_symmetry_Int_Tables_number      14
_space_group_name_Hall           '-P 2yn'
loop_
_symmetry_equiv_pos_site_id
_symmetry_equiv_pos_as_xyz
1 x,y,z
2 1/2-x,1/2+y,1/2-z
3 -x,-y,-z
4 1/2+x,1/2-y,1/2+z
_cell_length_a                   11.0347(3)
_cell_length_b                   13.6496(4)
_cell_length_c                   17.0188(6)
_cell_angle_alpha                90
_cell_angle_beta                 106.691(3)
_cell_angle_gamma                90
_cell_volume                     2455.36
_exptl_crystal_colour            'dark red'
_exptl_crystal_description       irregular
_cell_formula_units_Z            4
loop_
_atom_site_label
_atom_site_type_symbol
_atom_site_fract_x
_atom_site_fract_y
_atom_site_fract_z
F1 F 0.49417(13) 0.51244(12) 0.25381(9)
F2 F 0.62657(18) 0.63988(9) 0.26245(9)
N1 N 0.60185(14) 0.57793(11) 0.38715(9)
N2 N 0.71422(14) 0.47922(10) 0.30654(9)
N3 N 0.71542(16) 0.47015(12) 0.16488(9)
N4 N 0.45189(14) 0.71051(12) 0.35589(10)
N5 N 0.29435(17) 0.75856(14) 0.24692(11)
N6 N 0.6925(2) 0.56752(14) 0.05528(12)
C1 C 0.75412(17) 0.45299(12) 0.45326(11)
C2 C 0.67125(18) 0.52920(13) 0.45785(11)
C3 C 0.85315(18) 0.35693(13) 0.35934(12)
H1 H 0.9042 0.3130 0.3960
C4 C 0.77378(17) 0.42820(12) 0.37844(11)
C5 C 0.75585(17) 0.43919(13) 0.24636(11)
C6 C 0.82216(17) 0.39921(13) 0.52867(11)
C7 C 0.44551(16) 0.81205(13) 0.36168(11)
C8 C 0.51769(18) 0.87907(15) 0.41615(12)
H2 H 0.5836 0.8596 0.4611
C9 C 0.80859(19) 0.29815(14) 0.53416(12)
H3 H 0.7580 0.2636 0.4896
C10 C 0.84204(18) 0.36354(14) 0.27767(12)
H4 H 0.8836 0.3252 0.2484
C11 C 0.53410(17) 0.64789(13) 0.41160(12)
C12 C 0.7171(2) 0.56429(15) 0.13385(14)
H5 H 0.7345 0.6198 0.1669
C13 C 0.90102(19) 0.44832(14) 0.59561(12)
H6 H 0.9120 0.5157 0.5930
C14 C 0.34710(18) 0.84009(15) 0.29315(12)
C15 C 0.68824(17) 0.40799(15) 0.09675(11)
C16 C 0.94704(18) 0.29783(15) 0.67259(12)
C17 C 0.5581(2) 0.64680(15) 0.49655(13)
H7 H 0.5238 0.6886 0.5277
C18 C 0.6421(2) 0.57232(15) 0.52518(12)
H8 H 0.6743 0.5535 0.5797
C19 C 0.8699(2) 0.24901(14) 0.60551(14)
H9 H 0.8591 0.1817 0.6085
C20 C 0.96297(19) 0.39786(16) 0.66586(13)
H10 H 1.0166 0.4317 0.7096
C21 C 0.67654(18) 0.30730(16) 0.08948(12)
H11 H 0.6869 0.2667 0.1348
C22 C 0.67269(19) 0.47040(18) 0.02944(13)
C23 C 0.35818(19) 0.68526(17) 0.28587(14)
H12 H 0.3422 0.6208 0.2682
C24 C 0.4865(2) 0.97697(16) 0.40030(14)
H13 H 0.5341 1.0246 0.4347
C25 C 0.3159(2) 0.93843(17) 0.28014(14)
H14 H 0.2491 0.9582 0.2359
C26 C 1.0105(2) 0.2442(2) 0.75094(15)
H15 H 0.9667 0.2578 0.7910
H16 H 1.0968 0.2655 0.7714
H17 H 1.0085 0.1750 0.7404
C27 C 0.3860(2) 1.00555(17) 0.33426(15)
H18 H 0.3659 1.0717 0.3266
C28 C 0.6484(2) 0.27056(19) 0.01029(14)
H19 H 0.6396 0.2033 0.0022
C29 C 0.6434(2) 0.4307(2) -0.04922(14)
H20 H 0.6312 0.4709 -0.0950
B1 B 0.6064(2) 0.55508(15) 0.29904(13)
C30 C 0.6331(2) 0.3315(2) -0.05717(14)
H21 H 0.6154 0.3039 -0.1092
loop_
_geom_bond_atom_site_label_1
_geom_bond_atom_site_label_2
_geom_bond_site_symmetry_1
_geom_bond_site_symmetry_2
F1 B1 1_555 1_555
F2 B1 1_555 1_555
N1 C2 1_555 1_555
N2 C4 1_555 1_555
N3 C5 1_555 1_555
N4 C7 1_555 1_555
N5 C14 1_555 1_555
N6 C12 1_555 1_555
C1 C2 1_555 1_555
C2 C18 1_555 1_555
C3 H1 1_555 1_555
C4 C1 1_555 1_555
C5 N2 1_555 1_555
C6 C1 1_555 1_555
C7 C8 1_555 1_555
C8 H2 1_555 1_555
C9 C6 1_555 1_555
H3 C9 1_555 1_555
C10 C3 1_555 1_555
H4 C10 1_555 1_555
C11 N1 1_555 1_555
C12 N3 1_555 1_555
H5 C12 1_555 1_555
C13 C6 1_555 1_555
H6 C13 1_555 1_555
C14 C7 1_555 1_555
C15 N3 1_555 1_555
C16 C19 1_555 1_555
C17 C11 1_555 1_555
H7 C17 1_555 1_555
C18 C17 1_555 1_555
H8 C18 1_555 1_555
C19 C9 1_555 1_555
H9 C19 1_555 1_555
C20 C13 1_555 1_555
H10 C20 1_555 1_555
C21 C15 1_555 1_555
H11 C21 1_555 1_555
C22 N6 1_555 1_555
C23 N4 1_555 1_555
H12 C23 1_555 1_555
C24 C8 1_555 1_555
H13 C24 1_555 1_555
C25 C14 1_555 1_555
H14 C25 1_555 1_555
C26 C16 1_555 1_555
H15 C26 1_555 1_555
H16 C26 1_555 1_555
H17 C26 1_555 1_555
C27 C24 1_555 1_555
H18 C27 1_555 1_555
C28 C21 1_555 1_555
H19 C28 1_555 1_555
C29 C22 1_555 1_555
H20 C29 1_555 1_555
B1 N1 1_555 1_555
C30 C28 1_555 1_555
H21 C30 1_555 1_555
N2 B1 1_555 1_555
N4 C11 1_555 1_555
N5 C23 1_555 1_555
C3 C4 1_555 1_555
C5 C10 1_555 1_555
C15 C22 1_555 1_555
C16 C20 1_555 1_555
C25 C27 1_555 1_555
C29 C30 1_555 1_555

#END
