
#######################################################################
#
#                 Cambridge Crystallographic Data Centre
#                                CCDC 
#
#######################################################################
#
# If this CIF has been generated from an entry in the Cambridge 
# Structural Database, then it will include bibliographic, chemical, 
# crystal, experimental, refinement or atomic coordinate data resulting 
# from the CCDC's data processing and validation procedures.
#
#######################################################################

data_WEMYAP
_chemical_formula_moiety         'C29 H21 N5 O4'
_chemical_name_systematic        
bis(2-Hydroxy-1-naphthaldehyde)-2,6-pyridinedicarbohydrazone
_symmetry_cell_setting           monoclinic
_symmetry_space_group_name_H-M   'C 2/c'
_symmetry_Int_Tables_number      15
_space_group_name_Hall           '-C 2yn'
loop_
_symmetry_equiv_pos_site_id
_symmetry_equiv_pos_as_xyz
1 x,y,z
2 1/2+x,1/2+y,z
3 -x,y,1/2-z
4 1/2-x,1/2+y,1/2-z
5 -x,-y,-z
6 1/2-x,1/2-y,-z
7 x,-y,1/2+z
8 1/2+x,1/2-y,1/2+z
_cell_length_a                   18.720(4)
_cell_length_b                   15.110(3)
_cell_length_c                   8.5745(18)
_cell_angle_alpha                90
_cell_angle_beta                 94.249(4)
_cell_angle_gamma                90
_cell_volume                     2418.71
_exptl_crystal_colour            'deep red'
_exptl_crystal_description       prism
_cell_formula_units_Z            4
_exptl_crystal_preparation       fluorescent
loop_
_atom_site_label
_atom_site_type_symbol
_atom_site_fract_x
_atom_site_fract_y
_atom_site_fract_z
O1 O -0.21564(8) 0.62169(11) -0.26307(17)
H1 H -0.1916 0.5858 -0.2101
O2 O -0.09327(8) 0.39680(10) -0.11773(17)
N1 N -0.12766(8) 0.56701(11) -0.03407(18)
N2 N -0.09221(8) 0.50633(11) 0.06337(18)
H2 H -0.0793 0.5212 0.1581
N3 N 0.0000 0.41543(13) 0.2500
C1 C -0.20513(10) 0.70307(15) -0.2028(2)
C2 C -0.24231(11) 0.77289(18) -0.2811(3)
H3 H -0.2735 0.7611 -0.3682
C3 C -0.23282(12) 0.85656(17) -0.2304(3)
H4 H -0.2578 0.9019 -0.2837
C4 C -0.18631(11) 0.87778(15) -0.0995(3)
C5 C -0.17512(14) 0.96578(17) -0.0488(3)
H5 H -0.1997 1.0113 -0.1025
C6 C -0.12974(15) 0.98553(17) 0.0754(4)
H6 H -0.1220 1.0441 0.1053
C7 C -0.09451(14) 0.91737(17) 0.1588(3)
H7 H -0.0641 0.9308 0.2463
C8 C -0.10387(12) 0.83161(16) 0.1145(3)
H8 H -0.0794 0.7874 0.1720
C9 C -0.14987(10) 0.80793(14) -0.0168(2)
C10 C -0.16071(9) 0.71871(14) -0.0699(2)
C11 C -0.12569(10) 0.64654(13) 0.0165(2)
H9 H -0.1009 0.6585 0.1122
C12 C -0.07735(10) 0.42490(13) 0.0143(2)
C13 C -0.03698(9) 0.37044(12) 0.1374(2)
C14 C -0.03785(10) 0.27917(14) 0.1311(3)
H10 H -0.0631 0.2494 0.0495
C15 C 0.0000 0.2334(2) 0.2500
H11 H 0.0000 0.1718 0.2500
O1B O 0.21564(8) 0.62169(11) 0.76307(17)
H1B H 0.1916 0.5858 0.7101
O2B O 0.09327(8) 0.39680(10) 0.61773(17)
N1B N 0.12766(8) 0.56701(11) 0.53407(18)
N2B N 0.09221(8) 0.50633(11) 0.43663(18)
H2B H 0.0793 0.5212 0.3419
C1B C 0.20513(10) 0.70307(15) 0.7028(2)
C2B C 0.24231(11) 0.77289(18) 0.7811(3)
H3B H 0.2735 0.7611 0.8682
C3B C 0.23282(12) 0.85656(17) 0.7304(3)
H4B H 0.2578 0.9019 0.7837
C4B C 0.18631(11) 0.87778(15) 0.5995(3)
C5B C 0.17512(14) 0.96578(17) 0.5488(3)
H5B H 0.1997 1.0113 0.6025
C6B C 0.12974(15) 0.98553(17) 0.4246(4)
H6B H 0.1220 1.0441 0.3947
C7B C 0.09451(14) 0.91737(17) 0.3412(3)
H7B H 0.0641 0.9308 0.2537
C8B C 0.10387(12) 0.83161(16) 0.3855(3)
H8B H 0.0794 0.7874 0.3280
C9B C 0.14987(10) 0.80793(14) 0.5168(2)
C10B C 0.16071(9) 0.71871(14) 0.5699(2)
C11B C 0.12569(10) 0.64654(13) 0.4835(2)
H9B H 0.1009 0.6585 0.3878
C12B C 0.07735(10) 0.42490(13) 0.4857(2)
C13B C 0.03698(9) 0.37044(12) 0.3626(2)
C14B C 0.03785(10) 0.27917(14) 0.3689(3)
H10B H 0.0631 0.2494 0.4505
loop_
_geom_bond_atom_site_label_1
_geom_bond_atom_site_label_2
_geom_bond_site_symmetry_1
_geom_bond_site_symmetry_2
O1 H1 1_555 1_555
O2 C12 1_555 1_555
N1 N2 1_555 1_555
N2 H2 1_555 1_555
N3 C13 1_555 1_555
C1 O1 1_555 1_555
C2 C1 1_555 1_555
H3 C2 1_555 1_555
C3 C2 1_555 1_555
H4 C3 1_555 1_555
C4 C3 1_555 1_555
C5 C4 1_555 1_555
H5 C5 1_555 1_555
C6 C5 1_555 1_555
H6 C6 1_555 1_555
C7 C6 1_555 1_555
H7 C7 1_555 1_555
C8 C7 1_555 1_555
H8 C8 1_555 1_555
C9 C4 1_555 1_555
C10 C1 1_555 1_555
C11 N1 1_555 1_555
H9 C11 1_555 1_555
C12 N2 1_555 1_555
C13 C12 1_555 1_555
C14 C13 1_555 1_555
H10 C14 1_555 1_555
C15 C14 1_555 1_555
H11 C15 1_555 1_555
O1B H1B 1_555 1_555
O2B C12B 1_555 1_555
N1B N2B 1_555 1_555
N2B H2B 1_555 1_555
C1B O1B 1_555 1_555
C2B C1B 1_555 1_555
H3B C2B 1_555 1_555
C3B C2B 1_555 1_555
H4B C3B 1_555 1_555
C4B C3B 1_555 1_555
C5B C4B 1_555 1_555
H5B C5B 1_555 1_555
C6B C5B 1_555 1_555
H6B C6B 1_555 1_555
C7B C6B 1_555 1_555
H7B C7B 1_555 1_555
C8B C7B 1_555 1_555
H8B C8B 1_555 1_555
C9B C4B 1_555 1_555
C10B C1B 1_555 1_555
C11B N1B 1_555 1_555
H9B C11B 1_555 1_555
C12B N2B 1_555 1_555
C13B N3 1_555 1_555
C14B C15 1_555 1_555
H10B C14B 1_555 1_555
C8 C9 1_555 1_555
C9 C10 1_555 1_555
C10 C11 1_555 1_555
C8B C9B 1_555 1_555
C9B C10B 1_555 1_555
C10B C11B 1_555 1_555
C12B C13B 1_555 1_555
C13B C14B 1_555 1_555

#END
