
#######################################################################
#
#                 Cambridge Crystallographic Data Centre
#                                CCDC 
#
#######################################################################
#
# If this CIF has been generated from an entry in the Cambridge 
# Structural Database, then it will include bibliographic, chemical, 
# crystal, experimental, refinement or atomic coordinate data resulting 
# from the CCDC's data processing and validation procedures.
#
#######################################################################

data_WEMZUL
_chemical_formula_moiety         'C23 H20 B1 Br1 F2 N2 S2'
_chemical_name_systematic        
10-(5-Bromo-2-(phenylsulfanyl)-3-thienyl)-5,5-difluoro-1,3,7,9-tetramethyl-5H-dipyrrolo[1,2-c:2',1'-f][1,3,2]diazaborinine
_symmetry_cell_setting           monoclinic
_symmetry_space_group_name_H-M   'P 21/n'
_symmetry_Int_Tables_number      14
_space_group_name_Hall           '-P 2yn'
loop_
_symmetry_equiv_pos_site_id
_symmetry_equiv_pos_as_xyz
1 x,y,z
2 1/2-x,1/2+y,1/2-z
3 -x,-y,-z
4 1/2+x,1/2-y,1/2+z
_cell_length_a                   7.5392(14)
_cell_length_b                   11.289(2)
_cell_length_c                   27.479(5)
_cell_angle_alpha                90
_cell_angle_beta                 95.937(8)
_cell_angle_gamma                90
_cell_volume                     2326.19
_cell_formula_units_Z            4
loop_
_atom_site_label
_atom_site_type_symbol
_atom_site_fract_x
_atom_site_fract_y
_atom_site_fract_z
B1 B 0.9408(9) 1.0229(7) 0.2090(3)
F1 F 1.0493(5) 1.1099(3) 0.19326(17)
F2 F 0.9286(6) 1.0384(4) 0.25831(13)
N1 N 1.0153(7) 0.8993(4) 0.19879(18)
N2 N 0.7513(6) 1.0314(4) 0.18058(17)
C1 C 0.9541(9) 0.6795(6) 0.0025(3)
S1 S 0.5497(3) 0.62171(17) 0.03674(6)
S2 S 0.7358(3) 0.85775(17) 0.02652(7)
Br1 Br 0.39947(11) 0.42304(7) 0.09933(3)
C2 C 1.1729(9) 0.8553(7) 0.2183(2)
C3 C 1.1907(9) 0.7410(6) 0.1996(2)
H1 H 1.2882 0.6915 0.2073
C4 C 1.0434(9) 0.7129(6) 0.1684(2)
C5 C 0.9281(8) 0.8142(5) 0.1678(2)
C6 C 0.7579(8) 0.8360(5) 0.14498(19)
C7 C 0.6665(8) 0.9421(5) 0.1514(2)
C8 C 0.4949(8) 0.9843(6) 0.1336(2)
C9 C 0.4799(9) 1.0958(6) 0.1524(3)
H2 H 0.3810 1.1451 0.1468
C10 C 0.6391(10) 1.1235(6) 0.1815(2)
C11 C 0.6629(8) 0.7439(5) 0.0627(2)
C12 C 0.6690(8) 0.7418(5) 0.1133(2)
C13 C 0.5822(8) 0.6417(6) 0.1307(2)
H3 H 0.5725 0.6266 0.1636
C14 C 0.5145(8) 0.5702(6) 0.0936(2)
C15 C 0.9029(9) 0.7884(7) -0.0057(2)
C16 C 0.9742(13) 0.8643(9) -0.0390(4)
C17 C 1.1037(14) 0.8179(10) -0.0661(4)
H4 H 1.1588 0.8653 -0.0878
C18 C 1.1478(14) 0.7018(9) -0.0603(4)
H5 H 1.2246 0.6655 -0.0801
C19 C 1.0763(12) 0.6405(9) -0.0247(3)
H6 H 1.1172 0.5636 -0.0189
C20 C 1.0134(10) 0.5971(6) 0.1407(3)
H7 H 1.1200 0.5501 0.1450
H8 H 0.9841 0.6134 0.1065
H9 H 0.9171 0.5545 0.1529
C21 C 1.2993(9) 0.9184(7) 0.2541(3)
H10 H 1.3326 0.9923 0.2403
H11 H 1.4037 0.8706 0.2618
H12 H 1.2436 0.9333 0.2834
C22 C 0.3508(9) 0.9206(6) 0.1024(3)
H13 H 0.2379 0.9572 0.1059
H14 H 0.3476 0.8392 0.1124
H15 H 0.3745 0.9246 0.0687
C23 C 0.6830(10) 1.2357(6) 0.2088(3)
H16 H 0.6789 1.2222 0.2432
H17 H 0.5979 1.2956 0.1978
H18 H 0.8004 1.2613 0.2031
loop_
_geom_bond_atom_site_label_1
_geom_bond_atom_site_label_2
_geom_bond_site_symmetry_1
_geom_bond_site_symmetry_2
B1 F1 1_555 1_555
F2 B1 1_555 1_555
N1 B1 1_555 1_555
N2 B1 1_555 1_555
C1 C15 1_555 1_555
S1 C11 1_555 1_555
S2 C11 1_555 1_555
Br1 C14 1_555 1_555
C2 N1 1_555 1_555
C3 C2 1_555 1_555
H1 C3 1_555 1_555
C4 C3 1_555 1_555
C5 N1 1_555 1_555
C6 C5 1_555 1_555
C7 N2 1_555 1_555
C8 C7 1_555 1_555
C9 C8 1_555 1_555
H2 C9 1_555 1_555
C10 N2 1_555 1_555
C11 C12 1_555 1_555
C12 C6 1_555 1_555
C13 C12 1_555 1_555
H3 C13 1_555 1_555
C14 S1 1_555 1_555
C15 S2 1_555 1_555
C16 C15 1_555 1_555
C17 C16 1_555 1_555
H4 C17 1_555 1_555
C18 C17 1_555 1_555
H5 C18 1_555 1_555
C19 C1 1_555 1_555
H6 C19 1_555 1_555
C20 C4 1_555 1_555
H7 C20 1_555 1_555
H8 C20 1_555 1_555
H9 C20 1_555 1_555
C21 C2 1_555 1_555
H10 C21 1_555 1_555
H11 C21 1_555 1_555
H12 C21 1_555 1_555
C22 C8 1_555 1_555
H13 C22 1_555 1_555
H14 C22 1_555 1_555
H15 C22 1_555 1_555
C23 C10 1_555 1_555
H16 C23 1_555 1_555
H17 C23 1_555 1_555
H18 C23 1_555 1_555
C4 C5 1_555 1_555
C6 C7 1_555 1_555
C9 C10 1_555 1_555
C13 C14 1_555 1_555
C18 C19 1_555 1_555

#END
