
#######################################################################
#
#                 Cambridge Crystallographic Data Centre
#                                CCDC 
#
#######################################################################
#
# If this CIF has been generated from an entry in the Cambridge 
# Structural Database, then it will include bibliographic, chemical, 
# crystal, experimental, refinement or atomic coordinate data resulting 
# from the CCDC's data processing and validation procedures.
#
#######################################################################

data_WENFEB
_chemical_formula_moiety         'C16 H22 O10'
_chemical_name_systematic        
'Vinyl 2,3,4,6-tetra-O-acetyl-\b-D-glucopyranoside'
_symmetry_cell_setting           monoclinic
_symmetry_space_group_name_H-M   'P 21'
_symmetry_Int_Tables_number      4
_space_group_name_Hall           'P 2yb'
loop_
_symmetry_equiv_pos_site_id
_symmetry_equiv_pos_as_xyz
1 x,y,z
2 -x,1/2+y,-z
_cell_length_a                   11.579(2)
_cell_length_b                   7.2480(14)
_cell_length_c                   11.656(2)
_cell_angle_alpha                90
_cell_angle_beta                 103.70(3)
_cell_angle_gamma                90
_cell_volume                     950.394
_exptl_crystal_colour            white
_cell_formula_units_Z            2
_exptl_crystal_recrystallization_method 'ethyl acetate/hexane'
loop_
_atom_site_label
_atom_site_type_symbol
_atom_site_fract_x
_atom_site_fract_y
_atom_site_fract_z
O1 O 0.5909(5) 1.4914(9) 0.7207(5)
O2 O 0.6732(4) 1.2897(9) 0.9411(5)
O3 O 0.7794(5) 0.9556(9) 0.9079(5)
O4 O 0.9526(4) 1.0005(9) 0.7585(5)
O5 O 0.7178(4) 1.3282(9) 0.6401(4)
O6 O 0.7675(6) 1.0530(15) 0.4825(6)
O7 O 0.4778(6) 1.2256(19) 0.8846(7)
O8 O 0.9596(5) 0.9584(12) 1.0308(6)
O9 O 0.8883(7) 0.7153(12) 0.7004(9)
O10 O 0.9060(11) 0.9005(17) 0.4231(14)
C1 C 0.6987(6) 1.3961(13) 0.7473(7)
H1 H 0.7639 1.4772 0.7865
C2 C 0.6872(6) 1.2313(13) 0.8255(6)
H2 H 0.6203 1.1532 0.7866
C3 C 0.8021(6) 1.1225(11) 0.8487(7)
H3 H 0.8669 1.1931 0.8990
C4 C 0.8330(7) 1.0713(13) 0.7334(7)
H4 H 0.7772 0.9784 0.6913
C5 C 0.8313(7) 1.2410(14) 0.6562(7)
H5 H 0.8935 1.3269 0.6956
C6 C 0.8505(10) 1.192(2) 0.5337(9)
H6 H 0.8389 1.3010 0.4838
H7 H 0.9309 1.1480 0.5410
C7 C 0.5967(9) 1.6627(15) 0.6669(9)
H8 H 0.6714 1.7114 0.6685
C8 C 0.5062(9) 1.7552(18) 0.6163(9)
H9 H 0.4304 1.7100 0.6133
H10 H 0.5155 1.8685 0.5820
C9 C 0.5641(7) 1.2643(16) 0.9647(8)
C10 C 0.5702(11) 1.285(3) 1.0933(10)
H11 H 0.4918 1.2744 1.1068
H12 H 0.6025 1.4042 1.1195
H13 H 0.6203 1.1907 1.1365
C11 C 0.8639(7) 0.8918(14) 0.9993(7)
C12 C 0.8214(9) 0.730(2) 1.0564(10)
H14 H 0.8878 0.6705 1.1079
H15 H 0.7822 0.6449 0.9968
H16 H 0.7665 0.7709 1.1013
C13 C 0.9701(8) 0.8176(14) 0.7396(8)
C14 C 1.0989(8) 0.7744(19) 0.7730(10)
H17 H 1.1097 0.6455 0.7912
H18 H 1.1365 0.8459 0.8409
H19 H 1.1340 0.8039 0.7084
C15 C 0.8028(11) 0.907(2) 0.4281(8)
C16 C 0.7090(15) 0.772(3) 0.3868(13)
H20 H 0.7424 0.6502 0.3946
H21 H 0.6718 0.7956 0.3054
H22 H 0.6510 0.7816 0.4332
loop_
_geom_bond_atom_site_label_1
_geom_bond_atom_site_label_2
_geom_bond_site_symmetry_1
_geom_bond_site_symmetry_2
O1 C1 1_555 1_555
O2 C2 1_555 1_555
O3 C3 1_555 1_555
O4 C4 1_555 1_555
O5 C1 1_555 1_555
O6 C6 1_555 1_555
O7 C9 1_555 1_555
O8 C11 1_555 1_555
O9 C13 1_555 1_555
O10 C15 1_555 1_555
C1 H1 1_555 1_555
C2 C1 1_555 1_555
H2 C2 1_555 1_555
C3 C2 1_555 1_555
H3 C3 1_555 1_555
C4 C3 1_555 1_555
H4 C4 1_555 1_555
C5 O5 1_555 1_555
H5 C5 1_555 1_555
C6 C5 1_555 1_555
H6 C6 1_555 1_555
H7 C6 1_555 1_555
C7 O1 1_555 1_555
H8 C7 1_555 1_555
C8 C7 1_555 1_555
H9 C8 1_555 1_555
H10 C8 1_555 1_555
C9 O2 1_555 1_555
C10 C9 1_555 1_555
H11 C10 1_555 1_555
H12 C10 1_555 1_555
H13 C10 1_555 1_555
C11 O3 1_555 1_555
C12 C11 1_555 1_555
H14 C12 1_555 1_555
H15 C12 1_555 1_555
H16 C12 1_555 1_555
C13 O4 1_555 1_555
C14 C13 1_555 1_555
H17 C14 1_555 1_555
H18 C14 1_555 1_555
H19 C14 1_555 1_555
C15 O6 1_555 1_555
C16 C15 1_555 1_555
H20 C16 1_555 1_555
H21 C16 1_555 1_555
H22 C16 1_555 1_555
C4 C5 1_555 1_555

#END
