
#######################################################################
#
#                 Cambridge Crystallographic Data Centre
#                                CCDC 
#
#######################################################################
#
# If this CIF has been generated from an entry in the Cambridge 
# Structural Database, then it will include bibliographic, chemical, 
# crystal, experimental, refinement or atomic coordinate data resulting 
# from the CCDC's data processing and validation procedures.
#
#######################################################################

data_WENKIM
_chemical_formula_moiety         'C9 H12 N2 O3'
_chemical_name_systematic        
'methyl 3-(3-hydroxy-5-methyl-1H-pyrazol-4-yl)but-2-enoate'
_symmetry_cell_setting           monoclinic
_symmetry_space_group_name_H-M   'P 21/n'
_symmetry_Int_Tables_number      14
_space_group_name_Hall           '-P 2yn'
loop_
_symmetry_equiv_pos_site_id
_symmetry_equiv_pos_as_xyz
1 x,y,z
2 1/2-x,1/2+y,1/2-z
3 -x,-y,-z
4 1/2+x,1/2-y,1/2+z
_cell_length_a                   7.421(5)
_cell_length_b                   16.263(5)
_cell_length_c                   7.815(5)
_cell_angle_alpha                90
_cell_angle_beta                 100.272(5)
_cell_angle_gamma                90
_cell_volume                     928.058
_exptl_crystal_colour            colorless
_exptl_crystal_description       plate
_cell_formula_units_Z            4
loop_
_atom_site_label
_atom_site_type_symbol
_atom_site_fract_x
_atom_site_fract_y
_atom_site_fract_z
O1 O 0.0453(5) 0.3883(2) 0.5681(4)
H1 H -0.003859 0.432938 0.597189
O2 O 0.1147(5) 0.1339(2) 0.7345(5)
O3 O 0.2021(5) 0.0728(2) 0.5052(5)
N1 N 0.1295(6) 0.4513(3) 0.1737(5)
H2 H 0.138652 0.488788 0.094577
N2 N 0.0886(6) 0.4689(3) 0.3335(5)
C1 C 0.1655(7) 0.1355(3) 0.5772(6)
C2 C 0.1294(7) 0.3310(3) 0.3028(6)
C3 C 0.0876(7) 0.3963(3) 0.4095(6)
C4 C 0.1539(7) 0.3707(3) 0.1505(6)
C5 C 0.1422(7) 0.2435(3) 0.3447(7)
C6 C 0.1014(8) 0.0528(3) 0.8092(7)
H3 H 0.056461 0.057886 0.919303
H4 H 0.222535 0.026801 0.830504
H5 H 0.016296 0.018857 0.728304
C7 C 0.1639(7) 0.2199(3) 0.5143(6)
H6 H 0.170194 0.263716 0.621104
C8 C 0.1276(8) 0.1834(3) 0.1973(7)
H7 H 0.086624 0.130023 0.234451
H8 H 0.247596 0.177048 0.163041
H9 H 0.039013 0.203696 0.098133
C9 C 0.1935(8) 0.3416(4) -0.0209(6)
H10 H 0.189787 0.388381 -0.100354
H11 H 0.101203 0.300979 -0.070617
H12 H 0.315208 0.316268 -0.003752
H13? H 0.140400 0.011143 0.732771
H14? H -0.025674 0.042229 0.821570
H15? H 0.180565 0.050172 0.923770
H16? H 0.162197 0.210489 0.095966
H17? H 0.001226 0.163463 0.167376
H18? H 0.209809 0.136816 0.232284
H19? H 0.214345 0.282037 -0.016128
H20? H 0.302929 0.369439 -0.045865
H21? H 0.088924 0.354151 -0.112730
loop_
_geom_bond_atom_site_label_1
_geom_bond_atom_site_label_2
_geom_bond_site_symmetry_1
_geom_bond_site_symmetry_2
O1 H1 1_555 1_555
O2 C1 1_555 1_555
O3 C1 1_555 1_555
N1 H2 1_555 1_555
N2 N1 1_555 1_555
C1 C7 1_555 1_555
C2 C3 1_555 1_555
C3 O1 1_555 1_555
C4 N1 1_555 1_555
C5 C2 1_555 1_555
C6 O2 1_555 1_555
H3 C6 1_555 1_555
H4 C6 1_555 1_555
H5 C6 1_555 1_555
C7 C5 1_555 1_555
H6 C7 1_555 1_555
C8 C5 1_555 1_555
H7 C8 1_555 1_555
H8 C8 1_555 1_555
H9 C8 1_555 1_555
C9 C4 1_555 1_555
H10 C9 1_555 1_555
H11 C9 1_555 1_555
H12 C9 1_555 1_555
N2 C3 1_555 1_555
C2 C4 1_555 1_555

#END
