
#######################################################################
#
#                 Cambridge Crystallographic Data Centre
#                                CCDC 
#
#######################################################################
#
# If this CIF has been generated from an entry in the Cambridge 
# Structural Database, then it will include bibliographic, chemical, 
# crystal, experimental, refinement or atomic coordinate data resulting 
# from the CCDC's data processing and validation procedures.
#
#######################################################################

data_WENQIQ
_chemical_formula_moiety         'C18 H12 N4 O2'
_chemical_name_systematic        
1,1'-(Naphthalene-1,4-diyldicarbonyl)bis(1H-imidazole)
_symmetry_cell_setting           triclinic
_symmetry_space_group_name_H-M   'P -1'
_symmetry_Int_Tables_number      2
_space_group_name_Hall           '-P 1'
loop_
_symmetry_equiv_pos_site_id
_symmetry_equiv_pos_as_xyz
1 x,y,z
2 -x,-y,-z
_cell_length_a                   7.8010(3)
_cell_length_b                   8.1890(3)
_cell_length_c                   11.9799(6)
_cell_angle_alpha                75.9000(10)
_cell_angle_beta                 77.415(2)
_cell_angle_gamma                84.7380(10)
_cell_volume                     723.811
_exptl_crystal_colour            colorless
_exptl_crystal_description       block
_cell_formula_units_Z            2
_exptl_crystal_recrystallization_method dimethylsulfoxide
loop_
_atom_site_label
_atom_site_type_symbol
_atom_site_fract_x
_atom_site_fract_y
_atom_site_fract_z
O1 O 0.16661(12) 0.12721(11) 0.04244(7)
O2 O 0.47000(16) 0.80604(11) 0.20743(8)
N1 N 0.03339(12) 0.02432(11) 0.23167(8)
N2 N -0.09106(14) -0.13164(13) 0.40539(9)
N3 N 0.36038(12) 0.68354(11) 0.39741(8)
N4 N 0.29466(14) 0.58810(13) 0.59146(9)
C1 C 0.22154(14) 0.26822(13) 0.18283(9)
C2 C 0.10774(15) 0.36403(14) 0.24775(10)
H1 H -0.0131 0.3390 0.2716
C3 C 0.16897(15) 0.49918(14) 0.27918(10)
H2 H 0.0896 0.5641 0.3251
C4 C 0.34301(15) 0.53801(13) 0.24380(9)
C5 C 0.64569(15) 0.48032(14) 0.13580(10)
H3 H 0.6884 0.5734 0.1543
C6 C 0.75845(15) 0.38311(15) 0.07210(10)
H4 H 0.8790 0.4093 0.0469
C7 C 0.69879(15) 0.24532(15) 0.04344(10)
H5 H 0.7791 0.1787 -0.0007
C8 C 0.52513(15) 0.20601(13) 0.07870(10)
H6 H 0.4861 0.1122 0.0589
C9 C 0.40387(14) 0.30386(13) 0.14421(9)
C10 C 0.46553(14) 0.44349(13) 0.17450(9)
C11 C 0.14522(14) 0.13672(14) 0.14352(10)
C12 C -0.07815(15) -0.08186(14) 0.20942(11)
H7 H -0.0975 -0.0883 0.1350
C13 C -0.15278(15) -0.17341(14) 0.31559(11)
H8 H -0.2369 -0.2561 0.3278
C14 C 0.01902(15) -0.01270(14) 0.35243(10)
H9 H 0.0816 0.0418 0.3918
C15 C 0.39887(16) 0.68710(14) 0.27606(10)
C16 C 0.39443(16) 0.81172(14) 0.44629(11)
H10 H 0.4378 0.9193 0.4055
C17 C 0.35311(16) 0.75141(16) 0.56371(11)
H11 H 0.3626 0.8124 0.6200
C18 C 0.30115(15) 0.55232(14) 0.49077(10)
H12 H 0.2687 0.4476 0.4824
loop_
_geom_bond_atom_site_label_1
_geom_bond_atom_site_label_2
_geom_bond_site_symmetry_1
_geom_bond_site_symmetry_2
O1 C11 1_555 1_555
O2 C15 1_555 1_555
N1 C11 1_555 1_555
N2 C13 1_555 1_555
N3 C15 1_555 1_555
N4 C17 1_555 1_555
C1 C2 1_555 1_555
C2 H1 1_555 1_555
C3 C2 1_555 1_555
H2 C3 1_555 1_555
C4 C3 1_555 1_555
C5 H3 1_555 1_555
C6 C5 1_555 1_555
H4 C6 1_555 1_555
C7 C6 1_555 1_555
H5 C7 1_555 1_555
C8 C7 1_555 1_555
H6 C8 1_555 1_555
C9 C1 1_555 1_555
C10 C4 1_555 1_555
C11 C1 1_555 1_555
C12 N1 1_555 1_555
H7 C12 1_555 1_555
C13 C12 1_555 1_555
H8 C13 1_555 1_555
C14 N1 1_555 1_555
H9 C14 1_555 1_555
C15 C4 1_555 1_555
C16 N3 1_555 1_555
H10 C16 1_555 1_555
C17 C16 1_555 1_555
H11 C17 1_555 1_555
C18 N3 1_555 1_555
H12 C18 1_555 1_555
N2 C14 1_555 1_555
N4 C18 1_555 1_555
C5 C10 1_555 1_555
C8 C9 1_555 1_555
C9 C10 1_555 1_555

#END
