
#######################################################################
#
#                 Cambridge Crystallographic Data Centre
#                                CCDC 
#
#######################################################################
#
# If this CIF has been generated from an entry in the Cambridge 
# Structural Database, then it will include bibliographic, chemical, 
# crystal, experimental, refinement or atomic coordinate data resulting 
# from the CCDC's data processing and validation procedures.
#
#######################################################################

data_WENZUL
_chemical_formula_moiety         'C6 H6 B1 F1 O2'
_chemical_name_systematic        '3-Fluorophenylboronic acid'
_symmetry_cell_setting           monoclinic
_symmetry_space_group_name_H-M   'P 21/c'
_symmetry_Int_Tables_number      14
_space_group_name_Hall           '-P 2ybc'
loop_
_symmetry_equiv_pos_site_id
_symmetry_equiv_pos_as_xyz
1 x,y,z
2 -x,1/2+y,1/2-z
3 -x,-y,-z
4 x,1/2-y,1/2+z
_cell_length_a                   5.7560(12)
_cell_length_b                   5.0270(10)
_cell_length_c                   22.402(5)
_cell_angle_alpha                90
_cell_angle_beta                 91.19(3)
_cell_angle_gamma                90
_cell_volume                     648.071
_exptl_crystal_colour            white
_exptl_crystal_description       block
_cell_formula_units_Z            4
_exptl_crystal_recrystallization_method acetonitrile
loop_
_atom_site_label
_atom_site_type_symbol
_atom_site_fract_x
_atom_site_fract_y
_atom_site_fract_z
F1 F 1.0010(5) -0.3535(7) 0.15299(15)
O1 O 0.2372(6) -0.2302(7) 0.03199(16)
H1 H 0.168(8) -0.216(11) -0.0018(13)
O2 O 0.1524(6) 0.2182(6) 0.04460(17)
H2 H 0.183(9) 0.376(5) 0.057(2)
B1 B 0.2811(9) 0.0000(11) 0.0604(3)
C1 C 0.4737(8) 0.1904(10) 0.1573(2)
H3 H 0.3539 0.3141 0.1589
C2 C 0.6439(8) 0.1902(11) 0.2021(2)
H4 H 0.6390 0.3143 0.2328
C3 C 0.8199(8) 0.0054(10) 0.2008(2)
H5 H 0.9338 0.0002 0.2308
C4 C 0.8234(8) -0.1703(10) 0.1543(2)
C5 C 0.6570(7) -0.1786(10) 0.1093(2)
H6 H 0.6638 -0.3063 0.0794
C6 C 0.4775(7) 0.0088(9) 0.1096(2)
loop_
_geom_bond_atom_site_label_1
_geom_bond_atom_site_label_2
_geom_bond_site_symmetry_1
_geom_bond_site_symmetry_2
F1 C4 1_555 1_555
O1 H1 1_555 1_555
O2 H2 1_555 1_555
B1 O1 1_555 1_555
C1 H3 1_555 1_555
C2 C1 1_555 1_555
H4 C2 1_555 1_555
C3 C2 1_555 1_555
H5 C3 1_555 1_555
C4 C3 1_555 1_555
C5 C4 1_555 1_555
H6 C5 1_555 1_555
C6 B1 1_555 1_555
O2 B1 1_555 1_555
C1 C6 1_555 1_555
C5 C6 1_555 1_555

#END
