
#######################################################################
#
#                 Cambridge Crystallographic Data Centre
#                                CCDC 
#
#######################################################################
#
# If this CIF has been generated from an entry in the Cambridge 
# Structural Database, then it will include bibliographic, chemical, 
# crystal, experimental, refinement or atomic coordinate data resulting 
# from the CCDC's data processing and validation procedures.
#
#######################################################################

data_WENZUK01
_chemical_compound_source        'Valeriana pseudofficinalis L'
_chemical_name_common            valeriene
_chemical_formula_moiety         'C15 H22 O2'
_chemical_name_systematic        
4,12,12-Trimethyl-5-oxatricyclo[9.1.0.0^4,6^]dodec-9-ene-9-carbaldehyde
_chemical_properties_biological  
'source plant has been used for muscle aches and pains in China'
_symmetry_cell_setting           orthorhombic
_symmetry_space_group_name_H-M   'P 21 21 21'
_symmetry_Int_Tables_number      19
_space_group_name_Hall           'P 2ac 2ab'
loop_
_symmetry_equiv_pos_site_id
_symmetry_equiv_pos_as_xyz
1 x,y,z
2 1/2-x,-y,1/2+z
3 -x,1/2+y,1/2-z
4 1/2+x,1/2-y,-z
_cell_length_a                   9.121(2)
_cell_length_b                   11.312(5)
_cell_length_c                   13.336(4)
_cell_angle_alpha                90
_cell_angle_beta                 90
_cell_angle_gamma                90
_cell_volume                     1375.97
_exptl_crystal_colour            colorless
_exptl_crystal_description       prism
_chemical_melting_point          '157-159deg. C'
_cell_formula_units_Z            4
loop_
_atom_site_label
_atom_site_type_symbol
_atom_site_fract_x
_atom_site_fract_y
_atom_site_fract_z
O1 O 0.9670(2) 0.21797(13) 0.79155(12)
O2 O 1.1619(2) 0.4271(2) 0.44774(16)
C1 C 0.8334(2) 0.50324(18) 0.57099(14)
H1 H 0.8639 0.5809 0.5807
C2 C 0.6863(2) 0.47346(19) 0.60424(17)
H2 H 0.6403 0.4085 0.5671
C3 C 0.6464(3) 0.4782(2) 0.71612(18)
H3 H 0.5789 0.4154 0.7367
C4 C 0.7579(3) 0.5090(2) 0.79521(17)
H4 H 0.7098 0.5529 0.8483
H5 H 0.8319 0.5600 0.7658
C5 C 0.8333(3) 0.4006(2) 0.84068(17)
H6 H 0.8807 0.4238 0.9028
H7 H 0.7592 0.3422 0.8570
C6 C 0.9458(3) 0.34432(18) 0.77317(16)
C7 C 0.8964(3) 0.25569(17) 0.69930(16)
H8 H 0.7901 0.2432 0.6980
C8 C 0.9721(3) 0.22786(19) 0.60243(16)
H9 H 0.9626 0.1441 0.5885
H10 H 1.0757 0.2457 0.6088
C9 C 0.9079(3) 0.29870(18) 0.51464(15)
H11 H 0.9545 0.2736 0.4528
H12 H 0.8039 0.2820 0.5092
C10 C 0.9296(2) 0.42947(19) 0.52759(15)
C11 C 0.5791(3) 0.5650(2) 0.64517(19)
C12 C 0.4195(3) 0.5477(3) 0.6177(3)
H13 H 0.3585 0.5818 0.6687
H14 H 0.3988 0.4648 0.6122
H15 H 0.3999 0.5856 0.5547
C13 C 0.6246(3) 0.6939(2) 0.6502(2)
H16 H 0.7268 0.6989 0.6669
H17 H 0.5678 0.7336 0.7005
H18 H 0.6081 0.7306 0.5863
C14 C 1.0865(3) 0.4113(2) 0.76173(19)
H19 H 1.1500 0.3698 0.7164
H20 H 1.1334 0.4184 0.8259
H21 H 1.0663 0.4887 0.7356
C15 C 1.0680(3) 0.4796(2) 0.49357(19)
H22 H 1.0856 0.5587 0.5084
loop_
_geom_bond_atom_site_label_1
_geom_bond_atom_site_label_2
_geom_bond_site_symmetry_1
_geom_bond_site_symmetry_2
O1 C6 1_555 1_555
O2 C15 1_555 1_555
C1 H1 1_555 1_555
C2 C1 1_555 1_555
H2 C2 1_555 1_555
C3 C2 1_555 1_555
H3 C3 1_555 1_555
C4 C3 1_555 1_555
H4 C4 1_555 1_555
H5 C4 1_555 1_555
C5 C4 1_555 1_555
H6 C5 1_555 1_555
H7 C5 1_555 1_555
C6 C5 1_555 1_555
C7 O1 1_555 1_555
H8 C7 1_555 1_555
C8 C7 1_555 1_555
H9 C8 1_555 1_555
H10 C8 1_555 1_555
C9 C8 1_555 1_555
H11 C9 1_555 1_555
H12 C9 1_555 1_555
C10 C1 1_555 1_555
C11 C2 1_555 1_555
C12 C11 1_555 1_555
H13 C12 1_555 1_555
H14 C12 1_555 1_555
H15 C12 1_555 1_555
C13 C11 1_555 1_555
H16 C13 1_555 1_555
H17 C13 1_555 1_555
H18 C13 1_555 1_555
C14 C6 1_555 1_555
H19 C14 1_555 1_555
H20 C14 1_555 1_555
H21 C14 1_555 1_555
C15 C10 1_555 1_555
H22 C15 1_555 1_555
C3 C11 1_555 1_555
C6 C7 1_555 1_555
C9 C10 1_555 1_555

#END
