
#######################################################################
#
#                 Cambridge Crystallographic Data Centre
#                                CCDC 
#
#######################################################################
#
# If this CIF has been generated from an entry in the Cambridge 
# Structural Database, then it will include bibliographic, chemical, 
# crystal, experimental, refinement or atomic coordinate data resulting 
# from the CCDC's data processing and validation procedures.
#
#######################################################################

data_WEPBIF
_chemical_formula_moiety         'C28 H23 F1 N4 O3'
_chemical_name_systematic        
'ethyl (1-butyl-5-fluoro-2-oxo-1,2-dihydro-3H-indol-3-ylidene)(2-(dicyanomethylene)quinolin-1(2H)-yl)acetate unknown solvate'
_symmetry_cell_setting           orthorhombic
_symmetry_space_group_name_H-M   'P c c n'
_symmetry_Int_Tables_number      56
_space_group_name_Hall           '-P 2ab 2ac'
loop_
_symmetry_equiv_pos_site_id
_symmetry_equiv_pos_as_xyz
1 x,y,z
2 1/2-x,1/2-y,z
3 -x,1/2+y,1/2-z
4 1/2+x,-y,1/2-z
5 -x,-y,-z
6 1/2+x,1/2+y,-z
7 x,1/2-y,1/2+z
8 1/2-x,y,1/2+z
_cell_length_a                   29.4725(11)
_cell_length_b                   8.9570(4)
_cell_length_c                   21.4403(9)
_cell_angle_alpha                90
_cell_angle_beta                 90
_cell_angle_gamma                90
_cell_volume                     5659.92
_exptl_crystal_colour            red
_exptl_crystal_description       block
_cell_formula_units_Z            8
loop_
_atom_site_label
_atom_site_type_symbol
_atom_site_fract_x
_atom_site_fract_y
_atom_site_fract_z
C1 C 1.02447(12) 0.2050(4) 0.50723(15)
H1 H 1.0484 0.2721 0.5189
H2 H 1.0337 0.1041 0.5155
H3 H 0.9977 0.2275 0.5309
C2 C 1.01433(11) 0.2227(3) 0.43788(13)
H4 H 1.0413 0.1981 0.4142
H5 H 0.9907 0.1528 0.4261
C3 C 0.99953(9) 0.3768(3) 0.42152(12)
H6 H 1.0243 0.4453 0.4297
H7 H 0.9744 0.4048 0.4483
C4 C 0.98490(8) 0.3937(2) 0.35394(11)
H8 H 1.0104 0.3719 0.3269
H9 H 0.9611 0.3220 0.3449
C5 C 0.92354(8) 0.5825(2) 0.34368(10)
C6 C 0.92109(7) 0.7497(2) 0.33422(9)
C7 C 0.96834(6) 0.7978(2) 0.32446(9)
C8 C 0.98916(7) 0.9343(2) 0.31328(10)
H10 H 0.9723 1.0218 0.3099
C9 C 1.03558(8) 0.9351(3) 0.30735(11)
C10 C 1.06172(8) 0.8103(3) 0.31087(12)
H11 H 1.0930 0.8172 0.3057
C11 C 1.04189(8) 0.6737(3) 0.32202(11)
H12 H 1.0592 0.5871 0.3248
C12 C 0.99510(7) 0.6698(2) 0.32897(10)
C13 C 0.88140(7) 0.8241(2) 0.33572(10)
C14 C 0.87543(8) 0.9898(3) 0.32886(12)
C15 C 0.82379(11) 1.1804(3) 0.29748(18)
H13 H 0.8498 1.2426 0.3073
H14 H 0.7981 1.2155 0.3217
C16 C 0.81340(11) 1.1908(4) 0.23012(19)
H15 H 0.8395 1.1610 0.2064
H16 H 0.8056 1.2919 0.2198
H17 H 0.7884 1.1263 0.2204
C17 C 0.82881(7) 0.7202(2) 0.41109(11)
C18 C 0.85190(9) 0.7939(3) 0.45825(12)
H18 H 0.8749 0.8612 0.4485
C19 C 0.84066(11) 0.7668(4) 0.51977(13)
H19 H 0.8564 0.8161 0.5512
C20 C 0.80671(11) 0.6685(4) 0.53549(14)
H20 H 0.7999 0.6502 0.5771
C21 C 0.78313(10) 0.5980(3) 0.48934(14)
H21 H 0.7596 0.5334 0.4998
C22 C 0.79374(8) 0.6215(3) 0.42664(11)
C23 C 0.76897(8) 0.5546(3) 0.37664(12)
H22 H 0.7451 0.4901 0.3857
C24 C 0.77935(7) 0.5830(3) 0.31735(12)
H23 H 0.7619 0.5400 0.2860
C25 C 0.81653(7) 0.6777(2) 0.30032(11)
C26 C 0.82648(7) 0.6990(2) 0.23735(10)
C27 C 0.85963(8) 0.7944(3) 0.21042(11)
C28 C 0.79976(9) 0.6214(3) 0.19150(13)
F1 F 1.05636(4) 1.06971(16) 0.29759(7)
N1 N 0.96831(6) 0.54411(19) 0.34071(8)
N2 N 0.84006(5) 0.74222(18) 0.34788(8)
N3 N 0.88526(8) 0.8703(3) 0.18476(11)
N4 N 0.77855(10) 0.5589(3) 0.15512(12)
O1 O 0.89275(5) 0.49512(17) 0.35334(8)
O2 O 0.9047(3) 1.0817(9) 0.3280(19)
O3 O 0.83376(5) 1.02333(17) 0.31335(9)
O4? O 0.9044(7) 1.067(3) 0.3566(17)
loop_
_geom_bond_atom_site_label_1
_geom_bond_atom_site_label_2
_geom_bond_site_symmetry_1
_geom_bond_site_symmetry_2
C1 H1 1_555 1_555
H2 C1 1_555 1_555
H3 C1 1_555 1_555
C2 C1 1_555 1_555
H4 C2 1_555 1_555
H5 C2 1_555 1_555
C3 C2 1_555 1_555
H6 C3 1_555 1_555
H7 C3 1_555 1_555
C4 C3 1_555 1_555
H8 C4 1_555 1_555
H9 C4 1_555 1_555
C5 C6 1_555 1_555
C6 C7 1_555 1_555
C7 C8 1_555 1_555
C8 H10 1_555 1_555
C9 C8 1_555 1_555
C10 C9 1_555 1_555
H11 C10 1_555 1_555
C11 C10 1_555 1_555
H12 C11 1_555 1_555
C12 C7 1_555 1_555
C13 C6 1_555 1_555
C14 C13 1_555 1_555
C15 H13 1_555 1_555
H14 C15 1_555 1_555
C16 C15 1_555 1_555
H15 C16 1_555 1_555
H16 C16 1_555 1_555
H17 C16 1_555 1_555
C17 C18 1_555 1_555
C18 H18 1_555 1_555
C19 C18 1_555 1_555
H19 C19 1_555 1_555
C20 C19 1_555 1_555
H20 C20 1_555 1_555
C21 C20 1_555 1_555
H21 C21 1_555 1_555
C22 C17 1_555 1_555
C23 C22 1_555 1_555
H22 C23 1_555 1_555
C24 C23 1_555 1_555
H23 C24 1_555 1_555
C25 C24 1_555 1_555
C26 C25 1_555 1_555
C27 C26 1_555 1_555
C28 C26 1_555 1_555
F1 C9 1_555 1_555
N1 C4 1_555 1_555
N2 C13 1_555 1_555
N3 C27 1_555 1_555
N4 C28 1_555 1_555
O1 C5 1_555 1_555
O2 C14 1_555 1_555
O3 C14 1_555 1_555
C5 N1 1_555 1_555
C11 C12 1_555 1_555
C12 N1 1_555 1_555
C15 O3 1_555 1_555
C17 N2 1_555 1_555
C21 C22 1_555 1_555
C25 N2 1_555 1_555

#END
