
#######################################################################
#
#                 Cambridge Crystallographic Data Centre
#                                CCDC 
#
#######################################################################
#
# If this CIF has been generated from an entry in the Cambridge 
# Structural Database, then it will include bibliographic, chemical, 
# crystal, experimental, refinement or atomic coordinate data resulting 
# from the CCDC's data processing and validation procedures.
#
#######################################################################

data_WEPBOL
_chemical_formula_moiety         'C26 H19 F1 N4 O3'
_chemical_name_systematic        
't-butyl (2-(dicyanomethylene)quinolin-1(2H)-yl)(5-fluoro-2-oxo-1,2-dihydro-3H-indol-3-ylidene)acetate'
_symmetry_cell_setting           monoclinic
_symmetry_space_group_name_H-M   'P 21/c'
_symmetry_Int_Tables_number      14
_space_group_name_Hall           '-P 2ybc'
loop_
_symmetry_equiv_pos_site_id
_symmetry_equiv_pos_as_xyz
1 x,y,z
2 -x,1/2+y,1/2-z
3 -x,-y,-z
4 x,1/2-y,1/2+z
_cell_length_a                   7.6681(12)
_cell_length_b                   16.652(3)
_cell_length_c                   18.609(3)
_cell_angle_alpha                90
_cell_angle_beta                 103.186(7)
_cell_angle_gamma                90
_cell_volume                     2313.52
_exptl_crystal_colour            red
_exptl_crystal_description       block
_cell_formula_units_Z            4
loop_
_atom_site_label
_atom_site_type_symbol
_atom_site_fract_x
_atom_site_fract_y
_atom_site_fract_z
C1 C -0.0991(2) 0.82436(10) 0.72503(10)
C2 C -0.2187(2) 0.86864(12) 0.75557(12)
H1 H -0.1879 0.8835 0.8050
C3 C -0.3815(3) 0.89010(14) 0.71245(14)
H2 H -0.4601 0.9203 0.7329
C4 C -0.4311(3) 0.86782(17) 0.63938(15)
H3 H -0.5427 0.8824 0.6110
C5 C -0.3158(3) 0.82430(15) 0.60887(13)
H4 H -0.3497 0.8092 0.5595
C6 C -0.1469(3) 0.80194(12) 0.65089(11)
C7 C -0.0209(3) 0.75767(13) 0.62202(12)
H5 H -0.0507 0.7415 0.5729
C8 C 0.1391(3) 0.73857(13) 0.66350(12)
H6 H 0.2188 0.7101 0.6422
C9 C 0.1925(2) 0.76031(10) 0.73953(10)
C10 C 0.3618(2) 0.73861(11) 0.78015(11)
C11 C 0.4371(3) 0.75263(11) 0.85639(14)
C12 C 0.4774(3) 0.69481(12) 0.74466(13)
C13 C 0.1061(2) 0.82407(10) 0.84491(9)
C14 C 0.0573(3) 0.76029(11) 0.89335(11)
C15 C 0.0473(3) 0.61260(11) 0.90084(13)
C16 C 0.0985(5) 0.55306(14) 0.84852(18)
H7 H 0.0245 0.5610 0.8000
H8 H 0.0819 0.4995 0.8649
H9 H 0.2219 0.5607 0.8473
C17 C -0.1436(4) 0.60323(16) 0.90605(18)
H10 H -0.1723 0.6438 0.9381
H11 H -0.1600 0.5511 0.9255
H12 H -0.2208 0.6088 0.8578
C18 C 0.1791(4) 0.61121(16) 0.97460(16)
H13 H 0.2934 0.6301 0.9689
H14 H 0.1910 0.5573 0.9933
H15 H 0.1368 0.6454 1.0086
C19 C 0.2259(2) 0.95455(10) 0.81047(12)
C20 C 0.1702(2) 0.89759(9) 0.86556(9)
C21 C 0.2069(2) 0.94149(9) 0.93555(10)
C22 C 0.1892(2) 0.92420(10) 1.00657(10)
H16 H 0.1472 0.8745 1.0180
C23 C 0.2354(3) 0.98253(12) 1.05908(11)
C24 C 0.2967(3) 1.05642(12) 1.04570(13)
H17 H 0.3263 1.0940 1.0835
C25 C 0.3146(3) 1.07496(11) 0.97576(13)
H18 H 0.3559 1.1251 0.9653
C26 C 0.2696(2) 1.01742(10) 0.92156(11)
F1 F 0.21687(19) 0.96655(8) 1.12880(7)
N1 N 0.07011(18) 0.80182(8) 0.76790(8)
N2 N 0.5068(3) 0.75979(12) 0.91771(12)
N3 N 0.5718(3) 0.65981(12) 0.71676(13)
N4 N 0.2782(2) 1.02327(9) 0.84805(9)
H19 H 0.3126 1.0656 0.8287
O1 O 0.0161(3) 0.77369(8) 0.95024(9)
O2 O 0.06612(17) 0.68956(6) 0.86320(7)
O3 O 0.22749(18) 0.94131(7) 0.74654(8)
loop_
_geom_bond_atom_site_label_1
_geom_bond_atom_site_label_2
_geom_bond_site_symmetry_1
_geom_bond_site_symmetry_2
C1 C2 1_555 1_555
C2 H1 1_555 1_555
C3 C2 1_555 1_555
H2 C3 1_555 1_555
C4 C3 1_555 1_555
H3 C4 1_555 1_555
C5 C4 1_555 1_555
H4 C5 1_555 1_555
C6 C1 1_555 1_555
C7 C6 1_555 1_555
H5 C7 1_555 1_555
C8 C7 1_555 1_555
H6 C8 1_555 1_555
C9 C8 1_555 1_555
C10 C9 1_555 1_555
C11 C10 1_555 1_555
C12 C10 1_555 1_555
C13 C14 1_555 1_555
C14 O1 1_555 1_555
C15 C16 1_555 1_555
C16 H7 1_555 1_555
H8 C16 1_555 1_555
H9 C16 1_555 1_555
C17 C15 1_555 1_555
H10 C17 1_555 1_555
H11 C17 1_555 1_555
H12 C17 1_555 1_555
C18 C15 1_555 1_555
H13 C18 1_555 1_555
H14 C18 1_555 1_555
H15 C18 1_555 1_555
C19 C20 1_555 1_555
C20 C13 1_555 1_555
C21 C20 1_555 1_555
C22 C21 1_555 1_555
H16 C22 1_555 1_555
C23 C22 1_555 1_555
C24 C23 1_555 1_555
H17 C24 1_555 1_555
C25 C24 1_555 1_555
H18 C25 1_555 1_555
C26 C21 1_555 1_555
F1 C23 1_555 1_555
N1 C1 1_555 1_555
N2 C11 1_555 1_555
N3 C12 1_555 1_555
N4 C19 1_555 1_555
H19 N4 1_555 1_555
O2 C14 1_555 1_555
O3 C19 1_555 1_555
C5 C6 1_555 1_555
C9 N1 1_555 1_555
C13 N1 1_555 1_555
C15 O2 1_555 1_555
C25 C26 1_555 1_555
C26 N4 1_555 1_555

#END
