
#######################################################################
#
#                 Cambridge Crystallographic Data Centre
#                                CCDC 
#
#######################################################################
#
# If this CIF has been generated from an entry in the Cambridge 
# Structural Database, then it will include bibliographic, chemical, 
# crystal, experimental, refinement or atomic coordinate data resulting 
# from the CCDC's data processing and validation procedures.
#
#######################################################################

data_WEPBAX
_chemical_formula_moiety         'C31 H22 N4 O3'
_chemical_name_systematic        
'ethyl (1-benzyl-2-oxo-1,2-dihydro-3H-indol-3-ylidene)(2-(dicyanomethylene)quinolin-1(2H)-yl)acetate'
_symmetry_cell_setting           triclinic
_symmetry_space_group_name_H-M   'P -1'
_symmetry_Int_Tables_number      2
_space_group_name_Hall           '-P 1'
loop_
_symmetry_equiv_pos_site_id
_symmetry_equiv_pos_as_xyz
1 x,y,z
2 -x,-y,-z
_cell_length_a                   10.2014(4)
_cell_length_b                   10.3724(4)
_cell_length_c                   12.0524(5)
_cell_angle_alpha                97.1035(13)
_cell_angle_beta                 93.5690(12)
_cell_angle_gamma                102.7767(13)
_cell_volume                     1228.88
_exptl_crystal_colour            red
_exptl_crystal_description       block
_cell_formula_units_Z            2
loop_
_atom_site_label
_atom_site_type_symbol
_atom_site_fract_x
_atom_site_fract_y
_atom_site_fract_z
C1 C -0.01500(17) 0.30228(18) -0.18867(15)
H1 H -0.0455 0.3210 -0.1187
C2 C -0.09789(19) 0.2111(2) -0.27079(18)
H2 H -0.1838 0.1683 -0.2557
C3 C -0.0545(2) 0.1829(2) -0.37474(18)
H3 H -0.1107 0.1210 -0.4298
C4 C 0.07208(19) 0.2464(2) -0.39719(15)
H4 H 0.1016 0.2280 -0.4676
C5 C 0.15588(17) 0.33793(18) -0.31469(14)
H5 H 0.2415 0.3807 -0.3302
C6 C 0.11343(16) 0.36634(15) -0.20956(13)
C7 C 0.20462(18) 0.46427(16) -0.11879(13)
H6 H 0.2764 0.5197 -0.1525
H7 H 0.1533 0.5221 -0.0811
C8 C 0.20537(16) 0.36570(15) 0.05921(12)
C9 C 0.28743(14) 0.28086(14) 0.11426(12)
C10 C 0.39483(15) 0.26914(15) 0.04073(12)
C11 C 0.50376(16) 0.20867(17) 0.04369(14)
H8 H 0.5187 0.1611 0.1019
C12 C 0.58923(18) 0.2201(2) -0.04066(16)
H9 H 0.6623 0.1801 -0.0389
C13 C 0.56785(18) 0.2900(2) -0.12767(16)
H10 H 0.6266 0.2963 -0.1838
C14 C 0.46069(17) 0.35086(18) -0.13269(14)
H11 H 0.4463 0.3981 -0.1913
C15 C 0.37599(15) 0.33966(14) -0.04861(12)
C16 C 0.25616(14) 0.23543(14) 0.21158(12)
C17 C 0.32335(15) 0.14461(15) 0.26971(13)
C18 C 0.38189(16) 0.08415(16) 0.44497(14)
H12 H 0.4770 0.1115 0.4344
H13 H 0.3525 -0.0116 0.4224
C19 C 0.3596(2) 0.1191(2) 0.56458(16)
H14 H 0.3818 0.2145 0.5842
H15 H 0.4160 0.0810 0.6115
H16 H 0.2666 0.0845 0.5753
C20 C 0.01711(15) 0.19000(14) 0.23885(12)
C21 C -0.00095(17) 0.06648(16) 0.17235(15)
H17 H 0.0730 0.0378 0.1459
C22 C -0.12900(19) -0.01256(18) 0.14614(17)
H18 H -0.1408 -0.0949 0.1016
C23 C -0.24062(19) 0.02743(19) 0.18439(17)
H19 H -0.3265 -0.0275 0.1660
C24 C -0.22359(17) 0.14872(18) 0.24965(15)
H20 H -0.2985 0.1759 0.2757
C25 C -0.09488(15) 0.23227(15) 0.27770(12)
C26 C -0.07273(16) 0.36138(16) 0.34147(13)
H21 H -0.1462 0.3921 0.3666
C27 C 0.05133(15) 0.43932(15) 0.36594(12)
H22 H 0.0619 0.5235 0.4070
C28 C 0.16819(14) 0.39716(14) 0.33085(11)
C29 C 0.29670(15) 0.47977(15) 0.36305(12)
C30 C 0.30747(16) 0.61002(17) 0.42121(14)
C31 C 0.42342(16) 0.44786(15) 0.34719(13)
N1 N 0.26367(13) 0.39550(12) -0.03619(10)
N2 N 0.14668(12) 0.27479(11) 0.26686(10)
N3 N 0.31704(16) 0.71650(16) 0.46685(15)
N4 N 0.52925(15) 0.42936(16) 0.33735(14)
O1 O 0.10543(12) 0.39995(12) 0.08964(9)
O2 O 0.38647(14) 0.07209(13) 0.22420(10)
O3 O 0.30357(10) 0.15402(10) 0.37783(8)
loop_
_geom_bond_atom_site_label_1
_geom_bond_atom_site_label_2
_geom_bond_site_symmetry_1
_geom_bond_site_symmetry_2
C1 H1 1_555 1_555
C2 C1 1_555 1_555
H2 C2 1_555 1_555
C3 C2 1_555 1_555
H3 C3 1_555 1_555
C4 C3 1_555 1_555
H4 C4 1_555 1_555
C5 C4 1_555 1_555
H5 C5 1_555 1_555
C6 C1 1_555 1_555
C7 C6 1_555 1_555
H6 C7 1_555 1_555
H7 C7 1_555 1_555
C8 C9 1_555 1_555
C9 C10 1_555 1_555
C10 C11 1_555 1_555
C11 H8 1_555 1_555
C12 C11 1_555 1_555
H9 C12 1_555 1_555
C13 C12 1_555 1_555
H10 C13 1_555 1_555
C14 C13 1_555 1_555
H11 C14 1_555 1_555
C15 C10 1_555 1_555
C16 C9 1_555 1_555
C17 C16 1_555 1_555
C18 H12 1_555 1_555
H13 C18 1_555 1_555
C19 C18 1_555 1_555
H14 C19 1_555 1_555
H15 C19 1_555 1_555
H16 C19 1_555 1_555
C20 C21 1_555 1_555
C21 H17 1_555 1_555
C22 C21 1_555 1_555
H18 C22 1_555 1_555
C23 C22 1_555 1_555
H19 C23 1_555 1_555
C24 C23 1_555 1_555
H20 C24 1_555 1_555
C25 C20 1_555 1_555
C26 C25 1_555 1_555
H21 C26 1_555 1_555
C27 C26 1_555 1_555
H22 C27 1_555 1_555
C28 C27 1_555 1_555
C29 C28 1_555 1_555
C30 C29 1_555 1_555
C31 C29 1_555 1_555
N1 C7 1_555 1_555
N2 C16 1_555 1_555
N3 C30 1_555 1_555
N4 C31 1_555 1_555
O1 C8 1_555 1_555
O2 C17 1_555 1_555
O3 C17 1_555 1_555
C5 C6 1_555 1_555
C8 N1 1_555 1_555
C14 C15 1_555 1_555
C15 N1 1_555 1_555
C18 O3 1_555 1_555
C20 N2 1_555 1_555
C24 C25 1_555 1_555
C28 N2 1_555 1_555

#END
