
#######################################################################
#
#                 Cambridge Crystallographic Data Centre
#                                CCDC 
#
#######################################################################
#
# If this CIF has been generated from an entry in the Cambridge 
# Structural Database, then it will include bibliographic, chemical, 
# crystal, experimental, refinement or atomic coordinate data resulting 
# from the CCDC's data processing and validation procedures.
#
#######################################################################

data_WEPHOP
_chemical_formula_moiety         'C23 H19 N3 O3'
_chemical_name_systematic        
'2-(1H-1,2,3-Benzotriazol-1-ylmethyl)-1-(4-methylbenzoyl)ethyl benzoate'
_symmetry_cell_setting           triclinic
_symmetry_space_group_name_H-M   'P -1'
_symmetry_Int_Tables_number      2
_space_group_name_Hall           '-P 1'
loop_
_symmetry_equiv_pos_site_id
_symmetry_equiv_pos_as_xyz
1 x,y,z
2 -x,-y,-z
_cell_length_a                   9.5987(9)
_cell_length_b                   10.2272(9)
_cell_length_c                   11.4321(10)
_cell_angle_alpha                116.4820(10)
_cell_angle_beta                 96.9280(10)
_cell_angle_gamma                97.4440(10)
_cell_volume                     975.716
_exptl_crystal_colour            colorless
_exptl_crystal_description       block
_cell_formula_units_Z            2
_exptl_crystal_recrystallization_method ethanol
loop_
_atom_site_label
_atom_site_type_symbol
_atom_site_fract_x
_atom_site_fract_y
_atom_site_fract_z
O1 O 0.35691(15) -0.19998(15) -0.10902(13)
O2 O 0.27471(13) 0.05300(13) 0.02400(12)
O3 O 0.08513(15) -0.11326(16) 0.00589(14)
N1 N 0.29377(16) 0.23075(16) -0.12395(14)
N2 N 0.1929(2) 0.2293(2) -0.21863(17)
N3 N 0.1584(2) 0.3603(2) -0.17273(19)
C1 C 0.2678(2) -0.4053(2) -0.3791(2)
H1 H 0.3230 -0.4327 -0.3245
C2 C 0.2219(2) -0.5040(2) -0.5132(2)
H2 H 0.2468 -0.5971 -0.5473
C3 C 0.1398(2) -0.4676(2) -0.59828(19)
C4 C 0.1037(2) -0.3298(2) -0.5439(2)
H3 H 0.0478 -0.3030 -0.5986
C5 C 0.1487(2) -0.2300(2) -0.40962(19)
H4 H 0.1225 -0.1377 -0.3756
C6 C 0.23259(19) -0.26602(19) -0.32503(17)
C7 C 0.28356(19) -0.1651(2) -0.18038(18)
C8 C 0.2472(2) -0.00956(19) -0.11868(16)
H5 H 0.1466 -0.0155 -0.1527
C9 C 0.3454(2) 0.0956(2) -0.14894(18)
H6 H 0.4403 0.1220 -0.0944
H7 H 0.3536 0.0444 -0.2417
C10 C 0.32478(19) 0.36633(19) -0.01334(18)
C11 C 0.2376(2) 0.4487(2) -0.0452(2)
C12 C 0.2421(3) 0.5976(2) 0.0466(3)
H8 H 0.1842 0.6542 0.0269
C13 C 0.3346(3) 0.6554(2) 0.1656(3)
H9 H 0.3399 0.7537 0.2287
C14 C 0.4221(3) 0.5706(2) 0.1955(2)
H10 H 0.4842 0.6147 0.2781
C15 C 0.4197(2) 0.4258(2) 0.10813(19)
H11 H 0.4782 0.3701 0.1287
C16 C 0.1889(2) -0.0166(2) 0.07369(19)
C17 C 0.2401(2) 0.03695(19) 0.21784(18)
C18 C 0.3727(2) 0.1293(2) 0.28646(19)
H12 H 0.4305 0.1655 0.2433
C19 C 0.4191(3) 0.1678(3) 0.4183(2)
H13 H 0.5094 0.2278 0.4635
C20 C 0.3328(3) 0.1180(3) 0.4833(2)
H14 H 0.3645 0.1446 0.5727
C21 C 0.2002(3) 0.0293(3) 0.4175(2)
H15 H 0.1412 -0.0023 0.4628
C22 C 0.1535(2) -0.0135(2) 0.2842(2)
H16 H 0.0644 -0.0759 0.2391
C23 C 0.0879(3) -0.5780(3) -0.7435(2)
H17 H 0.0330 -0.5343 -0.7871
H18 H 0.0288 -0.6661 -0.7518
H19 H 0.1687 -0.6040 -0.7844
loop_
_geom_bond_atom_site_label_1
_geom_bond_atom_site_label_2
_geom_bond_site_symmetry_1
_geom_bond_site_symmetry_2
O1 C7 1_555 1_555
O2 C8 1_555 1_555
O3 C16 1_555 1_555
N1 N2 1_555 1_555
N2 N3 1_555 1_555
N3 C11 1_555 1_555
C1 H1 1_555 1_555
C2 C1 1_555 1_555
H2 C2 1_555 1_555
C3 C2 1_555 1_555
C4 C3 1_555 1_555
H3 C4 1_555 1_555
C5 C4 1_555 1_555
H4 C5 1_555 1_555
C6 C1 1_555 1_555
C7 C6 1_555 1_555
C8 C7 1_555 1_555
H5 C8 1_555 1_555
C9 N1 1_555 1_555
H6 C9 1_555 1_555
H7 C9 1_555 1_555
C10 N1 1_555 1_555
C11 C10 1_555 1_555
C12 C11 1_555 1_555
H8 C12 1_555 1_555
C13 C12 1_555 1_555
H9 C13 1_555 1_555
C14 C13 1_555 1_555
H10 C14 1_555 1_555
C15 C10 1_555 1_555
H11 C15 1_555 1_555
C16 O2 1_555 1_555
C17 C16 1_555 1_555
C18 C17 1_555 1_555
H12 C18 1_555 1_555
C19 C18 1_555 1_555
H13 C19 1_555 1_555
C20 C19 1_555 1_555
H14 C20 1_555 1_555
C21 C20 1_555 1_555
H15 C21 1_555 1_555
C22 C17 1_555 1_555
H16 C22 1_555 1_555
C23 C3 1_555 1_555
H17 C23 1_555 1_555
H18 C23 1_555 1_555
H19 C23 1_555 1_555
C5 C6 1_555 1_555
C8 C9 1_555 1_555
C14 C15 1_555 1_555
C21 C22 1_555 1_555

#END
