
#######################################################################
#
#                 Cambridge Crystallographic Data Centre
#                                CCDC 
#
#######################################################################
#
# If this CIF has been generated from an entry in the Cambridge 
# Structural Database, then it will include bibliographic, chemical, 
# crystal, experimental, refinement or atomic coordinate data resulting 
# from the CCDC's data processing and validation procedures.
#
#######################################################################

data_WEPHOO
_chemical_formula_moiety         'C20 H20 O4'
_chemical_name_systematic        5,14-Dimethoxy(3.3)metacyclophane-1,10-dione
_symmetry_cell_setting           monoclinic
_symmetry_space_group_name_H-M   'P 21/a'
_symmetry_Int_Tables_number      14
_space_group_name_Hall           '-P 2yab'
loop_
_symmetry_equiv_pos_site_id
_symmetry_equiv_pos_as_xyz
1 x,y,z
2 1/2-x,1/2+y,-z
3 -x,-y,-z
4 1/2+x,1/2-y,z
_cell_length_a                   8.106(4)
_cell_length_b                   11.724(6)
_cell_length_c                   8.499(5)
_cell_angle_alpha                90
_cell_angle_beta                 103.14(4)
_cell_angle_gamma                90
_cell_volume                     786.553
_exptl_crystal_colour            colorless
_chemical_melting_point          234-235deg.C
_cell_formula_units_Z            2
loop_
_atom_site_label
_atom_site_type_symbol
_atom_site_fract_x
_atom_site_fract_y
_atom_site_fract_z
O1 O 0.4821(4) 0.6600(3) 0.5676(3)
O2 O 0.0773(3) 0.3394(2) 0.9487(3)
C1 C -0.1551(5) 0.4599(3) 0.7258(4)
C2 C 0.0318(4) 0.4773(3) 0.7453(4)
C3 C 0.1481(5) 0.4106(3) 0.8567(4)
C4 C 0.3202(5) 0.4183(4) 0.8647(5)
C5 C 0.3794(5) 0.4900(4) 0.7616(4)
C6 C 0.2686(5) 0.5578(3) 0.6508(4)
C7 C 0.0963(5) 0.5518(3) 0.6499(4)
C8 C 0.3367(5) 0.6259(3) 0.5354(4)
C9 C 0.2232(5) 0.6496(4) 0.3682(4)
C10 C 0.1890(6) 0.2721(4) 1.0689(5)
H1 H -0.2009 0.4656 0.8345
H2 H -0.2138 0.5320 0.6730
H3 H 0.3974 0.3626 0.9338
H4 H 0.5120 0.4915 0.7585
H5 H 0.0238 0.6094 0.5769
H6 H 0.1218 0.7004 0.3859
H7 H 0.2863 0.7009 0.2992
H8 H 0.2799 0.3197 1.1368
H9 H 0.1044 0.2378 1.1417
H10 H 0.2314 0.1970 1.0190
C9B C -0.2232(5) 0.3504(4) 0.6318(4)
C1B C 0.1551(5) 0.5401(3) 0.2742(4)
C8B C -0.3367(5) 0.3741(3) 0.4646(4)
H6B H -0.1218 0.2996 0.6141
H7B H -0.2863 0.2991 0.7008
C2B C -0.0318(4) 0.5227(3) 0.2547(4)
H1B H 0.2009 0.5344 0.1655
H2B H 0.2138 0.4680 0.3270
O1B O -0.4821(4) 0.3400(3) 0.4324(3)
C6B C -0.2686(5) 0.4422(3) 0.3492(4)
C3B C -0.1481(5) 0.5894(3) 0.1433(4)
C7B C -0.0963(5) 0.4482(3) 0.3501(4)
C5B C -0.3794(5) 0.5100(4) 0.2384(4)
O2B O -0.0773(3) 0.6606(2) 0.0513(3)
C4B C -0.3202(5) 0.5817(4) 0.1353(5)
H5B H -0.0238 0.3906 0.4231
H4B H -0.5120 0.5085 0.2415
C10B C -0.1890(6) 0.7279(4) -0.0689(5)
H3B H -0.3974 0.6374 0.0662
H8B H -0.2799 0.6803 -0.1368
H9B H -0.1044 0.7622 -0.1417
H10B H -0.2314 0.8030 -0.0190
loop_
_geom_bond_atom_site_label_1
_geom_bond_atom_site_label_2
_geom_bond_site_symmetry_1
_geom_bond_site_symmetry_2
O1 C8 1_555 1_555
O2 C3 1_555 1_555
C1 C2 1_555 1_555
C2 C3 1_555 1_555
C3 C4 1_555 1_555
C4 C5 1_555 1_555
C5 C6 1_555 1_555
C6 C7 1_555 1_555
C7 C2 1_555 1_555
C8 C6 1_555 1_555
C9 C8 1_555 1_555
C10 O2 1_555 1_555
H1 C1 1_555 1_555
H2 C1 1_555 1_555
H3 C4 1_555 1_555
H4 C5 1_555 1_555
H5 C7 1_555 1_555
H6 C9 1_555 1_555
H7 C9 1_555 1_555
H8 C10 1_555 1_555
H9 C10 1_555 1_555
H10 C10 1_555 1_555
C9B C1 1_555 1_555
C1B C9 1_555 1_555
C8B C9B 1_555 1_555
H6B C9B 1_555 1_555
H7B C9B 1_555 1_555
C2B C1B 1_555 1_555
H1B C1B 1_555 1_555
H2B C1B 1_555 1_555
O1B C8B 1_555 1_555
C6B C8B 1_555 1_555
C3B C2B 1_555 1_555
C7B C2B 1_555 1_555
C5B C6B 1_555 1_555
O2B C3B 1_555 1_555
C4B C3B 1_555 1_555
H5B C7B 1_555 1_555
H4B C5B 1_555 1_555
C10B O2B 1_555 1_555
H3B C4B 1_555 1_555
H8B C10B 1_555 1_555
H9B C10B 1_555 1_555
H10B C10B 1_555 1_555
C6B C7B 1_555 1_555
C5B C4B 1_555 1_555

#END
