
#######################################################################
#
#                 Cambridge Crystallographic Data Centre
#                                CCDC 
#
#######################################################################
#
# If this CIF has been generated from an entry in the Cambridge 
# Structural Database, then it will include bibliographic, chemical, 
# crystal, experimental, refinement or atomic coordinate data resulting 
# from the CCDC's data processing and validation procedures.
#
#######################################################################

data_WEPKUA
_chemical_formula_moiety         'C11 H6 Br1 F3 N2 O2'
_chemical_name_systematic        
'methyl 5-bromo-3-(trifluoromethyl)quinoxaline-2-carboxylate'
_symmetry_cell_setting           monoclinic
_symmetry_space_group_name_H-M   'P 21/c'
_symmetry_Int_Tables_number      14
_space_group_name_Hall           '-P 2ybc'
loop_
_symmetry_equiv_pos_site_id
_symmetry_equiv_pos_as_xyz
1 x,y,z
2 -x,1/2+y,1/2-z
3 -x,-y,-z
4 x,1/2-y,1/2+z
_cell_length_a                   4.905(13)
_cell_length_b                   18.25(5)
_cell_length_c                   13.37(3)
_cell_angle_alpha                90
_cell_angle_beta                 90.86(3)
_cell_angle_gamma                90
_cell_volume                     1196.7
_cell_formula_units_Z            4
loop_
_atom_site_label
_atom_site_type_symbol
_atom_site_fract_x
_atom_site_fract_y
_atom_site_fract_z
Br1 Br 0.28406(10) 0.27994(2) 0.90477(4)
F1 F 0.9102(11) 0.08104(18) 0.9479(2)
F2 F 0.7904(8) 0.00486(16) 0.8414(3)
F3 F 1.1938(7) 0.03830(19) 0.8469(3)
C1 C 0.4528(9) 0.2827(2) 0.7786(3)
C2 C 0.3923(10) 0.3375(2) 0.7149(4)
H1 H 0.2627 0.3722 0.7325
C3 C 0.5211(11) 0.3431(3) 0.6228(4)
H2 H 0.4788 0.3820 0.5805
C4 C 0.7074(10) 0.2925(2) 0.5941(4)
H3 H 0.7926 0.2967 0.5327
C5 C 0.7698(9) 0.2336(2) 0.6586(3)
C6 C 1.0020(8) 0.1267(2) 0.6884(3)
C7 C 0.8801(8) 0.1227(2) 0.7831(3)
C8 C 0.6433(9) 0.2276(2) 0.7525(3)
C9 C 0.9445(11) 0.0624(2) 0.8563(4)
C10 C 1.1955(9) 0.0709(2) 0.6466(3)
C11 C 1.2430(11) -0.0516(3) 0.5975(4)
H4 H 1.2900 -0.0401 0.5298
H5 H 1.1443 -0.0970 0.5987
H6 H 1.4064 -0.0561 0.6375
N1 N 0.9533(7) 0.18195(19) 0.6275(3)
N2 N 0.7036(7) 0.17149(17) 0.8153(3)
O1 O 1.4215(7) 0.08347(19) 0.6220(3)
O2 O 1.0744(6) 0.00637(15) 0.6374(3)
loop_
_geom_bond_atom_site_label_1
_geom_bond_atom_site_label_2
_geom_bond_site_symmetry_1
_geom_bond_site_symmetry_2
Br1 C1 1_555 1_555
F1 C9 1_555 1_555
F2 C9 1_555 1_555
F3 C9 1_555 1_555
C1 C2 1_555 1_555
C2 H1 1_555 1_555
C3 C2 1_555 1_555
H2 C3 1_555 1_555
C4 C3 1_555 1_555
H3 C4 1_555 1_555
C5 C4 1_555 1_555
C6 C7 1_555 1_555
C7 C9 1_555 1_555
C8 C1 1_555 1_555
C10 C6 1_555 1_555
C11 H4 1_555 1_555
H5 C11 1_555 1_555
H6 C11 1_555 1_555
N1 C5 1_555 1_555
N2 C7 1_555 1_555
O1 C10 1_555 1_555
O2 C10 1_555 1_555
C5 C8 1_555 1_555
C6 N1 1_555 1_555
C8 N2 1_555 1_555
C11 O2 1_555 1_555

#END
