
#######################################################################
#
#                 Cambridge Crystallographic Data Centre
#                                CCDC 
#
#######################################################################
#
# If this CIF has been generated from an entry in the Cambridge 
# Structural Database, then it will include bibliographic, chemical, 
# crystal, experimental, refinement or atomic coordinate data resulting 
# from the CCDC's data processing and validation procedures.
#
#######################################################################

data_WEPLUZ
_chemical_formula_moiety         'C21 H21 N1 O4 S1'
_chemical_name_systematic        'Diphenylmethyl 1-oxo-1-penicillanate'
_symmetry_cell_setting           orthorhombic
_symmetry_space_group_name_H-M   'P 21 21 21'
_symmetry_Int_Tables_number      19
_space_group_name_Hall           'P 2ac 2ab'
loop_
_symmetry_equiv_pos_site_id
_symmetry_equiv_pos_as_xyz
1 x,y,z
2 1/2+x,1/2-y,-z
3 -x,1/2+y,1/2-z
4 1/2-x,-y,1/2+z
_cell_length_a                   7.9978(14)
_cell_length_b                   9.5959(17)
_cell_length_c                   24.020(5)
_cell_angle_alpha                90
_cell_angle_beta                 90
_cell_angle_gamma                90
_cell_volume                     1843.44
_exptl_crystal_colour            colorless
_exptl_crystal_description       block
_cell_formula_units_Z            4
_exptl_crystal_recrystallization_method acetone
loop_
_atom_site_label
_atom_site_type_symbol
_atom_site_fract_x
_atom_site_fract_y
_atom_site_fract_z
S1 S 0.55434(5) 0.62264(4) 0.182834(16)
O1 O 1.05631(17) 0.51859(15) 0.20750(6)
O2 O 0.68358(17) 0.71102(13) 0.15479(5)
O3 O 0.6972(2) 0.15579(13) 0.19834(5)
O4 O 0.77708(15) 0.18687(11) 0.10900(4)
N1 N 0.77752(18) 0.44251(15) 0.21655(5)
C1 C 0.9179(2) 0.52688(18) 0.22609(7)
C2 C 0.8178(2) 0.62718(18) 0.26253(6)
H1 H 0.8210 0.7255 0.2501
H2 H 0.8407 0.6189 0.3029
C3 C 0.6633(2) 0.54449(17) 0.24229(6)
H3 H 0.5895 0.5069 0.2724
C4 C 0.5587(2) 0.45116(16) 0.14697(6)
C5 C 0.73364(19) 0.38919(17) 0.16169(6)
H4 H 0.8172 0.4242 0.1341
C6 C 0.7335(2) 0.23055(17) 0.16022(6)
C7 C 0.5398(2) 0.47682(18) 0.08449(7)
H5 H 0.6343 0.5326 0.0711
H6 H 0.4352 0.5270 0.0775
H7 H 0.5377 0.3873 0.0648
C8 C 0.4127(2) 0.3671(2) 0.17061(8)
H8 H 0.4326 0.3481 0.2101
H9 H 0.4028 0.2788 0.1504
H10 H 0.3089 0.4204 0.1665
C9 C 0.7874(2) 0.03607(15) 0.09983(6)
H11 H 0.7207 -0.0125 0.1292
C10 C 0.9682(2) -0.00839(15) 0.10467(6)
C11 C 1.0908(2) 0.04938(17) 0.07053(7)
H12 H 1.0605 0.1171 0.0435
C12 C 1.2572(2) 0.00893(19) 0.07561(7)
H13 H 1.3404 0.0507 0.0528
C13 C 1.3015(2) -0.09319(17) 0.11431(7)
H14 H 1.4149 -0.1214 0.1178
C14 C 1.1802(2) -0.15318(17) 0.14761(7)
H15 H 1.2102 -0.2236 0.1736
C15 C 1.0139(2) -0.11069(17) 0.14322(6)
H16 H 0.9314 -0.1514 0.1665
C16 C 0.71075(19) 0.00504(17) 0.04329(6)
C17 C 0.6745(2) 0.10736(17) 0.00426(6)
H17 H 0.7001 0.2020 0.0121
C18 C 0.6006(2) 0.07148(18) -0.04642(7)
H18 H 0.5763 0.1419 -0.0730
C19 C 0.5624(2) -0.06661(18) -0.05814(7)
H19 H 0.5113 -0.0908 -0.0925
C20 C 0.5995(2) -0.16921(18) -0.01916(7)
H20 H 0.5742 -0.2639 -0.0270
C21 C 0.6734(2) -0.13365(18) 0.03119(7)
H21 H 0.6986 -0.2043 0.0576
loop_
_geom_bond_atom_site_label_1
_geom_bond_atom_site_label_2
_geom_bond_site_symmetry_1
_geom_bond_site_symmetry_2
S1 O2 1_555 1_555
O1 C1 1_555 1_555
O3 C6 1_555 1_555
O4 C6 1_555 1_555
N1 C1 1_555 1_555
C1 C2 1_555 1_555
C2 H1 1_555 1_555
H2 C2 1_555 1_555
C3 S1 1_555 1_555
H3 C3 1_555 1_555
C4 S1 1_555 1_555
C5 N1 1_555 1_555
H4 C5 1_555 1_555
C6 C5 1_555 1_555
C7 C4 1_555 1_555
H5 C7 1_555 1_555
H6 C7 1_555 1_555
H7 C7 1_555 1_555
C8 C4 1_555 1_555
H8 C8 1_555 1_555
H9 C8 1_555 1_555
H10 C8 1_555 1_555
C9 O4 1_555 1_555
H11 C9 1_555 1_555
C10 C9 1_555 1_555
C11 C10 1_555 1_555
H12 C11 1_555 1_555
C12 C11 1_555 1_555
H13 C12 1_555 1_555
C13 C12 1_555 1_555
H14 C13 1_555 1_555
C14 C13 1_555 1_555
H15 C14 1_555 1_555
C15 C10 1_555 1_555
H16 C15 1_555 1_555
C16 C9 1_555 1_555
C17 C16 1_555 1_555
H17 C17 1_555 1_555
C18 C17 1_555 1_555
H18 C18 1_555 1_555
C19 C18 1_555 1_555
H19 C19 1_555 1_555
C20 C19 1_555 1_555
H20 C20 1_555 1_555
C21 C16 1_555 1_555
H21 C21 1_555 1_555
N1 C3 1_555 1_555
C2 C3 1_555 1_555
C4 C5 1_555 1_555
C14 C15 1_555 1_555
C20 C21 1_555 1_555

#END
