
#######################################################################
#
#                 Cambridge Crystallographic Data Centre
#                                CCDC 
#
#######################################################################
#
# If this CIF has been generated from an entry in the Cambridge 
# Structural Database, then it will include bibliographic, chemical, 
# crystal, experimental, refinement or atomic coordinate data resulting 
# from the CCDC's data processing and validation procedures.
#
#######################################################################

data_WEPMUC
_chemical_formula_moiety         'C78 H40 B2 F36 N12 O14,2(C7 H8)'
_chemical_name_systematic        
'(\m-benzene-1,4-diolato)-(1,2,3,4,8,9,10,11,15,16,17,18-dodecakis(2,2,2-trifluoroethoxy)subphthalocyaninato)-(subphthalocyaninato)-di-boron toluene unknown solvate'
_symmetry_cell_setting           triclinic
_symmetry_space_group_name_H-M   'P -1'
_symmetry_Int_Tables_number      2
_space_group_name_Hall           '-P 1'
loop_
_symmetry_equiv_pos_site_id
_symmetry_equiv_pos_as_xyz
1 x,y,z
2 -x,-y,-z
_cell_length_a                   19.9038(4)
_cell_length_b                   21.0465(4)
_cell_length_c                   24.6960(5)
_cell_angle_alpha                101.930(7)
_cell_angle_beta                 103.895(7)
_cell_angle_gamma                96.417(7)
_cell_volume                     9682.72
_exptl_crystal_colour            pink
_exptl_crystal_description       block
_cell_formula_units_Z            4
loop_
_atom_site_label
_atom_site_type_symbol
_atom_site_fract_x
_atom_site_fract_y
_atom_site_fract_z
F1 F 0.79480(11) 0.32025(10) 0.96218(9)
F2 F 0.66017(12) 0.37690(11) 0.93667(9)
F3 F 0.76787(12) 0.27384(11) 1.02588(9)
F4 F 0.58314(12) 0.29850(10) 0.87593(10)
F5 F 1.05396(12) 0.56460(10) 0.68246(10)
F6 F 0.58875(11) 0.39756(11) 0.86497(10)
F7 F 0.70412(11) 0.24413(10) 0.93816(9)
F8 F 1.01788(13) 0.47806(11) 0.70795(9)
F9 F 1.02548(13) 0.38234(11) 0.41225(9)
F10 F 0.63146(12) 0.54017(11) 0.92438(9)
F11 F 0.67347(13) 0.63052(11) 0.90864(10)
F12 F 1.13246(14) 0.39916(13) 0.46493(10)
F13 F 1.05898(15) 0.45681(11) 0.49220(10)
F14 F 0.56554(12) 0.58704(13) 0.86673(10)
F15 F 0.94474(12) 0.52317(11) 0.65618(11)
F16 F 1.21600(15) 0.16445(15) 0.76721(11)
F17 F 0.9108(4) 0.0447(5) 1.0366(3)
F18 F 0.8324(2) -0.03785(19) 0.9761(2)
F19 F 0.79967(18) 0.05393(16) 1.00003(14)
F20 F 1.22490(15) 0.1774(2) 0.68606(13)
F21 F 1.15427(19) 0.09616(16) 0.68972(15)
F22 F 1.0627(2) 0.22210(16) 0.97859(16)
F23 F 1.0758(2) 0.1505(2) 1.02922(15)
F24 F 1.1633(2) 0.1977(2) 1.00935(16)
F25 F 0.7727(3) 0.5834(2) 0.6250(2)
F26 F 0.7163(2) 0.5027(3) 0.55558(17)
F27 F 0.6843(2) 0.5213(3) 0.63378(18)
F28 F 0.79052(16) 0.71072(14) 0.82847(13)
F29 F 0.89945(17) 0.71658(15) 0.83448(16)
F30 F 0.8501(2) 0.65737(19) 0.87871(16)
F31 F 1.0469(6) -0.0419(6) 0.7365(5)
F32 F 1.1087(4) 0.0195(5) 0.8094(4)
F33 F 0.9973(4) -0.0224(2) 0.8112(2)
O1 O 0.97282(12) 0.40478(11) 0.59351(10)
O2 O 0.81679(13) 0.50347(12) 0.69329(11)
O3 O 0.76374(14) 0.57721(12) 0.77527(12)
O4 O 1.08520(14) 0.18832(13) 0.65203(11)
O5 O 0.77505(12) 0.18830(11) 0.64847(9)
O6 O 0.80926(14) 0.19778(12) 0.89968(10)
O7 O 0.72718(12) 0.39830(12) 0.85828(10)
O8 O 1.14627(14) 0.26503(14) 0.59019(12)
O9 O 0.71943(13) 0.52321(12) 0.85371(10)
O10 O 1.08558(13) 0.36351(12) 0.55494(10)
O11 O 1.02607(15) 0.11237(14) 0.81053(12)
O12 O 1.01053(17) 0.08707(14) 0.91373(12)
O13 O 0.89973(16) 0.11720(14) 0.95340(12)
O14 O 0.63603(13) 0.24216(12) 0.44443(10)
N1 N 0.95885(16) 0.18630(14) 0.71506(13)
N2 N 0.86437(15) 0.36346(14) 0.66306(12)
N3 N 0.79332(15) 0.27240(14) 0.80017(12)
N4 N 0.89193(15) 0.25910(14) 0.67321(12)
N5 N 0.64157(19) 0.05862(16) 0.39095(13)
N6 N 0.61176(15) 0.21855(13) 0.28771(11)
N7 N 0.45038(18) 0.16687(18) 0.38534(14)
N8 N 0.64300(15) 0.15803(14) 0.35870(12)
N9 N 0.56043(17) 0.13109(16) 0.40804(12)
N10 N 0.54580(16) 0.21204(15) 0.35508(12)
N11 N 0.80675(14) 0.30124(14) 0.71438(12)
N12 N 0.85623(15) 0.21277(14) 0.74255(12)
C1 C 0.78517(17) 0.31271(17) 0.76376(14)
C2 C 0.65148(18) 0.17836(17) 0.31145(14)
C3 C 0.76767(19) 0.51209(19) 0.77278(17)
C4 C 0.90205(18) 0.31499(18) 0.65451(14)
C5 C 0.99971(19) 0.35101(18) 0.60716(15)
C6 C 0.74275(18) 0.48407(19) 0.81299(16)
C7 C 0.8529(4) 0.0256(3) 0.9884(3)
C8 C 0.82098(18) 0.35744(17) 0.69654(15)
C9 C 0.74516(18) 0.41877(18) 0.81360(15)
C10 C 0.4934(2) 0.25592(18) 0.28397(16)
C11 C 0.8628(2) 0.17516(18) 0.88008(15)
C12 C 0.99432(19) 0.25680(18) 0.65015(15)
C13 C 0.83224(18) 0.22482(17) 0.79033(15)
C14 C 0.74182(19) 0.20226(17) 0.59716(14)
C15 C 0.86974(19) 0.18815(17) 0.82792(15)
C16 C 0.6743(2) 0.21631(18) 0.58935(15)
H1 H 0.6521 0.2172 0.6194
C17 C 0.8739(4) 0.0430(3) 0.9365(3)
H2 H 0.9116 0.0190 0.9277
H3 H 0.8330 0.0310 0.9021
C18 C 0.96625(18) 0.31175(17) 0.63504(15)
C19 C 0.77029(17) 0.37958(17) 0.77257(15)
C20 C 1.0562(2) 0.24151(18) 0.63773(15)
C21 C 1.0858(2) 0.27714(19) 0.60525(16)
C22 C 0.9223(2) 0.16370(17) 0.80291(15)
C23 C 0.94847(19) 0.22742(17) 0.67973(15)
C24 C 1.0433(2) 0.34562(18) 0.49657(15)
H4 H 0.9931 0.3443 0.4953
H5 H 1.0496 0.3015 0.4771
C25 C 1.0571(2) 0.33048(19) 0.58935(15)
C26 C 0.67130(19) 0.22748(17) 0.49443(14)
C27 C 0.69769(19) 0.13779(17) 0.28871(15)
C28 C 0.9090(2) 0.13779(19) 0.90553(16)
C29 C 0.79176(18) 0.47321(18) 0.73102(16)
C30 C 0.7381(2) 0.2138(2) 0.50197(15)
H6 H 0.7604 0.2136 0.4720
C31 C 0.6279(2) 0.35281(19) 0.88092(16)
C32 C 0.9146(2) 0.18396(17) 0.74846(15)
C33 C 0.9708(2) 0.13094(18) 0.83134(17)
C34 C 0.5566(2) 0.23164(17) 0.30818(14)
C35 C 0.4913(2) 0.1260(2) 0.40611(16)
C36 C 0.6389(2) 0.22899(18) 0.53825(15)
H7 H 0.5926 0.2387 0.5333
C37 C 0.67778(19) 0.33913(18) 0.84526(16)
H8 H 0.7020 0.3026 0.8547
H9 H 0.6524 0.3267 0.8039
C38 C 0.79336(18) 0.40747(18) 0.73053(15)
C39 C 0.8141(2) 0.2109(2) 0.95978(15)
H10 H 0.8635 0.2271 0.9827
H11 H 0.7966 0.1704 0.9701
C40 C 0.7460(2) 0.03963(19) 0.30640(18)
H12 H 0.7525 0.0068 0.3275
C41 C 0.6669(2) 0.10007(18) 0.36252(16)
C42 C 0.6304(2) 0.5733(2) 0.88310(18)
C43 C 0.7269(2) 0.13652(19) 0.24259(16)
H13 H 0.7206 0.1686 0.2207
C44 C 1.0086(2) 0.50746(19) 0.66480(17)
C45 C 0.7861(2) 0.4781(2) 0.63432(18)
H14 H 0.7576 0.4341 0.6276
H15 H 0.8232 0.4730 0.6141
C46 C 0.64995(19) 0.53543(19) 0.83286(16)
H16 H 0.6169 0.4933 0.8153
H17 H 0.6485 0.5612 0.8034
C47 C 0.4737(2) 0.28505(19) 0.23792(16)
H18 H 0.5044 0.2921 0.2148
C48 C 1.0127(7) 0.0611(5) 0.7624(5)
H19 H 1.0371 0.0736 0.7347
H20 H 0.9616 0.0499 0.7433
C49 C 1.0816(3) 0.1194(3) 0.9348(2)
H21 H 1.0945 0.1387 0.9046
H22 H 1.1120 0.0862 0.9421
C50 C 0.7701(2) 0.2621(2) 0.97106(16)
C51 C 0.9654(2) 0.12071(19) 0.88391(17)
C52 C 1.0660(2) 0.3960(2) 0.46705(17)
C53 C 1.0962(4) 0.1710(3) 0.9869(3)
C54 C 0.4778(2) 0.2081(2) 0.35783(16)
C55 C 0.4443(2) 0.2420(2) 0.31565(16)
C56 C 1.1240(2) 0.2002(2) 0.71136(17)
H23 H 1.0928 0.1876 0.7346
H24 H 1.1447 0.2474 0.7270
C57 C 0.7733(2) 0.20037(19) 0.55246(15)
H25 H 0.8192 0.1898 0.5568
C58 C 0.7073(2) 0.08884(18) 0.32095(16)
C59 C 0.7655(2) 0.0872(2) 0.22939(19)
H26 H 0.7860 0.0860 0.1983
C60 C 0.4722(3) 0.0613(2) 0.41702(17)
C61 C 1.1797(3) 0.1594(3) 0.7128(2)
C62 C 1.0204(2) 0.46616(18) 0.61231(16)
H27 H 1.0134 0.4900 0.5813
H28 H 1.0693 0.4578 0.6207
C63 C 0.5314(3) 0.0294(2) 0.41963(17)
C64 C 0.5854(2) 0.0732(2) 0.40906(16)
C65 C 0.7746(2) 0.0396(2) 0.2607(2)
H29 H 0.8011 0.0064 0.2505
C66 C 0.8409(3) 0.6756(2) 0.8304(2)
C67 C 0.7414(4) 0.5225(4) 0.6115(3)
C68 C 0.4079(2) 0.3035(2) 0.2269(2)
H30 H 0.3939 0.3247 0.1967
C69 C 0.8284(2) 0.6195(2) 0.7814(2)
H31 H 0.8260 0.6352 0.7460
H32 H 0.8678 0.5945 0.7871
C70 C 0.3785(2) 0.2595(3) 0.30307(19)
H33 H 0.3458 0.2499 0.3239
C71 C 0.4078(3) 0.0279(3) 0.41911(19)
H34 H 0.3672 0.0482 0.4156
C72 C 0.3619(3) 0.2912(3) 0.2597(2)
H35 H 0.3176 0.3054 0.2517
C73 C 0.5269(3) -0.0357(2) 0.42657(18)
H36 H 0.5665 -0.0574 0.4290
C74 C 0.4062(3) -0.0362(3) 0.4266(2)
H37 H 0.3639 -0.0593 0.4295
C75 C 0.4647(3) -0.0669(3) 0.4298(2)
H38 H 0.4612 -0.1108 0.4343
C76 C 1.0408(5) -0.0009(6) 0.7832(5)
B1 B 0.5992(2) 0.1885(2) 0.39485(18)
B2 B 0.8281(2) 0.2381(2) 0.69050(18)
C77 C 1.1527(5) 0.1984(4) 0.5636(3)
H39 H 1.1204 0.1665 0.5739
H40 H 1.2012 0.1911 0.5789
C78 C 1.1358(6) 0.1859(5) 0.4987(3)
F34 F 1.1707(4) 0.2250(3) 0.4797(3)
F35 F 1.1406(3) 0.1255(2) 0.4740(2)
F36 F 1.0674(3) 0.1933(3) 0.4797(2)
F37 F 0.85410(12) 0.33376(11) 1.49995(9)
F38 F 0.88309(11) 0.39762(10) 1.44812(9)
F39 F 0.87098(11) 0.52640(13) 0.90243(9)
F40 F 0.63750(15) 0.73695(13) 1.23765(13)
F41 F 0.77301(12) 0.69308(11) 1.15493(10)
F42 F 0.34957(11) 0.63624(12) 1.36033(10)
F43 F 0.82242(13) 0.42987(11) 1.50727(9)
F44 F 0.63865(13) 0.70486(12) 1.31580(12)
F45 F 1.13052(13) 0.27599(15) 1.30588(13)
F46 F 0.94069(11) 0.52269(13) 0.98211(10)
F47 F 0.89664(14) 0.61002(12) 0.97541(10)
F48 F 0.82837(13) 0.76992(11) 1.12764(11)
F49 F 0.40474(13) 0.68412(13) 1.31054(11)
F50 F 0.71563(13) 0.73967(12) 1.09289(12)
F51 F 0.54655(15) 0.73725(12) 1.27112(13)
F52 F 1.08494(14) 0.25989(15) 1.37335(12)
F53 F 0.53973(14) 0.67179(13) 1.08177(13)
F54 F 0.9509(2) 0.21651(18) 1.12922(15)
F55 F 1.06729(15) 0.18375(14) 1.29869(15)
F56 F 0.46700(14) 0.59794(14) 1.01426(12)
F57 F 0.88959(16) 0.15083(12) 1.15994(12)
F58 F 0.8511(2) 0.16363(18) 1.07552(13)
F59 F 0.39526(12) 0.57928(12) 1.29939(10)
O15 O 0.57083(13) 0.57573(12) 1.44372(10)
O16 O 0.83577(12) 0.42624(11) 1.07987(10)
O17 O 0.89040(13) 0.28380(13) 1.20509(10)
O18 O 0.83930(12) 0.54018(11) 1.03801(9)
O19 O 0.73234(13) 0.61391(11) 1.03946(10)
O20 O 0.95211(13) 0.24133(12) 1.30237(11)
O21 O 0.63584(12) 0.59031(12) 1.09756(10)
O22 O 0.76926(12) 0.29018(11) 1.38711(9)
O23 O 0.61730(12) 0.45728(11) 1.41406(10)
O24 O 0.52473(13) 0.60009(12) 1.25094(10)
O25 O 0.57286(12) 0.31515(11) 1.15346(9)
O26 O 0.53085(13) 0.64697(12) 1.36394(10)
O27 O 0.89549(12) 0.25329(11) 1.39201(10)
O28 O 0.63849(12) 0.11644(11) 0.99831(9)
N13 N 0.51989(15) 0.07893(13) 0.92781(12)
N14 N 0.51411(17) 0.15209(13) 0.86620(12)
N15 N 0.66270(14) 0.37301(13) 1.31076(11)
N16 N 0.59828(14) 0.49533(14) 1.17652(12)
N17 N 0.68797(16) 0.02154(15) 0.87551(12)
N18 N 0.60651(15) 0.01153(13) 0.93019(11)
N19 N 0.76453(15) 0.36050(13) 1.16031(11)
N20 N 0.66130(14) 0.40820(13) 1.15438(11)
N21 N 0.49635(14) -0.02850(13) 0.94242(11)
N22 N 0.61656(15) 0.10402(14) 0.89205(12)
N23 N 0.69227(14) 0.34572(13) 1.22235(11)
N24 N 0.60763(14) 0.41423(13) 1.23069(11)
C79 C 0.62914(17) 0.16306(17) 1.09173(13)
H41 H 0.6458 0.1262 1.1036
C80 C 0.56075(18) -0.03725(16) 0.93776(14)
C81 C 0.62076(18) 0.41212(16) 1.28745(14)
C82 C 0.72129(18) 0.39946(17) 1.13899(14)
C83 C 0.63877(18) 0.46525(17) 1.14628(14)
C84 C 0.86242(19) 0.27255(16) 1.34411(15)
C85 C 0.4843(2) 0.11817(16) 0.89684(14)
C86 C 0.76535(18) 0.31615(16) 1.29484(15)
C87 C 0.78675(18) 0.46669(16) 1.08464(14)
C88 C 0.68263(18) 0.54723(17) 1.09151(14)
C89 C 0.73268(18) 0.44940(16) 1.10763(13)
C90 C 0.79675(17) 0.31286(16) 1.24790(14)
C91 C 0.55111(18) 0.56516(17) 1.29006(15)
C92 C 0.68063(18) 0.49057(16) 1.11202(14)
C93 C 0.59162(19) -0.09653(17) 0.92872(15)
C94 C 0.79888(17) 0.29570(16) 1.34311(14)
C95 C 0.59512(17) 0.22042(16) 1.01777(14)
H42 H 0.5882 0.2231 0.9789
C96 C 0.58010(18) 0.27004(16) 1.05721(14)
H43 H 0.5636 0.3071 1.0456
C97 C 0.70082(18) 0.34253(16) 1.27840(14)
C98 C 0.59493(17) 0.46809(16) 1.31537(14)
C99 C 0.55045(18) 0.58679(17) 1.34696(16)
C100 C 0.58843(17) 0.47209(17) 1.22128(14)
C101 C 0.73488(18) 0.56223(16) 1.06594(14)
C102 C 0.57428(17) 0.50537(16) 1.27439(14)
C103 C 0.5778(2) 0.14056(17) 0.86108(15)
C104 C 0.65606(18) -0.01227(17) 0.90572(15)
C105 C 0.5724(2) -0.15974(17) 0.93542(16)
H44 H 0.5325 -0.1699 0.9488
C106 C 0.58920(17) 0.26564(16) 1.11379(14)
C107 C 0.34059(19) 0.01592(17) 0.92281(15)
H45 H 0.3368 -0.0211 0.9389
C108 C 0.85926(18) 0.28859(17) 1.24914(15)
C109 C 0.47523(18) 0.02791(16) 0.93421(14)
C110 C 0.6632(2) 0.07558(19) 0.86523(15)
C111 C 0.40498(19) 0.04461(16) 0.91880(14)
C112 C 0.89234(18) 0.26955(17) 1.29834(15)
C113 C 0.82086(19) 0.5178(2) 0.97719(15)
H46 H 0.7784 0.5345 0.9595
H47 H 0.8115 0.4691 0.9654
C114 C 0.75113(18) 0.33753(16) 1.20401(14)
C115 C 0.41074(19) 0.10025(16) 0.89497(14)
C116 C 0.78690(19) 0.52265(17) 1.06272(14)
C117 C 0.57324(19) 0.55057(17) 1.38825(15)
C118 C 0.65164(19) -0.08113(18) 0.90852(15)
C119 C 0.62040(18) 0.16657(16) 1.03486(14)
C120 C 0.59304(18) 0.48994(17) 1.37185(15)
C121 C 0.2826(2) 0.04289(18) 0.90268(16)
H48 H 0.2382 0.0245 0.9056
C122 C 0.61397(18) 0.21214(16) 1.13096(15)
H49 H 0.6205 0.2093 1.1697
C123 C 0.2874(2) 0.09692(19) 0.87784(16)
H50 H 0.2462 0.1137 0.8634
C124 C 0.4055(2) 0.6366(2) 1.33883(17)
C125 C 0.76318(19) 0.34890(17) 1.42472(14)
H51 H 0.7252 0.3393 1.4429
H52 H 0.7504 0.3818 1.4023
C126 C 0.8824(2) 0.5445(2) 0.95955(16)
C127 C 0.6104(2) 0.14642(18) 0.81493(16)
C128 C 0.6626(2) 0.10634(19) 0.81731(16)
C129 C 0.6795(3) 0.1267(2) 0.72970(18)
H53 H 0.7027 0.1202 0.7000
C130 C 0.5921(2) 0.17647(19) 0.76907(16)
H54 H 0.5563 0.2029 0.7668
C131 C 0.5722(2) 0.6355(2) 1.22834(18)
H55 H 0.5482 0.6361 1.1884
H56 H 0.6127 0.6125 1.2272
C132 C 0.47107(19) 0.6458(2) 1.38663(16)
H57 H 0.4755 0.6877 1.4153
H58 H 0.4686 0.6093 1.4061
C133 C 0.8307(2) 0.37691(18) 1.47059(16)
C134 C 0.6976(2) 0.0964(2) 0.77502(16)
H59 H 0.7330 0.0695 0.7768
C135 C 0.7889(2) 0.66770(18) 1.06133(17)
H60 H 0.7947 0.6888 1.0301
H61 H 0.8329 0.6515 1.0760
C136 C 1.0731(2) 0.2481(2) 1.3169(2)
C137 C 0.3513(2) 0.12600(18) 0.87409(16)
H62 H 0.3544 0.1628 0.8576
C138 C 1.0106(2) 0.2744(2) 1.28939(18)
H63 H 1.0166 0.3226 1.3050
H64 H 1.0036 0.2656 1.2473
C139 C 0.6278(3) 0.1665(2) 0.72731(17)
H65 H 0.6170 0.1872 0.6963
C140 C 0.8491(2) 0.2485(2) 1.14896(15)
H66 H 0.8441 0.2784 1.1226
H67 H 0.8017 0.2304 1.1504
C141 C 0.6121(2) -0.2070(2) 0.92228(18)
H68 H 0.5997 -0.2503 0.9265
C142 C 0.6711(2) -0.1915(2) 0.90261(19)
H69 H 0.6983 -0.2247 0.8942
C143 C 0.5651(2) 0.5655(2) 1.0667(2)
H70 H 0.5383 0.5523 1.0927
H71 H 0.5623 0.5263 1.0357
C144 C 0.5975(3) 0.7027(2) 1.2620(2)
C145 C 0.7756(2) 0.7172(2) 1.10872(19)
C146 C 0.6907(2) -0.12995(19) 0.89507(17)
H72 H 0.7302 -0.1209 0.8809
C147 C 0.8851(3) 0.1948(3) 1.1285(2)
B3 B 0.5977(2) 0.0819(2) 0.94139(17)
B4 B 0.6295(2) 0.36629(19) 1.18774(16)
C148 C 0.5243(3) 0.4046(3) 1.4438(3)
F60 F 0.5538(5) 0.4360(4) 1.4981(3)
F61 F 0.4777(2) 0.4390(2) 1.4225(2)
F62 F 0.4911(3) 0.3467(2) 1.4436(2)
C149 C 0.57508(19) 0.39547(17) 1.40947(14)
H73 H 0.6058 0.3649 1.4231
H74 H 0.5496 0.3756 1.3687
C150 C 0.8946(3) 0.1865(2) 1.38326(16)
H75 H 0.9301 0.1745 1.3627
H76 H 0.8479 0.1633 1.3583
C151 C 0.9084(3) 0.1645(2) 1.4348(2)
F63 F 0.9325(5) 0.2008(5) 1.4853(3)
F64 F 0.8319(2) 0.1484(2) 1.4319(2)
F65 F 0.9222(5) 0.1041(3) 1.4310(4)
C152 C 0.6641(3) 0.6596(3) 1.4961(2)
F66 F 0.6225(3) 0.7027(3) 1.5081(3)
F67 F 0.68267(19) 0.66989(17) 1.45045(15)
F68 F 0.7211(2) 0.6760(2) 1.5411(2)
C153 C 0.6345(2) 0.59281(19) 1.48508(16)
H77 H 0.6676 0.5652 1.4724
H78 H 0.6279 0.5832 1.5212
F69 F 0.9357(7) 0.3503(5) 1.0914(3)
F70 F 1.0183(3) 0.4356(3) 1.1419(3)
F71 F 0.93400(16) 0.41063(17) 1.17708(14)
C154 C 0.9091(3) 0.4562(3) 1.0968(2)
H79 H 0.9163 0.5004 1.1228
H80 H 0.9250 0.4608 1.0626
C155 C 0.9496(4) 0.4112(4) 1.1273(3)
C156 C 0.5350(2) 0.6174(2) 1.04198(18)
F72 F 0.56705(16) 0.6364(2) 1.00475(13)
C157 C 0.9688(2) 0.35328(19) 0.87685(17)
C158 C 0.9482(2) 0.3975(2) 0.84421(17)
H81 H 0.9141 0.4231 0.8529
C159 C 1.0188(2) 0.3166(2) 0.86276(17)
H82 H 1.0341 0.2858 0.8841
C160 C 1.0469(2) 0.3250(2) 0.81717(19)
H83 H 1.0806 0.2992 0.8077
C161 C 1.0263(2) 0.3694(2) 0.78653(18)
H84 H 1.0466 0.3756 0.7565
C162 C 0.9761(2) 0.4055(2) 0.79905(17)
H85 H 0.9606 0.4357 0.7770
C163 C 0.9374(2) 0.3457(2) 0.92451(19)
H86 H 0.9579 0.3126 0.9428
H87 H 0.9472 0.3880 0.9530
H88 H 0.8865 0.3315 0.9092
C164 C 0.7582(2) 0.6015(2) 1.32726(19)
H89 H 0.7401 0.6306 1.3529
C165 C 0.7771(2) 0.5441(2) 1.34053(18)
C166 C 0.8023(2) 0.5017(2) 1.30129(17)
H90 H 0.8132 0.4610 1.3087
C167 C 0.7931(2) 0.5753(2) 1.23914(18)
H91 H 0.7992 0.5863 1.2050
C168 C 0.7656(2) 0.6168(2) 1.2765(2)
H92 H 0.7517 0.6559 1.2674
C169 C 0.7732(2) 0.5285(2) 1.39684(17)
H93 H 0.7885 0.4862 1.3987
H94 H 0.8038 0.5633 1.4288
H95 H 0.7246 0.5260 1.3995
C170 C 0.8113(2) 0.5183(2) 1.25213(17)
H96 H 0.8304 0.4898 1.2269
C171 C 0.5339(3) -0.0853(2) 0.77785(18)
H97 H 0.5584 -0.1190 0.7885
C172 C 0.5203(2) 0.0007(2) 0.72740(17)
H98 H 0.5362 0.0257 0.7036
C173 C 0.4619(2) 0.0152(2) 0.74657(17)
C174 C 0.5553(2) -0.0487(2) 0.74190(17)
H99 H 0.5942 -0.0580 0.7275
C175 C 0.4414(2) -0.0224(2) 0.78244(16)
H100 H 0.4022 -0.0138 0.7967
C176 C 0.4767(3) -0.0717(2) 0.79748(17)
H101 H 0.4614 -0.0965 0.8217
C177 C 0.4233(3) 0.0693(2) 0.72997(19)
H102 H 0.3841 0.0719 0.7475
H103 H 0.4556 0.1115 0.7436
H104 H 0.4052 0.0595 0.6880
C178 C 0.6622(4) -0.1492(3) 0.4881(3)
H105 H 0.6496 -0.1694 0.5161
C179 C 0.6326(4) -0.1779(3) 0.4299(3)
H106 H 0.5997 -0.2178 0.4181
C180 C 0.6510(4) -0.1483(3) 0.3890(2)
H107 H 0.6308 -0.1680 0.3492
C181 C 0.6992(4) -0.0900(3) 0.4062(3)
H108 H 0.7118 -0.0698 0.3782
C182 C 0.7288(3) -0.0612(3) 0.4644(3)
C183 C 0.7103(4) -0.0908(3) 0.5053(2)
H109 H 0.7306 -0.0711 0.5451
C184 C 0.7768(5) 0.0067(4) 0.4835(4)
H110 H 0.7932 0.0197 0.5256
H111 H 0.8173 0.0041 0.4676
H112 H 0.7505 0.0394 0.4695
C185? C 1.1415(6) 0.2040(5) 0.5528(4)
H113? H 1.0935 0.1888 0.5268
H114? H 1.1540 0.1704 0.5744
C186? C 1.1947(7) 0.2172(8) 0.5188(6)
F73? F 1.2562(3) 0.2456(4) 0.5490(3)
F74? F 1.1948(4) 0.1679(5) 0.4822(3)
F75? F 1.1711(5) 0.2639(5) 0.4889(4)
C187? C 1.0015(14) 0.0465(11) 0.7722(11)
H115? H 0.9651 0.0223 0.7850
H116? H 0.9800 0.0504 0.7327
C188? C 1.0539(14) 0.0130(11) 0.7716(11)
F76? F 1.0969(6) 0.0449(5) 0.7467(5)
F77? F 1.0265(10) -0.0523(7) 0.7355(7)
F78? F 1.0877(8) 0.0066(6) 0.8244(6)
C189? C 0.8634(17) 0.0647(14) 0.9519(12)
H117? H 0.8451 0.0398 0.9112
H118? H 0.8224 0.0755 0.9659
C190? C 0.8924(9) 0.0272(9) 0.9802(9)
F79? F 0.8677(9) -0.0349(9) 0.9781(9)
F80? F 0.9588(7) 0.0170(6) 0.9940(6)
F81? F 0.8946(13) 0.0460(14) 1.0361(10)
C191? C 0.5788(4) 0.3913(3) 1.4720(3)
F82? F 0.5600(5) 0.4418(4) 1.5016(3)
F83? F 0.6448(2) 0.3904(2) 1.4998(2)
F84? F 0.5400(3) 0.3364(3) 1.4729(3)
H119? H 0.5937 0.3584 1.3896
H120? H 0.5259 0.3939 1.3876
F85? F 0.9025(5) 0.1047(4) 1.4369(5)
F86? F 0.9882(2) 0.1782(2) 1.4436(2)
F87? F 0.9136(5) 0.2040(6) 1.4855(3)
C192? C 0.6371(4) 0.6505(4) 1.5340(3)
F88? F 0.6042(3) 0.6183(3) 1.5640(2)
F89? F 0.6987(3) 0.6794(3) 1.5681(3)
F90? F 0.6006(4) 0.6962(3) 1.5225(4)
H121? H 0.6719 0.6038 1.4667
H122? H 0.6445 0.5543 1.5009
C193? C 0.8935(8) 0.4426(8) 1.1291(7)
H123? H 0.9067 0.4909 1.1440
H124? H 0.8828 0.4229 1.1598
C194? C 0.9464(15) 0.4160(15) 1.1097(11)
F91? F 0.9688(5) 0.4311(5) 1.0680(4)
F92? F 1.0056(9) 0.4194(9) 1.1558(8)
F93? F 0.938(2) 0.3466(15) 1.1068(12)
loop_
_geom_bond_atom_site_label_1
_geom_bond_atom_site_label_2
_geom_bond_site_symmetry_1
_geom_bond_site_symmetry_2
F1 C50 1_555 1_555
F2 C31 1_555 1_555
F3 C50 1_555 1_555
F4 C31 1_555 1_555
F5 C44 1_555 1_555
F6 C31 1_555 1_555
F7 C50 1_555 1_555
F8 C44 1_555 1_555
F9 C52 1_555 1_555
F10 C42 1_555 1_555
F11 C42 1_555 1_555
F12 C52 1_555 1_555
F13 C52 1_555 1_555
F14 C42 1_555 1_555
F15 C44 1_555 1_555
F16 C61 1_555 1_555
F17 C7 1_555 1_555
F18 C7 1_555 1_555
F19 C7 1_555 1_555
F20 C61 1_555 1_555
F21 C61 1_555 1_555
F22 C53 1_555 1_555
F23 C53 1_555 1_555
F24 C53 1_555 1_555
F25 C67 1_555 1_555
F26 C67 1_555 1_555
F27 C67 1_555 1_555
F28 C66 1_555 1_555
F29 C66 1_555 1_555
F30 C66 1_555 1_555
F31 C76 1_555 1_555
F32 C76 1_555 1_555
F33 C76 1_555 1_555
O1 C5 1_555 1_555
O2 C29 1_555 1_555
O3 C3 1_555 1_555
O4 C20 1_555 1_555
O5 C14 1_555 1_555
O6 C11 1_555 1_555
O7 C9 1_555 1_555
O8 C21 1_555 1_555
O9 C6 1_555 1_555
O10 C24 1_555 1_555
O11 C33 1_555 1_555
O12 C49 1_555 1_555
O13 C17 1_555 1_555
O14 C26 1_555 1_555
N1 C23 1_555 1_555
N2 C4 1_555 1_555
N3 C1 1_555 1_555
N4 C4 1_555 1_555
N5 C41 1_555 1_555
N6 C2 1_555 1_555
N7 C35 1_555 1_555
N8 C2 1_555 1_555
N9 C35 1_555 1_555
N10 C34 1_555 1_555
N11 C1 1_555 1_555
N12 C13 1_555 1_555
C1 C19 1_555 1_555
C2 C27 1_555 1_555
C3 C6 1_555 1_555
C4 C18 1_555 1_555
C5 C18 1_555 1_555
C6 C9 1_555 1_555
C7 C17 1_555 1_555
C8 N2 1_555 1_555
C9 C19 1_555 1_555
C10 C34 1_555 1_555
C11 C15 1_555 1_555
C12 C18 1_555 1_555
C13 N3 1_555 1_555
C14 C16 1_555 1_555
C15 C13 1_555 1_555
C16 H1 1_555 1_555
C17 H2 1_555 1_555
H3 C17 1_555 1_555
C19 C38 1_555 1_555
C20 C12 1_555 1_555
C21 C20 1_555 1_555
C22 C15 1_555 1_555
C23 N4 1_555 1_555
C24 H4 1_555 1_555
H5 C24 1_555 1_555
C25 O10 1_555 1_555
C26 C30 1_555 1_555
C27 C43 1_555 1_555
C28 O13 1_555 1_555
C29 C3 1_555 1_555
C30 H6 1_555 1_555
C31 C37 1_555 1_555
C32 N1 1_555 1_555
C33 C22 1_555 1_555
C34 N6 1_555 1_555
C35 C60 1_555 1_555
C36 C16 1_555 1_555
H7 C36 1_555 1_555
C37 O7 1_555 1_555
H8 C37 1_555 1_555
H9 C37 1_555 1_555
C38 C8 1_555 1_555
C39 O6 1_555 1_555
H10 C39 1_555 1_555
H11 C39 1_555 1_555
C40 H12 1_555 1_555
C41 N8 1_555 1_555
C42 C46 1_555 1_555
C43 H13 1_555 1_555
C44 C62 1_555 1_555
C45 O2 1_555 1_555
H14 C45 1_555 1_555
H15 C45 1_555 1_555
C46 O9 1_555 1_555
H16 C46 1_555 1_555
H17 C46 1_555 1_555
C47 C10 1_555 1_555
H18 C47 1_555 1_555
C48 O11 1_555 1_555
H19 C48 1_555 1_555
H20 C48 1_555 1_555
C49 H21 1_555 1_555
H22 C49 1_555 1_555
C50 C39 1_555 1_555
C51 O12 1_555 1_555
C52 C24 1_555 1_555
C53 C49 1_555 1_555
C54 N7 1_555 1_555
C55 C10 1_555 1_555
C56 O4 1_555 1_555
H23 C56 1_555 1_555
H24 C56 1_555 1_555
C57 C14 1_555 1_555
H25 C57 1_555 1_555
C58 C27 1_555 1_555
C59 C43 1_555 1_555
H26 C59 1_555 1_555
C60 C63 1_555 1_555
C61 C56 1_555 1_555
C62 O1 1_555 1_555
H27 C62 1_555 1_555
H28 C62 1_555 1_555
C63 C64 1_555 1_555
C64 N5 1_555 1_555
C65 C40 1_555 1_555
H29 C65 1_555 1_555
C66 C69 1_555 1_555
C67 C45 1_555 1_555
C68 C47 1_555 1_555
H30 C68 1_555 1_555
C69 O3 1_555 1_555
H31 C69 1_555 1_555
H32 C69 1_555 1_555
C70 C55 1_555 1_555
H33 C70 1_555 1_555
C71 C60 1_555 1_555
H34 C71 1_555 1_555
C72 C68 1_555 1_555
H35 C72 1_555 1_555
C73 C63 1_555 1_555
H36 C73 1_555 1_555
C74 C71 1_555 1_555
H37 C74 1_555 1_555
C75 C73 1_555 1_555
H38 C75 1_555 1_555
C76 C48 1_555 1_555
B1 O14 1_555 1_555
B2 O5 1_555 1_555
C77 O8 1_555 1_555
H39 C77 1_555 1_555
H40 C77 1_555 1_555
C78 C77 1_555 1_555
F34 C78 1_555 1_555
F35 C78 1_555 1_555
F36 C78 1_555 1_555
F37 C133 1_555 1_555
F38 C133 1_555 1_555
F39 C126 1_555 1_555
F40 C144 1_555 1_555
F41 C145 1_555 1_555
F42 C124 1_555 1_555
F43 C133 1_555 1_555
F44 C144 1_555 1_555
F45 C136 1_555 1_555
F46 C126 1_555 1_555
F47 C126 1_555 1_555
F48 C145 1_555 1_555
F49 C124 1_555 1_555
F50 C145 1_555 1_555
F51 C144 1_555 1_555
F52 C136 1_555 1_555
F53 C156 1_555 1_555
F54 C147 1_555 1_555
F55 C136 1_555 1_555
F56 C156 1_555 1_555
F57 C147 1_555 1_555
F58 C147 1_555 1_555
F59 C124 1_555 1_555
O15 C117 1_555 1_555
O16 C87 1_555 1_555
O17 C108 1_555 1_555
O18 C113 1_555 1_555
O19 C101 1_555 1_555
O20 C112 1_555 1_555
O21 C88 1_555 1_555
O22 C94 1_555 1_555
O23 C120 1_555 1_555
O24 C91 1_555 1_555
O25 C106 1_555 1_555
O26 C99 1_555 1_555
O27 C84 1_555 1_555
O28 C119 1_555 1_555
N13 C85 1_555 1_555
N14 C85 1_555 1_555
N15 C81 1_555 1_555
N16 C83 1_555 1_555
N17 C104 1_555 1_555
N18 C80 1_555 1_555
N19 C82 1_555 1_555
N20 C82 1_555 1_555
N21 C80 1_555 1_555
N22 C103 1_555 1_555
N23 C97 1_555 1_555
N24 C81 1_555 1_555
C79 H41 1_555 1_555
C80 C93 1_555 1_555
C81 C98 1_555 1_555
C82 C89 1_555 1_555
C83 N20 1_555 1_555
C84 C94 1_555 1_555
C85 C115 1_555 1_555
C86 C90 1_555 1_555
C87 C89 1_555 1_555
C88 C92 1_555 1_555
C89 C92 1_555 1_555
C90 C108 1_555 1_555
C91 C99 1_555 1_555
C92 C83 1_555 1_555
C93 C105 1_555 1_555
C94 C86 1_555 1_555
C95 H42 1_555 1_555
C96 C95 1_555 1_555
H43 C96 1_555 1_555
C97 N15 1_555 1_555
C98 C102 1_555 1_555
C99 C117 1_555 1_555
C100 N16 1_555 1_555
C101 C88 1_555 1_555
C102 C91 1_555 1_555
C103 N14 1_555 1_555
C104 N18 1_555 1_555
C105 H44 1_555 1_555
C106 C96 1_555 1_555
C107 H45 1_555 1_555
C108 C112 1_555 1_555
C109 N13 1_555 1_555
C110 N17 1_555 1_555
C111 C107 1_555 1_555
C112 C84 1_555 1_555
C113 H46 1_555 1_555
H47 C113 1_555 1_555
C114 N19 1_555 1_555
C115 C111 1_555 1_555
C116 O18 1_555 1_555
C117 C120 1_555 1_555
C118 C93 1_555 1_555
C119 C79 1_555 1_555
C120 C98 1_555 1_555
C121 C107 1_555 1_555
H48 C121 1_555 1_555
C122 C79 1_555 1_555
H49 C122 1_555 1_555
C123 C121 1_555 1_555
H50 C123 1_555 1_555
C124 C132 1_555 1_555
C125 O22 1_555 1_555
H51 C125 1_555 1_555
H52 C125 1_555 1_555
C126 C113 1_555 1_555
C127 C103 1_555 1_555
C128 C110 1_555 1_555
C129 H53 1_555 1_555
C130 C127 1_555 1_555
H54 C130 1_555 1_555
C131 O24 1_555 1_555
H55 C131 1_555 1_555
H56 C131 1_555 1_555
C132 O26 1_555 1_555
H57 C132 1_555 1_555
H58 C132 1_555 1_555
C133 C125 1_555 1_555
C134 C128 1_555 1_555
H59 C134 1_555 1_555
C135 O19 1_555 1_555
H60 C135 1_555 1_555
H61 C135 1_555 1_555
C136 C138 1_555 1_555
C137 C115 1_555 1_555
H62 C137 1_555 1_555
C138 O20 1_555 1_555
H63 C138 1_555 1_555
H64 C138 1_555 1_555
C139 C129 1_555 1_555
H65 C139 1_555 1_555
C140 O17 1_555 1_555
H66 C140 1_555 1_555
H67 C140 1_555 1_555
C141 C105 1_555 1_555
H68 C141 1_555 1_555
C142 C141 1_555 1_555
H69 C142 1_555 1_555
C143 O21 1_555 1_555
H70 C143 1_555 1_555
H71 C143 1_555 1_555
C144 C131 1_555 1_555
C145 C135 1_555 1_555
C146 C118 1_555 1_555
H72 C146 1_555 1_555
C147 C140 1_555 1_555
B3 O28 1_555 1_555
B4 O25 1_555 1_555
C148 F60 1_555 1_555
F61 C148 1_555 1_555
F62 C148 1_555 1_555
C149 O23 1_555 1_555
H73 C149 1_555 1_555
H74 C149 1_555 1_555
C150 O27 1_555 1_555
H75 C150 1_555 1_555
H76 C150 1_555 1_555
C151 C150 1_555 1_555
F63 C151 1_555 1_555
F64 C151 1_555 1_555
F65 C151 1_555 1_555
C152 F66 1_555 1_555
F67 C152 1_555 1_555
F68 C152 1_555 1_555
C153 O15 1_555 1_555
H77 C153 1_555 1_555
H78 C153 1_555 1_555
F69 C155 1_555 1_555
F70 C155 1_555 1_555
F71 C155 1_555 1_555
C154 O16 1_555 1_555
H79 C154 1_555 1_555
H80 C154 1_555 1_555
C155 C154 1_555 1_555
C156 C143 1_555 1_555
F72 C156 1_555 1_555
C157 C158 1_555 1_555
C158 H81 1_555 1_555
C159 C157 1_555 1_555
H82 C159 1_555 1_555
C160 C159 1_555 1_555
H83 C160 1_555 1_555
C161 C160 1_555 1_555
H84 C161 1_555 1_555
C162 C158 1_555 1_555
H85 C162 1_555 1_555
C163 C157 1_555 1_555
H86 C163 1_555 1_555
H87 C163 1_555 1_555
H88 C163 1_555 1_555
C164 H89 1_555 1_555
C165 C164 1_555 1_555
C166 C165 1_555 1_555
H90 C166 1_555 1_555
C167 H91 1_555 1_555
C168 C164 1_555 1_555
H92 C168 1_555 1_555
C169 C165 1_555 1_555
H93 C169 1_555 1_555
H94 C169 1_555 1_555
H95 C169 1_555 1_555
C170 C166 1_555 1_555
H96 C170 1_555 1_555
C171 H97 1_555 1_555
C172 H98 1_555 1_555
C173 C172 1_555 1_555
C174 C171 1_555 1_555
H99 C174 1_555 1_555
C175 C173 1_555 1_555
H100 C175 1_555 1_555
C176 C171 1_555 1_555
H101 C176 1_555 1_555
C177 C173 1_555 1_555
H102 C177 1_555 1_555
H103 C177 1_555 1_555
H104 C177 1_555 1_555
C178 H105 1_555 1_555
C179 C178 1_555 1_555
H106 C179 1_555 1_555
C180 C179 1_555 1_555
H107 C180 1_555 1_555
C181 C180 1_555 1_555
H108 C181 1_555 1_555
C182 C181 1_555 1_555
C183 C178 1_555 1_555
H109 C183 1_555 1_555
C184 C182 1_555 1_555
H110 C184 1_555 1_555
H111 C184 1_555 1_555
H112 C184 1_555 1_555
N4 B2 1_555 1_555
N8 B1 1_555 1_555
N9 C64 1_555 1_555
N9 B1 1_555 1_555
N10 C54 1_555 1_555
N10 B1 1_555 1_555
N11 C8 1_555 1_555
N11 B2 1_555 1_555
N12 C32 1_555 1_555
N12 B2 1_555 1_555
C5 C25 1_555 1_555
C11 C28 1_555 1_555
C12 C23 1_555 1_555
C21 C25 1_555 1_555
C22 C32 1_555 1_555
C26 C36 1_555 1_555
C28 C51 1_555 1_555
C29 C38 1_555 1_555
C30 C57 1_555 1_555
C33 C51 1_555 1_555
C40 C58 1_555 1_555
C41 C58 1_555 1_555
C54 C55 1_555 1_555
C59 C65 1_555 1_555
C70 C72 1_555 1_555
C74 C75 1_555 1_555
N13 B3 1_555 1_555
N18 B3 1_555 1_555
N20 B4 1_555 1_555
N21 C109 1_555 1_555
N22 C110 1_555 1_555
N22 B3 1_555 1_555
N23 C114 1_555 1_555
N23 B4 1_555 1_555
N24 C100 1_555 1_555
N24 B4 1_555 1_555
C86 C97 1_555 1_555
C87 C116 1_555 1_555
C90 C114 1_555 1_555
C95 C119 1_555 1_555
C100 C102 1_555 1_555
C101 C116 1_555 1_555
C104 C118 1_555 1_555
C106 C122 1_555 1_555
C109 C111 1_555 1_555
C123 C137 1_555 1_555
C127 C128 1_555 1_555
C129 C134 1_555 1_555
C130 C139 1_555 1_555
C142 C146 1_555 1_555
C148 C149 1_555 1_555
C152 C153 1_555 1_555
C161 C162 1_555 1_555
C167 C168 1_555 1_555
C167 C170 1_555 1_555
C172 C174 1_555 1_555
C175 C176 1_555 1_555
C182 C183 1_555 1_555

#END
