
#######################################################################
#
#                 Cambridge Crystallographic Data Centre
#                                CCDC 
#
#######################################################################
#
# If this CIF has been generated from an entry in the Cambridge 
# Structural Database, then it will include bibliographic, chemical, 
# crystal, experimental, refinement or atomic coordinate data resulting 
# from the CCDC's data processing and validation procedures.
#
#######################################################################

data_WEPNAJ
_chemical_name_common            
'Chloro-(1,2,3,4,8,9,10,11,15,16,17,18-dodecakis(2,2,2-trifluoroethoxy)subphthalocyaninato)boron benzene solvate'
_chemical_formula_moiety         'C48 H24 B1 Cl1 F36 N6 O12,1.22(C6 H6)'
_chemical_name_systematic        
'14d-chloro-1,2,3,4,6,7,8,9,11,12,13,14-dodecakis(2,2,2-trifluoroethoxy)-14dH-5,9\L^5^,10,14\L^5^,14e\l^5^,15-hexaaza-14d\l^5^-boradibenzo[2,3:5,6]-s-indaceno[1,8,7-bcde]fluoranthene benzene solvate'
_symmetry_cell_setting           monoclinic
_symmetry_space_group_name_H-M   'P 21'
_symmetry_Int_Tables_number      4
_space_group_name_Hall           'P 2yb'
loop_
_symmetry_equiv_pos_site_id
_symmetry_equiv_pos_as_xyz
1 x,y,z
2 -x,1/2+y,-z
_cell_length_a                   22.3083(4)
_cell_length_b                   8.31344(15)
_cell_length_c                   35.485(3)
_cell_angle_alpha                90
_cell_angle_beta                 98.169(7)
_cell_angle_gamma                90
_cell_volume                     6514.23
_exptl_crystal_colour            purple
_exptl_crystal_description       platelet
_cell_formula_units_Z            4
loop_
_atom_site_label
_atom_site_type_symbol
_atom_site_fract_x
_atom_site_fract_y
_atom_site_fract_z
B1 B 0.7276(4) 0.5585(12) 0.9261(3)
Cl1 Cl 0.70287(9) 0.3666(3) 0.94603(6)
N1 N 0.7095(3) 0.7009(9) 0.94715(19)
C1 C 0.6584(4) 0.7855(10) 0.9364(3)
N2 N 0.6247(3) 0.7678(8) 0.9014(2)
C2 C 0.6487(4) 0.6735(10) 0.8765(2)
N3 N 0.7002(3) 0.5869(9) 0.8862(2)
C3 C 0.7297(4) 0.5527(10) 0.8567(3)
N4 N 0.7906(3) 0.5229(9) 0.8603(2)
C4 C 0.8212(4) 0.5503(10) 0.8956(2)
N5 N 0.7932(3) 0.5750(9) 0.9264(2)
C5 C 0.8296(4) 0.6542(11) 0.9553(3)
N6 N 0.8077(3) 0.7413(8) 0.98253(19)
C6 C 0.7468(4) 0.7679(11) 0.9764(3)
C7 C 0.7103(4) 0.8944(10) 0.9918(3)
C8 C 0.7212(4) 0.9933(11) 1.0234(2)
C9 C 0.6778(4) 1.1049(11) 1.0291(3)
C10 C 0.6228(4) 1.1164(10) 1.0032(3)
C11 C 0.6116(4) 1.0201(11) 0.9714(3)
C12 C 0.6560(4) 0.9059(10) 0.9657(2)
C13 C 0.6358(4) 0.6598(11) 0.8353(2)
C14 C 0.5874(4) 0.7115(10) 0.8088(2)
C15 C 0.5905(4) 0.6889(11) 0.7701(3)
C16 C 0.6420(4) 0.6199(12) 0.7583(3)
C17 C 0.6893(4) 0.5641(11) 0.7848(3)
C18 C 0.6866(4) 0.5829(11) 0.8227(2)
C19 C 0.8840(4) 0.5885(11) 0.9066(3)
C20 C 0.9335(4) 0.5923(11) 0.8861(3)
C21 C 0.9879(4) 0.6599(11) 0.9039(3)
C22 C 0.9938(4) 0.7122(11) 0.9422(3)
C23 C 0.9451(4) 0.7114(11) 0.9620(3)
C24 C 0.8894(4) 0.6529(10) 0.9444(2)
O1 O 0.7751(2) 0.9829(7) 1.04734(16)
C25 C 0.7718(4) 0.9492(12) 1.0860(2)
H1 H 0.7311 0.9075 1.0889
H2 H 0.7792 1.0482 1.1015
C26 C 0.8192(4) 0.8255(12) 1.0989(3)
F1 F 0.8125(2) 0.6893(7) 1.07793(18)
F2 F 0.8745(2) 0.8810(7) 1.09565(15)
F3 F 0.8192(3) 0.7858(9) 1.13500(17)
O2 O 0.6864(3) 1.2037(7) 1.06082(17)
C27 C 0.6965(4) 1.3708(12) 1.0532(3)
H3 H 0.6668 1.4100 1.0318
H4 H 0.7379 1.3879 1.0469
C28 C 0.6883(5) 1.4554(13) 1.0899(4)
F4 F 0.7300(3) 1.4209(10) 1.1184(2)
F5 F 0.6899(3) 1.6171(8) 1.0827(2)
F6 F 0.6351(3) 1.4266(8) 1.1005(2)
O3 O 0.5800(3) 1.2320(7) 1.00847(17)
C29 C 0.5488(4) 1.2142(11) 1.0407(3)
H5 H 0.5334 1.3204 1.0476
H6 H 0.5775 1.1752 1.0627
C30 C 0.4976(4) 1.1002(12) 1.0331(3)
F7 F 0.4698(2) 1.0819(7) 1.06382(15)
F8 F 0.4555(2) 1.1448(7) 1.00482(16)
F9 F 0.5153(2) 0.9516(6) 1.02374(16)
O4 O 0.5591(3) 1.0299(7) 0.94673(17)
C31 C 0.5549(4) 1.1724(12) 0.9228(3)
H7 H 0.5850 1.1660 0.9049
H8 H 0.5638 1.2694 0.9388
C32 C 0.4934(5) 1.1844(12) 0.9013(3)
F10 F 0.4508(3) 1.1859(9) 0.92413(17)
F11 F 0.4898(3) 1.3177(8) 0.88061(19)
F12 F 0.4802(3) 1.0610(8) 0.87755(18)
O5 O 0.5351(2) 0.7801(7) 0.81753(17)
C33 C 0.5094(4) 0.7125(12) 0.8477(3)
H9 H 0.5173 0.7818 0.8705
H10 H 0.5269 0.6049 0.8541
C34 C 0.4425(4) 0.6990(13) 0.8348(3)
F13 F 0.4142(2) 0.6405(7) 0.86317(16)
F14 F 0.4166(2) 0.8369(8) 0.82382(18)
F15 F 0.4308(3) 0.5946(9) 0.80587(17)
O6 O 0.5433(3) 0.7382(8) 0.74319(18)
C35 C 0.5032(4) 0.6121(12) 0.7289(3)
H11 H 0.4935 0.5437 0.7501
H12 H 0.5220 0.5440 0.7110
C36 C 0.4478(4) 0.6881(13) 0.7093(3)
F16 F 0.4204(3) 0.7821(8) 0.73161(19)
F17 F 0.4071(3) 0.5761(8) 0.6952(2)
F18 F 0.4565(3) 0.7816(11) 0.6809(2)
O7 O 0.6435(3) 0.5874(10) 0.71966(19)
C37 C 0.6407(7) 0.701(2) 0.6872(6)
H13 H 0.6026 0.7636 0.6847
H14 H 0.6421 0.6414 0.6632
C38 C 0.6940(4) 0.8114(13) 0.6951(3)
F19 F 0.6920(6) 0.8997(17) 0.7259(3)
F20 F 0.7443(6) 0.7229(18) 0.6994(4)
F21 F 0.6974(7) 0.9124(18) 0.6663(3)
O8 O 0.7410(3) 0.4976(8) 0.77235(18)
C39 C 0.7325(5) 0.3366(17) 0.7603(4)
H15 H 0.6929 0.3246 0.7440
H16 H 0.7331 0.2650 0.7827
C40 C 0.7819(7) 0.292(2) 0.7386(5)
F22 F 0.7748(4) 0.3690(15) 0.7059(2)
F23 F 0.8353(3) 0.3176(12) 0.7543(2)
F24 F 0.7766(4) 0.1398(13) 0.7269(3)
O9 O 0.9307(3) 0.5464(8) 0.84933(17)
C41 C 0.9116(4) 0.3833(13) 0.8408(3)
H17 H 0.8731 0.3822 0.8231
H18 H 0.9052 0.3266 0.8645
C42 C 0.9602(5) 0.3024(15) 0.8231(3)
F25 F 0.9448(4) 0.1468(8) 0.8161(3)
F26 F 0.9672(3) 0.3650(9) 0.78970(17)
F27 F 1.0133(3) 0.3021(10) 0.84422(18)
O10 O 1.0389(3) 0.6545(8) 0.88698(17)
C43 C 1.0400(5) 0.7679(14) 0.8557(3)
H19 H 1.0195 0.8696 0.8608
H20 H 1.0196 0.7218 0.8315
C44 C 1.1059(6) 0.7965(17) 0.8538(4)
F28 F 1.1347(3) 0.6681(9) 0.8448(2)
F29 F 1.1104(3) 0.9056(11) 0.8275(2)
F30 F 1.1357(3) 0.8463(11) 0.8873(3)
O11 O 1.0483(2) 0.7720(7) 0.95912(17)
C45 C 1.0906(4) 0.6504(10) 0.9734(3)
H21 H 1.1078 0.5985 0.9523
H22 H 1.0704 0.5670 0.9871
C46 C 1.1396(4) 0.7304(11) 1.0000(3)
F31 F 1.1701(2) 0.8418(6) 0.98313(15)
F32 F 1.1783(2) 0.6213(6) 1.01649(15)
F33 F 1.1167(2) 0.8073(6) 1.02848(15)
O12 O 0.9547(3) 0.7687(7) 0.99912(17)
C47 C 0.9315(4) 0.6752(11) 1.0272(2)
H23 H 0.9195 0.5670 1.0172
H24 H 0.8958 0.7282 1.0354
C48 C 0.9824(4) 0.6634(12) 1.0597(3)
F34 F 1.0301(2) 0.5803(7) 1.05164(16)
F35 F 1.0033(2) 0.8080(6) 1.07248(15)
F36 F 0.9626(3) 0.5886(7) 1.08951(15)
B2 B 0.2747(4) 0.0142(11) 0.5744(3)
Cl2 Cl 0.29878(9) -0.1790(3) 0.55498(6)
N7 N 0.3009(3) 0.0427(9) 0.6150(2)
C51 C 0.3528(3) 0.1310(10) 0.6247(2)
N8 N 0.3759(3) 0.2246(8) 0.5988(2)
C52 C 0.3431(4) 0.2413(10) 0.5640(2)
N9 N 0.2916(3) 0.1565(9) 0.55366(19)
C53 C 0.2538(4) 0.2229(10) 0.5244(2)
N10 N 0.1933(3) 0.1939(9) 0.5183(2)
C54 C 0.1715(4) 0.1078(11) 0.5454(3)
N11 N 0.2083(3) 0.0296(8) 0.57473(19)
C55 C 0.1806(4) 0.0067(10) 0.6064(2)
N12 N 0.2113(3) -0.0162(9) 0.6409(2)
C56 C 0.2715(4) 0.0132(10) 0.6448(3)
C57 C 0.3135(4) 0.0513(10) 0.6786(3)
C58 C 0.3094(4) 0.0484(11) 0.7169(3)
C59 C 0.3560(4) 0.1146(12) 0.7425(3)
C60 C 0.4075(4) 0.1789(12) 0.7301(3)
C61 C 0.4129(4) 0.1870(11) 0.6913(2)
C62 C 0.3647(3) 0.1257(11) 0.6653(2)
C63 C 0.3447(4) 0.3608(10) 0.5346(2)
C64 C 0.3887(3) 0.4768(10) 0.5291(2)
C65 C 0.3771(4) 0.5729(11) 0.4973(2)
C66 C 0.3221(4) 0.5618(10) 0.4721(3)
C67 C 0.2786(4) 0.4473(11) 0.4773(2)
C68 C 0.2897(4) 0.3484(11) 0.5090(3)
C69 C 0.1116(4) 0.1047(11) 0.5567(2)
C70 C 0.0561(4) 0.1613(10) 0.5387(2)
C71 C 0.0069(4) 0.1600(10) 0.5587(3)
C72 C 0.0130(4) 0.1109(11) 0.5964(3)
C73 C 0.0671(4) 0.0462(11) 0.6146(3)
C74 C 0.1168(4) 0.0418(10) 0.5948(2)
O13 O 0.2594(3) -0.0153(9) 0.73069(18)
C75 C 0.2534(7) -0.1919(19) 0.7293(4)
H27 H 0.2299 -0.2245 0.7047
H28 H 0.2940 -0.2418 0.7312
C76 C 0.2233(8) -0.246(2) 0.7601(5)
F40 F 0.1671(4) -0.1745(13) 0.7557(3)
F41 F 0.2133(4) -0.4020(11) 0.7583(2)
F42 F 0.2446(4) -0.2047(14) 0.7929(2)
O14 O 0.3555(3) 0.1035(9) 0.78104(18)
C77 C 0.3022(4) 0.1565(7) 0.7999(3)
H29 H 0.2979 0.0898 0.8225
H30 H 0.2639 0.1528 0.7819
C78 C 0.3200(2) 0.3279(6) 0.81103(13)
F43 F 0.3738(3) 0.3240(10) 0.83463(18)
F44 F 0.3285(3) 0.4233(8) 0.78231(15)
F45 F 0.2808(3) 0.3993(9) 0.83010(18)
O15 O 0.4537(3) 0.2459(8) 0.75581(17)
C79 C 0.4898(5) 0.1292(14) 0.7791(3)
H31 H 0.4969 0.0328 0.7639
H32 H 0.4694 0.0957 0.8008
C80 C 0.5488(5) 0.2135(15) 0.7929(4)
F46 F 0.5785(3) 0.2568(10) 0.7651(2)
F47 F 0.5839(3) 0.1182(9) 0.8157(3)
F48 F 0.5415(3) 0.3514(8) 0.81109(19)
O16 O 0.4649(3) 0.2524(7) 0.68138(17)
C81 C 0.4918(4) 0.1740(11) 0.6530(3)
H33 H 0.4866 0.2385 0.6293
H34 H 0.4729 0.0674 0.6473
C82 C 0.5576(5) 0.1551(13) 0.6678(3)
F49 F 0.5866(2) 0.0922(7) 0.64002(17)
F50 F 0.5673(2) 0.0558(7) 0.69745(17)
F51 F 0.5849(2) 0.2949(7) 0.67800(17)
O17 O 0.4415(2) 0.4849(7) 0.55323(17)
C83 C 0.4466(4) 0.6270(12) 0.5768(3)
H35 H 0.4172 0.6218 0.5952
H36 H 0.4376 0.7240 0.5608
C84 C 0.5094(4) 0.6363(11) 0.5976(3)
F52 F 0.5513(2) 0.6287(8) 0.57431(17)
F53 F 0.5224(2) 0.5178(7) 0.62288(16)
F54 F 0.5175(3) 0.7749(7) 0.61619(17)
O18 O 0.4200(2) 0.6882(7) 0.49190(17)
C85 C 0.4500(4) 0.6714(11) 0.4589(3)
H37 H 0.4647 0.7780 0.4517
H38 H 0.4209 0.6310 0.4373
C86 C 0.5020(4) 0.5585(12) 0.4663(3)
F55 F 0.5282(2) 0.5417(7) 0.43452(15)
F56 F 0.4837(2) 0.4099(6) 0.47538(16)
F57 F 0.5444(2) 0.6040(7) 0.49380(16)
O19 O 0.3125(3) 0.6598(8) 0.44003(18)
C87 C 0.3044(4) 0.8272(11) 0.4469(3)
H39 H 0.3360 0.8663 0.4673
H40 H 0.2642 0.8470 0.4548
C88 C 0.3094(4) 0.9100(13) 0.4105(3)
F58 F 0.3081(3) 1.0701(8) 0.4154(2)
F59 F 0.3604(3) 0.8763(7) 0.39670(19)
F60 F 0.2640(3) 0.8738(9) 0.38311(18)
O20 O 0.2249(2) 0.4376(7) 0.45360(16)
C89 C 0.2285(4) 0.4085(12) 0.4143(3)
H41 H 0.2692 0.3671 0.4113
H42 H 0.2213 0.5093 0.3995
C90 C 0.1804(4) 0.2851(12) 0.4005(3)
F61 F 0.1816(3) 0.2497(9) 0.36458(16)
F62 F 0.1253(2) 0.3403(7) 0.40405(15)
F63 F 0.1871(2) 0.1484(7) 0.42089(17)
O21 O 0.0469(2) 0.2203(7) 0.50207(16)
C91 C 0.0691(4) 0.1260(11) 0.4736(3)
H43 H 0.0795 0.0165 0.4834
H44 H 0.1059 0.1760 0.4661
C92 C 0.0203(4) 0.1184(11) 0.4405(3)
F64 F 0.0401(2) 0.0476(7) 0.41078(15)
F65 F 0.0000(2) 0.2660(6) 0.42900(15)
F66 F -0.0285(2) 0.0375(6) 0.44763(15)
O22 O -0.0475(2) 0.2243(7) 0.54119(17)
C93 C -0.0897(4) 0.1006(11) 0.5264(3)
H45 H -0.1075 0.0486 0.5474
H46 H -0.0692 0.0174 0.5129
C94 C -0.1376(4) 0.1829(11) 0.4997(3)
F67 F -0.1152(2) 0.2629(6) 0.47187(14)
F68 F -0.1763(2) 0.0737(6) 0.48273(15)
F69 F -0.1697(2) 0.2919(7) 0.51693(16)
O23 O -0.0383(3) 0.1081(7) 0.61382(16)
C95 C -0.0396(5) 0.2208(14) 0.6447(3)
H47 H -0.0168 0.3195 0.6403
H48 H -0.0215 0.1723 0.6692
C96 C -0.1047(6) 0.2587(18) 0.6452(4)
F70 F -0.1314(3) 0.3209(12) 0.6131(3)
F71 F -0.1363(3) 0.1345(9) 0.6530(2)
F72 F -0.1078(3) 0.3652(11) 0.6725(3)
O24 O 0.0716(3) -0.0024(8) 0.65185(16)
C97 C 0.0900(9) -0.158(3) 0.6607(7)
H49 H 0.1292 -0.1578 0.6777
H50 H 0.0954 -0.2175 0.6372
C98 C 0.0428(10) -0.240(4) 0.6801(7)
F73 F 0.0354(5) -0.1580(18) 0.7122(4)
F74 F 0.0605(8) -0.3873(18) 0.6909(6)
F75 F -0.0104(6) -0.2457(18) 0.6592(3)
C107 C 0.7351(7) 0.9729(16) 0.8266(4)
H59 H 0.7028 0.9702 0.8060
C108 C 0.7264(5) 1.0243(17) 0.8614(4)
H60 H 0.6866 1.0541 0.8653
C109 C 0.7714(6) 1.0356(14) 0.8910(3)
H61 H 0.7627 1.0777 0.9145
C110 C 0.8292(6) 0.9883(16) 0.8881(5)
H62 H 0.8605 0.9926 0.9093
C111 C 0.8402(7) 0.9315(17) 0.8513(5)
H63 H 0.8796 0.8992 0.8473
C112 C 0.7923(9) 0.9247(16) 0.8220(5)
H64 H 0.7993 0.8853 0.7979
C113 C 0.2672(6) 0.4408(14) 0.6738(3)
H65 H 0.2974 0.4447 0.6955
C114 C 0.2096(7) 0.3866(15) 0.6768(4)
H66 H 0.2002 0.3517 0.7008
C115 C 0.1661(6) 0.3829(17) 0.6457(5)
H67 H 0.1268 0.3447 0.6485
C116 C 0.1776(6) 0.4339(17) 0.6097(4)
H68 H 0.1474 0.4312 0.5879
C117 C 0.2367(5) 0.4889(13) 0.6081(3)
H69 H 0.2467 0.5277 0.5845
C118 C 0.2799(5) 0.4883(14) 0.6392(3)
H70 H 0.3198 0.5219 0.6367
C49? C 0.6375(6) 0.723(2) 0.6953(6)
H25? H 0.6216 0.8164 0.7081
H26? H 0.6098 0.6994 0.6716
C50? C 0.6995(5) 0.7549(16) 0.6871(3)
F37? F 0.7373(8) 0.796(3) 0.7181(4)
F38? F 0.7203(8) 0.6244(19) 0.6714(5)
F39? F 0.7015(8) 0.8766(19) 0.6625(4)
C99? C 0.0355(8) -0.143(2) 0.6581(6)
H51? H 0.0189 -0.1305 0.6824
H52? H 0.0010 -0.1517 0.6373
C100? C 0.0709(10) -0.289(3) 0.6596(6)
F76? F 0.0966(5) -0.3131(14) 0.6269(3)
F77? F 0.1177(5) -0.2986(13) 0.6886(3)
F78? F 0.0370(6) -0.4245(14) 0.6616(4)
C101? C -0.0880(14) -0.282(4) 0.7204(8)
H53? H -0.1178 -0.3514 0.7075
C102? C -0.0985(11) -0.125(4) 0.7227(6)
H54? H -0.1364 -0.0829 0.7113
C103? C -0.0552(13) -0.021(3) 0.7414(7)
H55? H -0.0651 0.0896 0.7437
C104? C 0.0004(10) -0.072(4) 0.7562(6)
H56? H 0.0302 0.0005 0.7679
C105? C 0.0133(12) -0.240(4) 0.7539(6)
H57? H 0.0523 -0.2802 0.7636
C106? C -0.0309(13) -0.344(3) 0.7376(6)
H58? H -0.0236 -0.4562 0.7378
loop_
_geom_bond_atom_site_label_1
_geom_bond_atom_site_label_2
_geom_bond_site_symmetry_1
_geom_bond_site_symmetry_2
B1 Cl1 1_555 1_555
N1 B1 1_555 1_555
C1 N1 1_555 1_555
N2 C1 1_555 1_555
C2 N2 1_555 1_555
N3 B1 1_555 1_555
C3 N3 1_555 1_555
N4 C3 1_555 1_555
C4 N4 1_555 1_555
N5 B1 1_555 1_555
C5 N5 1_555 1_555
N6 C5 1_555 1_555
C6 N1 1_555 1_555
C7 C6 1_555 1_555
C8 C7 1_555 1_555
C9 C8 1_555 1_555
C10 C9 1_555 1_555
C11 C10 1_555 1_555
C12 C1 1_555 1_555
C13 C2 1_555 1_555
C14 C13 1_555 1_555
C15 C14 1_555 1_555
C16 C15 1_555 1_555
C17 C16 1_555 1_555
C18 C3 1_555 1_555
C19 C4 1_555 1_555
C20 C19 1_555 1_555
C21 C20 1_555 1_555
C22 C21 1_555 1_555
C23 C22 1_555 1_555
C24 C5 1_555 1_555
O1 C8 1_555 1_555
C25 O1 1_555 1_555
H1 C25 1_555 1_555
H2 C25 1_555 1_555
C26 C25 1_555 1_555
F1 C26 1_555 1_555
F2 C26 1_555 1_555
F3 C26 1_555 1_555
O2 C9 1_555 1_555
C27 O2 1_555 1_555
H3 C27 1_555 1_555
H4 C27 1_555 1_555
C28 C27 1_555 1_555
F4 C28 1_555 1_555
F5 C28 1_555 1_555
F6 C28 1_555 1_555
O3 C10 1_555 1_555
C29 O3 1_555 1_555
H5 C29 1_555 1_555
H6 C29 1_555 1_555
C30 C29 1_555 1_555
F7 C30 1_555 1_555
F8 C30 1_555 1_555
F9 C30 1_555 1_555
O4 C11 1_555 1_555
C31 O4 1_555 1_555
H7 C31 1_555 1_555
H8 C31 1_555 1_555
C32 C31 1_555 1_555
F10 C32 1_555 1_555
F11 C32 1_555 1_555
F12 C32 1_555 1_555
O5 C14 1_555 1_555
C33 O5 1_555 1_555
H9 C33 1_555 1_555
H10 C33 1_555 1_555
C34 C33 1_555 1_555
F13 C34 1_555 1_555
F14 C34 1_555 1_555
F15 C34 1_555 1_555
O6 C15 1_555 1_555
C35 O6 1_555 1_555
H11 C35 1_555 1_555
H12 C35 1_555 1_555
C36 C35 1_555 1_555
F16 C36 1_555 1_555
F17 C36 1_555 1_555
F18 C36 1_555 1_555
O7 C16 1_555 1_555
C37 O7 1_555 1_555
H13 C37 1_555 1_555
H14 C37 1_555 1_555
C38 C37 1_555 1_555
F19 C38 1_555 1_555
F20 C38 1_555 1_555
F21 C38 1_555 1_555
O8 C17 1_555 1_555
C39 O8 1_555 1_555
H15 C39 1_555 1_555
H16 C39 1_555 1_555
C40 C39 1_555 1_555
F22 C40 1_555 1_555
F23 C40 1_555 1_555
F24 C40 1_555 1_555
O9 C20 1_555 1_555
C41 O9 1_555 1_555
H17 C41 1_555 1_555
H18 C41 1_555 1_555
C42 C41 1_555 1_555
F25 C42 1_555 1_555
F26 C42 1_555 1_555
F27 C42 1_555 1_555
O10 C21 1_555 1_555
C43 O10 1_555 1_555
H19 C43 1_555 1_555
H20 C43 1_555 1_555
C44 C43 1_555 1_555
F28 C44 1_555 1_555
F29 C44 1_555 1_555
F30 C44 1_555 1_555
O11 C22 1_555 1_555
C45 O11 1_555 1_555
H21 C45 1_555 1_555
H22 C45 1_555 1_555
C46 C45 1_555 1_555
F31 C46 1_555 1_555
F32 C46 1_555 1_555
F33 C46 1_555 1_555
O12 C23 1_555 1_555
C47 O12 1_555 1_555
H23 C47 1_555 1_555
H24 C47 1_555 1_555
C48 C47 1_555 1_555
F34 C48 1_555 1_555
F35 C48 1_555 1_555
F36 C48 1_555 1_555
B2 Cl2 1_555 1_555
N7 B2 1_555 1_555
C51 N7 1_555 1_555
N8 C51 1_555 1_555
C52 N8 1_555 1_555
N9 B2 1_555 1_555
C53 N9 1_555 1_555
N10 C53 1_555 1_555
C54 N10 1_555 1_555
N11 B2 1_555 1_555
C55 N11 1_555 1_555
N12 C55 1_555 1_555
C56 N7 1_555 1_555
C57 C56 1_555 1_555
C58 C57 1_555 1_555
C59 C58 1_555 1_555
C60 C59 1_555 1_555
C61 C60 1_555 1_555
C62 C51 1_555 1_555
C63 C52 1_555 1_555
C64 C63 1_555 1_555
C65 C64 1_555 1_555
C66 C65 1_555 1_555
C67 C66 1_555 1_555
C68 C53 1_555 1_555
C69 C54 1_555 1_555
C70 C69 1_555 1_555
C71 C70 1_555 1_555
C72 C71 1_555 1_555
C73 C72 1_555 1_555
C74 C55 1_555 1_555
O13 C58 1_555 1_555
C75 O13 1_555 1_555
H27 C75 1_555 1_555
H28 C75 1_555 1_555
C76 C75 1_555 1_555
F40 C76 1_555 1_555
F41 C76 1_555 1_555
F42 C76 1_555 1_555
O14 C59 1_555 1_555
C77 O14 1_555 1_555
H29 C77 1_555 1_555
H30 C77 1_555 1_555
C78 C77 1_555 1_555
F43 C78 1_555 1_555
F44 C78 1_555 1_555
F45 C78 1_555 1_555
O15 C60 1_555 1_555
C79 O15 1_555 1_555
H31 C79 1_555 1_555
H32 C79 1_555 1_555
C80 C79 1_555 1_555
F46 C80 1_555 1_555
F47 C80 1_555 1_555
F48 C80 1_555 1_555
O16 C61 1_555 1_555
C81 O16 1_555 1_555
H33 C81 1_555 1_555
H34 C81 1_555 1_555
C82 C81 1_555 1_555
F49 C82 1_555 1_555
F50 C82 1_555 1_555
F51 C82 1_555 1_555
O17 C64 1_555 1_555
C83 O17 1_555 1_555
H35 C83 1_555 1_555
H36 C83 1_555 1_555
C84 C83 1_555 1_555
F52 C84 1_555 1_555
F53 C84 1_555 1_555
F54 C84 1_555 1_555
O18 C65 1_555 1_555
C85 O18 1_555 1_555
H37 C85 1_555 1_555
H38 C85 1_555 1_555
C86 C85 1_555 1_555
F55 C86 1_555 1_555
F56 C86 1_555 1_555
F57 C86 1_555 1_555
O19 C66 1_555 1_555
C87 O19 1_555 1_555
H39 C87 1_555 1_555
H40 C87 1_555 1_555
C88 C87 1_555 1_555
F58 C88 1_555 1_555
F59 C88 1_555 1_555
F60 C88 1_555 1_555
O20 C67 1_555 1_555
C89 O20 1_555 1_555
H41 C89 1_555 1_555
H42 C89 1_555 1_555
C90 C89 1_555 1_555
F61 C90 1_555 1_555
F62 C90 1_555 1_555
F63 C90 1_555 1_555
O21 C70 1_555 1_555
C91 O21 1_555 1_555
H43 C91 1_555 1_555
H44 C91 1_555 1_555
C92 C91 1_555 1_555
F64 C92 1_555 1_555
F65 C92 1_555 1_555
F66 C92 1_555 1_555
O22 C71 1_555 1_555
C93 O22 1_555 1_555
H45 C93 1_555 1_555
H46 C93 1_555 1_555
C94 C93 1_555 1_555
F67 C94 1_555 1_555
F68 C94 1_555 1_555
F69 C94 1_555 1_555
O23 C72 1_555 1_555
C95 O23 1_555 1_555
H47 C95 1_555 1_555
H48 C95 1_555 1_555
C96 C95 1_555 1_555
F70 C96 1_555 1_555
F71 C96 1_555 1_555
F72 C96 1_555 1_555
O24 C73 1_555 1_555
C97 O24 1_555 1_555
H49 C97 1_555 1_555
H50 C97 1_555 1_555
C98 C97 1_555 1_555
F73 C98 1_555 1_555
F74 C98 1_555 1_555
F75 C98 1_555 1_555
C107 H59 1_555 1_555
C108 C107 1_555 1_555
H60 C108 1_555 1_555
C109 C108 1_555 1_555
H61 C109 1_555 1_555
C110 C109 1_555 1_555
H62 C110 1_555 1_555
C111 C110 1_555 1_555
H63 C111 1_555 1_555
C112 C107 1_555 1_555
H64 C112 1_555 1_555
C113 H65 1_555 1_555
C114 C113 1_555 1_555
H66 C114 1_555 1_555
C115 C114 1_555 1_555
H67 C115 1_555 1_555
C116 C115 1_555 1_555
H68 C116 1_555 1_555
C117 C116 1_555 1_555
H69 C117 1_555 1_555
C118 C113 1_555 1_555
H70 C118 1_555 1_555
C2 N3 1_555 1_555
C4 N5 1_555 1_555
N6 C6 1_555 1_555
C7 C12 1_555 1_555
C11 C12 1_555 1_555
C13 C18 1_555 1_555
C17 C18 1_555 1_555
C19 C24 1_555 1_555
C23 C24 1_555 1_555
C52 N9 1_555 1_555
C54 N11 1_555 1_555
N12 C56 1_555 1_555
C57 C62 1_555 1_555
C61 C62 1_555 1_555
C63 C68 1_555 1_555
C67 C68 1_555 1_555
C69 C74 1_555 1_555
C73 C74 1_555 1_555
C111 C112 1_555 1_555
C117 C118 1_555 1_555

#END
