
#######################################################################
#
#                 Cambridge Crystallographic Data Centre
#                                CCDC 
#
#######################################################################
#
# If this CIF has been generated from an entry in the Cambridge 
# Structural Database, then it will include bibliographic, chemical, 
# crystal, experimental, refinement or atomic coordinate data resulting 
# from the CCDC's data processing and validation procedures.
#
#######################################################################

data_WEPTIU
_chemical_formula_moiety         'C34 H30 N2 O12 S2,5(C2 H6 O1 S1)'
_chemical_name_systematic        
'2,11-bis(p-Tolylsulfonyl)-2,11-diaza(3.3)metacyclophane-5,7,14,16-tetracarboxylic acid dimethylsulfoxide solvate'
_symmetry_cell_setting           monoclinic
_symmetry_space_group_name_H-M   'P 21/c'
_symmetry_Int_Tables_number      14
_space_group_name_Hall           '-P 2ybc'
loop_
_symmetry_equiv_pos_site_id
_symmetry_equiv_pos_as_xyz
1 x,y,z
2 -x,1/2+y,1/2-z
3 -x,-y,-z
4 x,1/2-y,1/2+z
_cell_length_a                   14.134(1)
_cell_length_b                   20.325(1)
_cell_length_c                   18.896(1)
_cell_angle_alpha                90
_cell_angle_beta                 93.55(1)
_cell_angle_gamma                90
_cell_volume                     5417.9
_exptl_crystal_colour            colorless
_chemical_melting_point          'above 320deg.C'
_cell_formula_units_Z            4
loop_
_atom_site_label
_atom_site_type_symbol
_atom_site_fract_x
_atom_site_fract_y
_atom_site_fract_z
N1 N 0.5670(2) 0.0516(2) 0.1469(2)
S1 S 0.4744(1) 0.0859(1) 0.1078(1)
O1 O 0.4255(2) 0.0352(2) 0.0678(2)
O2 O 0.4275(2) 0.1200(2) 0.1613(2)
C1 C 0.5122(3) 0.1448(2) 0.0479(2)
C2 C 0.5604(3) 0.1255(2) -0.0106(2)
C3 C 0.5885(3) 0.1719(2) -0.0572(3)
C4 C 0.5687(4) 0.2384(2) -0.0485(3)
C5 C 0.5207(4) 0.2558(2) 0.0080(3)
C6 C 0.4921(4) 0.2106(2) 0.0572(3)
C7 C 0.6035(5) 0.2885(3) -0.0992(4)
N2 N 0.4407(2) -0.0960(2) 0.3045(2)
S2 S 0.3286(1) -0.1063(1) 0.2853(1)
O3 O 0.2855(2) -0.0436(2) 0.2901(2)
O4 O 0.3201(3) -0.1407(2) 0.2198(2)
C8 C 0.2828(3) -0.1564(2) 0.3510(2)
C9 C 0.2815(3) -0.2243(2) 0.3420(3)
C10 C 0.2426(3) -0.2625(2) 0.3922(3)
C11 C 0.2049(3) -0.2366(3) 0.4510(3)
C12 C 0.2070(4) -0.1684(3) 0.4585(3)
C13 C 0.2466(3) -0.1294(2) 0.4100(3)
C14 C 0.1597(5) -0.2790(4) 0.5053(4)
C15 C 0.6250(3) 0.0901(2) 0.2002(2)
C16 C 0.6235(3) 0.0628(2) 0.2747(2)
C17 C 0.6994(3) 0.0718(2) 0.3250(2)
C18 C 0.7001(3) 0.0389(2) 0.3888(2)
C19 C 0.6271(3) -0.0043(2) 0.4055(2)
C20 C 0.5491(3) -0.0115(2) 0.3565(2)
C21 C 0.5498(3) 0.0234(2) 0.2939(2)
C22 C 0.4669(4) -0.0571(3) 0.3682(3)
C23 C 0.5038(3) -0.1511(3) 0.2900(4)
C24 C 0.5883(3) -0.1292(2) 0.2494(3)
C25 C 0.6811(3) -0.1483(2) 0.2665(2)
C26 C 0.7531(3) -0.1252(2) 0.2279(2)
C27 C 0.7373(3) -0.0770(2) 0.1758(2)
C28 C 0.6447(3) -0.0558(2) 0.1595(2)
C29 C 0.5721(3) -0.0854(2) 0.1934(3)
C30 C 0.6186(3) 0.0003(2) 0.1093(2)
C31 C 0.7780(3) 0.1188(2) 0.3128(2)
O5 O 0.8495(2) 0.1158(2) 0.3596(2)
O6 O 0.7749(2) 0.1587(2) 0.2659(2)
C32 C 0.6371(3) -0.0402(2) 0.4750(2)
O7 O 0.7210(3) -0.0363(2) 0.5063(2)
O8 O 0.5740(3) -0.0692(2) 0.5014(2)
C33 C 0.7083(3) -0.1917(2) 0.3293(3)
O9 O 0.7786(3) -0.2294(2) 0.3199(2)
O10 O 0.6707(3) -0.1874(2) 0.3854(2)
C34 C 0.8210(3) -0.0508(3) 0.1420(3)
O11 O 0.8867(3) -0.0940(2) 0.1353(3)
O12 O 0.8302(3) 0.0051(2) 0.1254(4)
H1 H 0.5734(3) 0.0813(2) -0.0180(2)
H2 H 0.6217(3) 0.1588(2) -0.0958(3)
H3 H 0.5062(4) 0.2999(2) 0.0142(3)
H4 H 0.4598(4) 0.2244(2) 0.0959(3)
H5 H 0.6359(5) 0.2666(3) -0.1357(4)
H6 H 0.6464(5) 0.3183(3) -0.0740(4)
H7 H 0.5506(5) 0.3127(3) -0.1202(4)
H8 H 0.3067(3) -0.2434(2) 0.3026(3)
H9 H 0.2417(3) -0.3079(2) 0.3861(3)
H10 H 0.1808(4) -0.1492(3) 0.4975(3)
H11 H 0.2492(3) -0.0841(2) 0.4169(3)
H12 H 0.1378(5) -0.2516(4) 0.5423(4)
H13 H 0.2055(5) -0.3098(4) 0.5252(4)
H14 H 0.1071(5) -0.3025(4) 0.4829(4)
H15 H 0.6018(3) 0.1350(2) 0.2001(2)
H16 H 0.6900(3) 0.0911(2) 0.1866(2)
H17 H 0.7506(3) 0.0456(2) 0.4219(2)
H18 H 0.4968(3) 0.0200(2) 0.2623(2)
H19 H 0.4840(4) -0.0865(3) 0.4073(3)
H20 H 0.4127(4) -0.0313(3) 0.3809(3)
H21 H 0.4683(3) -0.1842(3) 0.2626(4)
H22 H 0.5267(3) -0.1710(3) 0.3345(4)
H23 H 0.8139(3) -0.1420(2) 0.2366(2)
H24 H 0.5099(3) -0.0756(2) 0.1782(3)
H25 H 0.6756(3) 0.0189(2) 0.0914(2)
H26 H 0.5791(3) -0.0160(2) 0.0693(2)
H27 H 0.8896(21) 0.1430(23) 0.3499(20)
H28 H 0.7199(12) -0.0510(36) 0.5467(14)
H29 H 0.7998(36) -0.2436(31) 0.3582(5)
H30 H 0.9365(14) -0.0753(3) 0.1278(45)
S3 S 1.0145(1) 0.2469(1) 0.2956(1)
O13 O 0.9929(2) 0.1905(2) 0.3431(2)
C35 C 0.9203(5) 0.3029(3) 0.3016(4)
C36 C 0.9866(5) 0.2216(4) 0.2076(4)
H31 H 0.9237(5) 0.3226(3) 0.3479(4)
H32 H 0.8611(5) 0.2801(3) 0.2938(4)
H33 H 0.9248(5) 0.3365(3) 0.2663(4)
H34 H 1.0321(5) 0.1896(4) 0.1942(4)
H35 H 0.9881(5) 0.2590(4) 0.1766(4)
H36 H 0.9244(5) 0.2025(4) 0.2042(4)
S4 S 0.6851(1) -0.1102(1) 0.6755(1)
O14 O 0.7531(4) -0.1105(2) 0.6153(2)
C37 C 0.6400(6) -0.1882(4) 0.6811(5)
C38 C 0.7636(5) -0.1102(3) 0.7512(3)
H37 H 0.5946(6) -0.1957(4) 0.6420(5)
H38 H 0.6097(6) -0.1929(4) 0.7249(5)
H39 H 0.6905(6) -0.2196(4) 0.6795(5)
H40 H 0.7952(5) -0.0685(3) 0.7553(3)
H41 H 0.8097(5) -0.1445(3) 0.7471(3)
H42 H 0.7289(5) -0.1178(3) 0.7925(3)
S5 S 0.8699(1) -0.2777(1) 0.4982(1)
O15 O 0.8476(4) -0.2985(2) 0.4222(2)
C39 C 0.8876(6) -0.1919(4) 0.4964(4)
C40 C 0.7631(7) -0.2790(5) 0.5382(5)
H43 H 0.9460(6) -0.1824(4) 0.4750(4)
H44 H 0.8906(6) -0.1750(4) 0.5440(4)
H45 H 0.8360(6) -0.1715(4) 0.4693(4)
H46 H 0.7427(7) -0.3238(5) 0.5433(5)
H47 H 0.7163(7) -0.2553(5) 0.5095(5)
H48 H 0.7709(7) -0.2588(5) 0.5841(5)
S6 S 1.1063(2) -0.0125(1) 0.1171(1)
O16 O 1.0434(3) -0.0641(2) 0.0847(3)
C41 C 1.2126(6) -0.0223(8) 0.0829(7)
C42 C 1.0654(9) 0.0567(4) 0.0830(7)
H49 H 1.2412(6) -0.0623(8) 0.1007(7)
H50 H 1.2527(6) 0.0143(8) 0.0965(7)
H51 H 1.2044(6) -0.0244(8) 0.0322(7)
H52 H 1.0043(9) 0.0657(4) 0.1002(7)
H53 H 1.0599(9) 0.0532(4) 0.0322(7)
H54 H 1.1082(9) 0.0919(4) 0.0965(7)
S7 S 1.0535(2) 0.4533(2) 0.1599(2)
O17 O 1.0163(6) 0.3809(4) 0.1654(5)
C43 C 0.9592(8) 0.4936(6) 0.1865(8)
C44 C 1.0319(16) 0.4728(8) 0.0725(7)
H55 H 0.9567(8) 0.4892(6) 0.2370(8)
H56 H 0.9027(8) 0.4754(6) 0.1635(8)
H57 H 0.9641(8) 0.5393(6) 0.1745(8)
H58 H 1.0801(16) 0.4537(8) 0.0453(7)
H59 H 1.0324(16) 0.5198(8) 0.0670(7)
H60 H 0.9711(16) 0.4559(8) 0.0560(7)
S8? S 0.7516(6) -0.1504(4) 0.6706(4)
S9? S 1.0999(5) -0.0148(4) 0.0570(4)
S10? S 0.9887(4) 0.4315(3) 0.1234(4)
C45? C 1.0924(20) 0.4725(13) 0.1051(16)
H61? H 0.6219(6) -0.2135(4) 0.6395(5)
H62? H 0.5932(6) -0.1549(4) 0.6877(5)
H63? H 0.6446(6) -0.2167(4) 0.7217(5)
H64? H 0.8224(5) -0.0864(3) 0.7545(3)
H65? H 0.7633(5) -0.1418(3) 0.7889(3)
H66? H 0.7118(5) -0.0801(3) 0.7549(3)
H67? H 1.2354(6) -0.0643(8) 0.0683(7)
H68? H 1.2199(6) -0.0189(8) 0.1337(7)
H69? H 1.2482(6) 0.0120(8) 0.0620(7)
H70? H 0.9996(9) 0.0627(4) 0.0687(7)
H71? H 1.1023(9) 0.0904(4) 0.0620(7)
H72? H 1.0739(9) 0.0594(4) 0.1337(7)
H73? H 0.9005(8) 0.4823(6) 0.2064(8)
H74? H 0.9530(8) 0.5354(6) 0.1632(8)
H75? H 1.0086(8) 0.4959(6) 0.2237(8)
H76? H 1.1247(20) 0.4484(13) 0.0703(16)
H77? H 1.1326(20) 0.4762(13) 0.1478(16)
H78? H 1.0771(20) 0.5157(13) 0.0873(16)
loop_
_geom_bond_atom_site_label_1
_geom_bond_atom_site_label_2
_geom_bond_site_symmetry_1
_geom_bond_site_symmetry_2
N1 S1 1_555 1_555
S1 O1 1_555 1_555
O2 S1 1_555 1_555
C1 S1 1_555 1_555
C2 C1 1_555 1_555
C3 C2 1_555 1_555
C4 C3 1_555 1_555
C5 C4 1_555 1_555
C6 C1 1_555 1_555
C7 C4 1_555 1_555
N2 S2 1_555 1_555
S2 O3 1_555 1_555
O4 S2 1_555 1_555
C8 S2 1_555 1_555
C9 C8 1_555 1_555
C10 C9 1_555 1_555
C11 C10 1_555 1_555
C12 C11 1_555 1_555
C13 C8 1_555 1_555
C14 C11 1_555 1_555
C15 N1 1_555 1_555
C16 C15 1_555 1_555
C17 C16 1_555 1_555
C18 C17 1_555 1_555
C19 C18 1_555 1_555
C20 C19 1_555 1_555
C21 C16 1_555 1_555
C22 N2 1_555 1_555
C23 N2 1_555 1_555
C24 C23 1_555 1_555
C25 C24 1_555 1_555
C26 C25 1_555 1_555
C27 C26 1_555 1_555
C28 C27 1_555 1_555
C29 C24 1_555 1_555
C30 N1 1_555 1_555
C31 C17 1_555 1_555
O5 C31 1_555 1_555
O6 C31 1_555 1_555
C32 C19 1_555 1_555
O7 C32 1_555 1_555
O8 C32 1_555 1_555
C33 C25 1_555 1_555
O9 C33 1_555 1_555
O10 C33 1_555 1_555
C34 C27 1_555 1_555
O11 C34 1_555 1_555
O12 C34 1_555 1_555
H1 C2 1_555 1_555
H2 C3 1_555 1_555
H3 C5 1_555 1_555
H4 C6 1_555 1_555
H5 C7 1_555 1_555
H6 C7 1_555 1_555
H7 C7 1_555 1_555
H8 C9 1_555 1_555
H9 C10 1_555 1_555
H10 C12 1_555 1_555
H11 C13 1_555 1_555
H12 C14 1_555 1_555
H13 C14 1_555 1_555
H14 C14 1_555 1_555
H15 C15 1_555 1_555
H16 C15 1_555 1_555
H17 C18 1_555 1_555
H18 C21 1_555 1_555
H19 C22 1_555 1_555
H20 C22 1_555 1_555
H21 C23 1_555 1_555
H22 C23 1_555 1_555
H23 C26 1_555 1_555
H24 C29 1_555 1_555
H25 C30 1_555 1_555
H26 C30 1_555 1_555
H27 O5 1_555 1_555
H28 O7 1_555 1_555
H29 O9 1_555 1_555
H30 O11 1_555 1_555
S3 O13 1_555 1_555
C35 S3 1_555 1_555
C36 S3 1_555 1_555
H31 C35 1_555 1_555
H32 C35 1_555 1_555
H33 C35 1_555 1_555
H34 C36 1_555 1_555
H35 C36 1_555 1_555
H36 C36 1_555 1_555
S4 O14 1_555 1_555
C37 S4 1_555 1_555
C38 S4 1_555 1_555
H37 C37 1_555 1_555
H38 C37 1_555 1_555
H39 C37 1_555 1_555
H40 C38 1_555 1_555
H41 C38 1_555 1_555
H42 C38 1_555 1_555
S5 O15 1_555 1_555
C39 S5 1_555 1_555
C40 S5 1_555 1_555
H43 C39 1_555 1_555
H44 C39 1_555 1_555
H45 C39 1_555 1_555
H46 C40 1_555 1_555
H47 C40 1_555 1_555
H48 C40 1_555 1_555
S6 O16 1_555 1_555
C41 S6 1_555 1_555
C42 S6 1_555 1_555
H49 C41 1_555 1_555
H50 C41 1_555 1_555
H51 C41 1_555 1_555
H52 C42 1_555 1_555
H53 C42 1_555 1_555
H54 C42 1_555 1_555
S7 O17 1_555 1_555
C43 S7 1_555 1_555
C44 S7 1_555 1_555
H55 C43 1_555 1_555
H56 C43 1_555 1_555
H57 C43 1_555 1_555
H58 C44 1_555 1_555
H59 C44 1_555 1_555
H60 C44 1_555 1_555
C5 C6 1_555 1_555
C12 C13 1_555 1_555
C20 C21 1_555 1_555
C20 C22 1_555 1_555
C28 C29 1_555 1_555
C28 C30 1_555 1_555

#END
