
#######################################################################
#
#                 Cambridge Crystallographic Data Centre
#                                CCDC 
#
#######################################################################
#
# If this CIF has been generated from an entry in the Cambridge 
# Structural Database, then it will include bibliographic, chemical, 
# crystal, experimental, refinement or atomic coordinate data resulting 
# from the CCDC's data processing and validation procedures.
#
#######################################################################

data_WEPTOA
_chemical_formula_moiety         'C66 H70 N4 O16 S4,C7 H8,0.5(C1 H1 Cl3)'
_chemical_name_systematic        
'Tetraethyl 2,11,20,29-tetrakis(p-tolylsulfonyl)-2,11,20,29-tetra-aza(3.3)(1,3)(1,3)(3.3)(4,6)(1,3)benzeno(3)phane-5,7,23,25-tetracarboxylate toluene chloroform solvate'
_symmetry_cell_setting           monoclinic
_symmetry_space_group_name_H-M   'P 21/c'
_symmetry_Int_Tables_number      14
_space_group_name_Hall           '-P 2ybc'
loop_
_symmetry_equiv_pos_site_id
_symmetry_equiv_pos_as_xyz
1 x,y,z
2 -x,1/2+y,1/2-z
3 -x,-y,-z
4 x,1/2-y,1/2+z
_cell_length_a                   13.111(1)
_cell_length_b                   20.219(2)
_cell_length_c                   29.919(2)
_cell_angle_alpha                90
_cell_angle_beta                 102.24(1)
_cell_angle_gamma                90
_cell_volume                     7750.97
_exptl_crystal_colour            colorless
_chemical_melting_point          273deg.C
_cell_formula_units_Z            4
loop_
_atom_site_label
_atom_site_type_symbol
_atom_site_fract_x
_atom_site_fract_y
_atom_site_fract_z
C1 C 0.3227(6) 0.4867(4) 0.1848(3)
N1 N 0.3089(5) 0.5584(3) 0.1897(2)
C2 C 0.3747(6) 0.6018(4) 0.1689(3)
C3 C 0.4828(6) 0.6105(3) 0.1985(3)
C4 C 0.5712(7) 0.6187(3) 0.1800(2)
C5 C 0.6689(6) 0.6254(3) 0.2094(2)
C6 C 0.6816(7) 0.6201(3) 0.2562(3)
C7 C 0.5926(7) 0.6128(3) 0.2751(3)
C8 C 0.4947(7) 0.6119(3) 0.2459(3)
C9 C 0.6005(7) 0.6052(4) 0.3259(2)
N2 N 0.5210(5) 0.5629(3) 0.3386(2)
C10 C 0.5462(7) 0.4908(4) 0.3389(3)
C11 C 0.5364(7) 0.4676(3) 0.2899(3)
C12 C 0.4396(7) 0.4756(3) 0.2608(3)
C13 C 0.4240(6) 0.4655(3) 0.2132(3)
C14 C 0.5076(6) 0.4435(3) 0.1959(2)
C15 C 0.6054(7) 0.4350(3) 0.2252(3)
C16 C 0.6196(7) 0.4452(3) 0.2727(3)
C17 C 0.7268(6) 0.4299(4) 0.3019(3)
N3 N 0.7272(5) 0.3668(3) 0.3278(2)
C18 C 0.7196(7) 0.3050(4) 0.3007(3)
C19 C 0.6103(7) 0.2932(3) 0.2738(3)
C20 C 0.5254(8) 0.2882(4) 0.2936(3)
C21 C 0.4246(7) 0.2865(4) 0.2665(3)
C22 C 0.4092(8) 0.2893(4) 0.2186(3)
C23 C 0.4938(8) 0.2932(4) 0.1981(3)
C24 C 0.5929(7) 0.2923(3) 0.2257(3)
C25 C 0.4863(7) 0.3028(3) 0.1470(3)
N4 N 0.4348(5) 0.3680(3) 0.1302(2)
C26 C 0.5019(6) 0.4275(3) 0.1460(2)
S1 S 0.1959(2) 0.5869(1) 0.1948(1)
O1 O 0.2133(5) 0.6542(3) 0.2097(2)
O2 O 0.1541(5) 0.5402(3) 0.2222(2)
C27 C 0.1131(7) 0.5871(5) 0.1407(3)
C28 C 0.1054(8) 0.6434(6) 0.1138(4)
C29 C 0.0423(10) 0.6469(8) 0.0708(4)
C30 C -0.0137(12) 0.5876(11) 0.0545(5)
C31 C -0.0050(11) 0.5343(8) 0.0802(6)
C32 C 0.0575(9) 0.5320(6) 0.1244(4)
C33 C -0.0857(12) 0.5870(9) 0.0060(5)
C34 C 0.5710(8) 0.6163(4) 0.1298(3)
O3 O 0.5098(5) 0.5851(3) 0.1023(2)
O4 O 0.6481(5) 0.6500(3) 0.1194(2)
C35 C 0.6614(10) 0.6474(6) 0.0730(3)
C36 C 0.7515(11) 0.6902(7) 0.0686(4)
C37 C 0.7896(7) 0.6186(5) 0.2839(4)
O5 O 0.8179(6) 0.5956(6) 0.3204(3)
O6 O 0.8532(6) 0.6436(5) 0.2630(3)
C38 C 0.9681(12) 0.6385(8) 0.2834(5)
C39 C 1.0129(13) 0.6786(9) 0.2560(6)
S2 S 0.4651(2) 0.5893(1) 0.3787(1)
O7 O 0.4346(5) 0.6565(3) 0.3679(2)
O8 O 0.3893(6) 0.5412(3) 0.3838(2)
C40 C 0.5605(9) 0.5904(5) 0.4291(3)
C41 C 0.6246(10) 0.6437(6) 0.4408(3)
C42 C 0.6999(13) 0.6423(7) 0.4805(4)
C43 C 0.7144(18) 0.5893(10) 0.5082(4)
C44 C 0.6510(20) 0.5348(9) 0.4950(5)
C45 C 0.5764(13) 0.5348(6) 0.4565(4)
C46 C 0.8021(17) 0.5886(10) 0.5508(5)
S3 S 0.8216(2) 0.3675(1) 0.3751(1)
O9 O 0.8031(5) 0.4239(3) 0.4003(2)
O10 O 0.8241(5) 0.3035(3) 0.3957(2)
C47 C 0.9388(7) 0.3801(5) 0.3574(3)
C48 C 0.9780(9) 0.4428(6) 0.3543(3)
C49 C 1.0698(9) 0.4536(6) 0.3377(4)
C50 C 1.1222(9) 0.3998(8) 0.3254(3)
C51 C 1.0796(11) 0.3378(7) 0.3280(4)
C52 C 0.9893(9) 0.3261(6) 0.3447(3)
C53 C 1.2197(9) 0.4111(7) 0.3075(4)
C54 C 0.5401(10) 0.2843(5) 0.3446(3)
O11 O 0.5987(6) 0.2467(3) 0.3686(2)
O12 O 0.4758(7) 0.3228(4) 0.3598(2)
C55 C 0.4749(13) 0.3179(8) 0.4092(6)
C56 C 0.5505(14) 0.3535(9) 0.4346(6)
C57 C 0.2989(11) 0.2884(6) 0.1948(5)
O13 O 0.2314(8) 0.3114(7) 0.2104(4)
O14 O 0.2792(5) 0.2631(5) 0.1567(3)
C58 C 0.1620(16) 0.2726(10) 0.1353(8)
C59 C 0.1185(12) 0.3440(8) 0.1255(5)
S4 S 0.3842(2) 0.3696(1) 0.0753(1)
O15 O 0.3325(4) 0.4313(3) 0.0658(2)
O16 O 0.3254(5) 0.3095(3) 0.0638(2)
C60 C 0.4896(7) 0.3682(5) 0.0461(3)
C61 C 0.5338(9) 0.4281(5) 0.0357(3)
C62 C 0.6149(9) 0.4263(7) 0.0127(4)
C63 C 0.6527(10) 0.3675(10) 0.0005(4)
C64 C 0.6099(11) 0.3096(8) 0.0121(4)
C65 C 0.5311(9) 0.3091(5) 0.0352(3)
C66 C 0.7368(10) 0.3657(8) -0.0263(5)
H1 H 0.3200 0.4760 0.1533
H2 H 0.2667 0.4641 0.1945
H3 H 0.3414 0.6441 0.1631
H4 H 0.3808 0.5832 0.1400
H5 H 0.7287 0.6343 0.1966
H6 H 0.4335 0.6127 0.2587
H7 H 0.5934 0.6483 0.3383
H8 H 0.6685 0.5886 0.3396
H9 H 0.4985 0.4668 0.3532
H10 H 0.6159 0.4832 0.3559
H11 H 0.3807 0.4882 0.2733
H12 H 0.6642 0.4227 0.2126
H13 H 0.7481 0.4655 0.3231
H14 H 0.7760 0.4268 0.2824
H15 H 0.7425 0.2684 0.3207
H16 H 0.7649 0.3087 0.2795
H17 H 0.3654 0.2833 0.2805
H18 H 0.6523 0.2908 0.2117
H19 H 0.4455 0.2675 0.1307
H20 H 0.5547 0.3011 0.1403
H21 H 0.5708 0.4205 0.1408
H22 H 0.4717 0.4646 0.1279
H23 H 0.1447 0.6820 0.1253
H24 H 0.0349 0.6849 0.0511
H25 H -0.0423 0.4952 0.0680
H26 H 0.0634 0.4939 0.1439
H27 H -0.1207 0.5457 -0.0020
H28 H -0.1364 0.6217 0.0044
H29 H -0.0411 0.5964 -0.0149
H30 H 0.5990 0.6622 0.0526
H31 H 0.6761 0.6030 0.0650
H32 H 0.7633 0.6902 0.0380
H33 H 0.7355 0.7343 0.0768
H34 H 0.8130 0.6748 0.0893
H35 H 0.9933 0.5941 0.2819
H36 H 0.9822 0.6527 0.3147
H37 H 1.0873 0.6794 0.2667
H38 H 0.9966 0.6636 0.2248
H39 H 0.9854 0.7223 0.2577
H40 H 0.6133 0.6819 0.4213
H41 H 0.7459 0.6794 0.4884
H42 H 0.6659 0.4955 0.5132
H43 H 0.5307 0.4975 0.4489
H44 H 0.8013 0.5478 0.5671
H45 H 0.8677 0.5932 0.5417
H46 H 0.7929 0.6249 0.5702
H47 H 0.9409 0.4795 0.3635
H48 H 1.0961 0.4976 0.3358
H49 H 1.1150 0.3006 0.3183
H50 H 0.9621 0.2825 0.3472
H51 H 1.2349 0.4576 0.3086
H52 H 1.2768 0.3877 0.3262
H53 H 1.2097 0.3959 0.2765
H54 H 0.4787 0.2728 0.4195
H55 H 0.4111 0.3373 0.4138
H56 H 0.5535 0.3542 0.4669
H57 H 0.6127 0.3334 0.4288
H58 H 0.5451 0.3980 0.4231
H59 H 0.1289 0.2610 0.1600
H60 H 0.1340 0.2437 0.1103
H61 H 0.0438 0.3459 0.1169
H62 H 0.1427 0.3739 0.1505
H63 H 0.1479 0.3563 0.0999
H64 H 0.5068 0.4692 0.0445
H65 H 0.6459 0.4664 0.0045
H66 H 0.6382 0.2685 0.0041
H67 H 0.5027 0.2686 0.0440
H68 H 0.7554 0.3211 -0.0321
H69 H 0.7132 0.3884 -0.0548
H70 H 0.7967 0.3881 -0.0087
C67 C 0.8951(8) 0.3601(5) 0.2017(4)
C68 C 0.9081 0.4267 0.2136
C69 C 0.8604 0.4753 0.1831
C70 C 0.7998 0.4571 0.1407
C71 C 0.7869 0.3905 0.1288
C72 C 0.8346 0.3419 0.1594
C73 C 0.8015(18) 0.2841(9) 0.1372(8)
H71 H 0.9279 0.3266 0.2228
H72 H 0.9497 0.4392 0.2428
H73 H 0.8693 0.5211 0.1912
H74 H 0.7670 0.4905 0.1197
H75 H 0.7452 0.3780 0.0997
H76 H 0.7608 0.2766 0.1069
H77 H 0.8678 0.2625 0.1404
H78 H 0.7653 0.2666 0.1593
C74 C 0.8926(31) 0.1250(21) 0.0171(14)
Cl1 Cl 0.8048(16) 0.1283(9) 0.0656(7)
Cl2 Cl 0.9199(18) 0.1975(14) 0.0299(9)
Cl3 Cl 1.0072(20) 0.0948(11) 0.0533(9)
H79 H 0.8673 0.1054 -0.0124
loop_
_geom_bond_atom_site_label_1
_geom_bond_atom_site_label_2
_geom_bond_site_symmetry_1
_geom_bond_site_symmetry_2
C1 N1 1_555 1_555
N1 C2 1_555 1_555
C2 C3 1_555 1_555
C3 C4 1_555 1_555
C4 C5 1_555 1_555
C5 C6 1_555 1_555
C6 C7 1_555 1_555
C7 C8 1_555 1_555
C8 C3 1_555 1_555
C9 C7 1_555 1_555
N2 C9 1_555 1_555
C10 N2 1_555 1_555
C11 C10 1_555 1_555
C12 C11 1_555 1_555
C13 C1 1_555 1_555
C14 C13 1_555 1_555
C15 C14 1_555 1_555
C16 C11 1_555 1_555
C17 C16 1_555 1_555
N3 C17 1_555 1_555
C18 N3 1_555 1_555
C19 C18 1_555 1_555
C20 C19 1_555 1_555
C21 C20 1_555 1_555
C22 C21 1_555 1_555
C23 C22 1_555 1_555
C24 C19 1_555 1_555
C25 C23 1_555 1_555
N4 C25 1_555 1_555
C26 C14 1_555 1_555
S1 N1 1_555 1_555
O1 S1 1_555 1_555
O2 S1 1_555 1_555
C27 S1 1_555 1_555
C28 C27 1_555 1_555
C29 C28 1_555 1_555
C30 C29 1_555 1_555
C31 C30 1_555 1_555
C32 C27 1_555 1_555
C33 C30 1_555 1_555
C34 C4 1_555 1_555
O3 C34 1_555 1_555
O4 C34 1_555 1_555
C35 O4 1_555 1_555
C36 C35 1_555 1_555
C37 C6 1_555 1_555
O5 C37 1_555 1_555
O6 C37 1_555 1_555
C38 O6 1_555 1_555
C39 C38 1_555 1_555
S2 N2 1_555 1_555
O7 S2 1_555 1_555
O8 S2 1_555 1_555
C40 S2 1_555 1_555
C41 C40 1_555 1_555
C42 C41 1_555 1_555
C43 C42 1_555 1_555
C44 C43 1_555 1_555
C45 C40 1_555 1_555
C46 C43 1_555 1_555
S3 N3 1_555 1_555
O9 S3 1_555 1_555
O10 S3 1_555 1_555
C47 S3 1_555 1_555
C48 C47 1_555 1_555
C49 C48 1_555 1_555
C50 C49 1_555 1_555
C51 C50 1_555 1_555
C52 C47 1_555 1_555
C53 C50 1_555 1_555
C54 C20 1_555 1_555
O11 C54 1_555 1_555
O12 C54 1_555 1_555
C55 O12 1_555 1_555
C56 C55 1_555 1_555
C57 C22 1_555 1_555
O13 C57 1_555 1_555
O14 C57 1_555 1_555
C58 O14 1_555 1_555
C59 C58 1_555 1_555
S4 N4 1_555 1_555
O15 S4 1_555 1_555
O16 S4 1_555 1_555
C60 S4 1_555 1_555
C61 C60 1_555 1_555
C62 C61 1_555 1_555
C63 C62 1_555 1_555
C64 C63 1_555 1_555
C65 C60 1_555 1_555
C66 C63 1_555 1_555
H1 C1 1_555 1_555
H2 C1 1_555 1_555
H3 C2 1_555 1_555
H4 C2 1_555 1_555
H5 C5 1_555 1_555
H6 C8 1_555 1_555
H7 C9 1_555 1_555
H8 C9 1_555 1_555
H9 C10 1_555 1_555
H10 C10 1_555 1_555
H11 C12 1_555 1_555
H12 C15 1_555 1_555
H13 C17 1_555 1_555
H14 C17 1_555 1_555
H15 C18 1_555 1_555
H16 C18 1_555 1_555
H17 C21 1_555 1_555
H18 C24 1_555 1_555
H19 C25 1_555 1_555
H20 C25 1_555 1_555
H21 C26 1_555 1_555
H22 C26 1_555 1_555
H23 C28 1_555 1_555
H24 C29 1_555 1_555
H25 C31 1_555 1_555
H26 C32 1_555 1_555
H27 C33 1_555 1_555
H28 C33 1_555 1_555
H29 C33 1_555 1_555
H30 C35 1_555 1_555
H31 C35 1_555 1_555
H32 C36 1_555 1_555
H33 C36 1_555 1_555
H34 C36 1_555 1_555
H35 C38 1_555 1_555
H36 C38 1_555 1_555
H37 C39 1_555 1_555
H38 C39 1_555 1_555
H39 C39 1_555 1_555
H40 C41 1_555 1_555
H41 C42 1_555 1_555
H42 C44 1_555 1_555
H43 C45 1_555 1_555
H44 C46 1_555 1_555
H45 C46 1_555 1_555
H46 C46 1_555 1_555
H47 C48 1_555 1_555
H48 C49 1_555 1_555
H49 C51 1_555 1_555
H50 C52 1_555 1_555
H51 C53 1_555 1_555
H52 C53 1_555 1_555
H53 C53 1_555 1_555
H54 C55 1_555 1_555
H55 C55 1_555 1_555
H56 C56 1_555 1_555
H57 C56 1_555 1_555
H58 C56 1_555 1_555
H59 C58 1_555 1_555
H60 C58 1_555 1_555
H61 C59 1_555 1_555
H62 C59 1_555 1_555
H63 C59 1_555 1_555
H64 C61 1_555 1_555
H65 C62 1_555 1_555
H66 C64 1_555 1_555
H67 C65 1_555 1_555
H68 C66 1_555 1_555
H69 C66 1_555 1_555
H70 C66 1_555 1_555
C67 C68 1_555 1_555
C68 C69 1_555 1_555
C69 C70 1_555 1_555
C70 C71 1_555 1_555
C71 C72 1_555 1_555
C72 C67 1_555 1_555
C73 C72 1_555 1_555
H71 C67 1_555 1_555
H72 C68 1_555 1_555
H73 C69 1_555 1_555
H74 C70 1_555 1_555
H75 C71 1_555 1_555
H76 C73 1_555 1_555
H77 C73 1_555 1_555
H78 C73 1_555 1_555
C74 Cl1 1_555 1_555
Cl2 C74 1_555 1_555
Cl3 C74 1_555 1_555
H79 C74 1_555 1_555
C12 C13 1_555 1_555
C15 C16 1_555 1_555
C23 C24 1_555 1_555
N4 C26 1_555 1_555
C31 C32 1_555 1_555
C44 C45 1_555 1_555
C51 C52 1_555 1_555
C64 C65 1_555 1_555

#END
