
#######################################################################
#
#                 Cambridge Crystallographic Data Centre
#                                CCDC 
#
#######################################################################
#
# If this CIF has been generated from an entry in the Cambridge 
# Structural Database, then it will include bibliographic, chemical, 
# crystal, experimental, refinement or atomic coordinate data resulting 
# from the CCDC's data processing and validation procedures.
#
#######################################################################

data_WEPVES
_chemical_formula_moiety         'C48 H48 N4 O8 S4,1.5(C7 H8)'
_chemical_name_systematic        
'2,11,20,23-tetrakis(p-Tolylsulfonyl)-2,11,20,23-tetra-aza(3.3.3.3)(1,2,4,5)benzenophane toluene solvate'
_symmetry_cell_setting           triclinic
_symmetry_space_group_name_H-M   'P -1'
_symmetry_Int_Tables_number      2
_space_group_name_Hall           '-P 1'
loop_
_symmetry_equiv_pos_site_id
_symmetry_equiv_pos_as_xyz
1 x,y,z
2 -x,-y,-z
_cell_length_a                   13.624(1)
_cell_length_b                   14.744(1)
_cell_length_c                   15.017(1)
_cell_angle_alpha                107.99(1)
_cell_angle_beta                 91.29(1)
_cell_angle_gamma                110.08(1)
_cell_volume                     2666.58
_exptl_crystal_colour            colorless
_chemical_melting_point          'above 260deg.C(dec.)'
_cell_formula_units_Z            2
loop_
_atom_site_label
_atom_site_type_symbol
_atom_site_fract_x
_atom_site_fract_y
_atom_site_fract_z
C1 C 0.6743(5) 0.5176(5) 0.3788(4)
N1 N 0.7883(4) 0.5476(4) 0.3690(3)
C2 C 0.8643(5) 0.5980(5) 0.4572(4)
C3 C 0.8600(4) 0.5279(4) 0.5133(4)
C4 C 0.8334(4) 0.5538(5) 0.6040(4)
C5 C 0.8103(4) 0.4865(5) 0.6546(4)
C6 C 0.8220(4) 0.3932(5) 0.6173(4)
C7 C 0.8561(4) 0.3704(5) 0.5282(4)
C8 C 0.8702(4) 0.4335(5) 0.4745(3)
C9 C 0.8881(5) 0.3913(5) 0.3723(4)
N2 N 0.7961(4) 0.2979(4) 0.3163(3)
C10 C 0.6944(5) 0.3094(5) 0.2934(4)
C11 C 0.6463(4) 0.3388(5) 0.3830(4)
C12 C 0.6226(4) 0.2719(4) 0.4337(4)
C13 C 0.5970(4) 0.2968(5) 0.5250(4)
C14 C 0.5876(4) 0.3924(5) 0.5644(4)
C15 C 0.6034(4) 0.4561(5) 0.5102(4)
C16 C 0.6379(4) 0.4335(5) 0.4220(4)
C17 C 0.5710(5) 0.4357(5) 0.6662(4)
N3 N 0.6521(4) 0.4392(4) 0.7350(3)
C18 C 0.7612(5) 0.5137(5) 0.7440(4)
C19 C 0.7859(5) 0.3082(5) 0.6590(4)
N4 N 0.7000(4) 0.2188(4) 0.5927(3)
C20 C 0.5946(5) 0.2249(5) 0.5795(4)
S1 S 0.8270(1) 0.5820(1) 0.2775(1)
O1 O 0.7452(3) 0.5165(3) 0.1994(3)
O2 O 0.9327(3) 0.5832(3) 0.2734(3)
C21 C 0.8334(6) 0.7073(5) 0.3004(4)
C22 C 0.9271(7) 0.7891(7) 0.3425(5)
C23 C 0.9330(7) 0.8898(7) 0.3614(5)
C24 C 0.8452(9) 0.9079(7) 0.3369(6)
C25 C 0.7520(7) 0.8273(8) 0.2962(6)
C26 C 0.7474(6) 0.7283(6) 0.2785(5)
C27 C 0.8514(8) 1.0160(6) 0.3529(6)
S2 S 0.8242(1) 0.2124(1) 0.2333(1)
O3 O 0.9159(3) 0.2040(3) 0.2723(3)
O4 O 0.7281(4) 0.1239(3) 0.1965(3)
C28 C 0.8585(5) 0.2611(5) 0.1406(4)
C29 C 0.9638(6) 0.3122(6) 0.1367(4)
C30 C 0.9915(7) 0.3468(6) 0.0622(5)
C31 C 0.9150(7) 0.3334(6) -0.0088(5)
C32 C 0.8131(7) 0.2870(6) -0.0022(5)
C33 C 0.7830(6) 0.2495(6) 0.0718(5)
C34 C 0.9476(7) 0.3672(7) -0.0921(5)
S3 S 0.6122(2) 0.4216(2) 0.8340(1)
O5 O 0.6971(4) 0.4115(4) 0.8826(3)
O6 O 0.5098(3) 0.3397(3) 0.8050(3)
C35 C 0.5963(6) 0.5334(6) 0.9040(4)
C36 C 0.6756(6) 0.6095(7) 0.9721(5)
C37 C 0.6622(8) 0.6990(7) 1.0237(5)
C38 C 0.5694(9) 0.7154(7) 1.0104(5)
C39 C 0.4905(7) 0.6373(7) 0.9429(5)
C40 C 0.5031(6) 0.5487(6) 0.8900(5)
C41 C 0.5554(7) 0.8112(6) 1.0677(5)
S4 S 0.7070(1) 0.1056(1) 0.5729(1)
O7 O 0.6312(3) 0.0364(3) 0.4923(3)
O8 O 0.8169(3) 0.1202(3) 0.5710(3)
C42 C 0.6691(6) 0.0659(5) 0.6703(4)
C43 C 0.5636(6) 0.0298(5) 0.6797(5)
C44 C 0.5337(6) -0.0034(5) 0.7549(5)
C45 C 0.6082(8) -0.0017(6) 0.8197(5)
C46 C 0.7129(7) 0.0351(6) 0.8090(5)
C47 C 0.7441(6) 0.0685(5) 0.7346(5)
C48 C 0.5756(8) -0.0410(7) 0.9015(5)
H1 H 0.6336 0.4947 0.3177
H2 H 0.6619 0.5764 0.4184
H3 H 0.8500 0.6561 0.4959
H4 H 0.9343 0.6226 0.4415
H5 H 0.8294 0.6202 0.6322
H6 H 0.8695 0.3081 0.5037
H7 H 0.9499 0.3740 0.3719
H8 H 0.9001 0.4432 0.3434
H9 H 0.6461 0.2454 0.2501
H10 H 0.7065 0.3607 0.2637
H11 H 0.6236 0.2046 0.4039
H12 H 0.5891 0.5180 0.5343
H13 H 0.5026 0.3940 0.6745
H14 H 0.5720 0.5039 0.6784
H15 H 0.7593 0.5810 0.7575
H16 H 0.8044 0.5145 0.7958
H17 H 0.7624 0.3321 0.7186
H18 H 0.8440 0.2884 0.6698
H19 H 0.5440 0.1578 0.5452
H20 H 0.5734 0.2491 0.6400
H21 H 0.9882 0.7758 0.3588
H22 H 0.9974 0.9465 0.3922
H23 H 0.6905 0.8405 0.2810
H24 H 0.6826 0.6716 0.2490
H25 H 0.9219 1.0618 0.3816
H26 H 0.8357 1.0240 0.2937
H27 H 0.8023 1.0315 0.3942
H28 H 1.0168 0.3222 0.1857
H29 H 1.0645 0.3806 0.0582
H30 H 0.7593 0.2780 -0.0499
H31 H 0.7098 0.2152 0.0749
H32 H 0.8872 0.3545 -0.1350
H33 H 0.9901 0.4391 -0.0701
H34 H 0.9886 0.3290 -0.1242
H35 H 0.7413 0.6012 0.9827
H36 H 0.7188 0.7518 1.0706
H37 H 0.4255 0.6468 0.9323
H38 H 0.4467 0.4953 0.8433
H39 H 0.4862 0.8082 1.0488
H40 H 0.5634 0.8183 1.1334
H41 H 0.6077 0.8691 1.0579
H42 H 0.5119 0.0276 0.6338
H43 H 0.4607 -0.0267 0.7632
H44 H 0.7647 0.0357 0.8537
H45 H 0.8174 0.0947 0.7275
H46 H 0.6370 -0.0347 0.9393
H47 H 0.5392 -0.0016 0.9400
H48 H 0.5296 -0.1118 0.8764
C49? C 0.3472(7) 0.2384(7) 0.3361(7)
C50? C 0.3435(11) 0.2525(8) 0.2524(11)
C51? C 0.2473(18) 0.2186(12) 0.1979(10)
C52? C 0.1601(13) 0.1763(11) 0.2330(12)
C53? C 0.1662(8) 0.1629(7) 0.3170(10)
C54? C 0.2616(9) 0.1942(6) 0.3692(6)
C55? C 0.2700(10) 0.1753(8) 0.4610(7)
C56? C 1.0947(11) 1.0080(10) -0.0575(10)
C57? C 1.0217(11) 1.0636(11) -0.0574(10)
C58? C 0.9451(8) 1.0451(8) 0.0027(7)
C59? C 1.0452(19) 1.1224(18) -0.1126(17)
H49? H 0.4144 0.2623 0.3743
H50? H 0.4072 0.2835 0.2293
H51? H 0.2438 0.2275 0.1374
H52? H 0.0933 0.1546 0.1949
H53? H 0.1016 0.1312 0.3386
H54? H 0.3440 0.2038 0.4846
H55? H 0.2337 0.2099 0.5051
H56? H 0.2425 0.1036 0.4531
H57? H 1.1550 1.0118 -0.0901
H58? H 1.0274 1.1073 -0.0945
H59? H 0.9060 1.0881 0.0020
H60? H 0.9922 1.1523 -0.1064
H61? H 1.1135 1.1756 -0.0881
H62? H 1.0434 1.0859 -0.1782
loop_
_geom_bond_atom_site_label_1
_geom_bond_atom_site_label_2
_geom_bond_site_symmetry_1
_geom_bond_site_symmetry_2
C1 N1 1_555 1_555
N1 C2 1_555 1_555
C2 C3 1_555 1_555
C3 C4 1_555 1_555
C4 C5 1_555 1_555
C5 C6 1_555 1_555
C6 C7 1_555 1_555
C7 C8 1_555 1_555
C8 C3 1_555 1_555
C9 C8 1_555 1_555
N2 C9 1_555 1_555
C10 N2 1_555 1_555
C11 C10 1_555 1_555
C12 C11 1_555 1_555
C13 C12 1_555 1_555
C14 C13 1_555 1_555
C15 C14 1_555 1_555
C16 C1 1_555 1_555
C17 C14 1_555 1_555
N3 C17 1_555 1_555
C18 C5 1_555 1_555
C19 C6 1_555 1_555
N4 C19 1_555 1_555
C20 C13 1_555 1_555
S1 N1 1_555 1_555
O1 S1 1_555 1_555
O2 S1 1_555 1_555
C21 S1 1_555 1_555
C22 C21 1_555 1_555
C23 C22 1_555 1_555
C24 C23 1_555 1_555
C25 C24 1_555 1_555
C26 C21 1_555 1_555
C27 C24 1_555 1_555
S2 N2 1_555 1_555
O3 S2 1_555 1_555
O4 S2 1_555 1_555
C28 S2 1_555 1_555
C29 C28 1_555 1_555
C30 C29 1_555 1_555
C31 C30 1_555 1_555
C32 C31 1_555 1_555
C33 C28 1_555 1_555
C34 C31 1_555 1_555
S3 N3 1_555 1_555
O5 S3 1_555 1_555
O6 S3 1_555 1_555
C35 S3 1_555 1_555
C36 C35 1_555 1_555
C37 C36 1_555 1_555
C38 C37 1_555 1_555
C39 C38 1_555 1_555
C40 C35 1_555 1_555
C41 C38 1_555 1_555
S4 N4 1_555 1_555
O7 S4 1_555 1_555
O8 S4 1_555 1_555
C42 S4 1_555 1_555
C43 C42 1_555 1_555
C44 C43 1_555 1_555
C45 C44 1_555 1_555
C46 C45 1_555 1_555
C47 C42 1_555 1_555
C48 C45 1_555 1_555
H1 C1 1_555 1_555
H2 C1 1_555 1_555
H3 C2 1_555 1_555
H4 C2 1_555 1_555
H5 C4 1_555 1_555
H6 C7 1_555 1_555
H7 C9 1_555 1_555
H8 C9 1_555 1_555
H9 C10 1_555 1_555
H10 C10 1_555 1_555
H11 C12 1_555 1_555
H12 C15 1_555 1_555
H13 C17 1_555 1_555
H14 C17 1_555 1_555
H15 C18 1_555 1_555
H16 C18 1_555 1_555
H17 C19 1_555 1_555
H18 C19 1_555 1_555
H19 C20 1_555 1_555
H20 C20 1_555 1_555
H21 C22 1_555 1_555
H22 C23 1_555 1_555
H23 C25 1_555 1_555
H24 C26 1_555 1_555
H25 C27 1_555 1_555
H26 C27 1_555 1_555
H27 C27 1_555 1_555
H28 C29 1_555 1_555
H29 C30 1_555 1_555
H30 C32 1_555 1_555
H31 C33 1_555 1_555
H32 C34 1_555 1_555
H33 C34 1_555 1_555
H34 C34 1_555 1_555
H35 C36 1_555 1_555
H36 C37 1_555 1_555
H37 C39 1_555 1_555
H38 C40 1_555 1_555
H39 C41 1_555 1_555
H40 C41 1_555 1_555
H41 C41 1_555 1_555
H42 C43 1_555 1_555
H43 C44 1_555 1_555
H44 C46 1_555 1_555
H45 C47 1_555 1_555
H46 C48 1_555 1_555
H47 C48 1_555 1_555
H48 C48 1_555 1_555
C11 C16 1_555 1_555
C15 C16 1_555 1_555
N3 C18 1_555 1_555
N4 C20 1_555 1_555
C25 C26 1_555 1_555
C32 C33 1_555 1_555
C39 C40 1_555 1_555
C46 C47 1_555 1_555

#END
