
#######################################################################
#
#                 Cambridge Crystallographic Data Centre
#                                CCDC 
#
#######################################################################
#
# If this CIF has been generated from an entry in the Cambridge 
# Structural Database, then it will include bibliographic, chemical, 
# crystal, experimental, refinement or atomic coordinate data resulting 
# from the CCDC's data processing and validation procedures.
#
#######################################################################

data_WEPVUJ
_chemical_formula_moiety         'C7 H8 Cl1 N3 O1,H2 O1'
_chemical_name_systematic        '4-Amino-2-chlorobenzohydrazide monohydrate'
_symmetry_cell_setting           monoclinic
_symmetry_space_group_name_H-M   'P 21/c'
_symmetry_Int_Tables_number      14
_space_group_name_Hall           '-P 2ybc'
loop_
_symmetry_equiv_pos_site_id
_symmetry_equiv_pos_as_xyz
1 x,y,z
2 -x,1/2+y,1/2-z
3 -x,-y,-z
4 x,1/2-y,1/2+z
_cell_length_a                   11.1667(4)
_cell_length_b                   6.9936(3)
_cell_length_c                   12.7105(4)
_cell_angle_alpha                90
_cell_angle_beta                 112.02(6)
_cell_angle_gamma                90
_cell_volume                     920.223
_exptl_crystal_colour            yellow
_exptl_crystal_description       lath
_cell_formula_units_Z            4
loop_
_atom_site_label
_atom_site_type_symbol
_atom_site_fract_x
_atom_site_fract_y
_atom_site_fract_z
C1 C 0.65533(14) 0.7254(2) 0.64723(12)
C2 C 0.62344(15) 0.6112(2) 0.72297(12)
Cl1 Cl 0.74464(4) 0.53465(6) 0.84824(3)
C3 C 0.49832(15) 0.5517(2) 0.70121(12)
C4 C 0.39897(14) 0.6070(2) 0.60043(13)
N1 N 0.27255(12) 0.54521(19) 0.57603(11)
C5 C 0.42930(15) 0.7172(2) 0.52236(13)
C6 C 0.55546(15) 0.7739(2) 0.54538(13)
C7 C 0.78903(15) 0.8011(2) 0.67535(12)
O1 O 0.84095(11) 0.91309(17) 0.75535(9)
N2 N 0.84701(13) 0.7400(2) 0.60755(12)
N3 N 0.97075(13) 0.8042(2) 0.61668(12)
H1 H 0.4799 0.4736 0.7545
H2 H 0.2148 0.6279 0.5350
H3 H 0.2561 0.5021 0.6413
H4 H 0.3630 0.7536 0.4529
H5 H 0.5745 0.8474 0.4907
H6 H 0.8083 0.6666 0.5537
H7 H 1.0313 0.7487 0.6799
H8 H 0.9730 0.9215 0.6288
O2 O 1.05034(11) 0.73568(18) 0.92768(10)
H9 H 0.9959 0.7983 0.8750
H10 H 1.0165 0.7207 0.9785
loop_
_geom_bond_atom_site_label_1
_geom_bond_atom_site_label_2
_geom_bond_site_symmetry_1
_geom_bond_site_symmetry_2
C1 C2 1_555 1_555
C2 Cl1 1_555 1_555
C3 C2 1_555 1_555
C4 C3 1_555 1_555
N1 C4 1_555 1_555
C5 C4 1_555 1_555
C6 C1 1_555 1_555
C7 C1 1_555 1_555
O1 C7 1_555 1_555
N2 C7 1_555 1_555
N3 N2 1_555 1_555
O2 H9 1_555 1_555
H1 C3 1_555 1_555
H2 N1 1_555 1_555
H3 N1 1_555 1_555
H4 C5 1_555 1_555
H5 C6 1_555 1_555
H6 N2 1_555 1_555
H7 N3 1_555 1_555
H8 N3 1_555 1_555
H10 O2 1_555 1_555
C5 C6 1_555 1_555

#END
