
#######################################################################
#
#                 Cambridge Crystallographic Data Centre
#                                CCDC 
#
#######################################################################
#
# If this CIF has been generated from an entry in the Cambridge 
# Structural Database, then it will include bibliographic, chemical, 
# crystal, experimental, refinement or atomic coordinate data resulting 
# from the CCDC's data processing and validation procedures.
#
#######################################################################

data_WEPVAO
_chemical_formula_moiety         'C90 H94 N6 O20 S6,3(C4 H8 O2)'
_chemical_name_systematic        
'Tetraethyl 2,11,20,29,32,41-hexakis(p-tolylsulfonyl)-2,11,20,29,32,41-hexa-aza(3.3)(1,3)(1,3)(3.3)(4,6)(1,3)(3.3)(4,6)(1,3)benzeno(4) phan-5,7,35,37-tetracarboxylate ethylacetate solvate'
_symmetry_cell_setting           monoclinic
_symmetry_space_group_name_H-M   'P 21/m'
_symmetry_Int_Tables_number      11
_space_group_name_Hall           '-P 2yb'
loop_
_symmetry_equiv_pos_site_id
_symmetry_equiv_pos_as_xyz
1 x,y,z
2 -x,1/2+y,-z
3 -x,-y,-z
4 x,1/2-y,z
_cell_length_a                   15.625(1)
_cell_length_b                   27.045(2)
_cell_length_c                   25.011(2)
_cell_angle_alpha                90
_cell_angle_beta                 91.23(1)
_cell_angle_gamma                90
_cell_volume                     10566.7
_exptl_crystal_colour            colorless
_chemical_melting_point          274deg.C
_cell_formula_units_Z            4
loop_
_atom_site_label
_atom_site_type_symbol
_atom_site_fract_x
_atom_site_fract_y
_atom_site_fract_z
N1 N 0.8081(5) 0.7500 0.0220(4)
C1 C 0.8450(4) 0.7037(3) 0.0445(3)
C2 C 0.9355(4) 0.6927(3) 0.0255(3)
C3 C 0.9511(4) 0.6808(3) -0.0275(3)
C4 C 0.8820(5) 0.6661(3) -0.0678(3)
N2 N 0.8917(4) 0.6133(2) -0.0828(3)
C5 C 0.8677(5) 0.5784(3) -0.0411(3)
C6 C 0.9411(4) 0.5678(3) -0.0014(3)
C7 C 0.9277(4) 0.5617(3) 0.0539(3)
C8 C 0.9966(4) 0.5582(3) 0.0885(3)
C9 C 1.0805(4) 0.5606(3) 0.0706(3)
C10 C 1.0948(4) 0.5660(3) 0.0156(3)
C11 C 1.0242(4) 0.5682(3) -0.0188(3)
C12 C 1.1837(5) 0.5729(3) -0.0061(3)
N3 N 1.1880(4) 0.6132(3) -0.0466(3)
C13 C 1.1916(5) 0.6647(3) -0.0253(4)
C14 C 1.1036(5) 0.6794(3) -0.0062(3)
C15 C 1.0874(4) 0.6922(3) 0.0462(3)
C16 C 1.0025(5) 0.6974(3) 0.0616(3)
C17 C 1.0349(5) 0.6747(3) -0.0422(3)
C18 C 1.1577(5) 0.7033(3) 0.0877(3)
N4 N 1.2052(5) 0.7500 0.0761(4)
S1 S 0.7037(2) 0.7500 0.0131(1)
O1 O 0.6815(3) 0.7040(2) -0.0131(3)
C19 C 0.6600(7) 0.7500 0.0765(6)
C20 C 0.6441(6) 0.7061(4) 0.1025(5)
C21 C 0.6164(7) 0.7074(6) 0.1551(5)
C22 C 0.6053(11) 0.7500 0.1838(8)
C23 C 0.5799(12) 0.7500 0.2413(7)
S2 S 0.8828(1) 0.5985(1) -0.1450(1)
O2 O 0.9288(4) 0.6345(3) -0.1745(2)
O3 O 0.9059(4) 0.5470(2) -0.1480(2)
C24 C 0.7742(7) 0.6028(5) -0.1630(4)
C25 C 0.7189(7) 0.5652(5) -0.1558(4)
C26 C 0.6350(7) 0.5673(6) -0.1704(6)
C27 C 0.6057(9) 0.6106(7) -0.1956(8)
C28 C 0.6609(9) 0.6483(6) -0.2047(8)
C29 C 0.7454(8) 0.6468(5) -0.1890(6)
C30 C 0.5069(8) 0.6120(7) -0.2117(9)
C31 C 0.8398(5) 0.5611(3) 0.0748(3)
O4 O 0.7768(3) 0.5480(2) 0.0501(2)
O5 O 0.8370(3) 0.5739(2) 0.1259(2)
C32 C 0.7549(5) 0.5718(5) 0.1513(4)
C33 C 0.7630(8) 0.5966(6) 0.2020(4)
C34 C 1.1504(5) 0.5582(4) 0.1106(4)
O6 O 1.2214(4) 0.5406(3) 0.1015(2)
O7 O 1.1303(4) 0.5752(3) 0.1577(3)
C35 C 1.1956(7) 0.5703(6) 0.2007(4)
C36 C 1.1685(9) 0.5927(8) 0.2455(5)
S3 S 1.2425(1) 0.6008(1) -0.0998(1)
O8 O 1.2377(4) 0.6437(3) -0.1334(2)
O9 O 1.2122(4) 0.5536(3) -0.1195(2)
C37 C 1.3490(5) 0.5941(4) -0.0786(4)
C38 C 1.3980(6) 0.6342(4) -0.0644(5)
C39 C 1.4825(6) 0.6282(5) -0.0470(5)
C40 C 1.5200(6) 0.5823(5) -0.0433(4)
C41 C 1.4702(6) 0.5432(4) -0.0568(4)
C42 C 1.3846(5) 0.5469(4) -0.0751(4)
C43 C 1.6095(6) 0.5757(5) -0.0234(5)
S4 S 1.3080(2) 0.7500 0.0891(1)
O10 O 1.3401(3) 0.7040(2) 0.0693(3)
C44 C 1.3210(6) 0.7500 0.1582(5)
C45 C 1.3305(6) 0.7062(4) 0.1865(4)
C46 C 1.3448(6) 0.7074(4) 0.2412(5)
C47 C 1.3541(7) 0.7500 0.2701(6)
C48 C 1.3743(9) 0.7500 0.3293(6)
H1 H 0.8080(4) 0.6762(3) 0.0346(3)
H2 H 0.8463(4) 0.7060(3) 0.0833(3)
H3 H 0.8262(5) 0.6713(3) -0.0526(3)
H4 H 0.8860(5) 0.6866(3) -0.0995(3)
H5 H 0.8495(5) 0.5476(3) -0.0577(3)
H6 H 0.8196(5) 0.5917(3) -0.0219(3)
H7 H 0.9872(4) 0.5540(3) 0.1248(3)
H8 H 1.0334(4) 0.5701(3) -0.0553(3)
H9 H 1.2231(5) 0.5804(3) 0.0232(3)
H10 H 1.2021(5) 0.5422(3) -0.0223(3)
H11 H 1.2097(5) 0.6872(3) -0.0530(4)
H12 H 1.2328(5) 0.6665(3) 0.0042(4)
H13 H 0.9911(5) 0.7041(3) 0.0972(3)
H14 H 1.0460(5) 0.6672(3) -0.0776(3)
H15 H 1.1324(5) 0.7059(3) 0.1227(3)
H16 H 1.1979(5) 0.6759(3) 0.0888(3)
H17 H 0.6518(6) 0.6760(4) 0.0852(5)
H18 H 0.6046(7) 0.6775(6) 0.1718(5)
H19 H 0.7395(7) 0.5363(5) -0.1399(4)
H20 H 0.5983(7) 0.5410(6) -0.1640(6)
H21 H 0.6404(9) 0.6763(6) -0.2223(8)
H22 H 0.7820(8) 0.6732(5) -0.1950(6)
H23 H 0.4832(33) 0.5794(16) -0.2089(84)
H24 H 0.5002(11) 0.6236(76) -0.2478(30)
H25 H 0.4777(25) 0.6340(62) -0.1881(54)
H26 H 0.7117(5) 0.5879(5) 0.1290(4)
H27 H 0.7379(5) 0.5377(5) 0.1565(4)
H28 H 0.7112(28) 0.5924(36) 0.2215(20)
H29 H 0.7730(72) 0.6312(9) 0.1962(4)
H30 H 0.8102(46) 0.5827(28) 0.2221(19)
H31 H 1.2063(7) 0.5356(6) 0.2079(4)
H32 H 1.2487(7) 0.5852(6) 0.1896(4)
H33 H 1.2164(18) 0.5983(57) 0.2694(29)
H34 H 1.1274(79) 0.5720(27) 0.2627(35)
H35 H 1.1424(95) 0.6238(28) 0.2363(9)
H36 H 1.3745(6) 0.6658(4) -0.0663(5)
H37 H 1.5145(6) 0.6560(5) -0.0377(5)
H38 H 1.4940(6) 0.5118(4) -0.0537(4)
H39 H 1.3531(5) 0.5190(4) -0.0846(4)
H40 H 1.6101(8) 0.5732(32) 0.0149(6)
H41 H 1.6432(14) 0.6035(16) -0.0338(30)
H42 H 1.6328(19) 0.5460(17) -0.0383(27)
H43 H 1.3272(6) 0.6761(4) 0.1687(4)
H44 H 1.3484(6) 0.6775(4) 0.2594(5)
C1C C 0.8450(4) 0.7963(3) 0.0445(3)
C18C C 1.1577(5) 0.7967(3) 0.0877(3)
O1C O 0.6815(3) 0.7960(2) -0.0131(3)
C20C C 0.6441(6) 0.7939(4) 0.1025(5)
C21C C 0.6164(7) 0.7926(6) 0.1551(5)
O10C O 1.3401(3) 0.7960(2) 0.0693(3)
C45C C 1.3305(6) 0.7938(4) 0.1865(4)
C46C C 1.3448(6) 0.7926(4) 0.2412(5)
C2C C 0.9355(4) 0.8073(3) 0.0255(3)
H1C H 0.8080(4) 0.8238(3) 0.0346(3)
H2C H 0.8463(4) 0.7940(3) 0.0833(3)
C15C C 1.0874(4) 0.8078(3) 0.0462(3)
H15C H 1.1324(5) 0.7941(3) 0.1227(3)
H16C H 1.1979(5) 0.8241(3) 0.0888(3)
H17C H 0.6518(6) 0.8240(4) 0.0852(5)
H18C H 0.6046(7) 0.8225(6) 0.1718(5)
H43C H 1.3272(6) 0.8239(4) 0.1687(4)
H44C H 1.3484(6) 0.8225(4) 0.2594(5)
C3C C 0.9511(4) 0.8192(3) -0.0275(3)
C16C C 1.0025(5) 0.8026(3) 0.0616(3)
C14C C 1.1036(5) 0.8206(3) -0.0062(3)
C4C C 0.8820(5) 0.8339(3) -0.0678(3)
C17C C 1.0349(5) 0.8253(3) -0.0422(3)
H13C H 0.9911(5) 0.7959(3) 0.0972(3)
C13C C 1.1916(5) 0.8353(3) -0.0253(4)
N2C N 0.8917(4) 0.8867(2) -0.0828(3)
H3C H 0.8262(5) 0.8287(3) -0.0526(3)
H4C H 0.8860(5) 0.8134(3) -0.0995(3)
H14C H 1.0460(5) 0.8328(3) -0.0776(3)
N3C N 1.1880(4) 0.8868(3) -0.0466(3)
H11C H 1.2097(5) 0.8128(3) -0.0530(4)
H12C H 1.2328(5) 0.8335(3) 0.0042(4)
C5C C 0.8677(5) 0.9216(3) -0.0411(3)
S2C S 0.8828(1) 0.9015(1) -0.1450(1)
C12C C 1.1837(5) 0.9271(3) -0.0061(3)
S3C S 1.2425(1) 0.8992(1) -0.0998(1)
C6C C 0.9411(4) 0.9322(3) -0.0014(3)
H5C H 0.8495(5) 0.9524(3) -0.0577(3)
H6C H 0.8196(5) 0.9083(3) -0.0219(3)
O2C O 0.9288(4) 0.8655(3) -0.1745(2)
O3C O 0.9059(4) 0.9530(2) -0.1480(2)
C24C C 0.7742(7) 0.8972(5) -0.1630(4)
C10C C 1.0948(4) 0.9340(3) 0.0156(3)
H9C H 1.2231(5) 0.9196(3) 0.0232(3)
H10C H 1.2021(5) 0.9578(3) -0.0223(3)
O8C O 1.2377(4) 0.8563(3) -0.1334(2)
O9C O 1.2122(4) 0.9464(3) -0.1195(2)
C37C C 1.3490(5) 0.9059(4) -0.0786(4)
C7C C 0.9277(4) 0.9383(3) 0.0539(3)
C11C C 1.0242(4) 0.9318(3) -0.0188(3)
C25C C 0.7189(7) 0.9348(5) -0.1558(4)
C29C C 0.7454(8) 0.8532(5) -0.1890(6)
C9C C 1.0805(4) 0.9394(3) 0.0706(3)
C38C C 1.3980(6) 0.8658(4) -0.0644(5)
C42C C 1.3846(5) 0.9531(4) -0.0751(4)
C8C C 0.9966(4) 0.9418(3) 0.0885(3)
C31C C 0.8398(5) 0.9389(3) 0.0748(3)
H8C H 1.0334(4) 0.9299(3) -0.0553(3)
C26C C 0.6350(7) 0.9327(6) -0.1704(6)
H19C H 0.7395(7) 0.9637(5) -0.1399(4)
C28C C 0.6609(9) 0.8517(6) -0.2047(8)
H22C H 0.7820(8) 0.8268(5) -0.1950(6)
C34C C 1.1504(5) 0.9418(4) 0.1106(4)
C39C C 1.4825(6) 0.8718(5) -0.0470(5)
H36C H 1.3745(6) 0.8342(4) -0.0663(5)
C41C C 1.4702(6) 0.9568(4) -0.0568(4)
H39C H 1.3531(5) 0.9810(4) -0.0846(4)
H7C H 0.9872(4) 0.9460(3) 0.1248(3)
O4C O 0.7768(3) 0.9520(2) 0.0501(2)
O5C O 0.8370(3) 0.9261(2) 0.1259(2)
C27C C 0.6057(9) 0.8894(7) -0.1956(8)
H20C H 0.5983(7) 0.9590(6) -0.1640(6)
H21C H 0.6404(9) 0.8237(6) -0.2223(8)
O6C O 1.2214(4) 0.9594(3) 0.1015(2)
O7C O 1.1303(4) 0.9248(3) 0.1577(3)
C40C C 1.5200(6) 0.9177(5) -0.0433(4)
H37C H 1.5145(6) 0.8440(5) -0.0377(5)
H38C H 1.4940(6) 0.9882(4) -0.0537(4)
C32C C 0.7549(5) 0.9282(5) 0.1513(4)
C30C C 0.5069(8) 0.8880(7) -0.2117(9)
C35C C 1.1956(7) 0.9297(6) 0.2007(4)
C43C C 1.6095(6) 0.9243(5) -0.0234(5)
C33C C 0.7630(8) 0.9034(6) 0.2020(4)
H26C H 0.7117(5) 0.9121(5) 0.1290(4)
H27C H 0.7379(5) 0.9623(5) 0.1565(4)
H23C H 0.4832(33) 0.9206(16) -0.2089(84)
H24C H 0.5002(11) 0.8764(76) -0.2478(30)
H25C H 0.4777(25) 0.8660(62) -0.1881(54)
C36C C 1.1685(9) 0.9073(8) 0.2455(5)
H31C H 1.2063(7) 0.9644(6) 0.2079(4)
H32C H 1.2487(7) 0.9148(6) 0.1896(4)
H40C H 1.6101(8) 0.9268(32) 0.0149(6)
H41C H 1.6432(14) 0.8965(16) -0.0338(30)
H42C H 1.6328(19) 0.9540(17) -0.0383(27)
H28C H 0.7112(28) 0.9076(36) 0.2215(20)
H29C H 0.7730(72) 0.8688(9) 0.1962(4)
H30C H 0.8102(46) 0.9173(28) 0.2221(19)
H33C H 1.2164(18) 0.9017(57) 0.2694(29)
H34C H 1.1274(79) 0.9280(27) 0.2627(35)
H35C H 1.1424(95) 0.8762(28) 0.2363(9)
N5 N 0.3161(6) 0.2500 0.4444(5)
C49 C 0.3522(5) 0.2956(4) 0.4234(5)
C50 C 0.4409(5) 0.3061(3) 0.4435(5)
C51 C 0.4576(6) 0.3173(4) 0.4976(5)
C52 C 0.3878(6) 0.3274(5) 0.5390(5)
N6 N 0.4042(4) 0.3739(3) 0.5662(3)
C53 C 0.3825(6) 0.4178(4) 0.5367(4)
C54 C 0.4500(5) 0.4324(4) 0.4974(4)
C55 C 0.4306(5) 0.4427(3) 0.4437(4)
C56 C 0.4966(5) 0.4490(3) 0.4082(4)
C57 C 0.5831(5) 0.4439(3) 0.4236(4)
C58 C 0.6015(5) 0.4334(3) 0.4773(4)
C59 C 0.5345(6) 0.4288(4) 0.5125(4)
C60 C 0.6928(5) 0.4226(4) 0.4974(4)
N7 N 0.6968(4) 0.3783(3) 0.5325(3)
C61 C 0.6994(5) 0.3303(4) 0.5046(4)
C62 C 0.6098(5) 0.3184(4) 0.4836(4)
C63 C 0.5956(5) 0.3074(3) 0.4278(4)
C64 C 0.5102(6) 0.3024(3) 0.4117(5)
C65 C 0.5412(6) 0.3229(4) 0.5159(5)
C66 C 0.6655(6) 0.2960(3) 0.3907(4)
N8 N 0.7138(6) 0.2500 0.4041(4)
S5 S 0.2115(2) 0.2500 0.4536(2)
O11 O 0.1920(4) 0.2965(3) 0.4791(4)
C67 C 0.1646(8) 0.2500 0.3895(7)
C68 C 0.1468(7) 0.2949(4) 0.3640(6)
C69 C 0.1171(8) 0.2938(5) 0.3117(6)
C70 C 0.1032(9) 0.2500 0.2827(8)
C71 C 0.0778(13) 0.2500 0.2263(8)
S6 S 0.3935(2) 0.3767(2) 0.6297(1)
O12 O 0.4253(5) 0.4278(4) 0.6447(4)
O13 O 0.4328(6) 0.3406(5) 0.6542(4)
C72 C 0.2859(7) 0.3745(6) 0.6440(4)
C73 C 0.2410(8) 0.4172(6) 0.6466(4)
C74 C 0.1552(9) 0.4179(6) 0.6579(5)
C75 C 0.1130(8) 0.3750(8) 0.6640(5)
C76 C 0.1554(9) 0.3318(7) 0.6585(6)
C77 C 0.2419(8) 0.3313(6) 0.6491(6)
C78 C 0.0154(8) 0.3765(7) 0.6793(6)
C79 C 0.3408(6) 0.4470(4) 0.4237(5)
O14 O 0.2821(4) 0.4615(3) 0.4501(3)
O15 O 0.3332(4) 0.4364(4) 0.3731(3)
C80 C 0.2471(15) 0.4465(14) 0.3490(11)
C81 C 0.2440(16) 0.4180(15) 0.3014(10)
C82 C 0.6477(6) 0.4486(4) 0.3826(4)
O16 O 0.7192(4) 0.4655(3) 0.3925(3)
O17 O 0.6185(8) 0.4496(6) 0.3326(5)
C83 C 0.6815(15) 0.4575(8) 0.2908(7)
C84 C 0.6974(19) 0.4098(9) 0.2684(11)
S7 S 0.7562(2) 0.3851(1) 0.5865(1)
O18 O 0.7281(4) 0.4298(3) 0.6116(3)
O19 O 0.7545(5) 0.3391(3) 0.6146(3)
C85 C 0.8613(6) 0.3943(5) 0.5654(4)
C86 C 0.8952(6) 0.4413(4) 0.5664(4)
C87 C 0.9795(7) 0.4472(5) 0.5497(4)
C88 C 1.0284(6) 0.4089(5) 0.5310(4)
C89 C 0.9920(6) 0.3634(5) 0.5304(4)
C90 C 0.9103(6) 0.3558(5) 0.5470(4)
C91 C 1.1179(6) 0.4179(5) 0.5133(5)
S8 S 0.8161(2) 0.2500 0.3954(1)
O20 O 0.8475(4) 0.2964(3) 0.4168(2)
C92 C 0.8334(8) 0.2500 0.3270(5)
C93 C 0.8394(6) 0.2941(4) 0.2988(4)
C94 C 0.8535(7) 0.2939(4) 0.2447(4)
C95 C 0.8575(9) 0.2500 0.2161(6)
C96 C 0.8729(11) 0.2500 0.1577(5)
H45 H 0.3154(5) 0.3230(4) 0.4329(5)
H46 H 0.3525(5) 0.2936(4) 0.3847(5)
H47 H 0.3321(6) 0.3285(5) 0.5211(5)
H48 H 0.3872(6) 0.3007(5) 0.5649(5)
H49 H 0.3743(6) 0.4447(4) 0.5617(4)
H50 H 0.3287(6) 0.4125(4) 0.5175(4)
H51 H 0.4831(5) 0.4568(3) 0.3728(4)
H52 H 0.5479(6) 0.4230(4) 0.5483(4)
H53 H 0.7292(5) 0.4174(4) 0.4669(4)
H54 H 0.7145(5) 0.4510(4) 0.5170(4)
H55 H 0.7191(5) 0.3047(4) 0.5290(4)
H56 H 0.7388(5) 0.3320(4) 0.4752(4)
H57 H 0.4995(6) 0.2959(3) 0.3757(5)
H58 H 0.5510(6) 0.3300(4) 0.5519(5)
H59 H 0.7053(6) 0.3236(3) 0.3907(4)
H60 H 0.6414(6) 0.2929(3) 0.3548(4)
H61 H 0.1547(7) 0.3248(4) 0.3818(6)
H62 H 0.1056(8) 0.3237(5) 0.2948(6)
H63 H 0.2689(8) 0.4469(6) 0.6405(4)
H64 H 0.1266(9) 0.4479(6) 0.6613(5)
H65 H 0.1258(9) 0.3020(7) 0.6611(6)
H66 H 0.2705(8) 0.3013(6) 0.6463(6)
H67 H 0.0109(8) 0.3795(55) 0.7174(8)
H68 H -0.0121(23) 0.3465(24) 0.6676(52)
H69 H -0.0119(23) 0.4043(32) 0.6622(48)
H70 H 0.2024(15) 0.4364(14) 0.3730(11)
H71 H 0.2403(15) 0.4814(14) 0.3411(11)
H72 H 0.279(11) 0.4336(44) 0.2749(30)
H73 H 0.1859(22) 0.4158(68) 0.2884(47)
H74 H 0.266(13) 0.3854(28) 0.3087(21)
H75 H 0.6590(15) 0.4799(8) 0.2636(7)
H76 H 0.7339(15) 0.4714(8) 0.3059(7)
H77 H 0.699(15) 0.4124(18) 0.2301(12)
H78 H 0.6528(81) 0.3875(24) 0.2784(79)
H79 H 0.7516(71) 0.3977(39) 0.2816(75)
H80 H 0.8632(6) 0.4681(4) 0.5777(4)
H81 H 1.0037(7) 0.4786(5) 0.5513(4)
H82 H 1.0234(6) 0.3366(5) 0.5183(4)
H83 H 0.8873(6) 0.3241(5) 0.5459(4)
H84 H 1.1361(22) 0.4503(14) 0.5244(33)
H85 H 1.1198(13) 0.4155(35) 0.4750(6)
H86 H 1.1554(12) 0.3935(22) 0.5290(31)
H87 H 0.8338(6) 0.3240(4) 0.3167(4)
H88 H 0.8605(7) 0.3238(4) 0.2269(4)
C49C C 0.3522(5) 0.2044(4) 0.4234(5)
C66C C 0.6655(6) 0.2040(3) 0.3907(4)
O11C O 0.1920(4) 0.2035(3) 0.4791(4)
C68C C 0.1468(7) 0.2051(4) 0.3640(6)
C69C C 0.1171(8) 0.2062(5) 0.3117(6)
O20C O 0.8475(4) 0.2036(3) 0.4168(2)
C93C C 0.8394(6) 0.2059(4) 0.2988(4)
C94C C 0.8535(7) 0.2061(4) 0.2447(4)
C50C C 0.4409(5) 0.1939(3) 0.4435(5)
H45C H 0.3154(5) 0.1770(4) 0.4329(5)
H46C H 0.3525(5) 0.2064(4) 0.3847(5)
C63C C 0.5956(5) 0.1926(3) 0.4278(4)
H59C H 0.7053(6) 0.1764(3) 0.3907(4)
H60C H 0.6414(6) 0.2071(3) 0.3548(4)
H61C H 0.1547(7) 0.1752(4) 0.3818(6)
H62C H 0.1056(8) 0.1763(5) 0.2948(6)
H87C H 0.8338(6) 0.1760(4) 0.3167(4)
H88C H 0.8605(7) 0.1762(4) 0.2269(4)
C51C C 0.4576(6) 0.1827(4) 0.4976(5)
C64C C 0.5102(6) 0.1976(3) 0.4117(5)
C62C C 0.6098(5) 0.1816(4) 0.4836(4)
C52C C 0.3878(6) 0.1726(5) 0.5390(5)
C65C C 0.5412(6) 0.1771(4) 0.5159(5)
H57C H 0.4995(6) 0.2041(3) 0.3757(5)
C61C C 0.6994(5) 0.1697(4) 0.5046(4)
N6C N 0.4042(4) 0.1261(3) 0.5662(3)
H47C H 0.3321(6) 0.1715(5) 0.5211(5)
H48C H 0.3872(6) 0.1993(5) 0.5649(5)
H58C H 0.5510(6) 0.1700(4) 0.5519(5)
N7C N 0.6968(4) 0.1217(3) 0.5325(3)
H55C H 0.7191(5) 0.1953(4) 0.5290(4)
H56C H 0.7388(5) 0.1680(4) 0.4752(4)
C53C C 0.3825(6) 0.0822(4) 0.5367(4)
S6C S 0.3935(2) 0.1233(2) 0.6297(1)
C60C C 0.6928(5) 0.0774(4) 0.4974(4)
S7C S 0.7562(2) 0.1149(1) 0.5865(1)
C54C C 0.4500(5) 0.0676(4) 0.4974(4)
H49C H 0.3743(6) 0.0553(4) 0.5617(4)
H50C H 0.3287(6) 0.0875(4) 0.5175(4)
O12C O 0.4253(5) 0.0722(4) 0.6447(4)
O13C O 0.4328(6) 0.1594(5) 0.6542(4)
C72C C 0.2859(7) 0.1255(6) 0.6440(4)
C58C C 0.6015(5) 0.0666(3) 0.4773(4)
H53C H 0.7292(5) 0.0826(4) 0.4669(4)
H54C H 0.7145(5) 0.0490(4) 0.5170(4)
O18C O 0.7281(4) 0.0702(3) 0.6116(3)
O19C O 0.7545(5) 0.1609(3) 0.6146(3)
C85C C 0.8613(6) 0.1057(5) 0.5654(4)
C55C C 0.4306(5) 0.0573(3) 0.4437(4)
C59C C 0.5345(6) 0.0712(4) 0.5125(4)
C73C C 0.2410(8) 0.0828(6) 0.6466(4)
C77C C 0.2419(8) 0.1687(6) 0.6491(6)
C57C C 0.5831(5) 0.0561(3) 0.4236(4)
C86C C 0.8952(6) 0.0587(4) 0.5664(4)
C90C C 0.9103(6) 0.1442(5) 0.5470(4)
C56C C 0.4966(5) 0.0510(3) 0.4082(4)
C79C C 0.3408(6) 0.0530(4) 0.4237(5)
H52C H 0.5479(6) 0.0770(4) 0.5483(4)
C74C C 0.1552(9) 0.0821(6) 0.6579(5)
H63C H 0.2689(8) 0.0531(6) 0.6405(4)
C76C C 0.1554(9) 0.1682(7) 0.6585(6)
H66C H 0.2705(8) 0.1987(6) 0.6463(6)
C82C C 0.6477(6) 0.0514(4) 0.3826(4)
C87C C 0.9795(7) 0.0528(5) 0.5497(4)
H80C H 0.8632(6) 0.0319(4) 0.5777(4)
C89C C 0.9920(6) 0.1366(5) 0.5304(4)
H83C H 0.8873(6) 0.1759(5) 0.5459(4)
H51C H 0.4831(5) 0.0432(3) 0.3728(4)
O14C O 0.2821(4) 0.0385(3) 0.4501(3)
O15C O 0.3332(4) 0.0636(4) 0.3731(3)
C75C C 0.1130(8) 0.1250(8) 0.6640(5)
H64C H 0.1266(9) 0.0521(6) 0.6613(5)
H65C H 0.1258(9) 0.1980(7) 0.6611(6)
O16C O 0.7192(4) 0.0345(3) 0.3925(3)
O17C O 0.6185(8) 0.0504(6) 0.3326(5)
C88C C 1.0284(6) 0.0911(5) 0.5310(4)
H81C H 1.0037(7) 0.0214(5) 0.5513(4)
H82C H 1.0234(6) 0.1634(5) 0.5183(4)
C80C C 0.2471(15) 0.0535(14) 0.3490(11)
C78C C 0.0154(8) 0.1235(7) 0.6793(6)
C83C C 0.6815(15) 0.0425(8) 0.2908(7)
C91C C 1.1179(6) 0.0821(5) 0.5133(5)
C81C C 0.2440(16) 0.0820(15) 0.3014(10)
H70C H 0.2024(15) 0.0636(14) 0.3730(11)
H71C H 0.2403(15) 0.0186(14) 0.3411(11)
H67C H 0.0109(8) 0.1205(55) 0.7174(8)
H68C H -0.0121(23) 0.1535(24) 0.6676(52)
H69C H -0.0119(23) 0.0957(32) 0.6622(48)
C84C C 0.6974(19) 0.0902(9) 0.2684(11)
H75C H 0.6590(15) 0.0201(8) 0.2636(7)
H76C H 0.7339(15) 0.0286(8) 0.3059(7)
H84C H 1.1361(22) 0.0497(14) 0.5244(33)
H85C H 1.1198(13) 0.0845(35) 0.4750(6)
H86C H 1.1554(12) 0.1065(22) 0.5290(31)
H72C H 0.279(11) 0.0664(44) 0.2749(30)
H73C H 0.1859(22) 0.0842(68) 0.2884(47)
H74C H 0.266(13) 0.1146(28) 0.3087(21)
H77C H 0.699(15) 0.0876(18) 0.2301(12)
H78C H 0.6528(81) 0.1125(24) 0.2784(79)
H79C H 0.7516(71) 0.1023(39) 0.2816(75)
O21 O 0.4455(8) 0.0711(5) 0.8524(5)
C97 C 0.5278(9) 0.0819(5) 0.8566(5)
C98 C 0.5718(8) 0.0917(5) 0.9009(5)
O22 O 0.5691(5) 0.0802(3) 0.8123(3)
C99 C 0.5260(10) 0.0683(7) 0.7608(6)
C100 C 0.5834(11) 0.0494(6) 0.7252(6)
H89 H 0.5340(8) 0.0919(5) 0.9306(5)
H90 H 0.5987(8) 0.1234(5) 0.8979(5)
H91 H 0.6149(8) 0.0668(5) 0.9065(5)
H92 H 0.4810(10) 0.0444(7) 0.7667(6)
H93 H 0.4999(10) 0.0980(7) 0.7460(6)
H94 H 0.5541(11) 0.0419(6) 0.6921(6)
H95 H 0.6086(11) 0.0198(6) 0.7397(6)
H96 H 0.6274(11) 0.0734(6) 0.7190(6)
O23 O 0.9167(9) 0.0833(5) 0.3970(5)
C101 C 0.9657(10) 0.0768(7) 0.3543(6)
C102 C 1.0471(9) 0.0677(8) 0.3541(8)
O24 O 0.9234(6) 0.0709(4) 0.3090(4)
C103 C 0.9699(11) 0.0564(8) 0.2606(7)
C104 C 0.9220(13) 0.0266(7) 0.2280(7)
H97 H 1.0712(9) 0.0732(8) 0.3892(8)
H98 H 1.0741(9) 0.0893(8) 0.3291(8)
H99 H 1.0562(9) 0.0340(8) 0.3438(8)
H100 H 0.9858(11) 0.0859(8) 0.2411(7)
H101 H 1.0221(11) 0.0393(8) 0.2711(7)
H102 H 0.9544(13) 0.0179(7) 0.1972(7)
H103 H 0.8709(13) 0.0438(7) 0.2167(7)
H104 H 0.9068(13) -0.0028(7) 0.2469(7)
O25 O 0.0010(21) 0.2500 0.8238(9)
C105 C 0.0515(15) 0.2500 0.7817(9)
C106 C 0.1346(14) 0.2500 0.7808(12)
O26 O 0.0099(12) 0.2500 0.7357(7)
C107 C -0.0858(14) 0.2500 0.7367(9)
C108 C -0.1186(13) 0.2500 0.6856(9)
H105 H 0.1573(14) 0.2500 0.8168(12)
O27 O 0.4651(18) 0.2500 0.2211(11)
C109 C 0.4799(17) 0.2500 0.1690(11)
C110 C 0.4237(22) 0.2500 0.1295(15)
O28 O 0.5604(17) 0.2500 0.1566(9)
C111 C 0.6269(15) 0.2500 0.2003(15)
C112 C 0.5892(34) 0.2500 0.2491(12)
C113? C 0.2431(17) 0.4308(17) 0.3528(13)
C114? C 0.2387(22) 0.4617(18) 0.3066(14)
O29? O 0.6284(9) 0.4223(6) 0.3378(5)
C115? C 0.6912(17) 0.4250(10) 0.2951(8)
C116? C 0.6634(21) 0.4622(11) 0.2588(11)
H106? H 0.6288(44) 0.742(11) 0.2636(11)
H107? H 0.536(13) 0.7257(74) 0.2465(25)
H108? H 0.559(17) 0.7821(30) 0.2507(32)
H109? H 1.3747(70) 0.7834(3) 0.3424(10)
H110? H 1.4294(32) 0.7353(37) 0.3358(7)
H111? H 1.3315(40) 0.7313(34) 0.3476(7)
H112? H 0.0755(98) 0.2166(3) 0.2134(18)
H113? H 0.1188(53) 0.2684(48) 0.2063(12)
H114? H 0.0224(44) 0.2650(52) 0.2221(10)
H115? H 0.2308(17) 0.3966(17) 0.3435(13)
H116? H 0.2028(17) 0.4416(17) 0.3794(13)
H117? H 0.1830(61) 0.4590(85) 0.2899(66)
H118? H 0.281(12) 0.4515(70) 0.2818(54)
H119? H 0.249(19) 0.4954(22) 0.3169(22)
H120? H 0.7473(17) 0.4331(10) 0.3100(8)
H121? H 0.6948(17) 0.3934(10) 0.2770(8)
H122? H 0.7022(95) 0.4640(67) 0.2296(55)
H123? H 0.662(17) 0.4935(20) 0.2769(29)
H124? H 0.6070(69) 0.4544(52) 0.2454(82)
H125? H 0.9190(61) 0.2278(41) 0.1501(9)
H126? H 0.8878(93) 0.2828(11) 0.1465(12)
H127? H 0.8220(30) 0.2395(52) 0.1389(6)
H128? H 0.1540(14) 0.2790 0.7625(12)
H129? H 0.1540(14) 0.2210 0.7625(12)
H130? H -0.1055(14) 0.2210 0.7555(9)
H131? H -0.1055(14) 0.2790 0.7555(9)
H132? H -0.1800(13) 0.2500 0.6865(9)
H133? H -0.0994(13) 0.2210 0.6672(9)
H134? H -0.0994(13) 0.2790 0.6672(9)
H135? H 0.3670(22) 0.2500 0.1435(15)
H136? H 0.4315(22) 0.2210 0.1079(15)
H137? H 0.4315(22) 0.2790 0.1079(15)
H138? H 0.6629(15) 0.2210 0.1971(15)
H139? H 0.6629(15) 0.2790 0.1971(15)
H140? H 0.6326(34) 0.2500 0.2769(12)
H141? H 0.5542(34) 0.2210 0.2524(12)
H142? H 0.5542(34) 0.2790 0.2524(12)
loop_
_geom_bond_atom_site_label_1
_geom_bond_atom_site_label_2
_geom_bond_site_symmetry_1
_geom_bond_site_symmetry_2
N1 C1 1_555 1_555
C1 C2 1_555 1_555
C2 C3 1_555 1_555
C3 C4 1_555 1_555
C4 N2 1_555 1_555
N2 C5 1_555 1_555
C5 C6 1_555 1_555
C6 C7 1_555 1_555
C7 C8 1_555 1_555
C8 C9 1_555 1_555
C9 C10 1_555 1_555
C10 C11 1_555 1_555
C11 C6 1_555 1_555
C12 C10 1_555 1_555
N3 C12 1_555 1_555
C13 N3 1_555 1_555
C14 C13 1_555 1_555
C15 C14 1_555 1_555
C16 C2 1_555 1_555
C17 C3 1_555 1_555
C18 C15 1_555 1_555
N4 C18 1_555 1_555
S1 N1 1_555 1_555
O1 S1 1_555 1_555
C19 S1 1_555 1_555
C20 C19 1_555 1_555
C21 C20 1_555 1_555
C22 C21 1_555 1_555
C23 C22 1_555 1_555
S2 N2 1_555 1_555
O2 S2 1_555 1_555
O3 S2 1_555 1_555
C24 S2 1_555 1_555
C25 C24 1_555 1_555
C26 C25 1_555 1_555
C27 C26 1_555 1_555
C28 C27 1_555 1_555
C29 C24 1_555 1_555
C30 C27 1_555 1_555
C31 C7 1_555 1_555
O4 C31 1_555 1_555
O5 C31 1_555 1_555
C32 O5 1_555 1_555
C33 C32 1_555 1_555
C34 C9 1_555 1_555
O6 C34 1_555 1_555
O7 C34 1_555 1_555
C35 O7 1_555 1_555
C36 C35 1_555 1_555
S3 N3 1_555 1_555
O8 S3 1_555 1_555
O9 S3 1_555 1_555
C37 S3 1_555 1_555
C38 C37 1_555 1_555
C39 C38 1_555 1_555
C40 C39 1_555 1_555
C41 C40 1_555 1_555
C42 C37 1_555 1_555
C43 C40 1_555 1_555
S4 N4 1_555 1_555
O10 S4 1_555 1_555
C44 S4 1_555 1_555
C45 C44 1_555 1_555
C46 C45 1_555 1_555
C47 C46 1_555 1_555
C48 C47 1_555 1_555
H1 C1 1_555 1_555
H2 C1 1_555 1_555
H3 C4 1_555 1_555
H4 C4 1_555 1_555
H5 C5 1_555 1_555
H6 C5 1_555 1_555
H7 C8 1_555 1_555
H8 C11 1_555 1_555
H9 C12 1_555 1_555
H10 C12 1_555 1_555
H11 C13 1_555 1_555
H12 C13 1_555 1_555
H13 C16 1_555 1_555
H14 C17 1_555 1_555
H15 C18 1_555 1_555
H16 C18 1_555 1_555
H17 C20 1_555 1_555
H18 C21 1_555 1_555
H19 C25 1_555 1_555
H20 C26 1_555 1_555
H21 C28 1_555 1_555
H22 C29 1_555 1_555
H23 C30 1_555 1_555
H24 C30 1_555 1_555
H25 C30 1_555 1_555
H26 C32 1_555 1_555
H27 C32 1_555 1_555
H28 C33 1_555 1_555
H29 C33 1_555 1_555
H30 C33 1_555 1_555
H31 C35 1_555 1_555
H32 C35 1_555 1_555
H33 C36 1_555 1_555
H34 C36 1_555 1_555
H35 C36 1_555 1_555
H36 C38 1_555 1_555
H37 C39 1_555 1_555
H38 C41 1_555 1_555
H39 C42 1_555 1_555
H40 C43 1_555 1_555
H41 C43 1_555 1_555
H42 C43 1_555 1_555
H43 C45 1_555 1_555
H44 C46 1_555 1_555
N5 C49 1_555 1_555
C49 C50 1_555 1_555
C50 C51 1_555 1_555
C51 C52 1_555 1_555
C52 N6 1_555 1_555
N6 C53 1_555 1_555
C53 C54 1_555 1_555
C54 C55 1_555 1_555
C55 C56 1_555 1_555
C56 C57 1_555 1_555
C57 C58 1_555 1_555
C58 C59 1_555 1_555
C59 C54 1_555 1_555
C60 C58 1_555 1_555
N7 C60 1_555 1_555
C61 N7 1_555 1_555
C62 C61 1_555 1_555
C63 C62 1_555 1_555
C64 C50 1_555 1_555
C65 C51 1_555 1_555
C66 C63 1_555 1_555
N8 C66 1_555 1_555
S5 N5 1_555 1_555
O11 S5 1_555 1_555
C67 S5 1_555 1_555
C68 C67 1_555 1_555
C69 C68 1_555 1_555
C70 C69 1_555 1_555
C71 C70 1_555 1_555
S6 N6 1_555 1_555
O12 S6 1_555 1_555
O13 S6 1_555 1_555
C72 S6 1_555 1_555
C73 C72 1_555 1_555
C74 C73 1_555 1_555
C75 C74 1_555 1_555
C76 C75 1_555 1_555
C77 C72 1_555 1_555
C78 C75 1_555 1_555
C79 C55 1_555 1_555
O14 C79 1_555 1_555
O15 C79 1_555 1_555
C80 O15 1_555 1_555
C81 C80 1_555 1_555
C82 C57 1_555 1_555
O16 C82 1_555 1_555
O17 C82 1_555 1_555
C83 O17 1_555 1_555
C84 C83 1_555 1_555
S7 N7 1_555 1_555
O18 S7 1_555 1_555
O19 S7 1_555 1_555
C85 S7 1_555 1_555
C86 C85 1_555 1_555
C87 C86 1_555 1_555
C88 C87 1_555 1_555
C89 C88 1_555 1_555
C90 C85 1_555 1_555
C91 C88 1_555 1_555
S8 N8 1_555 1_555
O20 S8 1_555 1_555
C92 S8 1_555 1_555
C93 C92 1_555 1_555
C94 C93 1_555 1_555
C95 C94 1_555 1_555
C96 C95 1_555 1_555
H45 C49 1_555 1_555
H46 C49 1_555 1_555
H47 C52 1_555 1_555
H48 C52 1_555 1_555
H49 C53 1_555 1_555
H50 C53 1_555 1_555
H51 C56 1_555 1_555
H52 C59 1_555 1_555
H53 C60 1_555 1_555
H54 C60 1_555 1_555
H55 C61 1_555 1_555
H56 C61 1_555 1_555
H57 C64 1_555 1_555
H58 C65 1_555 1_555
H59 C66 1_555 1_555
H60 C66 1_555 1_555
H61 C68 1_555 1_555
H62 C69 1_555 1_555
H63 C73 1_555 1_555
H64 C74 1_555 1_555
H65 C76 1_555 1_555
H66 C77 1_555 1_555
H67 C78 1_555 1_555
H68 C78 1_555 1_555
H69 C78 1_555 1_555
H70 C80 1_555 1_555
H71 C80 1_555 1_555
H72 C81 1_555 1_555
H73 C81 1_555 1_555
H74 C81 1_555 1_555
H75 C83 1_555 1_555
H76 C83 1_555 1_555
H77 C84 1_555 1_555
H78 C84 1_555 1_555
H79 C84 1_555 1_555
H80 C86 1_555 1_555
H81 C87 1_555 1_555
H82 C89 1_555 1_555
H83 C90 1_555 1_555
H84 C91 1_555 1_555
H85 C91 1_555 1_555
H86 C91 1_555 1_555
H87 C93 1_555 1_555
H88 C94 1_555 1_555
O21 C97 1_555 1_555
C97 C98 1_555 1_555
C98 H89 1_555 1_555
O22 C97 1_555 1_555
C99 O22 1_555 1_555
C100 C99 1_555 1_555
H90 C98 1_555 1_555
H91 C98 1_555 1_555
H92 C99 1_555 1_555
H93 C99 1_555 1_555
H94 C100 1_555 1_555
H95 C100 1_555 1_555
H96 C100 1_555 1_555
O23 C101 1_555 1_555
C101 C102 1_555 1_555
C102 H97 1_555 1_555
O24 C101 1_555 1_555
C103 O24 1_555 1_555
C104 C103 1_555 1_555
H98 C102 1_555 1_555
H99 C102 1_555 1_555
H100 C103 1_555 1_555
H101 C103 1_555 1_555
H102 C104 1_555 1_555
H103 C104 1_555 1_555
H104 C104 1_555 1_555
O25 C105 1_555 1_555
C105 C106 1_555 1_555
C106 H105 1_555 1_555
O26 C105 1_555 1_555
C107 O26 1_555 1_555
C108 C107 1_555 1_555
O27 C109 1_555 1_555
C109 C110 1_555 1_555
O28 C109 1_555 1_555
C111 O28 1_555 1_555
C112 C111 1_555 1_555
C1C N1 1_555 1_555
C18C N4 1_555 1_555
O1C S1 1_555 1_555
C20C C19 1_555 1_555
C21C C22 1_555 1_555
O10C S4 1_555 1_555
C45C C44 1_555 1_555
C46C C47 1_555 1_555
C2C C1C 1_555 1_555
H1C C1C 1_555 1_555
H2C C1C 1_555 1_555
C15C C18C 1_555 1_555
H15C C18C 1_555 1_555
H16C C18C 1_555 1_555
H17C C20C 1_555 1_555
H18C C21C 1_555 1_555
H43C C45C 1_555 1_555
H44C C46C 1_555 1_555
C3C C2C 1_555 1_555
C16C C2C 1_555 1_555
C14C C15C 1_555 1_555
C4C C3C 1_555 1_555
C17C C3C 1_555 1_555
H13C C16C 1_555 1_555
C13C C14C 1_555 1_555
N2C C4C 1_555 1_555
H3C C4C 1_555 1_555
H4C C4C 1_555 1_555
H14C C17C 1_555 1_555
N3C C13C 1_555 1_555
H11C C13C 1_555 1_555
H12C C13C 1_555 1_555
C5C N2C 1_555 1_555
S2C N2C 1_555 1_555
C12C N3C 1_555 1_555
S3C N3C 1_555 1_555
C6C C5C 1_555 1_555
H5C C5C 1_555 1_555
H6C C5C 1_555 1_555
O2C S2C 1_555 1_555
O3C S2C 1_555 1_555
C24C S2C 1_555 1_555
C10C C12C 1_555 1_555
H9C C12C 1_555 1_555
H10C C12C 1_555 1_555
O8C S3C 1_555 1_555
O9C S3C 1_555 1_555
C37C S3C 1_555 1_555
C7C C6C 1_555 1_555
C11C C6C 1_555 1_555
C25C C24C 1_555 1_555
C29C C24C 1_555 1_555
C9C C10C 1_555 1_555
C38C C37C 1_555 1_555
C42C C37C 1_555 1_555
C8C C7C 1_555 1_555
C31C C7C 1_555 1_555
H8C C11C 1_555 1_555
C26C C25C 1_555 1_555
H19C C25C 1_555 1_555
C28C C29C 1_555 1_555
H22C C29C 1_555 1_555
C34C C9C 1_555 1_555
C39C C38C 1_555 1_555
H36C C38C 1_555 1_555
C41C C42C 1_555 1_555
H39C C42C 1_555 1_555
H7C C8C 1_555 1_555
O4C C31C 1_555 1_555
O5C C31C 1_555 1_555
C27C C26C 1_555 1_555
H20C C26C 1_555 1_555
H21C C28C 1_555 1_555
O6C C34C 1_555 1_555
O7C C34C 1_555 1_555
C40C C39C 1_555 1_555
H37C C39C 1_555 1_555
H38C C41C 1_555 1_555
C32C O5C 1_555 1_555
C30C C27C 1_555 1_555
C35C O7C 1_555 1_555
C43C C40C 1_555 1_555
C33C C32C 1_555 1_555
H26C C32C 1_555 1_555
H27C C32C 1_555 1_555
H23C C30C 1_555 1_555
H24C C30C 1_555 1_555
H25C C30C 1_555 1_555
C36C C35C 1_555 1_555
H31C C35C 1_555 1_555
H32C C35C 1_555 1_555
H40C C43C 1_555 1_555
H41C C43C 1_555 1_555
H42C C43C 1_555 1_555
H28C C33C 1_555 1_555
H29C C33C 1_555 1_555
H30C C33C 1_555 1_555
H33C C36C 1_555 1_555
H34C C36C 1_555 1_555
H35C C36C 1_555 1_555
C49C N5 1_555 1_555
C66C N8 1_555 1_555
O11C S5 1_555 1_555
C68C C67 1_555 1_555
C69C C70 1_555 1_555
O20C S8 1_555 1_555
C93C C92 1_555 1_555
C94C C95 1_555 1_555
C50C C49C 1_555 1_555
H45C C49C 1_555 1_555
H46C C49C 1_555 1_555
C63C C66C 1_555 1_555
H59C C66C 1_555 1_555
H60C C66C 1_555 1_555
H61C C68C 1_555 1_555
H62C C69C 1_555 1_555
H87C C93C 1_555 1_555
H88C C94C 1_555 1_555
C51C C50C 1_555 1_555
C64C C50C 1_555 1_555
C62C C63C 1_555 1_555
C52C C51C 1_555 1_555
C65C C51C 1_555 1_555
H57C C64C 1_555 1_555
C61C C62C 1_555 1_555
N6C C52C 1_555 1_555
H47C C52C 1_555 1_555
H48C C52C 1_555 1_555
H58C C65C 1_555 1_555
N7C C61C 1_555 1_555
H55C C61C 1_555 1_555
H56C C61C 1_555 1_555
C53C N6C 1_555 1_555
S6C N6C 1_555 1_555
C60C N7C 1_555 1_555
S7C N7C 1_555 1_555
C54C C53C 1_555 1_555
H49C C53C 1_555 1_555
H50C C53C 1_555 1_555
O12C S6C 1_555 1_555
O13C S6C 1_555 1_555
C72C S6C 1_555 1_555
C58C C60C 1_555 1_555
H53C C60C 1_555 1_555
H54C C60C 1_555 1_555
O18C S7C 1_555 1_555
O19C S7C 1_555 1_555
C85C S7C 1_555 1_555
C55C C54C 1_555 1_555
C59C C54C 1_555 1_555
C73C C72C 1_555 1_555
C77C C72C 1_555 1_555
C57C C58C 1_555 1_555
C86C C85C 1_555 1_555
C90C C85C 1_555 1_555
C56C C55C 1_555 1_555
C79C C55C 1_555 1_555
H52C C59C 1_555 1_555
C74C C73C 1_555 1_555
H63C C73C 1_555 1_555
C76C C77C 1_555 1_555
H66C C77C 1_555 1_555
C82C C57C 1_555 1_555
C87C C86C 1_555 1_555
H80C C86C 1_555 1_555
C89C C90C 1_555 1_555
H83C C90C 1_555 1_555
H51C C56C 1_555 1_555
O14C C79C 1_555 1_555
O15C C79C 1_555 1_555
C75C C74C 1_555 1_555
H64C C74C 1_555 1_555
H65C C76C 1_555 1_555
O16C C82C 1_555 1_555
O17C C82C 1_555 1_555
C88C C87C 1_555 1_555
H81C C87C 1_555 1_555
H82C C89C 1_555 1_555
C80C O15C 1_555 1_555
C78C C75C 1_555 1_555
C83C O17C 1_555 1_555
C91C C88C 1_555 1_555
C81C C80C 1_555 1_555
H70C C80C 1_555 1_555
H71C C80C 1_555 1_555
H67C C78C 1_555 1_555
H68C C78C 1_555 1_555
H69C C78C 1_555 1_555
C84C C83C 1_555 1_555
H75C C83C 1_555 1_555
H76C C83C 1_555 1_555
H84C C91C 1_555 1_555
H85C C91C 1_555 1_555
H86C C91C 1_555 1_555
H72C C81C 1_555 1_555
H73C C81C 1_555 1_555
H74C C81C 1_555 1_555
H77C C84C 1_555 1_555
H78C C84C 1_555 1_555
H79C C84C 1_555 1_555
C14 C17 1_555 1_555
C15 C16 1_555 1_555
C28 C29 1_555 1_555
C41 C42 1_555 1_555
C62 C65 1_555 1_555
C63 C64 1_555 1_555
C76 C77 1_555 1_555
C89 C90 1_555 1_555
C20C C21C 1_555 1_555
C45C C46C 1_555 1_555
C15C C16C 1_555 1_555
C14C C17C 1_555 1_555
C10C C11C 1_555 1_555
C9C C8C 1_555 1_555
C28C C27C 1_555 1_555
C41C C40C 1_555 1_555
C68C C69C 1_555 1_555
C93C C94C 1_555 1_555
C63C C64C 1_555 1_555
C62C C65C 1_555 1_555
C58C C59C 1_555 1_555
C57C C56C 1_555 1_555
C76C C75C 1_555 1_555
C89C C88C 1_555 1_555

#END
