
#######################################################################
#
#                 Cambridge Crystallographic Data Centre
#                                CCDC 
#
#######################################################################
#
# If this CIF has been generated from an entry in the Cambridge 
# Structural Database, then it will include bibliographic, chemical, 
# crystal, experimental, refinement or atomic coordinate data resulting 
# from the CCDC's data processing and validation procedures.
#
#######################################################################

data_WEPWAQ
_chemical_formula_moiety         'C7 H7 N3 O3'
_chemical_name_systematic        2-Nitrobenzohydrazide
_symmetry_cell_setting           orthorhombic
_symmetry_space_group_name_H-M   'P 21 21 21'
_symmetry_Int_Tables_number      19
_space_group_name_Hall           'P 2ac 2ab'
loop_
_symmetry_equiv_pos_site_id
_symmetry_equiv_pos_as_xyz
1 x,y,z
2 1/2-x,-y,1/2+z
3 -x,1/2+y,1/2-z
4 1/2+x,1/2-y,-z
_cell_length_a                   12.5382(10)
_cell_length_b                   4.9867(2)
_cell_length_c                   12.8637(8)
_cell_angle_alpha                90
_cell_angle_beta                 90
_cell_angle_gamma                90
_cell_volume                     804.293
_exptl_crystal_colour            brown
_exptl_crystal_description       lath
_cell_formula_units_Z            4
_exptl_crystal_recrystallization_method ethanol
loop_
_atom_site_label
_atom_site_type_symbol
_atom_site_fract_x
_atom_site_fract_y
_atom_site_fract_z
C1 C 0.8184(2) 0.5658(5) 0.3908(2)
C2 C 0.7043(2) 0.5033(5) 0.3640(2)
O1 O 0.67233(16) 0.2693(4) 0.36325(18)
N1 N 0.64395(18) 0.7128(5) 0.33887(19)
N2 N 0.5357(2) 0.6803(5) 0.3096(2)
C3 C 0.8692(2) 0.4291(5) 0.4714(2)
N3 N 0.8051(2) 0.2721(5) 0.5459(2)
O2 O 0.72326(19) 0.3762(4) 0.57959(19)
O3 O 0.83784(17) 0.0504(4) 0.57239(19)
C4 C 0.9773(2) 0.4466(6) 0.4904(2)
C5 C 1.0369(3) 0.6181(6) 0.4276(3)
C6 C 0.9886(2) 0.7654(6) 0.3515(2)
C7 C 0.8803(3) 0.7365(6) 0.3315(2)
H1 H 0.6722 0.8896 0.3398
H2 H 0.4929 0.6483 0.3692
H3 H 0.5340 0.5224 0.2683
H4 H 1.0099 0.3455 0.5443
H5 H 1.1117 0.6326 0.4378
H6 H 1.0295 0.8889 0.3118
H7 H 0.8485 0.8351 0.2764
loop_
_geom_bond_atom_site_label_1
_geom_bond_atom_site_label_2
_geom_bond_site_symmetry_1
_geom_bond_site_symmetry_2
C1 C2 1_555 1_555
C2 O1 1_555 1_555
N1 C2 1_555 1_555
N2 N1 1_555 1_555
C3 C1 1_555 1_555
N3 C3 1_555 1_555
O2 N3 1_555 1_555
O3 N3 1_555 1_555
C4 C3 1_555 1_555
C5 C4 1_555 1_555
C6 C5 1_555 1_555
C7 C1 1_555 1_555
H1 N1 1_555 1_555
H2 N2 1_555 1_555
H3 N2 1_555 1_555
H4 C4 1_555 1_555
H5 C5 1_555 1_555
H6 C6 1_555 1_555
H7 C7 1_555 1_555
C6 C7 1_555 1_555

#END
