
#######################################################################
#
#                 Cambridge Crystallographic Data Centre
#                                CCDC 
#
#######################################################################
#
# If this CIF has been generated from an entry in the Cambridge 
# Structural Database, then it will include bibliographic, chemical, 
# crystal, experimental, refinement or atomic coordinate data resulting 
# from the CCDC's data processing and validation procedures.
#
#######################################################################

data_WEQCEC
_chemical_formula_moiety         'C68 H104 Ba2 I2 N4 O4,C6 H6'
_chemical_name_systematic        
"bis(\m~2~-Iodo)-bis(N,N'-bis(2,6-di-isopropylphenyl)ethene-1,2-diaminato radical)-tetrakis(tetrahydrofuran)-di-barium-di-potassium benzene solvate"
_symmetry_cell_setting           triclinic
_symmetry_space_group_name_H-M   'P -1'
_symmetry_Int_Tables_number      2
_space_group_name_Hall           '-P 1'
loop_
_symmetry_equiv_pos_site_id
_symmetry_equiv_pos_as_xyz
1 x,y,z
2 -x,-y,-z
_cell_length_a                   11.4776(11)
_cell_length_b                   12.6463(12)
_cell_length_c                   15.0886(14)
_cell_angle_alpha                91.955(8)
_cell_angle_beta                 100.815(7)
_cell_angle_gamma                115.211(7)
_cell_volume                     1930.19
_exptl_crystal_colour            orange
_exptl_crystal_description       block
_cell_formula_units_Z            1
loop_
_atom_site_label
_atom_site_type_symbol
_atom_site_fract_x
_atom_site_fract_y
_atom_site_fract_z
C1 C 0.7863(5) 0.3718(5) 0.1443(4)
H1 H 0.7479 0.3050 0.0991
C2 C 0.8274(6) 0.4845(5) 0.1170(4)
H2 H 0.8112 0.4918 0.0539
C3 C 0.7787(5) 0.2397(4) 0.2505(4)
C4 C 0.6699(5) 0.1700(5) 0.2861(4)
C5 C 0.6502(6) 0.0562(5) 0.3019(4)
H3 H 0.5769 0.0083 0.3260
C6 C 0.7354(6) 0.0118(5) 0.2831(4)
H4 H 0.7181 -0.0672 0.2916
C7 C 0.8454(6) 0.0820(5) 0.2520(4)
H5 H 0.9054 0.0519 0.2417
C8 C 0.8701(5) 0.1967(5) 0.2353(4)
C9 C 0.9389(5) 0.6935(4) 0.1457(4)
C10 C 0.8520(6) 0.7404(5) 0.1041(4)
C11 C 0.9064(7) 0.8565(5) 0.0859(4)
H6 H 0.8500 0.8897 0.0594
C12 C 1.0412(7) 0.9238(5) 0.1058(5)
H7 H 1.0769 1.0031 0.0931
C13 C 1.1247(7) 0.8772(5) 0.1440(5)
H8 H 1.2175 0.9243 0.1561
C14 C 1.0758(6) 0.7629(5) 0.1653(4)
C15 C 0.5587(7) 0.5205(7) 0.3094(7)
H9 H 0.5324 0.4474 0.3387
H10 H 0.5519 0.4998 0.2441
C16 C 0.4716(7) 0.5770(7) 0.3197(7)
H11 H 0.3908 0.5216 0.3377
H12 H 0.4459 0.6055 0.2623
C17 C 0.5580(7) 0.6811(7) 0.3957(6)
H13 H 0.5743 0.7572 0.3724
H14 H 0.5142 0.6752 0.4472
C18 C 0.6805(7) 0.6722(8) 0.4243(7)
H15 H 0.7559 0.7517 0.4373
H16 H 0.6800 0.6337 0.4804
C19 C 0.5719(5) 0.2165(5) 0.3031(5)
H17 H 0.6240 0.3030 0.3235
C20 C 0.5009(7) 0.1633(6) 0.3770(6)
H18 H 0.4344 0.0823 0.3544
H19 H 0.4575 0.2102 0.3946
H20 H 0.5648 0.1629 0.4300
C21 C 0.4747(6) 0.2023(7) 0.2127(6)
H21 H 0.5229 0.2526 0.1712
H22 H 0.4071 0.2255 0.2244
H23 H 0.4323 0.1199 0.1849
C22 C 0.9939(6) 0.2722(5) 0.2032(4)
H24 H 1.0048 0.3551 0.2083
C23 C 1.1186(6) 0.2721(6) 0.2617(6)
H25 H 1.1237 0.2928 0.3260
H26 H 1.1968 0.3298 0.2437
H27 H 1.1149 0.1934 0.2529
C24 C 0.9818(8) 0.2338(8) 0.1041(5)
H28 H 0.9646 0.1508 0.0963
H29 H 1.0643 0.2823 0.0860
H30 H 0.9087 0.2435 0.0661
C25 C 0.9958(6) 0.8827(5) 0.3591(5)
H31 H 0.9259 0.8985 0.3778
H32 H 0.9705 0.8591 0.2925
C26 C 1.1277(7) 0.9908(6) 0.3854(5)
H33 H 1.1781 1.0003 0.3374
H34 H 1.1153 1.0628 0.3957
C27 C 1.1979(7) 0.9681(7) 0.4722(6)
H35 H 1.2833 0.9709 0.4653
H36 H 1.2151 1.0278 0.5233
C28 C 1.1092(8) 0.8504(6) 0.4887(5)
H37 H 1.1599 0.8051 0.5078
H38 H 1.0649 0.8565 0.5376
C29 C 0.7033(6) 0.6699(6) 0.0826(5)
H39 H 0.6830 0.5913 0.1039
C30 C 0.6378(9) 0.7280(8) 0.1330(7)
H40 H 0.6751 0.7393 0.1986
H41 H 0.5425 0.6773 0.1207
H42 H 0.6539 0.8045 0.1123
C31 C 0.6470(8) 0.6488(9) -0.0202(6)
H43 H 0.5505 0.6063 -0.0325
H44 H 0.6818 0.6019 -0.0497
H45 H 0.6727 0.7247 -0.0441
C32 C 1.1670(6) 0.7077(5) 0.2044(4)
H46 H 1.1224 0.6520 0.2462
C33 C 1.3008(6) 0.7970(6) 0.2601(5)
H47 H 1.3525 0.8463 0.2197
H48 H 1.3480 0.7554 0.2917
H49 H 1.2880 0.8468 0.3049
C34 C 1.1819(7) 0.6347(6) 0.1280(5)
H50 H 1.0946 0.5736 0.0969
H51 H 1.2379 0.5977 0.1539
H52 H 1.2226 0.6862 0.0845
N1 N 0.7996(4) 0.3554(4) 0.2324(3)
N2 N 0.8879(4) 0.5804(4) 0.1762(3)
O1 O 0.6932(5) 0.6041(5) 0.3527(4)
O2 O 1.0135(4) 0.7924(3) 0.4059(3)
Ba1 Ba 0.90206(3) 0.55327(3) 0.35441(2)
I1 I 1.19818(3) 0.56066(4) 0.45345(3)
C1A C 1.2137(5) 0.6282(5) 0.8557(4)
H1A H 1.2521 0.6950 0.9009
C2A C 1.1726(6) 0.5155(5) 0.8830(4)
H2A H 1.1888 0.5082 0.9461
C3A C 1.2213(5) 0.7603(4) 0.7495(4)
C4A C 1.3301(5) 0.8300(5) 0.7139(4)
C5A C 1.3498(6) 0.9438(5) 0.6981(4)
H3A H 1.4231 0.9917 0.6740
C6A C 1.2646(6) 0.9882(5) 0.7169(4)
H4A H 1.2819 1.0672 0.7084
C7A C 1.1546(6) 0.9180(5) 0.7480(4)
H5A H 1.0946 0.9481 0.7583
C8A C 1.1299(5) 0.8033(5) 0.7647(4)
C9A C 1.0611(5) 0.3065(4) 0.8543(4)
C10A C 1.1480(6) 0.2596(5) 0.8959(4)
C11A C 1.0936(7) 0.1435(5) 0.9141(4)
H6A H 1.1500 0.1103 0.9406
C12A C 0.9588(7) 0.0762(5) 0.8942(5)
H7A H 0.9231 -0.0031 0.9069
C13A C 0.8753(7) 0.1228(5) 0.8560(5)
H8A H 0.7825 0.0757 0.8439
C14A C 0.9242(6) 0.2371(5) 0.8347(4)
C15A C 1.4413(7) 0.4795(7) 0.6906(7)
H9A H 1.4676 0.5526 0.6613
H10A H 1.4481 0.5002 0.7559
C16A C 1.5284(7) 0.4230(7) 0.6803(7)
H11A H 1.6092 0.4784 0.6623
H12A H 1.5541 0.3945 0.7377
C17A C 1.4420(7) 0.3189(7) 0.6043(6)
H13A H 1.4257 0.2428 0.6276
H14A H 1.4858 0.3248 0.5528
C18A C 1.3195(7) 0.3278(8) 0.5757(7)
H15A H 1.2441 0.2483 0.5627
H16A H 1.3200 0.3663 0.5196
C19A C 1.4281(5) 0.7835(5) 0.6969(5)
H17A H 1.3760 0.6970 0.6765
C20A C 1.4991(7) 0.8367(6) 0.6230(6)
H18A H 1.5656 0.9177 0.6456
H19A H 1.5425 0.7898 0.6054
H20A H 1.4352 0.8371 0.5700
C21A C 1.5253(6) 0.7977(7) 0.7873(6)
H21A H 1.4771 0.7474 0.8288
H22A H 1.5929 0.7745 0.7756
H23A H 1.5677 0.8801 0.8151
C22A C 1.0061(6) 0.7278(5) 0.7968(4)
H24A H 0.9952 0.6449 0.7917
C23A C 0.8814(6) 0.7279(6) 0.7383(6)
H25A H 0.8763 0.7072 0.6740
H26A H 0.8032 0.6702 0.7563
H27A H 0.8851 0.8066 0.7471
C24A C 1.0182(8) 0.7662(8) 0.8959(5)
H28A H 1.0354 0.8492 0.9037
H29A H 0.9357 0.7177 0.9140
H30A H 1.0913 0.7565 0.9339
C25A C 1.0042(6) 0.1173(5) 0.6409(5)
H31A H 1.0741 0.1015 0.6222
H32A H 1.0295 0.1409 0.7075
C26A C 0.8723(7) 0.0092(6) 0.6146(5)
H33A H 0.8219 -0.0003 0.6626
H34A H 0.8847 -0.0628 0.6043
C27A C 0.8021(7) 0.0319(7) 0.5278(6)
H35A H 0.7167 0.0291 0.5347
H36A H 0.7849 -0.0278 0.4767
C28A C 0.8908(8) 0.1496(6) 0.5113(5)
H37A H 0.8401 0.1949 0.4922
H38A H 0.9351 0.1435 0.4624
C29A C 1.2967(6) 0.3301(6) 0.9174(5)
H39A H 1.3170 0.4087 0.8961
C30A C 1.3622(9) 0.2720(8) 0.8670(7)
H40A H 1.3249 0.2607 0.8014
H41A H 1.4575 0.3227 0.8793
H42A H 1.3461 0.1955 0.8877
C31A C 1.3530(8) 0.3512(9) 1.0202(6)
H43A H 1.4495 0.3937 1.0325
H44A H 1.3182 0.3981 1.0497
H45A H 1.3273 0.2753 1.0441
C32A C 0.8330(6) 0.2923(5) 0.7956(4)
H46A H 0.8776 0.3480 0.7538
C33A C 0.6992(6) 0.2030(6) 0.7399(5)
H47A H 0.6475 0.1537 0.7803
H48A H 0.6520 0.2446 0.7083
H49A H 0.7120 0.1532 0.6951
C34A C 0.8181(7) 0.3653(6) 0.8720(5)
H50A H 0.9054 0.4264 0.9031
H51A H 0.7621 0.4023 0.8461
H52A H 0.7774 0.3138 0.9155
N1A N 1.2004(4) 0.6446(4) 0.7676(3)
N2A N 1.1121(4) 0.4196(4) 0.8238(3)
O1A O 1.3068(5) 0.3959(5) 0.6473(4)
O2A O 0.9865(4) 0.2076(3) 0.5941(3)
Ba1A Ba 1.09794(3) 0.44673(3) 0.64559(2)
I1A I 0.80182(3) 0.43934(4) 0.54655(3)
C35 C 0.6052(10) 0.0013(9) 0.0231(7)
H53 H 0.6834 -0.0006 0.0558
C36 C 0.4876(8) -0.0814(12) 0.0432(8)
H54 H 0.4938 -0.1479 0.0669
C37 C 0.6251(11) 0.0832(11) -0.0354(10)
H55 H 0.6980 0.1266 -0.0614
C35A C 0.3948(10) -0.0013(9) -0.0231(7)
H53A H 0.3166 0.0006 -0.0558
C36A C 0.5124(8) 0.0814(12) -0.0432(8)
H54A H 0.5062 0.1479 -0.0669
C37A C 0.3749(11) -0.0832(11) 0.0354(10)
H55A H 0.3020 -0.1266 0.0614
loop_
_geom_bond_atom_site_label_1
_geom_bond_atom_site_label_2
_geom_bond_site_symmetry_1
_geom_bond_site_symmetry_2
C1 H1 1_555 1_555
C2 C1 1_555 1_555
H2 C2 1_555 1_555
C3 C4 1_555 1_555
C4 C5 1_555 1_555
C5 H3 1_555 1_555
C6 C5 1_555 1_555
H4 C6 1_555 1_555
C7 C6 1_555 1_555
H5 C7 1_555 1_555
C8 C3 1_555 1_555
C9 C10 1_555 1_555
C10 C11 1_555 1_555
C11 H6 1_555 1_555
C12 C11 1_555 1_555
H7 C12 1_555 1_555
C13 C12 1_555 1_555
H8 C13 1_555 1_555
C14 C9 1_555 1_555
C15 H9 1_555 1_555
H10 C15 1_555 1_555
C16 C15 1_555 1_555
H11 C16 1_555 1_555
H12 C16 1_555 1_555
C17 C16 1_555 1_555
H13 C17 1_555 1_555
H14 C17 1_555 1_555
C18 C17 1_555 1_555
H15 C18 1_555 1_555
H16 C18 1_555 1_555
C19 C4 1_555 1_555
H17 C19 1_555 1_555
C20 C19 1_555 1_555
H18 C20 1_555 1_555
H19 C20 1_555 1_555
H20 C20 1_555 1_555
C21 C19 1_555 1_555
H21 C21 1_555 1_555
H22 C21 1_555 1_555
H23 C21 1_555 1_555
C22 C8 1_555 1_555
H24 C22 1_555 1_555
C23 C22 1_555 1_555
H25 C23 1_555 1_555
H26 C23 1_555 1_555
H27 C23 1_555 1_555
C24 C22 1_555 1_555
H28 C24 1_555 1_555
H29 C24 1_555 1_555
H30 C24 1_555 1_555
C25 H31 1_555 1_555
H32 C25 1_555 1_555
C26 C25 1_555 1_555
H33 C26 1_555 1_555
H34 C26 1_555 1_555
C27 C26 1_555 1_555
H35 C27 1_555 1_555
H36 C27 1_555 1_555
C28 C27 1_555 1_555
H37 C28 1_555 1_555
H38 C28 1_555 1_555
C29 C10 1_555 1_555
H39 C29 1_555 1_555
C30 C29 1_555 1_555
H40 C30 1_555 1_555
H41 C30 1_555 1_555
H42 C30 1_555 1_555
C31 C29 1_555 1_555
H43 C31 1_555 1_555
H44 C31 1_555 1_555
H45 C31 1_555 1_555
C32 C14 1_555 1_555
H46 C32 1_555 1_555
C33 C32 1_555 1_555
H47 C33 1_555 1_555
H48 C33 1_555 1_555
H49 C33 1_555 1_555
C34 C32 1_555 1_555
H50 C34 1_555 1_555
H51 C34 1_555 1_555
H52 C34 1_555 1_555
N1 C1 1_555 1_555
N2 C2 1_555 1_555
O1 C15 1_555 1_555
O2 C25 1_555 1_555
Ba1 N1 1_555 1_555
I1 Ba1 1_555 1_555
C35 H53 1_555 1_555
C36 C35 1_555 1_555
H54 C36 1_555 1_555
C37 C35 1_555 1_555
H55 C37 1_555 1_555
C1A H1A 1_555 1_555
C2A C1A 1_555 1_555
H2A C2A 1_555 1_555
C3A C4A 1_555 1_555
C4A C5A 1_555 1_555
C5A H3A 1_555 1_555
C6A C5A 1_555 1_555
H4A C6A 1_555 1_555
C7A C6A 1_555 1_555
H5A C7A 1_555 1_555
C8A C3A 1_555 1_555
C9A C10A 1_555 1_555
C10A C11A 1_555 1_555
C11A H6A 1_555 1_555
C12A C11A 1_555 1_555
H7A C12A 1_555 1_555
C13A C12A 1_555 1_555
H8A C13A 1_555 1_555
C14A C9A 1_555 1_555
C15A H9A 1_555 1_555
H10A C15A 1_555 1_555
C16A C15A 1_555 1_555
H11A C16A 1_555 1_555
H12A C16A 1_555 1_555
C17A C16A 1_555 1_555
H13A C17A 1_555 1_555
H14A C17A 1_555 1_555
C18A C17A 1_555 1_555
H15A C18A 1_555 1_555
H16A C18A 1_555 1_555
C19A C4A 1_555 1_555
H17A C19A 1_555 1_555
C20A C19A 1_555 1_555
H18A C20A 1_555 1_555
H19A C20A 1_555 1_555
H20A C20A 1_555 1_555
C21A C19A 1_555 1_555
H21A C21A 1_555 1_555
H22A C21A 1_555 1_555
H23A C21A 1_555 1_555
C22A C8A 1_555 1_555
H24A C22A 1_555 1_555
C23A C22A 1_555 1_555
H25A C23A 1_555 1_555
H26A C23A 1_555 1_555
H27A C23A 1_555 1_555
C24A C22A 1_555 1_555
H28A C24A 1_555 1_555
H29A C24A 1_555 1_555
H30A C24A 1_555 1_555
C25A H31A 1_555 1_555
H32A C25A 1_555 1_555
C26A C25A 1_555 1_555
H33A C26A 1_555 1_555
H34A C26A 1_555 1_555
C27A C26A 1_555 1_555
H35A C27A 1_555 1_555
H36A C27A 1_555 1_555
C28A C27A 1_555 1_555
H37A C28A 1_555 1_555
H38A C28A 1_555 1_555
C29A C10A 1_555 1_555
H39A C29A 1_555 1_555
C30A C29A 1_555 1_555
H40A C30A 1_555 1_555
H41A C30A 1_555 1_555
H42A C30A 1_555 1_555
C31A C29A 1_555 1_555
H43A C31A 1_555 1_555
H44A C31A 1_555 1_555
H45A C31A 1_555 1_555
C32A C14A 1_555 1_555
H46A C32A 1_555 1_555
C33A C32A 1_555 1_555
H47A C33A 1_555 1_555
H48A C33A 1_555 1_555
H49A C33A 1_555 1_555
C34A C32A 1_555 1_555
H50A C34A 1_555 1_555
H51A C34A 1_555 1_555
H52A C34A 1_555 1_555
N1A C1A 1_555 1_555
N2A C2A 1_555 1_555
O1A C15A 1_555 1_555
O2A C25A 1_555 1_555
Ba1A I1 1_555 1_555
I1A Ba1 1_555 1_555
C35A H53A 1_555 1_555
C36A C37 1_555 1_555
H54A C36A 1_555 1_555
C37A C36 1_555 1_555
H55A C37A 1_555 1_555
C3 N1 1_555 1_555
C7 C8 1_555 1_555
C9 N2 1_555 1_555
C13 C14 1_555 1_555
C18 O1 1_555 1_555
C28 O2 1_555 1_555
N2 Ba1 1_555 1_555
O1 Ba1 1_555 1_555
O2 Ba1 1_555 1_555
C3A N1A 1_555 1_555
C7A C8A 1_555 1_555
C9A N2A 1_555 1_555
C13A C14A 1_555 1_555
C18A O1A 1_555 1_555
C28A O2A 1_555 1_555
N1A Ba1A 1_555 1_555
N2A Ba1A 1_555 1_555
O1A Ba1A 1_555 1_555
O2A Ba1A 1_555 1_555
Ba1A I1A 1_555 1_555
C35A C36A 1_555 1_555
C35A C37A 1_555 1_555

#END
