
#######################################################################
#
#                 Cambridge Crystallographic Data Centre
#                                CCDC 
#
#######################################################################
#
# If this CIF has been generated from an entry in the Cambridge 
# Structural Database, then it will include bibliographic, chemical, 
# crystal, experimental, refinement or atomic coordinate data resulting 
# from the CCDC's data processing and validation procedures.
#
#######################################################################

data_WEQGIJ
_chemical_formula_moiety         'C40 H32 B2 O4,H2 O1'
_chemical_name_systematic        
'(4aR,8aR)-tetrahydro-2,4,4,6,8,8-hexaphenyl-(1,3,2)dioxaborinino(5,4-d)(1,3,2)dioxaborinine monohydrate'
_symmetry_cell_setting           triclinic
_symmetry_space_group_name_H-M   'P 1'
_symmetry_Int_Tables_number      1
_space_group_name_Hall           'P 1'
loop_
_symmetry_equiv_pos_site_id
_symmetry_equiv_pos_as_xyz
1 x,y,z
_cell_length_a                   9.6051(13)
_cell_length_b                   9.9781(13)
_cell_length_c                   10.4687(14)
_cell_angle_alpha                111.552(2)
_cell_angle_beta                 90.165(2)
_cell_angle_gamma                108.708(2)
_cell_volume                     875.539
_exptl_crystal_colour            colorless
_exptl_crystal_description       block
_chemical_melting_point          264-265deg.C
_cell_formula_units_Z            1
_exptl_crystal_recrystallization_method ethanol
loop_
_atom_site_label
_atom_site_type_symbol
_atom_site_fract_x
_atom_site_fract_y
_atom_site_fract_z
O1 O 0.2477(2) 0.3218(3) 0.6429(2)
O2 O 0.4837(3) 0.5048(3) 0.6501(2)
O3 O 0.1454(2) 0.1147(3) 0.3664(2)
O4 O 0.4047(2) 0.2543(3) 0.3906(2)
B1 B 0.3405(4) 0.4689(4) 0.6756(4)
B2 B 0.2639(4) 0.1997(4) 0.3243(4)
C1 C 0.2368(4) 0.2353(4) 0.1954(3)
C2 C 0.0942(4) 0.2155(5) 0.1458(4)
H1 H 0.0149 0.1795 0.1894
C3 C 0.0683(5) 0.2485(6) 0.0327(4)
H2 H -0.0273 0.2378 0.0025
C4 C 0.1848(6) 0.2975(6) -0.0356(4)
H3 H 0.1679 0.3191 -0.1122
C5 C 0.3230(5) 0.3137(5) 0.0097(4)
H4 H 0.4008 0.3442 -0.0376
C6 C 0.3509(4) 0.2858(5) 0.1247(4)
H5 H 0.4478 0.3012 0.1557
C7 C 0.6849(5) 0.5348(5) 0.4689(5)
H6 H 0.6095 0.5755 0.4742
C8 C 0.8017(7) 0.5735(6) 0.3943(6)
H7 H 0.8034 0.6403 0.3510
C9 C 0.9123(5) 0.5144(7) 0.3848(5)
H8 H 0.9898 0.5407 0.3356
C10 C 0.9085(5) 0.4164(9) 0.4481(5)
H9 H 0.9836 0.3750 0.4409
C11 C 0.7957(5) 0.3775(7) 0.5224(4)
H10 H 0.7957 0.3107 0.5653
C12 C 0.6811(4) 0.4371(4) 0.5342(3)
C13 C 0.1959(5) -0.1574(5) 0.2646(4)
H11 H 0.1537 -0.1233 0.2081
C14 C 0.2361(7) -0.2849(6) 0.2044(5)
H12 H 0.2187 -0.3367 0.1086
C15 C 0.3007(6) -0.3356(6) 0.2836(6)
C16 C 0.3205(5) -0.2618(5) 0.4266(5)
H13 H 0.3615 -0.2978 0.4821
C17 C 0.2787(5) -0.1339(5) 0.4862(4)
H14 H 0.2929 -0.0841 0.5823
C18 C 0.2166(4) -0.0791(4) 0.4060(3)
C19 C 0.0247(4) 0.0211(4) 0.5305(3)
C20 C -0.1059(5) 0.0053(6) 0.4611(5)
H15 H -0.1033 0.0270 0.3819
C21 C -0.2406(5) -0.0423(7) 0.5079(7)
H16 H -0.3277 -0.0535 0.4595
C22 C -0.2452(5) -0.0727(5) 0.6249(5)
H17 H -0.3354 -0.1037 0.6570
C23 C -0.1164(6) -0.0573(6) 0.6951(5)
H18 H -0.1191 -0.0779 0.7750
C24 C 0.0167(5) -0.0114(6) 0.6472(4)
H19 H 0.1032 -0.0021 0.6952
C25 C 0.1335(4) 0.5752(5) 0.7716(4)
H20 H 0.0682 0.4746 0.7434
C26 C 0.0836(6) 0.6951(7) 0.8379(6)
H21 H -0.0148 0.6746 0.8539
C27 C 0.1779(6) 0.8448(6) 0.8806(4)
H22 H 0.1440 0.9253 0.9256
C28 C 0.3207(6) 0.8736(5) 0.8563(5)
H23 H 0.3849 0.9745 0.8841
C29 C 0.3714(5) 0.7552(5) 0.7910(4)
C30 C 0.2795(4) 0.6024(4) 0.7462(3)
C31 C 0.1708(4) 0.0632(4) 0.4720(3)
C32 C 0.6643(5) 0.5206(5) 0.8629(4)
H24 H 0.6603 0.6113 0.8597
C33 C 0.7240(6) 0.5215(7) 0.9846(4)
H25 H 0.7604 0.6131 1.0622
C34 C 0.7297(6) 0.3884(7) 0.9915(5)
H26 H 0.7680 0.3895 1.0737
C35 C 0.6793(6) 0.2562(7) 0.8779(5)
H27 H 0.6846 0.1665 0.8822
C36 C 0.6196(5) 0.2517(6) 0.7548(4)
C37 C 0.6107(4) 0.3849(5) 0.7463(3)
C38 C 0.5531(4) 0.3905(4) 0.6124(3)
C39 C 0.2960(4) 0.1935(4) 0.5812(3)
C40 C 0.4374(4) 0.2384(4) 0.5162(3)
H28 H 0.479(4) 0.167(4) 0.495(3)
H29 H 0.331(5) -0.419(6) 0.243(5)
H30 H 0.470(5) 0.764(5) 0.768(5)
H31 H 0.578(4) 0.157(5) 0.675(5)
H32 H 0.307(4) 0.150(4) 0.648(3)
O6 O 0.6339(16) 1.074(2) 0.1720(9)
O5? O 0.6462(16) 0.8974(17) 0.1005(12)
loop_
_geom_bond_atom_site_label_1
_geom_bond_atom_site_label_2
_geom_bond_site_symmetry_1
_geom_bond_site_symmetry_2
O1 B1 1_555 1_555
O2 B1 1_555 1_555
O3 B2 1_555 1_555
O4 B2 1_555 1_555
B1 C30 1_555 1_555
B2 C1 1_555 1_555
C1 C2 1_555 1_555
C2 H1 1_555 1_555
C3 C2 1_555 1_555
H2 C3 1_555 1_555
C4 C3 1_555 1_555
H3 C4 1_555 1_555
C5 C4 1_555 1_555
H4 C5 1_555 1_555
C6 C1 1_555 1_555
H5 C6 1_555 1_555
C7 H6 1_555 1_555
C8 C7 1_555 1_555
H7 C8 1_555 1_555
C9 C8 1_555 1_555
H8 C9 1_555 1_555
C10 C9 1_555 1_555
H9 C10 1_555 1_555
C11 C10 1_555 1_555
H10 C11 1_555 1_555
C12 C7 1_555 1_555
C13 H11 1_555 1_555
C14 C13 1_555 1_555
H12 C14 1_555 1_555
C15 C14 1_555 1_555
C16 C15 1_555 1_555
H13 C16 1_555 1_555
C17 C16 1_555 1_555
H14 C17 1_555 1_555
C18 C13 1_555 1_555
C19 C20 1_555 1_555
C20 H15 1_555 1_555
C21 C20 1_555 1_555
H16 C21 1_555 1_555
C22 C21 1_555 1_555
H17 C22 1_555 1_555
C23 C22 1_555 1_555
H18 C23 1_555 1_555
C24 C19 1_555 1_555
H19 C24 1_555 1_555
C25 H20 1_555 1_555
C26 C25 1_555 1_555
H21 C26 1_555 1_555
C27 C26 1_555 1_555
H22 C27 1_555 1_555
C28 C27 1_555 1_555
H23 C28 1_555 1_555
C29 C28 1_555 1_555
C30 C25 1_555 1_555
C31 O3 1_555 1_555
C32 H24 1_555 1_555
C33 C32 1_555 1_555
H25 C33 1_555 1_555
C34 C33 1_555 1_555
H26 C34 1_555 1_555
C35 C34 1_555 1_555
H27 C35 1_555 1_555
C36 C35 1_555 1_555
C37 C32 1_555 1_555
C38 O2 1_555 1_555
C39 O1 1_555 1_555
C40 O4 1_555 1_555
H28 C40 1_555 1_555
H29 C15 1_555 1_555
H30 C29 1_555 1_555
H31 C36 1_555 1_555
H32 C39 1_555 1_555
C5 C6 1_555 1_555
C11 C12 1_555 1_555
C12 C38 1_555 1_555
C17 C18 1_555 1_555
C18 C31 1_555 1_555
C19 C31 1_555 1_555
C23 C24 1_555 1_555
C29 C30 1_555 1_555
C31 C39 1_555 1_555
C36 C37 1_555 1_555
C37 C38 1_555 1_555
C38 C40 1_555 1_555
C39 C40 1_555 1_555

#END
