
#######################################################################
#
#                 Cambridge Crystallographic Data Centre
#                                CCDC 
#
#######################################################################
#
# If this CIF has been generated from an entry in the Cambridge 
# Structural Database, then it will include bibliographic, chemical, 
# crystal, experimental, refinement or atomic coordinate data resulting 
# from the CCDC's data processing and validation procedures.
#
#######################################################################

data_WEQHUV
_chemical_formula_moiety         'C24 H46 N4 O4 2+,2(Cl1 1-),H2 O1'
_chemical_name_systematic        
'(2,13-bis(Carboxymethyl)-5,16-dimethyl-2,6,13,17-tetra-azatricyclo(16.4.0^1,18^.0^7,12^)docosane) bis(hydrogen chloride) monohydrate'
_symmetry_cell_setting           orthorhombic
_symmetry_space_group_name_H-M   'P b c a'
_symmetry_Int_Tables_number      61
_space_group_name_Hall           '-P 2ac 2ab'
loop_
_symmetry_equiv_pos_site_id
_symmetry_equiv_pos_as_xyz
1 x,y,z
2 1/2+x,y,1/2-z
3 1/2-x,1/2+y,z
4 x,1/2-y,1/2+z
5 -x,-y,-z
6 1/2-x,-y,1/2+z
7 1/2+x,1/2-y,-z
8 -x,1/2+y,1/2-z
_cell_length_a                   9.974(4)
_cell_length_b                   17.0090(17)
_cell_length_c                   33.501(4)
_cell_angle_alpha                90
_cell_angle_beta                 90
_cell_angle_gamma                90
_cell_volume                     5683.37
_exptl_crystal_colour            colorless
_exptl_crystal_description       block
_cell_formula_units_Z            8
loop_
_atom_site_label
_atom_site_type_symbol
_atom_site_fract_x
_atom_site_fract_y
_atom_site_fract_z
N1 N 0.4146(5) -0.1991(3) 0.42416(16)
H1 H 0.4992 -0.2016 0.4363
N2 N 0.3734(6) -0.2767(3) 0.35478(16)
N3 N 0.5036(5) -0.1073(3) 0.32563(14)
H2 H 0.4212 -0.0961 0.3164
N4 N 0.6234(5) -0.0750(3) 0.40099(15)
O1 O 0.9192(4) -0.1927(3) 0.42176(14)
O2 O 0.7041(4) -0.2270(3) 0.41865(14)
O3 O 0.0643(5) -0.1855(3) 0.32592(14)
O4 O 0.2322(4) -0.1349(3) 0.36240(12)
C1 C 0.3786(6) -0.2874(3) 0.42770(19)
H3 H 0.2812 -0.2923 0.4306
C2 C 0.4417(7) -0.3261(4) 0.4607(2)
H4 H 0.4162 -0.3003 0.4853
H5 H 0.5383 -0.3223 0.4580
C3 C 0.4006(7) -0.4136(4) 0.4625(2)
H6 H 0.4452 -0.4392 0.4847
H7 H 0.3046 -0.4180 0.4664
C4 C 0.4392(8) -0.4514(4) 0.4249(2)
H8 H 0.4124 -0.5062 0.4254
H9 H 0.5359 -0.4494 0.4220
C5 C 0.3734(7) -0.4106(4) 0.3890(2)
H10 H 0.4006 -0.4357 0.3643
H11 H 0.2765 -0.4132 0.3910
C6 C 0.4201(7) -0.3260(4) 0.3899(2)
H12 H 0.5183 -0.3266 0.3893
C7 C 0.4402(7) -0.2966(4) 0.3182(2)
H13 H 0.3948 -0.3413 0.3063
H14 H 0.5311 -0.3128 0.3244
C8 C 0.4458(7) -0.2301(4) 0.28745(19)
H15 H 0.3572 -0.2067 0.2862
H16 H 0.4626 -0.2540 0.2616
C9 C 0.5475(7) -0.1624(4) 0.29256(18)
H17 H 0.5515 -0.1327 0.2675
C10 C 0.6905(7) -0.1957(4) 0.3017(2)
C11 C 0.7644(6) -0.0950(3) 0.40059(18)
H18 H 0.8126 -0.0587 0.4177
H19 H 0.7987 -0.0889 0.3737
C12 C 0.7901(6) -0.1768(4) 0.41433(19)
C13 C 0.5914(6) -0.0339(4) 0.32892(19)
H20 H 0.6829 -0.0469 0.3206
C14 C 0.5404(7) 0.0304(4) 0.30376(19)
H21 H 0.4490 0.0427 0.3114
H22 H 0.5397 0.0138 0.2761
C15 C 0.6267(7) 0.1034(4) 0.30803(18)
H23 H 0.7153 0.0925 0.2974
H24 H 0.5879 0.1456 0.2923
C16 C 0.6394(7) 0.1293(4) 0.34973(19)
H25 H 0.5531 0.1480 0.3591
H26 H 0.7022 0.1728 0.3512
C17 C 0.6889(6) 0.0614(4) 0.37726(19)
H27 H 0.7791 0.0459 0.3698
H28 H 0.6902 0.0787 0.4048
C18 C 0.5926(6) -0.0088(4) 0.37251(18)
H29 H 0.5023 0.0102 0.3789
C19 C 0.5796(6) -0.0561(4) 0.44331(18)
H30 H 0.6275 -0.0904 0.4615
H31 H 0.6062 -0.0025 0.4494
C20 C 0.4333(6) -0.0640(4) 0.45128(19)
H32 H 0.3849 -0.0450 0.4281
H33 H 0.4105 -0.0300 0.4735
C21 C 0.3834(7) -0.1471(4) 0.46085(18)
H34 H 0.4347 -0.1672 0.4836
C22 C 0.2355(7) -0.1503(4) 0.4713(2)
C23 C 0.2300(7) -0.2734(4) 0.3495(2)
H35 H 0.1871 -0.3005 0.3716
H36 H 0.2063 -0.3008 0.3251
C24 C 0.1788(7) -0.1922(4) 0.3475(2)
Cl1 Cl 0.46323(13) 0.15344(8) 0.44513(4)
Cl2 Cl -0.04409(13) -0.02541(8) 0.30191(4)
O5 O 0.2720(4) -0.0594(3) 0.27932(13)
loop_
_geom_bond_atom_site_label_1
_geom_bond_atom_site_label_2
_geom_bond_site_symmetry_1
_geom_bond_site_symmetry_2
N1 H1 1_555 1_555
N2 C6 1_555 1_555
N3 H2 1_555 1_555
N4 C11 1_555 1_555
O1 C12 1_555 1_555
O2 C12 1_555 1_555
O3 C24 1_555 1_555
O4 C24 1_555 1_555
C1 N1 1_555 1_555
H3 C1 1_555 1_555
C2 C1 1_555 1_555
H4 C2 1_555 1_555
H5 C2 1_555 1_555
C3 C2 1_555 1_555
H6 C3 1_555 1_555
H7 C3 1_555 1_555
C4 C3 1_555 1_555
H8 C4 1_555 1_555
H9 C4 1_555 1_555
C5 C4 1_555 1_555
H10 C5 1_555 1_555
H11 C5 1_555 1_555
C6 C1 1_555 1_555
H12 C6 1_555 1_555
C7 N2 1_555 1_555
H13 C7 1_555 1_555
H14 C7 1_555 1_555
C8 C7 1_555 1_555
H15 C8 1_555 1_555
H16 C8 1_555 1_555
C9 N3 1_555 1_555
H17 C9 1_555 1_555
C10 C9 1_555 1_555
C11 H18 1_555 1_555
H19 C11 1_555 1_555
C12 C11 1_555 1_555
C13 N3 1_555 1_555
H20 C13 1_555 1_555
C14 C13 1_555 1_555
H21 C14 1_555 1_555
H22 C14 1_555 1_555
C15 C14 1_555 1_555
H23 C15 1_555 1_555
H24 C15 1_555 1_555
C16 C15 1_555 1_555
H25 C16 1_555 1_555
H26 C16 1_555 1_555
C17 C16 1_555 1_555
H27 C17 1_555 1_555
H28 C17 1_555 1_555
C18 N4 1_555 1_555
H29 C18 1_555 1_555
C19 N4 1_555 1_555
H30 C19 1_555 1_555
H31 C19 1_555 1_555
C20 C19 1_555 1_555
H32 C20 1_555 1_555
H33 C20 1_555 1_555
C21 N1 1_555 1_555
H34 C21 1_555 1_555
C22 C21 1_555 1_555
C23 N2 1_555 1_555
H35 C23 1_555 1_555
H36 C23 1_555 1_555
C24 C23 1_555 1_555
C5 C6 1_555 1_555
C8 C9 1_555 1_555
C13 C18 1_555 1_555
C17 C18 1_555 1_555
C20 C21 1_555 1_555

#END
