
#######################################################################
#
#                 Cambridge Crystallographic Data Centre
#                                CCDC 
#
#######################################################################
#
# If this CIF has been generated from an entry in the Cambridge 
# Structural Database, then it will include bibliographic, chemical, 
# crystal, experimental, refinement or atomic coordinate data resulting 
# from the CCDC's data processing and validation procedures.
#
#######################################################################

data_WEQJEK
_chemical_formula_moiety         'C13 H6 Br1 F5 N2'
_chemical_name_systematic        
1-[(4-bromophenyl)methylidene]-2-(pentafluorophenyl)hydrazine
_symmetry_cell_setting           monoclinic
_symmetry_space_group_name_H-M   'P 21/c'
_symmetry_Int_Tables_number      14
_space_group_name_Hall           '-P 2ybc'
loop_
_symmetry_equiv_pos_site_id
_symmetry_equiv_pos_as_xyz
1 x,y,z
2 -x,1/2+y,1/2-z
3 -x,-y,-z
4 x,1/2-y,1/2+z
_cell_length_a                   5.7564(2)
_cell_length_b                   7.6127(3)
_cell_length_c                   29.5346(11)
_cell_angle_alpha                90
_cell_angle_beta                 90.392(2)
_cell_angle_gamma                90
_cell_volume                     1294.23
_exptl_crystal_colour            yellow
_exptl_crystal_description       block
_cell_formula_units_Z            4
loop_
_atom_site_label
_atom_site_type_symbol
_atom_site_fract_x
_atom_site_fract_y
_atom_site_fract_z
Br1 Br 0.97427(4) 0.27093(3) 0.23461(2)
F1 F 0.0510(2) 0.09058(15) 0.54766(4)
F2 F 0.7498(2) 0.37682(16) 0.50834(5)
F3 F 0.8253(3) 0.44807(15) 0.59436(5)
F4 F 0.1280(3) 0.16861(17) 0.63454(5)
F5 F 0.5215(3) 0.34843(18) 0.65972(5)
N1 N 0.4784(3) 0.21376(19) 0.44550(6)
N2 N 0.3329(3) 0.1858(2) 0.48086(6)
H1 H 0.1991 0.1393 0.4757
C1 C 0.5419(4) 0.1921(2) 0.36613(7)
C2 C 0.4648(4) 0.1254(2) 0.32485(7)
H2 H 0.3248 0.0646 0.3235
C3 C 0.5919(4) 0.1478(3) 0.28597(7)
H3 H 0.5388 0.1015 0.2587
C4 C 0.7975(4) 0.2390(2) 0.28770(7)
C5 C 0.3933(4) 0.2299(2) 0.52474(7)
C6 C 0.7519(4) 0.2835(2) 0.36680(7)
H4 H 0.8073 0.3287 0.3941
C7 C 0.2440(4) 0.1816(2) 0.55908(8)
C8 C 0.4051(4) 0.1671(2) 0.40641(8)
H5 H 0.2591 0.1156 0.4038
C9 C 0.5910(4) 0.3213(3) 0.53833(8)
C10 C 0.6311(5) 0.3592(3) 0.58344(9)
C11 C 0.8777(4) 0.3080(2) 0.32833(7)
H6 H 1.0164 0.3706 0.3294
C12 C 0.4795(5) 0.3096(3) 0.61617(9)
C13 C 0.2822(5) 0.2205(3) 0.60368(8)
loop_
_geom_bond_atom_site_label_1
_geom_bond_atom_site_label_2
_geom_bond_site_symmetry_1
_geom_bond_site_symmetry_2
Br1 C4 1_555 1_555
F1 C7 1_555 1_555
F2 C9 1_555 1_555
F3 C10 1_555 1_555
F4 C13 1_555 1_555
F5 C12 1_555 1_555
N1 N2 1_555 1_555
N2 H1 1_555 1_555
C1 C2 1_555 1_555
C2 H2 1_555 1_555
C3 C2 1_555 1_555
H3 C3 1_555 1_555
C4 C3 1_555 1_555
C5 N2 1_555 1_555
C6 C1 1_555 1_555
H4 C6 1_555 1_555
C7 C5 1_555 1_555
C8 N1 1_555 1_555
H5 C8 1_555 1_555
C9 C5 1_555 1_555
C10 C9 1_555 1_555
C11 C4 1_555 1_555
H6 C11 1_555 1_555
C12 C10 1_555 1_555
C13 C7 1_555 1_555
C1 C8 1_555 1_555
C6 C11 1_555 1_555
C12 C13 1_555 1_555

#END
