
#######################################################################
#
#                 Cambridge Crystallographic Data Centre
#                                CCDC 
#
#######################################################################
#
# If this CIF has been generated from an entry in the Cambridge 
# Structural Database, then it will include bibliographic, chemical, 
# crystal, experimental, refinement or atomic coordinate data resulting 
# from the CCDC's data processing and validation procedures.
#
#######################################################################

data_WEQNIS
_chemical_formula_moiety         'C39 H31 N1 O5'
_chemical_name_systematic        
9'-(diethylamino)-4',6'-dimethyl-14'-phenyl-3H,3'H-spiro[2-benzofuran-1,12'-[1]benzopyrano[3,2-b]xanthene]-3,3'-dione
_symmetry_cell_setting           monoclinic
_symmetry_space_group_name_H-M   'P 21/c'
_symmetry_Int_Tables_number      14
_space_group_name_Hall           '-P 2ybc'
loop_
_symmetry_equiv_pos_site_id
_symmetry_equiv_pos_as_xyz
1 x,y,z
2 -x,1/2+y,1/2-z
3 -x,-y,-z
4 x,1/2-y,1/2+z
_cell_length_a                   9.6361(9)
_cell_length_b                   12.2079(11)
_cell_length_c                   26.6548(19)
_cell_angle_alpha                90
_cell_angle_beta                 101.818(4)
_cell_angle_gamma                90
_cell_volume                     3069.11
_exptl_crystal_colour            colorless
_exptl_crystal_description       block
_cell_formula_units_Z            4
loop_
_atom_site_label
_atom_site_type_symbol
_atom_site_fract_x
_atom_site_fract_y
_atom_site_fract_z
O1 O -0.2843(3) -0.1882(3) 0.14002(13)
O2 O -0.6581(3) -0.0072(2) 0.03203(9)
O3 O -1.0168(3) 0.1977(2) -0.06944(9)
O4 O -1.2316(3) -0.0584(2) -0.13160(10)
O5 O -1.3544(3) -0.2006(2) -0.17104(12)
N1 N -1.3362(4) 0.4476(3) -0.16755(15)
C1 C -1.4129(10) 0.5081(9) -0.2555(3)
H1 H -1.3554 0.5729 -0.2500
H2 H -1.4960 0.5222 -0.2815
H3 H -1.3597 0.4495 -0.2664
C2 C -1.4545(6) 0.4775(4) -0.2095(2)
H4 H -1.5197 0.4162 -0.2164
H5 H -1.5053 0.5384 -0.1983
C3 C -1.3347(7) 0.5584(4) -0.0910(2)
H6 H -1.4287 0.5872 -0.1020
H7 H -1.2777 0.6100 -0.0686
H8 H -1.3392 0.4906 -0.0731
C4 C -1.2717(6) 0.5390(4) -0.1357(2)
H9 H -1.2810 0.6049 -0.1564
H10 H -1.1713 0.5244 -0.1240
C5 C -1.2832(4) 0.3423(4) -0.16009(18)
C6 C -1.3341(4) 0.2598(4) -0.19522(16)
H11 H -1.4074 0.2742 -0.2230
C7 C -1.2750(4) 0.1571(3) -0.18845(16)
H12 H -1.3073 0.1036 -0.2129
C8 C -1.1693(4) 0.1295(3) -0.14676(15)
C9 C -1.1235(4) 0.2112(3) -0.11243(15)
C10 C -1.1768(4) 0.3163(3) -0.11851(14)
H13 H -1.1411 0.3699 -0.0945
C11 C -1.1118(4) 0.0149(3) -0.13873(14)
C12 C -1.0713(4) -0.0366(3) -0.18543(14)
C13 C -1.1564(5) -0.1243(3) -0.20243(17)
C14 C -1.1402(6) -0.1865(4) -0.2443(2)
H14 H -1.1992 -0.2458 -0.2555
C15 C -1.0344(7) -0.1571(5) -0.2682(2)
H15 H -1.0195 -0.1978 -0.2961
C16 C -0.9480(5) -0.0676(5) -0.25191(19)
H16 H -0.8774 -0.0488 -0.2695
C17 C -0.9651(5) -0.0054(3) -0.20976(17)
H17 H -0.9072 0.0544 -0.1986
C18 C -1.2577(5) -0.1366(4) -0.16932(18)
C19 C -0.9965(4) 0.0070(3) -0.09173(14)
C20 C -0.9537(4) 0.0969(3) -0.06040(15)
C21 C -0.8420(4) 0.0927(3) -0.01853(14)
C22 C -0.7728(4) -0.0065(4) -0.00829(15)
C23 C -0.8122(4) -0.1004(3) -0.03736(15)
C24 C -0.9269(4) -0.0912(3) -0.07877(14)
H18 H -0.9575 -0.1531 -0.0982
C25 C -0.7953(4) 0.1922(3) 0.01381(14)
H19 H -0.7556 0.2449 -0.0060
H20 H -0.7251 0.1714 0.0433
H21 H -0.8755 0.2237 0.0247
C26 C -0.7332(4) -0.2009(3) -0.02323(16)
C27 C -0.6212(4) -0.1999(4) 0.01753(17)
C28 C -0.5804(5) -0.1019(4) 0.04619(16)
C29 C -0.4716(5) -0.0928(4) 0.08630(17)
C30 C -0.3875(5) -0.1886(5) 0.10314(19)
C31 C -0.4255(5) -0.2886(4) 0.0741(2)
H22 H -0.3721 -0.3513 0.0841
C32 C -0.5339(5) -0.2952(3) 0.03342(17)
H23 H -0.5526 -0.3608 0.0156
C33 C -0.4307(4) 0.0121(4) 0.11439(15)
H24 H -0.4625 0.0728 0.0921
H25 H -0.3295 0.0152 0.1253
H26 H -0.4739 0.0156 0.1438
C34 C -0.7773(4) -0.3013(4) -0.0536(2)
C35 C -0.8328(5) -0.3882(5) -0.03175(18)
H27 H -0.8449 -0.3828 0.0019
C36 C -0.8709(6) -0.4834(5) -0.0588(3)
H28 H -0.9058 -0.5423 -0.0431
C37 C -0.8576(6) -0.4916(6) -0.1090(3)
H29 H -0.8832 -0.5560 -0.1271
C38 C -0.8068(6) -0.4055(6) -0.1321(2)
H30 H -0.8004 -0.4101 -0.1664
C39 C -0.7640(5) -0.3098(4) -0.1040(2)
H31 H -0.7266 -0.2517 -0.1195
H32? H -1.4500 0.4362 -0.2397
H33? H -1.4498 0.5548 -0.2174
C40? C -1.5695(12) 0.4586(11) -0.1932(4)
H34? H -1.5852 0.5139 -0.1694
H35? H -1.5612 0.3884 -0.1766
H36? H -1.6479 0.4574 -0.2220
loop_
_geom_bond_atom_site_label_1
_geom_bond_atom_site_label_2
_geom_bond_site_symmetry_1
_geom_bond_site_symmetry_2
O1 C30 1_555 1_555
O2 C22 1_555 1_555
O3 C9 1_555 1_555
O4 C11 1_555 1_555
O5 C18 1_555 1_555
N1 C2 1_555 1_555
C1 H1 1_555 1_555
H2 C1 1_555 1_555
H3 C1 1_555 1_555
C2 C1 1_555 1_555
H4 C2 1_555 1_555
H5 C2 1_555 1_555
C3 H6 1_555 1_555
H7 C3 1_555 1_555
H8 C3 1_555 1_555
C4 N1 1_555 1_555
H9 C4 1_555 1_555
H10 C4 1_555 1_555
C5 N1 1_555 1_555
C6 C5 1_555 1_555
H11 C6 1_555 1_555
C7 C6 1_555 1_555
H12 C7 1_555 1_555
C8 C7 1_555 1_555
C9 C8 1_555 1_555
C10 C5 1_555 1_555
H13 C10 1_555 1_555
C11 C8 1_555 1_555
C12 C11 1_555 1_555
C13 C12 1_555 1_555
C14 C13 1_555 1_555
H14 C14 1_555 1_555
C15 C14 1_555 1_555
H15 C15 1_555 1_555
C16 C15 1_555 1_555
H16 C16 1_555 1_555
C17 C12 1_555 1_555
H17 C17 1_555 1_555
C18 O4 1_555 1_555
C19 C11 1_555 1_555
C20 O3 1_555 1_555
C21 C20 1_555 1_555
C22 C21 1_555 1_555
C23 C22 1_555 1_555
C24 C19 1_555 1_555
H18 C24 1_555 1_555
C25 C21 1_555 1_555
H19 C25 1_555 1_555
H20 C25 1_555 1_555
H21 C25 1_555 1_555
C26 C23 1_555 1_555
C27 C26 1_555 1_555
C28 O2 1_555 1_555
C29 C28 1_555 1_555
C30 C29 1_555 1_555
C31 C30 1_555 1_555
H22 C31 1_555 1_555
C32 C27 1_555 1_555
H23 C32 1_555 1_555
C33 C29 1_555 1_555
H24 C33 1_555 1_555
H25 C33 1_555 1_555
H26 C33 1_555 1_555
C34 C26 1_555 1_555
C35 C34 1_555 1_555
H27 C35 1_555 1_555
C36 C35 1_555 1_555
H28 C36 1_555 1_555
C37 C36 1_555 1_555
H29 C37 1_555 1_555
C38 C37 1_555 1_555
H30 C38 1_555 1_555
C39 C34 1_555 1_555
H31 C39 1_555 1_555
C3 C4 1_555 1_555
C9 C10 1_555 1_555
C13 C18 1_555 1_555
C16 C17 1_555 1_555
C19 C20 1_555 1_555
C23 C24 1_555 1_555
C27 C28 1_555 1_555
C31 C32 1_555 1_555
C38 C39 1_555 1_555

#END
