
#######################################################################
#
#                 Cambridge Crystallographic Data Centre
#                                CCDC 
#
#######################################################################
#
# If this CIF has been generated from an entry in the Cambridge 
# Structural Database, then it will include bibliographic, chemical, 
# crystal, experimental, refinement or atomic coordinate data resulting 
# from the CCDC's data processing and validation procedures.
#
#######################################################################

data_WEQWAT
_chemical_formula_moiety         'C40 H26 N2,C2 H2 Cl4'
_chemical_name_systematic        
'7b,7c,18b,18c-tetrahydro-11d,22d-diazahexabenzo[a,cd,f,j,lm,o]perylene 1,1,2,2-tetrachloroethane solvate'
_symmetry_cell_setting           monoclinic
_symmetry_space_group_name_H-M   'P 21/n'
_symmetry_Int_Tables_number      14
_space_group_name_Hall           '-P 2yn'
loop_
_symmetry_equiv_pos_site_id
_symmetry_equiv_pos_as_xyz
1 x,y,z
2 1/2-x,1/2+y,1/2-z
3 -x,-y,-z
4 1/2+x,1/2-y,1/2+z
_cell_length_a                   15.3518(2)
_cell_length_b                   6.81740(10)
_cell_length_c                   30.6440(3)
_cell_angle_alpha                90
_cell_angle_beta                 90.9739(11)
_cell_angle_gamma                90
_cell_volume                     3206.72
_exptl_crystal_colour            yellow
_exptl_crystal_description       needle
_cell_formula_units_Z            4
loop_
_atom_site_label
_atom_site_type_symbol
_atom_site_fract_x
_atom_site_fract_y
_atom_site_fract_z
N1 N 0.62540(7) 0.38776(18) 0.68940(4)
N2 N 0.49119(7) 0.41962(18) 0.62333(4)
C1 C 0.53666(9) 0.4480(2) 0.70082(4)
H1 H 0.5331(12) 0.594(3) 0.6964(6)
C2 C 0.64685(9) 0.4537(2) 0.64523(4)
H2 H 0.6407(13) 0.598(3) 0.6443(6)
C3 C 0.47082(9) 0.3524(2) 0.66762(4)
H3 H 0.4813(12) 0.208(3) 0.6680(6)
C4 C 0.58040(9) 0.3632(2) 0.61159(4)
H4 H 0.5837(13) 0.216(3) 0.6138(6)
C5 C 0.51822(9) 0.3953(2) 0.74740(4)
C6 C 0.46658(9) 0.5150(3) 0.77305(5)
H5 H 0.4452(14) 0.639(3) 0.7610(7)
C7 C 0.44589(10) 0.4582(3) 0.81550(5)
H6 H 0.4095(15) 0.542(3) 0.8333(7)
C8 C 0.47866(10) 0.2823(3) 0.83188(5)
H7 H 0.4689(15) 0.241(3) 0.8614(7)
C9 C 0.53122(10) 0.1636(3) 0.80662(5)
H8 H 0.5573(14) 0.042(3) 0.8184(7)
C10 C 0.55086(9) 0.2176(2) 0.76371(5)
C11 C 0.73917(9) 0.4016(2) 0.63452(4)
C12 C 0.78887(10) 0.5224(3) 0.60789(5)
H9 H 0.7651(13) 0.648(3) 0.5972(6)
C13 C 0.87203(10) 0.4657(3) 0.59561(5)
H10 H 0.9073(14) 0.549(3) 0.5767(7)
C14 C 0.90567(10) 0.2879(3) 0.61063(5)
H11 H 0.9621(16) 0.250(4) 0.6025(7)
C15 C 0.85709(10) 0.1679(3) 0.63758(5)
H12 H 0.8822(14) 0.045(3) 0.6484(7)
C16 C 0.77270(9) 0.2222(2) 0.64954(4)
C17 C 0.64999(9) 0.1966(2) 0.70086(4)
C18 C 0.60995(9) 0.1021(2) 0.73643(5)
C19 C 0.63370(10) -0.0908(2) 0.74648(5)
H13 H 0.6053(15) -0.160(4) 0.7704(7)
C20 C 0.69778(11) -0.1877(2) 0.72342(5)
H14 H 0.7119(13) -0.327(3) 0.7295(6)
C21 C 0.74188(10) -0.0877(2) 0.69100(5)
H15 H 0.7890(14) -0.149(3) 0.6767(7)
C22 C 0.72024(9) 0.1050(2) 0.67973(5)
C23 C 0.37726(9) 0.3936(2) 0.67763(4)
C24 C 0.32971(10) 0.2661(2) 0.70351(5)
H16 H 0.3576(14) 0.143(3) 0.7150(7)
C25 C 0.24402(10) 0.3081(3) 0.71368(5)
H17 H 0.2106(15) 0.227(4) 0.7320(7)
C26 C 0.20524(10) 0.4786(3) 0.69741(5)
H18 H 0.1468(16) 0.509(4) 0.7042(7)
C27 C 0.25220(10) 0.6061(3) 0.67144(5)
H19 H 0.2237(15) 0.723(4) 0.6598(7)
C28 C 0.33911(10) 0.5668(2) 0.66144(5)
C29 C 0.59897(9) 0.4235(2) 0.56561(5)
C30 C 0.65000(10) 0.3070(2) 0.53889(5)
H20 H 0.6708(14) 0.182(3) 0.5501(6)
C31 C 0.67090(11) 0.3702(3) 0.49708(5)
H21 H 0.7065(16) 0.290(4) 0.4776(8)
C32 C 0.64019(11) 0.5503(3) 0.48234(5)
H22 H 0.6497(14) 0.588(3) 0.4531(7)
C33 C 0.58913(11) 0.6670(3) 0.50873(5)
H23 H 0.5659(16) 0.794(4) 0.4974(8)
C34 C 0.56762(10) 0.6049(2) 0.55098(5)
C35 C 0.46466(9) 0.6097(2) 0.61233(5)
C36 C 0.39076(10) 0.6918(2) 0.63243(5)
C37 C 0.36745(11) 0.8850(2) 0.62235(5)
H24 H 0.3207(14) 0.944(3) 0.6373(7)
C38 C 0.41374(11) 0.9938(2) 0.59219(5)
H25 H 0.3994(14) 1.130(3) 0.5885(7)
C39 C 0.48131(11) 0.9065(2) 0.56992(5)
H26 H 0.5125(14) 0.986(3) 0.5483(7)
C40 C 0.50628(10) 0.7124(2) 0.57842(5)
Cl1 Cl 0.04562(3) 0.27520(8) 0.51548(2)
Cl2 Cl 0.13505(3) -0.11162(8) 0.56405(2)
Cl3 Cl 0.16742(4) 0.04521(12) 0.46483(2)
Cl4 Cl 0.19246(4) 0.27051(11) 0.59519(2)
C41 C 0.15591(12) 0.2037(3) 0.50994(6)
H27 H 0.1876(16) 0.317(4) 0.5036(7)
C42 C 0.19200(13) 0.1034(3) 0.55085(6)
H28 H 0.2527(16) 0.068(4) 0.5467(7)
Cl5? Cl 0.1752(10) -0.012(2) 0.4718(4)
Cl6? Cl 0.1681(5) 0.3555(13) 0.5875(2)
C43? C 0.1855(16) 0.056(2) 0.5276(4)
H29? H 0.2480 0.0534 0.5348
C44? C 0.1560(7) 0.267(3) 0.5333(4)
H30? H 0.1903 0.3506 0.5141
loop_
_geom_bond_atom_site_label_1
_geom_bond_atom_site_label_2
_geom_bond_site_symmetry_1
_geom_bond_site_symmetry_2
N1 C1 1_555 1_555
N2 C3 1_555 1_555
C1 H1 1_555 1_555
C2 N1 1_555 1_555
H2 C2 1_555 1_555
C3 C1 1_555 1_555
H3 C3 1_555 1_555
C4 N2 1_555 1_555
H4 C4 1_555 1_555
C5 C1 1_555 1_555
C6 C5 1_555 1_555
H5 C6 1_555 1_555
C7 C6 1_555 1_555
H6 C7 1_555 1_555
C8 C7 1_555 1_555
H7 C8 1_555 1_555
C9 C8 1_555 1_555
H8 C9 1_555 1_555
C10 C5 1_555 1_555
C11 C2 1_555 1_555
C12 C11 1_555 1_555
H9 C12 1_555 1_555
C13 C12 1_555 1_555
H10 C13 1_555 1_555
C14 C13 1_555 1_555
H11 C14 1_555 1_555
C15 C14 1_555 1_555
H12 C15 1_555 1_555
C16 C11 1_555 1_555
C17 N1 1_555 1_555
C18 C10 1_555 1_555
C19 C18 1_555 1_555
H13 C19 1_555 1_555
C20 C19 1_555 1_555
H14 C20 1_555 1_555
C21 C20 1_555 1_555
H15 C21 1_555 1_555
C22 C16 1_555 1_555
C23 C3 1_555 1_555
C24 C23 1_555 1_555
H16 C24 1_555 1_555
C25 C24 1_555 1_555
H17 C25 1_555 1_555
C26 C25 1_555 1_555
H18 C26 1_555 1_555
C27 C26 1_555 1_555
H19 C27 1_555 1_555
C28 C23 1_555 1_555
C29 C4 1_555 1_555
C30 C29 1_555 1_555
H20 C30 1_555 1_555
C31 C30 1_555 1_555
H21 C31 1_555 1_555
C32 C31 1_555 1_555
H22 C32 1_555 1_555
C33 C32 1_555 1_555
H23 C33 1_555 1_555
C34 C29 1_555 1_555
C35 N2 1_555 1_555
C36 C28 1_555 1_555
C37 C36 1_555 1_555
H24 C37 1_555 1_555
C38 C37 1_555 1_555
H25 C38 1_555 1_555
C39 C38 1_555 1_555
H26 C39 1_555 1_555
C40 C34 1_555 1_555
Cl1 C41 1_555 1_555
Cl2 C42 1_555 1_555
Cl3 C41 1_555 1_555
Cl4 C42 1_555 1_555
C41 H27 1_555 1_555
C42 C41 1_555 1_555
H28 C42 1_555 1_555
C2 C4 1_555 1_555
C9 C10 1_555 1_555
C15 C16 1_555 1_555
C17 C18 1_555 1_555
C17 C22 1_555 1_555
C21 C22 1_555 1_555
C27 C28 1_555 1_555
C33 C34 1_555 1_555
C35 C36 1_555 1_555
C35 C40 1_555 1_555
C39 C40 1_555 1_555

#END
