
#######################################################################
#
#                 Cambridge Crystallographic Data Centre
#                                CCDC 
#
#######################################################################
#
# If this CIF has been generated from an entry in the Cambridge 
# Structural Database, then it will include bibliographic, chemical, 
# crystal, experimental, refinement or atomic coordinate data resulting 
# from the CCDC's data processing and validation procedures.
#
#######################################################################

data_WERCAY
_chemical_formula_moiety         'C26 H24 O5'
_chemical_name_systematic        
(3,8-Dimethoxy-2-naphthyl)(2-hydroxy-4-methoxyphenyl)(phenyl)methanol
_symmetry_cell_setting           triclinic
_symmetry_space_group_name_H-M   'P -1'
_symmetry_Int_Tables_number      2
_space_group_name_Hall           '-P 1'
loop_
_symmetry_equiv_pos_site_id
_symmetry_equiv_pos_as_xyz
1 x,y,z
2 -x,-y,-z
_cell_length_a                   9.504(2)
_cell_length_b                   10.972(3)
_cell_length_c                   11.785(4)
_cell_angle_alpha                66.744(17)
_cell_angle_beta                 90.325(16)
_cell_angle_gamma                71.375(18)
_cell_volume                     1057.61
_exptl_crystal_colour            colorless
_exptl_crystal_description       needle
_cell_formula_units_Z            2
loop_
_atom_site_label
_atom_site_type_symbol
_atom_site_fract_x
_atom_site_fract_y
_atom_site_fract_z
O1 O 0.40864(16) 0.61834(18) 0.04458(15)
H1 H 0.343(3) 0.698(3) -0.006(2)
O2 O 0.21831(16) 0.88233(16) -0.01713(14)
O3 O 0.69219(16) 0.76453(16) 0.42346(14)
O4 O 0.69606(17) 0.52644(17) 0.10809(14)
H2 H 0.608(3) 0.575(3) 0.057(2)
O5 O 0.88172(17) 0.13838(17) 0.49654(15)
C1 C 0.3926(2) 0.6225(2) 0.1655(2)
C2 C 0.4061(2) 0.7598(2) 0.16046(19)
C3 C 0.3106(2) 0.8929(2) 0.0660(2)
C4 C 0.3124(3) 1.0188(2) 0.0615(2)
H3 H 0.2485 1.1053 -0.0027
C5 C 0.4088(2) 1.0210(2) 0.1520(2)
C6 C 0.4087(3) 1.1505(3) 0.1525(2)
H4 H 0.3432 1.2381 0.0907
C7 C 0.5023(3) 1.1495(3) 0.2413(2)
H5 H 0.5018 1.2368 0.2399
C8 C 0.5992(3) 1.0217(3) 0.3349(2)
H6 H 0.6626 1.0227 0.3969
C9 C 0.6018(2) 0.8952(2) 0.3363(2)
C10 C 0.5069(2) 0.8910(2) 0.2447(2)
C11 C 0.5029(2) 0.7623(2) 0.2457(2)
H7 H 0.5694 0.6751 0.3074
C12 C 0.1239(3) 1.0122(3) -0.1179(2)
H8 H 0.0560 1.0724 -0.0834
H9 H 0.0648 0.9904 -0.1708
H10 H 0.1866 1.0620 -0.1679
C13 C 0.7734(3) 0.7610(3) 0.5286(2)
H11 H 0.8437 0.8115 0.4994
H12 H 0.8294 0.6624 0.5859
H13 H 0.7026 0.8067 0.5723
C14 C 0.5203(2) 0.4905(2) 0.25609(19)
C15 C 0.6648(2) 0.4510(2) 0.22220(19)
C16 C 0.7819(2) 0.3349(2) 0.3041(2)
H14 H 0.8785 0.3110 0.2797
C17 C 0.7590(2) 0.2528(2) 0.4218(2)
C18 C 0.6180(2) 0.2877(2) 0.4580(2)
H15 H 0.6012 0.2319 0.5383
C19 C 0.5025(2) 0.4054(2) 0.3747(2)
H16 H 0.4064 0.4290 0.3999
C20 C 0.8583(3) 0.0433(2) 0.6129(2)
H17 H 0.8292 0.0923 0.6676
H18 H 0.9513 -0.0382 0.6529
H19 H 0.7782 0.0106 0.5981
C21 C 0.2373(2) 0.6175(2) 0.1981(2)
C22 C 0.1818(2) 0.6511(2) 0.2949(2)
H20 H 0.2399 0.6776 0.3405
C23 C 0.0415(3) 0.6462(2) 0.3259(2)
H21 H 0.0051 0.6679 0.3930
C24 C -0.0442(3) 0.6097(3) 0.2583(3)
H22 H -0.1407 0.6082 0.2778
C25 C 0.0106(3) 0.5754(3) 0.1625(3)
H23 H -0.0484 0.5499 0.1165
C26 C 0.1514(2) 0.5777(2) 0.1326(2)
H24 H 0.1890 0.5522 0.0675
loop_
_geom_bond_atom_site_label_1
_geom_bond_atom_site_label_2
_geom_bond_site_symmetry_1
_geom_bond_site_symmetry_2
O1 H1 1_555 1_555
O2 C3 1_555 1_555
O3 C9 1_555 1_555
O4 H2 1_555 1_555
O5 C17 1_555 1_555
C1 O1 1_555 1_555
C2 C1 1_555 1_555
C3 C2 1_555 1_555
C4 C3 1_555 1_555
H3 C4 1_555 1_555
C5 C4 1_555 1_555
C6 C5 1_555 1_555
H4 C6 1_555 1_555
C7 C6 1_555 1_555
H5 C7 1_555 1_555
C8 C7 1_555 1_555
H6 C8 1_555 1_555
C9 C8 1_555 1_555
C10 C5 1_555 1_555
C11 C2 1_555 1_555
H7 C11 1_555 1_555
C12 O2 1_555 1_555
H8 C12 1_555 1_555
H9 C12 1_555 1_555
H10 C12 1_555 1_555
C13 O3 1_555 1_555
H11 C13 1_555 1_555
H12 C13 1_555 1_555
H13 C13 1_555 1_555
C14 C1 1_555 1_555
C15 O4 1_555 1_555
C16 C15 1_555 1_555
H14 C16 1_555 1_555
C17 C16 1_555 1_555
C18 C17 1_555 1_555
H15 C18 1_555 1_555
C19 C14 1_555 1_555
H16 C19 1_555 1_555
C20 O5 1_555 1_555
H17 C20 1_555 1_555
H18 C20 1_555 1_555
H19 C20 1_555 1_555
C21 C1 1_555 1_555
C22 C21 1_555 1_555
H20 C22 1_555 1_555
C23 C22 1_555 1_555
H21 C23 1_555 1_555
C24 C23 1_555 1_555
H22 C24 1_555 1_555
C25 C24 1_555 1_555
H23 C25 1_555 1_555
C26 C21 1_555 1_555
H24 C26 1_555 1_555
C9 C10 1_555 1_555
C10 C11 1_555 1_555
C14 C15 1_555 1_555
C18 C19 1_555 1_555
C25 C26 1_555 1_555

#END
