
#######################################################################
#
#                 Cambridge Crystallographic Data Centre
#                                CCDC 
#
#######################################################################
#
# If this CIF has been generated from an entry in the Cambridge 
# Structural Database, then it will include bibliographic, chemical, 
# crystal, experimental, refinement or atomic coordinate data resulting 
# from the CCDC's data processing and validation procedures.
#
#######################################################################

data_WERDED
_chemical_formula_moiety         'C23 H14 O3'
_chemical_name_systematic        10-Hydroxy-12-phenyl-3H-benzo(b)xanthen-3-one
_symmetry_cell_setting           monoclinic
_symmetry_space_group_name_H-M   'P 21/c'
_symmetry_Int_Tables_number      14
_space_group_name_Hall           '-P 2ybc'
loop_
_symmetry_equiv_pos_site_id
_symmetry_equiv_pos_as_xyz
1 x,y,z
2 -x,1/2+y,1/2-z
3 -x,-y,-z
4 x,1/2-y,1/2+z
_cell_length_a                   10.9460(8)
_cell_length_b                   18.944(8)
_cell_length_c                   8.041(15)
_cell_angle_alpha                90
_cell_angle_beta                 105.58(4)
_cell_angle_gamma                90
_cell_volume                     1606.12
_exptl_crystal_colour            orange
_exptl_crystal_description       lath
_cell_formula_units_Z            4
loop_
_atom_site_label
_atom_site_type_symbol
_atom_site_fract_x
_atom_site_fract_y
_atom_site_fract_z
O1 O 0.4894(3) 0.46828(17) 0.7616(4)
O2 O 0.7969(3) 0.36498(19) 1.2214(4)
O3 O 0.3464(3) 0.75544(18) 0.3593(5)
H1 H 0.2954 0.7894 0.3343
C1 C 0.5999(4) 0.4743(3) 0.8927(6)
C2 C 0.6387(5) 0.4164(3) 0.9887(6)
H2 H 0.5905 0.3741 0.9646
C3 C 0.7527(5) 0.4183(3) 1.1278(6)
C4 C 0.8188(5) 0.4858(3) 1.1640(6)
H3 H 0.8924 0.4895 1.2586
C5 C 0.7769(5) 0.5432(3) 1.0652(6)
H4 H 0.8219 0.5864 1.0924
C6 C 0.6655(5) 0.5409(3) 0.9194(6)
C7 C 0.6259(5) 0.5972(3) 0.8127(6)
C8 C 0.5075(5) 0.5903(3) 0.6788(6)
C9 C 0.4537(5) 0.6450(3) 0.5681(6)
H5 H 0.4964 0.6891 0.5778
C10 C 0.3376(5) 0.6367(3) 0.4422(6)
C11 C 0.2812(5) 0.6940(3) 0.3335(6)
C12 C 0.1685(5) 0.6845(3) 0.2097(6)
H6 H 0.1313 0.7225 0.1363
C13 C 0.1088(5) 0.6187(3) 0.1923(6)
H7 H 0.0312 0.6128 0.1054
C14 C 0.1575(5) 0.5627(3) 0.2954(6)
H8 H 0.1136 0.5189 0.2814
C15 C 0.2738(5) 0.5703(3) 0.4230(6)
C16 C 0.3309(5) 0.5147(3) 0.5351(6)
H9 H 0.2913 0.4697 0.5243
C17 C 0.4424(5) 0.5253(3) 0.6586(6)
C18 C 0.7021(5) 0.6629(3) 0.8276(6)
C19 C 0.6540(5) 0.7286(3) 0.8555(6)
H10 H 0.5704 0.7322 0.8681
C20 C 0.7274(6) 0.7884(3) 0.8650(6)
H11 H 0.6936 0.8330 0.8833
C21 C 0.8508(6) 0.7842(3) 0.8479(6)
H12 H 0.9014 0.8255 0.8571
C22 C 0.8982(5) 0.7197(3) 0.8177(6)
H13 H 0.9815 0.7165 0.8038
C23 C 0.8252(5) 0.6592(3) 0.8075(6)
H14 H 0.8589 0.6149 0.7866
loop_
_geom_bond_atom_site_label_1
_geom_bond_atom_site_label_2
_geom_bond_site_symmetry_1
_geom_bond_site_symmetry_2
O1 C1 1_555 1_555
O2 C3 1_555 1_555
O3 H1 1_555 1_555
C1 C2 1_555 1_555
C2 H2 1_555 1_555
C3 C2 1_555 1_555
C4 C3 1_555 1_555
H3 C4 1_555 1_555
C5 C4 1_555 1_555
H4 C5 1_555 1_555
C6 C1 1_555 1_555
C7 C6 1_555 1_555
C8 C7 1_555 1_555
C9 C8 1_555 1_555
H5 C9 1_555 1_555
C10 C9 1_555 1_555
C11 O3 1_555 1_555
C12 C11 1_555 1_555
H6 C12 1_555 1_555
C13 C12 1_555 1_555
H7 C13 1_555 1_555
C14 C13 1_555 1_555
H8 C14 1_555 1_555
C15 C10 1_555 1_555
C16 C15 1_555 1_555
H9 C16 1_555 1_555
C17 O1 1_555 1_555
C18 C7 1_555 1_555
C19 C18 1_555 1_555
H10 C19 1_555 1_555
C20 C19 1_555 1_555
H11 C20 1_555 1_555
C21 C20 1_555 1_555
H12 C21 1_555 1_555
C22 C21 1_555 1_555
H13 C22 1_555 1_555
C23 C18 1_555 1_555
H14 C23 1_555 1_555
C5 C6 1_555 1_555
C8 C17 1_555 1_555
C10 C11 1_555 1_555
C14 C15 1_555 1_555
C16 C17 1_555 1_555
C22 C23 1_555 1_555

#END
