
#######################################################################
#
#                 Cambridge Crystallographic Data Centre
#                                CCDC 
#
#######################################################################
#
# If this CIF has been generated from an entry in the Cambridge 
# Structural Database, then it will include bibliographic, chemical, 
# crystal, experimental, refinement or atomic coordinate data resulting 
# from the CCDC's data processing and validation procedures.
#
#######################################################################

data_WERDAZ
_chemical_formula_moiety         'C31 H28 O5'
_chemical_name_systematic        bis(3,8-Dimethoxy-2-naphthyl)(phenyl)methanol
_symmetry_cell_setting           triclinic
_symmetry_space_group_name_H-M   'P -1'
_symmetry_Int_Tables_number      2
_space_group_name_Hall           '-P 1'
loop_
_symmetry_equiv_pos_site_id
_symmetry_equiv_pos_as_xyz
1 x,y,z
2 -x,-y,-z
_cell_length_a                   7.675(4)
_cell_length_b                   12.605(7)
_cell_length_c                   12.914(8)
_cell_angle_alpha                86.49(2)
_cell_angle_beta                 81.01(2)
_cell_angle_gamma                83.69(3)
_cell_volume                     1225.29
_exptl_crystal_colour            colorless
_exptl_crystal_description       plate
_cell_formula_units_Z            2
loop_
_atom_site_label
_atom_site_type_symbol
_atom_site_fract_x
_atom_site_fract_y
_atom_site_fract_z
O1 O 0.5986(2) 0.24838(14) 0.14648(13)
H1 H 0.592(3) 0.262(2) 0.080(2)
O2 O 0.4274(2) 0.33230(13) -0.00731(12)
O3 O 0.0753(2) 0.59358(13) 0.38373(13)
O4 O 0.23053(19) 0.02328(13) 0.51661(12)
O5 O 0.6221(2) 0.40513(13) 0.28651(12)
C1 C 0.4203(3) 0.26980(18) 0.20119(17)
C2 C 0.3365(3) 0.38037(18) 0.16754(17)
C3 C 0.3359(3) 0.40749(19) 0.05897(17)
C4 C 0.2517(3) 0.5015(2) 0.02594(19)
H2 H 0.2537 0.5173 -0.0471
C5 C 0.1619(3) 0.57558(19) 0.09834(19)
C6 C 0.0751(3) 0.6746(2) 0.0660(2)
H3 H 0.0744 0.6920 -0.0066
C7 C -0.0069(3) 0.7444(2) 0.1385(2)
H4 H -0.0638 0.8105 0.1155
C8 C -0.0098(3) 0.7212(2) 0.2472(2)
H5 H -0.0676 0.7713 0.2967
C9 C 0.0718(3) 0.62578(19) 0.2802(2)
C10 C 0.1608(3) 0.55083(18) 0.20702(18)
C11 C 0.2494(3) 0.45149(18) 0.23814(18)
H6 H 0.2478 0.4341 0.3109
C12 C 0.4327(4) 0.3526(2) -0.11814(18)
H7 H 0.3137 0.3510 -0.1363
H8 H 0.5145 0.2977 -0.1558
H9 H 0.4734 0.4231 -0.1381
C13 C -0.0347(3) 0.6578(2) 0.4614(2)
H10 H 0.0085 0.7284 0.4593
H11 H -0.0306 0.6231 0.5311
H12 H -0.1572 0.6659 0.4469
C14 C 0.4453(3) 0.25967(18) 0.31671(17)
C15 C 0.3752(3) 0.18209(18) 0.38399(17)
H13 H 0.3016 0.1366 0.3590
C16 C 0.4070(3) 0.16613(18) 0.48977(17)
C17 C 0.3356(3) 0.08408(19) 0.55902(18)
C18 C 0.3728(3) 0.07088(19) 0.65947(18)
H14 H 0.3240 0.0164 0.7055
C19 C 0.4833(3) 0.1384(2) 0.6941(2)
H15 H 0.5109 0.1275 0.7634
C20 C 0.5522(3) 0.2189(2) 0.63133(18)
H16 H 0.6242 0.2646 0.6575
C21 C 0.5162(3) 0.23448(18) 0.52688(18)
C22 C 0.5857(3) 0.31633(19) 0.45810(19)
H17 H 0.6560 0.3638 0.4831
C23 C 0.5542(3) 0.32906(19) 0.35588(18)
C24 C 0.1422(3) -0.0545(2) 0.5861(2)
H18 H 0.2306 -0.1045 0.6156
H19 H 0.0727 -0.0939 0.5468
H20 H 0.0630 -0.0181 0.6430
C25 C 0.7277(4) 0.4765(2) 0.3239(2)
H21 H 0.6564 0.5165 0.3812
H22 H 0.7696 0.5264 0.2666
H23 H 0.8297 0.4355 0.3495
C26 C 0.3029(3) 0.18715(19) 0.17366(17)
C27 C 0.3784(3) 0.0905(2) 0.13206(18)
H24 H 0.5035 0.0742 0.1224
C28 C 0.2717(4) 0.0176(2) 0.1045(2)
H25 H 0.3244 -0.0482 0.0760
C29 C 0.0896(4) 0.0405(2) 0.1183(2)
H26 H 0.0173 -0.0093 0.0990
C30 C 0.0130(3) 0.1352(2) 0.16006(19)
H27 H -0.1122 0.1511 0.1695
C31 C 0.1195(3) 0.2079(2) 0.18844(18)
H28 H 0.0658 0.2727 0.2184
loop_
_geom_bond_atom_site_label_1
_geom_bond_atom_site_label_2
_geom_bond_site_symmetry_1
_geom_bond_site_symmetry_2
O1 H1 1_555 1_555
O2 C3 1_555 1_555
O3 C9 1_555 1_555
O4 C17 1_555 1_555
O5 C23 1_555 1_555
C1 O1 1_555 1_555
C2 C1 1_555 1_555
C3 C2 1_555 1_555
C4 C3 1_555 1_555
H2 C4 1_555 1_555
C5 C4 1_555 1_555
C6 C5 1_555 1_555
H3 C6 1_555 1_555
C7 C6 1_555 1_555
H4 C7 1_555 1_555
C8 C7 1_555 1_555
H5 C8 1_555 1_555
C9 C8 1_555 1_555
C10 C5 1_555 1_555
C11 C2 1_555 1_555
H6 C11 1_555 1_555
C12 O2 1_555 1_555
H7 C12 1_555 1_555
H8 C12 1_555 1_555
H9 C12 1_555 1_555
C13 O3 1_555 1_555
H10 C13 1_555 1_555
H11 C13 1_555 1_555
H12 C13 1_555 1_555
C14 C1 1_555 1_555
C15 C14 1_555 1_555
H13 C15 1_555 1_555
C16 C15 1_555 1_555
C17 C16 1_555 1_555
C18 C17 1_555 1_555
H14 C18 1_555 1_555
C19 C18 1_555 1_555
H15 C19 1_555 1_555
C20 C19 1_555 1_555
H16 C20 1_555 1_555
C21 C16 1_555 1_555
C22 C21 1_555 1_555
H17 C22 1_555 1_555
C23 C14 1_555 1_555
C24 O4 1_555 1_555
H18 C24 1_555 1_555
H19 C24 1_555 1_555
H20 C24 1_555 1_555
C25 O5 1_555 1_555
H21 C25 1_555 1_555
H22 C25 1_555 1_555
H23 C25 1_555 1_555
C26 C1 1_555 1_555
C27 C26 1_555 1_555
H24 C27 1_555 1_555
C28 C27 1_555 1_555
H25 C28 1_555 1_555
C29 C28 1_555 1_555
H26 C29 1_555 1_555
C30 C29 1_555 1_555
H27 C30 1_555 1_555
C31 C26 1_555 1_555
H28 C31 1_555 1_555
C9 C10 1_555 1_555
C10 C11 1_555 1_555
C20 C21 1_555 1_555
C22 C23 1_555 1_555
C30 C31 1_555 1_555

#END
