
#######################################################################
#
#                 Cambridge Crystallographic Data Centre
#                                CCDC 
#
#######################################################################
#
# If this CIF has been generated from an entry in the Cambridge 
# Structural Database, then it will include bibliographic, chemical, 
# crystal, experimental, refinement or atomic coordinate data resulting 
# from the CCDC's data processing and validation procedures.
#
#######################################################################

data_WERHEH
_chemical_formula_moiety         'C16 H18 N4 S1'
_chemical_name_systematic        
'(E)-4-Dimethylaminobenzaldehyde 4-phenylthiosemicarbazone'
_symmetry_cell_setting           orthorhombic
_symmetry_space_group_name_H-M   'P 21 21 21'
_symmetry_Int_Tables_number      19
_space_group_name_Hall           'P 2ac 2ab'
loop_
_symmetry_equiv_pos_site_id
_symmetry_equiv_pos_as_xyz
1 x,y,z
2 1/2-x,-y,1/2+z
3 -x,1/2+y,1/2-z
4 1/2+x,1/2-y,-z
_cell_length_a                   7.7038(14)
_cell_length_b                   11.428(2)
_cell_length_c                   16.726(3)
_cell_angle_alpha                90
_cell_angle_beta                 90
_cell_angle_gamma                90
_cell_volume                     1472.54
_exptl_crystal_colour            yellow
_exptl_crystal_description       prism
_cell_formula_units_Z            4
loop_
_atom_site_label
_atom_site_type_symbol
_atom_site_fract_x
_atom_site_fract_y
_atom_site_fract_z
S1 S 0.13319(8) 0.03855(5) 0.81089(3)
N1 N 0.0288(3) 0.25897(17) 0.77661(11)
H1 H 0.0061 0.3091 0.7381
N2 N 0.1626(3) 0.15655(17) 0.67870(11)
H2 H 0.2220 0.0957 0.6616
N3 N 0.1311(3) 0.24833(17) 0.62682(11)
N4 N 0.0663(3) 0.53367(18) 0.29522(12)
C1 C -0.0192(3) 0.2936(2) 0.85497(12)
C2 C 0.0299(3) 0.4040(2) 0.87875(13)
H3 H 0.0955 0.4520 0.8436
C3 C -0.0157(3) 0.4456(2) 0.95364(14)
H4 H 0.0214 0.5211 0.9702
C4 C -0.1149(3) 0.3777(2) 1.00420(13)
H5 H -0.1469 0.4061 1.0555
C5 C -0.1673(3) 0.2680(2) 0.97952(13)
H6 H -0.2375 0.2217 1.0138
C6 C -0.1191(3) 0.2244(2) 0.90555(13)
H7 H -0.1538 0.1481 0.8895
C7 C 0.1051(3) 0.1580(2) 0.75445(13)
C8 C 0.1839(3) 0.2301(2) 0.55500(14)
H8 H 0.2451 0.1599 0.5438
C9 C 0.1542(3) 0.31166(19) 0.49062(13)
C10 C 0.2022(3) 0.2797(2) 0.41325(13)
H9 H 0.2573 0.2064 0.4050
C11 C 0.1726(3) 0.3507(2) 0.34912(13)
H10 H 0.2070 0.3257 0.2973
C12 C 0.0921(3) 0.4601(2) 0.35843(13)
C13 C 0.0422(3) 0.4921(2) 0.43712(14)
H11 H -0.0140 0.5650 0.4458
C14 C 0.0735(3) 0.4201(2) 0.50056(14)
H12 H 0.0396 0.4443 0.5526
C15 C 0.1114(4) 0.4985(2) 0.21482(14)
H13 H 0.1536 0.4176 0.2154
H14 H 0.2025 0.5501 0.1941
H15 H 0.0086 0.5039 0.1805
C16 C 0.0011(4) 0.6505(2) 0.30674(16)
H16 H -0.0243 0.6629 0.3635
H17 H -0.1054 0.6609 0.2755
H18 H 0.0884 0.7072 0.2891
loop_
_geom_bond_atom_site_label_1
_geom_bond_atom_site_label_2
_geom_bond_site_symmetry_1
_geom_bond_site_symmetry_2
S1 C7 1_555 1_555
N1 H1 1_555 1_555
N2 H2 1_555 1_555
N3 N2 1_555 1_555
N4 C12 1_555 1_555
C1 N1 1_555 1_555
C2 C1 1_555 1_555
H3 C2 1_555 1_555
C3 C2 1_555 1_555
H4 C3 1_555 1_555
C4 C3 1_555 1_555
H5 C4 1_555 1_555
C5 C4 1_555 1_555
H6 C5 1_555 1_555
C6 C1 1_555 1_555
H7 C6 1_555 1_555
C7 N1 1_555 1_555
C8 N3 1_555 1_555
H8 C8 1_555 1_555
C9 C8 1_555 1_555
C10 C9 1_555 1_555
H9 C10 1_555 1_555
C11 C10 1_555 1_555
H10 C11 1_555 1_555
C12 C11 1_555 1_555
C13 C12 1_555 1_555
H11 C13 1_555 1_555
C14 C9 1_555 1_555
H12 C14 1_555 1_555
C15 N4 1_555 1_555
H13 C15 1_555 1_555
H14 C15 1_555 1_555
H15 C15 1_555 1_555
C16 N4 1_555 1_555
H16 C16 1_555 1_555
H17 C16 1_555 1_555
H18 C16 1_555 1_555
N2 C7 1_555 1_555
C5 C6 1_555 1_555
C13 C14 1_555 1_555

#END
