
#######################################################################
#
#                 Cambridge Crystallographic Data Centre
#                                CCDC 
#
#######################################################################
#
# If this CIF has been generated from an entry in the Cambridge 
# Structural Database, then it will include bibliographic, chemical, 
# crystal, experimental, refinement or atomic coordinate data resulting 
# from the CCDC's data processing and validation procedures.
#
#######################################################################

data_WERNOW02
_chemical_name_common            Agomelatine
_chemical_formula_moiety         'C15 H17 N1 O2'
_chemical_name_systematic        N-(2-(7-Methoxy-1-naphthyl)ethyl)acetamide
_chemical_properties_biological  'drug for treatment of severe depression'
_symmetry_cell_setting           monoclinic
_symmetry_space_group_name_H-M   'P 21/c'
_symmetry_Int_Tables_number      14
_space_group_name_Hall           '-P 2ybc'
loop_
_symmetry_equiv_pos_site_id
_symmetry_equiv_pos_as_xyz
1 x,y,z
2 -x,1/2+y,1/2-z
3 -x,-y,-z
4 x,1/2-y,1/2+z
_cell_length_a                   15.4300(12)
_cell_length_b                   9.2934(7)
_cell_length_c                   20.8558(13)
_cell_angle_alpha                90
_cell_angle_beta                 115.241(4)
_cell_angle_gamma                90
_cell_volume                     2705.12
_exptl_crystal_colour            yellow
_exptl_crystal_description       prism
_cell_formula_units_Z            8
loop_
_atom_site_label
_atom_site_type_symbol
_atom_site_fract_x
_atom_site_fract_y
_atom_site_fract_z
O1 O 0.55551(14) 0.03727(19) -0.16350(10)
O2 O 0.39131(14) -0.7396(2) -0.06176(10)
N1 N 0.37619(16) -0.5018(2) -0.08840(11)
H1 H 0.3392 -0.4278 -0.0993
C1 C 0.5588(2) -0.2244(3) -0.16038(13)
H2 H 0.4953 -0.2295 -0.1670
C2 C 0.61138(19) -0.3526(3) -0.15354(12)
C3 C 0.6004(2) -0.0922(3) -0.15740(14)
C4 C 0.70877(19) -0.3431(3) -0.14318(13)
C5 C 0.7628(2) -0.4697(3) -0.13587(14)
H3 H 0.8264 -0.4633 -0.1290
C6 C 0.6971(2) -0.0823(3) -0.14765(14)
H4 H 0.7248 0.0073 -0.1460
C7 C 0.7221(2) -0.6014(3) -0.13890(14)
H5 H 0.7579 -0.6845 -0.1341
C8 C 0.5708(2) -0.4919(3) -0.15628(13)
C9 C 0.7493(2) -0.2050(3) -0.14076(14)
H6 H 0.8126 -0.1977 -0.1343
C10 C 0.2544(2) -0.6166(3) -0.06279(16)
H7 H 0.2105 -0.6877 -0.0925
H8 H 0.2267 -0.5227 -0.0763
H9 H 0.2674 -0.6346 -0.0142
C11 C 0.34584(19) -0.6242(3) -0.07124(13)
C12 C 0.6259(2) -0.6120(3) -0.14933(14)
H10 H 0.5991 -0.7025 -0.1516
C13 C 0.4700(2) -0.5085(3) -0.16244(14)
H11 H 0.4456 -0.6032 -0.1810
H12 H 0.4285 -0.4372 -0.1951
C14 C 0.4615(2) 0.0340(3) -0.16551(16)
H13 H 0.4394 0.1306 -0.1656
H14 H 0.4637 -0.0161 -0.1246
H15 H 0.4185 -0.0148 -0.2077
C15 C 0.46991(19) -0.4893(3) -0.08939(13)
H16 H 0.5123 -0.5607 -0.0574
H17 H 0.4962 -0.3952 -0.0712
O3 O 0.10164(15) -0.4930(2) -0.31913(10)
O4 O 0.27030(14) -0.2384(2) -0.12076(11)
N2 N 0.28523(16) 0.0034(2) -0.11579(11)
H18 H 0.3092 0.0781 -0.0899
C16 C 0.22552(18) 0.0210(3) -0.19168(13)
H19 H 0.2389 -0.0567 -0.2172
H20 H 0.2421 0.1108 -0.2074
C17 C 0.04200(18) -0.1034(3) -0.33072(13)
C18 C 0.0658(2) -0.3583(3) -0.34261(14)
C19 C 0.08235(19) -0.2381(3) -0.30075(14)
H21 H 0.1204 -0.2450 -0.2523
C20 C 0.05762(18) 0.0248(3) -0.28889(14)
C21 C 0.01929(19) 0.1528(3) -0.32181(15)
H22 H 0.0296 0.2357 -0.2945
C22 C 0.3032(2) -0.1266(3) -0.08608(15)
C23 C 0.11883(18) 0.0214(3) -0.20960(13)
H23 H 0.1034 -0.0640 -0.1898
H24 H 0.1042 0.1048 -0.1880
C24 C -0.0521(2) 0.0416(3) -0.43665(15)
H25 H -0.0884 0.0481 -0.4854
C25 C -0.0309(2) -0.2220(3) -0.44642(15)
H26 H -0.0688 -0.2177 -0.4950
C26 C -0.0353(2) 0.1620(3) -0.39582(16)
H27 H -0.0598 0.2503 -0.4167
C27 C 0.0072(2) -0.3503(3) -0.41638(15)
H28 H -0.0051 -0.4327 -0.4442
C28 C -0.01457(19) -0.0941(3) -0.40545(14)
C29 C 0.1678(2) -0.5051(3) -0.24616(15)
H29 H 0.1911 -0.6021 -0.2363
H30 H 0.1361 -0.4805 -0.2168
H31 H 0.2206 -0.4406 -0.2364
C30 C 0.3682(2) -0.1312(4) -0.00774(16)
H32 H 0.3394 -0.1895 0.0159
H33 H 0.3776 -0.0354 0.0112
H34 H 0.4288 -0.1717 -0.0006
loop_
_geom_bond_atom_site_label_1
_geom_bond_atom_site_label_2
_geom_bond_site_symmetry_1
_geom_bond_site_symmetry_2
O1 C3 1_555 1_555
O2 C11 1_555 1_555
N1 H1 1_555 1_555
C1 H2 1_555 1_555
C2 C1 1_555 1_555
C3 C1 1_555 1_555
C4 C2 1_555 1_555
C5 C4 1_555 1_555
H3 C5 1_555 1_555
C6 C3 1_555 1_555
H4 C6 1_555 1_555
C7 C5 1_555 1_555
H5 C7 1_555 1_555
C8 C2 1_555 1_555
C9 C4 1_555 1_555
H6 C9 1_555 1_555
C10 H7 1_555 1_555
H8 C10 1_555 1_555
H9 C10 1_555 1_555
C11 N1 1_555 1_555
C12 C7 1_555 1_555
H10 C12 1_555 1_555
C13 C8 1_555 1_555
H11 C13 1_555 1_555
H12 C13 1_555 1_555
C14 O1 1_555 1_555
H13 C14 1_555 1_555
H14 C14 1_555 1_555
H15 C14 1_555 1_555
C15 N1 1_555 1_555
H16 C15 1_555 1_555
H17 C15 1_555 1_555
O3 C18 1_555 1_555
O4 C22 1_555 1_555
N2 H18 1_555 1_555
C16 N2 1_555 1_555
H19 C16 1_555 1_555
H20 C16 1_555 1_555
C17 C19 1_555 1_555
C18 C19 1_555 1_555
C19 H21 1_555 1_555
C20 C17 1_555 1_555
C21 C20 1_555 1_555
H22 C21 1_555 1_555
C22 N2 1_555 1_555
C23 C16 1_555 1_555
H23 C23 1_555 1_555
H24 C23 1_555 1_555
C24 H25 1_555 1_555
C25 H26 1_555 1_555
C26 C21 1_555 1_555
H27 C26 1_555 1_555
C27 C18 1_555 1_555
H28 C27 1_555 1_555
C28 C17 1_555 1_555
C29 O3 1_555 1_555
H29 C29 1_555 1_555
H30 C29 1_555 1_555
H31 C29 1_555 1_555
C30 C22 1_555 1_555
H32 C30 1_555 1_555
H33 C30 1_555 1_555
H34 C30 1_555 1_555
C6 C9 1_555 1_555
C8 C12 1_555 1_555
C10 C11 1_555 1_555
C13 C15 1_555 1_555
C20 C23 1_555 1_555
C24 C26 1_555 1_555
C24 C28 1_555 1_555
C25 C27 1_555 1_555
C25 C28 1_555 1_555

#END
