
#######################################################################
#
#                 Cambridge Crystallographic Data Centre
#                                CCDC 
#
#######################################################################
#
# If this CIF has been generated from an entry in the Cambridge 
# Structural Database, then it will include bibliographic, chemical, 
# crystal, experimental, refinement or atomic coordinate data resulting 
# from the CCDC's data processing and validation procedures.
#
#######################################################################

data_WERQIW
_chemical_formula_moiety         'C19 H22 B1 N1 O2'
_chemical_name_systematic        
5-(4,4,5,5-tetramethyl-1,3,2-dioxaborolan-2-yl)-5,6-dihydrophenanthridine
_symmetry_cell_setting           monoclinic
_symmetry_space_group_name_H-M   'P 2/c'
_symmetry_Int_Tables_number      13
_space_group_name_Hall           '-P 2yc'
loop_
_symmetry_equiv_pos_site_id
_symmetry_equiv_pos_as_xyz
1 x,y,z
2 -x,y,1/2-z
3 -x,-y,-z
4 x,-y,1/2+z
_cell_length_a                   14.8368(3)
_cell_length_b                   12.6939(2)
_cell_length_c                   17.8201(3)
_cell_angle_alpha                90
_cell_angle_beta                 94.8640(18)
_cell_angle_gamma                90
_cell_volume                     3344.1
_exptl_crystal_colour            colorless
_exptl_crystal_description       block
_cell_formula_units_Z            8
loop_
_atom_site_label
_atom_site_type_symbol
_atom_site_fract_x
_atom_site_fract_y
_atom_site_fract_z
B1 B 0.25810(11) -0.06718(12) 0.05181(9)
C1 C 0.17417(11) -0.28693(12) -0.16586(8)
H1 H 0.1954 -0.3318 -0.2017
C2 C 0.08240(11) -0.28303(13) -0.15723(9)
H2 H 0.0426 -0.3263 -0.1862
C3 C 0.05005(10) -0.21455(13) -0.10537(9)
H3 H -0.0115 -0.2125 -0.0992
C4 C 0.10892(10) -0.14902(12) -0.06258(8)
H4 H 0.0865 -0.1021 -0.0286
C5 C 0.20143(10) -0.15326(11) -0.07031(8)
C6 C 0.34279(10) -0.05681(12) -0.06414(8)
H5 H 0.3850 -0.0197 -0.0289
H6 H 0.3240 -0.0090 -0.1050
C7 C 0.38899(10) -0.15137(12) -0.09500(8)
C8 C 0.48227(10) -0.15605(13) -0.09708(8)
H7 H 0.5182 -0.0999 -0.0791
C9 C 0.52185(11) -0.24474(14) -0.12602(9)
H8 H 0.5842 -0.2475 -0.1281
C10 C 0.46875(12) -0.32871(13) -0.15162(10)
H9 H 0.4957 -0.3886 -0.1698
C11 C 0.37564(11) -0.32444(13) -0.15051(9)
H10 H 0.3404 -0.3815 -0.1679
C12 C 0.33409(10) -0.23441(12) -0.12329(8)
C13 C 0.23532(10) -0.22465(11) -0.12164(8)
C14 C 0.30529(10) -0.02383(12) 0.17175(8)
C15 C 0.20291(10) -0.05210(12) 0.16632(8)
C16 C 0.32835(13) 0.07597(14) 0.21605(9)
H11 H 0.3927 0.0863 0.2203
H12 H 0.3076 0.0698 0.2654
H13 H 0.2994 0.1350 0.1905
C17 C 0.36596(12) -0.11470(15) 0.20022(9)
H14 H 0.3478 -0.1778 0.1734
H15 H 0.3607 -0.1249 0.2531
H16 H 0.4276 -0.0987 0.1921
C18 C 0.14063(12) 0.04345(14) 0.16144(10)
H17 H 0.1600 0.0918 0.1246
H18 H 0.1429 0.0776 0.2096
H19 H 0.0798 0.0212 0.1470
C19 C 0.17557(12) -0.12756(14) 0.22658(9)
H20 H 0.1117 -0.1406 0.2193
H21 H 0.1900 -0.0970 0.2754
H22 H 0.2077 -0.1928 0.2231
N1 N 0.26355(8) -0.08917(9) -0.02585(6)
O1 O 0.19059(7) -0.10420(8) 0.09293(5)
O2 O 0.32157(7) -0.00659(8) 0.09263(5)
B2 B 0.23804(11) 0.55150(12) 0.20993(9)
C20 C 0.36721(10) 0.75493(12) 0.42735(8)
H23 H 0.3559 0.8005 0.4663
C21 C 0.45568(11) 0.73493(13) 0.41273(9)
H24 H 0.5032 0.7670 0.4416
C22 C 0.47318(10) 0.66669(13) 0.35472(9)
H25 H 0.5325 0.6542 0.3439
C23 C 0.40232(10) 0.61734(12) 0.31305(8)
H26 H 0.4145 0.5707 0.2749
C24 C 0.31308(9) 0.63668(11) 0.32760(7)
C25 C 0.16126(9) 0.56609(11) 0.32870(8)
H27 H 0.1763 0.5140 0.3676
H28 H 0.1121 0.5384 0.2951
C26 C 0.13129(10) 0.66614(11) 0.36429(8)
C27 C 0.04063(10) 0.68940(12) 0.36951(8)
H29 H -0.0038 0.6450 0.3473
C28 C 0.01596(11) 0.77862(13) 0.40778(9)
H30 H -0.0448 0.7935 0.4120
C29 C 0.08285(11) 0.84565(13) 0.43979(9)
H31 H 0.0666 0.9052 0.4659
C30 C 0.17347(11) 0.82440(12) 0.43317(9)
H32 H 0.2175 0.8706 0.4538
C31 C 0.19916(10) 0.73388(11) 0.39566(8)
C32 C 0.29425(10) 0.70812(11) 0.38478(8)
C33 C 0.18808(10) 0.46238(12) 0.10387(8)
C34 C 0.26718(10) 0.53738(11) 0.08742(8)
C35 C 0.21842(11) 0.34885(12) 0.11837(9)
H33 H 0.2718 0.3481 0.1528
H34 H 0.2315 0.3167 0.0717
H35 H 0.1711 0.3103 0.1397
C36 C 0.10616(11) 0.46608(14) 0.04748(9)
H36 H 0.0598 0.4210 0.0641
H37 H 0.1227 0.4425 -0.0007
H38 H 0.0839 0.5370 0.0432
C37 C 0.33936(11) 0.48858(13) 0.04320(9)
H39 H 0.3858 0.5396 0.0367
H40 H 0.3128 0.4664 -0.0052
H41 H 0.3652 0.4288 0.0701
C38 C 0.23425(12) 0.64062(12) 0.05160(9)
H42 H 0.1877 0.6698 0.0797
H43 H 0.2104 0.6280 0.0006
H44 H 0.2838 0.6893 0.0519
N2 N 0.24027(8) 0.58463(9) 0.28624(6)
O3 O 0.30673(6) 0.56269(8) 0.16371(5)
O4 O 0.16206(7) 0.50280(8) 0.17579(5)
loop_
_geom_bond_atom_site_label_1
_geom_bond_atom_site_label_2
_geom_bond_site_symmetry_1
_geom_bond_site_symmetry_2
B1 N1 1_555 1_555
C1 H1 1_555 1_555
C2 C1 1_555 1_555
H2 C2 1_555 1_555
C3 C2 1_555 1_555
H3 C3 1_555 1_555
C4 C3 1_555 1_555
H4 C4 1_555 1_555
C5 C4 1_555 1_555
C6 H5 1_555 1_555
H6 C6 1_555 1_555
C7 C6 1_555 1_555
C8 C7 1_555 1_555
H7 C8 1_555 1_555
C9 C8 1_555 1_555
H8 C9 1_555 1_555
C10 C9 1_555 1_555
H9 C10 1_555 1_555
C11 C10 1_555 1_555
H10 C11 1_555 1_555
C12 C7 1_555 1_555
C13 C1 1_555 1_555
C14 C15 1_555 1_555
C15 C18 1_555 1_555
C16 C14 1_555 1_555
H11 C16 1_555 1_555
H12 C16 1_555 1_555
H13 C16 1_555 1_555
C17 C14 1_555 1_555
H14 C17 1_555 1_555
H15 C17 1_555 1_555
H16 C17 1_555 1_555
C18 H17 1_555 1_555
H18 C18 1_555 1_555
H19 C18 1_555 1_555
C19 C15 1_555 1_555
H20 C19 1_555 1_555
H21 C19 1_555 1_555
H22 C19 1_555 1_555
N1 C5 1_555 1_555
O1 B1 1_555 1_555
O2 B1 1_555 1_555
B2 N2 1_555 1_555
C20 H23 1_555 1_555
C21 C20 1_555 1_555
H24 C21 1_555 1_555
C22 C21 1_555 1_555
H25 C22 1_555 1_555
C23 C22 1_555 1_555
H26 C23 1_555 1_555
C24 C23 1_555 1_555
C25 H27 1_555 1_555
H28 C25 1_555 1_555
C26 C25 1_555 1_555
C27 C26 1_555 1_555
H29 C27 1_555 1_555
C28 C27 1_555 1_555
H30 C28 1_555 1_555
C29 C28 1_555 1_555
H31 C29 1_555 1_555
C30 C29 1_555 1_555
H32 C30 1_555 1_555
C31 C26 1_555 1_555
C32 C20 1_555 1_555
C33 C34 1_555 1_555
C34 C37 1_555 1_555
C35 C33 1_555 1_555
H33 C35 1_555 1_555
H34 C35 1_555 1_555
H35 C35 1_555 1_555
C36 C33 1_555 1_555
H36 C36 1_555 1_555
H37 C36 1_555 1_555
H38 C36 1_555 1_555
C37 H39 1_555 1_555
H40 C37 1_555 1_555
H41 C37 1_555 1_555
C38 C34 1_555 1_555
H42 C38 1_555 1_555
H43 C38 1_555 1_555
H44 C38 1_555 1_555
N2 C24 1_555 1_555
O3 B2 1_555 1_555
O4 B2 1_555 1_555
C5 C13 1_555 1_555
C6 N1 1_555 1_555
C11 C12 1_555 1_555
C12 C13 1_555 1_555
C14 O2 1_555 1_555
C15 O1 1_555 1_555
C24 C32 1_555 1_555
C25 N2 1_555 1_555
C30 C31 1_555 1_555
C31 C32 1_555 1_555
C33 O4 1_555 1_555
C34 O3 1_555 1_555

#END
