
#######################################################################
#
#                 Cambridge Crystallographic Data Centre
#                                CCDC 
#
#######################################################################
#
# If this CIF has been generated from an entry in the Cambridge 
# Structural Database, then it will include bibliographic, chemical, 
# crystal, experimental, refinement or atomic coordinate data resulting 
# from the CCDC's data processing and validation procedures.
#
#######################################################################

data_WERWOG
_chemical_formula_moiety         'C18 H16 O3 S9'
_chemical_name_systematic        
(3-(p-Toluenesulfonato)propylene-1,2-dithio)(ethylenedithio)tetrathiafulvalene
_symmetry_cell_setting           triclinic
_symmetry_space_group_name_H-M   'P -1'
_symmetry_Int_Tables_number      2
_space_group_name_Hall           '-P 1'
loop_
_symmetry_equiv_pos_site_id
_symmetry_equiv_pos_as_xyz
1 x,y,z
2 -x,-y,-z
_cell_length_a                   6.2490(1)
_cell_length_b                   11.0486(3)
_cell_length_c                   16.4757(4)
_cell_angle_alpha                82.167(2)
_cell_angle_beta                 82.328(2)
_cell_angle_gamma                87.627(2)
_cell_volume                     1116.51
_exptl_crystal_colour            'pale brown'
_exptl_crystal_description       slab
_chemical_melting_point          '333-335 K'
_cell_formula_units_Z            2
loop_
_atom_site_label
_atom_site_type_symbol
_atom_site_fract_x
_atom_site_fract_y
_atom_site_fract_z
S1 S -0.03486(10) 0.94650(7) 0.33952(4)
S2 S 0.48085(10) 0.98189(7) 0.22131(5)
S3 S -0.09498(12) 0.76907(9) 0.22550(7)
S4 S 0.34201(16) 0.78931(8) 0.13328(6)
S5 S -0.15659(14) 0.51078(10) 0.16065(9)
S6 S 0.2764(2) 0.52595(9) 0.06623(7)
S7 S -0.17173(16) 0.23810(9) 0.16734(6)
S8 S 0.3210(2) 0.25311(13) 0.06371(10)
S9 S 0.33158(13) 0.77305(6) 0.53400(4)
O1 O 0.2288(3) 0.89293(17) 0.48907(11)
O2 O 0.5518(4) 0.79339(19) 0.54234(14)
O3 O 0.1819(4) 0.7419(2) 0.60628(12)
C1 C 0.1982(4) 1.0244(2) 0.36088(15)
H1 H 0.1421 1.0896 0.3953
C2 C 0.3258(4) 1.0878(2) 0.28198(17)
H2 H 0.4252 1.1462 0.2970
H3 H 0.2241 1.1351 0.2479
C3 C 0.0784(4) 0.8727(2) 0.25511(14)
C4 C 0.2774(4) 0.8809(2) 0.21410(14)
C5 C 0.1122(4) 0.7009(2) 0.16189(14)
C6 C 0.0856(4) 0.5935(2) 0.13429(14)
C7 C -0.0297(4) 0.3737(2) 0.13621(15)
C8 C 0.1696(4) 0.3786(2) 0.09463(13)
C9 C -0.1021(6) 0.1695(5) 0.0725(3)
H4 H -0.1451 0.0830 0.0849
H5 H -0.1954 0.2100 0.0322
C10 C 0.1093(7) 0.1703(5) 0.0319(3)
H6 H 0.1007 0.2014 -0.0269
H7 H 0.1597 0.0839 0.0337
C11 C 0.3480(6) 0.9418(3) 0.40983(18)
H8 H 0.4038 0.8740 0.3788
H9 H 0.4724 0.9886 0.4191
C12 C 0.3309(4) 0.6690(2) 0.46319(15)
C13 C 0.5216(5) 0.6253(3) 0.4236(2)
H10 H 0.6569 0.6518 0.4340
C14 C 0.5121(5) 0.5417(3) 0.36814(18)
H11 H 0.6423 0.5114 0.3404
C15 C 0.3171(4) 0.5024(2) 0.35297(14)
C16 C 0.1315(5) 0.5507(3) 0.3924(2)
H12 H -0.0044 0.5260 0.3814
C17 C 0.1363(5) 0.6336(3) 0.4472(2)
H13 H 0.0058 0.6657 0.4736
C18 C 0.3100(5) 0.4090(2) 0.29547(17)
H14 H 0.3423 0.4478 0.2382
H15 H 0.1657 0.3742 0.3037
H16 H 0.4173 0.3438 0.3068
S10? S -0.0788(7) 0.9928(4) 0.3002(3)
S11? S 0.4876(7) 0.9453(5) 0.2596(4)
S12? S -0.0944(10) 0.7945(6) 0.1951(4)
S13? S 0.3782(10) 0.7691(6) 0.1543(4)
S14? S -0.1489(12) 0.5318(7) 0.1341(4)
S15? S 0.3199(13) 0.5152(8) 0.0816(5)
S16? S -0.2223(9) 0.2666(5) 0.1419(4)
S17? S 0.3046(19) 0.2631(10) 0.0464(6)
S18? S 0.4505(10) 0.7992(4) 0.5119(3)
O4? O 0.4681(18) 0.9207(8) 0.4486(6)
O5? O 0.660(3) 0.7728(14) 0.5355(9)
O6? O 0.259(2) 0.8107(14) 0.5762(9)
C19? C 0.129(3) 1.1009(15) 0.2971(10)
C20? C 0.334(3) 1.0412(16) 0.3289(11)
C21? C -0.082(3) 0.1338(12) 0.1054(11)
C22? C 0.127(2) 0.1378(13) 0.0566(10)
C23? C 0.276(3) 0.971(2) 0.4131(15)
loop_
_geom_bond_atom_site_label_1
_geom_bond_atom_site_label_2
_geom_bond_site_symmetry_1
_geom_bond_site_symmetry_2
S1 C1 1_555 1_555
S2 C2 1_555 1_555
S3 C3 1_555 1_555
S4 C4 1_555 1_555
S5 C6 1_555 1_555
S6 C6 1_555 1_555
S7 C7 1_555 1_555
S8 C8 1_555 1_555
S9 O1 1_555 1_555
O1 C11 1_555 1_555
O2 S9 1_555 1_555
O3 S9 1_555 1_555
C1 H1 1_555 1_555
C2 C1 1_555 1_555
H2 C2 1_555 1_555
H3 C2 1_555 1_555
C3 S1 1_555 1_555
C4 S2 1_555 1_555
C5 S3 1_555 1_555
C6 C5 1_555 1_555
C7 S5 1_555 1_555
C8 S6 1_555 1_555
C9 S7 1_555 1_555
H4 C9 1_555 1_555
H5 C9 1_555 1_555
C10 S8 1_555 1_555
H6 C10 1_555 1_555
H7 C10 1_555 1_555
C11 C1 1_555 1_555
H8 C11 1_555 1_555
H9 C11 1_555 1_555
C12 S9 1_555 1_555
C13 C12 1_555 1_555
H10 C13 1_555 1_555
C14 C13 1_555 1_555
H11 C14 1_555 1_555
C15 C14 1_555 1_555
C16 C15 1_555 1_555
H12 C16 1_555 1_555
C17 C12 1_555 1_555
H13 C17 1_555 1_555
C18 C15 1_555 1_555
H14 C18 1_555 1_555
H15 C18 1_555 1_555
H16 C18 1_555 1_555
S4 C5 1_555 1_555
C3 C4 1_555 1_555
C7 C8 1_555 1_555
C9 C10 1_555 1_555
C16 C17 1_555 1_555

#END
