
#######################################################################
#
#                 Cambridge Crystallographic Data Centre
#                                CCDC 
#
#######################################################################
#
# If this CIF has been generated from an entry in the Cambridge 
# Structural Database, then it will include bibliographic, chemical, 
# crystal, experimental, refinement or atomic coordinate data resulting 
# from the CCDC's data processing and validation procedures.
#
#######################################################################

data_WESBUR
_chemical_formula_moiety         'C30 H42 N2 O4 S2'
_chemical_name_systematic        
'(-)-10-((N,N-Di-isopropylamino)sulfonyl)camphor N-((1,2-diphenylethyl)sulfonyl)imine'
_symmetry_cell_setting           orthorhombic
_symmetry_space_group_name_H-M   'P 21 21 21'
_symmetry_Int_Tables_number      19
_space_group_name_Hall           'P 2ac 2ab'
loop_
_symmetry_equiv_pos_site_id
_symmetry_equiv_pos_as_xyz
1 x,y,z
2 1/2+x,1/2-y,-z
3 -x,1/2+y,1/2-z
4 1/2-x,-y,1/2+z
_cell_length_a                   11.332(1)
_cell_length_b                   12.998(1)
_cell_length_c                   20.489(1)
_cell_angle_alpha                90
_cell_angle_beta                 90
_cell_angle_gamma                90
_cell_volume                     3017.89
_chemical_melting_point          180-182deg.C
_cell_formula_units_Z            4
loop_
_atom_site_label
_atom_site_type_symbol
_atom_site_fract_x
_atom_site_fract_y
_atom_site_fract_z
S1 S 0.09261(6) 0.84996(6) 0.29724(3)
S2 S 0.37321(7) 1.10652(5) 0.46031(4)
C1 C 0.3310(2) 0.9209(2) 0.4294(1)
C2 C 0.2711(2) 0.8332(2) 0.3939(1)
C3 C 0.1687(3) 0.8038(2) 0.4419(1)
C4 C 0.2345(3) 0.7529(3) 0.5004(2)
C5 C 0.3640(3) 0.7607(2) 0.4806(1)
C6 C 0.3964(3) 0.8746(2) 0.4870(1)
C7 C 0.3602(3) 0.7442(2) 0.4058(1)
C8 C 0.3122(4) 0.6385(2) 0.3855(2)
C9 C 0.4803(3) 0.7613(3) 0.3724(2)
C10 C 0.2408(3) 0.8582(3) 0.3225(1)
C11 C 0.1034(3) 0.7988(3) 0.1683(2)
C12 C -0.0082(4) 0.7371(4) 0.1578(2)
C13 C 0.2130(4) 0.7331(3) 0.1737(2)
C14 C 0.0838(4) 0.9867(3) 0.2006(2)
C15 C 0.2001(5) 1.0250(4) 0.1718(2)
C16 C -0.0173(6) 1.0069(4) 0.1571(2)
C17 C 0.3488(2) 1.2178(2) 0.4099(1)
C18 C 0.4247(3) 1.2134(2) 0.3481(2)
C19 C 0.3939(3) 1.2980(3) 0.3009(2)
C20 C 0.4609(4) 1.3855(3) 0.2983(2)
C21 C 0.4318(6) 1.4641(3) 0.2546(2)
C22 C 0.3390(5) 1.4565(4) 0.2142(2)
C23 C 0.2706(4) 1.3663(5) 0.2156(3)
C24 C 0.2991(4) 1.2887(5) 0.2592(2)
C25 C 0.3679(3) 1.3116(2) 0.4528(1)
C26 C 0.2692(3) 1.3615(2) 0.4785(2)
C27 C 0.2854(4) 1.4457(2) 0.5200(2)
C28 C 0.3955(4) 1.4792(2) 0.5365(2)
C29 C 0.4921(3) 1.4293(2) 0.5108(2)
C30 C 0.4793(3) 1.3466(2) 0.4695(2)
N1 N 0.0919(3) 0.8771(2) 0.2208(1)
N2 N 0.3175(2) 1.0156(2) 0.4121(1)
O1 O 0.0576(3) 0.7439(2) 0.3027(1)
O2 O 0.0288(3) 0.9270(3) 0.3318(1)
O3 O 0.4974(2) 1.0918(2) 0.4700(2)
O4 O 0.2995(3) 1.1143(2) 0.5171(1)
H1 H 0.4158 0.7161 0.5048
H2 H 0.1075 0.8377 0.1289
H3 H 0.0705 1.0338 0.2360
H4 H 0.2705 1.2211 0.3927
H5 H 0.1265 0.8636 0.4554
H6 H 0.1152 0.7567 0.4224
H7 H 0.2206 0.7905 0.5399
H8 H 0.2116 0.6839 0.5061
H9 H 0.4792 0.8854 0.4835
H10 H 0.3694 0.9028 0.5273
H11 H 0.2854 0.8107 0.2955
H12 H 0.2684 0.9257 0.3135
H13 H 0.5055 1.2198 0.3609
H14 H 0.4134 1.1487 0.3278
H15 H 0.5286 1.3951 0.3269
H16 H 0.4847 1.5240 0.2521
H17 H 0.3247 1.5174 0.1884
H18 H 0.2024 1.3596 0.1883
H19 H 0.2507 1.2228 0.2586
H20 H 0.1911 1.3371 0.4677
H21 H 0.2165 1.4796 0.5374
H22 H 0.4029 1.5364 0.5649
H23 H 0.5706 1.4552 0.5216
H24 H 0.5481 1.3098 0.4521
H25 H 0.3652 0.5856 0.3942
H26 H 0.2910 0.6381 0.3399
H27 H 0.2386 0.6244 0.4093
H28 H 0.4716 0.7596 0.3260
H29 H 0.5342 0.7088 0.3851
H30 H 0.5117 0.8265 0.3846
H31 H -0.0127 0.7155 0.1127
H32 H -0.0768 0.7775 0.1669
H33 H -0.0084 0.6780 0.1846
H34 H 0.2271 0.6938 0.1353
H35 H 0.2824 0.7768 0.1803
H36 H 0.2097 0.6875 0.2103
H37 H 0.2673 1.0093 0.2030
H38 H 0.2051 1.0952 0.1633
H39 H 0.2226 0.9871 0.1328
H40 H -0.0919 0.9990 0.1844
H41 H -0.0251 0.9507 0.1259
H42 H -0.0193 1.0685 0.1378
loop_
_geom_bond_atom_site_label_1
_geom_bond_atom_site_label_2
_geom_bond_site_symmetry_1
_geom_bond_site_symmetry_2
S1 C10 1_555 1_555
S2 C17 1_555 1_555
C1 C2 1_555 1_555
C2 C3 1_555 1_555
C3 C4 1_555 1_555
C4 C5 1_555 1_555
C5 C6 1_555 1_555
C6 C1 1_555 1_555
C7 C2 1_555 1_555
C8 C7 1_555 1_555
C9 C7 1_555 1_555
C10 C2 1_555 1_555
C11 C12 1_555 1_555
C12 H31 1_555 1_555
C13 C11 1_555 1_555
C14 C15 1_555 1_555
C15 H37 1_555 1_555
C16 C14 1_555 1_555
C17 C18 1_555 1_555
C18 C19 1_555 1_555
C19 C20 1_555 1_555
C20 C21 1_555 1_555
C21 C22 1_555 1_555
C22 C23 1_555 1_555
C23 C24 1_555 1_555
C24 C19 1_555 1_555
C25 C17 1_555 1_555
C26 C25 1_555 1_555
C27 C26 1_555 1_555
C28 C27 1_555 1_555
C29 C28 1_555 1_555
C30 C25 1_555 1_555
N1 S1 1_555 1_555
N2 S2 1_555 1_555
O1 S1 1_555 1_555
O2 S1 1_555 1_555
O3 S2 1_555 1_555
O4 S2 1_555 1_555
H1 C5 1_555 1_555
H2 C11 1_555 1_555
H3 C14 1_555 1_555
H4 C17 1_555 1_555
H5 C3 1_555 1_555
H6 C3 1_555 1_555
H7 C4 1_555 1_555
H8 C4 1_555 1_555
H9 C6 1_555 1_555
H10 C6 1_555 1_555
H11 C10 1_555 1_555
H12 C10 1_555 1_555
H13 C18 1_555 1_555
H14 C18 1_555 1_555
H15 C20 1_555 1_555
H16 C21 1_555 1_555
H17 C22 1_555 1_555
H18 C23 1_555 1_555
H19 C24 1_555 1_555
H20 C26 1_555 1_555
H21 C27 1_555 1_555
H22 C28 1_555 1_555
H23 C29 1_555 1_555
H24 C30 1_555 1_555
H25 C8 1_555 1_555
H26 C8 1_555 1_555
H27 C8 1_555 1_555
H28 C9 1_555 1_555
H29 C9 1_555 1_555
H30 C9 1_555 1_555
H32 C12 1_555 1_555
H33 C12 1_555 1_555
H34 C13 1_555 1_555
H35 C13 1_555 1_555
H36 C13 1_555 1_555
H38 C15 1_555 1_555
H39 C15 1_555 1_555
H40 C16 1_555 1_555
H41 C16 1_555 1_555
H42 C16 1_555 1_555
C1 N2 1_555 1_555
C5 C7 1_555 1_555
C11 N1 1_555 1_555
C14 N1 1_555 1_555
C29 C30 1_555 1_555

#END
