
#######################################################################
#
#                 Cambridge Crystallographic Data Centre
#                                CCDC 
#
#######################################################################
#
# If this CIF has been generated from an entry in the Cambridge 
# Structural Database, then it will include bibliographic, chemical, 
# crystal, experimental, refinement or atomic coordinate data resulting 
# from the CCDC's data processing and validation procedures.
#
#######################################################################

data_WESDUW
_chemical_formula_moiety         'C228 H216 N32'
_chemical_name_systematic        
'(P)-6,9,19,21,31,33,43,45,55,58,68,70,80,83,93,96,105,106,111,120,121,126,131,140(1,4)-tetracosabenzena-1,4,11,14,17,23,26,29,35,38,41,47,50,53,60,63,66,72,75,78,85,88,91,98,103,108,113,118,123,128,133,138-dotriaconta-azaundecacyclo[54.44.5.5^7,88^.5^8,50^.5^14,82^.5^26,81^.5^38,57^.5^63,95^.5^75,94^.0^20,44^.0^32,69^]tetracontahectaphane-4,7,10,17,20(44),22,29,32(69),34,41,46,53,56,59,66,71,78,81,84,91,94,97,103,107,112,118,122,127,132,138-triacontaene unknown solvate'
_symmetry_cell_setting           rhombohedral
_symmetry_space_group_name_H-M   'R 3'
_symmetry_Int_Tables_number      146
_space_group_name_Hall           'R 3'
loop_
_symmetry_equiv_pos_site_id
_symmetry_equiv_pos_as_xyz
1 x,y,z
2 -y,x-y,z
3 -x+y,-x,z
4 2/3+x,1/3+y,1/3+z
5 2/3-y,1/3+x-y,1/3+z
6 2/3-x+y,1/3-x,1/3+z
7 1/3+x,2/3+y,2/3+z
8 1/3-y,2/3+x-y,2/3+z
9 1/3-x+y,2/3-x,2/3+z
_cell_length_a                   29.0242(9)
_cell_length_b                   29.0242(9)
_cell_length_c                   30.6505(11)
_cell_angle_alpha                90
_cell_angle_beta                 90
_cell_angle_gamma                120
_cell_volume                     22360.9
_exptl_crystal_colour            colorless
_exptl_crystal_description       cube
_cell_formula_units_Z            3
loop_
_atom_site_label
_atom_site_type_symbol
_atom_site_fract_x
_atom_site_fract_y
_atom_site_fract_z
N1 N -0.0304(2) 0.2982(3) 0.3821(2)
C1 C 0.2159(2) 0.5331(2) 0.66157(16)
C2 C 0.25900(18) 0.4588(2) 0.4053(2)
N2 N 0.3333 0.6667 0.8717(4)
N3 N 0.0311(2) 0.4014(2) 0.3304(2)
C3 C 0.12827(13) 0.50311(10) 0.52489(11)
H1 H 0.1544 0.5393 0.5234
C4 C 0.12614(13) 0.47282(12) 0.56077(9)
C5 C 0.08746(14) 0.41933(11) 0.56295(10)
H2 H 0.0860 0.3988 0.5872
C6 C 0.05090(13) 0.39614(9) 0.52924(11)
H3 H 0.0247 0.3600 0.5307
C7 C 0.05303(12) 0.42643(13) 0.49336(9)
C8 C 0.09172(13) 0.47992(12) 0.49118(9)
H4 H 0.0932 0.5004 0.4669
C9 C 0.1547(2) 0.3838(2) 0.42049(19)
C10 C 0.1505(2) 0.5118(2) 0.37527(18)
H5 H 0.1711 0.4952 0.3774
N4 N 0.3359(3) 0.3018(3) 0.6238(3)
C11 C 0.2478(2) 0.4272(2) 0.55618(18)
H6 H 0.2677 0.4308 0.5309
C12 C 0.0769(2) 0.4271(2) 0.34826(19)
H7 H 0.0972 0.4105 0.3534
C13 C 0.1722(2) 0.5659(2) 0.38653(18)
H8 H 0.2082 0.5859 0.3945
C14 C 0.2277(3) 0.4202(2) 0.37360(19)
H9 H 0.2416 0.4206 0.3458
C15 C 0.2708(2) 0.5606(2) 0.66011(18)
H10 H 0.2880 0.5689 0.6329
C16 C 0.2772(2) 0.5679(2) 0.73790(17)
C17 C 0.1921(3) 0.4180(3) 0.6307(2)
H11 H 0.1745 0.4163 0.6569
C18 C 0.23054(19) 0.46205(18) 0.56373(15)
H12 H 0.2401 0.4902 0.5440
C19 C 0.18015(19) 0.4227(2) 0.45289(18)
H13 H 0.1639 0.4236 0.4791
C20 C 0.2326(2) 0.4600(2) 0.44152(17)
H14 H 0.2514 0.4886 0.4608
C21 C 0.0975(2) 0.4831(2) 0.36076(16)
C22 C 0.33428(16) 0.42112(12) 0.44359(9)
H15 H 0.3140 0.3997 0.4202
C23 C 0.34804(18) 0.47435(13) 0.44519(10)
C24 C 0.37805(17) 0.50609(10) 0.47982(11)
H16 H 0.3874 0.5421 0.4809
C25 C 0.39431(15) 0.48459(11) 0.51287(10)
H17 H 0.4146 0.5061 0.5363
C26 C 0.38056(15) 0.43136(12) 0.51127(10)
C27 C 0.35054(15) 0.39962(9) 0.47663(11)
H18 H 0.3412 0.3636 0.4756
C28 C 0.2001(2) 0.4579(2) 0.5986(2)
N5 N 0.2382(3) 0.3072(3) 0.5993(3)
C29 C 0.1415(2) 0.5901(2) 0.3861(2)
C30 C 0.2188(2) 0.5418(2) 0.73963(17)
H19 H 0.2011 0.5363 0.7665
C31 C 0.3003(2) 0.5760(3) 0.69720(19)
H20 H 0.3376 0.5927 0.6951
C32 C 0.1921(2) 0.5264(2) 0.70328(18)
H21 H 0.1549 0.5097 0.7048
N6 N 0.3945(3) 0.3631(3) 0.5436(2)
C33 C 0.28921(16) 0.56772(16) 0.26804(9)
C34 C 0.27308(14) 0.57592(15) 0.30859(11)
H22 H 0.2520 0.5920 0.3105
C35 C 0.28815(15) 0.56028(16) 0.34631(8)
H23 H 0.2772 0.5658 0.3737
C36 C 0.31934(17) 0.53644(16) 0.34348(8)
C37 C 0.33546(16) 0.52824(17) 0.30292(10)
H24 H 0.3566 0.5121 0.3010
C38 C 0.32040(17) 0.54388(17) 0.26521(8)
H25 H 0.3313 0.5383 0.2378
N7 N 0.3333 0.6667 0.1336(4)
C39 C 0.2365(2) 0.3866(2) 0.58506(18)
N8 N 0.0259(3) 0.6239(4) 0.6781(3)
C40 C -0.0190(3) 0.2549(3) 0.3824(4)
H26 H -0.0011 0.2547 0.3554
H27 H -0.0520 0.2206 0.3852
C41 C 0.0957(3) 0.3417(3) 0.4299(2)
H28 H 0.0790 0.3481 0.4534
C42 C 0.09571(13) 0.61079(12) 0.64468(12)
C43 C 0.06415(10) 0.55569(12) 0.64397(13)
H29 H 0.0279 0.5395 0.6513
C44 C 0.08617(11) 0.52451(9) 0.63239(14)
H30 H 0.0648 0.4872 0.6319
C45 C 0.13976(11) 0.54843(11) 0.62152(14)
C46 C 0.17132(9) 0.60353(11) 0.62223(14)
H31 H 0.2076 0.6197 0.6149
C47 C 0.14930(12) 0.63471(9) 0.63381(13)
H32 H 0.1706 0.6720 0.6343
C48 C -0.0759(3) 0.2900(4) 0.4086(2)
H33 H -0.0803 0.2665 0.4332
H34 H -0.1084 0.2727 0.3909
C49 C -0.0375(3) 0.3107(3) 0.3375(3)
H35 H -0.0593 0.3278 0.3376
H36 H -0.0564 0.2777 0.3207
C50 C 0.2549(4) 0.2682(3) 0.5840(3)
H37 H 0.2789 0.2824 0.5589
H38 H 0.2238 0.2342 0.5758
C51 C 0.3976(3) 0.4087(3) 0.5458(2)
H39 H 0.4118 0.4288 0.5713
N9 N 0.0697(3) 0.3012(2) 0.4090(2)
C52 C 0.0156(2) 0.3474(2) 0.3158(2)
H40 H 0.0423 0.3380 0.3247
H41 H 0.0120 0.3448 0.2840
C53 C 0.2518(3) 0.3470(2) 0.5735(3)
H42 H 0.2710 0.3506 0.5479
C54 C 0.3091(3) 0.5812(3) 0.7782(2)
H43 H 0.3463 0.6015 0.7763
C55 C 0.0705(4) 0.6405(3) 0.6599(2)
H44 H 0.0904 0.6774 0.6554
C56 C 0.0098(3) 0.4040(4) 0.4598(2)
H45 H 0.0148 0.4233 0.4339
N10 N 0.2871(4) 0.5655(4) 0.8158(2)
C57 C 0.2958(5) 0.6116(4) 0.1209(2)
H46 H 0.2772 0.6114 0.0941
H47 H 0.3152 0.5927 0.1150
C58 C 0.1781(2) 0.3832(2) 0.38426(19)
H48 H 0.1590 0.3551 0.3646
C59 C 0.2088(3) 0.3840(2) 0.6239(2)
H49 H 0.2024 0.3579 0.6450
N11 N -0.0317(2) 0.3618(3) 0.4644(2)
C60 C 0.0158(4) 0.2643(5) 0.4203(4)
H50 H 0.0047 0.2784 0.4446
H51 H 0.0129 0.2306 0.4296
C61 C 0.0687(2) 0.5103(3) 0.3601(2)
H52 H 0.0330 0.4916 0.3509
C62 C 0.3735(4) 0.2974(3) 0.5991(3)
H53 H 0.3547 0.2714 0.5759
H54 H 0.3903 0.2827 0.6178
C63 C 0.3525(6) 0.3125(4) 0.6667(5)
H55 H 0.3909 0.3263 0.6672
H56 H 0.3358 0.2787 0.6825
C64 C 0.2832(4) 0.2614(3) 0.6232(3)
H57 H 0.2655 0.2624 0.6501
H58 H 0.2814 0.2268 0.6216
C65 C 0.2704(3) 0.5834(3) 0.2271(2)
H59 H 0.2559 0.6060 0.2293
C66 C 0.0885(3) 0.5598(3) 0.3713(3)
H60 H 0.0672 0.5756 0.3697
C67 C 0.3131(4) 0.5030(3) 0.3823(2)
C68 C -0.0678(3) 0.3410(5) 0.4250(3)
H61 H -0.1025 0.3368 0.4328
H62 H -0.0527 0.3675 0.4016
N12 N 0.2741(4) 0.5666(4) 0.1908(2)
C69 C 0.4157(3) 0.3460(4) 0.5788(3)
H63 H 0.4320 0.3742 0.6007
H64 H 0.4434 0.3393 0.5674
C70 C 0.3048(6) 0.6133(6) 0.8868(3)
H65 H 0.2664 0.5993 0.8849
H66 H 0.3141 0.6110 0.9172
C71 C 0.0067(5) 0.6577(4) 0.6907(3)
H67 H 0.0346 0.6947 0.6861
H68 H -0.0018 0.6529 0.7219
C72 C 0.2595(4) 0.5861(4) 0.1533(3)
H69 H 0.2284 0.5557 0.1400
H70 H 0.2478 0.6105 0.1638
C73 C 0.3244(6) 0.5786(4) 0.8524(3)
H71 H 0.3613 0.6009 0.8428
H72 H 0.3203 0.5465 0.8664
C74 C 0.3538(4) 0.5112(3) 0.4057(2)
C75 C 0.1685(3) 0.4874(3) 0.5965(2)
C76 C 0.1745(3) 0.5233(3) 0.6264(2)
N1A N 0.7018(3) 0.6714(4) 0.3821(2)
C1A C 0.4669(2) 0.6828(3) 0.66157(16)
C2A C 0.5412(2) 0.80020(27) 0.4053(2)
N3A N 0.5986(2) 0.6297(3) 0.3304(2)
C3A C 0.49689(10) 0.62516(16) 0.52489(11)
H1A H 0.4607 0.6151 0.5234
C4A C 0.52718(12) 0.65332(18) 0.56077(9)
C5A C 0.58067(11) 0.66813(18) 0.56295(10)
H2A H 0.6012 0.6872 0.5872
C6A C 0.60386(9) 0.65476(16) 0.52924(11)
H3A H 0.6400 0.6647 0.5307
C7A C 0.57357(13) 0.62660(18) 0.49336(9)
C8A C 0.52008(12) 0.61180(18) 0.49118(9)
H4A H 0.4996 0.5928 0.4669
C9A C 0.6162(2) 0.7709(3) 0.42049(19)
C10A C 0.4882(2) 0.6387(3) 0.37527(18)
H5A H 0.5048 0.6759 0.3774
N4A N 0.6982(3) 1.0341(4) 0.6238(3)
C11A C 0.5728(2) 0.8206(3) 0.55618(18)
H6A H 0.5692 0.8369 0.5309
C12A C 0.5729(2) 0.6498(3) 0.34826(19)
H7A H 0.5895 0.6867 0.3534
C13A C 0.4341(2) 0.6063(3) 0.38653(18)
H8A H 0.4141 0.6223 0.3945
C14A C 0.5798(2) 0.8075(4) 0.37360(19)
H9A H 0.5794 0.8210 0.3458
C15A C 0.4394(2) 0.7102(3) 0.66011(18)
H10A H 0.4311 0.7191 0.6329
C16A C 0.4321(2) 0.7093(3) 0.73790(17)
C17A C 0.5820(3) 0.7741(4) 0.6307(2)
H11A H 0.5837 0.7582 0.6569
C18A C 0.53795(18) 0.76849(26) 0.56373(15)
H12A H 0.5098 0.7499 0.5440
C19A C 0.5773(2) 0.75745(28) 0.45289(18)
H13A H 0.5764 0.7403 0.4791
C20A C 0.5400(2) 0.7726(3) 0.44152(17)
H14A H 0.5114 0.7628 0.4608
C21A C 0.5169(2) 0.6144(3) 0.36076(16)
C22A C 0.57888(12) 0.91316(20) 0.44359(9)
H15A H 0.6003 0.9143 0.4202
C23A C 0.52565(13) 0.87369(22) 0.44519(10)
C24A C 0.49391(10) 0.87196(20) 0.47982(11)
H16A H 0.4579 0.8453 0.4809
C25A C 0.51541(11) 0.90972(19) 0.51287(10)
H17A H 0.4939 0.9085 0.5363
C26A C 0.56864(12) 0.94920(19) 0.51127(10)
C27A C 0.60038(9) 0.95092(17) 0.47663(11)
H18A H 0.6364 0.9776 0.4756
C28A C 0.5421(2) 0.7422(3) 0.5986(2)
N5A N 0.6928(3) 0.9310(4) 0.5993(3)
C29A C 0.4099(2) 0.5514(3) 0.3861(2)
C30A C 0.4582(2) 0.6770(3) 0.73963(17)
H19A H 0.4637 0.6648 0.7665
C31A C 0.4240(3) 0.7243(4) 0.69720(19)
H20A H 0.4073 0.7449 0.6951
C32A C 0.4736(2) 0.6657(3) 0.70328(18)
H21A H 0.4903 0.6452 0.7048
N6A N 0.6369(3) 1.0314(4) 0.5436(2)
C33A C 0.43228(16) 0.72149(23) 0.26804(9)
C34A C 0.42408(15) 0.69716(21) 0.30859(11)
H22A H 0.4080 0.6600 0.3105
C35A C 0.43972(16) 0.72787(22) 0.34631(8)
H23A H 0.4342 0.7114 0.3737
C36A C 0.46356(16) 0.78290(23) 0.34348(8)
C37A C 0.47176(17) 0.80722(23) 0.30292(10)
H24A H 0.4879 0.8445 0.3010
C38A C 0.45612(17) 0.77652(24) 0.26521(8)
H25A H 0.4617 0.7930 0.2378
C39A C 0.6134(2) 0.8499(3) 0.58506(18)
N8A N 0.3761(4) 0.4020(5) 0.6781(3)
C40A C 0.7451(3) 0.7261(4) 0.3824(4)
H26A H 0.7453 0.7442 0.3554
H27A H 0.7794 0.7274 0.3852
C41A C 0.6583(3) 0.7540(4) 0.4299(2)
H28A H 0.6519 0.7309 0.4534
C42A C 0.38921(12) 0.48492(18) 0.64468(12)
C43A C 0.44431(12) 0.50846(16) 0.64397(13)
H29A H 0.4605 0.4884 0.6513
C44A C 0.47549(9) 0.56166(14) 0.63239(14)
H30A H 0.5128 0.5776 0.6319
C45A C 0.45157(11) 0.59133(16) 0.62152(14)
C46A C 0.39647(11) 0.56779(14) 0.62223(14)
H31A H 0.3803 0.5879 0.6149
C47A C 0.36529(9) 0.51459(15) 0.63381(13)
H32A H 0.3280 0.4986 0.6343
C48A C 0.7100(4) 0.6341(5) 0.4086(2)
H33A H 0.7335 0.6532 0.4332
H34A H 0.7273 0.6189 0.3909
C49A C 0.6893(3) 0.6518(4) 0.3375(3)
H35A H 0.6722 0.6129 0.3376
H36A H 0.7223 0.6659 0.3207
C50A C 0.7318(3) 0.9867(5) 0.5840(3)
H37A H 0.7176 0.9965 0.5589
H38A H 0.7658 0.9896 0.5758
C51A C 0.5913(3) 0.9889(4) 0.5458(2)
H39A H 0.5712 0.9830 0.5713
N9A N 0.6988(2) 0.7685(4) 0.4090(2)
C52A C 0.6526(2) 0.6682(3) 0.3158(2)
H40A H 0.6620 0.7043 0.3247
H41A H 0.6552 0.6672 0.2840
C53A C 0.6530(2) 0.9048(4) 0.5735(3)
H42A H 0.6494 0.9204 0.5479
C54A C 0.4188(3) 0.7279(4) 0.7782(2)
H43A H 0.3985 0.7448 0.7763
C55A C 0.3595(3) 0.4300(5) 0.6599(2)
H44A H 0.3226 0.4130 0.6554
C56A C 0.5960(4) 0.6058(5) 0.4598(2)
H45A H 0.5767 0.5915 0.4339
N10A N 0.4345(4) 0.7216(6) 0.8158(2)
C57A C 0.3884(4) 0.6842(6) 0.1209(2)
H46A H 0.3886 0.6658 0.0941
H47A H 0.4073 0.7225 0.1150
C58A C 0.6168(2) 0.7949(3) 0.38426(19)
H48A H 0.6449 0.8039 0.3646
C59A C 0.6160(2) 0.8248(4) 0.6239(2)
H49A H 0.6421 0.8445 0.6450
N11A N 0.6382(3) 0.6065(4) 0.4644(2)
C60A C 0.7357(5) 0.7515(6) 0.4203(4)
H50A H 0.7216 0.7263 0.4446
H51A H 0.7694 0.7823 0.4296
C61A C 0.4897(3) 0.5584(4) 0.3601(2)
H52A H 0.5084 0.5414 0.3509
C62A C 0.7026(3) 1.0761(5) 0.5991(3)
H53A H 0.7286 1.0833 0.5759
H54A H 0.7173 1.1076 0.6178
C63A C 0.6875(4) 1.0400(7) 0.6667(5)
H55A H 0.6737 1.0646 0.6672
H56A H 0.7213 1.0571 0.6825
C64A C 0.7386(3) 1.0218(5) 0.6232(3)
H57A H 0.7376 1.0031 0.6501
H58A H 0.7732 1.0546 0.6216
C65A C 0.4166(3) 0.6870(4) 0.2271(2)
H59A H 0.3940 0.6499 0.2293
C66A C 0.4402(3) 0.5287(4) 0.3713(3)
H60A H 0.4244 0.4916 0.3697
C67A C 0.4970(3) 0.8101(5) 0.3823(2)
C68A C 0.6590(5) 0.5912(6) 0.4250(3)
H61A H 0.6632 0.5607 0.4328
H62A H 0.6325 0.5798 0.4016
N12A N 0.4334(4) 0.7075(6) 0.1908(2)
C69A C 0.6540(4) 1.0697(5) 0.5788(3)
H63A H 0.6258 1.0578 0.6007
H64A H 0.6607 1.1041 0.5674
C70A C 0.3867(6) 0.6915(8) 0.8868(3)
H65A H 0.4007 0.6671 0.8849
H66A H 0.3890 0.7031 0.9172
C71A C 0.3423(4) 0.3490(6) 0.6907(3)
H67A H 0.3053 0.3399 0.6861
H68A H 0.3471 0.3453 0.7219
C72A C 0.4139(4) 0.6734(6) 0.1533(3)
H69A H 0.4443 0.6727 0.1400
H70A H 0.3895 0.6373 0.1638
C73A C 0.4214(4) 0.7458(7) 0.8524(3)
H71A H 0.3991 0.7604 0.8428
H72A H 0.4535 0.7738 0.8664
C74A C 0.4888(3) 0.8426(5) 0.4057(2)
C75A C 0.5126(3) 0.6811(4) 0.5965(2)
C76A C 0.4767(3) 0.6512(4) 0.6264(2)
N1B N 0.3286(4) 1.0304(2) 0.3821(2)
C1B C 0.3172(3) 0.7841(2) 0.66157(16)
C2B C 0.19980(27) 0.74100(18) 0.4053(2)
N3B N 0.3703(3) 0.9689(2) 0.3304(2)
C3B C 0.37484(16) 0.87173(13) 0.52489(11)
H1B H 0.3849 0.8456 0.5234
C4B C 0.34668(18) 0.87386(13) 0.56077(9)
C5B C 0.33187(18) 0.91254(14) 0.56295(10)
H2B H 0.3128 0.9140 0.5872
C6B C 0.34524(16) 0.94910(13) 0.52924(11)
H3B H 0.3353 0.9753 0.5307
C7B C 0.37340(18) 0.94697(12) 0.49336(9)
C8B C 0.38820(18) 0.90828(13) 0.49118(9)
H4B H 0.4072 0.9068 0.4669
C9B C 0.2291(3) 0.8453(2) 0.42049(19)
C10B C 0.3613(3) 0.8495(2) 0.37527(18)
H5B H 0.3241 0.8289 0.3774
N4B N -0.0341(4) 0.6641(3) 0.6238(3)
C11B C 0.1794(3) 0.7522(2) 0.55618(18)
H6B H 0.1631 0.7323 0.5309
C12B C 0.3502(3) 0.9231(2) 0.34826(19)
H7B H 0.3133 0.9028 0.3534
C13B C 0.3937(3) 0.8278(2) 0.38653(18)
H8B H 0.3777 0.7918 0.3945
C14B C 0.1925(4) 0.7723(3) 0.37360(19)
H9B H 0.1790 0.7584 0.3458
C15B C 0.2898(3) 0.7292(2) 0.66011(18)
H10B H 0.2809 0.7120 0.6329
C16B C 0.2907(3) 0.7228(2) 0.73790(17)
C17B C 0.2259(4) 0.8079(3) 0.6307(2)
H11B H 0.2418 0.8255 0.6569
C18B C 0.23151(26) 0.76946(19) 0.56373(15)
H12B H 0.2501 0.7599 0.5440
C19B C 0.24255(28) 0.81985(19) 0.45289(18)
H13B H 0.2597 0.8361 0.4791
C20B C 0.2274(3) 0.7674(2) 0.44152(17)
H14B H 0.2372 0.7486 0.4608
C21B C 0.3856(3) 0.9025(2) 0.36076(16)
C22B C 0.08684(20) 0.66572(16) 0.44359(9)
H15B H 0.0857 0.6860 0.4202
C23B C 0.12631(22) 0.65196(18) 0.44519(10)
C24B C 0.12804(20) 0.62195(17) 0.47982(11)
H16B H 0.1547 0.6126 0.4809
C25B C 0.09028(19) 0.60569(15) 0.51287(10)
H17B H 0.0915 0.5854 0.5363
C26B C 0.05080(19) 0.61944(15) 0.51127(10)
C27B C 0.04908(17) 0.64946(15) 0.47663(11)
H18B H 0.0224 0.6588 0.4756
C28B C 0.2578(3) 0.7999(2) 0.5986(2)
N5B N 0.0690(4) 0.7618(3) 0.5993(3)
C29B C 0.4486(3) 0.8585(2) 0.3861(2)
C30B C 0.3230(3) 0.7812(2) 0.73963(17)
H19B H 0.3352 0.7989 0.7665
C31B C 0.2757(4) 0.6997(2) 0.69720(19)
H20B H 0.2551 0.6624 0.6951
C32B C 0.3343(3) 0.8079(2) 0.70328(18)
H21B H 0.3548 0.8451 0.7048
N6B N -0.0314(4) 0.6055(3) 0.5436(2)
C33B C 0.27851(23) 0.71079(16) 0.26804(9)
C34B C 0.30284(21) 0.72692(14) 0.30859(11)
H22B H 0.3400 0.7480 0.3105
C35B C 0.27213(22) 0.71185(15) 0.34631(8)
H23B H 0.2886 0.7228 0.3737
C36B C 0.21710(23) 0.68066(17) 0.34348(8)
C37B C 0.19278(23) 0.66454(16) 0.30292(10)
H24B H 0.1555 0.6434 0.3010
C38B C 0.22348(24) 0.67960(17) 0.26521(8)
H25B H 0.2070 0.6687 0.2378
C39B C 0.1501(3) 0.7635(2) 0.58506(18)
N8B N 0.5980(5) 0.9741(3) 0.6781(3)
C40B C 0.2739(4) 1.0190(3) 0.3824(4)
H26B H 0.2558 1.0011 0.3554
H27B H 0.2726 1.0520 0.3852
C41B C 0.2460(4) 0.9043(3) 0.4299(2)
H28B H 0.2691 0.9210 0.4534
C42B C 0.51508(18) 0.90429(13) 0.64468(12)
C43B C 0.49154(16) 0.93585(10) 0.64397(13)
H29B H 0.5116 0.9721 0.6513
C44B C 0.43834(14) 0.91383(11) 0.63239(14)
H30B H 0.4224 0.9352 0.6319
C45B C 0.40867(16) 0.86024(11) 0.62152(14)
C46B C 0.43221(14) 0.82868(9) 0.62223(14)
H31B H 0.4121 0.7924 0.6149
C47B C 0.48541(15) 0.85070(12) 0.63381(13)
H32B H 0.5014 0.8294 0.6343
C48B C 0.3659(5) 1.0759(3) 0.4086(2)
H33B H 0.3468 1.0803 0.4332
H34B H 0.3811 1.1084 0.3909
C49B C 0.3482(4) 1.0375(3) 0.3375(3)
H35B H 0.3871 1.0593 0.3376
H36B H 0.3341 1.0564 0.3207
C50B C 0.0133(5) 0.7451(4) 0.5840(3)
H37B H 0.0035 0.7211 0.5589
H38B H 0.0104 0.7762 0.5758
C51B C 0.0111(4) 0.6024(3) 0.5458(2)
H39B H 0.0170 0.5882 0.5713
N9B N 0.2315(4) 0.9303(3) 0.4090(2)
C52B C 0.3318(3) 0.9844(2) 0.3158(2)
H40B H 0.2957 0.9577 0.3247
H41B H 0.3328 0.9880 0.2840
C53B C 0.0952(4) 0.7482(3) 0.5735(3)
H42B H 0.0796 0.7290 0.5479
C54B C 0.2721(4) 0.6909(3) 0.7782(2)
H43B H 0.2552 0.6537 0.7763
C55B C 0.5700(5) 0.9295(4) 0.6599(2)
H44B H 0.5870 0.9096 0.6554
C56B C 0.3942(5) 0.9902(3) 0.4598(2)
H45B H 0.4085 0.9852 0.4339
N10B N 0.2784(6) 0.7129(4) 0.8158(2)
C57B C 0.3158(6) 0.7042(5) 0.1209(2)
H46B H 0.3342 0.7228 0.0941
H47B H 0.2775 0.6848 0.1150
C58B C 0.2051(3) 0.8219(2) 0.38426(19)
H48B H 0.1961 0.8410 0.3646
C59B C 0.1752(4) 0.7912(3) 0.6239(2)
H49B H 0.1555 0.7976 0.6450
N11B N 0.3935(4) 1.0317(2) 0.4644(2)
C60B C 0.2485(6) 0.9842(4) 0.4203(4)
H50B H 0.2737 0.9953 0.4446
H51B H 0.2177 0.9871 0.4296
C61B C 0.4416(4) 0.9313(2) 0.3601(2)
H52B H 0.4586 0.9670 0.3509
C62B C -0.0761(5) 0.6265(4) 0.5991(3)
H53B H -0.0833 0.6453 0.5759
H54B H -0.1076 0.6097 0.6178
C63B C -0.0400(7) 0.6475(6) 0.6667(5)
H55B H -0.0646 0.6091 0.6672
H56B H -0.0571 0.6642 0.6825
C64B C -0.0218(5) 0.7168(4) 0.6232(3)
H57B H -0.0031 0.7345 0.6501
H58B H -0.0546 0.7186 0.6216
C65B C 0.3130(4) 0.7296(3) 0.2271(2)
H59B H 0.3501 0.7441 0.2293
C66B C 0.4713(4) 0.9115(3) 0.3713(3)
H60B H 0.5084 0.9328 0.3697
C67B C 0.1899(5) 0.6869(4) 0.3823(2)
C68B C 0.4088(6) 1.0678(3) 0.4250(3)
H61B H 0.4393 1.1025 0.4328
H62B H 0.4202 1.0527 0.4016
N12B N 0.2925(6) 0.7259(4) 0.1908(2)
C69B C -0.0697(5) 0.5843(3) 0.5788(3)
H63B H -0.0578 0.5680 0.6007
H64B H -0.1041 0.5566 0.5674
C70B C 0.3085(8) 0.6952(6) 0.8868(3)
H65B H 0.3329 0.7336 0.8849
H66B H 0.2969 0.6859 0.9172
C71B C 0.6510(6) 0.9933(5) 0.6907(3)
H67B H 0.6601 0.9654 0.6861
H68B H 0.6547 1.0018 0.7219
C72B C 0.3266(6) 0.7405(4) 0.1533(3)
H69B H 0.3273 0.7716 0.1400
H70B H 0.3627 0.7522 0.1638
C73B C 0.2542(7) 0.6756(6) 0.8524(3)
H71B H 0.2396 0.6387 0.8428
H72B H 0.2262 0.6797 0.8664
C74B C 0.1574(5) 0.6462(4) 0.4057(2)
C75B C 0.3189(4) 0.8315(3) 0.5965(2)
C76B C 0.3488(4) 0.8255(3) 0.6264(2)
loop_
_geom_bond_atom_site_label_1
_geom_bond_atom_site_label_2
_geom_bond_site_symmetry_1
_geom_bond_site_symmetry_2
N1 C40 1_555 1_555
C1 C15 1_555 1_555
C2 C14 1_555 1_555
N2 C70 1_555 1_555
N3 C12 1_555 1_555
C3 H1 1_555 1_555
C4 C3 1_555 1_555
C5 C4 1_555 1_555
H2 C5 1_555 1_555
C6 C5 1_555 1_555
H3 C6 1_555 1_555
C7 C6 1_555 1_555
C8 C3 1_555 1_555
H4 C8 1_555 1_555
C9 C19 1_555 1_555
C10 H5 1_555 1_555
N4 C62 1_555 1_555
C11 H6 1_555 1_555
C12 H7 1_555 1_555
C13 C10 1_555 1_555
H8 C13 1_555 1_555
C14 H9 1_555 1_555
C15 H10 1_555 1_555
C16 C30 1_555 1_555
C17 H11 1_555 1_555
C18 C11 1_555 1_555
H12 C18 1_555 1_555
C19 H13 1_555 1_555
C20 C2 1_555 1_555
H14 C20 1_555 1_555
C21 C10 1_555 1_555
C22 H15 1_555 1_555
C23 C22 1_555 1_555
C24 C23 1_555 1_555
H16 C24 1_555 1_555
C25 C24 1_555 1_555
H17 C25 1_555 1_555
C26 C25 1_555 1_555
C27 C22 1_555 1_555
H18 C27 1_555 1_555
C28 C17 1_555 1_555
N5 C50 1_555 1_555
C29 C13 1_555 1_555
C30 H19 1_555 1_555
C31 C15 1_555 1_555
H20 C31 1_555 1_555
C32 C1 1_555 1_555
H21 C32 1_555 1_555
N6 C51 1_555 1_555
C33 C34 1_555 1_555
C34 H22 1_555 1_555
C35 C34 1_555 1_555
H23 C35 1_555 1_555
C36 C35 1_555 1_555
C37 C36 1_555 1_555
H24 C37 1_555 1_555
C38 C33 1_555 1_555
H25 C38 1_555 1_555
N7 C57 1_555 1_555
C39 C11 1_555 1_555
N8 C55 1_555 1_555
C40 H26 1_555 1_555
H27 C40 1_555 1_555
C41 C9 1_555 1_555
H28 C41 1_555 1_555
C42 C43 1_555 1_555
C43 H29 1_555 1_555
C44 C43 1_555 1_555
H30 C44 1_555 1_555
C45 C44 1_555 1_555
C46 C45 1_555 1_555
H31 C46 1_555 1_555
C47 C42 1_555 1_555
H32 C47 1_555 1_555
C48 N1 1_555 1_555
H33 C48 1_555 1_555
H34 C48 1_555 1_555
C49 N1 1_555 1_555
H35 C49 1_555 1_555
H36 C49 1_555 1_555
C50 H37 1_555 1_555
H38 C50 1_555 1_555
C51 C26 1_555 1_555
H39 C51 1_555 1_555
N9 C41 1_555 1_555
C52 N3 1_555 1_555
H40 C52 1_555 1_555
H41 C52 1_555 1_555
C53 N5 1_555 1_555
H42 C53 1_555 1_555
C54 C16 1_555 1_555
H43 C54 1_555 1_555
C55 C42 1_555 1_555
H44 C55 1_555 1_555
C56 C7 1_555 1_555
H45 C56 1_555 1_555
N10 C54 1_555 1_555
C57 H46 1_555 1_555
H47 C57 1_555 1_555
C58 C9 1_555 1_555
H48 C58 1_555 1_555
C59 C17 1_555 1_555
H49 C59 1_555 1_555
N11 C56 1_555 1_555
C60 C40 1_555 1_555
H50 C60 1_555 1_555
H51 C60 1_555 1_555
C61 C21 1_555 1_555
H52 C61 1_555 1_555
C62 H53 1_555 1_555
H54 C62 1_555 1_555
C63 N4 1_555 1_555
H55 C63 1_555 1_555
H56 C63 1_555 1_555
C64 N4 1_555 1_555
H57 C64 1_555 1_555
H58 C64 1_555 1_555
C65 C33 1_555 1_555
H59 C65 1_555 1_555
C66 C29 1_555 1_555
H60 C66 1_555 1_555
C67 C2 1_555 1_555
C68 C48 1_555 1_555
H61 C68 1_555 1_555
H62 C68 1_555 1_555
N12 C65 1_555 1_555
C69 N6 1_555 1_555
H63 C69 1_555 1_555
H64 C69 1_555 1_555
C70 H65 1_555 1_555
H66 C70 1_555 1_555
C71 N8 1_555 1_555
H67 C71 1_555 1_555
H68 C71 1_555 1_555
C72 C57 1_555 1_555
H69 C72 1_555 1_555
H70 C72 1_555 1_555
C73 N10 1_555 1_555
H71 C73 1_555 1_555
H72 C73 1_555 1_555
C74 C23 1_555 1_555
C75 C4 1_555 1_555
C76 C1 1_555 1_555
N1A C40A 1_555 1_555
C1A C15A 1_555 1_555
C2A C14A 1_555 1_555
N3A C12A 1_555 1_555
C3A H1A 1_555 1_555
C4A C3A 1_555 1_555
C5A C4A 1_555 1_555
H2A C5A 1_555 1_555
C6A C5A 1_555 1_555
H3A C6A 1_555 1_555
C7A C6A 1_555 1_555
C8A C3A 1_555 1_555
H4A C8A 1_555 1_555
C9A C19A 1_555 1_555
C10A H5A 1_555 1_555
N4A C62A 1_555 1_555
C11A H6A 1_555 1_555
C12A H7A 1_555 1_555
C13A C10A 1_555 1_555
H8A C13A 1_555 1_555
C14A H9A 1_555 1_555
C15A H10A 1_555 1_555
C16A C30A 1_555 1_555
C17A H11A 1_555 1_555
C18A C11A 1_555 1_555
H12A C18A 1_555 1_555
C19A H13A 1_555 1_555
C20A C2A 1_555 1_555
H14A C20A 1_555 1_555
C21A C10A 1_555 1_555
C22A H15A 1_555 1_555
C23A C22A 1_555 1_555
C24A C23A 1_555 1_555
H16A C24A 1_555 1_555
C25A C24A 1_555 1_555
H17A C25A 1_555 1_555
C26A C25A 1_555 1_555
C27A C22A 1_555 1_555
H18A C27A 1_555 1_555
C28A C17A 1_555 1_555
N5A C50A 1_555 1_555
C29A C74 1_555 1_555
C30A H19A 1_555 1_555
C31A C15A 1_555 1_555
H20A C31A 1_555 1_555
C32A C1A 1_555 1_555
H21A C32A 1_555 1_555
N6A C51A 1_555 1_555
C33A C34A 1_555 1_555
C34A H22A 1_555 1_555
C35A C34A 1_555 1_555
H23A C35A 1_555 1_555
C36A C35A 1_555 1_555
C37A C36A 1_555 1_555
H24A C37A 1_555 1_555
C38A C33A 1_555 1_555
H25A C38A 1_555 1_555
C39A C11A 1_555 1_555
N8A C55A 1_555 1_555
C40A H26A 1_555 1_555
H27A C40A 1_555 1_555
C41A C9A 1_555 1_555
H28A C41A 1_555 1_555
C42A C43A 1_555 1_555
C43A H29A 1_555 1_555
C44A C43A 1_555 1_555
H30A C44A 1_555 1_555
C45A C44A 1_555 1_555
C46A C45A 1_555 1_555
H31A C46A 1_555 1_555
C47A C42A 1_555 1_555
H32A C47A 1_555 1_555
C48A N1A 1_555 1_555
H33A C48A 1_555 1_555
H34A C48A 1_555 1_555
C49A N1A 1_555 1_555
H35A C49A 1_555 1_555
H36A C49A 1_555 1_555
C50A H37A 1_555 1_555
H38A C50A 1_555 1_555
C51A C26A 1_555 1_555
H39A C51A 1_555 1_555
N9A C41A 1_555 1_555
C52A N3A 1_555 1_555
H40A C52A 1_555 1_555
H41A C52A 1_555 1_555
C53A N5A 1_555 1_555
H42A C53A 1_555 1_555
C54A C16A 1_555 1_555
H43A C54A 1_555 1_555
C55A C42A 1_555 1_555
H44A C55A 1_555 1_555
C56A C7A 1_555 1_555
H45A C56A 1_555 1_555
N10A C54A 1_555 1_555
C57A N7 1_555 1_555
H46A C57A 1_555 1_555
H47A C57A 1_555 1_555
C58A C9A 1_555 1_555
H48A C58A 1_555 1_555
C59A C17A 1_555 1_555
H49A C59A 1_555 1_555
N11A C56A 1_555 1_555
C60A C40A 1_555 1_555
H50A C60A 1_555 1_555
H51A C60A 1_555 1_555
C61A C21A 1_555 1_555
H52A C61A 1_555 1_555
C62A H53A 1_555 1_555
H54A C62A 1_555 1_555
C63A N4A 1_555 1_555
H55A C63A 1_555 1_555
H56A C63A 1_555 1_555
C64A N4A 1_555 1_555
H57A C64A 1_555 1_555
H58A C64A 1_555 1_555
C65A C33A 1_555 1_555
H59A C65A 1_555 1_555
C66A C29A 1_555 1_555
H60A C66A 1_555 1_555
C67A C2A 1_555 1_555
C68A C48A 1_555 1_555
H61A C68A 1_555 1_555
H62A C68A 1_555 1_555
N12A C65A 1_555 1_555
C69A N6A 1_555 1_555
H63A C69A 1_555 1_555
H64A C69A 1_555 1_555
C70A N2 1_555 1_555
H65A C70A 1_555 1_555
H66A C70A 1_555 1_555
C71A C63 1_555 1_555
H67A C71A 1_555 1_555
H68A C71A 1_555 1_555
C72A C57A 1_555 1_555
H69A C72A 1_555 1_555
H70A C72A 1_555 1_555
C73A N10A 1_555 1_555
H71A C73A 1_555 1_555
H72A C73A 1_555 1_555
C74A C23A 1_555 1_555
C75A C4A 1_555 1_555
C76A C1A 1_555 1_555
N1B C40B 1_555 1_555
C1B C15B 1_555 1_555
C2B C14B 1_555 1_555
N3B C12B 1_555 1_555
C3B H1B 1_555 1_555
C4B C3B 1_555 1_555
C5B C4B 1_555 1_555
H2B C5B 1_555 1_555
C6B C5B 1_555 1_555
H3B C6B 1_555 1_555
C7B C6B 1_555 1_555
C8B C3B 1_555 1_555
H4B C8B 1_555 1_555
C9B C19B 1_555 1_555
C10B H5B 1_555 1_555
N4B C62B 1_555 1_555
C11B H6B 1_555 1_555
C12B H7B 1_555 1_555
C13B C10B 1_555 1_555
H8B C13B 1_555 1_555
C14B H9B 1_555 1_555
C15B H10B 1_555 1_555
C16B C30B 1_555 1_555
C17B H11B 1_555 1_555
C18B C11B 1_555 1_555
H12B C18B 1_555 1_555
C19B H13B 1_555 1_555
C20B C2B 1_555 1_555
H14B C20B 1_555 1_555
C21B C10B 1_555 1_555
C22B H15B 1_555 1_555
C23B C22B 1_555 1_555
C24B C23B 1_555 1_555
H16B C24B 1_555 1_555
C25B C24B 1_555 1_555
H17B C25B 1_555 1_555
C26B C25B 1_555 1_555
C27B C22B 1_555 1_555
H18B C27B 1_555 1_555
C28B C17B 1_555 1_555
N5B C50B 1_555 1_555
C29B C74A 1_555 1_555
C30B H19B 1_555 1_555
C31B C15B 1_555 1_555
H20B C31B 1_555 1_555
C32B C1B 1_555 1_555
H21B C32B 1_555 1_555
N6B C51B 1_555 1_555
C33B C34B 1_555 1_555
C34B H22B 1_555 1_555
C35B C34B 1_555 1_555
H23B C35B 1_555 1_555
C36B C35B 1_555 1_555
C37B C36B 1_555 1_555
H24B C37B 1_555 1_555
C38B C33B 1_555 1_555
H25B C38B 1_555 1_555
C39B C11B 1_555 1_555
N8B C55B 1_555 1_555
C40B H26B 1_555 1_555
H27B C40B 1_555 1_555
C41B C9B 1_555 1_555
H28B C41B 1_555 1_555
C42B C43B 1_555 1_555
C43B H29B 1_555 1_555
C44B C43B 1_555 1_555
H30B C44B 1_555 1_555
C45B C44B 1_555 1_555
C46B C45B 1_555 1_555
H31B C46B 1_555 1_555
C47B C42B 1_555 1_555
H32B C47B 1_555 1_555
C48B N1B 1_555 1_555
H33B C48B 1_555 1_555
H34B C48B 1_555 1_555
C49B N1B 1_555 1_555
H35B C49B 1_555 1_555
H36B C49B 1_555 1_555
C50B H37B 1_555 1_555
H38B C50B 1_555 1_555
C51B C26B 1_555 1_555
H39B C51B 1_555 1_555
N9B C41B 1_555 1_555
C52B N3B 1_555 1_555
H40B C52B 1_555 1_555
H41B C52B 1_555 1_555
C53B N5B 1_555 1_555
H42B C53B 1_555 1_555
C54B C16B 1_555 1_555
H43B C54B 1_555 1_555
C55B C42B 1_555 1_555
H44B C55B 1_555 1_555
C56B C7B 1_555 1_555
H45B C56B 1_555 1_555
N10B C54B 1_555 1_555
C57B N7 1_555 1_555
H46B C57B 1_555 1_555
H47B C57B 1_555 1_555
C58B C9B 1_555 1_555
H48B C58B 1_555 1_555
C59B C17B 1_555 1_555
H49B C59B 1_555 1_555
N11B C56B 1_555 1_555
C60B C40B 1_555 1_555
H50B C60B 1_555 1_555
H51B C60B 1_555 1_555
C61B C21B 1_555 1_555
H52B C61B 1_555 1_555
C62B H53B 1_555 1_555
H54B C62B 1_555 1_555
C63B C71 1_555 1_555
H55B C63B 1_555 1_555
H56B C63B 1_555 1_555
C64B N4B 1_555 1_555
H57B C64B 1_555 1_555
H58B C64B 1_555 1_555
C65B C33B 1_555 1_555
H59B C65B 1_555 1_555
C66B C29B 1_555 1_555
H60B C66B 1_555 1_555
C67B C2B 1_555 1_555
C68B C48B 1_555 1_555
H61B C68B 1_555 1_555
H62B C68B 1_555 1_555
N12B C65B 1_555 1_555
C69B N6B 1_555 1_555
H63B C69B 1_555 1_555
H64B C69B 1_555 1_555
C70B N2 1_555 1_555
H65B C70B 1_555 1_555
H66B C70B 1_555 1_555
C71B C63A 1_555 1_555
H67B C71B 1_555 1_555
H68B C71B 1_555 1_555
C72B C57B 1_555 1_555
H69B C72B 1_555 1_555
H70B C72B 1_555 1_555
C73B N10B 1_555 1_555
H71B C73B 1_555 1_555
H72B C73B 1_555 1_555
C74B C29 1_555 1_555
C75B C4B 1_555 1_555
C76B C1B 1_555 1_555
C7 C8 1_555 1_555
C12 C21 1_555 1_555
C14 C58 1_555 1_555
C16 C31 1_555 1_555
C18 C28 1_555 1_555
C19 C20 1_555 1_555
C26 C27 1_555 1_555
C28 C75 1_555 1_555
C30 C32 1_555 1_555
C36 C67 1_555 1_555
C37 C38 1_555 1_555
C39 C53 1_555 1_555
C39 C59 1_555 1_555
C45 C76 1_555 1_555
C46 C47 1_555 1_555
C49 C52 1_555 1_555
C50 C64 1_555 1_555
N9 C60 1_555 1_555
N11 C68 1_555 1_555
C61 C66 1_555 1_555
C62 C69 1_555 1_555
C67 C74 1_555 1_555
N12 C72 1_555 1_555
C70 C73 1_555 1_555
C75 C76 1_555 1_555
C7A C8A 1_555 1_555
C12A C21A 1_555 1_555
C13A C29A 1_555 1_555
C14A C58A 1_555 1_555
C16A C31A 1_555 1_555
C18A C28A 1_555 1_555
C19A C20A 1_555 1_555
C26A C27A 1_555 1_555
C28A C75A 1_555 1_555
C30A C32A 1_555 1_555
C36A C67A 1_555 1_555
C37A C38A 1_555 1_555
C39A C53A 1_555 1_555
C39A C59A 1_555 1_555
N8A C71A 1_555 1_555
C45A C76A 1_555 1_555
C46A C47A 1_555 1_555
C49A C52A 1_555 1_555
C50A C64A 1_555 1_555
N9A C60A 1_555 1_555
N11A C68A 1_555 1_555
C61A C66A 1_555 1_555
C62A C69A 1_555 1_555
C67A C74A 1_555 1_555
N12A C72A 1_555 1_555
C70A C73A 1_555 1_555
C75A C76A 1_555 1_555
C7B C8B 1_555 1_555
N4B C63B 1_555 1_555
C12B C21B 1_555 1_555
C13B C29B 1_555 1_555
C14B C58B 1_555 1_555
C16B C31B 1_555 1_555
C18B C28B 1_555 1_555
C19B C20B 1_555 1_555
C23B C74B 1_555 1_555
C26B C27B 1_555 1_555
C28B C75B 1_555 1_555
C30B C32B 1_555 1_555
C36B C67B 1_555 1_555
C37B C38B 1_555 1_555
C39B C53B 1_555 1_555
C39B C59B 1_555 1_555
N8B C71B 1_555 1_555
C45B C76B 1_555 1_555
C46B C47B 1_555 1_555
C49B C52B 1_555 1_555
C50B C64B 1_555 1_555
N9B C60B 1_555 1_555
N11B C68B 1_555 1_555
C61B C66B 1_555 1_555
C62B C69B 1_555 1_555
C67B C74B 1_555 1_555
N12B C72B 1_555 1_555
C70B C73B 1_555 1_555
C75B C76B 1_555 1_555

#END
