
#######################################################################
#
#                 Cambridge Crystallographic Data Centre
#                                CCDC 
#
#######################################################################
#
# If this CIF has been generated from an entry in the Cambridge 
# Structural Database, then it will include bibliographic, chemical, 
# crystal, experimental, refinement or atomic coordinate data resulting 
# from the CCDC's data processing and validation procedures.
#
#######################################################################

data_WESDEG
_chemical_formula_moiety         'C228 H216 N32'
_chemical_name_systematic        
'(2P,4M)-3,13,16,26,28,38,40,50,52,62,65,75,77,87,90,100,101,110,111,116,125,126,135,140(1,4)-tetracosabenzena-5,8,11,18,21,24,30,33,36,42,45,48,54,57,60,67,70,73,79,82,85,92,95,98,103,108,113,118,123,128,133,138-dotriaconta-azaundecacyclo[55.43.5.5^2,21^.5^8,88^.5^14,82^.5^15,33^.5^45,63^.5^64,95^.5^70,89^.0^27,51^.0^39,76^]tetracontahectaphane-1,4,11,14,17,24,27(51),29,36,39(76),41,48,53,60,63,66,73,78,85,88,91,98,102,108,112,117,123,127,133,138-triacontaene unknown solvate'
_symmetry_cell_setting           hexagonal
_symmetry_space_group_name_H-M   'P 64 2 2'
_symmetry_Int_Tables_number      181
_space_group_name_Hall           "P 64 2' (0,0,2)"
loop_
_symmetry_equiv_pos_site_id
_symmetry_equiv_pos_as_xyz
1 x,y,z
2 x-y,x,2/3+z
3 -y,x-y,1/3+z
4 -x,-y,z
5 -x+y,-x,2/3+z
6 y,-x+y,1/3+z
7 x-y,-y,-z
8 -x,-x+y,2/3-z
9 y,x,1/3-z
10 -y,-x,1/3-z
11 -x+y,y,-z
12 x,x-y,2/3-z
_cell_length_a                   35.7068(6)
_cell_length_b                   35.7068(6)
_cell_length_c                   22.6261(4)
_cell_angle_alpha                90
_cell_angle_beta                 90
_cell_angle_gamma                120
_cell_volume                     24982.9
_exptl_crystal_colour            colorless
_exptl_crystal_description       hexagonal
_cell_formula_units_Z            3
loop_
_atom_site_label
_atom_site_type_symbol
_atom_site_fract_x
_atom_site_fract_y
_atom_site_fract_z
C1 C 0.63852(11) 0.96974(11) 0.13325(16)
C2 C 0.60054(11) 0.99226(10) 0.20573(13)
C3 C 0.59870(11) 1.02550(11) 0.24296(14)
C4 C 0.49556(12) 0.86630(11) 0.24862(15)
C5 C 0.75575(13) 1.17512(12) 0.08837(17)
H1 H 0.7459 1.1933 0.0752
C6 C 0.56352(13) 0.80536(15) 0.0929(2)
H2 H 0.5925 0.8269 0.0919
C7 C 0.33153(12) 0.78472(11) 0.13903(15)
H3 H 0.3052 0.7593 0.1440
C8 C 0.72306(12) 1.13096(11) 0.10771(15)
N1 N 0.44835(10) 0.80729(10) 0.31210(16)
C9 C 0.50432(12) 0.86052(12) 0.02801(15)
H4 H 0.5107 0.8851 0.0063
C10 C 0.51992(12) 0.89426(12) 0.29288(15)
H5 H 0.5133 0.8861 0.3322
C11 C 0.68022(13) 1.11708(12) 0.10977(16)
H6 H 0.6708 1.1359 0.0981
C12 C 0.64046(13) 0.97074(12) 0.07143(16)
H7 H 0.6342 0.9895 0.0509
C13 C 0.59332(12) 1.08501(13) 0.32053(16)
N2 N 0.30345(11) 0.76379(11) 0.25776(14)
C14 C 0.45403(13) 0.79581(13) 0.07706(17)
H8 H 0.4258 0.7768 0.0889
C15 C 0.35298(12) 0.79426(12) 0.08434(15)
H9 H 0.3400 0.7761 0.0522
C16 C 0.54026(11) 0.91821(11) 0.17605(16)
H10 H 0.5458 0.9259 0.1364
C17 C 0.46202(11) 0.83162(11) 0.04309(15)
C18 C 0.52977(12) 0.81736(12) 0.07565(18)
C19 C 0.45824(12) 0.82297(12) 0.26144(17)
H11 H 0.4412 0.8065 0.2299
C20 C 0.73578(14) 1.10209(13) 0.12622(18)
H12 H 0.7651 1.1109 0.1260
C21 C 0.38880(12) 0.85122(12) 0.17731(15)
H13 H 0.4001 0.8713 0.2079
C22 C 0.65010(13) 1.07630(12) 0.12834(16)
H14 H 0.6210 1.0682 0.1290
C23 C 0.63387(12) 1.05502(12) 0.27634(17)
H15 H 0.6601 1.0555 0.2731
N3 N 0.63023(12) 0.77797(11) 0.02229(17)
C24 C 0.56592(11) 0.94796(11) 0.21957(15)
C25 C 0.53867(13) 0.85281(12) 0.04579(17)
H16 H 0.5672 0.8728 0.0363
N4 N 0.35535(11) 0.76989(12) 0.37118(15)
N5 N 0.55502(12) 0.76979(12) 0.10786(14)
C26 C 0.48609(12) 0.78748(12) 0.09375(16)
H17 H 0.4798 0.7632 0.1162
C27 C 0.39363(12) 0.83077(12) 0.07804(15)
C28 C 0.61328(18) 1.16541(17) 0.4371(2)
H18 H 0.6139 1.1566 0.4775
H19 H 0.5854 1.1630 0.4300
C29 C 0.28881(14) 0.75462(14) 0.31900(17)
H20 H 0.2581 0.7338 0.3203
H21 H 0.2936 0.7809 0.3383
C30 C 0.55677(12) 1.05662(12) 0.28550(17)
H22 H 0.5314 1.0578 0.2874
C31 C 0.63063(11) 1.08364(12) 0.31432(16)
H23 H 0.6547 1.1026 0.3364
C32 C 0.63100(11) 1.00215(11) 0.16410(15)
C33 C 0.41108(12) 0.85995(13) 0.12611(16)
H24 H 0.4378 0.8850 0.1224
C34 C 0.66207(13) 0.91638(13) 0.0709(2)
C35 C 0.31451(14) 0.73627(14) 0.3512(2)
H25 H 0.2979 0.7191 0.3847
H26 H 0.3188 0.7175 0.3245
N6 N 0.62002(13) 1.13790(12) 0.39605(15)
C36 C 0.65152(13) 0.94423(12) 0.04024(17)
H27 H 0.6520 0.9448 -0.0009
C37 C 0.55973(12) 1.02713(12) 0.24843(17)
H28 H 0.5356 1.0079 0.2266
C38 C 0.64612(14) 0.94061(13) 0.16232(18)
H29 H 0.6428 0.9382 0.2032
N7 N 0.79502(11) 1.18933(10) 0.08855(15)
C39 C 0.70715(11) 1.06149(12) 0.14469(17)
H30 H 0.7167 1.0428 0.1566
C40 C 0.82404(13) 1.23328(12) 0.0700(2)
H31 H 0.8339 1.2519 0.1045
H32 H 0.8084 1.2429 0.0449
C41 C 0.55441(12) 0.93481(12) 0.27875(14)
H33 H 0.5703 0.9537 0.3091
C42 C 0.34996(12) 0.81370(11) 0.18590(15)
C43 C 0.33082(12) 0.80168(12) 0.24517(16)
H34 H 0.3394 0.8230 0.2740
C44 C 0.58922(14) 1.11413(13) 0.36165(17)
H35 H 0.5638 1.1153 0.3626
C45 C 0.65864(13) 0.91444(12) 0.13295(18)
H36 H 0.6647 0.8958 0.1541
C46 C 0.42305(14) 0.83464(12) 0.02695(18)
C47 C 0.38727(14) 0.75545(15) 0.3742(2)
H37 H 0.3727 0.7251 0.3849
H38 H 0.4081 0.7715 0.4051
N8 N 0.69229(14) 0.87074(13) 0.0617(2)
C48 C 0.50706(11) 0.87794(11) 0.19113(15)
H39 H 0.4920 0.8581 0.1614
C49 C 0.67563(15) 0.88981(14) 0.0370(3)
H40 H 0.6716 0.8873 -0.0037
C50 C 0.60130(17) 0.74476(15) 0.06445(19)
H41 H 0.6142 0.7277 0.0766
H42 H 0.5741 0.7256 0.0451
C51 C 0.66254(11) 1.04803(11) 0.14557(15)
C52 C 0.41117(15) 0.76165(12) 0.3162(2)
H43 H 0.4219 0.7415 0.3140
H44 H 0.3915 0.7558 0.2833
C53 C 0.5929(2) 0.7641(2) 0.1177(2)
H45 H 0.5875 0.7453 0.1515
H46 H 0.6181 0.7919 0.1263
C54 C 0.67585(17) 0.79710(16) 0.0406(3)
H47 H 0.6879 0.7806 0.0231
H48 H 0.6771 0.7950 0.0832
C55 C 0.86205(14) 1.23777(13) 0.0373(2)
H49 H 0.8843 1.2680 0.0366
H50 H 0.8736 1.2221 0.0583
C56 C 0.70291(17) 0.84388(16) 0.0224(4)
H51 H 0.7334 0.8530 0.0258
H52 H 0.6969 0.8474 -0.0184
C57 C 0.35072(16) 0.78815(15) 0.42751(19)
H53 H 0.3508 0.7704 0.4599
H54 H 0.3231 0.7872 0.4278
C1C C 0.36148(11) 1.03026(11) 0.13325(16)
C2C C 0.39946(11) 1.00774(10) 0.20573(13)
C3C C 0.40130(11) 0.97450(11) 0.24296(14)
C4C C 0.50444(12) 1.13370(11) 0.24862(15)
C5C C 0.24425(13) 0.82488(12) 0.08837(17)
H1C H 0.2541 0.8067 0.0752
C6C C 0.43648(13) 1.19464(15) 0.0929(2)
H2C H 0.4075 1.1731 0.0919
C7C C 0.66847(12) 1.21528(11) 0.13903(15)
H3C H 0.6948 1.2407 0.1440
C8C C 0.27694(12) 0.86904(11) 0.10771(15)
N1C N 0.55165(10) 1.19271(10) 0.31210(16)
C9C C 0.49568(12) 1.13948(12) 0.02801(15)
H4C H 0.4893 1.1149 0.0063
C10C C 0.48008(12) 1.10574(12) 0.29288(15)
H5C H 0.4867 1.1139 0.3322
C11C C 0.31978(13) 0.88292(12) 0.10977(16)
H6C H 0.3292 0.8641 0.0981
C12C C 0.35954(13) 1.02926(12) 0.07143(16)
H7C H 0.3658 1.0105 0.0509
C13C C 0.40668(12) 0.91499(13) 0.32053(16)
N2C N 0.69655(11) 1.23621(11) 0.25776(14)
C14C C 0.54597(13) 1.20419(13) 0.07706(17)
H8C H 0.5742 1.2232 0.0889
C15C C 0.64702(12) 1.20574(12) 0.08434(15)
H9C H 0.6600 1.2239 0.0522
C16C C 0.45974(11) 1.08179(11) 0.17605(16)
H10C H 0.4542 1.0741 0.1364
C17C C 0.53798(11) 1.16838(11) 0.04309(15)
C18C C 0.47023(12) 1.18264(12) 0.07565(18)
C19C C 0.54176(12) 1.17703(12) 0.26144(17)
H11C H 0.5588 1.1935 0.2299
C20C C 0.26422(14) 0.89791(13) 0.12622(18)
H12C H 0.2349 0.8891 0.1260
C21C C 0.61120(12) 1.14878(12) 0.17731(15)
H13C H 0.5999 1.1287 0.2079
C22C C 0.34990(13) 0.92370(12) 0.12834(16)
H14C H 0.3790 0.9318 0.1290
C23C C 0.36613(12) 0.94498(12) 0.27634(17)
H15C H 0.3399 0.9445 0.2731
N3C N 0.36977(12) 1.22203(11) 0.02229(17)
C24C C 0.43408(11) 1.05204(11) 0.21957(15)
C25C C 0.46133(13) 1.14719(12) 0.04579(17)
H16C H 0.4328 1.1272 0.0363
N4C N 0.64465(11) 1.23011(12) 0.37118(15)
N5C N 0.44498(12) 1.23021(12) 0.10786(14)
C26C C 0.51391(12) 1.21252(12) 0.09375(16)
H17C H 0.5202 1.2368 0.1162
C27C C 0.60637(12) 1.16923(12) 0.07804(15)
C28C C 0.38672(18) 0.83459(17) 0.4371(2)
H18C H 0.3861 0.8434 0.4775
H19C H 0.4146 0.8370 0.4300
C29C C 0.71119(14) 1.24538(14) 0.31900(17)
H20C H 0.7419 1.2662 0.3203
H21C H 0.7064 1.2191 0.3383
C30C C 0.44323(12) 0.94338(12) 0.28550(17)
H22C H 0.4686 0.9422 0.2874
C31C C 0.36937(11) 0.91636(12) 0.31432(16)
H23C H 0.3453 0.8974 0.3364
C32C C 0.36900(11) 0.99785(11) 0.16410(15)
C33C C 0.58892(12) 1.14005(13) 0.12611(16)
H24C H 0.5622 1.1150 0.1224
C34C C 0.33793(13) 1.08362(13) 0.0709(2)
C35C C 0.68549(14) 1.26373(14) 0.3512(2)
H25C H 0.7021 1.2809 0.3847
H26C H 0.6812 1.2825 0.3245
N6C N 0.37998(13) 0.86210(12) 0.39605(15)
C36C C 0.34848(13) 1.05577(12) 0.04024(17)
H27C H 0.3480 1.0552 -0.0009
C37C C 0.44027(12) 0.97287(12) 0.24843(17)
H28C H 0.4644 0.9921 0.2266
C38C C 0.35388(14) 1.05939(13) 0.16232(18)
H29C H 0.3572 1.0618 0.2032
N7C N 0.20498(11) 0.81067(10) 0.08855(15)
C39C C 0.29285(11) 0.93851(12) 0.14469(17)
H30C H 0.2833 0.9572 0.1566
C40C C 0.17596(13) 0.76672(12) 0.0700(2)
H31C H 0.1661 0.7481 0.1045
H32C H 0.1916 0.7571 0.0449
C41C C 0.44559(12) 1.06519(12) 0.27875(14)
H33C H 0.4297 1.0463 0.3091
C42C C 0.65004(12) 1.18630(11) 0.18590(15)
C43C C 0.66918(12) 1.19832(12) 0.24517(16)
H34C H 0.6606 1.1770 0.2740
C44C C 0.41078(14) 0.88587(13) 0.36165(17)
H35C H 0.4362 0.8847 0.3626
C45C C 0.34136(13) 1.08556(12) 0.13295(18)
H36C H 0.3353 1.1042 0.1541
C46C C 0.57695(14) 1.16536(12) 0.02695(18)
C47C C 0.61273(14) 1.24455(15) 0.3742(2)
H37C H 0.6273 1.2749 0.3849
H38C H 0.5919 1.2285 0.4051
N8C N 0.30771(14) 1.12926(13) 0.0617(2)
C48C C 0.49294(11) 1.12206(11) 0.19113(15)
H39C H 0.5080 1.1419 0.1614
C49C C 0.32437(15) 1.11019(14) 0.0370(3)
H40C H 0.3284 1.1127 -0.0037
C50C C 0.39870(17) 1.25524(15) 0.06445(19)
H41C H 0.3858 1.2723 0.0766
H42C H 0.4259 1.2744 0.0451
C51C C 0.33746(11) 0.95197(11) 0.14557(15)
C52C C 0.58883(15) 1.23835(12) 0.3162(2)
H43C H 0.5781 1.2585 0.3140
H44C H 0.6085 1.2442 0.2833
C53C C 0.4071(2) 1.2359(2) 0.1177(2)
H45C H 0.4125 1.2547 0.1515
H46C H 0.3819 1.2081 0.1263
C54C C 0.32415(17) 1.20290(16) 0.0406(3)
H47C H 0.3121 1.2194 0.0231
H48C H 0.3229 1.2050 0.0832
C55C C 0.13795(14) 0.76223(13) 0.0373(2)
H49C H 0.1157 0.7320 0.0366
H50C H 0.1264 0.7779 0.0583
C56C C 0.29709(17) 1.15612(16) 0.0224(4)
H51C H 0.2666 1.1470 0.0258
H52C H 0.3031 1.1526 -0.0184
C57C C 0.64928(16) 1.21185(15) 0.42751(19)
H53C H 0.6492 1.2296 0.4599
H54C H 0.6769 1.2128 0.4278
C1F C 0.66878(16) 1.03026(11) -0.13325(16)
C2F C 0.60828(15) 1.00774(10) -0.20573(13)
C3F C 0.57320(16) 0.97450(11) -0.24296(14)
C4F C 0.62926(16) 1.13370(11) -0.24862(15)
C5F C 0.58063(18) 0.82488(12) -0.08837(17)
H1F H 0.5526 0.8067 -0.0752
C6F C 0.75816(20) 1.19464(15) -0.0929(2)
H2F H 0.7656 1.1731 -0.0919
C7F C 0.54681(16) 1.21528(11) -0.13903(15)
H3F H 0.5459 1.2407 -0.1440
C8F C 0.59210(16) 0.86904(11) -0.10771(15)
N1F N 0.64106(14) 1.19271(10) -0.31210(16)
C9F C 0.64380(17) 1.13948(12) -0.02801(15)
H4F H 0.6256 1.1149 -0.0063
C10F C 0.62566(17) 1.10574(12) -0.29288(15)
H5F H 0.6272 1.1139 -0.3322
C11F C 0.56314(18) 0.88292(12) -0.10977(16)
H6F H 0.5349 0.8641 -0.0981
C12F C 0.66972(18) 1.02926(12) -0.07143(16)
H7F H 0.6447 1.0105 -0.0509
C13F C 0.50831(18) 0.91499(13) -0.32053(16)
N2F N 0.53966(16) 1.23621(11) -0.25776(14)
C14F C 0.65822(18) 1.20419(13) -0.07706(17)
H8F H 0.6490 1.2232 -0.0889
C15F C 0.55872(17) 1.20574(12) -0.08434(15)
H9F H 0.5639 1.2239 -0.0522
C16F C 0.62205(16) 1.08179(11) -0.17605(16)
H10F H 0.6199 1.0741 -0.1364
C17F C 0.63040(16) 1.16838(11) -0.04309(15)
C18F C 0.71241(17) 1.18264(12) -0.07565(18)
C19F C 0.63527(17) 1.17703(12) -0.26144(17)
H11F H 0.6347 1.1935 -0.2299
C20F C 0.63369(19) 0.89791(13) -0.12622(18)
H12F H 0.6542 0.8891 -0.1260
C21F C 0.53758(17) 1.14878(12) -0.17731(15)
H13F H 0.5288 1.1287 -0.2079
C22F C 0.57380(18) 0.92370(12) -0.12834(16)
H14F H 0.5528 0.9318 -0.1290
C23F C 0.57885(17) 0.94498(12) -0.27634(17)
H15F H 0.6046 0.9445 -0.2731
N3F N 0.85226(16) 1.22203(11) -0.02229(17)
C24F C 0.61796(16) 1.05204(11) -0.21957(15)
C25F C 0.68586(18) 1.14719(12) -0.04579(17)
H16F H 0.6944 1.1272 -0.0363
N4F N 0.58546(16) 1.23011(12) -0.37118(15)
N5F N 0.78523(17) 1.23021(12) -0.10786(14)
C26F C 0.69861(17) 1.21252(12) -0.09375(16)
H17F H 0.7166 1.2368 -0.1162
C27F C 0.56286(17) 1.16923(12) -0.07804(15)
C28F C 0.44787(25) 0.83459(17) -0.4371(2)
H18F H 0.4573 0.8434 -0.4775
H19F H 0.4224 0.8370 -0.4300
C29F C 0.53419(20) 1.24538(14) -0.31900(17)
H20F H 0.5243 1.2662 -0.3203
H21F H 0.5127 1.2191 -0.3383
C30F C 0.50015(17) 0.94338(12) -0.28550(17)
H22F H 0.4736 0.9422 -0.2874
C31F C 0.54699(16) 0.91636(12) -0.31432(16)
H23F H 0.5521 0.8974 -0.3364
C32F C 0.62885(16) 0.99785(11) -0.16410(15)
C33F C 0.55113(18) 1.14005(13) -0.12611(16)
H24F H 0.5528 1.1150 -0.1224
C34F C 0.74569(18) 1.08362(13) -0.0709(2)
C35F C 0.57824(20) 1.26373(14) -0.3512(2)
H25F H 0.5788 1.2809 -0.3847
H26F H 0.6013 1.2825 -0.3245
N6F N 0.48212(18) 0.86210(12) -0.39605(15)
C36F C 0.70729(18) 1.05577(12) -0.04024(17)
H27F H 0.7072 1.0552 0.0009
C37F C 0.53260(17) 0.97287(12) -0.24843(17)
H28F H 0.5277 0.9921 -0.2266
C38F C 0.70551(19) 1.05939(13) -0.16232(18)
H29F H 0.7046 1.0618 -0.2032
N7F N 0.60569(15) 0.81067(10) -0.08855(15)
C39F C 0.64566(16) 0.93851(12) -0.14469(17)
H30F H 0.6739 0.9572 -0.1566
C40F C 0.59076(18) 0.76672(12) -0.0700(2)
H31F H 0.5820 0.7481 -0.1045
H32F H 0.5655 0.7571 -0.0449
C41F C 0.61960(17) 1.06519(12) -0.27875(14)
H33F H 0.6166 1.0463 -0.3091
C42F C 0.53626(16) 1.18630(11) -0.18590(15)
C43F C 0.52914(17) 1.19832(12) -0.24517(16)
H34F H 0.5164 1.1770 -0.2740
C44F C 0.47509(19) 0.88587(13) -0.36165(17)
H35F H 0.4485 0.8847 -0.3626
C45F C 0.74420(18) 1.08556(12) -0.13295(18)
H36F H 0.7689 1.1042 -0.1541
C46F C 0.58841(18) 1.16536(12) -0.02695(18)
C47F C 0.63182(21) 1.24455(15) -0.3742(2)
H37F H 0.6476 1.2749 -0.3849
H38F H 0.6366 1.2285 -0.4051
N8F N 0.82155(19) 1.12926(13) -0.0617(2)
C48F C 0.62912(16) 1.12206(11) -0.19113(15)
H39F H 0.6339 1.1419 -0.1614
C49F C 0.78582(21) 1.11019(14) -0.0370(3)
H40F H 0.7843 1.1127 0.0037
C50F C 0.85654(23) 1.25524(15) -0.06445(19)
H41F H 0.8865 1.2723 -0.0766
H42F H 0.8485 1.2744 -0.0451
C51F C 0.61451(16) 0.95197(11) -0.14557(15)
C52F C 0.64952(19) 1.23835(12) -0.3162(2)
H43F H 0.6804 1.2585 -0.3140
H44F H 0.6357 1.2442 -0.2833
C53F C 0.8288(3) 1.2359(2) -0.1177(2)
H45F H 0.8422 1.2547 -0.1515
H46F H 0.8262 1.2081 -0.1263
C54F C 0.87875(23) 1.20290(16) -0.0406(3)
H47F H 0.9073 1.2194 -0.0231
H48F H 0.8821 1.2050 -0.0832
C55F C 0.62428(19) 0.76223(13) -0.0373(2)
H49F H 0.6163 0.7320 -0.0366
H50F H 0.6515 0.7779 -0.0583
C56F C 0.85903(23) 1.15612(16) -0.0224(4)
H51F H 0.8804 1.1470 -0.0258
H52F H 0.8495 1.1526 0.0184
C57F C 0.56257(22) 1.21185(15) -0.42751(19)
H53F H 0.5804 1.2296 -0.4599
H54F H 0.5359 1.2128 -0.4278
C1J C 0.33122(16) 0.96974(11) -0.13325(16)
C2J C 0.39172(15) 0.99226(10) -0.20573(13)
C3J C 0.42680(16) 1.02550(11) -0.24296(14)
C4J C 0.37074(16) 0.86630(11) -0.24862(15)
C5J C 0.41937(18) 1.17512(12) -0.08837(17)
H1J H 0.4474 1.1933 -0.0752
C6J C 0.24184(20) 0.80536(15) -0.0929(2)
H2J H 0.2344 0.8269 -0.0919
C7J C 0.45319(16) 0.78472(11) -0.13903(15)
H3J H 0.4541 0.7593 -0.1440
C8J C 0.40790(16) 1.13096(11) -0.10771(15)
N1J N 0.35894(14) 0.80729(10) -0.31210(16)
C9J C 0.35620(17) 0.86052(12) -0.02801(15)
H4J H 0.3744 0.8851 -0.0063
C10J C 0.37434(17) 0.89426(12) -0.29288(15)
H5J H 0.3728 0.8861 -0.3322
C11J C 0.43686(18) 1.11708(12) -0.10977(16)
H6J H 0.4651 1.1359 -0.0981
C12J C 0.33028(18) 0.97074(12) -0.07143(16)
H7J H 0.3553 0.9895 -0.0509
C13J C 0.49169(18) 1.08501(13) -0.32053(16)
N2J N 0.46034(16) 0.76379(11) -0.25776(14)
C14J C 0.34178(18) 0.79581(13) -0.07706(17)
H8J H 0.3510 0.7768 -0.0889
C15J C 0.44128(17) 0.79426(12) -0.08434(15)
H9J H 0.4361 0.7761 -0.0522
C16J C 0.37795(16) 0.91821(11) -0.17605(16)
H10J H 0.3801 0.9259 -0.1364
C17J C 0.36960(16) 0.83162(11) -0.04309(15)
C18J C 0.28759(17) 0.81736(12) -0.07565(18)
C19J C 0.36473(17) 0.82297(12) -0.26144(17)
H11J H 0.3653 0.8065 -0.2299
C20J C 0.36631(19) 1.10209(13) -0.12622(18)
H12J H 0.3458 1.1109 -0.1260
C21J C 0.46242(17) 0.85122(12) -0.17731(15)
H13J H 0.4712 0.8713 -0.2079
C22J C 0.42620(18) 1.07630(12) -0.12834(16)
H14J H 0.4472 1.0682 -0.1290
C23J C 0.42115(17) 1.05502(12) -0.27634(17)
H15J H 0.3954 1.0555 -0.2731
N3J N 0.14774(16) 0.77797(11) -0.02229(17)
C24J C 0.38204(16) 0.94796(11) -0.21957(15)
C25J C 0.31414(18) 0.85281(12) -0.04579(17)
H16J H 0.3056 0.8728 -0.0363
N4J N 0.41454(16) 0.76989(12) -0.37118(15)
N5J N 0.21477(17) 0.76979(12) -0.10786(14)
C26J C 0.30139(17) 0.78748(12) -0.09375(16)
H17J H 0.2834 0.7632 -0.1162
C27J C 0.43714(17) 0.83077(12) -0.07804(15)
C28J C 0.55213(25) 1.16541(17) -0.4371(2)
H18J H 0.5427 1.1566 -0.4775
H19J H 0.5776 1.1630 -0.4300
C29J C 0.46581(20) 0.75462(14) -0.31900(17)
H20J H 0.4757 0.7338 -0.3203
H21J H 0.4873 0.7809 -0.3383
C30J C 0.49985(17) 1.05662(12) -0.28550(17)
H22J H 0.5264 1.0578 -0.2874
C31J C 0.45301(16) 1.08364(12) -0.31432(16)
H23J H 0.4479 1.1026 -0.3364
C32J C 0.37115(16) 1.00215(11) -0.16410(15)
C33J C 0.44887(18) 0.85995(13) -0.12611(16)
H24J H 0.4472 0.8850 -0.1224
C34J C 0.25431(18) 0.91638(13) -0.0709(2)
C35J C 0.42176(20) 0.73627(14) -0.3512(2)
H25J H 0.4212 0.7191 -0.3847
H26J H 0.3987 0.7175 -0.3245
N6J N 0.51788(18) 1.13790(12) -0.39605(15)
C36J C 0.29271(18) 0.94423(12) -0.04024(17)
H27J H 0.2928 0.9448 0.0009
C37J C 0.46740(17) 1.02713(12) -0.24843(17)
H28J H 0.4723 1.0079 -0.2266
C38J C 0.29449(19) 0.94061(13) -0.16232(18)
H29J H 0.2954 0.9382 -0.2032
N7J N 0.39431(15) 1.18933(10) -0.08855(15)
C39J C 0.35434(16) 1.06149(12) -0.14469(17)
H30J H 0.3261 1.0428 -0.1566
C40J C 0.40924(18) 1.23328(12) -0.0700(2)
H31J H 0.4180 1.2519 -0.1045
H32J H 0.4345 1.2429 -0.0449
C41J C 0.38040(17) 0.93481(12) -0.27875(14)
H33J H 0.3834 0.9537 -0.3091
C42J C 0.46374(16) 0.81370(11) -0.18590(15)
C43J C 0.47086(17) 0.80168(12) -0.24517(16)
H34J H 0.4836 0.8230 -0.2740
C44J C 0.52491(19) 1.11413(13) -0.36165(17)
H35J H 0.5515 1.1153 -0.3626
C45J C 0.25580(18) 0.91444(12) -0.13295(18)
H36J H 0.2311 0.8958 -0.1541
C46J C 0.41159(18) 0.83464(12) -0.02695(18)
C47J C 0.36818(21) 0.75545(15) -0.3742(2)
H37J H 0.3524 0.7251 -0.3849
H38J H 0.3634 0.7715 -0.4051
N8J N 0.17845(19) 0.87074(13) -0.0617(2)
C48J C 0.37088(16) 0.87794(11) -0.19113(15)
H39J H 0.3661 0.8581 -0.1614
C49J C 0.21418(21) 0.88981(14) -0.0370(3)
H40J H 0.2157 0.8873 0.0037
C50J C 0.14346(23) 0.74476(15) -0.06445(19)
H41J H 0.1135 0.7277 -0.0766
H42J H 0.1515 0.7256 -0.0451
C51J C 0.38549(16) 1.04803(11) -0.14557(15)
C52J C 0.35048(19) 0.76165(12) -0.3162(2)
H43J H 0.3196 0.7415 -0.3140
H44J H 0.3643 0.7558 -0.2833
C53J C 0.1712(3) 0.7641(2) -0.1177(2)
H45J H 0.1578 0.7453 -0.1515
H46J H 0.1738 0.7919 -0.1263
C54J C 0.12125(23) 0.79710(16) -0.0406(3)
H47J H 0.0927 0.7806 -0.0231
H48J H 0.1179 0.7950 -0.0832
C55J C 0.37572(19) 1.23777(13) -0.0373(2)
H49J H 0.3837 1.2680 -0.0366
H50J H 0.3485 1.2221 -0.0583
C56J C 0.14097(23) 0.84388(16) -0.0224(4)
H51J H 0.1196 0.8530 -0.0258
H52J H 0.1505 0.8474 0.0184
C57J C 0.43743(22) 0.78815(15) -0.42751(19)
H53J H 0.4196 0.7704 -0.4599
H54J H 0.4641 0.7872 -0.4278
loop_
_geom_bond_atom_site_label_1
_geom_bond_atom_site_label_2
_geom_bond_site_symmetry_1
_geom_bond_site_symmetry_2
C1 C12 1_555 1_555
C2 C3 1_555 1_555
C3 C23 1_555 1_555
C4 C10 1_555 1_555
C5 H1 1_555 1_555
C6 H2 1_555 1_555
C7 H3 1_555 1_555
C8 C5 1_555 1_555
N1 C19 1_555 1_555
C9 H4 1_555 1_555
C10 H5 1_555 1_555
C11 C8 1_555 1_555
H6 C11 1_555 1_555
C12 H7 1_555 1_555
C13 C30 1_555 1_555
N2 C29 1_555 1_555
C14 H8 1_555 1_555
C15 C7 1_555 1_555
H9 C15 1_555 1_555
C16 H10 1_555 1_555
C17 C9 1_555 1_555
C18 C6 1_555 1_555
C19 C4 1_555 1_555
H11 C19 1_555 1_555
C20 C8 1_555 1_555
H12 C20 1_555 1_555
C21 H13 1_555 1_555
C22 C11 1_555 1_555
H14 C22 1_555 1_555
C23 H15 1_555 1_555
N3 C50 1_555 1_555
C24 C2 1_555 1_555
C25 C9 1_555 1_555
H16 C25 1_555 1_555
N4 C35 1_555 1_555
N5 C6 1_555 1_555
C26 C14 1_555 1_555
H17 C26 1_555 1_555
C27 C15 1_555 1_555
C28 H18 1_555 1_555
H19 C28 1_555 1_555
C29 H20 1_555 1_555
H21 C29 1_555 1_555
C30 H22 1_555 1_555
C31 C13 1_555 1_555
H23 C31 1_555 1_555
C32 C1 1_555 1_555
C33 C21 1_555 1_555
H24 C33 1_555 1_555
C34 C36 1_555 1_555
C35 C29 1_555 1_555
H25 C35 1_555 1_555
H26 C35 1_555 1_555
N6 C28 1_555 1_555
C36 C12 1_555 1_555
H27 C36 1_555 1_555
C37 C3 1_555 1_555
H28 C37 1_555 1_555
C38 C1 1_555 1_555
H29 C38 1_555 1_555
N7 C5 1_555 1_555
C39 C20 1_555 1_555
H30 C39 1_555 1_555
C40 N7 1_555 1_555
H31 C40 1_555 1_555
H32 C40 1_555 1_555
C41 C10 1_555 1_555
H33 C41 1_555 1_555
C42 C7 1_555 1_555
C43 N2 1_555 1_555
H34 C43 1_555 1_555
C44 C13 1_555 1_555
H35 C44 1_555 1_555
C45 C34 1_555 1_555
H36 C45 1_555 1_555
C46 C17 1_555 1_555
C47 N4 1_555 1_555
H37 C47 1_555 1_555
H38 C47 1_555 1_555
N8 C49 1_555 1_555
C48 C4 1_555 1_555
H39 C48 1_555 1_555
C49 C34 1_555 1_555
H40 C49 1_555 1_555
C50 H41 1_555 1_555
H42 C50 1_555 1_555
C51 C22 1_555 1_555
C52 N1 1_555 1_555
H43 C52 1_555 1_555
H44 C52 1_555 1_555
C53 N5 1_555 1_555
H45 C53 1_555 1_555
H46 C53 1_555 1_555
C54 N3 1_555 1_555
H47 C54 1_555 1_555
H48 C54 1_555 1_555
C55 C40 1_555 1_555
H49 C55 1_555 1_555
H50 C55 1_555 1_555
C56 N8 1_555 1_555
H51 C56 1_555 1_555
H52 C56 1_555 1_555
C57 N4 1_555 1_555
H53 C57 1_555 1_555
H54 C57 1_555 1_555
C1C C12C 1_555 1_555
C2C C3C 1_555 1_555
C3C C23C 1_555 1_555
C4C C10C 1_555 1_555
C5C H1C 1_555 1_555
C6C H2C 1_555 1_555
C7C H3C 1_555 1_555
C8C C5C 1_555 1_555
N1C C19C 1_555 1_555
C9C H4C 1_555 1_555
C10C H5C 1_555 1_555
C11C C8C 1_555 1_555
H6C C11C 1_555 1_555
C12C H7C 1_555 1_555
C13C C30C 1_555 1_555
N2C C29C 1_555 1_555
C14C H8C 1_555 1_555
C15C C7C 1_555 1_555
H9C C15C 1_555 1_555
C16C H10C 1_555 1_555
C17C C9C 1_555 1_555
C18C C6C 1_555 1_555
C19C C4C 1_555 1_555
H11C C19C 1_555 1_555
C20C C8C 1_555 1_555
H12C C20C 1_555 1_555
C21C H13C 1_555 1_555
C22C C11C 1_555 1_555
H14C C22C 1_555 1_555
C23C H15C 1_555 1_555
N3C C50C 1_555 1_555
C24C C2C 1_555 1_555
C25C C9C 1_555 1_555
H16C C25C 1_555 1_555
N4C C35C 1_555 1_555
N5C C6C 1_555 1_555
C26C C14C 1_555 1_555
H17C C26C 1_555 1_555
C27C C15C 1_555 1_555
C28C C57 1_555 1_555
H18C C28C 1_555 1_555
H19C C28C 1_555 1_555
C29C H20C 1_555 1_555
H21C C29C 1_555 1_555
C30C H22C 1_555 1_555
C31C C13C 1_555 1_555
H23C C31C 1_555 1_555
C32C C1C 1_555 1_555
C33C C21C 1_555 1_555
H24C C33C 1_555 1_555
C34C C36C 1_555 1_555
C35C C29C 1_555 1_555
H25C C35C 1_555 1_555
H26C C35C 1_555 1_555
N6C C28C 1_555 1_555
C36C C12C 1_555 1_555
H27C C36C 1_555 1_555
C37C C3C 1_555 1_555
H28C C37C 1_555 1_555
C38C C1C 1_555 1_555
H29C C38C 1_555 1_555
N7C C5C 1_555 1_555
C39C C20C 1_555 1_555
H30C C39C 1_555 1_555
C40C N7C 1_555 1_555
H31C C40C 1_555 1_555
H32C C40C 1_555 1_555
C41C C10C 1_555 1_555
H33C C41C 1_555 1_555
C42C C7C 1_555 1_555
C43C N2C 1_555 1_555
H34C C43C 1_555 1_555
C44C C13C 1_555 1_555
H35C C44C 1_555 1_555
C45C C34C 1_555 1_555
H36C C45C 1_555 1_555
C46C C17C 1_555 1_555
C47C N4C 1_555 1_555
H37C C47C 1_555 1_555
H38C C47C 1_555 1_555
N8C C49C 1_555 1_555
C48C C4C 1_555 1_555
H39C C48C 1_555 1_555
C49C C34C 1_555 1_555
H40C C49C 1_555 1_555
C50C H41C 1_555 1_555
H42C C50C 1_555 1_555
C51C C22C 1_555 1_555
C52C N1C 1_555 1_555
H43C C52C 1_555 1_555
H44C C52C 1_555 1_555
C53C N5C 1_555 1_555
H45C C53C 1_555 1_555
H46C C53C 1_555 1_555
C54C N3C 1_555 1_555
H47C C54C 1_555 1_555
H48C C54C 1_555 1_555
C55C C40C 1_555 1_555
H49C C55C 1_555 1_555
H50C C55C 1_555 1_555
C56C N8C 1_555 1_555
H51C C56C 1_555 1_555
H52C C56C 1_555 1_555
C57C C28 1_555 1_555
H53C C57C 1_555 1_555
H54C C57C 1_555 1_555
C1F C12F 1_555 1_555
C2F C3F 1_555 1_555
C3F C23F 1_555 1_555
C4F C10F 1_555 1_555
C5F H1F 1_555 1_555
C6F H2F 1_555 1_555
C7F H3F 1_555 1_555
C8F C5F 1_555 1_555
N1F C19F 1_555 1_555
C9F H4F 1_555 1_555
C10F H5F 1_555 1_555
C11F C8F 1_555 1_555
H6F C11F 1_555 1_555
C12F H7F 1_555 1_555
C13F C30F 1_555 1_555
N2F C29F 1_555 1_555
C14F H8F 1_555 1_555
C15F C7F 1_555 1_555
H9F C15F 1_555 1_555
C16F H10F 1_555 1_555
C17F C9F 1_555 1_555
C18F C6F 1_555 1_555
C19F C4F 1_555 1_555
H11F C19F 1_555 1_555
C20F C8F 1_555 1_555
H12F C20F 1_555 1_555
C21F H13F 1_555 1_555
C22F C11F 1_555 1_555
H14F C22F 1_555 1_555
C23F H15F 1_555 1_555
N3F C55 1_555 1_555
C24F C2F 1_555 1_555
C25F C9F 1_555 1_555
H16F C25F 1_555 1_555
N4F C35F 1_555 1_555
N5F C6F 1_555 1_555
C26F C14F 1_555 1_555
H17F C26F 1_555 1_555
C27F C15F 1_555 1_555
C28F H18F 1_555 1_555
H19F C28F 1_555 1_555
C29F H20F 1_555 1_555
H21F C29F 1_555 1_555
C30F H22F 1_555 1_555
C31F C13F 1_555 1_555
H23F C31F 1_555 1_555
C32F C1F 1_555 1_555
C33F C21F 1_555 1_555
H24F C33F 1_555 1_555
C34F C36F 1_555 1_555
C35F C29F 1_555 1_555
H25F C35F 1_555 1_555
H26F C35F 1_555 1_555
N6F C28F 1_555 1_555
C36F C12F 1_555 1_555
H27F C36F 1_555 1_555
C37F C3F 1_555 1_555
H28F C37F 1_555 1_555
C38F C1F 1_555 1_555
H29F C38F 1_555 1_555
N7F C5F 1_555 1_555
C39F C20F 1_555 1_555
H30F C39F 1_555 1_555
C40F N7F 1_555 1_555
H31F C40F 1_555 1_555
H32F C40F 1_555 1_555
C41F C10F 1_555 1_555
H33F C41F 1_555 1_555
C42F C7F 1_555 1_555
C43F N2F 1_555 1_555
H34F C43F 1_555 1_555
C44F C13F 1_555 1_555
H35F C44F 1_555 1_555
C45F C34F 1_555 1_555
H36F C45F 1_555 1_555
C46F C46C 1_555 1_555
C47F N4F 1_555 1_555
H37F C47F 1_555 1_555
H38F C47F 1_555 1_555
N8F C49F 1_555 1_555
C48F C4F 1_555 1_555
H39F C48F 1_555 1_555
C49F C34F 1_555 1_555
H40F C49F 1_555 1_555
C50F N3F 1_555 1_555
H41F C50F 1_555 1_555
H42F C50F 1_555 1_555
C51F C22F 1_555 1_555
C52F N1F 1_555 1_555
H43F C52F 1_555 1_555
H44F C52F 1_555 1_555
C53F N5F 1_555 1_555
H45F C53F 1_555 1_555
H46F C53F 1_555 1_555
C54F N3F 1_555 1_555
H47F C54F 1_555 1_555
H48F C54F 1_555 1_555
C55F N3 1_555 1_555
H49F C55F 1_555 1_555
H50F C55F 1_555 1_555
C56F N8F 1_555 1_555
H51F C56F 1_555 1_555
H52F C56F 1_555 1_555
C57F N4F 1_555 1_555
H53F C57F 1_555 1_555
H54F C57F 1_555 1_555
C1J C12J 1_555 1_555
C2J C3J 1_555 1_555
C3J C23J 1_555 1_555
C4J C10J 1_555 1_555
C5J H1J 1_555 1_555
C6J H2J 1_555 1_555
C7J H3J 1_555 1_555
C8J C5J 1_555 1_555
N1J C19J 1_555 1_555
C9J H4J 1_555 1_555
C10J H5J 1_555 1_555
C11J C8J 1_555 1_555
H6J C11J 1_555 1_555
C12J H7J 1_555 1_555
C13J C30J 1_555 1_555
N2J C29J 1_555 1_555
C14J H8J 1_555 1_555
C15J C7J 1_555 1_555
H9J C15J 1_555 1_555
C16J H10J 1_555 1_555
C17J C9J 1_555 1_555
C18J C6J 1_555 1_555
C19J C4J 1_555 1_555
H11J C19J 1_555 1_555
C20J C8J 1_555 1_555
H12J C20J 1_555 1_555
C21J H13J 1_555 1_555
C22J C11J 1_555 1_555
H14J C22J 1_555 1_555
C23J H15J 1_555 1_555
N3J C55C 1_555 1_555
C24J C2J 1_555 1_555
C25J C9J 1_555 1_555
H16J C25J 1_555 1_555
N4J C35J 1_555 1_555
N5J C6J 1_555 1_555
C26J C14J 1_555 1_555
H17J C26J 1_555 1_555
C27J C15J 1_555 1_555
C28J C57F 1_555 1_555
H18J C28J 1_555 1_555
H19J C28J 1_555 1_555
C29J H20J 1_555 1_555
H21J C29J 1_555 1_555
C30J H22J 1_555 1_555
C31J C13J 1_555 1_555
H23J C31J 1_555 1_555
C32J C1J 1_555 1_555
C33J C21J 1_555 1_555
H24J C33J 1_555 1_555
C34J C36J 1_555 1_555
C35J C29J 1_555 1_555
H25J C35J 1_555 1_555
H26J C35J 1_555 1_555
N6J C28J 1_555 1_555
C36J C12J 1_555 1_555
H27J C36J 1_555 1_555
C37J C3J 1_555 1_555
H28J C37J 1_555 1_555
C38J C1J 1_555 1_555
H29J C38J 1_555 1_555
N7J C5J 1_555 1_555
C39J C20J 1_555 1_555
H30J C39J 1_555 1_555
C40J N7J 1_555 1_555
H31J C40J 1_555 1_555
H32J C40J 1_555 1_555
C41J C10J 1_555 1_555
H33J C41J 1_555 1_555
C42J C7J 1_555 1_555
C43J N2J 1_555 1_555
H34J C43J 1_555 1_555
C44J C13J 1_555 1_555
H35J C44J 1_555 1_555
C45J C34J 1_555 1_555
H36J C45J 1_555 1_555
C46J C46 1_555 1_555
C47J N4J 1_555 1_555
H37J C47J 1_555 1_555
H38J C47J 1_555 1_555
N8J C49J 1_555 1_555
C48J C4J 1_555 1_555
H39J C48J 1_555 1_555
C49J C34J 1_555 1_555
H40J C49J 1_555 1_555
C50J N3J 1_555 1_555
H41J C50J 1_555 1_555
H42J C50J 1_555 1_555
C51J C22J 1_555 1_555
C52J N1J 1_555 1_555
H43J C52J 1_555 1_555
H44J C52J 1_555 1_555
C53J N5J 1_555 1_555
H45J C53J 1_555 1_555
H46J C53J 1_555 1_555
C54J N3J 1_555 1_555
H47J C54J 1_555 1_555
H48J C54J 1_555 1_555
C55J N3C 1_555 1_555
H49J C55J 1_555 1_555
H50J C55J 1_555 1_555
C56J N8J 1_555 1_555
H51J C56J 1_555 1_555
H52J C56J 1_555 1_555
C57J C28F 1_555 1_555
H53J C57J 1_555 1_555
H54J C57J 1_555 1_555
C2 C32 1_555 1_555
C14 C17 1_555 1_555
C16 C24 1_555 1_555
C16 C48 1_555 1_555
C18 C25 1_555 1_555
C18 C26 1_555 1_555
C21 C42 1_555 1_555
C23 C31 1_555 1_555
C24 C41 1_555 1_555
C27 C33 1_555 1_555
C27 C46 1_555 1_555
C30 C37 1_555 1_555
C32 C51 1_555 1_555
N6 C44 1_555 1_555
C38 C45 1_555 1_555
C39 C51 1_555 1_555
C42 C43 1_555 1_555
C47 C52 1_555 1_555
C50 C53 1_555 1_555
C54 C56 1_555 1_555
C2C C32C 1_555 1_555
C14C C17C 1_555 1_555
C16C C24C 1_555 1_555
C16C C48C 1_555 1_555
C18C C25C 1_555 1_555
C18C C26C 1_555 1_555
C21C C42C 1_555 1_555
C23C C31C 1_555 1_555
C24C C41C 1_555 1_555
N4C C57C 1_555 1_555
C27C C33C 1_555 1_555
C27C C46C 1_555 1_555
C30C C37C 1_555 1_555
C32C C51C 1_555 1_555
N6C C44C 1_555 1_555
C38C C45C 1_555 1_555
C39C C51C 1_555 1_555
C42C C43C 1_555 1_555
C47C C52C 1_555 1_555
C50C C53C 1_555 1_555
C54C C56C 1_555 1_555
C2F C32F 1_555 1_555
C14F C17F 1_555 1_555
C16F C24F 1_555 1_555
C16F C48F 1_555 1_555
C17F C46F 1_555 1_555
C18F C25F 1_555 1_555
C18F C26F 1_555 1_555
C21F C42F 1_555 1_555
C23F C31F 1_555 1_555
C24F C41F 1_555 1_555
C27F C33F 1_555 1_555
C27F C46F 1_555 1_555
C30F C37F 1_555 1_555
C32F C51F 1_555 1_555
N6F C44F 1_555 1_555
C38F C45F 1_555 1_555
C39F C51F 1_555 1_555
C40F C55F 1_555 1_555
C42F C43F 1_555 1_555
C47F C52F 1_555 1_555
C50F C53F 1_555 1_555
C54F C56F 1_555 1_555
C2J C32J 1_555 1_555
C14J C17J 1_555 1_555
C16J C24J 1_555 1_555
C16J C48J 1_555 1_555
C17J C46J 1_555 1_555
C18J C25J 1_555 1_555
C18J C26J 1_555 1_555
C21J C42J 1_555 1_555
C23J C31J 1_555 1_555
C24J C41J 1_555 1_555
N4J C57J 1_555 1_555
C27J C33J 1_555 1_555
C27J C46J 1_555 1_555
C30J C37J 1_555 1_555
C32J C51J 1_555 1_555
N6J C44J 1_555 1_555
C38J C45J 1_555 1_555
C39J C51J 1_555 1_555
C40J C55J 1_555 1_555
C42J C43J 1_555 1_555
C47J C52J 1_555 1_555
C50J C53J 1_555 1_555
C54J C56J 1_555 1_555

#END
