
#######################################################################
#
#                 Cambridge Crystallographic Data Centre
#                                CCDC 
#
#######################################################################
#
# If this CIF has been generated from an entry in the Cambridge 
# Structural Database, then it will include bibliographic, chemical, 
# crystal, experimental, refinement or atomic coordinate data resulting 
# from the CCDC's data processing and validation procedures.
#
#######################################################################

data_WESDAC
_chemical_formula_moiety         'C228 H216 N32'
_chemical_name_systematic        
'(M)-6,9,19,21,31,33,43,45,55,58,68,70,80,83,93,96,105,106,111,120,121,126,131,140(1,4)-tetracosabenzena-1,4,11,14,17,23,26,29,35,38,41,47,50,53,60,63,66,72,75,78,85,88,91,98,103,108,113,118,123,128,133,138-dotriaconta-azaundecacyclo[54.44.5.5^7,88^.5^8,50^.5^14,82^.5^26,81^.5^38,57^.5^63,95^.5^75,94^.0^20,44^.0^32,69^]tetracontahectaphane-4,7,10,17,20(44),22,29,32(69),34,41,46,53,56,59,66,71,78,81,84,91,94,97,103,107,112,118,122,127,132,138-triacontaene unknown solvate'
_symmetry_cell_setting           rhombohedral
_symmetry_space_group_name_H-M   'R 3'
_symmetry_Int_Tables_number      146
_space_group_name_Hall           'R 3'
loop_
_symmetry_equiv_pos_site_id
_symmetry_equiv_pos_as_xyz
1 x,y,z
2 -y,x-y,z
3 -x+y,-x,z
4 2/3+x,1/3+y,1/3+z
5 2/3-y,1/3+x-y,1/3+z
6 2/3-x+y,1/3-x,1/3+z
7 1/3+x,2/3+y,2/3+z
8 1/3-y,2/3+x-y,2/3+z
9 1/3-x+y,2/3-x,2/3+z
_cell_length_a                   28.1211(9)
_cell_length_b                   28.1211(9)
_cell_length_c                   30.4311(13)
_cell_angle_alpha                90
_cell_angle_beta                 90
_cell_angle_gamma                120
_cell_volume                     20840.7
_exptl_crystal_colour            colorless
_exptl_crystal_description       cube
_cell_formula_units_Z            3
loop_
_atom_site_label
_atom_site_type_symbol
_atom_site_fract_x
_atom_site_fract_y
_atom_site_fract_z
N1 N 0.5403(2) -0.0452(2) 0.4084(3)
N2 N 0.6667 0.3333 0.8762(3)
N3 N 0.6182(5) 0.3930(4) 0.8201(3)
N4 N 0.6862(3) 0.72227(19) 0.6165(3)
N5 N 0.5806(2) 0.6140(2) 0.5929(2)
N6 N 0.3005(2) 0.2958(3) 0.4642(3)
N7 N 0.6667 0.3333 0.1261(4)
N8 N 0.6178(4) 0.2314(4) 0.1848(3)
N9 N 0.2833(2) 0.0312(3) 0.5354(2)
N10 N 0.3587(2) 0.3124(2) 0.3295(2)
N11 N 0.3027(2) 0.3594(3) 0.3835(3)
N12 N 0.3416(2) 0.0670(2) 0.6732(2)
C1 C 0.4937(2) 0.1549(3) 0.40834(15)
C2 C 0.5019(2) 0.1914(2) 0.37674(15)
C3 C 0.5428(2) 0.2006(2) 0.33953(16)
C4 C 0.5198(2) 0.1951(3) 0.2985(2)
H1 H 0.4819 0.1804 0.2973
C5 C 0.5463(2) 0.2087(2) 0.26081(19)
H2 H 0.5277 0.2041 0.2345
C6 C 0.6039(3) 0.2307(2) 0.2615(3)
C7 C 0.6311(3) 0.2398(3) 0.3044(2)
H3 H 0.6690 0.2561 0.3067
C8 C 0.5996(2) 0.2241(2) 0.33908(19)
H4 H 0.6168 0.2292 0.3662
C9 C 0.5274(2) 0.1257(2) 0.40074(19)
C10 C 0.5156(2) 0.0853(2) 0.3714(2)
H5 H 0.4990 0.0856 0.3450
C11 C 0.52732(19) 0.04317(19) 0.37890(15)
H6 H 0.5207 0.0170 0.3575
C12 C 0.54966(18) 0.04191(19) 0.42051(18)
C13 C 0.5626(2) 0.0835(2) 0.45035(18)
H7 H 0.5805 0.0848 0.4764
C14 C 0.5483(2) 0.1243(2) 0.44100(18)
H8 H 0.5533 0.1501 0.4623
C15 C 0.4472(2) 0.14560(19) 0.44013(19)
C16 C 0.40761(18) 0.0880(2) 0.4391(2)
H9 H 0.4084 0.0656 0.4169
C17 C 0.3691(2) 0.0672(2) 0.47118(17)
H10 H 0.3408 0.0309 0.4692
C18 C 0.3709(2) 0.0976(3) 0.50556(19)
C19 C 0.4129(2) 0.1506(2) 0.5121(2)
H11 H 0.4159 0.1698 0.5378
C20 C 0.4492(2) 0.17290(17) 0.47906(18)
H12 H 0.4776 0.2089 0.4823
C21 C 0.4648(2) 0.22033(19) 0.38226(18)
C22 C 0.4128(2) 0.19925(19) 0.37216(18)
H13 H 0.3891 0.1615 0.3728
C23 C 0.3945(2) 0.2343(2) 0.3607(2)
H14 H 0.3575 0.2186 0.3536
C24 C 0.4261(2) 0.29133(19) 0.35869(17)
C25 C 0.4808(2) 0.3134(2) 0.3695(2)
H15 H 0.5039 0.3513 0.3691
C26 C 0.50231(19) 0.27908(17) 0.3813(2)
H16 H 0.5393 0.2938 0.3882
C27 C 0.6406(4) 0.2443(4) 0.2209(3)
H17 H 0.6786 0.2616 0.2234
C28 C 0.5600(2) -0.0024(3) 0.4340(2)
H18 H 0.5795 0.0000 0.4594
C29 C 0.3268(2) 0.0761(3) 0.5435(2)
H19 H 0.3323 0.0949 0.5698
C30 C 0.4076(3) 0.3288(2) 0.3459(2)
H20 H 0.4315 0.3662 0.3494
C31 C 0.6494(8) 0.2388(8) 0.1414(4)
H21 H 0.6884 0.2549 0.1473
H22 H 0.6366 0.2034 0.1274
C32 C 0.5526(4) -0.0889(3) 0.4267(3)
H23 H 0.5189 -0.1220 0.4347
H24 H 0.5761 -0.0753 0.4524
C33 C 0.2436(3) 0.0139(5) 0.5712(4)
H25 H 0.2089 0.0091 0.5607
H26 H 0.2571 0.0412 0.5944
C34 C 0.3465(3) 0.3522(3) 0.3167(3)
H27 H 0.3417 0.3512 0.2851
H28 H 0.3762 0.3883 0.3247
C35 C 0.2937(4) 0.3409(4) 0.3396(4)
H29 H 0.2774 0.3590 0.3236
H30 H 0.2679 0.3018 0.3391
C36 C 0.6397(6) 0.27589(19) 0.1114(2)
H31 H 0.6530 0.2746 0.0822
H32 H 0.6005 0.2619 0.1093
C37 C 0.52462(18) 0.3638(2) 0.62026(13)
C38 C 0.4854(2) 0.31714(18) 0.60225(14)
C39 C 0.4581(2) 0.3283(2) 0.56275(15)
C40 C 0.42048(19) 0.3453(2) 0.56332(16)
H33 H 0.4202 0.3653 0.5876
C41 C 0.38358(19) 0.3352(2) 0.53130(18)
H34 H 0.3596 0.3488 0.5333
C42 C 0.38187(19) 0.3038(2) 0.49502(18)
C43 C 0.4210(2) 0.2894(2) 0.48994(19)
H35 H 0.4234 0.2733 0.4639
C44 C 0.4567(2) 0.2987(2) 0.52332(17)
H36 H 0.4811 0.2855 0.5208
C45 C 0.4683(2) 0.26042(18) 0.62034(18)
C46 C 0.4114(2) 0.2317(2) 0.6273(2)
H37 H 0.3912 0.2494 0.6238
C47 C 0.38683(17) 0.1797(2) 0.63867(18)
H38 H 0.3492 0.1611 0.6437
C48 C 0.4163(2) 0.15074(18) 0.6435(2)
C49 C 0.4725(2) 0.1804(2) 0.63503(19)
H39 H 0.4934 0.1633 0.6371
C50 C 0.49685(19) 0.2342(2) 0.62383(18)
H40 H 0.5344 0.2534 0.6184
C51 C 0.5474(2) 0.3529(3) 0.66272(14)
C52 C 0.52394(18) 0.3402(2) 0.70354(18)
H41 H 0.4859 0.3235 0.7054
C53 C 0.5538(3) 0.3508(3) 0.74279(19)
H42 H 0.5359 0.3377 0.7695
C54 C 0.6096(2) 0.3809(2) 0.74071(19)
C55 C 0.6362(2) 0.3934(2) 0.70051(19)
H43 H 0.6742 0.4096 0.6992
C56 C 0.6066(2) 0.3818(2) 0.66365(19)
H44 H 0.6253 0.3929 0.6370
C57 C 0.5414(2) 0.41894(16) 0.6019(2)
C58 C 0.5351(2) 0.4543(2) 0.63248(16)
H45 H 0.5210 0.4413 0.6603
C59 C 0.5490(2) 0.5046(2) 0.62177(18)
H46 H 0.5393 0.5250 0.6401
C60 C 0.5783(2) 0.52841(18) 0.58266(18)
C61 C 0.58992(19) 0.49705(19) 0.55550(17)
H47 H 0.6122 0.5129 0.5311
C62 C 0.5693(2) 0.44294(18) 0.56375(16)
H48 H 0.5740 0.4214 0.5430
C63 C 0.3388(2) 0.2866(4) 0.4599(2)
H49 H 0.3411 0.2689 0.4348
C64 C 0.3906(2) 0.0930(2) 0.6589(2)
H50 H 0.4109 0.0752 0.6580
C65 C 0.6431(4) 0.3989(5) 0.7807(3)
H51 H 0.6810 0.4141 0.7791
C66 C 0.2590(3) 0.2758(6) 0.4266(4)
H52 H 0.2235 0.2464 0.4361
H53 H 0.2716 0.2630 0.4020
C67 C 0.5951(2) 0.5849(3) 0.5701(2)
H54 H 0.6165 0.6000 0.5451
C68 C 0.5987(3) 0.6693(3) 0.5758(3)
H55 H 0.5676 0.6722 0.5657
H56 H 0.6240 0.6777 0.5515
C69 C 0.6275(3) 0.7088(3) 0.6147(4)
H57 H 0.6258 0.7422 0.6108
H58 H 0.6091 0.6917 0.6420
C70 C 0.7023(6) 0.7301(4) 0.6592(4)
H59 H 0.6853 0.7485 0.6738
H60 H 0.7417 0.7548 0.6601
C71 C 0.7216(4) 0.7642(3) 0.5889(3)
H61 H 0.7369 0.7988 0.6046
H62 H 0.7009 0.7661 0.5641
C72 C 0.3157(3) 0.4169(3) 0.3875(4)
H63 H 0.2822 0.4179 0.3931
H64 H 0.3313 0.4360 0.3601
C73 C 0.6404(5) 0.3652(5) 0.8894(4)
H65 H 0.6486 0.3763 0.9199
H66 H 0.6009 0.3431 0.8861
C74 C 0.6648(5) 0.4201(5) 0.8572(3)
H67 H 0.6650 0.4510 0.8716
H68 H 0.7011 0.4310 0.8460
C75 C 0.2562(3) 0.3319(5) 0.4132(5)
H69 H 0.2220 0.3226 0.3985
H70 H 0.2605 0.3542 0.4388
C76 C 0.3230(4) 0.0118(3) 0.6866(3)
H71 H 0.3145 0.0077 0.7178
H72 H 0.3515 0.0026 0.6815
N1A N 1.0452(2) 0.5855(3) 0.4084(3)
N3A N 0.6070(4) 0.2252(6) 0.8201(3)
N4A N 0.27773(19) -0.03607(36) 0.6165(3)
N5A N 0.3860(2) -0.0334(3) 0.5929(2)
N6A N 0.7042(3) 0.0047(4) 0.4642(3)
N8A N 0.7686(4) 0.3864(6) 0.1848(3)
N9A N 0.9688(3) 0.2521(4) 0.5354(2)
N10A N 0.6876(2) 0.0463(3) 0.3295(2)
N11A N 0.6406(3) -0.0567(4) 0.3835(3)
N12A N 0.9330(2) 0.2746(3) 0.6732(2)
C1A C 0.8451(3) 0.3388(4) 0.40834(15)
C2A C 0.8086(2) 0.3105(3) 0.37674(15)
C3A C 0.7994(2) 0.3422(3) 0.33953(16)
C4A C 0.8049(3) 0.3247(4) 0.2985(2)
H1A H 0.8196 0.3015 0.2973
C5A C 0.7913(2) 0.3376(3) 0.26081(19)
H2A H 0.7959 0.3236 0.2345
C6A C 0.7693(2) 0.3732(4) 0.2615(3)
C7A C 0.7602(3) 0.3913(4) 0.3044(2)
H3A H 0.7439 0.4129 0.3067
C8A C 0.7759(2) 0.3755(3) 0.33908(19)
H4A H 0.7708 0.3876 0.3662
C9A C 0.8743(2) 0.4017(3) 0.40074(19)
C10A C 0.9147(2) 0.4303(3) 0.3714(2)
H5A H 0.9144 0.4134 0.3450
C11A C 0.95683(19) 0.48415(27) 0.37890(15)
H6A H 0.9830 0.5037 0.3575
C12A C 0.95809(19) 0.50775(26) 0.42051(18)
C13A C 0.9165(2) 0.4791(3) 0.45035(18)
H7A H 0.9152 0.4957 0.4764
C14A C 0.8757(2) 0.4240(3) 0.44100(18)
H8A H 0.8499 0.4032 0.4623
C15A C 0.85440(19) 0.30160(28) 0.44013(19)
C16A C 0.9120(2) 0.31961(27) 0.4391(2)
H9A H 0.9344 0.3428 0.4169
C17A C 0.9328(2) 0.3019(3) 0.47118(17)
H10A H 0.9691 0.3099 0.4692
C18A C 0.9024(3) 0.2733(4) 0.50556(19)
C19A C 0.8494(2) 0.2623(3) 0.5121(2)
H11A H 0.8302 0.2461 0.5378
C20A C 0.82710(17) 0.27630(26) 0.47906(18)
H12A H 0.7911 0.2687 0.4823
C21A C 0.77967(19) 0.24447(28) 0.38226(18)
C22A C 0.80075(19) 0.21355(28) 0.37216(18)
H13A H 0.8385 0.2276 0.3728
C23A C 0.7657(2) 0.1602(3) 0.3607(2)
H14A H 0.7814 0.1389 0.3536
C24A C 0.70867(19) 0.13477(28) 0.35869(17)
C25A C 0.6866(2) 0.1674(3) 0.3695(2)
H15A H 0.6487 0.1526 0.3691
C26A C 0.72092(17) 0.22323(25) 0.3813(2)
H16A H 0.7062 0.2455 0.3882
C27A C 0.7557(4) 0.3963(6) 0.2209(3)
H17A H 0.7384 0.4170 0.2234
C28A C 1.0024(3) 0.5624(4) 0.4340(2)
H18A H 1.0000 0.5795 0.4594
C29A C 0.9239(3) 0.2507(4) 0.5435(2)
H19A H 0.9051 0.2374 0.5698
C30A C 0.6712(2) 0.0788(4) 0.3459(2)
H20A H 0.6338 0.0653 0.3494
C31A C 0.7612(8) 0.4106(11) 0.1414(4)
H21A H 0.7451 0.4335 0.1473
H22A H 0.7966 0.4332 0.1274
C32A C 1.0889(3) 0.6415(5) 0.4267(3)
H23A H 1.1220 0.6409 0.4347
H24A H 1.0753 0.6514 0.4524
C33A C 0.9861(5) 0.2297(6) 0.5712(4)
H25A H 0.9909 0.1998 0.5607
H26A H 0.9588 0.2159 0.5944
C34A C 0.6478(3) -0.0057(4) 0.3167(3)
H27A H 0.6488 -0.0095 0.2851
H28A H 0.6117 -0.0121 0.3247
C35A C 0.6591(4) -0.0472(6) 0.3396(4)
H29A H 0.6410 -0.0816 0.3236
H30A H 0.6982 -0.0339 0.3391
C36A C 0.72411(19) 0.36381(63) 0.1114(2)
H31A H 0.7254 0.3784 0.0822
H32A H 0.7381 0.3386 0.1093
C37A C 0.6362(2) 0.16082(27) 0.62026(13)
C38A C 0.68286(18) 0.16826(27) 0.60225(14)
C39A C 0.6717(2) 0.1298(3) 0.56275(15)
C40A C 0.6547(2) 0.07518(28) 0.56332(16)
H33A H 0.6347 0.0549 0.5876
C41A C 0.6648(2) 0.04838(28) 0.53130(18)
H34A H 0.6512 0.0108 0.5333
C42A C 0.6962(2) 0.07807(28) 0.49502(18)
C43A C 0.7106(2) 0.1316(3) 0.48994(19)
H35A H 0.7267 0.1501 0.4639
C44A C 0.7013(2) 0.1580(3) 0.52332(17)
H36A H 0.7145 0.1956 0.5208
C45A C 0.73958(18) 0.20788(27) 0.62034(18)
C46A C 0.7683(2) 0.1797(3) 0.6273(2)
H37A H 0.7506 0.1418 0.6238
C47A C 0.8203(2) 0.20713(26) 0.63867(18)
H38A H 0.8389 0.1881 0.6437
C48A C 0.84926(18) 0.26556(27) 0.6435(2)
C49A C 0.8196(2) 0.2921(3) 0.63503(19)
H39A H 0.8367 0.3301 0.6371
C50A C 0.7658(2) 0.26265(28) 0.62383(18)
H40A H 0.7466 0.2810 0.6184
C51A C 0.6471(3) 0.1945(4) 0.66272(14)
C52A C 0.6598(2) 0.18374(27) 0.70354(18)
H41A H 0.6765 0.1624 0.7054
C53A C 0.6492(3) 0.2030(4) 0.74279(19)
H42A H 0.6623 0.1982 0.7695
C54A C 0.6191(2) 0.2287(3) 0.74071(19)
C55A C 0.6066(2) 0.2428(3) 0.70051(19)
H43A H 0.5904 0.2646 0.6992
C56A C 0.6182(2) 0.2248(3) 0.66365(19)
H44A H 0.6071 0.2324 0.6370
C57A C 0.58106(16) 0.12246(26) 0.6019(2)
C58A C 0.5457(2) 0.0808(3) 0.63248(16)
H45A H 0.5587 0.0797 0.6603
C59A C 0.4954(2) 0.0444(3) 0.62177(18)
H46A H 0.4750 0.0143 0.6401
C60A C 0.47159(18) 0.04989(27) 0.58266(18)
C61A C 0.50295(19) 0.09287(27) 0.55550(17)
H47A H 0.4871 0.0993 0.5311
C62A C 0.55706(18) 0.12636(27) 0.56375(16)
H48A H 0.5786 0.1526 0.5430
C63A C 0.7134(4) 0.0522(4) 0.4599(2)
H49A H 0.7311 0.0722 0.4348
C64A C 0.9070(2) 0.2976(3) 0.6589(2)
H50A H 0.9248 0.3357 0.6580
C65A C 0.6011(5) 0.2442(6) 0.7807(3)
H51A H 0.5859 0.2669 0.7791
C66A C 0.7242(6) -0.0168(7) 0.4266(4)
H52A H 0.7536 -0.0229 0.4361
H53A H 0.7370 0.0086 0.4020
C67A C 0.4151(3) 0.0102(4) 0.5701(2)
H54A H 0.4000 0.0165 0.5451
C68A C 0.3307(3) -0.0706(4) 0.5758(3)
H55A H 0.3278 -0.1046 0.5657
H56A H 0.3223 -0.0537 0.5515
C69A C 0.2912(3) -0.0813(4) 0.6147(4)
H57A H 0.2578 -0.1164 0.6108
H58A H 0.3083 -0.0826 0.6420
C70A C 0.2699(4) -0.0278(7) 0.6592(4)
H59A H 0.2515 -0.0632 0.6738
H60A H 0.2452 -0.0131 0.6601
C71A C 0.2358(3) -0.0426(5) 0.5889(3)
H61A H 0.2012 -0.0619 0.6046
H62A H 0.2339 -0.0652 0.5641
C72A C 0.5831(3) -0.1012(4) 0.3875(4)
H63A H 0.5821 -0.1357 0.3931
H64A H 0.5640 -0.1047 0.3601
C73A C 0.6348(5) 0.2752(7) 0.8894(4)
H65A H 0.6237 0.2723 0.9199
H66A H 0.6569 0.2578 0.8861
C74A C 0.5799(5) 0.2447(7) 0.8572(3)
H67A H 0.5490 0.2140 0.8716
H68A H 0.5690 0.2701 0.8460
C75A C 0.6681(5) -0.0757(6) 0.4132(5)
H69A H 0.6774 -0.1006 0.3985
H70A H 0.6458 -0.0937 0.4388
C76A C 0.9882(3) 0.3112(5) 0.6866(3)
H71A H 0.9923 0.3068 0.7178
H72A H 0.9974 0.3489 0.6815
N1B N 0.4145(3) 0.4597(2) 0.4084(3)
N3B N 0.7748(6) 0.3818(5) 0.8201(3)
N4B N 1.03607(36) 0.3138(3) 0.6165(3)
N5B N 1.0334(3) 0.4194(2) 0.5929(2)
N6B N 0.9953(4) 0.6995(2) 0.4642(3)
N8B N 0.6136(6) 0.3822(4) 0.1848(3)
N9B N 0.7479(4) 0.7167(2) 0.5354(2)
N10B N 0.9537(3) 0.6413(2) 0.3295(2)
N11B N 1.0567(4) 0.6973(2) 0.3835(3)
N12B N 0.7254(3) 0.6584(2) 0.6732(2)
C1B C 0.6612(4) 0.5063(2) 0.40834(15)
C2B C 0.6895(3) 0.4981(2) 0.37674(15)
C3B C 0.6578(3) 0.4572(2) 0.33953(16)
C4B C 0.6753(4) 0.4802(2) 0.2985(2)
H1B H 0.6985 0.5181 0.2973
C5B C 0.6624(3) 0.4537(2) 0.26081(19)
H2B H 0.6764 0.4723 0.2345
C6B C 0.6268(4) 0.3961(3) 0.2615(3)
C7B C 0.6087(4) 0.3689(3) 0.3044(2)
H3B H 0.5871 0.3310 0.3067
C8B C 0.6245(3) 0.4004(2) 0.33908(19)
H4B H 0.6124 0.3832 0.3662
C9B C 0.5983(3) 0.4726(2) 0.40074(19)
C10B C 0.5697(3) 0.4844(2) 0.3714(2)
H5B H 0.5866 0.5010 0.3450
C11B C 0.51585(27) 0.47268(19) 0.37890(15)
H6B H 0.4963 0.4793 0.3575
C12B C 0.49225(26) 0.45034(18) 0.42051(18)
C13B C 0.5209(3) 0.4374(2) 0.45035(18)
H7B H 0.5043 0.4195 0.4764
C14B C 0.5760(3) 0.4517(2) 0.44100(18)
H8B H 0.5968 0.4467 0.4623
C15B C 0.69840(28) 0.5528(2) 0.44013(19)
C16B C 0.68039(27) 0.59239(18) 0.4391(2)
H9B H 0.6572 0.5916 0.4169
C17B C 0.6981(3) 0.6309(2) 0.47118(17)
H10B H 0.6901 0.6592 0.4692
C18B C 0.7267(4) 0.6291(2) 0.50556(19)
C19B C 0.7377(3) 0.5871(2) 0.5121(2)
H11B H 0.7539 0.5841 0.5378
C20B C 0.72370(26) 0.5508(2) 0.47906(18)
H12B H 0.7313 0.5224 0.4823
C21B C 0.75553(28) 0.5352(2) 0.38226(18)
C22B C 0.78645(28) 0.5872(2) 0.37216(18)
H13B H 0.7724 0.6109 0.3728
C23B C 0.8398(3) 0.6055(2) 0.3607(2)
H14B H 0.8611 0.6425 0.3536
C24B C 0.86523(28) 0.5739(2) 0.35869(17)
C25B C 0.8326(3) 0.5192(2) 0.3695(2)
H15B H 0.8474 0.4961 0.3691
C26B C 0.77677(25) 0.49769(19) 0.3813(2)
H16B H 0.7545 0.4607 0.3882
C27B C 0.6037(6) 0.3594(4) 0.2209(3)
H17B H 0.5830 0.3214 0.2234
C28B C 0.4376(4) 0.4400(2) 0.4340(2)
H18B H 0.4205 0.4205 0.4594
C29B C 0.7493(4) 0.6732(2) 0.5435(2)
H19B H 0.7626 0.6677 0.5698
C30B C 0.9212(4) 0.5924(3) 0.3459(2)
H20B H 0.9347 0.5685 0.3494
C31B C 0.5894(11) 0.3506(8) 0.1414(4)
H21B H 0.5665 0.3116 0.1473
H22B H 0.5668 0.3634 0.1274
C32B C 0.3585(5) 0.4474(4) 0.4267(3)
H23B H 0.3591 0.4811 0.4347
H24B H 0.3486 0.4239 0.4524
C33B C 0.7703(6) 0.7564(3) 0.5712(4)
H25B H 0.8002 0.7911 0.5607
H26B H 0.7841 0.7429 0.5944
C34B C 1.0057(4) 0.6535(3) 0.3167(3)
H27B H 1.0095 0.6583 0.2851
H28B H 1.0121 0.6238 0.3247
C35B C 1.0472(6) 0.7063(4) 0.3396(4)
H29B H 1.0816 0.7226 0.3236
H30B H 1.0339 0.7321 0.3391
C36B C 0.63619(63) 0.3603(6) 0.1114(2)
H31B H 0.6216 0.3470 0.0822
H32B H 0.6614 0.3995 0.1093
C37B C 0.83918(27) 0.47538(18) 0.62026(13)
C38B C 0.83174(27) 0.5146(2) 0.60225(14)
C39B C 0.8702(3) 0.5419(2) 0.56275(15)
C40B C 0.92482(28) 0.57952(19) 0.56332(16)
H33B H 0.9451 0.5798 0.5876
C41B C 0.95162(28) 0.61642(19) 0.53130(18)
H34B H 0.9892 0.6404 0.5333
C42B C 0.92193(28) 0.61813(19) 0.49502(18)
C43B C 0.8684(3) 0.5790(2) 0.48994(19)
H35B H 0.8499 0.5766 0.4639
C44B C 0.8420(3) 0.5433(2) 0.52332(17)
H36B H 0.8044 0.5189 0.5208
C45B C 0.79212(27) 0.5317(2) 0.62034(18)
C46B C 0.8203(3) 0.5886(2) 0.6273(2)
H37B H 0.8582 0.6088 0.6238
C47B C 0.79287(26) 0.61317(17) 0.63867(18)
H38B H 0.8119 0.6508 0.6437
C48B C 0.73444(27) 0.5837(2) 0.6435(2)
C49B C 0.7079(3) 0.5275(2) 0.63503(19)
H39B H 0.6699 0.5066 0.6371
C50B C 0.73735(28) 0.50315(19) 0.62383(18)
H40B H 0.7190 0.4656 0.6184
C51B C 0.8055(4) 0.4526(2) 0.66272(14)
C52B C 0.81626(27) 0.47606(18) 0.70354(18)
H41B H 0.8376 0.5141 0.7054
C53B C 0.7970(4) 0.4462(3) 0.74279(19)
H42B H 0.8018 0.4641 0.7695
C54B C 0.7713(3) 0.3904(2) 0.74071(19)
C55B C 0.7572(3) 0.3638(2) 0.70051(19)
H43B H 0.7354 0.3258 0.6992
C56B C 0.7752(3) 0.3934(2) 0.66365(19)
H44B H 0.7676 0.3747 0.6370
C57B C 0.87754(26) 0.4586(2) 0.6019(2)
C58B C 0.9192(3) 0.4649(2) 0.63248(16)
H45B H 0.9203 0.4790 0.6603
C59B C 0.9556(3) 0.4510(2) 0.62177(18)
H46B H 0.9857 0.4607 0.6401
C60B C 0.95011(27) 0.4217(2) 0.58266(18)
C61B C 0.90713(27) 0.41008(19) 0.55550(17)
H47B H 0.9007 0.3878 0.5311
C62B C 0.87364(27) 0.4307(2) 0.56375(16)
H48B H 0.8474 0.4260 0.5430
C63B C 0.9478(4) 0.6612(2) 0.4599(2)
H49B H 0.9278 0.6589 0.4348
C64B C 0.7024(3) 0.6094(2) 0.6589(2)
H50B H 0.6643 0.5891 0.6580
C65B C 0.7558(6) 0.3569(4) 0.7807(3)
H51B H 0.7331 0.3190 0.7791
C66B C 1.0168(7) 0.7410(3) 0.4266(4)
H52B H 1.0229 0.7765 0.4361
H53B H 0.9914 0.7284 0.4020
C67B C 0.9898(4) 0.4049(2) 0.5701(2)
H54B H 0.9835 0.3835 0.5451
C68B C 1.0706(4) 0.4013(3) 0.5758(3)
H55B H 1.1046 0.4324 0.5657
H56B H 1.0537 0.3760 0.5515
C69B C 1.0813(4) 0.3725(3) 0.6147(4)
H57B H 1.1164 0.3742 0.6108
H58B H 1.0826 0.3909 0.6420
C70B C 1.0278(7) 0.2977(6) 0.6592(4)
H59B H 1.0632 0.3147 0.6738
H60B H 1.0131 0.2583 0.6601
C71B C 1.0426(5) 0.2784(4) 0.5889(3)
H61B H 1.0619 0.2631 0.6046
H62B H 1.0652 0.2991 0.5641
C72B C 1.1012(4) 0.6843(3) 0.3875(4)
H63B H 1.1357 0.7178 0.3931
H64B H 1.1047 0.6687 0.3601
C73B C 0.7248(7) 0.3596(5) 0.8894(4)
H65B H 0.7277 0.3514 0.9199
H66B H 0.7422 0.3991 0.8861
C74B C 0.7553(7) 0.3352(5) 0.8572(3)
H67B H 0.7860 0.3350 0.8716
H68B H 0.7299 0.2989 0.8460
C75B C 1.0757(6) 0.7438(3) 0.4132(5)
H69B H 1.1006 0.7780 0.3985
H70B H 1.0937 0.7395 0.4388
C76B C 0.6888(5) 0.6770(4) 0.6866(3)
H71B H 0.6932 0.6855 0.7178
H72B H 0.6511 0.6485 0.6815
loop_
_geom_bond_atom_site_label_1
_geom_bond_atom_site_label_2
_geom_bond_site_symmetry_1
_geom_bond_site_symmetry_2
N1 C28 1_555 1_555
N2 C73 1_555 1_555
N3 C65 1_555 1_555
N4 C69 1_555 1_555
N5 C67 1_555 1_555
N6 C63 1_555 1_555
N7 C36 1_555 1_555
N8 C27 1_555 1_555
N9 C29 1_555 1_555
N10 C30 1_555 1_555
N11 C35 1_555 1_555
N12 C64 1_555 1_555
C1 C2 1_555 1_555
C2 C3 1_555 1_555
C3 C4 1_555 1_555
C4 H1 1_555 1_555
C5 C4 1_555 1_555
H2 C5 1_555 1_555
C6 C5 1_555 1_555
C7 C6 1_555 1_555
H3 C7 1_555 1_555
C8 C3 1_555 1_555
H4 C8 1_555 1_555
C9 C1 1_555 1_555
C10 C9 1_555 1_555
H5 C10 1_555 1_555
C11 C10 1_555 1_555
H6 C11 1_555 1_555
C12 C11 1_555 1_555
C13 C12 1_555 1_555
H7 C13 1_555 1_555
C14 C9 1_555 1_555
H8 C14 1_555 1_555
C15 C1 1_555 1_555
C16 C15 1_555 1_555
H9 C16 1_555 1_555
C17 C16 1_555 1_555
H10 C17 1_555 1_555
C18 C17 1_555 1_555
C19 C18 1_555 1_555
H11 C19 1_555 1_555
C20 C15 1_555 1_555
H12 C20 1_555 1_555
C21 C2 1_555 1_555
C22 C21 1_555 1_555
H13 C22 1_555 1_555
C23 C22 1_555 1_555
H14 C23 1_555 1_555
C24 C23 1_555 1_555
C25 C24 1_555 1_555
H15 C25 1_555 1_555
C26 C21 1_555 1_555
H16 C26 1_555 1_555
C27 C6 1_555 1_555
H17 C27 1_555 1_555
C28 C12 1_555 1_555
H18 C28 1_555 1_555
C29 C18 1_555 1_555
H19 C29 1_555 1_555
C30 C24 1_555 1_555
H20 C30 1_555 1_555
C31 N8 1_555 1_555
H21 C31 1_555 1_555
H22 C31 1_555 1_555
C32 N1 1_555 1_555
H23 C32 1_555 1_555
H24 C32 1_555 1_555
C33 N9 1_555 1_555
H25 C33 1_555 1_555
H26 C33 1_555 1_555
C34 N10 1_555 1_555
H27 C34 1_555 1_555
H28 C34 1_555 1_555
C35 C34 1_555 1_555
H29 C35 1_555 1_555
H30 C35 1_555 1_555
C36 C31 1_555 1_555
H31 C36 1_555 1_555
H32 C36 1_555 1_555
C37 C38 1_555 1_555
C38 C39 1_555 1_555
C39 C40 1_555 1_555
C40 H33 1_555 1_555
C41 C40 1_555 1_555
H34 C41 1_555 1_555
C42 C41 1_555 1_555
C43 C42 1_555 1_555
H35 C43 1_555 1_555
C44 C39 1_555 1_555
H36 C44 1_555 1_555
C45 C38 1_555 1_555
C46 C45 1_555 1_555
H37 C46 1_555 1_555
C47 C46 1_555 1_555
H38 C47 1_555 1_555
C48 C47 1_555 1_555
C49 C48 1_555 1_555
H39 C49 1_555 1_555
C50 C45 1_555 1_555
H40 C50 1_555 1_555
C51 C37 1_555 1_555
C52 C51 1_555 1_555
H41 C52 1_555 1_555
C53 C52 1_555 1_555
H42 C53 1_555 1_555
C54 C53 1_555 1_555
C55 C54 1_555 1_555
H43 C55 1_555 1_555
C56 C51 1_555 1_555
H44 C56 1_555 1_555
C57 C37 1_555 1_555
C58 C57 1_555 1_555
H45 C58 1_555 1_555
C59 C58 1_555 1_555
H46 C59 1_555 1_555
C60 C59 1_555 1_555
C61 C60 1_555 1_555
H47 C61 1_555 1_555
C62 C57 1_555 1_555
H48 C62 1_555 1_555
C63 C42 1_555 1_555
H49 C63 1_555 1_555
C64 C48 1_555 1_555
H50 C64 1_555 1_555
C65 C54 1_555 1_555
H51 C65 1_555 1_555
C66 N6 1_555 1_555
H52 C66 1_555 1_555
H53 C66 1_555 1_555
C67 C60 1_555 1_555
H54 C67 1_555 1_555
C68 N5 1_555 1_555
H55 C68 1_555 1_555
H56 C68 1_555 1_555
C69 C68 1_555 1_555
H57 C69 1_555 1_555
H58 C69 1_555 1_555
C70 N4 1_555 1_555
H59 C70 1_555 1_555
H60 C70 1_555 1_555
C71 N4 1_555 1_555
H61 C71 1_555 1_555
H62 C71 1_555 1_555
C72 N11 1_555 1_555
H63 C72 1_555 1_555
H64 C72 1_555 1_555
C73 H65 1_555 1_555
H66 C73 1_555 1_555
C74 N3 1_555 1_555
H67 C74 1_555 1_555
H68 C74 1_555 1_555
C75 N11 1_555 1_555
H69 C75 1_555 1_555
H70 C75 1_555 1_555
C76 N12 1_555 1_555
H71 C76 1_555 1_555
H72 C76 1_555 1_555
N1A C28A 1_555 1_555
N3A C65A 1_555 1_555
N4A C69A 1_555 1_555
N5A C67A 1_555 1_555
N6A C63A 1_555 1_555
N8A C27A 1_555 1_555
N9A C29A 1_555 1_555
N10A C30A 1_555 1_555
N11A C35A 1_555 1_555
N12A C64A 1_555 1_555
C1A C2A 1_555 1_555
C2A C3A 1_555 1_555
C3A C4A 1_555 1_555
C4A H1A 1_555 1_555
C5A C4A 1_555 1_555
H2A C5A 1_555 1_555
C6A C5A 1_555 1_555
C7A C6A 1_555 1_555
H3A C7A 1_555 1_555
C8A C3A 1_555 1_555
H4A C8A 1_555 1_555
C9A C1A 1_555 1_555
C10A C9A 1_555 1_555
H5A C10A 1_555 1_555
C11A C10A 1_555 1_555
H6A C11A 1_555 1_555
C12A C11A 1_555 1_555
C13A C12A 1_555 1_555
H7A C13A 1_555 1_555
C14A C9A 1_555 1_555
H8A C14A 1_555 1_555
C15A C1A 1_555 1_555
C16A C15A 1_555 1_555
H9A C16A 1_555 1_555
C17A C16A 1_555 1_555
H10A C17A 1_555 1_555
C18A C17A 1_555 1_555
C19A C18A 1_555 1_555
H11A C19A 1_555 1_555
C20A C15A 1_555 1_555
H12A C20A 1_555 1_555
C21A C2A 1_555 1_555
C22A C21A 1_555 1_555
H13A C22A 1_555 1_555
C23A C22A 1_555 1_555
H14A C23A 1_555 1_555
C24A C23A 1_555 1_555
C25A C24A 1_555 1_555
H15A C25A 1_555 1_555
C26A C21A 1_555 1_555
H16A C26A 1_555 1_555
C27A C6A 1_555 1_555
H17A C27A 1_555 1_555
C28A C12A 1_555 1_555
H18A C28A 1_555 1_555
C29A C18A 1_555 1_555
H19A C29A 1_555 1_555
C30A C24A 1_555 1_555
H20A C30A 1_555 1_555
C31A N8A 1_555 1_555
H21A C31A 1_555 1_555
H22A C31A 1_555 1_555
C32A N1A 1_555 1_555
H23A C32A 1_555 1_555
H24A C32A 1_555 1_555
C33A N9A 1_555 1_555
H25A C33A 1_555 1_555
H26A C33A 1_555 1_555
C34A N10A 1_555 1_555
H27A C34A 1_555 1_555
H28A C34A 1_555 1_555
C35A C34A 1_555 1_555
H29A C35A 1_555 1_555
H30A C35A 1_555 1_555
C36A N7 1_555 1_555
H31A C36A 1_555 1_555
H32A C36A 1_555 1_555
C37A C38A 1_555 1_555
C38A C39A 1_555 1_555
C39A C40A 1_555 1_555
C40A H33A 1_555 1_555
C41A C40A 1_555 1_555
H34A C41A 1_555 1_555
C42A C41A 1_555 1_555
C43A C42A 1_555 1_555
H35A C43A 1_555 1_555
C44A C39A 1_555 1_555
H36A C44A 1_555 1_555
C45A C38A 1_555 1_555
C46A C45A 1_555 1_555
H37A C46A 1_555 1_555
C47A C46A 1_555 1_555
H38A C47A 1_555 1_555
C48A C47A 1_555 1_555
C49A C48A 1_555 1_555
H39A C49A 1_555 1_555
C50A C45A 1_555 1_555
H40A C50A 1_555 1_555
C51A C37A 1_555 1_555
C52A C51A 1_555 1_555
H41A C52A 1_555 1_555
C53A C52A 1_555 1_555
H42A C53A 1_555 1_555
C54A C53A 1_555 1_555
C55A C54A 1_555 1_555
H43A C55A 1_555 1_555
C56A C51A 1_555 1_555
H44A C56A 1_555 1_555
C57A C37A 1_555 1_555
C58A C57A 1_555 1_555
H45A C58A 1_555 1_555
C59A C58A 1_555 1_555
H46A C59A 1_555 1_555
C60A C59A 1_555 1_555
C61A C60A 1_555 1_555
H47A C61A 1_555 1_555
C62A C57A 1_555 1_555
H48A C62A 1_555 1_555
C63A C42A 1_555 1_555
H49A C63A 1_555 1_555
C64A C48A 1_555 1_555
H50A C64A 1_555 1_555
C65A C54A 1_555 1_555
H51A C65A 1_555 1_555
C66A N6A 1_555 1_555
H52A C66A 1_555 1_555
H53A C66A 1_555 1_555
C67A C60A 1_555 1_555
H54A C67A 1_555 1_555
C68A N5A 1_555 1_555
H55A C68A 1_555 1_555
H56A C68A 1_555 1_555
C69A C68A 1_555 1_555
H57A C69A 1_555 1_555
H58A C69A 1_555 1_555
C70A C76 1_555 1_555
H59A C70A 1_555 1_555
H60A C70A 1_555 1_555
C71A C33 1_555 1_555
H61A C71A 1_555 1_555
H62A C71A 1_555 1_555
C72A C32 1_555 1_555
H63A C72A 1_555 1_555
H64A C72A 1_555 1_555
C73A N2 1_555 1_555
H65A C73A 1_555 1_555
H66A C73A 1_555 1_555
C74A N3A 1_555 1_555
H67A C74A 1_555 1_555
H68A C74A 1_555 1_555
C75A N11A 1_555 1_555
H69A C75A 1_555 1_555
H70A C75A 1_555 1_555
C76A N12A 1_555 1_555
H71A C76A 1_555 1_555
H72A C76A 1_555 1_555
N1B C28B 1_555 1_555
N3B C65B 1_555 1_555
N4B C69B 1_555 1_555
N5B C67B 1_555 1_555
N6B C63B 1_555 1_555
N8B C27B 1_555 1_555
N9B C29B 1_555 1_555
N10B C30B 1_555 1_555
N11B C35B 1_555 1_555
N12B C64B 1_555 1_555
C1B C2B 1_555 1_555
C2B C3B 1_555 1_555
C3B C4B 1_555 1_555
C4B H1B 1_555 1_555
C5B C4B 1_555 1_555
H2B C5B 1_555 1_555
C6B C5B 1_555 1_555
C7B C6B 1_555 1_555
H3B C7B 1_555 1_555
C8B C3B 1_555 1_555
H4B C8B 1_555 1_555
C9B C1B 1_555 1_555
C10B C9B 1_555 1_555
H5B C10B 1_555 1_555
C11B C10B 1_555 1_555
H6B C11B 1_555 1_555
C12B C11B 1_555 1_555
C13B C12B 1_555 1_555
H7B C13B 1_555 1_555
C14B C9B 1_555 1_555
H8B C14B 1_555 1_555
C15B C1B 1_555 1_555
C16B C15B 1_555 1_555
H9B C16B 1_555 1_555
C17B C16B 1_555 1_555
H10B C17B 1_555 1_555
C18B C17B 1_555 1_555
C19B C18B 1_555 1_555
H11B C19B 1_555 1_555
C20B C15B 1_555 1_555
H12B C20B 1_555 1_555
C21B C2B 1_555 1_555
C22B C21B 1_555 1_555
H13B C22B 1_555 1_555
C23B C22B 1_555 1_555
H14B C23B 1_555 1_555
C24B C23B 1_555 1_555
C25B C24B 1_555 1_555
H15B C25B 1_555 1_555
C26B C21B 1_555 1_555
H16B C26B 1_555 1_555
C27B C6B 1_555 1_555
H17B C27B 1_555 1_555
C28B C12B 1_555 1_555
H18B C28B 1_555 1_555
C29B C18B 1_555 1_555
H19B C29B 1_555 1_555
C30B C24B 1_555 1_555
H20B C30B 1_555 1_555
C31B N8B 1_555 1_555
H21B C31B 1_555 1_555
H22B C31B 1_555 1_555
C32B C72 1_555 1_555
H23B C32B 1_555 1_555
H24B C32B 1_555 1_555
C33B C71 1_555 1_555
H25B C33B 1_555 1_555
H26B C33B 1_555 1_555
C34B N10B 1_555 1_555
H27B C34B 1_555 1_555
H28B C34B 1_555 1_555
C35B C34B 1_555 1_555
H29B C35B 1_555 1_555
H30B C35B 1_555 1_555
C36B N7 1_555 1_555
H31B C36B 1_555 1_555
H32B C36B 1_555 1_555
C37B C38B 1_555 1_555
C38B C39B 1_555 1_555
C39B C40B 1_555 1_555
C40B H33B 1_555 1_555
C41B C40B 1_555 1_555
H34B C41B 1_555 1_555
C42B C41B 1_555 1_555
C43B C42B 1_555 1_555
H35B C43B 1_555 1_555
C44B C39B 1_555 1_555
H36B C44B 1_555 1_555
C45B C38B 1_555 1_555
C46B C45B 1_555 1_555
H37B C46B 1_555 1_555
C47B C46B 1_555 1_555
H38B C47B 1_555 1_555
C48B C47B 1_555 1_555
C49B C48B 1_555 1_555
H39B C49B 1_555 1_555
C50B C45B 1_555 1_555
H40B C50B 1_555 1_555
C51B C37B 1_555 1_555
C52B C51B 1_555 1_555
H41B C52B 1_555 1_555
C53B C52B 1_555 1_555
H42B C53B 1_555 1_555
C54B C53B 1_555 1_555
C55B C54B 1_555 1_555
H43B C55B 1_555 1_555
C56B C51B 1_555 1_555
H44B C56B 1_555 1_555
C57B C37B 1_555 1_555
C58B C57B 1_555 1_555
H45B C58B 1_555 1_555
C59B C58B 1_555 1_555
H46B C59B 1_555 1_555
C60B C59B 1_555 1_555
C61B C60B 1_555 1_555
H47B C61B 1_555 1_555
C62B C57B 1_555 1_555
H48B C62B 1_555 1_555
C63B C42B 1_555 1_555
H49B C63B 1_555 1_555
C64B C48B 1_555 1_555
H50B C64B 1_555 1_555
C65B C54B 1_555 1_555
H51B C65B 1_555 1_555
C66B N6B 1_555 1_555
H52B C66B 1_555 1_555
H53B C66B 1_555 1_555
C67B C60B 1_555 1_555
H54B C67B 1_555 1_555
C68B N5B 1_555 1_555
H55B C68B 1_555 1_555
H56B C68B 1_555 1_555
C69B C68B 1_555 1_555
H57B C69B 1_555 1_555
H58B C69B 1_555 1_555
C70B C76A 1_555 1_555
H59B C70B 1_555 1_555
H60B C70B 1_555 1_555
C71B C33A 1_555 1_555
H61B C71B 1_555 1_555
H62B C71B 1_555 1_555
C72B C32A 1_555 1_555
H63B C72B 1_555 1_555
H64B C72B 1_555 1_555
C73B N2 1_555 1_555
H65B C73B 1_555 1_555
H66B C73B 1_555 1_555
C74B N3B 1_555 1_555
H67B C74B 1_555 1_555
H68B C74B 1_555 1_555
C75B N11B 1_555 1_555
H69B C75B 1_555 1_555
H70B C75B 1_555 1_555
C76B C70 1_555 1_555
H71B C76B 1_555 1_555
H72B C76B 1_555 1_555
C7 C8 1_555 1_555
C13 C14 1_555 1_555
C19 C20 1_555 1_555
C25 C26 1_555 1_555
C43 C44 1_555 1_555
C49 C50 1_555 1_555
C55 C56 1_555 1_555
C61 C62 1_555 1_555
C66 C75 1_555 1_555
C73 C74 1_555 1_555
N4A C70A 1_555 1_555
N4A C71A 1_555 1_555
N11A C72A 1_555 1_555
C7A C8A 1_555 1_555
C13A C14A 1_555 1_555
C19A C20A 1_555 1_555
C25A C26A 1_555 1_555
C31A C36A 1_555 1_555
C43A C44A 1_555 1_555
C49A C50A 1_555 1_555
C55A C56A 1_555 1_555
C61A C62A 1_555 1_555
C66A C75A 1_555 1_555
C73A C74A 1_555 1_555
N1B C32B 1_555 1_555
N4B C70B 1_555 1_555
N4B C71B 1_555 1_555
N9B C33B 1_555 1_555
N11B C72B 1_555 1_555
N12B C76B 1_555 1_555
C7B C8B 1_555 1_555
C13B C14B 1_555 1_555
C19B C20B 1_555 1_555
C25B C26B 1_555 1_555
C31B C36B 1_555 1_555
C43B C44B 1_555 1_555
C49B C50B 1_555 1_555
C55B C56B 1_555 1_555
C61B C62B 1_555 1_555
C66B C75B 1_555 1_555
C73B C74B 1_555 1_555

#END
