
#######################################################################
#
#                 Cambridge Crystallographic Data Centre
#                                CCDC 
#
#######################################################################
#
# If this CIF has been generated from an entry in the Cambridge 
# Structural Database, then it will include bibliographic, chemical, 
# crystal, experimental, refinement or atomic coordinate data resulting 
# from the CCDC's data processing and validation procedures.
#
#######################################################################

data_WESFEF
_chemical_formula_moiety         'C26 H22'
_chemical_name_systematic        
1,1,14,14-Tetramethyl-10,11-methano-1H-benzo(5,6)cyclo-octa(1,2,3,4-def)fluorene
_symmetry_cell_setting           monoclinic
_symmetry_space_group_name_H-M   'P 21/n'
_symmetry_Int_Tables_number      14
_space_group_name_Hall           '-P 2yn'
loop_
_symmetry_equiv_pos_site_id
_symmetry_equiv_pos_as_xyz
1 x,y,z
2 1/2-x,1/2+y,1/2-z
3 -x,-y,-z
4 1/2+x,1/2-y,1/2+z
_cell_length_a                   13.106(2)
_cell_length_b                   12.827(2)
_cell_length_c                   23.307(9)
_cell_angle_alpha                90
_cell_angle_beta                 102.77(2)
_cell_angle_gamma                90
_cell_volume                     3821.24
_exptl_crystal_colour            'light yellow'
_chemical_melting_point          215-217deg.C
_cell_formula_units_Z            8
loop_
_atom_site_label
_atom_site_type_symbol
_atom_site_fract_x
_atom_site_fract_y
_atom_site_fract_z
C1 C 0.7846(6) 0.4253(6) 0.4891(4)
C2 C 0.7434(6) 0.4266(6) 0.4310(4)
C3 C 0.6600(5) 0.4046(6) 0.3300(3)
C4 C 0.6176(6) 0.3517(7) 0.2787(3)
C5 C 0.6157(6) 0.2446(7) 0.2779(3)
C6 C 0.6630(5) 0.0761(6) 0.3362(3)
C7 C 0.7402(6) -0.0296(6) 0.4286(3)
C8 C 0.7882(6) -0.0302(6) 0.4878(3)
C9 C 0.8591(5) 0.0727(5) 0.5814(3)
C10 C 0.8884(6) 0.2403(7) 0.6425(3)
C11 C 0.8842(7) 0.3476(7) 0.6440(3)
C12 C 0.8493(6) 0.4008(6) 0.5923(3)
C13 C 0.7026(5) 0.3537(6) 0.3836(3)
C14 C 0.7009(5) 0.2440(6) 0.3833(3)
C15 C 0.6580(5) 0.1916(6) 0.3297(3)
C16 C 0.7160(5) 0.0646(6) 0.4001(3)
C17 C 0.7380(5) 0.1612(5) 0.4287(3)
C18 C 0.7852(5) 0.1605(5) 0.4894(3)
C19 C 0.8083(5) 0.0631(6) 0.5170(3)
C20 C 0.8559(5) 0.1885(6) 0.5894(3)
C21 C 0.8164(5) 0.2415(6) 0.5364(3)
C22 C 0.8147(5) 0.3512(6) 0.5372(3)
C23 C 0.5535(6) 0.0262(6) 0.3236(3)
C24 C 0.7304(6) 0.0265(6) 0.2964(3)
C25 C 0.7978(6) 0.0128(6) 0.6201(3)
C26 C 0.9732(6) 0.0335(6) 0.5932(3)
H1 H 0.7984 0.4952 0.5034
H2 H 0.7398 0.4967 0.4163
H3 H 0.6605 0.4794 0.3291
H4 H 0.5894 0.3899 0.2433
H5 H 0.5859 0.2072 0.2425
H6 H 0.7241 -0.0940 0.4076
H7 H 0.8072 -0.0949 0.5081
H8 H 0.9135 0.2015 0.6781
H9 H 0.9053 0.3846 0.6806
H10 H 0.8482 0.4756 0.5936
H11 H 0.5212 0.0343 0.2826
H12 H 0.5115 0.0599 0.3470
H13 H 0.5596 -0.0466 0.3332
H14 H 0.6953 0.0346 0.2559
H15 H 0.7401 -0.0464 0.3054
H16 H 0.7972 0.0605 0.3032
H17 H 0.8325 0.0206 0.6607
H18 H 0.7947 -0.0597 0.6098
H19 H 0.7582 0.0404 0.6141
H20 H 0.9738 -0.0407 0.5879
H21 H 1.0079 0.0505 0.6329
H22 H 1.0089 0.0665 0.5663
C27 C 0.9150(5) 0.7028(7) 0.4776(3)
C28 C 0.9632(5) 0.7014(7) 0.5343(3)
C29 C 1.0280(5) 0.6936(8) 0.6383(3)
C30 C 1.0229(6) 0.6859(9) 0.6960(3)
C31 C 0.9281(6) 0.6855(8) 0.7118(3)
C32 C 0.7299(5) 0.6909(6) 0.6778(3)
C33 C 0.5583(5) 0.6978(7) 0.6010(3)
C34 C 0.5090(5) 0.7007(7) 0.5426(3)
C35 C 0.5232(5) 0.7000(7) 0.4354(3)
C36 C 0.6236(5) 0.7044(6) 0.3525(3)
C37 C 0.7194(6) 0.7064(6) 0.3370(3)
C38 C 0.8094(5) 0.7056(6) 0.3801(3)
C39 C 0.9376(5) 0.6981(6) 0.5916(3)
C40 C 0.8402(5) 0.6967(6) 0.6080(3)
C41 C 0.8388(5) 0.6914(6) 0.6680(3)
C42 C 0.6656(5) 0.6969(6) 0.6157(3)
C43 C 0.7292(4) 0.6983(5) 0.5742(3)
C44 C 0.6781(4) 0.7007(6) 0.5144(3)
C45 C 0.5684(5) 0.7007(9) 0.5008(3)
C46 C 0.6211(5) 0.7017(6) 0.4115(3)
C47 C 0.7113(5) 0.7018(5) 0.4568(3)
C48 C 0.8096(5) 0.7031(6) 0.4409(3)
C49 C 0.7077(6) 0.5877(6) 0.7077(3)
C50 C 0.7103(6) 0.7845(6) 0.7153(3)
C51 C 0.4615(6) 0.5976(7) 0.4164(3)
C52 C 0.4539(5) 0.7958(7) 0.4159(3)
H23 H 0.9656 0.7041 0.4535
H24 H 1.0377 0.7032 0.5384
H25 H 1.0956 0.6962 0.6287
H26 H 1.0863 0.6809 0.7258
H27 H 0.9242 0.6811 0.7523
H28 H 0.5185 0.6966 0.6309
H29 H 0.4341 0.7030 0.5311
H30 H 0.5599 0.7048 0.3228
H31 H 0.7229 0.7084 0.2964
H32 H 0.8754 0.7067 0.3685
H33 H 0.6375 0.5887 0.7136
H34 H 0.7561 0.5808 0.7450
H35 H 0.7158 0.5298 0.6830
H36 H 0.6399 0.7819 0.7207
H37 H 0.7206 0.8482 0.6957
H38 H 0.7583 0.7818 0.7529
H39 H 0.3992 0.5968 0.4317
H40 H 0.5044 0.5388 0.4315
H41 H 0.4427 0.5939 0.3742
H42 H 0.4266 0.7929 0.3742
H43 H 0.4946 0.8580 0.4257
H44 H 0.3970 0.7961 0.4358
loop_
_geom_bond_atom_site_label_1
_geom_bond_atom_site_label_2
_geom_bond_site_symmetry_1
_geom_bond_site_symmetry_2
C1 C2 1_555 1_555
C2 C13 1_555 1_555
C3 C4 1_555 1_555
C4 C5 1_555 1_555
C5 C15 1_555 1_555
C6 C15 1_555 1_555
C7 C8 1_555 1_555
C8 C19 1_555 1_555
C9 C19 1_555 1_555
C10 C11 1_555 1_555
C11 C12 1_555 1_555
C12 C22 1_555 1_555
C13 C3 1_555 1_555
C14 C13 1_555 1_555
C15 C14 1_555 1_555
C16 C6 1_555 1_555
C17 C14 1_555 1_555
C18 C17 1_555 1_555
C19 C18 1_555 1_555
C20 C9 1_555 1_555
C21 C18 1_555 1_555
C22 C1 1_555 1_555
C23 C6 1_555 1_555
C24 C6 1_555 1_555
C25 C9 1_555 1_555
C26 C9 1_555 1_555
C27 C28 1_555 1_555
C28 C39 1_555 1_555
C29 C30 1_555 1_555
C30 C31 1_555 1_555
C31 C41 1_555 1_555
C32 C41 1_555 1_555
C33 C34 1_555 1_555
C34 C45 1_555 1_555
C35 C45 1_555 1_555
C36 C37 1_555 1_555
C37 C38 1_555 1_555
C38 C48 1_555 1_555
C39 C29 1_555 1_555
C40 C39 1_555 1_555
C41 C40 1_555 1_555
C42 C32 1_555 1_555
C43 C40 1_555 1_555
C44 C43 1_555 1_555
C45 C44 1_555 1_555
C46 C35 1_555 1_555
C47 C44 1_555 1_555
C48 C27 1_555 1_555
C49 C32 1_555 1_555
C50 C32 1_555 1_555
C51 C35 1_555 1_555
C52 C35 1_555 1_555
H1 C1 1_555 1_555
H2 C2 1_555 1_555
H3 C3 1_555 1_555
H4 C4 1_555 1_555
H5 C5 1_555 1_555
H6 C7 1_555 1_555
H7 C8 1_555 1_555
H8 C10 1_555 1_555
H9 C11 1_555 1_555
H10 C12 1_555 1_555
H11 C23 1_555 1_555
H12 C23 1_555 1_555
H13 C23 1_555 1_555
H14 C24 1_555 1_555
H15 C24 1_555 1_555
H16 C24 1_555 1_555
H17 C25 1_555 1_555
H18 C25 1_555 1_555
H19 C25 1_555 1_555
H20 C26 1_555 1_555
H21 C26 1_555 1_555
H22 C26 1_555 1_555
H23 C27 1_555 1_555
H24 C28 1_555 1_555
H25 C29 1_555 1_555
H26 C30 1_555 1_555
H27 C31 1_555 1_555
H28 C33 1_555 1_555
H29 C34 1_555 1_555
H30 C36 1_555 1_555
H31 C37 1_555 1_555
H32 C38 1_555 1_555
H33 C49 1_555 1_555
H34 C49 1_555 1_555
H35 C49 1_555 1_555
H36 C50 1_555 1_555
H37 C50 1_555 1_555
H38 C50 1_555 1_555
H39 C51 1_555 1_555
H40 C51 1_555 1_555
H41 C51 1_555 1_555
H42 C52 1_555 1_555
H43 C52 1_555 1_555
H44 C52 1_555 1_555
C7 C16 1_555 1_555
C10 C20 1_555 1_555
C16 C17 1_555 1_555
C20 C21 1_555 1_555
C21 C22 1_555 1_555
C33 C42 1_555 1_555
C36 C46 1_555 1_555
C42 C43 1_555 1_555
C46 C47 1_555 1_555
C47 C48 1_555 1_555

#END
