
#######################################################################
#
#                 Cambridge Crystallographic Data Centre
#                                CCDC 
#
#######################################################################
#
# If this CIF has been generated from an entry in the Cambridge 
# Structural Database, then it will include bibliographic, chemical, 
# crystal, experimental, refinement or atomic coordinate data resulting 
# from the CCDC's data processing and validation procedures.
#
#######################################################################

data_WESGUW
_chemical_name_common            (1!5$)Ketonand
_chemical_formula_moiety         'C35 H20 O5'
_chemical_name_systematic        
2,9,16,23,30-Pentaoxohexacyclo(29.4.0.0^3,8^.0^10,15^.0^17,22^.0^24,29^)penta-triaconta-1(31),3(8),4,6,10(15),11,13,17(22),18,20,24(29),25,27,32,34-pentadecaene
_symmetry_cell_setting           monoclinic
_symmetry_space_group_name_H-M   'P 21/c'
_symmetry_Int_Tables_number      14
_space_group_name_Hall           '-P 2ybc'
loop_
_symmetry_equiv_pos_site_id
_symmetry_equiv_pos_as_xyz
1 x,y,z
2 -x,1/2+y,1/2-z
3 -x,-y,-z
4 x,1/2-y,1/2+z
_cell_length_a                   14.636(4)
_cell_length_b                   8.903(2)
_cell_length_c                   19.238(6)
_cell_angle_alpha                90
_cell_angle_beta                 91.07(2)
_cell_angle_gamma                90
_cell_volume                     2506.36
_exptl_crystal_colour            white
_chemical_melting_point          350deg.C(dec.)
_cell_formula_units_Z            4
_chemical_properties_physical    
'Decomposes spontaneously in air when crystallized from dichloromethane'
loop_
_atom_site_label
_atom_site_type_symbol
_atom_site_fract_x
_atom_site_fract_y
_atom_site_fract_z
O1 O 0.1439(1) 0.5877(2) -0.2153(1)
O2 O 0.3486(1) 0.4749(2) -0.1672(1)
O3 O 0.3961(1) -0.0236(2) -0.0708(1)
O4 O 0.2348(1) 0.1525(2) -0.06974(8)
O5 O 0.0207(1) 0.3336(2) -0.09607(8)
C1 C 0.1676(2) 0.4906(3) -0.1742(1)
C2 C 0.1816(2) 0.3335(3) -0.2006(1)
C3 C 0.1068(2) 0.2581(3) -0.2295(1)
C4 C 0.1143(2) 0.1163(4) -0.2565(1)
C5 C 0.1968(2) 0.0418(3) -0.2547(1)
C6 C 0.2726(2) 0.1164(3) -0.2282(1)
C7 C 0.2677(2) 0.2611(3) -0.2019(1)
C8 C 0.3510(2) 0.3406(3) -0.1798(1)
C9 C 0.4434(2) 0.2668(3) -0.1806(1)
C10 C 0.5020(2) 0.3103(3) -0.2335(1)
C11 C 0.5879(2) 0.2538(3) -0.2386(1)
C12 C 0.6205(2) 0.1518(3) -0.1903(1)
C13 C 0.5643(2) 0.1066(3) -0.1380(1)
C14 C 0.4755(2) 0.1620(3) -0.1324(1)
C15 C 0.4202(2) 0.1064(3) -0.0723(1)
C16 C 0.4087(2) 0.2084(3) -0.0113(1)
C17 C 0.4844(2) 0.2840(3) 0.0130(1)
C18 C 0.4833(2) 0.3606(4) 0.0757(1)
C19 C 0.4055(2) 0.3632(3) 0.1136(1)
C20 C 0.3273(2) 0.2921(3) 0.0891(1)
C21 C 0.3273(2) 0.2161(3) 0.0264(1)
C22 C 0.2398(2) 0.1676(3) -0.0065(1)
C23 C 0.1550(2) 0.1493(3) 0.0333(1)
C24 C 0.1505(2) 0.0522(3) 0.0893(1)
C25 C 0.0675(2) 0.0205(3) 0.1195(1)
C26 C -0.0104(2) 0.0878(3) 0.0945(1)
C27 C -0.0074(2) 0.1860(3) 0.0392(1)
C28 C 0.0751(2) 0.2187(3) 0.0080(1)
C29 C 0.0774(2) 0.3337(3) -0.0487(1)
C30 C 0.1449(2) 0.4583(3) -0.0415(1)
C31 C 0.1629(2) 0.5132(3) 0.0250(1)
C32 C 0.2157(2) 0.6392(3) 0.0366(1)
C33 C 0.2493(2) 0.7145(3) -0.0197(2)
C34 C 0.2317(2) 0.6645(3) -0.0869(1)
C35 C 0.1805(2) 0.5356(3) -0.0989(1)
H1 H 0.139(1) 0.461(2) 0.063(1)
H2 H 0.194(1) -0.060(2) -0.275(1)
H3 H 0.255(1) 0.724(2) -0.126(1)
H4 H 0.202(1) 0.013(2) 0.104(1)
H5 H 0.284(1) 0.796(2) -0.013(1)
H6 H 0.536(1) 0.411(3) 0.091(1)
H7 H 0.536(1) 0.281(2) -0.013(1)
H8 H 0.331(1) 0.068(2) -0.230(1)
H9 H -0.066(2) 0.241(2) 0.020(1)
H10 H -0.062(1) 0.073(2) 0.115(1)
H11 H 0.069(1) -0.051(2) 0.155(1)
H12 H 0.479(1) 0.381(2) -0.264(1)
H13 H 0.683(1) 0.118(3) -0.194(1)
H14 H 0.048(1) 0.312(2) -0.228(1)
H15 H 0.629(1) 0.285(2) -0.274(1)
H16 H 0.270(1) 0.302(2) 0.114(1)
H17 H 0.063(1) 0.061(2) -0.280(1)
H18 H 0.402(1) 0.418(3) 0.154(1)
H19 H 0.225(1) 0.672(2) 0.086(1)
H20 H 0.582(1) 0.040(2) -0.108(1)
loop_
_geom_bond_atom_site_label_1
_geom_bond_atom_site_label_2
_geom_bond_site_symmetry_1
_geom_bond_site_symmetry_2
O1 C1 1_555 1_555
O2 C8 1_555 1_555
O3 C15 1_555 1_555
O4 C22 1_555 1_555
O5 C29 1_555 1_555
C1 C2 1_555 1_555
C2 C3 1_555 1_555
C3 C4 1_555 1_555
C4 C5 1_555 1_555
C5 C6 1_555 1_555
C6 C7 1_555 1_555
C7 C2 1_555 1_555
C8 C7 1_555 1_555
C9 C8 1_555 1_555
C10 C9 1_555 1_555
C11 C10 1_555 1_555
C12 C11 1_555 1_555
C13 C12 1_555 1_555
C14 C9 1_555 1_555
C15 C14 1_555 1_555
C16 C15 1_555 1_555
C17 C16 1_555 1_555
C18 C17 1_555 1_555
C19 C18 1_555 1_555
C20 C19 1_555 1_555
C21 C16 1_555 1_555
C22 C21 1_555 1_555
C23 C22 1_555 1_555
C24 C23 1_555 1_555
C25 C24 1_555 1_555
C26 C25 1_555 1_555
C27 C26 1_555 1_555
C28 C23 1_555 1_555
C29 C28 1_555 1_555
C30 C29 1_555 1_555
C31 C30 1_555 1_555
C32 C31 1_555 1_555
C33 C32 1_555 1_555
C34 C33 1_555 1_555
C35 C1 1_555 1_555
H1 C31 1_555 1_555
H2 C5 1_555 1_555
H3 C34 1_555 1_555
H4 C24 1_555 1_555
H5 C33 1_555 1_555
H6 C18 1_555 1_555
H7 C17 1_555 1_555
H8 C6 1_555 1_555
H9 C27 1_555 1_555
H10 C26 1_555 1_555
H11 C25 1_555 1_555
H12 C10 1_555 1_555
H13 C12 1_555 1_555
H14 C3 1_555 1_555
H15 C11 1_555 1_555
H16 C20 1_555 1_555
H17 C4 1_555 1_555
H18 C19 1_555 1_555
H19 C32 1_555 1_555
H20 C13 1_555 1_555
C13 C14 1_555 1_555
C20 C21 1_555 1_555
C27 C28 1_555 1_555
C30 C35 1_555 1_555
C34 C35 1_555 1_555

#END
