
#######################################################################
#
#                 Cambridge Crystallographic Data Centre
#                                CCDC 
#
#######################################################################
#
# If this CIF has been generated from an entry in the Cambridge 
# Structural Database, then it will include bibliographic, chemical, 
# crystal, experimental, refinement or atomic coordinate data resulting 
# from the CCDC's data processing and validation procedures.
#
#######################################################################

data_WESHAD
_chemical_name_common            (1!7$)Ketonand
_chemical_formula_moiety         'C49 H28 O7,C1 H4 O1'
_chemical_name_systematic        
'2,9,16,23,30,37,44-Heptaoxo-octacyclo(43.4.0.0^3,8^.0^10,15^.0^17,22^.0^24,29^.0^31,36^.0^ 8,43^)nonatetraconta-1(45),3(8),4,6,10(15),11,13,17(22),18,20,24(29),25,27,31(36),32,34,38(43),39,41,46,48-henicosaene methanol solvate'
_symmetry_cell_setting           triclinic
_symmetry_space_group_name_H-M   'P -1'
_symmetry_Int_Tables_number      2
_space_group_name_Hall           '-P 1'
loop_
_symmetry_equiv_pos_site_id
_symmetry_equiv_pos_as_xyz
1 x,y,z
2 -x,-y,-z
_cell_length_a                   9.313(1)
_cell_length_b                   12.048(2)
_cell_length_c                   17.324(2)
_cell_angle_alpha                99.52(1)
_cell_angle_beta                 92.84(1)
_cell_angle_gamma                93.84(1)
_cell_volume                     1909.1
_exptl_crystal_colour            white
_chemical_melting_point          252-253deg.C
_cell_formula_units_Z            2
loop_
_atom_site_label
_atom_site_type_symbol
_atom_site_fract_x
_atom_site_fract_y
_atom_site_fract_z
O1 O 0.2548(3) -0.2256(2) 0.1460(1)
O2 O 0.3092(2) -0.0110(2) 0.0705(1)
O3 O 0.1319(2) 0.1881(2) 0.1450(1)
O4 O 0.3229(3) 0.3503(2) 0.2745(1)
O5 O 0.1797(3) 0.3310(3) 0.4774(2)
O6 O 0.1383(2) 0.1410(2) 0.3261(1)
O7 O 0.0932(2) -0.1589(2) 0.3166(1)
C1 C 0.2222(3) -0.1338(2) 0.1756(1)
C2 C 0.3307(2) -0.0509(2) 0.2261(1)
C3 C 0.3824(3) -0.0773(2) 0.2967(2)
C4 C 0.4801(3) -0.0015(3) 0.3466(1)
C5 C 0.5241(3) 0.1005(3) 0.3258(2)
C6 C 0.4779(2) 0.1265(2) 0.2540(1)
C7 C 0.3835(2) 0.0503(2) 0.2031(1)
C8 C 0.3573(2) 0.0673(2) 0.1204(1)
C9 C 0.4153(3) 0.1756(2) 0.0963(1)
C10 C 0.5436(3) 0.1721(2) 0.0594(2)
C11 C 0.6072(3) 0.2694(3) 0.0371(2)
C12 C 0.5428(4) 0.3684(3) 0.0514(2)
C13 C 0.4108(3) 0.3722(2) 0.0854(2)
C14 C 0.3466(3) 0.2756(2) 0.1087(1)
C15 C 0.2000(3) 0.2742(2) 0.1399(1)
C16 C 0.1324(2) 0.3859(2) 0.1550(1)
C17 C 0.0282(4) 0.4060(3) 0.1000(2)
C18 C -0.0310(4) 0.5106(3) 0.1075(2)
C19 C 0.0142(3) 0.5942(2) 0.1706(2)
C20 C 0.1144(3) 0.5739(2) 0.2265(2)
C21 C 0.1755(2) 0.4702(2) 0.2202(1)
C22 C 0.2740(3) 0.4411(2) 0.2819(2)
C23 C 0.3131(3) 0.5217(2) 0.3577(2)
C24 C 0.4117(4) 0.6146(3) 0.3575(3)
C25 C 0.4670(4) 0.6780(3) 0.4275(4)
C26 C 0.4292(5) 0.6483(3) 0.4978(3)
C27 C 0.3305(4) 0.5557(3) 0.4987(2)
C28 C 0.2708(3) 0.4924(2) 0.4286(2)
C29 C 0.1628(3) 0.3942(2) 0.4314(2)
C30 C 0.0302(2) 0.3846(2) 0.3779(1)
C31 C -0.0341(3) 0.4816(2) 0.3674(2)
C32 C -0.1615(3) 0.4757(3) 0.3190(2)
C33 C -0.2198(3) 0.3730(3) 0.2804(2)
C34 C -0.1582(3) 0.2762(3) 0.2917(2)
C35 C -0.0345(2) 0.2799(2) 0.3408(1)
C36 C 0.0248(2) 0.1682(2) 0.3497(1)
C37 C -0.0687(2) 0.0906(2) 0.3886(1)
C38 C -0.1471(2) 0.1373(2) 0.4508(1)
C39 C -0.2178(3) 0.0687(3) 0.4969(1)
C40 C -0.2108(3) -0.0459(3) 0.4802(1)
C41 C -0.1345(3) -0.0943(2) 0.4176(1)
C42 C -0.0640(2) -0.0263(2) 0.3716(1)
C43 C 0.0141(2) -0.0866(2) 0.30431
C44 C -0.0204(2) -0.0683(2) 0.2225(1)
C45 C -0.1595(3) -0.0404(3) 0.2034(2)
C46 C -0.2065(4) -0.0459(3) 0.1265(2)
C47 C -0.1171(4) -0.0786(3) 0.0668(2)
C48 C 0.0201(3) -0.1068(2) 0.0846(1)
C49 C 0.0711(3) -0.1014(2) 0.1621(1)
H1 H -0.017(5) 0.662(4) 0.176(2)
H2 H 0.520(5) -0.007(4) 0.393(3)
H3 H 0.139(6) 0.629(4) 0.267(3)
H4 H -0.004(5) 0.350(4) 0.052(3)
H5 H 0.082(3) -0.119(3) 0.052(2)
H6 H -0.206(9) 0.539(7) 0.299(5)
H7 H 0.469(7) 0.680(5) 0.559(4)
H8 H 0.592(6) 0.146(4) 0.357(3)
H9 H -0.116(6) 0.521(5) 0.071(3)
H10 H -0.148(7) -0.077(6) 0.020(4)
H11 H 0.360(4) -0.134(3) 0.310(2)
H12 H 0.018(6) 0.546(4) 0.399(3)
H13 H -0.185(5) 0.219(4) 0.268(3)
H14 H -0.30(1) 0.363(9) 0.244(6)
H15 H -0.312(7) -0.026(5) 0.117(4)
H16 H 0.542(8) 0.746(6) 0.423(4)
H17 H -0.226(7) -0.032(5) 0.243(4)
H18 H 0.295(8) 0.535(6) 0.554(4)
H19 H 0.43(1) 0.630(8) 0.296(5)
H20 H 0.362(5) 0.433(4) 0.093(2)
H21 H -0.127(5) -0.173(3) 0.407(2)
H22 H -0.152(5) 0.219(4) 0.464(3)
H23 H -0.246(4) -0.093(3) 0.505(2)
H24 H 0.506(4) 0.194(3) 0.238(2)
H25 H 0.575(6) 0.109(5) 0.049(3)
H26 H -0.279(4) 0.092(3) 0.534(2)
H27 H 0.59(1) 0.438(8) 0.039(5)
H28 H 0.70(1) 0.27(1) 0.021(7)
O8 O 0.612(1) 0.695(1) 0.168(1)
C50 C 0.4819(5) 0.6374(3) 0.1690(4)
H29 H 0.68(2) 0.67(1) 0.11(1)
loop_
_geom_bond_atom_site_label_1
_geom_bond_atom_site_label_2
_geom_bond_site_symmetry_1
_geom_bond_site_symmetry_2
O1 C1 1_555 1_555
O2 C8 1_555 1_555
O3 C15 1_555 1_555
O4 C22 1_555 1_555
O5 C29 1_555 1_555
O6 C36 1_555 1_555
O7 C43 1_555 1_555
O8 C50 1_555 1_555
C1 C2 1_555 1_555
C2 C3 1_555 1_555
C3 C4 1_555 1_555
C4 C5 1_555 1_555
C5 C6 1_555 1_555
C6 C7 1_555 1_555
C7 C2 1_555 1_555
C8 C7 1_555 1_555
C9 C8 1_555 1_555
C10 C9 1_555 1_555
C11 C10 1_555 1_555
C12 C11 1_555 1_555
C13 C12 1_555 1_555
C14 C9 1_555 1_555
C15 C14 1_555 1_555
C16 C15 1_555 1_555
C17 C16 1_555 1_555
C18 C17 1_555 1_555
C19 C18 1_555 1_555
C20 C19 1_555 1_555
C21 C16 1_555 1_555
C22 C21 1_555 1_555
C23 C22 1_555 1_555
C24 C23 1_555 1_555
C25 C24 1_555 1_555
C26 C25 1_555 1_555
C27 C26 1_555 1_555
C28 C23 1_555 1_555
C29 C28 1_555 1_555
C30 C29 1_555 1_555
C31 C30 1_555 1_555
C32 C31 1_555 1_555
C33 C32 1_555 1_555
C34 C33 1_555 1_555
C35 C30 1_555 1_555
C36 C35 1_555 1_555
C37 C36 1_555 1_555
C38 C37 1_555 1_555
C39 C38 1_555 1_555
C40 C39 1_555 1_555
C41 C40 1_555 1_555
C42 C37 1_555 1_555
C43 C42 1_555 1_555
C44 C43 1_555 1_555
C45 C44 1_555 1_555
C46 C45 1_555 1_555
C47 C46 1_555 1_555
C48 C47 1_555 1_555
C49 C1 1_555 1_555
H1 C19 1_555 1_555
H2 C4 1_555 1_555
H3 C20 1_555 1_555
H4 C17 1_555 1_555
H5 C48 1_555 1_555
H6 C32 1_555 1_555
H7 C26 1_555 1_555
H8 C5 1_555 1_555
H9 C18 1_555 1_555
H10 C47 1_555 1_555
H11 C3 1_555 1_555
H12 C31 1_555 1_555
H13 C34 1_555 1_555
H14 C33 1_555 1_555
H15 C46 1_555 1_555
H16 C25 1_555 1_555
H17 C45 1_555 1_555
H18 C27 1_555 1_555
H19 C24 1_555 1_555
H20 C13 1_555 1_555
H21 C41 1_555 1_555
H22 C38 1_555 1_555
H23 C40 1_555 1_555
H24 C6 1_555 1_555
H25 C10 1_555 1_555
H26 C39 1_555 1_555
H27 C12 1_555 1_555
H28 C11 1_555 1_555
H29 O8 1_555 1_555
C13 C14 1_555 1_555
C20 C21 1_555 1_555
C27 C28 1_555 1_555
C34 C35 1_555 1_555
C41 C42 1_555 1_555
C44 C49 1_555 1_555
C48 C49 1_555 1_555

#END
