
#######################################################################
#
#                 Cambridge Crystallographic Data Centre
#                                CCDC 
#
#######################################################################
#
# If this CIF has been generated from an entry in the Cambridge 
# Structural Database, then it will include bibliographic, chemical, 
# crystal, experimental, refinement or atomic coordinate data resulting 
# from the CCDC's data processing and validation procedures.
#
#######################################################################

data_WESJAI
_chemical_formula_moiety         'C17 H19 Br1 N4 O7'
_chemical_name_systematic        
'diethyl 1-{1-[3-(4-bromophenyl)-4-nitro-1,2-oxazol-5-yl]ethyl}hydrazine-1,2-dicarboxylate'
_symmetry_cell_setting           monoclinic
_symmetry_space_group_name_H-M   'P 21'
_symmetry_Int_Tables_number      4
_space_group_name_Hall           'P 2yb'
loop_
_symmetry_equiv_pos_site_id
_symmetry_equiv_pos_as_xyz
1 x,y,z
2 -x,1/2+y,-z
_cell_length_a                   13.0370(15)
_cell_length_b                   5.6691(8)
_cell_length_c                   14.601(2)
_cell_angle_alpha                90
_cell_angle_beta                 102.753(12)
_cell_angle_gamma                90
_cell_volume                     1052.51
_exptl_crystal_colour            colorless
_exptl_crystal_description       needle
_cell_formula_units_Z            2
loop_
_atom_site_label
_atom_site_type_symbol
_atom_site_fract_x
_atom_site_fract_y
_atom_site_fract_z
Br1 Br 0.45001(3) 0.26250(11) 0.32642(3)
O1 O 0.95829(14) -0.2054(4) 0.71924(15)
O2 O 0.92589(17) 0.4158(5) 0.52921(19)
O3 O 1.08097(17) 0.3709(4) 0.6157(2)
O4 O 1.07903(17) 0.1929(4) 0.90606(17)
O5 O 1.14556(18) -0.1155(4) 0.99804(18)
O6 O 1.34911(15) -0.2413(5) 0.90955(16)
O7 O 1.29895(16) -0.6240(4) 0.9078(2)
N1 N 0.85427(18) -0.1892(5) 0.6622(2)
N2 N 0.9887(2) 0.3115(5) 0.5899(2)
N3 N 1.1422(2) -0.1277(4) 0.8455(2)
N4 N 1.1786(2) -0.3571(4) 0.8573(2)
H1 H 1.1366 -0.4746 0.8417
C1 C 0.7137(2) -0.0896(6) 0.4723(3)
H2 H 0.7466 -0.2335 0.4682
C2 C 0.6226(2) -0.0336(7) 0.4073(3)
H3 H 0.5945 -0.1384 0.3593
C3 C 0.5744(2) 0.1781(6) 0.4146(3)
C4 C 0.6137(2) 0.3323(6) 0.4853(3)
H4 H 0.5792 0.4737 0.4903
C5 C 0.7060(2) 0.2763(7) 0.5501(2)
H5 H 0.7336 0.3814 0.5981
C6 C 0.7562(2) 0.0664(6) 0.5433(2)
C7 C 0.8541(2) 0.0001(6) 0.6112(2)
C8 C 0.9547(2) 0.1079(6) 0.6325(2)
C9 C 1.0161(2) -0.0261(6) 0.6994(2)
C10 C 1.1291(2) -0.0143(6) 0.7531(2)
H6 H 1.1471 0.1527 0.7640
C11 C 1.2026(2) -0.1162(7) 0.6960(3)
H7 H 1.2740 -0.1012 0.7306
H8 H 1.1940 -0.0320 0.6377
H9 H 1.1864 -0.2798 0.6834
C12 C 1.1193(2) 0.0003(6) 0.9167(3)
C13 C 1.1308(3) 0.0106(8) 1.0806(3)
H10 H 1.0565 0.0291 1.0792
H11 H 1.1628 0.1657 1.0836
C14 C 1.2834(3) -0.3917(6) 0.8944(3)
C15 C 1.4069(2) -0.6961(7) 0.9438(3)
H12 H 1.4080 -0.8489 0.9739
H13 H 1.4414 -0.5836 0.9906
C16 C 1.4661(3) -0.7110(11) 0.8660(3)
H14 H 1.4590 -0.5647 0.8320
H15 H 1.4379 -0.8370 0.8241
H16 H 1.5392 -0.7406 0.8924
C17 C 1.1836(6) -0.1374(14) 1.1642(4)
H17 H 1.1587 -0.2969 1.1554
H18 H 1.1672 -0.0742 1.2203
H19 H 1.2584 -0.1348 1.1699
H20? H 1.0714 0.1169 1.0631
H21? H 1.1151 -0.1011 1.1259
C18? C 1.2230(13) 0.143(4) 1.1228(12)
H22? H 1.2845 0.0495 1.1236
H23? H 1.2201 0.1846 1.1859
H24? H 1.2260 0.2841 1.0870
loop_
_geom_bond_atom_site_label_1
_geom_bond_atom_site_label_2
_geom_bond_site_symmetry_1
_geom_bond_site_symmetry_2
Br1 C3 1_555 1_555
O1 N1 1_555 1_555
O2 N2 1_555 1_555
O3 N2 1_555 1_555
O4 C12 1_555 1_555
O5 C12 1_555 1_555
O6 C14 1_555 1_555
O7 C14 1_555 1_555
N1 C7 1_555 1_555
N2 C8 1_555 1_555
N3 N4 1_555 1_555
N4 H1 1_555 1_555
C1 H2 1_555 1_555
C2 C1 1_555 1_555
H3 C2 1_555 1_555
C3 C2 1_555 1_555
C4 C3 1_555 1_555
H4 C4 1_555 1_555
C5 C4 1_555 1_555
H5 C5 1_555 1_555
C6 C1 1_555 1_555
C7 C6 1_555 1_555
C8 C7 1_555 1_555
C9 O1 1_555 1_555
C10 N3 1_555 1_555
H6 C10 1_555 1_555
C11 C10 1_555 1_555
H7 C11 1_555 1_555
H8 C11 1_555 1_555
H9 C11 1_555 1_555
C12 N3 1_555 1_555
C13 O5 1_555 1_555
H10 C13 1_555 1_555
H11 C13 1_555 1_555
C14 N4 1_555 1_555
C15 O7 1_555 1_555
H12 C15 1_555 1_555
H13 C15 1_555 1_555
C16 C15 1_555 1_555
H14 C16 1_555 1_555
H15 C16 1_555 1_555
H16 C16 1_555 1_555
C17 C13 1_555 1_555
H17 C17 1_555 1_555
H18 C17 1_555 1_555
H19 C17 1_555 1_555
C5 C6 1_555 1_555
C8 C9 1_555 1_555
C9 C10 1_555 1_555

#END
