
#######################################################################
#
#                 Cambridge Crystallographic Data Centre
#                                CCDC 
#
#######################################################################
#
# If this CIF has been generated from an entry in the Cambridge 
# Structural Database, then it will include bibliographic, chemical, 
# crystal, experimental, refinement or atomic coordinate data resulting 
# from the CCDC's data processing and validation procedures.
#
#######################################################################

data_WESJUA
_chemical_formula_moiety         'C12 H11 N1 O2 S1'
_chemical_name_systematic        
'2,10b-Dihydro-1H-(1)benzothieno(3,2-c)azepine 6,6-dioxide'
_symmetry_cell_setting           monoclinic
_symmetry_space_group_name_H-M   'C c'
_symmetry_Int_Tables_number      9
_space_group_name_Hall           'C -2yc'
loop_
_symmetry_equiv_pos_site_id
_symmetry_equiv_pos_as_xyz
1 x,y,z
2 x,-y,1/2+z
3 1/2+x,1/2+y,z
4 1/2+x,1/2-y,1/2+z
_cell_length_a                   11.460(2)
_cell_length_b                   11.070(2)
_cell_length_c                   17.536(3)
_cell_angle_alpha                90
_cell_angle_beta                 100.395(10)
_cell_angle_gamma                90
_cell_volume                     2188.14
_exptl_crystal_colour            'pale yellow'
_exptl_crystal_description       'rhombus-shaped plate'
_cell_formula_units_Z            8
loop_
_atom_site_label
_atom_site_type_symbol
_atom_site_fract_x
_atom_site_fract_y
_atom_site_fract_z
S1 S 0.63687(6) 0.22425(9) 0.09298(4)
O1 O 0.7527(3) 0.2602(3) 0.07947(19)
O2 O 0.6097(3) 0.0974(2) 0.07885(17)
N1 N 0.3137(3) 0.4947(3) 0.01534(18)
H1 H 0.2377 0.5312 0.0213
C1 C 0.6150(4) 0.2653(3) 0.1861(2)
C2 C 0.6825(4) 0.2283(4) 0.2544(3)
H2 H 0.7477 0.175 0.255
C3 C 0.6525(5) 0.2712(4) 0.3235(3)
H3 H 0.7001 0.2507 0.3719
C4 C 0.5541(4) 0.3432(4) 0.3212(2)
H4 H 0.5331 0.3698 0.3684
C5 C 0.4864(4) 0.3770(4) 0.2526(2)
H5 H 0.4196 0.428 0.2521
C6 C 0.5150(3) 0.3368(3) 0.1831(2)
C7 C 0.4386(4) 0.3504(4) 0.1020(2)
H6 H 0.3679 0.2959 0.0952
C8 C 0.4023(5) 0.4819(5) 0.0860(3)
H7 H 0.3697 0.5142 0.1304
H8 H 0.4733 0.5301 0.081
C11 C 0.3327(4) 0.4715(4) -0.0556(2)
H12 H 0.2773 0.5066 -0.0964
C12 C 0.4198(3) 0.4048(3) -0.0784(2)
H13 H 0.422 0.4046 -0.1323
C13 C 0.5083(3) 0.3351(3) -0.0300(2)
H14 H 0.5644 0.2964 -0.0556
C14 C 0.5229(4) 0.3171(4) 0.0459(2)
S2 S 0.65184(7) 0.22671(8) 0.76414(4)
O3 O 0.6897(3) 0.1039(3) 0.77785(15)
O4 O 0.5332(3) 0.2519(3) 0.77819(19)
N2 N 0.9283(3) 0.5430(3) 0.83988(19)
H15 H 0.9809 0.6115 0.8361
C15 C 0.6645(4) 0.2759(3) 0.6704(2)
C16 C 0.6112(4) 0.2231(4) 0.6021(3)
H16 H 0.564 0.1525 0.6019
C17 C 0.6284(4) 0.2758(4) 0.5343(3)
H17 H 0.5932 0.2406 0.4862
C18 C 0.6960(4) 0.3796(4) 0.5346(2)
H18 H 0.7068 0.415 0.487
C19 C 0.7477(4) 0.4313(4) 0.6038(2)
H19 H 0.794 0.5025 0.604
C20 C 0.7319(3) 0.3792(3) 0.6740(2)
C21 C 0.7677(4) 0.4352(4) 0.7551(2)
H20 H 0.7157 0.5051 0.7626
C22 C 0.8993(5) 0.4716(5) 0.7691(3)
H21 H 0.9494 0.3981 0.7738
H22 H 0.9159 0.5193 0.7245
C25 C 0.9299(3) 0.5013(4) 0.9118(2)
H26 H 0.9753 0.547 0.9526
C26 C 0.8756(4) 0.4032(4) 0.9336(2)
H27 H 0.8924 0.3846 0.9874
C27 C 0.7949(3) 0.3225(3) 0.8858(2)
H28 H 0.7679 0.2553 0.9115
C28 C 0.7539(4) 0.3304(4) 0.8108(2)
C9? C 0.4849(13) 0.4068(10) 0.1043(4)
H9? H 0.5246 0.4874 0.1051
C10? C 0.3515(13) 0.4129(16) 0.0812(8)
H10? H 0.3203 0.3309 0.0673
H11? H 0.3173 0.441 0.1261
C23? C 0.8205(10) 0.3932(13) 0.7525(4)
H23? H 0.8997 0.3561 0.7512
C24? C 0.8286(14) 0.5255(13) 0.7738(8)
H24? H 0.8423 0.574 0.7288
H25? H 0.7534 0.5526 0.7885
loop_
_geom_bond_atom_site_label_1
_geom_bond_atom_site_label_2
_geom_bond_site_symmetry_1
_geom_bond_site_symmetry_2
S1 O1 1_555 1_555
O2 S1 1_555 1_555
N1 H1 1_555 1_555
C1 S1 1_555 1_555
C2 C1 1_555 1_555
H2 C2 1_555 1_555
C3 C2 1_555 1_555
H3 C3 1_555 1_555
C4 C3 1_555 1_555
H4 C4 1_555 1_555
C5 C4 1_555 1_555
H5 C5 1_555 1_555
C6 C1 1_555 1_555
C7 C6 1_555 1_555
H6 C7 1_555 1_555
C8 N1 1_555 1_555
H7 C8 1_555 1_555
H8 C8 1_555 1_555
C11 N1 1_555 1_555
H12 C11 1_555 1_555
C12 C11 1_555 1_555
H13 C12 1_555 1_555
C13 C12 1_555 1_555
H14 C13 1_555 1_555
C14 S1 1_555 1_555
S2 O3 1_555 1_555
O4 S2 1_555 1_555
N2 H15 1_555 1_555
C15 S2 1_555 1_555
C16 C15 1_555 1_555
H16 C16 1_555 1_555
C17 C16 1_555 1_555
H17 C17 1_555 1_555
C18 C17 1_555 1_555
H18 C18 1_555 1_555
C19 C18 1_555 1_555
H19 C19 1_555 1_555
C20 C15 1_555 1_555
C21 C20 1_555 1_555
H20 C21 1_555 1_555
C22 N2 1_555 1_555
H21 C22 1_555 1_555
H22 C22 1_555 1_555
C25 N2 1_555 1_555
H26 C25 1_555 1_555
C26 C25 1_555 1_555
H27 C26 1_555 1_555
C27 C26 1_555 1_555
H28 C27 1_555 1_555
C28 S2 1_555 1_555
C5 C6 1_555 1_555
C7 C8 1_555 1_555
C7 C14 1_555 1_555
C13 C14 1_555 1_555
C19 C20 1_555 1_555
C21 C22 1_555 1_555
C21 C28 1_555 1_555
C27 C28 1_555 1_555

#END
