
#######################################################################
#
#                 Cambridge Crystallographic Data Centre
#                                CCDC 
#
#######################################################################
#
# If this CIF has been generated from an entry in the Cambridge 
# Structural Database, then it will include bibliographic, chemical, 
# crystal, experimental, refinement or atomic coordinate data resulting 
# from the CCDC's data processing and validation procedures.
#
#######################################################################

data_WESMEN
_chemical_formula_moiety         'C29 H20 B1 Cl2 N1 O6,2(H2 O1)'
_chemical_name_systematic        
"7',11'-Dichloro-5',12'-dihydroxy-16'-methyl-5',15',16',17'-tetrahydro-3H-spiro(2-benzofuran-1,9'-xantheno(3,4-c)(2,6,1)benzoxaboronin)-3-one dihydrate"
_symmetry_cell_setting           monoclinic
_symmetry_space_group_name_H-M   'P 21/n'
_symmetry_Int_Tables_number      14
_space_group_name_Hall           '-P 2yn'
loop_
_symmetry_equiv_pos_site_id
_symmetry_equiv_pos_as_xyz
1 x,y,z
2 1/2-x,1/2+y,1/2-z
3 -x,-y,-z
4 1/2+x,1/2-y,1/2+z
_cell_length_a                   12.701(3)
_cell_length_b                   14.224(3)
_cell_length_c                   15.263(3)
_cell_angle_alpha                90
_cell_angle_beta                 91.56(3)
_cell_angle_gamma                90
_cell_volume                     2756.38
_exptl_crystal_colour            colorless
_exptl_crystal_description       block
_cell_formula_units_Z            4
loop_
_atom_site_label
_atom_site_type_symbol
_atom_site_fract_x
_atom_site_fract_y
_atom_site_fract_z
B1 B 0.9217(9) 0.6142(9) 0.8375(9)
C1 C 0.6079(8) 0.5478(7) 0.7561(7)
C2 C 0.7094(8) 0.5634(7) 0.7922(7)
C3 C 0.7337(8) 0.6492(7) 0.8314(6)
C4 C 0.6514(8) 0.7149(7) 0.8373(7)
C5 C 0.5533(8) 0.6984(7) 0.8037(7)
H1 H 0.5012 0.7438 0.8096
C6 C 0.5290(8) 0.6145(7) 0.7604(7)
C7 C 0.4204(8) 0.5911(8) 0.7243(7)
C8 C 0.4265(8) 0.5144(7) 0.6573(7)
C9 C 0.3469(9) 0.4994(7) 0.5931(7)
H2 H 0.2928 0.5431 0.5863
C10 C 0.3475(9) 0.4206(8) 0.5396(7)
C11 C 0.4306(9) 0.3530(8) 0.5489(7)
C12 C 0.5106(8) 0.3696(7) 0.6079(6)
H3 H 0.5668 0.3278 0.6127
C13 C 0.5084(8) 0.4493(7) 0.6613(7)
C14 C 0.7910(8) 0.4860(7) 0.7798(7)
H4 H 0.7595 0.4255 0.7924
H5 H 0.8122 0.4854 0.7193
C15 C 0.9782(9) 0.4559(8) 0.7919(8)
H6 H 1.0387 0.4477 0.8313
H7 H 0.9586 0.3954 0.7672
C16 C 1.0013(9) 0.5244(8) 0.7219(8)
C17 C 1.0493(9) 0.5030(10) 0.6438(9)
H8 H 1.0740 0.4428 0.6324
C18 C 1.0590(10) 0.5763(10) 0.5827(9)
H9 H 1.0909 0.5639 0.5299
C19 C 1.0238(10) 0.6636(10) 0.5981(8)
H10 H 1.0322 0.7106 0.5565
C20 C 0.9733(9) 0.6842(9) 0.6782(7)
H11 H 0.9467 0.7440 0.6883
C21 C 0.9642(8) 0.6139(8) 0.7413(7)
C22 C 0.8695(9) 0.4597(8) 0.9253(7)
H12 H 0.8637 0.3926 0.9206
H13 H 0.8056 0.4848 0.9481
H14 H 0.9276 0.4753 0.9642
C23 C 0.3554(7) 0.6768(7) 0.6991(7)
C24 C 0.3690(9) 0.7410(7) 0.6343(7)
H15 H 0.4242 0.7341 0.5960
C25 C 0.3015(10) 0.8158(8) 0.6252(9)
H16 H 0.3084 0.8583 0.5794
C26 C 0.2218(10) 0.8270(9) 0.6862(10)
H17 H 0.1797 0.8805 0.6837
C27 C 0.2045(9) 0.7598(9) 0.7504(9)
H18 H 0.1493 0.7653 0.7889
C28 C 0.2727(8) 0.6848(7) 0.7545(7)
C29 C 0.2765(8) 0.6034(8) 0.8110(6)
Cl1 Cl 0.6809(2) 0.81882(18) 0.89199(19)
Cl2 Cl 0.2484(3) 0.4031(3) 0.4609(2)
N1 N 0.8872(6) 0.4998(6) 0.8389(6)
O1 O 0.5937(5) 0.4610(5) 0.7172(5)
O2 O 0.8292(5) 0.6692(5) 0.8627(4)
O3 O 0.4244(6) 0.2747(5) 0.4996(5)
H19 H 0.4542 0.2313 0.5256
O4 O 0.3593(5) 0.5502(5) 0.7992(5)
O5 O 0.2097(6) 0.5796(5) 0.8716(5)
O6 O 1.0004(5) 0.6290(5) 0.9046(4)
H20 H 1.0570 0.6084 0.8885
O7 O 0.4098(5) 0.4342(5) 0.9980(4)
O8 O 0.6013(8) 0.3839(8) 0.9643(7)
loop_
_geom_bond_atom_site_label_1
_geom_bond_atom_site_label_2
_geom_bond_site_symmetry_1
_geom_bond_site_symmetry_2
B1 C21 1_555 1_555
C1 C2 1_555 1_555
C2 C3 1_555 1_555
C3 C4 1_555 1_555
C4 C5 1_555 1_555
C5 H1 1_555 1_555
C6 C1 1_555 1_555
C7 C6 1_555 1_555
C8 C7 1_555 1_555
C9 C8 1_555 1_555
H2 C9 1_555 1_555
C10 C9 1_555 1_555
C11 C10 1_555 1_555
C12 C11 1_555 1_555
H3 C12 1_555 1_555
C13 C8 1_555 1_555
C14 C2 1_555 1_555
H4 C14 1_555 1_555
H5 C14 1_555 1_555
C15 H6 1_555 1_555
H7 C15 1_555 1_555
C16 C15 1_555 1_555
C17 C16 1_555 1_555
H8 C17 1_555 1_555
C18 C17 1_555 1_555
H9 C18 1_555 1_555
C19 C18 1_555 1_555
H10 C19 1_555 1_555
C20 C19 1_555 1_555
H11 C20 1_555 1_555
C21 C16 1_555 1_555
C22 H12 1_555 1_555
H13 C22 1_555 1_555
H14 C22 1_555 1_555
C23 C7 1_555 1_555
C24 C23 1_555 1_555
H15 C24 1_555 1_555
C25 C24 1_555 1_555
H16 C25 1_555 1_555
C26 C25 1_555 1_555
H17 C26 1_555 1_555
C27 C26 1_555 1_555
H18 C27 1_555 1_555
C28 C23 1_555 1_555
C29 C28 1_555 1_555
Cl1 C4 1_555 1_555
Cl2 C10 1_555 1_555
N1 C14 1_555 1_555
O1 C1 1_555 1_555
O2 B1 1_555 1_555
O3 C11 1_555 1_555
H19 O3 1_555 1_555
O4 C7 1_555 1_555
O5 C29 1_555 1_555
O6 B1 1_555 1_555
H20 O6 1_555 1_555
C3 O2 1_555 1_555
C5 C6 1_555 1_555
C12 C13 1_555 1_555
C13 O1 1_555 1_555
C15 N1 1_555 1_555
C20 C21 1_555 1_555
C22 N1 1_555 1_555
C27 C28 1_555 1_555
C29 O4 1_555 1_555

#END
