
#######################################################################
#
#                 Cambridge Crystallographic Data Centre
#                                CCDC 
#
#######################################################################
#
# If this CIF has been generated from an entry in the Cambridge 
# Structural Database, then it will include bibliographic, chemical, 
# crystal, experimental, refinement or atomic coordinate data resulting 
# from the CCDC's data processing and validation procedures.
#
#######################################################################

data_WESTIX
_chemical_formula_moiety         'C10 H22 O2'
_chemical_name_systematic        1,10-Decanediol
_symmetry_cell_setting           monoclinic
_symmetry_space_group_name_H-M   'P 21/c'
_symmetry_Int_Tables_number      14
_space_group_name_Hall           '-P 2ybc'
loop_
_symmetry_equiv_pos_site_id
_symmetry_equiv_pos_as_xyz
1 x,y,z
2 -x,1/2+y,1/2-z
3 -x,-y,-z
4 x,1/2-y,1/2+z
_cell_length_a                   4.799(6)
_cell_length_b                   5.113(3)
_cell_length_c                   21.029(4)
_cell_angle_alpha                90
_cell_angle_beta                 93.37(50)
_cell_angle_gamma                90
_cell_volume                     515.102
_cell_formula_units_Z            2
loop_
_atom_site_label
_atom_site_type_symbol
_atom_site_fract_x
_atom_site_fract_y
_atom_site_fract_z
C1 C 0.44834(72) 0.13052(62) 0.48647(15)
C2 C 0.23185(72) 0.10566(68) 0.42855(14)
C3 C 0.12767(74) 0.36950(68) 0.40199(15)
C4 C -0.09124(77) 0.34254(65) 0.34466(14)
C5 C -0.19054(77) 0.60768(68) 0.31941(14)
O1 O -0.40171(63) 0.56399(51) 0.26707(12)
H1 H 0.6091(82) 0.2244(74) 0.4753(16)
H2 H 0.3719(80) 0.2264(78) 0.5220(18)
H3 H 0.3140(66) -0.0010(65) 0.3948(15)
H4 H 0.0757(84) -0.0074(80) 0.4424(17)
H5 H 0.0453(70) 0.4750(70) 0.4370(16)
H6 H 0.2935(80) 0.4769(74) 0.3877(16)
H7 H -0.0175(69) 0.2529(68) 0.3095(15)
H8 H -0.2614(84) 0.2543(75) 0.3572(16)
H9 H -0.2636(76) 0.7089(72) 0.3540(16)
H10 H -0.0276(80) 0.7082(75) 0.3037(17)
H11 H -0.465(14) 0.690(13) 0.2531(29)
C1B C 0.55166(72) -0.13052(62) 0.51353(15)
C2B C 0.76815(72) -0.10566(68) 0.57145(14)
H1B H 0.3909(82) -0.2244(74) 0.5247(16)
H2B H 0.6281(80) -0.2264(78) 0.4780(18)
C3B C 0.87233(74) -0.36950(68) 0.59801(15)
H3B H 0.6860(66) 0.0010(65) 0.6052(15)
H4B H 0.9243(84) 0.0074(80) 0.5576(17)
C4B C 1.09124(77) -0.34254(65) 0.65534(14)
H5B H 0.9547(70) -0.4750(70) 0.5630(16)
H6B H 0.7065(80) -0.4769(74) 0.6123(16)
C5B C 1.19054(77) -0.60768(68) 0.68059(14)
H7B H 1.0175(69) -0.2529(68) 0.6905(15)
H8B H 1.2614(84) -0.2543(75) 0.6428(16)
O1B O 1.40171(63) -0.56399(51) 0.73293(12)
H9B H 1.2636(76) -0.7089(72) 0.6460(16)
H10B H 1.0276(80) -0.7082(75) 0.6963(17)
H11B H 1.465(14) -0.690(13) 0.7469(29)
loop_
_geom_bond_atom_site_label_1
_geom_bond_atom_site_label_2
_geom_bond_site_symmetry_1
_geom_bond_site_symmetry_2
C1 C2 1_555 1_555
C2 C3 1_555 1_555
C3 C4 1_555 1_555
C4 C5 1_555 1_555
C5 O1 1_555 1_555
O1 H11 1_555 1_555
H1 C1 1_555 1_555
H2 C1 1_555 1_555
H3 C2 1_555 1_555
H4 C2 1_555 1_555
H5 C3 1_555 1_555
H6 C3 1_555 1_555
H7 C4 1_555 1_555
H8 C4 1_555 1_555
H9 C5 1_555 1_555
H10 C5 1_555 1_555
C1B C1 1_555 1_555
C2B C1B 1_555 1_555
H1B C1B 1_555 1_555
H2B C1B 1_555 1_555
C3B C2B 1_555 1_555
H3B C2B 1_555 1_555
H4B C2B 1_555 1_555
C4B C3B 1_555 1_555
H5B C3B 1_555 1_555
H6B C3B 1_555 1_555
C5B C4B 1_555 1_555
H7B C4B 1_555 1_555
H8B C4B 1_555 1_555
O1B C5B 1_555 1_555
H9B C5B 1_555 1_555
H10B C5B 1_555 1_555
H11B O1B 1_555 1_555

#END
