
#######################################################################
#
#                 Cambridge Crystallographic Data Centre
#                                CCDC 
#
#######################################################################
#
# If this CIF has been generated from an entry in the Cambridge 
# Structural Database, then it will include bibliographic, chemical, 
# crystal, experimental, refinement or atomic coordinate data resulting 
# from the CCDC's data processing and validation procedures.
#
#######################################################################

data_WESTET
_chemical_formula_moiety         'C9 H20 O2'
_chemical_name_systematic        1,9-Nonanediol
_symmetry_cell_setting           orthorhombic
_symmetry_space_group_name_H-M   'P 21 21 21'
_symmetry_Int_Tables_number      19
_space_group_name_Hall           'P 2ac 2ab'
loop_
_symmetry_equiv_pos_site_id
_symmetry_equiv_pos_as_xyz
1 x,y,z
2 1/2+x,1/2-y,-z
3 -x,1/2+y,1/2-z
4 1/2-x,-y,1/2+z
_cell_length_a                   6.878(1)
_cell_length_b                   27.479(3)
_cell_length_c                   5.076(1)
_cell_angle_alpha                90
_cell_angle_beta                 90
_cell_angle_gamma                90
_cell_volume                     959.367
_cell_formula_units_Z            4
loop_
_atom_site_label
_atom_site_type_symbol
_atom_site_fract_x
_atom_site_fract_y
_atom_site_fract_z
C1 C 0.02154(32) 0.20618(7) 0.08778(41)
C2 C -0.04436(34) 0.15863(7) -0.03491(39)
C3 C 0.04281(32) 0.11341(6) 0.09174(40)
C4 C -0.03799(33) 0.06650(7) -0.02596(38)
C5 C 0.04595(30) 0.02015(7) 0.09300(38)
C6 C -0.04134(31) -0.02578(5) -0.02637(37)
C7 C 0.04174(31) -0.07315(6) 0.08350(39)
C8 C -0.04992(34) -0.11766(7) -0.04328(40)
C9 C 0.02989(33) -0.16556(6) 0.05738(41)
O1 O -0.03787(24) 0.21056(5) 0.35759(28)
O2 O -0.06717(22) -0.20398(5) -0.07781(31)
H1 H 0.1626(34) 0.20796(81) 0.0991(51)
H2 H -0.0265(36) 0.23230(75) -0.0096(45)
H3 H -0.0033(34) 0.16007(74) -0.2181(45)
H4 H -0.1834(36) 0.15660(82) -0.0300(51)
H5 H 0.0118(31) 0.11463(69) 0.2832(40)
H6 H 0.1794(31) 0.11393(72) 0.0739(45)
H7 H -0.1727(34) 0.06677(79) -0.0069(46)
H8 H -0.0098(33) 0.06712(77) -0.2175(43)
H9 H 0.1851(33) 0.02056(81) 0.0695(46)
H10 H 0.0210(33) 0.02051(82) 0.2818(43)
H11 H -0.0202(32) -0.02489(82) -0.2137(42)
H12 H -0.1788(32) -0.02508(82) 0.0050(45)
H13 H 0.0193(38) -0.07356(83) 0.2715(50)
H14 H 0.1824(36) -0.07308(82) 0.0561(51)
H15 H -0.1851(35) -0.11727(82) -0.0147(49)
H16 H -0.0364(39) -0.11578(86) -0.2322(50)
H17 H 0.1709(34) -0.16724(77) 0.0230(48)
H18 H 0.0142(34) -0.16796(73) 0.2406(45)
H19 H -0.1506(40) 0.20770(91) 0.3652(55)
H20 H -0.0294(40) -0.22930(87) -0.0199(50)
loop_
_geom_bond_atom_site_label_1
_geom_bond_atom_site_label_2
_geom_bond_site_symmetry_1
_geom_bond_site_symmetry_2
C1 C2 1_555 1_555
C2 C3 1_555 1_555
C3 C4 1_555 1_555
C4 C5 1_555 1_555
C5 C6 1_555 1_555
C6 C7 1_555 1_555
C7 C8 1_555 1_555
C8 C9 1_555 1_555
C9 O2 1_555 1_555
O1 C1 1_555 1_555
O2 H20 1_555 1_555
H1 C1 1_555 1_555
H2 C1 1_555 1_555
H3 C2 1_555 1_555
H4 C2 1_555 1_555
H5 C3 1_555 1_555
H6 C3 1_555 1_555
H7 C4 1_555 1_555
H8 C4 1_555 1_555
H9 C5 1_555 1_555
H10 C5 1_555 1_555
H11 C6 1_555 1_555
H12 C6 1_555 1_555
H13 C7 1_555 1_555
H14 C7 1_555 1_555
H15 C8 1_555 1_555
H16 C8 1_555 1_555
H17 C9 1_555 1_555
H18 C9 1_555 1_555
H19 O1 1_555 1_555

#END
