
#######################################################################
#
#                 Cambridge Crystallographic Data Centre
#                                CCDC 
#
#######################################################################
#
# If this CIF has been generated from an entry in the Cambridge 
# Structural Database, then it will include bibliographic, chemical, 
# crystal, experimental, refinement or atomic coordinate data resulting 
# from the CCDC's data processing and validation procedures.
#
#######################################################################

data_WESVOG
_chemical_formula_moiety         'C28 H28 F12 N4 O2,C1 H4 O1'
_chemical_name_systematic        
"N-(3,5-bis(trifluoromethyl)phenyl)-N'-((1R,3S)-3-(((((3,5-bis(trifluoromethyl)phenyl)amino)carbonyl)amino)methyl)-3,5,5-trimethylcyclohexyl)urea methanol solvate"
_symmetry_cell_setting           orthorhombic
_symmetry_space_group_name_H-M   'P 21 21 21'
_symmetry_Int_Tables_number      19
_space_group_name_Hall           'P 2ac 2ab'
loop_
_symmetry_equiv_pos_site_id
_symmetry_equiv_pos_as_xyz
1 x,y,z
2 1/2-x,-y,1/2+z
3 1/2+x,1/2-y,-z
4 -x,1/2+y,1/2-z
_cell_length_a                   10.0545(8)
_cell_length_b                   15.0943(13)
_cell_length_c                   21.3967(15)
_cell_angle_alpha                90
_cell_angle_beta                 90
_cell_angle_gamma                90
_cell_volume                     3247.28
_exptl_crystal_colour            colorless
_exptl_crystal_description       plate
_cell_formula_units_Z            4
loop_
_atom_site_label
_atom_site_type_symbol
_atom_site_fract_x
_atom_site_fract_y
_atom_site_fract_z
F1 F 0.4814(5) -0.0657(3) 0.14748(17)
F2 F 0.5901(5) -0.1606(4) 0.19573(17)
F3 F 0.4104(5) -0.1946(3) 0.15698(18)
F4 F 0.650(3) -0.4397(7) 0.0502(11)
F5 F 0.654(4) -0.4100(8) -0.0435(12)
F6 F 0.8269(12) -0.4060(8) 0.0089(14)
F10 F 1.5136(3) 0.49018(19) -0.36215(12)
F11 F 1.5691(3) 0.62728(18) -0.36904(13)
F12 F 1.7059(4) 0.5344(2) -0.32952(13)
F13 F 1.4608(3) 0.76031(18) -0.09268(13)
F14 F 1.6112(4) 0.7959(2) -0.15804(13)
F15 F 1.4075(5) 0.8163(2) -0.18062(17)
O1 O 0.7773(4) 0.0426(2) 0.01116(13)
O2 O 1.2975(4) 0.3466(2) -0.21072(13)
N1 N 0.7763(5) 0.0643(3) -0.0934(2)
N2 N 0.7389(5) -0.0747(3) -0.0534(2)
N3 N 1.2520(5) 0.3266(3) -0.10683(18)
N4 N 1.3558(5) 0.4523(3) -0.1388(2)
C1 C 0.8251(6) 0.1565(3) -0.0904(2)
C2 C 0.9745(6) 0.1589(3) -0.0972(2)
C3 C 1.0330(5) 0.2518(3) -0.0937(2)
C4 C 0.9575(6) 0.3122(3) -0.1403(2)
C5 C 0.8051(6) 0.3110(3) -0.1391(2)
C6 C 0.7599(7) 0.2131(4) -0.1408(3)
C7 C 1.1783(6) 0.2437(3) -0.1126(2)
C8 C 1.0259(6) 0.2879(3) -0.0253(2)
H1 H 1.0893 0.2556 0.0009
H2 H 0.9357 0.2797 -0.0089
H3 H 1.0482 0.3511 -0.0251
C9 C 0.7556(6) 0.3550(4) -0.1992(3)
H4 H 0.6584 0.3514 -0.2010
H5 H 0.7938 0.3245 -0.2354
H6 H 0.7830 0.4173 -0.1996
C10 C 0.7436(6) 0.3613(4) -0.0849(3)
H7 H 0.7810 0.4212 -0.0832
H8 H 0.7631 0.3302 -0.0457
H9 H 0.6471 0.3649 -0.0908
C11 C 0.7653(6) 0.0133(3) -0.0428(2)
C12 C 1.2997(5) 0.3736(3) -0.1557(2)
C13 C 0.6980(5) -0.1365(3) -0.0078(2)
C14 C 0.6282(6) -0.1110(4) 0.0456(2)
C15 C 0.5874(6) -0.1748(3) 0.0873(2)
C16 C 0.6093(7) -0.2639(4) 0.0771(3)
C17 C 0.6781(6) -0.2892(3) 0.0227(3)
C18 C 0.7233(6) -0.2259(3) -0.0191(2)
C19 C 0.5165(8) -0.1482(4) 0.1453(3)
C20 C 0.6993(10) -0.3853(4) 0.0095(3)
C21 C 1.4143(5) 0.5177(3) -0.1757(2)
C22 C 1.4624(6) 0.5034(3) -0.2361(2)
C23 C 1.5211(5) 0.5736(3) -0.2679(2)
C24 C 1.5315(6) 0.6568(4) -0.2417(2)
C25 C 1.4838(5) 0.6700(3) -0.1820(2)
C26 C 1.4256(5) 0.6020(3) -0.1497(2)
C27 C 1.5763(6) 0.5555(3) -0.3313(2)
C28 C 1.4899(7) 0.7593(4) -0.1532(3)
H13 H 0.786(4) 0.178(3) -0.047(2)
H14 H 0.997(5) 0.132(3) -0.135(2)
H15 H 1.008(5) 0.110(3) -0.065(2)
H16 H 0.987(4) 0.295(2) -0.1806(17)
H17 H 0.984(4) 0.379(3) -0.1311(18)
H18 H 0.792(4) 0.183(3) -0.187(2)
H19 H 0.677(5) 0.213(3) -0.135(2)
H20 H 1.225(4) 0.193(3) -0.0841(19)
H21 H 1.189(5) 0.230(3) -0.160(2)
H22 H 0.619(4) -0.042(3) 0.0485(19)
H23 H 0.582(5) -0.305(3) 0.107(2)
H24 H 0.782(5) -0.250(3) -0.053(2)
H25 H 1.453(4) 0.441(3) -0.2574(18)
H26 H 1.576(5) 0.701(3) -0.2610(19)
H27 H 1.396(5) 0.614(3) -0.107(2)
H28 H 0.762(5) 0.047(3) -0.129(2)
H29 H 0.761(5) -0.094(3) -0.090(2)
H30 H 1.250(5) 0.362(3) -0.071(2)
H31 H 1.354(4) 0.464(3) -0.1049(17)
O3 O 1.8183(5) 0.9241(3) -0.18620(16)
C29 C 1.9540(7) 0.9328(4) -0.2023(3)
H10 H 1.9620 0.9690 -0.2402
H11 H 1.9921 0.8741 -0.2100
H12 H 2.0020 0.9615 -0.1680
H32 H 1.783(9) 0.900(5) -0.218(4)
F7? F 0.5830(17) -0.4261(12) -0.0018(17)
F8? F 0.764(5) -0.3969(10) -0.0431(16)
F9? F 0.747(5) -0.4268(11) 0.0529(14)
loop_
_geom_bond_atom_site_label_1
_geom_bond_atom_site_label_2
_geom_bond_site_symmetry_1
_geom_bond_site_symmetry_2
F1 C19 1_555 1_555
F2 C19 1_555 1_555
F3 C19 1_555 1_555
F4 C20 1_555 1_555
F5 C20 1_555 1_555
F6 C20 1_555 1_555
F10 C27 1_555 1_555
F11 C27 1_555 1_555
F12 C27 1_555 1_555
F13 C28 1_555 1_555
F14 C28 1_555 1_555
F15 C28 1_555 1_555
O1 C11 1_555 1_555
O2 C12 1_555 1_555
N1 C1 1_555 1_555
N2 C11 1_555 1_555
N3 C7 1_555 1_555
N4 C12 1_555 1_555
C1 C2 1_555 1_555
C2 C3 1_555 1_555
C3 C4 1_555 1_555
C4 C5 1_555 1_555
C5 C6 1_555 1_555
C6 C1 1_555 1_555
C7 C3 1_555 1_555
C8 C3 1_555 1_555
H1 C8 1_555 1_555
H2 C8 1_555 1_555
H3 C8 1_555 1_555
C9 C5 1_555 1_555
H4 C9 1_555 1_555
H5 C9 1_555 1_555
H6 C9 1_555 1_555
C10 C5 1_555 1_555
H7 C10 1_555 1_555
H8 C10 1_555 1_555
H9 C10 1_555 1_555
C11 N1 1_555 1_555
C12 N3 1_555 1_555
C13 N2 1_555 1_555
C14 C13 1_555 1_555
C15 C14 1_555 1_555
C16 C15 1_555 1_555
C17 C16 1_555 1_555
C18 C13 1_555 1_555
C19 C15 1_555 1_555
C20 C17 1_555 1_555
C21 N4 1_555 1_555
C22 C21 1_555 1_555
C23 C22 1_555 1_555
C24 C23 1_555 1_555
C25 C24 1_555 1_555
C26 C21 1_555 1_555
C27 C23 1_555 1_555
C28 C25 1_555 1_555
O3 C29 1_555 1_555
C29 H10 1_555 1_555
H11 C29 1_555 1_555
H12 C29 1_555 1_555
H13 C1 1_555 1_555
H14 C2 1_555 1_555
H15 C2 1_555 1_555
H16 C4 1_555 1_555
H17 C4 1_555 1_555
H18 C6 1_555 1_555
H19 C6 1_555 1_555
H20 C7 1_555 1_555
H21 C7 1_555 1_555
H22 C14 1_555 1_555
H23 C16 1_555 1_555
H24 C18 1_555 1_555
H25 C22 1_555 1_555
H26 C24 1_555 1_555
H27 C26 1_555 1_555
H28 N1 1_555 1_555
H29 N2 1_555 1_555
H30 N3 1_555 1_555
H31 N4 1_555 1_555
H32 O3 1_555 1_555
C17 C18 1_555 1_555
C25 C26 1_555 1_555

#END
