
#######################################################################
#
#                 Cambridge Crystallographic Data Centre
#                                CCDC 
#
#######################################################################
#
# If this CIF has been generated from an entry in the Cambridge 
# Structural Database, then it will include bibliographic, chemical, 
# crystal, experimental, refinement or atomic coordinate data resulting 
# from the CCDC's data processing and validation procedures.
#
#######################################################################

data_WESWOH
_chemical_formula_moiety         'C17 H27 N3 O1'
_chemical_name_systematic        
1-((1R,2R)-2-(dimethylamino)cyclohexyl)-3-((R)-1-phenylethyl)urea
_symmetry_cell_setting           monoclinic
_symmetry_space_group_name_H-M   'P 21'
_symmetry_Int_Tables_number      4
_space_group_name_Hall           'P 2yb'
loop_
_symmetry_equiv_pos_site_id
_symmetry_equiv_pos_as_xyz
1 x,y,z
2 -x,1/2+y,-z
_cell_length_a                   8.7335(2)
_cell_length_b                   22.1650(6)
_cell_length_c                   9.9252(3)
_cell_angle_alpha                90
_cell_angle_beta                 101.7740(10)
_cell_angle_gamma                90
_cell_volume                     1880.88
_exptl_crystal_colour            colorless
_exptl_crystal_description       needle
_chemical_melting_point          '137 deg.C'
_cell_formula_units_Z            4
loop_
_atom_site_label
_atom_site_type_symbol
_atom_site_fract_x
_atom_site_fract_y
_atom_site_fract_z
C1 C 0.8447(3) 0.18991(11) 0.4142(3)
H1 H 0.891(3) 0.1902(11) 0.524(3)
C2 C 0.9368(3) 0.14467(11) 0.3369(3)
H2 H 0.897(3) 0.1465(11) 0.224(3)
C3 C 1.1105(3) 0.16175(12) 0.3714(4)
H3 H 1.155(3) 0.1581(10) 0.481(3)
H4 H 1.166(3) 0.1312(14) 0.320(3)
C4 C 1.1367(3) 0.22583(12) 0.3179(4)
H5 H 1.109(3) 0.2271(12) 0.206(3)
H6 H 1.254(4) 0.2380(15) 0.339(3)
C5 C 1.0412(3) 0.27123(12) 0.3882(3)
H7 H 1.076(3) 0.2739(13) 0.497(3)
H8 H 1.056(3) 0.3126(14) 0.350(3)
C6 C 0.8685(3) 0.25358(11) 0.3541(3)
H9 H 0.829(3) 0.2542(13) 0.230(3)
H10 H 0.807(3) 0.2840(14) 0.400(3)
C7 C 0.5855(3) 0.17401(13) 0.2479(3)
H11 H 0.5773 0.2151 0.2166
H12 H 0.4827 0.1578 0.2434
H13 H 0.6389 0.1506 0.1903
C8 C 0.6062(3) 0.20290(13) 0.5105(3)
H14 H 0.6742 0.1994 0.5993
H15 H 0.5076 0.1842 0.5127
H16 H 0.5898 0.2448 0.4871
C9 C 0.8509(3) 0.03929(11) 0.2868(3)
C10 C 0.7828(3) -0.06816(11) 0.2596(3)
H17 H 0.719(3) -0.0560(11) 0.161(3)
C11 C 0.6872(3) -0.11012(12) 0.3410(3)
H18 H 0.7518 -0.1210 0.4279
H19 H 0.6553 -0.1459 0.2883
H20 H 0.5964 -0.0889 0.3563
C12 C 0.9245(3) -0.10046(10) 0.2224(3)
C13 C 1.0521(3) -0.11542(12) 0.3365(3)
H21 H 1.0498 -0.1052 0.4270
C14 C 1.1796(3) -0.14645(13) 0.3013(3)
H22 H 1.270(3) -0.1589(12) 0.392(3)
C15 C 1.1799(3) -0.16138(12) 0.1520(4)
H23 H 1.261(4) -0.1835(19) 0.122(4)
C16 C 1.0544(3) -0.14648(14) 0.0367(4)
H24 H 1.043(3) -0.1577(15) -0.070(3)
C17 C 0.9262(3) -0.11608(12) 0.0730(3)
H25 H 0.838(3) -0.1045(14) -0.007(3)
N1 N 0.6811(2) 0.17160(10) 0.4026(2)
N2 N 0.9164(2) 0.08253(9) 0.3844(2)
H26 H 0.935(3) 0.0749(13) 0.475(3)
N3 N 0.8248(3) -0.01427(9) 0.3523(3)
H27 H 0.850(3) -0.0171(12) 0.447(3)
O1 O 0.81646(19) 0.04696(8) 0.14578(18)
C18 C 0.5037(3) -0.04035(11) 0.7523(3)
H28 H 0.474(3) -0.0120(12) 0.830(3)
C19 C 0.6382(3) -0.00885(11) 0.6963(3)
H29 H 0.674(3) -0.0354(12) 0.625(3)
C20 C 0.5836(3) 0.05023(12) 0.6162(3)
H30 H 0.665(3) 0.0683(12) 0.585(3)
H31 H 0.555(3) 0.0751(13) 0.695(3)
C21 C 0.4466(3) 0.04144(12) 0.4831(3)
H32 H 0.4140 0.0800 0.4408
H33 H 0.4812 0.0159 0.4158
C22 C 0.3107(3) 0.01122(13) 0.5372(3)
H34 H 0.221(3) 0.0039(14) 0.448(3)
H35 H 0.275(3) 0.0358(14) 0.607(3)
C23 C 0.3633(3) -0.04795(12) 0.6192(3)
H36 H 0.388(3) -0.0776(13) 0.542(3)
H37 H 0.287(4) -0.0674(15) 0.663(3)
C24 C 0.6148(3) -0.14275(12) 0.7498(3)
H38 H 0.6511 -0.1776 0.8046
H39 H 0.6991 -0.1263 0.7126
H40 H 0.5307 -0.1542 0.6759
C25 C 0.4431(3) -0.12020(13) 0.9189(3)
H41 H 0.4069 -0.0880 0.9690
H42 H 0.4933 -0.1504 0.9822
H43 H 0.3558 -0.1378 0.8568
C26 C 0.9172(3) 0.00903(11) 0.8027(3)
C27 C 1.1803(3) 0.04013(11) 0.9380(3)
H44 H 1.216(3) 0.0177(13) 0.862(3)
C28 C 1.2776(3) 0.02389(13) 1.0941(3)
H45 H 1.2378 0.0476 1.1602
H46 H 1.3865 0.0327 1.1007
H47 H 1.2652 -0.0182 1.1124
C29 C 1.1977(3) 0.10633(11) 0.9017(3)
C30 C 1.3443(5) 0.12899(15) 0.8927(4)
H48 H 1.434(4) 0.1034(18) 0.897(4)
C31 C 1.3638(7) 0.1893(2) 0.8625(5)
H49 H 1.474(6) 0.204(2) 0.856(4)
C32 C 1.2391(10) 0.2281(2) 0.8423(5)
H50 H 1.261(5) 0.269(3) 0.812(5)
C33 C 1.0945(8) 0.20672(18) 0.8508(5)
H51 H 1.010(6) 0.228(3) 0.846(5)
C34 C 1.0727(5) 0.14582(15) 0.8802(4)
H52 H 0.971(4) 0.1315(18) 0.880(4)
O2 O 0.95586(18) 0.00400(8) 0.67735(18)
N4 N 0.5575(2) -0.09586(9) 0.8385(2)
N5 N 0.7692(2) 0.00011(10) 0.8229(2)
H53 H 0.752(3) 0.0050(12) 0.912(3)
N6 N 1.0201(2) 0.02266(11) 0.9345(3)
H54 H 0.979(3) 0.0294(12) 1.020(3)
loop_
_geom_bond_atom_site_label_1
_geom_bond_atom_site_label_2
_geom_bond_site_symmetry_1
_geom_bond_site_symmetry_2
C1 H1 1_555 1_555
C2 C1 1_555 1_555
H2 C2 1_555 1_555
C3 C2 1_555 1_555
H3 C3 1_555 1_555
H4 C3 1_555 1_555
C4 C3 1_555 1_555
H5 C4 1_555 1_555
H6 C4 1_555 1_555
C5 C4 1_555 1_555
H7 C5 1_555 1_555
H8 C5 1_555 1_555
C6 C1 1_555 1_555
H9 C6 1_555 1_555
H10 C6 1_555 1_555
C7 H11 1_555 1_555
H12 C7 1_555 1_555
H13 C7 1_555 1_555
C8 H14 1_555 1_555
H15 C8 1_555 1_555
H16 C8 1_555 1_555
C9 N2 1_555 1_555
C10 H17 1_555 1_555
C11 C10 1_555 1_555
H18 C11 1_555 1_555
H19 C11 1_555 1_555
H20 C11 1_555 1_555
C12 C10 1_555 1_555
C13 C12 1_555 1_555
H21 C13 1_555 1_555
C14 C13 1_555 1_555
H22 C14 1_555 1_555
C15 C14 1_555 1_555
H23 C15 1_555 1_555
C16 C15 1_555 1_555
H24 C16 1_555 1_555
C17 C12 1_555 1_555
H25 C17 1_555 1_555
N1 C1 1_555 1_555
N2 C2 1_555 1_555
H26 N2 1_555 1_555
N3 C9 1_555 1_555
H27 N3 1_555 1_555
O1 C9 1_555 1_555
C18 H28 1_555 1_555
C19 C18 1_555 1_555
H29 C19 1_555 1_555
C20 C19 1_555 1_555
H30 C20 1_555 1_555
H31 C20 1_555 1_555
C21 C20 1_555 1_555
H32 C21 1_555 1_555
H33 C21 1_555 1_555
C22 C21 1_555 1_555
H34 C22 1_555 1_555
H35 C22 1_555 1_555
C23 C18 1_555 1_555
H36 C23 1_555 1_555
H37 C23 1_555 1_555
C24 H38 1_555 1_555
H39 C24 1_555 1_555
H40 C24 1_555 1_555
C25 H41 1_555 1_555
H42 C25 1_555 1_555
H43 C25 1_555 1_555
C26 O2 1_555 1_555
C27 H44 1_555 1_555
C28 C27 1_555 1_555
H45 C28 1_555 1_555
H46 C28 1_555 1_555
H47 C28 1_555 1_555
C29 C27 1_555 1_555
C30 C29 1_555 1_555
H48 C30 1_555 1_555
C31 C30 1_555 1_555
H49 C31 1_555 1_555
C32 C31 1_555 1_555
H50 C32 1_555 1_555
C33 C32 1_555 1_555
H51 C33 1_555 1_555
C34 C29 1_555 1_555
H52 C34 1_555 1_555
N4 C18 1_555 1_555
N5 C19 1_555 1_555
H53 N5 1_555 1_555
N6 C26 1_555 1_555
H54 N6 1_555 1_555
C5 C6 1_555 1_555
C7 N1 1_555 1_555
C8 N1 1_555 1_555
C10 N3 1_555 1_555
C16 C17 1_555 1_555
C22 C23 1_555 1_555
C24 N4 1_555 1_555
C25 N4 1_555 1_555
C26 N5 1_555 1_555
C27 N6 1_555 1_555
C33 C34 1_555 1_555

#END
