
#######################################################################
#
#                 Cambridge Crystallographic Data Centre
#                                CCDC 
#
#######################################################################
#
# If this CIF has been generated from an entry in the Cambridge 
# Structural Database, then it will include bibliographic, chemical, 
# crystal, experimental, refinement or atomic coordinate data resulting 
# from the CCDC's data processing and validation procedures.
#
#######################################################################

data_WESWAT
_chemical_formula_moiety         '2(C15 H21 N5 O5),C1 H4 O1,H2 O1'
_chemical_name_systematic        
'bis(1-(3,5-dinitrophenyl)-3-((1R,2R)-2-(dimethylamino)cyclohexyl)urea) methanol solvate monohydrate'
_symmetry_cell_setting           monoclinic
_symmetry_space_group_name_H-M   'P 21'
_symmetry_Int_Tables_number      4
_space_group_name_Hall           'P 2yb'
loop_
_symmetry_equiv_pos_site_id
_symmetry_equiv_pos_as_xyz
1 x,y,z
2 -x,1/2+y,-z
_cell_length_a                   8.1767(6)
_cell_length_b                   22.874(2)
_cell_length_c                   10.1933(6)
_cell_angle_alpha                90
_cell_angle_beta                 108.158(3)
_cell_angle_gamma                90
_cell_volume                     1811.55
_exptl_crystal_colour            colorless
_exptl_crystal_description       prism
_cell_formula_units_Z            2
loop_
_atom_site_label
_atom_site_type_symbol
_atom_site_fract_x
_atom_site_fract_y
_atom_site_fract_z
O1 O 0.2461(5) 0.36836(16) 0.4016(4)
O2 O -0.2283(5) 0.39604(15) 0.0712(4)
O3 O -0.3286(5) 0.47357(18) -0.0486(4)
O4 O -0.0780(5) 0.66189(15) 0.1163(4)
O5 O 0.0986(5) 0.66782(15) 0.3243(4)
N1 N 0.7931(5) 0.34903(18) 0.7045(4)
N2 N 0.4490(6) 0.3947(2) 0.5996(5)
H1 H 0.487(7) 0.415(2) 0.651(6)
N3 N 0.2812(6) 0.46539(19) 0.4578(5)
H2 H 0.331(7) 0.486(2) 0.510(5)
N4 N 0.0107(5) 0.64046(16) 0.2245(4)
N5 N -0.2264(5) 0.44913(19) 0.0494(4)
C1 C 0.6515(6) 0.32642(19) 0.7539(5)
H3 H 0.6545 0.3499 0.8373
C2 C 0.4747(6) 0.33497(19) 0.6512(5)
H4 H 0.4617 0.3080 0.5714
C3 C 0.3405(6) 0.3192(2) 0.7199(5)
H5 H 0.3498 0.3468 0.7968
H6 H 0.2245 0.3239 0.6520
C4 C 0.3585(7) 0.2584(2) 0.7746(6)
H7 H 0.3324 0.2304 0.6966
H8 H 0.2742 0.2519 0.8249
C5 C 0.5380(7) 0.2468(2) 0.8707(6)
H9 H 0.5497 0.2050 0.8972
H10 H 0.5585 0.2704 0.9557
C6 C 0.6703(7) 0.2627(2) 0.7990(5)
H11 H 0.7877 0.2559 0.8630
H12 H 0.6542 0.2372 0.7174
C7 C 0.9612(7) 0.3443(3) 0.8137(6)
H13 H 1.0026 0.3039 0.8188
H14 H 0.9482 0.3555 0.9027
H15 H 1.0444 0.3704 0.7920
C8 C 0.8032(7) 0.3199(2) 0.5765(5)
H16 H 0.8430 0.2795 0.5977
H17 H 0.8842 0.3412 0.5405
H18 H 0.6891 0.3198 0.5070
C9 C 0.3183(6) 0.4063(2) 0.4814(5)
C10 C 0.1499(6) 0.4892(2) 0.3512(5)
C11 C 0.0267(6) 0.4565(2) 0.2536(5)
H19 H 0.0275 0.4150 0.2590
C12 C -0.0955(6) 0.4847(2) 0.1498(5)
C13 C -0.1056(6) 0.5445(2) 0.1353(5)
H20 H -0.1905 0.5630 0.0614
C14 C 0.0142(6) 0.5757(2) 0.2339(5)
C15 C 0.1420(6) 0.5503(2) 0.3419(5)
H21 H 0.2225 0.5738 0.4082
O6 O 0.3373(7) 0.12578(15) 0.6526(4)
O7 O 0.4648(5) -0.17087(14) 0.7649(4)
O8 O 0.6805(5) -0.16394(14) 0.9516(3)
O9 O 0.9048(7) 0.0266(2) 1.1205(5)
O10 O 0.7860(5) 0.10294(17) 1.0125(4)
N6 N 0.3995(5) 0.15438(18) 0.2838(4)
N7 N 0.1949(6) 0.09974(18) 0.4340(4)
H22 H 0.170(8) 0.071(3) 0.363(6)
N8 N 0.3209(6) 0.02983(18) 0.5950(4)
H23 H 0.263(6) 0.006(2) 0.525(5)
N9 N 0.5718(5) -0.14228(17) 0.8529(4)
N10 N 0.7914(6) 0.0503(2) 1.0289(5)
C16 C 0.2135(6) 0.17066(19) 0.2569(4)
H24 H 0.1435 0.1444 0.1818
C17 C 0.1576(5) 0.15921(19) 0.3838(4)
H25 H 0.2241 0.1862 0.4586
C18 C -0.0341(6) 0.1731(2) 0.3532(5)
H26 H -0.1029 0.1460 0.2814
H27 H -0.0669 0.1669 0.4378
C19 C -0.0756(7) 0.2360(2) 0.3040(6)
H28 H -0.2008 0.2431 0.2816
H29 H -0.0144 0.2634 0.3781
C20 C -0.0207(7) 0.2464(2) 0.1774(5)
H30 H -0.0440 0.2876 0.1475
H31 H -0.0888 0.2210 0.1013
C21 C 0.1719(6) 0.23330(19) 0.2074(5)
H32 H 0.2040 0.2396 0.1225
H33 H 0.2403 0.2606 0.2789
C22 C 0.5186(6) 0.1852(3) 0.4009(5)
H34 H 0.6359 0.1710 0.4153
H35 H 0.4858 0.1781 0.4841
H36 H 0.5136 0.2273 0.3815
C23 C 0.4535(7) 0.1636(3) 0.1609(6)
H37 H 0.4559 0.2056 0.1425
H38 H 0.3719 0.1443 0.0813
H39 H 0.5686 0.1471 0.1767
C24 C 0.2895(7) 0.0885(2) 0.5662(5)
C25 C 0.4387(6) 0.0071(2) 0.7134(4)
C26 C 0.4478(6) -0.0532(2) 0.7278(5)
H40 H 0.3712 -0.0772 0.6601
C27 C 0.5669(6) -0.07826(19) 0.8395(4)
C28 C 0.6814(6) -0.0462(2) 0.9417(5)
H41 H 0.7632 -0.0642 1.0186
C29 C 0.6696(6) 0.0140(2) 0.9253(5)
C30 C 0.5516(6) 0.0414(2) 0.8165(5)
H42 H 0.5465 0.0828 0.8112
O11 O 0.8167(8) 0.4647(2) 0.6481(6)
H43 H 0.7941 0.4313 0.6723
C31 C 0.980(2) 0.4613(6) 0.6014(15)
H44 H 1.0168 0.5009 0.5866
H45 H 0.9542 0.4391 0.5151
H46 H 1.0729 0.4418 0.6729
O12 O 0.5109(7) 0.03918(17) 0.3253(5)
loop_
_geom_bond_atom_site_label_1
_geom_bond_atom_site_label_2
_geom_bond_site_symmetry_1
_geom_bond_site_symmetry_2
O1 C9 1_555 1_555
O2 N5 1_555 1_555
O3 N5 1_555 1_555
O4 N4 1_555 1_555
O5 N4 1_555 1_555
N1 C1 1_555 1_555
N2 H1 1_555 1_555
N3 H2 1_555 1_555
N4 C14 1_555 1_555
N5 C12 1_555 1_555
C1 H3 1_555 1_555
C2 N2 1_555 1_555
H4 C2 1_555 1_555
C3 C2 1_555 1_555
H5 C3 1_555 1_555
H6 C3 1_555 1_555
C4 C3 1_555 1_555
H7 C4 1_555 1_555
H8 C4 1_555 1_555
C5 C4 1_555 1_555
H9 C5 1_555 1_555
H10 C5 1_555 1_555
C6 C1 1_555 1_555
H11 C6 1_555 1_555
H12 C6 1_555 1_555
C7 N1 1_555 1_555
H13 C7 1_555 1_555
H14 C7 1_555 1_555
H15 C7 1_555 1_555
C8 N1 1_555 1_555
H16 C8 1_555 1_555
H17 C8 1_555 1_555
H18 C8 1_555 1_555
C9 N2 1_555 1_555
C10 N3 1_555 1_555
C11 C10 1_555 1_555
H19 C11 1_555 1_555
C12 C11 1_555 1_555
C13 C12 1_555 1_555
H20 C13 1_555 1_555
C14 C13 1_555 1_555
C15 C10 1_555 1_555
H21 C15 1_555 1_555
O6 C24 1_555 1_555
O7 N9 1_555 1_555
O8 N9 1_555 1_555
O9 N10 1_555 1_555
O10 N10 1_555 1_555
N6 C16 1_555 1_555
N7 H22 1_555 1_555
N8 H23 1_555 1_555
N9 C27 1_555 1_555
N10 C29 1_555 1_555
C16 H24 1_555 1_555
C17 N7 1_555 1_555
H25 C17 1_555 1_555
C18 C17 1_555 1_555
H26 C18 1_555 1_555
H27 C18 1_555 1_555
C19 C18 1_555 1_555
H28 C19 1_555 1_555
H29 C19 1_555 1_555
C20 C19 1_555 1_555
H30 C20 1_555 1_555
H31 C20 1_555 1_555
C21 C16 1_555 1_555
H32 C21 1_555 1_555
H33 C21 1_555 1_555
C22 N6 1_555 1_555
H34 C22 1_555 1_555
H35 C22 1_555 1_555
H36 C22 1_555 1_555
C23 N6 1_555 1_555
H37 C23 1_555 1_555
H38 C23 1_555 1_555
H39 C23 1_555 1_555
C24 N7 1_555 1_555
C25 N8 1_555 1_555
C26 C25 1_555 1_555
H40 C26 1_555 1_555
C27 C26 1_555 1_555
C28 C27 1_555 1_555
H41 C28 1_555 1_555
C29 C28 1_555 1_555
C30 C25 1_555 1_555
H42 C30 1_555 1_555
O11 H43 1_555 1_555
C31 O11 1_555 1_555
H44 C31 1_555 1_555
H45 C31 1_555 1_555
H46 C31 1_555 1_555
N3 C9 1_555 1_555
C1 C2 1_555 1_555
C5 C6 1_555 1_555
C14 C15 1_555 1_555
N8 C24 1_555 1_555
C16 C17 1_555 1_555
C20 C21 1_555 1_555
C29 C30 1_555 1_555

#END
