
#######################################################################
#
#                 Cambridge Crystallographic Data Centre
#                                CCDC 
#
#######################################################################
#
# If this CIF has been generated from an entry in the Cambridge 
# Structural Database, then it will include bibliographic, chemical, 
# crystal, experimental, refinement or atomic coordinate data resulting 
# from the CCDC's data processing and validation procedures.
#
#######################################################################

data_WETGOT
_chemical_formula_moiety         'C21 H17 Br1 O4'
_chemical_name_systematic        
"Ethyl 5'-(2-bromophenyl)-2-oxospiro[1-benzofuran-3,1'-cyclopent[2]ene]-2'-carboxylate"
_symmetry_cell_setting           hexagonal
_symmetry_space_group_name_H-M   'P 61'
_symmetry_Int_Tables_number      169
_space_group_name_Hall           'P 61'
loop_
_symmetry_equiv_pos_site_id
_symmetry_equiv_pos_as_xyz
1 x,y,z
2 -y,x-y,1/3+z
3 -x+y,-x,2/3+z
4 -x,-y,1/2+z
5 y,-x+y,5/6+z
6 x-y,x,1/6+z
_cell_length_a                   14.959(2)
_cell_length_b                   14.959(2)
_cell_length_c                   14.020(3)
_cell_angle_alpha                90
_cell_angle_beta                 90
_cell_angle_gamma                120
_cell_volume                     2716.96
_cell_formula_units_Z            6
loop_
_atom_site_label
_atom_site_type_symbol
_atom_site_fract_x
_atom_site_fract_y
_atom_site_fract_z
Br1 Br 0.83799(2) 0.73699(2) 0.100258(19)
O1 O 0.55881(13) 0.60363(13) -0.02427(12)
O2 O 0.64236(13) 0.51446(14) -0.00909(13)
O3 O 0.39418(13) 0.34368(13) 0.01437(14)
O4 O 0.37966(14) 0.23290(12) 0.13066(13)
C1 C 0.75115(18) 0.76631(19) 0.17712(18)
C2 C 0.7822(2) 0.86998(19) 0.1905(2)
H1 H 0.8433 0.9218 0.1606
C3 C 0.7247(2) 0.8977(2) 0.2467(2)
H2 H 0.7454 0.9684 0.2553
C4 C 0.6367(2) 0.8217(2) 0.29050(19)
H3 H 0.5966 0.8405 0.3294
C5 C 0.60618(19) 0.71850(19) 0.27831(17)
H4 H 0.5460 0.6675 0.3099
C6 C 0.66229(18) 0.68739(18) 0.22027(17)
C7 C 0.62649(18) 0.57471(18) 0.20353(17)
H5 H 0.6878 0.5711 0.1801
C8 C 0.5844(2) 0.50260(18) 0.29114(18)
H6 H 0.6407 0.4999 0.3259
H7 H 0.5481 0.5252 0.3355
C9 C 0.51160(18) 0.40067(19) 0.24746(18)
H8 H 0.4842 0.3368 0.2804
C10 C 0.48924(18) 0.40920(18) 0.15696(18)
C11 C 0.53979(17) 0.52068(17) 0.12577(17)
C12 C 0.46449(17) 0.55975(17) 0.11562(16)
C13 C 0.38515(17) 0.55037(18) 0.17329(18)
H9 H 0.3710 0.5157 0.2329
C14 C 0.32672(18) 0.59334(19) 0.14110(19)
H10 H 0.2720 0.5880 0.1796
C15 C 0.3466(2) 0.64357(19) 0.05430(19)
H11 H 0.3055 0.6722 0.0343
C16 C 0.42622(19) 0.65296(18) -0.00452(18)
H12 H 0.4412 0.6881 -0.0639
C17 C 0.48174(18) 0.60868(18) 0.02813(18)
C18 C 0.58713(18) 0.54210(17) 0.02563(17)
C19 C 0.41686(17) 0.32713(17) 0.09298(19)
C20 C 0.3048(2) 0.1473(2) 0.0738(2)
H13 H 0.3363 0.1426 0.0133
H14 H 0.2450 0.1561 0.0588
C21 C 0.2716(3) 0.0527(2) 0.1325(2)
H15 H 0.3317 0.0454 0.1472
H16 H 0.2209 -0.0080 0.0968
H17 H 0.2405 0.0584 0.1920
loop_
_geom_bond_atom_site_label_1
_geom_bond_atom_site_label_2
_geom_bond_site_symmetry_1
_geom_bond_site_symmetry_2
Br1 C1 1_555 1_555
O1 C17 1_555 1_555
O2 C18 1_555 1_555
O3 C19 1_555 1_555
O4 C19 1_555 1_555
C1 C2 1_555 1_555
C2 H1 1_555 1_555
C3 C2 1_555 1_555
H2 C3 1_555 1_555
C4 C3 1_555 1_555
H3 C4 1_555 1_555
C5 C4 1_555 1_555
H4 C5 1_555 1_555
C6 C1 1_555 1_555
C7 C6 1_555 1_555
H5 C7 1_555 1_555
C8 C7 1_555 1_555
H6 C8 1_555 1_555
H7 C8 1_555 1_555
C9 C8 1_555 1_555
H8 C9 1_555 1_555
C10 C9 1_555 1_555
C11 C7 1_555 1_555
C12 C11 1_555 1_555
C13 C12 1_555 1_555
H9 C13 1_555 1_555
C14 C13 1_555 1_555
H10 C14 1_555 1_555
C15 C14 1_555 1_555
H11 C15 1_555 1_555
C16 C15 1_555 1_555
H12 C16 1_555 1_555
C17 C12 1_555 1_555
C18 O1 1_555 1_555
C19 C10 1_555 1_555
C20 O4 1_555 1_555
H13 C20 1_555 1_555
H14 C20 1_555 1_555
C21 C20 1_555 1_555
H15 C21 1_555 1_555
H16 C21 1_555 1_555
H17 C21 1_555 1_555
C5 C6 1_555 1_555
C10 C11 1_555 1_555
C11 C18 1_555 1_555
C16 C17 1_555 1_555

#END
