
#######################################################################
#
#                 Cambridge Crystallographic Data Centre
#                                CCDC 
#
#######################################################################
#
# If this CIF has been generated from an entry in the Cambridge 
# Structural Database, then it will include bibliographic, chemical, 
# crystal, experimental, refinement or atomic coordinate data resulting 
# from the CCDC's data processing and validation procedures.
#
#######################################################################

data_WETHOU
_chemical_formula_moiety         'C27 H22 Br1 Cl1 N2 O2'
_chemical_name_systematic        
6-(4-Bromophenyl)-10-(2-chlorophenyl)-4-methyl-2-phenyl-2,3-diazaspiro[4.5]dec-3-ene-1,8-dione
_symmetry_cell_setting           orthorhombic
_symmetry_space_group_name_H-M   'P 21 21 21'
_symmetry_Int_Tables_number      19
_space_group_name_Hall           'P 2ac 2ab'
loop_
_symmetry_equiv_pos_site_id
_symmetry_equiv_pos_as_xyz
1 x,y,z
2 1/2-x,-y,1/2+z
3 -x,1/2+y,1/2-z
4 1/2+x,1/2-y,-z
_cell_length_a                   8.258(3)
_cell_length_b                   11.699(4)
_cell_length_c                   23.879(7)
_cell_angle_alpha                90
_cell_angle_beta                 90
_cell_angle_gamma                90
_cell_volume                     2306.96
_exptl_crystal_colour            colorless
_exptl_crystal_description       block
_cell_formula_units_Z            4
loop_
_atom_site_label
_atom_site_type_symbol
_atom_site_fract_x
_atom_site_fract_y
_atom_site_fract_z
Br1 Br 0.73148(7) 1.22765(5) 1.076541(18)
C1 C 0.6844(4) 0.9382(3) 0.82067(14)
C2 C 0.6249(5) 1.0623(3) 0.83272(15)
H1 H 0.6906 1.1134 0.8095
C3 C 0.4494(5) 1.0801(4) 0.81535(16)
H2 H 0.3796 1.0367 0.8401
H3 H 0.4219 1.1603 0.8194
C4 C 0.4186(5) 1.0438(4) 0.75563(18)
C5 C 0.4877(5) 0.9313(4) 0.73817(16)
H4 H 0.4813 0.9256 0.6977
H5 H 0.4210 0.8709 0.7538
C6 C 0.6660(5) 0.9107(3) 0.75627(15)
H6 H 0.6862 0.8286 0.7520
C7 C 0.5902(5) 0.8477(4) 0.85356(16)
C8 C 0.8517(5) 0.9209(4) 0.84440(16)
C9 C 1.0000(5) 0.9904(3) 0.83311(16)
H7 H 0.9922 1.0621 0.8525
H8 H 1.0093 1.0041 0.7936
H9 H 1.0938 0.9497 0.8460
C10 C 0.6500(5) 1.0994(3) 0.89359(15)
C11 C 0.7415(6) 1.1948(3) 0.90476(16)
H10 H 0.7892 1.2340 0.8752
C12 C 0.7645(5) 1.2340(4) 0.95866(16)
H11 H 0.8244 1.3000 0.9653
C13 C 0.6978(5) 1.1744(4) 1.00224(16)
C14 C 0.6085(5) 1.0793(4) 0.99326(17)
H12 H 0.5654 1.0388 1.0233
C15 C 0.5819(5) 1.0428(3) 0.93858(16)
H13 H 0.5170 0.9791 0.9322
C16 C 0.7837(5) 0.9708(3) 0.71828(14)
C17 C 0.9277(5) 0.9177(4) 0.70088(16)
C18 C 1.0336(6) 0.9685(4) 0.66388(17)
H14 H 1.1289 0.9315 0.6538
C19 C 0.9980(6) 1.0735(4) 0.64212(18)
H15 H 1.0678 1.1079 0.6166
C20 C 0.8574(5) 1.1284(4) 0.65828(18)
H16 H 0.8328 1.2003 0.6440
C21 C 0.7546(5) 1.0769(3) 0.69535(14)
H17 H 0.6604 1.1153 0.7056
C22 C 0.6734(5) 0.7119(3) 0.92880(15)
C23 C 0.5728(6) 0.6214(4) 0.91774(18)
H18 H 0.5208 0.6157 0.8833
C24 C 0.5495(6) 0.5391(4) 0.9581(2)
H19 H 0.4844 0.4762 0.9504
C25 C 0.6217(7) 0.5492(5) 1.0097(2)
H20 H 0.6051 0.4936 1.0370
C26 C 0.7176(6) 0.6411(5) 1.02072(17)
H21 H 0.7649 0.6485 1.0559
C27 C 0.7454(5) 0.7231(4) 0.98058(15)
H22 H 0.8119 0.7852 0.9883
Cl1 Cl 0.98128(15) 0.78349(10) 0.72667(5)
N1 N 0.7012(4) 0.7959(3) 0.88676(12)
N2 N 0.8585(4) 0.8436(3) 0.88206(13)
O1 O 0.3389(4) 1.1034(3) 0.72423(13)
O2 O 0.4468(3) 0.8257(2) 0.85106(11)
loop_
_geom_bond_atom_site_label_1
_geom_bond_atom_site_label_2
_geom_bond_site_symmetry_1
_geom_bond_site_symmetry_2
Br1 C13 1_555 1_555
C1 C2 1_555 1_555
C2 H1 1_555 1_555
C3 C2 1_555 1_555
H2 C3 1_555 1_555
H3 C3 1_555 1_555
C4 C3 1_555 1_555
C5 C4 1_555 1_555
H4 C5 1_555 1_555
H5 C5 1_555 1_555
C6 C1 1_555 1_555
H6 C6 1_555 1_555
C7 C1 1_555 1_555
C8 C1 1_555 1_555
C9 C8 1_555 1_555
H7 C9 1_555 1_555
H8 C9 1_555 1_555
H9 C9 1_555 1_555
C10 C2 1_555 1_555
C11 C10 1_555 1_555
H10 C11 1_555 1_555
C12 C11 1_555 1_555
H11 C12 1_555 1_555
C13 C12 1_555 1_555
C14 C13 1_555 1_555
H12 C14 1_555 1_555
C15 C10 1_555 1_555
H13 C15 1_555 1_555
C16 C6 1_555 1_555
C17 C16 1_555 1_555
C18 C17 1_555 1_555
H14 C18 1_555 1_555
C19 C18 1_555 1_555
H15 C19 1_555 1_555
C20 C19 1_555 1_555
H16 C20 1_555 1_555
C21 C16 1_555 1_555
H17 C21 1_555 1_555
C22 C23 1_555 1_555
C23 H18 1_555 1_555
C24 C23 1_555 1_555
H19 C24 1_555 1_555
C25 C24 1_555 1_555
H20 C25 1_555 1_555
C26 C25 1_555 1_555
H21 C26 1_555 1_555
C27 C22 1_555 1_555
H22 C27 1_555 1_555
Cl1 C17 1_555 1_555
N1 C7 1_555 1_555
N2 C8 1_555 1_555
O1 C4 1_555 1_555
O2 C7 1_555 1_555
C5 C6 1_555 1_555
C14 C15 1_555 1_555
C20 C21 1_555 1_555
C22 N1 1_555 1_555
C26 C27 1_555 1_555
N1 N2 1_555 1_555

#END
