
#######################################################################
#
#                 Cambridge Crystallographic Data Centre
#                                CCDC 
#
#######################################################################
#
# If this CIF has been generated from an entry in the Cambridge 
# Structural Database, then it will include bibliographic, chemical, 
# crystal, experimental, refinement or atomic coordinate data resulting 
# from the CCDC's data processing and validation procedures.
#
#######################################################################

data_WETJIQ
_chemical_formula_moiety         'C28 H31 N3 O5 S1'
_chemical_name_systematic        
'Di-t-butyl 1-(3-(2-naphthylsulfanyl)-2-oxo-2,3-dihydro-1H-indol-3-yl)hydrazine-1,2-dicarboxylate'
_symmetry_cell_setting           monoclinic
_symmetry_space_group_name_H-M   'P 21/c'
_symmetry_Int_Tables_number      14
_space_group_name_Hall           '-P 2ybc'
loop_
_symmetry_equiv_pos_site_id
_symmetry_equiv_pos_as_xyz
1 x,y,z
2 -x,1/2+y,1/2-z
3 -x,-y,-z
4 x,1/2-y,1/2+z
_cell_length_a                   13.8796(10)
_cell_length_b                   23.1960(17)
_cell_length_c                   8.6991(6)
_cell_angle_alpha                90
_cell_angle_beta                 96.000(2)
_cell_angle_gamma                90
_cell_volume                     2785.34
_exptl_crystal_colour            colorless
_exptl_crystal_description       block
_cell_formula_units_Z            4
loop_
_atom_site_label
_atom_site_type_symbol
_atom_site_fract_x
_atom_site_fract_y
_atom_site_fract_z
S1 S 0.45009(9) 0.87331(7) -1.44563(14)
O1 O 0.4364(3) 1.00272(16) -1.3002(5)
O2 O 0.7448(3) 0.84786(17) -1.3727(4)
O3 O 0.7462(3) 0.87722(15) -1.6215(4)
O4 O 0.7452(2) 0.98414(15) -1.3233(4)
O5 O 0.6464(2) 0.98429(15) -1.1317(4)
N1 N 0.4409(3) 0.94631(17) -1.0844(4)
H1 H 0.4032 0.9663 -1.0326
N2 N 0.6365(3) 0.91239(16) -1.4864(4)
H2 H 0.6055 0.9229 -1.5726
N3 N 0.6094(3) 0.93166(16) -1.3466(4)
C1 C 0.4877(3) 0.89562(19) -1.0286(5)
C2 C 0.4886(4) 0.8715(2) -0.8854(6)
H3 H 0.4565 0.8885 -0.8085
C3 C 0.5396(5) 0.8205(3) -0.8599(7)
H4 H 0.5408 0.8026 -0.7641
C4 C 0.5882(4) 0.7958(2) -0.9713(6)
H5 H 0.6210 0.7612 -0.9506
C5 C 0.5894(4) 0.8216(2) -1.1158(6)
H6 H 0.6235 0.8053 -1.1914
C6 C 0.5385(3) 0.87213(18) -1.1431(5)
C7 C 0.5222(3) 0.90948(19) -1.2841(5)
C8 C 0.4614(3) 0.9602(2) -1.2267(6)
C9 C 0.6671(3) 0.9686(2) -1.2572(6)
C10 C 0.8206(4) 1.0203(3) -1.2385(7)
C11 C 0.8572(5) 0.9917(4) -1.0874(9)
H7 H 0.8829 0.9544 -1.1077
H8 H 0.8047 0.9876 -1.0245
H9 H 0.9071 1.0151 -1.0340
C12 C 0.8978(5) 1.0209(4) -1.3476(10)
H10 H 0.9219 0.9825 -1.3584
H11 H 0.9498 1.0457 -1.3072
H12 H 0.8708 1.0350 -1.4467
C13 C 0.7788(6) 1.0796(3) -1.2156(9)
H13 H 0.7566 1.0960 -1.3144
H14 H 0.8279 1.1040 -1.1639
H15 H 0.7254 1.0765 -1.1542
C14 C 0.7143(3) 0.8760(2) -1.4827(6)
C15 C 0.8305(4) 0.8422(2) -1.6557(7)
C16 C 0.9177(4) 0.8579(3) -1.5432(9)
H16 H 0.9312 0.8983 -1.5517
H17 H 0.9730 0.8361 -1.5672
H18 H 0.9042 0.8493 -1.4396
C17 C 0.8436(6) 0.8607(3) -1.8178(8)
H19 H 0.7874 0.8501 -1.8856
H20 H 0.8997 0.8421 -1.8507
H21 H 0.8520 0.9018 -1.8204
C18 C 0.8056(5) 0.7790(2) -1.6474(8)
H22 H 0.7506 0.7707 -1.7204
H23 H 0.7905 0.7698 -1.5451
H24 H 0.8599 0.7563 -1.6716
C19 C 0.3514(4) 0.8502(4) -1.3462(7)
C20 C 0.2730(5) 0.8807(5) -1.3223(9)
H25 H 0.2625 0.9185 -1.3555
C21 C 0.2000(6) 0.8456(4) -1.2315(8)
C22 C 0.2214(6) 0.7897(4) -1.1805(9)
C23 C 0.2979(8) 0.7566(5) -1.2087(13)
H26 H 0.3103 0.7183 -1.1818
C24 C 0.3540(8) 0.7946(5) -1.2889(11)
H27 H 0.4109 0.7765 -1.3101
C25 C 0.1232(8) 0.8787(5) -1.2101(13)
H28 H 0.1121 0.9167 -1.2410
C26 C 0.0639(9) 0.8433(6) -1.1312(15)
H29 H 0.0050 0.8606 -1.1174
C27 C 0.0717(6) 0.7885(5) -1.0684(10)
H30 H 0.0239 0.7741 -1.0116
C28 C 0.1500(7) 0.7562(6) -1.0912(11)
H31 H 0.1594 0.7184 -1.0570
loop_
_geom_bond_atom_site_label_1
_geom_bond_atom_site_label_2
_geom_bond_site_symmetry_1
_geom_bond_site_symmetry_2
S1 C7 1_555 1_555
O1 C8 1_555 1_555
O2 C14 1_555 1_555
O3 C14 1_555 1_555
O4 C9 1_555 1_555
O5 C9 1_555 1_555
N1 H1 1_555 1_555
N2 H2 1_555 1_555
N3 N2 1_555 1_555
C1 N1 1_555 1_555
C2 C1 1_555 1_555
H3 C2 1_555 1_555
C3 C2 1_555 1_555
H4 C3 1_555 1_555
C4 C3 1_555 1_555
H5 C4 1_555 1_555
C5 C4 1_555 1_555
H6 C5 1_555 1_555
C6 C1 1_555 1_555
C7 N3 1_555 1_555
C8 N1 1_555 1_555
C9 N3 1_555 1_555
C10 O4 1_555 1_555
C11 C10 1_555 1_555
H7 C11 1_555 1_555
H8 C11 1_555 1_555
H9 C11 1_555 1_555
C12 C10 1_555 1_555
H10 C12 1_555 1_555
H11 C12 1_555 1_555
H12 C12 1_555 1_555
C13 C10 1_555 1_555
H13 C13 1_555 1_555
H14 C13 1_555 1_555
H15 C13 1_555 1_555
C14 N2 1_555 1_555
C15 O3 1_555 1_555
C16 C15 1_555 1_555
H16 C16 1_555 1_555
H17 C16 1_555 1_555
H18 C16 1_555 1_555
C17 C15 1_555 1_555
H19 C17 1_555 1_555
H20 C17 1_555 1_555
H21 C17 1_555 1_555
C18 C15 1_555 1_555
H22 C18 1_555 1_555
H23 C18 1_555 1_555
H24 C18 1_555 1_555
C19 S1 1_555 1_555
C20 C19 1_555 1_555
H25 C20 1_555 1_555
C21 C20 1_555 1_555
C22 C21 1_555 1_555
C23 C22 1_555 1_555
H26 C23 1_555 1_555
C24 C19 1_555 1_555
H27 C24 1_555 1_555
C25 C21 1_555 1_555
H28 C25 1_555 1_555
C26 C25 1_555 1_555
H29 C26 1_555 1_555
C27 C26 1_555 1_555
H30 C27 1_555 1_555
C28 C22 1_555 1_555
H31 C28 1_555 1_555
C5 C6 1_555 1_555
C6 C7 1_555 1_555
C7 C8 1_555 1_555
C23 C24 1_555 1_555
C27 C28 1_555 1_555

#END
