
#######################################################################
#
#                 Cambridge Crystallographic Data Centre
#                                CCDC 
#
#######################################################################
#
# If this CIF has been generated from an entry in the Cambridge 
# Structural Database, then it will include bibliographic, chemical, 
# crystal, experimental, refinement or atomic coordinate data resulting 
# from the CCDC's data processing and validation procedures.
#
#######################################################################

data_WETJAI
_chemical_formula_moiety         'C20 H26 N4 O4'
_chemical_name_systematic        
1-(1-(1,1'-Bi(cyclohexan)-1'-en-2-yl)ethylidene)-2-(2,4-dinitrophenyl)hydrazine
_symmetry_cell_setting           triclinic
_symmetry_space_group_name_H-M   'P -1'
_symmetry_Int_Tables_number      2
_space_group_name_Hall           '-P 1'
loop_
_symmetry_equiv_pos_site_id
_symmetry_equiv_pos_as_xyz
1 x,y,z
2 -x,-y,-z
_cell_length_a                   10.5080(6)
_cell_length_b                   11.6860(6)
_cell_length_c                   16.6470(10)
_cell_angle_alpha                81.989(2)
_cell_angle_beta                 90.159(3)
_cell_angle_gamma                78.388(3)
_cell_volume                     1981.81
_exptl_crystal_colour            yellow
_exptl_crystal_description       plate
_cell_formula_units_Z            4
loop_
_atom_site_label
_atom_site_type_symbol
_atom_site_fract_x
_atom_site_fract_y
_atom_site_fract_z
O1 O 0.6724(5) 1.2273(4) 0.3727(3)
O2 O 0.6591(5) 1.1050(4) 0.2875(3)
O3 O 0.8445(6) 0.7025(4) 0.3496(3)
O4 O 0.9404(5) 0.6221(4) 0.4651(3)
N1 N 0.6927(6) 1.1274(4) 0.3533(4)
N2 N 0.8813(5) 0.7098(5) 0.4187(4)
N3 N 0.9473(6) 0.7499(5) 0.5820(3)
H1 H 0.9753 0.6787 0.5693
N4 N 0.9598(5) 0.7745(5) 0.6620(3)
C1 C 0.7622(6) 1.0300(5) 0.4118(4)
C2 C 0.7927(6) 0.9183(5) 0.3900(4)
H2 H 0.7700 0.9060 0.3371
C3 C 0.8563(7) 0.8242(5) 0.4449(4)
C4 C 0.8902(6) 0.8411(5) 0.5256(4)
C5 C 0.8585(7) 0.9579(5) 0.5433(4)
H3 H 0.8802 0.9725 0.5958
C6 C 0.7980(7) 1.0505(5) 0.4884(4)
H4 H 0.7805 1.1283 0.5021
C7 C 1.0134(6) 0.6816(6) 0.7134(4)
C8 C 1.0610(8) 0.5583(6) 0.6943(5)
H5 H 0.9865 0.5224 0.6855
H6 H 1.1155 0.5110 0.7398
H7 H 1.1122 0.5612 0.6452
C9 C 1.0324(7) 0.7079(6) 0.7985(4)
H8 H 0.9840 0.7903 0.8008
C10 C 1.1759(8) 0.7046(7) 0.8167(5)
H9 H 1.2075 0.7602 0.7748
H10 H 1.2265 0.6243 0.8133
C11 C 1.2009(9) 0.7371(8) 0.9006(5)
H11 H 1.2956 0.7263 0.9113
H12 H 1.1610 0.8211 0.9021
C12 C 1.1436(7) 0.6599(7) 0.9651(5)
H13 H 1.1529 0.6869 1.0182
H14 H 1.1936 0.5778 0.9689
C13 C 0.9990(6) 0.6610(6) 0.9483(4)
H15 H 0.9687 0.6051 0.9905
H16 H 0.9470 0.7409 0.9510
C14 C 0.9779(7) 0.6261(5) 0.8641(4)
H17 H 1.0304 0.5446 0.8641
C15 C 0.8341(6) 0.6204(5) 0.8490(4)
C16 C 0.8028(7) 0.5184(6) 0.8406(4)
H18 H 0.8713 0.4518 0.8397
C17 C 0.6669(7) 0.5017(6) 0.8325(5)
H19 H 0.6451 0.4553 0.8831
H20 H 0.6614 0.4553 0.7876
C18 C 0.5685(9) 0.6148(7) 0.8163(7)
H21 H 0.5641 0.6436 0.7573
H22 H 0.4820 0.5992 0.8317
C19 C 0.5973(7) 0.7090(6) 0.8608(5)
H23 H 0.5856 0.6872 0.9195
H24 H 0.5350 0.7838 0.8422
C20 C 0.7350(7) 0.7279(5) 0.8475(5)
H25 H 0.7365 0.7775 0.7943
H26 H 0.7582 0.7724 0.8898
C21 C 0.2887(14) 0.3208(13) 0.8622(19)
H27 H 0.2646 0.3646 0.9085
H28 H 0.2772 0.3809 0.8132
O5 O 0.1731(4) 0.7328(3) 0.4244(3)
O6 O 0.1632(5) 0.6277(4) 0.3274(3)
O7 O 0.3497(5) 0.2243(4) 0.3603(3)
O8 O 0.4546(5) 0.1289(4) 0.4689(3)
N5 N 0.2013(5) 0.6393(4) 0.3962(4)
N6 N 0.3937(5) 0.2220(4) 0.4292(3)
N7 N 0.4889(5) 0.2400(4) 0.5907(3)
H29 H 0.4955 0.1696 0.5760
N8 N 0.5499(5) 0.2530(4) 0.6629(3)
C22 C 0.2768(6) 0.5355(5) 0.4459(4)
C23 C 0.3030(6) 0.4301(5) 0.4170(4)
H30 H 0.2733 0.4246 0.3641
C24 C 0.3725(6) 0.3320(5) 0.4646(4)
C25 C 0.4191(6) 0.3373(5) 0.5432(4)
C26 C 0.3922(6) 0.4460(5) 0.5726(4)
H31 H 0.4234 0.4519 0.6252
C27 C 0.3183(6) 0.5475(6) 0.5241(4)
H32 H 0.2976 0.6212 0.5439
C28 C 0.6004(6) 0.1522(5) 0.7051(4)
C29 C 0.5895(7) 0.0347(5) 0.6843(4)
H33 H 0.4981 0.0342 0.6729
H34 H 0.6229 -0.0264 0.7301
H35 H 0.6402 0.0190 0.6364
C30 C 0.6776(6) 0.1555(5) 0.7826(4)
H36 H 0.6746 0.2401 0.7879
C31 C 0.8181(7) 0.0960(6) 0.7779(5)
H37 H 0.8559 0.1339 0.7294
H38 H 0.8235 0.0120 0.7721
C32 C 0.8971(7) 0.1038(6) 0.8535(5)
H39 H 0.9874 0.0597 0.8502
H40 H 0.8998 0.1873 0.8564
C33 C 0.8368(7) 0.0527(6) 0.9290(5)
H41 H 0.8854 0.0635 0.9775
H42 H 0.8442 -0.0331 0.9290
C34 C 0.6939(7) 0.1108(6) 0.9343(5)
H43 H 0.6867 0.1953 0.9392
H44 H 0.6575 0.0729 0.9834
C35 C 0.6150(6) 0.0995(5) 0.8586(4)
H45 H 0.6256 0.0134 0.8552
C36 C 0.4705(7) 0.1488(6) 0.8634(4)
C37 C 0.3851(6) 0.0826(6) 0.8568(4)
H46 H 0.4167 0.0024 0.8503
C38 C 0.2399(7) 0.1253(7) 0.8589(5)
H47 H 0.2074 0.0863 0.9091
H48 H 0.1982 0.1019 0.8121
C39 C 0.1998(12) 0.2619(12) 0.8560(10)
H49 H 0.1509 0.2942 0.8042
H50 H 0.1386 0.2775 0.9002
C40 C 0.4297(7) 0.2751(6) 0.8722(5)
H51 H 0.4586 0.2867 0.9267
H52 H 0.4743 0.3220 0.8315
C41? C 0.209(2) 0.2233(19) 0.8933(14)
C42? C 0.279(4) 0.301(4) 0.900(3)
H53? H 0.1270 0.2677 0.8657
H54? H 0.1869 0.1965 0.9496
H55? H 0.2785 0.3149 0.9570
H56? H 0.2339 0.3763 0.8671
loop_
_geom_bond_atom_site_label_1
_geom_bond_atom_site_label_2
_geom_bond_site_symmetry_1
_geom_bond_site_symmetry_2
O1 N1 1_555 1_555
O2 N1 1_555 1_555
O3 N2 1_555 1_555
O4 N2 1_555 1_555
N1 C1 1_555 1_555
N2 C3 1_555 1_555
N3 H1 1_555 1_555
N4 N3 1_555 1_555
C1 C2 1_555 1_555
C2 H2 1_555 1_555
C3 C2 1_555 1_555
C4 N3 1_555 1_555
C5 C4 1_555 1_555
H3 C5 1_555 1_555
C6 C1 1_555 1_555
H4 C6 1_555 1_555
C7 N4 1_555 1_555
C8 C7 1_555 1_555
H5 C8 1_555 1_555
H6 C8 1_555 1_555
H7 C8 1_555 1_555
C9 C7 1_555 1_555
H8 C9 1_555 1_555
C10 C9 1_555 1_555
H9 C10 1_555 1_555
H10 C10 1_555 1_555
C11 C10 1_555 1_555
H11 C11 1_555 1_555
H12 C11 1_555 1_555
C12 C11 1_555 1_555
H13 C12 1_555 1_555
H14 C12 1_555 1_555
C13 C12 1_555 1_555
H15 C13 1_555 1_555
H16 C13 1_555 1_555
C14 C9 1_555 1_555
H17 C14 1_555 1_555
C15 C14 1_555 1_555
C16 C15 1_555 1_555
H18 C16 1_555 1_555
C17 C16 1_555 1_555
H19 C17 1_555 1_555
H20 C17 1_555 1_555
C18 C17 1_555 1_555
H21 C18 1_555 1_555
H22 C18 1_555 1_555
C19 C18 1_555 1_555
H23 C19 1_555 1_555
H24 C19 1_555 1_555
C20 C15 1_555 1_555
H25 C20 1_555 1_555
H26 C20 1_555 1_555
C21 H27 1_555 1_555
H28 C21 1_555 1_555
O5 N5 1_555 1_555
O6 N5 1_555 1_555
O7 N6 1_555 1_555
O8 N6 1_555 1_555
N5 C22 1_555 1_555
N6 C24 1_555 1_555
N7 H29 1_555 1_555
N8 N7 1_555 1_555
C22 C23 1_555 1_555
C23 H30 1_555 1_555
C24 C23 1_555 1_555
C25 N7 1_555 1_555
C26 C25 1_555 1_555
H31 C26 1_555 1_555
C27 C22 1_555 1_555
H32 C27 1_555 1_555
C28 N8 1_555 1_555
C29 C28 1_555 1_555
H33 C29 1_555 1_555
H34 C29 1_555 1_555
H35 C29 1_555 1_555
C30 C28 1_555 1_555
H36 C30 1_555 1_555
C31 C30 1_555 1_555
H37 C31 1_555 1_555
H38 C31 1_555 1_555
C32 C31 1_555 1_555
H39 C32 1_555 1_555
H40 C32 1_555 1_555
C33 C32 1_555 1_555
H41 C33 1_555 1_555
H42 C33 1_555 1_555
C34 C33 1_555 1_555
H43 C34 1_555 1_555
H44 C34 1_555 1_555
C35 C30 1_555 1_555
H45 C35 1_555 1_555
C36 C35 1_555 1_555
C37 C36 1_555 1_555
H46 C37 1_555 1_555
C38 C37 1_555 1_555
H47 C38 1_555 1_555
H48 C38 1_555 1_555
C39 C21 1_555 1_555
H49 C39 1_555 1_555
H50 C39 1_555 1_555
C40 C21 1_555 1_555
H51 C40 1_555 1_555
H52 C40 1_555 1_555
C3 C4 1_555 1_555
C5 C6 1_555 1_555
C13 C14 1_555 1_555
C19 C20 1_555 1_555
C24 C25 1_555 1_555
C26 C27 1_555 1_555
C34 C35 1_555 1_555
C36 C40 1_555 1_555
C38 C39 1_555 1_555

#END
