
#######################################################################
#
#                 Cambridge Crystallographic Data Centre
#                                CCDC 
#
#######################################################################
#
# If this CIF has been generated from an entry in the Cambridge 
# Structural Database, then it will include bibliographic, chemical, 
# crystal, experimental, refinement or atomic coordinate data resulting 
# from the CCDC's data processing and validation procedures.
#
#######################################################################

data_WETKAJ
_chemical_formula_moiety         'C19 H20 Br1 N1 O2 S2'
_chemical_name_systematic        
(10-(4-Bromophenyl)-3-isopropyl-4-oxo-2-thioxo-1-thia-3-azaspiro[4.5]dec-7-en-6-yl)acetaldehyde
_symmetry_cell_setting           monoclinic
_symmetry_space_group_name_H-M   'P 21'
_symmetry_Int_Tables_number      4
_space_group_name_Hall           'P 2yb'
loop_
_symmetry_equiv_pos_site_id
_symmetry_equiv_pos_as_xyz
1 x,y,z
2 -x,1/2+y,-z
_cell_length_a                   9.9067(13)
_cell_length_b                   9.1539(13)
_cell_length_c                   10.9950(15)
_cell_angle_alpha                90
_cell_angle_beta                 106.318(2)
_cell_angle_gamma                90
_cell_volume                     956.916
_exptl_crystal_colour            colorless
_exptl_crystal_description       prismatic
_cell_formula_units_Z            2
loop_
_atom_site_label
_atom_site_type_symbol
_atom_site_fract_x
_atom_site_fract_y
_atom_site_fract_z
Br1 Br 0.97043(4) 0.12260(6) -0.14119(3)
S1 S 0.71322(10) 0.65028(10) 0.29048(10)
S2 S 0.51551(7) 0.40706(7) 0.21253(7)
N1 N 0.7680(2) 0.3683(3) 0.3538(2)
O1 O 0.78036(19) 0.1232(3) 0.39241(17)
O2 O 0.6440(3) 0.2407(4) 0.6071(3)
C1 C 0.6796(3) 0.4767(3) 0.2926(3)
C2 C 0.7134(3) 0.2276(3) 0.3459(3)
C3 C 0.5581(3) 0.2223(3) 0.2725(3)
C4 C 0.5326(3) 0.1083(4) 0.1637(2)
H1 H 0.5417 0.0116 0.2034
C5 C 0.3790(3) 0.1224(5) 0.0817(3)
H2 H 0.3690 0.2104 0.0308
H3 H 0.3554 0.0396 0.0247
C6 C 0.2804(3) 0.1285(6) 0.1609(3)
H4 H 0.1852 0.1149 0.1210
C7 C 0.3183(3) 0.1516(5) 0.2831(3)
H5 H 0.2488 0.1471 0.3248
C8 C 0.4653(3) 0.1849(4) 0.3611(3)
H6 H 0.4601 0.2736 0.4096
C9 C 0.5218(3) 0.0639(4) 0.4575(3)
H7 H 0.4436 0.0185 0.4798
H8 H 0.5661 -0.0101 0.4185
C10 C 0.6262(4) 0.1172(6) 0.5761(3)
H9 H 0.6811 0.0476 0.6293
C11 C 0.9176(3) 0.4001(4) 0.4266(3)
H10 H 0.9339 0.5043 0.4158
C12 C 1.0194(4) 0.3167(6) 0.3738(5)
H11 H 1.0163 0.2150 0.3940
H12 H 1.1128 0.3535 0.4102
H13 H 0.9941 0.3286 0.2834
C13 C 0.9379(4) 0.3743(5) 0.5673(4)
H14 H 0.9336 0.2714 0.5828
H15 H 0.8651 0.4235 0.5932
H16 H 1.0279 0.4115 0.6146
C14 C 0.6386(3) 0.1146(4) 0.0875(2)
C15 C 0.6297(3) 0.2164(4) -0.0078(3)
H17 H 0.5568 0.2841 -0.0264
C16 C 0.7282(4) 0.2183(4) -0.0757(3)
H18 H 0.7214 0.2869 -0.1395
C17 C 0.8351(3) 0.1190(4) -0.0484(2)
C18 C 0.8448(4) 0.0150(4) 0.0434(3)
H19 H 0.9164 -0.0542 0.0599
C19 C 0.7468(4) 0.0144(4) 0.1111(3)
H20 H 0.7539 -0.0552 0.1742
loop_
_geom_bond_atom_site_label_1
_geom_bond_atom_site_label_2
_geom_bond_site_symmetry_1
_geom_bond_site_symmetry_2
Br1 C17 1_555 1_555
S1 C1 1_555 1_555
S2 C1 1_555 1_555
N1 C1 1_555 1_555
O1 C2 1_555 1_555
O2 C10 1_555 1_555
C2 N1 1_555 1_555
C3 S2 1_555 1_555
C4 C3 1_555 1_555
H1 C4 1_555 1_555
C5 C4 1_555 1_555
H2 C5 1_555 1_555
H3 C5 1_555 1_555
C6 C5 1_555 1_555
H4 C6 1_555 1_555
C7 C6 1_555 1_555
H5 C7 1_555 1_555
C8 C3 1_555 1_555
H6 C8 1_555 1_555
C9 C8 1_555 1_555
H7 C9 1_555 1_555
H8 C9 1_555 1_555
C10 C9 1_555 1_555
H9 C10 1_555 1_555
C11 N1 1_555 1_555
H10 C11 1_555 1_555
C12 C11 1_555 1_555
H11 C12 1_555 1_555
H12 C12 1_555 1_555
H13 C12 1_555 1_555
C13 C11 1_555 1_555
H14 C13 1_555 1_555
H15 C13 1_555 1_555
H16 C13 1_555 1_555
C14 C4 1_555 1_555
C15 C14 1_555 1_555
H17 C15 1_555 1_555
C16 C15 1_555 1_555
H18 C16 1_555 1_555
C17 C16 1_555 1_555
C18 C17 1_555 1_555
H19 C18 1_555 1_555
C19 C14 1_555 1_555
H20 C19 1_555 1_555
C2 C3 1_555 1_555
C7 C8 1_555 1_555
C18 C19 1_555 1_555

#END
