
#######################################################################
#
#                 Cambridge Crystallographic Data Centre
#                                CCDC 
#
#######################################################################
#
# If this CIF has been generated from an entry in the Cambridge 
# Structural Database, then it will include bibliographic, chemical, 
# crystal, experimental, refinement or atomic coordinate data resulting 
# from the CCDC's data processing and validation procedures.
#
#######################################################################

data_WETNEO
_chemical_formula_moiety         'C1 H6 N3 1+,C1 H3 O3 S1 1-'
_chemical_name_systematic        'Guanidinium methanesulfonate'
_symmetry_cell_setting           monoclinic
_symmetry_space_group_name_H-M   'C 2/m'
_symmetry_Int_Tables_number      12
_space_group_name_Hall           '-C 2y'
loop_
_symmetry_equiv_pos_site_id
_symmetry_equiv_pos_as_xyz
1 x,y,z
2 1/2+x,1/2+y,z
3 -x,y,-z
4 1/2-x,1/2+y,-z
5 -x,-y,-z
6 1/2-x,1/2-y,-z
7 x,-y,z
8 1/2+x,1/2-y,z
_cell_length_a                   12.778(5)
_cell_length_b                   7.342(2)
_cell_length_c                   9.998(2)
_cell_angle_alpha                90
_cell_angle_beta                 126.96(2)
_cell_angle_gamma                90
_cell_volume                     749.493
_exptl_crystal_colour            colorless
_chemical_melting_point          206-207deg.C
_cell_formula_units_Z            4
loop_
_atom_site_label
_atom_site_type_symbol
_atom_site_fract_x
_atom_site_fract_y
_atom_site_fract_z
S1 S 0.7690 0.0000 0.2230
O1 O 0.6791(3) 0.0000 0.2663(4)
O2 O 0.8471(2) 0.1634(2) 0.2764(3)
C1 C 0.6730(5) 0.0000 0.0025(6)
O2F O 0.8471(2) -0.1634(2) 0.2764(3)
N1 N 0.7514(4) 0.5000 0.3230(6)
N2 N 0.5968(2) 0.3400 0.3228(3)
C2 C 0.6488(4) 0.5000 0.3233(4)
H1 H 0.789(3) 0.407(3) 0.324(4)
H2 H 0.642(5) 0.236(7) 0.329(6)
H3 H 0.544(3) 0.358(4) 0.331(3)
H1F H 0.789(3) 0.593(3) 0.324(4)
N2F N 0.5968(2) 0.6600 0.3228(3)
H2F H 0.642(5) 0.764(7) 0.329(6)
H3F H 0.544(3) 0.642(4) 0.331(3)
H4? H 0.7261 0.0336 -0.0311
H5? H 0.6034 0.0847 -0.0420
H6? H 0.6383 -0.1184 -0.0389
loop_
_geom_bond_atom_site_label_1
_geom_bond_atom_site_label_2
_geom_bond_site_symmetry_1
_geom_bond_site_symmetry_2
S1 O1 1_555 1_555
O2 S1 1_555 1_555
C1 S1 1_555 1_555
N1 C2 1_555 1_555
N2 C2 1_555 1_555
C2 N2F 1_555 1_555
H1 N1 1_555 1_555
H2 N2 1_555 1_555
H3 N2 1_555 1_555
O2F S1 1_555 1_555
H1F N1 1_555 1_555
N2F H2F 1_555 1_555
H3F N2F 1_555 1_555

#END
