
#######################################################################
#
#                 Cambridge Crystallographic Data Centre
#                                CCDC 
#
#######################################################################
#
# If this CIF has been generated from an entry in the Cambridge 
# Structural Database, then it will include bibliographic, chemical, 
# crystal, experimental, refinement or atomic coordinate data resulting 
# from the CCDC's data processing and validation procedures.
#
#######################################################################

data_WETPUG
_chemical_formula_moiety         'C10 H7 O3 S1 1-,C1 H6 N3 1+'
_chemical_name_systematic        'Guanidinium 2-naphthalenesulfonate'
_symmetry_cell_setting           monoclinic
_symmetry_space_group_name_H-M   'P 21/c'
_symmetry_Int_Tables_number      14
_space_group_name_Hall           '-P 2ybc'
loop_
_symmetry_equiv_pos_site_id
_symmetry_equiv_pos_as_xyz
1 x,y,z
2 -x,1/2+y,1/2-z
3 -x,-y,-z
4 x,1/2-y,1/2+z
_cell_length_a                   7.495(6)
_cell_length_b                   28.349(6)
_cell_length_c                   12.040(3)
_cell_angle_alpha                90
_cell_angle_beta                 91.29(5)
_cell_angle_gamma                90
_cell_volume                     2557.56
_exptl_crystal_colour            colorless
_chemical_melting_point          267-268deg.C
_cell_formula_units_Z            8
loop_
_atom_site_label
_atom_site_type_symbol
_atom_site_fract_x
_atom_site_fract_y
_atom_site_fract_z
N1 N 0.6503(6) 0.0720(2) 0.3031(4)
N2 N 0.3443(6) 0.0724(2) 0.3012(4)
N3 N 0.4935(8) 0.0688(2) 0.1381(4)
C1 C 0.4977(7) 0.0706(2) 0.2484(4)
H1 H 0.653(6) 0.073(2) 0.377(4)
H2 H 0.748(7) 0.074(2) 0.267(4)
H3 H 0.346(7) 0.073(2) 0.372(4)
H4 H 0.237(7) 0.074(2) 0.264(4)
H5 H 0.380(8) 0.067(2) 0.089(4)
H6 H 0.582(6) 0.070(2) 0.102(4)
N4 N 0.1604(7) 0.0283(2) 0.7985(4)
N5 N -0.1457(7) 0.0270(2) 0.7924(4)
N6 N 0.0073(9) 0.0316(2) 0.6319(4)
C2 C 0.0086(7) 0.0296(2) 0.7425(4)
H7 H 0.161(7) 0.030(2) 0.858(4)
H8 H 0.264(6) 0.028(1) 0.770(3)
H9 H -0.144(6) 0.029(2) 0.862(4)
H10 H -0.258(9) 0.027(2) 0.747(5)
H11 H -0.09(1) 0.049(2) 0.601(6)
H12 H 0.100(8) 0.040(2) 0.599(4)
S1 S 0.5027(2) 0.07574(5) 0.6100(1)
O1 O 0.3408(4) 0.0755(1) 0.5416(2)
O2 O 0.6641(4) 0.0720(1) 0.5451(3)
O3 O 0.5002(4) 0.0408(1) 0.6985(3)
C3 C 0.4593(6) 0.1709(2) 0.6224(4)
C4 C 0.5148(6) 0.1313(2) 0.6766(4)
C5 C 0.5905(7) 0.1345(2) 0.7857(4)
C6 C 0.6101(7) 0.1776(2) 0.8352(4)
C7 C 0.5880(8) 0.2641(2) 0.8284(5)
C8 C 0.5391(8) 0.3030(2) 0.7720(6)
C9 C 0.461(1) 0.3003(2) 0.6632(6)
C10 C 0.4305(8) 0.2575(2) 0.6167(5)
C11 C 0.4823(6) 0.2160(2) 0.6710(4)
C12 C 0.5602(6) 0.2191(2) 0.7799(4)
H13 H 0.4043 0.1683 0.5508
H14 H 0.6274 0.1068 0.8240
H15 H 0.6586 0.1794 0.9086
H16 H 0.6410 0.2668 0.9005
H17 H 0.5570 0.3330 0.8054
H18 H 0.4303 0.3283 0.6238
H19 H 0.3729 0.2556 0.5458
S2 S -0.0076(2) 0.08733(5) 1.0683(1)
O4 O -0.1736(4) 0.0688(1) 1.0211(3)
O5 O 0.1465(5) 0.0605(1) 1.0317(3)
O6 O -0.0119(4) 0.0920(1) 1.1890(2)
C13 C -0.0375(6) 0.1831(2) 1.0715(4)
C14 C 0.0179(6) 0.1447(2) 1.0141(3)
C15 C 0.0927(7) 0.1500(2) 0.9081(4)
C16 C 0.1101(7) 0.1938(2) 0.8636(4)
C17 C 0.0754(8) 0.2805(3) 0.8770(5)
C18 C 0.021(1) 0.3190(2) 0.9369(6)
C19 C -0.0526(9) 0.3138(2) 1.0399(6)
C20 C -0.0748(7) 0.2701(2) 1.0849(5)
C21 C -0.0209(6) 0.2292(2) 1.0269(4)
C22 C 0.0551(7) 0.2344(2) 0.9214(4)
H20 H -0.0880 0.1791 1.1426
H21 H 0.1306 0.1231 0.8680
H22 H 0.1603 0.1972 0.7923
H23 H 0.1264 0.2848 0.8062
H24 H 0.0343 0.3497 0.9067
H25 H -0.0883 0.3409 1.0800
H26 H -0.1269 0.2671 1.1558
loop_
_geom_bond_atom_site_label_1
_geom_bond_atom_site_label_2
_geom_bond_site_symmetry_1
_geom_bond_site_symmetry_2
N1 C1 1_555 1_555
N2 C1 1_555 1_555
N3 C1 1_555 1_555
H1 N1 1_555 1_555
H2 N1 1_555 1_555
H3 N2 1_555 1_555
H4 N2 1_555 1_555
H5 N3 1_555 1_555
H6 N3 1_555 1_555
N4 C2 1_555 1_555
N5 C2 1_555 1_555
N6 C2 1_555 1_555
H7 N4 1_555 1_555
H8 N4 1_555 1_555
H9 N5 1_555 1_555
H10 N5 1_555 1_555
H11 N6 1_555 1_555
H12 N6 1_555 1_555
S1 O1 1_555 1_555
O2 S1 1_555 1_555
O3 S1 1_555 1_555
C3 C4 1_555 1_555
C4 S1 1_555 1_555
C5 C4 1_555 1_555
C6 C5 1_555 1_555
C7 C8 1_555 1_555
C8 C9 1_555 1_555
C9 C10 1_555 1_555
C10 C11 1_555 1_555
C11 C3 1_555 1_555
C12 C6 1_555 1_555
H13 C3 1_555 1_555
H14 C5 1_555 1_555
H15 C6 1_555 1_555
H16 C7 1_555 1_555
H17 C8 1_555 1_555
H18 C9 1_555 1_555
H19 C10 1_555 1_555
S2 O4 1_555 1_555
O5 S2 1_555 1_555
O6 S2 1_555 1_555
C13 C14 1_555 1_555
C14 S2 1_555 1_555
C15 C14 1_555 1_555
C16 C15 1_555 1_555
C17 C18 1_555 1_555
C18 C19 1_555 1_555
C19 C20 1_555 1_555
C20 C21 1_555 1_555
C21 C13 1_555 1_555
C22 C16 1_555 1_555
H20 C13 1_555 1_555
H21 C15 1_555 1_555
H22 C16 1_555 1_555
H23 C17 1_555 1_555
H24 C18 1_555 1_555
H25 C19 1_555 1_555
H26 C20 1_555 1_555
C7 C12 1_555 1_555
C11 C12 1_555 1_555
C17 C22 1_555 1_555
C21 C22 1_555 1_555

#END
