
#######################################################################
#
#                 Cambridge Crystallographic Data Centre
#                                CCDC 
#
#######################################################################
#
# If this CIF has been generated from an entry in the Cambridge 
# Structural Database, then it will include bibliographic, chemical, 
# crystal, experimental, refinement or atomic coordinate data resulting 
# from the CCDC's data processing and validation procedures.
#
#######################################################################

data_WETPOA
_chemical_formula_moiety         'C10 H7 O3 S1 1-,C1 H6 N3 1+'
_chemical_name_systematic        'Guanidinium 1-naphthalenesulfonate'
_symmetry_cell_setting           orthorhombic
_symmetry_space_group_name_H-M   'P n m a'
_symmetry_Int_Tables_number      62
_space_group_name_Hall           '-P 2ac 2n'
loop_
_symmetry_equiv_pos_site_id
_symmetry_equiv_pos_as_xyz
1 x,y,z
2 1/2-x,1/2+y,1/2+z
3 x,1/2-y,z
4 1/2-x,-y,1/2+z
5 -x,-y,-z
6 1/2+x,1/2-y,1/2-z
7 -x,1/2+y,-z
8 1/2+x,y,1/2-z
_cell_length_a                   21.429(8)
_cell_length_b                   7.386(3)
_cell_length_c                   8.074(3)
_cell_angle_alpha                90
_cell_angle_beta                 90
_cell_angle_gamma                90
_cell_volume                     1277.91
_exptl_crystal_colour            colorless
_chemical_melting_point          277-278.5deg.C
_cell_formula_units_Z            4
loop_
_atom_site_label
_atom_site_type_symbol
_atom_site_fract_x
_atom_site_fract_y
_atom_site_fract_z
N1 N 0.8063(2) -0.2500 0.7149(6)
N2 N 0.7302(2) -0.0961(5) 0.8507(4)
C1 C 0.7563(2) -0.2500 0.8069(6)
H1 H 0.826(1) -0.339(4) 0.689(4)
H2 H 0.751(2) 0.010(8) 0.834(5)
H3 H 0.700(1) -0.092(4) 0.915(4)
H1B H 0.826(1) -0.161(4) 0.689(4)
N2B N 0.7302(2) -0.4039(5) 0.8507(4)
H2B H 0.751(2) -0.510(8) 0.834(5)
H3B H 0.700(1) -0.408(4) 0.915(4)
S1 S 0.85524(5) 0.2500 0.7255(1)
O1 O 0.7965(1) 0.2500 0.8157(4)
O2 O 0.86263(9) 0.0872(3) 0.6252(2)
C2 C 0.9155(2) 0.2500 0.8729(5)
C3 C 0.8997(3) 0.2500 1.0362(7)
C4 C 0.9460(4) 0.2500 1.1608(7)
C5 C 1.0065(4) 0.2500 1.1172(8)
C6 C 1.0256(2) 0.2500 0.9487(7)
C7 C 1.0897(3) 0.2500 0.9007
C8 C 1.1069(3) 0.2500 0.742(1)
C9 C 1.0616(2) 0.2500 0.6197(7)
C10 C 0.9998(2) 0.2500 0.6582(6)
C11 C 0.9792(2) 0.2500 0.8238(6)
H4 H 0.8569 0.2500 1.0670
H5 H 0.9344 0.2500 1.2743
H6 H 1.0374 0.2500 1.2015
H7 H 1.1209 0.2500 0.9842
H8 H 1.1500 0.2500 0.7135
H9 H 1.0741 0.2500 0.5067
H10 H 0.9698 0.2500 0.5715
O2B O 0.86263(9) 0.4128(3) 0.6252(2)
loop_
_geom_bond_atom_site_label_1
_geom_bond_atom_site_label_2
_geom_bond_site_symmetry_1
_geom_bond_site_symmetry_2
N1 C1 1_555 1_555
N2 C1 1_555 1_555
C1 N2B 1_555 1_555
H1 N1 1_555 1_555
H2 N2 1_555 1_555
H3 N2 1_555 1_555
S1 O1 1_555 1_555
O2 S1 1_555 1_555
C2 S1 1_555 1_555
C3 C2 1_555 1_555
C4 C3 1_555 1_555
C5 C4 1_555 1_555
C6 C5 1_555 1_555
C7 C6 1_555 1_555
C8 C7 1_555 1_555
C9 C8 1_555 1_555
C10 C9 1_555 1_555
C11 C2 1_555 1_555
H4 C3 1_555 1_555
H5 C4 1_555 1_555
H6 C5 1_555 1_555
H7 C7 1_555 1_555
H8 C8 1_555 1_555
H9 C9 1_555 1_555
H10 C10 1_555 1_555
H1B N1 1_555 1_555
N2B H2B 1_555 1_555
H3B N2B 1_555 1_555
O2B S1 1_555 1_555
C6 C11 1_555 1_555
C10 C11 1_555 1_555

#END
