
#######################################################################
#
#                 Cambridge Crystallographic Data Centre
#                                CCDC 
#
#######################################################################
#
# If this CIF has been generated from an entry in the Cambridge 
# Structural Database, then it will include bibliographic, chemical, 
# crystal, experimental, refinement or atomic coordinate data resulting 
# from the CCDC's data processing and validation procedures.
#
#######################################################################

data_WETPER
_chemical_name_common            'DrugBank: DB06255'
_chemical_formula_moiety         'C8 H19 N1 O6 P2'
_chemical_name_systematic        
'(Cycloheptylamine)methylenebis(phosphonic acid)'
_symmetry_cell_setting           monoclinic
_symmetry_space_group_name_H-M   'P 21/c'
_symmetry_Int_Tables_number      14
_space_group_name_Hall           '-P 2ybc'
loop_
_symmetry_equiv_pos_site_id
_symmetry_equiv_pos_as_xyz
1 x,y,z
2 -x,1/2+y,1/2-z
3 -x,-y,-z
4 x,1/2-y,1/2+z
_cell_length_a                   11.540(3)
_cell_length_b                   6.5177(16)
_cell_length_c                   16.752(4)
_cell_angle_alpha                90
_cell_angle_beta                 91.214(5)
_cell_angle_gamma                90
_cell_volume                     1259.71
_exptl_crystal_colour            colorless
_exptl_crystal_description       platy
_cell_formula_units_Z            4
_exptl_crystal_recrystallization_method 'water/ethanol at pH 1'
loop_
_atom_site_label
_atom_site_type_symbol
_atom_site_fract_x
_atom_site_fract_y
_atom_site_fract_z
P1 P 1.11895(9) 0.17741(16) 0.08776(6)
P2 P 0.97350(9) 0.54715(15) 0.14987(6)
O1 O 1.0985(2) -0.0356(4) 0.05974(14)
O2 O 1.1843(2) 0.1918(4) 0.16918(14)
H1 H 1.148(3) 0.121(5) 0.2025(18)
O3 O 1.1885(2) 0.3126(4) 0.03148(14)
H2 H 1.163(3) 0.301(6) -0.0158(13)
O4 O 0.8822(2) 0.6809(4) 0.11003(14)
O5 O 1.0971(2) 0.6307(4) 0.13667(15)
H3 H 1.095(3) 0.741(4) 0.1097(19)
O6 O 0.9558(2) 0.5029(4) 0.23673(14)
N1 N 0.8956(3) 0.1437(5) 0.13625(18)
H4 H 0.921(3) 0.115(6) 0.1849(13)
H5 H 0.898(3) 0.031(4) 0.1084(18)
C1 C 0.9759(3) 0.2963(6) 0.0981(2)
H6 H 0.9448 0.3207 0.0427
C2 C 0.7694(3) 0.2049(6) 0.1443(2)
H7 H 0.7674 0.3408 0.1720
C3 C 0.7140(3) 0.0480(6) 0.1987(2)
H8 H 0.7202 -0.0892 0.1737
H9 H 0.7583 0.0441 0.2499
C4 C 0.5877(4) 0.0892(8) 0.2161(3)
H10 H 0.5801 0.2337 0.2333
H11 H 0.5650 0.0013 0.2613
C5 C 0.5029(4) 0.0521(9) 0.1470(3)
H12 H 0.5273 -0.0738 0.1188
H13 H 0.4258 0.0245 0.1693
C6 C 0.4897(4) 0.2223(8) 0.0858(3)
H14 H 0.4607 0.1608 0.0352
H15 H 0.4293 0.3179 0.1045
C7 C 0.5966(4) 0.3463(8) 0.0679(3)
H16 H 0.6055 0.4530 0.1096
H17 H 0.5828 0.4178 0.0164
C8 C 0.7113(3) 0.2308(7) 0.0629(2)
H18 H 0.6970 0.0939 0.0390
H19 H 0.7639 0.3068 0.0275
loop_
_geom_bond_atom_site_label_1
_geom_bond_atom_site_label_2
_geom_bond_site_symmetry_1
_geom_bond_site_symmetry_2
P1 O1 1_555 1_555
P2 O4 1_555 1_555
O2 P1 1_555 1_555
H1 O2 1_555 1_555
O3 P1 1_555 1_555
H2 O3 1_555 1_555
O5 P2 1_555 1_555
H3 O5 1_555 1_555
O6 P2 1_555 1_555
N1 H4 1_555 1_555
H5 N1 1_555 1_555
C1 P1 1_555 1_555
H6 C1 1_555 1_555
C2 N1 1_555 1_555
H7 C2 1_555 1_555
C3 C2 1_555 1_555
H8 C3 1_555 1_555
H9 C3 1_555 1_555
C4 C3 1_555 1_555
H10 C4 1_555 1_555
H11 C4 1_555 1_555
C5 C4 1_555 1_555
H12 C5 1_555 1_555
H13 C5 1_555 1_555
C6 C5 1_555 1_555
H14 C6 1_555 1_555
H15 C6 1_555 1_555
C7 C6 1_555 1_555
H16 C7 1_555 1_555
H17 C7 1_555 1_555
C8 C2 1_555 1_555
H18 C8 1_555 1_555
H19 C8 1_555 1_555
P2 C1 1_555 1_555
N1 C1 1_555 1_555
C7 C8 1_555 1_555

#END
