
#######################################################################
#
#                 Cambridge Crystallographic Data Centre
#                                CCDC 
#
#######################################################################
#
# If this CIF has been generated from an entry in the Cambridge 
# Structural Database, then it will include bibliographic, chemical, 
# crystal, experimental, refinement or atomic coordinate data resulting 
# from the CCDC's data processing and validation procedures.
#
#######################################################################

data_WETPUH
_chemical_formula_moiety         'C5 H15 N1 O6 P2'
_chemical_name_systematic        '(Butylamine)methylenebis(phosphonic acid)'
_symmetry_cell_setting           monoclinic
_symmetry_space_group_name_H-M   'P 21/c'
_symmetry_Int_Tables_number      14
_space_group_name_Hall           '-P 2ybc'
loop_
_symmetry_equiv_pos_site_id
_symmetry_equiv_pos_as_xyz
1 x,y,z
2 -x,1/2+y,1/2-z
3 -x,-y,-z
4 x,1/2-y,1/2+z
_cell_length_a                   9.715(4)
_cell_length_b                   21.430(10)
_cell_length_c                   10.023(5)
_cell_angle_alpha                90
_cell_angle_beta                 93.575(8)
_cell_angle_gamma                90
_cell_volume                     2082.65
_exptl_crystal_colour            colorless
_exptl_crystal_description       platy
_cell_formula_units_Z            8
_exptl_crystal_recrystallization_method water
loop_
_atom_site_label
_atom_site_type_symbol
_atom_site_fract_x
_atom_site_fract_y
_atom_site_fract_z
P1 P 0.08739(6) 0.67103(3) 0.62353(6)
P2 P -0.03809(6) 0.79081(3) 0.50761(6)
O1 O -0.03368(15) 0.63830(7) 0.67365(15)
O2 O 0.20315(16) 0.62526(8) 0.58929(17)
H1 H 0.277(2) 0.6409(13) 0.575(3)
O3 O 0.14399(17) 0.72139(8) 0.72192(16)
H2 H 0.221(2) 0.7386(13) 0.714(3)
O4 O -0.13796(16) 0.78204(7) 0.61554(15)
O5 O 0.07878(16) 0.83423(7) 0.53781(17)
O6 O -0.12789(16) 0.80915(8) 0.37884(16)
H3 H -0.094(3) 0.8260(12) 0.315(2)
N1 N -0.0659(2) 0.67601(9) 0.3817(2)
H4 H -0.081(3) 0.6958(11) 0.305(2)
H5 H -0.146(2) 0.6734(12) 0.417(3)
C1 C 0.0337(2) 0.71347(10) 0.4697(2)
H6 H 0.1180 0.7205 0.4192
C2 C -0.0173(3) 0.61194(11) 0.3447(2)
H7 H 0.0103 0.5885 0.4272
H8 H 0.0648 0.6159 0.2915
C3 C -0.1279(3) 0.57600(11) 0.2649(3)
H9 H -0.1624 0.6013 0.1873
H10 H -0.2061 0.5680 0.3213
C4 C -0.0733(3) 0.51455(13) 0.2163(3)
H11 H 0.0067 0.5229 0.1623
H12 H -0.0401 0.4894 0.2946
C5 C -0.1780(4) 0.47726(14) 0.1337(3)
H13 H -0.2551 0.4665 0.1880
H14 H -0.1351 0.4389 0.1028
H15 H -0.2122 0.5020 0.0563
P3 P 0.42244(6) 0.82331(3) 0.63452(6)
P4 P 0.55434(6) 0.70727(3) 0.52004(6)
O7 O 0.36679(16) 0.77369(8) 0.72094(15)
O8 O 0.31735(16) 0.87375(8) 0.58831(17)
H16 H 0.238(2) 0.8599(13) 0.571(3)
O9 O 0.54860(16) 0.85772(8) 0.69719(16)
H17 H 0.580(3) 0.8394(12) 0.768(2)
O10 O 0.64572(15) 0.69197(7) 0.40724(15)
O11 O 0.43943(16) 0.66437(7) 0.54360(17)
O12 O 0.64902(16) 0.71595(8) 0.65160(16)
H18 H 0.720(2) 0.7344(12) 0.641(3)
N2 N 0.5831(2) 0.82567(9) 0.4164(2)
H19 H 0.656(2) 0.8318(13) 0.471(2)
H20 H 0.611(3) 0.8052(12) 0.348(2)
C6 C 0.4819(2) 0.78563(11) 0.4847(2)
H21 H 0.3995 0.7801 0.4209
C7 C 0.5274(3) 0.88673(11) 0.3618(3)
H22 H 0.4936 0.9118 0.4360
H23 H 0.4481 0.8784 0.2974
C8 C 0.6346(3) 0.92392(11) 0.2929(3)
H24 H 0.6760 0.8975 0.2251
H25 H 0.7089 0.9367 0.3593
C9 C 0.5707(3) 0.98151(13) 0.2258(3)
H26 H 0.4901 0.9686 0.1670
H27 H 0.5371 1.0095 0.2953
C10 C 0.6692(4) 1.01720(15) 0.1441(3)
H28 H 0.7022 0.9900 0.0743
H29 H 0.7477 1.0316 0.2022
H30 H 0.6216 1.0533 0.1026
loop_
_geom_bond_atom_site_label_1
_geom_bond_atom_site_label_2
_geom_bond_site_symmetry_1
_geom_bond_site_symmetry_2
P1 O1 1_555 1_555
P2 O4 1_555 1_555
O2 P1 1_555 1_555
H1 O2 1_555 1_555
O3 P1 1_555 1_555
H2 O3 1_555 1_555
O5 P2 1_555 1_555
O6 P2 1_555 1_555
H3 O6 1_555 1_555
N1 H4 1_555 1_555
H5 N1 1_555 1_555
C1 P1 1_555 1_555
H6 C1 1_555 1_555
C2 N1 1_555 1_555
H7 C2 1_555 1_555
H8 C2 1_555 1_555
C3 C2 1_555 1_555
H9 C3 1_555 1_555
H10 C3 1_555 1_555
C4 C3 1_555 1_555
H11 C4 1_555 1_555
H12 C4 1_555 1_555
C5 C4 1_555 1_555
H13 C5 1_555 1_555
H14 C5 1_555 1_555
H15 C5 1_555 1_555
P3 O7 1_555 1_555
P4 O10 1_555 1_555
O8 P3 1_555 1_555
H16 O8 1_555 1_555
O9 P3 1_555 1_555
H17 O9 1_555 1_555
O11 P4 1_555 1_555
O12 P4 1_555 1_555
H18 O12 1_555 1_555
N2 H19 1_555 1_555
H20 N2 1_555 1_555
C6 P3 1_555 1_555
H21 C6 1_555 1_555
C7 N2 1_555 1_555
H22 C7 1_555 1_555
H23 C7 1_555 1_555
C8 C7 1_555 1_555
H24 C8 1_555 1_555
H25 C8 1_555 1_555
C9 C8 1_555 1_555
H26 C9 1_555 1_555
H27 C9 1_555 1_555
C10 C9 1_555 1_555
H28 C10 1_555 1_555
H29 C10 1_555 1_555
H30 C10 1_555 1_555
P2 C1 1_555 1_555
N1 C1 1_555 1_555
P4 C6 1_555 1_555
N2 C6 1_555 1_555

#END
