
#######################################################################
#
#                 Cambridge Crystallographic Data Centre
#                                CCDC 
#
#######################################################################
#
# If this CIF has been generated from an entry in the Cambridge 
# Structural Database, then it will include bibliographic, chemical, 
# crystal, experimental, refinement or atomic coordinate data resulting 
# from the CCDC's data processing and validation procedures.
#
#######################################################################

data_WETQAO
_chemical_formula_moiety         'C4 H7 N1 O6 P2 S2'
_chemical_name_systematic        
'(1,3-Thiazol-2-ylthiolato)methylenebis(phosphonic acid)'
_symmetry_cell_setting           triclinic
_symmetry_space_group_name_H-M   'P -1'
_symmetry_Int_Tables_number      2
_space_group_name_Hall           '-P 1'
loop_
_symmetry_equiv_pos_site_id
_symmetry_equiv_pos_as_xyz
1 x,y,z
2 -x,-y,-z
_cell_length_a                   7.325(2)
_cell_length_b                   7.766(3)
_cell_length_c                   8.972(3)
_cell_angle_alpha                68.240(5)
_cell_angle_beta                 85.371(5)
_cell_angle_gamma                82.608(5)
_cell_volume                     469.772
_exptl_crystal_colour            colorless
_exptl_crystal_description       tabular
_cell_formula_units_Z            2
_exptl_crystal_recrystallization_method water
loop_
_atom_site_label
_atom_site_type_symbol
_atom_site_fract_x
_atom_site_fract_y
_atom_site_fract_z
P1 P 0.47475(7) 0.66098(7) 0.65067(6)
P2 P 0.05286(7) 0.67780(8) 0.60392(6)
S1 S 0.19088(8) 0.66225(7) 0.90328(6)
S2 S 0.18754(8) 1.07885(7) 0.84250(6)
O1 O 0.5934(2) 0.7380(2) 0.73504(19)
O2 O 0.4881(2) 0.4519(2) 0.70453(18)
O3 O 0.5147(2) 0.7521(2) 0.46602(18)
H1 H 0.515(4) 0.681(4) 0.417(3)
O4 O 0.0153(2) 0.4814(2) 0.70446(18)
O5 O -0.1095(2) 0.8242(2) 0.5999(2)
H2 H -0.206(3) 0.787(4) 0.649(3)
O6 O 0.1227(2) 0.7017(2) 0.43187(18)
H3 H 0.074(4) 0.645(4) 0.388(3)
N1 N 0.2992(3) 0.8217(3) 1.0922(2)
H4 H 0.338(4) 0.718(4) 1.156(3)
C1 C 0.2376(3) 0.7455(3) 0.6871(2)
H5 H 0.2274 0.8848 0.6462
C2 C 0.2368(3) 0.8479(3) 0.9511(2)
C3 C 0.3088(3) 0.9832(3) 1.1207(3)
H6 H 0.3492 0.9854 1.2179
C4 C 0.2548(3) 1.1361(3) 0.9956(3)
H7 H 0.2538 1.2600 0.9920
loop_
_geom_bond_atom_site_label_1
_geom_bond_atom_site_label_2
_geom_bond_site_symmetry_1
_geom_bond_site_symmetry_2
P1 O1 1_555 1_555
P2 O4 1_555 1_555
S1 C1 1_555 1_555
S2 C2 1_555 1_555
O2 P1 1_555 1_555
O3 P1 1_555 1_555
H1 O3 1_555 1_555
O5 P2 1_555 1_555
H2 O5 1_555 1_555
O6 P2 1_555 1_555
H3 O6 1_555 1_555
N1 H4 1_555 1_555
C1 P1 1_555 1_555
H5 C1 1_555 1_555
C2 S1 1_555 1_555
C3 N1 1_555 1_555
H6 C3 1_555 1_555
C4 S2 1_555 1_555
H7 C4 1_555 1_555
P2 C1 1_555 1_555
N1 C2 1_555 1_555
C3 C4 1_555 1_555

#END
