
#######################################################################
#
#                 Cambridge Crystallographic Data Centre
#                                CCDC 
#
#######################################################################
#
# If this CIF has been generated from an entry in the Cambridge 
# Structural Database, then it will include bibliographic, chemical, 
# crystal, experimental, refinement or atomic coordinate data resulting 
# from the CCDC's data processing and validation procedures.
#
#######################################################################

data_WETQIW
_chemical_formula_moiety         'C10 H13 N3 O6 P2,5(H2 O1)'
_chemical_name_systematic        
'(1-Phenylimidazol-2-ylamino)methylenebis(phosphonic acid) pentahydrate'
_symmetry_cell_setting           monoclinic
_symmetry_space_group_name_H-M   'P 21/c'
_symmetry_Int_Tables_number      14
_space_group_name_Hall           '-P 2ybc'
loop_
_symmetry_equiv_pos_site_id
_symmetry_equiv_pos_as_xyz
1 x,y,z
2 -x,1/2+y,1/2-z
3 -x,-y,-z
4 x,1/2-y,1/2+z
_cell_length_a                   8.6608(18)
_cell_length_b                   14.173(3)
_cell_length_c                   15.231(3)
_cell_angle_alpha                90
_cell_angle_beta                 102.704(3)
_cell_angle_gamma                90
_cell_volume                     1823.83
_exptl_crystal_colour            colorless
_exptl_crystal_description       columnar
_cell_formula_units_Z            4
loop_
_atom_site_label
_atom_site_type_symbol
_atom_site_fract_x
_atom_site_fract_y
_atom_site_fract_z
P1 P 0.24040(5) 0.41467(3) 0.04605(3)
P2 P 0.24024(5) 0.63115(3) 0.01820(3)
O1 O 0.41777(15) 0.39959(10) 0.08618(9)
H1 H 0.473(3) 0.3988(17) 0.0497(14)
O2 O 0.15911(15) 0.34505(9) 0.10103(9)
H2 H 0.0634(19) 0.3511(16) 0.0904(16)
O3 O 0.18608(15) 0.40654(9) -0.05280(8)
O4 O 0.41461(15) 0.62852(10) 0.02167(9)
O5 O 0.13179(14) 0.62811(9) -0.07377(8)
O6 O 0.19468(15) 0.71948(9) 0.06832(9)
H3 H 0.261(2) 0.7319(16) 0.1146(12)
N1 N 0.26776(17) 0.54200(11) 0.17941(9)
H4 H 0.368(3) 0.5470(15) 0.1922(14)
N2 N 0.03371(18) 0.59512(11) 0.22387(10)
H5 H -0.028(3) 0.5927(15) 0.1735(16)
N3 N 0.25321(17) 0.59322(10) 0.32600(9)
C1 C 0.19321(19) 0.53110(11) 0.08364(10)
H6 H 0.0762 0.5325 0.0788
C2 C 0.1880(2) 0.57530(11) 0.23865(11)
C3 C -0.0002(2) 0.62757(15) 0.30399(12)
H7 H -0.1012 0.6465 0.3124
C4 C 0.1339(2) 0.62727(14) 0.36646(12)
H8 H 0.1464 0.6466 0.4273
C5 C 0.4167(2) 0.58160(12) 0.37011(11)
C6 C 0.4874(2) 0.49389(13) 0.37136(11)
H9 H 0.4295 0.4415 0.3422
C7 C 0.6443(2) 0.48385(15) 0.41589(12)
H10 H 0.6952 0.4244 0.4162
C8 C 0.7269(2) 0.55967(16) 0.45986(13)
H11 H 0.8341 0.5522 0.4907
C9 C 0.6535(2) 0.64667(15) 0.45896(14)
H12 H 0.7102 0.6985 0.4900
C10 C 0.4983(2) 0.65831(13) 0.41316(13)
H13 H 0.4484 0.7182 0.4113
O7 O 0.78724(17) 0.41107(10) 0.23263(9)
H14 H 0.812(3) 0.4012(16) 0.1819(12)
H15 H 0.739(3) 0.4637(13) 0.2259(16)
O8 O 0.38966(16) 0.42107(9) 0.80381(9)
H16 H 0.364(3) 0.3654(12) 0.7837(14)
H17 H 0.399(3) 0.4161(16) 0.8578(10)
O9 O 0.37492(17) 0.77013(10) 0.21239(10)
H18 H 0.339(3) 0.8162(15) 0.2374(16)
H19 H 0.4716(19) 0.7803(17) 0.2151(17)
O10 O 0.69833(17) 0.77567(11) 0.22919(10)
H20 H 0.758(3) 0.7926(18) 0.1966(14)
H21 H 0.737(3) 0.7934(18) 0.2820(11)
O11 O 0.94564(19) 0.82884(13) 0.14593(12)
H22 H 1.019(3) 0.8630(18) 0.1772(18)
H23 H 0.989(3) 0.7872(17) 0.1218(19)
loop_
_geom_bond_atom_site_label_1
_geom_bond_atom_site_label_2
_geom_bond_site_symmetry_1
_geom_bond_site_symmetry_2
P1 O1 1_555 1_555
P2 O4 1_555 1_555
O1 H1 1_555 1_555
O2 P1 1_555 1_555
H2 O2 1_555 1_555
O3 P1 1_555 1_555
O5 P2 1_555 1_555
O6 P2 1_555 1_555
H3 O6 1_555 1_555
N1 H4 1_555 1_555
N2 H5 1_555 1_555
N3 C2 1_555 1_555
C1 P1 1_555 1_555
H6 C1 1_555 1_555
C2 N1 1_555 1_555
C3 N2 1_555 1_555
H7 C3 1_555 1_555
C4 N3 1_555 1_555
H8 C4 1_555 1_555
C5 N3 1_555 1_555
C6 C5 1_555 1_555
H9 C6 1_555 1_555
C7 C6 1_555 1_555
H10 C7 1_555 1_555
C8 C7 1_555 1_555
H11 C8 1_555 1_555
C9 C8 1_555 1_555
H12 C9 1_555 1_555
C10 C5 1_555 1_555
H13 C10 1_555 1_555
O7 H14 1_555 1_555
H15 O7 1_555 1_555
O8 H16 1_555 1_555
H17 O8 1_555 1_555
O9 H18 1_555 1_555
H19 O9 1_555 1_555
O10 H20 1_555 1_555
H21 O10 1_555 1_555
O11 H22 1_555 1_555
H23 O11 1_555 1_555
P2 C1 1_555 1_555
N1 C1 1_555 1_555
N2 C2 1_555 1_555
C3 C4 1_555 1_555
C9 C10 1_555 1_555

#END
