
#######################################################################
#
#                 Cambridge Crystallographic Data Centre
#                                CCDC 
#
#######################################################################
#
# If this CIF has been generated from an entry in the Cambridge 
# Structural Database, then it will include bibliographic, chemical, 
# crystal, experimental, refinement or atomic coordinate data resulting 
# from the CCDC's data processing and validation procedures.
#
#######################################################################

data_WETTOH
_chemical_formula_moiety         'C16 H24 F1 N1 O4'
_chemical_name_systematic        
'6-fluoro-1-(hept-5-en-1-yl)-1-hydroxy-2-methyl-3-oxotetrahydro-1H-pyrrolizine-7a(5H)-carboxylic acid'
_symmetry_cell_setting           orthorhombic
_symmetry_space_group_name_H-M   'P 21 21 2'
_symmetry_Int_Tables_number      18
_space_group_name_Hall           'P 2 2ab'
loop_
_symmetry_equiv_pos_site_id
_symmetry_equiv_pos_as_xyz
1 x,y,z
2 -x,-y,z
3 1/2-x,1/2+y,-z
4 1/2+x,1/2-y,-z
_cell_length_a                   12.7209(16)
_cell_length_b                   22.550(3)
_cell_length_c                   6.0186(8)
_cell_angle_alpha                90
_cell_angle_beta                 90
_cell_angle_gamma                90
_cell_volume                     1726.47
_exptl_crystal_colour            colorless
_exptl_crystal_description       block
_cell_formula_units_Z            4
loop_
_atom_site_label
_atom_site_type_symbol
_atom_site_fract_x
_atom_site_fract_y
_atom_site_fract_z
C1 C -0.0457(2) 0.25115(18) -0.0714(5)
C2 C -0.0471(3) 0.2159(2) 0.1455(6)
H1 H 0.0174 0.2220 0.2285
H2 H -0.1063 0.2275 0.2375
C3 C -0.0570(5) 0.1528(2) 0.0727(9)
H3 H 0.0139 0.1375 0.0443
C4 C -0.1169(4) 0.1528(2) -0.1468(8)
H4 H -0.0826 0.1277 -0.2558
H5 H -0.1887 0.1395 -0.1264
C5 C -0.1823(3) 0.2442(2) -0.3331(6)
C6 C -0.1575(3) 0.3088(2) -0.3104(7)
H6 H -0.1056 0.3188 -0.4249
C7 C -0.1014(3) 0.31305(19) -0.0813(6)
C8 C -0.2525(4) 0.3494(2) -0.3444(9)
H7 H -0.2819 0.3425 -0.4891
H8 H -0.2308 0.3900 -0.3325
H9 H -0.3044 0.3410 -0.2331
C9 C 0.0669(3) 0.2531(2) -0.1658(6)
C10 C -0.0297(3) 0.3661(2) -0.0632(8)
H10 H 0.0262 0.3617 -0.1715
H11 H -0.0695 0.4012 -0.1038
C11 C 0.0199(4) 0.3769(2) 0.1611(8)
H12 H 0.0540 0.3409 0.2111
H13 H -0.0347 0.3868 0.2675
C12 C 0.1000(4) 0.4267(2) 0.1544(10)
H14 H 0.1561 0.4157 0.0532
H15 H 0.0665 0.4620 0.0953
C13 C 0.1471(5) 0.4414(3) 0.3749(11)
H16 H 0.1699 0.4043 0.4412
H17 H 0.0910 0.4567 0.4676
C14 C 0.2380(7) 0.4844(3) 0.3922(16)
H18 H 0.2637 0.4930 0.5331
C15 C 0.2800(9) 0.5085(4) 0.234(2)
H19 H 0.2544 0.5021 0.0909
C16 C 0.3758(6) 0.5497(4) 0.270(2)
H20 H 0.3522 0.5900 0.2843
H21 H 0.4225 0.5467 0.1450
H22 H 0.4123 0.5381 0.4026
F1 F -0.1020(4) 0.11809(19) 0.2248(8)
N1 N -0.1133(2) 0.21438(16) -0.2124(5)
O1 O -0.2519(2) 0.22020(15) -0.4458(5)
O2 O 0.06997(18) 0.25698(19) -0.3813(4)
H23 H 0.1314 0.2579 -0.4227
O3 O 0.14315(19) 0.25275(18) -0.0494(5)
O4 O -0.1750(2) 0.31833(14) 0.0930(5)
H24 H -0.2168 0.2907 0.0871
loop_
_geom_bond_atom_site_label_1
_geom_bond_atom_site_label_2
_geom_bond_site_symmetry_1
_geom_bond_site_symmetry_2
C1 C2 1_555 1_555
C2 H1 1_555 1_555
H2 C2 1_555 1_555
C3 C2 1_555 1_555
H3 C3 1_555 1_555
C4 C3 1_555 1_555
H4 C4 1_555 1_555
H5 C4 1_555 1_555
C5 C6 1_555 1_555
C6 H6 1_555 1_555
C7 C1 1_555 1_555
C8 C6 1_555 1_555
H7 C8 1_555 1_555
H8 C8 1_555 1_555
H9 C8 1_555 1_555
C9 C1 1_555 1_555
C10 C7 1_555 1_555
H10 C10 1_555 1_555
H11 C10 1_555 1_555
C11 C10 1_555 1_555
H12 C11 1_555 1_555
H13 C11 1_555 1_555
C12 C11 1_555 1_555
H14 C12 1_555 1_555
H15 C12 1_555 1_555
C13 C12 1_555 1_555
H16 C13 1_555 1_555
H17 C13 1_555 1_555
C14 C13 1_555 1_555
H18 C14 1_555 1_555
C15 C14 1_555 1_555
H19 C15 1_555 1_555
C16 C15 1_555 1_555
H20 C16 1_555 1_555
H21 C16 1_555 1_555
H22 C16 1_555 1_555
F1 C3 1_555 1_555
N1 C1 1_555 1_555
O1 C5 1_555 1_555
O2 C9 1_555 1_555
H23 O2 1_555 1_555
O3 C9 1_555 1_555
O4 C7 1_555 1_555
H24 O4 1_555 1_555
C4 N1 1_555 1_555
C5 N1 1_555 1_555
C6 C7 1_555 1_555

#END
