
#######################################################################
#
#                 Cambridge Crystallographic Data Centre
#                                CCDC 
#
#######################################################################
#
# If this CIF has been generated from an entry in the Cambridge 
# Structural Database, then it will include bibliographic, chemical, 
# crystal, experimental, refinement or atomic coordinate data resulting 
# from the CCDC's data processing and validation procedures.
#
#######################################################################

data_WETZUR
_chemical_formula_moiety         'C13 H20 O4 Si1'
_chemical_name_systematic        
3,3-Dimethyl-4,7-peroxo-6-(trimethylsilyl)-2,3,3a,4,7,7a-hexahydrobenzofuan-2-one
_chemical_properties_biological  
'active against HCT15, MCF-7, K-562 CML, U-251, PC-3 and SKLU-1 tumour cell lines'
_symmetry_cell_setting           monoclinic
_symmetry_space_group_name_H-M   'P 21/n'
_symmetry_Int_Tables_number      14
_space_group_name_Hall           '-P 2yn'
loop_
_symmetry_equiv_pos_site_id
_symmetry_equiv_pos_as_xyz
1 x,y,z
2 1/2-x,1/2+y,1/2-z
3 -x,-y,-z
4 1/2+x,1/2-y,1/2+z
_cell_length_a                   11.1920(7)
_cell_length_b                   11.7492(11)
_cell_length_c                   12.2890(8)
_cell_angle_alpha                90
_cell_angle_beta                 114.842(6)
_cell_angle_gamma                90
_cell_volume                     1466.44
_exptl_crystal_colour            colorless
_exptl_crystal_description       parallelepiped
_chemical_melting_point          154deg.C
_cell_formula_units_Z            4
_exptl_crystal_recrystallization_method hexane/dichloromethane
loop_
_atom_site_label
_atom_site_type_symbol
_atom_site_fract_x
_atom_site_fract_y
_atom_site_fract_z
Si1 Si 0.70703(5) 0.22702(5) 0.22676(5)
C1 C 0.60382(18) 0.10734(17) 0.38281(15)
C2 C 0.46889(19) 0.13019(17) 0.38173(16)
C3 C 0.1516(2) 0.1252(3) 0.2711(3)
C4 C 0.3126(2) 0.23392(18) 0.22768(18)
C5 C 0.25317(19) 0.11673(18) 0.21636(19)
C6 C 0.36993(17) 0.04371(16) 0.29837(17)
C7 C 0.44251(19) -0.02399(15) 0.23802(17)
C8 C 0.1850(2) 0.0794(2) 0.0851(2)
C9 C 0.6311(3) 0.3702(2) 0.2049(3)
C10 C 0.59854(17) 0.12260(15) 0.25870(15)
C11 C 0.51040(18) 0.05152(16) 0.18224(16)
C12 C 0.8693(2) 0.2274(3) 0.3585(2)
C13 C 0.7262(2) 0.1801(2) 0.0904(2)
O1 O 0.27061(19) 0.31452(15) 0.16256(17)
O2 O 0.63632(14) -0.00922(14) 0.42242(12)
O3 O 0.42444(14) 0.24246(11) 0.33011(12)
O4 O 0.54409(15) -0.08906(12) 0.33160(14)
H1 H 0.6724 0.1606 0.4414
H2 H 0.4737 0.1261 0.4663
H3 H 0.1086 0.0490 0.2679
H4 H 0.1970 0.1484 0.3589
H5 H 0.0819 0.1825 0.2280
H6 H 0.3400 -0.0103 0.3462
H7 H 0.3783 -0.0773 0.1753
H8 H 0.2500 0.0736 0.0490
H9 H 0.1140 0.1347 0.0374
H10 H 0.1429 0.0019 0.0797
H11 H 0.6869 0.4276 0.1880
H12 H 0.6207 0.3943 0.2795
H13 H 0.5411 0.3691 0.1361
H14 H 0.4912 0.0484 0.0939
H15 H 0.9108 0.1487 0.3704
H16 H 0.9309 0.2828 0.3473
H17 H 0.8590 0.2474 0.4337
H18 H 0.7683 0.1022 0.1040
H19 H 0.7843 0.2346 0.0717
H20 H 0.6386 0.1761 0.0200
loop_
_geom_bond_atom_site_label_1
_geom_bond_atom_site_label_2
_geom_bond_site_symmetry_1
_geom_bond_site_symmetry_2
Si1 C9 1_555 1_555
C1 C2 1_555 1_555
C2 C6 1_555 1_555
C3 C5 1_555 1_555
C4 C5 1_555 1_555
C5 C6 1_555 1_555
C6 C7 1_555 1_555
C7 C11 1_555 1_555
C8 C5 1_555 1_555
C9 H11 1_555 1_555
C10 Si1 1_555 1_555
C11 C10 1_555 1_555
C12 Si1 1_555 1_555
C13 Si1 1_555 1_555
O1 C4 1_555 1_555
O2 C1 1_555 1_555
O3 C2 1_555 1_555
O4 C7 1_555 1_555
H1 C1 1_555 1_555
H2 C2 1_555 1_555
H3 C3 1_555 1_555
H4 C3 1_555 1_555
H5 C3 1_555 1_555
H6 C6 1_555 1_555
H7 C7 1_555 1_555
H8 C8 1_555 1_555
H9 C8 1_555 1_555
H10 C8 1_555 1_555
H12 C9 1_555 1_555
H13 C9 1_555 1_555
H14 C11 1_555 1_555
H15 C12 1_555 1_555
H16 C12 1_555 1_555
H17 C12 1_555 1_555
H18 C13 1_555 1_555
H19 C13 1_555 1_555
H20 C13 1_555 1_555
C1 C10 1_555 1_555
C4 O3 1_555 1_555
O2 O4 1_555 1_555

#END
