
#######################################################################
#
#                 Cambridge Crystallographic Data Centre
#                                CCDC 
#
#######################################################################
#
# If this CIF has been generated from an entry in the Cambridge 
# Structural Database, then it will include bibliographic, chemical, 
# crystal, experimental, refinement or atomic coordinate data resulting 
# from the CCDC's data processing and validation procedures.
#
#######################################################################

data_WEVBAB
_chemical_formula_moiety         'C17 H22 O5 Si1'
_chemical_name_systematic        
3,3-Dimethyl-4,8-etheno-hexahydro-9-trimethylsilyl-1,6-dioxa-s-indacene-2,5,7-trione
_symmetry_cell_setting           orthorhombic
_symmetry_space_group_name_H-M   'P 21 21 21'
_symmetry_Int_Tables_number      19
_space_group_name_Hall           'P 2ac 2ab'
loop_
_symmetry_equiv_pos_site_id
_symmetry_equiv_pos_as_xyz
1 x,y,z
2 1/2-x,-y,1/2+z
3 -x,1/2+y,1/2-z
4 1/2+x,1/2-y,-z
_cell_length_a                   8.4093(4)
_cell_length_b                   12.3086(6)
_cell_length_c                   17.1349(9)
_cell_angle_alpha                90
_cell_angle_beta                 90
_cell_angle_gamma                90
_cell_volume                     1773.58
_exptl_crystal_colour            colorless
_exptl_crystal_description       prism
_chemical_melting_point          160deg.C
_cell_formula_units_Z            4
loop_
_atom_site_label
_atom_site_type_symbol
_atom_site_fract_x
_atom_site_fract_y
_atom_site_fract_z
Si1 Si 0.96301(9) 0.55813(6) -0.06312(4)
O1 O 1.04559(19) 0.30642(12) 0.05633(9)
C1 C 1.1426(3) 0.3378(2) 0.11395(16)
O2 O 1.2826(2) 0.34898(17) 0.10322(11)
C2 C 1.0541(3) 0.3493(2) 0.19005(15)
C3 C 0.8780(3) 0.3562(2) 0.16406(14)
H1 H 0.8139 0.3083 0.1972
C4 C 0.8007(3) 0.46931(19) 0.16196(14)
H2 H 0.8080 0.5058 0.2127
C5 C 0.6256(3) 0.4488(2) 0.13813(14)
H3 H 0.5741 0.4015 0.1766
C6 C 0.5323(3) 0.5515(3) 0.12912(18)
O3 O 0.5064(3) 0.62032(18) 0.17540(12)
O4 O 0.4739(2) 0.55906(15) 0.05389(11)
O5 O 0.4852(2) 0.46427(16) -0.05745(12)
C7 C 0.5212(3) 0.4709(2) 0.00913(19)
C8 C 0.6206(3) 0.3955(2) 0.05767(14)
H4 H 0.5705 0.3238 0.0609
C9 C 0.7907(3) 0.38568(19) 0.02474(14)
H5 H 0.7892 0.3558 -0.0283
C10 C 0.8798(3) 0.3104(2) 0.08023(14)
H6 H 0.8331 0.2375 0.0791
C11 C 0.8709(3) 0.49560(19) 0.02616(14)
C12 C 0.8747(3) 0.53659(19) 0.09794(14)
H7 H 0.9209 0.6037 0.1082
C13 C 1.1167(3) 0.4434(3) 0.23731(16)
H8 H 1.2273 0.4319 0.2486
H9 H 1.0582 0.4488 0.2853
H10 H 1.1046 0.5095 0.2081
C14 C 1.0811(4) 0.2418(3) 0.23400(18)
H11 H 1.0393 0.1827 0.2038
H12 H 1.0278 0.2446 0.2835
H13 H 1.1930 0.2312 0.2422
C15 C 0.8057(4) 0.6187(3) -0.12507(16)
H14 H 0.7461 0.6705 -0.0951
H15 H 0.7358 0.5625 -0.1433
H16 H 0.8537 0.6546 -0.1689
C16 C 1.0649(4) 0.4479(3) -0.11727(18)
H17 H 1.1148 0.4774 -0.1630
H18 H 0.9885 0.3939 -0.1324
H19 H 1.1441 0.4153 -0.0844
C17 C 1.1065(4) 0.6643(2) -0.03341(18)
H20 H 1.1889 0.6322 -0.0022
H21 H 1.0525 0.7190 -0.0036
H22 H 1.1527 0.6967 -0.0790
loop_
_geom_bond_atom_site_label_1
_geom_bond_atom_site_label_2
_geom_bond_site_symmetry_1
_geom_bond_site_symmetry_2
Si1 C11 1_555 1_555
O1 C1 1_555 1_555
C1 O2 1_555 1_555
C2 C1 1_555 1_555
C3 C2 1_555 1_555
H1 C3 1_555 1_555
C4 C3 1_555 1_555
H2 C4 1_555 1_555
C5 C4 1_555 1_555
H3 C5 1_555 1_555
C6 C5 1_555 1_555
O3 C6 1_555 1_555
O4 C6 1_555 1_555
O5 C7 1_555 1_555
C7 O4 1_555 1_555
C8 C5 1_555 1_555
H4 C8 1_555 1_555
C9 C8 1_555 1_555
H5 C9 1_555 1_555
C10 O1 1_555 1_555
H6 C10 1_555 1_555
C11 C9 1_555 1_555
C12 C4 1_555 1_555
H7 C12 1_555 1_555
C13 C2 1_555 1_555
H8 C13 1_555 1_555
H9 C13 1_555 1_555
H10 C13 1_555 1_555
C14 C2 1_555 1_555
H11 C14 1_555 1_555
H12 C14 1_555 1_555
H13 C14 1_555 1_555
C15 Si1 1_555 1_555
H14 C15 1_555 1_555
H15 C15 1_555 1_555
H16 C15 1_555 1_555
C16 Si1 1_555 1_555
H17 C16 1_555 1_555
H18 C16 1_555 1_555
H19 C16 1_555 1_555
C17 Si1 1_555 1_555
H20 C17 1_555 1_555
H21 C17 1_555 1_555
H22 C17 1_555 1_555
C3 C10 1_555 1_555
C7 C8 1_555 1_555
C9 C10 1_555 1_555
C11 C12 1_555 1_555

#END
