
#######################################################################
#
#                 Cambridge Crystallographic Data Centre
#                                CCDC 
#
#######################################################################
#
# If this CIF has been generated from an entry in the Cambridge 
# Structural Database, then it will include bibliographic, chemical, 
# crystal, experimental, refinement or atomic coordinate data resulting 
# from the CCDC's data processing and validation procedures.
#
#######################################################################

data_WEVBUV
_chemical_formula_moiety         'C8 H6 Br2 O2'
_chemical_name_systematic        3-Bromomethyl-5-bromosalicylaldehyde
_symmetry_cell_setting           monoclinic
_symmetry_space_group_name_H-M   'P 21/n'
_symmetry_Int_Tables_number      14
_space_group_name_Hall           '-P 2yn'
loop_
_symmetry_equiv_pos_site_id
_symmetry_equiv_pos_as_xyz
1 x,y,z
2 1/2-x,1/2+y,1/2-z
3 -x,-y,-z
4 1/2+x,1/2-y,1/2+z
_cell_length_a                   4.7658(6)
_cell_length_b                   11.2514(14)
_cell_length_c                   16.351(2)
_cell_angle_alpha                90
_cell_angle_beta                 94.681(2)
_cell_angle_gamma                90
_cell_volume                     873.848
_exptl_crystal_colour            colorless
_exptl_crystal_description       plate
_chemical_melting_point          134.9-136.4deg.C
_cell_formula_units_Z            4
_exptl_crystal_recrystallization_method hexane/dichloromethane
loop_
_atom_site_label
_atom_site_type_symbol
_atom_site_fract_x
_atom_site_fract_y
_atom_site_fract_z
Br1 Br 0.10105(10) 0.07918(4) 0.10891(3)
C1 C -0.1011(9) 0.3471(4) -0.1189(3)
O1 O -0.1095(7) 0.3664(3) 0.0279(2)
H1 H -0.2285 0.4184 0.0124
Br2 Br 0.36821(11) 0.13036(4) -0.26108(3)
C2 C -0.0020(9) 0.3183(4) -0.0375(3)
C3 C 0.2173(9) 0.2350(4) -0.0238(3)
C4 C 0.3278(9) 0.1801(4) -0.0899(3)
H2 H 0.4738 0.1229 -0.0807
C5 C 0.2258(10) 0.2083(4) -0.1697(3)
C6 C 0.0161(9) 0.2917(4) -0.1848(3)
H3 H -0.0485 0.3114 -0.2396
C7 C 0.3278(10) 0.2071(4) 0.0621(3)
H4 H 0.3211 0.2795 0.0964
H5 H 0.5266 0.1813 0.0627
O2 O -0.4455(7) 0.4839(3) -0.0830(2)
C8 C -0.3291(10) 0.4334(4) -0.1354(3)
H6 H -0.3886 0.4504 -0.1910
loop_
_geom_bond_atom_site_label_1
_geom_bond_atom_site_label_2
_geom_bond_site_symmetry_1
_geom_bond_site_symmetry_2
Br1 C7 1_555 1_555
C1 C2 1_555 1_555
O1 H1 1_555 1_555
Br2 C5 1_555 1_555
C2 O1 1_555 1_555
C3 C2 1_555 1_555
C4 C3 1_555 1_555
H2 C4 1_555 1_555
C5 C4 1_555 1_555
C6 C1 1_555 1_555
H3 C6 1_555 1_555
C7 C3 1_555 1_555
H4 C7 1_555 1_555
H5 C7 1_555 1_555
O2 C8 1_555 1_555
C8 C1 1_555 1_555
H6 C8 1_555 1_555
C5 C6 1_555 1_555

#END
