
#######################################################################
#
#                 Cambridge Crystallographic Data Centre
#                                CCDC 
#
#######################################################################
#
# If this CIF has been generated from an entry in the Cambridge 
# Structural Database, then it will include bibliographic, chemical, 
# crystal, experimental, refinement or atomic coordinate data resulting 
# from the CCDC's data processing and validation procedures.
#
#######################################################################

data_WEVCIM
_chemical_formula_moiety         'C32 H28 Cl1 F1 N8 O5,0.5(H2 O1)'
_chemical_name_systematic        
'4-{[2-{3-[3-chloro-2-fluoro-6-(1H-tetrazol-1-yl)phenyl]acryloyl}-5-(4-methyl-2-oxopiperazin-1-yl)-1,2,3,4-tetrahydroisoquinoline-1-carbonyl]amino}benzoic acid hemihydrate'
_chemical_properties_biological  'parenteral agent'
_symmetry_cell_setting           orthorhombic
_symmetry_space_group_name_H-M   'I 21 21 21'
_symmetry_Int_Tables_number      24
_space_group_name_Hall           'I 2b 2c'
loop_
_symmetry_equiv_pos_site_id
_symmetry_equiv_pos_as_xyz
1 x,y,z
2 -x,1/2-y,z
3 x,-y,1/2-z
4 -x,1/2+y,1/2-z
5 1/2+x,1/2+y,1/2+z
6 1/2-x,-y,1/2+z
7 1/2+x,1/2-y,-z
8 1/2-x,y,-z
_cell_length_a                   13.6547(3)
_cell_length_b                   18.7590(3)
_cell_length_c                   24.7370(5)
_cell_angle_alpha                90
_cell_angle_beta                 90
_cell_angle_gamma                90
_cell_volume                     6336.35
_exptl_crystal_colour            colorless
_exptl_crystal_description       needle
_cell_formula_units_Z            8
loop_
_atom_site_label
_atom_site_type_symbol
_atom_site_fract_x
_atom_site_fract_y
_atom_site_fract_z
Cl1 Cl 0.11418(9) 0.86383(5) 0.13830(4)
F1 F 0.11330(16) 0.72709(9) 0.08615(7)
O1 O 0.11018(16) 0.55327(9) -0.07243(8)
O2 O -0.07791(13) 0.43731(10) 0.00149(8)
O3 O -0.45339(16) 0.46058(12) -0.18067(9)
H1 H -0.5006 0.4629 -0.2011
O4 O -0.3952(2) 0.39640(19) -0.24770(11)
O5 O 0.35319(15) 0.37485(12) 0.14078(8)
N1 N 0.1127(2) 0.81645(12) -0.09681(11)
N2 N 0.1654(2) 0.77029(15) -0.12696(13)
N3 N 0.1416(3) 0.78251(17) -0.17677(15)
N4 N 0.0759(3) 0.83631(19) -0.18101(14)
N5 N 0.11004(16) 0.50193(10) 0.01018(8)
N6 N -0.03106(16) 0.40952(12) -0.08367(9)
H2 H 0.0188 0.3968 -0.1026
N7 N 0.20569(17) 0.33036(12) 0.16155(9)
N8 N 0.22179(19) 0.38102(13) 0.26641(9)
C1 C 0.1203(2) 0.84932(16) 0.06987(13)
C2 C 0.1257(2) 0.90491(16) 0.03421(15)
H3 H 0.1288 0.9515 0.0470
C3 C 0.1267(2) 0.89205(15) -0.02030(15)
H4 H 0.1306 0.9300 -0.0444
C4 C 0.1218(2) 0.82324(15) -0.03976(12)
C5 C 0.1210(2) 0.76391(13) -0.00535(12)
C6 C 0.1193(2) 0.78044(15) 0.04955(12)
C7 C 0.0593(3) 0.8565(2) -0.13098(16)
H5 H 0.0170 0.8929 -0.1207
C8 C 0.1150(2) 0.69000(14) -0.02505(11)
H6 H 0.1001 0.6847 -0.0615
C9 C 0.1279(2) 0.63048(14) 0.00215(11)
H7 H 0.1457 0.6331 0.0384
C10 C 0.11513(19) 0.55975(13) -0.02296(12)
C11 C 0.09472(18) 0.43206(12) -0.01537(10)
H8 H 0.1350 0.4296 -0.0481
C12 C 0.12289(19) 0.37073(12) 0.02138(10)
C13 C 0.15432(18) 0.38125(13) 0.07457(10)
C14 C 0.1604(2) 0.45540(13) 0.09773(10)
H9 H 0.1440 0.4542 0.1359
H10 H 0.2268 0.4732 0.0942
C15 C 0.0912(2) 0.50433(13) 0.06864(10)
H11 H 0.0242 0.4900 0.0758
H12 H 0.0997 0.5527 0.0817
C16 C 0.1171(2) 0.30209(13) 0.00052(12)
H13 H 0.0968 0.2953 -0.0350
C17 C 0.1412(2) 0.24379(16) 0.03206(14)
H14 H 0.1372 0.1980 0.0178
C18 C 0.1711(2) 0.25366(16) 0.08452(13)
H15 H 0.1863 0.2145 0.1060
C19 C 0.1785(2) 0.32141(14) 0.10534(11)
C20 C -0.0134(2) 0.42629(13) -0.03176(11)
C21 C -0.1221(2) 0.40985(15) -0.11085(10)
C22 C -0.1223(3) 0.3919(2) -0.16501(12)
H16 H -0.0643 0.3776 -0.1816
C23 C -0.2072(3) 0.3948(2) -0.19470(13)
H17 H -0.2062 0.3821 -0.2310
C24 C -0.2943(2) 0.41626(15) -0.17113(11)
C25 C -0.2940(2) 0.43128(14) -0.11696(10)
H18 H -0.3522 0.4447 -0.1003
C26 C -0.2096(2) 0.42708(14) -0.08639(11)
H19 H -0.2118 0.4358 -0.0494
C27 C -0.3846(3) 0.42281(18) -0.20408(13)
C28 C 0.2912(2) 0.36055(15) 0.17472(11)
C29 C 0.3099(2) 0.37700(18) 0.23346(11)
H20 H 0.3524 0.3405 0.2483
H21 H 0.3443 0.4221 0.2359
C30 C 0.1304(2) 0.31123(17) 0.20164(12)
H22 H 0.1076 0.2632 0.1944
H23 H 0.0750 0.3432 0.1976
C31 C 0.1666(3) 0.31507(19) 0.25843(13)
H24 H 0.1116 0.3137 0.2832
H25 H 0.2083 0.2744 0.2659
C32 C 0.2477(4) 0.3923(2) 0.32362(13)
H26 H 0.2895 0.3543 0.3356
H27 H 0.1891 0.3929 0.3451
H28 H 0.2813 0.4369 0.3274
O6 O 0.10060(19) 0.5000 0.2500
H29 H 0.1399 0.4649 0.2520
H29B H 0.1399 0.5351 0.2480
loop_
_geom_bond_atom_site_label_1
_geom_bond_atom_site_label_2
_geom_bond_site_symmetry_1
_geom_bond_site_symmetry_2
Cl1 C1 1_555 1_555
F1 C6 1_555 1_555
O1 C10 1_555 1_555
O2 C20 1_555 1_555
O3 H1 1_555 1_555
O4 C27 1_555 1_555
O5 C28 1_555 1_555
N1 N2 1_555 1_555
N2 N3 1_555 1_555
N3 N4 1_555 1_555
N4 C7 1_555 1_555
N5 C10 1_555 1_555
N6 H2 1_555 1_555
N7 C19 1_555 1_555
N8 C29 1_555 1_555
C1 C2 1_555 1_555
C2 H3 1_555 1_555
C3 C2 1_555 1_555
H4 C3 1_555 1_555
C4 N1 1_555 1_555
C5 C4 1_555 1_555
C6 C1 1_555 1_555
C7 N1 1_555 1_555
H5 C7 1_555 1_555
C8 C5 1_555 1_555
H6 C8 1_555 1_555
C9 C8 1_555 1_555
H7 C9 1_555 1_555
C10 C9 1_555 1_555
C11 N5 1_555 1_555
H8 C11 1_555 1_555
C12 C11 1_555 1_555
C13 C12 1_555 1_555
C14 C13 1_555 1_555
H9 C14 1_555 1_555
H10 C14 1_555 1_555
C15 N5 1_555 1_555
H11 C15 1_555 1_555
H12 C15 1_555 1_555
C16 C12 1_555 1_555
H13 C16 1_555 1_555
C17 C16 1_555 1_555
H14 C17 1_555 1_555
C18 C17 1_555 1_555
H15 C18 1_555 1_555
C19 C13 1_555 1_555
C20 N6 1_555 1_555
C21 N6 1_555 1_555
C22 C21 1_555 1_555
H16 C22 1_555 1_555
C23 C22 1_555 1_555
H17 C23 1_555 1_555
C24 C23 1_555 1_555
C25 C24 1_555 1_555
H18 C25 1_555 1_555
C26 C21 1_555 1_555
H19 C26 1_555 1_555
C27 O3 1_555 1_555
C28 N7 1_555 1_555
C29 C28 1_555 1_555
H20 C29 1_555 1_555
H21 C29 1_555 1_555
C30 N7 1_555 1_555
H22 C30 1_555 1_555
H23 C30 1_555 1_555
C31 N8 1_555 1_555
H24 C31 1_555 1_555
H25 C31 1_555 1_555
C32 N8 1_555 1_555
H26 C32 1_555 1_555
H27 C32 1_555 1_555
H28 C32 1_555 1_555
O6 H29 1_555 1_555
H29B O6 1_555 1_555
C3 C4 1_555 1_555
C5 C6 1_555 1_555
C11 C20 1_555 1_555
C14 C15 1_555 1_555
C18 C19 1_555 1_555
C24 C27 1_555 1_555
C25 C26 1_555 1_555
C30 C31 1_555 1_555

#END
