
#######################################################################
#
#                 Cambridge Crystallographic Data Centre
#                                CCDC 
#
#######################################################################
#
# If this CIF has been generated from an entry in the Cambridge 
# Structural Database, then it will include bibliographic, chemical, 
# crystal, experimental, refinement or atomic coordinate data resulting 
# from the CCDC's data processing and validation procedures.
#
#######################################################################

data_WEVCEI
_chemical_formula_moiety         'C26 H58 B11 Li2 N1 O6'
_chemical_name_systematic        
(\m-12-cyano-1-carba-closo-dodecaborate-1-yl)-hexakis(tetrahydrofuran)-di-lithium
_symmetry_cell_setting           triclinic
_symmetry_space_group_name_H-M   'P -1'
_symmetry_Int_Tables_number      2
_space_group_name_Hall           '-P 1'
loop_
_symmetry_equiv_pos_site_id
_symmetry_equiv_pos_as_xyz
1 x,y,z
2 -x,-y,-z
_cell_length_a                   10.4350(11)
_cell_length_b                   10.8304(13)
_cell_length_c                   18.597(2)
_cell_angle_alpha                87.873(9)
_cell_angle_beta                 74.958(10)
_cell_angle_gamma                64.502(12)
_cell_volume                     1825.31
_exptl_crystal_colour            colorless
_exptl_crystal_description       plate
_cell_formula_units_Z            2
loop_
_atom_site_label
_atom_site_type_symbol
_atom_site_fract_x
_atom_site_fract_y
_atom_site_fract_z
O1 O -0.3316(3) 1.1531(3) 0.99834(13)
O2 O -0.4367(3) 1.2978(3) 0.87091(15)
O3 O -0.1498(3) 1.2777(3) 0.89544(14)
O4 O 0.2607(3) 0.1822(3) 0.60532(14)
O5 O 0.3639(3) 0.2835(3) 0.45227(13)
O6 O 0.5530(3) 0.2320(3) 0.56163(14)
N1 N 0.2400(3) 0.4803(4) 0.60928(18)
C1 C -0.3892(10) 1.2733(7) 1.0516(3)
H1 H -0.460103 1.355612 1.034351
H2 H -0.308240 1.292223 1.058592
C2 C -0.4629(5) 1.2343(5) 1.1215(2)
H3 H -0.566297 1.256692 1.123336
H4 H -0.461573 1.281120 1.165848
C3 C -0.1349(4) 0.9733(4) 0.82615(17)
C4 C -0.3721(5) 1.0828(5) 1.1174(2)
H5 H -0.285815 1.061360 1.136892
H6 H -0.431367 1.037739 1.146540
C5 C 0.1701(4) 0.5707(4) 0.65216(19)
C6 C -0.3248(6) 1.0371(5) 1.0372(2)
H7 H -0.222982 0.962709 1.023449
H8 H -0.391114 1.002498 1.025045
C7 C -0.4380(6) 1.3648(5) 0.8034(3)
H9 H -0.337409 1.328305 0.769015
H10 H -0.474657 1.464866 0.814157
C8 C -0.5355(7) 1.3370(9) 0.7706(3)
H11 H -0.601092 1.421515 0.752335
H12 H -0.477572 1.266198 0.727952
C9 C -0.6208(7) 1.2894(8) 0.8277(4)
H13 H -0.628352 1.210496 0.807118
H14 H -0.721518 1.363463 0.847608
C10 C -0.5465(5) 1.2483(6) 0.8862(3)
H15 H -0.617384 1.288443 0.935593
H16 H -0.500459 1.147103 0.886404
C11 C -0.0307(5) 1.2237(5) 0.9294(2)
H17 H 0.061691 1.161902 0.892726
H18 H -0.052059 1.171399 0.971939
C12 C -0.0168(6) 1.3446(6) 0.9558(3)
H19 H -0.002683 1.334564 1.006671
H20 H 0.068379 1.353862 0.921766
C13 C -0.1536(7) 1.4639(6) 0.9560(3)
H21 H -0.135371 1.545229 0.942250
H22 H -0.225379 1.485142 1.005789
C14 C -0.2085(5) 1.4235(5) 0.8992(3)
H23 H -0.317652 1.465475 0.914017
H24 H -0.174721 1.453963 0.849979
C15 C 0.1174(5) 0.2108(6) 0.5997(3)
H25 H 0.104264 0.125441 0.600576
H26 H 0.101739 0.252853 0.552640
C16 C 0.0135(5) 0.3068(6) 0.6647(3)
H27 H -0.074851 0.289853 0.683389
H28 H -0.017903 0.403115 0.651835
C17 C 0.0985(5) 0.2784(5) 0.7217(2)
H29 H 0.101040 0.362895 0.738284
H30 H 0.054082 0.241802 0.765728
C18 C 0.2494(5) 0.1742(6) 0.6825(2)
H31 H 0.324937 0.194726 0.695433
H32 H 0.263573 0.081225 0.696868
C19 C 0.4917(5) 0.1819(5) 0.4002(2)
H33 H 0.502460 0.088404 0.411389
H34 H 0.582025 0.188687 0.402784
C20 C 0.4666(5) 0.2116(5) 0.3252(2)
H35 H 0.416533 0.159925 0.311676
H36 H 0.560553 0.188696 0.286455
C21 C 0.3698(5) 0.3629(6) 0.3346(2)
H37 H 0.428136 0.415929 0.330481
H38 H 0.312309 0.390702 0.297156
C22 C 0.2718(5) 0.3817(5) 0.4118(2)
H39 H 0.234410 0.476218 0.434333
H40 H 0.186852 0.363362 0.411333
C23 C 0.6609(4) 0.0985(5) 0.5695(3)
H41 H 0.654192 0.027177 0.540991
H42 H 0.645652 0.079182 0.622746
C24 C 0.8056(4) 0.0997(5) 0.5400(2)
H43 H 0.875486 0.042837 0.568410
H44 H 0.847988 0.064975 0.486554
C25 C 0.7733(5) 0.2453(6) 0.5498(3)
H45 H 0.846151 0.266648 0.512367
H46 H 0.773835 0.269364 0.600482
C26 C 0.6229(5) 0.3201(5) 0.5383(3)
H47 H 0.567738 0.409385 0.568864
H48 H 0.629213 0.336854 0.485118
B1 B -0.1454(4) 0.8217(5) 0.8463(2)
H49 H -0.221638 0.812302 0.898722
B2 B 0.0093(5) 0.8417(5) 0.8482(2)
H50 H 0.037359 0.845455 0.901989
B3 B 0.0415(4) 0.9416(5) 0.7768(2)
H51 H 0.091792 1.012362 0.782422
B4 B -0.0960(5) 0.9859(5) 0.7311(2)
H52 H -0.139086 1.086538 0.706146
B5 B -0.2112(4) 0.9102(5) 0.7740(2)
H53 H -0.331842 0.960022 0.777646
B6 B -0.1091(4) 0.7303(5) 0.7611(2)
H54 H -0.159782 0.659615 0.756153
B7 B 0.0305(4) 0.6850(5) 0.8077(2)
H55 H 0.072658 0.584881 0.833190
B8 B 0.1483(5) 0.7632(5) 0.7639(2)
H56 H 0.268656 0.714107 0.760858
B9 B 0.0809(4) 0.8545(4) 0.6905(2)
H57 H 0.156604 0.866096 0.638511
B10 B -0.0778(5) 0.8341(5) 0.6882(2)
H58 H -0.107782 0.832393 0.634784
B11 B 0.0713(4) 0.6976(4) 0.7095(2)
Li1 Li -0.2516(6) 1.1598(6) 0.8917(3)
Li2 Li 0.3551(6) 0.2943(6) 0.5553(3)
H59? H -0.564043 1.260464 1.153754
H60? H -0.418099 1.283869 1.142226
C27? C -0.4660(19) 1.2667(15) 1.0463(7)
H61? H -0.462984 1.356228 1.037214
H62? H -0.556135 1.270580 1.036147
loop_
_geom_bond_atom_site_label_1
_geom_bond_atom_site_label_2
_geom_bond_site_symmetry_1
_geom_bond_site_symmetry_2
O1 C1 1_555 1_555
O2 C7 1_555 1_555
O3 C11 1_555 1_555
O4 C15 1_555 1_555
O5 C19 1_555 1_555
O6 C23 1_555 1_555
N1 C5 1_555 1_555
C1 H1 1_555 1_555
H2 C1 1_555 1_555
C2 C1 1_555 1_555
H3 C2 1_555 1_555
H4 C2 1_555 1_555
C3 B1 1_555 1_555
C4 C2 1_555 1_555
H5 C4 1_555 1_555
H6 C4 1_555 1_555
C5 B11 1_555 1_555
C6 O1 1_555 1_555
H7 C6 1_555 1_555
H8 C6 1_555 1_555
C7 H9 1_555 1_555
H10 C7 1_555 1_555
C8 C7 1_555 1_555
H11 C8 1_555 1_555
H12 C8 1_555 1_555
C9 C8 1_555 1_555
H13 C9 1_555 1_555
H14 C9 1_555 1_555
C10 O2 1_555 1_555
H15 C10 1_555 1_555
H16 C10 1_555 1_555
C11 H17 1_555 1_555
H18 C11 1_555 1_555
C12 C11 1_555 1_555
H19 C12 1_555 1_555
H20 C12 1_555 1_555
C13 C12 1_555 1_555
H21 C13 1_555 1_555
H22 C13 1_555 1_555
C14 O3 1_555 1_555
H23 C14 1_555 1_555
H24 C14 1_555 1_555
C15 H25 1_555 1_555
H26 C15 1_555 1_555
C16 C15 1_555 1_555
H27 C16 1_555 1_555
H28 C16 1_555 1_555
C17 C16 1_555 1_555
H29 C17 1_555 1_555
H30 C17 1_555 1_555
C18 O4 1_555 1_555
H31 C18 1_555 1_555
H32 C18 1_555 1_555
C19 H33 1_555 1_555
H34 C19 1_555 1_555
C20 C19 1_555 1_555
H35 C20 1_555 1_555
H36 C20 1_555 1_555
C21 C20 1_555 1_555
H37 C21 1_555 1_555
H38 C21 1_555 1_555
C22 O5 1_555 1_555
H39 C22 1_555 1_555
H40 C22 1_555 1_555
C23 H41 1_555 1_555
H42 C23 1_555 1_555
C24 C23 1_555 1_555
H43 C24 1_555 1_555
H44 C24 1_555 1_555
C25 C24 1_555 1_555
H45 C25 1_555 1_555
H46 C25 1_555 1_555
C26 O6 1_555 1_555
H47 C26 1_555 1_555
H48 C26 1_555 1_555
B1 H49 1_555 1_555
B2 C3 1_555 1_555
H50 B2 1_555 1_555
B3 C3 1_555 1_555
H51 B3 1_555 1_555
B4 C3 1_555 1_555
H52 B4 1_555 1_555
B5 C3 1_555 1_555
H53 B5 1_555 1_555
B6 B1 1_555 1_555
H54 B6 1_555 1_555
B7 B1 1_555 1_555
H55 B7 1_555 1_555
B8 B2 1_555 1_555
H56 B8 1_555 1_555
B9 B3 1_555 1_555
H57 B9 1_555 1_555
B10 B4 1_555 1_555
H58 B10 1_555 1_555
B11 B6 1_555 1_555
Li1 O1 1_555 1_555
Li2 O4 1_555 1_555
O2 Li1 1_555 1_555
O3 Li1 1_555 1_555
O5 Li2 1_555 1_555
O6 Li2 1_555 1_555
N1 Li2 1_555 1_555
C3 Li1 1_555 1_555
C4 C6 1_555 1_555
C9 C10 1_555 1_555
C13 C14 1_555 1_555
C17 C18 1_555 1_555
C21 C22 1_555 1_555
C25 C26 1_555 1_555
B1 B2 1_555 1_555
B1 B5 1_555 1_555
B2 B3 1_555 1_555
B2 B7 1_555 1_555
B3 B4 1_555 1_555
B3 B8 1_555 1_555
B4 B5 1_555 1_555
B4 B9 1_555 1_555
B5 B6 1_555 1_555
B5 B10 1_555 1_555
B6 B7 1_555 1_555
B6 B10 1_555 1_555
B7 B8 1_555 1_555
B7 B11 1_555 1_555
B8 B9 1_555 1_555
B8 B11 1_555 1_555
B9 B10 1_555 1_555
B9 B11 1_555 1_555
B10 B11 1_555 1_555

#END
