
#######################################################################
#
#                 Cambridge Crystallographic Data Centre
#                                CCDC 
#
#######################################################################
#
# If this CIF has been generated from an entry in the Cambridge 
# Structural Database, then it will include bibliographic, chemical, 
# crystal, experimental, refinement or atomic coordinate data resulting 
# from the CCDC's data processing and validation procedures.
#
#######################################################################

data_WEVHIR
_chemical_formula_moiety         'C10 H24 B22 N2 2-,2(C8 H20 N1 1+)'
_chemical_name_systematic        
"bis(tetraethylammonium) 1,1'-(1,4-phenylene)bis(12-cyano-1-carba-closo-dodecaborate(10))"
_symmetry_cell_setting           triclinic
_symmetry_space_group_name_H-M   'P -1'
_symmetry_Int_Tables_number      2
_space_group_name_Hall           '-P 1'
loop_
_symmetry_equiv_pos_site_id
_symmetry_equiv_pos_as_xyz
1 x,y,z
2 -x,-y,-z
_cell_length_a                   8.5061(6)
_cell_length_b                   10.3155(9)
_cell_length_c                   12.1216(11)
_cell_angle_alpha                91.607(7)
_cell_angle_beta                 96.421(7)
_cell_angle_gamma                92.598(6)
_cell_volume                     1055.26
_exptl_crystal_colour            colorless
_exptl_crystal_description       plate
_cell_formula_units_Z            1
loop_
_atom_site_label
_atom_site_type_symbol
_atom_site_fract_x
_atom_site_fract_y
_atom_site_fract_z
N1 N 0.6958(3) 0.6277(2) 0.9709(2)
C1 C 0.2356(2) 0.88569(19) 0.65702(16)
C2 C 0.1148(2) 0.9466(2) 0.57620(16)
C3 C -0.0458(2) 0.9206(2) 0.57948(18)
H1 H -0.0788 0.8662 0.6332
C4 C 0.1580(2) 1.0266(2) 0.49500(18)
H2 H 0.2649 1.0456 0.4901
C5 C 0.6088(3) 0.6799(3) 0.9118(2)
B1 B 0.4892(3) 0.7478(3) 0.8288(2)
B2 B 0.5410(3) 0.8031(3) 0.7002(2)
H3 H 0.6597 0.7923 0.6742
B3 B 0.5065(3) 0.9164(3) 0.8072(2)
H4 H 0.6029 0.9795 0.8507
B4 B 0.3500(3) 0.8515(3) 0.8771(2)
H5 H 0.3442 0.8726 0.9660
B5 B 0.2866(3) 0.6965(3) 0.8129(2)
H6 H 0.2397 0.6167 0.8600
B6 B 0.4052(3) 0.6673(3) 0.7031(2)
H7 H 0.4352 0.5687 0.6789
B7 B 0.3691(3) 0.7882(3) 0.6049(2)
H8 H 0.3744 0.7690 0.5157
B8 B 0.4313(3) 0.9408(3) 0.6689(2)
H9 H 0.4768 1.0209 0.6215
B9 B 0.3137(3) 0.9698(3) 0.7770(2)
H10 H 0.2826 1.0687 0.7997
B10 B 0.1788(3) 0.8348(3) 0.7806(2)
H11 H 0.0598 0.8457 0.8060
B11 B 0.2131(3) 0.7232(2) 0.6743(2)
H12 H 0.1160 0.6612 0.6301
N1A N -0.6958(3) 1.3723(2) 0.0291(2)
C1A C -0.2356(2) 1.11431(19) 0.34298(16)
C2A C -0.1148(2) 1.0534(2) 0.42380(16)
C3A C 0.0458(2) 1.0794(2) 0.42052(18)
H1A H 0.0788 1.1338 0.3668
C4A C -0.1580(2) 0.9734(2) 0.50500(18)
H2A H -0.2649 0.9544 0.5099
C5A C -0.6088(3) 1.3201(3) 0.0882(2)
B1A B -0.4892(3) 1.2522(3) 0.1712(2)
B2A B -0.5410(3) 1.1969(3) 0.2998(2)
H3A H -0.6597 1.2077 0.3258
B3A B -0.5065(3) 1.0836(3) 0.1928(2)
H4A H -0.6029 1.0205 0.1493
B4A B -0.3500(3) 1.1485(3) 0.1229(2)
H5A H -0.3442 1.1274 0.0340
B5A B -0.2866(3) 1.3035(3) 0.1871(2)
H6A H -0.2397 1.3833 0.1400
B6A B -0.4052(3) 1.3327(3) 0.2969(2)
H7A H -0.4352 1.4313 0.3211
B7A B -0.3691(3) 1.2118(3) 0.3951(2)
H8A H -0.3744 1.2310 0.4843
B8A B -0.4313(3) 1.0592(3) 0.3311(2)
H9A H -0.4768 0.9791 0.3785
B9A B -0.3137(3) 1.0302(3) 0.2230(2)
H10A H -0.2826 0.9313 0.2003
B10A B -0.1788(3) 1.1652(3) 0.2194(2)
H11A H -0.0598 1.1543 0.1940
B11A B -0.2131(3) 1.2768(2) 0.3257(2)
H12A H -0.1160 1.3388 0.3699
N2 N 0.11906(19) 0.67115(18) 0.23077(15)
C6 C 0.0131(3) 0.7335(2) 0.3067(2)
H13 H 0.0643 0.7327 0.3823
H14 H 0.0030 0.8236 0.2873
C7 C -0.1498(3) 0.6702(3) 0.3033(3)
H15 H -0.2006 0.6674 0.2284
H16 H -0.2111 0.7192 0.3500
H17 H -0.1421 0.5834 0.3293
C8 C 0.0488(3) 0.6738(3) 0.1119(2)
H18 H -0.0507 0.6228 0.1033
H19 H 0.1195 0.6325 0.0658
C9 C 0.0192(4) 0.8073(4) 0.0706(3)
H20 H -0.0139 0.8019 -0.0079
H21 H 0.1148 0.8611 0.0848
H22 H -0.0623 0.8444 0.1084
C10 C 0.1372(3) 0.5283(3) 0.2594(3)
H23 H 0.0342 0.4830 0.2445
H24 H 0.2062 0.4903 0.2102
C11 C 0.2023(4) 0.5050(3) 0.3770(3)
H25 H 0.2112 0.4135 0.3867
H26 H 0.1323 0.5383 0.4267
H27 H 0.3049 0.5484 0.3928
C12 C 0.2771(3) 0.7440(3) 0.2494(2)
H28 H 0.3162 0.7410 0.3275
H29 H 0.2616 0.8343 0.2328
C13 C 0.4031(3) 0.6957(3) 0.1823(3)
H30 H 0.3620 0.6887 0.1052
H31 H 0.4337 0.6121 0.2073
H32 H 0.4936 0.7557 0.1918
loop_
_geom_bond_atom_site_label_1
_geom_bond_atom_site_label_2
_geom_bond_site_symmetry_1
_geom_bond_site_symmetry_2
N1 C5 1_555 1_555
C1 C2 1_555 1_555
C2 C3 1_555 1_555
C3 H1 1_555 1_555
C4 C2 1_555 1_555
H2 C4 1_555 1_555
C5 B1 1_555 1_555
B1 B2 1_555 1_555
B2 H3 1_555 1_555
B3 B1 1_555 1_555
H4 B3 1_555 1_555
B4 B1 1_555 1_555
H5 B4 1_555 1_555
B5 B1 1_555 1_555
H6 B5 1_555 1_555
B6 B1 1_555 1_555
H7 B6 1_555 1_555
B7 C1 1_555 1_555
H8 B7 1_555 1_555
B8 C1 1_555 1_555
H9 B8 1_555 1_555
B9 C1 1_555 1_555
H10 B9 1_555 1_555
B10 C1 1_555 1_555
H11 B10 1_555 1_555
B11 C1 1_555 1_555
H12 B11 1_555 1_555
N2 C6 1_555 1_555
C6 H13 1_555 1_555
H14 C6 1_555 1_555
C7 C6 1_555 1_555
H15 C7 1_555 1_555
H16 C7 1_555 1_555
H17 C7 1_555 1_555
C8 N2 1_555 1_555
H18 C8 1_555 1_555
H19 C8 1_555 1_555
C9 C8 1_555 1_555
H20 C9 1_555 1_555
H21 C9 1_555 1_555
H22 C9 1_555 1_555
C10 N2 1_555 1_555
H23 C10 1_555 1_555
H24 C10 1_555 1_555
C11 C10 1_555 1_555
H25 C11 1_555 1_555
H26 C11 1_555 1_555
H27 C11 1_555 1_555
C12 N2 1_555 1_555
H28 C12 1_555 1_555
H29 C12 1_555 1_555
C13 C12 1_555 1_555
H30 C13 1_555 1_555
H31 C13 1_555 1_555
H32 C13 1_555 1_555
N1A C5A 1_555 1_555
C1A C2A 1_555 1_555
C2A C3A 1_555 1_555
C3A C4 1_555 1_555
H1A C3A 1_555 1_555
C4A C3 1_555 1_555
H2A C4A 1_555 1_555
C5A B1A 1_555 1_555
B1A B2A 1_555 1_555
B2A H3A 1_555 1_555
B3A B1A 1_555 1_555
H4A B3A 1_555 1_555
B4A B1A 1_555 1_555
H5A B4A 1_555 1_555
B5A B1A 1_555 1_555
H6A B5A 1_555 1_555
B6A B1A 1_555 1_555
H7A B6A 1_555 1_555
B7A C1A 1_555 1_555
H8A B7A 1_555 1_555
B8A C1A 1_555 1_555
H9A B8A 1_555 1_555
B9A C1A 1_555 1_555
H10A B9A 1_555 1_555
B10A C1A 1_555 1_555
H11A B10A 1_555 1_555
B11A C1A 1_555 1_555
H12A B11A 1_555 1_555
B2 B3 1_555 1_555
B2 B6 1_555 1_555
B2 B7 1_555 1_555
B2 B8 1_555 1_555
B3 B4 1_555 1_555
B3 B8 1_555 1_555
B3 B9 1_555 1_555
B4 B5 1_555 1_555
B4 B9 1_555 1_555
B4 B10 1_555 1_555
B5 B6 1_555 1_555
B5 B10 1_555 1_555
B5 B11 1_555 1_555
B6 B7 1_555 1_555
B6 B11 1_555 1_555
B7 B8 1_555 1_555
B7 B11 1_555 1_555
B8 B9 1_555 1_555
B9 B10 1_555 1_555
B10 B11 1_555 1_555
C2A C4A 1_555 1_555
B2A B3A 1_555 1_555
B2A B6A 1_555 1_555
B2A B7A 1_555 1_555
B2A B8A 1_555 1_555
B3A B4A 1_555 1_555
B3A B8A 1_555 1_555
B3A B9A 1_555 1_555
B4A B5A 1_555 1_555
B4A B9A 1_555 1_555
B4A B10A 1_555 1_555
B5A B6A 1_555 1_555
B5A B10A 1_555 1_555
B5A B11A 1_555 1_555
B6A B7A 1_555 1_555
B6A B11A 1_555 1_555
B7A B8A 1_555 1_555
B7A B11A 1_555 1_555
B8A B9A 1_555 1_555
B9A B10A 1_555 1_555
B10A B11A 1_555 1_555

#END
