
#######################################################################
#
#                 Cambridge Crystallographic Data Centre
#                                CCDC 
#
#######################################################################
#
# If this CIF has been generated from an entry in the Cambridge 
# Structural Database, then it will include bibliographic, chemical, 
# crystal, experimental, refinement or atomic coordinate data resulting 
# from the CCDC's data processing and validation procedures.
#
#######################################################################

data_WEVKIS
_chemical_formula_moiety         'C7 H9 N1 O5'
_chemical_name_systematic        'N-Acryoylaspartic acid'
_symmetry_cell_setting           triclinic
_symmetry_space_group_name_H-M   'P -1'
_symmetry_Int_Tables_number      2
_space_group_name_Hall           '-P 1'
loop_
_symmetry_equiv_pos_site_id
_symmetry_equiv_pos_as_xyz
1 x,y,z
2 -x,-y,-z
_cell_length_a                   8.1560(16)
_cell_length_b                   10.079(2)
_cell_length_c                   11.084(2)
_cell_angle_alpha                90.16(3)
_cell_angle_beta                 94.17(3)
_cell_angle_gamma                104.99(3)
_cell_volume                     877.596
_exptl_crystal_colour            colorless
_exptl_crystal_description       plate
_chemical_melting_point          430.5K
_cell_formula_units_Z            4
_exptl_crystal_recrystallization_method 'ethyl acetate'
loop_
_atom_site_label
_atom_site_type_symbol
_atom_site_fract_x
_atom_site_fract_y
_atom_site_fract_z
O1 O -0.2120(3) 0.5594(2) 0.0427(2)
O2 O 0.1320(3) 0.92418(19) 0.31801(18)
H1 H 0.1529 1.0019 0.3477
O3 O -0.0049(3) 1.01281(18) 0.17129(17)
O4 O 0.3067(3) 0.9725(2) 0.0467(2)
O5 O 0.4636(3) 0.8229(2) 0.0490(2)
H2 H 0.5312 0.8871 0.0196
N1 N -0.0692(3) 0.7816(2) 0.03214(18)
H3 H -0.0517 0.8546 -0.0102
C1 C -0.4091(5) 0.5810(3) -0.1713(3)
H4 H -0.4318 0.4959 -0.1348
H5 H -0.4712 0.5930 -0.2423
C2 C -0.2861(3) 0.6872(3) -0.1212(2)
H6 H -0.2640 0.7721 -0.1581
C3 C -0.1871(3) 0.6702(2) -0.0094(2)
C4 C 0.0304(3) 0.7844(2) 0.1455(2)
H7 H -0.0356 0.7130 0.1955
C5 C 0.0507(3) 0.9210(2) 0.2108(2)
C6 C 0.2007(3) 0.7515(3) 0.1325(2)
H8 H 0.2497 0.7376 0.2124
H9 H 0.1804 0.6659 0.0867
C7 C 0.3272(3) 0.8600(3) 0.0715(2)
O6 O 1.2221(2) 0.15862(19) 0.44545(18)
O7 O 1.0021(3) 0.51749(19) 0.32469(18)
O8 O 0.8621(3) 0.3702(2) 0.17731(18)
H10 H 0.8477 0.4403 0.1458
O9 O 0.6782(3) 0.3262(2) 0.4319(3)
O10 O 0.5240(3) 0.1121(2) 0.3949(3)
H11 H 0.4457 0.1438 0.4128
N2 N 1.0662(3) 0.3105(2) 0.46104(19)
H12 H 1.0418 0.3720 0.5053
C8 C 1.3796(5) 0.2431(4) 0.6800(3)
H13 H 1.3944 0.1613 0.6495
H14 H 1.4355 0.2797 0.7535
C9 C 1.2773(4) 0.3086(3) 0.6176(3)
H15 H 1.2634 0.3904 0.6490
C10 C 1.1876(3) 0.2541(2) 0.5021(2)
C11 C 0.9720(3) 0.2735(2) 0.3446(2)
H16 H 1.0445 0.2362 0.2945
C12 C 0.9470(3) 0.4016(3) 0.2835(2)
C13 C 0.8067(3) 0.1621(3) 0.3500(3)
H17 H 0.7702 0.1234 0.2692
H18 H 0.8281 0.0892 0.4007
C14 C 0.6657(4) 0.2112(3) 0.3980(3)
loop_
_geom_bond_atom_site_label_1
_geom_bond_atom_site_label_2
_geom_bond_site_symmetry_1
_geom_bond_site_symmetry_2
O1 C3 1_555 1_555
O2 H1 1_555 1_555
O3 C5 1_555 1_555
O4 C7 1_555 1_555
O5 H2 1_555 1_555
N1 H3 1_555 1_555
C1 H4 1_555 1_555
H5 C1 1_555 1_555
C2 C1 1_555 1_555
H6 C2 1_555 1_555
C3 N1 1_555 1_555
C4 N1 1_555 1_555
H7 C4 1_555 1_555
C5 O2 1_555 1_555
C6 C4 1_555 1_555
H8 C6 1_555 1_555
H9 C6 1_555 1_555
C7 O5 1_555 1_555
O6 C10 1_555 1_555
O7 C12 1_555 1_555
O8 H10 1_555 1_555
O9 C14 1_555 1_555
O10 H11 1_555 1_555
N2 H12 1_555 1_555
C8 H13 1_555 1_555
H14 C8 1_555 1_555
C9 C8 1_555 1_555
H15 C9 1_555 1_555
C10 N2 1_555 1_555
C11 N2 1_555 1_555
H16 C11 1_555 1_555
C12 O8 1_555 1_555
C13 C11 1_555 1_555
H17 C13 1_555 1_555
H18 C13 1_555 1_555
C14 O10 1_555 1_555
C2 C3 1_555 1_555
C4 C5 1_555 1_555
C6 C7 1_555 1_555
C9 C10 1_555 1_555
C11 C12 1_555 1_555
C13 C14 1_555 1_555

#END
