
#######################################################################
#
#                 Cambridge Crystallographic Data Centre
#                                CCDC 
#
#######################################################################
#
# If this CIF has been generated from an entry in the Cambridge 
# Structural Database, then it will include bibliographic, chemical, 
# crystal, experimental, refinement or atomic coordinate data resulting 
# from the CCDC's data processing and validation procedures.
#
#######################################################################

data_WEVKEO
_chemical_formula_moiety         'C6 H9 N1 O3'
_chemical_name_systematic        N-Acryloyl-L-alanine
_symmetry_cell_setting           orthorhombic
_symmetry_space_group_name_H-M   'P 21 21 21'
_symmetry_Int_Tables_number      19
_space_group_name_Hall           'P 2ac 2ab'
loop_
_symmetry_equiv_pos_site_id
_symmetry_equiv_pos_as_xyz
1 x,y,z
2 1/2-x,-y,1/2+z
3 -x,1/2+y,1/2-z
4 1/2+x,1/2-y,-z
_cell_length_a                   8.3670(17)
_cell_length_b                   8.7730(18)
_cell_length_c                   10.350(2)
_cell_angle_alpha                90
_cell_angle_beta                 90
_cell_angle_gamma                90
_cell_volume                     759.728
_exptl_crystal_colour            colorless
_exptl_crystal_description       block
_chemical_melting_point          402.5K
_cell_formula_units_Z            4
_exptl_crystal_recrystallization_method 'ethyl acetate'
loop_
_atom_site_label
_atom_site_type_symbol
_atom_site_fract_x
_atom_site_fract_y
_atom_site_fract_z
O1 O 0.09773(18) 0.63916(19) 0.91853(16)
O2 O 0.15140(17) 0.96009(17) 0.78132(14)
O3 O 0.13615(18) 0.57691(18) 0.71336(14)
H1 H 0.0454 0.5425 0.7197
N1 N 0.34804(18) 0.85087(17) 0.89286(15)
H2 H 0.4156 0.8568 0.9553
C1 C 0.2072(3) 1.2358(2) 0.9254(3)
H3 H 0.1462 1.2468 0.8509
H4 H 0.2225 1.3186 0.9801
C2 C 0.2716(3) 1.1042(2) 0.9532(2)
H5 H 0.3322 1.0955 1.0282
C3 C 0.2516(2) 0.9678(2) 0.86977(17)
C4 C 0.3424(2) 0.7135(2) 0.81552(18)
H6 H 0.3669 0.7393 0.7255
C5 C 0.4649(3) 0.5992(3) 0.8644(3)
H7 H 0.5697 0.6435 0.8601
H8 H 0.4616 0.5092 0.8116
H9 H 0.4409 0.5726 0.9522
C6 C 0.1766(2) 0.6428(2) 0.82196(18)
loop_
_geom_bond_atom_site_label_1
_geom_bond_atom_site_label_2
_geom_bond_site_symmetry_1
_geom_bond_site_symmetry_2
O1 C6 1_555 1_555
O2 C3 1_555 1_555
O3 H1 1_555 1_555
N1 H2 1_555 1_555
C1 H3 1_555 1_555
H4 C1 1_555 1_555
C2 C1 1_555 1_555
H5 C2 1_555 1_555
C3 N1 1_555 1_555
C4 N1 1_555 1_555
H6 C4 1_555 1_555
C5 C4 1_555 1_555
H7 C5 1_555 1_555
H8 C5 1_555 1_555
H9 C5 1_555 1_555
C6 O3 1_555 1_555
C2 C3 1_555 1_555
C4 C6 1_555 1_555

#END
