
#######################################################################
#
#                 Cambridge Crystallographic Data Centre
#                                CCDC 
#
#######################################################################
#
# If this CIF has been generated from an entry in the Cambridge 
# Structural Database, then it will include bibliographic, chemical, 
# crystal, experimental, refinement or atomic coordinate data resulting 
# from the CCDC's data processing and validation procedures.
#
#######################################################################

data_WEVLOZ
_chemical_formula_moiety         'C16 H14 N1 O3 S1 1+,C7 H7 O3 S1 1-'
_chemical_name_systematic        
'8-(Tolyl-4-sulfonyloxy)quinolinium toluene-4-sulfonate'
_symmetry_cell_setting           triclinic
_symmetry_space_group_name_H-M   'P -1'
_symmetry_Int_Tables_number      2
_space_group_name_Hall           '-P 1'
loop_
_symmetry_equiv_pos_site_id
_symmetry_equiv_pos_as_xyz
1 x,y,z
2 -x,-y,-z
_cell_length_a                   9.643(5)
_cell_length_b                   10.852(5)
_cell_length_c                   11.421(5)
_cell_angle_alpha                105.470(5)
_cell_angle_beta                 97.976(5)
_cell_angle_gamma                99.295(5)
_cell_volume                     1115.77
_exptl_crystal_colour            yellow
_exptl_crystal_description       block
_cell_formula_units_Z            2
_exptl_crystal_recrystallization_method acetone
loop_
_atom_site_label
_atom_site_type_symbol
_atom_site_fract_x
_atom_site_fract_y
_atom_site_fract_z
S1 S 0.65547(6) 0.77989(6) 0.53688(6)
O1 O 0.53022(15) 0.65696(15) 0.52686(14)
O2 O 0.6116(2) 0.8423(2) 0.44730(18)
O3 O 0.77604(18) 0.7213(2) 0.52956(19)
N1 N 0.39310(19) 0.56788(17) 0.69216(17)
H1 H 0.4824 0.5683 0.6926
C1 C 0.3891(2) 0.6729(2) 0.52928(19)
C2 C 0.3146(2) 0.7218(2) 0.4488(2)
H2 H 0.3583 0.7509 0.3907
C3 C 0.1710(3) 0.7279(3) 0.4538(3)
H3 H 0.1210 0.7640 0.4004
C4 C 0.1044(2) 0.6822(2) 0.5352(2)
H4 H 0.0097 0.6882 0.5378
C5 C 0.1769(2) 0.6259(2) 0.6158(2)
C6 C 0.1124(2) 0.5685(2) 0.6976(2)
H5 H 0.0168 0.5694 0.7014
C7 C 0.1870(3) 0.5119(3) 0.7704(2)
H6 H 0.1425 0.4722 0.8221
C8 C 0.3304(3) 0.5141(2) 0.7671(2)
H7 H 0.3829 0.4773 0.8182
C9 C 0.3229(2) 0.62297(19) 0.61380(19)
C10 C 0.6670(2) 0.8842(2) 0.6845(2)
C11 C 0.6079(3) 0.9935(3) 0.6988(3)
H8 H 0.5604 1.0107 0.6301
C12 C 0.6199(3) 1.0765(3) 0.8148(4)
H9 H 0.5820 1.1513 0.8242
C13 C 0.6868(4) 1.0518(3) 0.9181(3)
C14 C 0.7477(4) 0.9422(3) 0.9019(3)
H10 H 0.7951 0.9252 0.9706
C15 C 0.7389(3) 0.8583(2) 0.7857(3)
H11 H 0.7806 0.7855 0.7756
C16 C 0.6996(5) 1.1426(4) 1.0475(4)
H12 H 0.7984 1.1693 1.0878
H13 H 0.6462 1.0978 1.0943
H14 H 0.6623 1.2183 1.0424
S2 S 0.27084(6) 0.49734(6) 1.15112(5)
O4 O 0.32959(18) 0.44568(17) 1.24907(16)
O5 O 0.3805(2) 0.58715(17) 1.12421(19)
O6 O 0.14512(18) 0.54711(19) 1.17682(16)
C17 C 0.2144(2) 0.3616(2) 1.0161(2)
C18 C 0.3148(2) 0.3100(2) 0.9522(2)
H15 H 0.4119 0.3447 0.9821
C19 C 0.2707(3) 0.2081(3) 0.8451(2)
H16 H 0.3390 0.1757 0.8027
C20 C 0.1265(3) 0.1521(3) 0.7982(2)
C21 C 0.0282(3) 0.2048(3) 0.8629(2)
H17 H -0.0689 0.1694 0.8334
C22 C 0.0700(2) 0.3080(2) 0.9698(2)
H18 H 0.0015 0.3419 1.0109
C23 C 0.0804(4) 0.0404(3) 0.6809(3)
H19 H 0.0942 0.0719 0.6115
H20 H -0.0190 0.0024 0.6719
H21 H 0.1365 -0.0245 0.6843
loop_
_geom_bond_atom_site_label_1
_geom_bond_atom_site_label_2
_geom_bond_site_symmetry_1
_geom_bond_site_symmetry_2
S1 O1 1_555 1_555
S2 O4 1_555 1_555
O1 C1 1_555 1_555
O2 S1 1_555 1_555
O3 S1 1_555 1_555
O5 S2 1_555 1_555
O6 S2 1_555 1_555
N1 H1 1_555 1_555
C1 C2 1_555 1_555
C2 H2 1_555 1_555
C3 C2 1_555 1_555
H3 C3 1_555 1_555
C4 C3 1_555 1_555
H4 C4 1_555 1_555
C5 C4 1_555 1_555
C6 C5 1_555 1_555
H5 C6 1_555 1_555
C7 C6 1_555 1_555
H6 C7 1_555 1_555
C8 N1 1_555 1_555
H7 C8 1_555 1_555
C9 N1 1_555 1_555
C10 S1 1_555 1_555
C11 C10 1_555 1_555
H8 C11 1_555 1_555
C12 C11 1_555 1_555
H9 C12 1_555 1_555
C13 C12 1_555 1_555
C14 C13 1_555 1_555
H10 C14 1_555 1_555
C15 C10 1_555 1_555
H11 C15 1_555 1_555
C16 C13 1_555 1_555
H12 C16 1_555 1_555
H13 C16 1_555 1_555
H14 C16 1_555 1_555
C17 S2 1_555 1_555
C18 C17 1_555 1_555
H15 C18 1_555 1_555
C19 C18 1_555 1_555
H16 C19 1_555 1_555
C20 C19 1_555 1_555
C21 C20 1_555 1_555
H17 C21 1_555 1_555
C22 C17 1_555 1_555
H18 C22 1_555 1_555
C23 C20 1_555 1_555
H19 C23 1_555 1_555
H20 C23 1_555 1_555
H21 C23 1_555 1_555
C1 C9 1_555 1_555
C5 C9 1_555 1_555
C7 C8 1_555 1_555
C14 C15 1_555 1_555
C21 C22 1_555 1_555

#END
