
#######################################################################
#
#                 Cambridge Crystallographic Data Centre
#                                CCDC 
#
#######################################################################
#
# If this CIF has been generated from an entry in the Cambridge 
# Structural Database, then it will include bibliographic, chemical, 
# crystal, experimental, refinement or atomic coordinate data resulting 
# from the CCDC's data processing and validation procedures.
#
#######################################################################

data_WEVMIU
_chemical_formula_moiety         'C20 H19 N1 O3'
_chemical_name_systematic        
(4R)-5,5-Dimethyl-4-phenyl-3-((E)-3-phenylacryloyl)-1,3-oxazolidin-2-one
_symmetry_cell_setting           monoclinic
_symmetry_space_group_name_H-M   'P 21'
_symmetry_Int_Tables_number      4
_space_group_name_Hall           'P 2yb'
loop_
_symmetry_equiv_pos_site_id
_symmetry_equiv_pos_as_xyz
1 x,y,z
2 -x,1/2+y,-z
_cell_length_a                   5.7455(7)
_cell_length_b                   12.8894(16)
_cell_length_c                   11.6696(14)
_cell_angle_alpha                90
_cell_angle_beta                 94.317(2)
_cell_angle_gamma                90
_cell_volume                     861.753
_exptl_crystal_colour            colorless
_exptl_crystal_description       block
_chemical_melting_point          '427 K'
_cell_formula_units_Z            2
loop_
_atom_site_label
_atom_site_type_symbol
_atom_site_fract_x
_atom_site_fract_y
_atom_site_fract_z
C1 C -0.0357(4) 0.52364(16) 0.11001(18)
H1 H -0.1989 0.5462 0.1066
C2 C 0.2823(4) 0.62783(19) 0.06276(19)
C3 C 0.0322(4) 0.5014(2) -0.0150(2)
C4 C -0.1431(5) 0.5494(4) -0.1021(2)
H2 H -0.0990 0.5348 -0.1782
H3 H -0.1469 0.6231 -0.0907
H4 H -0.2950 0.5209 -0.0930
C5 C 0.0865(6) 0.3886(3) -0.0402(2)
H5 H 0.1258 0.3821 -0.1184
H6 H -0.0478 0.3466 -0.0287
H7 H 0.2157 0.3658 0.0105
C6 C -0.0043(4) 0.43437(17) 0.19283(18)
C7 C 0.1977(4) 0.41906(18) 0.2630(2)
H8 H 0.3184 0.4671 0.2623
C8 C 0.2225(5) 0.3334(2) 0.3338(2)
H9 H 0.3587 0.3245 0.3811
C9 C 0.0461(5) 0.2611(2) 0.3348(2)
H10 H 0.0641 0.2028 0.3815
C10 C -0.1548(5) 0.2755(2) 0.2669(3)
H11 H -0.2745 0.2270 0.2675
C11 C -0.1812(4) 0.36224(19) 0.1970(2)
H12 H -0.3203 0.3720 0.1522
C12 C 0.0711(4) 0.67346(17) 0.23670(18)
C13 C 0.2408(4) 0.75455(17) 0.27295(19)
H13 H 0.3788 0.7600 0.2366
C14 C 0.2002(4) 0.81970(17) 0.35642(17)
H14 H 0.0637 0.8097 0.3930
C15 C 0.3495(3) 0.90619(16) 0.39681(16)
C16 C 0.2859(4) 0.96893(18) 0.48640(18)
H15 H 0.1503 0.9543 0.5221
C17 C 0.4231(4) 1.05318(19) 0.5231(2)
H16 H 0.3789 1.0944 0.5832
C18 C 0.6234(4) 1.07570(19) 0.4711(2)
H17 H 0.7147 1.1323 0.4954
C19 C 0.6884(4) 1.01379(19) 0.3824(2)
H18 H 0.8244 1.0286 0.3471
C20 C 0.5539(4) 0.93059(18) 0.34598(18)
H19 H 0.6002 0.8896 0.2861
N1 N 0.1145(3) 0.61267(13) 0.14125(14)
O1 O 0.4365(3) 0.69065(15) 0.06589(16)
O2 O 0.2506(3) 0.55725(15) -0.02103(15)
O3 O -0.1029(3) 0.65497(14) 0.28560(14)
loop_
_geom_bond_atom_site_label_1
_geom_bond_atom_site_label_2
_geom_bond_site_symmetry_1
_geom_bond_site_symmetry_2
C1 H1 1_555 1_555
C2 N1 1_555 1_555
C3 C1 1_555 1_555
C4 C3 1_555 1_555
H2 C4 1_555 1_555
H3 C4 1_555 1_555
H4 C4 1_555 1_555
C5 C3 1_555 1_555
H5 C5 1_555 1_555
H6 C5 1_555 1_555
H7 C5 1_555 1_555
C6 C1 1_555 1_555
C7 C6 1_555 1_555
H8 C7 1_555 1_555
C8 C7 1_555 1_555
H9 C8 1_555 1_555
C9 C8 1_555 1_555
H10 C9 1_555 1_555
C10 C9 1_555 1_555
H11 C10 1_555 1_555
C11 C6 1_555 1_555
H12 C11 1_555 1_555
C12 C13 1_555 1_555
C13 H13 1_555 1_555
C14 C13 1_555 1_555
H14 C14 1_555 1_555
C15 C14 1_555 1_555
C16 C15 1_555 1_555
H15 C16 1_555 1_555
C17 C16 1_555 1_555
H16 C17 1_555 1_555
C18 C17 1_555 1_555
H17 C18 1_555 1_555
C19 C18 1_555 1_555
H18 C19 1_555 1_555
C20 C15 1_555 1_555
H19 C20 1_555 1_555
N1 C1 1_555 1_555
O1 C2 1_555 1_555
O2 C2 1_555 1_555
O3 C12 1_555 1_555
C3 O2 1_555 1_555
C10 C11 1_555 1_555
C12 N1 1_555 1_555
C19 C20 1_555 1_555

#END
