
#######################################################################
#
#                 Cambridge Crystallographic Data Centre
#                                CCDC 
#
#######################################################################
#
# If this CIF has been generated from an entry in the Cambridge 
# Structural Database, then it will include bibliographic, chemical, 
# crystal, experimental, refinement or atomic coordinate data resulting 
# from the CCDC's data processing and validation procedures.
#
#######################################################################

data_WEVTOH
_chemical_formula_moiety         'C13 H12 N4 O2'
_chemical_name_systematic        
'Ethyl 5-amino-1-(4-cyanophenyl)-1H-imidazole-4-carboxylate'
_symmetry_cell_setting           triclinic
_symmetry_space_group_name_H-M   'P -1'
_symmetry_Int_Tables_number      2
_space_group_name_Hall           '-P 1'
loop_
_symmetry_equiv_pos_site_id
_symmetry_equiv_pos_as_xyz
1 x,y,z
2 -x,-y,-z
_cell_length_a                   6.3212(5)
_cell_length_b                   9.4121(11)
_cell_length_c                   10.2496(12)
_cell_angle_alpha                90.311(5)
_cell_angle_beta                 94.183(7)
_cell_angle_gamma                92.946(7)
_cell_volume                     607.354
_exptl_crystal_colour            colorless
_exptl_crystal_description       needle
_chemical_melting_point          '516-518 K'
_cell_formula_units_Z            2
_exptl_crystal_recrystallization_method ethanol
loop_
_atom_site_label
_atom_site_type_symbol
_atom_site_fract_x
_atom_site_fract_y
_atom_site_fract_z
O1 O 0.2434(2) 0.01631(16) 0.69543(15)
O2 O -0.0923(2) 0.08389(15) 0.70768(14)
N1 N 0.2612(2) 0.32789(18) 0.40492(17)
N2 N -0.0421(3) 0.27643(18) 0.49852(18)
N3 N 0.4953(3) 0.16377(18) 0.51255(18)
N4 N 0.8987(3) 0.6796(2) -0.0046(2)
C1 C 0.0487(3) 0.3558(2) 0.4137(2)
C2 C 0.1169(3) 0.1903(2) 0.5512(2)
C3 C 0.3047(3) 0.2205(2) 0.4931(2)
C4 C 0.3986(3) 0.3979(2) 0.3183(2)
C5 C 0.3832(3) 0.5438(2) 0.3006(2)
C6 C 0.5118(3) 0.6140(2) 0.2157(2)
C7 C 0.6547(3) 0.5396(2) 0.1489(2)
C8 C 0.6686(3) 0.3932(2) 0.1663(2)
C9 C 0.5404(3) 0.3222(2) 0.2512(2)
C10 C 0.0973(3) 0.0889(2) 0.6555(2)
C11 C -0.1120(3) -0.0169(2) 0.8145(2)
C12 C -0.2963(3) 0.0227(2) 0.8891(2)
C13 C 0.7914(3) 0.6162(2) 0.0626(2)
H1 H -0.0223 0.4255 0.3630
H2 H 0.4992 0.0963 0.5744
H3 H 0.6148 0.2110 0.4906
H4 H 0.2852 0.5945 0.3464
H5 H 0.5025 0.7135 0.2031
H6 H 0.7660 0.3424 0.1200
H7 H 0.5492 0.2227 0.2636
H8 H 0.0200 -0.0127 0.8730
H9 H -0.1364 -0.1150 0.7792
H10 H -0.2672 0.1178 0.9276
H11 H -0.3173 -0.0464 0.9587
H12 H -0.4249 0.0226 0.8295
loop_
_geom_bond_atom_site_label_1
_geom_bond_atom_site_label_2
_geom_bond_site_symmetry_1
_geom_bond_site_symmetry_2
O1 C10 1_555 1_555
O2 C10 1_555 1_555
N1 C1 1_555 1_555
N2 C1 1_555 1_555
N3 C3 1_555 1_555
N4 C13 1_555 1_555
C1 H1 1_555 1_555
C2 N2 1_555 1_555
C3 N1 1_555 1_555
C4 N1 1_555 1_555
C5 C4 1_555 1_555
C6 C5 1_555 1_555
C7 C6 1_555 1_555
C8 C7 1_555 1_555
C9 C4 1_555 1_555
C10 C2 1_555 1_555
C11 O2 1_555 1_555
C12 C11 1_555 1_555
C13 C7 1_555 1_555
H2 N3 1_555 1_555
H3 N3 1_555 1_555
H4 C5 1_555 1_555
H5 C6 1_555 1_555
H6 C8 1_555 1_555
H7 C9 1_555 1_555
H8 C11 1_555 1_555
H9 C11 1_555 1_555
H10 C12 1_555 1_555
H11 C12 1_555 1_555
H12 C12 1_555 1_555
C2 C3 1_555 1_555
C8 C9 1_555 1_555

#END
