
#######################################################################
#
#                 Cambridge Crystallographic Data Centre
#                                CCDC 
#
#######################################################################
#
# If this CIF has been generated from an entry in the Cambridge 
# Structural Database, then it will include bibliographic, chemical, 
# crystal, experimental, refinement or atomic coordinate data resulting 
# from the CCDC's data processing and validation procedures.
#
#######################################################################

data_WEVWUS
_chemical_formula_moiety         'C16 H6 N2 O12 2-,2(C13 H10 N1 1+)'
_chemical_name_systematic        
"bis(acridin-10-ium) 2',6'-dicarboxy-4,4'-dinitro[1,1'-biphenyl]-2,6-dicarboxylate"
_symmetry_cell_setting           orthorhombic
_symmetry_space_group_name_H-M   'P b c n'
_symmetry_Int_Tables_number      60
_space_group_name_Hall           '-P 2n 2ab'
loop_
_symmetry_equiv_pos_site_id
_symmetry_equiv_pos_as_xyz
1 x,y,z
2 1/2-x,1/2-y,1/2+z
3 -x,y,1/2-z
4 1/2+x,1/2-y,-z
5 -x,-y,-z
6 1/2+x,1/2+y,1/2-z
7 x,-y,1/2+z
8 1/2-x,1/2+y,z
_cell_length_a                   6.8792(17)
_cell_length_b                   20.676(5)
_cell_length_c                   24.349(6)
_cell_angle_alpha                90
_cell_angle_beta                 90
_cell_angle_gamma                90
_cell_volume                     3463.26
_exptl_crystal_colour            'greenish yellow'
_exptl_crystal_description       'Rectangular block'
_cell_formula_units_Z            4
loop_
_atom_site_label
_atom_site_type_symbol
_atom_site_fract_x
_atom_site_fract_y
_atom_site_fract_z
N1 N 0.5000 0.58446(9) 0.7500
O1 O 0.8362(2) 0.32512(6) 0.80548(5)
H1 H 0.9300 0.3139 0.8239
O2 O 0.8551(3) 0.41353(7) 0.85682(6)
O3 O 0.5844(2) 0.61239(6) 0.78735(5)
C1 C 0.5000 0.37952(10) 0.7500
C2 C 0.6361(2) 0.41437(7) 0.78180(5)
C3 C 0.6345(3) 0.48121(8) 0.78203(5)
H2 H 0.7227 0.5041 0.8034
C4 C 0.5000 0.51357(10) 0.7500
C5 C 0.7869(3) 0.38407(8) 0.81880(6)
O4 O 0.5666(2) 0.07408(6) 0.70986(4)
O5 O 0.6286(3) 0.35364(7) 0.64073(5)
O6 O 0.85745(18) 0.27823(6) 0.64402(4)
N2 N 0.5000 0.10215(9) 0.7500
C6 C 0.5000 0.30677(9) 0.7500
C7 C 0.5997(2) 0.27241(7) 0.70866(5)
C8 C 0.6038(2) 0.20542(7) 0.70982(5)
H3 H 0.6753 0.1824 0.6839
C9 C 0.5000 0.17329(10) 0.7500
C10 C 0.7052(3) 0.30436(7) 0.66111(6)
O1B O 0.1638(2) 0.32512(6) 0.69452(5)
H1B H 0.0700 0.3139 0.6761
O2B O 0.1449(3) 0.41353(7) 0.64318(6)
O3B O 0.4156(2) 0.61239(6) 0.71265(5)
C2B C 0.3639(2) 0.41437(7) 0.71820(5)
C3B C 0.3655(3) 0.48121(8) 0.71797(5)
H2B H 0.2773 0.5041 0.6966
C5B C 0.2131(3) 0.38407(8) 0.68120(6)
O4B O 0.4334(2) 0.07408(6) 0.79014(4)
O5B O 0.3714(3) 0.35364(7) 0.85927(5)
O6B O 0.14255(18) 0.27823(6) 0.85598(4)
C7B C 0.4003(2) 0.27241(7) 0.79134(5)
C8B C 0.3962(2) 0.20542(7) 0.79018(5)
H3B H 0.3247 0.1824 0.8161
C10B C 0.2948(3) 0.30436(7) 0.83889(6)
N3 N 0.2535(2) 0.09355(7) 0.44983(5)
H4 H 0.227(4) 0.1138(11) 0.4144(8)
C11 C 0.2788(3) 0.03157(10) 0.55022(6)
H5 H 0.289(3) 0.0097(11) 0.5861(8)
C12 C 0.2755(3) 0.12991(10) 0.49596(6)
C13 C 0.2888(3) 0.09859(10) 0.54822(6)
C14 C 0.3065(3) 0.13837(11) 0.59597(7)
H6 H 0.3182 0.1192 0.6304
C15 C 0.3063(4) 0.20332(12) 0.59160(8)
H7 H 0.3121 0.2288 0.6231
C16 C 0.2971(4) 0.23305(12) 0.53910(8)
H8 H 0.3004 0.2779 0.5367
C17 C 0.2837(4) 0.19752(10) 0.49223(8)
H9 H 0.2800 0.2178 0.4582
C18 C 0.2408(3) 0.02841(9) 0.45106(6)
C19 C 0.2526(3) -0.00470(10) 0.50259(7)
C20 C 0.2342(3) -0.07347(10) 0.50248(7)
H10 H 0.2430 -0.0963 0.5353
C21 C 0.2041(3) -0.10571(10) 0.45488(8)
H11 H 0.1902 -0.1504 0.4554
C22 C 0.1936(3) -0.07184(10) 0.40399(7)
H12 H 0.1735 -0.0949 0.3717
C23 C 0.2123(3) -0.00671(10) 0.40174(7)
H13 H 0.2065 0.0147 0.3682
loop_
_geom_bond_atom_site_label_1
_geom_bond_atom_site_label_2
_geom_bond_site_symmetry_1
_geom_bond_site_symmetry_2
N1 O3 1_555 1_555
O1 H1 1_555 1_555
O2 C5 1_555 1_555
C1 C2 1_555 1_555
C2 C3 1_555 1_555
C3 H2 1_555 1_555
C4 N1 1_555 1_555
C5 O1 1_555 1_555
O4 N2 1_555 1_555
O5 C10 1_555 1_555
O6 C10 1_555 1_555
N2 C9 1_555 1_555
C6 C1 1_555 1_555
C7 C6 1_555 1_555
C8 C7 1_555 1_555
H3 C8 1_555 1_555
C9 C8 1_555 1_555
C10 C7 1_555 1_555
N3 H4 1_555 1_555
C11 H5 1_555 1_555
C12 N3 1_555 1_555
C13 C11 1_555 1_555
C14 C13 1_555 1_555
H6 C14 1_555 1_555
C15 C14 1_555 1_555
H7 C15 1_555 1_555
C16 C15 1_555 1_555
H8 C16 1_555 1_555
C17 C12 1_555 1_555
H9 C17 1_555 1_555
C18 N3 1_555 1_555
C19 C11 1_555 1_555
C20 C19 1_555 1_555
H10 C20 1_555 1_555
C21 C20 1_555 1_555
H11 C21 1_555 1_555
C22 C21 1_555 1_555
H12 C22 1_555 1_555
C23 C18 1_555 1_555
H13 C23 1_555 1_555
O1B H1B 1_555 1_555
O2B C5B 1_555 1_555
O3B N1 1_555 1_555
C2B C1 1_555 1_555
C3B C4 1_555 1_555
H2B C3B 1_555 1_555
C5B O1B 1_555 1_555
O4B N2 1_555 1_555
O5B C10B 1_555 1_555
O6B C10B 1_555 1_555
C7B C6 1_555 1_555
C8B C9 1_555 1_555
H3B C8B 1_555 1_555
C10B C7B 1_555 1_555
C2 C5 1_555 1_555
C3 C4 1_555 1_555
C12 C13 1_555 1_555
C16 C17 1_555 1_555
C18 C19 1_555 1_555
C22 C23 1_555 1_555
C2B C3B 1_555 1_555
C2B C5B 1_555 1_555
C7B C8B 1_555 1_555

#END
