
#######################################################################
#
#                 Cambridge Crystallographic Data Centre
#                                CCDC 
#
#######################################################################
#
# If this CIF has been generated from an entry in the Cambridge 
# Structural Database, then it will include bibliographic, chemical, 
# crystal, experimental, refinement or atomic coordinate data resulting 
# from the CCDC's data processing and validation procedures.
#
#######################################################################

data_WEVXAZ
_chemical_formula_moiety         'C16 H6 N2 O12 2-,2(C13 H10 N1 1+),C14 H10'
_chemical_name_systematic        
"bis(acridin-10-ium) anthracene 2',6'-dicarboxy-4,4'-dinitro[1,1'-biphenyl]-2,6-dicarboxylate"
_symmetry_cell_setting           triclinic
_symmetry_space_group_name_H-M   'P -1'
_symmetry_Int_Tables_number      2
_space_group_name_Hall           '-P 1'
loop_
_symmetry_equiv_pos_site_id
_symmetry_equiv_pos_as_xyz
1 x,y,z
2 -x,-y,-z
_cell_length_a                   12.7654(14)
_cell_length_b                   13.0320(13)
_cell_length_c                   14.4716(15)
_cell_angle_alpha                77.641(2)
_cell_angle_beta                 84.883(2)
_cell_angle_gamma                66.920(2)
_cell_volume                     2163.41
_exptl_crystal_colour            red
_exptl_crystal_description       'Rectangular block'
_cell_formula_units_Z            2
loop_
_atom_site_label
_atom_site_type_symbol
_atom_site_fract_x
_atom_site_fract_y
_atom_site_fract_z
O1 O 0.01356(13) 0.85546(15) 0.11258(12)
H1 H -0.0117 0.8604 0.0609
O2 O 0.18266(14) 0.77332(15) 0.04387(12)
O3 O 0.20254(14) 0.91191(14) 0.49120(12)
H2 H 0.1803 0.9630 0.5216
O4 O 0.09011(16) 1.04797(15) 0.38005(13)
O5 O 0.49721(14) 0.58773(15) 0.39962(13)
O6 O 0.48332(15) 0.53165(16) 0.27241(14)
N1 N 0.44771(16) 0.59843(17) 0.32673(15)
C1 C 0.13663(18) 0.88015(19) 0.26004(16)
C2 C 0.18085(19) 0.80064(19) 0.20082(16)
C3 C 0.28423(19) 0.7096(2) 0.22264(17)
H3 H 0.3160 0.6585 0.1821
C4 C 0.33909(18) 0.69579(19) 0.30471(16)
C5 C 0.29674(18) 0.76987(19) 0.36637(17)
H4 H 0.3350 0.7575 0.4220
C6 C 0.19531(19) 0.86382(19) 0.34375(17)
C7 C 0.12537(19) 0.80950(19) 0.11017(17)
C8 C 0.15538(19) 0.9511(2) 0.40642(17)
O7 O 0.23791(13) 1.01696(15) 0.14175(12)
O8 O 0.12801(14) 1.11718(15) 0.01537(12)
O9 O -0.14686(13) 0.92014(13) 0.42553(11)
O10 O -0.02870(14) 0.79777(14) 0.34057(12)
O11 O -0.35217(15) 1.28958(17) 0.18241(14)
O12 O -0.23814(16) 1.37110(15) 0.11601(13)
N2 N -0.25662(18) 1.28799(18) 0.15948(15)
C9 C 0.03110(19) 0.98425(19) 0.23255(16)
C10 C 0.03691(19) 1.0715(2) 0.15905(16)
C11 C -0.05880(19) 1.17000(19) 0.13631(16)
H5 H -0.0558 1.2285 0.0878
C12 C -0.15870(19) 1.18098(19) 0.18595(17)
C13 C -0.16838(19) 1.09427(19) 0.25659(16)
H6 H -0.2374 1.1028 0.2877
C14 C -0.07282(19) 0.99439(19) 0.27993(16)
C15 C 0.14304(19) 1.0673(2) 0.10039(17)
C16 C -0.08179(18) 0.89533(19) 0.35367(16)
N3 N 0.42139(16) 0.06433(17) 0.09395(13)
H7 H 0.3593 0.0524 0.0983
C17 C 0.6219(2) 0.0996(2) 0.07598(17)
H8 H 0.6902 0.1105 0.0681
C18 C 0.42076(19) 0.1645(2) 0.04223(17)
C19 C 0.52388(19) 0.1847(2) 0.03254(17)
C20 C 0.5216(2) 0.2914(2) -0.01895(18)
H9 H 0.5877 0.3063 -0.0258
C21 C 0.4224(2) 0.3721(2) -0.05835(18)
H10 H 0.4209 0.4422 -0.0913
C22 C 0.3217(2) 0.3496(2) -0.04933(18)
H11 H 0.2552 0.4054 -0.0773
C23 C 0.3193(2) 0.2486(2) -0.00087(17)
H12 H 0.2524 0.2353 0.0038
C24 C 0.5150(2) -0.0181(2) 0.13922(17)
C25 C 0.61987(19) -0.0014(2) 0.13099(17)
C26 C 0.7157(2) -0.0876(2) 0.18140(18)
H13 H 0.7852 -0.0795 0.1761
C27 C 0.7066(2) -0.1813(2) 0.23693(18)
H14 H 0.7690 -0.2352 0.2719
C28 C 0.6028(2) -0.1983(2) 0.24253(18)
H15 H 0.5990 -0.2646 0.2794
C29 C 0.5086(2) -0.1191(2) 0.19479(18)
H16 H 0.4411 -0.1312 0.1987
N4 N 0.07880(16) 0.29238(16) 0.45483(14)
H17 H 0.1001 0.2224 0.4833
C30 C 0.0119(2) 0.5155(2) 0.36104(17)
H18 H -0.0103 0.5906 0.3289
C31 C 0.14868(19) 0.3480(2) 0.45685(16)
C32 C 0.1144(2) 0.4644(2) 0.41009(16)
C33 C 0.1867(2) 0.5226(2) 0.41668(17)
H19 H 0.1656 0.5988 0.3880
C34 C 0.2865(2) 0.4669(2) 0.46489(18)
H20 H 0.3331 0.5055 0.4691
C35 C 0.3198(2) 0.3515(2) 0.50836(18)
H21 H 0.3890 0.3148 0.5399
C36 C 0.2531(2) 0.2916(2) 0.50540(17)
H22 H 0.2762 0.2155 0.5348
C37 C -0.02286(19) 0.3417(2) 0.41016(17)
C38 C -0.0579(2) 0.4564(2) 0.35917(17)
C39 C -0.1633(2) 0.5036(2) 0.31034(18)
H23 H -0.1870 0.5771 0.2745
C40 C -0.2298(2) 0.4426(2) 0.31540(19)
H24 H -0.2987 0.4749 0.2833
C41 C -0.1952(2) 0.3305(2) 0.36912(18)
H25 H -0.2430 0.2910 0.3735
C42 C -0.0930(2) 0.2790(2) 0.41469(18)
H26 H -0.0698 0.2044 0.4480
C43 C 0.3436(3) 0.3594(3) 0.2314(2)
H27 H 0.3830 0.4076 0.2228
C44 C 0.2277(3) 0.2127(2) 0.2591(2)
H28 H 0.1878 0.1649 0.2682
C45 C 0.3327(3) 0.1730(3) 0.2975(2)
C46 C 0.3926(3) 0.2457(4) 0.2859(2)
C47 C 0.5034(3) 0.2000(5) 0.3314(3)
H29 H 0.5463 0.2444 0.3269
C48 C 0.5443(3) 0.0867(4) 0.3823(2)
H30 H 0.6133 0.0572 0.4139
C49 C 0.4836(4) 0.0196(5) 0.3859(3)
H31 H 0.5151 -0.0562 0.4162
C50 C 0.3840(3) 0.0581(3) 0.3486(2)
H32 H 0.3445 0.0103 0.3549
C51 C 0.1780(2) 0.3213(2) 0.20708(19)
C52 C 0.2380(2) 0.3959(2) 0.19221(19)
C53 C 0.1849(3) 0.5064(3) 0.1354(2)
H33 H 0.2243 0.5547 0.1235
C54 C 0.0817(4) 0.5433(3) 0.0989(2)
H34 H 0.0502 0.6158 0.0620
C55 C 0.0212(3) 0.4727(4) 0.1161(2)
H35 H -0.0517 0.4998 0.0917
C56 C 0.0657(3) 0.3650(3) 0.1677(2)
H36 H 0.0234 0.3196 0.1776
loop_
_geom_bond_atom_site_label_1
_geom_bond_atom_site_label_2
_geom_bond_site_symmetry_1
_geom_bond_site_symmetry_2
O1 H1 1_555 1_555
O2 C7 1_555 1_555
O3 H2 1_555 1_555
O4 C8 1_555 1_555
O5 N1 1_555 1_555
O6 N1 1_555 1_555
N1 C4 1_555 1_555
C1 C2 1_555 1_555
C2 C3 1_555 1_555
C3 H3 1_555 1_555
C4 C3 1_555 1_555
C5 C4 1_555 1_555
H4 C5 1_555 1_555
C6 C1 1_555 1_555
C7 O1 1_555 1_555
C8 O3 1_555 1_555
O7 C15 1_555 1_555
O8 C15 1_555 1_555
O9 C16 1_555 1_555
O10 C16 1_555 1_555
O11 N2 1_555 1_555
O12 N2 1_555 1_555
N2 C12 1_555 1_555
C9 C1 1_555 1_555
C10 C9 1_555 1_555
C11 C10 1_555 1_555
H5 C11 1_555 1_555
C12 C11 1_555 1_555
C13 C12 1_555 1_555
H6 C13 1_555 1_555
C14 C9 1_555 1_555
C15 C10 1_555 1_555
C16 C14 1_555 1_555
N3 H7 1_555 1_555
C17 H8 1_555 1_555
C18 N3 1_555 1_555
C19 C17 1_555 1_555
C20 C19 1_555 1_555
H9 C20 1_555 1_555
C21 C20 1_555 1_555
H10 C21 1_555 1_555
C22 C21 1_555 1_555
H11 C22 1_555 1_555
C23 C18 1_555 1_555
H12 C23 1_555 1_555
C24 N3 1_555 1_555
C25 C17 1_555 1_555
C26 C25 1_555 1_555
H13 C26 1_555 1_555
C27 C26 1_555 1_555
H14 C27 1_555 1_555
C28 C27 1_555 1_555
H15 C28 1_555 1_555
C29 C24 1_555 1_555
H16 C29 1_555 1_555
N4 H17 1_555 1_555
C30 H18 1_555 1_555
C31 N4 1_555 1_555
C32 C30 1_555 1_555
C33 C32 1_555 1_555
H19 C33 1_555 1_555
C34 C33 1_555 1_555
H20 C34 1_555 1_555
C35 C34 1_555 1_555
H21 C35 1_555 1_555
C36 C31 1_555 1_555
H22 C36 1_555 1_555
C37 N4 1_555 1_555
C38 C30 1_555 1_555
C39 C38 1_555 1_555
H23 C39 1_555 1_555
C40 C39 1_555 1_555
H24 C40 1_555 1_555
C41 C40 1_555 1_555
H25 C41 1_555 1_555
C42 C37 1_555 1_555
H26 C42 1_555 1_555
C43 H27 1_555 1_555
C44 H28 1_555 1_555
C45 C44 1_555 1_555
C46 C43 1_555 1_555
C47 C46 1_555 1_555
H29 C47 1_555 1_555
C48 C47 1_555 1_555
H30 C48 1_555 1_555
C49 C48 1_555 1_555
H31 C49 1_555 1_555
C50 C45 1_555 1_555
H32 C50 1_555 1_555
C51 C44 1_555 1_555
C52 C43 1_555 1_555
C53 C52 1_555 1_555
H33 C53 1_555 1_555
C54 C53 1_555 1_555
H34 C54 1_555 1_555
C55 C54 1_555 1_555
H35 C55 1_555 1_555
C56 C51 1_555 1_555
H36 C56 1_555 1_555
C2 C7 1_555 1_555
C5 C6 1_555 1_555
C6 C8 1_555 1_555
C13 C14 1_555 1_555
C18 C19 1_555 1_555
C22 C23 1_555 1_555
C24 C25 1_555 1_555
C28 C29 1_555 1_555
C31 C32 1_555 1_555
C35 C36 1_555 1_555
C37 C38 1_555 1_555
C41 C42 1_555 1_555
C45 C46 1_555 1_555
C49 C50 1_555 1_555
C51 C52 1_555 1_555
C55 C56 1_555 1_555

#END
