
#######################################################################
#
#                 Cambridge Crystallographic Data Centre
#                                CCDC 
#
#######################################################################
#
# If this CIF has been generated from an entry in the Cambridge 
# Structural Database, then it will include bibliographic, chemical, 
# crystal, experimental, refinement or atomic coordinate data resulting 
# from the CCDC's data processing and validation procedures.
#
#######################################################################

data_WEVXIH
_chemical_formula_moiety         
'C16 H6 N2 O12 2-,2(C15 H10 O1),2(C13 H10 N1 1+)'
_chemical_name_systematic        
"bis(acridin-10-ium) bis(anthracene-9-carbaldehyde) 2',6'-dicarboxy-4,4'-dinitro[1,1'-biphenyl]-2,6-dicarboxylate"
_symmetry_cell_setting           monoclinic
_symmetry_space_group_name_H-M   'P 21/c'
_symmetry_Int_Tables_number      14
_space_group_name_Hall           '-P 2ybc'
loop_
_symmetry_equiv_pos_site_id
_symmetry_equiv_pos_as_xyz
1 x,y,z
2 -x,1/2+y,1/2-z
3 -x,-y,-z
4 x,1/2-y,1/2+z
_cell_length_a                   13.5608(9)
_cell_length_b                   19.4036(13)
_cell_length_c                   21.2232(14)
_cell_angle_alpha                90
_cell_angle_beta                 101.677(2)
_cell_angle_gamma                90
_cell_volume                     5468.85
_exptl_crystal_colour            orange
_exptl_crystal_description       Needle
_cell_formula_units_Z            4
loop_
_atom_site_label
_atom_site_type_symbol
_atom_site_fract_x
_atom_site_fract_y
_atom_site_fract_z
O1 O 0.42451(10) 0.55336(7) 0.00861(7)
O2 O 0.51529(10) 0.58923(8) 0.10331(7)
H1 H 0.5487 0.6087 0.0805
O3 O 0.07835(10) 0.43898(8) 0.03505(7)
H2 H 0.0288 0.4144 0.0235
O4 O 0.09270(11) 0.37997(8) 0.12673(7)
O5 O 0.32398(11) 0.45927(8) 0.31233(7)
O6 O 0.45098(11) 0.52414(7) 0.30484(7)
N1 N 0.37550(12) 0.49098(8) 0.28068(8)
C1 C 0.28192(14) 0.48983(9) 0.07741(9)
C2 C 0.37445(14) 0.52001(10) 0.10653(9)
C3 C 0.40569(14) 0.51996(10) 0.17320(10)
H3 H 0.4662 0.5406 0.1925
C4 C 0.34569(14) 0.48881(10) 0.21039(10)
C5 C 0.25562(14) 0.45739(10) 0.18325(10)
H4 H 0.2172 0.4359 0.2092
C6 C 0.22301(14) 0.45815(10) 0.11687(10)
C7 C 0.44018(14) 0.55566(10) 0.06675(10)
C8 C 0.12426(14) 0.42107(10) 0.09268(10)
O7 O 0.23620(10) 0.63386(7) 0.05982(7)
O8 O 0.07593(10) 0.63147(7) 0.00974(7)
O9 O 0.37262(10) 0.34313(7) -0.04195(7)
O10 O 0.30145(11) 0.35019(7) 0.04391(7)
O11 O 0.06569(11) 0.54519(7) -0.21493(7)
O12 O 0.14672(11) 0.45205(7) -0.22831(7)
N2 N 0.12442(12) 0.49812(9) -0.19415(8)
C9 C 0.24578(13) 0.49294(10) 0.00559(9)
C10 C 0.18738(14) 0.54901(10) -0.02144(9)
C11 C 0.14614(14) 0.55058(10) -0.08709(10)
H5 H 0.1042 0.5865 -0.1049
C12 C 0.16904(14) 0.49742(10) -0.12524(9)
C13 C 0.23006(14) 0.44265(10) -0.10026(10)
H6 H 0.2472 0.4089 -0.1273
C14 C 0.26536(14) 0.43886(10) -0.03408(9)
C15 C 0.16454(15) 0.60896(10) 0.01910(10)
C16 C 0.31900(14) 0.37279(10) -0.00812(10)
N3 N 0.18098(12) 0.72429(9) 0.13764(8)
C17 C 0.16126(14) 0.81928(10) 0.23044(10)
H7 H 0.1552 0.8515 0.2619
C18 C 0.17207(14) 0.70122(10) 0.19644(10)
C19 C 0.16141(14) 0.74941(11) 0.24524(10)
C20 C 0.15104(14) 0.72302(11) 0.30660(10)
H8 H 0.1440 0.7533 0.3394
C21 C 0.15148(15) 0.65404(12) 0.31718(11)
H9 H 0.1446 0.6375 0.3572
C22 C 0.16230(16) 0.60720(12) 0.26837(12)
H10 H 0.1626 0.5602 0.2768
C23 C 0.17243(15) 0.62940(11) 0.20890(11)
H11 H 0.1795 0.5979 0.1771
C24 C 0.17874(13) 0.79203(10) 0.12214(10)
C25 C 0.16990(14) 0.84214(10) 0.16965(10)
C26 C 0.17103(14) 0.91335(10) 0.15226(10)
H12 H 0.1666 0.9472 0.1826
C27 C 0.17858(15) 0.93177(11) 0.09167(11)
H13 H 0.1803 0.9782 0.0811
C28 C 0.18388(15) 0.88109(11) 0.04442(11)
H14 H 0.1873 0.8948 0.0029
C29 C 0.18403(14) 0.81270(11) 0.05863(10)
H15 H 0.1876 0.7799 0.0272
H16 H 0.1955(19) 0.6917(14) 0.1032(13)
N4 N 0.33506(12) 0.22375(9) 0.08805(8)
C30 C 0.34500(14) 0.09434(11) 0.14227(10)
H17 H 0.3473 0.0506 0.1604
C31 C 0.34264(14) 0.16855(10) 0.05025(10)
C32 C 0.34897(14) 0.10110(10) 0.07759(10)
C33 C 0.35896(15) 0.04427(11) 0.03662(11)
H18 H 0.3647 -0.0002 0.0534
C34 C 0.36019(16) 0.05434(11) -0.02662(11)
H19 H 0.3661 0.0168 -0.0529
C35 C 0.35248(15) 0.12198(11) -0.05265(11)
H20 H 0.3528 0.1280 -0.0961
C36 C 0.34459(15) 0.17833(11) -0.01552(10)
H21 H 0.3406 0.2224 -0.0331
C37 C 0.33306(14) 0.21822(10) 0.15156(10)
C38 C 0.33763(14) 0.15146(10) 0.18049(10)
C39 C 0.33587(14) 0.14724(11) 0.24747(10)
H22 H 0.3383 0.1044 0.2674
C40 C 0.33074(14) 0.20527(11) 0.28200(10)
H23 H 0.3301 0.2020 0.3256
C41 C 0.32632(14) 0.27115(11) 0.25234(10)
H24 H 0.3228 0.3104 0.2769
C42 C 0.32715(14) 0.27797(11) 0.18851(10)
H25 H 0.3239 0.3214 0.1696
H26 H 0.3304(19) 0.2709(14) 0.0717(12)
O13 O 0.12483(12) 0.49933(8) 0.40249(8)
C43 C 0.08942(14) 0.37696(10) 0.39504(10)
C44 C 0.07991(14) 0.23986(10) 0.43740(10)
H27 H 0.0791 0.1946 0.4516
C45 C 0.09804(17) 0.44809(11) 0.37126(12)
H28 H 0.0807 0.4540 0.3269
C46 C 0.08165(14) 0.36396(10) 0.45963(10)
C47 C 0.07764(14) 0.29331(10) 0.48077(10)
C48 C 0.06749(15) 0.27897(11) 0.54520(10)
H29 H 0.0661 0.2335 0.5589
C49 C 0.05994(16) 0.33111(11) 0.58637(11)
H30 H 0.0533 0.3213 0.6282
C50 C 0.06204(16) 0.40067(12) 0.56597(11)
H31 H 0.0554 0.4361 0.5944
C51 C 0.07366(15) 0.41618(11) 0.50529(10)
H32 H 0.0764 0.4622 0.4934
C52 C 0.08810(14) 0.32173(10) 0.35082(10)
C53 C 0.08335(14) 0.25234(10) 0.37305(10)
C54 C 0.08093(14) 0.19623(11) 0.32937(10)
H33 H 0.0772 0.1514 0.3441
C55 C 0.08402(14) 0.20715(11) 0.26686(10)
H34 H 0.0833 0.1700 0.2391
C56 C 0.08836(14) 0.27552(11) 0.24382(10)
H35 H 0.0899 0.2830 0.2008
C57 C 0.09024(14) 0.33032(11) 0.28414(10)
H36 H 0.0930 0.3746 0.2679
O14 O 0.34973(12) 0.96547(8) 0.29030(8)
C58 C 0.39476(14) 0.84644(11) 0.31086(10)
C59 C 0.41457(14) 0.70660(11) 0.28067(10)
H37 H 0.4198 0.6604 0.2703
C60 C 0.38172(16) 0.91964(12) 0.32792(12)
H38 H 0.3996 0.9314 0.3712
C61 C 0.38866(14) 0.79484(11) 0.35761(10)
C62 C 0.40081(14) 0.72368(11) 0.34237(10)
C63 C 0.39593(15) 0.67189(11) 0.38917(11)
H39 H 0.4056 0.6259 0.3797
C64 C 0.37706(16) 0.68939(13) 0.44793(11)
H40 H 0.3742 0.6553 0.4783
C65 C 0.36196(16) 0.75874(13) 0.46264(11)
H41 H 0.3480 0.7699 0.5025
C66 C 0.36745(15) 0.80981(12) 0.41959(11)
H42 H 0.3572 0.8553 0.4306
C67 C 0.41279(14) 0.82784(11) 0.24938(10)
C68 C 0.42072(14) 0.75608(11) 0.23424(10)
C69 C 0.43820(14) 0.73680(12) 0.17246(10)
H43 H 0.4398 0.6904 0.1619
C70 C 0.45250(15) 0.78535(12) 0.12882(11)
H44 H 0.4658 0.7722 0.0892
C71 C 0.44701(15) 0.85593(12) 0.14424(11)
H45 H 0.4578 0.8889 0.1146
C72 C 0.42643(15) 0.87680(11) 0.20134(11)
H46 H 0.4211 0.9236 0.2094
loop_
_geom_bond_atom_site_label_1
_geom_bond_atom_site_label_2
_geom_bond_site_symmetry_1
_geom_bond_site_symmetry_2
O1 C7 1_555 1_555
O2 H1 1_555 1_555
O3 H2 1_555 1_555
O4 C8 1_555 1_555
O5 N1 1_555 1_555
O6 N1 1_555 1_555
N1 C4 1_555 1_555
C1 C2 1_555 1_555
C2 C3 1_555 1_555
C3 H3 1_555 1_555
C4 C3 1_555 1_555
C5 C4 1_555 1_555
H4 C5 1_555 1_555
C6 C1 1_555 1_555
C7 O2 1_555 1_555
C8 O3 1_555 1_555
O7 C15 1_555 1_555
O8 C15 1_555 1_555
O9 C16 1_555 1_555
O10 C16 1_555 1_555
O11 N2 1_555 1_555
O12 N2 1_555 1_555
N2 C12 1_555 1_555
C9 C1 1_555 1_555
C10 C9 1_555 1_555
C11 C10 1_555 1_555
H5 C11 1_555 1_555
C12 C11 1_555 1_555
C13 C12 1_555 1_555
H6 C13 1_555 1_555
C14 C9 1_555 1_555
C15 C10 1_555 1_555
C16 C14 1_555 1_555
N3 C18 1_555 1_555
C17 H7 1_555 1_555
C18 C19 1_555 1_555
C19 C17 1_555 1_555
C20 C19 1_555 1_555
H8 C20 1_555 1_555
C21 C20 1_555 1_555
H9 C21 1_555 1_555
C22 C21 1_555 1_555
H10 C22 1_555 1_555
C23 C18 1_555 1_555
H11 C23 1_555 1_555
C24 N3 1_555 1_555
C25 C17 1_555 1_555
C26 C25 1_555 1_555
H12 C26 1_555 1_555
C27 C26 1_555 1_555
H13 C27 1_555 1_555
C28 C27 1_555 1_555
H14 C28 1_555 1_555
C29 C24 1_555 1_555
H15 C29 1_555 1_555
H16 N3 1_555 1_555
N4 C31 1_555 1_555
C30 H17 1_555 1_555
C31 C32 1_555 1_555
C32 C30 1_555 1_555
C33 C32 1_555 1_555
H18 C33 1_555 1_555
C34 C33 1_555 1_555
H19 C34 1_555 1_555
C35 C34 1_555 1_555
H20 C35 1_555 1_555
C36 C31 1_555 1_555
H21 C36 1_555 1_555
C37 N4 1_555 1_555
C38 C30 1_555 1_555
C39 C38 1_555 1_555
H22 C39 1_555 1_555
C40 C39 1_555 1_555
H23 C40 1_555 1_555
C41 C40 1_555 1_555
H24 C41 1_555 1_555
C42 C37 1_555 1_555
H25 C42 1_555 1_555
H26 N4 1_555 1_555
O13 C45 1_555 1_555
C43 C45 1_555 1_555
C44 H27 1_555 1_555
C45 H28 1_555 1_555
C46 C43 1_555 1_555
C47 C44 1_555 1_555
C48 C47 1_555 1_555
H29 C48 1_555 1_555
C49 C48 1_555 1_555
H30 C49 1_555 1_555
C50 C49 1_555 1_555
H31 C50 1_555 1_555
C51 C46 1_555 1_555
H32 C51 1_555 1_555
C52 C43 1_555 1_555
C53 C44 1_555 1_555
C54 C53 1_555 1_555
H33 C54 1_555 1_555
C55 C54 1_555 1_555
H34 C55 1_555 1_555
C56 C55 1_555 1_555
H35 C56 1_555 1_555
C57 C52 1_555 1_555
H36 C57 1_555 1_555
O14 C60 1_555 1_555
C58 C60 1_555 1_555
C59 H37 1_555 1_555
C60 H38 1_555 1_555
C61 C58 1_555 1_555
C62 C59 1_555 1_555
C63 C62 1_555 1_555
H39 C63 1_555 1_555
C64 C63 1_555 1_555
H40 C64 1_555 1_555
C65 C64 1_555 1_555
H41 C65 1_555 1_555
C66 C61 1_555 1_555
H42 C66 1_555 1_555
C67 C58 1_555 1_555
C68 C59 1_555 1_555
C69 C68 1_555 1_555
H43 C69 1_555 1_555
C70 C69 1_555 1_555
H44 C70 1_555 1_555
C71 C70 1_555 1_555
H45 C71 1_555 1_555
C72 C67 1_555 1_555
H46 C72 1_555 1_555
C2 C7 1_555 1_555
C5 C6 1_555 1_555
C6 C8 1_555 1_555
C13 C14 1_555 1_555
C22 C23 1_555 1_555
C24 C25 1_555 1_555
C28 C29 1_555 1_555
C35 C36 1_555 1_555
C37 C38 1_555 1_555
C41 C42 1_555 1_555
C46 C47 1_555 1_555
C50 C51 1_555 1_555
C52 C53 1_555 1_555
C56 C57 1_555 1_555
C61 C62 1_555 1_555
C65 C66 1_555 1_555
C67 C68 1_555 1_555
C71 C72 1_555 1_555

#END
