
#######################################################################
#
#                 Cambridge Crystallographic Data Centre
#                                CCDC 
#
#######################################################################
#
# If this CIF has been generated from an entry in the Cambridge 
# Structural Database, then it will include bibliographic, chemical, 
# crystal, experimental, refinement or atomic coordinate data resulting 
# from the CCDC's data processing and validation procedures.
#
#######################################################################

data_WEVXOL
_chemical_formula_moiety         'C15 H15 N3 O3,C1 H1 Cl3'
_chemical_name_systematic        
'2,3-Dimethoxybenzaldehyde isonicotinoylhydrazone chloroform solvate'
_symmetry_cell_setting           monoclinic
_symmetry_space_group_name_H-M   'P 21/n'
_symmetry_Int_Tables_number      14
_space_group_name_Hall           '-P 2yn'
loop_
_symmetry_equiv_pos_site_id
_symmetry_equiv_pos_as_xyz
1 x,y,z
2 1/2-x,1/2+y,1/2-z
3 -x,-y,-z
4 1/2+x,1/2-y,1/2+z
_cell_length_a                   12.7400(4)
_cell_length_b                   10.8595(3)
_cell_length_c                   13.9187(4)
_cell_angle_alpha                90
_cell_angle_beta                 110.7280(10)
_cell_angle_gamma                90
_cell_volume                     1801.01
_exptl_crystal_colour            colorless
_exptl_crystal_description       plate
_chemical_melting_point          '413-414 K'
_cell_formula_units_Z            4
loop_
_atom_site_label
_atom_site_type_symbol
_atom_site_fract_x
_atom_site_fract_y
_atom_site_fract_z
N1 N 0.22757(13) 0.98240(14) 0.77907(12)
C1 C 0.28780(15) 0.88659(17) 0.76639(14)
C2 C 0.24866(15) 0.80306(16) 0.68662(14)
C3 C 0.14125(15) 0.81829(16) 0.61437(13)
C4 C 0.07851(15) 0.91794(16) 0.62648(14)
C5 C 0.12398(15) 0.99619(17) 0.70910(14)
C6 C 0.09228(15) 0.73817(17) 0.52085(13)
O1 O 0.02107(11) 0.77780(12) 0.44265(10)
N2 N 0.13378(13) 0.62205(14) 0.53120(11)
N3 N 0.09778(13) 0.54331(14) 0.44744(11)
C7 C 0.14763(15) 0.43921(16) 0.46255(14)
C8 C 0.12237(15) 0.34655(16) 0.38124(13)
C9 C 0.18842(14) 0.24095(17) 0.39888(13)
O2 O 0.27244(10) 0.22225(11) 0.49363(9)
C10 C 0.23499(16) 0.14032(18) 0.55703(14)
C11 C 0.17311(15) 0.15285(16) 0.32166(14)
O3 O 0.24417(11) 0.05456(12) 0.34760(10)
C12 C 0.22892(19) -0.0361(2) 0.26949(18)
C13 C 0.08938(16) 0.17058(17) 0.22664(14)
C14 C 0.02193(16) 0.27503(18) 0.20963(14)
C15 C 0.03706(15) 0.36202(17) 0.28503(14)
H1 H 0.3615 0.8755 0.8149
H2 H 0.2944 0.7363 0.6812
H3 H 0.0051 0.9321 0.5784
H4 H 0.0797 1.0632 0.7168
H5 H 0.1828 0.5970 0.5901
H6 H 0.2023 0.4216 0.5280
H7 H 0.1681 0.1749 0.5662
H8 H 0.2947 0.1309 0.6242
H9 H 0.2168 0.0597 0.5236
H10 H 0.1522 -0.0684 0.2478
H11 H 0.2824 -0.1035 0.2966
H12 H 0.2416 0.0013 0.2105
H13 H 0.0782 0.1117 0.1734
H14 H -0.0357 0.2864 0.1446
H15 H -0.0101 0.4325 0.2721
C16 C 0.48909(17) 0.20831(19) 0.40932(15)
Cl1 Cl 0.45379(4) 0.19099(5) 0.27618(4)
Cl2 Cl 0.59683(5) 0.10637(5) 0.47660(4)
Cl3 Cl 0.53302(6) 0.36172(5) 0.44572(4)
H16 H 0.4214 0.1904 0.4275
loop_
_geom_bond_atom_site_label_1
_geom_bond_atom_site_label_2
_geom_bond_site_symmetry_1
_geom_bond_site_symmetry_2
N1 C1 1_555 1_555
C1 C2 1_555 1_555
C2 C3 1_555 1_555
C3 C4 1_555 1_555
C4 C5 1_555 1_555
C5 N1 1_555 1_555
C6 C3 1_555 1_555
O1 C6 1_555 1_555
N2 C6 1_555 1_555
N3 N2 1_555 1_555
C7 N3 1_555 1_555
C8 C7 1_555 1_555
C9 C8 1_555 1_555
O2 C9 1_555 1_555
C10 O2 1_555 1_555
C11 C9 1_555 1_555
O3 C11 1_555 1_555
C12 O3 1_555 1_555
C13 C11 1_555 1_555
C14 C13 1_555 1_555
C15 C8 1_555 1_555
C16 Cl1 1_555 1_555
Cl2 C16 1_555 1_555
Cl3 C16 1_555 1_555
H1 C1 1_555 1_555
H2 C2 1_555 1_555
H3 C4 1_555 1_555
H4 C5 1_555 1_555
H5 N2 1_555 1_555
H6 C7 1_555 1_555
H7 C10 1_555 1_555
H8 C10 1_555 1_555
H9 C10 1_555 1_555
H10 C12 1_555 1_555
H11 C12 1_555 1_555
H12 C12 1_555 1_555
H13 C13 1_555 1_555
H14 C14 1_555 1_555
H15 C15 1_555 1_555
H16 C16 1_555 1_555
C14 C15 1_555 1_555

#END
