
#######################################################################
#
#                 Cambridge Crystallographic Data Centre
#                                CCDC 
#
#######################################################################
#
# If this CIF has been generated from an entry in the Cambridge 
# Structural Database, then it will include bibliographic, chemical, 
# crystal, experimental, refinement or atomic coordinate data resulting 
# from the CCDC's data processing and validation procedures.
#
#######################################################################

data_WEVZED
_chemical_formula_moiety         'C17 H27 N3 O1'
_chemical_name_systematic        
1-((1R,2R)-2-(dimethylamino)cyclohexyl)-3-((S)-1-phenylethyl)urea
_symmetry_cell_setting           orthorhombic
_symmetry_space_group_name_H-M   'P 21 21 21'
_symmetry_Int_Tables_number      19
_space_group_name_Hall           'P 2ac 2ab'
loop_
_symmetry_equiv_pos_site_id
_symmetry_equiv_pos_as_xyz
1 x,y,z
2 1/2-x,-y,1/2+z
3 1/2+x,1/2-y,-z
4 -x,1/2+y,1/2-z
_cell_length_a                   9.1661(4)
_cell_length_b                   11.3191(6)
_cell_length_c                   15.5757(8)
_cell_angle_alpha                90
_cell_angle_beta                 90
_cell_angle_gamma                90
_cell_volume                     1616.01
_exptl_crystal_colour            colorless
_exptl_crystal_description       prism
_cell_formula_units_Z            4
loop_
_atom_site_label
_atom_site_type_symbol
_atom_site_fract_x
_atom_site_fract_y
_atom_site_fract_z
O1 O 0.20537(12) 0.27340(11) 0.02288(9)
N1 N 0.47777(16) -0.06805(14) 0.05998(10)
N2 N 0.41723(17) 0.17663(14) 0.05144(10)
H1 H 0.508(2) 0.1724(17) 0.0408(13)
N3 N 0.41206(17) 0.32491(14) -0.04976(10)
H2 H 0.502(2) 0.3177(17) -0.0487(13)
C1 C 0.43950(19) -0.00419(17) 0.13915(11)
H3 H 0.5380(18) 0.0200(16) 0.1645(10)
C2 C 0.35338(19) 0.10875(15) 0.12111(11)
H4 H 0.2544(18) 0.0863(14) 0.1036(10)
C3 C 0.3427(2) 0.18141(17) 0.20390(12)
H5 H 0.446(2) 0.2012(18) 0.2231(12)
H6 H 0.296(2) 0.2589(18) 0.1896(14)
C4 C 0.2640(2) 0.1128(2) 0.27398(14)
H7 H 0.1596(19) 0.1005(15) 0.2582(10)
H8 H 0.256(2) 0.1608(18) 0.3264(13)
C5 C 0.3390(2) -0.0052(2) 0.29090(13)
H9 H 0.288(2) -0.0503(18) 0.3307(13)
H10 H 0.439(2) 0.0062(19) 0.3174(12)
C6 C 0.3559(2) -0.07562(17) 0.20760(12)
H11 H 0.257(2) -0.0999(16) 0.1881(12)
H12 H 0.4013(19) -0.1544(19) 0.2194(13)
C7 C 0.5680(2) -0.17108(18) 0.07714(15)
H13 H 0.5097(19) -0.2414(17) 0.1034(11)
H14 H 0.609(2) -0.1952(19) 0.0224(14)
H15 H 0.650(2) -0.1491(16) 0.1183(12)
C8 C 0.3537(2) -0.10029(19) 0.00671(13)
H16 H 0.284(2) -0.161(2) 0.0374(14)
H17 H 0.302(2) -0.0244(18) -0.0107(12)
H18 H 0.391(2) -0.138(2) -0.0451(14)
C9 C 0.33821(19) 0.25958(15) 0.00949(11)
C10 C 0.3579(2) 0.44186(16) -0.07457(11)
H19 H 0.252(2) 0.4403(16) -0.0635(11)
C11 C 0.4282(2) 0.53697(19) -0.01956(14)
H20 H 0.537(2) 0.5378(18) -0.0309(13)
H21 H 0.4120(19) 0.5190(18) 0.0417(13)
H22 H 0.386(2) 0.615(2) -0.0332(13)
C12 C 0.37264(19) 0.45969(16) -0.17109(12)
C13 C 0.3264(2) 0.37071(18) -0.22670(13)
H23 H 0.297(2) 0.2984(18) -0.2018(13)
C14 C 0.3321(2) 0.38527(19) -0.31480(13)
H24 H 0.299(2) 0.3192(18) -0.3515(13)
C15 C 0.3851(2) 0.4892(2) -0.35014(14)
H25 H 0.390(2) 0.4940(19) -0.4099(13)
C16 C 0.4324(2) 0.57787(19) -0.29626(13)
H26 H 0.472(2) 0.649(2) -0.3203(14)
C17 C 0.4262(2) 0.56372(18) -0.20728(13)
H27 H 0.457(2) 0.6277(19) -0.1716(12)
loop_
_geom_bond_atom_site_label_1
_geom_bond_atom_site_label_2
_geom_bond_site_symmetry_1
_geom_bond_site_symmetry_2
O1 C9 1_555 1_555
N1 C1 1_555 1_555
N2 H1 1_555 1_555
N3 H2 1_555 1_555
C1 H3 1_555 1_555
C2 N2 1_555 1_555
H4 C2 1_555 1_555
C3 C2 1_555 1_555
H5 C3 1_555 1_555
H6 C3 1_555 1_555
C4 C3 1_555 1_555
H7 C4 1_555 1_555
H8 C4 1_555 1_555
C5 C4 1_555 1_555
H9 C5 1_555 1_555
H10 C5 1_555 1_555
C6 C1 1_555 1_555
H11 C6 1_555 1_555
H12 C6 1_555 1_555
C7 N1 1_555 1_555
H13 C7 1_555 1_555
H14 C7 1_555 1_555
H15 C7 1_555 1_555
C8 N1 1_555 1_555
H16 C8 1_555 1_555
H17 C8 1_555 1_555
H18 C8 1_555 1_555
C9 N2 1_555 1_555
C10 N3 1_555 1_555
H19 C10 1_555 1_555
C11 C10 1_555 1_555
H20 C11 1_555 1_555
H21 C11 1_555 1_555
H22 C11 1_555 1_555
C12 C10 1_555 1_555
C13 C12 1_555 1_555
H23 C13 1_555 1_555
C14 C13 1_555 1_555
H24 C14 1_555 1_555
C15 C14 1_555 1_555
H25 C15 1_555 1_555
C16 C15 1_555 1_555
H26 C16 1_555 1_555
C17 C12 1_555 1_555
H27 C17 1_555 1_555
N3 C9 1_555 1_555
C1 C2 1_555 1_555
C5 C6 1_555 1_555
C16 C17 1_555 1_555

#END
