
#######################################################################
#
#                 Cambridge Crystallographic Data Centre
#                                CCDC 
#
#######################################################################
#
# If this CIF has been generated from an entry in the Cambridge 
# Structural Database, then it will include bibliographic, chemical, 
# crystal, experimental, refinement or atomic coordinate data resulting 
# from the CCDC's data processing and validation procedures.
#
#######################################################################

data_WEWCAF
_chemical_formula_moiety         'C30 H24 N2 O2 S2'
_chemical_name_systematic        
3,3'-bis(2-methoxyphenyl)-2H,2'H-2,2'-bi-1,4-benzothiazine
_symmetry_cell_setting           monoclinic
_symmetry_space_group_name_H-M   'P 21/n'
_symmetry_Int_Tables_number      14
_space_group_name_Hall           '-P 2yn'
loop_
_symmetry_equiv_pos_site_id
_symmetry_equiv_pos_as_xyz
1 x,y,z
2 1/2-x,1/2+y,1/2-z
3 -x,-y,-z
4 1/2+x,1/2-y,1/2+z
_cell_length_a                   10.5973(11)
_cell_length_b                   9.6385(9)
_cell_length_c                   12.6069(12)
_cell_angle_alpha                90
_cell_angle_beta                 102.555(2)
_cell_angle_gamma                90
_cell_volume                     1256.9
_exptl_crystal_colour            yellow
_exptl_crystal_description       block
_cell_formula_units_Z            2
loop_
_atom_site_label
_atom_site_type_symbol
_atom_site_fract_x
_atom_site_fract_y
_atom_site_fract_z
S1 S -0.07961(5) 0.19740(6) 0.92414(4)
C1 C 0.14739(18) 0.0623(2) 0.94651(15)
N1 N 0.21215(16) 0.16059(19) 1.00239(13)
O1 O 0.04385(15) -0.05445(17) 0.73765(11)
C2 C 0.2380(3) -0.1898(3) 0.7429(2)
H1 H 0.2031 -0.2297 0.6758
C3 C 0.0192(2) 0.2854(2) 1.03263(16)
C4 C 0.2183(2) -0.0350(2) 0.88924(16)
C5 C 0.00673(18) 0.0347(2) 0.94685(15)
H2 H -0.0287 -0.0280 0.8865
C6 C 0.1513(2) 0.2547(2) 1.06000(16)
C7 C 0.1657(2) -0.0958(2) 0.78822(17)
C8 C 0.3435(2) -0.0717(2) 0.94051(18)
H3 H 0.3804 -0.0312 1.0070
C9 C -0.0314(2) 0.3856(2) 1.09057(19)
H4 H -0.1193 0.4057 1.0722
C10 C 0.2289(2) 0.3273(3) 1.14528(18)
H5 H 0.3170 0.3086 1.1643
C11 C 0.4145(2) -0.1662(3) 0.8958(2)
H6 H 0.4976 -0.1906 0.9321
C12 C 0.0469(3) 0.4552(3) 1.1746(2)
H7 H 0.0121 0.5220 1.2132
C13 C 0.3608(3) -0.2238(3) 0.7969(2)
H8 H 0.4084 -0.2870 0.7659
C14 C 0.1769(3) 0.4260(3) 1.2017(2)
H9 H 0.2301 0.4735 1.2585
C15 C -0.0161(3) -0.1216(4) 0.6389(2)
H10 H 0.0316 -0.1016 0.5841
H11 H -0.1032 -0.0884 0.6155
H12 H -0.0172 -0.2200 0.6505
S1B S 0.07961(5) -0.19740(6) 1.07586(4)
C1B C -0.14739(18) -0.0623(2) 1.05349(15)
N1B N -0.21215(16) -0.16059(19) 0.99761(13)
O1B O -0.04385(15) 0.05445(17) 1.26235(11)
C2B C -0.2380(3) 0.1898(3) 1.2571(2)
H1B H -0.2031 0.2297 1.3242
C3B C -0.0192(2) -0.2854(2) 0.96737(16)
C4B C -0.2183(2) 0.0350(2) 1.11076(16)
C5B C -0.00673(18) -0.0347(2) 1.05315(15)
H2B H 0.0287 0.0280 1.1135
C6B C -0.1513(2) -0.2547(2) 0.94000(16)
C7B C -0.1657(2) 0.0958(2) 1.21178(17)
C8B C -0.3435(2) 0.0717(2) 1.05949(18)
H3B H -0.3804 0.0312 0.9930
C9B C 0.0314(2) -0.3856(2) 0.90943(19)
H4B H 0.1193 -0.4057 0.9278
C10B C -0.2289(2) -0.3273(3) 0.85472(18)
H5B H -0.3170 -0.3086 0.8357
C11B C -0.4145(2) 0.1662(3) 1.1042(2)
H6B H -0.4976 0.1906 1.0679
C12B C -0.0469(3) -0.4552(3) 0.8254(2)
H7B H -0.0121 -0.5220 0.7868
C13B C -0.3608(3) 0.2238(3) 1.2031(2)
H8B H -0.4084 0.2870 1.2341
C14B C -0.1769(3) -0.4260(3) 0.7983(2)
H9B H -0.2301 -0.4735 0.7415
C15B C 0.0161(3) 0.1216(4) 1.3611(2)
H10B H -0.0316 0.1016 1.4159
H11B H 0.1032 0.0884 1.3845
H12B H 0.0172 0.2200 1.3495
loop_
_geom_bond_atom_site_label_1
_geom_bond_atom_site_label_2
_geom_bond_site_symmetry_1
_geom_bond_site_symmetry_2
S1 C3 1_555 1_555
C1 N1 1_555 1_555
N1 C6 1_555 1_555
O1 C7 1_555 1_555
C2 H1 1_555 1_555
C3 C6 1_555 1_555
C4 C1 1_555 1_555
C5 S1 1_555 1_555
H2 C5 1_555 1_555
C6 C10 1_555 1_555
C7 C2 1_555 1_555
C8 C4 1_555 1_555
H3 C8 1_555 1_555
C9 C3 1_555 1_555
H4 C9 1_555 1_555
C10 H5 1_555 1_555
C11 C8 1_555 1_555
H6 C11 1_555 1_555
C12 C9 1_555 1_555
H7 C12 1_555 1_555
C13 C2 1_555 1_555
H8 C13 1_555 1_555
C14 C10 1_555 1_555
H9 C14 1_555 1_555
C15 O1 1_555 1_555
H10 C15 1_555 1_555
H11 C15 1_555 1_555
H12 C15 1_555 1_555
S1B C3B 1_555 1_555
C1B N1B 1_555 1_555
N1B C6B 1_555 1_555
O1B C7B 1_555 1_555
C2B H1B 1_555 1_555
C3B C6B 1_555 1_555
C4B C1B 1_555 1_555
C5B C5 1_555 1_555
H2B C5B 1_555 1_555
C6B C10B 1_555 1_555
C7B C2B 1_555 1_555
C8B C4B 1_555 1_555
H3B C8B 1_555 1_555
C9B C3B 1_555 1_555
H4B C9B 1_555 1_555
C10B H5B 1_555 1_555
C11B C8B 1_555 1_555
H6B C11B 1_555 1_555
C12B C9B 1_555 1_555
H7B C12B 1_555 1_555
C13B C2B 1_555 1_555
H8B C13B 1_555 1_555
C14B C10B 1_555 1_555
H9B C14B 1_555 1_555
C15B O1B 1_555 1_555
H10B C15B 1_555 1_555
H11B C15B 1_555 1_555
H12B C15B 1_555 1_555
C1 C5 1_555 1_555
C4 C7 1_555 1_555
C11 C13 1_555 1_555
C12 C14 1_555 1_555
S1B C5B 1_555 1_555
C1B C5B 1_555 1_555
C4B C7B 1_555 1_555
C11B C13B 1_555 1_555
C12B C14B 1_555 1_555

#END
