
#######################################################################
#
#                 Cambridge Crystallographic Data Centre
#                                CCDC 
#
#######################################################################
#
# If this CIF has been generated from an entry in the Cambridge 
# Structural Database, then it will include bibliographic, chemical, 
# crystal, experimental, refinement or atomic coordinate data resulting 
# from the CCDC's data processing and validation procedures.
#
#######################################################################

data_WEWCIN
_chemical_formula_moiety         'C24 H16 N2 S4'
_chemical_name_systematic        
3,3'-bis(thiophen-2-yl)-2H,2'H-2,2'-bi-1,4-benzothiazine
_symmetry_cell_setting           monoclinic
_symmetry_space_group_name_H-M   'P 21/n'
_symmetry_Int_Tables_number      14
_space_group_name_Hall           '-P 2yn'
loop_
_symmetry_equiv_pos_site_id
_symmetry_equiv_pos_as_xyz
1 x,y,z
2 1/2-x,1/2+y,1/2-z
3 -x,-y,-z
4 1/2+x,1/2-y,1/2+z
_cell_length_a                   11.2910(11)
_cell_length_b                   7.3522(6)
_cell_length_c                   12.7474(13)
_cell_angle_alpha                90
_cell_angle_beta                 94.4490(10)
_cell_angle_gamma                90
_cell_volume                     1055.02
_exptl_crystal_colour            red
_exptl_crystal_description       block
_cell_formula_units_Z            2
loop_
_atom_site_label
_atom_site_type_symbol
_atom_site_fract_x
_atom_site_fract_y
_atom_site_fract_z
N1 N 0.4725(2) 0.1833(3) 0.31565(19)
S1 S 0.37678(7) 0.22432(11) 0.53218(7)
S2 S 0.69718(8) 0.37410(12) 0.28333(7)
C1 C 0.5090(2) 0.1034(3) 0.5020(2)
H1 H 0.5723 0.1310 0.5567
C2 C 0.5445(3) 0.1799(3) 0.3982(2)
C3 C 0.6618(3) 0.2555(4) 0.3929(2)
C4 C 0.7555(3) 0.2531(4) 0.4661(3)
H2 H 0.7540 0.1955 0.5309
C5 C 0.8555(3) 0.3471(5) 0.4338(3)
H3 H 0.9270 0.3581 0.4747
C6 C 0.8358(3) 0.4180(5) 0.3381(3)
H4 H 0.8921 0.4846 0.3047
C7 C 0.2934(3) 0.1744(4) 0.4137(3)
C8 C 0.1707(3) 0.1633(5) 0.4106(4)
H5 H 0.1322 0.1853 0.4712
C9 C 0.1058(3) 0.1201(5) 0.3187(4)
H6 H 0.0234 0.1134 0.3169
C10 C 0.1632(4) 0.0864(4) 0.2289(4)
H7 H 0.1195 0.0544 0.1669
C11 C 0.2839(3) 0.1001(4) 0.2310(3)
H8 H 0.3212 0.0777 0.1697
C12 C 0.3521(3) 0.1462(4) 0.3217(3)
N1B N 0.5275(2) -0.1833(3) 0.68435(19)
S1B S 0.62322(7) -0.22432(11) 0.46782(7)
S2B S 0.30282(8) -0.37410(12) 0.71667(7)
C1B C 0.4910(2) -0.1034(3) 0.4980(2)
H1B H 0.4277 -0.1310 0.4433
C2B C 0.4555(3) -0.1799(3) 0.6018(2)
C3B C 0.3382(3) -0.2555(4) 0.6071(2)
C4B C 0.2445(3) -0.2531(4) 0.5339(3)
H2B H 0.2460 -0.1955 0.4691
C5B C 0.1445(3) -0.3471(5) 0.5662(3)
H3B H 0.0730 -0.3581 0.5253
C6B C 0.1642(3) -0.4180(5) 0.6619(3)
H4B H 0.1079 -0.4846 0.6953
C7B C 0.7066(3) -0.1744(4) 0.5863(3)
C8B C 0.8293(3) -0.1633(5) 0.5894(4)
H5B H 0.8678 -0.1853 0.5288
C9B C 0.8942(3) -0.1201(5) 0.6813(4)
H6B H 0.9766 -0.1134 0.6831
C10B C 0.8368(4) -0.0864(4) 0.7711(4)
H7B H 0.8805 -0.0544 0.8331
C11B C 0.7161(3) -0.1001(4) 0.7690(3)
H8B H 0.6788 -0.0777 0.8303
C12B C 0.6479(3) -0.1462(4) 0.6783(3)
loop_
_geom_bond_atom_site_label_1
_geom_bond_atom_site_label_2
_geom_bond_site_symmetry_1
_geom_bond_site_symmetry_2
N1 C2 1_555 1_555
S1 C1 1_555 1_555
S2 C3 1_555 1_555
C1 H1 1_555 1_555
C2 C1 1_555 1_555
C3 C2 1_555 1_555
C4 C3 1_555 1_555
H2 C4 1_555 1_555
C5 C4 1_555 1_555
H3 C5 1_555 1_555
C6 S2 1_555 1_555
H4 C6 1_555 1_555
C7 S1 1_555 1_555
C8 C7 1_555 1_555
H5 C8 1_555 1_555
C9 C8 1_555 1_555
H6 C9 1_555 1_555
C10 C9 1_555 1_555
H7 C10 1_555 1_555
C11 C10 1_555 1_555
H8 C11 1_555 1_555
C12 N1 1_555 1_555
N1B C2B 1_555 1_555
S1B C1B 1_555 1_555
S2B C3B 1_555 1_555
C1B C1 1_555 1_555
H1B C1B 1_555 1_555
C2B C1B 1_555 1_555
C3B C2B 1_555 1_555
C4B C3B 1_555 1_555
H2B C4B 1_555 1_555
C5B C4B 1_555 1_555
H3B C5B 1_555 1_555
C6B S2B 1_555 1_555
H4B C6B 1_555 1_555
C7B S1B 1_555 1_555
C8B C7B 1_555 1_555
H5B C8B 1_555 1_555
C9B C8B 1_555 1_555
H6B C9B 1_555 1_555
C10B C9B 1_555 1_555
H7B C10B 1_555 1_555
C11B C10B 1_555 1_555
H8B C11B 1_555 1_555
C12B N1B 1_555 1_555
C5 C6 1_555 1_555
C7 C12 1_555 1_555
C11 C12 1_555 1_555
C5B C6B 1_555 1_555
C7B C12B 1_555 1_555
C11B C12B 1_555 1_555

#END
