
#######################################################################
#
#                 Cambridge Crystallographic Data Centre
#                                CCDC 
#
#######################################################################
#
# If this CIF has been generated from an entry in the Cambridge 
# Structural Database, then it will include bibliographic, chemical, 
# crystal, experimental, refinement or atomic coordinate data resulting 
# from the CCDC's data processing and validation procedures.
#
#######################################################################

data_WEWDAG
_chemical_formula_moiety         'C30 H26 N2 O2 S1'
_chemical_name_systematic        
2,3-dimethyl-1-{2-methyl-1-[(4-methylphenyl)sulfonyl]-1H-indol-3-yl}-3H-benzo[e]indole
_symmetry_cell_setting           monoclinic
_symmetry_space_group_name_H-M   'P 21/c'
_symmetry_Int_Tables_number      14
_space_group_name_Hall           '-P 2ybc'
loop_
_symmetry_equiv_pos_site_id
_symmetry_equiv_pos_as_xyz
1 x,y,z
2 -x,1/2+y,1/2-z
3 -x,-y,-z
4 x,1/2-y,1/2+z
_cell_length_a                   21.144(4)
_cell_length_b                   7.8313(14)
_cell_length_c                   14.814(3)
_cell_angle_alpha                90
_cell_angle_beta                 97.900(3)
_cell_angle_gamma                90
_cell_volume                     2429.7
_exptl_crystal_colour            colorless
_exptl_crystal_description       block
_cell_formula_units_Z            4
loop_
_atom_site_label
_atom_site_type_symbol
_atom_site_fract_x
_atom_site_fract_y
_atom_site_fract_z
C1 C 0.43934(18) -0.2805(5) 0.5557(3)
H1 H 0.4027 -0.3540 0.5519
H2 H 0.4445 -0.2217 0.6131
H3 H 0.4767 -0.3475 0.5508
C2 C 0.42990(12) -0.1520(4) 0.4791(2)
C3 C 0.40290(13) 0.0061(5) 0.4919(2)
H4 H 0.3916 0.0333 0.5487
C4 C 0.39251(11) 0.1237(4) 0.42219(17)
H5 H 0.3750 0.2299 0.4320
C5 C 0.40852(9) 0.0820(3) 0.33723(16)
C6 C 0.43664(11) -0.0738(3) 0.32379(19)
H6 H 0.4480 -0.1016 0.2672
C7 C 0.44756(13) -0.1872(4) 0.3952(2)
H7 H 0.4675 -0.2906 0.3864
C8 C 0.28822(9) 0.3858(3) 0.29373(14)
C9 C 0.31180(11) 0.5428(3) 0.32628(18)
H8 H 0.3518 0.5815 0.3161
C10 C 0.27315(13) 0.6388(3) 0.3744(2)
H9 H 0.2878 0.7442 0.3976
C11 C 0.21392(12) 0.5840(3) 0.38911(18)
H10 H 0.1894 0.6517 0.4225
C12 C 0.19023(10) 0.4295(3) 0.35489(16)
H11 H 0.1497 0.3931 0.3640
C13 C 0.22822(9) 0.3295(2) 0.30646(13)
C14 C 0.21659(9) 0.1684(2) 0.25979(13)
C15 C 0.26887(9) 0.1273(2) 0.22129(14)
C16 C 0.28009(11) -0.0246(3) 0.16542(17)
H12 H 0.2427 -0.0957 0.1583
H13 H 0.3158 -0.0881 0.1953
H14 H 0.2890 0.0119 0.1066
C17 C 0.15547(9) 0.0758(2) 0.25457(14)
C18 C 0.11302(9) 0.0529(3) 0.17617(14)
C19 C 0.06532(9) -0.0449(3) 0.29205(14)
C20 C 0.02111(10) -0.1124(3) 0.34524(16)
H15 H -0.0195 -0.1464 0.3192
C21 C 0.04013(11) -0.1258(3) 0.43618(17)
H16 H 0.0113 -0.1685 0.4727
C22 C 0.10181(10) -0.0780(3) 0.47815(15)
C23 C 0.12154(12) -0.1038(3) 0.57239(16)
H17 H 0.0924 -0.1467 0.6082
C24 C 0.18182(13) -0.0677(3) 0.61195(16)
H18 H 0.1940 -0.0878 0.6738
C25 C 0.22518(11) -0.0003(3) 0.55885(16)
H19 H 0.2665 0.0244 0.5859
C26 C 0.20842(10) 0.0304(3) 0.46801(14)
H20 H 0.2382 0.0769 0.4344
C27 C 0.14624(9) -0.0077(2) 0.42446(14)
C28 C 0.12601(9) 0.0128(2) 0.32905(14)
C29 C 0.11968(11) 0.0978(3) 0.08057(15)
H21 H 0.1601 0.1524 0.0788
H22 H 0.0859 0.1742 0.0569
H23 H 0.1173 -0.0040 0.0442
C30 C 0.00112(10) -0.0664(3) 0.13837(16)
H24 H -0.0115 -0.1808 0.1511
H25 H 0.0096 -0.0595 0.0764
H26 H -0.0326 0.0113 0.1472
N1 N 0.31453(7) 0.2619(2) 0.23926(12)
N2 N 0.05813(7) -0.0217(2) 0.19919(12)
O1 O 0.42324(7) 0.3848(2) 0.27049(13)
O2 O 0.40391(8) 0.1433(2) 0.16468(11)
S1 S 0.39312(2) 0.22581(8) 0.24667(4)
loop_
_geom_bond_atom_site_label_1
_geom_bond_atom_site_label_2
_geom_bond_site_symmetry_1
_geom_bond_site_symmetry_2
C1 H1 1_555 1_555
H2 C1 1_555 1_555
H3 C1 1_555 1_555
C2 C1 1_555 1_555
C3 C2 1_555 1_555
H4 C3 1_555 1_555
C4 C3 1_555 1_555
H5 C4 1_555 1_555
C5 C4 1_555 1_555
C6 C5 1_555 1_555
H6 C6 1_555 1_555
C7 C2 1_555 1_555
H7 C7 1_555 1_555
C8 C9 1_555 1_555
C9 H8 1_555 1_555
C10 C9 1_555 1_555
H9 C10 1_555 1_555
C11 C10 1_555 1_555
H10 C11 1_555 1_555
C12 C11 1_555 1_555
H11 C12 1_555 1_555
C13 C8 1_555 1_555
C14 C13 1_555 1_555
C15 C14 1_555 1_555
C16 C15 1_555 1_555
H12 C16 1_555 1_555
H13 C16 1_555 1_555
H14 C16 1_555 1_555
C17 C14 1_555 1_555
C18 C17 1_555 1_555
C19 C20 1_555 1_555
C20 H15 1_555 1_555
C21 C20 1_555 1_555
H16 C21 1_555 1_555
C22 C21 1_555 1_555
C23 C22 1_555 1_555
H17 C23 1_555 1_555
C24 C23 1_555 1_555
H18 C24 1_555 1_555
C25 C24 1_555 1_555
H19 C25 1_555 1_555
C26 C25 1_555 1_555
H20 C26 1_555 1_555
C27 C22 1_555 1_555
C28 C17 1_555 1_555
C29 C18 1_555 1_555
H21 C29 1_555 1_555
H22 C29 1_555 1_555
H23 C29 1_555 1_555
C30 H24 1_555 1_555
H25 C30 1_555 1_555
H26 C30 1_555 1_555
N1 C8 1_555 1_555
N2 C18 1_555 1_555
O1 S1 1_555 1_555
O2 S1 1_555 1_555
S1 C5 1_555 1_555
C6 C7 1_555 1_555
C12 C13 1_555 1_555
C15 N1 1_555 1_555
C19 C28 1_555 1_555
C19 N2 1_555 1_555
C26 C27 1_555 1_555
C27 C28 1_555 1_555
C30 N2 1_555 1_555
N1 S1 1_555 1_555

#END
