
#######################################################################
#
#                 Cambridge Crystallographic Data Centre
#                                CCDC 
#
#######################################################################
#
# If this CIF has been generated from an entry in the Cambridge 
# Structural Database, then it will include bibliographic, chemical, 
# crystal, experimental, refinement or atomic coordinate data resulting 
# from the CCDC's data processing and validation procedures.
#
#######################################################################

data_WEWGIO01
_chemical_formula_moiety         'C16 H36 N1 1+,C8 H5 O4 1-'
_chemical_name_systematic        'tetrabutylammonium 2-carboxybenzoate'
_symmetry_cell_setting           monoclinic
_symmetry_space_group_name_H-M   'P 21/n'
_symmetry_Int_Tables_number      14
_space_group_name_Hall           '-P 2yn'
loop_
_symmetry_equiv_pos_site_id
_symmetry_equiv_pos_as_xyz
1 x,y,z
2 1/2-x,1/2+y,1/2-z
3 -x,-y,-z
4 1/2+x,1/2-y,1/2+z
_cell_length_a                   15.2253(9)
_cell_length_b                   9.1994(6)
_cell_length_c                   17.8109(10)
_cell_angle_alpha                90
_cell_angle_beta                 97.278(5)
_cell_angle_gamma                90
_cell_volume                     2474.56
_exptl_crystal_colour            white
_exptl_crystal_description       block
_cell_formula_units_Z            4
loop_
_atom_site_label
_atom_site_type_symbol
_atom_site_fract_x
_atom_site_fract_y
_atom_site_fract_z
O1 O 0.6467(2) 0.0180(5) 0.2590(3)
O2 O 0.6220(2) 0.1547(4) 0.3556(2)
O3 O 0.5109(3) 0.2988(4) 0.39265(18)
H1 H 0.5650 0.2422 0.3914
O4 O 0.3800(3) 0.3732(4) 0.3531(3)
C1 C 0.5988(3) 0.0885(6) 0.2931(3)
C2 C 0.4998(2) 0.0907(4) 0.26097(17)
C3 C 0.4769(4) -0.0069(5) 0.2041(2)
H2 H 0.5204 -0.0651 0.1874
C4 C 0.3933(5) -0.0203(7) 0.1721(3)
H3 H 0.3809 -0.0885 0.1337
C5 C 0.3271(4) 0.0582(8) 0.1919(3)
H4 H 0.2692 0.0434 0.1694
C6 C 0.3472(3) 0.1640(6) 0.2479(3)
H5 H 0.3025 0.2244 0.2608
C7 C 0.4336(2) 0.1809(3) 0.28480(17)
C8 C 0.4430(4) 0.2928(5) 0.3485(3)
N1 N 0.67705(15) 0.6509(3) 0.41148(13)
C9 C 0.6797(2) 0.6486(4) 0.32583(16)
H6 H 0.6583 0.7415 0.3052
H7 H 0.7409 0.6390 0.3167
C10 C 0.6266(2) 0.5295(5) 0.28325(17)
H8 H 0.6533 0.4360 0.2970
H9 H 0.5669 0.5293 0.2970
C11 C 0.6231(3) 0.5522(5) 0.19925(18)
H10 H 0.6830 0.5555 0.1861
H11 H 0.5952 0.6450 0.1857
C12 C 0.5723(3) 0.4330(6) 0.1544(2)
H12 H 0.5708 0.4521 0.1013
H13 H 0.5129 0.4296 0.1671
H14 H 0.6008 0.3413 0.1664
C13 C 0.7326(2) 0.7797(4) 0.44119(18)
H15 H 0.7916 0.7670 0.4271
H16 H 0.7077 0.8662 0.4156
C14 C 0.7413(2) 0.8070(4) 0.5253(2)
H17 H 0.7603 0.7184 0.5522
H18 H 0.6842 0.8345 0.5395
C15 C 0.8080(3) 0.9269(5) 0.5477(3)
H19 H 0.8647 0.8988 0.5328
H20 H 0.7888 1.0146 0.5202
C16 C 0.8200(4) 0.9596(7) 0.6302(3)
H21 H 0.8561 1.0448 0.6396
H22 H 0.8483 0.8787 0.6574
H23 H 0.7632 0.9763 0.6468
C17 C 0.7128(2) 0.5102(3) 0.44724(16)
H24 H 0.6780 0.4307 0.4232
H25 H 0.7036 0.5113 0.5001
C18 C 0.8099(2) 0.4781(4) 0.44293(19)
H26 H 0.8215 0.4822 0.3906
H27 H 0.8464 0.5507 0.4713
C19 C 0.8332(2) 0.3289(4) 0.4751(2)
H28 H 0.8129 0.3212 0.5244
H29 H 0.8019 0.2564 0.4424
C20 C 0.9302(3) 0.2959(4) 0.4831(2)
H30 H 0.9517 0.3085 0.4352
H31 H 0.9400 0.1973 0.4999
H32 H 0.9612 0.3607 0.5196
C21 C 0.5828(2) 0.6654(4) 0.43071(18)
H33 H 0.5495 0.5801 0.4120
H34 H 0.5847 0.6665 0.4854
C22 C 0.5336(2) 0.7983(6) 0.3992(3)
H35 H 0.5250 0.7879 0.3446
H36 H 0.5729 0.8806 0.4106
C23 C 0.4438(6) 0.8403(18) 0.4233(5)
H37 H 0.4458 0.8363 0.4779
H38 H 0.4269 0.9376 0.4062
C24 C 0.3861(9) 0.7394(18) 0.3892(11)
H39 H 0.3941 0.7310 0.3367
H40 H 0.3265 0.7693 0.3932
H41 H 0.3972 0.6470 0.4136
H42? H 0.5357 0.8116 0.3454
H43? H 0.5518 0.8864 0.4268
C25? C 0.4324(10) 0.730(2) 0.4200(9)
H44? H 0.4177 0.6393 0.3939
H45? H 0.4328 0.7159 0.4740
C26? C 0.3688(10) 0.850(3) 0.3908(12)
H46? H 0.3710 0.8634 0.3376
H47? H 0.3852 0.9386 0.4172
H48? H 0.3098 0.8233 0.3990
loop_
_geom_bond_atom_site_label_1
_geom_bond_atom_site_label_2
_geom_bond_site_symmetry_1
_geom_bond_site_symmetry_2
O1 C1 1_555 1_555
O2 C1 1_555 1_555
O3 H1 1_555 1_555
O4 C8 1_555 1_555
C1 C2 1_555 1_555
C2 C3 1_555 1_555
C3 H2 1_555 1_555
C4 C3 1_555 1_555
H3 C4 1_555 1_555
C5 C4 1_555 1_555
H4 C5 1_555 1_555
C6 C5 1_555 1_555
H5 C6 1_555 1_555
C7 C2 1_555 1_555
C8 O3 1_555 1_555
N1 C9 1_555 1_555
C9 H6 1_555 1_555
H7 C9 1_555 1_555
C10 C9 1_555 1_555
H8 C10 1_555 1_555
H9 C10 1_555 1_555
C11 C10 1_555 1_555
H10 C11 1_555 1_555
H11 C11 1_555 1_555
C12 C11 1_555 1_555
H12 C12 1_555 1_555
H13 C12 1_555 1_555
H14 C12 1_555 1_555
C13 N1 1_555 1_555
H15 C13 1_555 1_555
H16 C13 1_555 1_555
C14 C13 1_555 1_555
H17 C14 1_555 1_555
H18 C14 1_555 1_555
C15 C14 1_555 1_555
H19 C15 1_555 1_555
H20 C15 1_555 1_555
C16 C15 1_555 1_555
H21 C16 1_555 1_555
H22 C16 1_555 1_555
H23 C16 1_555 1_555
C17 N1 1_555 1_555
H24 C17 1_555 1_555
H25 C17 1_555 1_555
C18 C17 1_555 1_555
H26 C18 1_555 1_555
H27 C18 1_555 1_555
C19 C18 1_555 1_555
H28 C19 1_555 1_555
H29 C19 1_555 1_555
C20 C19 1_555 1_555
H30 C20 1_555 1_555
H31 C20 1_555 1_555
H32 C20 1_555 1_555
C21 N1 1_555 1_555
H33 C21 1_555 1_555
H34 C21 1_555 1_555
C22 C21 1_555 1_555
H35 C22 1_555 1_555
H36 C22 1_555 1_555
C23 C22 1_555 1_555
H37 C23 1_555 1_555
H38 C23 1_555 1_555
C24 C23 1_555 1_555
H39 C24 1_555 1_555
H40 C24 1_555 1_555
H41 C24 1_555 1_555
C6 C7 1_555 1_555
C7 C8 1_555 1_555

#END
