
#######################################################################
#
#                 Cambridge Crystallographic Data Centre
#                                CCDC 
#
#######################################################################
#
# If this CIF has been generated from an entry in the Cambridge 
# Structural Database, then it will include bibliographic, chemical, 
# crystal, experimental, refinement or atomic coordinate data resulting 
# from the CCDC's data processing and validation procedures.
#
#######################################################################

data_WEWPOG
_chemical_formula_moiety         'C18 H17 Br1 Cl1 N1 O4 S1'
_chemical_name_systematic        
N-(4-{2-[(5-bromo-2-methoxyphenyl)sulfonyl]-1-chloroprop-1-en-1-yl}phenyl)acetamide
_symmetry_cell_setting           monoclinic
_symmetry_space_group_name_H-M   'P 21/c'
_symmetry_Int_Tables_number      14
_space_group_name_Hall           '-P 2ybc'
loop_
_symmetry_equiv_pos_site_id
_symmetry_equiv_pos_as_xyz
1 x,y,z
2 -x,1/2+y,1/2-z
3 -x,-y,-z
4 x,1/2-y,1/2+z
_cell_length_a                   8.5848(3)
_cell_length_b                   11.3246(3)
_cell_length_c                   20.2700(6)
_cell_angle_alpha                90
_cell_angle_beta                 93.196(2)
_cell_angle_gamma                90
_cell_volume                     1967.57
_exptl_crystal_colour            silver
_exptl_crystal_description       block
_cell_formula_units_Z            4
loop_
_atom_site_label
_atom_site_type_symbol
_atom_site_fract_x
_atom_site_fract_y
_atom_site_fract_z
Br1 Br 0.78406(5) 0.92302(4) 0.111450(18)
Cl1 Cl 1.00728(16) 0.77602(14) 0.47967(6)
S1 S 0.69968(9) 1.02240(7) 0.37490(4)
O1 O 0.5108(3) 0.8136(2) 0.37141(12)
O2 O 0.5575(3) 1.0639(2) 0.40037(13)
O3 O 0.8091(3) 1.11028(19) 0.35577(12)
O4 O 1.2807(4) 1.0481(2) 0.15736(15)
N1 N 1.1957(3) 0.8617(2) 0.17261(13)
H1 H 1.1906 0.7933 0.1541
C1 C 0.6923(4) 0.8883(3) 0.19225(15)
C2 C 0.7221(4) 0.9614(3) 0.24569(15)
H2 H 0.7837 1.0284 0.2422
C3 C 0.6576(3) 0.9324(2) 0.30500(15)
C4 C 0.5643(3) 0.8328(3) 0.31101(16)
C5 C 0.5377(4) 0.7608(3) 0.2556(2)
H3 H 0.4770 0.6932 0.2586
C6 C 0.6001(4) 0.7891(3) 0.19699(19)
H4 H 0.5804 0.7412 0.1602
C7 C 0.4117(5) 0.7140(4) 0.3805(2)
H5 H 0.3827 0.7114 0.4255
H6 H 0.4663 0.6428 0.3703
H7 H 0.3196 0.7208 0.3516
C8 C 0.7924(4) 0.9278(3) 0.43570(14)
C9 C 0.9199(4) 0.8702(3) 0.42017(15)
C10 C 0.9981(4) 0.8687(3) 0.35720(15)
C11 C 0.9777(3) 0.7730(3) 0.31462(16)
H8 H 0.9189 0.7085 0.3270
C12 C 1.0439(3) 0.7729(3) 0.25410(16)
H9 H 1.0281 0.7089 0.2257
C13 C 1.1346(3) 0.8681(2) 0.23522(15)
C14 C 1.1600(4) 0.9624(3) 0.27856(16)
H10 H 1.2224 1.0255 0.2671
C15 C 1.0917(4) 0.9614(3) 0.33879(16)
H11 H 1.1090 1.0245 0.3676
C16 C 0.7125(5) 0.9232(4) 0.49947(18)
H12 H 0.7685 0.8709 0.5296
H13 H 0.6078 0.8949 0.4914
H14 H 0.7100 1.0009 0.5183
C17 C 1.3083(5) 0.9122(4) 0.07028(19)
H15 H 1.3539 0.9785 0.0490
H16 H 1.2181 0.8859 0.0443
H17 H 1.3832 0.8493 0.0745
C18 C 1.2615(4) 0.9478(3) 0.13724(18)
loop_
_geom_bond_atom_site_label_1
_geom_bond_atom_site_label_2
_geom_bond_site_symmetry_1
_geom_bond_site_symmetry_2
Br1 C1 1_555 1_555
Cl1 C9 1_555 1_555
S1 O2 1_555 1_555
O1 C4 1_555 1_555
O3 S1 1_555 1_555
O4 C18 1_555 1_555
N1 H1 1_555 1_555
C1 C2 1_555 1_555
C2 H2 1_555 1_555
C3 S1 1_555 1_555
C4 C3 1_555 1_555
C5 C4 1_555 1_555
H3 C5 1_555 1_555
C6 C1 1_555 1_555
H4 C6 1_555 1_555
C7 O1 1_555 1_555
H5 C7 1_555 1_555
H6 C7 1_555 1_555
H7 C7 1_555 1_555
C8 S1 1_555 1_555
C9 C8 1_555 1_555
C10 C9 1_555 1_555
C11 C10 1_555 1_555
H8 C11 1_555 1_555
C12 C11 1_555 1_555
H9 C12 1_555 1_555
C13 N1 1_555 1_555
C14 C13 1_555 1_555
H10 C14 1_555 1_555
C15 C10 1_555 1_555
H11 C15 1_555 1_555
C16 C8 1_555 1_555
H12 C16 1_555 1_555
H13 C16 1_555 1_555
H14 C16 1_555 1_555
C17 H15 1_555 1_555
H16 C17 1_555 1_555
H17 C17 1_555 1_555
C18 N1 1_555 1_555
C2 C3 1_555 1_555
C5 C6 1_555 1_555
C12 C13 1_555 1_555
C14 C15 1_555 1_555
C17 C18 1_555 1_555

#END
