
#######################################################################
#
#                 Cambridge Crystallographic Data Centre
#                                CCDC 
#
#######################################################################
#
# If this CIF has been generated from an entry in the Cambridge 
# Structural Database, then it will include bibliographic, chemical, 
# crystal, experimental, refinement or atomic coordinate data resulting 
# from the CCDC's data processing and validation procedures.
#
#######################################################################

data_WEWTEX
_chemical_formula_moiety         'C66 H90 N6 O9,C8 H10 N4 O2,3.5(C1 H4 O1)'
_chemical_name_systematic        
'2,3;6,7;10,11-tris(1-(cyclohexylcarbamoyl)amino-1,5-methanocyclooctane-9,9-dioxy)triphenylene caffeine methanol solvate'
_symmetry_cell_setting           triclinic
_symmetry_space_group_name_H-M   'P -1'
_symmetry_Int_Tables_number      2
_space_group_name_Hall           '-P 1'
loop_
_symmetry_equiv_pos_site_id
_symmetry_equiv_pos_as_xyz
1 x,y,z
2 -x,-y,-z
_cell_length_a                   13.596
_cell_length_b                   13.794(1)
_cell_length_c                   22.979(1)
_cell_angle_alpha                80.09(1)
_cell_angle_beta                 82.40(1)
_cell_angle_gamma                67.41(1)
_cell_volume                     3909.17
_exptl_crystal_colour            yellow
_exptl_crystal_description       block
_cell_formula_units_Z            2
loop_
_atom_site_label
_atom_site_type_symbol
_atom_site_fract_x
_atom_site_fract_y
_atom_site_fract_z
C1 C 0.5014(3) 0.1150(2) 0.73763(14)
C2 C 0.5408(3) 0.0816(3) 0.79473(16)
H1 H 0.5697 0.1224 0.8114
C3 C 0.5360(3) -0.0109(3) 0.82501(16)
C4 C 0.4928(3) -0.0704(3) 0.80156(16)
C5 C 0.4536(3) -0.0417(3) 0.74774(15)
H2 H 0.4237 -0.0838 0.7329
C6 C 0.4580(3) 0.0535(2) 0.71357(15)
O1 O 0.5662(3) -0.05649(19) 0.88106(11)
O2 O 0.4940(3) -0.1568(2) 0.84248(11)
C7 C 0.5545(4) -0.1595(3) 0.89069(17)
C8 C 0.4921(4) -0.1699(3) 0.95048(18)
C9 C 0.5564(4) -0.1648(3) 0.99904(19)
H3 H 0.5205 -0.1799 1.0380
H4 H 0.5542 -0.0915 0.9956
C10 C 0.6741(4) -0.2410(4) 0.9983(2)
H5 H 0.7128 -0.2186 1.0237
H6 H 0.6777 -0.3132 1.0151
C11 C 0.7287(5) -0.2434(4) 0.9359(2)
H7 H 0.7967 -0.3055 0.9362
H8 H 0.7463 -0.1790 0.9246
C12 C 0.6617(4) -0.2489(3) 0.88904(19)
H9 H 0.6993 -0.2386 0.8494
C13 C 0.6462(5) -0.3549(3) 0.8947(2)
H10 H 0.6174 -0.3582 0.8580
H11 H 0.7167 -0.4134 0.8983
C14 C 0.5711(5) -0.3719(4) 0.9477(2)
H12 H 0.5498 -0.4308 0.9426
H13 H 0.6100 -0.3930 0.9841
C15 C 0.4713(5) -0.2740(3) 0.9553(2)
H14 H 0.4345 -0.2852 0.9946
H15 H 0.4224 -0.2656 0.9249
N1 N 0.3895(4) -0.0795(3) 0.94872(17)
H16 H 0.383(4) -0.031(4) 0.923(2)
C16 C 0.3075(5) -0.0668(4) 0.9905(2)
O3 O 0.3074(3) -0.1313(3) 1.03442(16)
N2 N 0.2214(4) 0.0243(4) 0.9798(2)
H17 H 0.224(5) 0.064(5) 0.955(3)
C17 C 0.1270(5) 0.0497(6) 1.0208(3)
H18 H 0.0953 -0.0046 1.0226
H19 H 0.1488 0.0459 1.0608
C18 C 0.0478(6) 0.1508(6) 1.0059(4)
H20 H 0.0260 0.1547 0.9658
H21 H 0.0793 0.2052 1.0042
C19 C -0.0513(7) 0.1771(7) 1.0489(4)
H22 H -0.0878 0.1283 1.0463
H23 H -0.0279 0.1626 1.0896
C20 C -0.1284(9) 0.2848(8) 1.0401(5)
H24 H -0.1547 0.2992 1.0002
H25 H -0.0924 0.3344 1.0418
C21 C -0.2255(8) 0.3063(9) 1.0871(6)
H26 H -0.2657 0.2618 1.0826
H27 H -0.1987 0.2846 1.1271
C22 C -0.2987(12) 0.4174(9) 1.0825(7)
H28 H -0.2576 0.4632 1.0788
H29 H -0.3479 0.4286 1.1182
H30 H -0.3396 0.4345 1.0476
C23 C 0.4200(3) 0.0864(2) 0.65441(15)
C24 C 0.3784(3) 0.0238(3) 0.62918(15)
H31 H 0.3736 -0.0395 0.6510
C25 C 0.3458(3) 0.0565(3) 0.57342(15)
C26 C 0.3538(3) 0.1474(3) 0.53995(15)
C27 C 0.3915(3) 0.2101(3) 0.56182(15)
H32 H 0.3967 0.2720 0.5383
C28 C 0.4234(3) 0.1814(2) 0.62114(15)
O4 O 0.3014(2) 0.01008(18) 0.54133(11)
O5 O 0.3182(2) 0.16046(18) 0.48503(10)
C29 C 0.2749(3) 0.0785(3) 0.48540(15)
C30 C 0.1538(3) 0.1293(3) 0.48109(16)
C31 C 0.1327(3) 0.2094(3) 0.42430(17)
H33 H 0.0550 0.2396 0.4194
H34 H 0.1544 0.2682 0.4290
C32 C 0.1910(4) 0.1629(4) 0.36844(18)
H35 H 0.1882 0.2215 0.3363
H36 H 0.1532 0.1218 0.3562
C33 C 0.3073(3) 0.0912(4) 0.37598(18)
H37 H 0.3500 0.1361 0.3732
H38 H 0.3333 0.0484 0.3427
C34 C 0.3276(3) 0.0156(3) 0.43445(17)
H39 H 0.4064 -0.0149 0.4386
C35 C 0.2896(3) -0.0766(3) 0.4391(2)
H40 H 0.3218 -0.1157 0.4047
H41 H 0.3152 -0.1259 0.4754
C36 C 0.1683(3) -0.0411(3) 0.4409(2)
H42 H 0.1444 -0.0089 0.4008
H43 H 0.1479 -0.1038 0.4525
C37 C 0.1116(3) 0.0388(3) 0.48423(19)
H44 H 0.1177 0.0002 0.5249
H45 H 0.0348 0.0707 0.4770
N3 N 0.1081(3) 0.1853(3) 0.53359(15)
H46 H 0.142(4) 0.159(3) 0.564(2)
C38 C 0.0023(3) 0.2426(3) 0.54457(19)
O6 O -0.0641(2) 0.2701(3) 0.50783(15)
N4 N -0.0223(3) 0.2696(3) 0.59995(18)
H47 H 0.031(4) 0.242(4) 0.631(2)
C39 C -0.1308(4) 0.3295(4) 0.6219(2)
H48 H -0.1817 0.3309 0.5944
H49 H -0.1383 0.4035 0.6230
C40 C -0.1569(5) 0.2832(5) 0.6812(3)
H50 H -0.1085 0.2880 0.7082
H51 H -0.2303 0.3286 0.6940
C41 C -0.1519(5) 0.1753(5) 0.6905(3)
H52 H -0.0815 0.1324 0.6726
H53 H -0.2063 0.1736 0.6664
C42 C -0.1652(6) 0.1189(5) 0.7482(3)
H54 H -0.1096 0.1197 0.7718
H55 H -0.2346 0.1632 0.7664
C43 C -0.1628(8) 0.0143(6) 0.7587(5)
H56 H -0.2201 0.0145 0.7361
H57 H -0.0946 -0.0291 0.7389
C44 C -0.1719(6) -0.0435(6) 0.8139(4)
H58 H -0.1082 -0.0600 0.8350
H59 H -0.1787 -0.1096 0.8084
H60 H -0.2353 -0.0016 0.8370
C45 C 0.4594(3) 0.2497(2) 0.64758(14)
C46 C 0.4505(3) 0.3512(3) 0.61770(15)
H61 H 0.4236 0.3751 0.5796
C47 C 0.4817(3) 0.4133(2) 0.64510(15)
C48 C 0.5243(3) 0.3792(3) 0.69952(15)
C49 C 0.5353(3) 0.2822(3) 0.73035(15)
H62 H 0.5653 0.2597 0.7677
C50 C 0.4999(3) 0.2160(2) 0.70422(14)
O7 O 0.4728(2) 0.51597(17) 0.62600(11)
O8 O 0.5478(2) 0.45774(18) 0.71696(11)
C51 C 0.5193(3) 0.5470(3) 0.66957(15)
C52 C 0.4374(3) 0.6463(3) 0.69354(17)
C53 C 0.4042(3) 0.7329(3) 0.63959(18)
H63 H 0.3619 0.7130 0.6152
H64 H 0.3568 0.8001 0.6542
C54 C 0.4958(3) 0.7528(3) 0.59975(18)
H65 H 0.4683 0.7932 0.5615
H66 H 0.5218 0.7968 0.6187
C55 C 0.5890(3) 0.6512(3) 0.58781(17)
H67 H 0.6523 0.6691 0.5725
H68 H 0.5710 0.6211 0.5564
C56 C 0.6182(3) 0.5668(3) 0.64169(16)
H69 H 0.6693 0.4996 0.6273
C57 C 0.6719(3) 0.5917(3) 0.68876(18)
H70 H 0.7330 0.6102 0.6694
H71 H 0.7003 0.5273 0.7177
C58 C 0.5959(4) 0.6829(3) 0.72208(18)
H72 H 0.6300 0.6848 0.7572
H73 H 0.5835 0.7509 0.6960
C59 C 0.4897(4) 0.6713(3) 0.74188(18)
H74 H 0.4397 0.7379 0.7563
H75 H 0.5004 0.6141 0.7757
N5 N 0.3445(3) 0.6210(3) 0.72040(17)
H76 H 0.349(4) 0.561(4) 0.714(2)
C60 C 0.2519(4) 0.6926(4) 0.7415(2)
O9 O 0.2384(3) 0.7850(3) 0.74470(18)
N6 N 0.1731(4) 0.6539(4) 0.7585(3)
H77 H 0.196(5) 0.580(6) 0.755(3)
C61 C 0.0638(5) 0.7202(6) 0.7776(4)
H78 H 0.0654 0.7487 0.8140
H79 H 0.0357 0.7809 0.7465
C62 C -0.0050(9) 0.6646(10) 0.7889(10)
H80 H -0.0542 0.7006 0.8210
H81 H -0.0467 0.6922 0.7534
C63 C -0.0083(7) 0.5764(9) 0.8008(7)
H82 H 0.0397 0.5519 0.8335
H83 H 0.0395 0.5465 0.7666
C64 C -0.0495(9) 0.5001(13) 0.8145(7)
H84 H -0.0992 0.5328 0.8474
H85 H -0.0950 0.5241 0.7806
C65 C -0.0590(13) 0.4129(12) 0.8274(12)
H86 H -0.0062 0.3871 0.8577
H87 H -0.0159 0.3848 0.7915
C66 C -0.0907(13) 0.3343(13) 0.8421(6)
H88 H -0.0553 0.2816 0.8148
H89 H -0.1682 0.3598 0.8400
H90 H -0.0725 0.3019 0.8826
N7 N 0.1833(3) 0.0744(3) 0.77664(19)
C67 C 0.1962(5) -0.0147(5) 0.8225(3)
H91 H 0.2642 -0.0346 0.8400
H92 H 0.1957 -0.0748 0.8053
H93 H 0.1373 0.0048 0.8531
C68 C 0.1434(5) 0.0908(6) 0.7224(3)
H94 H 0.1195 0.0421 0.7096
N8 N 0.1409(3) 0.1816(4) 0.68892(18)
C69 C 0.1828(3) 0.2231(4) 0.7235(2)
N9 N 0.1979(3) 0.3174(3) 0.70846(16)
C70 C 0.1688(4) 0.3849(4) 0.6525(2)
H95 H 0.0927 0.4293 0.6555
H96 H 0.1831 0.3407 0.6209
H97 H 0.2110 0.4300 0.6434
C71 C 0.2427(3) 0.3504(3) 0.74767(19)
O10 O 0.2561(3) 0.4355(2) 0.73514(16)
N10 N 0.2699(3) 0.2865(3) 0.80129(15)
C72 C 0.3186(4) 0.3226(4) 0.8422(2)
H98 H 0.3536 0.3692 0.8197
H99 H 0.3717 0.2613 0.8636
H100 H 0.2632 0.3616 0.8705
C73 C 0.2547(4) 0.1904(3) 0.82007(19)
O11 O 0.2799(3) 0.1417(3) 0.86927(14)
C74 C 0.2082(4) 0.1631(3) 0.7771(2)
O12 O 0.4004(3) -0.2558(3) 1.13198(19)
H101 H 0.3382 -0.2149 1.1412
C75 C 0.4000(6) -0.3560(5) 1.1293(3)
H102 H 0.4069 -0.3966 1.1689
H103 H 0.4601 -0.3932 1.1026
H104 H 0.3328 -0.3485 1.1144
O13 O -0.2633(6) 0.4396(6) 0.4817(4)
H105 H -0.2792 0.4920 0.5000
C76 C -0.3358(5) 0.3869(5) 0.5015(3)
H106 H -0.3333 0.3651 0.5444
H107 H -0.3157 0.3243 0.4813
H108 H -0.4084 0.4351 0.4925
O14 O 0.1051(8) -0.0800(7) 0.6636(4)
H109 H 0.0947 -0.1035 0.6991
C77 C 0.1012(14) -0.1512(11) 0.6257(7)
H110 H 0.0927 -0.2136 0.6500
H111 H 0.1677 -0.1734 0.6003
H112 H 0.0407 -0.1152 0.6009
O15 O -0.0893(14) 0.5440(11) 0.5062(7)
H113 H -0.0223 0.5198 0.5013
C78 C -0.1303(14) 0.4940(11) 0.4738(7)
H114 H -0.1107 0.4194 0.4907
H115 H -0.1008 0.4987 0.4325
H116 H -0.2082 0.5287 0.4752
loop_
_geom_bond_atom_site_label_1
_geom_bond_atom_site_label_2
_geom_bond_site_symmetry_1
_geom_bond_site_symmetry_2
C1 C2 1_555 1_555
C2 H1 1_555 1_555
C3 C2 1_555 1_555
C4 C3 1_555 1_555
C5 C4 1_555 1_555
H2 C5 1_555 1_555
C6 C1 1_555 1_555
O1 C3 1_555 1_555
O2 C4 1_555 1_555
C7 O1 1_555 1_555
C8 C7 1_555 1_555
C9 C8 1_555 1_555
H3 C9 1_555 1_555
H4 C9 1_555 1_555
C10 C9 1_555 1_555
H5 C10 1_555 1_555
H6 C10 1_555 1_555
C11 C10 1_555 1_555
H7 C11 1_555 1_555
H8 C11 1_555 1_555
C12 C7 1_555 1_555
H9 C12 1_555 1_555
C13 C12 1_555 1_555
H10 C13 1_555 1_555
H11 C13 1_555 1_555
C14 C13 1_555 1_555
H12 C14 1_555 1_555
H13 C14 1_555 1_555
C15 C8 1_555 1_555
H14 C15 1_555 1_555
H15 C15 1_555 1_555
N1 C8 1_555 1_555
H16 N1 1_555 1_555
C16 N1 1_555 1_555
O3 C16 1_555 1_555
N2 C16 1_555 1_555
H17 N2 1_555 1_555
C17 N2 1_555 1_555
H18 C17 1_555 1_555
H19 C17 1_555 1_555
C18 C17 1_555 1_555
H20 C18 1_555 1_555
H21 C18 1_555 1_555
C19 C18 1_555 1_555
H22 C19 1_555 1_555
H23 C19 1_555 1_555
C20 C19 1_555 1_555
H24 C20 1_555 1_555
H25 C20 1_555 1_555
C21 C20 1_555 1_555
H26 C21 1_555 1_555
H27 C21 1_555 1_555
C22 C21 1_555 1_555
H28 C22 1_555 1_555
H29 C22 1_555 1_555
H30 C22 1_555 1_555
C23 C6 1_555 1_555
C24 C23 1_555 1_555
H31 C24 1_555 1_555
C25 C24 1_555 1_555
C26 C25 1_555 1_555
C27 C26 1_555 1_555
H32 C27 1_555 1_555
C28 C23 1_555 1_555
O4 C25 1_555 1_555
O5 C26 1_555 1_555
C29 O4 1_555 1_555
C30 C29 1_555 1_555
C31 C30 1_555 1_555
H33 C31 1_555 1_555
H34 C31 1_555 1_555
C32 C31 1_555 1_555
H35 C32 1_555 1_555
H36 C32 1_555 1_555
C33 C32 1_555 1_555
H37 C33 1_555 1_555
H38 C33 1_555 1_555
C34 C29 1_555 1_555
H39 C34 1_555 1_555
C35 C34 1_555 1_555
H40 C35 1_555 1_555
H41 C35 1_555 1_555
C36 C35 1_555 1_555
H42 C36 1_555 1_555
H43 C36 1_555 1_555
C37 C30 1_555 1_555
H44 C37 1_555 1_555
H45 C37 1_555 1_555
N3 C30 1_555 1_555
H46 N3 1_555 1_555
C38 N3 1_555 1_555
O6 C38 1_555 1_555
N4 C38 1_555 1_555
H47 N4 1_555 1_555
C39 N4 1_555 1_555
H48 C39 1_555 1_555
H49 C39 1_555 1_555
C40 C39 1_555 1_555
H50 C40 1_555 1_555
H51 C40 1_555 1_555
C41 C40 1_555 1_555
H52 C41 1_555 1_555
H53 C41 1_555 1_555
C42 C41 1_555 1_555
H54 C42 1_555 1_555
H55 C42 1_555 1_555
C43 C42 1_555 1_555
H56 C43 1_555 1_555
H57 C43 1_555 1_555
C44 C43 1_555 1_555
H58 C44 1_555 1_555
H59 C44 1_555 1_555
H60 C44 1_555 1_555
C45 C28 1_555 1_555
C46 C45 1_555 1_555
H61 C46 1_555 1_555
C47 C46 1_555 1_555
C48 C47 1_555 1_555
C49 C48 1_555 1_555
H62 C49 1_555 1_555
C50 C1 1_555 1_555
O7 C47 1_555 1_555
O8 C48 1_555 1_555
C51 O7 1_555 1_555
C52 C51 1_555 1_555
C53 C52 1_555 1_555
H63 C53 1_555 1_555
H64 C53 1_555 1_555
C54 C53 1_555 1_555
H65 C54 1_555 1_555
H66 C54 1_555 1_555
C55 C54 1_555 1_555
H67 C55 1_555 1_555
H68 C55 1_555 1_555
C56 C51 1_555 1_555
H69 C56 1_555 1_555
C57 C56 1_555 1_555
H70 C57 1_555 1_555
H71 C57 1_555 1_555
C58 C57 1_555 1_555
H72 C58 1_555 1_555
H73 C58 1_555 1_555
C59 C52 1_555 1_555
H74 C59 1_555 1_555
H75 C59 1_555 1_555
N5 C52 1_555 1_555
H76 N5 1_555 1_555
C60 N5 1_555 1_555
O9 C60 1_555 1_555
N6 C60 1_555 1_555
H77 N6 1_555 1_555
C61 N6 1_555 1_555
H78 C61 1_555 1_555
H79 C61 1_555 1_555
C62 C61 1_555 1_555
H80 C62 1_555 1_555
H81 C62 1_555 1_555
C63 C62 1_555 1_555
H82 C63 1_555 1_555
H83 C63 1_555 1_555
C64 C63 1_555 1_555
H84 C64 1_555 1_555
H85 C64 1_555 1_555
C65 C64 1_555 1_555
H86 C65 1_555 1_555
H87 C65 1_555 1_555
C66 C65 1_555 1_555
H88 C66 1_555 1_555
H89 C66 1_555 1_555
H90 C66 1_555 1_555
N7 C67 1_555 1_555
C67 H91 1_555 1_555
H92 C67 1_555 1_555
H93 C67 1_555 1_555
C68 N7 1_555 1_555
H94 C68 1_555 1_555
N8 C68 1_555 1_555
C69 N8 1_555 1_555
N9 C69 1_555 1_555
C70 N9 1_555 1_555
H95 C70 1_555 1_555
H96 C70 1_555 1_555
H97 C70 1_555 1_555
C71 N9 1_555 1_555
O10 C71 1_555 1_555
N10 C71 1_555 1_555
C72 N10 1_555 1_555
H98 C72 1_555 1_555
H99 C72 1_555 1_555
H100 C72 1_555 1_555
C73 N10 1_555 1_555
O11 C73 1_555 1_555
C74 N7 1_555 1_555
O12 H101 1_555 1_555
C75 O12 1_555 1_555
H102 C75 1_555 1_555
H103 C75 1_555 1_555
H104 C75 1_555 1_555
O13 H105 1_555 1_555
C76 O13 1_555 1_555
H106 C76 1_555 1_555
H107 C76 1_555 1_555
H108 C76 1_555 1_555
O14 H109 1_555 1_555
C77 O14 1_555 1_555
H110 C77 1_555 1_555
H111 C77 1_555 1_555
H112 C77 1_555 1_555
O15 H113 1_555 1_555
C78 O15 1_555 1_555
H114 C78 1_555 1_555
H115 C78 1_555 1_555
H116 C78 1_555 1_555
C5 C6 1_555 1_555
O2 C7 1_555 1_555
C11 C12 1_555 1_555
C14 C15 1_555 1_555
C27 C28 1_555 1_555
O5 C29 1_555 1_555
C33 C34 1_555 1_555
C36 C37 1_555 1_555
C45 C50 1_555 1_555
C49 C50 1_555 1_555
O8 C51 1_555 1_555
C55 C56 1_555 1_555
C58 C59 1_555 1_555
C69 C74 1_555 1_555
C73 C74 1_555 1_555

#END
