
#######################################################################
#
#                 Cambridge Crystallographic Data Centre
#                                CCDC 
#
#######################################################################
#
# If this CIF has been generated from an entry in the Cambridge 
# Structural Database, then it will include bibliographic, chemical, 
# crystal, experimental, refinement or atomic coordinate data resulting 
# from the CCDC's data processing and validation procedures.
#
#######################################################################

data_WEWTUP
_chemical_formula_moiety         'C9 H10 O3'
_chemical_name_systematic        '(R,R,R,S)-Methyl hydroxy(phenyl)acetate'
_symmetry_cell_setting           monoclinic
_symmetry_space_group_name_H-M   'P 21'
_symmetry_Int_Tables_number      4
_space_group_name_Hall           'P 2yb'
loop_
_symmetry_equiv_pos_site_id
_symmetry_equiv_pos_as_xyz
1 x,y,z
2 -x,1/2+y,-z
_cell_length_a                   11.0955(9)
_cell_length_b                   7.8081(5)
_cell_length_c                   19.7538(16)
_cell_angle_alpha                90
_cell_angle_beta                 104.259(5)
_cell_angle_gamma                90
_cell_volume                     1658.64
_exptl_crystal_colour            colorless
_exptl_crystal_description       needle
_cell_formula_units_Z            8
loop_
_atom_site_label
_atom_site_type_symbol
_atom_site_fract_x
_atom_site_fract_y
_atom_site_fract_z
O1 O 0.8125(2) 0.3211(3) 0.29190(10)
O2 O 1.02660(10) 0.3244(3) 0.38600(10)
O3 O 0.94180(10) 0.4336(3) 0.46810(10)
C1 C 0.7702(2) 0.5830(3) 0.34980(10)
C2 C 0.8228(2) 0.6933(3) 0.30990(10)
C3 C 0.7912(2) 0.8659(3) 0.30540(10)
C4 C 0.7050(2) 0.9281(3) 0.34010(10)
C5 C 0.6522(2) 0.8171(3) 0.37950(10)
C6 C 0.6850(2) 0.6443(3) 0.38520(10)
C7 C 0.8075(2) 0.3949(3) 0.35600(10)
C8 C 0.9371(2) 0.3785(3) 0.40360(10)
C9 C 1.0625(2) 0.4300(4) 0.51630(10)
H1 H 0.72987 0.32929 0.26228
H2 H 0.88958 0.63567 0.28509
H3 H 0.83585 0.95133 0.27601
H4 H 0.68293 1.0632 0.33491
H5 H 0.58103 0.85988 0.40448
H6 H 0.64167 0.56422 0.41716
H7 H 0.74588 0.32304 0.38151
H8 H 1.13178 0.50366 0.49757
H9 H 1.08905 0.29524 0.52507
H10 H 1.04718 0.49745 0.56202
O4 O 1.0510(2) 0.2934(2) 0.25040(10)
O5 O 1.15520(10) 0.4085(2) 0.15370(10)
O6 O 0.97610(10) 0.3998(2) 0.07180(10)
C10 C 0.9349(2) 0.1057(3) 0.15870(10)
C11 C 0.8213(2) 0.0750(3) 0.11290(10)
C12 C 0.7839(2) -0.0919(3) 0.09350(10)
C13 C 0.8606(2) -0.2290(3) 0.12050(10)
C14 C 0.9749(3) -0.1978(3) 0.1650(2)
C15 C 1.0123(2) -0.0307(3) 0.18450(10)
C16 C 0.9741(2) 0.2879(3) 0.18270(10)
C17 C 1.0473(2) 0.3711(3) 0.13550(10)
C18 C 1.0360(3) 0.4860(4) 0.02520(10)
H11 H 0.99964 0.28771 0.28306
H12 H 0.76088 0.18171 0.09268
H13 H 0.69625 -0.11614 0.05631
H14 H 0.83657 -0.3572 0.10096
H15 H 1.02623 -0.31041 0.18755
H16 H 1.10099 -0.01778 0.22219
H17 H 0.88993 0.36595 0.17739
H18 H 1.11093 0.41252 0.01182
H19 H 1.07597 0.60958 0.04535
H20 H 0.97427 0.48398 -0.02737
O7 O 0.5422(2) 0.3224(2) 0.24530(10)
O8 O 0.65830(10) 0.4074(2) 0.14980(10)
O9 O 0.48140(10) 0.4131(2) 0.06600(10)
C19 C 0.4369(2) 0.1191(3) 0.15640(10)
C20 C 0.3173(2) 0.0728(3) 0.12270(10)
C21 C 0.2868(2) -0.0983(3) 0.10970(10)
C22 C 0.3768(3) -0.2244(3) 0.1295(2)
C23 C 0.4977(3) -0.1781(3) 0.1628(2)
C24 C 0.5271(2) -0.0059(3) 0.17560(10)
C25 C 0.4700(2) 0.3049(3) 0.17620(10)
C26 C 0.5487(2) 0.3800(3) 0.13030(10)
C27 C 0.5492(2) 0.4929(3) 0.02080(10)
H21 H 0.49026 0.30575 0.27713
H22 H 0.25004 0.17545 0.10926
H23 H 0.19392 -0.13709 0.08235
H24 H 0.35492 -0.35828 0.11865
H25 H 0.56795 -0.27565 0.17969
H26 H 0.62152 0.02835 0.20199
H27 H 0.38191 0.37579 0.16634
H28 H 0.62824 0.41386 0.0161
H29 H 0.58821 0.6192 0.03751
H30 H 0.47707 0.49563 -0.02831
O10 O 0.31760(10) 0.2779(2) 0.29540(10)
O11 O 0.53420(10) 0.2572(3) 0.38720(10)
O12 O 0.44780(10) 0.1560(2) 0.47020(10)
C28 C 0.2728(2) 0.0120(3) 0.35000(10)
C29 C 0.1866(2) -0.0495(3) 0.38410(10)
C30 C 0.1487(2) -0.2198(3) 0.37580(10)
C31 C 0.1961(2) -0.3282(3) 0.33320(10)
C32 C 0.2834(2) -0.2664(3) 0.29930(10)
C33 C 0.3217(2) -0.0964(3) 0.30760(10)
C34 C 0.3140(2) 0.1982(3) 0.35860(10)
C35 C 0.4446(2) 0.2087(3) 0.40590(10)
C36 C 0.5678(2) 0.1579(3) 0.51840(10)
H31 H 0.151 0.03593 0.41779
H32 H 0.07989 -0.26681 0.40172
H33 H 0.16538 -0.45965 0.32406
H34 H 0.31806 -0.36082 0.26865
H35 H 0.38736 -0.05036 0.27936
H36 H 0.25388 0.26433 0.38681
H37 H 0.6073 0.28704 0.52238
H38 H 0.63135 0.07399 0.49938
H39 H 0.56013 0.11529 0.57001
H40 H 0.23605 0.28913 0.26481
loop_
_geom_bond_atom_site_label_1
_geom_bond_atom_site_label_2
_geom_bond_site_symmetry_1
_geom_bond_site_symmetry_2
O1 C7 1_555 1_555
O2 C8 1_555 1_555
O3 C8 1_555 1_555
C1 C2 1_555 1_555
C2 C3 1_555 1_555
C3 C4 1_555 1_555
C4 C5 1_555 1_555
C5 C6 1_555 1_555
C6 C1 1_555 1_555
C7 C1 1_555 1_555
C8 C7 1_555 1_555
C9 O3 1_555 1_555
H1 O1 1_555 1_555
H2 C2 1_555 1_555
H3 C3 1_555 1_555
H4 C4 1_555 1_555
H5 C5 1_555 1_555
H6 C6 1_555 1_555
H7 C7 1_555 1_555
H8 C9 1_555 1_555
H9 C9 1_555 1_555
H10 C9 1_555 1_555
O4 C16 1_555 1_555
O5 C17 1_555 1_555
O6 C17 1_555 1_555
C10 C11 1_555 1_555
C11 C12 1_555 1_555
C12 C13 1_555 1_555
C13 C14 1_555 1_555
C14 C15 1_555 1_555
C15 C10 1_555 1_555
C16 C10 1_555 1_555
C17 C16 1_555 1_555
C18 O6 1_555 1_555
H11 O4 1_555 1_555
H12 C11 1_555 1_555
H13 C12 1_555 1_555
H14 C13 1_555 1_555
H15 C14 1_555 1_555
H16 C15 1_555 1_555
H17 C16 1_555 1_555
H18 C18 1_555 1_555
H19 C18 1_555 1_555
H20 C18 1_555 1_555
O7 C25 1_555 1_555
O8 C26 1_555 1_555
O9 C26 1_555 1_555
C19 C20 1_555 1_555
C20 C21 1_555 1_555
C21 C22 1_555 1_555
C22 C23 1_555 1_555
C23 C24 1_555 1_555
C24 C19 1_555 1_555
C25 C19 1_555 1_555
C26 C25 1_555 1_555
C27 O9 1_555 1_555
H21 O7 1_555 1_555
H22 C20 1_555 1_555
H23 C21 1_555 1_555
H24 C22 1_555 1_555
H25 C23 1_555 1_555
H26 C24 1_555 1_555
H27 C25 1_555 1_555
H28 C27 1_555 1_555
H29 C27 1_555 1_555
H30 C27 1_555 1_555
O10 C34 1_555 1_555
O11 C35 1_555 1_555
O12 C35 1_555 1_555
C28 C29 1_555 1_555
C29 C30 1_555 1_555
C30 C31 1_555 1_555
C31 C32 1_555 1_555
C32 C33 1_555 1_555
C33 C28 1_555 1_555
C34 C28 1_555 1_555
C35 C34 1_555 1_555
C36 O12 1_555 1_555
H31 C29 1_555 1_555
H32 C30 1_555 1_555
H33 C31 1_555 1_555
H34 C32 1_555 1_555
H35 C33 1_555 1_555
H36 C34 1_555 1_555
H37 C36 1_555 1_555
H38 C36 1_555 1_555
H39 C36 1_555 1_555
H40 O10 1_555 1_555

#END
