
#######################################################################
#
#                 Cambridge Crystallographic Data Centre
#                                CCDC 
#
#######################################################################
#
# If this CIF has been generated from an entry in the Cambridge 
# Structural Database, then it will include bibliographic, chemical, 
# crystal, experimental, refinement or atomic coordinate data resulting 
# from the CCDC's data processing and validation procedures.
#
#######################################################################

data_WEWVAX
_chemical_formula_moiety         'C9 H10 O3'
_chemical_name_systematic        '(S)-Methyl hydroxy(phenyl)acetate'
_symmetry_cell_setting           monoclinic
_symmetry_space_group_name_H-M   'P 21'
_symmetry_Int_Tables_number      4
_space_group_name_Hall           'P 2yb'
loop_
_symmetry_equiv_pos_site_id
_symmetry_equiv_pos_as_xyz
1 x,y,z
2 -x,1/2+y,-z
_cell_length_a                   7.8825(4)
_cell_length_b                   20.1054(11)
_cell_length_c                   10.7516(5)
_cell_angle_alpha                90
_cell_angle_beta                 91.033(3)
_cell_angle_gamma                90
_cell_volume                     1703.65
_exptl_crystal_colour            colorless
_exptl_crystal_description       plate
_cell_formula_units_Z            8
loop_
_atom_site_label
_atom_site_type_symbol
_atom_site_fract_x
_atom_site_fract_y
_atom_site_fract_z
O1 O 0.2599(2) 0.4309(2) 0.0349(2)
O2 O 0.1999(2) 0.33220(10) 0.19020(10)
O3 O 0.2385(3) 0.25690(10) 0.0394(2)
C1 C 0.5030(3) 0.36230(10) -0.0151(2)
C2 C 0.6068(4) 0.3797(2) 0.0862(2)
C3 C 0.7810(4) 0.3788(2) 0.0764(2)
C4 C 0.8555(4) 0.3604(2) -0.0361(3)
C5 C 0.7520(4) 0.3424(2) -0.1365(2)
C6 C 0.5762(3) 0.3431(2) -0.1259(2)
C7 C 0.3114(3) 0.36780(10) -0.0067(2)
C8 C 0.2449(3) 0.31800(10) 0.0859(2)
C9 C 0.1732(5) 0.2066(2) 0.1208(3)
H1 H 0.32433 0.46458 -0.00644
H2 H 0.55037 0.39306 0.17379
H3 H 0.86275 0.39242 0.15425
H4 H 0.99203 0.36033 -0.04485
H5 H 0.80775 0.32667 -0.22293
H6 H 0.49832 0.32841 -0.20515
H7 H 0.25355 0.35734 -0.0983
H8 H 0.26247 0.19889 0.19866
H9 H 0.16199 0.15966 0.06971
H10 H 0.04863 0.22114 0.15516
O4 O 0.2269(3) 0.42070(10) 0.5352(2)
O5 O 0.1485(3) 0.33740(10) 0.7124(2)
O6 O 0.2269(3) 0.24870(10) 0.6021(2)
C10 C 0.4571(3) 0.34400(10) 0.4851(2)
C11 C 0.5788(4) 0.3832(2) 0.5448(2)
C12 C 0.7486(4) 0.3754(2) 0.5195(3)
C13 C 0.7998(4) 0.3279(2) 0.4329(3)
C14 C 0.6781(4) 0.2880(2) 0.3746(2)
C15 C 0.5075(4) 0.2958(2) 0.4006(2)
C16 C 0.2687(4) 0.35440(10) 0.5086(2)
C17 C 0.2081(3) 0.3135(2) 0.6196(2)
C18 C 0.1750(5) 0.2069(2) 0.7044(3)
H11 H 0.22835 0.44666 0.46018
H12 H 0.54072 0.41992 0.61239
H13 H 0.84498 0.40533 0.56565
H14 H 0.93215 0.32197 0.41032
H15 H 0.71683 0.25085 0.30795
H16 H 0.41447 0.26388 0.35541
H17 H 0.19617 0.33844 0.42574
H18 H 0.24706 0.21986 0.78899
H19 H 0.19827 0.15443 0.68358
H20 H 0.03976 0.21367 0.72191
O7 O 0.7755(2) -0.03640(10) 0.70550(10)
O8 O 0.7063(2) 0.06600(10) 0.55600(10)
O9 O 0.7428(3) 0.13730(10) 0.7142(2)
C19 C 1.0141(3) 0.03380(10) 0.7670(2)
C20 C 1.0843(3) 0.0546(2) 0.8806(2)
C21 C 1.2570(4) 0.0584(2) 0.8988(2)
C22 C 1.3643(4) 0.0422(2) 0.8007(2)
C23 C 1.2953(4) 0.0213(2) 0.6869(2)
C24 C 1.1212(3) 0.0175(2) 0.6703(2)
C25 C 0.8232(3) 0.02640(10) 0.7520(2)
C26 C 0.7516(3) 0.0777(2) 0.6607(2)
C27 C 0.6708(5) 0.1889(2) 0.6372(3)
H21 H 1.00124 0.06749 0.95589
H22 H 1.31049 0.07362 0.98772
H23 H 1.5005 0.04454 0.81484
H24 H 1.37923 0.00783 0.61252
H25 H 1.07166 0.00158 0.58055
H26 H 0.76461 0.03334 0.84305
H27 H 0.75129 0.19574 0.55628
H28 H 0.66423 0.2356 0.68919
H29 H 0.54416 0.17416 0.60416
H30 H 0.77777 -0.07191 0.76537
O10 O 0.7246(3) -0.01710(10) 0.2335(2)
O11 O 0.6710(2) 0.06160(10) 0.04290(10)
O12 O 0.7291(3) 0.15250(10) 0.1539(2)
C28 C 0.9656(3) 0.0561(2) 0.2765(2)
C29 C 1.0794(4) 0.0146(2) 0.2169(3)
C30 C 1.2519(4) 0.0196(2) 0.2419(3)
C31 C 1.3126(4) 0.0666(2) 0.3268(3)
C32 C 1.1992(4) 0.1087(2) 0.3858(3)
C33 C 1.0271(4) 0.1036(2) 0.3605(2)
C34 C 0.7761(3) 0.04870(10) 0.2534(2)
C35 C 0.7193(3) 0.0877(2) 0.1381(2)
C36 C 0.6817(4) 0.1924(2) 0.0467(3)
H31 H 0.7472 -0.04654 0.30218
H32 H 1.03292 -0.02212 0.15108
H33 H 1.33921 -0.01325 0.19532
H34 H 1.44798 0.06974 0.34449
H35 H 1.24698 0.14383 0.45422
H36 H 0.93864 0.13649 0.40567
H37 H 0.71035 0.06832 0.33478
H38 H 0.7616 0.17902 -0.0316
H39 H 0.69829 0.24526 0.06843
H40 H 0.54904 0.18265 0.02091
loop_
_geom_bond_atom_site_label_1
_geom_bond_atom_site_label_2
_geom_bond_site_symmetry_1
_geom_bond_site_symmetry_2
O1 C7 1_555 1_555
O2 C8 1_555 1_555
O3 C8 1_555 1_555
C1 C2 1_555 1_555
C2 C3 1_555 1_555
C3 C4 1_555 1_555
C4 C5 1_555 1_555
C5 C6 1_555 1_555
C6 C1 1_555 1_555
C7 C1 1_555 1_555
C8 C7 1_555 1_555
C9 O3 1_555 1_555
H1 O1 1_555 1_555
H2 C2 1_555 1_555
H3 C3 1_555 1_555
H4 C4 1_555 1_555
H5 C5 1_555 1_555
H6 C6 1_555 1_555
H7 C7 1_555 1_555
H8 C9 1_555 1_555
H9 C9 1_555 1_555
H10 C9 1_555 1_555
O4 C16 1_555 1_555
O5 C17 1_555 1_555
O6 C17 1_555 1_555
C10 C11 1_555 1_555
C11 C12 1_555 1_555
C12 C13 1_555 1_555
C13 C14 1_555 1_555
C14 C15 1_555 1_555
C15 C10 1_555 1_555
C16 C10 1_555 1_555
C17 C16 1_555 1_555
C18 O6 1_555 1_555
H11 O4 1_555 1_555
H12 C11 1_555 1_555
H13 C12 1_555 1_555
H14 C13 1_555 1_555
H15 C14 1_555 1_555
H16 C15 1_555 1_555
H17 C16 1_555 1_555
H18 C18 1_555 1_555
H19 C18 1_555 1_555
H20 C18 1_555 1_555
O7 C25 1_555 1_555
O8 C26 1_555 1_555
O9 C26 1_555 1_555
C19 C20 1_555 1_555
C20 C21 1_555 1_555
C21 C22 1_555 1_555
C22 C23 1_555 1_555
C23 C24 1_555 1_555
C24 C19 1_555 1_555
C25 C19 1_555 1_555
C26 C25 1_555 1_555
C27 O9 1_555 1_555
H21 C20 1_555 1_555
H22 C21 1_555 1_555
H23 C22 1_555 1_555
H24 C23 1_555 1_555
H25 C24 1_555 1_555
H26 C25 1_555 1_555
H27 C27 1_555 1_555
H28 C27 1_555 1_555
H29 C27 1_555 1_555
H30 O7 1_555 1_555
O10 C34 1_555 1_555
O11 C35 1_555 1_555
O12 C35 1_555 1_555
C28 C29 1_555 1_555
C29 C30 1_555 1_555
C30 C31 1_555 1_555
C31 C32 1_555 1_555
C32 C33 1_555 1_555
C33 C28 1_555 1_555
C34 C28 1_555 1_555
C35 C34 1_555 1_555
C36 O12 1_555 1_555
H31 O10 1_555 1_555
H32 C29 1_555 1_555
H33 C30 1_555 1_555
H34 C31 1_555 1_555
H35 C32 1_555 1_555
H36 C33 1_555 1_555
H37 C34 1_555 1_555
H38 C36 1_555 1_555
H39 C36 1_555 1_555
H40 C36 1_555 1_555

#END
