
#######################################################################
#
#                 Cambridge Crystallographic Data Centre
#                                CCDC 
#
#######################################################################
#
# If this CIF has been generated from an entry in the Cambridge 
# Structural Database, then it will include bibliographic, chemical, 
# crystal, experimental, refinement or atomic coordinate data resulting 
# from the CCDC's data processing and validation procedures.
#
#######################################################################

data_WEWWAZ01
_chemical_formula_moiety         'C17 H17 Cl1 N4 O1'
_chemical_name_systematic        
2-chloro-5-{4-[(morpholin-4-yl)methyl]phenyl}[1,2,4]triazolo[1,5-a]pyridine
_symmetry_cell_setting           monoclinic
_symmetry_space_group_name_H-M   'C 2/c'
_symmetry_Int_Tables_number      15
_space_group_name_Hall           '-C 2yn'
loop_
_symmetry_equiv_pos_site_id
_symmetry_equiv_pos_as_xyz
1 x,y,z
2 -x,y,1/2-z
3 1/2+x,1/2+y,z
4 1/2-x,1/2+y,1/2-z
5 -x,-y,-z
6 x,-y,1/2+z
7 1/2-x,1/2-y,-z
8 1/2+x,1/2-y,1/2+z
_cell_length_a                   19.036(9)
_cell_length_b                   6.927(3)
_cell_length_c                   25.712(12)
_cell_angle_alpha                90
_cell_angle_beta                 103.090(9)
_cell_angle_gamma                90
_cell_volume                     3302.35
_exptl_crystal_colour            colorless
_exptl_crystal_description       block
_cell_formula_units_Z            8
loop_
_atom_site_label
_atom_site_type_symbol
_atom_site_fract_x
_atom_site_fract_y
_atom_site_fract_z
Cl1 Cl 0.28552(5) 0.37088(15) 0.44383(5)
O1 O 0.6260(6) 1.0312(13) 0.2232(4)
N1 N 0.34181(12) 0.0142(3) 0.45483(9)
N2 N 0.40751(11) 0.2477(3) 0.42375(8)
N3 N 0.44311(11) 0.0739(3) 0.42837(7)
N4 N 0.6341(7) 0.6633(16) 0.2693(5)
C1 C 0.34880(14) 0.1976(4) 0.44032(11)
C2 C 0.51028(13) 0.0401(3) 0.41761(9)
C3 C 0.53621(16) -0.1427(4) 0.42769(10)
H1 H 0.5816 -0.1722 0.4222
C4 C 0.49632(18) -0.2886(4) 0.44624(11)
H2 H 0.5155 -0.4123 0.4520
C5 C 0.43070(18) -0.2516(4) 0.45573(10)
H3 H 0.4046 -0.3487 0.4678
C6 C 0.40260(15) -0.0635(4) 0.44710(9)
C7 C 0.5510(5) 0.1801(15) 0.3947(4)
C8 C 0.6249(6) 0.2030(15) 0.4137(4)
H4 H 0.6485 0.1385 0.4445
C9 C 0.6635(3) 0.3221(13) 0.3868(4)
H5 H 0.7130 0.3374 0.3996
C10 C 0.6283(3) 0.4184(17) 0.3409(5)
C11 C 0.5544(3) 0.396(2) 0.3218(4)
H6 H 0.5308 0.4600 0.2911
C12 C 0.5157(3) 0.2764(18) 0.3487(4)
H7 H 0.4663 0.2611 0.3360
C13 C 0.6745(3) 0.5241(10) 0.3087(3)
H8 H 0.7125 0.5928 0.3333
H9 H 0.6971 0.4295 0.2900
C14 C 0.6216(4) 0.8405(14) 0.2958(3)
H10 H 0.6673 0.8925 0.3152
H11 H 0.5925 0.8130 0.3214
C15 C 0.5835(5) 0.9885(11) 0.2560(3)
H12 H 0.5380 0.9369 0.2359
H13 H 0.5736 1.1038 0.2745
C16 C 0.6353(8) 0.880(3) 0.1910(6)
H14 H 0.6648 0.9201 0.1667
H15 H 0.5891 0.8366 0.1701
C17 C 0.6750(4) 0.7077(12) 0.2296(3)
H16 H 0.6784 0.5936 0.2085
H17 H 0.7234 0.7471 0.2472
O2? O 0.6527(6) 0.8362(19) 0.1802(4)
N5? N 0.6309(7) 0.7258(15) 0.2806(5)
C18? C 0.5454(5) 0.2112(12) 0.3948(4)
C19? C 0.6192(5) 0.2337(15) 0.4145(3)
H18? H 0.6437 0.1528 0.4414
C20? C 0.6562(4) 0.3771(19) 0.3940(2)
H19? H 0.7056 0.3922 0.4071
C21? C 0.6195(4) 0.498(2) 0.3537(3)
C22? C 0.5457(4) 0.4755(18) 0.3341(3)
H20? H 0.5211 0.5564 0.3071
C23? C 0.5086(4) 0.3321(14) 0.3546(3)
H21? H 0.4593 0.3171 0.3414
C24? C 0.6594(4) 0.6696(11) 0.3364(2)
H22? H 0.6560 0.7790 0.3593
H23? H 0.7101 0.6369 0.3413
C25? C 0.6537(4) 0.9266(10) 0.2717(3)
H24? H 0.7057 0.9383 0.2832
H25? H 0.6318 1.0170 0.2922
C26? C 0.6271(10) 0.975(2) 0.2064(6)
H26? H 0.5749 0.9784 0.1958
H27? H 0.6456 1.0995 0.1985
C27? C 0.6270(5) 0.6626(14) 0.1864(3)
H28? H 0.6431 0.5713 0.1630
H29? H 0.5747 0.6656 0.1772
C28? C 0.6533(6) 0.5998(13) 0.2442(3)
H30? H 0.6353 0.4711 0.2484
H31? H 0.7056 0.5936 0.2526
loop_
_geom_bond_atom_site_label_1
_geom_bond_atom_site_label_2
_geom_bond_site_symmetry_1
_geom_bond_site_symmetry_2
Cl1 C1 1_555 1_555
O1 C15 1_555 1_555
N1 C1 1_555 1_555
N2 N3 1_555 1_555
N3 C2 1_555 1_555
N4 C13 1_555 1_555
C1 N2 1_555 1_555
C2 C3 1_555 1_555
C3 H1 1_555 1_555
C4 C3 1_555 1_555
H2 C4 1_555 1_555
C5 C4 1_555 1_555
H3 C5 1_555 1_555
C6 N1 1_555 1_555
C7 C2 1_555 1_555
C8 C7 1_555 1_555
H4 C8 1_555 1_555
C9 C8 1_555 1_555
H5 C9 1_555 1_555
C10 C9 1_555 1_555
C11 C10 1_555 1_555
H6 C11 1_555 1_555
C12 C7 1_555 1_555
H7 C12 1_555 1_555
C13 C10 1_555 1_555
H8 C13 1_555 1_555
H9 C13 1_555 1_555
C14 N4 1_555 1_555
H10 C14 1_555 1_555
H11 C14 1_555 1_555
C15 C14 1_555 1_555
H12 C15 1_555 1_555
H13 C15 1_555 1_555
C16 O1 1_555 1_555
H14 C16 1_555 1_555
H15 C16 1_555 1_555
C17 N4 1_555 1_555
H16 C17 1_555 1_555
H17 C17 1_555 1_555
N3 C6 1_555 1_555
C5 C6 1_555 1_555
C11 C12 1_555 1_555
C16 C17 1_555 1_555

#END
