
#######################################################################
#
#                 Cambridge Crystallographic Data Centre
#                                CCDC 
#
#######################################################################
#
# If this CIF has been generated from an entry in the Cambridge 
# Structural Database, then it will include bibliographic, chemical, 
# crystal, experimental, refinement or atomic coordinate data resulting 
# from the CCDC's data processing and validation procedures.
#
#######################################################################

data_WEWWED
_chemical_formula_moiety         'C17 H17 Br1 N4 O1'
_chemical_name_systematic        
2-bromo-5-{4-[(morpholin-4-yl)methyl]phenyl}[1,2,4]triazolo[1,5-a]pyridine
_symmetry_cell_setting           triclinic
_symmetry_space_group_name_H-M   'P -1'
_symmetry_Int_Tables_number      2
_space_group_name_Hall           '-P 1'
loop_
_symmetry_equiv_pos_site_id
_symmetry_equiv_pos_as_xyz
1 x,y,z
2 -x,-y,-z
_cell_length_a                   10.119(4)
_cell_length_b                   13.630(6)
_cell_length_c                   25.370(9)
_cell_angle_alpha                97.424(10)
_cell_angle_beta                 95.257(10)
_cell_angle_gamma                109.834(10)
_cell_volume                     3229.32
_exptl_crystal_colour            colorless
_exptl_crystal_description       block
_cell_formula_units_Z            8
loop_
_atom_site_label
_atom_site_type_symbol
_atom_site_fract_x
_atom_site_fract_y
_atom_site_fract_z
Br1 Br -0.38273(6) 0.72380(5) 0.06658(3)
O1 O 0.5355(5) 0.6753(4) 0.2817(2)
N1 N -0.2701(5) 0.9355(4) 0.0490(2)
N2 N -0.1056(5) 0.8666(3) 0.0798(2)
N3 N -0.0386(5) 0.9698(3) 0.07192(18)
N4 N 0.5008(5) 0.8418(4) 0.2311(2)
C1 C -0.2403(6) 0.8542(5) 0.0657(2)
C2 C 0.1057(6) 1.0238(4) 0.0804(2)
C3 C 0.1477(6) 1.1247(4) 0.0674(2)
H1 H 0.2462 1.1652 0.0713
C4 C 0.0503(6) 1.1688(5) 0.0490(2)
H2 H 0.0841 1.2385 0.0409
C5 C -0.0931(6) 1.1140(4) 0.0422(2)
H3 H -0.1591 1.1448 0.0301
C6 C -0.1398(6) 1.0089(4) 0.0540(2)
C7 C 0.2052(6) 0.9793(4) 0.1048(2)
C8 C 0.1817(6) 0.9372(5) 0.1513(2)
H4 H 0.0938 0.9256 0.1645
C9 C 0.2897(6) 0.9118(5) 0.1787(3)
H5 H 0.2753 0.8849 0.2112
C10 C 0.4162(6) 0.9252(5) 0.1590(2)
C11 C 0.4339(6) 0.9595(5) 0.1100(2)
H6 H 0.5167 0.9622 0.0945
C12 C 0.3319(6) 0.9897(4) 0.0837(2)
H7 H 0.3474 1.0173 0.0513
C13 C 0.5409(6) 0.9135(5) 0.1921(3)
H8 H 0.5965 0.8870 0.1675
H9 H 0.6035 0.9842 0.2117
C14 C 0.4424(7) 0.7330(5) 0.2053(3)
H10 H 0.5112 0.7168 0.1836
H11 H 0.3547 0.7214 0.1807
C15 C 0.4087(7) 0.6597(6) 0.2455(3)
H12 H 0.3365 0.6733 0.2661
H13 H 0.3689 0.5854 0.2265
C16 C 0.5945(7) 0.7824(5) 0.3096(3)
H14 H 0.6822 0.7925 0.3338
H15 H 0.5259 0.7977 0.3318
C17 C 0.6285(6) 0.8585(5) 0.2693(3)
H16 H 0.6653 0.9324 0.2887
H17 H 0.7032 0.8473 0.2493
Br2 Br 0.89378(6) 1.14971(5) 0.44027(3)
O2 O -0.1354(6) 0.5774(4) 0.17633(19)
N5 N 0.7654(5) 1.3043(4) 0.45287(19)
N6 N 0.6124(5) 1.1340(4) 0.41975(19)
N7 N 0.5393(5) 1.2019(4) 0.42503(18)
N8 N 0.0207(5) 0.6981(4) 0.2771(2)
C18 C 0.7442(6) 1.2014(5) 0.4369(2)
C19 C 0.3924(6) 1.1749(4) 0.4139(2)
C20 C 0.3427(6) 1.2551(5) 0.4237(2)
H18 H 0.2432 1.2397 0.4172
C21 C 0.4327(7) 1.3602(5) 0.4432(2)
H19 H 0.3934 1.4142 0.4490
C22 C 0.5781(7) 1.3857(5) 0.4541(2)
H20 H 0.6395 1.4565 0.4675
C23 C 0.6322(6) 1.3042(4) 0.4447(2)
C24 C 0.3012(6) 1.0623(5) 0.3926(2)
C25 C 0.3395(6) 0.9992(5) 0.3528(2)
H21 H 0.4269 1.0273 0.3394
C26 C 0.2486(6) 0.8949(5) 0.3331(2)
H22 H 0.2753 0.8521 0.3066
C27 C 0.1185(6) 0.8532(5) 0.3521(2)
C28 C 0.0795(6) 0.9170(5) 0.3904(2)
H23 H -0.0102 0.8900 0.4023
C29 C 0.1709(6) 1.0205(5) 0.4115(2)
H24 H 0.1448 1.0623 0.4387
C30 C 0.0266(7) 0.7372(5) 0.3337(3)
H25 H 0.0635 0.6941 0.3553
H26 H -0.0711 0.7270 0.3411
C31 C -0.0325(7) 0.5820(5) 0.2667(3)
H27 H -0.1260 0.5548 0.2792
H28 H 0.0338 0.5568 0.2874
C32 C -0.0471(8) 0.5392(5) 0.2083(3)
H29 H 0.0480 0.5598 0.1968
H30 H -0.0880 0.4609 0.2026
C33 C -0.0797(10) 0.6910(6) 0.1849(3)
H31 H -0.1420 0.7170 0.1626
H32 H 0.0161 0.7160 0.1741
C34 C -0.0714(8) 0.7343(6) 0.2436(3)
H33 H -0.0344 0.8127 0.2492
H34 H -0.1677 0.7108 0.2541
Br3 Br 0.88239(6) 0.62755(5) 0.44674(3)
O3 O -0.0260(5) 0.0215(4) 0.2206(2)
N9 N 0.7767(5) 0.7951(4) 0.45770(19)
N10 N 0.6081(5) 0.6291(4) 0.4267(2)
N11 N 0.5455(5) 0.7045(4) 0.43177(18)
N12 N 0.0067(5) 0.2301(4) 0.27027(19)
C35 C 0.7431(6) 0.6894(5) 0.4435(2)
C36 C 0.4009(6) 0.6847(4) 0.4218(2)
C37 C 0.3621(6) 0.7708(4) 0.4327(2)
H35 H 0.2640 0.7612 0.4276
C38 C 0.4630(6) 0.8743(4) 0.4512(2)
H36 H 0.4317 0.9324 0.4580
C39 C 0.6049(6) 0.8909(4) 0.4594(2)
H37 H 0.6730 0.9603 0.4707
C40 C 0.6473(6) 0.8029(4) 0.4507(2)
C41 C 0.3004(6) 0.5772(4) 0.3978(2)
C42 C 0.3232(6) 0.5230(5) 0.3508(2)
H38 H 0.4117 0.5487 0.3380
C43 C 0.2181(6) 0.4327(5) 0.3232(2)
H39 H 0.2344 0.3975 0.2910
C44 C 0.0874(6) 0.3917(4) 0.3416(2)
C45 C 0.0661(6) 0.4414(4) 0.3897(2)
H40 H -0.0197 0.4119 0.4039
C46 C 0.1714(6) 0.5355(4) 0.4175(2)
H41 H 0.1552 0.5708 0.4497
C47 C -0.0376(6) 0.3018(5) 0.3073(3)
H42 H -0.0975 0.2603 0.3313
H43 H -0.0962 0.3324 0.2862
C48 C 0.0590(7) 0.1622(5) 0.2976(3)
H44 H -0.0145 0.1218 0.3177
H45 H 0.1438 0.2058 0.3238
C49 C 0.0979(8) 0.0854(6) 0.2589(3)
H46 H 0.1744 0.1250 0.2397
H47 H 0.1330 0.0393 0.2789
C50 C -0.0746(7) 0.0873(5) 0.1910(3)
H48 H -0.1584 0.0432 0.1644
H49 H 0.0009 0.1263 0.1713
C51 C -0.1143(6) 0.1658(5) 0.2289(3)
H50 H -0.1447 0.2129 0.2079
H51 H -0.1951 0.1268 0.2464
Br4 Br -0.39592(6) 0.21772(5) 0.04618(3)
O4 O 0.6294(6) 0.3146(4) 0.32253(19)
N13 N -0.2739(5) 0.4352(4) 0.04067(19)
N14 N -0.1168(5) 0.3595(4) 0.0727(2)
N15 N -0.0458(5) 0.4653(4) 0.07051(18)
N16 N 0.4763(5) 0.3038(4) 0.2211(2)
C52 C -0.2480(6) 0.3513(5) 0.0552(2)
C53 C 0.0991(6) 0.5192(4) 0.0830(2)
C54 C 0.1473(6) 0.6223(4) 0.0749(2)
H52 H 0.2464 0.6617 0.0819
C55 C 0.0539(6) 0.6710(4) 0.0566(2)
H53 H 0.0906 0.7432 0.0524
C56 C -0.0883(7) 0.6163(5) 0.0448(2)
H54 H -0.1509 0.6495 0.0323
C57 C -0.1417(6) 0.5079(4) 0.0516(2)
C58 C 0.1926(6) 0.4656(4) 0.1042(2)
C59 C 0.1562(6) 0.4011(5) 0.1434(2)
H55 H 0.0672 0.3883 0.1558
C60 C 0.2491(6) 0.3560(5) 0.1641(2)
H56 H 0.2235 0.3135 0.1910
C61 C 0.3819(6) 0.3725(5) 0.1455(2)
C62 C 0.4169(6) 0.4377(5) 0.1060(3)
H57 H 0.5058 0.4512 0.0933
C63 C 0.3232(6) 0.4816(5) 0.0859(2)
H58 H 0.3479 0.5238 0.0588
C64 C 0.4774(7) 0.3167(5) 0.1645(2)
H59 H 0.4480 0.2459 0.1419
H60 H 0.5757 0.3570 0.1594
C65 C 0.5433(7) 0.2272(5) 0.2310(3)
H61 H 0.6406 0.2514 0.2215
H62 H 0.4884 0.1580 0.2081
C66 C 0.5498(8) 0.2148(6) 0.2892(3)
H63 H 0.4524 0.1883 0.2984
H64 H 0.5952 0.1626 0.2954
C67 C 0.5619(8) 0.3895(6) 0.3144(3)
H65 H 0.6160 0.4580 0.3380
H66 H 0.4647 0.3636 0.3239
C68 C 0.5549(7) 0.4048(5) 0.2559(3)
H67 H 0.5073 0.4561 0.2504
H68 H 0.6522 0.4336 0.2467
loop_
_geom_bond_atom_site_label_1
_geom_bond_atom_site_label_2
_geom_bond_site_symmetry_1
_geom_bond_site_symmetry_2
Br1 C1 1_555 1_555
O1 C15 1_555 1_555
N1 C1 1_555 1_555
N2 N3 1_555 1_555
N3 C2 1_555 1_555
N4 C13 1_555 1_555
C1 N2 1_555 1_555
C2 C3 1_555 1_555
C3 H1 1_555 1_555
C4 C3 1_555 1_555
H2 C4 1_555 1_555
C5 C4 1_555 1_555
H3 C5 1_555 1_555
C6 N1 1_555 1_555
C7 C2 1_555 1_555
C8 C7 1_555 1_555
H4 C8 1_555 1_555
C9 C8 1_555 1_555
H5 C9 1_555 1_555
C10 C9 1_555 1_555
C11 C10 1_555 1_555
H6 C11 1_555 1_555
C12 C7 1_555 1_555
H7 C12 1_555 1_555
C13 C10 1_555 1_555
H8 C13 1_555 1_555
H9 C13 1_555 1_555
C14 N4 1_555 1_555
H10 C14 1_555 1_555
H11 C14 1_555 1_555
C15 C14 1_555 1_555
H12 C15 1_555 1_555
H13 C15 1_555 1_555
C16 O1 1_555 1_555
H14 C16 1_555 1_555
H15 C16 1_555 1_555
C17 N4 1_555 1_555
H16 C17 1_555 1_555
H17 C17 1_555 1_555
Br2 C18 1_555 1_555
O2 C32 1_555 1_555
N5 C18 1_555 1_555
N6 N7 1_555 1_555
N7 C19 1_555 1_555
N8 C30 1_555 1_555
C18 N6 1_555 1_555
C19 C20 1_555 1_555
C20 H18 1_555 1_555
C21 C20 1_555 1_555
H19 C21 1_555 1_555
C22 C21 1_555 1_555
H20 C22 1_555 1_555
C23 N5 1_555 1_555
C24 C19 1_555 1_555
C25 C24 1_555 1_555
H21 C25 1_555 1_555
C26 C25 1_555 1_555
H22 C26 1_555 1_555
C27 C26 1_555 1_555
C28 C27 1_555 1_555
H23 C28 1_555 1_555
C29 C24 1_555 1_555
H24 C29 1_555 1_555
C30 C27 1_555 1_555
H25 C30 1_555 1_555
H26 C30 1_555 1_555
C31 N8 1_555 1_555
H27 C31 1_555 1_555
H28 C31 1_555 1_555
C32 C31 1_555 1_555
H29 C32 1_555 1_555
H30 C32 1_555 1_555
C33 O2 1_555 1_555
H31 C33 1_555 1_555
H32 C33 1_555 1_555
C34 N8 1_555 1_555
H33 C34 1_555 1_555
H34 C34 1_555 1_555
Br3 C35 1_555 1_555
O3 C49 1_555 1_555
N9 C35 1_555 1_555
N10 N11 1_555 1_555
N11 C36 1_555 1_555
N12 C47 1_555 1_555
C35 N10 1_555 1_555
C36 C37 1_555 1_555
C37 H35 1_555 1_555
C38 C37 1_555 1_555
H36 C38 1_555 1_555
C39 C38 1_555 1_555
H37 C39 1_555 1_555
C40 N9 1_555 1_555
C41 C36 1_555 1_555
C42 C41 1_555 1_555
H38 C42 1_555 1_555
C43 C42 1_555 1_555
H39 C43 1_555 1_555
C44 C43 1_555 1_555
C45 C44 1_555 1_555
H40 C45 1_555 1_555
C46 C41 1_555 1_555
H41 C46 1_555 1_555
C47 C44 1_555 1_555
H42 C47 1_555 1_555
H43 C47 1_555 1_555
C48 N12 1_555 1_555
H44 C48 1_555 1_555
H45 C48 1_555 1_555
C49 C48 1_555 1_555
H46 C49 1_555 1_555
H47 C49 1_555 1_555
C50 O3 1_555 1_555
H48 C50 1_555 1_555
H49 C50 1_555 1_555
C51 N12 1_555 1_555
H50 C51 1_555 1_555
H51 C51 1_555 1_555
Br4 C52 1_555 1_555
O4 C66 1_555 1_555
N13 C52 1_555 1_555
N14 N15 1_555 1_555
N15 C53 1_555 1_555
N16 C64 1_555 1_555
C52 N14 1_555 1_555
C53 C54 1_555 1_555
C54 H52 1_555 1_555
C55 C54 1_555 1_555
H53 C55 1_555 1_555
C56 C55 1_555 1_555
H54 C56 1_555 1_555
C57 N13 1_555 1_555
C58 C53 1_555 1_555
C59 C58 1_555 1_555
H55 C59 1_555 1_555
C60 C59 1_555 1_555
H56 C60 1_555 1_555
C61 C60 1_555 1_555
C62 C61 1_555 1_555
H57 C62 1_555 1_555
C63 C58 1_555 1_555
H58 C63 1_555 1_555
C64 C61 1_555 1_555
H59 C64 1_555 1_555
H60 C64 1_555 1_555
C65 N16 1_555 1_555
H61 C65 1_555 1_555
H62 C65 1_555 1_555
C66 C65 1_555 1_555
H63 C66 1_555 1_555
H64 C66 1_555 1_555
C67 O4 1_555 1_555
H65 C67 1_555 1_555
H66 C67 1_555 1_555
C68 N16 1_555 1_555
H67 C68 1_555 1_555
H68 C68 1_555 1_555
N3 C6 1_555 1_555
C5 C6 1_555 1_555
C11 C12 1_555 1_555
C16 C17 1_555 1_555
N7 C23 1_555 1_555
C22 C23 1_555 1_555
C28 C29 1_555 1_555
C33 C34 1_555 1_555
N11 C40 1_555 1_555
C39 C40 1_555 1_555
C45 C46 1_555 1_555
C50 C51 1_555 1_555
N15 C57 1_555 1_555
C56 C57 1_555 1_555
C62 C63 1_555 1_555
C67 C68 1_555 1_555

#END
