
#######################################################################
#
#                 Cambridge Crystallographic Data Centre
#                                CCDC 
#
#######################################################################
#
# If this CIF has been generated from an entry in the Cambridge 
# Structural Database, then it will include bibliographic, chemical, 
# crystal, experimental, refinement or atomic coordinate data resulting 
# from the CCDC's data processing and validation procedures.
#
#######################################################################

data_WEWXEB
_chemical_formula_moiety         'C30 H32'
_chemical_name_systematic        
15,15'-Bis(hexaspiro(2.0.2.0.0.0.2.0.2.1.0.)pentadecylidene)
_symmetry_cell_setting           tetragonal
_symmetry_space_group_name_H-M   'I 41/a'
_symmetry_Int_Tables_number      88
_space_group_name_Hall           '-I 4ad'
loop_
_symmetry_equiv_pos_site_id
_symmetry_equiv_pos_as_xyz
1 x,y,z
2 3/4-y,1/4+x,1/4+z
3 1/2+x,1/2+y,1/2+z
4 1/4-y,3/4+x,3/4+z
5 1/4+y,1/4-x,1/4+z
6 1/2+x,y,1/2-z
7 1/4-y,1/4+x,1/4-z
8 x,1/2+y,-z
9 -x,-y,-z
10 1/4+y,3/4-x,3/4-z
11 1/2-x,1/2-y,1/2-z
12 3/4+y,1/4-x,1/4-z
13 3/4-y,3/4+x,3/4-z
14 1/2-x,-y,1/2+z
15 3/4+y,3/4-x,3/4+z
16 -x,1/2-y,z
_cell_length_a                   23.2931(17)
_cell_length_b                   23.2931(17)
_cell_length_c                   8.8272(5)
_cell_angle_alpha                90
_cell_angle_beta                 90
_cell_angle_gamma                90
_cell_volume                     4789.36
_exptl_crystal_colour            colorless
_exptl_crystal_description       block
_chemical_melting_point          245-246deg.C(dec.)
_cell_formula_units_Z            8
loop_
_atom_site_label
_atom_site_type_symbol
_atom_site_fract_x
_atom_site_fract_y
_atom_site_fract_z
C1 C 0.34763(6) 0.48212(7) -0.21109(15)
H1 H 0.3419 0.4760 -0.3176
H2 H 0.3496 0.5216 -0.1807
C2 C 0.32047(6) 0.43932(7) -0.10109(15)
H3 H 0.3065 0.4537 -0.0060
H4 H 0.2988 0.4080 -0.1429
C3 C 0.38302(6) 0.44015(6) -0.12748(13)
C4 C 0.42786(6) 0.39740(6) -0.15880(13)
C5 C 0.43090(7) 0.33459(7) -0.17831(16)
H5 H 0.3969 0.3150 -0.2116
H6 H 0.4546 0.3133 -0.1094
C6 C 0.46061(7) 0.37498(7) -0.29023(14)
H7 H 0.5017 0.3774 -0.2869
H8 H 0.4440 0.3792 -0.3891
C7 C 0.43638(6) 0.44011(6) -0.03532(13)
C8 C 0.45424(6) 0.44267(6) 0.12737(12)
C9 C 0.42908(6) 0.44607(6) 0.28205(13)
C10 C 0.37162(7) 0.44570(7) 0.35220(15)
H9 H 0.3634 0.4162 0.4251
H10 H 0.3396 0.4573 0.2910
C11 C 0.41574(7) 0.49110(7) 0.39450(15)
H11 H 0.4098 0.5295 0.3582
H12 H 0.4335 0.4884 0.4923
C12 C 0.47541(6) 0.40471(6) 0.24997(13)
C13 C 0.48867(6) 0.34320(7) 0.27022(15)
H13 H 0.4952 0.3205 0.1811
H14 H 0.4704 0.3233 0.3524
C14 C 0.53244(7) 0.38952(7) 0.30913(15)
H15 H 0.5400 0.3968 0.4143
H16 H 0.5648 0.3941 0.2430
C15 C 0.48048(6) 0.48079(6) 0.01551(13)
C15H C 0.51952(6) 0.51921(6) -0.01551(13)
C7H C 0.56362(6) 0.55989(6) 0.03532(13)
C3H C 0.61698(6) 0.55985(6) 0.12748(13)
C1H C 0.65237(6) 0.51788(7) 0.21109(15)
H1H H 0.6581 0.5240 0.3176
H2H H 0.6504 0.4784 0.1807
C2H C 0.67953(6) 0.56068(7) 0.10109(15)
H3H H 0.6935 0.5463 0.0060
H4H H 0.7012 0.5920 0.1429
C4H C 0.57214(6) 0.60260(6) 0.15880(13)
C5H C 0.56910(7) 0.66541(7) 0.17831(16)
H5H H 0.6031 0.6850 0.2116
H6H H 0.5454 0.6867 0.1094
C6H C 0.53939(7) 0.62502(7) 0.29023(14)
C8H C 0.54576(6) 0.55733(6) -0.12737(12)
C9H C 0.57092(6) 0.55393(6) -0.28205(13)
C10H C 0.62838(7) 0.55430(7) -0.35220(15)
H9H H 0.6366 0.5838 -0.4251
H10H H 0.6604 0.5427 -0.2910
C11H C 0.58426(7) 0.50890(7) -0.39450(15)
C12H C 0.52459(6) 0.59529(6) -0.24997(13)
C13H C 0.51133(6) 0.65680(7) -0.27022(15)
H13H H 0.5048 0.6795 -0.1811
H14H H 0.5296 0.6767 -0.3524
C14H C 0.46756(7) 0.61048(7) -0.30913(15)
H15H H 0.4600 0.6032 -0.4143
H16H H 0.4352 0.6059 -0.2430
H11H H 0.5902 0.4705 -0.3582
H12H H 0.5665 0.5116 -0.4923
H7H H 0.4983 0.6226 0.2869
H8H H 0.5560 0.6208 0.3891
loop_
_geom_bond_atom_site_label_1
_geom_bond_atom_site_label_2
_geom_bond_site_symmetry_1
_geom_bond_site_symmetry_2
C1 H1 1_555 1_555
H2 C1 1_555 1_555
C2 C1 1_555 1_555
H3 C2 1_555 1_555
H4 C2 1_555 1_555
C3 C1 1_555 1_555
C4 C3 1_555 1_555
C5 C4 1_555 1_555
H5 C5 1_555 1_555
H6 C5 1_555 1_555
C6 C4 1_555 1_555
H7 C6 1_555 1_555
H8 C6 1_555 1_555
C7 C3 1_555 1_555
C8 C7 1_555 1_555
C9 C8 1_555 1_555
C10 C9 1_555 1_555
H9 C10 1_555 1_555
H10 C10 1_555 1_555
C11 C9 1_555 1_555
H11 C11 1_555 1_555
H12 C11 1_555 1_555
C12 C8 1_555 1_555
C13 C12 1_555 1_555
H13 C13 1_555 1_555
H14 C13 1_555 1_555
C14 C12 1_555 1_555
H15 C14 1_555 1_555
H16 C14 1_555 1_555
C15 C7 1_555 1_555
C15H C15 1_555 1_555
C7H C15H 1_555 1_555
C3H C7H 1_555 1_555
C1H C3H 1_555 1_555
H1H C1H 1_555 1_555
H2H C1H 1_555 1_555
C2H C3H 1_555 1_555
H3H C2H 1_555 1_555
H4H C2H 1_555 1_555
C4H C7H 1_555 1_555
C5H C4H 1_555 1_555
H5H C5H 1_555 1_555
H6H C5H 1_555 1_555
C6H C4H 1_555 1_555
C8H C15H 1_555 1_555
C9H C8H 1_555 1_555
C10H C9H 1_555 1_555
H9H C10H 1_555 1_555
H10H C10H 1_555 1_555
C11H C9H 1_555 1_555
C12H C8H 1_555 1_555
C13H C12H 1_555 1_555
H13H C13H 1_555 1_555
H14H C13H 1_555 1_555
C14H C12H 1_555 1_555
H15H C14H 1_555 1_555
H16H C14H 1_555 1_555
H11H C11H 1_555 1_555
H12H C11H 1_555 1_555
H7H C6H 1_555 1_555
H8H C6H 1_555 1_555
C2 C3 1_555 1_555
C4 C7 1_555 1_555
C5 C6 1_555 1_555
C8 C15 1_555 1_555
C9 C12 1_555 1_555
C10 C11 1_555 1_555
C13 C14 1_555 1_555
C7H C8H 1_555 1_555
C3H C4H 1_555 1_555
C1H C2H 1_555 1_555
C5H C6H 1_555 1_555
C9H C12H 1_555 1_555
C10H C11H 1_555 1_555
C13H C14H 1_555 1_555

#END
