
#######################################################################
#
#                 Cambridge Crystallographic Data Centre
#                                CCDC 
#
#######################################################################
#
# If this CIF has been generated from an entry in the Cambridge 
# Structural Database, then it will include bibliographic, chemical, 
# crystal, experimental, refinement or atomic coordinate data resulting 
# from the CCDC's data processing and validation procedures.
#
#######################################################################

data_WEWYOO
_chemical_formula_moiety         'C16 H18 O4'
_chemical_name_systematic        
'Dimethyl tricyclo[7.2.1.0^2,7^]dodeca-2,4,6-triene-11,11-dicarboxylate'
_symmetry_cell_setting           monoclinic
_symmetry_space_group_name_H-M   'P 21/n'
_symmetry_Int_Tables_number      14
_space_group_name_Hall           '-P 2yn'
loop_
_symmetry_equiv_pos_site_id
_symmetry_equiv_pos_as_xyz
1 x,y,z
2 1/2-x,1/2+y,1/2-z
3 -x,-y,-z
4 1/2+x,1/2-y,1/2+z
_cell_length_a                   7.650(6)
_cell_length_b                   9.093(7)
_cell_length_c                   20.137(14)
_cell_angle_alpha                90
_cell_angle_beta                 91.641(9)
_cell_angle_gamma                90
_cell_volume                     1400.18
_exptl_crystal_colour            colorless
_exptl_crystal_description       Prism
_cell_formula_units_Z            4
loop_
_atom_site_label
_atom_site_type_symbol
_atom_site_fract_x
_atom_site_fract_y
_atom_site_fract_z
O1 O 0.05905(17) 0.50206(15) 0.19385(6)
O2 O 0.03288(16) 0.51467(14) 0.08252(6)
O3 O 0.20878(18) 0.85895(15) 0.04482(7)
O4 O 0.00148(17) 0.84334(14) 0.12160(6)
C1 C 0.2370(2) 0.6759(2) 0.13250(8)
C2 C 0.3984(2) 0.6138(2) 0.09491(9)
H1 H 0.3815 0.6228 0.0467
C3 C 0.4354(2) 0.4563(2) 0.11511(9)
C4 C 0.3926(3) 0.3381(2) 0.07380(10)
H2 H 0.3418 0.3560 0.0321
C5 C 0.4240(3) 0.1941(2) 0.09365(10)
H3 H 0.3958 0.1164 0.0653
C6 C 0.4983(3) 0.1672(2) 0.15644(10)
H4 H 0.5182 0.0711 0.1706
C7 C 0.5425(2) 0.2840(2) 0.19766(9)
H5 H 0.5924 0.2650 0.2394
C8 C 0.5140(2) 0.4291(2) 0.17819(9)
C9 C 0.5699(3) 0.5557(2) 0.22288(10)
H6 H 0.6959 0.5527 0.2294
H7 H 0.5184 0.5424 0.2659
C10 C 0.5176(2) 0.7076(2) 0.19579(9)
H8 H 0.5834 0.7854 0.2191
C11 C 0.3179(2) 0.7346(2) 0.19951(9)
H9 H 0.2935 0.8386 0.2046
H10 H 0.2702 0.6820 0.2368
C12 C 0.5474(2) 0.7136(2) 0.12105(9)
H11 H 0.6612 0.6748 0.1102
H12 H 0.5359 0.8130 0.1039
C13 C 0.1002(2) 0.5555(2) 0.14208(9)
C14 C -0.0815(3) 0.3882(2) 0.08297(10)
H13 H -0.0229 0.3079 0.1051
H14 H -0.1118 0.3604 0.0381
H15 H -0.1859 0.4123 0.1060
C15 C 0.1521(2) 0.8019(2) 0.09342(9)
C16 C -0.0904(3) 0.9632(2) 0.08839(11)
H16 H -0.0112 1.0438 0.0823
H17 H -0.1855 0.9949 0.1150
H18 H -0.1352 0.9305 0.0459
loop_
_geom_bond_atom_site_label_1
_geom_bond_atom_site_label_2
_geom_bond_site_symmetry_1
_geom_bond_site_symmetry_2
O1 C13 1_555 1_555
O2 C13 1_555 1_555
O3 C15 1_555 1_555
O4 C15 1_555 1_555
C1 C2 1_555 1_555
C2 H1 1_555 1_555
C3 C2 1_555 1_555
C4 C3 1_555 1_555
H2 C4 1_555 1_555
C5 C4 1_555 1_555
H3 C5 1_555 1_555
C6 C5 1_555 1_555
H4 C6 1_555 1_555
C7 C6 1_555 1_555
H5 C7 1_555 1_555
C8 C3 1_555 1_555
C9 C8 1_555 1_555
H6 C9 1_555 1_555
H7 C9 1_555 1_555
C10 C9 1_555 1_555
H8 C10 1_555 1_555
C11 C1 1_555 1_555
H9 C11 1_555 1_555
H10 C11 1_555 1_555
C12 C2 1_555 1_555
H11 C12 1_555 1_555
H12 C12 1_555 1_555
C13 C1 1_555 1_555
C14 O2 1_555 1_555
H13 C14 1_555 1_555
H14 C14 1_555 1_555
H15 C14 1_555 1_555
C15 C1 1_555 1_555
C16 O4 1_555 1_555
H16 C16 1_555 1_555
H17 C16 1_555 1_555
H18 C16 1_555 1_555
C7 C8 1_555 1_555
C10 C11 1_555 1_555
C10 C12 1_555 1_555

#END
