
#######################################################################
#
#                 Cambridge Crystallographic Data Centre
#                                CCDC 
#
#######################################################################
#
# If this CIF has been generated from an entry in the Cambridge 
# Structural Database, then it will include bibliographic, chemical, 
# crystal, experimental, refinement or atomic coordinate data resulting 
# from the CCDC's data processing and validation procedures.
#
#######################################################################

data_WEWYUV
_chemical_formula_moiety         'C46 H30 N4'
_chemical_name_systematic        
9-{4-[9-(4,6-diphenyl-1,3,5-triazin-2-yl)-9H-fluoren-9-yl]phenyl}-9H-carbazole
_symmetry_cell_setting           triclinic
_symmetry_space_group_name_H-M   'P -1'
_symmetry_Int_Tables_number      2
_space_group_name_Hall           '-P 1'
loop_
_symmetry_equiv_pos_site_id
_symmetry_equiv_pos_as_xyz
1 x,y,z
2 -x,-y,-z
_cell_length_a                   10.0321(13)
_cell_length_b                   11.8164(17)
_cell_length_c                   15.471(2)
_cell_angle_alpha                90.653(7)
_cell_angle_beta                 93.450(7)
_cell_angle_gamma                113.629(7)
_cell_volume                     1675.91
_exptl_crystal_description       block
_cell_formula_units_Z            2
loop_
_atom_site_label
_atom_site_type_symbol
_atom_site_fract_x
_atom_site_fract_y
_atom_site_fract_z
N1 N 0.63630(15) -0.00506(12) 0.07792(9)
N2 N 0.48867(14) -0.05065(12) 0.19776(9)
N3 N 0.57299(14) 0.15010(12) 0.14072(9)
N4 N 0.73757(15) 0.55492(13) 0.46097(9)
C1 C 0.64099(17) 0.11042(15) 0.08335(11)
C2 C 0.55856(17) -0.08208(15) 0.13660(10)
C3 C 0.41136(17) 0.10351(14) 0.25908(10)
C4 C 0.50280(17) 0.22723(14) 0.30791(10)
C5 C 0.49840(17) 0.06541(15) 0.19595(10)
C6 C 0.72944(17) 0.20090(15) 0.02171(11)
C7 C 0.64932(18) 0.26035(15) 0.33441(11)
H1 H 0.6955 0.2097 0.3185
C8 C 0.54963(18) -0.21087(15) 0.13499(11)
C9 C 0.51344(18) 0.41121(16) 0.38435(11)
H2 H 0.4669 0.4610 0.4014
C10 C 0.65898(18) 0.44323(14) 0.40972(11)
C11 C 0.40623(19) -0.04002(16) 0.38817(11)
H3 H 0.5072 -0.0061 0.3981
C12 C 0.72747(18) 0.36805(15) 0.38436(11)
H4 H 0.8256 0.3897 0.4008
C13 C 0.79949(19) 0.16514(17) -0.04153(11)
H5 H 0.7900 0.0837 -0.0460
C14 C 0.74267(19) 0.32335(16) 0.02704(12)
H6 H 0.6952 0.3476 0.0686
C15 C 0.27575(17) 0.10380(15) 0.20666(10)
C16 C 0.43685(18) 0.30441(15) 0.33329(11)
H7 H 0.3394 0.2842 0.3158
C17 C 0.18841(18) -0.04984(15) 0.30720(11)
C18 C 0.26885(19) 0.17726(16) 0.13972(11)
H8 H 0.3535 0.2373 0.1205
C19 C 0.33988(17) 0.00167(14) 0.32279(10)
C20 C 0.10134(19) -0.14387(15) 0.35804(12)
H9 H 0.0004 -0.1787 0.3477
C21 C 0.14851(18) 0.01273(15) 0.23560(11)
C22 C 0.86326(17) 0.68772(16) 0.57465(11)
C23 C 0.01298(18) -0.00499(17) 0.19611(12)
H10 H -0.0718 -0.0658 0.2146
C24 C 0.4505(2) -0.29997(16) 0.18402(12)
H11 H 0.3905 -0.2787 0.2183
C25 C 0.82073(18) 0.75686(16) 0.51032(11)
C26 C 0.4412(2) -0.42071(17) 0.18181(13)
H12 H 0.3740 -0.4802 0.2140
C27 C 0.80767(17) 0.56355(16) 0.54285(11)
C28 C 0.8264(2) 0.40831(17) -0.02959(12)
H13 H 0.8353 0.4897 -0.0260
C29 C 0.8834(2) 0.25133(18) -0.09780(12)
H14 H 0.9306 0.2276 -0.1398
C30 C 0.1682(2) -0.18422(16) 0.42408(12)
H15 H 0.1116 -0.2460 0.4592
C31 C 0.93485(19) 0.71776(18) 0.65749(12)
H16 H 0.9736 0.7991 0.6791
C32 C 0.68626(19) 0.70860(17) 0.36838(12)
H17 H 0.6370 0.6528 0.3227
C33 C 0.74297(18) 0.67201(15) 0.44129(11)
C34 C 0.83830(19) 0.87930(16) 0.50585(12)
H18 H 0.8884 0.9358 0.5510
C35 C 0.6389(2) -0.24388(17) 0.08468(13)
H19 H 0.7048 -0.1852 0.0514
C36 C 0.3194(2) -0.13357(16) 0.43878(12)
H20 H 0.3626 -0.1628 0.4830
C37 C 0.9472(2) 0.6255(2) 0.70660(12)
H21 H 0.9947 0.6447 0.7617
C38 C 0.0062(2) 0.06896(18) 0.12913(12)
H22 H -0.0840 0.0577 0.1024
C39 C 0.1322(2) 0.16004(18) 0.10107(12)
H23 H 0.1255 0.2098 0.0563
C40 C 0.7808(2) 0.91636(17) 0.43387(13)
H24 H 0.7921 0.9982 0.4306
C41 C 0.81853(19) 0.47016(17) 0.59240(12)
H25 H 0.7799 0.3886 0.5713
C42 C 0.8971(2) 0.37249(18) -0.09168(12)
H26 H 0.9538 0.4300 -0.1294
C43 C 0.8886(2) 0.50242(19) 0.67409(13)
H27 H 0.8973 0.4413 0.7084
C44 C 0.7056(2) 0.83181(17) 0.36582(13)
H28 H 0.6676 0.8585 0.3178
C45 C 0.5313(2) -0.45235(18) 0.13220(14)
H29 H 0.5258 -0.5328 0.1313
C46 C 0.6306(3) -0.36359(19) 0.08354(16)
H30 H 0.6917 -0.3847 0.0501
loop_
_geom_bond_atom_site_label_1
_geom_bond_atom_site_label_2
_geom_bond_site_symmetry_1
_geom_bond_site_symmetry_2
N1 C1 1_555 1_555
N2 C2 1_555 1_555
N3 C1 1_555 1_555
N4 C10 1_555 1_555
C1 C6 1_555 1_555
C2 N1 1_555 1_555
C3 C4 1_555 1_555
C4 C7 1_555 1_555
C5 N2 1_555 1_555
C6 C13 1_555 1_555
C7 H1 1_555 1_555
C8 C2 1_555 1_555
C9 H2 1_555 1_555
C10 C9 1_555 1_555
C11 H3 1_555 1_555
C12 C7 1_555 1_555
H4 C12 1_555 1_555
C13 H5 1_555 1_555
C14 C6 1_555 1_555
H6 C14 1_555 1_555
C15 C3 1_555 1_555
C16 C4 1_555 1_555
H7 C16 1_555 1_555
C17 C19 1_555 1_555
C18 C15 1_555 1_555
H8 C18 1_555 1_555
C19 C3 1_555 1_555
C20 C17 1_555 1_555
H9 C20 1_555 1_555
C21 C15 1_555 1_555
C22 C25 1_555 1_555
C23 C21 1_555 1_555
H10 C23 1_555 1_555
C24 C8 1_555 1_555
H11 C24 1_555 1_555
C25 C33 1_555 1_555
C26 C24 1_555 1_555
H12 C26 1_555 1_555
C27 N4 1_555 1_555
C28 C14 1_555 1_555
H13 C28 1_555 1_555
C29 C13 1_555 1_555
H14 C29 1_555 1_555
C30 C20 1_555 1_555
H15 C30 1_555 1_555
C31 C22 1_555 1_555
H16 C31 1_555 1_555
C32 H17 1_555 1_555
C33 N4 1_555 1_555
C34 C25 1_555 1_555
H18 C34 1_555 1_555
C35 C8 1_555 1_555
H19 C35 1_555 1_555
C36 C11 1_555 1_555
H20 C36 1_555 1_555
C37 C31 1_555 1_555
H21 C37 1_555 1_555
C38 C23 1_555 1_555
H22 C38 1_555 1_555
C39 C18 1_555 1_555
H23 C39 1_555 1_555
C40 C34 1_555 1_555
H24 C40 1_555 1_555
C41 C27 1_555 1_555
H25 C41 1_555 1_555
C42 C28 1_555 1_555
H26 C42 1_555 1_555
C43 C37 1_555 1_555
H27 C43 1_555 1_555
C44 C32 1_555 1_555
H28 C44 1_555 1_555
C45 C26 1_555 1_555
H29 C45 1_555 1_555
C46 C35 1_555 1_555
H30 C46 1_555 1_555
N3 C5 1_555 1_555
C3 C5 1_555 1_555
C9 C16 1_555 1_555
C10 C12 1_555 1_555
C11 C19 1_555 1_555
C17 C21 1_555 1_555
C22 C27 1_555 1_555
C29 C42 1_555 1_555
C30 C36 1_555 1_555
C32 C33 1_555 1_555
C38 C39 1_555 1_555
C40 C44 1_555 1_555
C41 C43 1_555 1_555
C45 C46 1_555 1_555

#END
