
#######################################################################
#
#                 Cambridge Crystallographic Data Centre
#                                CCDC 
#
#######################################################################
#
# If this CIF has been generated from an entry in the Cambridge 
# Structural Database, then it will include bibliographic, chemical, 
# crystal, experimental, refinement or atomic coordinate data resulting 
# from the CCDC's data processing and validation procedures.
#
#######################################################################

data_WEWYEC
_chemical_formula_moiety         'C24 H22 N2 O5'
_chemical_name_systematic        
(4S-(4\a,7\a,12b\a))-1,2,3,4,5,7,8,12b-Octahydro-7-methoxycarbonyl-5-oxo-4-phthalimidoazepino(2,1-a)isoquinoline
_symmetry_cell_setting           monoclinic
_symmetry_space_group_name_H-M   'P 21'
_symmetry_Int_Tables_number      4
_space_group_name_Hall           'P 2yb'
loop_
_symmetry_equiv_pos_site_id
_symmetry_equiv_pos_as_xyz
1 x,y,z
2 -x,1/2+y,-z
_cell_length_a                   12.007(1)
_cell_length_b                   7.315(1)
_cell_length_c                   13.191(2)
_cell_angle_alpha                90
_cell_angle_beta                 113.61(1)
_cell_angle_gamma                90
_cell_volume                     1061.6
_exptl_crystal_colour            white
_chemical_melting_point          254-256deg.C
_cell_formula_units_Z            2
loop_
_atom_site_label
_atom_site_type_symbol
_atom_site_fract_x
_atom_site_fract_y
_atom_site_fract_z
N1 N 0.1475(2) 0.4810(3) 0.7453(2)
C1 C 0.1441(2) 0.6650(4) 0.7879(2)
C2 C 0.0667(2) 0.6673(5) 0.8547(2)
C3 C 0.1172(2) 0.5354(4) 0.9491(2)
C4 C 0.1224(3) 0.5732(5) 1.0545(2)
C5 C 0.1710(3) 0.4493(5) 1.1390(2)
C6 C 0.2164(3) 0.2852(6) 1.1195(2)
C7 C 0.2136(2) 0.2455(4) 1.0154(2)
C8 C 0.1644(2) 0.3716(4) 0.9301(2)
C9 C 0.1524(2) 0.3196(4) 0.8152(2)
C10 C 0.0394(2) 0.2014(4) 0.7622(2)
C11 C 0.0137(3) 0.1424(5) 0.6438(2)
C12 C 0.1289(3) 0.1147(5) 0.6241(2)
C13 C 0.1701(2) 0.2951(5) 0.5920(2)
C14 C 0.1760(2) 0.4744(4) 0.6565(2)
O1 O 0.1980(2) 0.614 0.6158(2)
C15 C 0.2695(2) 0.7430(4) 0.8556(2)
O2 O 0.2842(2) 0.8994(4) 0.8850(2)
O3 O 0.3575(2) 0.6226(3) 0.8774(2)
C16 C 0.4803(3) 0.6882(7) 0.9399(4)
N2 N 0.2844(2) 0.2767(4) 0.5786(2)
C17 C 0.3987(2) 0.2765(5) 0.6666(2)
O4 O 0.4147(2) 0.2797(5) 0.7626(2)
C18 C 0.4883(2) 0.2761(5) 0.6147(2)
C19 C 0.6132(3) 0.2761(7) 0.6625(3)
C20 C 0.6728(3) 0.2740(8) 0.5915(3)
C21 C 0.6101(3) 0.2744(7) 0.4783(3)
C22 C 0.4845(3) 0.2756(6) 0.4312(3)
C23 C 0.4252(2) 0.2761(5) 0.5010(2)
C24 C 0.2926(2) 0.2774(5) 0.4765(2)
O5 O 0.2068(2) 0.2773(4) 0.3883(1)
H1 H 0.1087 0.7409 0.7246
H2 H -0.0143 0.6333 0.8082
H3 H 0.0664 0.7874 0.8822
H4 H 0.0918 0.6860 1.0680
H5 H 0.2499 0.1994 1.1779
H6 H 0.2452 0.1332 1.0025
H7 H 0.2232 0.2529 0.8205
H8 H -0.0283 0.2690 0.7620
H9 H 0.0495 0.0945 0.8063
H10 H -0.0343 0.2343 0.5943
H11 H -0.0305 0.0308 0.6286
H12 H 0.1131 0.0291 0.5655
H13 H 0.1910 0.0692 0.6893
H14 H 0.1089 0.3220 0.5065
H15 H 0.5361 0.5910 0.9508
H16 H 0.4980 0.7842 0.9003
H17 H 0.4862 0.7326 1.0097
H18 H 0.6570 0.2766 0.7403
H19 H 0.7589 0.2731 0.6215
H20 H 0.6534 0.2724 0.4318
H21 H 0.4406 0.2776 0.3537
loop_
_geom_bond_atom_site_label_1
_geom_bond_atom_site_label_2
_geom_bond_site_symmetry_1
_geom_bond_site_symmetry_2
N1 C1 1_555 1_555
C1 C2 1_555 1_555
C2 C3 1_555 1_555
C3 C4 1_555 1_555
C4 C5 1_555 1_555
C5 C6 1_555 1_555
C6 C7 1_555 1_555
C7 C8 1_555 1_555
C8 C3 1_555 1_555
C9 N1 1_555 1_555
C10 C9 1_555 1_555
C11 C10 1_555 1_555
C12 C11 1_555 1_555
C13 C12 1_555 1_555
C14 N1 1_555 1_555
O1 C14 1_555 1_555
C15 C1 1_555 1_555
O2 C15 1_555 1_555
O3 C15 1_555 1_555
C16 O3 1_555 1_555
N2 C13 1_555 1_555
C17 N2 1_555 1_555
O4 C17 1_555 1_555
C18 C17 1_555 1_555
C19 C18 1_555 1_555
C20 C19 1_555 1_555
C21 C20 1_555 1_555
C22 C21 1_555 1_555
C23 C18 1_555 1_555
C24 N2 1_555 1_555
O5 C24 1_555 1_555
H1 C1 1_555 1_555
H2 C2 1_555 1_555
H3 C2 1_555 1_555
H4 C4 1_555 1_555
H5 C6 1_555 1_555
H6 C7 1_555 1_555
H7 C9 1_555 1_555
H8 C10 1_555 1_555
H9 C10 1_555 1_555
H10 C11 1_555 1_555
H11 C11 1_555 1_555
H12 C12 1_555 1_555
H13 C12 1_555 1_555
H14 C13 1_555 1_555
H15 C16 1_555 1_555
H16 C16 1_555 1_555
H17 C16 1_555 1_555
H18 C19 1_555 1_555
H19 C20 1_555 1_555
H20 C21 1_555 1_555
H21 C22 1_555 1_555
C8 C9 1_555 1_555
C13 C14 1_555 1_555
C22 C23 1_555 1_555
C23 C24 1_555 1_555

#END
