
#######################################################################
#
#                 Cambridge Crystallographic Data Centre
#                                CCDC 
#
#######################################################################
#
# If this CIF has been generated from an entry in the Cambridge 
# Structural Database, then it will include bibliographic, chemical, 
# crystal, experimental, refinement or atomic coordinate data resulting 
# from the CCDC's data processing and validation procedures.
#
#######################################################################

data_WEXGOX
_chemical_formula_moiety         'C18 H19 N7 O5,0.5(C3 H7 N1 O1),0.5(H2 O1)'
_chemical_name_systematic        
'5-((6-Amino-9-ethyl-9H-purin-8-yl)ethynyl)-1-(4-hydroxy-5-(hydroxymethyl)tetrahydrofuran-2-yl)pyrimidine-2,4(1H,3H)-dione N,N-dimethylformamide solvate hemihydrate'
_symmetry_cell_setting           monoclinic
_symmetry_space_group_name_H-M   'P 21'
_symmetry_Int_Tables_number      4
_space_group_name_Hall           'P 2yb'
loop_
_symmetry_equiv_pos_site_id
_symmetry_equiv_pos_as_xyz
1 x,y,z
2 -x,1/2+y,-z
_cell_length_a                   7.4364(16)
_cell_length_b                   23.393(5)
_cell_length_c                   12.114(3)
_cell_angle_alpha                90
_cell_angle_beta                 97.321(4)
_cell_angle_gamma                90
_cell_volume                     2090.17
_exptl_crystal_colour            yellow
_exptl_crystal_description       plate
_cell_formula_units_Z            4
loop_
_atom_site_label
_atom_site_type_symbol
_atom_site_fract_x
_atom_site_fract_y
_atom_site_fract_z
O1 O 0.4327(14) 0.7039(4) -0.6251(7)
O2 O 0.1373(13) 0.6426(3) -0.9495(7)
O3 O 0.5034(19) 0.5513(4) -0.5114(8)
O4 O 0.379(2) 0.5809(6) -0.2520(10)
H1 H 0.4678 0.5622 -0.2234
O5 O 0.599(3) 0.4408(6) -0.4145(13)
H2 H 0.5609 0.4116 -0.4489
N1 N -0.0666(14) 0.3889(4) -0.9381(8)
N2 N -0.1177(14) 0.4479(4) -1.0862(7)
N3 N -0.2727(14) 0.2852(4) -1.1429(8)
N4 N -0.2562(14) 0.3784(4) -1.2222(8)
N5 N -0.1876(18) 0.2665(5) -0.9586(9)
H3 H -0.2254 0.2315 -0.9689
H4 H -0.1408 0.2777 -0.8926
N6 N 0.2879(14) 0.6722(4) -0.7854(7)
H5 H 0.2931 0.7066 -0.8122
N7 N 0.3412(18) 0.6109(4) -0.6323(8)
C1 C -0.0487(15) 0.4420(4) -0.9795(9)
C2 C -0.1433(15) 0.3614(4) -1.0267(8)
C3 C -0.1786(15) 0.3942(4) -1.1208(9)
C4 C -0.2011(18) 0.3020(5) -1.0415(10)
C5 C -0.2963(15) 0.3227(5) -1.2227(9)
H6 H -0.3501 0.3084 -1.2915
C6 C 0.0370(17) 0.4887(5) -0.9172(9)
C7 C 0.1099(16) 0.5278(5) -0.8665(10)
C8 C 0.1877(17) 0.5743(4) -0.8043(9)
C9 C 0.2004(16) 0.6313(5) -0.8577(9)
C10 C 0.259(2) 0.5689(5) -0.6990(10)
H7 H 0.2512 0.5325 -0.6668
C11 C 0.3645(19) 0.6650(5) -0.6802(10)
C12 C -0.127(2) 0.5022(7) -1.1529(13)
H8 H -0.2514 0.5086 -1.1878
H9 H -0.0915 0.5346 -1.1036
C13 C -0.003(2) 0.4988(8) -1.2410(15)
H10 H 0.1175 0.4876 -1.2074
H11 H 0.0035 0.5358 -1.2763
H12 H -0.0488 0.4707 -1.2964
C14 C 0.421(3) 0.6034(7) -0.5198(12)
H13 H 0.5274 0.6288 -0.5179
C15 C 0.486(3) 0.5295(8) -0.3988(14)
H14 H 0.6010 0.5396 -0.3528
C16 C 0.345(3) 0.5681(10) -0.3591(15)
H15 H 0.2243 0.5494 -0.3734
C17 C 0.345(4) 0.6239(9) -0.4341(15)
H16 H 0.2220 0.6381 -0.4572
H17 H 0.4185 0.6545 -0.3956
C18 C 0.453(3) 0.4691(10) -0.3733(18)
H18 H 0.4555 0.4631 -0.2931
H19 H 0.3359 0.4560 -0.4115
O6 O 0.3333(13) 0.2509(4) -0.0565(7)
O7 O 0.0661(14) 0.1679(4) -0.3728(7)
O8 O 0.1288(13) 0.3003(5) -0.5421(8)
O9 O -0.2131(16) 0.2848(4) -0.7088(7)
H20 H -0.2879 0.2993 -0.7575
O10 O 0.0356(18) 0.4189(4) -0.4928(7)
H21 H -0.0070 0.3918 -0.4604
N8 N 0.5078(13) 0.4417(4) 0.0746(7)
N9 N 0.4430(12) 0.5031(4) -0.0662(7)
N10 N 0.6523(14) 0.5060(4) 0.2169(8)
N11 N 0.6722(15) 0.6031(4) 0.1434(8)
N12 N 0.5558(16) 0.6299(5) -0.0310(9)
H22 H 0.5921 0.6645 -0.0144
H23 H 0.4998 0.6223 -0.0969
N13 N 0.1993(15) 0.2116(4) -0.2186(8)
H24 H 0.2234 0.1779 -0.1903
N14 N 0.0834(16) 0.2665(4) -0.3702(8)
C19 C 0.4279(16) 0.4502(5) -0.0317(9)
C20 C 0.5675(17) 0.4943(5) 0.1099(8)
C21 C 0.5289(14) 0.5319(4) 0.0269(8)
C22 C 0.5855(14) 0.5891(4) 0.0432(10)
C23 C 0.7035(19) 0.5616(6) 0.2228(11)
H25 H 0.7693 0.5731 0.2905
C24 C 0.3477(16) 0.4038(5) -0.0997(9)
C25 C 0.2877(17) 0.3633(5) -0.1499(10)
C26 C 0.2277(17) 0.3135(5) -0.2074(9)
C27 C 0.2563(17) 0.2579(5) -0.1495(10)
C28 C 0.1400(17) 0.3149(5) -0.3126(10)
H26 H 0.1173 0.3506 -0.3474
C29 C 0.1134(19) 0.2125(5) -0.3214(11)
C30 C 0.5201(19) 0.3890(5) 0.1380(9)
H27 H 0.6440 0.3844 0.1755
H28 H 0.4935 0.3566 0.0873
C31 C 0.389(2) 0.3887(7) 0.2238(15)
H29 H 0.4089 0.4223 0.2705
H30 H 0.4087 0.3546 0.2694
H31 H 0.2657 0.3888 0.1864
C32 C 0.006(2) 0.2700(6) -0.4889(11)
H32 H -0.0099 0.2311 -0.5209
C33 C 0.028(2) 0.3404(7) -0.6237(11)
H33 H 0.0617 0.3317 -0.6985
C34 C -0.166(2) 0.3251(6) -0.6226(9)
H34 H -0.2425 0.3596 -0.6350
C35 C -0.1729(18) 0.3019(5) -0.5063(10)
H35 H -0.1771 0.3327 -0.4518
H36 H -0.2763 0.2762 -0.5035
C36 C 0.087(3) 0.3999(7) -0.5934(14)
H37 H 0.2196 0.4019 -0.5889
H38 H 0.0363 0.4257 -0.6530
O11 O 0.755(3) 0.4737(8) -0.5661(15)
O12 O 0.454(3) 0.2373(10) -0.683(2)
N15 N 0.209(3) 0.1919(8) -0.7408(19)
C37 C 0.328(4) 0.2298(15) -0.772(2)
H39 H 0.3242 0.2475 -0.8415
C38 C 0.052(4) 0.1738(16) -0.810(3)
H40 H 0.0436 0.1937 -0.8804
H41 H -0.0544 0.1824 -0.7738
H42 H 0.0584 0.1330 -0.8221
C39 C 0.249(5) 0.1696(19) -0.629(3)
H43 H 0.2953 0.1309 -0.6320
H44 H 0.1389 0.1692 -0.5935
H45 H 0.3388 0.1936 -0.5864
loop_
_geom_bond_atom_site_label_1
_geom_bond_atom_site_label_2
_geom_bond_site_symmetry_1
_geom_bond_site_symmetry_2
O1 C11 1_555 1_555
O2 C9 1_555 1_555
O3 C14 1_555 1_555
O4 H1 1_555 1_555
O5 H2 1_555 1_555
N1 C1 1_555 1_555
N2 C1 1_555 1_555
N3 C4 1_555 1_555
N4 C3 1_555 1_555
N5 H3 1_555 1_555
H4 N5 1_555 1_555
N6 H5 1_555 1_555
N7 C10 1_555 1_555
C1 C6 1_555 1_555
C2 N1 1_555 1_555
C3 N2 1_555 1_555
C4 N5 1_555 1_555
C5 N3 1_555 1_555
H6 C5 1_555 1_555
C6 C7 1_555 1_555
C7 C8 1_555 1_555
C8 C9 1_555 1_555
C9 N6 1_555 1_555
C10 C8 1_555 1_555
H7 C10 1_555 1_555
C11 N6 1_555 1_555
C12 N2 1_555 1_555
H8 C12 1_555 1_555
H9 C12 1_555 1_555
C13 C12 1_555 1_555
H10 C13 1_555 1_555
H11 C13 1_555 1_555
H12 C13 1_555 1_555
C14 N7 1_555 1_555
H13 C14 1_555 1_555
C15 O3 1_555 1_555
H14 C15 1_555 1_555
C16 O4 1_555 1_555
H15 C16 1_555 1_555
C17 C14 1_555 1_555
H16 C17 1_555 1_555
H17 C17 1_555 1_555
C18 O5 1_555 1_555
H18 C18 1_555 1_555
H19 C18 1_555 1_555
O6 C27 1_555 1_555
O7 C29 1_555 1_555
O8 C32 1_555 1_555
O9 H20 1_555 1_555
O10 H21 1_555 1_555
N8 C19 1_555 1_555
N9 C19 1_555 1_555
N10 C20 1_555 1_555
N11 C22 1_555 1_555
N12 H22 1_555 1_555
H23 N12 1_555 1_555
N13 H24 1_555 1_555
N14 C28 1_555 1_555
C19 C24 1_555 1_555
C20 N8 1_555 1_555
C21 N9 1_555 1_555
C22 N12 1_555 1_555
C23 N10 1_555 1_555
H25 C23 1_555 1_555
C24 C25 1_555 1_555
C25 C26 1_555 1_555
C26 C27 1_555 1_555
C27 N13 1_555 1_555
C28 C26 1_555 1_555
H26 C28 1_555 1_555
C29 N13 1_555 1_555
C30 N8 1_555 1_555
H27 C30 1_555 1_555
H28 C30 1_555 1_555
C31 C30 1_555 1_555
H29 C31 1_555 1_555
H30 C31 1_555 1_555
H31 C31 1_555 1_555
C32 N14 1_555 1_555
H32 C32 1_555 1_555
C33 O8 1_555 1_555
H33 C33 1_555 1_555
C34 O9 1_555 1_555
H34 C34 1_555 1_555
C35 C32 1_555 1_555
H35 C35 1_555 1_555
H36 C35 1_555 1_555
C36 O10 1_555 1_555
H37 C36 1_555 1_555
H38 C36 1_555 1_555
O12 C37 1_555 1_555
N15 C37 1_555 1_555
C37 H39 1_555 1_555
C38 N15 1_555 1_555
H40 C38 1_555 1_555
H41 C38 1_555 1_555
H42 C38 1_555 1_555
C39 N15 1_555 1_555
H43 C39 1_555 1_555
H44 C39 1_555 1_555
H45 C39 1_555 1_555
N4 C5 1_555 1_555
N7 C11 1_555 1_555
C2 C3 1_555 1_555
C2 C4 1_555 1_555
C15 C16 1_555 1_555
C15 C18 1_555 1_555
C16 C17 1_555 1_555
N11 C23 1_555 1_555
N14 C29 1_555 1_555
C20 C21 1_555 1_555
C21 C22 1_555 1_555
C33 C34 1_555 1_555
C33 C36 1_555 1_555
C34 C35 1_555 1_555

#END
