
#######################################################################
#
#                 Cambridge Crystallographic Data Centre
#                                CCDC 
#
#######################################################################
#
# If this CIF has been generated from an entry in the Cambridge 
# Structural Database, then it will include bibliographic, chemical, 
# crystal, experimental, refinement or atomic coordinate data resulting 
# from the CCDC's data processing and validation procedures.
#
#######################################################################

data_WEXMUK
_chemical_formula_moiety         'C36 H20 F4 N2'
_chemical_name_systematic        
9-phenyl-3-(9-(2,3,5,6-tetrafluoropyridin-4-yl)-9H-fluoren-9-yl)-9H-carbazole
_symmetry_cell_setting           monoclinic
_symmetry_space_group_name_H-M   'P 21/c'
_symmetry_Int_Tables_number      14
_space_group_name_Hall           '-P 2ybc'
loop_
_symmetry_equiv_pos_site_id
_symmetry_equiv_pos_as_xyz
1 x,y,z
2 -x,1/2+y,1/2-z
3 -x,-y,-z
4 x,1/2-y,1/2+z
_cell_length_a                   19.0256(7)
_cell_length_b                   6.8065(3)
_cell_length_c                   20.2686(9)
_cell_angle_alpha                90
_cell_angle_beta                 102.703(2)
_cell_angle_gamma                90
_cell_volume                     2560.49
_exptl_crystal_description       block
_cell_formula_units_Z            4
loop_
_atom_site_label
_atom_site_type_symbol
_atom_site_fract_x
_atom_site_fract_y
_atom_site_fract_z
F1 F 0.07973(12) -0.1453(3) 0.33804(10)
F2 F 0.18384(9) 0.0549(3) 0.30344(9)
F3 F -0.06664(9) -0.0870(3) 0.13204(10)
F4 F 0.03079(9) 0.1110(3) 0.08408(8)
N1 N 0.00584(14) -0.1131(4) 0.23549(14)
N2 N 0.37877(12) 0.6347(3) 0.36181(12)
C1 C 0.12232(15) 0.0315(4) 0.25644(14)
C2 C 0.06826(17) -0.0738(5) 0.27534(15)
C3 C -0.00369(15) -0.0468(4) 0.17367(15)
C4 C 0.04696(14) 0.0588(4) 0.14955(14)
C5 C 0.11309(14) 0.1071(4) 0.19160(14)
C6 C 0.17198(13) 0.2167(4) 0.16536(13)
C7 C 0.14040(14) 0.3657(4) 0.10959(14)
C8 C 0.09722(14) 0.5274(4) 0.11272(15)
H1 H 0.0837 0.5605 0.1527
C9 C 0.07460(15) 0.6393(4) 0.05444(16)
H2 H 0.0449 0.7473 0.0554
C10 C 0.09540(16) 0.5932(4) -0.00465(15)
H3 H 0.0808 0.6725 -0.0425
C11 C 0.13774(15) 0.4303(4) -0.00822(15)
H4 H 0.1515 0.3989 -0.0482
C12 C 0.15934(14) 0.3150(4) 0.04872(14)
C13 C 0.19856(14) 0.1284(4) 0.05818(14)
C14 C 0.22278(15) 0.0097(4) 0.01186(16)
H5 H 0.2188 0.0509 -0.0326
C15 C 0.25273(15) -0.1703(4) 0.03309(16)
H6 H 0.2681 -0.2521 0.0023
C16 C 0.26034(15) -0.2312(4) 0.09928(17)
H7 H 0.2813 -0.3523 0.1126
C17 C 0.23694(14) -0.1133(4) 0.14619(15)
H8 H 0.2419 -0.1545 0.1907
C18 C 0.20609(13) 0.0672(4) 0.12513(14)
C19 C 0.22662(14) 0.3247(4) 0.22087(14)
C20 C 0.30004(14) 0.2995(4) 0.22845(14)
H9 H 0.3176 0.2099 0.2013
C21 C 0.32124(14) 0.5479(4) 0.31651(14)
C22 C 0.34785(14) 0.4084(4) 0.27681(14)
C23 C 0.42555(14) 0.4085(4) 0.30020(14)
C24 C 0.48132(15) 0.3018(4) 0.28207(15)
H10 H 0.4714 0.2080 0.2479
C25 C 0.55139(16) 0.3386(5) 0.31592(16)
H11 H 0.5888 0.2671 0.3048
C26 C 0.56691(15) 0.4805(5) 0.36626(15)
H12 H 0.6146 0.5032 0.3878
C27 C 0.51311(15) 0.5886(4) 0.38516(15)
H13 H 0.5237 0.6840 0.4187
C28 C 0.44262(15) 0.5489(4) 0.35191(14)
C29 C 0.37472(14) 0.7943(4) 0.40601(14)
C30 C 0.33679(16) 0.9612(4) 0.38070(16)
H14 H 0.3155 0.9699 0.3349
C31 C 0.33041(18) 1.1156(5) 0.42366(18)
H15 H 0.3035 1.2260 0.4069
C32 C 0.36396(17) 1.1053(5) 0.49120(17)
H16 H 0.3597 1.2089 0.5200
C33 C 0.40413(16) 0.9401(5) 0.51635(16)
H17 H 0.4278 0.9350 0.5616
C34 C 0.40882(15) 0.7833(4) 0.47400(15)
H18 H 0.4346 0.6714 0.4909
C35 C 0.20146(14) 0.4603(4) 0.26305(14)
H19 H 0.1520 0.4745 0.2587
C36 C 0.24750(14) 0.5728(4) 0.31056(14)
H20 H 0.2298 0.6621 0.3376
loop_
_geom_bond_atom_site_label_1
_geom_bond_atom_site_label_2
_geom_bond_site_symmetry_1
_geom_bond_site_symmetry_2
F1 C2 1_555 1_555
F2 C1 1_555 1_555
F3 C3 1_555 1_555
F4 C4 1_555 1_555
N1 C2 1_555 1_555
N2 C21 1_555 1_555
C1 C2 1_555 1_555
C3 N1 1_555 1_555
C4 C3 1_555 1_555
C5 C1 1_555 1_555
C6 C5 1_555 1_555
C7 C6 1_555 1_555
C8 C7 1_555 1_555
H1 C8 1_555 1_555
C9 C8 1_555 1_555
H2 C9 1_555 1_555
C10 C9 1_555 1_555
H3 C10 1_555 1_555
C11 C10 1_555 1_555
H4 C11 1_555 1_555
C12 C7 1_555 1_555
C13 C12 1_555 1_555
C14 C13 1_555 1_555
H5 C14 1_555 1_555
C15 C14 1_555 1_555
H6 C15 1_555 1_555
C16 C15 1_555 1_555
H7 C16 1_555 1_555
C17 C16 1_555 1_555
H8 C17 1_555 1_555
C18 C6 1_555 1_555
C19 C6 1_555 1_555
C20 C19 1_555 1_555
H9 C20 1_555 1_555
C21 C22 1_555 1_555
C22 C20 1_555 1_555
C23 C22 1_555 1_555
C24 C23 1_555 1_555
H10 C24 1_555 1_555
C25 C24 1_555 1_555
H11 C25 1_555 1_555
C26 C25 1_555 1_555
H12 C26 1_555 1_555
C27 C26 1_555 1_555
H13 C27 1_555 1_555
C28 N2 1_555 1_555
C29 N2 1_555 1_555
C30 C29 1_555 1_555
H14 C30 1_555 1_555
C31 C30 1_555 1_555
H15 C31 1_555 1_555
C32 C31 1_555 1_555
H16 C32 1_555 1_555
C33 C32 1_555 1_555
H17 C33 1_555 1_555
C34 C29 1_555 1_555
H18 C34 1_555 1_555
C35 C19 1_555 1_555
H19 C35 1_555 1_555
C36 C21 1_555 1_555
H20 C36 1_555 1_555
C4 C5 1_555 1_555
C11 C12 1_555 1_555
C13 C18 1_555 1_555
C17 C18 1_555 1_555
C23 C28 1_555 1_555
C27 C28 1_555 1_555
C33 C34 1_555 1_555
C35 C36 1_555 1_555

#END
