
#######################################################################
#
#                 Cambridge Crystallographic Data Centre
#                                CCDC 
#
#######################################################################
#
# If this CIF has been generated from an entry in the Cambridge 
# Structural Database, then it will include bibliographic, chemical, 
# crystal, experimental, refinement or atomic coordinate data resulting 
# from the CCDC's data processing and validation procedures.
#
#######################################################################

data_WEXNAR
_chemical_formula_moiety         'C36 H20 F4 N2'
_chemical_name_systematic        
9-(4-(9-(2,3,5,6-tetrafluoropyridin-4-yl)-9H-fluoren-9-yl)phenyl)-9H-carbazole
_symmetry_cell_setting           orthorhombic
_symmetry_space_group_name_H-M   'P b c a'
_symmetry_Int_Tables_number      61
_space_group_name_Hall           '-P 2ac 2ab'
loop_
_symmetry_equiv_pos_site_id
_symmetry_equiv_pos_as_xyz
1 x,y,z
2 1/2-x,-y,1/2+z
3 1/2+x,1/2-y,-z
4 -x,1/2+y,1/2-z
5 -x,-y,-z
6 1/2+x,y,1/2-z
7 1/2-x,1/2+y,z
8 x,1/2-y,1/2+z
_cell_length_a                   8.1153(5)
_cell_length_b                   17.5146(11)
_cell_length_c                   36.762(2)
_cell_angle_alpha                90
_cell_angle_beta                 90
_cell_angle_gamma                90
_cell_volume                     5225.21
_exptl_crystal_description       block
_cell_formula_units_Z            8
loop_
_atom_site_label
_atom_site_type_symbol
_atom_site_fract_x
_atom_site_fract_y
_atom_site_fract_z
F1 F -0.5186(2) -0.37406(11) -0.06319(5)
F2 F -0.0593(2) -0.27109(12) -0.12625(6)
F3 F -0.2624(3) -0.16475(12) -0.15189(6)
F4 F -0.6985(2) -0.26370(12) -0.09320(6)
N1 N -0.4804(4) -0.21569(16) -0.12340(7)
N2 N 0.3471(3) -0.49848(15) -0.17650(7)
C1 C -0.3235(4) -0.21973(19) -0.13077(9)
C2 C -0.2201(4) -0.27555(19) -0.11784(8)
C3 C -0.2803(4) -0.33458(17) -0.09617(8)
C4 C -0.4468(4) -0.32684(18) -0.08719(8)
C5 C -0.5381(4) -0.2689(2) -0.10186(9)
C6 C -0.1701(4) -0.39823(18) -0.08104(8)
C7 C -0.2651(4) -0.47166(18) -0.07101(9)
C8 C -0.3419(4) -0.5230(2) -0.09368(12)
H1 H -0.3421 -0.5159 -0.1187
C9 C -0.4199(5) -0.5863(2) -0.07800(15)
H2 H -0.4732 -0.6217 -0.0927
C10 C -0.4178(6) -0.5966(2) -0.04032(16)
H3 H -0.4717 -0.6383 -0.0302
C11 C -0.3380(6) -0.5463(2) -0.01814(13)
H4 H -0.3359 -0.5541 0.0069
C12 C -0.2601(5) -0.4833(2) -0.03331(10)
C13 C -0.1653(5) -0.4223(2) -0.01651(9)
C14 C -0.1180(7) -0.4091(3) 0.01968(10)
H5 H -0.1537 -0.4415 0.0381
C15 C -0.0186(7) -0.3479(3) 0.02772(11)
H6 H 0.0138 -0.3397 0.0517
C16 C 0.0339(6) -0.2987(2) 0.00110(11)
H7 H 0.1012 -0.2577 0.0072
C17 C -0.0124(4) -0.3095(2) -0.03506(9)
H8 H 0.0212 -0.2756 -0.0530
C18 C -0.1093(4) -0.3718(2) -0.04353(8)
C19 C -0.0309(4) -0.42146(18) -0.10691(8)
C20 C 0.1259(4) -0.43534(19) -0.09396(8)
H9 H 0.1492 -0.4271 -0.0695
C21 C 0.2487(4) -0.46128(19) -0.11688(8)
H10 H 0.3536 -0.4706 -0.1077
C22 C 0.2163(4) -0.47337(18) -0.15315(8)
C23 C 0.0622(4) -0.4598(2) -0.16678(9)
H11 H 0.0409 -0.4676 -0.1914
C24 C -0.0629(4) -0.4343(2) -0.14383(9)
H12 H -0.1680 -0.4257 -0.1531
C25 C 0.3727(4) -0.57314(18) -0.18801(8)
C26 C 0.2847(4) -0.6383(2) -0.17945(9)
H13 H 0.1936 -0.6366 -0.1641
C27 C 0.3379(5) -0.7059(2) -0.19461(10)
H14 H 0.2817 -0.7507 -0.1892
C28 C 0.4738(5) -0.7092(2) -0.21790(11)
H15 H 0.5055 -0.7557 -0.2278
C29 C 0.5615(4) -0.6440(2) -0.22633(9)
H16 H 0.6515 -0.6463 -0.2419
C30 C 0.5126(4) -0.57449(18) -0.21094(8)
C31 C 0.5735(3) -0.49725(18) -0.21296(8)
C32 C 0.7024(4) -0.4628(2) -0.23171(8)
H17 H 0.7726 -0.4918 -0.2462
C33 C 0.7245(5) -0.3854(2) -0.22854(9)
H18 H 0.8100 -0.3620 -0.2412
C34 C 0.6208(5) -0.3410(2) -0.20667(9)
H19 H 0.6384 -0.2886 -0.2050
C35 C 0.4925(4) -0.37406(19) -0.18757(8)
H20 H 0.4245 -0.3450 -0.1726
C36 C 0.4688(4) -0.45203(17) -0.19145(8)
loop_
_geom_bond_atom_site_label_1
_geom_bond_atom_site_label_2
_geom_bond_site_symmetry_1
_geom_bond_site_symmetry_2
F1 C4 1_555 1_555
F2 C2 1_555 1_555
F3 C1 1_555 1_555
F4 C5 1_555 1_555
N1 C1 1_555 1_555
N2 C22 1_555 1_555
C1 C2 1_555 1_555
C2 C3 1_555 1_555
C3 C4 1_555 1_555
C4 C5 1_555 1_555
C5 N1 1_555 1_555
C6 C3 1_555 1_555
C7 C6 1_555 1_555
C8 C7 1_555 1_555
H1 C8 1_555 1_555
C9 C8 1_555 1_555
H2 C9 1_555 1_555
C10 C9 1_555 1_555
H3 C10 1_555 1_555
C11 C10 1_555 1_555
H4 C11 1_555 1_555
C12 C7 1_555 1_555
C13 C12 1_555 1_555
C14 C13 1_555 1_555
H5 C14 1_555 1_555
C15 C14 1_555 1_555
H6 C15 1_555 1_555
C16 C15 1_555 1_555
H7 C16 1_555 1_555
C17 C16 1_555 1_555
H8 C17 1_555 1_555
C18 C6 1_555 1_555
C19 C6 1_555 1_555
C20 C19 1_555 1_555
H9 C20 1_555 1_555
C21 C20 1_555 1_555
H10 C21 1_555 1_555
C22 C21 1_555 1_555
C23 C22 1_555 1_555
H11 C23 1_555 1_555
C24 C19 1_555 1_555
H12 C24 1_555 1_555
C25 N2 1_555 1_555
C26 C25 1_555 1_555
H13 C26 1_555 1_555
C27 C26 1_555 1_555
H14 C27 1_555 1_555
C28 C27 1_555 1_555
H15 C28 1_555 1_555
C29 C28 1_555 1_555
H16 C29 1_555 1_555
C30 C25 1_555 1_555
C31 C30 1_555 1_555
C32 C31 1_555 1_555
H17 C32 1_555 1_555
C33 C32 1_555 1_555
H18 C33 1_555 1_555
C34 C33 1_555 1_555
H19 C34 1_555 1_555
C35 C34 1_555 1_555
H20 C35 1_555 1_555
C36 N2 1_555 1_555
C11 C12 1_555 1_555
C13 C18 1_555 1_555
C17 C18 1_555 1_555
C23 C24 1_555 1_555
C29 C30 1_555 1_555
C31 C36 1_555 1_555
C35 C36 1_555 1_555

#END
