
#######################################################################
#
#                 Cambridge Crystallographic Data Centre
#                                CCDC 
#
#######################################################################
#
# If this CIF has been generated from an entry in the Cambridge 
# Structural Database, then it will include bibliographic, chemical, 
# crystal, experimental, refinement or atomic coordinate data resulting 
# from the CCDC's data processing and validation procedures.
#
#######################################################################

data_WEXTOL
_chemical_formula_moiety         'C16 H14 Cl1 N1 O2'
_chemical_name_systematic        
'methyl (R)-2-(2-chlorophenyl)-2,3-dihydro-1H-indole-1-carboxylate'
_symmetry_cell_setting           monoclinic
_symmetry_space_group_name_H-M   'P 21'
_symmetry_Int_Tables_number      4
_space_group_name_Hall           'P 2yb'
loop_
_symmetry_equiv_pos_site_id
_symmetry_equiv_pos_as_xyz
1 x,y,z
2 -x,1/2+y,-z
_cell_length_a                   5.0463(3)
_cell_length_b                   10.3570(5)
_cell_length_c                   13.2269(7)
_cell_angle_alpha                90
_cell_angle_beta                 92.007(2)
_cell_angle_gamma                90
_cell_volume                     690.874
_exptl_crystal_colour            colorless
_exptl_crystal_description       plate
_cell_formula_units_Z            2
loop_
_atom_site_label
_atom_site_type_symbol
_atom_site_fract_x
_atom_site_fract_y
_atom_site_fract_z
Cl1 Cl 1.16868(8) 0.64084(4) 0.91668(3)
O1 O 0.7560(3) 0.29565(14) 0.54008(10)
O2 O 1.0232(3) 0.45907(13) 0.59523(10)
N1 N 0.7366(3) 0.37521(15) 0.70099(11)
C1 C 1.1362(4) 0.4637(2) 0.49635(15)
H1 H 1.2625 0.3926 0.4898
H2 H 1.2281 0.5462 0.4881
H3 H 0.9945 0.4555 0.4441
C2 C 0.8329(4) 0.36956(18) 0.60609(15)
C3 C 0.5426(4) 0.29082(17) 0.73825(14)
C4 C 0.3718(4) 0.20763(17) 0.68476(15)
H4 H 0.3784 0.1989 0.6134
C5 C 0.1908(4) 0.1377(2) 0.74036(15)
H5 H 0.0710 0.0807 0.7059
C6 C 0.1813(4) 0.1492(2) 0.84457(15)
H6 H 0.0561 0.1003 0.8805
C7 C 0.3547(4) 0.23217(18) 0.89673(15)
H7 H 0.3495 0.2399 0.9682
C8 C 0.5347(4) 0.30330(18) 0.84309(14)
C9 C 0.7376(4) 0.39972(18) 0.88111(13)
H8 H 0.8778 0.3571 0.9234
H9 H 0.6540 0.4682 0.9214
C10 C 0.8535(4) 0.45665(18) 0.78281(13)
H10 H 1.0506 0.4460 0.7853
C11 C 0.7851(4) 0.59840(17) 0.77071(14)
C12 C 0.9176(4) 0.69025(19) 0.83047(14)
C13 C 0.8560(4) 0.8203(2) 0.82602(17)
H11 H 0.9504 0.8806 0.8678
C14 C 0.6544(5) 0.8615(2) 0.75974(17)
H12 H 0.6103 0.9506 0.7557
C15 C 0.5178(4) 0.7733(2) 0.69955(16)
H13 H 0.3792 0.8016 0.6544
C16 C 0.5833(4) 0.6425(2) 0.70500(13)
H14 H 0.4885 0.5825 0.6632
loop_
_geom_bond_atom_site_label_1
_geom_bond_atom_site_label_2
_geom_bond_site_symmetry_1
_geom_bond_site_symmetry_2
Cl1 C12 1_555 1_555
O1 C2 1_555 1_555
O2 C1 1_555 1_555
N1 C2 1_555 1_555
C1 H1 1_555 1_555
H2 C1 1_555 1_555
H3 C1 1_555 1_555
C2 O2 1_555 1_555
C3 N1 1_555 1_555
C4 C3 1_555 1_555
H4 C4 1_555 1_555
C5 C4 1_555 1_555
H5 C5 1_555 1_555
C6 C5 1_555 1_555
H6 C6 1_555 1_555
C7 C6 1_555 1_555
H7 C7 1_555 1_555
C8 C3 1_555 1_555
C9 C8 1_555 1_555
H8 C9 1_555 1_555
H9 C9 1_555 1_555
C10 N1 1_555 1_555
H10 C10 1_555 1_555
C11 C10 1_555 1_555
C12 C11 1_555 1_555
C13 C12 1_555 1_555
H11 C13 1_555 1_555
C14 C13 1_555 1_555
H12 C14 1_555 1_555
C15 C14 1_555 1_555
H13 C15 1_555 1_555
C16 C11 1_555 1_555
H14 C16 1_555 1_555
C7 C8 1_555 1_555
C9 C10 1_555 1_555
C15 C16 1_555 1_555

#END
