
#######################################################################
#
#                 Cambridge Crystallographic Data Centre
#                                CCDC 
#
#######################################################################
#
# If this CIF has been generated from an entry in the Cambridge 
# Structural Database, then it will include bibliographic, chemical, 
# crystal, experimental, refinement or atomic coordinate data resulting 
# from the CCDC's data processing and validation procedures.
#
#######################################################################

data_WEXTIF
_chemical_formula_moiety         'C17 H17 N1 O3'
_chemical_name_systematic        
'methyl (R)-2-(3-methoxyphenyl)-2,3-dihydro-1H-indole-1-carboxylate'
_symmetry_cell_setting           monoclinic
_symmetry_space_group_name_H-M   'P 21'
_symmetry_Int_Tables_number      4
_space_group_name_Hall           'P 2yb'
loop_
_symmetry_equiv_pos_site_id
_symmetry_equiv_pos_as_xyz
1 x,y,z
2 -x,1/2+y,-z
_cell_length_a                   7.7310(3)
_cell_length_b                   8.2071(3)
_cell_length_c                   11.5044(4)
_cell_angle_alpha                90
_cell_angle_beta                 107.7792(11)
_cell_angle_gamma                90
_cell_volume                     695.082
_exptl_crystal_colour            colorless
_exptl_crystal_description       block
_cell_formula_units_Z            2
loop_
_atom_site_label
_atom_site_type_symbol
_atom_site_fract_x
_atom_site_fract_y
_atom_site_fract_z
O1 O 0.14133(16) 0.38128(16) 0.11578(12)
O2 O 0.28004(16) 0.62262(16) 0.18206(12)
O3 O 0.81791(18) 0.91739(16) 0.56173(12)
N1 N 0.45146(19) 0.40439(19) 0.18687(13)
C1 C 0.1043(3) 0.6976(2) 0.1578(2)
H1 H 0.0437 0.6550 0.2149
H2 H 0.0306 0.6730 0.0739
H3 H 0.1188 0.8159 0.1681
C2 C 0.2781(2) 0.4618(2) 0.15774(15)
C3 C 0.5009(2) 0.2465(2) 0.15866(15)
C4 C 0.3930(2) 0.1096(2) 0.12110(16)
H4 H 0.2664 0.1126 0.1109
C5 C 0.4768(3) -0.0325(2) 0.09886(16)
H5 H 0.4060 -0.1282 0.0741
C6 C 0.6618(3) -0.0371(3) 0.11218(16)
H6 H 0.7158 -0.1349 0.0958
C7 C 0.7676(3) 0.1017(2) 0.14959(17)
H7 H 0.8939 0.0993 0.1587
C8 C 0.6871(2) 0.2430(2) 0.17331(16)
C9 C 0.7697(2) 0.4082(2) 0.21047(17)
H8 H 0.8133 0.4559 0.1455
H9 H 0.8729 0.4010 0.2866
C10 C 0.6141(2) 0.5119(2) 0.23052(16)
H10 H 0.5960 0.6114 0.1781
C11 C 0.6504(2) 0.5622(2) 0.36265(17)
C12 C 0.7137(2) 0.7195(2) 0.39729(16)
H11 H 0.7266 0.7949 0.3378
C13 C 0.7579(2) 0.7656(2) 0.51911(17)
C14 C 0.7396(2) 0.6554(2) 0.60662(16)
H12 H 0.7717 0.6864 0.6901
C15 C 0.6743(2) 0.5000(2) 0.57101(17)
H13 H 0.6599 0.4251 0.6303
C16 C 0.6295(2) 0.4529(2) 0.44929(17)
H14 H 0.5847 0.3462 0.4256
C17 C 0.8308(3) 1.0361(2) 0.47452(19)
H15 H 0.7118 1.0500 0.4133
H16 H 0.9192 0.9999 0.4344
H17 H 0.8705 1.1402 0.5158
loop_
_geom_bond_atom_site_label_1
_geom_bond_atom_site_label_2
_geom_bond_site_symmetry_1
_geom_bond_site_symmetry_2
O1 C2 1_555 1_555
O2 C1 1_555 1_555
O3 C13 1_555 1_555
N1 C2 1_555 1_555
C1 H1 1_555 1_555
H2 C1 1_555 1_555
H3 C1 1_555 1_555
C2 O2 1_555 1_555
C3 N1 1_555 1_555
C4 C3 1_555 1_555
H4 C4 1_555 1_555
C5 C4 1_555 1_555
H5 C5 1_555 1_555
C6 C5 1_555 1_555
H6 C6 1_555 1_555
C7 C6 1_555 1_555
H7 C7 1_555 1_555
C8 C3 1_555 1_555
C9 C8 1_555 1_555
H8 C9 1_555 1_555
H9 C9 1_555 1_555
C10 N1 1_555 1_555
H10 C10 1_555 1_555
C11 C10 1_555 1_555
C12 C11 1_555 1_555
H11 C12 1_555 1_555
C13 C12 1_555 1_555
C14 C13 1_555 1_555
H12 C14 1_555 1_555
C15 C14 1_555 1_555
H13 C15 1_555 1_555
C16 C11 1_555 1_555
H14 C16 1_555 1_555
C17 O3 1_555 1_555
H15 C17 1_555 1_555
H16 C17 1_555 1_555
H17 C17 1_555 1_555
C7 C8 1_555 1_555
C9 C10 1_555 1_555
C15 C16 1_555 1_555

#END
