
#######################################################################
#
#                 Cambridge Crystallographic Data Centre
#                                CCDC 
#
#######################################################################
#
# If this CIF has been generated from an entry in the Cambridge 
# Structural Database, then it will include bibliographic, chemical, 
# crystal, experimental, refinement or atomic coordinate data resulting 
# from the CCDC's data processing and validation procedures.
#
#######################################################################

data_WEXVOL
_chemical_formula_moiety         'C23 H14 O3,0.5(C1 H4 O1)'
_chemical_name_systematic        
'3-Hydroxy-7-phenyl-10H-benzo(c)xanthen-10-one methanol solvate'
_symmetry_cell_setting           monoclinic
_symmetry_space_group_name_H-M   'P 21/c'
_symmetry_Int_Tables_number      14
_space_group_name_Hall           '-P 2ybc'
loop_
_symmetry_equiv_pos_site_id
_symmetry_equiv_pos_as_xyz
1 x,y,z
2 -x,1/2+y,1/2-z
3 -x,-y,-z
4 x,1/2-y,1/2+z
_cell_length_a                   5.876(4)
_cell_length_b                   20.129(15)
_cell_length_c                   14.512(13)
_cell_angle_alpha                90
_cell_angle_beta                 100.05(3)
_cell_angle_gamma                90
_cell_volume                     1690.11
_exptl_crystal_colour            red
_cell_formula_units_Z            4
loop_
_atom_site_label
_atom_site_type_symbol
_atom_site_fract_x
_atom_site_fract_y
_atom_site_fract_z
O4 O 0.397(3) 0.0028(16) 0.514(2)
C24 C 0.220(7) 0.0144(11) 0.478(3)
O4B O 0.603(3) -0.0028(16) 0.486(2)
C24B C 0.780(7) -0.0144(11) 0.522(3)
O1 O 0.4761(7) 0.28124(18) 0.3266(3)
O2 O -0.2611(7) 0.27371(19) 0.1417(3)
O3 O 1.4036(8) 0.1620(2) 0.5412(3)
H1 H 1.4995 0.1839 0.5791
C1 C 0.2952(11) 0.3138(3) 0.2743(4)
C2 C 0.1115(11) 0.2764(3) 0.2331(4)
H2 H 0.1149 0.2296 0.2408
C3 C -0.0828(12) 0.3069(3) 0.1793(4)
C4 C -0.0735(11) 0.3781(3) 0.1640(4)
H3 H -0.1969 0.3994 0.1238
C5 C 0.1082(11) 0.4142(3) 0.2062(4)
H4 H 0.1087 0.4608 0.1956
C6 C 0.3006(11) 0.3847(3) 0.2666(4)
C7 C 0.4824(11) 0.4192(3) 0.3167(5)
C8 C 0.6688(11) 0.3845(3) 0.3722(4)
C9 C 0.8707(11) 0.4150(3) 0.4262(4)
H5 H 0.8802 0.4621 0.4290
C10 C 1.0469(11) 0.3786(3) 0.4729(4)
H6 H 1.1757 0.4005 0.5089
C11 C 1.0426(11) 0.3082(3) 0.4690(4)
C12 C 1.2318(11) 0.2697(3) 0.5112(4)
H7 H 1.3650 0.2909 0.5451
C13 C 1.2260(11) 0.2019(3) 0.5039(5)
C14 C 1.0295(10) 0.1690(3) 0.4556(4)
H8 H 1.0284 0.1219 0.4507
C15 C 0.8398(11) 0.2049(3) 0.4157(4)
H9 H 0.7057 0.1826 0.3847
C16 C 0.8420(10) 0.2753(3) 0.4204(4)
C17 C 0.6592(11) 0.3155(3) 0.3740(4)
C18 C 0.4890(11) 0.4942(3) 0.3117(4)
C19 C 0.3466(11) 0.5324(3) 0.3553(5)
H10 H 0.2485 0.5113 0.3920
C20 C 0.3420(12) 0.6006(3) 0.3472(5)
H11 H 0.2418 0.6263 0.3779
C21 C 0.4844(11) 0.6312(3) 0.2940(4)
H12 H 0.4814 0.6781 0.2869
C22 C 0.6291(13) 0.5939(3) 0.2517(5)
H13 H 0.7299 0.6149 0.2161
C23 C 0.6306(13) 0.5258(3) 0.2601(6)
H14 H 0.7315 0.5004 0.2295
loop_
_geom_bond_atom_site_label_1
_geom_bond_atom_site_label_2
_geom_bond_site_symmetry_1
_geom_bond_site_symmetry_2
O1 C1 1_555 1_555
O2 C3 1_555 1_555
O3 H1 1_555 1_555
C1 C2 1_555 1_555
C2 H2 1_555 1_555
C3 C2 1_555 1_555
C4 C3 1_555 1_555
H3 C4 1_555 1_555
C5 C4 1_555 1_555
H4 C5 1_555 1_555
C6 C1 1_555 1_555
C7 C6 1_555 1_555
C8 C7 1_555 1_555
C9 C8 1_555 1_555
H5 C9 1_555 1_555
C10 C9 1_555 1_555
H6 C10 1_555 1_555
C11 C10 1_555 1_555
C12 C11 1_555 1_555
H7 C12 1_555 1_555
C13 O3 1_555 1_555
C14 C13 1_555 1_555
H8 C14 1_555 1_555
C15 C14 1_555 1_555
H9 C15 1_555 1_555
C16 C11 1_555 1_555
C17 O1 1_555 1_555
C18 C7 1_555 1_555
C19 C18 1_555 1_555
H10 C19 1_555 1_555
C20 C19 1_555 1_555
H11 C20 1_555 1_555
C21 C20 1_555 1_555
H12 C21 1_555 1_555
C22 C21 1_555 1_555
H13 C22 1_555 1_555
C23 C18 1_555 1_555
H14 C23 1_555 1_555
O4 C24 1_555 1_555
O4B O4 1_555 1_555
C24B O4B 1_555 1_555
C5 C6 1_555 1_555
C8 C17 1_555 1_555
C12 C13 1_555 1_555
C15 C16 1_555 1_555
C16 C17 1_555 1_555
C22 C23 1_555 1_555

#END
