
#######################################################################
#
#                 Cambridge Crystallographic Data Centre
#                                CCDC 
#
#######################################################################
#
# If this CIF has been generated from an entry in the Cambridge 
# Structural Database, then it will include bibliographic, chemical, 
# crystal, experimental, refinement or atomic coordinate data resulting 
# from the CCDC's data processing and validation procedures.
#
#######################################################################

data_WEXXIJ
_chemical_formula_moiety         'C33 H32 N2 O3 S1'
_chemical_name_systematic        
1-methyl-7,15-dimethylidene-3-[(4-methylphenyl)sulfonyl]-4a-phenyl-2,3,4,4a,6,7,14,15-octahydropyrido[4',3':8,9][1,5]oxazonino[5,4-a]indole
_symmetry_cell_setting           orthorhombic
_symmetry_space_group_name_H-M   'P 21 21 21'
_symmetry_Int_Tables_number      19
_space_group_name_Hall           'P 2ac 2ab'
loop_
_symmetry_equiv_pos_site_id
_symmetry_equiv_pos_as_xyz
1 x,y,z
2 1/2-x,-y,1/2+z
3 -x,1/2+y,1/2-z
4 1/2+x,1/2-y,-z
_cell_length_a                   9.5994(4)
_cell_length_b                   14.7775(6)
_cell_length_c                   19.9833(10)
_cell_angle_alpha                90
_cell_angle_beta                 90
_cell_angle_gamma                90
_cell_volume                     2834.73
_exptl_crystal_colour            colorless
_exptl_crystal_description       prismatic
_cell_formula_units_Z            4
loop_
_atom_site_label
_atom_site_type_symbol
_atom_site_fract_x
_atom_site_fract_y
_atom_site_fract_z
S1 S 0.48999(10) 0.44057(7) 0.12661(5)
N1 N 0.9253(3) 0.4945(2) 0.38029(16)
N2 N 0.5365(3) 0.4623(2) 0.20429(14)
O1 O 0.6823(3) 0.34434(17) 0.31426(14)
O2 O 0.5672(3) 0.5021(2) 0.08586(14)
O3 O 0.5042(3) 0.34565(17) 0.11793(12)
C1 C 1.0011(4) 0.5718(3) 0.39331(19)
C2 C 0.9891(6) 0.6337(3) 0.4457(2)
H1 H 0.9190 0.6283 0.4775
C3 C 1.0838(6) 0.7025(3) 0.4486(3)
H2 H 1.0774 0.7447 0.4830
C4 C 1.1902(6) 0.7112(4) 0.4012(3)
H3 H 1.2538 0.7583 0.4049
C5 C 1.2015(5) 0.6511(3) 0.3496(3)
H4 H 1.2718 0.6576 0.3180
C6 C 1.1064(4) 0.5794(3) 0.3447(2)
C7 C 1.0903(4) 0.5037(3) 0.3017(2)
H5 H 1.1448 0.4912 0.2644
C8 C 0.9818(4) 0.4524(3) 0.32407(19)
C9 C 0.9302(4) 0.3670(3) 0.2954(2)
C10 C 0.7873(4) 0.3650(3) 0.2648(2)
H6 H 0.7672 0.4233 0.2447
H7 H 0.7847 0.3197 0.2297
C11 C 1.0142(5) 0.2971(3) 0.2897(2)
H8 H 1.1063 0.3017 0.3039
H9 H 0.9817 0.2432 0.2716
C12 C 0.5643(4) 0.4042(3) 0.32034(19)
C13 C 0.6150(4) 0.4993(3) 0.33759(19)
C14 C 0.6747(4) 0.5107(3) 0.40606(19)
C15 C 0.8099(4) 0.4623(3) 0.4212(2)
H10 H 0.8329 0.4708 0.4680
H11 H 0.7974 0.3980 0.4136
C16 C 0.6132(5) 0.5618(3) 0.4519(2)
H12 H 0.5306 0.5917 0.4418
H13 H 0.6527 0.5677 0.4942
C17 C 0.6070(4) 0.5674(3) 0.2938(2)
C18 C 0.5443(4) 0.5566(3) 0.22490(19)
H14 H 0.4514 0.5824 0.2247
H15 H 0.6002 0.5900 0.1928
C19 C 0.4761(4) 0.4043(3) 0.25613(17)
H16 H 0.4688 0.3430 0.2392
H17 H 0.3829 0.4254 0.2665
C20 C 0.6581(6) 0.6618(3) 0.3065(2)
H18 H 0.7105 0.6630 0.3475
H19 H 0.5800 0.7020 0.3101
H20 H 0.7167 0.6806 0.2702
C21 C 0.4720(4) 0.3630(2) 0.37457(18)
C22 C 0.3602(4) 0.4122(3) 0.3994(2)
H21 H 0.3482 0.4721 0.3864
C23 C 0.2665(5) 0.3730(4) 0.4432(2)
H22 H 0.1914 0.4064 0.4591
C24 C 0.2844(6) 0.2849(4) 0.4630(2)
H23 H 0.2215 0.2582 0.4924
C25 C 0.3951(7) 0.2367(3) 0.4393(3)
H24 H 0.4084 0.1772 0.4530
C26 C 0.4871(5) 0.2757(3) 0.3952(2)
H25 H 0.5614 0.2417 0.3790
C27 C 0.3131(4) 0.4698(3) 0.12033(18)
C28 C 0.2775(4) 0.5591(3) 0.1137(2)
H26 H 0.3466 0.6027 0.1083
C29 C 0.1392(5) 0.5846(3) 0.1148(2)
H27 H 0.1162 0.6456 0.1113
C30 C 0.0350(4) 0.5216(4) 0.1212(2)
C31 C 0.0721(4) 0.4318(4) 0.1256(2)
H28 H 0.0025 0.3882 0.1286
C32 C 0.2098(4) 0.4047(3) 0.1257(2)
H29 H 0.2328 0.3437 0.1292
C33 C -0.1135(5) 0.5513(5) 0.1258(3)
H30 H -0.1736 0.5000 0.1200
H31 H -0.1322 0.5952 0.0915
H32 H -0.1299 0.5780 0.1689
loop_
_geom_bond_atom_site_label_1
_geom_bond_atom_site_label_2
_geom_bond_site_symmetry_1
_geom_bond_site_symmetry_2
S1 N2 1_555 1_555
N1 C1 1_555 1_555
N2 C18 1_555 1_555
O1 C10 1_555 1_555
O2 S1 1_555 1_555
O3 S1 1_555 1_555
C1 C2 1_555 1_555
C2 H1 1_555 1_555
C3 C2 1_555 1_555
H2 C3 1_555 1_555
C4 C3 1_555 1_555
H3 C4 1_555 1_555
C5 C4 1_555 1_555
H4 C5 1_555 1_555
C6 C1 1_555 1_555
C7 C6 1_555 1_555
H5 C7 1_555 1_555
C8 N1 1_555 1_555
C9 C8 1_555 1_555
C10 C9 1_555 1_555
H6 C10 1_555 1_555
H7 C10 1_555 1_555
C11 C9 1_555 1_555
H8 C11 1_555 1_555
H9 C11 1_555 1_555
C12 O1 1_555 1_555
C13 C12 1_555 1_555
C14 C13 1_555 1_555
C15 N1 1_555 1_555
H10 C15 1_555 1_555
H11 C15 1_555 1_555
C16 C14 1_555 1_555
H12 C16 1_555 1_555
H13 C16 1_555 1_555
C17 C13 1_555 1_555
C18 C17 1_555 1_555
H14 C18 1_555 1_555
H15 C18 1_555 1_555
C19 N2 1_555 1_555
H16 C19 1_555 1_555
H17 C19 1_555 1_555
C20 C17 1_555 1_555
H18 C20 1_555 1_555
H19 C20 1_555 1_555
H20 C20 1_555 1_555
C21 C12 1_555 1_555
C22 C21 1_555 1_555
H21 C22 1_555 1_555
C23 C22 1_555 1_555
H22 C23 1_555 1_555
C24 C23 1_555 1_555
H23 C24 1_555 1_555
C25 C24 1_555 1_555
H24 C25 1_555 1_555
C26 C21 1_555 1_555
H25 C26 1_555 1_555
C27 S1 1_555 1_555
C28 C27 1_555 1_555
H26 C28 1_555 1_555
C29 C28 1_555 1_555
H27 C29 1_555 1_555
C30 C29 1_555 1_555
C31 C30 1_555 1_555
H28 C31 1_555 1_555
C32 C27 1_555 1_555
H29 C32 1_555 1_555
C33 C30 1_555 1_555
H30 C33 1_555 1_555
H31 C33 1_555 1_555
H32 C33 1_555 1_555
C5 C6 1_555 1_555
C7 C8 1_555 1_555
C12 C19 1_555 1_555
C14 C15 1_555 1_555
C25 C26 1_555 1_555
C31 C32 1_555 1_555

#END
