
#######################################################################
#
#                 Cambridge Crystallographic Data Centre
#                                CCDC 
#
#######################################################################
#
# If this CIF has been generated from an entry in the Cambridge 
# Structural Database, then it will include bibliographic, chemical, 
# crystal, experimental, refinement or atomic coordinate data resulting 
# from the CCDC's data processing and validation procedures.
#
#######################################################################

data_WEYGEP
_chemical_formula_moiety         'C15 H15 Cl1 N4 O1 S1'
_chemical_name_systematic        
4-(chloromethyl)-N-[(4,6-dimethylpyrimidin-2-yl)carbamothioyl]benzamide
_symmetry_cell_setting           triclinic
_symmetry_space_group_name_H-M   'P -1'
_symmetry_Int_Tables_number      2
_space_group_name_Hall           '-P 1'
loop_
_symmetry_equiv_pos_site_id
_symmetry_equiv_pos_as_xyz
1 x,y,z
2 -x,-y,-z
_cell_length_a                   7.951(8)
_cell_length_b                   8.275(9)
_cell_length_c                   12.606(13)
_cell_angle_alpha                101.961(17)
_cell_angle_beta                 99.753(17)
_cell_angle_gamma                90.482(16)
_cell_volume                     798.856
_cell_formula_units_Z            2
loop_
_atom_site_label
_atom_site_type_symbol
_atom_site_fract_x
_atom_site_fract_y
_atom_site_fract_z
Cl1 Cl 1.09003(19) 0.87064(17) 0.88331(12)
S1 S 0.07164(15) 0.13639(15) 0.66361(10)
N1 N 0.3698(4) 0.2955(4) 0.6675(3)
H1 H 0.4558 0.2964 0.6344
N2 N 0.2506(4) 0.1208(4) 0.5055(3)
H2 H 0.1684 0.0512 0.4712
N3 N 0.5067(4) 0.2456(4) 0.4876(3)
N4 N 0.3400(5) 0.0511(4) 0.3402(3)
O1 O 0.2655(4) 0.4332(5) 0.8170(3)
C1 C 1.0464(6) 0.7167(6) 0.9571(4)
H3 H 1.1340 0.6358 0.9536
H4 H 1.0489 0.7681 1.0339
C2 C 0.8763(6) 0.6326(5) 0.9095(4)
C3 C 0.8594(6) 0.5009(6) 0.8189(4)
H5 H 0.9552 0.4641 0.7894
C4 C 0.7028(6) 0.4255(6) 0.7732(4)
H6 H 0.6937 0.3371 0.7130
C5 C 0.5578(5) 0.4778(5) 0.8145(3)
C6 C 0.5767(6) 0.6067(5) 0.9068(4)
H7 H 0.4816 0.6421 0.9376
C7 C 0.7323(6) 0.6813(5) 0.9522(4)
H8 H 0.7417 0.7674 1.0138
C8 C 0.3852(6) 0.4019(5) 0.7700(3)
C9 C 0.2359(5) 0.1899(5) 0.6130(3)
C10 C 0.3736(5) 0.1425(5) 0.4419(3)
C11 C 0.6207(6) 0.2633(5) 0.4222(4)
C12 C 0.5937(6) 0.1784(6) 0.3145(4)
H9 H 0.6696 0.1929 0.2683
C13 C 0.4530(6) 0.0716(5) 0.2761(4)
C14 C 0.7735(6) 0.3753(6) 0.4721(4)
H10 H 0.7408 0.4708 0.5205
H11 H 0.8215 0.4094 0.4149
H12 H 0.8568 0.3180 0.5131
C15 C 0.4185(8) -0.0289(7) 0.1596(4)
H13 H 0.3978 -0.1430 0.1606
H14 H 0.5156 -0.0184 0.1251
H15 H 0.3200 0.0108 0.1189
loop_
_geom_bond_atom_site_label_1
_geom_bond_atom_site_label_2
_geom_bond_site_symmetry_1
_geom_bond_site_symmetry_2
Cl1 C1 1_555 1_555
S1 C9 1_555 1_555
N1 H1 1_555 1_555
N2 H2 1_555 1_555
N3 C10 1_555 1_555
N4 C10 1_555 1_555
O1 C8 1_555 1_555
C1 H3 1_555 1_555
H4 C1 1_555 1_555
C2 C1 1_555 1_555
C3 C2 1_555 1_555
H5 C3 1_555 1_555
C4 C3 1_555 1_555
H6 C4 1_555 1_555
C5 C4 1_555 1_555
C6 C5 1_555 1_555
H7 C6 1_555 1_555
C7 C2 1_555 1_555
H8 C7 1_555 1_555
C8 N1 1_555 1_555
C9 N1 1_555 1_555
C10 N2 1_555 1_555
C11 N3 1_555 1_555
C12 C11 1_555 1_555
H9 C12 1_555 1_555
C13 N4 1_555 1_555
C14 C11 1_555 1_555
H10 C14 1_555 1_555
H11 C14 1_555 1_555
H12 C14 1_555 1_555
C15 C13 1_555 1_555
H13 C15 1_555 1_555
H14 C15 1_555 1_555
H15 C15 1_555 1_555
N2 C9 1_555 1_555
C5 C8 1_555 1_555
C6 C7 1_555 1_555
C12 C13 1_555 1_555

#END
