
#######################################################################
#
#                 Cambridge Crystallographic Data Centre
#                                CCDC 
#
#######################################################################
#
# If this CIF has been generated from an entry in the Cambridge 
# Structural Database, then it will include bibliographic, chemical, 
# crystal, experimental, refinement or atomic coordinate data resulting 
# from the CCDC's data processing and validation procedures.
#
#######################################################################

data_WEYHIU
_chemical_formula_moiety         'C150 H132 Br12 N6 O12 S6'
_chemical_name_systematic        
"cyclotris(5,5'-[2,9-di(nonan-5-yl)-1,3,8,10-tetraoxo-1,2,3,8,9,10-hexahydroisoquinolino[4',5',6':6,5,10]anthra[2,1,9-def]isoquinoline-5,12-diyl]bis(3,4-dibromothiophen-2-yl)) unknown solvate"
_symmetry_cell_setting           trigonal
_symmetry_space_group_name_H-M   'P -3'
_symmetry_Int_Tables_number      147
_space_group_name_Hall           '-P 3'
loop_
_symmetry_equiv_pos_site_id
_symmetry_equiv_pos_as_xyz
1 x,y,z
2 -y,x-y,z
3 -x+y,-x,z
4 -x,-y,-z
5 y,-x+y,-z
6 x-y,x,-z
_cell_length_a                   23.028(4)
_cell_length_b                   23.028(4)
_cell_length_c                   19.626(3)
_cell_angle_alpha                90
_cell_angle_beta                 90
_cell_angle_gamma                120
_cell_volume                     9013.11
_exptl_crystal_colour            red
_exptl_crystal_description       plate
_cell_formula_units_Z            2
loop_
_atom_site_label
_atom_site_type_symbol
_atom_site_fract_x
_atom_site_fract_y
_atom_site_fract_z
C1 C 0.2711(9) 0.3666(15) 0.3815(8)
C2 C 0.3233(9) 0.3862(10) 0.4282(9)
C3 C 0.3093(10) 0.3688(16) 0.4977(10)
H1 H 0.343810 0.373394 0.527623
C4 C 0.2452(9) 0.3451(16) 0.5215(8)
C5 C 0.2314(10) 0.3303(8) 0.5947(8)
O1 O 0.2770(10) 0.3435(10) 0.6346(9)
C6 C 0.1915(9) 0.3279(15) 0.4769(8)
C7 C 0.2056(8) 0.3482(9) 0.4069(7)
C8 C 0.1523(9) 0.3352(14) 0.3622(8)
C9 C 0.0872(9) 0.3098(14) 0.3872(10)
H2 H 0.051687 0.303194 0.357626
C10 C 0.0754(10) 0.2944(18) 0.4566(10)
H3 H 0.031685 0.278998 0.474332
C11 C 0.1245(9) 0.3007(16) 0.4992(8)
C12 C 0.1102(10) 0.2829(16) 0.5722(9)
O2 O 0.0539(9) 0.2641(12) 0.5943(10)
C13 C 0.1715(11) 0.3619(15) 0.2918(9)
C14 C 0.1418(9) 0.3864(10) 0.2505(10)
C15 C 0.1541(14) 0.4026(16) 0.1834(11)
H4 H 0.132437 0.421817 0.158745
C16 C 0.2007(14) 0.3889(18) 0.1535(9)
C17 C 0.2172(17) 0.405(2) 0.0811(10)
O3 O 0.1784(16) 0.413(2) 0.0428(13)
C18 C 0.2421(9) 0.3758(9) 0.1977(9)
C19 C 0.2294(11) 0.3644(17) 0.2656(8)
C20 C 0.2789(12) 0.3636(18) 0.3078(8)
C21 C 0.3255(13) 0.3549(17) 0.2737(10)
H5 H 0.355242 0.347594 0.301159
C22 C 0.3349(11) 0.3553(13) 0.2049(10)
H6 H 0.367660 0.346576 0.185710
C23 C 0.2940(11) 0.3691(13) 0.1649(8)
C24 C 0.3001(10) 0.3687(10) 0.0907(10)
O4 O 0.3417(13) 0.3575(14) 0.0633(12)
C25 C 0.3943(9) 0.4254(10) 0.4090(10)
C26 C 0.4474(8) 0.4173(7) 0.4258(6)
Br1 Br 0.4406(3) 0.3451(3) 0.4755(2)
C27 C 0.5092(7) 0.4711(10) 0.4028(13)
Br2 Br 0.5901(3) 0.4731(3) 0.4184(2)
C28 C 0.5012(9) 0.5153(12) 0.3630(14)
S1 S 0.4180(5) 0.4953(6) 0.3623(5)
C29 C 0.5454(11) 0.5727(10) 0.3250(10)
C30 C 0.5891(7) 0.5799(7) 0.2734(7)
Br3 Br 0.6026(3) 0.5107(3) 0.2424(3)
C31 C 0.6239(12) 0.6455(9) 0.2472(12)
Br4 Br 0.6872(3) 0.6700(3) 0.1779(3)
C32 C 0.6018(13) 0.6864(10) 0.2729(13)
S2 S 0.5444(6) 0.6469(6) 0.3371(5)
N1 N 0.1645(9) 0.3026(10) 0.6160(9)
C33 C 0.148(2) 0.2877(14) 0.6898(13)
H7 H 0.193660 0.297589 0.705317
C34 C 0.1113(17) 0.2113(15) 0.702(2)
H8 H 0.094987 0.202300 0.749893
H9 H 0.071656 0.189624 0.671939
C35 C 0.1547(19) 0.1803(17) 0.690(2)
H10 H 0.198245 0.207740 0.713111
H11 H 0.163847 0.181814 0.640299
C36 C 0.124(2) 0.1074(15) 0.714(3)
H12 H 0.114258 0.077519 0.674456
H13 H 0.081116 0.093924 0.737968
C37 C 0.173(3) 0.099(3) 0.764(3)
H14 H 0.151881 0.052540 0.778505
H15 H 0.214721 0.111997 0.739913
H16 H 0.181619 0.128383 0.803349
C38 C 0.144(2) 0.3393(16) 0.7309(15)
H17 H 0.162391 0.339510 0.776678
H18 H 0.096190 0.324869 0.736839
C39 C 0.179(2) 0.4112(15) 0.7052(18)
H19 H 0.161260 0.412772 0.659915
H20 H 0.227916 0.427476 0.699918
C40 C 0.169(2) 0.4574(17) 0.755(2)
H21 H 0.123912 0.450810 0.748712
H22 H 0.172582 0.444211 0.802377
C41 C 0.221(3) 0.5312(16) 0.745(2)
H23 H 0.212053 0.558017 0.778172
H24 H 0.265889 0.538232 0.752612
H25 H 0.217198 0.544833 0.698924
N2 N 0.2613(12) 0.3867(13) 0.0509(10)
C42 C 0.2707(19) 0.3855(18) -0.0272(14)
H26 H 0.302703 0.369421 -0.038268
C43 C 0.202(2) 0.340(2) -0.0598(18)
H27 H 0.205733 0.346634 -0.109834
H28 H 0.169690 0.353289 -0.042911
C44 C 0.176(2) 0.2655(19) -0.043(3)
H29 H 0.170187 0.258759 0.006640
H30 H 0.208857 0.252921 -0.058493
C45 C 0.108(2) 0.220(2) -0.078(3)
H31 H 0.109200 0.236193 -0.125328
H32 H 0.071878 0.221934 -0.053234
C46 C 0.093(3) 0.147(2) -0.081(3)
H33 H 0.049539 0.118641 -0.103639
H34 H 0.128168 0.144313 -0.106621
H35 H 0.090883 0.130067 -0.034599
C47 C 0.296(2) 0.456(2) -0.0560(19)
H36 H 0.305814 0.456388 -0.105093
H37 H 0.259611 0.467384 -0.051800
C48 C 0.358(2) 0.509(2) -0.0200(19)
H38 H 0.343481 0.523951 0.021041
H39 H 0.384261 0.488804 -0.004383
C49 C 0.403(2) 0.571(2) -0.062(3)
H40 H 0.394368 0.607912 -0.050597
H41 H 0.394764 0.561026 -0.110839
C50 C 0.479(2) 0.594(3) -0.045(4)
H42 H 0.508344 0.634048 -0.072080
H43 H 0.487387 0.604665 0.003443
H44 H 0.487782 0.557892 -0.056653
C1A C 0.6334(15) 0.9045(17) 0.3815(8)
C2A C 0.6138(10) 0.9371(13) 0.4282(9)
C3A C 0.6312(16) 0.9405(19) 0.4977(10)
H1A H 0.626606 0.970416 0.527623
C4A C 0.6549(16) 0.9001(18) 0.5215(8)
C5A C 0.6697(8) 0.9011(13) 0.5947(8)
O1A O 0.6565(10) 0.9335(14) 0.6346(9)
C6A C 0.6721(15) 0.8636(17) 0.4769(8)
C7A C 0.6518(9) 0.8574(12) 0.4069(7)
C8A C 0.6648(14) 0.8171(17) 0.3622(8)
C9A C 0.6902(14) 0.7774(17) 0.3872(10)
H2A H 0.696806 0.748493 0.357626
C10A C 0.7056(18) 0.7810(21) 0.4566(10)
H3A H 0.721002 0.752687 0.474332
C11A C 0.6993(16) 0.8238(18) 0.4992(8)
C12A C 0.7171(16) 0.8273(19) 0.5722(9)
O2A O 0.7359(12) 0.7898(15) 0.5943(10)
C13A C 0.6381(15) 0.8096(19) 0.2918(9)
C14A C 0.6136(10) 0.7554(13) 0.2505(10)
C15A C 0.5974(16) 0.7515(21) 0.1834(11)
H4A H 0.578183 0.710620 0.158745
C16A C 0.6111(18) 0.8118(23) 0.1535(9)
C17A C 0.595(2) 0.8122(26) 0.0811(10)
O3A O 0.587(2) 0.7654(26) 0.0428(13)
C18A C 0.6242(9) 0.8663(13) 0.1977(9)
C19A C 0.6356(17) 0.8650(20) 0.2656(8)
C20A C 0.6364(18) 0.9153(22) 0.3078(8)
C21A C 0.6451(17) 0.9706(21) 0.2737(10)
H5A H 0.652406 1.007648 0.301159
C22A C 0.6447(13) 0.9796(17) 0.2049(10)
H6A H 0.653424 1.021084 0.185710
C23A C 0.6309(13) 0.9249(17) 0.1649(8)
C24A C 0.6313(10) 0.9314(14) 0.0907(10)
O4A O 0.6425(14) 0.9842(19) 0.0633(12)
C25A C 0.5746(10) 0.9689(13) 0.4090(10)
C26A C 0.5827(7) 1.0301(11) 0.4258(6)
Br1A Br 0.6549(3) 1.0955(4) 0.4755(2)
C27A C 0.5289(10) 1.0381(12) 0.4028(13)
Br2A Br 0.5269(3) 1.1170(4) 0.4184(2)
C28A C 0.4847(12) 0.9859(15) 0.3630(14)
S1A S 0.5047(6) 0.9227(8) 0.3623(5)
C29A C 0.4273(10) 0.9727(15) 0.3250(10)
C30A C 0.4201(7) 1.0092(10) 0.2734(7)
Br3A Br 0.4893(3) 1.0919(4) 0.2424(3)
C31A C 0.3545(9) 0.9784(15) 0.2472(12)
Br4A Br 0.3300(3) 1.0172(4) 0.1779(3)
C32A C 0.3136(10) 0.9154(16) 0.2729(13)
S2A S 0.3531(6) 0.8975(8) 0.3371(5)
N1A N 0.6974(10) 0.8619(13) 0.6160(9)
C33A C 0.7123(14) 0.8603(24) 0.6898(13)
H7A H 0.702411 0.896071 0.705317
C34A C 0.7887(15) 0.9000(23) 0.702(2)
H8A H 0.797700 0.892687 0.749893
H9A H 0.810376 0.882032 0.671939
C35A C 0.8197(17) 0.9744(25) 0.690(2)
H10A H 0.792260 0.990505 0.713111
H11A H 0.818186 0.982033 0.640299
C36A C 0.8926(15) 1.0166(25) 0.714(3)
H12A H 0.922481 1.036739 0.674456
H13A H 0.906076 0.987192 0.737968
C37A C 0.901(3) 1.074(4) 0.764(3)
H14A H 0.947460 1.099341 0.778505
H15A H 0.888003 1.102724 0.739913
H16A H 0.871617 1.053236 0.803349
C38A C 0.6607(16) 0.8047(26) 0.7309(15)
H17A H 0.660490 0.822881 0.776678
H18A H 0.675131 0.771321 0.736839
C39A C 0.5888(15) 0.7678(25) 0.7052(18)
H19A H 0.587228 0.748488 0.659915
H20A H 0.572524 0.800440 0.699918
C40A C 0.5426(17) 0.7116(26) 0.755(2)
H21A H 0.549190 0.673102 0.748712
H22A H 0.555789 0.728371 0.802377
C41A C 0.4688(16) 0.6898(34) 0.745(2)
H23A H 0.441983 0.654036 0.778172
H24A H 0.461768 0.727657 0.752612
H25A H 0.455167 0.672365 0.698924
N2A N 0.6133(13) 0.8746(18) 0.0509(10)
C42A C 0.6145(18) 0.8852(26) -0.0272(14)
H26A H 0.630579 0.933282 -0.038268
C43A C 0.660(2) 0.862(3) -0.0598(18)
H27A H 0.653366 0.859099 -0.109834
H28A H 0.646711 0.816401 -0.042911
C44A C 0.7345(19) 0.9105(28) -0.043(3)
H29A H 0.741241 0.911428 0.006640
H30A H 0.747079 0.955936 -0.058493
C45A C 0.780(2) 0.888(3) -0.078(3)
H31A H 0.763807 0.873007 -0.125328
H32A H 0.778066 0.849944 -0.053234
C46A C 0.853(2) 0.946(4) -0.081(3)
H33A H 0.881359 0.930898 -0.103639
H34A H 0.855687 0.983855 -0.106621
H35A H 0.869933 0.960816 -0.034599
C47A C 0.544(2) 0.840(3) -0.0560(19)
H36A H 0.543612 0.849426 -0.105093
H37A H 0.532616 0.792227 -0.051800
C48A C 0.491(2) 0.849(3) -0.0200(19)
H38A H 0.476049 0.819530 0.021041
H39A H 0.511196 0.895457 -0.004383
C49A C 0.429(2) 0.832(3) -0.062(3)
H40A H 0.392088 0.786456 -0.050597
H41A H 0.438974 0.833738 -0.110839
C50A C 0.406(3) 0.885(4) -0.045(4)
H42A H 0.365952 0.874296 -0.072080
H43A H 0.395335 0.882722 0.003443
H44A H 0.442108 0.929890 -0.056653
C1B C 0.0955(17) 0.7289(9) 0.3815(8)
C2B C 0.0629(13) 0.6767(9) 0.4282(9)
C3B C 0.0595(19) 0.6907(10) 0.4977(10)
H1B H 0.029584 0.656190 0.527623
C4B C 0.0999(18) 0.7548(9) 0.5215(8)
C5B C 0.0989(13) 0.7686(10) 0.5947(8)
O1B O 0.0665(14) 0.7230(10) 0.6346(9)
C6B C 0.1364(17) 0.8085(9) 0.4769(8)
C7B C 0.1426(12) 0.7944(8) 0.4069(7)
C8B C 0.1829(17) 0.8477(9) 0.3622(8)
C9B C 0.2226(17) 0.9128(9) 0.3872(10)
H2B H 0.251507 0.948313 0.357626
C10B C 0.2190(21) 0.9246(10) 0.4566(10)
H3B H 0.247313 0.968315 0.474332
C11B C 0.1762(18) 0.8755(9) 0.4992(8)
C12B C 0.1727(19) 0.8898(10) 0.5722(9)
O2B O 0.2102(15) 0.9461(9) 0.5943(10)
C13B C 0.1904(19) 0.8285(11) 0.2918(9)
C14B C 0.2446(13) 0.8582(9) 0.2505(10)
C15B C 0.2485(21) 0.8459(14) 0.1834(11)
H4B H 0.289380 0.867563 0.158745
C16B C 0.1882(23) 0.7993(14) 0.1535(9)
C17B C 0.1878(26) 0.7828(17) 0.0811(10)
O3B O 0.2346(26) 0.8216(16) 0.0428(13)
C18B C 0.1337(13) 0.7579(9) 0.1977(9)
C19B C 0.1350(20) 0.7706(11) 0.2656(8)
C20B C 0.0847(22) 0.7211(12) 0.3078(8)
C21B C 0.0294(21) 0.6745(13) 0.2737(10)
H5B H -0.007648 0.644758 0.301159
C22B C 0.0204(17) 0.6651(11) 0.2049(10)
H6B H -0.021084 0.632340 0.185710
C23B C 0.0751(17) 0.7060(11) 0.1649(8)
C24B C 0.0686(14) 0.6999(10) 0.0907(10)
O4B O 0.0158(19) 0.6583(13) 0.0633(12)
C25B C 0.0311(13) 0.6057(9) 0.4090(10)
C26B C -0.0301(11) 0.5526(8) 0.4258(6)
Br1B Br -0.0955(4) 0.5594(3) 0.4755(2)
C27B C -0.0381(12) 0.4908(7) 0.4028(13)
Br2B Br -0.1170(4) 0.4099(3) 0.4184(2)
C28B C 0.0141(15) 0.4988(9) 0.3630(14)
S1B S 0.0773(8) 0.5820(5) 0.3623(5)
C29B C 0.0273(15) 0.4546(11) 0.3250(10)
C30B C -0.0092(10) 0.4109(7) 0.2734(7)
Br3B Br -0.0919(4) 0.3974(3) 0.2424(3)
C31B C 0.0216(15) 0.3761(12) 0.2472(12)
Br4B Br -0.0172(4) 0.3128(3) 0.1779(3)
C32B C 0.0846(16) 0.3982(13) 0.2729(13)
S2B S 0.1025(8) 0.4556(6) 0.3371(5)
N1B N 0.1381(13) 0.8355(9) 0.6160(9)
C33B C 0.1397(24) 0.852(2) 0.6898(13)
H7B H 0.103929 0.806340 0.705317
C34B C 0.1000(23) 0.8887(17) 0.702(2)
H8B H 0.107313 0.905013 0.749893
H9B H 0.117968 0.928344 0.671939
C35B C 0.0256(25) 0.8453(19) 0.690(2)
H10B H 0.009495 0.801755 0.713111
H11B H 0.017967 0.836153 0.640299
C36B C -0.0166(25) 0.876(2) 0.714(3)
H12B H -0.036739 0.885742 0.674456
H13B H 0.012808 0.918884 0.737968
C37B C -0.074(4) 0.827(3) 0.764(3)
H14B H -0.099341 0.848119 0.778505
H15B H -0.102724 0.785279 0.739913
H16B H -0.053236 0.818381 0.803349
C38B C 0.1953(26) 0.856(2) 0.7309(15)
H17B H 0.177119 0.837609 0.776678
H18B H 0.228679 0.903810 0.736839
C39B C 0.2322(25) 0.821(2) 0.7052(18)
H19B H 0.251512 0.838740 0.659915
H20B H 0.199560 0.772084 0.699918
C40B C 0.2884(26) 0.831(2) 0.755(2)
H21B H 0.326898 0.876088 0.748712
H22B H 0.271629 0.827418 0.802377
C41B C 0.3102(34) 0.779(3) 0.745(2)
H23B H 0.345964 0.787947 0.778172
H24B H 0.272343 0.734111 0.752612
H25B H 0.327635 0.782802 0.698924
N2B N 0.1254(18) 0.7387(12) 0.0509(10)
C42B C 0.1148(26) 0.7293(19) -0.0272(14)
H26B H 0.066718 0.697297 -0.038268
C43B C 0.138(3) 0.798(2) -0.0598(18)
H27B H 0.140901 0.794267 -0.109834
H28B H 0.183599 0.830310 -0.042911
C44B C 0.0895(28) 0.824(2) -0.043(3)
H29B H 0.088572 0.829813 0.006640
H30B H 0.044064 0.791143 -0.058493
C45B C 0.112(3) 0.892(2) -0.078(3)
H31B H 0.126993 0.890800 -0.125328
H32B H 0.150056 0.928122 -0.053234
C46B C 0.054(4) 0.907(3) -0.081(3)
H33B H 0.069102 0.950461 -0.103639
H34B H 0.016145 0.871832 -0.106621
H35B H 0.039184 0.909117 -0.034599
C47B C 0.160(3) 0.704(2) -0.0560(19)
H36B H 0.150574 0.694186 -0.105093
H37B H 0.207773 0.740389 -0.051800
C48B C 0.151(3) 0.642(2) -0.0200(19)
H38B H 0.180470 0.656519 0.021041
H39B H 0.104543 0.615739 -0.004383
C49B C 0.168(3) 0.597(2) -0.062(3)
H40B H 0.213544 0.605632 -0.050597
H41B H 0.166262 0.605236 -0.110839
C50B C 0.115(4) 0.521(2) -0.045(4)
H42B H 0.125704 0.491656 -0.072080
H43B H 0.117278 0.512613 0.003443
H44B H 0.070110 0.512218 -0.056653
loop_
_geom_bond_atom_site_label_1
_geom_bond_atom_site_label_2
_geom_bond_site_symmetry_1
_geom_bond_site_symmetry_2
C1 C2 1_555 1_555
C2 C3 1_555 1_555
C3 H1 1_555 1_555
C4 C3 1_555 1_555
C5 C4 1_555 1_555
O1 C5 1_555 1_555
C6 C4 1_555 1_555
C7 C1 1_555 1_555
C8 C7 1_555 1_555
C9 C8 1_555 1_555
H2 C9 1_555 1_555
C10 C9 1_555 1_555
H3 C10 1_555 1_555
C11 C6 1_555 1_555
C12 C11 1_555 1_555
O2 C12 1_555 1_555
C13 C8 1_555 1_555
C14 C13 1_555 1_555
C15 C14 1_555 1_555
H4 C15 1_555 1_555
C16 C15 1_555 1_555
C17 C16 1_555 1_555
O3 C17 1_555 1_555
C18 C16 1_555 1_555
C19 C13 1_555 1_555
C20 C1 1_555 1_555
C21 C20 1_555 1_555
H5 C21 1_555 1_555
C22 C21 1_555 1_555
H6 C22 1_555 1_555
C23 C18 1_555 1_555
C24 C23 1_555 1_555
O4 C24 1_555 1_555
C25 C2 1_555 1_555
C26 C25 1_555 1_555
Br1 C26 1_555 1_555
C27 C26 1_555 1_555
Br2 C27 1_555 1_555
C28 C27 1_555 1_555
S1 C25 1_555 1_555
C29 C28 1_555 1_555
C30 C29 1_555 1_555
Br3 C30 1_555 1_555
C31 C30 1_555 1_555
Br4 C31 1_555 1_555
C32 C31 1_555 1_555
S2 C29 1_555 1_555
N1 C5 1_555 1_555
C33 N1 1_555 1_555
H7 C33 1_555 1_555
C34 C33 1_555 1_555
H8 C34 1_555 1_555
H9 C34 1_555 1_555
C35 C34 1_555 1_555
H10 C35 1_555 1_555
H11 C35 1_555 1_555
C36 C35 1_555 1_555
H12 C36 1_555 1_555
H13 C36 1_555 1_555
C37 C36 1_555 1_555
H14 C37 1_555 1_555
H15 C37 1_555 1_555
H16 C37 1_555 1_555
C38 C33 1_555 1_555
H17 C38 1_555 1_555
H18 C38 1_555 1_555
C39 C38 1_555 1_555
H19 C39 1_555 1_555
H20 C39 1_555 1_555
C40 C39 1_555 1_555
H21 C40 1_555 1_555
H22 C40 1_555 1_555
C41 C40 1_555 1_555
H23 C41 1_555 1_555
H24 C41 1_555 1_555
H25 C41 1_555 1_555
N2 C17 1_555 1_555
C42 N2 1_555 1_555
H26 C42 1_555 1_555
C43 C42 1_555 1_555
H27 C43 1_555 1_555
H28 C43 1_555 1_555
C44 C43 1_555 1_555
H29 C44 1_555 1_555
H30 C44 1_555 1_555
C45 C44 1_555 1_555
H31 C45 1_555 1_555
H32 C45 1_555 1_555
C46 C45 1_555 1_555
H33 C46 1_555 1_555
H34 C46 1_555 1_555
H35 C46 1_555 1_555
C47 C42 1_555 1_555
H36 C47 1_555 1_555
H37 C47 1_555 1_555
C48 C47 1_555 1_555
H38 C48 1_555 1_555
H39 C48 1_555 1_555
C49 C48 1_555 1_555
H40 C49 1_555 1_555
H41 C49 1_555 1_555
C50 C49 1_555 1_555
H42 C50 1_555 1_555
H43 C50 1_555 1_555
H44 C50 1_555 1_555
C1A C2A 1_555 1_555
C2A C3A 1_555 1_555
C3A H1A 1_555 1_555
C4A C3A 1_555 1_555
C5A C4A 1_555 1_555
O1A C5A 1_555 1_555
C6A C4A 1_555 1_555
C7A C1A 1_555 1_555
C8A C7A 1_555 1_555
C9A C8A 1_555 1_555
H2A C9A 1_555 1_555
C10A C9A 1_555 1_555
H3A C10A 1_555 1_555
C11A C6A 1_555 1_555
C12A C11A 1_555 1_555
O2A C12A 1_555 1_555
C13A C8A 1_555 1_555
C14A C32 1_555 1_555
C15A C14A 1_555 1_555
H4A C15A 1_555 1_555
C16A C15A 1_555 1_555
C17A C16A 1_555 1_555
O3A C17A 1_555 1_555
C18A C16A 1_555 1_555
C19A C13A 1_555 1_555
C20A C1A 1_555 1_555
C21A C20A 1_555 1_555
H5A C21A 1_555 1_555
C22A C21A 1_555 1_555
H6A C22A 1_555 1_555
C23A C18A 1_555 1_555
C24A C23A 1_555 1_555
O4A C24A 1_555 1_555
C25A C2A 1_555 1_555
C26A C25A 1_555 1_555
Br1A C26A 1_555 1_555
C27A C26A 1_555 1_555
Br2A C27A 1_555 1_555
C28A C27A 1_555 1_555
S1A C25A 1_555 1_555
C29A C28A 1_555 1_555
C30A C29A 1_555 1_555
Br3A C30A 1_555 1_555
C31A C30A 1_555 1_555
Br4A C31A 1_555 1_555
C32A C31A 1_555 1_555
S2A C29A 1_555 1_555
N1A C5A 1_555 1_555
C33A N1A 1_555 1_555
H7A C33A 1_555 1_555
C34A C33A 1_555 1_555
H8A C34A 1_555 1_555
H9A C34A 1_555 1_555
C35A C34A 1_555 1_555
H10A C35A 1_555 1_555
H11A C35A 1_555 1_555
C36A C35A 1_555 1_555
H12A C36A 1_555 1_555
H13A C36A 1_555 1_555
C37A C36A 1_555 1_555
H14A C37A 1_555 1_555
H15A C37A 1_555 1_555
H16A C37A 1_555 1_555
C38A C33A 1_555 1_555
H17A C38A 1_555 1_555
H18A C38A 1_555 1_555
C39A C38A 1_555 1_555
H19A C39A 1_555 1_555
H20A C39A 1_555 1_555
C40A C39A 1_555 1_555
H21A C40A 1_555 1_555
H22A C40A 1_555 1_555
C41A C40A 1_555 1_555
H23A C41A 1_555 1_555
H24A C41A 1_555 1_555
H25A C41A 1_555 1_555
N2A C17A 1_555 1_555
C42A N2A 1_555 1_555
H26A C42A 1_555 1_555
C43A C42A 1_555 1_555
H27A C43A 1_555 1_555
H28A C43A 1_555 1_555
C44A C43A 1_555 1_555
H29A C44A 1_555 1_555
H30A C44A 1_555 1_555
C45A C44A 1_555 1_555
H31A C45A 1_555 1_555
H32A C45A 1_555 1_555
C46A C45A 1_555 1_555
H33A C46A 1_555 1_555
H34A C46A 1_555 1_555
H35A C46A 1_555 1_555
C47A C42A 1_555 1_555
H36A C47A 1_555 1_555
H37A C47A 1_555 1_555
C48A C47A 1_555 1_555
H38A C48A 1_555 1_555
H39A C48A 1_555 1_555
C49A C48A 1_555 1_555
H40A C49A 1_555 1_555
H41A C49A 1_555 1_555
C50A C49A 1_555 1_555
H42A C50A 1_555 1_555
H43A C50A 1_555 1_555
H44A C50A 1_555 1_555
C1B C2B 1_555 1_555
C2B C3B 1_555 1_555
C3B H1B 1_555 1_555
C4B C3B 1_555 1_555
C5B C4B 1_555 1_555
O1B C5B 1_555 1_555
C6B C4B 1_555 1_555
C7B C1B 1_555 1_555
C8B C7B 1_555 1_555
C9B C8B 1_555 1_555
H2B C9B 1_555 1_555
C10B C9B 1_555 1_555
H3B C10B 1_555 1_555
C11B C6B 1_555 1_555
C12B C11B 1_555 1_555
O2B C12B 1_555 1_555
C13B C8B 1_555 1_555
C14B C32A 1_555 1_555
C15B C14B 1_555 1_555
H4B C15B 1_555 1_555
C16B C15B 1_555 1_555
C17B C16B 1_555 1_555
O3B C17B 1_555 1_555
C18B C16B 1_555 1_555
C19B C13B 1_555 1_555
C20B C1B 1_555 1_555
C21B C20B 1_555 1_555
H5B C21B 1_555 1_555
C22B C21B 1_555 1_555
H6B C22B 1_555 1_555
C23B C18B 1_555 1_555
C24B C23B 1_555 1_555
O4B C24B 1_555 1_555
C25B C2B 1_555 1_555
C26B C25B 1_555 1_555
Br1B C26B 1_555 1_555
C27B C26B 1_555 1_555
Br2B C27B 1_555 1_555
C28B C27B 1_555 1_555
S1B C25B 1_555 1_555
C29B C28B 1_555 1_555
C30B C29B 1_555 1_555
Br3B C30B 1_555 1_555
C31B C30B 1_555 1_555
Br4B C31B 1_555 1_555
C32B C14 1_555 1_555
S2B C29B 1_555 1_555
N1B C5B 1_555 1_555
C33B N1B 1_555 1_555
H7B C33B 1_555 1_555
C34B C33B 1_555 1_555
H8B C34B 1_555 1_555
H9B C34B 1_555 1_555
C35B C34B 1_555 1_555
H10B C35B 1_555 1_555
H11B C35B 1_555 1_555
C36B C35B 1_555 1_555
H12B C36B 1_555 1_555
H13B C36B 1_555 1_555
C37B C36B 1_555 1_555
H14B C37B 1_555 1_555
H15B C37B 1_555 1_555
H16B C37B 1_555 1_555
C38B C33B 1_555 1_555
H17B C38B 1_555 1_555
H18B C38B 1_555 1_555
C39B C38B 1_555 1_555
H19B C39B 1_555 1_555
H20B C39B 1_555 1_555
C40B C39B 1_555 1_555
H21B C40B 1_555 1_555
H22B C40B 1_555 1_555
C41B C40B 1_555 1_555
H23B C41B 1_555 1_555
H24B C41B 1_555 1_555
H25B C41B 1_555 1_555
N2B C17B 1_555 1_555
C42B N2B 1_555 1_555
H26B C42B 1_555 1_555
C43B C42B 1_555 1_555
H27B C43B 1_555 1_555
H28B C43B 1_555 1_555
C44B C43B 1_555 1_555
H29B C44B 1_555 1_555
H30B C44B 1_555 1_555
C45B C44B 1_555 1_555
H31B C45B 1_555 1_555
H32B C45B 1_555 1_555
C46B C45B 1_555 1_555
H33B C46B 1_555 1_555
H34B C46B 1_555 1_555
H35B C46B 1_555 1_555
C47B C42B 1_555 1_555
H36B C47B 1_555 1_555
H37B C47B 1_555 1_555
C48B C47B 1_555 1_555
H38B C48B 1_555 1_555
H39B C48B 1_555 1_555
C49B C48B 1_555 1_555
H40B C49B 1_555 1_555
H41B C49B 1_555 1_555
C50B C49B 1_555 1_555
H42B C50B 1_555 1_555
H43B C50B 1_555 1_555
H44B C50B 1_555 1_555
C6 C7 1_555 1_555
C10 C11 1_555 1_555
C12 N1 1_555 1_555
C18 C19 1_555 1_555
C19 C20 1_555 1_555
C22 C23 1_555 1_555
C24 N2 1_555 1_555
C28 S1 1_555 1_555
C32 S2 1_555 1_555
C6A C7A 1_555 1_555
C10A C11A 1_555 1_555
C12A N1A 1_555 1_555
C13A C14A 1_555 1_555
C18A C19A 1_555 1_555
C19A C20A 1_555 1_555
C22A C23A 1_555 1_555
C24A N2A 1_555 1_555
C28A S1A 1_555 1_555
C32A S2A 1_555 1_555
C6B C7B 1_555 1_555
C10B C11B 1_555 1_555
C12B N1B 1_555 1_555
C13B C14B 1_555 1_555
C18B C19B 1_555 1_555
C19B C20B 1_555 1_555
C22B C23B 1_555 1_555
C24B N2B 1_555 1_555
C28B S1B 1_555 1_555
C31B C32B 1_555 1_555
C32B S2B 1_555 1_555

#END
