
#######################################################################
#
#                 Cambridge Crystallographic Data Centre
#                                CCDC 
#
#######################################################################
#
# If this CIF has been generated from an entry in the Cambridge 
# Structural Database, then it will include bibliographic, chemical, 
# crystal, experimental, refinement or atomic coordinate data resulting 
# from the CCDC's data processing and validation procedures.
#
#######################################################################

data_WEYMET
_chemical_formula_moiety         'C15 H13 N3 O2 S1'
_chemical_name_systematic        
1-[(4-methylphenyl)sulfonyl]-4-phenyl-1H-1,2,3-triazole
_symmetry_cell_setting           orthorhombic
_symmetry_space_group_name_H-M   'P 21 21 21'
_symmetry_Int_Tables_number      19
_space_group_name_Hall           'P 2ac 2ab'
loop_
_symmetry_equiv_pos_site_id
_symmetry_equiv_pos_as_xyz
1 x,y,z
2 1/2-x,-y,1/2+z
3 -x,1/2+y,1/2-z
4 1/2+x,1/2-y,-z
_cell_length_a                   5.103(3)
_cell_length_b                   11.137(8)
_cell_length_c                   25.23(2)
_cell_angle_alpha                90
_cell_angle_beta                 90
_cell_angle_gamma                90
_cell_volume                     1433.87
_chemical_melting_point          '107-108 deg.C'
_cell_formula_units_Z            4
loop_
_atom_site_label
_atom_site_type_symbol
_atom_site_fract_x
_atom_site_fract_y
_atom_site_fract_z
C1 C -0.1530(7) 1.0211(3) -0.03450(12)
C2 C 0.0061(9) 0.9381(4) -0.06006(16)
H1 H -0.014(8) 0.861(4) -0.0460(15)
C3 C 0.1684(9) 0.9786(4) -0.09954(16)
H2 H 0.264(8) 0.923(4) -0.1149(14)
C4 C 0.1736(8) 1.0974(4) -0.11493(14)
C5 C 0.3540(13) 1.1369(7) -0.1583(2)
H3 H 0.551(12) 1.113(4) -0.1525(19)
H4 H 0.312(12) 1.119(5) -0.192(2)
H5 H 0.353(12) 1.205(5) -0.171(2)
C6 C 0.0121(10) 1.1773(4) -0.08901(16)
H6 H 0.014(8) 1.255(3) -0.0995(13)
C7 C -0.1514(9) 1.1410(3) -0.04861(14)
H7 H -0.274(7) 1.195(3) -0.0333(13)
S1 S -0.35496(17) 0.97269(7) 0.01649(3)
O1 O -0.4228(5) 0.8497(2) 0.00882(10)
O2 O -0.5458(5) 1.0606(2) 0.02867(10)
N1 N -0.1481(6) 0.9679(2) 0.06982(10)
N2 N -0.0902(7) 1.0701(3) 0.09705(12)
N3 N 0.0793(6) 1.0406(3) 0.13298(12)
C8 C 0.1351(8) 0.9209(3) 0.12889(13)
C9 C -0.0060(8) 0.8739(3) 0.08898(14)
H8 H -0.033(7) 0.800(3) 0.0712(12)
C10 C 0.3191(7) 0.8616(3) 0.16556(13)
C11 C 0.5067(9) 0.9284(5) 0.19199(16)
H9 H 0.521(9) 1.012(4) 0.1817(17)
C12 C 0.6747(11) 0.8733(6) 0.22707(19)
H10 H 0.803(12) 0.924(5) 0.245(2)
C13 C 0.6629(12) 0.7542(7) 0.2366(2)
H11 H 0.751(14) 0.713(5) 0.261(2)
C14 C 0.4793(13) 0.6875(6) 0.2099(2)
H12 H 0.452(10) 0.609(4) 0.2175(17)
C15 C 0.3075(11) 0.7411(5) 0.17519(18)
H13 H 0.198(10) 0.693(4) 0.1596(16)
loop_
_geom_bond_atom_site_label_1
_geom_bond_atom_site_label_2
_geom_bond_site_symmetry_1
_geom_bond_site_symmetry_2
C1 C2 1_555 1_555
C2 H1 1_555 1_555
C3 C2 1_555 1_555
H2 C3 1_555 1_555
C4 C3 1_555 1_555
C5 C4 1_555 1_555
H3 C5 1_555 1_555
H4 C5 1_555 1_555
H5 C5 1_555 1_555
C6 C4 1_555 1_555
H6 C6 1_555 1_555
C7 C1 1_555 1_555
H7 C7 1_555 1_555
S1 C1 1_555 1_555
O1 S1 1_555 1_555
O2 S1 1_555 1_555
N1 S1 1_555 1_555
N2 N1 1_555 1_555
N3 N2 1_555 1_555
C8 N3 1_555 1_555
C9 N1 1_555 1_555
H8 C9 1_555 1_555
C10 C8 1_555 1_555
C11 C10 1_555 1_555
H9 C11 1_555 1_555
C12 C11 1_555 1_555
H10 C12 1_555 1_555
C13 C12 1_555 1_555
H11 C13 1_555 1_555
C14 C13 1_555 1_555
H12 C14 1_555 1_555
C15 C10 1_555 1_555
H13 C15 1_555 1_555
C6 C7 1_555 1_555
C8 C9 1_555 1_555
C14 C15 1_555 1_555

#END
