
#######################################################################
#
#                 Cambridge Crystallographic Data Centre
#                                CCDC 
#
#######################################################################
#
# If this CIF has been generated from an entry in the Cambridge 
# Structural Database, then it will include bibliographic, chemical, 
# crystal, experimental, refinement or atomic coordinate data resulting 
# from the CCDC's data processing and validation procedures.
#
#######################################################################

data_WEYNIX10
_chemical_formula_moiety         'C14 H12 O1 S3'
_chemical_name_systematic        
1-(S-Methylsulfinyl)-9-(methylthio)-dibenzothiophene
_symmetry_cell_setting           orthorhombic
_symmetry_space_group_name_H-M   'P 21 21 21'
_symmetry_Int_Tables_number      19
_space_group_name_Hall           'P 2ac 2ab'
loop_
_symmetry_equiv_pos_site_id
_symmetry_equiv_pos_as_xyz
1 x,y,z
2 1/2-x,-y,1/2+z
3 1/2+x,1/2-y,-z
4 -x,1/2+y,1/2-z
_cell_length_a                   8.839(1)
_cell_length_b                   17.333(1)
_cell_length_c                   8.445(3)
_cell_angle_alpha                90
_cell_angle_beta                 90
_cell_angle_gamma                90
_cell_volume                     1293.83
_cell_formula_units_Z            4
loop_
_atom_site_label
_atom_site_type_symbol
_atom_site_fract_x
_atom_site_fract_y
_atom_site_fract_z
S1 S 1.0561(2) 0.60997(7) -0.2879(1)
S2 S 0.9293(2) 0.65702(7) 0.3282(1)
S3 S 0.8507(2) 0.48642(7) 0.2470(2)
O1 O 0.9952(5) 0.7312(2) 0.3876(5)
C1 C 0.9516(6) 0.6629(3) -0.1530(5)
C2 C 0.8905(6) 0.7349(3) -0.1866(7)
C3 C 0.8212(7) 0.7753(3) -0.0657(7)
C4 C 0.8265(6) 0.7461(3) 0.0870(6)
C5 C 0.8859(5) 0.6742(3) 0.1215(5)
C6 C 0.9413(5) 0.6271(3) -0.0020(5)
C7 C 0.7396(7) 0.6574(4) 0.4060(7)
C8 C 1.0807(6) 0.5370(3) -0.1505(6)
C9 C 1.1614(6) 0.4691(3) -0.1800(6)
C10 C 1.1613(6) 0.4128(3) -0.0674(7)
C11 C 1.0713(6) 0.4193(3) 0.0671(6)
C12 C 0.9900(6) 0.4862(3) 0.0974(5)
C13 C 1.0033(5) 0.5494(3) -0.0057(6)
C14 C 0.9424(9) 0.4394(5) 0.4089(8)
H1 H 0.912(6) 0.754(3) -0.299(6)
H2 H 0.775(6) 0.832(3) -0.094(6)
H3 H 0.804(6) 0.775(3) 0.175(7)
H4 H 0.760(6) 0.642(3) 0.531(6)
H5 H 0.720(6) 0.719(3) 0.416(6)
H6 H 0.688(6) 0.614(3) 0.361(6)
H7 H 1.188(6) 0.462(3) -0.292(6)
H8 H 1.198(6) 0.364(3) -0.083(6)
H9 H 1.054(6) 0.375(3) 0.122(6)
H10 H 1.007(6) 0.485(3) 0.458(6)
H11 H 0.928(6) 0.381(3) 0.369(6)
H12 H 0.887(6) 0.432(3) 0.487(6)
loop_
_geom_bond_atom_site_label_1
_geom_bond_atom_site_label_2
_geom_bond_site_symmetry_1
_geom_bond_site_symmetry_2
S1 C1 1_555 1_555
S2 O1 1_555 1_555
S3 C12 1_555 1_555
C1 C2 1_555 1_555
C2 C3 1_555 1_555
C3 C4 1_555 1_555
C4 C5 1_555 1_555
C5 S2 1_555 1_555
C6 C1 1_555 1_555
C7 S2 1_555 1_555
C8 S1 1_555 1_555
C9 C8 1_555 1_555
C10 C9 1_555 1_555
C11 C10 1_555 1_555
C12 C11 1_555 1_555
C13 C6 1_555 1_555
C14 S3 1_555 1_555
H1 C2 1_555 1_555
H2 C3 1_555 1_555
H3 C4 1_555 1_555
H4 C7 1_555 1_555
H5 C7 1_555 1_555
H6 C7 1_555 1_555
H7 C9 1_555 1_555
H8 C10 1_555 1_555
H9 C11 1_555 1_555
H10 C14 1_555 1_555
H11 C14 1_555 1_555
H12 C14 1_555 1_555
C5 C6 1_555 1_555
C8 C13 1_555 1_555
C12 C13 1_555 1_555

#END
