
#######################################################################
#
#                 Cambridge Crystallographic Data Centre
#                                CCDC 
#
#######################################################################
#
# If this CIF has been generated from an entry in the Cambridge 
# Structural Database, then it will include bibliographic, chemical, 
# crystal, experimental, refinement or atomic coordinate data resulting 
# from the CCDC's data processing and validation procedures.
#
#######################################################################

data_WEYNIX
_chemical_formula_moiety         'C14 H12 O1 S3'
_chemical_name_systematic        
1-(Methylsulfinyl)-9-(methylthio)dibenzothiophene
_symmetry_cell_setting           orthorhombic
_symmetry_space_group_name_H-M   'P 21 21 21'
_symmetry_Int_Tables_number      19
_space_group_name_Hall           'P 2ac 2ab'
loop_
_symmetry_equiv_pos_site_id
_symmetry_equiv_pos_as_xyz
1 x,y,z
2 1/2+x,1/2-y,-z
3 -x,1/2+y,1/2-z
4 1/2-x,-y,1/2+z
_cell_length_a                   8.444(1)
_cell_length_b                   8.837(1)
_cell_length_c                   17.340(2)
_cell_angle_alpha                90
_cell_angle_beta                 90
_cell_angle_gamma                90
_cell_volume                     1293.9
_cell_formula_units_Z            4
loop_
_atom_site_label
_atom_site_type_symbol
_atom_site_fract_x
_atom_site_fract_y
_atom_site_fract_z
S1 S 0.21200(9) -0.0559(1) 0.39005(5)
S2 S 0.82824(9) 0.07083(9) 0.34298(4)
S3 S 0.7469(1) 0.1497(1) 0.51370(4)
O1 O 0.8875(3) 0.0046(3) 0.2689(1)
C1 C 0.4976(3) 0.0587(3) 0.3723(2)
C2 C 0.6209(4) 0.1150(3) 0.3254(2)
C3 C 0.5874(4) 0.1749(4) 0.2538(2)
C4 C 0.4337(4) 0.1797(4) 0.2255(2)
C5 C 0.3137(4) 0.1112(4) 0.2655(2)
C6 C 0.3471(3) 0.0508(3) 0.3370(2)
C7 C 0.4936(4) -0.0039(3) 0.4506(2)
C8 C 0.5979(4) 0.0094(3) 0.5136(2)
C9 C 0.5665(4) -0.0726(4) 0.5805(2)
C10 C 0.4325(4) -0.1618(4) 0.5875(2)
C11 C 0.3197(4) -0.1622(4) 0.5308(2)
C12 C 0.3493(4) -0.0798(3) 0.4640(2)
C13 C 0.9042(4) 0.2610(4) 0.3429(2)
C14 C 0.9100(5) 0.0613(5) 0.5597(3)
H1 H 0.667(4) 0.205(3) 0.221(2)
H2 H 0.417(4) 0.224(4) 0.176(2)
H3 H 0.208(4) 0.108(3) 0.247(2)
H4 H 0.631(3) -0.059(3) 0.622(2)
H5 H 0.414(4) -0.214(3) 0.632(2)
H6 H 0.228(4) -0.215(3) 0.536(2)
H7 H 1.004(4) 0.259(4) 0.356(2)
H8 H 0.895(4) 0.303(3) 0.287(2)
H9 H 0.848(4) 0.322(3) 0.381(2)
H10 H 0.997(4) 0.126(4) 0.561(2)
H11 H 0.874(3) 0.042(3) 0.616(2)
H12 H 0.921(4) -0.035(4) 0.547(2)
loop_
_geom_bond_atom_site_label_1
_geom_bond_atom_site_label_2
_geom_bond_site_symmetry_1
_geom_bond_site_symmetry_2
S1 C6 1_555 1_555
S2 O1 1_555 1_555
S3 C8 1_555 1_555
C1 C2 1_555 1_555
C2 S2 1_555 1_555
C3 C2 1_555 1_555
C4 C3 1_555 1_555
C5 C4 1_555 1_555
C6 C1 1_555 1_555
C7 C1 1_555 1_555
C8 C7 1_555 1_555
C9 C8 1_555 1_555
C10 C9 1_555 1_555
C11 C10 1_555 1_555
C12 S1 1_555 1_555
C13 S2 1_555 1_555
C14 S3 1_555 1_555
H1 C3 1_555 1_555
H2 C4 1_555 1_555
H3 C5 1_555 1_555
H4 C9 1_555 1_555
H5 C10 1_555 1_555
H6 C11 1_555 1_555
H7 C13 1_555 1_555
H8 C13 1_555 1_555
H9 C13 1_555 1_555
H10 C14 1_555 1_555
H11 C14 1_555 1_555
H12 C14 1_555 1_555
C5 C6 1_555 1_555
C7 C12 1_555 1_555
C11 C12 1_555 1_555

#END
