
#######################################################################
#
#                 Cambridge Crystallographic Data Centre
#                                CCDC 
#
#######################################################################
#
# If this CIF has been generated from an entry in the Cambridge 
# Structural Database, then it will include bibliographic, chemical, 
# crystal, experimental, refinement or atomic coordinate data resulting 
# from the CCDC's data processing and validation procedures.
#
#######################################################################

data_WEYPIB
_chemical_formula_moiety         'C17 H12 O4'
_chemical_name_systematic        
1-Hydroxy-8,8-dimethyl-7H-phenaleno[1,2-c]furan-7,10(8H)-dione
_symmetry_cell_setting           orthorhombic
_symmetry_space_group_name_H-M   'P n m a'
_symmetry_Int_Tables_number      62
_space_group_name_Hall           '-P 2ac 2n'
loop_
_symmetry_equiv_pos_site_id
_symmetry_equiv_pos_as_xyz
1 x,y,z
2 1/2-x,-y,1/2+z
3 1/2+x,1/2-y,1/2-z
4 -x,1/2+y,-z
5 -x,-y,-z
6 1/2+x,y,1/2-z
7 1/2-x,1/2+y,1/2+z
8 x,1/2-y,z
_cell_length_a                   19.8142(12)
_cell_length_b                   6.9536(4)
_cell_length_c                   19.0019(12)
_cell_angle_alpha                90
_cell_angle_beta                 90
_cell_angle_gamma                90
_cell_volume                     2618.08
_exptl_crystal_colour            orange
_exptl_crystal_description       needle
_cell_formula_units_Z            8
loop_
_atom_site_label
_atom_site_type_symbol
_atom_site_fract_x
_atom_site_fract_y
_atom_site_fract_z
O1 O 0.52167(12) 0.2500 0.45184(12)
O2 O 0.44660(12) 0.2500 0.36593(13)
O3 O 0.45700(12) 0.250000(10) 0.23147(13)
O4 O 0.73690(12) 0.2500 0.40591(12)
C1 C 0.5058(2) 0.2500 0.3837(2)
C2 C 0.56749(18) 0.2500 0.34024(19)
C3 C 0.57479(18) 0.2500 0.26485(19)
C4 C 0.5229(2) 0.2500 0.2160(2)
C5 C 0.5369(2) 0.250000(10) 0.1433(2)
C6 C 0.6010(2) 0.250000(10) 0.1197(2)
C7 C 0.6562(2) 0.2500 0.1665(2)
C8 C 0.7229(2) 0.250000(10) 0.1419(2)
C9 C 0.7766(2) 0.250000(10) 0.1883(2)
C10 C 0.7648(2) 0.250000(10) 0.2597(2)
C11 C 0.69943(19) 0.2500 0.28655(19)
C12 C 0.64335(19) 0.2500 0.23987(18)
C13 C 0.68960(18) 0.2500 0.3630(2)
C14 C 0.61983(18) 0.2500 0.38582(18)
C15 C 0.59590(19) 0.2500 0.46099(19)
C16 C 0.61414(12) 0.4327(3) 0.50054(12)
H1 H 0.5014 0.2500 0.1112
H2 H 0.6090 0.2500 0.0714
H3 H 0.7312 0.2500 0.0937
H4 H 0.8206 0.2500 0.1713
H5 H 0.8012 0.2500 0.2906
H6 H 0.4503 0.2500 0.2814
H7 H 0.5921 0.5405 0.4789
H8 H 0.6621 0.4511 0.4991
H9 H 0.5997 0.4218 0.5486
C16G C 0.61414(12) 0.0673(3) 0.50054(12)
H7G H 0.5921 -0.0405 0.4789
H8G H 0.6621 0.0489 0.4991
H9G H 0.5997 0.0782 0.5486
O5 O 0.37094(12) 0.7500 0.20509(16)
O6 O 0.41213(12) 0.7500 0.31352(14)
O7 O 0.53371(12) 0.750000(10) 0.36208(12)
O8 O 0.50425(14) 0.7500 0.02268(12)
C17 C 0.4224(2) 0.7500 0.2499(2)
C18 C 0.48723(19) 0.7500 0.2110(2)
C19 C 0.55605(19) 0.7500 0.23640(19)
C20 C 0.5762(2) 0.7500 0.3053(2)
C21 C 0.6445(2) 0.750000(10) 0.3243(2)
C22 C 0.6928(2) 0.750000(10) 0.2741(2)
C23 C 0.6761(2) 0.7500 0.2020(2)
C24 C 0.7266(2) 0.750000(10) 0.1506(2)
C25 C 0.7089(2) 0.750000(10) 0.0802(2)
C26 C 0.6421(2) 0.750000(10) 0.0612(2)
C27 C 0.5905(2) 0.7500 0.1100(2)
C28 C 0.60650(19) 0.7500 0.1826(2)
C29 C 0.5202(2) 0.7500 0.0858(2)
C30 C 0.47036(18) 0.7500 0.1422(2)
C31 C 0.3959(2) 0.7500 0.1308(2)
C32 C 0.36982(12) 0.5687(3) 0.09652(13)
H10 H 0.6567 0.7500 0.3715
H11 H 0.7380 0.7500 0.2874
H12 H 0.7718 0.7500 0.1637
H13 H 0.7422 0.7500 0.0458
H14 H 0.6311 0.7500 0.0136
H15 H 0.4887 0.7500 0.3446
H16 H 0.3847 0.4589 0.1229
H17 H 0.3214 0.5715 0.0956
H18 H 0.3868 0.5604 0.0493
C32G C 0.36982(12) 0.9313(3) 0.09652(13)
H16G H 0.3847 1.0411 0.1229
H17G H 0.3214 0.9285 0.0956
H18G H 0.3868 0.9396 0.0493
loop_
_geom_bond_atom_site_label_1
_geom_bond_atom_site_label_2
_geom_bond_site_symmetry_1
_geom_bond_site_symmetry_2
O1 C1 1_555 1_555
O2 C1 1_555 1_555
O3 C4 1_555 1_555
O4 C13 1_555 1_555
C1 C2 1_555 1_555
C2 C3 1_555 1_555
C3 C4 1_555 1_555
C4 C5 1_555 1_555
C5 C6 1_555 1_555
C6 C7 1_555 1_555
C7 C8 1_555 1_555
C8 C9 1_555 1_555
C9 C10 1_555 1_555
C10 C11 1_555 1_555
C11 C12 1_555 1_555
C12 C3 1_555 1_555
C13 C11 1_555 1_555
C14 C2 1_555 1_555
C15 O1 1_555 1_555
C16 C15 1_555 1_555
H1 C5 1_555 1_555
H2 C6 1_555 1_555
H3 C8 1_555 1_555
H4 C9 1_555 1_555
H5 C10 1_555 1_555
H6 O3 1_555 1_555
H7 C16 1_555 1_555
H8 C16 1_555 1_555
H9 C16 1_555 1_555
O5 C17 1_555 1_555
O6 C17 1_555 1_555
O7 C20 1_555 1_555
O8 C29 1_555 1_555
C17 C18 1_555 1_555
C18 C19 1_555 1_555
C19 C20 1_555 1_555
C20 C21 1_555 1_555
C21 C22 1_555 1_555
C22 C23 1_555 1_555
C23 C24 1_555 1_555
C24 C25 1_555 1_555
C25 C26 1_555 1_555
C26 C27 1_555 1_555
C27 C28 1_555 1_555
C28 C19 1_555 1_555
C29 C27 1_555 1_555
C30 C18 1_555 1_555
C31 O5 1_555 1_555
C32 C31 1_555 1_555
H10 C21 1_555 1_555
H11 C22 1_555 1_555
H12 C24 1_555 1_555
H13 C25 1_555 1_555
H14 C26 1_555 1_555
H15 O7 1_555 1_555
H16 C32 1_555 1_555
H17 C32 1_555 1_555
H18 C32 1_555 1_555
C16G C15 1_555 1_555
H7G C16G 1_555 1_555
H8G C16G 1_555 1_555
H9G C16G 1_555 1_555
C32G C31 1_555 1_555
H16G C32G 1_555 1_555
H17G C32G 1_555 1_555
H18G C32G 1_555 1_555
C7 C12 1_555 1_555
C13 C14 1_555 1_555
C14 C15 1_555 1_555
C23 C28 1_555 1_555
C29 C30 1_555 1_555
C30 C31 1_555 1_555

#END
