
#######################################################################
#
#                 Cambridge Crystallographic Data Centre
#                                CCDC 
#
#######################################################################
#
# If this CIF has been generated from an entry in the Cambridge 
# Structural Database, then it will include bibliographic, chemical, 
# crystal, experimental, refinement or atomic coordinate data resulting 
# from the CCDC's data processing and validation procedures.
#
#######################################################################

data_WEYXAC
_chemical_formula_moiety         'C48 H42 B1 N3 O2 S1'
_chemical_name_systematic        
2-[4-(diphenylamino)phenyl]-8-octyl-4-phenyl-5H-benzo[de]thieno[3',2':3,4][1,2]azaborinino[5,6-g]isoquinoline-7,9(4H,8H)-dione
_symmetry_cell_setting           triclinic
_symmetry_space_group_name_H-M   'P -1'
_symmetry_Int_Tables_number      2
_space_group_name_Hall           '-P 1'
loop_
_symmetry_equiv_pos_site_id
_symmetry_equiv_pos_as_xyz
1 x,y,z
2 -x,-y,-z
_cell_length_a                   4.8209(2)
_cell_length_b                   19.1877(7)
_cell_length_c                   23.9230(8)
_cell_angle_alpha                109.218(2)
_cell_angle_beta                 95.529(2)
_cell_angle_gamma                96.646(2)
_cell_volume                     2054.13
_exptl_crystal_colour            red
_exptl_crystal_description       block
_cell_formula_units_Z            2
loop_
_atom_site_label
_atom_site_type_symbol
_atom_site_fract_x
_atom_site_fract_y
_atom_site_fract_z
S1 S 0.48871(11) 0.64561(4) 0.72291(3)
O1 O -0.5424(4) 0.29122(12) 0.72950(9)
N1 N 1.1092(4) 0.85983(12) 0.58273(8)
C1 C 1.4523(5) 0.95552(16) 0.57058(11)
H1 H 1.511053 0.918277 0.538695
B1 B 0.8920(5) 0.65554(15) 0.88260(11)
O2 O 0.1548(4) 0.35735(9) 0.88655(7)
N2 N 0.7425(4) 0.59082(10) 0.88804(8)
C2 C 1.5750(6) 1.02905(17) 0.58610(12)
H2 H 1.714766 1.042101 0.564332
N3 N -0.1951(4) 0.32487(11) 0.80826(8)
C3 C 1.4972(6) 1.08362(17) 0.63271(12)
H3 H 1.581433 1.134304 0.643120
C4 C 1.2956(6) 1.06409(17) 0.66424(12)
H4 H 1.244041 1.101381 0.697184
C5 C 1.1673(6) 0.99042(15) 0.64827(11)
H5 H 1.026020 0.977793 0.669904
C6 C 1.2433(5) 0.93509(14) 0.60103(10)
C7 C 1.0685(5) 0.81496(14) 0.52083(10)
C8 C 1.1320(5) 0.74273(15) 0.50338(12)
H6 H 1.197654 0.722727 0.532720
C9 C 1.0997(7) 0.69982(18) 0.44318(13)
H7 H 1.144331 0.650566 0.431455
C10 C 1.0029(6) 0.72817(17) 0.40006(12)
H8 H 0.983902 0.698965 0.358821
C11 C 0.9347(5) 0.79870(16) 0.41743(11)
H9 H 0.864370 0.817961 0.387978
C12 C 0.9669(5) 0.84240(15) 0.47734(10)
H10 H 0.919285 0.891346 0.488675
C13 C 1.0242(5) 0.82755(15) 0.62485(10)
C14 C 1.1801(6) 0.84492(17) 0.68066(11)
H11 H 1.344507 0.881697 0.692433
C15 C 1.0979(6) 0.80897(17) 0.71972(12)
H12 H 1.207456 0.822045 0.757923
C16 C 0.8611(5) 0.75471(16) 0.70440(11)
C17 C 0.7031(6) 0.7403(2) 0.64922(13)
H13 H 0.534508 0.705024 0.637928
C18 C 0.7821(6) 0.7756(2) 0.60999(13)
H14 H 0.668452 0.763959 0.572419
C19 C 0.7824(5) 0.71425(15) 0.74456(11)
H15 H 0.783(5) 0.5765(12) 0.9189(10)
C20 C 0.9175(5) 0.71963(15) 0.79921(11)
H16 H 1.082630 0.754693 0.818756
C21 C 0.7898(4) 0.66824(14) 0.82437(10)
C22 C 0.5498(4) 0.62206(14) 0.78703(10)
C23 C 1.2042(6) 0.78176(14) 0.94569(11)
H17 H 1.102765 0.804460 0.922186
C24 C 1.4140(6) 0.82598(15) 0.99093(11)
H18 H 1.454485 0.878111 0.998229
C25 C 1.5655(6) 0.79425(15) 1.02568(11)
H19 H 1.713241 0.824197 1.056338
C26 C 1.5001(5) 0.71858(14) 1.01541(11)
H20 H 1.601630 0.696537 1.039431
C27 C 1.2885(5) 0.67517(13) 0.97054(9)
H21 H 1.244626 0.623459 0.964637
C28 C 1.1347(4) 0.70481(12) 0.93304(9)
C29 C 0.3963(4) 0.56023(13) 0.79843(9)
C30 C 0.5112(4) 0.54512(12) 0.84915(9)
C31 C 0.3925(4) 0.48219(12) 0.86174(9)
H22 H 0.477611 0.472562 0.895394
C32 C 0.1606(4) 0.43481(12) 0.82736(9)
C33 C 0.0308(4) 0.44853(13) 0.77685(9)
C34 C -0.2129(4) 0.39918(14) 0.74194(10)
C35 C -0.3451(5) 0.41088(16) 0.69256(11)
H23 H -0.507347 0.377605 0.668794
C36 C -0.2364(5) 0.47201(16) 0.67846(11)
H24 H -0.326631 0.480419 0.644685
C37 C -0.0017(5) 0.52081(15) 0.71193(10)
H25 H 0.063148 0.562675 0.701193
C38 C 0.1462(4) 0.51063(13) 0.76190(9)
C39 C 0.0455(5) 0.37083(12) 0.84342(9)
C40 C -0.3318(5) 0.33481(15) 0.75804(10)
C41 C -0.3128(5) 0.26170(13) 0.82565(11)
H26 H -0.518001 0.248966 0.811244
H27 H -0.286878 0.277326 0.869835
C42 C -0.1773(5) 0.19323(14) 0.80094(11)
H28 H 0.028365 0.205827 0.814888
H29 H -0.205941 0.176794 0.756710
C43 C -0.2994(5) 0.12990(14) 0.82032(12)
H30 H -0.257043 0.145453 0.864398
H31 H -0.507186 0.120873 0.809553
C44 C -0.1885(6) 0.05746(15) 0.79272(13)
H32 H -0.227527 0.042712 0.748647
H33 H 0.018950 0.066581 0.804052
C45 C -0.3093(8) -0.00650(16) 0.81026(15)
H34 H -0.490771 -0.029461 0.783812
H35 H -0.181012 -0.044178 0.800529
C46 C -0.1171(17) 0.0078(3) 0.8786(3)
H36 H 0.085159 0.015256 0.874246
H37 H -0.155349 0.055321 0.906966
C47 C 0.0049(18) -0.0251(5) 0.9712(3)
C48 C -0.1614(18) -0.0509(4) 0.9076(4)
H38 H -0.100549 -0.097315 0.882650
H39 H -0.364928 -0.062373 0.909669
S1A S -0.48871(11) -0.64561(4) 1.27709(3)
O1A O 0.5424(4) -0.29122(12) 1.27050(9)
N1A N -1.1092(4) -0.85983(12) 1.41727(8)
C1A C -1.4523(5) -0.95552(16) 1.42942(11)
H1A H -1.511053 -0.918277 1.461305
B1A B -0.8920(5) -0.65554(15) 1.11740(11)
O2A O -0.1548(4) -0.35735(9) 1.11345(7)
N2A N -0.7425(4) -0.59082(10) 1.11196(8)
C2A C -1.5750(6) -1.02905(17) 1.41390(12)
H2A H -1.714766 -1.042101 1.435668
N3A N 0.1951(4) -0.32487(11) 1.19174(8)
C3A C -1.4972(6) -1.08362(17) 1.36729(12)
H3A H -1.581433 -1.134304 1.356880
C4A C -1.2956(6) -1.06409(17) 1.33576(12)
H4A H -1.244041 -1.101381 1.302816
C5A C -1.1673(6) -0.99042(15) 1.35173(11)
H5A H -1.026020 -0.977793 1.330096
C6A C -1.2433(5) -0.93509(14) 1.39897(10)
C7A C -1.0685(5) -0.81496(14) 1.47917(10)
C8A C -1.1320(5) -0.74273(15) 1.49662(12)
H6A H -1.197654 -0.722727 1.467280
C9A C -1.0997(7) -0.69982(18) 1.55682(13)
H7A H -1.144331 -0.650566 1.568545
C10A C -1.0029(6) -0.72817(17) 1.59994(12)
H8A H -0.983902 -0.698965 1.641179
C11A C -0.9347(5) -0.79870(16) 1.58257(11)
H9A H -0.864370 -0.817961 1.612022
C12A C -0.9669(5) -0.84240(15) 1.52266(10)
H10A H -0.919285 -0.891346 1.511325
C13A C -1.0242(5) -0.82755(15) 1.37515(10)
C14A C -1.1801(6) -0.84492(17) 1.31934(11)
H11A H -1.344507 -0.881697 1.307567
C15A C -1.0979(6) -0.80897(17) 1.28028(12)
H12A H -1.207456 -0.822045 1.242077
C16A C -0.8611(5) -0.75471(16) 1.29560(11)
C17A C -0.7031(6) -0.7403(2) 1.35078(13)
H13A H -0.534508 -0.705024 1.362072
C18A C -0.7821(6) -0.7756(2) 1.39001(13)
H14A H -0.668452 -0.763959 1.427581
C19A C -0.7824(5) -0.71425(15) 1.25544(11)
H15A H -0.783(5) -0.5765(12) 1.0811(10)
C20A C -0.9175(5) -0.71963(15) 1.20079(11)
H16A H -1.082630 -0.754693 1.181244
C21A C -0.7898(4) -0.66824(14) 1.17563(10)
C22A C -0.5498(4) -0.62206(14) 1.21297(10)
C23A C -1.2042(6) -0.78176(14) 1.05431(11)
H17A H -1.102765 -0.804460 1.077814
C24A C -1.4140(6) -0.82598(15) 1.00907(11)
H18A H -1.454485 -0.878111 1.001771
C25A C -1.5655(6) -0.79425(15) 0.97432(11)
H19A H -1.713241 -0.824197 0.943662
C26A C -1.5001(5) -0.71858(14) 0.98459(11)
H20A H -1.601630 -0.696537 0.960569
C27A C -1.2885(5) -0.67517(13) 1.02946(9)
H21A H -1.244626 -0.623459 1.035363
C28A C -1.1347(4) -0.70481(12) 1.06696(9)
C29A C -0.3963(4) -0.56023(13) 1.20157(9)
C30A C -0.5112(4) -0.54512(12) 1.15085(9)
C31A C -0.3925(4) -0.48219(12) 1.13826(9)
H22A H -0.477611 -0.472562 1.104606
C32A C -0.1606(4) -0.43481(12) 1.17264(9)
C33A C -0.0308(4) -0.44853(13) 1.22315(9)
C34A C 0.2129(4) -0.39918(14) 1.25806(10)
C35A C 0.3451(5) -0.41088(16) 1.30744(11)
H23A H 0.507347 -0.377605 1.331206
C36A C 0.2364(5) -0.47201(16) 1.32154(11)
H24A H 0.326631 -0.480419 1.355315
C37A C 0.0017(5) -0.52081(15) 1.28807(10)
H25A H -0.063148 -0.562675 1.298807
C38A C -0.1462(4) -0.51063(13) 1.23810(9)
C39A C -0.0455(5) -0.37083(12) 1.15658(9)
C40A C 0.3318(5) -0.33481(15) 1.24196(10)
C41A C 0.3128(5) -0.26170(13) 1.17435(11)
H26A H 0.518001 -0.248966 1.188756
H27A H 0.286878 -0.277326 1.130165
C42A C 0.1773(5) -0.19323(14) 1.19906(11)
H28A H -0.028365 -0.205827 1.185112
H29A H 0.205941 -0.176794 1.243290
C43A C 0.2994(5) -0.12990(14) 1.17968(12)
H30A H 0.257043 -0.145453 1.135602
H31A H 0.507186 -0.120873 1.190447
C44A C 0.1885(6) -0.05746(15) 1.20728(13)
H32A H 0.227527 -0.042712 1.251353
H33A H -0.018950 -0.066581 1.195948
C45A C 0.3093(8) 0.00650(16) 1.18974(15)
H34A H 0.490771 0.029461 1.216188
H35A H 0.181012 0.044178 1.199471
C46A C 0.1171(17) -0.0078(3) 1.1214(3)
H36A H -0.085159 -0.015256 1.125754
H37A H 0.155349 -0.055321 1.093034
C47A C -0.0049(18) 0.0251(5) 1.0288(3)
C48A C 0.1614(18) 0.0509(4) 1.0924(4)
H38A H 0.100549 0.097315 1.117350
H39A H 0.364928 0.062373 1.090331
C49? C -0.3599(14) 0.0045(3) 0.8686(3)
H40? H -0.470881 0.045965 0.881033
H41? H -0.177086 0.019918 0.895315
C50? C -0.5147(13) -0.0631(3) 0.8764(3)
H42? H -0.698856 -0.078232 0.850105
H43? H -0.552227 -0.050190 0.918273
C51? C -0.3535(13) -0.1274(3) 0.8620(3)
H44? H -0.465441 -0.170678 0.866560
H45? H -0.175122 -0.113575 0.889222
H46? H -0.314317 -0.140140 0.820625
loop_
_geom_bond_atom_site_label_1
_geom_bond_atom_site_label_2
_geom_bond_site_symmetry_1
_geom_bond_site_symmetry_2
S1 C19 1_555 1_555
O1 C40 1_555 1_555
N1 C6 1_555 1_555
C1 H1 1_555 1_555
B1 N2 1_555 1_555
O2 C39 1_555 1_555
N2 H15 1_555 1_555
C2 C1 1_555 1_555
H2 C2 1_555 1_555
N3 C39 1_555 1_555
C3 C2 1_555 1_555
H3 C3 1_555 1_555
C4 C3 1_555 1_555
H4 C4 1_555 1_555
C5 C4 1_555 1_555
H5 C5 1_555 1_555
C6 C1 1_555 1_555
C7 N1 1_555 1_555
C8 C7 1_555 1_555
H6 C8 1_555 1_555
C9 C8 1_555 1_555
H7 C9 1_555 1_555
C10 C9 1_555 1_555
H8 C10 1_555 1_555
C11 C10 1_555 1_555
H9 C11 1_555 1_555
C12 C7 1_555 1_555
H10 C12 1_555 1_555
C13 N1 1_555 1_555
C14 C13 1_555 1_555
H11 C14 1_555 1_555
C15 C14 1_555 1_555
H12 C15 1_555 1_555
C16 C15 1_555 1_555
C17 C16 1_555 1_555
H13 C17 1_555 1_555
C18 C13 1_555 1_555
H14 C18 1_555 1_555
C19 C16 1_555 1_555
C20 C19 1_555 1_555
H16 C20 1_555 1_555
C21 B1 1_555 1_555
C22 S1 1_555 1_555
C23 H17 1_555 1_555
C24 C23 1_555 1_555
H18 C24 1_555 1_555
C25 C24 1_555 1_555
H19 C25 1_555 1_555
C26 C25 1_555 1_555
H20 C26 1_555 1_555
C27 C26 1_555 1_555
H21 C27 1_555 1_555
C28 B1 1_555 1_555
C29 C22 1_555 1_555
C30 N2 1_555 1_555
C31 C30 1_555 1_555
H22 C31 1_555 1_555
C32 C31 1_555 1_555
C33 C32 1_555 1_555
C34 C33 1_555 1_555
C35 C34 1_555 1_555
H23 C35 1_555 1_555
C36 C35 1_555 1_555
H24 C36 1_555 1_555
C37 C36 1_555 1_555
H25 C37 1_555 1_555
C38 C29 1_555 1_555
C39 C32 1_555 1_555
C40 N3 1_555 1_555
C41 N3 1_555 1_555
H26 C41 1_555 1_555
H27 C41 1_555 1_555
C42 C41 1_555 1_555
H28 C42 1_555 1_555
H29 C42 1_555 1_555
C43 C42 1_555 1_555
H30 C43 1_555 1_555
H31 C43 1_555 1_555
C44 C43 1_555 1_555
H32 C44 1_555 1_555
H33 C44 1_555 1_555
C45 C44 1_555 1_555
H34 C45 1_555 1_555
H35 C45 1_555 1_555
C46 C45 1_555 1_555
H36 C46 1_555 1_555
H37 C46 1_555 1_555
C47 C48 1_555 1_555
C48 C46 1_555 1_555
H38 C48 1_555 1_555
H39 C48 1_555 1_555
S1A C19A 1_555 1_555
O1A C40A 1_555 1_555
N1A C6A 1_555 1_555
C1A H1A 1_555 1_555
B1A N2A 1_555 1_555
O2A C39A 1_555 1_555
N2A H15A 1_555 1_555
C2A C1A 1_555 1_555
H2A C2A 1_555 1_555
N3A C39A 1_555 1_555
C3A C2A 1_555 1_555
H3A C3A 1_555 1_555
C4A C3A 1_555 1_555
H4A C4A 1_555 1_555
C5A C4A 1_555 1_555
H5A C5A 1_555 1_555
C6A C1A 1_555 1_555
C7A N1A 1_555 1_555
C8A C7A 1_555 1_555
H6A C8A 1_555 1_555
C9A C8A 1_555 1_555
H7A C9A 1_555 1_555
C10A C9A 1_555 1_555
H8A C10A 1_555 1_555
C11A C10A 1_555 1_555
H9A C11A 1_555 1_555
C12A C7A 1_555 1_555
H10A C12A 1_555 1_555
C13A N1A 1_555 1_555
C14A C13A 1_555 1_555
H11A C14A 1_555 1_555
C15A C14A 1_555 1_555
H12A C15A 1_555 1_555
C16A C15A 1_555 1_555
C17A C16A 1_555 1_555
H13A C17A 1_555 1_555
C18A C13A 1_555 1_555
H14A C18A 1_555 1_555
C19A C16A 1_555 1_555
C20A C19A 1_555 1_555
H16A C20A 1_555 1_555
C21A B1A 1_555 1_555
C22A S1A 1_555 1_555
C23A H17A 1_555 1_555
C24A C23A 1_555 1_555
H18A C24A 1_555 1_555
C25A C24A 1_555 1_555
H19A C25A 1_555 1_555
C26A C25A 1_555 1_555
H20A C26A 1_555 1_555
C27A C26A 1_555 1_555
H21A C27A 1_555 1_555
C28A B1A 1_555 1_555
C29A C22A 1_555 1_555
C30A N2A 1_555 1_555
C31A C30A 1_555 1_555
H22A C31A 1_555 1_555
C32A C31A 1_555 1_555
C33A C32A 1_555 1_555
C34A C33A 1_555 1_555
C35A C34A 1_555 1_555
H23A C35A 1_555 1_555
C36A C35A 1_555 1_555
H24A C36A 1_555 1_555
C37A C36A 1_555 1_555
H25A C37A 1_555 1_555
C38A C29A 1_555 1_555
C39A C32A 1_555 1_555
C40A N3A 1_555 1_555
C41A N3A 1_555 1_555
H26A C41A 1_555 1_555
H27A C41A 1_555 1_555
C42A C41A 1_555 1_555
H28A C42A 1_555 1_555
H29A C42A 1_555 1_555
C43A C42A 1_555 1_555
H30A C43A 1_555 1_555
H31A C43A 1_555 1_555
C44A C43A 1_555 1_555
H32A C44A 1_555 1_555
H33A C44A 1_555 1_555
C45A C44A 1_555 1_555
H34A C45A 1_555 1_555
H35A C45A 1_555 1_555
C46A C45A 1_555 1_555
H36A C46A 1_555 1_555
H37A C46A 1_555 1_555
C47A C47 1_555 1_555
C48A C46A 1_555 1_555
H38A C48A 1_555 1_555
H39A C48A 1_555 1_555
C5 C6 1_555 1_555
C11 C12 1_555 1_555
C17 C18 1_555 1_555
C20 C21 1_555 1_555
C21 C22 1_555 1_555
C23 C28 1_555 1_555
C27 C28 1_555 1_555
C29 C30 1_555 1_555
C33 C38 1_555 1_555
C34 C40 1_555 1_555
C37 C38 1_555 1_555
C5A C6A 1_555 1_555
C11A C12A 1_555 1_555
C17A C18A 1_555 1_555
C20A C21A 1_555 1_555
C21A C22A 1_555 1_555
C23A C28A 1_555 1_555
C27A C28A 1_555 1_555
C29A C30A 1_555 1_555
C33A C38A 1_555 1_555
C34A C40A 1_555 1_555
C37A C38A 1_555 1_555
C47A C48A 1_555 1_555

#END
