
#######################################################################
#
#                 Cambridge Crystallographic Data Centre
#                                CCDC 
#
#######################################################################
#
# If this CIF has been generated from an entry in the Cambridge 
# Structural Database, then it will include bibliographic, chemical, 
# crystal, experimental, refinement or atomic coordinate data resulting 
# from the CCDC's data processing and validation procedures.
#
#######################################################################

data_WEZKAQ
_chemical_formula_moiety         'C25 H41 Mg1 N4 O1 1+,C24 B1 F20 1-,C4 H8 O1'
_chemical_name_systematic        
'{N^1^,N^1^-bis[2-(dimethylamino)ethyl]-N^2^,N^2^-dimethylethane-1,2-diamine}-(diphenylmethanolato)-magnesium tetrakis(pentafluorophenyl)borate tetrahydrofuran solvate'
_symmetry_cell_setting           monoclinic
_symmetry_space_group_name_H-M   'P 21'
_symmetry_Int_Tables_number      4
_space_group_name_Hall           'P 2yb'
loop_
_symmetry_equiv_pos_site_id
_symmetry_equiv_pos_as_xyz
1 x,y,z
2 -x,1/2+y,-z
_cell_length_a                   9.435(2)
_cell_length_b                   27.598(6)
_cell_length_c                   10.589(3)
_cell_angle_alpha                90
_cell_angle_beta                 105.636(14)
_cell_angle_gamma                90
_cell_volume                     2655.2
_exptl_crystal_colour            colorless
_exptl_crystal_description       needle
_cell_formula_units_Z            2
loop_
_atom_site_label
_atom_site_type_symbol
_atom_site_fract_x
_atom_site_fract_y
_atom_site_fract_z
Mg1 Mg 0.8459(2) 0.80144(6) 0.46287(18)
O1 O 0.8513(5) 0.80558(14) 0.6403(4)
N1 N 0.6734(6) 0.74630(14) 0.4135(5)
N2 N 1.0724(5) 0.77728(17) 0.4762(5)
N3 N 0.7791(5) 0.87552(15) 0.3951(5)
C1 C 0.9161(7) 0.90606(19) 0.4366(7)
H1 H 0.9926 0.8923 0.4005
H2 H 0.8939 0.9392 0.4037
H3 H 0.9510 0.9066 0.5325
N4 N 0.8272(5) 0.79225(14) 0.2475(5)
C2 C 0.5339(7) 0.7712(2) 0.4073(7)
H4 H 0.5385 0.7857 0.4928
H5 H 0.5174 0.7967 0.3405
H6 H 0.4528 0.7478 0.3845
C3 C 0.8938(6) 0.83256(18) 0.7604(6)
H7 H 0.9379 0.8637 0.7412
C4 C 1.0127(7) 0.8057(2) 0.8646(6)
C5 C 1.0165(8) 0.7549(2) 0.8691(7)
H8 H 0.9436 0.7365 0.8087
C6 C 1.1287(8) 0.7315(2) 0.9634(7)
H9 H 1.1298 0.6971 0.9679
C7 C 1.2369(8) 0.7574(2) 1.0493(7)
H10 H 1.3134 0.7409 1.1112
C8 C 1.0872(8) 0.7260(2) 0.5179(8)
H11 H 1.0129 0.7065 0.4562
H12 H 1.1856 0.7143 0.5191
H13 H 1.0730 0.7232 0.6059
C9 C 1.1220(7) 0.8304(2) 0.9540(7)
H14 H 1.1203 0.8649 0.9526
C10 C 1.2348(8) 0.8073(3) 1.0460(7)
H15 H 1.3091 0.8255 1.1055
C11 C 0.7593(7) 0.8451(2) 0.8057(6)
C12 C 0.6578(7) 0.8091(2) 0.8139(6)
H16 H 0.6751 0.7764 0.7944
C13 C 0.5319(7) 0.8212(2) 0.8506(7)
H17 H 0.4632 0.7967 0.8564
C14 C 0.5059(9) 0.8688(3) 0.8787(8)
H18 H 0.4186 0.8770 0.9023
C15 C 0.6061(9) 0.9045(2) 0.8727(8)
H19 H 0.5883 0.9371 0.8926
C16 C 0.7339(8) 0.8925(2) 0.8373(7)
H20 H 0.8038 0.9170 0.8347
C17 C 0.6674(8) 0.8974(2) 0.4512(7)
H21 H 0.7044 0.8983 0.5470
H22 H 0.6462 0.9305 0.4175
H23 H 0.5771 0.8780 0.4264
C18 C 0.7239(7) 0.87398(19) 0.2496(6)
H24 H 0.7249 0.9071 0.2142
H25 H 0.6208 0.8624 0.2248
C19 C 0.8177(7) 0.84050(18) 0.1886(6)
H26 H 0.7730 0.8381 0.0928
H27 H 0.9177 0.8543 0.2032
C20 C 0.9615(7) 0.7660(2) 0.2361(7)
H28 H 0.9767 0.7721 0.1485
H29 H 0.9477 0.7307 0.2447
C21 C 1.0958(7) 0.7826(2) 0.3414(7)
H30 H 1.1822 0.7632 0.3362
H31 H 1.1165 0.8170 0.3262
C22 C 0.6919(7) 0.76277(19) 0.1890(6)
H32 H 0.7017 0.7467 0.1083
H33 H 0.6050 0.7844 0.1647
C23 C 0.6684(7) 0.7244(2) 0.2860(6)
H34 H 0.5719 0.7085 0.2502
H35 H 0.7459 0.6993 0.2978
C24 C 0.6936(8) 0.7080(2) 0.5164(7)
H36 H 0.6967 0.7230 0.6009
H37 H 0.6112 0.6851 0.4927
H38 H 0.7860 0.6907 0.5230
C25 C 1.1864(7) 0.8066(3) 0.5708(8)
H39 H 1.1772 0.8407 0.5438
H40 H 1.1719 0.8037 0.6588
H41 H 1.2846 0.7947 0.5720
F1 F 0.5089(4) 1.10034(13) 0.5617(4)
F2 F 1.2073(5) 0.90342(12) 1.2402(4)
F3 F 1.4931(5) 1.19439(13) 1.1674(5)
F4 F 1.2273(5) 1.16623(13) 1.2017(4)
F5 F 1.0595(4) 1.10162(11) 1.0406(3)
F6 F 1.3893(3) 0.99729(11) 0.9488(3)
F7 F 1.4350(4) 0.93145(12) 1.1410(4)
F8 F 0.9351(4) 0.94504(12) 1.1447(4)
F9 F 0.8877(4) 1.01013(11) 0.9562(3)
F10 F 0.8871(4) 0.98541(10) 0.6942(3)
F11 F 0.6059(4) 1.00681(12) 0.5730(4)
F12 F 0.7000(4) 1.17121(11) 0.6788(4)
F13 F 0.9803(4) 1.15176(10) 0.7996(4)
F14 F 1.2017(4) 0.94732(10) 0.7404(3)
F15 F 1.2891(5) 0.92907(13) 0.5273(4)
F16 F 1.3012(5) 1.00146(16) 0.3540(4)
F17 F 1.2178(5) 1.09277(14) 0.3981(4)
F18 F 1.1452(4) 1.11351(11) 0.6198(3)
F19 F 1.4256(4) 1.08837(13) 0.8090(4)
F20 F 1.5886(4) 1.15323(14) 0.9673(4)
C26 C 0.6482(6) 1.0891(2) 0.6234(6)
C27 C 0.7004(7) 1.04237(18) 0.6292(6)
C28 C 0.8438(6) 1.03265(17) 0.6929(6)
C29 C 0.9484(6) 1.06662(17) 0.7571(6)
C30 C 1.1354(6) 1.00631(17) 0.9369(5)
C31 C 1.0272(7) 0.99118(19) 0.9946(6)
C32 C 1.0480(7) 0.95722(19) 1.0933(6)
C33 C 1.1838(8) 0.93646(19) 1.1419(6)
C34 C 1.4089(8) 1.1606(2) 1.0860(7)
C35 C 1.2763(9) 1.14745(19) 1.1031(6)
C36 C 1.1903(7) 1.11366(19) 1.0167(6)
C37 C 1.2298(6) 1.09249(17) 0.9137(5)
C38 C 1.2714(7) 0.98493(18) 0.9922(6)
C39 C 1.2985(7) 0.95087(19) 1.0921(6)
C40 C 0.7465(7) 1.12489(19) 0.6844(6)
C41 C 0.8917(7) 1.11340(18) 0.7470(6)
C42 C 1.1752(6) 1.03236(18) 0.6960(6)
C43 C 1.2087(6) 0.9862(2) 0.6610(6)
C44 C 1.2518(7) 0.9754(2) 0.5512(7)
C45 C 1.2566(8) 1.0112(2) 0.4614(6)
C46 C 1.2163(8) 1.0572(2) 0.4859(6)
C47 C 1.1796(6) 1.06662(19) 0.5998(6)
C48 C 1.3674(7) 1.1072(2) 0.9029(6)
C49 C 1.4563(7) 1.1404(2) 0.9853(7)
B1 B 1.1212(7) 1.04948(19) 0.8247(7)
O2 O 0.6500(8) 1.0980(2) 0.3155(7)
C50 C 0.6994(10) 1.0369(3) 0.1822(12)
H42 H 0.6755 1.0504 0.0922
H43 H 0.7004 1.0011 0.1768
C51 C 0.5935(10) 1.0533(3) 0.2513(9)
H44 H 0.4959 1.0586 0.1886
H45 H 0.5832 1.0288 0.3165
C52 C 0.8457(11) 1.0558(4) 0.2636(13)
H46 H 0.8936 1.0324 0.3328
H47 H 0.9128 1.0628 0.2084
C53 C 0.8035(12) 1.1015(4) 0.3221(11)
H48 H 0.8625 1.1049 0.4144
H49 H 0.8218 1.1301 0.2723
loop_
_geom_bond_atom_site_label_1
_geom_bond_atom_site_label_2
_geom_bond_site_symmetry_1
_geom_bond_site_symmetry_2
Mg1 O1 1_555 1_555
O1 C3 1_555 1_555
N1 Mg1 1_555 1_555
N2 Mg1 1_555 1_555
N3 Mg1 1_555 1_555
C1 N3 1_555 1_555
H1 C1 1_555 1_555
H2 C1 1_555 1_555
H3 C1 1_555 1_555
N4 Mg1 1_555 1_555
C2 N1 1_555 1_555
H4 C2 1_555 1_555
H5 C2 1_555 1_555
H6 C2 1_555 1_555
C3 H7 1_555 1_555
C4 C3 1_555 1_555
C5 C4 1_555 1_555
H8 C5 1_555 1_555
C6 C5 1_555 1_555
H9 C6 1_555 1_555
C7 C6 1_555 1_555
H10 C7 1_555 1_555
C8 N2 1_555 1_555
H11 C8 1_555 1_555
H12 C8 1_555 1_555
H13 C8 1_555 1_555
C9 C4 1_555 1_555
H14 C9 1_555 1_555
C10 C7 1_555 1_555
H15 C10 1_555 1_555
C11 C3 1_555 1_555
C12 C11 1_555 1_555
H16 C12 1_555 1_555
C13 C12 1_555 1_555
H17 C13 1_555 1_555
C14 C13 1_555 1_555
H18 C14 1_555 1_555
C15 C14 1_555 1_555
H19 C15 1_555 1_555
C16 C11 1_555 1_555
H20 C16 1_555 1_555
C17 N3 1_555 1_555
H21 C17 1_555 1_555
H22 C17 1_555 1_555
H23 C17 1_555 1_555
C18 N3 1_555 1_555
H24 C18 1_555 1_555
H25 C18 1_555 1_555
C19 N4 1_555 1_555
H26 C19 1_555 1_555
H27 C19 1_555 1_555
C20 N4 1_555 1_555
H28 C20 1_555 1_555
H29 C20 1_555 1_555
C21 N2 1_555 1_555
H30 C21 1_555 1_555
H31 C21 1_555 1_555
C22 N4 1_555 1_555
H32 C22 1_555 1_555
H33 C22 1_555 1_555
C23 N1 1_555 1_555
H34 C23 1_555 1_555
H35 C23 1_555 1_555
C24 N1 1_555 1_555
H36 C24 1_555 1_555
H37 C24 1_555 1_555
H38 C24 1_555 1_555
C25 N2 1_555 1_555
H39 C25 1_555 1_555
H40 C25 1_555 1_555
H41 C25 1_555 1_555
F1 C26 1_555 1_555
F2 C33 1_555 1_555
F3 C34 1_555 1_555
F4 C35 1_555 1_555
F5 C36 1_555 1_555
F6 C38 1_555 1_555
F7 C39 1_555 1_555
F8 C32 1_555 1_555
F9 C31 1_555 1_555
F10 C28 1_555 1_555
F11 C27 1_555 1_555
F12 C40 1_555 1_555
F13 C41 1_555 1_555
F14 C43 1_555 1_555
F15 C44 1_555 1_555
F16 C45 1_555 1_555
F17 C46 1_555 1_555
F18 C47 1_555 1_555
F19 C48 1_555 1_555
F20 C49 1_555 1_555
C26 C27 1_555 1_555
C27 C28 1_555 1_555
C28 C29 1_555 1_555
C29 C41 1_555 1_555
C30 C31 1_555 1_555
C31 C32 1_555 1_555
C32 C33 1_555 1_555
C33 C39 1_555 1_555
C34 C35 1_555 1_555
C35 C36 1_555 1_555
C36 C37 1_555 1_555
C37 C48 1_555 1_555
C38 C30 1_555 1_555
C39 C38 1_555 1_555
C40 C26 1_555 1_555
C41 C40 1_555 1_555
C42 C43 1_555 1_555
C43 C44 1_555 1_555
C44 C45 1_555 1_555
C45 C46 1_555 1_555
C46 C47 1_555 1_555
C47 C42 1_555 1_555
C48 C49 1_555 1_555
C49 C34 1_555 1_555
B1 C29 1_555 1_555
O2 C51 1_555 1_555
C50 H42 1_555 1_555
H43 C50 1_555 1_555
C51 C50 1_555 1_555
H44 C51 1_555 1_555
H45 C51 1_555 1_555
C52 C50 1_555 1_555
H46 C52 1_555 1_555
H47 C52 1_555 1_555
C53 O2 1_555 1_555
H48 C53 1_555 1_555
H49 C53 1_555 1_555
C9 C10 1_555 1_555
C15 C16 1_555 1_555
C18 C19 1_555 1_555
C20 C21 1_555 1_555
C22 C23 1_555 1_555
C30 B1 1_555 1_555
C37 B1 1_555 1_555
C42 B1 1_555 1_555
C52 C53 1_555 1_555

#END
