
#######################################################################
#
#                 Cambridge Crystallographic Data Centre
#                                CCDC 
#
#######################################################################
#
# If this CIF has been generated from an entry in the Cambridge 
# Structural Database, then it will include bibliographic, chemical, 
# crystal, experimental, refinement or atomic coordinate data resulting 
# from the CCDC's data processing and validation procedures.
#
#######################################################################

data_WEZREA
_chemical_formula_moiety         'C12 H12 Cl2 N4 O2'
_chemical_name_systematic        
'Ethyl 1-((2,5-dichlorophenyl)amino)-5-methyl-1H-1,2,3-triazole-4-carboxylate'
_symmetry_cell_setting           triclinic
_symmetry_space_group_name_H-M   'P -1'
_symmetry_Int_Tables_number      2
_space_group_name_Hall           '-P 1'
loop_
_symmetry_equiv_pos_site_id
_symmetry_equiv_pos_as_xyz
1 x,y,z
2 -x,-y,-z
_cell_length_a                   7.2818(11)
_cell_length_b                   11.242(3)
_cell_length_c                   16.916(4)
_cell_angle_alpha                87.87(2)
_cell_angle_beta                 88.86(4)
_cell_angle_gamma                88.29(2)
_cell_volume                     1382.96
_exptl_crystal_colour            colorless
_exptl_crystal_description       block
_cell_formula_units_Z            4
loop_
_atom_site_label
_atom_site_type_symbol
_atom_site_fract_x
_atom_site_fract_y
_atom_site_fract_z
Cl1 Cl 0.31824(9) 0.58670(6) 0.91291(4)
Cl2 Cl 0.25835(11) 0.07559(6) 1.06156(4)
O1 O 0.8313(3) -0.04349(18) 0.70872(12)
O2 O 1.0236(2) 0.02284(16) 0.79903(11)
N1 N 0.6147(3) 0.28326(19) 0.82510(13)
N2 N 0.5098(3) 0.2472(2) 0.76510(14)
N3 N 0.5945(3) 0.1547(2) 0.73574(14)
N4 N 0.5566(3) 0.37771(19) 0.86975(14)
H1 H 0.561(4) 0.4473(15) 0.8442(17)
C1 C 0.7675(3) 0.2131(2) 0.83532(15)
C2 C 0.7526(3) 0.1312(2) 0.77734(15)
C3 C 0.9018(4) 0.2307(2) 0.89871(15)
H2 H 1.0077 0.2729 0.8763
H3 H 0.9429 0.1531 0.9212
H4 H 0.8431 0.2778 0.9403
C4 C 0.8701(4) 0.0279(2) 0.75727(15)
C5 C 1.1422(4) -0.0835(2) 0.78949(17)
H5 H 1.1948 -0.0847 0.7351
H6 H 1.0712 -0.1564 0.7995
C6 C 1.2911(5) -0.0770(3) 0.8482(2)
H7 H 1.3623 -0.0057 0.8366
H8 H 1.3721 -0.1480 0.8452
H9 H 1.2367 -0.0732 0.9016
C7 C 0.4226(3) 0.3533(2) 0.92738(15)
C8 C 0.3127(3) 0.4457(2) 0.95848(16)
C9 C 0.2000(4) 0.4261(2) 1.02363(16)
H10 H 0.1324 0.4908 1.0457
C10 C 0.1845(4) 0.3122(2) 1.05738(16)
H11 H 0.1073 0.2981 1.1025
C11 C 0.2844(4) 0.2199(2) 1.02365(15)
C12 C 0.4031(3) 0.2383(2) 0.96020(15)
H12 H 0.4713 0.1733 0.9389
Cl3 Cl 0.31033(9) 1.06321(5) 0.59170(4)
Cl4 Cl 0.29406(10) 0.57485(6) 0.43144(5)
O3 O 0.9379(3) 0.44436(19) 0.78246(14)
O4 O 1.0787(2) 0.54229(16) 0.68144(11)
N5 N 0.5984(3) 0.74707(18) 0.68201(12)
N6 N 0.5164(3) 0.68751(19) 0.74370(13)
N7 N 0.6313(3) 0.60178(19) 0.76499(13)
N8 N 0.5067(3) 0.84558(18) 0.64885(13)
H13 H 0.552(4) 0.9148(15) 0.6586(18)
C13 C 0.7666(3) 0.7006(2) 0.66314(14)
C14 C 0.7856(3) 0.6074(2) 0.71783(14)
C15 C 0.8822(4) 0.7456(2) 0.59649(15)
H14 H 0.8053 0.7917 0.5588
H15 H 0.9417 0.6783 0.5699
H16 H 0.9762 0.7967 0.6165
C16 C 0.9400(4) 0.5216(2) 0.73165(15)
C17 C 1.2368(4) 0.4594(2) 0.68585(18)
H17 H 1.2520 0.4296 0.7412
H18 H 1.3495 0.5013 0.6691
C18 C 1.2111(5) 0.3573(3) 0.6340(2)
H19 H 1.1098 0.3094 0.6551
H20 H 1.3242 0.3080 0.6324
H21 H 1.1822 0.3874 0.5805
C19 C 0.4099(3) 0.8304(2) 0.57943(14)
C20 C 0.3104(3) 0.9277(2) 0.54588(15)
C21 C 0.2126(3) 0.9171(2) 0.47746(15)
H22 H 0.1484 0.9847 0.4551
C22 C 0.2073(3) 0.8086(2) 0.44107(15)
H23 H 0.1407 0.8008 0.3939
C23 C 0.3020(3) 0.7120(2) 0.47553(16)
C24 C 0.4032(3) 0.7211(2) 0.54348(15)
H24 H 0.4675 0.6533 0.5654
loop_
_geom_bond_atom_site_label_1
_geom_bond_atom_site_label_2
_geom_bond_site_symmetry_1
_geom_bond_site_symmetry_2
Cl1 C8 1_555 1_555
Cl2 C11 1_555 1_555
O1 C4 1_555 1_555
O2 C4 1_555 1_555
N1 N2 1_555 1_555
N2 N3 1_555 1_555
N3 C2 1_555 1_555
N4 N1 1_555 1_555
H1 N4 1_555 1_555
C1 N1 1_555 1_555
C2 C1 1_555 1_555
C3 C1 1_555 1_555
H2 C3 1_555 1_555
H3 C3 1_555 1_555
H4 C3 1_555 1_555
C4 C2 1_555 1_555
C5 O2 1_555 1_555
H5 C5 1_555 1_555
H6 C5 1_555 1_555
C6 C5 1_555 1_555
H7 C6 1_555 1_555
H8 C6 1_555 1_555
H9 C6 1_555 1_555
C7 N4 1_555 1_555
C8 C7 1_555 1_555
C9 C8 1_555 1_555
H10 C9 1_555 1_555
C10 C9 1_555 1_555
H11 C10 1_555 1_555
C11 C10 1_555 1_555
C12 C7 1_555 1_555
H12 C12 1_555 1_555
Cl3 C20 1_555 1_555
Cl4 C23 1_555 1_555
O3 C16 1_555 1_555
O4 C16 1_555 1_555
N5 N6 1_555 1_555
N6 N7 1_555 1_555
N7 C14 1_555 1_555
N8 N5 1_555 1_555
H13 N8 1_555 1_555
C13 N5 1_555 1_555
C14 C13 1_555 1_555
C15 C13 1_555 1_555
H14 C15 1_555 1_555
H15 C15 1_555 1_555
H16 C15 1_555 1_555
C16 C14 1_555 1_555
C17 O4 1_555 1_555
H17 C17 1_555 1_555
H18 C17 1_555 1_555
C18 C17 1_555 1_555
H19 C18 1_555 1_555
H20 C18 1_555 1_555
H21 C18 1_555 1_555
C19 N8 1_555 1_555
C20 C19 1_555 1_555
C21 C20 1_555 1_555
H22 C21 1_555 1_555
C22 C21 1_555 1_555
H23 C22 1_555 1_555
C23 C22 1_555 1_555
C24 C19 1_555 1_555
H24 C24 1_555 1_555
C11 C12 1_555 1_555
C23 C24 1_555 1_555

#END
