
#######################################################################
#
#                 Cambridge Crystallographic Data Centre
#                                CCDC 
#
#######################################################################
#
# If this CIF has been generated from an entry in the Cambridge 
# Structural Database, then it will include bibliographic, chemical, 
# crystal, experimental, refinement or atomic coordinate data resulting 
# from the CCDC's data processing and validation procedures.
#
#######################################################################

data_WEZTIH
_chemical_formula_moiety         'C16 H13 N1 O2 S1'
_chemical_name_systematic        
4-[5-oxo-5-(thiophen-2-yl)pentanoyl]benzonitrile
_symmetry_cell_setting           monoclinic
_symmetry_space_group_name_H-M   'P 21/n'
_symmetry_Int_Tables_number      14
_space_group_name_Hall           '-P 2yn'
loop_
_symmetry_equiv_pos_site_id
_symmetry_equiv_pos_as_xyz
1 x,y,z
2 1/2-x,1/2+y,1/2-z
3 -x,-y,-z
4 1/2+x,1/2-y,1/2+z
_cell_length_a                   14.755(2)
_cell_length_b                   6.0419(7)
_cell_length_c                   16.653(2)
_cell_angle_alpha                90
_cell_angle_beta                 105.827(10)
_cell_angle_gamma                90
_cell_volume                     1428.3
_exptl_crystal_colour            colorless
_exptl_crystal_description       needle
_cell_formula_units_Z            4
loop_
_atom_site_label
_atom_site_type_symbol
_atom_site_fract_x
_atom_site_fract_y
_atom_site_fract_z
S1 S 0.87734(10) 0.45675(18) 0.17594(7)
O1 O 0.8243(3) 0.4620(5) -0.30604(19)
O2 O 0.8882(2) 0.5830(4) 0.00844(18)
N1 N 0.9062(3) -0.3467(7) -0.6211(3)
C1 C 0.8990(3) -0.2396(8) -0.5670(3)
C2 C 0.8889(3) -0.1081(7) -0.4974(3)
C3 C 0.8492(3) 0.0991(8) -0.5104(3)
H1 H 0.8293 0.1568 -0.5641
C4 C 0.8390(3) 0.2209(7) -0.4435(3)
H2 H 0.8115 0.3604 -0.4525
C5 C 0.8692(3) 0.1379(6) -0.3627(2)
C6 C 0.9090(3) -0.0700(7) -0.3508(3)
H3 H 0.9288 -0.1283 -0.2971
C7 C 0.9199(3) -0.1934(7) -0.4176(3)
H4 H 0.9479 -0.3324 -0.4089
C8 C 0.8570(3) 0.2774(7) -0.2921(2)
C9 C 0.8831(3) 0.1837(6) -0.2057(2)
H5 H 0.9488 0.1392 -0.1914
H6 H 0.8458 0.0516 -0.2054
C10 C 0.8693(3) 0.3399(6) -0.1388(2)
H7 H 0.9118 0.4646 -0.1340
H8 H 0.8053 0.3966 -0.1551
C11 C 0.8870(3) 0.2277(6) -0.0551(2)
H9 H 0.9487 0.1587 -0.0417
H10 H 0.8407 0.1115 -0.0590
C12 C 0.8827(3) 0.3827(7) 0.0150(2)
C13 C 0.8741(3) 0.2850(6) 0.0933(2)
C14 C 0.8594(3) 0.0713(6) 0.1119(2)
H11 H 0.8549 -0.0459 0.0748
C15 C 0.8517(3) 0.0481(7) 0.1943(3)
H12 H 0.8421 -0.0867 0.2177
C16 C 0.8599(3) 0.2420(7) 0.2351(3)
H13 H 0.8564 0.2565 0.2898
loop_
_geom_bond_atom_site_label_1
_geom_bond_atom_site_label_2
_geom_bond_site_symmetry_1
_geom_bond_site_symmetry_2
S1 C13 1_555 1_555
O1 C8 1_555 1_555
O2 C12 1_555 1_555
N1 C1 1_555 1_555
C1 C2 1_555 1_555
C2 C3 1_555 1_555
C3 H1 1_555 1_555
C4 C3 1_555 1_555
H2 C4 1_555 1_555
C5 C4 1_555 1_555
C6 C5 1_555 1_555
H3 C6 1_555 1_555
C7 C2 1_555 1_555
H4 C7 1_555 1_555
C8 C5 1_555 1_555
C9 C8 1_555 1_555
H5 C9 1_555 1_555
H6 C9 1_555 1_555
C10 C9 1_555 1_555
H7 C10 1_555 1_555
H8 C10 1_555 1_555
C11 C10 1_555 1_555
H9 C11 1_555 1_555
H10 C11 1_555 1_555
C12 C11 1_555 1_555
C13 C12 1_555 1_555
C14 C13 1_555 1_555
H11 C14 1_555 1_555
C15 C14 1_555 1_555
H12 C15 1_555 1_555
C16 S1 1_555 1_555
H13 C16 1_555 1_555
C6 C7 1_555 1_555
C15 C16 1_555 1_555

#END
