
#######################################################################
#
#                 Cambridge Crystallographic Data Centre
#                                CCDC 
#
#######################################################################
#
# If this CIF has been generated from an entry in the Cambridge 
# Structural Database, then it will include bibliographic, chemical, 
# crystal, experimental, refinement or atomic coordinate data resulting 
# from the CCDC's data processing and validation procedures.
#
#######################################################################

data_WEZTED
_chemical_formula_moiety         'C18 H20 N2 O2'
_chemical_name_systematic        
6-(3,4-dimethoxyphenyl)-1-phenyl-1,4,5,6-tetrahydropyridazine
_symmetry_cell_setting           monoclinic
_symmetry_space_group_name_H-M   'P 21'
_symmetry_Int_Tables_number      4
_space_group_name_Hall           'P 2yb'
loop_
_symmetry_equiv_pos_site_id
_symmetry_equiv_pos_as_xyz
1 x,y,z
2 -x,1/2+y,-z
_cell_length_a                   6.587(5)
_cell_length_b                   10.692(5)
_cell_length_c                   11.061(5)
_cell_angle_alpha                90
_cell_angle_beta                 93.961(5)
_cell_angle_gamma                90
_cell_volume                     777.146
_exptl_crystal_colour            yellow
_exptl_crystal_description       block
_cell_formula_units_Z            2
loop_
_atom_site_label
_atom_site_type_symbol
_atom_site_fract_x
_atom_site_fract_y
_atom_site_fract_z
O1 O 0.0491(4) -0.2878(3) -0.0196(2)
N1 N 0.4032(3) 0.0500(2) 0.4263(2)
O2 O 0.3735(4) -0.3980(2) 0.0757(2)
C1 C 0.2501(4) 0.0378(3) 0.5076(2)
C2 C 0.2056(4) -0.0587(3) 0.2175(2)
H1 H 0.1644 0.0177 0.2476
C3 C 0.4362(4) -0.2309(3) 0.2229(3)
H2 H 0.5517 -0.2708 0.2573
C4 C 0.5023(4) -0.0586(3) 0.3765(2)
H3 H 0.5205 -0.1216 0.4407
N2 N 0.4216(4) 0.1662(2) 0.3764(2)
C5 C 0.3762(4) -0.1167(3) 0.2705(2)
C6 C 0.1523(4) -0.2260(3) 0.0740(3)
C7 C 0.0944(4) -0.1127(3) 0.1199(3)
H4 H -0.0202 -0.0721 0.0853
C8 C 0.7130(4) -0.0194(3) 0.3405(3)
H5 H 0.7962 0.0066 0.4119
H6 H 0.7794 -0.0896 0.3043
C9 C 0.3271(4) -0.2856(3) 0.1259(3)
C10 C 0.1883(5) -0.0785(3) 0.5462(3)
H7 H 0.2459 -0.1506 0.5162
C11 C 0.1559(4) 0.1436(3) 0.5523(3)
H8 H 0.1937 0.2226 0.5269
C12 C 0.0404(5) -0.0879(3) 0.6296(3)
H9 H 0.0025 -0.1664 0.6564
C13 C 0.0082(5) 0.1322(3) 0.6335(3)
H10 H -0.0531 0.2036 0.6621
C14 C 0.5503(5) 0.1821(3) 0.2961(3)
H11 H 0.5559 0.2616 0.2624
C15 C -0.0500(5) 0.0166(4) 0.6728(3)
H12 H -0.1495 0.0095 0.7281
C16 C 0.6914(5) 0.0875(4) 0.2510(3)
H13 H 0.8233 0.1252 0.2416
H14 H 0.6387 0.0565 0.1726
C17 C 0.5515(6) -0.4606(4) 0.1231(4)
H15 H 0.5664 -0.5378 0.0803
H16 H 0.6682 -0.4087 0.1137
H17 H 0.5403 -0.4779 0.2076
C18 C -0.1329(6) -0.2309(5) -0.0694(4)
H18 H -0.1921 -0.2820 -0.1340
H19 H -0.2272 -0.2227 -0.0075
H20 H -0.1023 -0.1497 -0.1004
loop_
_geom_bond_atom_site_label_1
_geom_bond_atom_site_label_2
_geom_bond_site_symmetry_1
_geom_bond_site_symmetry_2
O1 C6 1_555 1_555
N1 C1 1_555 1_555
O2 C9 1_555 1_555
C1 C10 1_555 1_555
C2 H1 1_555 1_555
C3 H2 1_555 1_555
C4 N1 1_555 1_555
H3 C4 1_555 1_555
N2 N1 1_555 1_555
C5 C2 1_555 1_555
C6 C7 1_555 1_555
C7 C2 1_555 1_555
H4 C7 1_555 1_555
C8 C4 1_555 1_555
H5 C8 1_555 1_555
H6 C8 1_555 1_555
C9 C3 1_555 1_555
C10 H7 1_555 1_555
C11 C1 1_555 1_555
H8 C11 1_555 1_555
C12 C10 1_555 1_555
H9 C12 1_555 1_555
C13 C11 1_555 1_555
H10 C13 1_555 1_555
C14 N2 1_555 1_555
H11 C14 1_555 1_555
C15 C12 1_555 1_555
H12 C15 1_555 1_555
C16 C8 1_555 1_555
H13 C16 1_555 1_555
H14 C16 1_555 1_555
C17 O2 1_555 1_555
H15 C17 1_555 1_555
H16 C17 1_555 1_555
H17 C17 1_555 1_555
C18 O1 1_555 1_555
H18 C18 1_555 1_555
H19 C18 1_555 1_555
H20 C18 1_555 1_555
C3 C5 1_555 1_555
C4 C5 1_555 1_555
C6 C9 1_555 1_555
C13 C15 1_555 1_555
C14 C16 1_555 1_555

#END
