
#######################################################################
#
#                 Cambridge Crystallographic Data Centre
#                                CCDC 
#
#######################################################################
#
# If this CIF has been generated from an entry in the Cambridge 
# Structural Database, then it will include bibliographic, chemical, 
# crystal, experimental, refinement or atomic coordinate data resulting 
# from the CCDC's data processing and validation procedures.
#
#######################################################################

data_WEZXUX
_chemical_formula_moiety         'C46 H38 N2 O4 S2'
_chemical_name_systematic        
N,N'-[thieno[3,2-b]thiene-3,6-diylbis(4,1-phenylene)]bis[4-methoxy-N-(4-methoxyphenyl)aniline]
_symmetry_cell_setting           monoclinic
_symmetry_space_group_name_H-M   'P 21/n'
_symmetry_Int_Tables_number      14
_space_group_name_Hall           '-P 2yn'
loop_
_symmetry_equiv_pos_site_id
_symmetry_equiv_pos_as_xyz
1 x,y,z
2 1/2-x,1/2+y,1/2-z
3 -x,-y,-z
4 1/2+x,1/2-y,1/2+z
_cell_length_a                   14.0999(9)
_cell_length_b                   20.7067(12)
_cell_length_c                   6.9783(4)
_cell_angle_alpha                90
_cell_angle_beta                 111.177(2)
_cell_angle_gamma                90
_cell_volume                     1899.81
_exptl_crystal_colour            colorless
_exptl_crystal_description       needle
_cell_formula_units_Z            2
loop_
_atom_site_label
_atom_site_type_symbol
_atom_site_fract_x
_atom_site_fract_y
_atom_site_fract_z
S1 S 0.52454(2) 0.59192(2) 1.62670(4)
O1 O 0.32387(7) 0.98822(4) 0.99485(13)
O2 O 0.01500(6) 0.68713(4) -0.10945(13)
N1 N 0.29640(7) 0.73819(4) 0.67727(14)
C1 C 0.48964(8) 0.52966(5) 1.45031(15)
C2 C 0.04247(10) 0.64689(7) -0.24676(19)
H1 H -0.015340 0.643031 -0.376855
H2 H 0.061253 0.603975 -0.185535
H3 H 0.100403 0.665975 -0.272306
C3 C 0.44370(8) 0.52577(5) 1.23028(15)
C4 C 0.43317(8) 0.46198(5) 1.17136(16)
H4 H 0.405087 0.448738 1.031736
C5 C 0.40853(8) 0.58065(5) 1.08818(15)
C6 C 0.33140(8) 0.57212(5) 0.89548(15)
H5 H 0.303277 0.530286 0.857175
C7 C 0.29499(8) 0.62286(5) 0.75933(15)
H6 H 0.243118 0.615236 0.629436
C8 C 0.33406(8) 0.68549(5) 0.81155(15)
C9 C 0.41210(8) 0.69447(5) 1.00267(16)
H7 H 0.440535 0.736247 1.040589
C10 C 0.44844(8) 0.64309(5) 1.13749(16)
H8 H 0.501533 0.650434 1.265978
C11 C 0.26415(9) 0.81452(5) 0.91647(18)
H9 H 0.235990 0.780338 0.969621
C12 C 0.29989(8) 0.80209(5) 0.75871(16)
C13 C 0.33866(9) 0.85266(5) 0.67733(17)
H10 H 0.361780 0.844787 0.567361
C14 C 0.34352(9) 0.91458(5) 0.75694(18)
H11 H 0.369500 0.949028 0.700468
C15 C 0.31040(9) 0.92642(5) 0.91953(17)
C16 C 0.26911(9) 0.87652(5) 0.99774(18)
H12 H 0.244503 0.884585 1.105522
C17 C 0.29306(14) 1.00100(7) 1.1650(2)
H13 H 0.219722 0.993650 1.123861
H14 H 0.308673 1.045976 1.208720
H15 H 0.329652 0.972141 1.279076
C18 C 0.22751(8) 0.72714(5) 0.47205(16)
C19 C 0.25557(8) 0.68793(5) 0.34012(16)
H16 H 0.322682 0.671029 0.383829
C20 C 0.18677(8) 0.67296(5) 0.14435(16)
H17 H 0.206362 0.645257 0.056587
C21 C 0.08899(8) 0.69900(5) 0.07856(16)
C22 C 0.06141(8) 0.74037(5) 0.20736(18)
H18 H -0.004557 0.759072 0.161279
C23 C 0.13007(8) 0.75425(5) 0.40243(17)
H19 H 0.110798 0.782392 0.489550
S1B S 0.47546(2) 0.40808(2) 1.37330(4)
O1B O 0.67613(7) 0.01178(4) 2.00515(13)
O2B O 0.98500(6) 0.31287(4) 3.10945(13)
N1B N 0.70360(7) 0.26181(4) 2.32273(14)
C1B C 0.51036(8) 0.47034(5) 1.54969(15)
C2B C 0.95753(10) 0.35311(7) 3.24676(19)
H1B H 1.015340 0.356969 3.376855
H2B H 0.938747 0.396025 3.185535
H3B H 0.899597 0.334025 3.272306
C3B C 0.55630(8) 0.47423(5) 1.76972(15)
C4B C 0.56683(8) 0.53802(5) 1.82864(16)
H4B H 0.594913 0.551262 1.968264
C5B C 0.59147(8) 0.41935(5) 1.91182(15)
C6B C 0.66860(8) 0.42788(5) 2.10452(15)
H5B H 0.696723 0.469714 2.142825
C7B C 0.70501(8) 0.37714(5) 2.24067(15)
H6B H 0.756882 0.384764 2.370564
C8B C 0.66594(8) 0.31451(5) 2.18845(15)
C9B C 0.58790(8) 0.30553(5) 1.99733(16)
H7B H 0.559465 0.263753 1.959411
C10B C 0.55156(8) 0.35691(5) 1.86251(16)
H8B H 0.498467 0.349566 1.734022
C11B C 0.73585(9) 0.18548(5) 2.08353(18)
H9B H 0.764010 0.219662 2.030379
C12B C 0.70011(8) 0.19791(5) 2.24129(16)
C13B C 0.66134(9) 0.14734(5) 2.32267(17)
H10B H 0.638220 0.155213 2.432639
C14B C 0.65648(9) 0.08542(5) 2.24306(18)
H11B H 0.630500 0.050972 2.299532
C15B C 0.68960(9) 0.07358(5) 2.08047(17)
C16B C 0.73089(9) 0.12348(5) 2.00226(18)
H12B H 0.755497 0.115415 1.894478
C17B C 0.70694(14) -0.00100(7) 1.8350(2)
H13B H 0.780278 0.006350 1.876139
H14B H 0.691327 -0.045976 1.791280
H15B H 0.670348 0.027859 1.720924
C18B C 0.77249(8) 0.27286(5) 2.52795(16)
C19B C 0.74443(8) 0.31207(5) 2.65988(16)
H16B H 0.677318 0.328971 2.616171
C20B C 0.81323(8) 0.32704(5) 2.85565(16)
H17B H 0.793638 0.354743 2.943413
C21B C 0.91101(8) 0.30100(5) 2.92144(16)
C22B C 0.93859(8) 0.25963(5) 2.79264(18)
H18B H 1.004557 0.240928 2.838721
C23B C 0.86993(8) 0.24575(5) 2.59757(17)
H19B H 0.889202 0.217608 2.510450
loop_
_geom_bond_atom_site_label_1
_geom_bond_atom_site_label_2
_geom_bond_site_symmetry_1
_geom_bond_site_symmetry_2
S1 C1 1_555 1_555
O1 C15 1_555 1_555
O2 C2 1_555 1_555
N1 C8 1_555 1_555
C1 C3 1_555 1_555
C2 H1 1_555 1_555
H2 C2 1_555 1_555
H3 C2 1_555 1_555
C3 C4 1_555 1_555
C4 H4 1_555 1_555
C5 C3 1_555 1_555
C6 C5 1_555 1_555
H5 C6 1_555 1_555
C7 C6 1_555 1_555
H6 C7 1_555 1_555
C8 C7 1_555 1_555
C9 C8 1_555 1_555
H7 C9 1_555 1_555
C10 C5 1_555 1_555
H8 C10 1_555 1_555
C11 H9 1_555 1_555
C12 N1 1_555 1_555
C13 C12 1_555 1_555
H10 C13 1_555 1_555
C14 C13 1_555 1_555
H11 C14 1_555 1_555
C15 C14 1_555 1_555
C16 C11 1_555 1_555
H12 C16 1_555 1_555
C17 O1 1_555 1_555
H13 C17 1_555 1_555
H14 C17 1_555 1_555
H15 C17 1_555 1_555
C18 N1 1_555 1_555
C19 C18 1_555 1_555
H16 C19 1_555 1_555
C20 C19 1_555 1_555
H17 C20 1_555 1_555
C21 O2 1_555 1_555
C22 C21 1_555 1_555
H18 C22 1_555 1_555
C23 C18 1_555 1_555
H19 C23 1_555 1_555
S1B C4 1_555 1_555
O1B C15B 1_555 1_555
O2B C2B 1_555 1_555
N1B C8B 1_555 1_555
C1B C1 1_555 1_555
C2B H1B 1_555 1_555
H2B C2B 1_555 1_555
H3B C2B 1_555 1_555
C3B C1B 1_555 1_555
C4B S1 1_555 1_555
H4B C4B 1_555 1_555
C5B C3B 1_555 1_555
C6B C5B 1_555 1_555
H5B C6B 1_555 1_555
C7B C6B 1_555 1_555
H6B C7B 1_555 1_555
C8B C7B 1_555 1_555
C9B C8B 1_555 1_555
H7B C9B 1_555 1_555
C10B C5B 1_555 1_555
H8B C10B 1_555 1_555
C11B H9B 1_555 1_555
C12B N1B 1_555 1_555
C13B C12B 1_555 1_555
H10B C13B 1_555 1_555
C14B C13B 1_555 1_555
H11B C14B 1_555 1_555
C15B C14B 1_555 1_555
C16B C11B 1_555 1_555
H12B C16B 1_555 1_555
C17B O1B 1_555 1_555
H13B C17B 1_555 1_555
H14B C17B 1_555 1_555
H15B C17B 1_555 1_555
C18B N1B 1_555 1_555
C19B C18B 1_555 1_555
H16B C19B 1_555 1_555
C20B C19B 1_555 1_555
H17B C20B 1_555 1_555
C21B O2B 1_555 1_555
C22B C21B 1_555 1_555
H18B C22B 1_555 1_555
C23B C18B 1_555 1_555
H19B C23B 1_555 1_555
C9 C10 1_555 1_555
C11 C12 1_555 1_555
C15 C16 1_555 1_555
C20 C21 1_555 1_555
C22 C23 1_555 1_555
S1B C1B 1_555 1_555
C3B C4B 1_555 1_555
C9B C10B 1_555 1_555
C11B C12B 1_555 1_555
C15B C16B 1_555 1_555
C20B C21B 1_555 1_555
C22B C23B 1_555 1_555

#END
