
#######################################################################
#
#                 Cambridge Crystallographic Data Centre
#                                CCDC 
#
#######################################################################
#
# If this CIF has been generated from an entry in the Cambridge 
# Structural Database, then it will include bibliographic, chemical, 
# crystal, experimental, refinement or atomic coordinate data resulting 
# from the CCDC's data processing and validation procedures.
#
#######################################################################

data_WIBFIY
_chemical_formula_moiety         'C11 H9 N1 O2,0.5(H2 O1)'
_chemical_name_systematic        
'2-Amino-3-methyl-1,4-naphthoquinone hemihydrate'
_symmetry_cell_setting           monoclinic
_symmetry_space_group_name_H-M   'P 21/n'
_symmetry_Int_Tables_number      14
_space_group_name_Hall           '-P 2yn'
loop_
_symmetry_equiv_pos_site_id
_symmetry_equiv_pos_as_xyz
1 x,y,z
2 1/2-x,1/2+y,1/2-z
3 -x,-y,-z
4 1/2+x,1/2-y,1/2+z
_cell_length_a                   17.048(9)
_cell_length_b                   3.831(2)
_cell_length_c                   27.879(16)
_cell_angle_alpha                90
_cell_angle_beta                 97.97(3)
_cell_angle_gamma                90
_cell_volume                     1803.21
_exptl_crystal_colour            red
_exptl_crystal_description       rod
_cell_formula_units_Z            8
loop_
_atom_site_label
_atom_site_type_symbol
_atom_site_fract_x
_atom_site_fract_y
_atom_site_fract_z
O3 O 0.2072(2) 0.1204(13) -0.04376(15)
O4 O 0.1023(3) -0.3792(14) -0.21989(16)
C12 C 0.2399(3) -0.1564(17) -0.1141(2)
C13 C 0.1824(4) -0.0086(16) -0.0838(2)
C14 C 0.0726(3) -0.1444(16) -0.1465(2)
C15 C 0.0986(3) -0.0182(15) -0.1021(2)
N2 N -0.0054(3) -0.1687(17) -0.1656(2)
C16 C 0.2134(3) -0.2913(16) -0.1603(2)
C17 C 0.2677(4) -0.4235(16) -0.1888(2)
H10 H 0.2503 -0.5094 -0.2204
C18 C 0.3195(4) -0.1707(17) -0.0959(2)
H11 H 0.3374 -0.0885 -0.0641
C19 C 0.0416(4) 0.1212(19) -0.0702(2)
H12 H 0.0046 0.2833 -0.0887
H13 H 0.0711 0.2439 -0.0425
H14 H 0.0120 -0.0728 -0.0584
C20 C 0.1281(4) -0.2808(16) -0.1792(2)
C21 C 0.3477(4) -0.4274(18) -0.1701(3)
H15 H 0.3851 -0.5153 -0.1893
C22 C 0.3735(4) -0.306(2) -0.1243(3)
H16 H 0.4282 -0.3148 -0.1119
H17 H -0.021(3) -0.253(16) -0.195(2)
H18 H -0.045(5) -0.04(2) -0.143(3)
O5 O 0.5203(10) 0.865(7) -0.0008(7)
O5B O 0.4797(10) 1.135(7) 0.0008(7)
O1 O 0.1619(2) 0.9419(12) 0.14181(14)
C1 C 0.3016(3) 0.9907(15) 0.1611(2)
N1 N 0.3214(4) 0.4751(16) 0.0297(2)
C2 C 0.2356(3) 0.7007(16) 0.0838(2)
O2 O 0.4469(3) 0.7011(14) 0.08791(16)
C3 C 0.4443(4) 1.0228(17) 0.1788(2)
H1 H 0.4950 0.9779 0.1696
C4 C 0.4384(4) 1.1832(17) 0.2229(2)
H2 H 0.4847 1.2512 0.2438
C5 C 0.3763(3) 0.9280(17) 0.1481(2)
C6 C 0.3825(4) 0.7535(17) 0.1018(2)
C7 C 0.3635(4) 1.2424(16) 0.2360(2)
H3 H 0.3589 1.3465 0.2664
C8 C 0.2959(4) 1.1518(16) 0.2053(2)
H4 H 0.2453 1.1993 0.2144
C9 C 0.1610(4) 0.5887(17) 0.0526(2)
H5 H 0.1744 0.4673 0.0239
H6 H 0.1287 0.7944 0.0425
H7 H 0.1310 0.4311 0.0710
C10 C 0.2277(3) 0.8835(15) 0.1287(2)
C11 C 0.3079(3) 0.6422(16) 0.0704(2)
H8 H 0.282(4) 0.387(19) 0.006(2)
H9 H 0.376(6) 0.47(3) 0.022(3)
O6? O 0.5269(15) 0.618(11) 0.0128(10)
loop_
_geom_bond_atom_site_label_1
_geom_bond_atom_site_label_2
_geom_bond_site_symmetry_1
_geom_bond_site_symmetry_2
O1 C10 1_555 1_555
C1 C5 1_555 1_555
N1 C11 1_555 1_555
C2 C9 1_555 1_555
O2 C6 1_555 1_555
C3 H1 1_555 1_555
C4 C3 1_555 1_555
H2 C4 1_555 1_555
C5 C3 1_555 1_555
C6 C5 1_555 1_555
C7 C4 1_555 1_555
H3 C7 1_555 1_555
C8 C1 1_555 1_555
H4 C8 1_555 1_555
C9 H5 1_555 1_555
H6 C9 1_555 1_555
H7 C9 1_555 1_555
C10 C1 1_555 1_555
C11 C2 1_555 1_555
H8 N1 1_555 1_555
H9 N1 1_555 1_555
O3 C13 1_555 1_555
O4 C20 1_555 1_555
C12 C13 1_555 1_555
C13 C15 1_555 1_555
C14 C15 1_555 1_555
C15 C19 1_555 1_555
N2 C14 1_555 1_555
C16 C12 1_555 1_555
C17 C16 1_555 1_555
H10 C17 1_555 1_555
C18 C12 1_555 1_555
H11 C18 1_555 1_555
C19 H12 1_555 1_555
H13 C19 1_555 1_555
H14 C19 1_555 1_555
C20 C14 1_555 1_555
C21 C17 1_555 1_555
H15 C21 1_555 1_555
C22 C18 1_555 1_555
H16 C22 1_555 1_555
H17 N2 1_555 1_555
H18 N2 1_555 1_555
O5 O5B 1_555 1_555
C2 C10 1_555 1_555
C6 C11 1_555 1_555
C7 C8 1_555 1_555
C16 C20 1_555 1_555
C21 C22 1_555 1_555

#END
