
#######################################################################
#
#                 Cambridge Crystallographic Data Centre
#                                CCDC 
#
#######################################################################
#
# If this CIF has been generated from an entry in the Cambridge 
# Structural Database, then it will include bibliographic, chemical, 
# crystal, experimental, refinement or atomic coordinate data resulting 
# from the CCDC's data processing and validation procedures.
#
#######################################################################

data_WIBFOE
_chemical_formula_moiety         'C12 H11 N1 O2'
_chemical_name_systematic        2-Methyl-3-(methylamino)-1,4-naphthoquinone
_symmetry_cell_setting           monoclinic
_symmetry_space_group_name_H-M   'C 2/c'
_symmetry_Int_Tables_number      15
_space_group_name_Hall           '-C 2yn'
loop_
_symmetry_equiv_pos_site_id
_symmetry_equiv_pos_as_xyz
1 x,y,z
2 -x,y,1/2-z
3 1/2+x,1/2+y,z
4 1/2-x,1/2+y,1/2-z
5 -x,-y,-z
6 x,-y,1/2+z
7 1/2-x,1/2-y,-z
8 1/2+x,1/2-y,1/2+z
_cell_length_a                   17.602(4)
_cell_length_b                   9.6348(17)
_cell_length_c                   13.187(3)
_cell_angle_alpha                90
_cell_angle_beta                 120.081(14)
_cell_angle_gamma                90
_cell_volume                     1935.2
_exptl_crystal_colour            'dark brown'
_exptl_crystal_description       block
_cell_formula_units_Z            8
loop_
_atom_site_label
_atom_site_type_symbol
_atom_site_fract_x
_atom_site_fract_y
_atom_site_fract_z
O1 O 0.36021(5) 0.29795(8) 0.02781(8)
O2 O 0.60504(5) -0.09880(9) 0.18885(7)
C1 C 0.57413(6) 0.14052(11) 0.16885(8)
C2 C 0.45479(6) -0.04499(10) 0.10170(8)
N1 N 0.30426(5) 0.04706(9) 0.01206(8)
C3 C 0.41739(6) 0.20908(11) 0.06816(9)
C4 C 0.54737(6) -0.00844(11) 0.15481(8)
C5 C 0.51144(6) 0.24579(11) 0.12546(9)
C6 C 0.43453(7) -0.19772(11) 0.09494(9)
H1 H 0.4135 -0.2197 0.1492
H2 H 0.4878 -0.2513 0.1164
H3 H 0.3891 -0.2215 0.0149
C7 C 0.39226(6) 0.05858(10) 0.06164(8)
C8 C 0.53624(7) 0.38489(12) 0.13589(10)
H4 H 0.4930 0.4559 0.1063
C9 C 0.66310(7) 0.17621(13) 0.22416(10)
H5 H 0.7065 0.1055 0.2548
C10 C 0.68814(7) 0.31417(14) 0.23450(10)
H6 H 0.7487 0.3377 0.2720
C11 C 0.62491(8) 0.41847(14) 0.19007(11)
H7 H 0.6424 0.5129 0.1968
C12 C 0.25123(7) -0.07292(12) -0.00106(13)
H8 H 0.2510 -0.1354 -0.0599
H9 H 0.1910 -0.0434 -0.0263
H10 H 0.2756 -0.1216 0.0741
H11 H 0.2754(11) 0.1304(18) -0.0060(15)
loop_
_geom_bond_atom_site_label_1
_geom_bond_atom_site_label_2
_geom_bond_site_symmetry_1
_geom_bond_site_symmetry_2
O1 C3 1_555 1_555
O2 C4 1_555 1_555
C1 C4 1_555 1_555
C2 C4 1_555 1_555
N1 C7 1_555 1_555
C3 C5 1_555 1_555
C5 C1 1_555 1_555
C6 C2 1_555 1_555
H1 C6 1_555 1_555
H2 C6 1_555 1_555
H3 C6 1_555 1_555
C7 C2 1_555 1_555
C8 C5 1_555 1_555
H4 C8 1_555 1_555
C9 C1 1_555 1_555
H5 C9 1_555 1_555
C10 C9 1_555 1_555
H6 C10 1_555 1_555
C11 C8 1_555 1_555
H7 C11 1_555 1_555
C12 N1 1_555 1_555
H8 C12 1_555 1_555
H9 C12 1_555 1_555
H10 C12 1_555 1_555
H11 N1 1_555 1_555
C3 C7 1_555 1_555
C10 C11 1_555 1_555

#END
