
#######################################################################
#
#                 Cambridge Crystallographic Data Centre
#                                CCDC 
#
#######################################################################
#
# If this CIF has been generated from an entry in the Cambridge 
# Structural Database, then it will include bibliographic, chemical, 
# crystal, experimental, refinement or atomic coordinate data resulting 
# from the CCDC's data processing and validation procedures.
#
#######################################################################

data_WIBFAQ
_chemical_formula_moiety         'C13 H12 O2'
_chemical_name_systematic        2-Ethyl-3-methyl-1,4-naphthoquinone
_symmetry_cell_setting           triclinic
_symmetry_space_group_name_H-M   'P -1'
_symmetry_Int_Tables_number      2
_space_group_name_Hall           '-P 1'
loop_
_symmetry_equiv_pos_site_id
_symmetry_equiv_pos_as_xyz
1 x,y,z
2 -x,-y,-z
_cell_length_a                   7.9978(10)
_cell_length_b                   10.0437(15)
_cell_length_c                   13.2982(14)
_cell_angle_alpha                91.623(7)
_cell_angle_beta                 102.423(7)
_cell_angle_gamma                95.861(7)
_cell_volume                     1036.36
_exptl_crystal_colour            yellow
_exptl_crystal_description       block
_cell_formula_units_Z            4
loop_
_atom_site_label
_atom_site_type_symbol
_atom_site_fract_x
_atom_site_fract_y
_atom_site_fract_z
O1 O 0.40747(19) 0.33742(13) 0.63551(10)
O2 O 0.12275(18) 0.58976(13) 0.30548(9)
C1 C 0.19375(18) 0.59000(15) 0.48679(12)
C2 C 0.3407(2) 0.39526(16) 0.55970(13)
C3 C 0.26851(19) 0.52381(15) 0.57313(12)
C4 C 0.1868(2) 0.53233(16) 0.38172(12)
C5 C 0.2594(2) 0.40291(16) 0.37064(12)
C6 C 0.33221(19) 0.33942(15) 0.45421(13)
C7 C 0.1279(2) 0.71109(16) 0.49998(14)
H1 H 0.0774 0.7569 0.4416
C8 C 0.2760(2) 0.57854(18) 0.67165(13)
H2 H 0.3269 0.5335 0.7305
C9 C 0.1364(2) 0.76439(18) 0.59837(15)
H3 H 0.0916 0.8470 0.6071
C10 C 0.4081(2) 0.20800(17) 0.44846(16)
H4 H 0.5045 0.2051 0.5089
H5 H 0.4555 0.2037 0.3857
C11 C 0.2095(2) 0.69832(19) 0.68407(15)
H6 H 0.2141 0.7352 0.7513
C12 C 0.2453(3) 0.3531(2) 0.26119(14)
H7 H 0.3282 0.4082 0.2309
H8 H 0.1284 0.3591 0.2212
H9 H 0.2702 0.2596 0.2601
C13 C 0.2770(3) 0.08647(18) 0.4461(2)
H10 H 0.2250 0.0925 0.5062
H11 H 0.3345 0.0047 0.4477
H12 H 0.1870 0.0839 0.3829
O3 O 0.48480(17) 0.26340(14) 0.10265(9)
C14 C 0.3472(2) 0.04232(17) 0.07911(13)
O4 O 0.0657(2) -0.10240(14) -0.15629(13)
C15 C 0.1992(2) 0.11918(16) -0.12736(12)
C16 C 0.3864(2) 0.17926(17) 0.04492(12)
C17 C 0.2367(2) -0.05323(17) 0.01166(15)
C18 C 0.3041(2) 0.21234(15) -0.06170(12)
C19 C 0.1595(2) -0.01868(17) -0.09489(14)
C20 C 0.4226(3) 0.0089(2) 0.17865(15)
H13 H 0.4984 0.0735 0.2248
C21 C 0.1167(3) 0.1455(2) -0.23666(14)
H14 H 0.1178 0.2424 -0.2442
H15 H -0.0026 0.1032 -0.2534
H16 H 0.1810 0.1082 -0.2836
C22 C 0.3453(3) 0.35411(17) -0.08934(13)
H17 H 0.3462 0.3552 -0.1636
H18 H 0.4618 0.3894 -0.0499
C23 C 0.2015(3) -0.1821(2) 0.0442(2)
H19 H 0.1261 -0.2476 -0.0014
C24 C 0.3856(4) -0.1195(3) 0.2094(2)
H20 H 0.4359 -0.1428 0.2771
C25 C 0.2759(4) -0.2141(3) 0.1422(2)
H21 H 0.2518 -0.3019 0.1640
C26 C 0.2144(3) 0.44506(18) -0.06614(16)
H22 H 0.1003 0.4143 -0.1088
H23 H 0.2489 0.5373 -0.0816
H24 H 0.2103 0.4418 0.0069
loop_
_geom_bond_atom_site_label_1
_geom_bond_atom_site_label_2
_geom_bond_site_symmetry_1
_geom_bond_site_symmetry_2
O1 C2 1_555 1_555
O2 C4 1_555 1_555
C1 C3 1_555 1_555
C2 C3 1_555 1_555
C3 C8 1_555 1_555
C4 C1 1_555 1_555
C5 C4 1_555 1_555
C6 C2 1_555 1_555
C7 C1 1_555 1_555
H1 C7 1_555 1_555
C8 H2 1_555 1_555
C9 C7 1_555 1_555
H3 C9 1_555 1_555
C10 C6 1_555 1_555
H4 C10 1_555 1_555
H5 C10 1_555 1_555
C11 C8 1_555 1_555
H6 C11 1_555 1_555
C12 C5 1_555 1_555
H7 C12 1_555 1_555
H8 C12 1_555 1_555
H9 C12 1_555 1_555
C13 C10 1_555 1_555
H10 C13 1_555 1_555
H11 C13 1_555 1_555
H12 C13 1_555 1_555
O3 C16 1_555 1_555
C14 C16 1_555 1_555
O4 C19 1_555 1_555
C15 C18 1_555 1_555
C16 C18 1_555 1_555
C17 C14 1_555 1_555
C18 C22 1_555 1_555
C19 C15 1_555 1_555
C20 C14 1_555 1_555
H13 C20 1_555 1_555
C21 C15 1_555 1_555
H14 C21 1_555 1_555
H15 C21 1_555 1_555
H16 C21 1_555 1_555
C22 H17 1_555 1_555
H18 C22 1_555 1_555
C23 C17 1_555 1_555
H19 C23 1_555 1_555
C24 C20 1_555 1_555
H20 C24 1_555 1_555
C25 C23 1_555 1_555
H21 C25 1_555 1_555
C26 C22 1_555 1_555
H22 C26 1_555 1_555
H23 C26 1_555 1_555
H24 C26 1_555 1_555
C5 C6 1_555 1_555
C9 C11 1_555 1_555
C17 C19 1_555 1_555
C24 C25 1_555 1_555

#END
