
#######################################################################
#
#                 Cambridge Crystallographic Data Centre
#                                CCDC 
#
#######################################################################
#
# If this CIF has been generated from an entry in the Cambridge 
# Structural Database, then it will include bibliographic, chemical, 
# crystal, experimental, refinement or atomic coordinate data resulting 
# from the CCDC's data processing and validation procedures.
#
#######################################################################

data_WIBFEU
_chemical_formula_moiety         'C17 H20 O2'
_chemical_name_systematic        2-Hexyl-3-methyl-1,4-naphthoquinone
_symmetry_cell_setting           monoclinic
_symmetry_space_group_name_H-M   'P 21'
_symmetry_Int_Tables_number      4
_space_group_name_Hall           'P 2yb'
loop_
_symmetry_equiv_pos_site_id
_symmetry_equiv_pos_as_xyz
1 x,y,z
2 -x,1/2+y,-z
_cell_length_a                   7.684(3)
_cell_length_b                   4.765(2)
_cell_length_c                   19.333(6)
_cell_angle_alpha                90
_cell_angle_beta                 93.043(17)
_cell_angle_gamma                90
_cell_volume                     706.865
_exptl_crystal_colour            'pale yellow'
_exptl_crystal_description       needle
_cell_formula_units_Z            2
loop_
_atom_site_label
_atom_site_type_symbol
_atom_site_fract_x
_atom_site_fract_y
_atom_site_fract_z
C1 C 0.6394(7) 0.4429(14) 0.3436(3)
O1 O 1.0842(5) 0.2829(12) 0.3988(2)
C2 C 0.7727(7) 0.0739(14) 0.2650(3)
C3 C 0.9246(7) 0.0939(15) 0.3029(3)
C4 C 0.6204(7) 0.2491(15) 0.2839(3)
O2 O 0.4814(5) 0.2331(12) 0.2493(2)
C5 C 0.7962(7) 0.4579(14) 0.3832(3)
C6 C 0.9448(7) 0.2752(15) 0.3647(3)
C7 C 0.7421(8) -0.1023(15) 0.2012(3)
H1 H 0.6207 -0.1727 0.1989
H2 H 0.8213 -0.2662 0.2037
C8 C 0.5169(8) 0.7950(17) 0.4165(3)
H3 H 0.4221 0.9125 0.4272
C9 C 0.7680(8) 0.0662(16) 0.0044(3)
H4 H 0.8920 0.1237 0.0065
H5 H 0.6967 0.2393 0.0039
C10 C 0.5008(8) 0.6119(15) 0.3610(3)
H6 H 0.3934 0.6013 0.3344
C11 C 0.7340(8) -0.0967(17) 0.0692(3)
H7 H 0.8060 -0.2692 0.0703
H8 H 0.6101 -0.1548 0.0674
C12 C 0.6716(9) 0.8062(15) 0.4563(3)
H9 H 0.6832 0.9295 0.4949
C13 C 0.7738(8) 0.0678(16) 0.1359(3)
H10 H 0.7000 0.2382 0.1354
H11 H 0.8970 0.1290 0.1374
C14 C 0.7290(8) -0.0902(17) -0.0625(3)
H12 H 0.6039 -0.1413 -0.0657
H13 H 0.7973 -0.2665 -0.0616
C15 C 0.8092(9) 0.6370(15) 0.4396(3)
H14 H 0.9149 0.6439 0.4673
C16 C 0.7705(9) 0.0759(18) -0.1264(3)
H15 H 0.7433 -0.0376 -0.1679
H16 H 0.8946 0.1248 -0.1241
H17 H 0.7005 0.2479 -0.1286
C17 C 1.0867(8) -0.0764(18) 0.2867(4)
H18 H 1.1230 -0.1912 0.3270
H19 H 1.1813 0.0518 0.2760
H20 H 1.0595 -0.1986 0.2468
loop_
_geom_bond_atom_site_label_1
_geom_bond_atom_site_label_2
_geom_bond_site_symmetry_1
_geom_bond_site_symmetry_2
C1 C4 1_555 1_555
O1 C6 1_555 1_555
C2 C3 1_555 1_555
C3 C6 1_555 1_555
C4 C2 1_555 1_555
O2 C4 1_555 1_555
C5 C1 1_555 1_555
C6 C5 1_555 1_555
C7 C2 1_555 1_555
H1 C7 1_555 1_555
H2 C7 1_555 1_555
C8 H3 1_555 1_555
C9 H4 1_555 1_555
H5 C9 1_555 1_555
C10 C1 1_555 1_555
H6 C10 1_555 1_555
C11 C9 1_555 1_555
H7 C11 1_555 1_555
H8 C11 1_555 1_555
C12 C8 1_555 1_555
H9 C12 1_555 1_555
C13 C7 1_555 1_555
H10 C13 1_555 1_555
H11 C13 1_555 1_555
C14 C9 1_555 1_555
H12 C14 1_555 1_555
H13 C14 1_555 1_555
C15 C5 1_555 1_555
H14 C15 1_555 1_555
C16 C14 1_555 1_555
H15 C16 1_555 1_555
H16 C16 1_555 1_555
H17 C16 1_555 1_555
C17 C3 1_555 1_555
H18 C17 1_555 1_555
H19 C17 1_555 1_555
H20 C17 1_555 1_555
C8 C10 1_555 1_555
C11 C13 1_555 1_555
C12 C15 1_555 1_555

#END
