
#######################################################################
#
#                 Cambridge Crystallographic Data Centre
#                                CCDC 
#
#######################################################################
#
# If this CIF has been generated from an entry in the Cambridge 
# Structural Database, then it will include bibliographic, chemical, 
# crystal, experimental, refinement or atomic coordinate data resulting 
# from the CCDC's data processing and validation procedures.
#
#######################################################################

data_WIBGUK
_chemical_formula_moiety         'C19 H13 Cl1 N2 O2 S1'
_chemical_name_systematic        
4'-(4-Chlorophenyl)-5-methylsulfanyl-2-phenyl-4,5'-bioxazolyl
_symmetry_cell_setting           monoclinic
_symmetry_space_group_name_H-M   'P 21/c'
_symmetry_Int_Tables_number      14
_space_group_name_Hall           '-P 2ybc'
loop_
_symmetry_equiv_pos_site_id
_symmetry_equiv_pos_as_xyz
1 x,y,z
2 -x,1/2+y,1/2-z
3 -x,-y,-z
4 x,1/2-y,1/2+z
_cell_length_a                   10.574(5)
_cell_length_b                   23.386(5)
_cell_length_c                   7.047(5)
_cell_angle_alpha                90
_cell_angle_beta                 106.919(5)
_cell_angle_gamma                90
_cell_volume                     1667.18
_exptl_crystal_colour            colorless
_exptl_crystal_description       Rectangular
_chemical_melting_point          '128-130 deg.C'
_cell_formula_units_Z            4
loop_
_atom_site_label
_atom_site_type_symbol
_atom_site_fract_x
_atom_site_fract_y
_atom_site_fract_z
Cl1 Cl 0.05394(9) -0.24335(4) 0.43144(14)
S1 S 0.84426(9) 0.02386(4) 1.01935(15)
O1 O 0.5997(2) 0.05540(10) 0.8091(3)
O2 O 0.7719(2) -0.10395(10) 1.0266(3)
N1 N 0.4778(3) -0.02365(12) 0.7486(4)
N2 N 0.6820(3) -0.19058(13) 0.9688(4)
C1 C 0.4798(3) 0.03098(15) 0.7239(5)
C2 C 0.6049(3) -0.03804(15) 0.8543(5)
C3 C 0.6802(3) 0.00992(15) 0.8909(5)
C4 C 0.8786(4) 0.08407(17) 0.8831(7)
H1 H 0.9684 0.0962 0.9407
H2 H 0.8199 0.1149 0.8886
H3 H 0.8658 0.0732 0.7474
C5 C 0.3695(3) 0.06791(15) 0.6192(5)
C6 C 0.3862(3) 0.12633(15) 0.6010(5)
H4 H 0.4687 0.1429 0.6567
C7 C 0.2799(3) 0.16014(16) 0.4997(5)
H5 H 0.2907 0.1994 0.4894
C8 C 0.1574(4) 0.13504(16) 0.4138(5)
H6 H 0.0867 0.1573 0.3424
C9 C 0.1407(4) 0.07683(17) 0.4345(5)
H7 H 0.0582 0.0603 0.3792
C10 C 0.2465(3) 0.04291(16) 0.5374(5)
H8 H 0.2349 0.0039 0.5514
C11 C 0.6430(3) -0.09671(15) 0.9111(5)
C12 C 0.7855(3) -0.16149(15) 1.0533(5)
H9 H 0.8640 -0.1784 1.1273
C13 C 0.5857(3) -0.14953(15) 0.8751(5)
C14 C 0.4543(3) -0.16998(15) 0.7620(5)
C15 C 0.3386(3) -0.13797(15) 0.7364(5)
H10 H 0.3441 -0.1012 0.7886
C16 C 0.2165(3) -0.16006(15) 0.6348(5)
H11 H 0.1404 -0.1384 0.6193
C17 C 0.2081(3) -0.21428(16) 0.5570(5)
C18 C 0.3207(3) -0.24749(16) 0.5788(5)
H12 H 0.3141 -0.2843 0.5268
C19 C 0.4426(4) -0.22480(15) 0.6794(5)
H13 H 0.5184 -0.2465 0.6924
loop_
_geom_bond_atom_site_label_1
_geom_bond_atom_site_label_2
_geom_bond_site_symmetry_1
_geom_bond_site_symmetry_2
Cl1 C17 1_555 1_555
S1 C3 1_555 1_555
O1 C1 1_555 1_555
O2 C11 1_555 1_555
N1 C1 1_555 1_555
N2 C12 1_555 1_555
C1 C5 1_555 1_555
C2 N1 1_555 1_555
C3 O1 1_555 1_555
C4 S1 1_555 1_555
H1 C4 1_555 1_555
H2 C4 1_555 1_555
H3 C4 1_555 1_555
C5 C6 1_555 1_555
C6 H4 1_555 1_555
C7 C6 1_555 1_555
H5 C7 1_555 1_555
C8 C7 1_555 1_555
H6 C8 1_555 1_555
C9 C8 1_555 1_555
H7 C9 1_555 1_555
C10 C5 1_555 1_555
H8 C10 1_555 1_555
C11 C2 1_555 1_555
C12 O2 1_555 1_555
H9 C12 1_555 1_555
C13 N2 1_555 1_555
C14 C13 1_555 1_555
C15 C14 1_555 1_555
H10 C15 1_555 1_555
C16 C15 1_555 1_555
H11 C16 1_555 1_555
C17 C16 1_555 1_555
C18 C17 1_555 1_555
H12 C18 1_555 1_555
C19 C14 1_555 1_555
H13 C19 1_555 1_555
C2 C3 1_555 1_555
C9 C10 1_555 1_555
C11 C13 1_555 1_555
C18 C19 1_555 1_555

#END
