
#######################################################################
#
#                 Cambridge Crystallographic Data Centre
#                                CCDC 
#
#######################################################################
#
# If this CIF has been generated from an entry in the Cambridge 
# Structural Database, then it will include bibliographic, chemical, 
# crystal, experimental, refinement or atomic coordinate data resulting 
# from the CCDC's data processing and validation procedures.
#
#######################################################################

data_WIBJUN
_chemical_formula_moiety         'C22 H22 Br1 N1 O1'
_chemical_name_systematic        
2-benzyl-3-(2-bromophenyl)-7a-methyl-2,3,3a,6,7,7a-hexahydro-1H-isoindol-1-one
_symmetry_cell_setting           triclinic
_symmetry_space_group_name_H-M   'P -1'
_symmetry_Int_Tables_number      2
_space_group_name_Hall           '-P 1'
loop_
_symmetry_equiv_pos_site_id
_symmetry_equiv_pos_as_xyz
1 x,y,z
2 -x,-y,-z
_cell_length_a                   9.9446(8)
_cell_length_b                   9.9850(8)
_cell_length_c                   11.1069(8)
_cell_angle_alpha                83.4900(10)
_cell_angle_beta                 71.0780(10)
_cell_angle_gamma                60.6110(10)
_cell_volume                     907.617
_exptl_crystal_colour            colorless
_exptl_crystal_description       'Irregular plate'
_cell_formula_units_Z            2
loop_
_atom_site_label
_atom_site_type_symbol
_atom_site_fract_x
_atom_site_fract_y
_atom_site_fract_z
Br1 Br 0.30451(2) 0.47456(2) 0.042298(17)
O1 O 0.37100(16) -0.06725(15) 0.46352(12)
N1 N 0.31209(16) 0.16480(16) 0.37082(14)
C1 C 0.4073(2) 0.01038(19) 0.37940(16)
C2 C 0.5541(2) -0.04421(19) 0.26046(16)
C3 C 0.56240(19) 0.10508(19) 0.22731(16)
H1 H 0.601(2) 0.124(2) 0.2925(19)
C4 C 0.3836(2) 0.2285(2) 0.25762(16)
H2 H 0.341(2) 0.232(2) 0.1956(19)
C5 C 0.6846(2) 0.0880(2) 0.10024(18)
H3 H 0.665(2) 0.179(2) 0.046(2)
C6 C 0.8179(2) -0.0483(2) 0.0645(2)
H4 H 0.889(3) -0.062(3) -0.005(2)
C7 C 0.8499(2) -0.1899(2) 0.1401(2)
H5 H 0.954(3) -0.229(3) 0.153(2)
H6 H 0.867(3) -0.274(3) 0.085(2)
C8 C 0.7189(2) -0.1665(2) 0.27006(19)
H7 H 0.742(3) -0.133(2) 0.334(2)
H8 H 0.719(3) -0.263(3) 0.292(2)
C9 C 0.1391(2) 0.2468(2) 0.44081(17)
H9 H 0.122(3) 0.191(3) 0.517(2)
H10 H 0.110(2) 0.348(2) 0.4683(18)
C10 C 0.03639(19) 0.2604(2) 0.36049(16)
C11 C -0.0259(2) 0.3894(2) 0.29173(18)
H11 H -0.007(2) 0.470(2) 0.2937(19)
C12 C -0.1224(2) 0.4008(2) 0.22020(19)
H12 H -0.154(3) 0.477(3) 0.168(2)
C13 C -0.1594(2) 0.2840(2) 0.21873(18)
H13 H -0.230(3) 0.292(3) 0.171(2)
C14 C -0.0965(2) 0.1542(2) 0.28590(18)
H14 H -0.122(2) 0.074(2) 0.2898(19)
C15 C 0.0020(2) 0.1422(2) 0.35539(18)
H15 H 0.041(2) 0.056(2) 0.4023(19)
C16 C 0.35355(19) 0.38656(19) 0.28664(16)
C17 C 0.3159(2) 0.5056(2) 0.20398(16)
C18 C 0.2896(2) 0.6504(2) 0.23318(18)
H16 H 0.268(3) 0.725(3) 0.170(2)
C19 C 0.3012(2) 0.6772(2) 0.34796(19)
H17 H 0.277(3) 0.777(3) 0.372(2)
C20 C 0.3411(2) 0.5605(2) 0.43145(18)
H18 H 0.348(2) 0.576(2) 0.507(2)
C21 C 0.3677(2) 0.4169(2) 0.40082(17)
H19 H 0.397(3) 0.338(3) 0.458(2)
C22 C 0.5057(2) -0.0976(2) 0.16385(18)
H20 H 0.505(3) -0.199(3) 0.193(2)
H21 H 0.584(3) -0.117(3) 0.080(2)
H22 H 0.408(3) -0.022(3) 0.153(2)
loop_
_geom_bond_atom_site_label_1
_geom_bond_atom_site_label_2
_geom_bond_site_symmetry_1
_geom_bond_site_symmetry_2
Br1 C17 1_555 1_555
O1 C1 1_555 1_555
N1 C1 1_555 1_555
C1 C2 1_555 1_555
C2 C3 1_555 1_555
C3 H1 1_555 1_555
C4 N1 1_555 1_555
H2 C4 1_555 1_555
C5 C3 1_555 1_555
H3 C5 1_555 1_555
C6 C5 1_555 1_555
H4 C6 1_555 1_555
C7 C6 1_555 1_555
H5 C7 1_555 1_555
H6 C7 1_555 1_555
C8 C2 1_555 1_555
H7 C8 1_555 1_555
H8 C8 1_555 1_555
C9 N1 1_555 1_555
H9 C9 1_555 1_555
H10 C9 1_555 1_555
C10 C9 1_555 1_555
C11 C10 1_555 1_555
H11 C11 1_555 1_555
C12 C11 1_555 1_555
H12 C12 1_555 1_555
C13 C12 1_555 1_555
H13 C13 1_555 1_555
C14 C13 1_555 1_555
H14 C14 1_555 1_555
C15 C10 1_555 1_555
H15 C15 1_555 1_555
C16 C4 1_555 1_555
C17 C16 1_555 1_555
C18 C17 1_555 1_555
H16 C18 1_555 1_555
C19 C18 1_555 1_555
H17 C19 1_555 1_555
C20 C19 1_555 1_555
H18 C20 1_555 1_555
C21 C16 1_555 1_555
H19 C21 1_555 1_555
C22 C2 1_555 1_555
H20 C22 1_555 1_555
H21 C22 1_555 1_555
H22 C22 1_555 1_555
C3 C4 1_555 1_555
C7 C8 1_555 1_555
C14 C15 1_555 1_555
C20 C21 1_555 1_555

#END
