
#######################################################################
#
#                 Cambridge Crystallographic Data Centre
#                                CCDC 
#
#######################################################################
#
# If this CIF has been generated from an entry in the Cambridge 
# Structural Database, then it will include bibliographic, chemical, 
# crystal, experimental, refinement or atomic coordinate data resulting 
# from the CCDC's data processing and validation procedures.
#
#######################################################################

data_WIBVUY
_chemical_formula_moiety         'C28 H16 F8'
_chemical_name_systematic        
(4b\a,4c\a,8b\b,8c\b,13b\b,13c\b,13d\a)-4c,5,6,7,8,8b,13c,13d-Octafluoro-4b,4c,8b,9,13b,13c,13d,13e,14-decahydrobis(indeno(1',2':3,4)cyclobuta)(1,2-a:1',2'-c)napthalene
_symmetry_cell_setting           triclinic
_symmetry_space_group_name_H-M   'P -1'
_symmetry_Int_Tables_number      2
_space_group_name_Hall           '-P 1'
loop_
_symmetry_equiv_pos_site_id
_symmetry_equiv_pos_as_xyz
1 x,y,z
2 -x,-y,-z
_cell_length_a                   7.546(1)
_cell_length_b                   9.629(1)
_cell_length_c                   15.876(2)
_cell_angle_alpha                83.16(1)
_cell_angle_beta                 81.17(1)
_cell_angle_gamma                71.23(1)
_cell_volume                     1076.26
_exptl_crystal_colour            colorless
_chemical_melting_point          243-244deg.C
_cell_formula_units_Z            2
loop_
_atom_site_label
_atom_site_type_symbol
_atom_site_fract_x
_atom_site_fract_y
_atom_site_fract_z
F1 F 0.75049(15) 0.10821(11) 0.67969(7)
F2 F 0.38010(14) 0.18913(10) 0.67246(6)
F3 F 0.09840(15) 0.44915(13) 0.63055(7)
F4 F -0.1566(2) 0.66943(15) 0.71277(9)
F5 F -0.0771(2) 0.75598(15) 0.85601(9)
F6 F 0.2544(2) 0.62527(14) 0.91328(7)
F7 F 0.6177(2) 0.52155(14) 0.83326(7)
F8 F 0.8708(2) 0.2871(2) 0.77937(7)
C1 C 0.6591(2) 0.2544(2) 0.69662(11)
C2 C 0.4540(2) 0.3023(2) 0.67439(10)
C3 C 0.3165(2) 0.4179(2) 0.72845(9)
C4 C 0.1408(2) 0.4882(2) 0.70138(10)
C5 C 0.0081(3) 0.6012(2) 0.74264(12)
C6 C 0.0496(3) 0.6456(2) 0.81436(12)
C7 C 0.2204(3) 0.5778(2) 0.84300(11)
C8 C 0.3583(2) 0.4647(2) 0.80093(10)
C9 C 0.5484(3) 0.4038(2) 0.83298(11)
C10 C 0.6899(2) 0.2749(2) 0.78478(11)
C11 C 0.8698(3) 0.2925(2) 0.55299(11)
H1 H 0.9211(3) 0.3669(2) 0.52211(11)
H2 H 0.9697(3) 0.2164(2) 0.57880(11)
C12 C 0.7054(2) 0.3601(2) 0.62095(10)
H3 H 0.7069(2) 0.4539(2) 0.63855(10)
C13 C 0.5191(2) 0.3695(2) 0.58656(10)
H4 H 0.4406(2) 0.4695(2) 0.57102(10)
C14 C 0.5854(3) 0.2696(2) 0.51427(10)
C15 C 0.4768(3) 0.2228(2) 0.46743(12)
H5 H 0.3464(3) 0.2503(2) 0.48048(12)
C16 C 0.5663(4) 0.1349(3) 0.40117(14)
H6 H 0.4953(4) 0.1027(3) 0.36938(14)
C17 C 0.7595(4) 0.0942(3) 0.38158(13)
H7 H 0.8173(4) 0.0351(3) 0.33665(13)
C18 C 0.8678(3) 0.1401(2) 0.42773(12)
H8 H 0.9982(3) 0.1120(2) 0.41423(12)
C19 C 0.7807(3) 0.2288(2) 0.49475(11)
C20 C 0.3882(3) 0.2798(3) 0.96921(11)
H9 H 0.4085(3) 0.2484(3) 1.02827(11)
H10 H 0.2819(3) 0.3691(3) 0.96752(11)
C21 C 0.5648(3) 0.3034(2) 0.91714(11)
H11 H 0.6498(3) 0.3206(2) 0.95275(11)
C22 C 0.6615(3) 0.1687(2) 0.86284(11)
H12 H 0.7794(3) 0.1031(2) 0.88213(11)
C23 C 0.5101(3) 0.0968(2) 0.86700(11)
C24 C 0.5116(3) -0.0206(2) 0.82386(12)
H13 H 0.6148(3) -0.0638(2) 0.78502(12)
C25 C 0.3581(3) -0.0729(2) 0.83912(14)
H14 H 0.3582(3) -0.1521(2) 0.81079(14)
C26 C 0.2047(3) -0.0074(3) 0.8965(2)
H15 H 0.1016(3) -0.0426(3) 0.9061(2)
C27 C 0.2023(3) 0.1094(3) 0.93984(14)
H16 H 0.0982(3) 0.1530(3) 0.97813(14)
C28 C 0.3564(3) 0.1608(2) 0.92563(11)
loop_
_geom_bond_atom_site_label_1
_geom_bond_atom_site_label_2
_geom_bond_site_symmetry_1
_geom_bond_site_symmetry_2
F1 C1 1_555 1_555
F2 C2 1_555 1_555
F3 C4 1_555 1_555
F4 C5 1_555 1_555
F5 C6 1_555 1_555
F6 C7 1_555 1_555
F7 C9 1_555 1_555
F8 C10 1_555 1_555
C1 C2 1_555 1_555
C2 C3 1_555 1_555
C3 C4 1_555 1_555
C4 C5 1_555 1_555
C5 C6 1_555 1_555
C6 C7 1_555 1_555
C7 C8 1_555 1_555
C8 C3 1_555 1_555
C9 C8 1_555 1_555
C10 C1 1_555 1_555
C11 H1 1_555 1_555
H2 C11 1_555 1_555
C12 C1 1_555 1_555
H3 C12 1_555 1_555
C13 C2 1_555 1_555
H4 C13 1_555 1_555
C14 C13 1_555 1_555
C15 C14 1_555 1_555
H5 C15 1_555 1_555
C16 C15 1_555 1_555
H6 C16 1_555 1_555
C17 C16 1_555 1_555
H7 C17 1_555 1_555
C18 C17 1_555 1_555
H8 C18 1_555 1_555
C19 C11 1_555 1_555
C20 H9 1_555 1_555
H10 C20 1_555 1_555
C21 C9 1_555 1_555
H11 C21 1_555 1_555
C22 C10 1_555 1_555
H12 C22 1_555 1_555
C23 C22 1_555 1_555
C24 C23 1_555 1_555
H13 C24 1_555 1_555
C25 C24 1_555 1_555
H14 C25 1_555 1_555
C26 C25 1_555 1_555
H15 C26 1_555 1_555
C27 C26 1_555 1_555
H16 C27 1_555 1_555
C28 C20 1_555 1_555
C9 C10 1_555 1_555
C11 C12 1_555 1_555
C12 C13 1_555 1_555
C14 C19 1_555 1_555
C18 C19 1_555 1_555
C20 C21 1_555 1_555
C21 C22 1_555 1_555
C23 C28 1_555 1_555
C27 C28 1_555 1_555

#END
