
#######################################################################
#
#                 Cambridge Crystallographic Data Centre
#                                CCDC 
#
#######################################################################
#
# If this CIF has been generated from an entry in the Cambridge 
# Structural Database, then it will include bibliographic, chemical, 
# crystal, experimental, refinement or atomic coordinate data resulting 
# from the CCDC's data processing and validation procedures.
#
#######################################################################

data_WIBWEJ
_chemical_name_common            1,4,6,9-Tetra-azathianthrene
_chemical_formula_moiety         'C8 H4 N4 S2'
_chemical_name_systematic        
5,10-Dithia-1,4,6,9-tetra-aza-5,10-dihydroanthracene
_symmetry_cell_setting           monoclinic
_symmetry_space_group_name_H-M   'P 21/n'
_symmetry_Int_Tables_number      14
_space_group_name_Hall           '-P 2yn'
loop_
_symmetry_equiv_pos_site_id
_symmetry_equiv_pos_as_xyz
1 x,y,z
2 1/2-x,1/2+y,1/2-z
3 -x,-y,-z
4 1/2+x,1/2-y,1/2+z
_cell_length_a                   3.894(1)
_cell_length_b                   7.866(3)
_cell_length_c                   14.297(7)
_cell_angle_alpha                90
_cell_angle_beta                 95.66(3)
_cell_angle_gamma                90
_cell_volume                     435.785
_exptl_crystal_colour            yellow
_cell_formula_units_Z            2
loop_
_atom_site_label
_atom_site_type_symbol
_atom_site_fract_x
_atom_site_fract_y
_atom_site_fract_z
S1 S 0.17584(10) 0.10237(5) -0.09398(3)
N1 N -0.0191(3) 0.1825(2) 0.17509(9)
C1 C 0.1055(4) 0.3410(2) 0.18265(12)
C2 C 0.2503(5) 0.4192(2) 0.10946(12)
N2 N 0.2679(3) 0.3406(2) 0.02754(9)
C3 C 0.1384(3) 0.1846(2) 0.01876(10)
C4 C 0.0038(4) -0.1045(2) -0.09357(10)
H1 H 0.100(6) 0.404(3) 0.238(2)
H2 H 0.346(5) 0.527(3) 0.1141(13)
C4B C -0.0038(4) 0.1045(2) 0.09357(10)
N1B N 0.0191(3) -0.1825(2) -0.17509(9)
C3B C -0.1384(3) -0.1846(2) -0.01876(10)
S1B S -0.17584(10) -0.10237(5) 0.09398(3)
C1B C -0.1055(4) -0.3410(2) -0.18265(12)
N2B N -0.2679(3) -0.3406(2) -0.02754(9)
C2B C -0.2503(5) -0.4192(2) -0.10946(12)
H1B H -0.100(6) -0.404(3) -0.238(2)
H2B H -0.346(5) -0.527(3) -0.1141(13)
loop_
_geom_bond_atom_site_label_1
_geom_bond_atom_site_label_2
_geom_bond_site_symmetry_1
_geom_bond_site_symmetry_2
S1 C3 1_555 1_555
N1 C1 1_555 1_555
C1 C2 1_555 1_555
C2 N2 1_555 1_555
N2 C3 1_555 1_555
C3 C4B 1_555 1_555
C4 S1 1_555 1_555
H1 C1 1_555 1_555
H2 C2 1_555 1_555
C4B N1 1_555 1_555
N1B C4 1_555 1_555
C3B C4 1_555 1_555
S1B C4B 1_555 1_555
C1B N1B 1_555 1_555
N2B C3B 1_555 1_555
C2B C1B 1_555 1_555
H1B C1B 1_555 1_555
H2B C2B 1_555 1_555
C3B S1B 1_555 1_555
N2B C2B 1_555 1_555

#END
