
#######################################################################
#
#                 Cambridge Crystallographic Data Centre
#                                CCDC 
#
#######################################################################
#
# If this CIF has been generated from an entry in the Cambridge 
# Structural Database, then it will include bibliographic, chemical, 
# crystal, experimental, refinement or atomic coordinate data resulting 
# from the CCDC's data processing and validation procedures.
#
#######################################################################

data_WIBXOU
_chemical_formula_moiety         'C16 H14 O5'
_chemical_name_systematic        
'Methyl (3aR,4R,7S,7aS)-1,3-dioxo-7-phenyl-1,3,3a,4,7,7a-hexahydro-4-isobenzofuran-carboxylate'
_symmetry_cell_setting           monoclinic
_symmetry_space_group_name_H-M   'C 2/c'
_symmetry_Int_Tables_number      15
_space_group_name_Hall           '-C 2yn'
loop_
_symmetry_equiv_pos_site_id
_symmetry_equiv_pos_as_xyz
1 x,y,z
2 1/2+x,1/2+y,z
3 -x,y,1/2-z
4 1/2-x,1/2+y,1/2-z
5 -x,-y,-z
6 1/2-x,1/2-y,-z
7 x,-y,1/2+z
8 1/2+x,1/2-y,1/2+z
_cell_length_a                   19.819(3)
_cell_length_b                   10.364(2)
_cell_length_c                   13.706(3)
_cell_angle_alpha                90
_cell_angle_beta                 104.600(10)
_cell_angle_gamma                90
_cell_volume                     2724.36
_exptl_crystal_colour            colorless
_cell_formula_units_Z            8
loop_
_atom_site_label
_atom_site_type_symbol
_atom_site_fract_x
_atom_site_fract_y
_atom_site_fract_z
O1 O -0.04250(9) 0.2216(3) 0.08026(14)
O2 O -0.14922(8) 0.1416(2) 0.03541(11)
O3 O -0.25832(9) 0.0925(2) -0.04306(13)
O4 O -0.30124(9) 0.0078(2) -0.2832(2)
O5 O -0.32575(8) 0.2124(2) -0.26116(13)
C1 C -0.11589(11) 0.2713(2) -0.0868(2)
C2 C -0.19183(11) 0.2340(2) -0.1258(2)
C3 C -0.20768(12) 0.1592(2) -0.2274(2)
C4 C -0.15443(13) 0.0555(2) -0.2199(2)
C5 C -0.08828(13) 0.0840(2) -0.1839(2)
C6 C -0.06860(11) 0.2223(2) -0.1542(2)
C7 C 0.00772(11) 0.2515(2) -0.1118(2)
C8 C 0.03054(13) 0.3786(2) -0.1144(2)
C9 C 0.09963(13) 0.4108(3) -0.0796(2)
C10 C 0.14820(14) 0.3177(3) -0.0409(2)
C11 C 0.12670(14) 0.1928(3) -0.0376(2)
C12 C 0.05723(13) 0.1606(3) -0.0717(2)
C13 C -0.09522(12) 0.2134(3) 0.0173(2)
C14 C -0.20673(11) 0.1484(2) -0.0451(2)
C15 C -0.28260(12) 0.1152(2) -0.2597(2)
C16 C -0.39920(14) 0.1859(4) -0.2920(3)
H1 H -0.1101(11) 0.3609(23) -0.0780(17)
H2 H -0.2216(11) 0.3025(22) -0.1314(15)
H3 H -0.2043(11) 0.2271(23) -0.2769(18)
H4 H -0.1733(13) -0.0282(28) -0.2420(19)
H5 H -0.0514(13) 0.0209(25) -0.1772(18)
H6 H -0.0855(11) 0.2772(23) -0.2170(18)
H7 H -0.0024(14) 0.4414(27) -0.1416(20)
H8 H 0.1153(14) 0.4985(28) -0.0810(20)
H9 H 0.1969(14) 0.3380(24) -0.0190(19)
H10 H 0.1607(16) 0.1402(30) -0.0142(23)
H11 H 0.0438(15) 0.0771(31) -0.0668(22)
H12 H -0.4097(22) 0.1130(47) -0.2503(35)
H13 H -0.4116(20) 0.1683(40) -0.3558(35)
H14 H -0.4203(19) 0.2555(42) -0.2698(28)
loop_
_geom_bond_atom_site_label_1
_geom_bond_atom_site_label_2
_geom_bond_site_symmetry_1
_geom_bond_site_symmetry_2
O1 C13 1_555 1_555
O2 C13 1_555 1_555
O3 C14 1_555 1_555
O4 C15 1_555 1_555
O5 C15 1_555 1_555
C1 C2 1_555 1_555
C2 C3 1_555 1_555
C3 C4 1_555 1_555
C4 C5 1_555 1_555
C5 C6 1_555 1_555
C6 C1 1_555 1_555
C7 C6 1_555 1_555
C8 C7 1_555 1_555
C9 C8 1_555 1_555
C10 C9 1_555 1_555
C11 C10 1_555 1_555
C12 C7 1_555 1_555
C13 C1 1_555 1_555
C14 O2 1_555 1_555
C15 C3 1_555 1_555
C16 O5 1_555 1_555
H1 C1 1_555 1_555
H2 C2 1_555 1_555
H3 C3 1_555 1_555
H4 C4 1_555 1_555
H5 C5 1_555 1_555
H6 C6 1_555 1_555
H7 C8 1_555 1_555
H8 C9 1_555 1_555
H9 C10 1_555 1_555
H10 C11 1_555 1_555
H11 C12 1_555 1_555
H12 C16 1_555 1_555
H13 C16 1_555 1_555
H14 C16 1_555 1_555
C2 C14 1_555 1_555
C11 C12 1_555 1_555

#END
