
#######################################################################
#
#                 Cambridge Crystallographic Data Centre
#                                CCDC 
#
#######################################################################
#
# If this CIF has been generated from an entry in the Cambridge 
# Structural Database, then it will include bibliographic, chemical, 
# crystal, experimental, refinement or atomic coordinate data resulting 
# from the CCDC's data processing and validation procedures.
#
#######################################################################

data_WICCAO
_chemical_formula_moiety         'C23 H16 N4 O2,2(H2 O1)'
_chemical_name_systematic        
'3-(3-(3-Oxo-3-phenylprop-1-en-1-yl)imidazo[1,2-a]pyridin-2-yl)imidazo[1,2-a]pyridin-1-ium-2-olate dihydrate'
_symmetry_cell_setting           monoclinic
_symmetry_space_group_name_H-M   'P 21/n'
_symmetry_Int_Tables_number      14
_space_group_name_Hall           '-P 2yn'
loop_
_symmetry_equiv_pos_site_id
_symmetry_equiv_pos_as_xyz
1 x,y,z
2 1/2-x,1/2+y,1/2-z
3 -x,-y,-z
4 1/2+x,1/2-y,1/2+z
_cell_length_a                   8.0290(3)
_cell_length_b                   18.9754(9)
_cell_length_c                   13.3607(5)
_cell_angle_alpha                90
_cell_angle_beta                 106.218(4)
_cell_angle_gamma                90
_cell_volume                     1954.55
_cell_formula_units_Z            4
loop_
_atom_site_label
_atom_site_type_symbol
_atom_site_fract_x
_atom_site_fract_y
_atom_site_fract_z
N1 N 0.1916(3) 0.04482(16) 0.0089(2)
H1 H 0.1087 0.0303 -0.0427
N2 N 0.4412(3) 0.08742(15) 0.0997(2)
N3 N 0.5779(4) 0.06354(16) 0.3338(2)
C1 C 0.3442(4) 0.06927(19) 0.0013(3)
O1 O 0.0583(3) 0.02343(16) 0.14015(19)
C2 C 0.1632(5) 0.1475(2) 0.3189(3)
H2 H 0.1150 0.1516 0.2473
C3 C 0.1861(4) 0.0462(2) 0.1120(3)
C4 C 0.4138(4) 0.08386(18) 0.2808(3)
C5 C 0.5892(5) 0.0746(2) 0.4349(3)
N4 N 0.4375(4) 0.10220(17) 0.4474(2)
C6 C 0.3230(5) 0.1104(2) 0.3477(3)
C7 C 0.7281(6) 0.0610(2) 0.5237(3)
H3 H 0.8323 0.0432 0.5169
C8 C 0.4111(5) 0.0777(2) -0.0837(3)
H4 H 0.3457 0.0659 -0.1507
C9 C 0.6039(5) 0.1146(2) 0.1166(3)
H5 H 0.6681 0.1274 0.1834
C10 C 0.3445(4) 0.07469(19) 0.1696(3)
O2 O -0.1218(5) 0.2329(2) 0.2303(4)
C11 C 0.6710(5) 0.1226(3) 0.0348(4)
H6 H 0.7821 0.1409 0.0459
C12 C 0.5759(6) 0.1038(3) -0.0656(4)
H7 H 0.6244 0.1091 -0.1207
C13 C 0.4188(7) 0.1156(3) 0.5445(3)
H8 H 0.3157 0.1340 0.5520
C14 C 0.7077(7) 0.0741(3) 0.6192(4)
H9 H 0.7979 0.0649 0.6787
C15 C -0.0862(6) 0.2183(3) 0.3236(5)
C16 C -0.2061(6) 0.2400(3) 0.3877(6)
C17 C 0.0703(5) 0.1773(3) 0.3746(4)
H10 H 0.1040 0.1725 0.4467
C18 C -0.1597(8) 0.2372(3) 0.4944(6)
H11 H -0.0491 0.2217 0.5298
C19 C -0.3689(8) 0.2638(4) 0.3373(7)
H12 H -0.4052 0.2669 0.2650
C20 C 0.5514(8) 0.1016(3) 0.6284(4)
H13 H 0.5389 0.1105 0.6944
C21 C -0.2710(10) 0.2564(3) 0.5504(7)
H14 H -0.2356 0.2543 0.6228
C22 C -0.4833(9) 0.2840(4) 0.3990(9)
H15 H -0.5940 0.3010 0.3670
C23 C -0.4284(12) 0.2780(4) 0.5015(9)
H16 H -0.5039 0.2895 0.5406
O3 O -0.1199(5) -0.0116(2) 0.3006(3)
H17 H -0.196(6) 0.016(3) 0.312(5)
H18 H -0.051(10) 0.011(3) 0.274(8)
O4 O -0.1427(16) -0.1560(10) 0.3556(10)
H19 H -0.2355 -0.1772 0.3233
H20 H -0.1417 -0.1151 0.3298
loop_
_geom_bond_atom_site_label_1
_geom_bond_atom_site_label_2
_geom_bond_site_symmetry_1
_geom_bond_site_symmetry_2
N1 H1 1_555 1_555
N2 C1 1_555 1_555
N3 C4 1_555 1_555
C1 N1 1_555 1_555
O1 C3 1_555 1_555
C2 H2 1_555 1_555
C3 N1 1_555 1_555
C4 C6 1_555 1_555
C5 N3 1_555 1_555
N4 C5 1_555 1_555
C6 C2 1_555 1_555
C7 C5 1_555 1_555
H3 C7 1_555 1_555
C8 C1 1_555 1_555
H4 C8 1_555 1_555
C9 N2 1_555 1_555
H5 C9 1_555 1_555
C10 N2 1_555 1_555
O2 C15 1_555 1_555
C11 C9 1_555 1_555
H6 C11 1_555 1_555
C12 C8 1_555 1_555
H7 C12 1_555 1_555
C13 N4 1_555 1_555
H8 C13 1_555 1_555
C14 C7 1_555 1_555
H9 C14 1_555 1_555
C15 C16 1_555 1_555
C16 C18 1_555 1_555
C17 C2 1_555 1_555
H10 C17 1_555 1_555
C18 H11 1_555 1_555
C19 C16 1_555 1_555
H12 C19 1_555 1_555
C20 C13 1_555 1_555
H13 C20 1_555 1_555
C21 C18 1_555 1_555
H14 C21 1_555 1_555
C22 C19 1_555 1_555
H15 C22 1_555 1_555
C23 C21 1_555 1_555
H16 C23 1_555 1_555
O3 H17 1_555 1_555
H18 O3 1_555 1_555
O4 H19 1_555 1_555
H20 O4 1_555 1_555
C3 C10 1_555 1_555
C4 C10 1_555 1_555
N4 C6 1_555 1_555
C11 C12 1_555 1_555
C14 C20 1_555 1_555
C15 C17 1_555 1_555
C22 C23 1_555 1_555

#END
