
#######################################################################
#
#                 Cambridge Crystallographic Data Centre
#                                CCDC 
#
#######################################################################
#
# If this CIF has been generated from an entry in the Cambridge 
# Structural Database, then it will include bibliographic, chemical, 
# crystal, experimental, refinement or atomic coordinate data resulting 
# from the CCDC's data processing and validation procedures.
#
#######################################################################

data_WICGAT
_chemical_formula_moiety         'C40 H42 N4 O6,3(C1 H4 O1)'
_chemical_name_systematic        
"methyl 2-[5-(9'-hydroxy-1-methoxy-2-oxo-1,2,3a',4',8',8a'-hexahydro-3'H,6'H-spiro[indole-3,7'-[3,6]methanooxepino[4,3-b]pyrrol]-2'-yl)hexa-2,4-dien-3-yl]-1,2,6,7,12,12b-hexahydroindolo[2,3-a]quinolizine-3-carboxylate methanol unknown solvate"
_symmetry_cell_setting           orthorhombic
_symmetry_space_group_name_H-M   'P 21 21 21'
_symmetry_Int_Tables_number      19
_space_group_name_Hall           'P 2ac 2ab'
loop_
_symmetry_equiv_pos_site_id
_symmetry_equiv_pos_as_xyz
1 x,y,z
2 1/2-x,-y,1/2+z
3 -x,1/2+y,1/2-z
4 1/2+x,1/2-y,-z
_cell_length_a                   11.07910(10)
_cell_length_b                   11.82320(10)
_cell_length_c                   31.0969(5)
_cell_angle_alpha                90
_cell_angle_beta                 90
_cell_angle_gamma                90
_cell_volume                     4073.4
_exptl_crystal_colour            colorless
_exptl_crystal_description       block
_cell_formula_units_Z            4
loop_
_atom_site_label
_atom_site_type_symbol
_atom_site_fract_x
_atom_site_fract_y
_atom_site_fract_z
O1 O 0.17343(18) -0.01308(17) 0.49415(6)
O2 O 0.34649(18) 0.02638(18) 0.45935(6)
O3 O 0.41120(19) 0.69456(17) 0.51441(7)
O4 O 0.41299(19) 0.45566(18) 0.49729(7)
H1 H 0.486286 0.465170 0.496688
O5 O 0.5448(2) 0.55496(19) 0.68810(7)
O6 O 0.3442(2) 0.50110(19) 0.63777(7)
N1 N 0.4841(2) 0.2000(2) 0.56129(7)
N2 N 0.1223(2) 0.5789(2) 0.59064(8)
N3 N 0.5158(2) 0.1691(2) 0.67893(8)
H2 H 0.447293 0.161972 0.691646
N4 N 0.5158(2) 0.6028(2) 0.64884(8)
C1 C 0.2733(2) 0.0315(2) 0.49426(9)
C2 C 0.6530(2) 0.1991(2) 0.62677(9)
C3 C 0.3237(2) 0.0903(2) 0.53069(9)
C4 C 0.1705(2) 0.2847(2) 0.56480(9)
H3 H 0.214468 0.299146 0.539929
C5 C 0.4094(3) 0.5792(2) 0.62832(9)
C6 C 0.1578(2) 0.4898(2) 0.57083(9)
C7 C 0.1335(2) 0.3756(2) 0.58738(9)
C8 C 0.1488(2) 0.1648(2) 0.57524(8)
C9 C 0.0379(3) 0.1289(2) 0.58533(9)
H4 H -0.022965 0.183023 0.584608
C10 C 0.4989(3) 0.7489(2) 0.60247(10)
C11 C 0.4299(2) 0.1996(2) 0.60473(8)
H5 H 0.385707 0.270297 0.609483
C12 C 0.5326(2) 0.1911(2) 0.63601(9)
C13 C 0.4305(2) 0.1468(2) 0.52828(9)
H6 H 0.469280 0.148747 0.501766
C14 C 0.3444(2) 0.0990(2) 0.60998(9)
H7 H 0.299031 0.108624 0.636409
H8 H 0.392145 0.030632 0.612855
C15 C 0.7166(3) 0.1792(2) 0.66627(9)
C16 C 0.1679(3) 0.6796(2) 0.56764(10)
H9 H 0.103071 0.735915 0.566085
C17 C 0.2288(2) 0.5135(2) 0.53001(9)
H10 H 0.200551 0.465364 0.506414
C18 C 0.6979(2) 0.2239(2) 0.58232(9)
H11 H 0.729651 0.155576 0.569313
H12 H 0.762077 0.279643 0.583484
C19 C 0.2551(2) 0.0833(2) 0.57267(9)
H13 H 0.222436 0.006518 0.574889
C20 C 0.0002(3) 0.0115(3) 0.59768(10)
H14 H 0.041559 -0.042331 0.579901
H15 H -0.085354 0.003575 0.593767
H16 H 0.020169 -0.001794 0.627291
C21 C 0.3971(2) 0.6673(2) 0.59156(9)
C22 C 0.2755(3) 0.7318(2) 0.59140(10)
H17 H 0.251605 0.743253 0.621096
H18 H 0.289926 0.806025 0.579133
C23 C 0.0732(3) 0.3691(3) 0.63073(10)
H19 H -0.011163 0.385687 0.627697
H20 H 0.109577 0.423031 0.649819
H21 H 0.082852 0.294336 0.642297
C24 C 0.5924(2) 0.2693(2) 0.55558(9)
H22 H 0.575072 0.346499 0.564128
H23 H 0.614844 0.269868 0.525431
C25 C 0.4281(3) 0.6121(2) 0.54730(9)
H24 H 0.514823 0.595900 0.547981
C26 C 0.3656(3) 0.4997(2) 0.53659(9)
H25 H 0.380364 0.445505 0.559840
C27 C 0.8381(3) 0.1746(3) 0.67826(10)
H26 H 0.898357 0.187739 0.658052
C28 C 0.2995(3) -0.0351(3) 0.42300(9)
H27 H 0.358092 -0.035042 0.400261
H28 H 0.226650 0.000459 0.413154
H29 H 0.282435 -0.111572 0.431377
C29 C 0.5324(3) 0.8506(3) 0.58426(11)
H30 H 0.490205 0.879630 0.560891
C30 C 0.1956(3) 0.6373(2) 0.52173(9)
H31 H 0.120583 0.639055 0.505078
C31 C 0.6276(3) 0.1602(3) 0.69816(10)
C32 C 0.5662(3) 0.7073(2) 0.63668(10)
C33 C 0.2914(3) 0.7012(2) 0.49676(10)
H32 H 0.293331 0.672195 0.467597
H33 H 0.268068 0.780184 0.495255
C34 C 0.8678(3) 0.1504(3) 0.72041(11)
H34 H 0.948564 0.148092 0.728456
C35 C 0.7788(3) 0.1295(4) 0.75115(12)
H35 H 0.801338 0.111486 0.779133
C36 C 0.6141(4) 0.4543(3) 0.68173(12)
H36 H 0.572327 0.405060 0.662193
H37 H 0.624993 0.416486 0.708781
H38 H 0.691466 0.473629 0.669941
C37 C 0.6306(3) 0.9093(3) 0.60136(13)
H39 H 0.653361 0.978214 0.589432
C38 C 0.6570(3) 0.1350(4) 0.74067(11)
H40 H 0.597533 0.122298 0.761201
C39 C 0.6643(3) 0.7622(3) 0.65422(13)
H41 H 0.707852 0.731749 0.677004
C40 C 0.6945(3) 0.8660(3) 0.63585(14)
H42 H 0.758847 0.907024 0.647038
O7 O -0.0018(2) 0.6338(2) 0.66573(7)
H43 H 0.032023 0.610768 0.643972
C41 C -0.0006(3) 0.7539(3) 0.66600(13)
H44 H -0.029430 0.781666 0.638870
H45 H 0.080328 0.780197 0.670682
H46 H -0.051880 0.781069 0.688644
O8 O -0.1463(2) 0.5647(2) 0.72979(9)
H47 H -0.107963 0.578538 0.707854
C42 C -0.1119(4) 0.4572(4) 0.74591(19)
H48 H -0.127410 0.400433 0.724526
H49 H -0.157606 0.440506 0.771361
H50 H -0.027401 0.457771 0.752750
O9 O -0.2857(3) 0.6991(3) 0.78231(9)
H51 H -0.245322 0.661391 0.765485
C43 C -0.2686(4) 0.8150(4) 0.77362(14)
H52 H -0.305639 0.833634 0.746631
H53 H -0.183768 0.831142 0.772228
H54 H -0.304757 0.859166 0.796099
loop_
_geom_bond_atom_site_label_1
_geom_bond_atom_site_label_2
_geom_bond_site_symmetry_1
_geom_bond_site_symmetry_2
O1 C1 1_555 1_555
O2 C1 1_555 1_555
O3 C25 1_555 1_555
O4 H1 1_555 1_555
O5 N4 1_555 1_555
O6 C5 1_555 1_555
N1 C11 1_555 1_555
N2 C6 1_555 1_555
N3 H2 1_555 1_555
N4 C5 1_555 1_555
C1 C3 1_555 1_555
C2 C12 1_555 1_555
C3 C13 1_555 1_555
C4 H3 1_555 1_555
C5 C21 1_555 1_555
C6 C7 1_555 1_555
C7 C4 1_555 1_555
C8 C4 1_555 1_555
C9 C8 1_555 1_555
H4 C9 1_555 1_555
C10 C21 1_555 1_555
C11 H5 1_555 1_555
C12 N3 1_555 1_555
C13 N1 1_555 1_555
H6 C13 1_555 1_555
C14 C11 1_555 1_555
H7 C14 1_555 1_555
H8 C14 1_555 1_555
C15 C2 1_555 1_555
C16 N2 1_555 1_555
H9 C16 1_555 1_555
C17 C6 1_555 1_555
H10 C17 1_555 1_555
C18 C2 1_555 1_555
H11 C18 1_555 1_555
H12 C18 1_555 1_555
C19 C3 1_555 1_555
H13 C19 1_555 1_555
C20 C9 1_555 1_555
H14 C20 1_555 1_555
H15 C20 1_555 1_555
H16 C20 1_555 1_555
C21 C22 1_555 1_555
C22 C16 1_555 1_555
H17 C22 1_555 1_555
H18 C22 1_555 1_555
C23 C7 1_555 1_555
H19 C23 1_555 1_555
H20 C23 1_555 1_555
H21 C23 1_555 1_555
C24 N1 1_555 1_555
H22 C24 1_555 1_555
H23 C24 1_555 1_555
C25 C21 1_555 1_555
H24 C25 1_555 1_555
C26 O4 1_555 1_555
H25 C26 1_555 1_555
C27 C15 1_555 1_555
H26 C27 1_555 1_555
C28 O2 1_555 1_555
H27 C28 1_555 1_555
H28 C28 1_555 1_555
H29 C28 1_555 1_555
C29 C10 1_555 1_555
H30 C29 1_555 1_555
C30 C16 1_555 1_555
H31 C30 1_555 1_555
C31 N3 1_555 1_555
C32 N4 1_555 1_555
C33 O3 1_555 1_555
H32 C33 1_555 1_555
H33 C33 1_555 1_555
C34 C27 1_555 1_555
H34 C34 1_555 1_555
C35 C34 1_555 1_555
H35 C35 1_555 1_555
C36 O5 1_555 1_555
H36 C36 1_555 1_555
H37 C36 1_555 1_555
H38 C36 1_555 1_555
C37 C29 1_555 1_555
H39 C37 1_555 1_555
C38 C31 1_555 1_555
H40 C38 1_555 1_555
C39 C32 1_555 1_555
H41 C39 1_555 1_555
C40 C37 1_555 1_555
H42 C40 1_555 1_555
O7 H43 1_555 1_555
C41 O7 1_555 1_555
H44 C41 1_555 1_555
H45 C41 1_555 1_555
H46 C41 1_555 1_555
O8 H47 1_555 1_555
C42 O8 1_555 1_555
H48 C42 1_555 1_555
H49 C42 1_555 1_555
H50 C42 1_555 1_555
O9 H51 1_555 1_555
C43 O9 1_555 1_555
H52 C43 1_555 1_555
H53 C43 1_555 1_555
H54 C43 1_555 1_555
C8 C19 1_555 1_555
C10 C32 1_555 1_555
C11 C12 1_555 1_555
C14 C19 1_555 1_555
C15 C31 1_555 1_555
C17 C26 1_555 1_555
C17 C30 1_555 1_555
C18 C24 1_555 1_555
C25 C26 1_555 1_555
C30 C33 1_555 1_555
C35 C38 1_555 1_555
C39 C40 1_555 1_555

#END
