
#######################################################################
#
#                 Cambridge Crystallographic Data Centre
#                                CCDC 
#
#######################################################################
#
# If this CIF has been generated from an entry in the Cambridge 
# Structural Database, then it will include bibliographic, chemical, 
# crystal, experimental, refinement or atomic coordinate data resulting 
# from the CCDC's data processing and validation procedures.
#
#######################################################################

data_WICKUP
_chemical_formula_moiety         'C15 H17 Br1 N2 O5'
_chemical_name_systematic        
'Methyl (2S)-1-((3aS,4S,7aS)-5-bromo-2-methyl-1,3-dioxo-2,3,3a,4,7,7a-hexahydro-1H-isoindol-4-yl)-5-oxopyrrolidine-2-carboxylate'
_symmetry_cell_setting           orthorhombic
_symmetry_space_group_name_H-M   'P 21 21 21'
_symmetry_Int_Tables_number      19
_space_group_name_Hall           'P 2ac 2ab'
loop_
_symmetry_equiv_pos_site_id
_symmetry_equiv_pos_as_xyz
1 x,y,z
2 1/2-x,-y,1/2+z
3 -x,1/2+y,1/2-z
4 1/2+x,1/2-y,-z
_cell_length_a                   6.8467(14)
_cell_length_b                   10.379(2)
_cell_length_c                   21.860(4)
_cell_angle_alpha                90
_cell_angle_beta                 90
_cell_angle_gamma                90
_cell_volume                     1553.41
_exptl_crystal_colour            colorless
_exptl_crystal_description       prism
_cell_formula_units_Z            4
loop_
_atom_site_label
_atom_site_type_symbol
_atom_site_fract_x
_atom_site_fract_y
_atom_site_fract_z
Br1 Br 0.30048(6) 0.05018(3) 0.459057(15)
O1 O -0.0413(4) -0.0466(2) 0.21696(10)
O2 O -0.5407(4) 0.1577(2) 0.31328(12)
O3 O 0.1524(4) -0.2366(2) 0.32298(11)
O4 O -0.0516(4) -0.1651(3) 0.49033(11)
O5 O -0.2783(4) -0.0131(2) 0.50522(10)
N1 N -0.3210(4) 0.0378(2) 0.25871(11)
N2 N -0.0600(4) -0.0892(2) 0.36474(11)
C1 C -0.1217(5) 0.0266(3) 0.25269(14)
C2 C -0.0255(5) 0.1101(3) 0.30089(14)
H1 H 0.0823 0.1610 0.2817
C3 C 0.0591(5) 0.0243(3) 0.35200(13)
H2 H 0.1900 -0.0066 0.3380
C4 C 0.0902(5) 0.1036(3) 0.40876(14)
C5 C -0.0220(5) 0.2016(3) 0.42443(15)
H3 H 0.0062 0.2449 0.4617
C6 C -0.1907(6) 0.2485(3) 0.38721(15)
H4 H -0.1901 0.3439 0.3874
H5 H -0.3133 0.2198 0.4069
C7 C -0.1903(5) 0.2020(2) 0.32073(13)
H6 H -0.1777 0.2808 0.2947
C8 C -0.3744(5) 0.1340(3) 0.30009(14)
C9 C -0.4619(6) -0.0357(4) 0.22348(17)
H7 H -0.5944 -0.0112 0.2358
H8 H -0.4423 -0.1279 0.2310
H9 H -0.4441 -0.0176 0.1798
C10 C -0.2334(5) -0.0898(3) 0.40369(13)
H10 H -0.3200 -0.0145 0.3950
C11 C -0.3318(6) -0.2186(3) 0.38544(16)
H11 H -0.4067 -0.2553 0.4200
H12 H -0.4202 -0.2068 0.3500
C12 C -0.1588(6) -0.3037(3) 0.36883(17)
H13 H -0.1160 -0.3550 0.4046
H14 H -0.1931 -0.3632 0.3351
C13 C -0.0008(5) -0.2111(3) 0.34917(14)
C14 C -0.1744(6) -0.0949(3) 0.47106(13)
C15 C -0.2214(8) -0.0087(4) 0.56982(16)
H15 H -0.3046 0.0531 0.5916
H16 H -0.0846 0.0182 0.5731
H17 H -0.2370 -0.0944 0.5880
loop_
_geom_bond_atom_site_label_1
_geom_bond_atom_site_label_2
_geom_bond_site_symmetry_1
_geom_bond_site_symmetry_2
Br1 C4 1_555 1_555
O1 C1 1_555 1_555
O2 C8 1_555 1_555
O3 C13 1_555 1_555
O4 C14 1_555 1_555
O5 C14 1_555 1_555
N1 C1 1_555 1_555
N2 C3 1_555 1_555
C1 C2 1_555 1_555
C2 H1 1_555 1_555
C3 C2 1_555 1_555
H2 C3 1_555 1_555
C4 C3 1_555 1_555
C5 C4 1_555 1_555
H3 C5 1_555 1_555
C6 C5 1_555 1_555
H4 C6 1_555 1_555
H5 C6 1_555 1_555
C7 C2 1_555 1_555
H6 C7 1_555 1_555
C8 N1 1_555 1_555
C9 N1 1_555 1_555
H7 C9 1_555 1_555
H8 C9 1_555 1_555
H9 C9 1_555 1_555
C10 N2 1_555 1_555
H10 C10 1_555 1_555
C11 C10 1_555 1_555
H11 C11 1_555 1_555
H12 C11 1_555 1_555
C12 C11 1_555 1_555
H13 C12 1_555 1_555
H14 C12 1_555 1_555
C13 N2 1_555 1_555
C14 C10 1_555 1_555
C15 O5 1_555 1_555
H15 C15 1_555 1_555
H16 C15 1_555 1_555
H17 C15 1_555 1_555
C6 C7 1_555 1_555
C7 C8 1_555 1_555
C12 C13 1_555 1_555

#END
