
#######################################################################
#
#                 Cambridge Crystallographic Data Centre
#                                CCDC 
#
#######################################################################
#
# If this CIF has been generated from an entry in the Cambridge 
# Structural Database, then it will include bibliographic, chemical, 
# crystal, experimental, refinement or atomic coordinate data resulting 
# from the CCDC's data processing and validation procedures.
#
#######################################################################

data_WICKIE
_chemical_formula_moiety         'C24 H22 N4 O2'
_chemical_name_systematic        
9-(Diethylamino)-1-methyl-3-phenylchromeno[4,3-d]pyrazolo[3,4-b]pyridin-6(3H)-one
_symmetry_cell_setting           triclinic
_symmetry_space_group_name_H-M   'P -1'
_symmetry_Int_Tables_number      2
_space_group_name_Hall           '-P 1'
loop_
_symmetry_equiv_pos_site_id
_symmetry_equiv_pos_as_xyz
1 x,y,z
2 -x,-y,-z
_cell_length_a                   7.486(2)
_cell_length_b                   11.283(3)
_cell_length_c                   12.414(4)
_cell_angle_alpha                80.3410(18)
_cell_angle_beta                 76.4090(14)
_cell_angle_gamma                73.2770(15)
_cell_volume                     970.41
_exptl_crystal_colour            colorless
_exptl_crystal_description       block
_cell_formula_units_Z            2
loop_
_atom_site_label
_atom_site_type_symbol
_atom_site_fract_x
_atom_site_fract_y
_atom_site_fract_z
O1 O 0.2048(3) 0.60757(17) 0.58770(16)
O2 O 0.1789(3) 0.80821(19) 0.54555(17)
N1 N 0.5933(4) 0.6256(2) 0.08427(19)
N2 N 0.6440(4) 0.4981(2) 0.0854(2)
N3 N 0.4310(4) 0.7760(2) 0.2134(2)
N4 N 0.1220(4) 0.2002(2) 0.7013(2)
C1 C 0.6689(4) 0.6976(3) -0.0117(2)
C2 C 0.8256(4) 0.6381(3) -0.0865(3)
H1 H 0.8814 0.5514 -0.0727
C3 C 0.8993(5) 0.7059(3) -0.1807(3)
H2 H 1.0052 0.6651 -0.2324
C4 C 0.8215(5) 0.8328(3) -0.2013(3)
H3 H 0.8740 0.8792 -0.2660
C5 C 0.6664(5) 0.8905(3) -0.1260(2)
H4 H 0.6121 0.9775 -0.1392
C6 C 0.5885(4) 0.8239(3) -0.0315(2)
H5 H 0.4809 0.8645 0.0193
C7 C 0.4851(4) 0.6589(3) 0.1856(2)
C8 C 0.4573(4) 0.5496(3) 0.2524(2)
C9 C 0.5646(4) 0.4508(3) 0.1833(2)
C10 C 0.6110(4) 0.3122(3) 0.2049(2)
H6 H 0.5008 0.2835 0.2017
H7 H 0.6429 0.2862 0.2790
H8 H 0.7198 0.2759 0.1483
C11 C 0.3475(4) 0.7831(3) 0.3195(2)
H9 H 0.3104 0.8626 0.3460
C12 C 0.3093(4) 0.6822(3) 0.3959(2)
C13 C 0.3539(4) 0.5622(3) 0.3635(2)
C14 C 0.2254(4) 0.7076(3) 0.5105(2)
C15 C 0.2227(4) 0.4915(3) 0.5558(2)
C16 C 0.1665(4) 0.4076(3) 0.6405(2)
H10 H 0.1233 0.4301 0.7144
C17 C 0.1722(4) 0.2876(3) 0.6187(3)
C18 C 0.2256(4) 0.2648(3) 0.5051(2)
H11 H 0.2218 0.1878 0.4855
C19 C 0.2822(4) 0.3511(3) 0.4231(2)
H12 H 0.3169 0.3318 0.3482
C20 C 0.2913(4) 0.4671(3) 0.4449(2)
C21 C 0.1450(5) 0.0741(3) 0.6755(3)
H13 H 0.0929 0.0792 0.6081
H14 H 0.0708 0.0304 0.7380
C22 C 0.3512(6) -0.0008(3) 0.6558(3)
H15 H 0.4274 0.0453 0.5982
H16 H 0.3608 -0.0809 0.6313
H17 H 0.3989 -0.0152 0.7252
C23 C 0.0644(11) 0.2334(7) 0.8153(5)
H18 H -0.0467 0.3070 0.8185
H19 H 0.1694 0.2585 0.8333
C24 C 0.0133(10) 0.1338(6) 0.9039(5)
H20 H -0.0979 0.1129 0.8911
H21 H -0.0165 0.1640 0.9773
H22 H 0.1208 0.0595 0.9010
C25? C 0.1397(16) 0.1999(14) 0.8185(9)
H23? H 0.2175 0.2567 0.8210
H24? H 0.2039 0.1151 0.8478
C26? C -0.0590(14) 0.2426(11) 0.8904(9)
H25? H -0.1225 0.3261 0.8604
H26? H -0.0476 0.2443 0.9671
H27? H -0.1339 0.1845 0.8896
loop_
_geom_bond_atom_site_label_1
_geom_bond_atom_site_label_2
_geom_bond_site_symmetry_1
_geom_bond_site_symmetry_2
O1 C14 1_555 1_555
O2 C14 1_555 1_555
N1 N2 1_555 1_555
N2 C9 1_555 1_555
N3 C7 1_555 1_555
N4 C17 1_555 1_555
C1 N1 1_555 1_555
C2 C1 1_555 1_555
H1 C2 1_555 1_555
C3 C2 1_555 1_555
H2 C3 1_555 1_555
C4 C3 1_555 1_555
H3 C4 1_555 1_555
C5 C4 1_555 1_555
H4 C5 1_555 1_555
C6 C1 1_555 1_555
H5 C6 1_555 1_555
C7 N1 1_555 1_555
C8 C7 1_555 1_555
C9 C8 1_555 1_555
C10 C9 1_555 1_555
H6 C10 1_555 1_555
H7 C10 1_555 1_555
H8 C10 1_555 1_555
C11 N3 1_555 1_555
H9 C11 1_555 1_555
C12 C11 1_555 1_555
C13 C8 1_555 1_555
C14 C12 1_555 1_555
C15 O1 1_555 1_555
C16 C15 1_555 1_555
H10 C16 1_555 1_555
C17 C16 1_555 1_555
C18 C17 1_555 1_555
H11 C18 1_555 1_555
C19 C18 1_555 1_555
H12 C19 1_555 1_555
C20 C13 1_555 1_555
C21 N4 1_555 1_555
H13 C21 1_555 1_555
H14 C21 1_555 1_555
C22 C21 1_555 1_555
H15 C22 1_555 1_555
H16 C22 1_555 1_555
H17 C22 1_555 1_555
C23 N4 1_555 1_555
H18 C23 1_555 1_555
H19 C23 1_555 1_555
C24 C23 1_555 1_555
H20 C24 1_555 1_555
H21 C24 1_555 1_555
H22 C24 1_555 1_555
C5 C6 1_555 1_555
C12 C13 1_555 1_555
C15 C20 1_555 1_555
C19 C20 1_555 1_555

#END
