
#######################################################################
#
#                 Cambridge Crystallographic Data Centre
#                                CCDC 
#
#######################################################################
#
# If this CIF has been generated from an entry in the Cambridge 
# Structural Database, then it will include bibliographic, chemical, 
# crystal, experimental, refinement or atomic coordinate data resulting 
# from the CCDC's data processing and validation procedures.
#
#######################################################################

data_WICKEA
_chemical_formula_moiety         'C24 H22 N4 O2'
_chemical_name_systematic        
9-(Diethylamino)-5-methyl-3-phenylchromeno[4,3-d]pyrazolo[3,4-b]pyridin-6(3H)-one
_symmetry_cell_setting           monoclinic
_symmetry_space_group_name_H-M   'P 21/c'
_symmetry_Int_Tables_number      14
_space_group_name_Hall           '-P 2ybc'
loop_
_symmetry_equiv_pos_site_id
_symmetry_equiv_pos_as_xyz
1 x,y,z
2 -x,1/2+y,1/2-z
3 -x,-y,-z
4 x,1/2-y,1/2+z
_cell_length_a                   12.609(4)
_cell_length_b                   15.739(3)
_cell_length_c                   19.556(4)
_cell_angle_alpha                90
_cell_angle_beta                 93.380(3)
_cell_angle_gamma                90
_cell_volume                     3874.2
_exptl_crystal_colour            green
_exptl_crystal_description       plate
_cell_formula_units_Z            8
loop_
_atom_site_label
_atom_site_type_symbol
_atom_site_fract_x
_atom_site_fract_y
_atom_site_fract_z
O1 O 0.45298(15) 0.64355(12) 0.12548(10)
O2 O 0.33330(19) 0.72566(13) 0.07547(12)
N1 N 0.70678(19) 0.48530(16) 0.26209(12)
N2 N 0.20010(19) 0.52314(15) -0.04428(12)
N3 N 0.22864(18) 0.37543(14) -0.06972(12)
N4 N 0.30288(18) 0.31346(15) -0.05339(12)
C1 C 0.8320(3) 0.5551(3) 0.3487(2)
H1 H 0.8490 0.6110 0.3686
H2 H 0.8940 0.5330 0.3266
H3 H 0.8128 0.5160 0.3849
C2 C 0.7409(2) 0.56339(19) 0.29676(15)
H4 H 0.6796 0.5872 0.3197
H5 H 0.7606 0.6049 0.2617
C3 C 0.8632(12) 0.4035(11) 0.2224(8)
H6 H 0.9041 0.3514 0.2318
H7 H 0.9099 0.4530 0.2293
H8 H 0.8336 0.4026 0.1750
C4 C 0.7736(12) 0.4089(7) 0.2706(8)
H9 H 0.7279 0.3581 0.2637
H10 H 0.8045 0.4072 0.3183
C5 C 0.6314(2) 0.48985(19) 0.20872(14)
C6 C 0.6011(2) 0.41624(18) 0.17058(15)
H11 H 0.6362 0.3639 0.1807
C7 C 0.5226(2) 0.41910(18) 0.11980(14)
H12 H 0.5037 0.3682 0.0960
C8 C 0.4685(2) 0.49438(17) 0.10122(14)
C9 C 0.5012(2) 0.56604(17) 0.13879(14)
C10 C 0.5797(2) 0.56591(18) 0.19000(14)
H13 H 0.5993 0.6173 0.2129
C11 C 0.3832(2) 0.50115(17) 0.04971(13)
C12 C 0.3303(2) 0.58011(17) 0.03948(14)
C13 C 0.3680(2) 0.65388(18) 0.07899(15)
C14 C 0.3444(2) 0.43365(18) 0.00722(13)
C15 C 0.2539(2) 0.44903(17) -0.03513(14)
C16 C 0.2414(2) 0.58851(19) -0.00834(15)
C17 C 0.1867(3) 0.67194(19) -0.02401(17)
H14 H 0.1280 0.6630 -0.0584
H15 H 0.2376 0.7122 -0.0417
H16 H 0.1588 0.6949 0.0179
C18 C 0.3705(2) 0.34804(18) -0.00770(14)
H17 H 0.4302 0.3190 0.0130
C19 C 0.1423(2) 0.35698(18) -0.11675(14)
C20 C 0.1584(2) 0.30341(19) -0.17136(15)
H18 H 0.2266 0.2795 -0.1770
C21 C 0.0741(3) 0.2850(2) -0.21763(16)
H19 H 0.0841 0.2477 -0.2549
C22 C -0.0248(3) 0.3208(2) -0.20975(18)
H20 H -0.0820 0.3091 -0.2422
C23 C -0.0406(3) 0.3736(2) -0.15465(18)
H21 H -0.1089 0.3971 -0.1488
C24 C 0.0430(2) 0.3921(2) -0.10807(16)
H22 H 0.0325 0.4287 -0.0704
O3 O 0.44903(15) 0.34872(12) 0.56334(9)
O4 O 0.57457(17) 0.27215(13) 0.61436(10)
N5 N 0.2077(2) 0.49992(16) 0.41337(12)
N6 N 0.67258(18) 0.47044(14) 0.74850(11)
N7 N 0.66437(18) 0.62271(14) 0.75694(11)
N8 N 0.60903(19) 0.68917(15) 0.72586(12)
C27 C 0.0791(3) 0.3799(2) 0.42250(17)
H28 H 0.0572 0.3264 0.4003
H29 H 0.0180 0.4183 0.4230
H30 H 0.1062 0.3686 0.4696
C28 C 0.1661(2) 0.4211(2) 0.38296(14)
H31 H 0.2253 0.3802 0.3800
H32 H 0.1375 0.4330 0.3357
C29 C 0.0742(3) 0.6113(2) 0.43420(18)
H33 H 0.0447 0.6647 0.4157
H34 H 0.1051 0.6208 0.4807
H35 H 0.0175 0.5688 0.4354
C30 C 0.1590(3) 0.5799(2) 0.38932(16)
H36 H 0.1275 0.5717 0.3422
H37 H 0.2150 0.6238 0.3875
C31 C 0.2805(2) 0.49909(18) 0.46842(14)
C32 C 0.3129(2) 0.57527(18) 0.50233(14)
H38 H 0.2818 0.6276 0.4876
C33 C 0.3880(2) 0.57497(18) 0.55560(14)
H39 H 0.4068 0.6273 0.5772
C34 C 0.4382(2) 0.50057(17) 0.57956(13)
C35 C 0.4049(2) 0.42660(17) 0.54576(14)
C36 C 0.3282(2) 0.42383(18) 0.49266(14)
H40 H 0.3078 0.3709 0.4725
C37 C 0.5173(2) 0.49501(17) 0.63585(13)
C38 C 0.5596(2) 0.41497(17) 0.65435(14)
C39 C 0.5321(2) 0.34113(18) 0.61206(14)
C40 C 0.5572(2) 0.56458(16) 0.67525(13)
C41 C 0.6343(2) 0.54744(17) 0.72767(13)
C42 C 0.6340(2) 0.40530(17) 0.71185(14)
C43 C 0.6719(2) 0.31981(18) 0.73766(15)
H41 H 0.7138 0.3269 0.7811
H42 H 0.7160 0.2935 0.7039
H43 H 0.6105 0.2834 0.7448
C44 C 0.5459(2) 0.65459(18) 0.67772(14)
H44 H 0.4983 0.6860 0.6480
C45 C 0.7390(2) 0.63992(17) 0.81222(14)
C46 C 0.7221(2) 0.71102(18) 0.85298(14)
H45 H 0.6615 0.7460 0.8439
C47 C 0.7946(3) 0.7300(2) 0.90668(15)
H46 H 0.7837 0.7783 0.9345
C48 C 0.8830(2) 0.6791(2) 0.92016(15)
H47 H 0.9324 0.6923 0.9572
C49 C 0.8991(2) 0.6086(2) 0.87928(16)
H48 H 0.9599 0.5738 0.8883
C50 C 0.8271(2) 0.58895(19) 0.82561(15)
H49 H 0.8381 0.5405 0.7980
C25? C 0.8422(16) 0.3805(16) 0.2436(17)
H23? H 0.8684 0.3243 0.2578
H24? H 0.8998 0.4222 0.2499
H25? H 0.8174 0.3788 0.1952
C26? C 0.751(2) 0.4058(11) 0.2865(13)
H26? H 0.6959 0.3612 0.2836
H27? H 0.7773 0.4116 0.3350
loop_
_geom_bond_atom_site_label_1
_geom_bond_atom_site_label_2
_geom_bond_site_symmetry_1
_geom_bond_site_symmetry_2
O1 C9 1_555 1_555
O2 C13 1_555 1_555
N1 C2 1_555 1_555
N2 C15 1_555 1_555
N3 N4 1_555 1_555
N4 C18 1_555 1_555
C1 H1 1_555 1_555
H2 C1 1_555 1_555
H3 C1 1_555 1_555
C2 C1 1_555 1_555
H4 C2 1_555 1_555
H5 C2 1_555 1_555
C3 H6 1_555 1_555
H7 C3 1_555 1_555
H8 C3 1_555 1_555
C4 N1 1_555 1_555
H9 C4 1_555 1_555
H10 C4 1_555 1_555
C5 N1 1_555 1_555
C6 C5 1_555 1_555
H11 C6 1_555 1_555
C7 C6 1_555 1_555
H12 C7 1_555 1_555
C8 C7 1_555 1_555
C9 C8 1_555 1_555
C10 C5 1_555 1_555
H13 C10 1_555 1_555
C11 C8 1_555 1_555
C12 C11 1_555 1_555
C13 O1 1_555 1_555
C14 C11 1_555 1_555
C15 N3 1_555 1_555
C16 N2 1_555 1_555
C17 C16 1_555 1_555
H14 C17 1_555 1_555
H15 C17 1_555 1_555
H16 C17 1_555 1_555
C18 C14 1_555 1_555
H17 C18 1_555 1_555
C19 N3 1_555 1_555
C20 C19 1_555 1_555
H18 C20 1_555 1_555
C21 C20 1_555 1_555
H19 C21 1_555 1_555
C22 C21 1_555 1_555
H20 C22 1_555 1_555
C23 C22 1_555 1_555
H21 C23 1_555 1_555
C24 C19 1_555 1_555
H22 C24 1_555 1_555
O3 C35 1_555 1_555
O4 C39 1_555 1_555
N5 C28 1_555 1_555
N6 C41 1_555 1_555
N7 N8 1_555 1_555
N8 C44 1_555 1_555
C27 H28 1_555 1_555
H29 C27 1_555 1_555
H30 C27 1_555 1_555
C28 C27 1_555 1_555
H31 C28 1_555 1_555
H32 C28 1_555 1_555
C29 H33 1_555 1_555
H34 C29 1_555 1_555
H35 C29 1_555 1_555
C30 N5 1_555 1_555
H36 C30 1_555 1_555
H37 C30 1_555 1_555
C31 N5 1_555 1_555
C32 C31 1_555 1_555
H38 C32 1_555 1_555
C33 C32 1_555 1_555
H39 C33 1_555 1_555
C34 C33 1_555 1_555
C35 C34 1_555 1_555
C36 C31 1_555 1_555
H40 C36 1_555 1_555
C37 C34 1_555 1_555
C38 C37 1_555 1_555
C39 O3 1_555 1_555
C40 C37 1_555 1_555
C41 N7 1_555 1_555
C42 N6 1_555 1_555
C43 C42 1_555 1_555
H41 C43 1_555 1_555
H42 C43 1_555 1_555
H43 C43 1_555 1_555
C44 C40 1_555 1_555
H44 C44 1_555 1_555
C45 N7 1_555 1_555
C46 C45 1_555 1_555
H45 C46 1_555 1_555
C47 C46 1_555 1_555
H46 C47 1_555 1_555
C48 C47 1_555 1_555
H47 C48 1_555 1_555
C49 C48 1_555 1_555
H48 C49 1_555 1_555
C50 C45 1_555 1_555
H49 C50 1_555 1_555
C3 C4 1_555 1_555
C9 C10 1_555 1_555
C12 C13 1_555 1_555
C12 C16 1_555 1_555
C14 C15 1_555 1_555
C23 C24 1_555 1_555
C29 C30 1_555 1_555
C35 C36 1_555 1_555
C38 C39 1_555 1_555
C38 C42 1_555 1_555
C40 C41 1_555 1_555
C49 C50 1_555 1_555

#END
