
#######################################################################
#
#                 Cambridge Crystallographic Data Centre
#                                CCDC 
#
#######################################################################
#
# If this CIF has been generated from an entry in the Cambridge 
# Structural Database, then it will include bibliographic, chemical, 
# crystal, experimental, refinement or atomic coordinate data resulting 
# from the CCDC's data processing and validation procedures.
#
#######################################################################

data_WICKAV
_chemical_formula_moiety         'C19 H20 N2 O4'
_chemical_name_systematic        
(3aS*,4R*,7aS*)-4-((4S*)-4-Benzyl-2-oxo-oxazolidin-3-yl)-2-methyl-3a,4,7,7a-tetrahydro-1H-isoindole-1,3(2H)-dione
_symmetry_cell_setting           orthorhombic
_symmetry_space_group_name_H-M   'P 21 21 21'
_symmetry_Int_Tables_number      19
_space_group_name_Hall           'P 2ac 2ab'
loop_
_symmetry_equiv_pos_site_id
_symmetry_equiv_pos_as_xyz
1 x,y,z
2 1/2-x,-y,1/2+z
3 -x,1/2+y,1/2-z
4 1/2+x,1/2-y,-z
_cell_length_a                   5.9110(10)
_cell_length_b                   10.866(2)
_cell_length_c                   26.654(5)
_cell_angle_alpha                90
_cell_angle_beta                 90
_cell_angle_gamma                90
_cell_volume                     1711.96
_exptl_crystal_colour            colorless
_exptl_crystal_description       prism
_cell_formula_units_Z            4
loop_
_atom_site_label
_atom_site_type_symbol
_atom_site_fract_x
_atom_site_fract_y
_atom_site_fract_z
C1 C 0.3027(4) 0.1542(3) 0.13390(9)
C2 C 0.1235(4) 0.3158(2) 0.16999(11)
H1 H 0.0873 0.3823 0.1459
H2 H 0.1240 0.3508 0.2043
C3 C -0.0471(4) 0.2121(2) 0.16596(8)
H3 H -0.1837 0.2411 0.1473
C4 C -0.1187(4) 0.1553(2) 0.21589(8)
H4 H -0.2174 0.2145 0.2337
H5 H -0.2095 0.0806 0.2090
C5 C 0.0746(5) 0.1206(3) 0.25005(8)
C6 C 0.2041(5) 0.0173(2) 0.24191(9)
H6 H 0.1691 -0.0352 0.2145
C7 C 0.3830(5) -0.0115(3) 0.27267(11)
H7 H 0.4702 -0.0832 0.2661
C8 C 0.4361(5) 0.0608(3) 0.31206(11)
H8 H 0.5600 0.0405 0.3332
C9 C 0.3107(7) 0.1629(4) 0.32113(11)
H9 H 0.3473 0.2145 0.3487
C10 C 0.1297(6) 0.1923(3) 0.29050(11)
H10 H 0.0422 0.2635 0.2976
C11 C 0.0694(4) 0.1271(2) 0.02131(8)
C12 C -0.1152(4) 0.0789(2) 0.05434(7)
H11 H -0.2280 0.1461 0.0600
C13 C -0.2283(4) -0.0236(2) 0.02344(8)
H12 H -0.3888 -0.0004 0.0163
C14 C -0.0968(5) -0.0258(2) -0.02468(9)
C15 C 0.2310(5) 0.0792(3) -0.06328(8)
H13 H 0.3414 0.1422 -0.0536
H14 H 0.1465 0.1074 -0.0927
H15 H 0.3103 0.0025 -0.0714
C16 C -0.0323(4) 0.0315(2) 0.10586(8)
H16 H -0.1721 0.0106 0.1252
C17 C 0.0939(5) -0.0869(2) 0.10006(9)
H17 H 0.2371 -0.0990 0.1155
C18 C -0.0009(5) -0.1738(3) 0.07276(11)
H18 H 0.0719 -0.2511 0.0688
C19 C -0.2225(5) -0.1503(2) 0.04813(10)
H19 H -0.3447 -0.1558 0.0734
H20 H -0.2502 -0.2143 0.0224
N1 N 0.0757(3) 0.05794(17) -0.02213(6)
N2 N 0.0815(3) 0.12631(18) 0.13478(6)
O1 O -0.1308(4) -0.0898(2) -0.06111(7)
O2 O 0.1940(3) 0.21339(16) 0.02937(6)
O3 O 0.4567(3) 0.0967(2) 0.11616(7)
O4 O 0.3385(3) 0.26156(19) 0.15848(7)
loop_
_geom_bond_atom_site_label_1
_geom_bond_atom_site_label_2
_geom_bond_site_symmetry_1
_geom_bond_site_symmetry_2
C1 N2 1_555 1_555
C2 H1 1_555 1_555
H2 C2 1_555 1_555
C3 C2 1_555 1_555
H3 C3 1_555 1_555
C4 C3 1_555 1_555
H4 C4 1_555 1_555
H5 C4 1_555 1_555
C5 C4 1_555 1_555
C6 C5 1_555 1_555
H6 C6 1_555 1_555
C7 C6 1_555 1_555
H7 C7 1_555 1_555
C8 C7 1_555 1_555
H8 C8 1_555 1_555
C9 C8 1_555 1_555
H9 C9 1_555 1_555
C10 C5 1_555 1_555
H10 C10 1_555 1_555
C11 C12 1_555 1_555
C12 H11 1_555 1_555
C13 C12 1_555 1_555
H12 C13 1_555 1_555
C14 C13 1_555 1_555
C15 H13 1_555 1_555
H14 C15 1_555 1_555
H15 C15 1_555 1_555
C16 C12 1_555 1_555
H16 C16 1_555 1_555
C17 C16 1_555 1_555
H17 C17 1_555 1_555
C18 C17 1_555 1_555
H18 C18 1_555 1_555
C19 C13 1_555 1_555
H19 C19 1_555 1_555
H20 C19 1_555 1_555
N1 C11 1_555 1_555
N2 C3 1_555 1_555
O1 C14 1_555 1_555
O2 C11 1_555 1_555
O3 C1 1_555 1_555
O4 C1 1_555 1_555
C2 O4 1_555 1_555
C9 C10 1_555 1_555
C14 N1 1_555 1_555
C15 N1 1_555 1_555
C16 N2 1_555 1_555
C18 C19 1_555 1_555

#END
