
#######################################################################
#
#                 Cambridge Crystallographic Data Centre
#                                CCDC 
#
#######################################################################
#
# If this CIF has been generated from an entry in the Cambridge 
# Structural Database, then it will include bibliographic, chemical, 
# crystal, experimental, refinement or atomic coordinate data resulting 
# from the CCDC's data processing and validation procedures.
#
#######################################################################

data_WICKAW
_chemical_formula_moiety         'C25 H24 N4 O2'
_chemical_name_systematic        
9-(Diethylamino)-1,5-dimethyl-3-phenylchromeno[4,3-d]pyrazolo[3,4-b]pyridin-6(3H)-one
_symmetry_cell_setting           triclinic
_symmetry_space_group_name_H-M   'P -1'
_symmetry_Int_Tables_number      2
_space_group_name_Hall           '-P 1'
loop_
_symmetry_equiv_pos_site_id
_symmetry_equiv_pos_as_xyz
1 x,y,z
2 -x,-y,-z
_cell_length_a                   9.372(3)
_cell_length_b                   11.126(4)
_cell_length_c                   11.340(4)
_cell_angle_alpha                105.318(4)
_cell_angle_beta                 105.023(4)
_cell_angle_gamma                104.512(2)
_cell_volume                     1034.84
_exptl_crystal_colour            yellow
_exptl_crystal_description       block
_cell_formula_units_Z            2
loop_
_atom_site_label
_atom_site_type_symbol
_atom_site_fract_x
_atom_site_fract_y
_atom_site_fract_z
O1 O 0.27353(16) 0.28709(12) 0.23992(13)
O2 O 0.25075(15) 0.38249(12) 0.42478(12)
N1 N 0.66588(18) 0.88008(14) 0.36515(14)
N2 N 0.68776(18) 0.96159(14) 0.48782(15)
N3 N 0.54119(17) 0.65095(14) 0.23433(14)
N4 N 0.0925(3) 0.54320(19) 0.78117(19)
C1 C 0.7566(2) 0.92758(17) 0.29326(18)
C2 C 0.7011(3) 0.8752(2) 0.1585(2)
H1 H 0.6006 0.8083 0.1123
C3 C 0.7939(3) 0.9216(2) 0.0915(2)
H2 H 0.7570 0.8857 -0.0011
C4 C 0.9392(3) 1.0193(2) 0.1582(2)
H3 H 1.0027 1.0500 0.1119
C5 C 0.9917(2) 1.07213(19) 0.2918(2)
H4 H 1.0915 1.1401 0.3376
C6 C 0.9011(2) 1.02751(17) 0.36026(19)
H5 H 0.9377 1.0652 0.4528
C7 C 0.5979(2) 0.89180(17) 0.53584(18)
C8 C 0.5128(2) 0.75892(17) 0.44341(17)
C9 C 0.5670(2) 0.75580(17) 0.33851(17)
C10 C 0.6146(2) 0.95649(19) 0.67488(18)
H6 H 0.5252 0.9864 0.6775
H7 H 0.7126 1.0328 0.7183
H8 H 0.6169 0.8926 0.7199
C11 C 0.4081(2) 0.63677(17) 0.43438(16)
C12 C 0.38922(19) 0.52344(16) 0.33070(16)
C13 C 0.4590(2) 0.53489(17) 0.23396(17)
C14 C 0.4470(3) 0.41731(18) 0.12482(19)
H9 H 0.4870 0.3566 0.1611
H10 H 0.5094 0.4473 0.0742
H11 H 0.3368 0.3713 0.0679
C15 C 0.32187(19) 0.61986(17) 0.52115(16)
C16 C 0.2504(2) 0.49208(17) 0.51662(17)
C17 C 0.3022(2) 0.39166(17) 0.32358(17)
C18 C 0.2945(2) 0.72036(18) 0.60715(18)
H12 H 0.3312 0.8084 0.6079
C19 C 0.2169(2) 0.69632(19) 0.69001(18)
H13 H 0.2005 0.7675 0.7462
C20 C 0.1609(2) 0.5674(2) 0.69338(18)
C21 C 0.1752(2) 0.46443(19) 0.60037(18)
H14 H 0.1329 0.3754 0.5951
C22 C 0.0749(3) 0.6482(2) 0.8771(2)
H15 H -0.0087 0.6087 0.9079
H16 H 0.0403 0.7083 0.8348
C23 C 0.2235(3) 0.7286(3) 0.9934(2)
H17 H 0.3062 0.7703 0.9642
H18 H 0.2574 0.6703 1.0373
H19 H 0.2033 0.7975 1.0543
C24 C 0.1030(4) 0.4223(4) 0.8184(3)
H20 H 0.1876 0.3946 0.7953
H21 H 0.1276 0.4446 0.9135
C25 C -0.0548(4) 0.3104(4) 0.7443(4)
H22 H -0.0770 0.2876 0.6503
H23 H -0.1380 0.3392 0.7670
H24 H -0.0510 0.2324 0.7681
C26? C -0.0204(7) 0.4045(7) 0.7556(6)
H25? H -0.1065 0.4099 0.7898
H26? H -0.0657 0.3502 0.6615
C27? C 0.0896(8) 0.3500(9) 0.8313(7)
H27? H 0.1820 0.3588 0.8044
H28? H 0.0349 0.2561 0.8134
H29? H 0.1232 0.3997 0.9248
loop_
_geom_bond_atom_site_label_1
_geom_bond_atom_site_label_2
_geom_bond_site_symmetry_1
_geom_bond_site_symmetry_2
O1 C17 1_555 1_555
O2 C16 1_555 1_555
N1 N2 1_555 1_555
N2 C7 1_555 1_555
N3 C9 1_555 1_555
N4 C20 1_555 1_555
C1 N1 1_555 1_555
C2 C1 1_555 1_555
H1 C2 1_555 1_555
C3 C2 1_555 1_555
H2 C3 1_555 1_555
C4 C3 1_555 1_555
H3 C4 1_555 1_555
C5 C4 1_555 1_555
H4 C5 1_555 1_555
C6 C1 1_555 1_555
H5 C6 1_555 1_555
C7 C8 1_555 1_555
C8 C9 1_555 1_555
C9 N1 1_555 1_555
C10 C7 1_555 1_555
H6 C10 1_555 1_555
H7 C10 1_555 1_555
H8 C10 1_555 1_555
C11 C8 1_555 1_555
C12 C11 1_555 1_555
C13 N3 1_555 1_555
C14 C13 1_555 1_555
H9 C14 1_555 1_555
H10 C14 1_555 1_555
H11 C14 1_555 1_555
C15 C11 1_555 1_555
C16 C15 1_555 1_555
C17 O2 1_555 1_555
C18 C15 1_555 1_555
H12 C18 1_555 1_555
C19 C18 1_555 1_555
H13 C19 1_555 1_555
C20 C19 1_555 1_555
C21 C16 1_555 1_555
H14 C21 1_555 1_555
C22 N4 1_555 1_555
H15 C22 1_555 1_555
H16 C22 1_555 1_555
C23 C22 1_555 1_555
H17 C23 1_555 1_555
H18 C23 1_555 1_555
H19 C23 1_555 1_555
C24 N4 1_555 1_555
H20 C24 1_555 1_555
H21 C24 1_555 1_555
C25 C24 1_555 1_555
H22 C25 1_555 1_555
H23 C25 1_555 1_555
H24 C25 1_555 1_555
C5 C6 1_555 1_555
C12 C13 1_555 1_555
C12 C17 1_555 1_555
C20 C21 1_555 1_555

#END
