
#######################################################################
#
#                 Cambridge Crystallographic Data Centre
#                                CCDC 
#
#######################################################################
#
# If this CIF has been generated from an entry in the Cambridge 
# Structural Database, then it will include bibliographic, chemical, 
# crystal, experimental, refinement or atomic coordinate data resulting 
# from the CCDC's data processing and validation procedures.
#
#######################################################################

data_WICLIG
_chemical_name_common            
"N-(4-(Chloromethyl)benzoyl)-N'-(4 chloro-6-dimethoxylpyrimidin-2-yl)thiourea"
_chemical_formula_moiety         'C14 H12 Cl2 N4 O2 S1'
_chemical_name_systematic        
N-((4-Chloro-6-methoxypyrimidin-2-yl)carbamothioyl)-4-(chloromethyl)benzamide
_symmetry_cell_setting           triclinic
_symmetry_space_group_name_H-M   'P -1'
_symmetry_Int_Tables_number      2
_space_group_name_Hall           '-P 1'
loop_
_symmetry_equiv_pos_site_id
_symmetry_equiv_pos_as_xyz
1 x,y,z
2 -x,-y,-z
_cell_length_a                   4.8811(18)
_cell_length_b                   12.259(5)
_cell_length_c                   14.324(5)
_cell_angle_alpha                102.943(7)
_cell_angle_beta                 96.602(7)
_cell_angle_gamma                97.592(7)
_cell_volume                     818.689
_exptl_crystal_colour            'light yellow'
_exptl_crystal_description       acicular
_cell_formula_units_Z            2
_exptl_crystal_recrystallization_method dichloromethane/methanol
loop_
_atom_site_label
_atom_site_type_symbol
_atom_site_fract_x
_atom_site_fract_y
_atom_site_fract_z
Cl1 Cl -0.3524(5) 0.56691(17) 0.23954(16)
Cl2 Cl 0.6685(14) 0.6125(3) 0.6160(3)
S1 S 0.3354(4) 1.04735(15) 0.11882(14)
N1 N -0.4739(10) 0.7566(4) 0.0136(4)
N2 N -0.2153(10) 0.7298(4) 0.1563(4)
N3 N -0.0780(10) 0.8792(4) 0.0858(4)
H1 H -0.1257 0.9097 0.0392
N4 N 0.2424(11) 0.8882(4) 0.2202(4)
H2 H 0.1285 0.8309 0.2255
O1 O -0.8868(10) 0.6363(4) -0.0557(4)
O2 O 0.6730(11) 0.9936(5) 0.2857(4)
C1 C -0.9079(17) 0.6986(7) -0.1291(6)
H3 H -0.8890 0.7781 -0.0991
H4 H -1.0866 0.6736 -0.1694
H5 H -0.7623 0.6860 -0.1680
C2 C -0.6613(15) 0.6685(6) 0.0135(5)
C3 C -0.6363(15) 0.6055(6) 0.0822(5)
H6 H -0.7689 0.5430 0.0809
C4 C -0.4104(15) 0.6395(5) 0.1511(5)
C5 C -0.2635(13) 0.7833(5) 0.0873(5)
C6 C 0.1660(13) 0.9346(5) 0.1443(5)
C7 C 0.4828(15) 0.9226(6) 0.2903(5)
C8 C 0.4768(15) 0.8635(6) 0.3708(5)
C9 C 0.689(2) 0.9006(8) 0.4481(7)
H7 H 0.8380 0.9554 0.4458
C10 C 0.684(2) 0.8575(9) 0.5285(7)
H8 H 0.8242 0.8881 0.5812
C11 C 0.491(2) 0.7749(8) 0.5345(6)
C12 C 0.287(2) 0.7377(9) 0.4593(8)
H9 H 0.1489 0.6785 0.4614
C13 C 0.267(2) 0.7819(8) 0.3782(6)
H10 H 0.1133 0.7563 0.3297
C14 C 0.500(3) 0.7316(11) 0.6237(8)
H11 H 0.3104 0.7117 0.6357
H12 H 0.5966 0.7915 0.6783
loop_
_geom_bond_atom_site_label_1
_geom_bond_atom_site_label_2
_geom_bond_site_symmetry_1
_geom_bond_site_symmetry_2
Cl1 C4 1_555 1_555
Cl2 C14 1_555 1_555
S1 C6 1_555 1_555
N1 C2 1_555 1_555
N2 C4 1_555 1_555
N3 H1 1_555 1_555
N4 H2 1_555 1_555
O1 C1 1_555 1_555
O2 C7 1_555 1_555
C1 H3 1_555 1_555
H4 C1 1_555 1_555
H5 C1 1_555 1_555
C2 O1 1_555 1_555
C3 C2 1_555 1_555
H6 C3 1_555 1_555
C4 C3 1_555 1_555
C5 N1 1_555 1_555
C6 N3 1_555 1_555
C7 N4 1_555 1_555
C8 C7 1_555 1_555
C9 C8 1_555 1_555
H7 C9 1_555 1_555
C10 C9 1_555 1_555
H8 C10 1_555 1_555
C11 C10 1_555 1_555
C12 C11 1_555 1_555
H9 C12 1_555 1_555
C13 C8 1_555 1_555
H10 C13 1_555 1_555
C14 C11 1_555 1_555
H11 C14 1_555 1_555
H12 C14 1_555 1_555
N2 C5 1_555 1_555
N3 C5 1_555 1_555
N4 C6 1_555 1_555
C12 C13 1_555 1_555

#END
