
#######################################################################
#
#                 Cambridge Crystallographic Data Centre
#                                CCDC 
#
#######################################################################
#
# If this CIF has been generated from an entry in the Cambridge 
# Structural Database, then it will include bibliographic, chemical, 
# crystal, experimental, refinement or atomic coordinate data resulting 
# from the CCDC's data processing and validation procedures.
#
#######################################################################

data_WICMOM
_chemical_formula_moiety         'C20 H23 Br1 N2 O2 S1'
_chemical_name_systematic        
N-(1-Benzyl-4-bromo-3-methyl-2-oxo-2,3-dihydro-1H-indol-3-yl)-2-methylpropane-2-sulfinamide
_symmetry_cell_setting           orthorhombic
_symmetry_space_group_name_H-M   'P 21 21 21'
_symmetry_Int_Tables_number      19
_space_group_name_Hall           'P 2ac 2ab'
loop_
_symmetry_equiv_pos_site_id
_symmetry_equiv_pos_as_xyz
1 x,y,z
2 1/2-x,-y,1/2+z
3 -x,1/2+y,1/2-z
4 1/2+x,1/2-y,-z
_cell_length_a                   9.959(3)
_cell_length_b                   10.162(3)
_cell_length_c                   20.434(5)
_cell_angle_alpha                90
_cell_angle_beta                 90
_cell_angle_gamma                90
_cell_volume                     2067.99
_exptl_crystal_colour            colorless
_exptl_crystal_description       block
_cell_formula_units_Z            4
loop_
_atom_site_label
_atom_site_type_symbol
_atom_site_fract_x
_atom_site_fract_y
_atom_site_fract_z
Br1 Br 0.53430(12) 0.51666(13) 0.02419(8)
C1 C 0.2005(9) 0.5846(8) 0.0261(4)
C2 C 0.2562(10) 0.4554(8) 0.0479(4)
C3 C 0.3861(12) 0.4106(11) 0.0502(5)
C4 C 0.4142(13) 0.2859(12) 0.0726(7)
H1 H 0.5024 0.2560 0.0738
C5 C 0.3116(17) 0.2061(11) 0.0929(7)
H2 H 0.3305 0.1215 0.1076
C6 C 0.1770(13) 0.2513(11) 0.0919(6)
H3 H 0.1064 0.1989 0.1063
C7 C 0.1562(10) 0.3739(10) 0.0689(4)
C8 C 0.0469(10) 0.5601(8) 0.0349(4)
C9 C -0.0936(10) 0.3859(13) 0.0842(5)
H4 H -0.0977 0.2927 0.0741
H5 H -0.1657 0.4292 0.0607
C10 C -0.1153(13) 0.4045(13) 0.1575(6)
C11 C -0.2052(15) 0.3315(14) 0.1909(6)
H6 H -0.2530 0.2661 0.1693
C12 C -0.2276(15) 0.3522(15) 0.2568(7)
H7 H -0.2915 0.3026 0.2790
C13 C -0.1570(15) 0.4435(14) 0.2883(7)
H8 H -0.1719 0.4547 0.3329
C14 C -0.0697(14) 0.5165(14) 0.2603(6)
H9 H -0.0232 0.5805 0.2836
C15 C -0.0463(13) 0.4974(13) 0.1938(5)
H10 H 0.0180 0.5490 0.1731
C16 C 0.2363(11) 0.6982(10) 0.0710(5)
H11 H 0.3296 0.7195 0.0659
H12 H 0.2192 0.6735 0.1155
H13 H 0.1827 0.7735 0.0599
C17 C 0.1815(16) 0.6200(17) -0.1677(6)
C18 C 0.1669(16) 0.5273(17) -0.2259(6)
H14 H 0.0920 0.4695 -0.2187
H15 H 0.2473 0.4762 -0.2307
H16 H 0.1520 0.5777 -0.2649
C19 C 0.3001(17) 0.7042(17) -0.1771(7)
H17 H 0.3006 0.7378 -0.2211
H18 H 0.3801 0.6536 -0.1698
H19 H 0.2971 0.7762 -0.1468
C20 C 0.0575(17) 0.6950(17) -0.1561(8)
H20 H 0.0733 0.7864 -0.1652
H21 H 0.0305 0.6850 -0.1113
H22 H -0.0122 0.6627 -0.1843
N1 N 0.0328(8) 0.4376(7) 0.0621(3)
N2 N 0.2277(11) 0.6279(8) -0.0411(4)
H23 H 0.2521 0.7069 -0.0505
O1 O -0.0419(7) 0.6367(7) 0.0240(4)
O2 O 0.3461(12) 0.4428(9) -0.1123(4)
S1 S 0.2074(4) 0.5122(3) -0.09764(13)
loop_
_geom_bond_atom_site_label_1
_geom_bond_atom_site_label_2
_geom_bond_site_symmetry_1
_geom_bond_site_symmetry_2
Br1 C3 1_555 1_555
C1 C2 1_555 1_555
C2 C3 1_555 1_555
C3 C4 1_555 1_555
C4 H1 1_555 1_555
C5 C4 1_555 1_555
H2 C5 1_555 1_555
C6 C5 1_555 1_555
H3 C6 1_555 1_555
C7 C2 1_555 1_555
C8 C1 1_555 1_555
C9 H4 1_555 1_555
H5 C9 1_555 1_555
C10 C9 1_555 1_555
C11 C10 1_555 1_555
H6 C11 1_555 1_555
C12 C11 1_555 1_555
H7 C12 1_555 1_555
C13 C12 1_555 1_555
H8 C13 1_555 1_555
C14 C13 1_555 1_555
H9 C14 1_555 1_555
C15 C10 1_555 1_555
H10 C15 1_555 1_555
C16 C1 1_555 1_555
H11 C16 1_555 1_555
H12 C16 1_555 1_555
H13 C16 1_555 1_555
C17 C18 1_555 1_555
C18 H14 1_555 1_555
H15 C18 1_555 1_555
H16 C18 1_555 1_555
C19 C17 1_555 1_555
H17 C19 1_555 1_555
H18 C19 1_555 1_555
H19 C19 1_555 1_555
C20 C17 1_555 1_555
H20 C20 1_555 1_555
H21 C20 1_555 1_555
H22 C20 1_555 1_555
N1 C7 1_555 1_555
N2 C1 1_555 1_555
H23 N2 1_555 1_555
O1 C8 1_555 1_555
O2 S1 1_555 1_555
S1 C17 1_555 1_555
C6 C7 1_555 1_555
C8 N1 1_555 1_555
C9 N1 1_555 1_555
C14 C15 1_555 1_555
N2 S1 1_555 1_555

#END
