
#######################################################################
#
#                 Cambridge Crystallographic Data Centre
#                                CCDC 
#
#######################################################################
#
# If this CIF has been generated from an entry in the Cambridge 
# Structural Database, then it will include bibliographic, chemical, 
# crystal, experimental, refinement or atomic coordinate data resulting 
# from the CCDC's data processing and validation procedures.
#
#######################################################################

data_WICNUT
_chemical_formula_moiety         'C11 H10 F3 N1 O1'
_chemical_name_systematic        
3-Phenyl-5-(2,2,2-trifluoroethyl)-4,5-dihydro-1,2-oxazole
_symmetry_cell_setting           monoclinic
_symmetry_space_group_name_H-M   'P 21/a'
_symmetry_Int_Tables_number      14
_space_group_name_Hall           '-P 2yab'
loop_
_symmetry_equiv_pos_site_id
_symmetry_equiv_pos_as_xyz
1 x,y,z
2 1/2-x,1/2+y,-z
3 -x,-y,-z
4 1/2+x,1/2-y,z
_cell_length_a                   8.6562(9)
_cell_length_b                   19.9373(18)
_cell_length_c                   12.6769(15)
_cell_angle_alpha                90
_cell_angle_beta                 102.331(12)
_cell_angle_gamma                90
_cell_volume                     2137.32
_exptl_crystal_colour            'light yellow'
_exptl_crystal_description       block
_cell_formula_units_Z            8
loop_
_atom_site_label
_atom_site_type_symbol
_atom_site_fract_x
_atom_site_fract_y
_atom_site_fract_z
O1 O 0.1236(4) 0.6616(2) 0.1885(4)
C1 C 0.1628(5) 0.6846(2) 0.0264(5)
N1 N 0.0755(5) 0.6515(2) 0.0761(5)
C2 C 0.1399(6) 0.6833(2) -0.0902(5)
C3 C 0.2304(6) 0.7230(3) -0.1414(6)
H1 H 0.3061 0.7513 -0.1011
C4 C 0.0290(6) 0.6421(3) -0.1542(6)
H2 H -0.0345 0.6148 -0.1217
C5 C 0.2891(6) 0.7232(3) 0.1001(5)
H3 H 0.2941 0.7692 0.0759
H4 H 0.3918 0.7023 0.1066
C6 C 0.1021(8) 0.6808(3) -0.3135(6)
H5 H 0.0902 0.6803 -0.3882
F1 F 0.2078(11) 0.6546(5) 0.4106(5)
C7 C 0.2099(8) 0.7213(3) -0.2516(7)
H6 H 0.2721 0.7489 -0.2848
C8 C 0.0110(7) 0.6407(3) -0.2640(6)
H7 H -0.0636 0.6123 -0.3051
C9 C 0.285(2) 0.6902(10) 0.2027(16)
H8 H 0.3618 0.6535 0.2142
F2 F 0.2793(13) 0.7408(4) 0.4550(7)
F3 F 0.4323(9) 0.6768(5) 0.4670(8)
C10 C 0.3149(10) 0.6924(7) 0.4036(8)
C11 C 0.315(3) 0.7319(10) 0.2930(18)
H9 H 0.2352 0.7668 0.2837
H10 H 0.4169 0.7533 0.2982
O2 O 0.3540(5) 0.3925(2) 0.8223(4)
N2 N 0.3974(6) 0.3883(2) 0.9351(5)
C14 C 0.3513(6) 0.4395(3) 1.0945(5)
C15 C 0.3295(6) 0.4337(3) 0.9792(6)
F4 F 0.2920(9) 0.3918(4) 0.5955(4)
C16 C 0.2832(7) 0.4919(3) 1.1389(6)
H14 H 0.2247 0.5240 1.0943
C17 C 0.4361(7) 0.3922(3) 1.1642(6)
H15 H 0.4822 0.3562 1.1358
C18 C 0.2275(7) 0.4781(3) 0.8976(6)
H16 H 0.2495 0.5252 0.9134
H17 H 0.1160 0.4695 0.8931
C19 C 0.3016(8) 0.4969(4) 1.2507(8)
H18 H 0.2549 0.5321 1.2806
C20 C 0.4531(9) 0.3973(4) 1.2728(7)
H19 H 0.5093 0.3648 1.3178
C21 C 0.3883(10) 0.4499(5) 1.3160(7)
H20 H 0.4032 0.4539 1.3906
F5 F 0.2374(9) 0.4855(4) 0.5497(6)
C22 C 0.1878(12) 0.4372(6) 0.5971(9)
F6 F 0.0621(8) 0.4199(4) 0.5325(6)
C23 C 0.1367(15) 0.4445(8) 0.7030(16)
H21 H 0.0822 0.4042 0.7175
H22 H 0.0640 0.4819 0.6988
C24 C 0.2796(18) 0.4563(8) 0.7938(15)
H23 H 0.3531 0.4887 0.7730
C12? C 0.369(2) 0.6968(10) 0.306(2)
H11? H 0.4081 0.6535 0.2888
H12? H 0.4548 0.7288 0.3141
C13? C 0.2304(16) 0.7197(8) 0.2110(15)
H13? H 0.1776 0.7607 0.2270
C25? C 0.208(4) 0.4364(15) 0.801(3)
H24? H 0.1105 0.4097 0.7896
C26? C 0.217(4) 0.4768(11) 0.703(3)
H25? H 0.3206 0.4973 0.7143
H26? H 0.1396 0.5126 0.6961
loop_
_geom_bond_atom_site_label_1
_geom_bond_atom_site_label_2
_geom_bond_site_symmetry_1
_geom_bond_site_symmetry_2
O1 N1 1_555 1_555
C1 N1 1_555 1_555
C2 C1 1_555 1_555
C3 C2 1_555 1_555
H1 C3 1_555 1_555
C4 C2 1_555 1_555
H2 C4 1_555 1_555
C5 C1 1_555 1_555
H3 C5 1_555 1_555
H4 C5 1_555 1_555
C6 H5 1_555 1_555
F1 C10 1_555 1_555
C7 C3 1_555 1_555
H6 C7 1_555 1_555
C8 C4 1_555 1_555
H7 C8 1_555 1_555
C9 O1 1_555 1_555
H8 C9 1_555 1_555
F2 C10 1_555 1_555
F3 C10 1_555 1_555
C10 C11 1_555 1_555
C11 C9 1_555 1_555
H9 C11 1_555 1_555
H10 C11 1_555 1_555
O2 N2 1_555 1_555
N2 C15 1_555 1_555
C14 C15 1_555 1_555
C15 C18 1_555 1_555
F4 C22 1_555 1_555
C16 C14 1_555 1_555
H14 C16 1_555 1_555
C17 C14 1_555 1_555
H15 C17 1_555 1_555
C18 H16 1_555 1_555
H17 C18 1_555 1_555
C19 C16 1_555 1_555
H18 C19 1_555 1_555
C20 C17 1_555 1_555
H19 C20 1_555 1_555
C21 C19 1_555 1_555
H20 C21 1_555 1_555
F5 C22 1_555 1_555
C22 F6 1_555 1_555
C23 C22 1_555 1_555
H21 C23 1_555 1_555
H22 C23 1_555 1_555
C24 O2 1_555 1_555
H23 C24 1_555 1_555
C5 C9 1_555 1_555
C6 C7 1_555 1_555
C6 C8 1_555 1_555
C18 C24 1_555 1_555
C20 C21 1_555 1_555
C23 C24 1_555 1_555

#END
