
#######################################################################
#
#                 Cambridge Crystallographic Data Centre
#                                CCDC 
#
#######################################################################
#
# If this CIF has been generated from an entry in the Cambridge 
# Structural Database, then it will include bibliographic, chemical, 
# crystal, experimental, refinement or atomic coordinate data resulting 
# from the CCDC's data processing and validation procedures.
#
#######################################################################

data_WICPUV
_chemical_formula_moiety         'C12 H16 Cl1 N1 O1 S1'
_chemical_name_systematic        
N-(1-(4-Chlorophenyl)ethylidene)-2-methylpropane-2-sulfinamide
_symmetry_cell_setting           orthorhombic
_symmetry_space_group_name_H-M   'P 21 21 21'
_symmetry_Int_Tables_number      19
_space_group_name_Hall           'P 2ac 2ab'
loop_
_symmetry_equiv_pos_site_id
_symmetry_equiv_pos_as_xyz
1 x,y,z
2 1/2-x,-y,1/2+z
3 -x,1/2+y,1/2-z
4 1/2+x,1/2-y,-z
_cell_length_a                   9.6100(14)
_cell_length_b                   11.5839(17)
_cell_length_c                   12.0682(18)
_cell_angle_alpha                90
_cell_angle_beta                 90
_cell_angle_gamma                90
_cell_volume                     1343.45
_exptl_crystal_colour            'yellow green'
_cell_formula_units_Z            4
loop_
_atom_site_label
_atom_site_type_symbol
_atom_site_fract_x
_atom_site_fract_y
_atom_site_fract_z
S1 S 0.02047(6) 0.84923(5) 1.16739(4)
Cl1 Cl -0.14931(8) 0.86225(7) 0.48885(5)
N1 N -0.00390(18) 0.87087(14) 1.02863(13)
C1 C 0.0399(2) 0.79593(18) 0.95850(17)
C2 C -0.0009(2) 0.81543(16) 0.84104(17)
O1 O -0.11724(16) 0.87742(15) 1.21558(12)
C3 C -0.1498(2) 0.91166(19) 0.70763(18)
H1 H -0.2186 0.9655 0.6916
C4 C -0.1031(2) 0.89699(18) 0.81440(17)
H2 H -0.1404 0.9425 0.8705
C5 C -0.0923(2) 0.8446(2) 0.62459(17)
C6 C 0.0109(2) 0.7657(2) 0.64680(19)
H3 H 0.0502 0.7229 0.5896
C7 C 0.0558(2) 0.75051(19) 0.7543(2)
H4 H 0.1246 0.6963 0.7694
C8 C 0.1227(3) 0.6896(2) 0.9841(2)
H5 H 0.2147 0.6974 0.9542
H6 H 0.0781 0.6236 0.9517
H7 H 0.1283 0.6796 1.0630
C9 C 0.1611(4) 0.9723(4) 1.3162(2)
H8 H 0.2267 1.0317 1.3348
H9 H 0.1977 0.8985 1.3378
H10 H 0.0751 0.9861 1.3544
C10 C 0.1353(2) 0.9731(2) 1.19169(18)
C11 C 0.2691(3) 0.9509(3) 1.1302(3)
H11 H 0.2519 0.9534 1.0519
H12 H 0.3045 0.8763 1.1501
H13 H 0.3361 1.0091 1.1495
C12 C 0.0654(3) 1.0845(2) 1.1555(3)
H14 H 0.1234 1.1489 1.1747
H15 H -0.0228 1.0918 1.1922
H16 H 0.0513 1.0832 1.0768
loop_
_geom_bond_atom_site_label_1
_geom_bond_atom_site_label_2
_geom_bond_site_symmetry_1
_geom_bond_site_symmetry_2
S1 N1 1_555 1_555
Cl1 C5 1_555 1_555
N1 C1 1_555 1_555
C1 C2 1_555 1_555
C2 C4 1_555 1_555
O1 S1 1_555 1_555
C3 H1 1_555 1_555
C4 C3 1_555 1_555
H2 C4 1_555 1_555
C5 C3 1_555 1_555
C6 C5 1_555 1_555
H3 C6 1_555 1_555
C7 C2 1_555 1_555
H4 C7 1_555 1_555
C8 C1 1_555 1_555
H5 C8 1_555 1_555
H6 C8 1_555 1_555
H7 C8 1_555 1_555
C9 H8 1_555 1_555
H9 C9 1_555 1_555
H10 C9 1_555 1_555
C10 S1 1_555 1_555
C11 C10 1_555 1_555
H11 C11 1_555 1_555
H12 C11 1_555 1_555
H13 C11 1_555 1_555
C12 C10 1_555 1_555
H14 C12 1_555 1_555
H15 C12 1_555 1_555
H16 C12 1_555 1_555
C6 C7 1_555 1_555
C9 C10 1_555 1_555

#END
