
#######################################################################
#
#                 Cambridge Crystallographic Data Centre
#                                CCDC 
#
#######################################################################
#
# If this CIF has been generated from an entry in the Cambridge 
# Structural Database, then it will include bibliographic, chemical, 
# crystal, experimental, refinement or atomic coordinate data resulting 
# from the CCDC's data processing and validation procedures.
#
#######################################################################

data_WICWEN
_chemical_formula_moiety         'C26 H20 N2 O3 S1'
_chemical_name_systematic        
1''-methyl-3'-phenyl-5'-sulfanylidene-4H-dispiro[chromene-3,4'-pyrrolidine-2',3''-indole]-2'',4(1''H)-dione
_symmetry_cell_setting           monoclinic
_symmetry_space_group_name_H-M   'P 21/c'
_symmetry_Int_Tables_number      14
_space_group_name_Hall           '-P 2ybc'
loop_
_symmetry_equiv_pos_site_id
_symmetry_equiv_pos_as_xyz
1 x,y,z
2 -x,1/2+y,1/2-z
3 -x,-y,-z
4 x,1/2-y,1/2+z
_cell_length_a                   8.2919(4)
_cell_length_b                   20.4167(11)
_cell_length_c                   13.0113(5)
_cell_angle_alpha                90
_cell_angle_beta                 104.203(5)
_cell_angle_gamma                90
_cell_volume                     2135.39
_exptl_crystal_colour            colorless
_exptl_crystal_description       block
_cell_formula_units_Z            4
loop_
_atom_site_label
_atom_site_type_symbol
_atom_site_fract_x
_atom_site_fract_y
_atom_site_fract_z
S1 S 0.52715(8) 0.16228(3) 0.55488(5)
O1 O 0.5916(2) 0.21728(9) 0.27984(11)
O2 O 0.8865(2) 0.10827(8) 0.51765(13)
O3 O 0.5706(2) 0.40086(9) 0.44131(13)
N1 N 0.8058(2) 0.44032(10) 0.55693(15)
C1 C 0.9383(3) 0.41403(12) 0.63466(17)
N2 N 0.6701(2) 0.27974(10) 0.57810(14)
H1 H 0.6172 0.2906 0.6247
C2 C 0.6875(3) 0.11287(13) 0.34771(18)
C3 C 0.7678(3) 0.21712(12) 0.45702(16)
C4 C 0.9308(3) 0.34552(12) 0.63271(17)
C5 C 0.7840(3) 0.07807(13) 0.43251(18)
C6 C 0.8033(3) 0.29041(12) 0.44145(16)
H2 H 0.7076 0.3053 0.3861
C7 C 1.0584(3) 0.44821(13) 0.70814(19)
H3 H 1.0613 0.4937 0.7089
C8 C 0.7819(3) 0.32511(11) 0.54516(17)
C9 C 1.1680(3) 0.34374(13) 0.78082(18)
H4 H 1.2466 0.3203 0.8306
C10 C 1.1742(3) 0.41132(13) 0.78046(19)
H5 H 1.2579 0.4327 0.8298
C11 C 0.5822(3) 0.01048(14) 0.2644(2)
H6 H 0.5167 -0.0125 0.2076
C12 C 0.9253(3) 0.34662(12) 0.30813(17)
H7 H 0.8172 0.3571 0.2719
C13 C 1.0443(3) 0.31013(13) 0.70690(18)
H8 H 1.0390 0.2646 0.7080
C14 C 0.7006(3) 0.39261(12) 0.50768(17)
C15 C 0.6741(3) 0.18445(13) 0.35241(17)
C16 C 0.6763(3) -0.02296(14) 0.3517(2)
H9 H 0.6708 -0.0684 0.3537
C17 C 0.7777(3) 0.01008(14) 0.4357(2)
H10 H 0.8409 -0.0128 0.4935
C18 C 0.6521(3) 0.22008(12) 0.53313(16)
C19 C 1.2181(3) 0.34914(12) 0.31856(18)
H11 H 1.3060 0.3603 0.2892
C20 C 0.9521(3) 0.31085(12) 0.40251(17)
C21 C 1.0569(3) 0.36658(12) 0.26786(17)
H12 H 1.0370 0.3918 0.2065
C22 C 0.5867(3) 0.07769(13) 0.26241(19)
H13 H 0.5227 0.1002 0.2044
C23 C 0.7732(3) 0.50978(12) 0.5378(2)
H14 H 0.6759 0.5154 0.4807
H15 H 0.8669 0.5299 0.5194
H16 H 0.7554 0.5299 0.6008
C24 C 0.9231(3) 0.17516(11) 0.50076(18)
H17 H 0.9939 0.1769 0.4515
H18 H 0.9848 0.1938 0.5674
C25 C 1.1170(3) 0.29641(12) 0.45503(18)
H19 H 1.1387 0.2739 0.5191
C26 C 1.2476(3) 0.31494(13) 0.41326(19)
H20 H 1.3561 0.3044 0.4489
loop_
_geom_bond_atom_site_label_1
_geom_bond_atom_site_label_2
_geom_bond_site_symmetry_1
_geom_bond_site_symmetry_2
S1 C18 1_555 1_555
O1 C15 1_555 1_555
O2 C5 1_555 1_555
O3 C14 1_555 1_555
N1 C1 1_555 1_555
C1 C4 1_555 1_555
N2 H1 1_555 1_555
C2 C5 1_555 1_555
C3 C6 1_555 1_555
C4 C8 1_555 1_555
C5 C17 1_555 1_555
C6 H2 1_555 1_555
C7 C1 1_555 1_555
H3 C7 1_555 1_555
C8 N2 1_555 1_555
C9 H4 1_555 1_555
C10 C7 1_555 1_555
H5 C10 1_555 1_555
C11 H6 1_555 1_555
C12 H7 1_555 1_555
C13 C4 1_555 1_555
H8 C13 1_555 1_555
C14 N1 1_555 1_555
C15 C2 1_555 1_555
C16 C11 1_555 1_555
H9 C16 1_555 1_555
C17 C16 1_555 1_555
H10 C17 1_555 1_555
C18 N2 1_555 1_555
C19 H11 1_555 1_555
C20 C6 1_555 1_555
C21 C12 1_555 1_555
H12 C21 1_555 1_555
C22 C2 1_555 1_555
H13 C22 1_555 1_555
C23 N1 1_555 1_555
H14 C23 1_555 1_555
H15 C23 1_555 1_555
H16 C23 1_555 1_555
C24 O2 1_555 1_555
H17 C24 1_555 1_555
H18 C24 1_555 1_555
C25 C20 1_555 1_555
H19 C25 1_555 1_555
C26 C19 1_555 1_555
H20 C26 1_555 1_555
C3 C15 1_555 1_555
C3 C18 1_555 1_555
C3 C24 1_555 1_555
C6 C8 1_555 1_555
C8 C14 1_555 1_555
C9 C10 1_555 1_555
C9 C13 1_555 1_555
C11 C22 1_555 1_555
C12 C20 1_555 1_555
C19 C21 1_555 1_555
C25 C26 1_555 1_555

#END
