
#######################################################################
#
#                 Cambridge Crystallographic Data Centre
#                                CCDC 
#
#######################################################################
#
# If this CIF has been generated from an entry in the Cambridge 
# Structural Database, then it will include bibliographic, chemical, 
# crystal, experimental, refinement or atomic coordinate data resulting 
# from the CCDC's data processing and validation procedures.
#
#######################################################################

data_WICYEO
_chemical_formula_moiety         'C22 H15 N5 O2,2(H2 O1)'
_chemical_name_systematic        
'3-(3-(3-Oxo-3-(pyridin-4-yl)prop-1-en-1-yl)imidazo[1,2-a]pyridin-2-yl)imidazo[1,2-a]pyridin-1-ium-2-olate radical dihydrate'
_symmetry_cell_setting           monoclinic
_symmetry_space_group_name_H-M   'C 2/c'
_symmetry_Int_Tables_number      15
_space_group_name_Hall           '-C 2yn'
loop_
_symmetry_equiv_pos_site_id
_symmetry_equiv_pos_as_xyz
1 x,y,z
2 -x,y,1/2-z
3 1/2+x,1/2+y,z
4 1/2-x,1/2+y,1/2-z
5 -x,-y,-z
6 x,-y,1/2+z
7 1/2-x,1/2-y,-z
8 1/2+x,1/2-y,1/2+z
_cell_length_a                   32.6356(16)
_cell_length_b                   8.5232(3)
_cell_length_c                   15.4600(9)
_cell_angle_alpha                90
_cell_angle_beta                 116.224(5)
_cell_angle_gamma                90
_cell_volume                     3857.73
_cell_formula_units_Z            8
loop_
_atom_site_label
_atom_site_type_symbol
_atom_site_fract_x
_atom_site_fract_y
_atom_site_fract_z
O1 O 0.06081(4) 0.32258(12) 0.43649(9)
N1 N 0.13134(4) -0.07856(14) 0.34436(9)
C1 C 0.12741(6) -0.3523(2) 0.24746(12)
H1 H 0.1267 -0.4445 0.2147
N2 N 0.04005(4) 0.20901(14) 0.54889(9)
H2 H 0.0256 0.2880 0.5567
N3 N 0.06961(4) -0.02549(14) 0.56253(9)
N4 N 0.08569(4) -0.16980(14) 0.40740(9)
O2 O 0.20270(5) 0.46501(17) 0.50543(10)
C2 C 0.29177(6) 0.6427(2) 0.40199(15)
H3 H 0.3142 0.7152 0.4379
C3 C 0.10634(5) -0.20461(17) 0.35184(11)
N5 N 0.28732(6) 0.60533(18) 0.31471(13)
C4 C 0.10488(6) -0.34424(19) 0.30282(12)
H4 H 0.0886 -0.4303 0.3082
C5 C 0.26525(6) 0.58089(19) 0.44263(13)
H5 H 0.2695 0.6131 0.5035
C6 C 0.09799(5) -0.01965(17) 0.43754(10)
C7 C 0.08168(5) -0.17375(18) 0.59925(11)
H6 H 0.0990 -0.2377 0.5792
C8 C 0.08038(5) 0.05782(17) 0.49682(11)
C9 C 0.23229(5) 0.47047(17) 0.39189(12)
C10 C 0.15101(5) 0.18718(17) 0.42584(11)
H7 H 0.1460 0.2461 0.4709
C11 C 0.15173(6) -0.2222(2) 0.23947(12)
H8 H 0.1670 -0.2289 0.2010
C12 C 0.06802(6) -0.2257(2) 0.66523(12)
H9 H 0.0759 -0.3267 0.6899
C13 C 0.22664(6) 0.4332(2) 0.30012(13)
H10 H 0.2045 0.3613 0.2626
C14 C 0.04511(5) 0.06986(18) 0.59397(11)
C15 C 0.06126(5) 0.20796(17) 0.48777(11)
C16 C 0.03095(5) 0.0176(2) 0.66140(11)
H11 H 0.0140 0.0822 0.6820
C17 C 0.20384(6) 0.39926(19) 0.43605(12)
C18 C 0.17959(6) 0.25399(19) 0.39533(12)
H12 H 0.1840 0.2054 0.3463
C19 C 0.12711(5) 0.04250(17) 0.40132(10)
C20 C 0.04251(6) -0.1314(2) 0.69689(12)
H13 H 0.0334 -0.1695 0.7420
C21 C 0.15344(6) -0.08693(19) 0.28673(11)
H14 H 0.1694 -0.0008 0.2803
C22 C 0.25414(7) 0.5035(2) 0.26484(15)
H15 H 0.2493 0.4785 0.2025
O3 O 0.13383(6) 0.47802(17) 0.06562(11)
H16 H 0.1559(8) 0.494(3) 0.047(2)
H17 H 0.1092(9) 0.532(4) 0.023(2)
O4 O 0.01429(5) 0.60537(16) 0.39902(12)
H18 H 0.0250(8) 0.508(2) 0.4093(17)
H19 H 0.0363(8) 0.667(3) 0.400(2)
loop_
_geom_bond_atom_site_label_1
_geom_bond_atom_site_label_2
_geom_bond_site_symmetry_1
_geom_bond_site_symmetry_2
O1 C15 1_555 1_555
N1 C3 1_555 1_555
C1 H1 1_555 1_555
N2 H2 1_555 1_555
N3 C7 1_555 1_555
N4 C3 1_555 1_555
O2 C17 1_555 1_555
C2 H3 1_555 1_555
C3 C4 1_555 1_555
N5 C2 1_555 1_555
C4 C1 1_555 1_555
H4 C4 1_555 1_555
C5 C2 1_555 1_555
H5 C5 1_555 1_555
C6 N4 1_555 1_555
C7 H6 1_555 1_555
C8 N3 1_555 1_555
C9 C5 1_555 1_555
C10 H7 1_555 1_555
C11 C1 1_555 1_555
H8 C11 1_555 1_555
C12 C7 1_555 1_555
H9 C12 1_555 1_555
C13 C9 1_555 1_555
H10 C13 1_555 1_555
C14 N2 1_555 1_555
C15 N2 1_555 1_555
C16 C14 1_555 1_555
H11 C16 1_555 1_555
C17 C9 1_555 1_555
C18 C10 1_555 1_555
H12 C18 1_555 1_555
C19 N1 1_555 1_555
C20 C12 1_555 1_555
H13 C20 1_555 1_555
C21 N1 1_555 1_555
H14 C21 1_555 1_555
C22 N5 1_555 1_555
H15 C22 1_555 1_555
O3 H16 1_555 1_555
H17 O3 1_555 1_555
O4 H18 1_555 1_555
H19 O4 1_555 1_555
N3 C14 1_555 1_555
C6 C8 1_555 1_555
C6 C19 1_555 1_555
C8 C15 1_555 1_555
C10 C19 1_555 1_555
C11 C21 1_555 1_555
C13 C22 1_555 1_555
C16 C20 1_555 1_555
C17 C18 1_555 1_555

#END
