
#######################################################################
#
#                 Cambridge Crystallographic Data Centre
#                                CCDC 
#
#######################################################################
#
# If this CIF has been generated from an entry in the Cambridge 
# Structural Database, then it will include bibliographic, chemical, 
# crystal, experimental, refinement or atomic coordinate data resulting 
# from the CCDC's data processing and validation procedures.
#
#######################################################################

data_WIDVEL
_chemical_formula_moiety         'C37 H28 N4,0.5(C1 H2 Cl2)'
_chemical_name_systematic        
"9-ethyl-3-(4-(2,2':6',2''-terpyridinyl-4'-yl)styryl)carbazole dichloromethane solvate"
_symmetry_cell_setting           triclinic
_symmetry_space_group_name_H-M   'P -1'
_symmetry_Int_Tables_number      2
_space_group_name_Hall           '-P 1'
loop_
_symmetry_equiv_pos_site_id
_symmetry_equiv_pos_as_xyz
1 x,y,z
2 -x,-y,-z
_cell_length_a                   11.853(5)
_cell_length_b                   13.683(6)
_cell_length_c                   19.596(9)
_cell_angle_alpha                108.393(8)
_cell_angle_beta                 94.379(8)
_cell_angle_gamma                94.826(8)
_cell_volume                     2987.27
_chemical_melting_point          '310 deg.C'
_cell_formula_units_Z            4
_exptl_crystal_recrystallization_method dichloromethane/ethanol
_exptl_crystal_preparation       fluorescent
loop_
_atom_site_label
_atom_site_type_symbol
_atom_site_fract_x
_atom_site_fract_y
_atom_site_fract_z
Cl1 Cl 0.4411(4) 0.7127(4) 0.6482(3)
Cl2 Cl 0.2840(4) 0.8248(4) 0.6980(3)
C75 C 0.3926(11) 0.8070(7) 0.6378(4)
H57 H 0.3607 0.7933 0.5882
H58 H 0.4498 0.8668 0.6517
N1 N 1.0422(4) 0.6747(3) 0.5533(2)
N2 N 1.2680(5) 0.5825(4) 0.4470(3)
N3 N 0.8095(4) 0.8174(3) 0.6178(2)
N4 N 0.9755(4) 1.2431(3) 0.0112(2)
C1 C 1.1089(4) 0.6627(4) 0.4997(3)
C2 C 1.1045(4) 0.7196(4) 0.4527(3)
H1 H 1.1533 0.7091 0.4167
C3 C 1.0281(5) 0.7919(4) 0.4588(3)
C4 C 0.9599(4) 0.8035(4) 0.5141(3)
H2 H 0.9069 0.8511 0.5205
C5 C 0.9690(5) 0.7457(4) 0.5599(3)
C6 C 1.1885(5) 0.5820(4) 0.4911(3)
C7 C 1.1811(5) 0.5128(4) 0.5291(3)
H3 H 1.1261 0.5152 0.5608
C8 C 1.2579(7) 0.4393(5) 0.5189(4)
H4 H 1.2533 0.3904 0.5428
C9 C 1.3389(6) 0.4394(5) 0.4743(4)
H5 H 1.3924 0.3921 0.4678
C10 C 1.3404(6) 0.5100(6) 0.4392(3)
H6 H 1.3952 0.5084 0.4074
C11 C 0.8957(5) 0.7598(4) 0.6187(3)
C12 C 0.9140(5) 0.7145(4) 0.6723(3)
H7 H 0.9728 0.6734 0.6719
C13 C 0.8422(6) 0.7325(4) 0.7263(3)
H8 H 0.8533 0.7039 0.7632
C14 C 0.7554(5) 0.7917(5) 0.7260(3)
H9 H 0.7067 0.8043 0.7621
C15 C 0.7427(5) 0.8318(4) 0.6704(4)
H10 H 0.6833 0.8718 0.6696
C16 C 1.0192(5) 0.8519(4) 0.4081(3)
C17 C 1.0956(5) 0.8503(4) 0.3588(3)
H11 H 1.1584 0.8140 0.3593
C18 C 1.0822(6) 0.9012(4) 0.3082(3)
H12 H 1.1355 0.8968 0.2752
C19 C 0.9931(5) 0.9576(4) 0.3053(3)
C20 C 0.9222(5) 0.9653(4) 0.3572(3)
H13 H 0.8632 1.0065 0.3593
C21 C 0.9347(5) 0.9140(4) 0.4074(3)
H14 H 0.8836 0.9220 0.4420
C22 C 0.9749(5) 1.0129(4) 0.2534(3)
H15 H 0.9171 1.0558 0.2609
C23 C 1.0303(5) 1.0089(4) 0.1980(3)
H16 H 1.0864 0.9642 0.1900
C24 C 1.0156(5) 1.0655(4) 0.1469(3)
C25 C 1.0926(4) 1.0623(4) 0.0956(3)
H17 H 1.1514 1.0210 0.0939
C26 C 1.0863(5) 1.1167(4) 0.0479(3)
H18 H 1.1377 1.1109 0.0136
C27 C 1.0000(5) 1.1810(4) 0.0524(3)
C28 C 0.9227(4) 1.1894(4) 0.1034(3)
C29 C 0.9304(4) 1.1301(4) 0.1495(3)
H19 H 0.8774 1.1338 0.1826
C30 C 0.8480(5) 1.2641(4) 0.0950(3)
C31 C 0.7561(5) 1.3037(4) 0.1289(3)
H20 H 0.7307 1.2824 0.1662
C32 C 0.7034(5) 1.3747(5) 0.1064(3)
H21 H 0.6414 1.4015 0.1290
C33 C 0.7383(6) 1.4080(4) 0.0517(4)
H22 H 0.7007 1.4574 0.0386
C34 C 0.8293(5) 1.3689(4) 0.0156(3)
H23 H 0.8526 1.3906 -0.0220
C35 C 0.8847(4) 1.2959(4) 0.0376(3)
C36 C 1.0365(5) 1.2553(4) -0.0482(3)
H24 H 0.9839 1.2703 -0.0829
H25 H 1.0656 1.1906 -0.0726
C37 C 1.1331(5) 1.3400(5) -0.0227(3)
H26 H 1.1702 1.3456 -0.0634
H27 H 1.1866 1.3244 0.0106
H28 H 1.1046 1.4044 0.0010
N5 N 0.3728(4) -0.2220(3) 0.2944(2)
N6 N 0.5937(4) -0.0203(4) 0.3944(3)
N7 N 0.1395(5) -0.3676(4) 0.1655(3)
N8 N 0.3655(4) 0.3460(4) -0.2495(2)
C38 C 0.4496(5) -0.1396(4) 0.3070(3)
C39 C 0.4577(4) -0.0858(4) 0.2573(3)
H29 H 0.5137 -0.0299 0.2669
C40 C 0.3845(5) -0.1138(4) 0.1942(3)
C41 C 0.3056(4) -0.1995(4) 0.1833(3)
H30 H 0.2539 -0.2220 0.1418
C42 C 0.3026(5) -0.2516(4) 0.2328(3)
C43 C 0.5260(5) -0.1098(5) 0.3761(3)
C44 C 0.5259(5) -0.1718(4) 0.4197(3)
H31 H 0.4786 -0.2342 0.4051
C45 C 0.5935(7) -0.1435(6) 0.4834(4)
H32 H 0.5931 -0.1851 0.5129
C46 C 0.6614(6) -0.0524(7) 0.5025(3)
H33 H 0.7089 -0.0299 0.5458
C47 C 0.6594(5) 0.0064(5) 0.4571(4)
H34 H 0.7069 0.0686 0.4710
C48 C 0.2169(5) -0.3419(4) 0.2234(3)
C49 C 0.2172(5) -0.3952(4) 0.2730(3)
H35 H 0.2734 -0.3763 0.3120
C50 C 0.1349(6) -0.4755(5) 0.2645(4)
H36 H 0.1326 -0.5102 0.2983
C51 C 0.0559(6) -0.5034(4) 0.2050(4)
H37 H 0.0000 -0.5590 0.1966
C52 C 0.0609(6) -0.4479(5) 0.1581(3)
H38 H 0.0061 -0.4671 0.1183
C53 C 0.3885(4) -0.0572(4) 0.1417(3)
C54 C 0.4372(5) 0.0452(4) 0.1615(3)
H39 H 0.4711 0.0780 0.2086
C55 C 0.4362(5) 0.0988(4) 0.1129(4)
H40 H 0.4694 0.1672 0.1273
C56 C 0.3862(5) 0.0519(6) 0.0425(4)
C57 C 0.3419(5) -0.0509(5) 0.0219(3)
H41 H 0.3115 -0.0850 -0.0257
C58 C 0.3426(4) -0.1026(4) 0.0708(3)
H42 H 0.3107 -0.1715 0.0557
C59 C 0.3657(6) 0.0972(6) -0.0252(6)
H43 H 0.3220 0.0588 -0.0683
C60 C 0.4067(6) 0.1752(7) -0.0163(6)
H44 H 0.4497 0.2162 0.0264
C61 C 0.3824(8) 0.2120(8) -0.0894(5)
C62 C 0.3007(6) 0.1681(5) -0.1490(5)
H45 H 0.2532 0.1096 -0.1506
C63 C 0.2868(5) 0.2066(5) -0.2053(3)
H46 H 0.2319 0.1761 -0.2445
C64 C 0.3596(5) 0.2937(5) -0.2000(3)
C65 C 0.4423(5) 0.3412(5) -0.1404(3)
C66 C 0.4513(6) 0.2987(6) -0.0865(4)
H47 H 0.5054 0.3293 -0.0468
C67 C 0.5020(6) 0.4285(5) -0.1544(3)
C68 C 0.5893(6) 0.5039(7) -0.1172(4)
H48 H 0.6236 0.5052 -0.0726
C69 C 0.6244(6) 0.5775(6) -0.1483(5)
H49 H 0.6836 0.6287 -0.1239
C70 C 0.5747(7) 0.5776(6) -0.2137(5)
H50 H 0.6007 0.6286 -0.2327
C71 C 0.4875(6) 0.5038(5) -0.2517(3)
H51 H 0.4531 0.5040 -0.2960
C72 C 0.4526(5) 0.4287(5) -0.2216(3)
C73 C 0.2866(5) 0.3309(4) -0.3132(3)
H52 H 0.2606 0.2576 -0.3349
H53 H 0.3260 0.3533 -0.3482
C74 C 0.1845(5) 0.3901(5) -0.2961(3)
H54 H 0.1345 0.3772 -0.3397
H55 H 0.2096 0.4629 -0.2760
H56 H 0.1447 0.3677 -0.2618
loop_
_geom_bond_atom_site_label_1
_geom_bond_atom_site_label_2
_geom_bond_site_symmetry_1
_geom_bond_site_symmetry_2
Cl1 C75 1_555 1_555
Cl2 C75 1_555 1_555
N1 C1 1_555 1_555
N2 C6 1_555 1_555
N3 C11 1_555 1_555
N4 C27 1_555 1_555
N5 C38 1_555 1_555
N6 C43 1_555 1_555
N7 C48 1_555 1_555
N8 C64 1_555 1_555
C1 C2 1_555 1_555
C2 H1 1_555 1_555
C3 C2 1_555 1_555
C4 C3 1_555 1_555
H2 C4 1_555 1_555
C5 N1 1_555 1_555
C6 C1 1_555 1_555
C7 C6 1_555 1_555
H3 C7 1_555 1_555
C8 C7 1_555 1_555
H4 C8 1_555 1_555
C9 C8 1_555 1_555
H5 C9 1_555 1_555
C10 N2 1_555 1_555
H6 C10 1_555 1_555
C11 C5 1_555 1_555
C12 C11 1_555 1_555
H7 C12 1_555 1_555
C13 C12 1_555 1_555
H8 C13 1_555 1_555
C14 C13 1_555 1_555
H9 C14 1_555 1_555
C15 N3 1_555 1_555
H10 C15 1_555 1_555
C16 C3 1_555 1_555
C17 C16 1_555 1_555
H11 C17 1_555 1_555
C18 C17 1_555 1_555
H12 C18 1_555 1_555
C19 C18 1_555 1_555
C20 C19 1_555 1_555
H13 C20 1_555 1_555
C21 C16 1_555 1_555
H14 C21 1_555 1_555
C22 C19 1_555 1_555
H15 C22 1_555 1_555
C23 C22 1_555 1_555
H16 C23 1_555 1_555
C24 C23 1_555 1_555
C25 C24 1_555 1_555
H17 C25 1_555 1_555
C26 C25 1_555 1_555
H18 C26 1_555 1_555
C27 C26 1_555 1_555
C28 C27 1_555 1_555
C29 C24 1_555 1_555
H19 C29 1_555 1_555
C30 C28 1_555 1_555
C31 C30 1_555 1_555
H20 C31 1_555 1_555
C32 C31 1_555 1_555
H21 C32 1_555 1_555
C33 C32 1_555 1_555
H22 C33 1_555 1_555
C34 C33 1_555 1_555
H23 C34 1_555 1_555
C35 N4 1_555 1_555
C36 N4 1_555 1_555
H24 C36 1_555 1_555
H25 C36 1_555 1_555
C37 C36 1_555 1_555
H26 C37 1_555 1_555
H27 C37 1_555 1_555
H28 C37 1_555 1_555
C38 C39 1_555 1_555
C39 H29 1_555 1_555
C40 C39 1_555 1_555
C41 C40 1_555 1_555
H30 C41 1_555 1_555
C42 N5 1_555 1_555
C43 C38 1_555 1_555
C44 C43 1_555 1_555
H31 C44 1_555 1_555
C45 C44 1_555 1_555
H32 C45 1_555 1_555
C46 C45 1_555 1_555
H33 C46 1_555 1_555
C47 N6 1_555 1_555
H34 C47 1_555 1_555
C48 C42 1_555 1_555
C49 C48 1_555 1_555
H35 C49 1_555 1_555
C50 C49 1_555 1_555
H36 C50 1_555 1_555
C51 C50 1_555 1_555
H37 C51 1_555 1_555
C52 N7 1_555 1_555
H38 C52 1_555 1_555
C53 C40 1_555 1_555
C54 C53 1_555 1_555
H39 C54 1_555 1_555
C55 C54 1_555 1_555
H40 C55 1_555 1_555
C56 C55 1_555 1_555
C57 C56 1_555 1_555
H41 C57 1_555 1_555
C58 C53 1_555 1_555
H42 C58 1_555 1_555
C59 C56 1_555 1_555
H43 C59 1_555 1_555
C60 C59 1_555 1_555
H44 C60 1_555 1_555
C61 C60 1_555 1_555
C62 C61 1_555 1_555
H45 C62 1_555 1_555
C63 C62 1_555 1_555
H46 C63 1_555 1_555
C64 C63 1_555 1_555
C65 C64 1_555 1_555
C66 C61 1_555 1_555
H47 C66 1_555 1_555
C67 C65 1_555 1_555
C68 C67 1_555 1_555
H48 C68 1_555 1_555
C69 C68 1_555 1_555
H49 C69 1_555 1_555
C70 C69 1_555 1_555
H50 C70 1_555 1_555
C71 C70 1_555 1_555
H51 C71 1_555 1_555
C72 N8 1_555 1_555
C73 N8 1_555 1_555
H52 C73 1_555 1_555
H53 C73 1_555 1_555
C74 C73 1_555 1_555
H54 C74 1_555 1_555
H55 C74 1_555 1_555
H56 C74 1_555 1_555
C75 H57 1_555 1_555
H58 C75 1_555 1_555
C4 C5 1_555 1_555
C9 C10 1_555 1_555
C14 C15 1_555 1_555
C20 C21 1_555 1_555
C28 C29 1_555 1_555
C30 C35 1_555 1_555
C34 C35 1_555 1_555
C41 C42 1_555 1_555
C46 C47 1_555 1_555
C51 C52 1_555 1_555
C57 C58 1_555 1_555
C65 C66 1_555 1_555
C67 C72 1_555 1_555
C71 C72 1_555 1_555

#END
