
#######################################################################
#
#                 Cambridge Crystallographic Data Centre
#                                CCDC 
#
#######################################################################
#
# If this CIF has been generated from an entry in the Cambridge 
# Structural Database, then it will include bibliographic, chemical, 
# crystal, experimental, refinement or atomic coordinate data resulting 
# from the CCDC's data processing and validation procedures.
#
#######################################################################

data_WIDVUC
_chemical_formula_moiety         'C15 H23 N1 O1 S1,2(H2 O1)'
_chemical_name_systematic        
'2-Methyl-N-(2-phenylpent-4-en-2-yl)propane-2-sulfinamide dihydrate'
_symmetry_cell_setting           orthorhombic
_symmetry_space_group_name_H-M   'P 21 21 21'
_symmetry_Int_Tables_number      19
_space_group_name_Hall           'P 2ac 2ab'
loop_
_symmetry_equiv_pos_site_id
_symmetry_equiv_pos_as_xyz
1 x,y,z
2 1/2-x,-y,1/2+z
3 -x,1/2+y,1/2-z
4 1/2+x,1/2-y,-z
_cell_length_a                   6.2080(9)
_cell_length_b                   14.513(2)
_cell_length_c                   19.432(3)
_cell_angle_alpha                90
_cell_angle_beta                 90
_cell_angle_gamma                90
_cell_volume                     1750.76
_exptl_crystal_colour            colorless
_cell_formula_units_Z            4
loop_
_atom_site_label
_atom_site_type_symbol
_atom_site_fract_x
_atom_site_fract_y
_atom_site_fract_z
S1 S 0.42421(14) 0.00561(5) 0.89751(4)
O1 O 0.3222(4) 0.04784(13) 0.96063(10)
C1 C 0.5926(5) 0.14035(19) 0.81888(13)
N1 N 0.6315(4) 0.06740(15) 0.87145(11)
H1 H 0.7584 0.0578 0.8877
C2 C 0.5123(5) 0.09487(19) 0.75237(15)
C3 C 0.5657(7) -0.0965(2) 0.93124(15)
C4 C 0.6315(6) 0.0246(2) 0.72289(15)
H2 H 0.7547 0.0034 0.7451
C5 C 0.3303(6) 0.1246(2) 0.71844(16)
H3 H 0.2488 0.1723 0.7370
C6 C 0.4383(6) 0.2135(2) 0.84689(14)
H4 H 0.2998 0.1862 0.8551
H5 H 0.4242 0.2624 0.8140
H6 H 0.4942 0.2377 0.8892
C7 C 0.3836(7) -0.1597(2) 0.95596(19)
H7 H 0.4437 -0.2161 0.9733
H8 H 0.2889 -0.1731 0.9182
H9 H 0.3042 -0.1295 0.9919
C8 C 0.8163(5) 0.1837(2) 0.80602(16)
H10 H 0.8673 0.2110 0.8486
H11 H 0.9163 0.1353 0.7933
C9 C 0.8176(6) 0.2561(2) 0.75091(17)
H12 H 0.7785 0.2385 0.7066
C10 C 0.5706(9) -0.0146(3) 0.66096(17)
H13 H 0.6541 -0.0610 0.6415
C11 C 0.7103(6) -0.0707(2) 0.99070(18)
H14 H 0.7651 -0.1257 1.0119
H15 H 0.6294 -0.0360 1.0239
H16 H 0.8282 -0.0342 0.9741
C12 C 0.6887(8) -0.1403(2) 0.8724(2)
H17 H 0.8087 -0.1019 0.8603
H18 H 0.5952 -0.1469 0.8334
H19 H 0.7402 -0.1998 0.8863
C13 C 0.2671(7) 0.0841(3) 0.65686(18)
H20 H 0.1425 0.1041 0.6349
C14 C 0.3871(9) 0.0150(3) 0.62831(19)
H21 H 0.3447 -0.0118 0.5870
C15 C 0.8694(7) 0.3410(3) 0.7608(2)
H22 H 0.9093 0.3610 0.8044
H23 H 0.8668 0.3824 0.7242
O2 O 0.9457(5) 0.1498(2) 0.97844(14)
H24 H 1.036(6) 0.116(2) 0.9680(16)
H25 H 0.982(6) 0.203(2) 0.9761(19)
O3 O 0.5537(6) 0.16824(18) 0.05021(14)
H26 H 0.470(8) 0.128(3) 0.021(2)
H27 H 0.685(7) 0.162(2) 0.0375(18)
loop_
_geom_bond_atom_site_label_1
_geom_bond_atom_site_label_2
_geom_bond_site_symmetry_1
_geom_bond_site_symmetry_2
S1 O1 1_555 1_555
C1 N1 1_555 1_555
N1 S1 1_555 1_555
H1 N1 1_555 1_555
C2 C1 1_555 1_555
C3 S1 1_555 1_555
C4 C2 1_555 1_555
H2 C4 1_555 1_555
C5 C2 1_555 1_555
H3 C5 1_555 1_555
C6 C1 1_555 1_555
H4 C6 1_555 1_555
H5 C6 1_555 1_555
H6 C6 1_555 1_555
C7 C3 1_555 1_555
H7 C7 1_555 1_555
H8 C7 1_555 1_555
H9 C7 1_555 1_555
C8 C1 1_555 1_555
H10 C8 1_555 1_555
H11 C8 1_555 1_555
C9 C8 1_555 1_555
H12 C9 1_555 1_555
C10 C4 1_555 1_555
H13 C10 1_555 1_555
C11 C3 1_555 1_555
H14 C11 1_555 1_555
H15 C11 1_555 1_555
H16 C11 1_555 1_555
C12 C3 1_555 1_555
H17 C12 1_555 1_555
H18 C12 1_555 1_555
H19 C12 1_555 1_555
C13 C5 1_555 1_555
H20 C13 1_555 1_555
C14 C10 1_555 1_555
H21 C14 1_555 1_555
C15 C9 1_555 1_555
H22 C15 1_555 1_555
H23 C15 1_555 1_555
O2 H24 1_555 1_555
H25 O2 1_555 1_555
O3 H26 1_555 1_555
H27 O3 1_555 1_555
C13 C14 1_555 1_555

#END
