
#######################################################################
#
#                 Cambridge Crystallographic Data Centre
#                                CCDC 
#
#######################################################################
#
# If this CIF has been generated from an entry in the Cambridge 
# Structural Database, then it will include bibliographic, chemical, 
# crystal, experimental, refinement or atomic coordinate data resulting 
# from the CCDC's data processing and validation procedures.
#
#######################################################################

data_WIDWOY
_chemical_formula_moiety         'C18 H21 Br1 N2 O1'
_chemical_name_systematic        
"1-(5-bromo-1,2,3',4',9',9a'-hexahydro-2'H,8'H-spiro[indole-3,1'-quinolizin]-7'-yl)ethan-1-one unknown solvate"
_symmetry_cell_setting           monoclinic
_symmetry_space_group_name_H-M   'P 21'
_symmetry_Int_Tables_number      4
_space_group_name_Hall           'P 2yb'
loop_
_symmetry_equiv_pos_site_id
_symmetry_equiv_pos_as_xyz
1 x,y,z
2 -x,1/2+y,-z
_cell_length_a                   13.628(8)
_cell_length_b                   7.690(5)
_cell_length_c                   17.052(10)
_cell_angle_alpha                90
_cell_angle_beta                 91.120(13)
_cell_angle_gamma                90
_cell_volume                     1786.7
_exptl_crystal_colour            colorless
_exptl_crystal_description       prismatic
_cell_formula_units_Z            4
loop_
_atom_site_label
_atom_site_type_symbol
_atom_site_fract_x
_atom_site_fract_y
_atom_site_fract_z
Br1 Br 0.23074(13) 0.8515(2) 0.59696(9)
N1 N 0.2966(11) 0.440(2) 0.8918(7)
H1 H 0.3365 0.4550 0.9309
N2 N 0.0018(7) 0.2425(13) 0.8593(6)
O1 O -0.2539(6) 0.5930(12) 0.9540(5)
C1 C 0.2155(8) 0.4999(15) 0.7784(7)
C2 C 0.1975(8) 0.5850(16) 0.7093(7)
H2 H 0.1461 0.5502 0.6762
C3 C 0.2579(9) 0.7267(17) 0.6886(8)
C4 C 0.3375(10) 0.768(2) 0.7379(10)
H3 H 0.3791 0.8583 0.7236
C5 C 0.3563(9) 0.682(2) 0.8056(10)
H4 H 0.4087 0.7152 0.8380
C6 C 0.2972(10) 0.546(2) 0.8260(8)
C7 C 0.2246(12) 0.303(3) 0.8901(9)
H5 H 0.1836 0.3076 0.9359
H6 H 0.2556 0.1897 0.8876
C8 C 0.1637(9) 0.343(2) 0.8135(7)
C9 C 0.1632(10) 0.1850(18) 0.7601(9)
H7 H 0.2303 0.1531 0.7488
H8 H 0.1304 0.2145 0.7109
C10 C 0.1117(12) 0.031(2) 0.7966(12)
H9 H 0.1452 -0.0028 0.8450
H10 H 0.1127 -0.0679 0.7610
C11 C 0.0043(11) 0.0829(19) 0.8133(10)
H11 H -0.0313 0.1001 0.7641
H12 H -0.0276 -0.0098 0.8417
C12 C 0.0560(9) 0.3957(13) 0.8298(7)
H13 H 0.0255 0.4293 0.7795
C13 C 0.0443(9) 0.5463(16) 0.8854(8)
H14 H 0.0788 0.6468 0.8654
H15 H 0.0732 0.5165 0.9360
C14 C -0.0635(8) 0.5916(17) 0.8952(7)
H16 H -0.0700 0.6793 0.9357
H17 H -0.0904 0.6384 0.8465
C15 C -0.1171(8) 0.4354(18) 0.9168(6)
C16 C -0.0824(9) 0.2763(18) 0.8969(7)
H18 H -0.1205 0.1809 0.9104
C17 C -0.2151(9) 0.449(2) 0.9513(7)
C18 C -0.2647(11) 0.2924(19) 0.9855(8)
H19 H -0.3317 0.3201 0.9964
H20 H -0.2312 0.2590 1.0331
H21 H -0.2627 0.1982 0.9486
Br2 Br 0.98975(10) 0.2203(4) 0.57135(12)
N3 N 0.7177(9) 0.7449(17) 0.7154(6)
H22 H 0.7223 0.8557 0.7209
N4 N 0.4867(6) 0.3669(15) 0.6603(5)
O2 O 0.3416(6) 0.4804(11) 0.4121(6)
C19 C 0.7584(8) 0.465(2) 0.6784(7)
C20 C 0.8167(7) 0.342(2) 0.6451(6)
H23 H 0.7961 0.2276 0.6400
C21 C 0.9090(9) 0.395(2) 0.6188(8)
C22 C 0.9397(10) 0.565(3) 0.6230(9)
H24 H 1.0001 0.5958 0.6029
C23 C 0.8823(11) 0.687(2) 0.6565(9)
H25 H 0.9033 0.8017 0.6616
C24 C 0.7885(9) 0.6334(19) 0.6835(7)
C25 C 0.6339(10) 0.6347(18) 0.7374(7)
H26 H 0.5734 0.6797 0.7145
H27 H 0.6277 0.6322 0.7940
C26 C 0.6553(7) 0.4472(17) 0.7054(6)
C27 C 0.6481(9) 0.3076(19) 0.7690(7)
H28 H 0.6890 0.3392 0.8140
H29 H 0.6709 0.1969 0.7491
C28 C 0.5403(9) 0.292(2) 0.7935(7)
H30 H 0.5347 0.2029 0.8334
H31 H 0.5189 0.4015 0.8157
C29 C 0.4772(8) 0.248(2) 0.7257(7)
H32 H 0.4933 0.1312 0.7083
H33 H 0.4094 0.2468 0.7420
C30 C 0.5888(7) 0.3949(13) 0.6332(6)
H34 H 0.6132 0.2847 0.6124
C31 C 0.5867(8) 0.5258(15) 0.5680(6)
H35 H 0.6526 0.5394 0.5482
H36 H 0.5662 0.6373 0.5885
C32 C 0.5177(7) 0.4737(17) 0.5005(7)
H37 H 0.5123 0.5681 0.4629
H38 H 0.5436 0.3727 0.4738
C33 C 0.4175(7) 0.4321(14) 0.5326(7)
C34 C 0.4125(7) 0.3851(14) 0.6070(7)
H39 H 0.3500 0.3616 0.6251
C35 C 0.3339(8) 0.4432(16) 0.4803(9)
C36 C 0.2310(9) 0.393(2) 0.5120(8)
H40 H 0.1837 0.4790 0.4961
H41 H 0.2342 0.3866 0.5682
H42 H 0.2118 0.2816 0.4911
loop_
_geom_bond_atom_site_label_1
_geom_bond_atom_site_label_2
_geom_bond_site_symmetry_1
_geom_bond_site_symmetry_2
Br1 C3 1_555 1_555
N1 H1 1_555 1_555
N2 C11 1_555 1_555
O1 C17 1_555 1_555
C1 C2 1_555 1_555
C2 H2 1_555 1_555
C3 C2 1_555 1_555
C4 C3 1_555 1_555
H3 C4 1_555 1_555
C5 C4 1_555 1_555
H4 C5 1_555 1_555
C6 N1 1_555 1_555
C7 N1 1_555 1_555
H5 C7 1_555 1_555
H6 C7 1_555 1_555
C8 C1 1_555 1_555
C9 C8 1_555 1_555
H7 C9 1_555 1_555
H8 C9 1_555 1_555
C10 C9 1_555 1_555
H9 C10 1_555 1_555
H10 C10 1_555 1_555
C11 C10 1_555 1_555
H11 C11 1_555 1_555
H12 C11 1_555 1_555
C12 N2 1_555 1_555
H13 C12 1_555 1_555
C13 C12 1_555 1_555
H14 C13 1_555 1_555
H15 C13 1_555 1_555
C14 C13 1_555 1_555
H16 C14 1_555 1_555
H17 C14 1_555 1_555
C15 C14 1_555 1_555
C16 N2 1_555 1_555
H18 C16 1_555 1_555
C17 C15 1_555 1_555
C18 C17 1_555 1_555
H19 C18 1_555 1_555
H20 C18 1_555 1_555
H21 C18 1_555 1_555
Br2 C21 1_555 1_555
N3 H22 1_555 1_555
N4 C29 1_555 1_555
O2 C35 1_555 1_555
C19 C20 1_555 1_555
C20 H23 1_555 1_555
C21 C20 1_555 1_555
C22 C21 1_555 1_555
H24 C22 1_555 1_555
C23 C22 1_555 1_555
H25 C23 1_555 1_555
C24 N3 1_555 1_555
C25 N3 1_555 1_555
H26 C25 1_555 1_555
H27 C25 1_555 1_555
C26 C19 1_555 1_555
C27 C26 1_555 1_555
H28 C27 1_555 1_555
H29 C27 1_555 1_555
C28 C27 1_555 1_555
H30 C28 1_555 1_555
H31 C28 1_555 1_555
C29 C28 1_555 1_555
H32 C29 1_555 1_555
H33 C29 1_555 1_555
C30 N4 1_555 1_555
H34 C30 1_555 1_555
C31 C30 1_555 1_555
H35 C31 1_555 1_555
H36 C31 1_555 1_555
C32 C31 1_555 1_555
H37 C32 1_555 1_555
H38 C32 1_555 1_555
C33 C32 1_555 1_555
C34 N4 1_555 1_555
H39 C34 1_555 1_555
C35 C33 1_555 1_555
C36 C35 1_555 1_555
H40 C36 1_555 1_555
H41 C36 1_555 1_555
H42 C36 1_555 1_555
C1 C6 1_555 1_555
C5 C6 1_555 1_555
C7 C8 1_555 1_555
C8 C12 1_555 1_555
C15 C16 1_555 1_555
C19 C24 1_555 1_555
C23 C24 1_555 1_555
C25 C26 1_555 1_555
C26 C30 1_555 1_555
C33 C34 1_555 1_555

#END
