
#######################################################################
#
#                 Cambridge Crystallographic Data Centre
#                                CCDC 
#
#######################################################################
#
# If this CIF has been generated from an entry in the Cambridge 
# Structural Database, then it will include bibliographic, chemical, 
# crystal, experimental, refinement or atomic coordinate data resulting 
# from the CCDC's data processing and validation procedures.
#
#######################################################################

data_WIDWUE
_chemical_name_common            
'2-(3-((3r,5r,7r)-adamantan-1-yl)benzofuran-4-yl)acetic acid'
_chemical_formula_moiety         'C20 H22 O3'
_chemical_name_systematic        
'[3-(tricyclo[3.3.1.1^3,7^]decan-1-yl)-1-benzofuran-4-yl]acetic acid'
_symmetry_cell_setting           triclinic
_symmetry_space_group_name_H-M   'P -1'
_symmetry_Int_Tables_number      2
_space_group_name_Hall           '-P 1'
loop_
_symmetry_equiv_pos_site_id
_symmetry_equiv_pos_as_xyz
1 x,y,z
2 -x,-y,-z
_cell_length_a                   10.1198(8)
_cell_length_b                   10.6149(13)
_cell_length_c                   16.3617(18)
_cell_angle_alpha                105.846(10)
_cell_angle_beta                 93.714(8)
_cell_angle_gamma                105.612(9)
_cell_volume                     1610.18
_exptl_crystal_colour            colorless
_exptl_crystal_description       needle
_cell_formula_units_Z            4
loop_
_atom_site_label
_atom_site_type_symbol
_atom_site_fract_x
_atom_site_fract_y
_atom_site_fract_z
O1 O 0.9818(3) 0.6522(4) 0.54061(18)
H1 H 0.9170 0.6435 0.5683
O2 O 0.8127(3) 0.6163(5) 0.4381(2)
O3 O 0.9680(3) 0.8380(3) 0.17089(19)
C1 C 0.9355(4) 0.6343(4) 0.4624(2)
C2 C 1.0391(4) 0.6412(4) 0.4015(2)
H2 H 1.0144 0.5550 0.3557
H3 H 1.1301 0.6549 0.4316
C3 C 1.0445(3) 0.7569(4) 0.3637(2)
C4 C 1.0935(4) 0.8880(4) 0.4207(3)
H4 H 1.1212 0.8984 0.4781
C5 C 1.1031(4) 1.0049(4) 0.3957(3)
H5 H 1.1369 1.0910 0.4364
C6 C 1.0630(4) 0.9946(4) 0.3116(3)
H6 H 1.0691 1.0715 0.2936
C7 C 1.0139(4) 0.8646(4) 0.2563(3)
C8 C 0.9276(5) 0.6990(4) 0.1376(3)
H7 H 0.8913 0.6534 0.0801
C9 C 0.9449(4) 0.6328(4) 0.1956(2)
C10 C 1.0018(3) 0.7422(4) 0.2766(2)
C11 C 0.9058(4) 0.4776(4) 0.1707(2)
C12 C 1.0322(4) 0.4291(4) 0.1858(2)
H8 H 1.1013 0.4612 0.1518
H9 H 1.0730 0.4680 0.2459
C13 C 0.9916(4) 0.2730(4) 0.1613(2)
H10 H 1.0735 0.2450 0.1736
C14 C 0.8818(4) 0.2221(4) 0.2134(3)
H11 H 0.9178 0.2611 0.2742
H12 H 0.8577 0.1230 0.1990
C15 C 0.7533(4) 0.2635(4) 0.1940(3)
H13 H 0.6825 0.2291 0.2272
C16 C 0.7906(4) 0.4196(4) 0.2195(3)
H14 H 0.8220 0.4578 0.2808
H15 H 0.7090 0.4460 0.2064
C17 C 0.6960(4) 0.2027(5) 0.0986(4)
H16 H 0.6141 0.2292 0.0863
H17 H 0.6701 0.1034 0.0823
C18 C 0.8080(5) 0.2564(5) 0.0483(3)
H18 H 0.7717 0.2191 -0.0132
C19 C 0.8481(5) 0.4131(4) 0.0742(3)
H19 H 0.7673 0.4409 0.0615
H20 H 0.9177 0.4465 0.0409
C20 C 0.9354(4) 0.2119(4) 0.0654(3)
H21 H 1.0055 0.2443 0.0321
H22 H 0.9106 0.1126 0.0489
O4 O 0.3466(3) 0.4035(4) 0.03484(18)
O5 O 0.2158(3) 0.3738(4) 0.3603(2)
O6 O 0.3711(4) 0.3741(6) 0.4577(2)
H23 H 0.4497 0.3665 0.4606
C21 C 0.3357(4) 0.3842(4) 0.3848(2)
C22 C 0.4477(4) 0.3996(4) 0.3300(2)
H24 H 0.5154 0.3581 0.3465
H25 H 0.4944 0.4966 0.3410
C23 C 0.3965(4) 0.3358(4) 0.2351(2)
C24 C 0.3494(4) 0.1943(5) 0.2055(3)
H26 H 0.3501 0.1464 0.2453
C25 C 0.3006(5) 0.1184(5) 0.1194(4)
H27 H 0.2703 0.0230 0.1033
C26 C 0.2977(5) 0.1845(5) 0.0594(3)
H28 H 0.2656 0.1370 0.0017
C27 C 0.3445(4) 0.3249(5) 0.0884(3)
C28 C 0.3933(3) 0.4067(4) 0.1743(2)
C29 C 0.4277(4) 0.5483(4) 0.1703(2)
C30 C 0.3976(5) 0.5354(5) 0.0869(3)
H29 H 0.4105 0.6105 0.0662
C31 C 0.4808(3) 0.6859(4) 0.2391(2)
C32 C 0.6290(3) 0.7105(4) 0.2822(2)
H30 H 0.6303 0.6381 0.3074
H31 H 0.6908 0.7079 0.2392
C33 C 0.6803(4) 0.8499(4) 0.3522(3)
H32 H 0.7732 0.8619 0.3804
C34 C 0.5805(4) 0.8555(4) 0.4187(3)
H33 H 0.5759 0.7824 0.4443
H34 H 0.6141 0.9424 0.4640
C35 C 0.6863(4) 0.9631(4) 0.3110(3)
H35 H 0.7491 0.9592 0.2687
H36 H 0.7204 1.0520 0.3544
C36 C 0.5408(5) 0.9436(4) 0.2680(3)
H37 H 0.5447 1.0160 0.2410
C37 C 0.4879(4) 0.8041(4) 0.1986(3)
H38 H 0.5496 0.7998 0.1556
H39 H 0.3964 0.7932 0.1705
C38 C 0.4427(5) 0.9534(4) 0.3344(3)
H40 H 0.3508 0.9431 0.3071
H41 H 0.4757 1.0423 0.3779
C39 C 0.4368(4) 0.8397(4) 0.3756(3)
H42 H 0.3738 0.8447 0.4186
C40 C 0.3820(4) 0.7004(4) 0.3056(2)
H43 H 0.3718 0.6273 0.3318
H44 H 0.2914 0.6917 0.2773
loop_
_geom_bond_atom_site_label_1
_geom_bond_atom_site_label_2
_geom_bond_site_symmetry_1
_geom_bond_site_symmetry_2
O1 H1 1_555 1_555
O2 C1 1_555 1_555
O3 C7 1_555 1_555
C1 O1 1_555 1_555
C2 C1 1_555 1_555
H2 C2 1_555 1_555
H3 C2 1_555 1_555
C3 C2 1_555 1_555
C4 C3 1_555 1_555
H4 C4 1_555 1_555
C5 C4 1_555 1_555
H5 C5 1_555 1_555
C6 C5 1_555 1_555
H6 C6 1_555 1_555
C7 C6 1_555 1_555
C8 O3 1_555 1_555
H7 C8 1_555 1_555
C9 C8 1_555 1_555
C10 C3 1_555 1_555
C11 C9 1_555 1_555
C12 C11 1_555 1_555
H8 C12 1_555 1_555
H9 C12 1_555 1_555
C13 C12 1_555 1_555
H10 C13 1_555 1_555
C14 C13 1_555 1_555
H11 C14 1_555 1_555
H12 C14 1_555 1_555
C15 C14 1_555 1_555
H13 C15 1_555 1_555
C16 C11 1_555 1_555
H14 C16 1_555 1_555
H15 C16 1_555 1_555
C17 C15 1_555 1_555
H16 C17 1_555 1_555
H17 C17 1_555 1_555
C18 C17 1_555 1_555
H18 C18 1_555 1_555
C19 C11 1_555 1_555
H19 C19 1_555 1_555
H20 C19 1_555 1_555
C20 C13 1_555 1_555
H21 C20 1_555 1_555
H22 C20 1_555 1_555
O4 C27 1_555 1_555
O5 C21 1_555 1_555
O6 H23 1_555 1_555
C21 O6 1_555 1_555
C22 C21 1_555 1_555
H24 C22 1_555 1_555
H25 C22 1_555 1_555
C23 C22 1_555 1_555
C24 C23 1_555 1_555
H26 C24 1_555 1_555
C25 C24 1_555 1_555
H27 C25 1_555 1_555
C26 C25 1_555 1_555
H28 C26 1_555 1_555
C27 C26 1_555 1_555
C28 C23 1_555 1_555
C29 C28 1_555 1_555
C30 O4 1_555 1_555
H29 C30 1_555 1_555
C31 C29 1_555 1_555
C32 C31 1_555 1_555
H30 C32 1_555 1_555
H31 C32 1_555 1_555
C33 C32 1_555 1_555
H32 C33 1_555 1_555
C34 C33 1_555 1_555
H33 C34 1_555 1_555
H34 C34 1_555 1_555
C35 C33 1_555 1_555
H35 C35 1_555 1_555
H36 C35 1_555 1_555
C36 C35 1_555 1_555
H37 C36 1_555 1_555
C37 C31 1_555 1_555
H38 C37 1_555 1_555
H39 C37 1_555 1_555
C38 C36 1_555 1_555
H40 C38 1_555 1_555
H41 C38 1_555 1_555
C39 C34 1_555 1_555
H42 C39 1_555 1_555
C40 C31 1_555 1_555
H43 C40 1_555 1_555
H44 C40 1_555 1_555
C7 C10 1_555 1_555
C9 C10 1_555 1_555
C15 C16 1_555 1_555
C18 C19 1_555 1_555
C18 C20 1_555 1_555
C27 C28 1_555 1_555
C29 C30 1_555 1_555
C36 C37 1_555 1_555
C38 C39 1_555 1_555
C39 C40 1_555 1_555

#END
