
#######################################################################
#
#                 Cambridge Crystallographic Data Centre
#                                CCDC 
#
#######################################################################
#
# If this CIF has been generated from an entry in the Cambridge 
# Structural Database, then it will include bibliographic, chemical, 
# crystal, experimental, refinement or atomic coordinate data resulting 
# from the CCDC's data processing and validation procedures.
#
#######################################################################

data_WIDWEO
_chemical_formula_moiety         'C15 H18 Br1 N1 O2'
_chemical_name_systematic        
3-(4-bromophenyl)-N-methoxy-N,1-dimethylcyclopent-3-ene-1-carboxamide
_symmetry_cell_setting           orthorhombic
_symmetry_space_group_name_H-M   'P 21 21 21'
_symmetry_Int_Tables_number      19
_space_group_name_Hall           'P 2ac 2ab'
loop_
_symmetry_equiv_pos_site_id
_symmetry_equiv_pos_as_xyz
1 x,y,z
2 1/2-x,-y,1/2+z
3 -x,1/2+y,1/2-z
4 1/2+x,1/2-y,-z
_cell_length_a                   7.00604(6)
_cell_length_b                   7.06470(8)
_cell_length_c                   28.6692(2)
_cell_angle_alpha                90
_cell_angle_beta                 90
_cell_angle_gamma                90
_cell_volume                     1419
_exptl_crystal_colour            colorless
_exptl_crystal_description       plate
_cell_formula_units_Z            4
loop_
_atom_site_label
_atom_site_type_symbol
_atom_site_fract_x
_atom_site_fract_y
_atom_site_fract_z
Br1 Br 1.04444(4) 0.65761(4) 0.12938(2)
O1 O 0.5871(2) 0.3898(3) 0.42918(6)
O2 O 0.1971(2) 0.6636(3) 0.46085(5)
N1 N 0.3084(3) 0.4998(3) 0.45466(7)
C1 C 0.4730(3) 0.6704(3) 0.38973(7)
C2 C 0.6319(3) 0.6230(3) 0.35364(8)
H1 H 0.749642 0.695597 0.360388
H2 H 0.662428 0.486222 0.354154
C3 C 0.5496(3) 0.6796(3) 0.30709(7)
C4 C 0.3640(3) 0.7200(3) 0.31096(8)
H3 H 0.287456 0.761415 0.285586
C5 C 0.2889(3) 0.6932(3) 0.35961(7)
H4 H 0.207699 0.578772 0.361632
H5 H 0.213767 0.804476 0.369753
C6 C 0.4626(3) 0.5110(3) 0.42581(7)
C7 C 0.5195(3) 0.8597(3) 0.41359(8)
H6 H 0.412888 0.896681 0.433769
H7 H 0.539712 0.957322 0.389813
H8 H 0.635408 0.845820 0.432406
C8 C 0.3119(4) 0.3722(4) 0.49460(8)
H9 H 0.414355 0.410074 0.515908
H10 H 0.334421 0.242489 0.483830
H11 H 0.189106 0.378348 0.510924
C9 C -0.0010(3) 0.6216(4) 0.45218(8)
H12 H -0.014328 0.564538 0.421186
H13 H -0.075694 0.738680 0.453584
H14 H -0.047562 0.532853 0.475858
C10 C 0.6655(3) 0.6729(3) 0.26425(7)
C11 C 0.8560(3) 0.6128(3) 0.26595(8)
H15 H 0.909926 0.577249 0.295071
C12 C 0.9682(3) 0.6040(3) 0.22584(8)
H16 H 1.096829 0.561885 0.227485
C13 C 0.8896(3) 0.6576(4) 0.18369(8)
C14 C 0.6987(3) 0.7142(3) 0.18053(8)
H17 H 0.645001 0.747340 0.151223
C15 C 0.5892(3) 0.7212(3) 0.22062(8)
H18 H 0.459477 0.759645 0.218567
loop_
_geom_bond_atom_site_label_1
_geom_bond_atom_site_label_2
_geom_bond_site_symmetry_1
_geom_bond_site_symmetry_2
Br1 C13 1_555 1_555
O1 C6 1_555 1_555
O2 N1 1_555 1_555
N1 C6 1_555 1_555
C1 C2 1_555 1_555
C2 H1 1_555 1_555
H2 C2 1_555 1_555
C3 C2 1_555 1_555
C4 C3 1_555 1_555
H3 C4 1_555 1_555
C5 C1 1_555 1_555
H4 C5 1_555 1_555
H5 C5 1_555 1_555
C6 C1 1_555 1_555
C7 C1 1_555 1_555
H6 C7 1_555 1_555
H7 C7 1_555 1_555
H8 C7 1_555 1_555
C8 N1 1_555 1_555
H9 C8 1_555 1_555
H10 C8 1_555 1_555
H11 C8 1_555 1_555
C9 O2 1_555 1_555
H12 C9 1_555 1_555
H13 C9 1_555 1_555
H14 C9 1_555 1_555
C10 C3 1_555 1_555
C11 C10 1_555 1_555
H15 C11 1_555 1_555
C12 C11 1_555 1_555
H16 C12 1_555 1_555
C13 C12 1_555 1_555
C14 C13 1_555 1_555
H17 C14 1_555 1_555
C15 C10 1_555 1_555
H18 C15 1_555 1_555
C4 C5 1_555 1_555
C14 C15 1_555 1_555

#END
