
#######################################################################
#
#                 Cambridge Crystallographic Data Centre
#                                CCDC 
#
#######################################################################
#
# If this CIF has been generated from an entry in the Cambridge 
# Structural Database, then it will include bibliographic, chemical, 
# crystal, experimental, refinement or atomic coordinate data resulting 
# from the CCDC's data processing and validation procedures.
#
#######################################################################

data_WIDXIT
_chemical_formula_moiety         'C25 H22 O6'
_chemical_name_systematic        
'[3-(3,5-dimethoxyphenyl)-2-(4-methoxyphenyl)-1-benzofuran-4-yl]acetic acid'
_symmetry_cell_setting           triclinic
_symmetry_space_group_name_H-M   'P -1'
_symmetry_Int_Tables_number      2
_space_group_name_Hall           '-P 1'
loop_
_symmetry_equiv_pos_site_id
_symmetry_equiv_pos_as_xyz
1 x,y,z
2 -x,-y,-z
_cell_length_a                   8.8812(8)
_cell_length_b                   9.5813(9)
_cell_length_c                   12.7292(8)
_cell_angle_alpha                80.195(7)
_cell_angle_beta                 88.225(6)
_cell_angle_gamma                85.940(7)
_cell_volume                     1064.47
_exptl_crystal_colour            colorless
_exptl_crystal_description       block
_cell_formula_units_Z            2
loop_
_atom_site_label
_atom_site_type_symbol
_atom_site_fract_x
_atom_site_fract_y
_atom_site_fract_z
O1 O 0.5306(2) 1.1163(2) 0.39341(13)
O2 O 0.7019(2) 1.0139(2) 0.51079(13)
H1 H 0.6277 0.9790 0.5419
O3 O 0.70969(17) 1.17731(17) -0.00241(11)
O4 O 0.7793(2) 0.6189(2) -0.20535(15)
O5 O 0.63233(18) 0.67719(18) 0.43716(13)
O6 O 1.15579(17) 0.72808(18) 0.37357(12)
C1 C 0.6596(3) 1.1017(3) 0.42485(18)
C2 C 0.7859(3) 1.1826(3) 0.36934(18)
H2 H 0.8734 1.1173 0.3646
H3 H 0.8127 1.2515 0.4120
C3 C 0.7472(3) 1.2592(3) 0.25909(19)
C4 C 0.7471(2) 1.1881(2) 0.17143(17)
C5 C 0.7058(2) 1.2644(2) 0.07238(18)
C6 C 0.6667(3) 1.4089(3) 0.0536(2)
H4 H 0.6415 1.4572 -0.0139
C7 C 0.6673(3) 1.4768(3) 0.1398(2)
H5 H 0.6419 1.5739 0.1310
C8 C 0.7055(3) 1.4039(3) 0.2401(2)
H6 H 0.7030 1.4535 0.2970
C9 C 0.7794(2) 1.0440(2) 0.15461(16)
C10 C 0.7558(2) 1.0421(2) 0.05039(16)
C11 C 0.7649(2) 0.9309(2) -0.01515(16)
C12 C 0.8786(3) 0.8234(3) -0.00279(18)
H7 H 0.9510 0.8223 0.0487
C13 C 0.8886(3) 0.7181(3) -0.06441(19)
H8 H 0.9665 0.6472 -0.0543
C14 C 0.7815(3) 0.7181(3) -0.14121(18)
C15 C 0.6662(3) 0.8241(3) -0.15468(18)
H9 H 0.5936 0.8241 -0.2058
C16 C 0.6576(3) 0.9289(3) -0.09308(17)
H10 H 0.5796 0.9996 -0.1032
C17 C 0.8984(4) 0.5138(4) -0.1999(3)
H11 H 0.9928 0.5576 -0.2100
H12 H 0.8876 0.4578 -0.2547
H13 H 0.8961 0.4539 -0.1313
C18 C 0.8233(2) 0.9192(2) 0.23777(15)
C19 C 0.7122(2) 0.8456(2) 0.29583(16)
H14 H 0.6115 0.8669 0.2780
C20 C 0.7509(2) 0.7391(2) 0.38128(16)
C21 C 0.8999(2) 0.7035(2) 0.40581(16)
H15 H 0.9256 0.6325 0.4630
C22 C 1.0115(2) 0.7748(2) 0.34450(16)
C23 C 0.9752(2) 0.8839(2) 0.26129(16)
H16 H 1.0506 0.9326 0.2215
C24 C 1.2767(3) 0.7859(3) 0.3075(2)
H17 H 1.2641 0.7707 0.2358
H18 H 1.3709 0.7399 0.3340
H19 H 1.2767 0.8858 0.3085
C25 C 0.6623(3) 0.5934(3) 0.5387(2)
H20 H 0.7235 0.5094 0.5298
H21 H 0.5688 0.5669 0.5738
H22 H 0.7148 0.6472 0.5813
loop_
_geom_bond_atom_site_label_1
_geom_bond_atom_site_label_2
_geom_bond_site_symmetry_1
_geom_bond_site_symmetry_2
O1 C1 1_555 1_555
O2 H1 1_555 1_555
O3 C5 1_555 1_555
O4 C14 1_555 1_555
O5 C20 1_555 1_555
O6 C22 1_555 1_555
C1 O2 1_555 1_555
C2 C1 1_555 1_555
H2 C2 1_555 1_555
H3 C2 1_555 1_555
C3 C2 1_555 1_555
C4 C3 1_555 1_555
C5 C4 1_555 1_555
C6 C5 1_555 1_555
H4 C6 1_555 1_555
C7 C6 1_555 1_555
H5 C7 1_555 1_555
C8 C3 1_555 1_555
H6 C8 1_555 1_555
C9 C4 1_555 1_555
C10 O3 1_555 1_555
C11 C10 1_555 1_555
C12 C11 1_555 1_555
H7 C12 1_555 1_555
C13 C12 1_555 1_555
H8 C13 1_555 1_555
C14 C13 1_555 1_555
C15 C14 1_555 1_555
H9 C15 1_555 1_555
C16 C11 1_555 1_555
H10 C16 1_555 1_555
C17 O4 1_555 1_555
H11 C17 1_555 1_555
H12 C17 1_555 1_555
H13 C17 1_555 1_555
C18 C9 1_555 1_555
C19 C18 1_555 1_555
H14 C19 1_555 1_555
C20 C19 1_555 1_555
C21 C20 1_555 1_555
H15 C21 1_555 1_555
C22 C21 1_555 1_555
C23 C18 1_555 1_555
H16 C23 1_555 1_555
C24 O6 1_555 1_555
H17 C24 1_555 1_555
H18 C24 1_555 1_555
H19 C24 1_555 1_555
C25 O5 1_555 1_555
H20 C25 1_555 1_555
H21 C25 1_555 1_555
H22 C25 1_555 1_555
C7 C8 1_555 1_555
C9 C10 1_555 1_555
C15 C16 1_555 1_555
C22 C23 1_555 1_555

#END
