
#######################################################################
#
#                 Cambridge Crystallographic Data Centre
#                                CCDC 
#
#######################################################################
#
# If this CIF has been generated from an entry in the Cambridge 
# Structural Database, then it will include bibliographic, chemical, 
# crystal, experimental, refinement or atomic coordinate data resulting 
# from the CCDC's data processing and validation procedures.
#
#######################################################################

data_WIDXOZ
_chemical_formula_moiety         'C17 H14 O4'
_chemical_name_systematic        
'[3-(3-methoxyphenyl)-1-benzofuran-4-yl]acetic acid'
_symmetry_cell_setting           triclinic
_symmetry_space_group_name_H-M   'P -1'
_symmetry_Int_Tables_number      2
_space_group_name_Hall           '-P 1'
loop_
_symmetry_equiv_pos_site_id
_symmetry_equiv_pos_as_xyz
1 x,y,z
2 -x,-y,-z
_cell_length_a                   5.5209(6)
_cell_length_b                   8.2754(7)
_cell_length_c                   15.9746(18)
_cell_angle_alpha                104.646(9)
_cell_angle_beta                 94.646(9)
_cell_angle_gamma                94.234(8)
_cell_volume                     700.433
_exptl_crystal_colour            yellow
_exptl_crystal_description       block
_cell_formula_units_Z            2
loop_
_atom_site_label
_atom_site_type_symbol
_atom_site_fract_x
_atom_site_fract_y
_atom_site_fract_z
O1 O -0.2502(3) -0.17098(19) 0.69686(11)
O2 O 0.3326(3) 0.31640(19) 0.96187(11)
O3 O 0.6757(3) 0.3976(2) 0.91485(12)
H1 H 0.6668 0.4832 0.9534
O4 O 0.5992(3) 0.2325(2) 0.52413(12)
C1 C 0.1006(4) -0.0324(2) 0.77465(13)
C2 C 0.4655(4) 0.2788(3) 0.59352(15)
C3 C -0.0866(4) -0.1587(3) 0.76829(14)
C4 C 0.4944(4) 0.2880(3) 0.91457(14)
C5 C 0.0430(4) 0.0386(3) 0.70222(14)
C6 C 0.2922(4) -0.0061(3) 0.84147(13)
C7 C 0.1811(4) 0.1798(3) 0.67990(14)
C8 C 0.3207(4) 0.1501(3) 0.61085(14)
H2 H 0.3174 0.0418 0.5754
C9 C 0.4680(4) 0.4409(3) 0.64436(16)
H3 H 0.5662 0.5279 0.6334
C10 C 0.5089(4) 0.1211(3) 0.85107(14)
H4 H 0.6536 0.0738 0.8691
H5 H 0.5295 0.1400 0.7945
C11 C -0.1055(5) -0.2569(3) 0.82580(16)
H6 H -0.2369 -0.3371 0.8206
C12 C 0.1794(4) 0.3439(3) 0.73042(15)
H7 H 0.0829 0.3670 0.7763
C13 C -0.1631(4) -0.0498(3) 0.65908(17)
H8 H -0.2391 -0.0309 0.6088
C14 C 0.2775(5) -0.1083(3) 0.89778(15)
H9 H 0.4037 -0.0960 0.9418
C15 C 0.0821(5) -0.2288(3) 0.89130(16)
H10 H 0.0785 -0.2914 0.9321
C16 C 0.3222(5) 0.4716(3) 0.71176(17)
H11 H 0.3203 0.5810 0.7454
C17 C 0.7912(5) 0.3478(4) 0.5141(2)
H12 H 0.7244 0.4451 0.5031
H13 H 0.8772 0.2956 0.4661
H14 H 0.9018 0.3805 0.5663
loop_
_geom_bond_atom_site_label_1
_geom_bond_atom_site_label_2
_geom_bond_site_symmetry_1
_geom_bond_site_symmetry_2
O1 C3 1_555 1_555
O2 C4 1_555 1_555
O3 H1 1_555 1_555
O4 C2 1_555 1_555
C1 C3 1_555 1_555
C2 C8 1_555 1_555
C3 C11 1_555 1_555
C4 O3 1_555 1_555
C5 C1 1_555 1_555
C6 C1 1_555 1_555
C7 C5 1_555 1_555
C8 C7 1_555 1_555
H2 C8 1_555 1_555
C9 C2 1_555 1_555
H3 C9 1_555 1_555
C10 C4 1_555 1_555
H4 C10 1_555 1_555
H5 C10 1_555 1_555
C11 H6 1_555 1_555
C12 C7 1_555 1_555
H7 C12 1_555 1_555
C13 O1 1_555 1_555
H8 C13 1_555 1_555
C14 C6 1_555 1_555
H9 C14 1_555 1_555
C15 C11 1_555 1_555
H10 C15 1_555 1_555
C16 C9 1_555 1_555
H11 C16 1_555 1_555
C17 O4 1_555 1_555
H12 C17 1_555 1_555
H13 C17 1_555 1_555
H14 C17 1_555 1_555
C5 C13 1_555 1_555
C6 C10 1_555 1_555
C12 C16 1_555 1_555
C14 C15 1_555 1_555

#END
