
#######################################################################
#
#                 Cambridge Crystallographic Data Centre
#                                CCDC 
#
#######################################################################
#
# If this CIF has been generated from an entry in the Cambridge 
# Structural Database, then it will include bibliographic, chemical, 
# crystal, experimental, refinement or atomic coordinate data resulting 
# from the CCDC's data processing and validation procedures.
#
#######################################################################

data_WIDYEQ
_chemical_formula_moiety         'C19 H15 N1 O5'
_chemical_name_systematic        
'[3-(4-methyl-3-oxo-3,4-dihydro-2H-1,4-benzoxazin-6-yl)-1-benzofuran-4-yl]acetic acid'
_symmetry_cell_setting           monoclinic
_symmetry_space_group_name_H-M   'P 21/c'
_symmetry_Int_Tables_number      14
_space_group_name_Hall           '-P 2ybc'
loop_
_symmetry_equiv_pos_site_id
_symmetry_equiv_pos_as_xyz
1 x,y,z
2 -x,1/2+y,1/2-z
3 -x,-y,-z
4 x,1/2-y,1/2+z
_cell_length_a                   10.6353(9)
_cell_length_b                   6.9276(6)
_cell_length_c                   22.9920(10)
_cell_angle_alpha                90
_cell_angle_beta                 103.335(2)
_cell_angle_gamma                90
_cell_volume                     1648.31
_exptl_crystal_colour            colorless
_cell_formula_units_Z            4
loop_
_atom_site_label
_atom_site_type_symbol
_atom_site_fract_x
_atom_site_fract_y
_atom_site_fract_z
O1 O -0.1633(2) 0.5412(3) 0.07727(10)
O2 O -0.4453(2) 0.2613(3) 0.01885(11)
O3 O 0.10606(19) -0.1462(3) 0.04440(9)
O4 O 0.1387(2) 0.1550(3) 0.01637(10)
H1 H 0.0639 0.1432 -0.0028
O5 O 0.2485(2) -0.2639(4) 0.27079(9)
N1 N -0.2572(2) 0.1680(3) 0.08254(11)
C1 C -0.3316(3) 0.2937(5) 0.04341(14)
C2 C -0.2655(3) 0.4747(5) 0.02879(15)
H2 H -0.2885 0.5370 -0.0080
C3 C -0.0797(3) 0.3970(4) 0.10433(13)
C4 C -0.1247(3) 0.2083(4) 0.10807(12)
C5 C -0.3147(3) -0.0127(5) 0.09628(17)
H3 H -0.4047 -0.0148 0.0766
H4 H -0.3055 -0.0229 0.1387
H5 H -0.2717 -0.1194 0.0825
C6 C -0.0403(3) 0.0702(4) 0.13858(12)
H6 H -0.0698 -0.0552 0.1412
C7 C 0.0885(3) 0.1156(4) 0.16561(12)
C8 C 0.1303(3) 0.3045(5) 0.16097(14)
H7 H 0.2150 0.3379 0.1789
C9 C 0.0474(3) 0.4433(5) 0.12997(14)
H8 H 0.0774 0.5679 0.1264
C10 C 0.1739(3) -0.0379(5) 0.19880(13)
C11 C 0.1607(3) -0.1175(5) 0.25031(14)
H9 H 0.0985 -0.0781 0.2703
C12 C 0.2806(3) -0.1431(4) 0.18306(12)
C13 C 0.3213(3) -0.2789(5) 0.22846(13)
C14 C 0.4180(3) -0.4122(5) 0.23025(15)
H10 H 0.4433 -0.4974 0.2621
C15 C 0.4754(3) -0.4125(5) 0.18211(15)
H11 H 0.5403 -0.5012 0.1808
C16 C 0.4365(3) -0.2796(5) 0.13496(14)
H12 H 0.4755 -0.2854 0.1027
C17 C 0.3424(3) -0.1406(4) 0.13458(12)
C18 C 0.3094(3) 0.0089(5) 0.08566(13)
H13 H 0.3215 0.1359 0.1039
H14 H 0.3701 -0.0035 0.0602
C19 C 0.1746(3) -0.0025(5) 0.04708(12)
loop_
_geom_bond_atom_site_label_1
_geom_bond_atom_site_label_2
_geom_bond_site_symmetry_1
_geom_bond_site_symmetry_2
O1 C2 1_555 1_555
O2 C1 1_555 1_555
O3 C19 1_555 1_555
O4 H1 1_555 1_555
O5 C11 1_555 1_555
N1 C1 1_555 1_555
C1 C2 1_555 1_555
C2 H2 1_555 1_555
C3 O1 1_555 1_555
C4 N1 1_555 1_555
C5 N1 1_555 1_555
H3 C5 1_555 1_555
H4 C5 1_555 1_555
H5 C5 1_555 1_555
C6 C4 1_555 1_555
H6 C6 1_555 1_555
C7 C6 1_555 1_555
C8 C7 1_555 1_555
H7 C8 1_555 1_555
C9 C3 1_555 1_555
H8 C9 1_555 1_555
C10 C7 1_555 1_555
C11 C10 1_555 1_555
H9 C11 1_555 1_555
C12 C10 1_555 1_555
C13 O5 1_555 1_555
C14 C13 1_555 1_555
H10 C14 1_555 1_555
C15 C14 1_555 1_555
H11 C15 1_555 1_555
C16 C15 1_555 1_555
H12 C16 1_555 1_555
C17 C12 1_555 1_555
C18 C17 1_555 1_555
H13 C18 1_555 1_555
H14 C18 1_555 1_555
C19 O4 1_555 1_555
C3 C4 1_555 1_555
C8 C9 1_555 1_555
C12 C13 1_555 1_555
C16 C17 1_555 1_555
C18 C19 1_555 1_555

#END
