
#######################################################################
#
#                 Cambridge Crystallographic Data Centre
#                                CCDC 
#
#######################################################################
#
# If this CIF has been generated from an entry in the Cambridge 
# Structural Database, then it will include bibliographic, chemical, 
# crystal, experimental, refinement or atomic coordinate data resulting 
# from the CCDC's data processing and validation procedures.
#
#######################################################################

data_WIFBUI
_chemical_formula_moiety         'C10 H26 N4 2+,2(C11 H13 O2 1-),2(C11 H14 O2)'
_chemical_name_systematic        
'1,4,8,11-Tetra-azacyclotetradecane bis(t-butylbenzoic acid) clathrate t-butylbenzoic acid solvate'
_symmetry_cell_setting           triclinic
_symmetry_space_group_name_H-M   'P -1'
_symmetry_Int_Tables_number      2
_space_group_name_Hall           '-P 1'
loop_
_symmetry_equiv_pos_site_id
_symmetry_equiv_pos_as_xyz
1 x,y,z
2 -x,-y,-z
_cell_length_a                   9.108(4)
_cell_length_b                   9.798(5)
_cell_length_c                   17.406(9)
_cell_angle_alpha                77.64(4)
_cell_angle_beta                 75.32(4)
_cell_angle_gamma                63.34(5)
_cell_volume                     1333.78
_exptl_crystal_colour            colorless
_cell_formula_units_Z            1
loop_
_atom_site_label
_atom_site_type_symbol
_atom_site_fract_x
_atom_site_fract_y
_atom_site_fract_z
N1 N 0.2705(4) 0.1269(5) 0.5023(2)
N2 N 0.4541(6) -0.1856(6) 0.4985(3)
C1 C 0.1888(7) 0.0478(11) 0.4865(3)
C2 C 0.2625(9) -0.1050(10) 0.5232(3)
C3 C 0.5372(12) -0.3327(9) 0.5368(4)
C4 C 0.7219(14) -0.3814(7) 0.5092(4)
C5 C 0.1982(8) 0.2935(10) 0.4654(3)
H1 H 0.35262 0.09857 0.4867
H2 H 0.49578 -0.20995 0.45666
H3 H 0.52053 -0.32593 0.59261
H4 H 0.19662 0.06350 0.42968
H5 H 0.29107 -0.15838 0.57141
H6 H 0.23829 -0.15788 0.51515
H7 H 0.73958 -0.44804 0.52659
H8 H 0.76129 -0.38313 0.44623
H9 H 0.22559 0.31836 0.41267
H10 H 0.11294 0.34290 0.48305
C5A C 0.8018(8) -0.2935(10) 0.5346(3)
C4A C 0.2781(14) 0.3814(7) 0.4908(4)
N1A N 0.7295(4) -0.1269(5) 0.4977(2)
H9A H 0.77441 -0.31836 0.58733
H10A H 0.88706 -0.34290 0.51695
C3A C 0.4628(12) 0.3327(9) 0.4632(4)
H7A H 0.26042 0.44804 0.47341
H8A H 0.23871 0.38313 0.55377
C1A C 0.8112(7) -0.0478(11) 0.5135(3)
H1A H 0.64738 -0.09857 0.5133
N2A N 0.5459(6) 0.1856(6) 0.5015(3)
H3A H 0.47947 0.32593 0.40739
C2A C 0.7375(9) 0.1050(10) 0.4768(3)
H4A H 0.80338 -0.06350 0.57032
H2A H 0.50422 0.20995 0.54334
H5A H 0.70893 0.15838 0.42859
H6A H 0.76171 0.15788 0.48485
O1 O 0.0770(3) 0.7194(3) 0.29068(19)
O2 O 0.1223(4) 0.8583(5) 0.3583(2)
C6 C 0.3555(5) 0.6620(5) 0.2911(2)
C7 C 0.4693(5) 0.7133(5) 0.2982(3)
C8 C 0.6383(5) 0.6290(5) 0.2755(3)
C9 C 0.6993(5) 0.4912(5) 0.2446(2)
C10 C 0.5832(5) 0.4414(4) 0.2374(3)
C11 C 0.4161(5) 0.5250(5) 0.2594(3)
C12 C 0.1738(5) 0.7578(5) 0.3168(3)
C13 C 0.8879(5) 0.3991(5) 0.2176(3)
C14 C 0.966(2) 0.2196(14) 0.2500(13)
C15 C 0.9254(15) 0.3737(16) 0.1240(9)
C16 C 0.9948(15) 0.4717(19) 0.2309(14)
H11 H 0.42538 0.80983 0.31756
H12 H 0.71072 0.66638 0.27745
H13 H 0.62209 0.34968 0.21566
H14 H 0.34368 0.49212 0.25424
H15 H -0.01094 0.76709 0.30157
H16 H 0.89583 0.17543 0.25088
H17 H 0.95743 0.27375 0.27421
H18 H 0.8941 0.29770 0.14022
H19 H 0.91623 0.46741 0.11443
H21 H 0.95227 0.58417 0.17807
H22 H 1.054 0.46324 0.17312
O3 O 0.2391(3) 0.1193(3) 0.66400(15)
O4 O 0.5012(3) -0.0509(3) 0.64327(16)
C20 C 0.3657(4) -0.0290(4) 0.7776(2)
C21 C 0.5057(5) -0.1369(5) 0.8053(2)
C22 C 0.5059(5) -0.1844(5) 0.8853(3)
C23 C 0.3666(5) -0.1256(4) 0.9421(2)
C24 C 0.2265(5) -0.0154(5) 0.9139(3)
C25 C 0.2247(5) 0.0324(5) 0.8337(2)
C26 C 0.3696(5) 0.0157(5) 0.6888(2)
C27 C 0.3614(5) -0.1845(5) 1.0317(2)
C28 C 0.5343(6) -0.2598(6) 1.0530(3)
C29 C 0.2568(7) -0.0520(6) 1.0828(3)
C30 C 0.2816(6) -0.2965(6) 1.0525(3)
H23 H 0.59154 -0.17997 0.77100
H24 H 0.59621 -0.25313 0.89995
H25 H 0.13758 0.03021 0.94956
H26 H 0.12824 0.10631 0.81746
H27 H 0.59545 -0.19163 1.03653
H28 H 0.52899 -0.29462 1.10618
H29 H 0.58925 -0.35344 1.02930
H30 H 0.31138 0.02799 1.06472
H31 H 0.14862 0.00332 1.07667
H32 H 0.2561 -0.08487 1.13668
H33 H 0.16719 -0.25773 1.04033
H34 H 0.33689 -0.38097 1.01700
H35 H 0.27804 -0.35210 1.10901
C17? C 0.964(16) 0.3606(17) 0.2987(11)
C18? C 0.9488(13) 0.4995(15) 0.1536(9)
C19? C 0.9257(10) 0.2469(12) 0.2058(9)
H20? H 0.96477 0.41754 0.30780
loop_
_geom_bond_atom_site_label_1
_geom_bond_atom_site_label_2
_geom_bond_site_symmetry_1
_geom_bond_site_symmetry_2
N1 C1 1_555 1_555
N2 C2 1_555 1_555
C1 C2 1_555 1_555
C2 H5 1_555 1_555
C3 N2 1_555 1_555
C4 C3 1_555 1_555
C5 N1 1_555 1_555
O1 C12 1_555 1_555
O2 C12 1_555 1_555
C6 C7 1_555 1_555
C7 C8 1_555 1_555
C8 C9 1_555 1_555
C9 C10 1_555 1_555
C10 C11 1_555 1_555
C11 C6 1_555 1_555
C12 C6 1_555 1_555
C13 C9 1_555 1_555
C14 C13 1_555 1_555
C15 C13 1_555 1_555
C16 C13 1_555 1_555
O3 C26 1_555 1_555
O4 C26 1_555 1_555
C20 C21 1_555 1_555
C21 C22 1_555 1_555
C22 C23 1_555 1_555
C23 C24 1_555 1_555
C24 C25 1_555 1_555
C25 C20 1_555 1_555
C26 C20 1_555 1_555
C27 C23 1_555 1_555
C28 C27 1_555 1_555
C29 C27 1_555 1_555
C30 C27 1_555 1_555
H1 N1 1_555 1_555
H2 N2 1_555 1_555
H3 C3 1_555 1_555
H4 C1 1_555 1_555
H6 C2 1_555 1_555
H7 C4 1_555 1_555
H8 C4 1_555 1_555
H9 C5 1_555 1_555
H10 C5 1_555 1_555
H11 C7 1_555 1_555
H12 C8 1_555 1_555
H13 C10 1_555 1_555
H14 C11 1_555 1_555
H15 O1 1_555 1_555
H16 C14 1_555 1_555
H17 C14 1_555 1_555
H18 C15 1_555 1_555
H19 C15 1_555 1_555
H21 C16 1_555 1_555
H22 C16 1_555 1_555
H23 C21 1_555 1_555
H24 C22 1_555 1_555
H25 C24 1_555 1_555
H26 C25 1_555 1_555
H27 C28 1_555 1_555
H28 C28 1_555 1_555
H29 C28 1_555 1_555
H30 C29 1_555 1_555
H31 C29 1_555 1_555
H32 C29 1_555 1_555
H33 C30 1_555 1_555
H34 C30 1_555 1_555
H35 C30 1_555 1_555
C5A C4 1_555 1_555
C4A C5 1_555 1_555
N1A C5A 1_555 1_555
H9A C5A 1_555 1_555
H10A C5A 1_555 1_555
C3A C4A 1_555 1_555
H7A C4A 1_555 1_555
H8A C4A 1_555 1_555
C1A N1A 1_555 1_555
H1A N1A 1_555 1_555
N2A C3A 1_555 1_555
H3A C3A 1_555 1_555
C2A C1A 1_555 1_555
H4A C1A 1_555 1_555
H2A N2A 1_555 1_555
H5A C2A 1_555 1_555
H6A C2A 1_555 1_555
N2A C2A 1_555 1_555

#END
