
#######################################################################
#
#                 Cambridge Crystallographic Data Centre
#                                CCDC 
#
#######################################################################
#
# If this CIF has been generated from an entry in the Cambridge 
# Structural Database, then it will include bibliographic, chemical, 
# crystal, experimental, refinement or atomic coordinate data resulting 
# from the CCDC's data processing and validation procedures.
#
#######################################################################

data_WIFBEV
_chemical_formula_moiety         'C32 H26 Cl1 N3 O4 S1,C1 H4 O1'
_chemical_name_systematic        
"5-chloro-1-ethyl-1''-methyl-7'-(4-oxo-4H-1-benzopyran-3-yl)-7',7a'-dihydro-1'H,3'H-dispiro[indole-3,5'-pyrrolo[1,2-c][1,3]thiazole-6',3''-indole]-2,2''(1H,1''H)-dione methanol solvate"
_symmetry_cell_setting           monoclinic
_symmetry_space_group_name_H-M   'P 21/n'
_symmetry_Int_Tables_number      14
_space_group_name_Hall           '-P 2yn'
loop_
_symmetry_equiv_pos_site_id
_symmetry_equiv_pos_as_xyz
1 x,y,z
2 1/2-x,1/2+y,1/2-z
3 -x,-y,-z
4 1/2+x,1/2-y,1/2+z
_cell_length_a                   17.5683(18)
_cell_length_b                   10.2632(10)
_cell_length_c                   18.1257(18)
_cell_angle_alpha                90
_cell_angle_beta                 116.6370(10)
_cell_angle_gamma                90
_cell_volume                     2921.32
_exptl_crystal_colour            colorless
_exptl_crystal_description       block
_cell_formula_units_Z            4
loop_
_atom_site_label
_atom_site_type_symbol
_atom_site_fract_x
_atom_site_fract_y
_atom_site_fract_z
Cl1 Cl 0.33059(2) 1.12261(3) 0.20843(2)
S1 S 0.08869(2) 0.85386(3) -0.00063(2)
O1 O 0.27602(5) 0.66783(9) -0.23144(5)
O2 O 0.37586(7) 0.91903(10) -0.03541(6)
O3 O 0.24523(5) 0.42932(9) -0.04844(5)
O4 O 0.26617(6) 0.39998(8) 0.12669(6)
C1 C 0.31747(7) 0.62179(10) 0.03943(7)
N1 N 0.33219(6) 0.55177(9) 0.22829(6)
N2 N 0.17763(6) 0.63362(9) 0.02659(6)
C2 C 0.41212(8) 0.85440(13) -0.29421(8)
H1 H 0.4260 0.8578 -0.3392
C3 C 0.35279(8) 0.76519(13) -0.29514(7)
H2 H 0.3257 0.7072 -0.3403
C4 C 0.33335(7) 0.76185(12) -0.22848(7)
C5 C 0.37090(7) 0.84762(11) -0.16210(7)
C6 C 0.34825(8) 0.84154(12) -0.09315(7)
C7 C 0.29009(7) 0.73450(11) -0.09887(7)
C8 C 0.26653(7) 0.72156(10) -0.02887(6)
H3 H 0.2767 0.8087 -0.0014
C9 C 0.26576(7) 0.63325(10) 0.09169(7)
C10 C 0.28541(7) 0.51220(11) 0.14867(7)
C11 C 0.37066(8) 0.45969(12) 0.29649(7)
H4 H 0.3320 0.3845 0.2866
H5 H 0.3785 0.5025 0.3484
C12 C 0.45606(8) 0.41171(14) 0.30552(9)
H6 H 0.4483 0.3685 0.2544
H7 H 0.4802 0.3498 0.3514
H8 H 0.4948 0.4858 0.3166
C13 C 0.25842(7) 0.65694(12) -0.16584(7)
H9 H 0.2208 0.5893 -0.1674
C14 C 0.43128(8) 0.93708(13) -0.16229(8)
H10 H 0.4581 0.9960 -0.1176
C15 C 0.45184(8) 0.93945(13) -0.22775(8)
H11 H 0.4932 0.9994 -0.2273
C16 C 0.41300(7) 0.63552(11) 0.08834(7)
C17 C 0.45074(7) 0.51653(11) 0.08560(7)
N3 N 0.38864(6) 0.42725(10) 0.03599(7)
C18 C 0.30938(7) 0.48170(11) 0.00289(7)
C19 C 0.40556(9) 0.29384(13) 0.02037(10)
H12 H 0.3525 0.2534 -0.0197
H13 H 0.4283 0.2443 0.0721
H14 H 0.4472 0.2940 -0.0018
C20 C 0.53791(8) 0.49700(13) 0.12608(9)
H15 H 0.5623 0.4159 0.1229
C21 C 0.58869(8) 0.60031(14) 0.17168(10)
H16 H 0.6486 0.5890 0.2013
C22 C 0.55268(8) 0.71956(13) 0.17436(9)
H17 H 0.5883 0.7892 0.2053
C23 C 0.46434(7) 0.73851(12) 0.13190(7)
H18 H 0.4401 0.8208 0.1330
C24 C 0.11146(7) 0.68877(12) 0.04402(7)
H19 H 0.1308 0.6929 0.1044
H20 H 0.0595 0.6342 0.0191
C25 C 0.11031(8) 0.79918(14) -0.08427(8)
H21 H 0.0570 0.7703 -0.1315
H22 H 0.1350 0.8711 -0.1030
C26 C 0.17382(7) 0.68480(11) -0.05167(7)
H23 H 0.1551 0.6136 -0.0938
C27 C 0.29818(6) 0.74362(10) 0.15478(6)
C28 C 0.29573(7) 0.87845(11) 0.14697(7)
H24 H 0.2672 0.9186 0.0943
C29 C 0.33632(7) 0.95367(11) 0.21864(7)
C30 C 0.37866(8) 0.89786(12) 0.29631(7)
H25 H 0.4061 0.9516 0.3437
C31 C 0.38091(7) 0.76233(12) 0.30464(7)
H26 H 0.4096 0.7223 0.3573
C32 C 0.34010(7) 0.68816(11) 0.23378(7)
O5 O 0.09275(7) 0.34416(12) -0.01123(7)
H27 H 0.1323(15) 0.396(2) 0.0034(14)
C33 C 0.12994(9) 0.21729(16) 0.00219(9)
H28 H 0.1538 0.2021 -0.0366
H29 H 0.0862 0.1517 -0.0064
H30 H 0.1753 0.2110 0.0589
loop_
_geom_bond_atom_site_label_1
_geom_bond_atom_site_label_2
_geom_bond_site_symmetry_1
_geom_bond_site_symmetry_2
Cl1 C29 1_555 1_555
S1 C24 1_555 1_555
O1 C4 1_555 1_555
O2 C6 1_555 1_555
O3 C18 1_555 1_555
O4 C10 1_555 1_555
C1 C8 1_555 1_555
N1 C10 1_555 1_555
N2 C9 1_555 1_555
C2 H1 1_555 1_555
C3 C2 1_555 1_555
H2 C3 1_555 1_555
C4 C3 1_555 1_555
C5 C4 1_555 1_555
C6 C5 1_555 1_555
C7 C6 1_555 1_555
C8 C7 1_555 1_555
H3 C8 1_555 1_555
C9 C1 1_555 1_555
C10 C9 1_555 1_555
C11 N1 1_555 1_555
H4 C11 1_555 1_555
H5 C11 1_555 1_555
C12 C11 1_555 1_555
H6 C12 1_555 1_555
H7 C12 1_555 1_555
H8 C12 1_555 1_555
C13 O1 1_555 1_555
H9 C13 1_555 1_555
C14 C5 1_555 1_555
H10 C14 1_555 1_555
C15 C2 1_555 1_555
H11 C15 1_555 1_555
C16 C1 1_555 1_555
C17 C16 1_555 1_555
N3 C17 1_555 1_555
C18 C1 1_555 1_555
C19 N3 1_555 1_555
H12 C19 1_555 1_555
H13 C19 1_555 1_555
H14 C19 1_555 1_555
C20 C17 1_555 1_555
H15 C20 1_555 1_555
C21 C20 1_555 1_555
H16 C21 1_555 1_555
C22 C21 1_555 1_555
H17 C22 1_555 1_555
C23 C16 1_555 1_555
H18 C23 1_555 1_555
C24 N2 1_555 1_555
H19 C24 1_555 1_555
H20 C24 1_555 1_555
C25 S1 1_555 1_555
H21 C25 1_555 1_555
H22 C25 1_555 1_555
C26 N2 1_555 1_555
H23 C26 1_555 1_555
C27 C9 1_555 1_555
C28 C27 1_555 1_555
H24 C28 1_555 1_555
C29 C28 1_555 1_555
C30 C29 1_555 1_555
H25 C30 1_555 1_555
C31 C30 1_555 1_555
H26 C31 1_555 1_555
C32 N1 1_555 1_555
O5 H27 1_555 1_555
C33 O5 1_555 1_555
H28 C33 1_555 1_555
H29 C33 1_555 1_555
H30 C33 1_555 1_555
C7 C13 1_555 1_555
C8 C26 1_555 1_555
C14 C15 1_555 1_555
N3 C18 1_555 1_555
C22 C23 1_555 1_555
C25 C26 1_555 1_555
C27 C32 1_555 1_555
C31 C32 1_555 1_555

#END
