
#######################################################################
#
#                 Cambridge Crystallographic Data Centre
#                                CCDC 
#
#######################################################################
#
# If this CIF has been generated from an entry in the Cambridge 
# Structural Database, then it will include bibliographic, chemical, 
# crystal, experimental, refinement or atomic coordinate data resulting 
# from the CCDC's data processing and validation procedures.
#
#######################################################################

data_WIFBUI01
_chemical_formula_moiety         'C10 H26 N4 2+,2(C11 H13 O2 1-),2(C11 H14 O2)'
_chemical_name_systematic        
'1,4,8,11-Tetra-azacyclotetradecane bis(t-butylbenzoic acid) clathrate t-butylbenzoic acid solvate'
_symmetry_cell_setting           triclinic
_symmetry_space_group_name_H-M   'P -1'
_symmetry_Int_Tables_number      2
_space_group_name_Hall           '-P 1'
loop_
_symmetry_equiv_pos_site_id
_symmetry_equiv_pos_as_xyz
1 x,y,z
2 -x,-y,-z
_cell_length_a                   9.108(4)
_cell_length_b                   9.798(5)
_cell_length_c                   17.406(9)
_cell_angle_alpha                77.64(4)
_cell_angle_beta                 75.32(4)
_cell_angle_gamma                63.34(9)
_cell_volume                     1333.78
_exptl_crystal_colour            colorless
_cell_formula_units_Z            1
loop_
_atom_site_label
_atom_site_type_symbol
_atom_site_fract_x
_atom_site_fract_y
_atom_site_fract_z
O1 O 0.2390(7) 0.1201(7) 0.6644(3)
O2 O 0.4998(7) -0.0498(8) 0.6433(3)
C1 C 0.3657(5) -0.0287(5) 0.7775(2)
C2 C 0.5083(6) -0.1390(6) 0.8046(3)
C3 C 0.5085(6) -0.1868(6) 0.8859(3)
C4 C 0.3654(5) -0.1259(5) 0.9431(2)
C5 C 0.2237(6) -0.0146(6) 0.9149(3)
C6 C 0.2231(6) 0.0334(6) 0.8327(3)
C7 C 0.3692(5) 0.0161(5) 0.6887(2)
C8 C 0.3589(6) -0.1834(6) 1.0320(3)
C9 C 0.5354(10) -0.2637(14) 1.0536(5)
C10 C 0.2547(12) -0.0536(9) 1.0843(4)
C11 C 0.2799(11) -0.2973(11) 1.0530(5)
H1 H 0.6194(14) -0.1854(17) 0.7622(7)
H2 H 0.6228(14) -0.2696(18) 0.9034(7)
H3 H 0.1127(16) 0.034(2) 0.9563(7)
H4 H 0.1089(15) 0.1186(17) 0.8145(6)
H5 H 0.610(2) -0.363(2) 1.0268(11)
H6 H 0.5257(17) -0.2984(18) 1.1166(8)
H7 H 0.594(2) -0.187(2) 1.0388(11)
H8 H 0.309(3) 0.033(2) 1.0691(10)
H9 H 0.259(2) -0.0925(19) 1.1440(11)
H10 H 0.125(2) 0.003(2) 1.0769(9)
H11 H 0.268(2) -0.337(2) 1.1149(11)
H12 H 0.353(3) -0.3956(19) 1.0188(13)
H13 H 0.157(2) -0.2448(18) 1.0400(10)
O3 O 0.9249(9) 0.2791(9) 0.7097(4)
O4 O 0.8786(8) 0.1410(11) 0.6411(5)
C12 C 0.6450(5) 0.3377(5) 0.7088(3)
C13 C 0.5305(6) 0.2832(7) 0.7025(3)
C14 C 0.3602(6) 0.3702(6) 0.7252(3)
C15 C 0.2996(5) 0.5088(5) 0.7557(3)
C16 C 0.4156(6) 0.5605(6) 0.7629(3)
C17 C 0.5869(6) 0.4756(6) 0.7407(3)
C18 C 0.8268(6) 0.2433(6) 0.6829(3)
C19 C 0.1138(6) 0.5998(6) 0.7822(3)
C20 C 0.0577(17) 0.7574(14) 0.7729(17)
C21 C 0.0092(15) 0.568(3) 0.751(3)
C22 C 0.0605(18) 0.551(4) 0.8570(17)
H14 H 0.5776(14) 0.1755(16) 0.6806(8)
H15 H 0.2754(15) 0.3247(14) 0.7205(8)
H16 H 0.3748(13) 0.6665(14) 0.7875(8)
H17 H 0.6723(14) 0.5151(13) 0.7461(8)
H18 H 1.0466(15) 0.2084(14) 0.6923(6)
H19 H 0.116(2) 0.745(3) 0.818(2)
H20 H -0.066(3) 0.822(3) 0.789(2)
H22 H -0.115(3) 0.657(5) 0.752(4)
H23 H 0.028(3) 0.522(4) 0.6995(19)
H24 H 0.115(3) 0.500(5) 0.9037(14)
H26 H -0.072(3) 0.616(6) 0.880(2)
N1 N 0.4536(7) 0.8112(6) 0.4978(3)
N2 N 0.2724(6) 1.1255(6) 0.5007(3)
C23 C 0.1848(12) 1.0489(14) 0.4847(6)
C24 C 0.2643(10) 0.8893(13) 0.5231(4)
C25 C 0.5367(17) 0.6654(12) 0.5407(8)
C26 C 0.7199(14) 0.6101(12) 0.5088(7)
C27 C 0.1964(10) 1.2962(10) 0.4666(4)
H27 H 0.3915(16) 1.0821(14) 0.4745(7)
H28 H 0.2706(14) 1.1170(15) 0.5611(8)
H29 H 0.2026(18) 1.044(3) 0.4237(11)
H30 H 0.072(3) 1.090(3) 0.5082(11)
H31 H 0.250(2) 0.879(2) 0.5915(9)
H32 H 0.211(3) 0.818(3) 0.5093(14)
H33 H 0.4815(19) 0.804(2) 0.4393(9)
H34 H 0.506(3) 0.678(2) 0.5988(14)
H35 H 0.487(5) 0.594(3) 0.5330(14)
H36 H 0.763(4) 0.500(3) 0.5352(13)
H37 H 0.758(3) 0.605(2) 0.4506(14)
H38 H 0.228(3) 1.296(2) 0.4003(9)
H39 H 0.064(2) 1.339(4) 0.4896(14)
C27A C 0.8036(10) 0.7038(10) 0.5334(4)
C26A C 0.2801(14) 1.3899(12) 0.4912(7)
N2A N 0.7276(6) 0.8745(6) 0.4993(3)
H38A H 0.772(3) 0.704(2) 0.5997(9)
H39A H 0.936(2) 0.661(4) 0.5104(14)
C25A C 0.4633(17) 1.3346(12) 0.4593(8)
H36A H 0.237(4) 1.500(3) 0.4648(13)
H37A H 0.242(3) 1.395(2) 0.5494(14)
C23A C 0.8152(12) 0.9511(14) 0.5153(6)
H27A H 0.6085(16) 0.9179(14) 0.5255(7)
H28A H 0.7294(14) 0.8830(15) 0.4389(8)
N1A N 0.5464(7) 1.1888(6) 0.5022(3)
H34A H 0.494(3) 1.322(2) 0.4012(14)
H35A H 0.513(5) 1.406(3) 0.4670(14)
C24A C 0.7357(10) 1.1107(13) 0.4769(4)
H29A H 0.7974(18) 0.956(3) 0.5763(11)
H30A H 0.928(3) 0.910(3) 0.4918(11)
H33A H 0.5185(19) 1.196(2) 0.5607(9)
H31A H 0.750(2) 1.121(2) 0.4085(9)
H32A H 0.789(3) 1.182(3) 0.4907(14)
H21? H 0.088(3) 0.776(5) 0.694(3)
H25? H 0.965(2) 0.5846(19) 0.1832(18)
loop_
_geom_bond_atom_site_label_1
_geom_bond_atom_site_label_2
_geom_bond_site_symmetry_1
_geom_bond_site_symmetry_2
O1 C7 1_555 1_555
O2 C7 1_555 1_555
C1 C2 1_555 1_555
C2 C3 1_555 1_555
C3 C4 1_555 1_555
C4 C5 1_555 1_555
C5 C6 1_555 1_555
C6 C1 1_555 1_555
C7 C1 1_555 1_555
C8 C4 1_555 1_555
C9 C8 1_555 1_555
C10 C8 1_555 1_555
C11 C8 1_555 1_555
O3 C18 1_555 1_555
O4 C18 1_555 1_555
C12 C13 1_555 1_555
C13 C14 1_555 1_555
C14 C15 1_555 1_555
C15 C16 1_555 1_555
C16 C17 1_555 1_555
C17 C12 1_555 1_555
C18 C12 1_555 1_555
C19 C15 1_555 1_555
C20 C19 1_555 1_555
C21 C19 1_555 1_555
C22 C19 1_555 1_555
N1 C24 1_555 1_555
N2 C23 1_555 1_555
C23 C24 1_555 1_555
C24 H31 1_555 1_555
C25 N1 1_555 1_555
C26 C25 1_555 1_555
C27 N2 1_555 1_555
H1 C2 1_555 1_555
H2 C3 1_555 1_555
H3 C5 1_555 1_555
H4 C6 1_555 1_555
H5 C9 1_555 1_555
H6 C9 1_555 1_555
H7 C9 1_555 1_555
H8 C10 1_555 1_555
H9 C10 1_555 1_555
H10 C10 1_555 1_555
H11 C11 1_555 1_555
H12 C11 1_555 1_555
H13 C11 1_555 1_555
H14 C13 1_555 1_555
H15 C14 1_555 1_555
H16 C16 1_555 1_555
H17 C17 1_555 1_555
H18 O3 1_555 1_555
H19 C20 1_555 1_555
H20 C20 1_555 1_555
H22 C21 1_555 1_555
H23 C21 1_555 1_555
H24 C22 1_555 1_555
H26 C22 1_555 1_555
H27 N2 1_555 1_555
H28 N2 1_555 1_555
H29 C23 1_555 1_555
H30 C23 1_555 1_555
H32 C24 1_555 1_555
H33 N1 1_555 1_555
H34 C25 1_555 1_555
H35 C25 1_555 1_555
H36 C26 1_555 1_555
H37 C26 1_555 1_555
H38 C27 1_555 1_555
H39 C27 1_555 1_555
C27A C26 1_555 1_555
C26A C27 1_555 1_555
N2A C27A 1_555 1_555
H38A C27A 1_555 1_555
H39A C27A 1_555 1_555
C25A C26A 1_555 1_555
H36A C26A 1_555 1_555
H37A C26A 1_555 1_555
C23A N2A 1_555 1_555
H27A N2A 1_555 1_555
H28A N2A 1_555 1_555
N1A C25A 1_555 1_555
H34A C25A 1_555 1_555
H35A C25A 1_555 1_555
C24A C23A 1_555 1_555
H29A C23A 1_555 1_555
H30A C23A 1_555 1_555
H33A N1A 1_555 1_555
H31A C24A 1_555 1_555
H32A C24A 1_555 1_555
N1A C24A 1_555 1_555

#END
