
#######################################################################
#
#                 Cambridge Crystallographic Data Centre
#                                CCDC 
#
#######################################################################
#
# If this CIF has been generated from an entry in the Cambridge 
# Structural Database, then it will include bibliographic, chemical, 
# crystal, experimental, refinement or atomic coordinate data resulting 
# from the CCDC's data processing and validation procedures.
#
#######################################################################

data_WIFCEW
_chemical_formula_moiety         'C20 H29 N7 O8,2(H2 O1)'
_chemical_name_systematic        
'[(2-aminocyclopentane-1-carbonyl)amino][6-(2-amino-9H-purin-9-yl)-4-(1,2-dihydroxyethyl)-4,5-dihydroxyoxan-2-yl]acetic acid dihydrate'
_symmetry_cell_setting           monoclinic
_symmetry_space_group_name_H-M   'P 21'
_symmetry_Int_Tables_number      4
_space_group_name_Hall           'P 2yb'
loop_
_symmetry_equiv_pos_site_id
_symmetry_equiv_pos_as_xyz
1 x,y,z
2 -x,1/2+y,-z
_cell_length_a                   11.0514(4)
_cell_length_b                   5.7373(3)
_cell_length_c                   18.6747(8)
_cell_angle_alpha                90
_cell_angle_beta                 97.011(3)
_cell_angle_gamma                90
_cell_volume                     1175.22
_exptl_crystal_colour            colorless
_exptl_crystal_description       block
_cell_formula_units_Z            2
loop_
_atom_site_label
_atom_site_type_symbol
_atom_site_fract_x
_atom_site_fract_y
_atom_site_fract_z
C1 C 0.7746(5) 0.9882(11) 0.1357(3)
C2 C 0.8243(5) 0.6617(12) 0.2044(3)
H1 H 0.8809 0.5523 0.2242
C3 C 0.7042(5) 0.6458(11) 0.2180(3)
C4 C 0.6251(5) 0.8127(10) 0.1844(3)
C5 C 0.5313(6) 0.5723(13) 0.2504(4)
H2 H 0.4690 0.5052 0.2726
C6 C 0.4020(5) 0.9048(10) 0.1924(3)
H3 H 0.4179 1.0443 0.1647
C7 C 0.2967(5) 0.7674(10) 0.1522(3)
H4 H 0.2829 0.6346 0.1832
C8 C 0.1777(5) 0.9136(9) 0.1456(3)
C9 C 0.1817(5) 1.1427(10) 0.1015(3)
H5 H 0.2549 1.2302 0.1202
C10 C 0.1774(5) 1.1218(11) 0.0202(3)
H6 H 0.1092 1.0229 0.0021
H7 H 0.1629 1.2749 -0.0011
C11 C 0.2639(5) 1.0977(10) 0.2631(3)
H8 H 0.2717 1.2468 0.2385
C12 C 0.1563(5) 0.9658(10) 0.2231(3)
H9 H 0.1445 0.8208 0.2480
H10 H 0.0828 1.0584 0.2230
C13 C 0.2558(5) 1.1480(10) 0.3424(3)
H11 H 0.3265 1.2438 0.3603
C14 C 0.1415(6) 1.2942(11) 0.3482(3)
C15 C 0.2767(5) 0.9494(11) 0.4568(3)
C16 C 0.2989(5) 0.7262(11) 0.4989(3)
H12 H 0.3048 0.5986 0.4646
C17 C 0.4172(6) 0.7323(13) 0.5512(3)
H13 H 0.4870 0.6939 0.5266
H14 H 0.4298 0.8847 0.5733
C18 C 0.3977(7) 0.5518(14) 0.6061(4)
H15 H 0.4215 0.3990 0.5906
H16 H 0.4447 0.5880 0.6521
C19 C 0.2643(7) 0.559(2) 0.6123(4)
H17 H 0.2343 0.4020 0.6184
H18 H 0.2497 0.6502 0.6541
C20 C 0.2011(6) 0.6609(12) 0.5481(4)
H19 H 0.1292 0.5773 0.5253
N1 N 0.1014(9) 0.8327(17) 0.5380(5)
H20 H 0.0717 0.8886 0.5749
H21 H 0.0730 0.8771 0.4953
N2 N 0.2632(4) 0.9332(9) 0.3846(2)
N3 N 0.5128(4) 0.7634(9) 0.2052(2)
N4 N 0.6416(5) 0.4939(11) 0.2595(3)
N5 N 0.6544(4) 0.9891(8) 0.1435(2)
N6 N 0.8593(4) 0.8309(9) 0.1635(3)
N7 N 0.8156(4) 1.1596(10) 0.0966(3)
H22 H 0.7662 1.2647 0.0776
H23 H 0.8914 1.1649 0.0904
O1 O 0.2742(4) 1.1370(8) 0.4882(2)
O2 O 0.0467(4) 1.2000(8) 0.3651(2)
O3 O 0.1520(4) 1.5045(8) 0.3321(2)
O4 O 0.3768(3) 0.9697(7) 0.2618(2)
O5 O 0.0835(3) 0.7639(7) 0.1122(2)
H24 H 0.0189 0.7958 0.1273
O6 O 0.3297(4) 0.6703(7) 0.0869(2)
H25 H 0.3260 0.7716 0.0557
O7 O 0.0764(3) 1.2745(7) 0.1149(2)
H26 H 0.0888 1.4134 0.1083
O8 O 0.2866(4) 1.0277(7) -0.0023(2)
H27 H 0.3444 1.1121 0.0119
O9 O 0.0121(4) 0.2551(9) 0.6018(3)
O10 O 0.4797(4) 0.2939(8) 0.0504(2)
N8? N 0.1755(11) 0.890(2) 0.5995(6)
loop_
_geom_bond_atom_site_label_1
_geom_bond_atom_site_label_2
_geom_bond_site_symmetry_1
_geom_bond_site_symmetry_2
C1 N5 1_555 1_555
C2 H1 1_555 1_555
C3 C2 1_555 1_555
C4 C3 1_555 1_555
C5 H2 1_555 1_555
C6 H3 1_555 1_555
C7 C6 1_555 1_555
H4 C7 1_555 1_555
C8 C7 1_555 1_555
C9 C8 1_555 1_555
H5 C9 1_555 1_555
C10 C9 1_555 1_555
H6 C10 1_555 1_555
H7 C10 1_555 1_555
C11 H8 1_555 1_555
C12 C8 1_555 1_555
H9 C12 1_555 1_555
H10 C12 1_555 1_555
C13 C11 1_555 1_555
H11 C13 1_555 1_555
C14 C13 1_555 1_555
C15 C16 1_555 1_555
C16 H12 1_555 1_555
C17 C16 1_555 1_555
H13 C17 1_555 1_555
H14 C17 1_555 1_555
C18 C17 1_555 1_555
H15 C18 1_555 1_555
H16 C18 1_555 1_555
C19 C18 1_555 1_555
H17 C19 1_555 1_555
H18 C19 1_555 1_555
C20 C16 1_555 1_555
H19 C20 1_555 1_555
N1 C20 1_555 1_555
H20 N1 1_555 1_555
H21 N1 1_555 1_555
N2 C13 1_555 1_555
N3 C4 1_555 1_555
N4 C3 1_555 1_555
N5 C4 1_555 1_555
N6 C1 1_555 1_555
N7 C1 1_555 1_555
H22 N7 1_555 1_555
H23 N7 1_555 1_555
O1 C15 1_555 1_555
O2 C14 1_555 1_555
O3 C14 1_555 1_555
O4 C6 1_555 1_555
O5 C8 1_555 1_555
H24 O5 1_555 1_555
O6 C7 1_555 1_555
H25 O6 1_555 1_555
O7 C9 1_555 1_555
H26 O7 1_555 1_555
O8 C10 1_555 1_555
H27 O8 1_555 1_555
C2 N6 1_555 1_555
C5 N3 1_555 1_555
C5 N4 1_555 1_555
C6 N3 1_555 1_555
C11 C12 1_555 1_555
C11 O4 1_555 1_555
C15 N2 1_555 1_555
C19 C20 1_555 1_555

#END
