
#######################################################################
#
#                 Cambridge Crystallographic Data Centre
#                                CCDC 
#
#######################################################################
#
# If this CIF has been generated from an entry in the Cambridge 
# Structural Database, then it will include bibliographic, chemical, 
# crystal, experimental, refinement or atomic coordinate data resulting 
# from the CCDC's data processing and validation procedures.
#
#######################################################################

data_WIFCOE
_chemical_formula_moiety         'C26 H30 N1 O3 1+,Br1 1-,H2 O1'
_chemical_name_systematic        
'(2R,4R,5R)-5-(4-Methoxybenzylamino)-2-benzhydryl-tetrahydro-2H-pyran-4-ol hydrobromide monohydrate'
_chemical_properties_biological  
'affinity for the serotonin and norepinephrine transporters'
_symmetry_cell_setting           monoclinic
_symmetry_space_group_name_H-M   'P 21'
_symmetry_Int_Tables_number      4
_space_group_name_Hall           'P 2yb'
loop_
_symmetry_equiv_pos_site_id
_symmetry_equiv_pos_as_xyz
1 x,y,z
2 -x,1/2+y,-z
_cell_length_a                   10.964(4)
_cell_length_b                   7.327(3)
_cell_length_c                   15.442(6)
_cell_angle_alpha                90
_cell_angle_beta                 106.721(10)
_cell_angle_gamma                90
_cell_volume                     1188.05
_cell_formula_units_Z            2
loop_
_atom_site_label
_atom_site_type_symbol
_atom_site_fract_x
_atom_site_fract_y
_atom_site_fract_z
Br1 Br 0.5913(1) 0.3491(1) 0.9690(1)
O1 O 0.7782(2) 1.0253(3) 0.8490(1)
C1 C 0.6726(3) 0.9951(5) 0.7723(2)
C2 C 0.5627(3) 0.9383(5) 0.8025(2)
C3 C 0.5892(3) 0.7780(5) 0.8627(2)
O2 O 0.6027(3) 0.6234(4) 0.8118(2)
C4 C 0.7114(3) 0.8026(4) 0.9378(2)
C5 C 0.8134(3) 0.8676(8) 0.8999(2)
C6 C 0.6526(3) 1.1730(5) 0.7207(2)
C7 C 0.5306(3) 1.1746(5) 0.6459(2)
C8 C 0.4928(4) 1.0315(6) 0.5880(2)
C9 C 0.3807(4) 1.0386(8) 0.5204(2)
C10 C 0.3063(4) 1.1871(7) 0.5124(3)
C11 C 0.3435(3) 1.3292(10) 0.5691(2)
C12 C 0.4542(3) 1.3237(8) 0.6355(2)
C13 C 0.7620(3) 1.2249(6) 0.6881(2)
C14 C 0.8064(4) 1.1129(7) 0.6347(2)
C15 C 0.9048(4) 1.1635(10) 0.6036(3)
C16 C 0.9597(4) 1.3278(13) 0.6262(3)
C17 C 0.9166(5) 1.4391(9) 0.6775(3)
C18 C 0.8184(4) 1.3909(6) 0.7090(3)
N1 N 0.6875(3) 0.9326(4) 1.0031(2)
C19 C 0.7900(4) 0.9498(6) 1.0904(2)
C20 C 0.8083(3) 0.7782(6) 1.1425(2)
C21 C 0.8966(4) 0.6514(7) 1.1352(2)
C22 C 0.9131(4) 0.4948(7) 1.1814(2)
C23 C 0.8430(4) 0.4581(7) 1.2387(3)
O3 O 0.8649(3) 0.2968(5) 1.2818(2)
C24 C 0.7982(7) 0.2525(10) 1.3415(5)
C25 C 0.7569(3) 0.5832(6) 1.2483(2)
C26 C 0.7393(3) 0.7399(5) 1.1997(2)
H1 H 0.6933 0.8988 0.7349
H2 H 0.4920 0.9103 0.7499
H3 H 0.5371 1.0393 0.8340
H4 H 0.5184 0.7590 0.8886
H5 H 0.6005 0.5307 0.8411
H6 H 0.7366 0.6851 0.9679
H7 H 0.8898 0.8914 0.9490
H8 H 0.8329 0.7727 0.8622
H9 H 0.6449 1.2679 0.7635
H10 H 0.5439 0.9281 0.5946
H11 H 0.3561 0.9417 0.4803
H12 H 0.2288 1.1917 0.4675
H13 H 0.2921 1.4323 0.5624
H14 H 0.4785 1.4225 0.6744
H15 H 0.7688 0.9993 0.6190
H16 H 0.9343 1.0851 0.5668
H17 H 1.0281 1.3626 0.6057
H18 H 0.9543 1.5529 0.6922
H19 H 0.7892 1.4715 0.7451
H20 H 0.6152 0.8997 1.0154
H21 H 0.6743 1.0434 0.9769
H22 H 0.8692 0.9830 1.0783
H23 H 0.7682 1.0466 1.1261
H24 H 0.9465 0.6750 1.0969
H25 H 0.9729 0.4106 1.1743
H26 H 0.8412 0.1556 1.3803
H27 H 0.7140 0.2135 1.3087
H28 H 0.7928 0.3574 1.3775
H29 H 0.7095 0.5614 1.2884
H30 H 0.6783 0.8229 1.2060
O4 O 0.8891(3) 0.3365(10) 0.9581(2)
H31 H 0.8120(30) 0.321(11) 0.9770(40)
H32 H 0.8720(60) 0.4350(70) 0.9140(40)
loop_
_geom_bond_atom_site_label_1
_geom_bond_atom_site_label_2
_geom_bond_site_symmetry_1
_geom_bond_site_symmetry_2
O1 C1 1_555 1_555
C1 C2 1_555 1_555
C2 C3 1_555 1_555
C3 O2 1_555 1_555
O2 H5 1_555 1_555
C4 C3 1_555 1_555
C5 O1 1_555 1_555
C6 C1 1_555 1_555
C7 C6 1_555 1_555
C8 C7 1_555 1_555
C9 C8 1_555 1_555
C10 C9 1_555 1_555
C11 C10 1_555 1_555
C12 C7 1_555 1_555
C13 C6 1_555 1_555
C14 C13 1_555 1_555
C15 C14 1_555 1_555
C16 C15 1_555 1_555
C17 C16 1_555 1_555
C18 C13 1_555 1_555
N1 C4 1_555 1_555
C19 N1 1_555 1_555
C20 C19 1_555 1_555
C21 C20 1_555 1_555
C22 C21 1_555 1_555
C23 C22 1_555 1_555
O3 C23 1_555 1_555
C24 O3 1_555 1_555
C25 C23 1_555 1_555
C26 C20 1_555 1_555
O4 H31 1_555 1_555
H1 C1 1_555 1_555
H2 C2 1_555 1_555
H3 C2 1_555 1_555
H4 C3 1_555 1_555
H6 C4 1_555 1_555
H7 C5 1_555 1_555
H8 C5 1_555 1_555
H9 C6 1_555 1_555
H10 C8 1_555 1_555
H11 C9 1_555 1_555
H12 C10 1_555 1_555
H13 C11 1_555 1_555
H14 C12 1_555 1_555
H15 C14 1_555 1_555
H16 C15 1_555 1_555
H17 C16 1_555 1_555
H18 C17 1_555 1_555
H19 C18 1_555 1_555
H20 N1 1_555 1_555
H21 N1 1_555 1_555
H22 C19 1_555 1_555
H23 C19 1_555 1_555
H24 C21 1_555 1_555
H25 C22 1_555 1_555
H26 C24 1_555 1_555
H27 C24 1_555 1_555
H28 C24 1_555 1_555
H29 C25 1_555 1_555
H30 C26 1_555 1_555
H32 O4 1_555 1_555
C4 C5 1_555 1_555
C11 C12 1_555 1_555
C17 C18 1_555 1_555
C25 C26 1_555 1_555

#END
