
#######################################################################
#
#                 Cambridge Crystallographic Data Centre
#                                CCDC 
#
#######################################################################
#
# If this CIF has been generated from an entry in the Cambridge 
# Structural Database, then it will include bibliographic, chemical, 
# crystal, experimental, refinement or atomic coordinate data resulting 
# from the CCDC's data processing and validation procedures.
#
#######################################################################

data_WIFCAS
_chemical_formula_moiety         'C38 H33 Br2 N1 O11,C1 H2 Cl2'
_chemical_name_systematic        
'6-{[(benzenecarbonyl)oxy]methyl}-3-(1-{[(benzyloxy)carbonyl]amino}-2-[(4-bromobenzene-1-carbonyl)oxy]ethyl)-5-hydroxy-2,7-dioxabicyclo[3.2.1]octan-8-yl 4-bromobenzoate dichloromethane unknown solvate'
_symmetry_cell_setting           monoclinic
_symmetry_space_group_name_H-M   'C 2'
_symmetry_Int_Tables_number      5
_space_group_name_Hall           'C 2y'
loop_
_symmetry_equiv_pos_site_id
_symmetry_equiv_pos_as_xyz
1 x,y,z
2 -x,y,-z
3 1/2+x,1/2+y,z
4 1/2-x,1/2+y,-z
_cell_length_a                   19.3022(15)
_cell_length_b                   10.2434(8)
_cell_length_c                   22.5783(18)
_cell_angle_alpha                90
_cell_angle_beta                 108.991(2)
_cell_angle_gamma                90
_cell_volume                     4221.2
_exptl_crystal_colour            colorless
_exptl_crystal_description       prismatic
_cell_formula_units_Z            4
loop_
_atom_site_label
_atom_site_type_symbol
_atom_site_fract_x
_atom_site_fract_y
_atom_site_fract_z
Br1 Br 0.23326(4) -0.35629(8) 1.01669(2)
Br2 Br -0.04565(4) -0.16068(11) 0.06122(3)
N1 N 0.0643(2) 0.0849(4) 0.44484(19)
O1 O 0.09042(15) -0.0221(4) 0.56341(14)
O2 O 0.16514(17) 0.0728(4) 0.65729(15)
O3 O 0.2900(2) -0.1916(5) 0.67104(17)
H1 H 0.3078 -0.2198 0.6452
O4 O 0.2910(2) 0.1760(4) 0.75132(17)
O5 O 0.3207(3) 0.1255(5) 0.8515(2)
O6 O 0.16975(18) -0.1753(4) 0.71541(14)
O7 O 0.1252(3) -0.3789(4) 0.69658(17)
O8 O 0.0566(2) -0.1404(4) 0.37752(15)
O9 O 0.0922(3) -0.3421(5) 0.3682(2)
O10 O 0.1257(2) 0.1973(5) 0.3925(2)
O11 O 0.0097(2) 0.2515(4) 0.38648(19)
C1 C 0.1497(2) -0.0079(5) 0.5394(2)
H2 H 0.1700 0.0800 0.5500
C2 C 0.2113(3) -0.1061(6) 0.5683(2)
H3 H 0.2547 -0.0807 0.5584
H4 H 0.1964 -0.1919 0.5506
C3 C 0.2298(3) -0.1119(5) 0.6409(2)
C4 C 0.1585(3) -0.1517(6) 0.65049(19)
H5 H 0.1354 -0.2261 0.6241
C5 C 0.1163(2) -0.0281(6) 0.6304(2)
H6 H 0.0747 -0.0258 0.6463
C6 C 0.2394(2) 0.0272(6) 0.6678(2)
H7 H 0.2626 0.0818 0.6439
C7 C 0.2819(3) 0.0382(6) 0.7364(2)
H8 H 0.2555 -0.0040 0.7610
H9 H 0.3293 -0.0036 0.7454
C8 C 0.3134(3) 0.2053(7) 0.8127(3)
C9 C 0.3246(3) 0.3498(6) 0.8231(3)
C10 C 0.3155(3) 0.4361(7) 0.7750(3)
H10 H 0.2998 0.4066 0.7338
C11 C 0.3293(4) 0.5643(9) 0.7873(5)
H11 H 0.3230 0.6233 0.7547
C12 C 0.3534(4) 0.6083(8) 0.8500(5)
H12 H 0.3627 0.6966 0.8587
C13 C 0.3629(4) 0.5245(10) 0.8962(5)
H13 H 0.3804 0.5541 0.9374
C14 C 0.3468(3) 0.3908(8) 0.8845(3)
H14 H 0.3512 0.3324 0.9170
C15 C 0.1178(3) -0.0168(5) 0.4687(2)
H15 H 0.1578 -0.0017 0.4517
C16 C 0.0844(3) -0.1493(6) 0.4451(2)
H16 H 0.1212 -0.2173 0.4581
H17 H 0.0450 -0.1693 0.4615
C17 C 0.0636(3) -0.2447(6) 0.3447(3)
C18 C 0.0344(3) -0.2212(5) 0.2761(2)
C19 C 0.0146(3) -0.0991(6) 0.2513(2)
H18 H 0.0171 -0.0282 0.2776
C20 C -0.0093(4) -0.0820(7) 0.1867(3)
H19 H -0.0222 0.0008 0.1699
C21 C -0.0137(3) -0.1824(8) 0.1490(2)
C22 C 0.0053(3) -0.3062(7) 0.1722(3)
H20 H 0.0019 -0.3762 0.1452
C23 C 0.0296(3) -0.3248(6) 0.2365(3)
H21 H 0.0427 -0.4079 0.2529
C24 C 0.0708(3) 0.1790(5) 0.4062(2)
C25 C 0.0091(4) 0.3562(7) 0.3420(3)
H22 H 0.0587 0.3871 0.3494
H23 H -0.0199 0.4288 0.3484
C26 C -0.0228(3) 0.3069(5) 0.2749(3)
C27 C -0.0916(3) 0.2568(6) 0.2519(4)
H24 H -0.1193 0.2449 0.2784
C28 C -0.1203(4) 0.2238(8) 0.1902(4)
H25 H -0.1675 0.1895 0.1754
C29 C -0.0827(4) 0.2394(7) 0.1505(4)
H26 H -0.1034 0.2178 0.1084
C30 C -0.0146(4) 0.2867(8) 0.1725(4)
H27 H 0.0120 0.2980 0.1451
C31 C 0.0175(3) 0.3193(6) 0.2351(3)
H28 H 0.0656 0.3492 0.2499
C32 C 0.1526(3) -0.2931(5) 0.7332(2)
C33 C 0.1706(3) -0.3025(5) 0.8017(2)
C34 C 0.1626(3) -0.4232(6) 0.8258(3)
H29 H 0.1446 -0.4935 0.7992
C35 C 0.1818(3) -0.4393(6) 0.8913(3)
H30 H 0.1766 -0.5198 0.9084
C36 C 0.2080(3) -0.3342(6) 0.9287(2)
C37 C 0.2157(3) -0.2142(6) 0.9050(3)
H31 H 0.2333 -0.1441 0.9319
C38 C 0.1972(3) -0.1975(6) 0.8412(2)
H32 H 0.2026 -0.1163 0.8248
H33 H 0.0249(17) 0.087(5) 0.452(2)
Cl1 Cl 0.26554(19) 0.8552(4) 0.41177(18)
Cl2 Cl 0.3887(4) 1.0085(6) 0.4820(3)
C39 C 0.3547(8) 0.9082(15) 0.4172(7)
H34 H 0.3866 0.8333 0.4211
H35 H 0.3531 0.9555 0.3796
loop_
_geom_bond_atom_site_label_1
_geom_bond_atom_site_label_2
_geom_bond_site_symmetry_1
_geom_bond_site_symmetry_2
Br1 C36 1_555 1_555
Br2 C21 1_555 1_555
N1 C15 1_555 1_555
O1 C1 1_555 1_555
O2 C5 1_555 1_555
O3 H1 1_555 1_555
O4 C7 1_555 1_555
O5 C8 1_555 1_555
O6 C4 1_555 1_555
O7 C32 1_555 1_555
O8 C16 1_555 1_555
O9 C17 1_555 1_555
O10 C24 1_555 1_555
O11 C24 1_555 1_555
C1 H2 1_555 1_555
C2 C1 1_555 1_555
H3 C2 1_555 1_555
H4 C2 1_555 1_555
C3 O3 1_555 1_555
C4 C3 1_555 1_555
H5 C4 1_555 1_555
C5 O1 1_555 1_555
H6 C5 1_555 1_555
C6 O2 1_555 1_555
H7 C6 1_555 1_555
C7 C6 1_555 1_555
H8 C7 1_555 1_555
H9 C7 1_555 1_555
C8 O4 1_555 1_555
C9 C8 1_555 1_555
C10 C9 1_555 1_555
H10 C10 1_555 1_555
C11 C10 1_555 1_555
H11 C11 1_555 1_555
C12 C11 1_555 1_555
H12 C12 1_555 1_555
C13 C12 1_555 1_555
H13 C13 1_555 1_555
C14 C9 1_555 1_555
H14 C14 1_555 1_555
C15 C1 1_555 1_555
H15 C15 1_555 1_555
C16 C15 1_555 1_555
H16 C16 1_555 1_555
H17 C16 1_555 1_555
C17 O8 1_555 1_555
C18 C17 1_555 1_555
C19 C18 1_555 1_555
H18 C19 1_555 1_555
C20 C19 1_555 1_555
H19 C20 1_555 1_555
C21 C20 1_555 1_555
C22 C21 1_555 1_555
H20 C22 1_555 1_555
C23 C18 1_555 1_555
H21 C23 1_555 1_555
C24 N1 1_555 1_555
C25 O11 1_555 1_555
H22 C25 1_555 1_555
H23 C25 1_555 1_555
C26 C25 1_555 1_555
C27 C26 1_555 1_555
H24 C27 1_555 1_555
C28 C27 1_555 1_555
H25 C28 1_555 1_555
C29 C28 1_555 1_555
H26 C29 1_555 1_555
C30 C29 1_555 1_555
H27 C30 1_555 1_555
C31 C26 1_555 1_555
H28 C31 1_555 1_555
C32 O6 1_555 1_555
C33 C32 1_555 1_555
C34 C33 1_555 1_555
H29 C34 1_555 1_555
C35 C34 1_555 1_555
H30 C35 1_555 1_555
C36 C35 1_555 1_555
C37 C36 1_555 1_555
H31 C37 1_555 1_555
C38 C33 1_555 1_555
H32 C38 1_555 1_555
H33 N1 1_555 1_555
Cl1 C39 1_555 1_555
Cl2 C39 1_555 1_555
C39 H34 1_555 1_555
H35 C39 1_555 1_555
C2 C3 1_555 1_555
C3 C6 1_555 1_555
C4 C5 1_555 1_555
C13 C14 1_555 1_555
C22 C23 1_555 1_555
C30 C31 1_555 1_555
C37 C38 1_555 1_555

#END
