
#######################################################################
#
#                 Cambridge Crystallographic Data Centre
#                                CCDC 
#
#######################################################################
#
# If this CIF has been generated from an entry in the Cambridge 
# Structural Database, then it will include bibliographic, chemical, 
# crystal, experimental, refinement or atomic coordinate data resulting 
# from the CCDC's data processing and validation procedures.
#
#######################################################################

data_WIFDAT
_chemical_formula_moiety         'C13 H12 N4 O2'
_chemical_name_systematic        N,N'-methylenebis(pyridine-3-carboxamide)
_symmetry_cell_setting           orthorhombic
_symmetry_space_group_name_H-M   'F d d 2'
_symmetry_Int_Tables_number      43
_space_group_name_Hall           'F 2 -2d'
loop_
_symmetry_equiv_pos_site_id
_symmetry_equiv_pos_as_xyz
1 x,y,z
2 -x,-y,z
3 1/4+x,1/4-y,1/4+z
4 1/4-x,1/4+y,1/4+z
5 x,1/2+y,1/2+z
6 -x,1/2-y,1/2+z
7 1/4+x,3/4-y,3/4+z
8 1/4-x,3/4+y,3/4+z
9 1/2+x,y,1/2+z
10 1/2-x,-y,1/2+z
11 3/4+x,1/4-y,3/4+z
12 3/4-x,1/4+y,3/4+z
13 1/2+x,1/2+y,z
14 1/2-x,1/2-y,z
15 3/4+x,3/4-y,1/4+z
16 3/4-x,3/4+y,1/4+z
_cell_length_a                   20.679(7)
_cell_length_b                   28.501(10)
_cell_length_c                   4.1182(15)
_cell_angle_alpha                90
_cell_angle_beta                 90
_cell_angle_gamma                90
_cell_volume                     2427.15
_exptl_crystal_colour            colorless
_exptl_crystal_description       block
_cell_formula_units_Z            8
loop_
_atom_site_label
_atom_site_type_symbol
_atom_site_fract_x
_atom_site_fract_y
_atom_site_fract_z
N1 N -0.00232(8) 0.04271(6) 0.3254(5)
H1 H 0.0324 0.0588 0.3532
C1 C 0.0000 0.0000 0.1394(8)
H2 H 0.0378 0.0011 0.0000
O1 O -0.10714(8) 0.03387(6) 0.4518(5)
N2 N -0.12481(9) 0.16061(7) 0.9062(6)
C2 C -0.05888(9) 0.10549(7) 0.6108(6)
C3 C -0.11465(10) 0.11822(8) 0.7739(7)
H3 H -0.1473 0.0959 0.7931
C4 C -0.07727(11) 0.19181(8) 0.8757(8)
H4 H -0.0835 0.2217 0.9606
C5 C -0.01928(12) 0.18208(8) 0.7249(8)
H5 H 0.0131 0.2047 0.7140
C6 C -0.01005(11) 0.13842(8) 0.5907(7)
H6 H 0.0287 0.1311 0.4875
C7 C -0.05805(10) 0.05779(8) 0.4562(6)
H2A H -0.0378 -0.0011 0.0000
N1A N 0.00232(8) -0.04271(6) 0.3254(5)
H1A H -0.0324 -0.0588 0.3532
O1A O 0.10714(8) -0.03387(6) 0.4518(5)
N2A N 0.12481(9) -0.16061(7) 0.9062(6)
C2A C 0.05888(9) -0.10549(7) 0.6108(6)
C3A C 0.11465(10) -0.11822(8) 0.7739(7)
H3A H 0.1473 -0.0959 0.7931
C4A C 0.07727(11) -0.19181(8) 0.8757(8)
H4A H 0.0835 -0.2217 0.9606
C5A C 0.01928(12) -0.18208(8) 0.7249(8)
H5A H -0.0131 -0.2047 0.7140
C6A C 0.01005(11) -0.13842(8) 0.5907(7)
H6A H -0.0287 -0.1311 0.4875
C7A C 0.05805(10) -0.05779(8) 0.4562(6)
H7? H 0.0378 0.0011 0.0000
loop_
_geom_bond_atom_site_label_1
_geom_bond_atom_site_label_2
_geom_bond_site_symmetry_1
_geom_bond_site_symmetry_2
N1 H1 1_555 1_555
C1 N1 1_555 1_555
H2 C1 1_555 1_555
O1 C7 1_555 1_555
N2 C3 1_555 1_555
C2 C3 1_555 1_555
C3 H3 1_555 1_555
C4 N2 1_555 1_555
H4 C4 1_555 1_555
C5 C4 1_555 1_555
H5 C5 1_555 1_555
C6 C2 1_555 1_555
H6 C6 1_555 1_555
C7 N1 1_555 1_555
H2A C1 1_555 1_555
N1A C1 1_555 1_555
H1A N1A 1_555 1_555
O1A C7A 1_555 1_555
N2A C3A 1_555 1_555
C2A C3A 1_555 1_555
C3A H3A 1_555 1_555
C4A N2A 1_555 1_555
H4A C4A 1_555 1_555
C5A C4A 1_555 1_555
H5A C5A 1_555 1_555
C6A C2A 1_555 1_555
H6A C6A 1_555 1_555
C7A N1A 1_555 1_555
C2 C7 1_555 1_555
C5 C6 1_555 1_555
C2A C7A 1_555 1_555
C5A C6A 1_555 1_555

#END
