
#######################################################################
#
#                 Cambridge Crystallographic Data Centre
#                                CCDC 
#
#######################################################################
#
# If this CIF has been generated from an entry in the Cambridge 
# Structural Database, then it will include bibliographic, chemical, 
# crystal, experimental, refinement or atomic coordinate data resulting 
# from the CCDC's data processing and validation procedures.
#
#######################################################################

data_WIFDUL
_chemical_formula_moiety         'C19 H24 N4 O1'
_chemical_name_systematic        
'(E)-3-(4-(Pyridin-2-yl)piperazin-1-yl)-1-(m-tolyl)propan-1-one oxime'
_chemical_properties_biological  'dopamine D!4$ receptor agonist'
_symmetry_cell_setting           monoclinic
_symmetry_space_group_name_H-M   'P n'
_symmetry_Int_Tables_number      7
_space_group_name_Hall           'P -2yac'
loop_
_symmetry_equiv_pos_site_id
_symmetry_equiv_pos_as_xyz
1 x,y,z
2 1/2+x,-y,1/2+z
_cell_length_a                   5.8974(7)
_cell_length_b                   17.158(2)
_cell_length_c                   9.236(1)
_cell_angle_alpha                90
_cell_angle_beta                 105.006(2)
_cell_angle_gamma                90
_cell_volume                     902.699
_chemical_melting_point          146-147deg.C
_cell_formula_units_Z            2
loop_
_atom_site_label
_atom_site_type_symbol
_atom_site_fract_x
_atom_site_fract_y
_atom_site_fract_z
O1 O 0.5618(3) -0.04296(9) -0.0275(2)
N1 N -0.1082(4) 0.3802(1) 0.3230(3)
N2 N 0.1461(3) 0.2798(1) 0.2962(3)
N3 N 0.1758(3) 0.1163(1) 0.2291(2)
N4 N 0.4540(3) -0.1047(1) 0.0283(2)
C1 C 0.3813(5) -0.3696(2) 0.2831(4)
C2 C 0.2728(4) -0.2881(2) 0.2741(3)
C3 C 0.0765(4) -0.2748(2) 0.3309(3)
C4 C -0.0147(5) -0.2006(2) 0.3331(3)
C5 C 0.0828(4) -0.1387(1) 0.2722(3)
C6 C 0.2717(4) -0.1509(2) 0.2101(2)
C7 C 0.3616(4) -0.2275(2) 0.2072(3)
C8 C 0.3850(4) -0.0861(1) 0.1440(3)
C9 C 0.4034(3) -0.0059(1) 0.2165(2)
C10 C 0.2089(4) 0.0502(1) 0.1315(3)
C11 C 0.3883(4) 0.1660(1) 0.2719(3)
C12 C 0.3503(4) 0.2340(2) 0.3695(3)
C13 C -0.0697(4) 0.2325(1) 0.2394(3)
C14 C -0.0233(3) 0.1649(1) 0.1437(3)
C15 C 0.1145(5) 0.3527(2) 0.3655(3)
C16 C 0.3022(5) 0.3902(2) 0.4595(3)
C17 C 0.2600(5) 0.4637(2) 0.5175(3)
C18 C 0.0277(6) 0.4929(2) 0.4761(4)
C19 C -0.1364(5) 0.4521(2) 0.3858(4)
H1 H 0.3053 -0.4040 0.3364
H2 H 0.3679 -0.3894 0.1855
H3 H 0.5448 -0.3669 0.3354
H4 H 0.0060 -0.3173 0.3690
H5 H -0.1450 -0.1918 0.3749
H6 H 0.0211 -0.0877 0.2742
H7 H 0.4828 -0.2369 0.1587
H8 H 0.3907 -0.0118 0.3159
H9 H 0.5519 0.0154 0.2170
H10 H 0.0653 0.0232 0.0987
H11 H 0.2526 0.0716 0.0473
H12 H 0.5177 0.1359 0.3254
H13 H 0.4213 0.1863 0.1833
H14 H 0.4852 0.2669 0.3906
H15 H 0.3294 0.2141 0.4616
H16 H -0.1202 0.2127 0.3220
H17 H -0.1892 0.2649 0.1803
H18 H 0.0138 0.1849 0.0570
H19 H -0.1607 0.1335 0.1148
H20 H 0.4540 0.3676 0.4841
H21 H 0.3849 0.4921 0.5821
H22 H -0.0071 0.5416 0.5131
H23 H -0.2929 0.4732 0.3612
H24 H 0.6200 -0.0510 -0.1151
loop_
_geom_bond_atom_site_label_1
_geom_bond_atom_site_label_2
_geom_bond_site_symmetry_1
_geom_bond_site_symmetry_2
O1 N4 1_555 1_555
N1 C15 1_555 1_555
N2 C12 1_555 1_555
N3 C10 1_555 1_555
N4 C8 1_555 1_555
C1 C2 1_555 1_555
C2 C3 1_555 1_555
C3 C4 1_555 1_555
C4 C5 1_555 1_555
C5 C6 1_555 1_555
C6 C7 1_555 1_555
C7 C2 1_555 1_555
C8 C6 1_555 1_555
C9 C8 1_555 1_555
C10 C9 1_555 1_555
C11 N3 1_555 1_555
C12 C11 1_555 1_555
C13 N2 1_555 1_555
C14 N3 1_555 1_555
C15 N2 1_555 1_555
C16 C15 1_555 1_555
C17 C16 1_555 1_555
C18 C17 1_555 1_555
C19 N1 1_555 1_555
H1 C1 1_555 1_555
H2 C1 1_555 1_555
H3 C1 1_555 1_555
H4 C3 1_555 1_555
H5 C4 1_555 1_555
H6 C5 1_555 1_555
H7 C7 1_555 1_555
H8 C9 1_555 1_555
H9 C9 1_555 1_555
H10 C10 1_555 1_555
H11 C10 1_555 1_555
H12 C11 1_555 1_555
H13 C11 1_555 1_555
H14 C12 1_555 1_555
H15 C12 1_555 1_555
H16 C13 1_555 1_555
H17 C13 1_555 1_555
H18 C14 1_555 1_555
H19 C14 1_555 1_555
H20 C16 1_555 1_555
H21 C17 1_555 1_555
H22 C18 1_555 1_555
H23 C19 1_555 1_555
H24 O1 1_555 1_555
C13 C14 1_555 1_555
C18 C19 1_555 1_555

#END
