
#######################################################################
#
#                 Cambridge Crystallographic Data Centre
#                                CCDC 
#
#######################################################################
#
# If this CIF has been generated from an entry in the Cambridge 
# Structural Database, then it will include bibliographic, chemical, 
# crystal, experimental, refinement or atomic coordinate data resulting 
# from the CCDC's data processing and validation procedures.
#
#######################################################################

data_WIFDEX
_chemical_formula_moiety         'C17 H20 N4 O2,2(H2 O1)'
_chemical_name_systematic        
"N,N'-(pentane-1,5-diyl)bis(pyridine-4-carboxamide) dihydrate"
_symmetry_cell_setting           monoclinic
_symmetry_space_group_name_H-M   'C 2/c'
_symmetry_Int_Tables_number      15
_space_group_name_Hall           '-C 2yn'
loop_
_symmetry_equiv_pos_site_id
_symmetry_equiv_pos_as_xyz
1 x,y,z
2 -x,y,1/2-z
3 1/2+x,1/2+y,z
4 1/2-x,1/2+y,1/2-z
5 -x,-y,-z
6 x,-y,1/2+z
7 1/2-x,1/2-y,-z
8 1/2+x,1/2-y,1/2+z
_cell_length_a                   17.7550(12)
_cell_length_b                   9.1736(7)
_cell_length_c                   14.2042(16)
_cell_angle_alpha                90
_cell_angle_beta                 126.398(3)
_cell_angle_gamma                90
_cell_volume                     1862.2
_exptl_crystal_colour            colorless
_exptl_crystal_description       rod
_cell_formula_units_Z            4
loop_
_atom_site_label
_atom_site_type_symbol
_atom_site_fract_x
_atom_site_fract_y
_atom_site_fract_z
N1 N 0.55388(11) 0.7698(2) 0.07153(14)
O1 O 0.33182(10) 0.46342(18) 0.09425(12)
C1 C 0.38968(12) 0.7223(2) -0.04003(15)
H1 H 0.3292 0.7482 -0.1024
C2 C 0.40537(11) 0.60359(19) 0.02954(14)
C3 C 0.32691(12) 0.51169(19) 0.00973(15)
C4 C 0.49662(12) 0.5706(2) 0.12070(15)
H2 H 0.5099 0.4921 0.1698
C5 C 0.56780(12) 0.6557(2) 0.13786(16)
H3 H 0.6290 0.6320 0.1993
C6 C 0.46571(14) 0.8013(2) -0.01473(16)
H4 H 0.4544 0.8819 -0.0611
N2 N 0.25714(10) 0.48547(17) -0.10082(13)
H5 H 0.2601 0.5232 -0.1540
C7 C 0.17543(11) 0.3968(2) -0.13864(16)
H6 H 0.1865 0.3460 -0.0715
H7 H 0.1667 0.3240 -0.1939
C8 C 0.08786(12) 0.4863(2) -0.19489(17)
H8 H 0.0819 0.5476 -0.2546
H9 H 0.0935 0.5496 -0.1363
C9 C 0.0000 0.3950(3) -0.2500
H10 H -0.0056(13) 0.330(2) -0.3098(15)
N1A N -0.55388(11) 0.7698(2) -0.57153(14)
O1A O -0.33182(10) 0.46342(18) -0.59425(12)
C1A C -0.38968(12) 0.7223(2) -0.45997(15)
H1A H -0.3292 0.7482 -0.3976
C2A C -0.40537(11) 0.60359(19) -0.52954(14)
C3A C -0.32691(12) 0.51169(19) -0.50973(15)
C4A C -0.49662(12) 0.5706(2) -0.62070(15)
H2A H -0.5099 0.4921 -0.6698
C5A C -0.56780(12) 0.6557(2) -0.63786(16)
H3A H -0.6290 0.6320 -0.6993
C6A C -0.46571(14) 0.8013(2) -0.48527(16)
H4A H -0.4544 0.8819 -0.4389
N2A N -0.25714(10) 0.48547(17) -0.39918(13)
H5A H -0.2601 0.5232 -0.3460
C7A C -0.17543(11) 0.3968(2) -0.36136(16)
H6A H -0.1865 0.3460 -0.4285
H7A H -0.1667 0.3240 -0.3061
C8A C -0.08786(12) 0.4863(2) -0.30511(17)
H8A H -0.0819 0.5476 -0.2454
H9A H -0.0935 0.5496 -0.3637
H10A H 0.0056(13) 0.330(2) -0.1902(15)
O2 O 0.22389(11) 0.43488(19) 0.18025(13)
H11 H 0.2514(15) 0.438(2) 0.1506(18)
H12 H 0.1753(15) 0.381(2) 0.1393(17)
loop_
_geom_bond_atom_site_label_1
_geom_bond_atom_site_label_2
_geom_bond_site_symmetry_1
_geom_bond_site_symmetry_2
N1 C5 1_555 1_555
O1 C3 1_555 1_555
C1 H1 1_555 1_555
C2 C1 1_555 1_555
C3 C2 1_555 1_555
C4 C2 1_555 1_555
H2 C4 1_555 1_555
C5 C4 1_555 1_555
H3 C5 1_555 1_555
C6 N1 1_555 1_555
H4 C6 1_555 1_555
N2 C3 1_555 1_555
H5 N2 1_555 1_555
C7 N2 1_555 1_555
H6 C7 1_555 1_555
H7 C7 1_555 1_555
C8 C7 1_555 1_555
H8 C8 1_555 1_555
H9 C8 1_555 1_555
C9 C8 1_555 1_555
H10 C9 1_555 1_555
O2 H11 1_555 1_555
H12 O2 1_555 1_555
N1A C5A 1_555 1_555
O1A C3A 1_555 1_555
C1A H1A 1_555 1_555
C2A C1A 1_555 1_555
C3A C2A 1_555 1_555
C4A C2A 1_555 1_555
H2A C4A 1_555 1_555
C5A C4A 1_555 1_555
H3A C5A 1_555 1_555
C6A N1A 1_555 1_555
H4A C6A 1_555 1_555
N2A C3A 1_555 1_555
H5A N2A 1_555 1_555
C7A N2A 1_555 1_555
H6A C7A 1_555 1_555
H7A C7A 1_555 1_555
C8A C9 1_555 1_555
H8A C8A 1_555 1_555
H9A C8A 1_555 1_555
H10A C9 1_555 1_555
C1 C6 1_555 1_555
C1A C6A 1_555 1_555
C7A C8A 1_555 1_555

#END
