
#######################################################################
#
#                 Cambridge Crystallographic Data Centre
#                                CCDC 
#
#######################################################################
#
# If this CIF has been generated from an entry in the Cambridge 
# Structural Database, then it will include bibliographic, chemical, 
# crystal, experimental, refinement or atomic coordinate data resulting 
# from the CCDC's data processing and validation procedures.
#
#######################################################################

data_WIFDIB
_chemical_formula_moiety         'C19 H24 N4 O2'
_chemical_name_systematic        
N,N'-(heptane-1,7-diyl)bis(pyridine-4-carboxamide)
_symmetry_cell_setting           monoclinic
_symmetry_space_group_name_H-M   'P 21/c'
_symmetry_Int_Tables_number      14
_space_group_name_Hall           '-P 2ybc'
loop_
_symmetry_equiv_pos_site_id
_symmetry_equiv_pos_as_xyz
1 x,y,z
2 -x,1/2+y,1/2-z
3 -x,-y,-z
4 x,1/2-y,1/2+z
_cell_length_a                   4.8639(5)
_cell_length_b                   18.3835(19)
_cell_length_c                   20.485(2)
_cell_angle_alpha                90
_cell_angle_beta                 96.746(4)
_cell_angle_gamma                90
_cell_volume                     1819
_exptl_crystal_colour            colorless
_exptl_crystal_description       block
_cell_formula_units_Z            4
loop_
_atom_site_label
_atom_site_type_symbol
_atom_site_fract_x
_atom_site_fract_y
_atom_site_fract_z
O1 O 0.4405(9) 0.34125(18) 0.31333(17)
N1 N 1.2320(10) 0.4180(3) 0.4773(2)
C1 C 1.1887(14) 0.4703(3) 0.4308(4)
H1 H 1.3041 0.5109 0.4339
C2 C 0.9834(15) 0.4663(3) 0.3795(3)
H2 H 0.9655 0.5034 0.3483
C3 C 0.8028(13) 0.4087(3) 0.3728(3)
C4 C 0.8435(16) 0.3550(3) 0.4201(3)
H3 H 0.7292 0.3143 0.4177
C5 C 1.0498(18) 0.3619(4) 0.4696(4)
H4 H 1.0691 0.3252 0.5010
C6 C 0.5724(14) 0.3991(3) 0.3184(3)
N2 N 0.8367(10) 0.2704(3) -0.3898(3)
O2 O 0.2424(8) 0.41187(17) -0.25130(17)
C7 C 0.6462(13) 0.3227(3) -0.4030(3)
H5 H 0.6177 0.3416 -0.4454
C8 C 0.4882(12) 0.3501(3) -0.3555(3)
H6 H 0.3601 0.3870 -0.3663
C9 C 0.5237(10) 0.3221(2) -0.2934(2)
C10 C 0.7227(11) 0.2688(3) -0.2805(3)
H7 H 0.7550 0.2484 -0.2388
C11 C 0.8720(11) 0.2458(2) -0.3291(3)
H8 H 1.0070 0.2105 -0.3186
C12 C 0.3516(10) 0.3516(3) -0.2438(2)
N3 N 0.5150(10) 0.4541(2) 0.2770(2)
H9 H 0.6006 0.4947 0.2847
N4 N 0.3258(8) 0.30921(18) -0.19166(18)
H10 H 0.4004 0.2667 -0.1901
C13 C 0.3133(13) 0.4480(3) 0.2195(3)
H11 H 0.2141 0.4937 0.2125
H12 H 0.1802 0.4105 0.2267
C14 C 0.4474(11) 0.4300(3) 0.1600(2)
H13 H 0.5541 0.3857 0.1686
H14 H 0.5761 0.4686 0.1527
C15 C 0.2519(11) 0.4196(2) 0.0980(3)
H15 H 0.1155 0.3833 0.1062
H16 H 0.1543 0.4649 0.0877
C16 C 0.3891(12) 0.3963(3) 0.0387(3)
H17 H 0.5112 0.4352 0.0282
H18 H 0.5039 0.3543 0.0511
C17 C 0.2017(11) 0.3776(3) -0.0227(3)
H19 H 0.0791 0.3384 -0.0130
H20 H 0.0882 0.4195 -0.0363
C18 C 0.3577(12) 0.3547(3) -0.0786(3)
H21 H 0.4719 0.3949 -0.0901
H22 H 0.4798 0.3146 -0.0641
C19 C 0.1761(12) 0.3322(3) -0.1372(3)
H23 H 0.0607 0.2923 -0.1256
H24 H 0.0550 0.3724 -0.1518
loop_
_geom_bond_atom_site_label_1
_geom_bond_atom_site_label_2
_geom_bond_site_symmetry_1
_geom_bond_site_symmetry_2
O1 C6 1_555 1_555
N1 C1 1_555 1_555
C1 H1 1_555 1_555
C2 C1 1_555 1_555
H2 C2 1_555 1_555
C3 C2 1_555 1_555
C4 C3 1_555 1_555
H3 C4 1_555 1_555
C5 N1 1_555 1_555
H4 C5 1_555 1_555
C6 C3 1_555 1_555
N2 C7 1_555 1_555
O2 C12 1_555 1_555
C7 H5 1_555 1_555
C8 C7 1_555 1_555
H6 C8 1_555 1_555
C9 C8 1_555 1_555
C10 C9 1_555 1_555
H7 C10 1_555 1_555
C11 N2 1_555 1_555
H8 C11 1_555 1_555
C12 C9 1_555 1_555
N3 C6 1_555 1_555
H9 N3 1_555 1_555
N4 C12 1_555 1_555
H10 N4 1_555 1_555
C13 N3 1_555 1_555
H11 C13 1_555 1_555
H12 C13 1_555 1_555
C14 C13 1_555 1_555
H13 C14 1_555 1_555
H14 C14 1_555 1_555
C15 C14 1_555 1_555
H15 C15 1_555 1_555
H16 C15 1_555 1_555
C16 C15 1_555 1_555
H17 C16 1_555 1_555
H18 C16 1_555 1_555
C17 C16 1_555 1_555
H19 C17 1_555 1_555
H20 C17 1_555 1_555
C18 C17 1_555 1_555
H21 C18 1_555 1_555
H22 C18 1_555 1_555
C19 N4 1_555 1_555
H23 C19 1_555 1_555
H24 C19 1_555 1_555
C4 C5 1_555 1_555
C10 C11 1_555 1_555
C18 C19 1_555 1_555

#END
