
#######################################################################
#
#                 Cambridge Crystallographic Data Centre
#                                CCDC 
#
#######################################################################
#
# If this CIF has been generated from an entry in the Cambridge 
# Structural Database, then it will include bibliographic, chemical, 
# crystal, experimental, refinement or atomic coordinate data resulting 
# from the CCDC's data processing and validation procedures.
#
#######################################################################

data_WIFQUY
_chemical_formula_moiety         'C24 H26 N4 O7'
_chemical_name_systematic        
4-(4-(2-((2,4-Dinitrophenyl)hydrazono)-3-phenylpropoxy)butyl)-5,6-dihydropyran-2-one
_symmetry_cell_setting           monoclinic
_symmetry_space_group_name_H-M   'P 21/c'
_symmetry_Int_Tables_number      14
_space_group_name_Hall           '-P 2ybc'
loop_
_symmetry_equiv_pos_site_id
_symmetry_equiv_pos_as_xyz
1 x,y,z
2 -x,1/2+y,1/2-z
3 -x,-y,-z
4 x,1/2-y,1/2+z
_cell_length_a                   19.874(2)
_cell_length_b                   6.8051(7)
_cell_length_c                   20.335(2)
_cell_angle_alpha                90
_cell_angle_beta                 119.548(5)
_cell_angle_gamma                90
_cell_volume                     2392.52
_exptl_crystal_colour            yellow
_exptl_crystal_description       block
_cell_formula_units_Z            4
loop_
_atom_site_label
_atom_site_type_symbol
_atom_site_fract_x
_atom_site_fract_y
_atom_site_fract_z
O1 O 0.7386(1) 0.1666(3) 0.8310(1)
O2 O 0.6217(1) 0.1794(3) 0.8927(1)
O3 O 0.2678(1) 0.1731(3) 0.7466(1)
O4 O 0.5332(1) 0.1896(3) 0.9241(1)
O5 O 0.2284(1) 0.1735(3) 0.6265(1)
O6 O 1.0725(2) 0.8604(5) 1.2354(2)
O7 O 1.1166(1) 0.5592(6) 1.2557(1)
N1 N 0.5534(1) 0.1842(3) 0.8760(1)
N2 N 0.5859(1) 0.1838(3) 0.7500(1)
N3 N 0.5950(1) 0.2040(3) 0.6869(1)
N4 N 0.2803(1) 0.1740(4) 0.6926(2)
C1 C 0.5130(1) 0.1816(4) 0.7385(1)
C2 C 0.4941(1) 0.1818(4) 0.7974(1)
C3 C 0.4182(1) 0.1799(4) 0.7825(1)
C4 C 0.4499(1) 0.1809(4) 0.6637(1)
C5 C 0.6627(2) 0.2012(4) 0.6949(1)
C6 C 0.3598(1) 0.1773(4) 0.7090(2)
C7 C 0.3756(2) 0.1764(4) 0.6493(1)
C8 C 0.6773(2) 0.0303(4) 0.5934(1)
C9 C 0.6161(2) -0.1007(5) 0.5615(1)
C10 C 0.6666(2) 0.2253(4) 0.6223(2)
C11 C 0.7400(2) 0.1763(4) 0.7624(2)
C12 C 0.8148(2) 0.1729(5) 0.8944(2)
C13 C 0.8872(2) 0.2042(5) 1.0374(2)
C14 C 0.9940(2) 0.4528(6) 1.1124(2)
C15 C 0.6234(2) -0.2803(5) 0.5356(2)
C16 C 0.7552(2) -0.2074(7) 0.5721(2)
C17 C 1.0621(2) 0.6920(8) 1.2139(3)
C18 C 0.7477(2) -0.0252(5) 0.5995(1)
C19 C 0.8087(2) 0.1878(5) 0.9648(2)
C20 C 1.0591(2) 0.3130(5) 1.1541(2)
C21 C 0.9308(2) 0.3948(5) 1.0367(2)
C22 C 0.6920(3) -0.3321(5) 0.5407(2)
C23 C 1.0975(2) 0.3551(7) 1.2372(2)
C24 C 0.9961(2) 0.6261(6) 1.1430(2)
H1 H 0.6264 0.1872 0.7955
H2 H 0.4033 0.1839 0.8274
H3 H 0.4647 0.1606 0.6231
H4 H 0.3254 0.1760 0.5942
H5 H 0.5511 -0.0463 0.5428
H6 H 0.7182 0.3147 0.6349
H7 H 0.6082 0.2887 0.5849
H8 H 0.7789 0.3022 0.7638
H9 H 0.7789 0.0562 0.7628
H10 H 0.8524 0.2992 0.8990
H11 H 0.8564 0.0522 0.8950
H12 H 0.8767 0.2463 1.0865
H13 H 0.9336 0.1113 1.0395
H14 H 0.5685 -0.3603 0.4984
H15 H 0.8126 -0.2437 0.5749
H16 H 0.7954 0.0906 0.6207
H17 H 0.7817 0.0770 0.9685
H18 H 1.1112 0.3532 1.1433
H19 H 1.0442 0.1562 1.1383
H20 H 0.9503 0.3769 0.9957
H21 H 0.8843 0.4819 1.0137
H22 H 1.0639 0.3138 1.2554
H23 H 0.6964 -0.4570 0.5222
H24 H 0.7803 0.3039 0.9606
H25 H 0.9528 0.7112 1.1180
H26 H 1.1441 0.2812 1.2615
loop_
_geom_bond_atom_site_label_1
_geom_bond_atom_site_label_2
_geom_bond_site_symmetry_1
_geom_bond_site_symmetry_2
O1 C11 1_555 1_555
O2 N1 1_555 1_555
O3 N4 1_555 1_555
O4 N1 1_555 1_555
O5 N4 1_555 1_555
O6 C17 1_555 1_555
O7 C17 1_555 1_555
N1 C2 1_555 1_555
N2 N3 1_555 1_555
N3 C5 1_555 1_555
N4 C6 1_555 1_555
C1 N2 1_555 1_555
C2 C1 1_555 1_555
C3 C2 1_555 1_555
C4 C1 1_555 1_555
C5 C10 1_555 1_555
C6 C3 1_555 1_555
C7 C4 1_555 1_555
C8 C9 1_555 1_555
C9 C15 1_555 1_555
C10 C8 1_555 1_555
C11 C5 1_555 1_555
C12 O1 1_555 1_555
C13 C19 1_555 1_555
C14 C20 1_555 1_555
C15 C22 1_555 1_555
C16 C18 1_555 1_555
C17 C24 1_555 1_555
C18 C8 1_555 1_555
C19 C12 1_555 1_555
C20 C23 1_555 1_555
C21 C13 1_555 1_555
C22 C16 1_555 1_555
C23 O7 1_555 1_555
C24 C14 1_555 1_555
H1 N2 1_555 1_555
H2 C3 1_555 1_555
H3 C4 1_555 1_555
H4 C7 1_555 1_555
H5 C9 1_555 1_555
H6 C10 1_555 1_555
H7 C10 1_555 1_555
H8 C11 1_555 1_555
H9 C11 1_555 1_555
H10 C12 1_555 1_555
H11 C12 1_555 1_555
H12 C13 1_555 1_555
H13 C13 1_555 1_555
H14 C15 1_555 1_555
H15 C16 1_555 1_555
H16 C18 1_555 1_555
H17 C19 1_555 1_555
H18 C20 1_555 1_555
H19 C20 1_555 1_555
H20 C21 1_555 1_555
H21 C21 1_555 1_555
H22 C23 1_555 1_555
H23 C22 1_555 1_555
H24 C19 1_555 1_555
H25 C24 1_555 1_555
H26 C23 1_555 1_555
C6 C7 1_555 1_555
C14 C21 1_555 1_555

#END
