
#######################################################################
#
#                 Cambridge Crystallographic Data Centre
#                                CCDC 
#
#######################################################################
#
# If this CIF has been generated from an entry in the Cambridge 
# Structural Database, then it will include bibliographic, chemical, 
# crystal, experimental, refinement or atomic coordinate data resulting 
# from the CCDC's data processing and validation procedures.
#
#######################################################################

data_WIFQEI
_chemical_formula_moiety         'C17 H16 N2 O3'
_chemical_name_systematic        3-(1-(4-Methoxyphenyl)2-nitroethyl)indene
_symmetry_cell_setting           monoclinic
_symmetry_space_group_name_H-M   'P 21/n'
_symmetry_Int_Tables_number      14
_space_group_name_Hall           '-P 2yn'
loop_
_symmetry_equiv_pos_site_id
_symmetry_equiv_pos_as_xyz
1 x,y,z
2 1/2-x,1/2+y,1/2-z
3 -x,-y,-z
4 1/2+x,1/2-y,1/2+z
_cell_length_a                   8.4935(15)
_cell_length_b                   9.5430(16)
_cell_length_c                   18.326(3)
_cell_angle_alpha                90
_cell_angle_beta                 100.636(4)
_cell_angle_gamma                90
_cell_volume                     1459.87
_exptl_crystal_colour            colorless
_exptl_crystal_description       block
_cell_formula_units_Z            4
loop_
_atom_site_label
_atom_site_type_symbol
_atom_site_fract_x
_atom_site_fract_y
_atom_site_fract_z
O1 O 0.0705(2) 0.2354(2) 0.03832(10)
O2 O -0.0769(2) 0.0627(2) 0.06234(10)
O3 O 0.7862(2) 0.3816(2) 0.09671(10)
N1 N 0.3223(3) 0.2926(2) 0.39234(11)
H1 H 0.3946 0.2862 0.4333
N2 N 0.0266(3) 0.1512(2) 0.08119(12)
C1 C 0.3523(3) 0.2802(3) 0.32144(14)
H2 H 0.4545 0.2634 0.3091
C2 C 0.2126(3) 0.2956(3) 0.27133(13)
C3 C 0.0885(3) 0.3185(3) 0.31351(13)
C4 C -0.0773(3) 0.3423(3) 0.29466(15)
H3 H -0.1296 0.3441 0.2442
C5 C -0.1625(3) 0.3631(3) 0.35079(16)
H4 H -0.2747 0.3790 0.3386
C6 C -0.0872(4) 0.3613(3) 0.42549(17)
H5 H -0.1495 0.3758 0.4629
C7 C 0.0755(3) 0.3390(3) 0.44597(15)
H6 H 0.1268 0.3389 0.4966
C8 C 0.1612(3) 0.3166(3) 0.38915(14)
C9 C 0.1896(3) 0.2902(3) 0.18729(13)
H7 H 0.1162 0.3689 0.1676
C10 C 0.1027(3) 0.1537(3) 0.16193(13)
H8 H 0.1801 0.0753 0.1719
H9 H 0.0186 0.1376 0.1919
C11 C 0.3457(3) 0.3137(3) 0.16052(13)
C12 C 0.4589(3) 0.2075(3) 0.16080(14)
H10 H 0.4360 0.1157 0.1760
C13 C 0.6037(3) 0.2338(3) 0.13939(14)
H11 H 0.6798 0.1605 0.1402
C14 C 0.6378(3) 0.3670(3) 0.11670(14)
C15 C 0.5288(3) 0.4744(3) 0.11645(15)
H12 H 0.5526 0.5662 0.1017
C16 C 0.3832(3) 0.4458(3) 0.13823(15)
H13 H 0.3076 0.5193 0.1377
C17 C 0.8237(4) 0.5157(3) 0.07019(18)
H14 H 0.7415 0.5424 0.0276
H15 H 0.9283 0.5115 0.0549
H16 H 0.8273 0.5852 0.1098
loop_
_geom_bond_atom_site_label_1
_geom_bond_atom_site_label_2
_geom_bond_site_symmetry_1
_geom_bond_site_symmetry_2
O1 N2 1_555 1_555
O2 N2 1_555 1_555
O3 C14 1_555 1_555
N1 H1 1_555 1_555
N2 C10 1_555 1_555
C1 N1 1_555 1_555
H2 C1 1_555 1_555
C2 C1 1_555 1_555
C3 C2 1_555 1_555
C4 C3 1_555 1_555
H3 C4 1_555 1_555
C5 C4 1_555 1_555
H4 C5 1_555 1_555
C6 C5 1_555 1_555
H5 C6 1_555 1_555
C7 C6 1_555 1_555
H6 C7 1_555 1_555
C8 N1 1_555 1_555
C9 C2 1_555 1_555
H7 C9 1_555 1_555
C10 C9 1_555 1_555
H8 C10 1_555 1_555
H9 C10 1_555 1_555
C11 C9 1_555 1_555
C12 C11 1_555 1_555
H10 C12 1_555 1_555
C13 C12 1_555 1_555
H11 C13 1_555 1_555
C14 C13 1_555 1_555
C15 C14 1_555 1_555
H12 C15 1_555 1_555
C16 C11 1_555 1_555
H13 C16 1_555 1_555
C17 O3 1_555 1_555
H14 C17 1_555 1_555
H15 C17 1_555 1_555
H16 C17 1_555 1_555
C3 C8 1_555 1_555
C7 C8 1_555 1_555
C15 C16 1_555 1_555

#END
