
#######################################################################
#
#                 Cambridge Crystallographic Data Centre
#                                CCDC 
#
#######################################################################
#
# If this CIF has been generated from an entry in the Cambridge 
# Structural Database, then it will include bibliographic, chemical, 
# crystal, experimental, refinement or atomic coordinate data resulting 
# from the CCDC's data processing and validation procedures.
#
#######################################################################

data_WIFSUC
_chemical_formula_moiety         'C21 H17 Br1 O4'
_chemical_name_systematic        
'methyl 2-[2-(4-bromophenyl)ethenyl]-6-oxo-4-phenyl-3,6-dihydro-2H-pyran-2-carboxylate'
_symmetry_cell_setting           orthorhombic
_symmetry_space_group_name_H-M   'P 21 21 21'
_symmetry_Int_Tables_number      19
_space_group_name_Hall           'P 2ac 2ab'
loop_
_symmetry_equiv_pos_site_id
_symmetry_equiv_pos_as_xyz
1 x,y,z
2 1/2-x,-y,1/2+z
3 -x,1/2+y,1/2-z
4 1/2+x,1/2-y,-z
_cell_length_a                   7.9173(16)
_cell_length_b                   11.592(2)
_cell_length_c                   19.722(4)
_cell_angle_alpha                90
_cell_angle_beta                 90
_cell_angle_gamma                90
_cell_volume                     1810.03
_exptl_crystal_colour            colorless
_exptl_crystal_description       prismatic
_cell_formula_units_Z            4
loop_
_atom_site_label
_atom_site_type_symbol
_atom_site_fract_x
_atom_site_fract_y
_atom_site_fract_z
Br1 Br 0.64117(8) -0.02279(5) 1.11139(3)
O1 O 0.9249(5) 0.6362(3) 0.7549(2)
O2 O 0.8067(4) 0.4687(3) 0.77662(17)
O3 O 0.4888(4) 0.5347(3) 0.7551(2)
O4 O 0.4129(4) 0.3622(3) 0.7166(2)
C1 C 0.8574(7) 0.5511(4) 0.7321(3)
C2 C 0.8367(6) 0.5282(4) 0.6598(3)
H1 H 0.8489 0.5891 0.6295
C3 C 0.8007(6) 0.4228(4) 0.6351(3)
C4 C 0.7599(6) 0.3302(4) 0.6858(2)
H2 H 0.8607 0.2852 0.6948
H3 H 0.6754 0.2789 0.6669
C5 C 0.6936(6) 0.3809(4) 0.7526(3)
C6 C 0.6770(6) 0.2914(4) 0.8067(2)
H4 H 0.6145 0.2256 0.7968
C7 C 0.7449(6) 0.2991(4) 0.8676(2)
H5 H 0.8123 0.3633 0.8760
C8 C 0.7246(6) 0.2168(4) 0.9236(2)
C9 C 0.7909(7) 0.2444(5) 0.9875(3)
H6 H 0.8514 0.3125 0.9928
C10 C 0.7690(7) 0.1737(5) 1.0420(3)
H7 H 0.8134 0.1941 1.0840
C11 C 0.6813(6) 0.0728(4) 1.0347(3)
C12 C 0.6173(6) 0.0410(4) 0.9728(3)
H8 H 0.5603 -0.0286 0.9679
C13 C 0.6382(7) 0.1133(4) 0.9179(2)
H9 H 0.5934 0.0921 0.8761
C14 C 0.8041(6) 0.3967(4) 0.5621(3)
C15 C 0.7135(7) 0.3049(4) 0.5348(3)
H10 H 0.6523 0.2569 0.5635
C16 C 0.7129(8) 0.2839(5) 0.4659(3)
H11 H 0.6511 0.2222 0.4487
C17 C 0.8029(7) 0.3534(5) 0.4225(3)
H12 H 0.8002 0.3401 0.3761
C18 C 0.8964(7) 0.4422(5) 0.4483(3)
H13 H 0.9598 0.4884 0.4194
C19 C 0.8970(7) 0.4637(4) 0.5170(3)
H14 H 0.9612 0.5246 0.5336
C20 C 0.5209(6) 0.4376(4) 0.7416(3)
C21 C 0.2383(6) 0.3980(6) 0.7102(3)
H15 H 0.2166 0.4609 0.7407
H16 H 0.1655 0.3344 0.7213
H17 H 0.2170 0.4223 0.6645
loop_
_geom_bond_atom_site_label_1
_geom_bond_atom_site_label_2
_geom_bond_site_symmetry_1
_geom_bond_site_symmetry_2
Br1 C11 1_555 1_555
O1 C1 1_555 1_555
O2 C1 1_555 1_555
O3 C20 1_555 1_555
O4 C20 1_555 1_555
C1 C2 1_555 1_555
C2 H1 1_555 1_555
C3 C2 1_555 1_555
C4 C3 1_555 1_555
H2 C4 1_555 1_555
H3 C4 1_555 1_555
C5 O2 1_555 1_555
C6 C5 1_555 1_555
H4 C6 1_555 1_555
C7 C6 1_555 1_555
H5 C7 1_555 1_555
C8 C7 1_555 1_555
C9 C8 1_555 1_555
H6 C9 1_555 1_555
C10 C9 1_555 1_555
H7 C10 1_555 1_555
C11 C10 1_555 1_555
C12 C11 1_555 1_555
H8 C12 1_555 1_555
C13 C8 1_555 1_555
H9 C13 1_555 1_555
C14 C3 1_555 1_555
C15 C14 1_555 1_555
H10 C15 1_555 1_555
C16 C15 1_555 1_555
H11 C16 1_555 1_555
C17 C16 1_555 1_555
H12 C17 1_555 1_555
C18 C17 1_555 1_555
H13 C18 1_555 1_555
C19 C14 1_555 1_555
H14 C19 1_555 1_555
C20 C5 1_555 1_555
C21 O4 1_555 1_555
H15 C21 1_555 1_555
H16 C21 1_555 1_555
H17 C21 1_555 1_555
C4 C5 1_555 1_555
C12 C13 1_555 1_555
C18 C19 1_555 1_555

#END
