
#######################################################################
#
#                 Cambridge Crystallographic Data Centre
#                                CCDC 
#
#######################################################################
#
# If this CIF has been generated from an entry in the Cambridge 
# Structural Database, then it will include bibliographic, chemical, 
# crystal, experimental, refinement or atomic coordinate data resulting 
# from the CCDC's data processing and validation procedures.
#
#######################################################################

data_WIFXAN
_chemical_name_common            
'5-nitro-N2-((1R,2R,4R)-1,7,7-trimethylbicyclo[2.2.1]heptan-2-yl)-N3-((1R,2R,4R)-1,7,7-trimethylbicyclo[2.2.1]heptan-2-yl)isophthalamide dichloromethane unknown solvate'
_chemical_formula_moiety         'C28 H39 N3 O4,0.5(C1 H2 Cl2)'
_chemical_name_systematic        
'5-nitro-N^1^,N^3^-bis(1,7,7-trimethylbicyclo[2.2.1]heptan-2-yl)benzene-1,3-dicarboxamide dichloromethane unknown solvate'
_symmetry_cell_setting           triclinic
_symmetry_space_group_name_H-M   'P 1'
_symmetry_Int_Tables_number      1
_space_group_name_Hall           'P 1'
loop_
_symmetry_equiv_pos_site_id
_symmetry_equiv_pos_as_xyz
1 x,y,z
_cell_length_a                   7.2828(4)
_cell_length_b                   12.6801(8)
_cell_length_c                   16.9826(9)
_cell_angle_alpha                70.373(5)
_cell_angle_beta                 78.541(5)
_cell_angle_gamma                78.791(5)
_cell_volume                     1433.81
_exptl_crystal_colour            colorless
_exptl_crystal_description       plate
_cell_formula_units_Z            2
_exptl_crystal_recrystallization_method dichloromethane/methanol
loop_
_atom_site_label
_atom_site_type_symbol
_atom_site_fract_x
_atom_site_fract_y
_atom_site_fract_z
C1 C -0.0709(5) -0.6303(3) -0.4855(3)
N1 N -0.0898(4) -0.5098(3) -0.3990(2)
H1 H -0.0138(4) -0.5626(3) -0.3701(2)
C2 C -0.0434(6) -0.7339(4) -0.4242(3)
H2 H -0.0639(6) -0.7397(4) -0.3672(3)
C3 C 0.0193(5) -0.7214(4) -0.5955(3)
C4 C -0.0385(5) -0.6258(4) -0.5707(3)
H3 H -0.0567(5) -0.5560(4) -0.6118(3)
C5 C 0.0454(6) -0.8266(4) -0.5334(3)
H4 H 0.0819(6) -0.8929(4) -0.5479(3)
O1 O -0.2644(4) -0.4548(3) -0.5058(2)
N2 N 0.1087(5) -0.6359(3) -0.7448(2)
H5 H 0.1553(5) -0.5897(3) -0.7296(2)
C6 C -0.1496(5) -0.5243(4) -0.4641(3)
C7 C 0.0159(6) -0.8289(4) -0.4508(3)
C8 C 0.0301(6) -0.7189(4) -0.6851(3)
N3 N 0.0340(7) -0.9410(4) -0.3838(3)
O2 O -0.0381(5) -0.7917(3) -0.6991(2)
C9 C -0.3277(6) -0.4052(4) -0.3073(3)
C10 C 0.1209(6) -0.6182(5) -0.8350(3)
H6 H 0.1230(6) -0.6918(5) -0.8425(3)
C11 C -0.1521(6) -0.4051(4) -0.3766(3)
H7 H -0.1785(6) -0.3430(4) -0.4278(3)
C12 C -0.0443(6) -0.5350(5) -0.8790(3)
C13 C -0.2411(7) -0.4367(4) -0.2257(3)
C14 C -0.1110(8) -0.3453(5) -0.2620(4)
H8 H -0.0326(8) -0.3430(5) -0.2221(4)
O3 O 0.1482(8) -1.0153(4) -0.4026(4)
C15 C 0.0015(7) -0.3762(5) -0.3387(3)
H9 H 0.0977(7) -0.4408(5) -0.3222(3)
H10 H 0.0612(7) -0.3131(5) -0.3785(3)
O4 O -0.0738(7) -0.9495(4) -0.3167(3)
C16 C 0.2189(9) -0.4713(6) -0.9612(4)
H11 H 0.3068(9) -0.4169(6) -0.9929(4)
C17 C 0.2968(7) -0.5675(6) -0.8901(3)
H12 H 0.3625(7) -0.5401(6) -0.8581(3)
H13 H 0.3834(7) -0.6232(6) -0.9117(3)
C18 C -0.2354(7) -0.5368(7) -0.8249(5)
H14 H -0.268(4) -0.6119(13) -0.806(3)
H15 H -0.231(2) -0.514(5) -0.777(2)
H16 H -0.3285(16) -0.486(4) -0.8575(12)
C19 C -0.3923(10) -0.2764(6) -0.3238(5)
H17 H -0.3969(10) -0.2379(6) -0.3834(5)
H18 H -0.5165(10) -0.2626(6) -0.2924(5)
C20 C -0.1421(9) -0.5574(5) -0.1954(4)
H19 H -0.2348(9) -0.6084(6) -0.173(3)
H20 H -0.060(5) -0.5758(15) -0.2420(7)
H21 H -0.069(6) -0.5641(11) -0.152(2)
C21 C -0.4780(7) -0.4719(6) -0.3099(4)
H22 H -0.524(5) -0.440(3) -0.3634(13)
H23 H -0.424(2) -0.5493(11) -0.303(3)
H24 H -0.581(3) -0.468(4) -0.265(2)
C22 C 0.0388(8) -0.4217(5) -0.9172(4)
C23 C -0.0349(9) -0.5685(6) -0.9593(4)
H25 H -0.0267(9) -0.6497(6) -0.9457(4)
H26 H -0.1453(9) -0.5323(6) -0.9871(4)
C24 C -0.3868(9) -0.4180(7) -0.1495(4)
H27 H -0.462(6) -0.346(2) -0.1671(10)
H28 H -0.467(5) -0.476(3) -0.129(2)
H29 H -0.3210(9) -0.421(5) -0.1050(15)
C25 C 0.1465(11) -0.5258(7) -1.0155(4)
H30 H 0.1185(11) -0.4709(7) -1.0688(4)
H31 H 0.2377(11) -0.5878(7) -1.0265(4)
C26 C 0.0718(10) -0.3712(6) -0.8505(4)
H32 H -0.0468(14) -0.355(4) -0.817(2)
H33 H 0.156(6) -0.4246(18) -0.814(2)
H34 H 0.127(7) -0.303(2) -0.8786(4)
C27 C -0.2438(11) -0.2364(6) -0.2932(5)
H35 H -0.2994(11) -0.2045(6) -0.2478(5)
H36 H -0.1788(11) -0.1806(6) -0.3388(5)
C28 C -0.0819(11) -0.3269(7) -0.9774(5)
H37 H -0.108(8) -0.354(2) -1.020(3)
H38 H -0.199(4) -0.304(4) -0.9458(9)
H39 H -0.014(4) -0.263(2) -1.004(3)
O5 O 0.3557(4) -0.5252(3) -0.6951(2)
C29 C 0.4311(5) -0.5267(3) -0.6350(3)
C30 C 0.4213(5) -0.6375(4) -0.4816(3)
H40 H 0.3742(5) -0.5708(4) -0.4686(3)
C31 C 0.4655(5) -0.6342(3) -0.5655(3)
C32 C 0.4458(6) -0.7382(4) -0.4163(3)
C33 C 0.5191(6) -0.8373(4) -0.4348(3)
H41 H 0.5413(6) -0.9049(4) -0.3920(3)
C34 C 0.5589(6) -0.8337(4) -0.5190(3)
N4 N 0.4826(4) -0.4350(3) -0.6288(2)
H42 H 0.5362(4) -0.4417(3) -0.5863(2)
O6 O 0.2376(5) -0.6668(3) -0.3150(2)
N5 N 0.6336(6) -0.9388(4) -0.5380(3)
C35 C 0.4524(6) -0.3238(4) -0.6909(3)
H43 H 0.4527(6) -0.3341(4) -0.7456(3)
C36 C 0.3776(6) -0.7343(4) -0.3277(3)
N6 N 0.4729(5) -0.8057(4) -0.2668(3)
H44 H 0.5707(5) -0.8501(4) -0.2800(3)
C37 C 0.4155(8) -0.8101(5) -0.1790(3)
H45 H 0.3501(8) -0.7353(5) -0.1777(3)
O7 O 0.6104(7) -0.9452(4) -0.6048(4)
C38 C 0.2671(7) -0.2463(4) -0.6711(3)
C39 C 0.6074(7) -0.2506(4) -0.7011(3)
H46 H 0.6826(7) -0.2825(4) -0.6553(3)
H47 H 0.6902(7) -0.2435(4) -0.7545(3)
C40 C 0.2870(8) -0.8980(6) -0.1239(4)
O8 O 0.7140(7) -1.0161(4) -0.4861(4)
C41 C 0.4952(9) -0.1375(4) -0.6987(4)
H48 H 0.5688(9) -0.0864(4) -0.6899(4)
C42 C 0.4306(9) -0.9997(5) -0.0804(4)
C43 C 0.2408(10) -0.1600(5) -0.7582(5)
H49 H 0.2552(10) -0.1977(5) -0.8006(5)
H50 H 0.1168(10) -0.1151(5) -0.7564(5)
C44 C 0.3326(8) -0.1729(5) -0.6279(4)
C45 C 0.5194(11) -0.9291(6) -0.0480(4)
H51 H 0.6207(11) -0.9719(6) -0.0149(4)
C46 C 0.0985(7) -0.3089(6) -0.6266(5)
H52 H 0.064(5) -0.343(4) -0.6634(13)
H53 H 0.131(3) -0.367(3) -0.5761(19)
H54 H -0.006(3) -0.2567(11) -0.612(3)
C47 C 0.3889(9) -0.2378(6) -0.5404(4)
H55 H 0.289(3) -0.280(3) -0.5059(11)
H56 H 0.503(4) -0.289(3) -0.5460(5)
H57 H 0.410(7) -0.1855(6) -0.5144(13)
C48 C 0.3960(11) -0.0865(5) -0.7770(5)
H58 H 0.3433(11) -0.0081(5) -0.7838(5)
H59 H 0.4822(11) -0.0911(5) -0.8276(5)
C49 C 0.1869(11) -0.0719(7) -0.6189(6)
H60 H 0.154(8) -0.027(3) -0.6734(9)
H61 H 0.076(4) -0.0983(7) -0.582(4)
H62 H 0.239(4) -0.027(3) -0.596(4)
C50 C 0.3585(14) -0.8722(7) 0.0006(5)
H63 H 0.3297(14) -0.9203(7) 0.0582(5)
H64 H 0.3869(14) -0.8010(7) 0.0014(5)
C51 C 0.5879(11) -0.8391(6) -0.1297(5)
H65 H 0.7014(11) -0.8693(6) -0.1604(5)
H66 H 0.6120(11) -0.7735(6) -0.1183(5)
C52 C 0.5597(14) -1.0575(7) -0.1403(5)
H67 H 0.4850(16) -1.076(6) -0.173(4)
H68 H 0.647(8) -1.008(3) -0.177(4)
H69 H 0.629(9) -1.126(4) -0.1084(6)
C53 C 0.1448(10) -0.9134(9) -0.1727(5)
H70 H 0.085(10) -0.8407(10) -0.203(5)
H71 H 0.209(3) -0.953(7) -0.212(5)
H72 H 0.051(8) -0.956(7) -0.1339(8)
C54 C 0.5289(6) -0.7347(4) -0.5843(3)
H73 H 0.5509(6) -0.7354(4) -0.6400(3)
C55 C 0.3378(15) -1.0945(7) -0.0075(6)
H74 H 0.4348(15) -1.151(5) 0.019(4)
H75 H 0.259(12) -1.0626(17) 0.034(3)
H76 H 0.262(12) -1.129(6) -0.0298(12)
C56 C 0.2002(12) -0.8543(9) -0.0482(5)
H77 H 0.1500(12) -0.7747(9) -0.0675(5)
H78 H 0.0990(12) -0.8961(9) -0.0136(5)
Cl1 Cl -0.1590(3) -0.9594(3) 0.1272(2)
Cl2 Cl -0.4320(3) -0.8155(3) 0.1924(3)
C57 C -0.2136(16) -0.8913(11) 0.1980(8)
H79 H -0.2098(16) -0.9451(11) 0.2541(8)
H80 H -0.1211(16) -0.8409(11) 0.1884(8)
loop_
_geom_bond_atom_site_label_1
_geom_bond_atom_site_label_2
_geom_bond_site_symmetry_1
_geom_bond_site_symmetry_2
C1 C2 1_555 1_555
N1 H1 1_555 1_555
C2 H2 1_555 1_555
C3 C4 1_555 1_555
C4 C1 1_555 1_555
H3 C4 1_555 1_555
C5 C3 1_555 1_555
H4 C5 1_555 1_555
O1 C6 1_555 1_555
N2 H5 1_555 1_555
C6 C1 1_555 1_555
C7 C2 1_555 1_555
C8 C3 1_555 1_555
N3 C7 1_555 1_555
O2 C8 1_555 1_555
C9 C11 1_555 1_555
C10 N2 1_555 1_555
H6 C10 1_555 1_555
C11 N1 1_555 1_555
H7 C11 1_555 1_555
C12 C10 1_555 1_555
C13 C9 1_555 1_555
C14 C13 1_555 1_555
H8 C14 1_555 1_555
O3 N3 1_555 1_555
C15 C11 1_555 1_555
H9 C15 1_555 1_555
H10 C15 1_555 1_555
O4 N3 1_555 1_555
C16 H11 1_555 1_555
C17 C10 1_555 1_555
H12 C17 1_555 1_555
H13 C17 1_555 1_555
C18 C12 1_555 1_555
H14 C18 1_555 1_555
H15 C18 1_555 1_555
H16 C18 1_555 1_555
C19 C9 1_555 1_555
H17 C19 1_555 1_555
H18 C19 1_555 1_555
C20 C13 1_555 1_555
H19 C20 1_555 1_555
H20 C20 1_555 1_555
H21 C20 1_555 1_555
C21 C9 1_555 1_555
H22 C21 1_555 1_555
H23 C21 1_555 1_555
H24 C21 1_555 1_555
C22 C12 1_555 1_555
C23 C12 1_555 1_555
H25 C23 1_555 1_555
H26 C23 1_555 1_555
C24 C13 1_555 1_555
H27 C24 1_555 1_555
H28 C24 1_555 1_555
H29 C24 1_555 1_555
C25 C16 1_555 1_555
H30 C25 1_555 1_555
H31 C25 1_555 1_555
C26 C22 1_555 1_555
H32 C26 1_555 1_555
H33 C26 1_555 1_555
H34 C26 1_555 1_555
C27 C14 1_555 1_555
H35 C27 1_555 1_555
H36 C27 1_555 1_555
C28 C22 1_555 1_555
H37 C28 1_555 1_555
H38 C28 1_555 1_555
H39 C28 1_555 1_555
O5 C29 1_555 1_555
C29 C31 1_555 1_555
C30 H40 1_555 1_555
C31 C30 1_555 1_555
C32 C30 1_555 1_555
C33 C32 1_555 1_555
H41 C33 1_555 1_555
C34 C33 1_555 1_555
N4 C29 1_555 1_555
H42 N4 1_555 1_555
O6 C36 1_555 1_555
N5 C34 1_555 1_555
C35 N4 1_555 1_555
H43 C35 1_555 1_555
C36 C32 1_555 1_555
N6 C36 1_555 1_555
H44 N6 1_555 1_555
C37 N6 1_555 1_555
H45 C37 1_555 1_555
O7 N5 1_555 1_555
C38 C35 1_555 1_555
C39 C35 1_555 1_555
H46 C39 1_555 1_555
H47 C39 1_555 1_555
C40 C37 1_555 1_555
O8 N5 1_555 1_555
C41 C39 1_555 1_555
H48 C41 1_555 1_555
C42 C40 1_555 1_555
C43 C38 1_555 1_555
H49 C43 1_555 1_555
H50 C43 1_555 1_555
C44 C38 1_555 1_555
C45 C42 1_555 1_555
H51 C45 1_555 1_555
C46 C38 1_555 1_555
H52 C46 1_555 1_555
H53 C46 1_555 1_555
H54 C46 1_555 1_555
C47 C44 1_555 1_555
H55 C47 1_555 1_555
H56 C47 1_555 1_555
H57 C47 1_555 1_555
C48 C41 1_555 1_555
H58 C48 1_555 1_555
H59 C48 1_555 1_555
C49 C44 1_555 1_555
H60 C49 1_555 1_555
H61 C49 1_555 1_555
H62 C49 1_555 1_555
C50 C45 1_555 1_555
H63 C50 1_555 1_555
H64 C50 1_555 1_555
C51 C37 1_555 1_555
H65 C51 1_555 1_555
H66 C51 1_555 1_555
C52 C42 1_555 1_555
H67 C52 1_555 1_555
H68 C52 1_555 1_555
H69 C52 1_555 1_555
C53 C40 1_555 1_555
H70 C53 1_555 1_555
H71 C53 1_555 1_555
H72 C53 1_555 1_555
C54 C31 1_555 1_555
H73 C54 1_555 1_555
C55 C42 1_555 1_555
H74 C55 1_555 1_555
H75 C55 1_555 1_555
H76 C55 1_555 1_555
C56 C40 1_555 1_555
H77 C56 1_555 1_555
H78 C56 1_555 1_555
Cl1 C57 1_555 1_555
Cl2 C57 1_555 1_555
C57 H79 1_555 1_555
H80 C57 1_555 1_555
N1 C6 1_555 1_555
C5 C7 1_555 1_555
N2 C8 1_555 1_555
C14 C15 1_555 1_555
C16 C17 1_555 1_555
C16 C22 1_555 1_555
C19 C27 1_555 1_555
C23 C25 1_555 1_555
C34 C54 1_555 1_555
C41 C44 1_555 1_555
C43 C48 1_555 1_555
C45 C51 1_555 1_555
C50 C56 1_555 1_555

#END
