
#######################################################################
#
#                 Cambridge Crystallographic Data Centre
#                                CCDC 
#
#######################################################################
#
# If this CIF has been generated from an entry in the Cambridge 
# Structural Database, then it will include bibliographic, chemical, 
# crystal, experimental, refinement or atomic coordinate data resulting 
# from the CCDC's data processing and validation procedures.
#
#######################################################################

data_WIFZET
_chemical_formula_moiety         'C12 H12 F3 N3'
_chemical_name_systematic        
1-benzyl-4-(1,1,1-trifluoropropan-2-yl)-1H-1,2,3-triazole
_symmetry_cell_setting           monoclinic
_symmetry_space_group_name_H-M   'P 21'
_symmetry_Int_Tables_number      4
_space_group_name_Hall           'P 2yb'
loop_
_symmetry_equiv_pos_site_id
_symmetry_equiv_pos_as_xyz
1 x,y,z
2 -x,1/2+y,-z
_cell_length_a                   5.5017(2)
_cell_length_b                   20.9851(5)
_cell_length_c                   10.8727(3)
_cell_angle_alpha                90
_cell_angle_beta                 92.4380(10)
_cell_angle_gamma                90
_cell_volume                     1254.16
_exptl_crystal_colour            colorless
_exptl_crystal_description       prismatic
_cell_formula_units_Z            4
loop_
_atom_site_label
_atom_site_type_symbol
_atom_site_fract_x
_atom_site_fract_y
_atom_site_fract_z
F1 F 0.7407(12) 0.3233(2) 0.6186(4)
F2 F 0.4025(9) 0.3096(2) 0.6952(5)
F3 F 0.6526(10) 0.23251(16) 0.6925(4)
N1 N 0.6774(6) 0.48535(17) 0.8615(3)
N2 N 0.9176(7) 0.47840(19) 0.8575(3)
N3 N 0.9604(6) 0.41759(19) 0.8473(4)
C1 C 0.5651(7) 0.4288(2) 0.8555(4)
H1 H 0.3990 0.4208 0.8575
C2 C 0.7472(7) 0.3856(2) 0.8459(3)
C3 C 0.7386(9) 0.3144(2) 0.8338(5)
H2 H 0.9065 0.2988 0.8407
C4 C 0.600(2) 0.2826(4) 0.9347(7)
H3 H 0.4300 0.2926 0.9239
H4 H 0.6601 0.2979 1.0134
H5 H 0.6218 0.2373 0.9305
C5 C 0.6364(13) 0.2954(3) 0.7106(5)
C6 C 0.5706(10) 0.5493(2) 0.8783(5)
H6 H 0.4020 0.5490 0.8484
H7 H 0.6574 0.5802 0.8303
C7 C 0.5841(8) 0.56877(19) 1.0119(4)
C8 C 0.7723(10) 0.6057(3) 1.0593(5)
H8 H 0.8924 0.6197 1.0081
C9 C 0.7841(11) 0.6220(3) 1.1824(6)
H9 H 0.9118 0.6471 1.2138
C10 C 0.6085(11) 0.6015(3) 1.2582(5)
H10 H 0.6157 0.6131 1.3408
C11 C 0.4243(10) 0.5644(3) 1.2135(5)
H11 H 0.3082 0.5494 1.2662
C12 C 0.4077(9) 0.5485(3) 1.0904(5)
H12 H 0.2776 0.5241 1.0599
F4 F 0.1902(9) 0.76701(17) 0.7446(5)
F5 F 0.4242(9) 0.68817(18) 0.7796(4)
F6 F 0.0448(11) 0.6788(2) 0.7980(4)
N4 N 0.1660(7) 0.51357(17) 0.5642(3)
N5 N 0.4036(7) 0.52462(19) 0.5653(4)
N6 N 0.4308(6) 0.58695(19) 0.5764(3)
C13 C 0.0412(7) 0.5673(2) 0.5755(4)
H13 H -0.1268 0.5717 0.5778
C14 C 0.2105(6) 0.6142(2) 0.5830(3)
C15 C 0.1789(8) 0.6851(2) 0.5973(4)
H14 H 0.3092 0.7058 0.5534
C16 C -0.0606(10) 0.7088(3) 0.5405(7)
H15 H -0.0735 0.6966 0.4554
H16 H -0.0674 0.7543 0.5470
H17 H -0.1926 0.6903 0.5833
C17 C 0.2092(11) 0.7042(2) 0.7303(5)
C18 C 0.0753(11) 0.4477(2) 0.5459(5)
H18 H -0.0919 0.4451 0.5703
H19 H 0.1719 0.4188 0.5976
C19 C 0.0888(8) 0.42772(19) 0.4136(4)
C20 C 0.2782(9) 0.3908(2) 0.3749(5)
H20 H 0.3985 0.3772 0.4316
C21 C 0.2907(11) 0.3739(3) 0.2530(6)
H21 H 0.4200 0.3491 0.2282
C22 C 0.1169(12) 0.3929(3) 0.1684(5)
H22 H 0.1264 0.3813 0.0862
C23 C -0.0711(12) 0.4292(3) 0.2056(6)
H23 H -0.1903 0.4425 0.1480
C24 C -0.0878(9) 0.4464(2) 0.3266(5)
H24 H -0.2187 0.4709 0.3504
loop_
_geom_bond_atom_site_label_1
_geom_bond_atom_site_label_2
_geom_bond_site_symmetry_1
_geom_bond_site_symmetry_2
F1 C5 1_555 1_555
F2 C5 1_555 1_555
F3 C5 1_555 1_555
N1 N2 1_555 1_555
N2 N3 1_555 1_555
N3 C2 1_555 1_555
C1 N1 1_555 1_555
H1 C1 1_555 1_555
C2 C1 1_555 1_555
C3 C2 1_555 1_555
H2 C3 1_555 1_555
C4 C3 1_555 1_555
H3 C4 1_555 1_555
H4 C4 1_555 1_555
H5 C4 1_555 1_555
C5 C3 1_555 1_555
C6 N1 1_555 1_555
H6 C6 1_555 1_555
H7 C6 1_555 1_555
C7 C6 1_555 1_555
C8 C7 1_555 1_555
H8 C8 1_555 1_555
C9 C8 1_555 1_555
H9 C9 1_555 1_555
C10 C9 1_555 1_555
H10 C10 1_555 1_555
C11 C10 1_555 1_555
H11 C11 1_555 1_555
C12 C7 1_555 1_555
H12 C12 1_555 1_555
F4 C17 1_555 1_555
F5 C17 1_555 1_555
F6 C17 1_555 1_555
N4 N5 1_555 1_555
N5 N6 1_555 1_555
N6 C14 1_555 1_555
C13 N4 1_555 1_555
H13 C13 1_555 1_555
C14 C13 1_555 1_555
C15 C14 1_555 1_555
H14 C15 1_555 1_555
C16 C15 1_555 1_555
H15 C16 1_555 1_555
H16 C16 1_555 1_555
H17 C16 1_555 1_555
C17 C15 1_555 1_555
C18 N4 1_555 1_555
H18 C18 1_555 1_555
H19 C18 1_555 1_555
C19 C18 1_555 1_555
C20 C19 1_555 1_555
H20 C20 1_555 1_555
C21 C20 1_555 1_555
H21 C21 1_555 1_555
C22 C21 1_555 1_555
H22 C22 1_555 1_555
C23 C22 1_555 1_555
H23 C23 1_555 1_555
C24 C19 1_555 1_555
H24 C24 1_555 1_555
C11 C12 1_555 1_555
C23 C24 1_555 1_555

#END
