
#######################################################################
#
#                 Cambridge Crystallographic Data Centre
#                                CCDC 
#
#######################################################################
#
# If this CIF has been generated from an entry in the Cambridge 
# Structural Database, then it will include bibliographic, chemical, 
# crystal, experimental, refinement or atomic coordinate data resulting 
# from the CCDC's data processing and validation procedures.
#
#######################################################################

data_WIGKON
_chemical_formula_moiety         'C9 H10 O3'
_chemical_name_systematic        
(4S,4aR)-3,4,4a,5-Tetrahydro-4-hydroxisochromen-6-one
_symmetry_cell_setting           monoclinic
_symmetry_space_group_name_H-M   'P 21'
_symmetry_Int_Tables_number      4
_space_group_name_Hall           'P 2yb'
loop_
_symmetry_equiv_pos_site_id
_symmetry_equiv_pos_as_xyz
1 x,y,z
2 -x,1/2+y,-z
_cell_length_a                   4.6480(2)
_cell_length_b                   12.7621(4)
_cell_length_c                   7.2158(2)
_cell_angle_alpha                90
_cell_angle_beta                 103.850(2)
_cell_angle_gamma                90
_cell_volume                     415.584
_exptl_crystal_colour            colorless
_exptl_crystal_description       prism
_chemical_melting_point          115-117deg.C
_cell_formula_units_Z            2
loop_
_atom_site_label
_atom_site_type_symbol
_atom_site_fract_x
_atom_site_fract_y
_atom_site_fract_z
O1 O 0.2987(5) 0.49644(18) 0.7736(4)
O2 O 0.8509(5) 0.6054(2) 1.1799(3)
O3 O 0.5245(6) 0.80731(19) 0.3547(3)
C1 C 0.7808(5) 0.7267(2) 0.9211(4)
C2 C 0.5494(5) 0.66195(18) 0.7891(3)
H1 H 0.3548 0.6906 0.7918
C3 C 0.5839(7) 0.6694(2) 0.5842(4)
C4 C 0.5628(6) 0.5501(2) 0.8610(4)
C5 C 0.8687(7) 0.8228(2) 0.8504(4)
H2 H 0.9918 0.8676 0.9357
C6 C 0.5913(7) 0.5502(3) 1.0761(4)
C7 C 0.7818(8) 0.8519(2) 0.6657(5)
H3 H 0.8282 0.9186 0.6300
C8 C 0.9095(7) 0.6952(3) 1.0989(4)
C9 C 0.6184(7) 0.7814(2) 0.5230(4)
H4 H 0.414(8) 0.631(3) 0.488(6)
H5 H 0.769(8) 0.627(3) 0.578(5)
H6 H 0.735(7) 0.513(2) 0.837(4)
H7 H 1.055(8) 0.730(3) 1.174(6)
H8 H 0.617(8) 0.486(4) 1.133(5)
H9 H 0.405(10) 0.584(4) 1.093(7)
H10 H 0.386(17) 0.428(6) 0.757(10)
loop_
_geom_bond_atom_site_label_1
_geom_bond_atom_site_label_2
_geom_bond_site_symmetry_1
_geom_bond_site_symmetry_2
O1 C4 1_555 1_555
O2 C6 1_555 1_555
O3 C9 1_555 1_555
C1 C2 1_555 1_555
C2 H1 1_555 1_555
C3 C2 1_555 1_555
C4 C2 1_555 1_555
C5 C1 1_555 1_555
H2 C5 1_555 1_555
C6 C4 1_555 1_555
C7 C5 1_555 1_555
H3 C7 1_555 1_555
C8 O2 1_555 1_555
C9 C3 1_555 1_555
H4 C3 1_555 1_555
H5 C3 1_555 1_555
H6 C4 1_555 1_555
H7 C8 1_555 1_555
H8 C6 1_555 1_555
H9 C6 1_555 1_555
H10 O1 1_555 1_555
C1 C8 1_555 1_555
C7 C9 1_555 1_555

#END
