
#######################################################################
#
#                 Cambridge Crystallographic Data Centre
#                                CCDC 
#
#######################################################################
#
# If this CIF has been generated from an entry in the Cambridge 
# Structural Database, then it will include bibliographic, chemical, 
# crystal, experimental, refinement or atomic coordinate data resulting 
# from the CCDC's data processing and validation procedures.
#
#######################################################################

data_WIGLUV
_chemical_formula_moiety         'C14 H16 N2 O3'
_chemical_name_systematic        
3-(2-Hydroxyethyl)-5-(2-methoxybenzylidene)-2-methyl-3,5-dihydro-4H-imidazol-4-one
_symmetry_cell_setting           monoclinic
_symmetry_space_group_name_H-M   'P 21'
_symmetry_Int_Tables_number      4
_space_group_name_Hall           'P 2yb'
loop_
_symmetry_equiv_pos_site_id
_symmetry_equiv_pos_as_xyz
1 x,y,z
2 -x,1/2+y,-z
_cell_length_a                   9.2188(5)
_cell_length_b                   7.2767(4)
_cell_length_c                   9.5620(5)
_cell_angle_alpha                90
_cell_angle_beta                 93.625(6)
_cell_angle_gamma                90
_cell_volume                     640.159
_exptl_crystal_colour            yellow
_exptl_crystal_description       needle
_cell_formula_units_Z            2
loop_
_atom_site_label
_atom_site_type_symbol
_atom_site_fract_x
_atom_site_fract_y
_atom_site_fract_z
O1 O 0.46857(7) 0.27870(9) 0.59877(7)
O2 O 0.52843(7) 0.87448(9) 0.79824(7)
O3 O 0.11188(6) 0.14749(9) 0.32174(6)
H1 H 0.0433(16) 0.064(2) 0.3128(15)
N1 N 0.23432(7) 0.16329(9) 0.60614(7)
N2 N 0.12395(7) 0.39039(9) 0.72030(7)
C1 C 0.34363(8) 0.29285(10) 0.63215(8)
C2 C 0.10888(8) 0.22969(11) 0.65921(7)
C3 C 0.26991(8) 0.44057(10) 0.70824(8)
C4 C 0.25234(8) 0.00285(10) 0.51780(8)
H2 H 0.1748 -0.0877 0.5335
H3 H 0.3473 -0.0558 0.5431
C5 C 0.24500(8) 0.05885(12) 0.36415(8)
H4 H 0.3268 0.1428 0.3481
H5 H 0.2563 -0.0519 0.3057
C6 C -0.02821(9) 0.12268(11) 0.64852(9)
H6 H -0.1019 0.1860 0.7002
H7 H -0.0108 0.0001 0.6885
H8 H -0.0626 0.1112 0.5498
C7 C 0.34421(8) 0.59176(10) 0.75311(8)
H9 H 0.4419 0.5965 0.7272
C8 C 0.29964(8) 0.74799(10) 0.83426(7)
C9 C 0.16563(8) 0.75856(11) 0.89605(8)
H10 H 0.0969 0.6622 0.8807
C10 C 0.13176(9) 0.90681(13) 0.97897(8)
H11 H 0.0408 0.9115 1.0203
C11 C 0.23173(9) 1.04896(12) 1.00136(8)
H12 H 0.2081 1.1511 1.0575
C12 C 0.36595(9) 1.04289(11) 0.94234(8)
H13 H 0.4338 1.1400 0.9584
C13 C 0.39992(8) 0.89311(10) 0.85941(7)
C14 C 0.64199(10) 1.00233(13) 0.83403(11)
H14 H 0.6138 1.1243 0.7984
H15 H 0.7312 0.9629 0.7921
H16 H 0.6590 1.0076 0.9362
loop_
_geom_bond_atom_site_label_1
_geom_bond_atom_site_label_2
_geom_bond_site_symmetry_1
_geom_bond_site_symmetry_2
O1 C1 1_555 1_555
O2 C13 1_555 1_555
O3 H1 1_555 1_555
N1 C1 1_555 1_555
N2 C2 1_555 1_555
C1 C3 1_555 1_555
C2 N1 1_555 1_555
C3 N2 1_555 1_555
C4 N1 1_555 1_555
H2 C4 1_555 1_555
H3 C4 1_555 1_555
C5 O3 1_555 1_555
H4 C5 1_555 1_555
H5 C5 1_555 1_555
C6 C2 1_555 1_555
H6 C6 1_555 1_555
H7 C6 1_555 1_555
H8 C6 1_555 1_555
C7 C3 1_555 1_555
H9 C7 1_555 1_555
C8 C7 1_555 1_555
C9 C8 1_555 1_555
H10 C9 1_555 1_555
C10 C9 1_555 1_555
H11 C10 1_555 1_555
C11 C10 1_555 1_555
H12 C11 1_555 1_555
C12 C11 1_555 1_555
H13 C12 1_555 1_555
C13 C8 1_555 1_555
C14 O2 1_555 1_555
H14 C14 1_555 1_555
H15 C14 1_555 1_555
H16 C14 1_555 1_555
C4 C5 1_555 1_555
C12 C13 1_555 1_555

#END
