
#######################################################################
#
#                 Cambridge Crystallographic Data Centre
#                                CCDC 
#
#######################################################################
#
# If this CIF has been generated from an entry in the Cambridge 
# Structural Database, then it will include bibliographic, chemical, 
# crystal, experimental, refinement or atomic coordinate data resulting 
# from the CCDC's data processing and validation procedures.
#
#######################################################################

data_WIGMEG
_chemical_formula_moiety         'C20 H19 N1 O4'
_chemical_name_systematic        
'(3R,4S)-1-(4-Methoxyphenyl)-2-oxo-4-(3-vinylphenyl)azetidin-3-yl acetate'
_symmetry_cell_setting           monoclinic
_symmetry_space_group_name_H-M   'C 2'
_symmetry_Int_Tables_number      5
_space_group_name_Hall           'C 2y'
loop_
_symmetry_equiv_pos_site_id
_symmetry_equiv_pos_as_xyz
1 x,y,z
2 -x,y,-z
3 1/2+x,1/2+y,z
4 1/2-x,1/2+y,-z
_cell_length_a                   20.7448(4)
_cell_length_b                   6.39300(10)
_cell_length_c                   15.7434(3)
_cell_angle_alpha                90
_cell_angle_beta                 124.3090(10)
_cell_angle_gamma                90
_cell_volume                     1724.64
_exptl_crystal_colour            colorless
_exptl_crystal_description       Block
_cell_formula_units_Z            4
loop_
_atom_site_label
_atom_site_type_symbol
_atom_site_fract_x
_atom_site_fract_y
_atom_site_fract_z
N1 N 0.01643(6) 0.3030(2) 0.64077(8)
O1 O -0.02784(6) 0.65258(18) 0.59931(8)
O2 O -0.06828(5) 0.45389(17) 0.74357(7)
O3 O -0.15201(7) 0.2201(2) 0.73583(9)
O4 O 0.26072(6) 0.13686(18) 0.59965(8)
C1 C -0.02761(7) 0.4753(3) 0.62602(10)
C2 C -0.07416(7) 0.3539(2) 0.65865(10)
H1 H -0.1292 0.3251 0.6003
C3 C -0.01748(7) 0.1671(2) 0.68246(10)
H2 H -0.0451 0.0426 0.6380
C4 C 0.03811(7) 0.1098(2) 0.79424(10)
C5 C 0.02826(8) -0.0778(3) 0.82961(12)
H3 H -0.0121 -0.1714 0.7832
C6 C 0.07760(9) -0.1290(3) 0.93339(12)
H4 H 0.0704 -0.2572 0.9576
C7 C 0.13680(9) 0.0046(3) 1.00140(12)
H5 H 0.1695 -0.0314 1.0722
C8 C 0.14908(8) 0.1925(3) 0.96712(11)
C9 C 0.09860(8) 0.2431(3) 0.86306(11)
H6 H 0.1057 0.3711 0.8387
C10 C 0.21420(9) 0.3354(3) 1.03509(12)
H7 H 0.2162 0.4619 1.0050
C11 C 0.26974(10) 0.3070(4) 1.13267(14)
H8 H 0.2706 0.1832 1.1667
H9 H 0.3090 0.4102 1.1692
C12 C -0.11309(8) 0.3737(3) 0.77324(12)
C13 C -0.10664(12) 0.5031(4) 0.85648(14)
H10 H -0.1589 0.5291 0.8408
H11 H -0.0816 0.6367 0.8613
H12 H -0.0752 0.4286 0.9221
C14 C 0.07884(7) 0.2651(2) 0.63024(9)
C15 C 0.09304(7) 0.0624(2) 0.61245(10)
H13 H 0.0609 -0.0497 0.6071
C16 C 0.15445(8) 0.0252(2) 0.60258(11)
H14 H 0.1643 -0.1127 0.5902
C17 C 0.20168(8) 0.1904(2) 0.61088(10)
C18 C 0.18780(8) 0.3919(3) 0.62910(11)
H15 H 0.2203 0.5038 0.6353
C19 C 0.12576(8) 0.4292(3) 0.63829(10)
H16 H 0.1156 0.5673 0.6501
C20 C 0.30559(8) 0.3045(3) 0.59786(13)
H17 H 0.2707 0.4030 0.5431
H18 H 0.3433 0.2482 0.5850
H19 H 0.3335 0.3771 0.6642
loop_
_geom_bond_atom_site_label_1
_geom_bond_atom_site_label_2
_geom_bond_site_symmetry_1
_geom_bond_site_symmetry_2
N1 C1 1_555 1_555
O1 C1 1_555 1_555
O2 C2 1_555 1_555
O3 C12 1_555 1_555
O4 C17 1_555 1_555
C1 C2 1_555 1_555
C2 H1 1_555 1_555
C3 N1 1_555 1_555
H2 C3 1_555 1_555
C4 C3 1_555 1_555
C5 C4 1_555 1_555
H3 C5 1_555 1_555
C6 C5 1_555 1_555
H4 C6 1_555 1_555
C7 C6 1_555 1_555
H5 C7 1_555 1_555
C8 C7 1_555 1_555
C9 C4 1_555 1_555
H6 C9 1_555 1_555
C10 C8 1_555 1_555
H7 C10 1_555 1_555
C11 C10 1_555 1_555
H8 C11 1_555 1_555
H9 C11 1_555 1_555
C12 O2 1_555 1_555
C13 C12 1_555 1_555
H10 C13 1_555 1_555
H11 C13 1_555 1_555
H12 C13 1_555 1_555
C14 N1 1_555 1_555
C15 C14 1_555 1_555
H13 C15 1_555 1_555
C16 C15 1_555 1_555
H14 C16 1_555 1_555
C17 C16 1_555 1_555
C18 C17 1_555 1_555
H15 C18 1_555 1_555
C19 C14 1_555 1_555
H16 C19 1_555 1_555
C20 O4 1_555 1_555
H17 C20 1_555 1_555
H18 C20 1_555 1_555
H19 C20 1_555 1_555
C2 C3 1_555 1_555
C8 C9 1_555 1_555
C18 C19 1_555 1_555

#END
