
#######################################################################
#
#                 Cambridge Crystallographic Data Centre
#                                CCDC 
#
#######################################################################
#
# If this CIF has been generated from an entry in the Cambridge 
# Structural Database, then it will include bibliographic, chemical, 
# crystal, experimental, refinement or atomic coordinate data resulting 
# from the CCDC's data processing and validation procedures.
#
#######################################################################

data_WIGWER
_chemical_formula_moiety         'C28 H20 B2 N2 S2,H2 O1'
_chemical_name_systematic        
"4,9-diphenyl-4,6,7,9-tetrahydrobisthieno[2',3':3,4][1,2]azaborinino[1,6,5-de:5',6',1'-ij]quinoxaline monohydrate"
_symmetry_cell_setting           monoclinic
_symmetry_space_group_name_H-M   'P 21'
_symmetry_Int_Tables_number      4
_space_group_name_Hall           'P 2yb'
loop_
_symmetry_equiv_pos_site_id
_symmetry_equiv_pos_as_xyz
1 x,y,z
2 -x,1/2+y,-z
_cell_length_a                   13.257(4)
_cell_length_b                   8.073(2)
_cell_length_c                   13.405(3)
_cell_angle_alpha                90
_cell_angle_beta                 104.92(3)
_cell_angle_gamma                90
_cell_volume                     1386.29
_exptl_crystal_colour            colorless
_exptl_crystal_description       block
_cell_formula_units_Z            2
loop_
_atom_site_label
_atom_site_type_symbol
_atom_site_fract_x
_atom_site_fract_y
_atom_site_fract_z
O1 O 0.419(2) 0.796(6) 0.364(3)
O2 O 0.376(2) 0.954(4) 0.504(3)
O3 O 0.4857(17) 0.814(4) 0.6350(16)
S1 S 0.2394(2) 0.6783(5) 0.89561(18)
S2 S 0.0390(2) 0.6688(5) 0.08433(18)
N1 N 0.1910(7) 0.5258(12) 0.3805(6)
N2 N 0.2438(7) 0.5276(12) 0.6020(6)
C1 C 0.0931(7) 0.6535(16) 0.2159(6)
C2 C 0.0832(7) 0.7734(14) 0.3806(7)
C3 C 0.2079(9) 0.3753(15) 0.2113(7)
C4 C 0.1510(7) 0.6512(14) 0.4353(7)
C5 C 0.0531(8) 0.7689(15) 0.2671(7)
C6 C 0.0449(9) 0.8941(15) 0.4338(8)
H1 H 0.0010 0.9757 0.3974
C7 C 0.1767(7) 0.6526(15) 0.5446(6)
C8 C 0.1605(8) 0.7742(14) 0.7099(7)
C9 C 0.1183(8) 0.8794(17) 0.7746(8)
H2 H 0.0705 0.9637 0.7501
C10 C 0.2285(7) 0.6572(15) 0.7653(6)
C11 C 0.3452(9) 0.3844(16) 0.7732(8)
C12 C 0.1358(7) 0.7748(15) 0.5967(7)
C13 C 0.1548(9) 0.8429(19) 0.8730(9)
H3 H 0.1364 0.9012 0.9255
C14 C 0.1770(13) 0.2141(18) 0.2133(10)
H4 H 0.1314 0.1838 0.2526
C15 C -0.0222(8) 0.8749(18) 0.1993(8)
H5 H -0.0567 0.9620 0.2218
B1 B 0.2728(9) 0.5197(18) 0.7119(9)
C16 C -0.0359(10) 0.833(2) 0.1024(10)
H6 H -0.0820 0.8879 0.0483
C17 C 0.2802(10) 0.137(2) 0.0974(10)
H7 H 0.3082 0.0551 0.0636
C18 C 0.2737(10) 0.413(2) 0.1469(9)
H8 H 0.2967 0.5210 0.1444
B2 B 0.1648(10) 0.5180(18) 0.2708(8)
C19 C 0.2146(13) 0.094(2) 0.1553(11)
H9 H 0.1939 -0.0157 0.1570
C20 C 0.3105(11) 0.2199(19) 0.7725(11)
H10 H 0.2446 0.1930 0.7315
C21 C 0.3048(13) 0.295(2) 0.0884(12)
H11 H 0.3432 0.3256 0.0421
C22 C 0.4738(12) 0.139(2) 0.8931(11)
H12 H 0.5186 0.0590 0.9300
C23 C 0.4439(11) 0.415(2) 0.8371(11)
H13 H 0.4714 0.5216 0.8401
C24 C 0.5021(15) 0.291(3) 0.8964(18)
H14 H 0.5656 0.3197 0.9413
C25 C 0.3716(13) 0.094(2) 0.8317(13)
H15 H 0.3469 -0.0141 0.8310
C26 C 0.0708(9) 0.8954(15) 0.5399(8)
H16 H 0.0443 0.9782 0.5742
C27 C 0.287(2) 0.451(4) 0.442(2)
H17 H 0.3420 0.5316 0.4573
H18 H 0.3074 0.3618 0.4039
C28 C 0.270(2) 0.393(4) 0.5411(17)
H19 H 0.2146 0.3120 0.5276
H20 H 0.3334 0.3394 0.5807
C29? C 0.241(2) 0.383(3) 0.4435(18)
H21? H 0.2798 0.3188 0.4057
H22? H 0.1889 0.3134 0.4595
C30? C 0.318(3) 0.447(6) 0.545(3)
H23? H 0.3563 0.3569 0.5850
H24? H 0.3664 0.5277 0.5308
loop_
_geom_bond_atom_site_label_1
_geom_bond_atom_site_label_2
_geom_bond_site_symmetry_1
_geom_bond_site_symmetry_2
S1 C10 1_555 1_555
S2 C1 1_555 1_555
N1 C4 1_555 1_555
N2 C7 1_555 1_555
C1 C5 1_555 1_555
C2 C4 1_555 1_555
C3 C14 1_555 1_555
C4 C7 1_555 1_555
C5 C2 1_555 1_555
C6 C2 1_555 1_555
H1 C6 1_555 1_555
C7 C12 1_555 1_555
C8 C9 1_555 1_555
C9 H2 1_555 1_555
C10 C8 1_555 1_555
C11 B1 1_555 1_555
C12 C8 1_555 1_555
C13 S1 1_555 1_555
H3 C13 1_555 1_555
C14 H4 1_555 1_555
C15 C5 1_555 1_555
H5 C15 1_555 1_555
B1 N2 1_555 1_555
C16 S2 1_555 1_555
H6 C16 1_555 1_555
C17 H7 1_555 1_555
C18 C3 1_555 1_555
H8 C18 1_555 1_555
B2 N1 1_555 1_555
C19 C14 1_555 1_555
H9 C19 1_555 1_555
C20 C11 1_555 1_555
H10 C20 1_555 1_555
C21 C17 1_555 1_555
H11 C21 1_555 1_555
C22 H12 1_555 1_555
C23 C11 1_555 1_555
H13 C23 1_555 1_555
C24 C22 1_555 1_555
H14 C24 1_555 1_555
C25 C20 1_555 1_555
H15 C25 1_555 1_555
C26 C6 1_555 1_555
H16 C26 1_555 1_555
C27 N1 1_555 1_555
H17 C27 1_555 1_555
H18 C27 1_555 1_555
C28 N2 1_555 1_555
H19 C28 1_555 1_555
H20 C28 1_555 1_555
C1 B2 1_555 1_555
C3 B2 1_555 1_555
C9 C13 1_555 1_555
C10 B1 1_555 1_555
C12 C26 1_555 1_555
C15 C16 1_555 1_555
C17 C19 1_555 1_555
C18 C21 1_555 1_555
C22 C25 1_555 1_555
C23 C24 1_555 1_555
C27 C28 1_555 1_555

#END
