
#######################################################################
#
#                 Cambridge Crystallographic Data Centre
#                                CCDC 
#
#######################################################################
#
# If this CIF has been generated from an entry in the Cambridge 
# Structural Database, then it will include bibliographic, chemical, 
# crystal, experimental, refinement or atomic coordinate data resulting 
# from the CCDC's data processing and validation procedures.
#
#######################################################################

data_WIGWAN
_chemical_formula_moiety         'C32 H24 B2 N2,C1 H2 Cl2'
_chemical_name_systematic        
"5,10-diphenyl-5,7,8,10-tetrahydro[2,1]benzazaborinino[2',3',4':4,5]quinoxalino[1,8-bc][2,1]benzazaborinine dichloromethane solvate"
_symmetry_cell_setting           orthorhombic
_symmetry_space_group_name_H-M   'P 21 21 21'
_symmetry_Int_Tables_number      19
_space_group_name_Hall           'P 2ac 2ab'
loop_
_symmetry_equiv_pos_site_id
_symmetry_equiv_pos_as_xyz
1 x,y,z
2 1/2-x,-y,1/2+z
3 -x,1/2+y,1/2-z
4 1/2+x,1/2-y,-z
_cell_length_a                   7.742(2)
_cell_length_b                   14.293(5)
_cell_length_c                   25.540(7)
_cell_angle_alpha                90
_cell_angle_beta                 90
_cell_angle_gamma                90
_cell_volume                     2826.16
_exptl_crystal_colour            colorless
_exptl_crystal_description       block
_cell_formula_units_Z            4
loop_
_atom_site_label
_atom_site_type_symbol
_atom_site_fract_x
_atom_site_fract_y
_atom_site_fract_z
B1 B 0.5771(14) 0.4969(7) 0.6119(4)
B2 B 0.5742(15) 0.4352(8) 0.3922(4)
C1 C 0.7143(12) 0.4504(6) 0.6471(3)
C2 C 0.7179(13) 0.4622(7) 0.7015(3)
H1 H 0.6387 0.5026 0.7169
C3 C 0.8317(15) 0.4171(7) 0.7324(4)
H2 H 0.8292 0.4244 0.7686
C4 C 0.9552(16) 0.3585(7) 0.7082(4)
H3 H 1.0382 0.3290 0.7287
C5 C 0.9554(13) 0.3442(7) 0.6560(4)
H4 H 1.0363 0.3035 0.6416
C6 C 0.8370(12) 0.3889(6) 0.6226(3)
C7 C 0.8368(11) 0.3763(6) 0.5666(3)
C8 C 0.7048(10) 0.4185(6) 0.5339(3)
C9 C 0.7040(10) 0.4002(6) 0.4788(3)
C10 C 0.8354(11) 0.3472(6) 0.4554(3)
C11 C 0.9653(12) 0.3111(6) 0.4884(4)
H5 H 1.0538 0.2763 0.4733
C12 C 0.9680(12) 0.3243(7) 0.5408(4)
H6 H 1.0577 0.2988 0.5604
C13 C 0.8376(13) 0.3294(6) 0.3989(3)
C14 C 0.7140(11) 0.3776(6) 0.3676(3)
C15 C 0.7229(13) 0.3629(7) 0.3122(4)
H7 H 0.6442 0.3938 0.2908
C16 C 0.8424(15) 0.3052(7) 0.2893(4)
H8 H 0.8459 0.2978 0.2532
C17 C 0.9585(15) 0.2579(7) 0.3214(4)
H9 H 1.0379 0.2170 0.3066
C18 C 0.9575(13) 0.2708(7) 0.3745(4)
H10 H 1.0388 0.2398 0.3949
C19 C 0.4680(19) 0.5279(11) 0.5207(4)
H11 H 0.3676 0.5516 0.5392
H12 H 0.5297 0.5805 0.5058
C20 C 0.4132(13) 0.4621(12) 0.4785(4)
H13 H 0.3290 0.4919 0.4558
H14 H 0.3614 0.4065 0.4935
C21 C 0.4353(9) 0.5676(5) 0.6339(3)
C22 C 0.2870(10) 0.5291(4) 0.6558(3)
H15 H 0.2722 0.4646 0.6563
C23 C 0.1608(9) 0.5872(7) 0.6768(4)
H16 H 0.0616 0.5615 0.6914
C24 C 0.1829(11) 0.6837(6) 0.6760(4)
H17 H 0.0984 0.7226 0.6900
C25 C 0.3312(12) 0.7221(4) 0.6541(4)
H18 H 0.3460 0.7867 0.6536
C26 C 0.4574(9) 0.6641(5) 0.6331(4)
H19 H 0.5567 0.6898 0.6185
C27 C 0.4278(13) 0.4879(7) 0.3618(3)
C28 C 0.3045(15) 0.4423(9) 0.3322(5)
H20 H 0.3077 0.3774 0.3303
C29 C 0.1772(18) 0.4893(12) 0.3055(5)
H21 H 0.0953 0.4558 0.2865
C30 C 0.1700(17) 0.5847(10) 0.3064(5)
H22 H 0.0843 0.6164 0.2880
C31 C 0.2880(17) 0.6323(9) 0.3342(5)
H23 H 0.2850 0.6973 0.3347
C32 C 0.4162(14) 0.5845(8) 0.3626(4)
H24 H 0.4949 0.6186 0.3824
N1 N 0.5827(10) 0.4757(5) 0.5577(3)
N2 N 0.5718(9) 0.4369(6) 0.4481(3)
C35 C 1.002(2) 0.6295(11) 0.5303(5)
H29 H 0.9721 0.5740 0.5502
H30 H 1.1159 0.6499 0.5414
Cl1 Cl 0.8550(10) 0.7161(5) 0.5429(3)
Cl2 Cl 1.0063(9) 0.6024(5) 0.4634(3)
C33? C 0.417(2) 0.483(3) 0.5265(6)
H25? H 0.3386 0.5270 0.5423
H26? H 0.3608 0.4221 0.5243
C34? C 0.474(4) 0.516(2) 0.4725(5)
H27? H 0.5463 0.5706 0.4754
H28? H 0.3736 0.5312 0.4514
loop_
_geom_bond_atom_site_label_1
_geom_bond_atom_site_label_2
_geom_bond_site_symmetry_1
_geom_bond_site_symmetry_2
B1 C1 1_555 1_555
B2 C14 1_555 1_555
C1 C2 1_555 1_555
C2 H1 1_555 1_555
C3 C2 1_555 1_555
H2 C3 1_555 1_555
C4 C3 1_555 1_555
H3 C4 1_555 1_555
C5 C4 1_555 1_555
H4 C5 1_555 1_555
C6 C1 1_555 1_555
C7 C6 1_555 1_555
C8 C7 1_555 1_555
C9 C8 1_555 1_555
C10 C9 1_555 1_555
C11 C10 1_555 1_555
H5 C11 1_555 1_555
C12 C7 1_555 1_555
H6 C12 1_555 1_555
C13 C10 1_555 1_555
C14 C13 1_555 1_555
C15 C14 1_555 1_555
H7 C15 1_555 1_555
C16 C15 1_555 1_555
H8 C16 1_555 1_555
C17 C16 1_555 1_555
H9 C17 1_555 1_555
C18 C13 1_555 1_555
H10 C18 1_555 1_555
C19 H11 1_555 1_555
H12 C19 1_555 1_555
C20 C19 1_555 1_555
H13 C20 1_555 1_555
H14 C20 1_555 1_555
C21 B1 1_555 1_555
C22 C21 1_555 1_555
H15 C22 1_555 1_555
C23 C22 1_555 1_555
H16 C23 1_555 1_555
C24 C23 1_555 1_555
H17 C24 1_555 1_555
C25 C24 1_555 1_555
H18 C25 1_555 1_555
C26 C21 1_555 1_555
H19 C26 1_555 1_555
C27 B2 1_555 1_555
C28 C27 1_555 1_555
H20 C28 1_555 1_555
C29 C28 1_555 1_555
H21 C29 1_555 1_555
C30 C29 1_555 1_555
H22 C30 1_555 1_555
C31 C30 1_555 1_555
H23 C31 1_555 1_555
C32 C27 1_555 1_555
H24 C32 1_555 1_555
N1 B1 1_555 1_555
N2 B2 1_555 1_555
C35 H29 1_555 1_555
H30 C35 1_555 1_555
Cl1 C35 1_555 1_555
Cl2 C35 1_555 1_555
C5 C6 1_555 1_555
C8 N1 1_555 1_555
C9 N2 1_555 1_555
C11 C12 1_555 1_555
C17 C18 1_555 1_555
C19 N1 1_555 1_555
C20 N2 1_555 1_555
C25 C26 1_555 1_555
C31 C32 1_555 1_555

#END
