
#######################################################################
#
#                 Cambridge Crystallographic Data Centre
#                                CCDC 
#
#######################################################################
#
# If this CIF has been generated from an entry in the Cambridge 
# Structural Database, then it will include bibliographic, chemical, 
# crystal, experimental, refinement or atomic coordinate data resulting 
# from the CCDC's data processing and validation procedures.
#
#######################################################################

data_WIGYAN
_chemical_formula_moiety         'C18 H16 F1 N3 O2'
_chemical_name_systematic        
3-(4-Fluorophenyl)-2-morpholinoquinazolin-4(3H)-one
_symmetry_cell_setting           tetragonal
_symmetry_space_group_name_H-M   'I 41/a'
_symmetry_Int_Tables_number      88
_space_group_name_Hall           '-I 4ad'
loop_
_symmetry_equiv_pos_site_id
_symmetry_equiv_pos_as_xyz
1 x,y,z
2 3/4-y,1/4+x,1/4+z
3 1/2+x,1/2+y,1/2+z
4 1/4-y,3/4+x,3/4+z
5 1/4+y,1/4-x,1/4+z
6 1/2-x,-y,1/2+z
7 3/4+y,3/4-x,3/4+z
8 -x,1/2-y,z
9 -x,-y,-z
10 1/4+y,3/4-x,3/4-z
11 1/2-x,1/2-y,1/2-z
12 3/4+y,1/4-x,1/4-z
13 3/4-y,3/4+x,3/4-z
14 1/2+x,y,1/2-z
15 1/4-y,1/4+x,1/4-z
16 x,1/2+y,-z
_cell_length_a                   22.9526(7)
_cell_length_b                   22.9526(7)
_cell_length_c                   12.7318(7)
_cell_angle_alpha                90
_cell_angle_beta                 90
_cell_angle_gamma                90
_cell_volume                     6707.39
_exptl_crystal_colour            colorless
_exptl_crystal_description       plate
_chemical_melting_point          '394-396 K'
_cell_formula_units_Z            16
_exptl_crystal_recrystallization_method hexane-dichloromethane
loop_
_atom_site_label
_atom_site_type_symbol
_atom_site_fract_x
_atom_site_fract_y
_atom_site_fract_z
C1 C 0.59565(8) 0.62432(8) -0.12006(15)
H1 H 0.5653 0.6505 -0.1093
C2 C 0.63280(9) 0.63192(9) -0.20375(15)
H2 H 0.6271 0.6630 -0.2495
C3 C 0.67875(9) 0.59369(9) -0.22054(15)
H3 H 0.7034 0.5990 -0.2777
C4 C 0.68773(8) 0.54821(8) -0.15293(15)
H4 H 0.7189 0.5230 -0.1637
C5 C 0.65010(7) 0.53949(7) -0.06747(13)
C6 C 0.60337(7) 0.57732(7) -0.05088(13)
C7 C 0.65773(7) 0.48957(8) 0.00124(13)
C8 C 0.57321(7) 0.52771(7) 0.09563(13)
C9 C 0.56338(8) 0.52223(9) 0.28622(13)
H5 H 0.5693 0.5627 0.3058
H6 H 0.6009 0.5028 0.2863
C10 C 0.52302(8) 0.49319(10) 0.36305(15)
H7 H 0.5182 0.4526 0.3439
H8 H 0.5399 0.4947 0.4328
C11 C 0.48082(8) 0.54901(9) 0.18113(14)
H9 H 0.4629 0.5465 0.1122
H10 H 0.4863 0.5898 0.1984
C12 C 0.44237(8) 0.52015(10) 0.26214(14)
H11 H 0.4051 0.5400 0.2642
H12 H 0.4354 0.4801 0.2416
C13 C 0.61453(7) 0.43071(7) 0.14019(13)
C14 C 0.65930(8) 0.41819(8) 0.20947(14)
H13 H 0.6903 0.4440 0.2172
C15 C 0.65774(9) 0.36692(9) 0.26745(15)
H14 H 0.6876 0.3577 0.3140
C16 C 0.61141(10) 0.33061(9) 0.25439(18)
C17 C 0.56688(10) 0.34217(10) 0.1861(2)
H15 H 0.5358 0.3164 0.1796
C18 C 0.56866(9) 0.39266(9) 0.12670(17)
H16 H 0.5394 0.4008 0.0784
F1 F 0.60879(7) 0.28091(7) 0.31230(15)
N1 N 0.61561(6) 0.48459(6) 0.08071(10)
N2 N 0.56556(6) 0.57138(6) 0.03353(11)
N3 N 0.53697(6) 0.51878(6) 0.18116(11)
O1 O 0.69568(6) 0.45289(6) -0.00868(12)
O2 O 0.46772(6) 0.52110(7) 0.36408(10)
loop_
_geom_bond_atom_site_label_1
_geom_bond_atom_site_label_2
_geom_bond_site_symmetry_1
_geom_bond_site_symmetry_2
C1 H1 1_555 1_555
C2 C1 1_555 1_555
H2 C2 1_555 1_555
C3 C2 1_555 1_555
H3 C3 1_555 1_555
C4 C3 1_555 1_555
H4 C4 1_555 1_555
C5 C4 1_555 1_555
C6 C1 1_555 1_555
C7 C5 1_555 1_555
C8 N1 1_555 1_555
C9 H5 1_555 1_555
H6 C9 1_555 1_555
C10 C9 1_555 1_555
H7 C10 1_555 1_555
H8 C10 1_555 1_555
C11 H9 1_555 1_555
H10 C11 1_555 1_555
C12 C11 1_555 1_555
H11 C12 1_555 1_555
H12 C12 1_555 1_555
C13 C14 1_555 1_555
C14 H13 1_555 1_555
C15 C14 1_555 1_555
H14 C15 1_555 1_555
C16 C15 1_555 1_555
C17 C16 1_555 1_555
H15 C17 1_555 1_555
C18 C13 1_555 1_555
H16 C18 1_555 1_555
F1 C16 1_555 1_555
N1 C7 1_555 1_555
N2 C6 1_555 1_555
N3 C8 1_555 1_555
O1 C7 1_555 1_555
O2 C10 1_555 1_555
C5 C6 1_555 1_555
C8 N2 1_555 1_555
C9 N3 1_555 1_555
C11 N3 1_555 1_555
C12 O2 1_555 1_555
C13 N1 1_555 1_555
C17 C18 1_555 1_555

#END
