
#######################################################################
#
#                 Cambridge Crystallographic Data Centre
#                                CCDC 
#
#######################################################################
#
# If this CIF has been generated from an entry in the Cambridge 
# Structural Database, then it will include bibliographic, chemical, 
# crystal, experimental, refinement or atomic coordinate data resulting 
# from the CCDC's data processing and validation procedures.
#
#######################################################################

data_WIGZOE
_chemical_formula_moiety         'C15 H15 Cl1 N4'
_chemical_name_systematic        
2-chloro-6-(4,6-dicyclopropyl-1,3,5-triazin-2-yl)aniline
_symmetry_cell_setting           monoclinic
_symmetry_space_group_name_H-M   'P 21/n'
_symmetry_Int_Tables_number      14
_space_group_name_Hall           '-P 2yn'
loop_
_symmetry_equiv_pos_site_id
_symmetry_equiv_pos_as_xyz
1 x,y,z
2 1/2-x,1/2+y,1/2-z
3 -x,-y,-z
4 1/2+x,1/2-y,1/2+z
_cell_length_a                   10.585(2)
_cell_length_b                   8.8309(18)
_cell_length_c                   15.039(3)
_cell_angle_alpha                90
_cell_angle_beta                 96.741(3)
_cell_angle_gamma                90
_cell_volume                     1396.05
_exptl_crystal_colour            colorless
_exptl_crystal_description       block
_cell_formula_units_Z            4
loop_
_atom_site_label
_atom_site_type_symbol
_atom_site_fract_x
_atom_site_fract_y
_atom_site_fract_z
C1 C 0.1770(3) 0.2571(3) 0.4214(2)
H1 H 0.1624 0.1875 0.3713
H2 H 0.2345 0.2200 0.4717
C2 C 0.0710(2) 0.3528(3) 0.44088(19)
H3 H 0.0629 0.3745 0.5032
H4 H -0.0091 0.3421 0.4029
C3 C 0.1797(2) 0.4236(3) 0.40090(14)
H5 H 0.1625 0.4501 0.3374
C4 C 0.27217(18) 0.5207(2) 0.45413(12)
C5 C 0.41987(16) 0.7044(2) 0.45949(11)
C6 C 0.38359(16) 0.58483(19) 0.58715(11)
C7 C 0.4885(2) 0.8219(2) 0.41584(13)
H6 H 0.5625 0.8655 0.4523
C8 C 0.4968(3) 0.8157(3) 0.31738(15)
H7 H 0.5750 0.8503 0.2963
H8 H 0.4561 0.7312 0.2842
C9 C 0.4154(3) 0.9286(3) 0.35151(18)
H9 H 0.3241 0.9142 0.3396
H10 H 0.4431 1.0334 0.3517
C10 C 0.41015(16) 0.57594(19) 0.68556(11)
C11 C 0.33118(17) 0.4961(2) 0.73994(12)
C12 C 0.36416(18) 0.5059(2) 0.83337(12)
C13 C 0.4670(2) 0.5862(2) 0.87174(13)
H11 H 0.4846 0.5901 0.9338
C14 C 0.5447(2) 0.6615(3) 0.81874(13)
H12 H 0.6150 0.7155 0.8447
C15 C 0.51695(17) 0.6557(2) 0.72664(12)
H13 H 0.5698 0.7055 0.6910
Cl1 Cl 0.26872(6) 0.41186(7) 0.90187(4)
N1 N 0.32904(16) 0.62616(19) 0.40972(10)
N2 N 0.45249(14) 0.68658(18) 0.54725(9)
N3 N 0.29400(15) 0.49661(18) 0.54292(10)
N4 N 0.22751(18) 0.4181(2) 0.70551(12)
H14 H 0.1807 0.3737 0.7406
H15 H 0.2081 0.4128 0.6484
loop_
_geom_bond_atom_site_label_1
_geom_bond_atom_site_label_2
_geom_bond_site_symmetry_1
_geom_bond_site_symmetry_2
C1 H1 1_555 1_555
H2 C1 1_555 1_555
C2 C1 1_555 1_555
H3 C2 1_555 1_555
H4 C2 1_555 1_555
C3 C1 1_555 1_555
H5 C3 1_555 1_555
C4 C3 1_555 1_555
C5 C7 1_555 1_555
C6 C10 1_555 1_555
C7 H6 1_555 1_555
C8 C7 1_555 1_555
H7 C8 1_555 1_555
H8 C8 1_555 1_555
C9 C7 1_555 1_555
H9 C9 1_555 1_555
H10 C9 1_555 1_555
C10 C11 1_555 1_555
C11 C12 1_555 1_555
C12 C13 1_555 1_555
C13 H11 1_555 1_555
C14 C13 1_555 1_555
H12 C14 1_555 1_555
C15 C10 1_555 1_555
H13 C15 1_555 1_555
Cl1 C12 1_555 1_555
N1 C4 1_555 1_555
N2 C5 1_555 1_555
N3 C4 1_555 1_555
N4 C11 1_555 1_555
H14 N4 1_555 1_555
H15 N4 1_555 1_555
C2 C3 1_555 1_555
C5 N1 1_555 1_555
C6 N2 1_555 1_555
C6 N3 1_555 1_555
C8 C9 1_555 1_555
C14 C15 1_555 1_555

#END
