
#######################################################################
#
#                 Cambridge Crystallographic Data Centre
#                                CCDC 
#
#######################################################################
#
# If this CIF has been generated from an entry in the Cambridge 
# Structural Database, then it will include bibliographic, chemical, 
# crystal, experimental, refinement or atomic coordinate data resulting 
# from the CCDC's data processing and validation procedures.
#
#######################################################################

data_WIGZOC
_chemical_formula_moiety         'C21 H16 N2 O1'
_chemical_name_systematic        N-(Anthracen-10-ylmethyl)picolinamide
_symmetry_cell_setting           monoclinic
_symmetry_space_group_name_H-M   'P 21/c'
_symmetry_Int_Tables_number      14
_space_group_name_Hall           '-P 2ybc'
loop_
_symmetry_equiv_pos_site_id
_symmetry_equiv_pos_as_xyz
1 x,y,z
2 -x,1/2+y,1/2-z
3 -x,-y,-z
4 x,1/2-y,1/2+z
_cell_length_a                   10.0182(3)
_cell_length_b                   8.1082(3)
_cell_length_c                   19.2442(6)
_cell_angle_alpha                90
_cell_angle_beta                 103.0700(10)
_cell_angle_gamma                90
_cell_volume                     1522.7
_exptl_crystal_colour            yellow
_exptl_crystal_description       block
_cell_formula_units_Z            4
_exptl_crystal_recrystallization_method DMSO
loop_
_atom_site_label
_atom_site_type_symbol
_atom_site_fract_x
_atom_site_fract_y
_atom_site_fract_z
O1 O 0.03419(13) 0.86927(15) 0.62684(7)
N1 N 0.16317(14) 0.73494(17) 0.56145(7)
N2 N 0.07086(15) 0.44338(17) 0.59240(8)
C1 C 0.39511(17) 0.70846(19) 0.45469(8)
H1 H 0.2979 0.7049 0.4410
C2 C 0.46983(18) 0.6366(2) 0.41213(9)
H2 H 0.4244 0.5839 0.3692
C3 C 0.61427(18) 0.6397(2) 0.43115(9)
H3 H 0.6652 0.5910 0.4004
C4 C 0.68103(18) 0.71105(19) 0.49267(9)
H4 H 0.7784 0.7108 0.5050
C5 C 0.67089(19) 1.0119(2) 0.71376(9)
H5 H 0.7681 1.0085 0.7272
C6 C 0.6004(2) 1.0877(2) 0.75709(10)
H6 H 0.6483 1.1382 0.8001
C7 C 0.4556(2) 1.0915(2) 0.73833(9)
H7 H 0.4068 1.1448 0.7690
C8 C 0.38483(19) 1.0198(2) 0.67683(9)
H8 H 0.2875 1.0222 0.6659
C9 C 0.38519(16) 0.86933(18) 0.56359(8)
C10 C 0.67400(17) 0.86240(19) 0.60291(9)
H9 H 0.7713 0.8628 0.6156
C11 C 0.60121(17) 0.93700(19) 0.64807(8)
C12 C 0.45425(17) 0.94096(18) 0.62850(8)
C13 C 0.45931(15) 0.78882(17) 0.51927(8)
C14 C 0.60675(16) 0.78706(18) 0.53946(8)
C15 C 0.23042(16) 0.87963(19) 0.53993(9)
H10 H 0.1982 0.9795 0.5608
H11 H 0.2042 0.8904 0.4874
C16 C 0.07404(16) 0.74078(19) 0.60383(9)
C17 C 0.02651(16) 0.5742(2) 0.62342(8)
C18 C -0.05583(17) 0.5611(2) 0.67204(9)
H12 H -0.0867 0.6568 0.6922
C19 C -0.09223(19) 0.4049(2) 0.69066(10)
H13 H -0.1476 0.3916 0.7243
C20 C -0.04654(19) 0.2690(2) 0.65940(10)
H14 H -0.0698 0.1605 0.6711
C21 C 0.03386(18) 0.2950(2) 0.61073(10)
H15 H 0.0645 0.2012 0.5891
H16 H 0.1791(18) 0.637(2) 0.5475(10)
loop_
_geom_bond_atom_site_label_1
_geom_bond_atom_site_label_2
_geom_bond_site_symmetry_1
_geom_bond_site_symmetry_2
O1 C16 1_555 1_555
N1 C15 1_555 1_555
N2 C17 1_555 1_555
C1 H1 1_555 1_555
C2 C1 1_555 1_555
H2 C2 1_555 1_555
C3 C2 1_555 1_555
H3 C3 1_555 1_555
C4 C3 1_555 1_555
H4 C4 1_555 1_555
C5 H5 1_555 1_555
C6 C5 1_555 1_555
H6 C6 1_555 1_555
C7 C6 1_555 1_555
H7 C7 1_555 1_555
C8 C7 1_555 1_555
H8 C8 1_555 1_555
C9 C12 1_555 1_555
C10 H9 1_555 1_555
C11 C5 1_555 1_555
C12 C8 1_555 1_555
C13 C1 1_555 1_555
C14 C4 1_555 1_555
C15 C9 1_555 1_555
H10 C15 1_555 1_555
H11 C15 1_555 1_555
C16 N1 1_555 1_555
C17 C16 1_555 1_555
C18 C17 1_555 1_555
H12 C18 1_555 1_555
C19 C18 1_555 1_555
H13 C19 1_555 1_555
C20 C19 1_555 1_555
H14 C20 1_555 1_555
C21 N2 1_555 1_555
H15 C21 1_555 1_555
H16 N1 1_555 1_555
C9 C13 1_555 1_555
C10 C11 1_555 1_555
C10 C14 1_555 1_555
C11 C12 1_555 1_555
C13 C14 1_555 1_555
C20 C21 1_555 1_555

#END
