
#######################################################################
#
#                 Cambridge Crystallographic Data Centre
#                                CCDC 
#
#######################################################################
#
# If this CIF has been generated from an entry in the Cambridge 
# Structural Database, then it will include bibliographic, chemical, 
# crystal, experimental, refinement or atomic coordinate data resulting 
# from the CCDC's data processing and validation procedures.
#
#######################################################################

data_WIGZES
_chemical_formula_moiety         'C16 H11 F3 N4 O5'
_chemical_name_systematic        
3-((2,4-Dinitrophenyl)hydrazono)-4,4,4-trifluoro-1-phenylbutan-1-one
_symmetry_cell_setting           monoclinic
_symmetry_space_group_name_H-M   'P 21/n'
_symmetry_Int_Tables_number      14
_space_group_name_Hall           '-P 2yn'
loop_
_symmetry_equiv_pos_site_id
_symmetry_equiv_pos_as_xyz
1 x,y,z
2 1/2-x,1/2+y,1/2-z
3 -x,-y,-z
4 1/2+x,1/2-y,1/2+z
_cell_length_a                   12.670(2)
_cell_length_b                   8.8499(14)
_cell_length_c                   15.846(3)
_cell_angle_alpha                90
_cell_angle_beta                 108.080(3)
_cell_angle_gamma                90
_cell_volume                     1689.05
_exptl_crystal_colour            red
_exptl_crystal_description       block
_cell_formula_units_Z            4
_exptl_crystal_recrystallization_method 'anhydrous ethanol'
loop_
_atom_site_label
_atom_site_type_symbol
_atom_site_fract_x
_atom_site_fract_y
_atom_site_fract_z
F1 F 0.52280(12) 0.60190(15) 0.76335(10)
F2 F 0.41425(12) 0.78857(19) 0.72284(12)
F3 F 0.46161(13) 0.71459(19) 0.85655(11)
O1 O 0.79723(12) 0.77365(17) 0.77580(10)
O2 O 0.90737(12) 1.09368(18) 0.89456(11)
O3 O 1.00769(13) 1.2392(2) 0.99578(12)
O4 O 0.92171(15) 1.3453(2) 1.25985(12)
O5 O 0.83158(16) 1.1765(2) 1.30921(11)
N1 N 0.64300(13) 0.86642(18) 0.89153(11)
N2 N 0.73460(13) 0.95719(18) 0.91460(11)
H1 H 0.7683 0.9782 0.8766
N3 N 0.93045(14) 1.1511(2) 0.96872(12)
N4 N 0.86534(16) 1.2290(2) 1.25123(13)
C1 C 0.84995(17) 0.8257(2) 0.61940(15)
H2 H 0.8928 0.7563 0.6597
C2 C 0.8773(2) 0.8615(3) 0.54414(16)
H3 H 0.9378 0.8154 0.5334
C3 C 0.8150(2) 0.9655(3) 0.48503(17)
H4 H 0.8338 0.9900 0.4345
C4 C 0.7249(2) 1.0337(3) 0.50012(15)
H5 H 0.6832 1.1042 0.4599
C5 C 0.69638(19) 0.9972(2) 0.57511(14)
H6 H 0.6352 1.0429 0.5850
C6 C 0.75850(15) 0.8929(2) 0.63559(13)
C7 C 0.73331(16) 0.8507(2) 0.71830(13)
C8 C 0.62590(16) 0.9075(2) 0.73105(13)
H7 H 0.6309 1.0164 0.7380
H8 H 0.5654 0.8861 0.6774
C9 C 0.59704(16) 0.8416(2) 0.80879(14)
C10 C 0.49893(19) 0.7371(3) 0.78885(16)
C11 C 0.77211(15) 1.0141(2) 0.99852(12)
C12 C 0.86413(15) 1.1134(2) 1.02618(13)
C13 C 0.89433(16) 1.1825(2) 1.10864(13)
H9 H 0.9537 1.2496 1.1250
C14 C 0.83583(17) 1.1508(2) 1.16547(13)
C15 C 0.74946(18) 1.0470(2) 1.14354(14)
H10 H 0.7135 1.0222 1.1847
C16 C 0.71734(18) 0.9813(2) 1.06135(14)
H11 H 0.6582 0.9137 1.0467
loop_
_geom_bond_atom_site_label_1
_geom_bond_atom_site_label_2
_geom_bond_site_symmetry_1
_geom_bond_site_symmetry_2
F1 C10 1_555 1_555
F2 C10 1_555 1_555
F3 C10 1_555 1_555
O1 C7 1_555 1_555
O2 N3 1_555 1_555
O3 N3 1_555 1_555
O4 N4 1_555 1_555
O5 N4 1_555 1_555
N1 N2 1_555 1_555
N2 H1 1_555 1_555
N3 C12 1_555 1_555
N4 C14 1_555 1_555
C1 H2 1_555 1_555
C2 C1 1_555 1_555
H3 C2 1_555 1_555
C3 C2 1_555 1_555
H4 C3 1_555 1_555
C4 C3 1_555 1_555
H5 C4 1_555 1_555
C5 C4 1_555 1_555
H6 C5 1_555 1_555
C6 C1 1_555 1_555
C7 C6 1_555 1_555
C8 C7 1_555 1_555
H7 C8 1_555 1_555
H8 C8 1_555 1_555
C9 N1 1_555 1_555
C10 C9 1_555 1_555
C11 N2 1_555 1_555
C12 C11 1_555 1_555
C13 C12 1_555 1_555
H9 C13 1_555 1_555
C14 C13 1_555 1_555
C15 C14 1_555 1_555
H10 C15 1_555 1_555
C16 C11 1_555 1_555
H11 C16 1_555 1_555
C5 C6 1_555 1_555
C8 C9 1_555 1_555
C15 C16 1_555 1_555

#END
