
#######################################################################
#
#                 Cambridge Crystallographic Data Centre
#                                CCDC 
#
#######################################################################
#
# If this CIF has been generated from an entry in the Cambridge 
# Structural Database, then it will include bibliographic, chemical, 
# crystal, experimental, refinement or atomic coordinate data resulting 
# from the CCDC's data processing and validation procedures.
#
#######################################################################

data_WIHBOG
_chemical_formula_moiety         'C18 H24 N1 O3 1+,H2 O1,Cl1 1-'
_chemical_name_systematic        
'2-Acetoxy-N-isopropyl-3-(1-naphthyloxy)propan-1-aminium chloride monohydrate'
_symmetry_cell_setting           monoclinic
_symmetry_space_group_name_H-M   'P 21/c'
_symmetry_Int_Tables_number      14
_space_group_name_Hall           '-P 2ybc'
loop_
_symmetry_equiv_pos_site_id
_symmetry_equiv_pos_as_xyz
1 x,y,z
2 -x,1/2+y,1/2-z
3 -x,-y,-z
4 x,1/2-y,1/2+z
_cell_length_a                   15.559(3)
_cell_length_b                   8.2120(16)
_cell_length_c                   14.665(3)
_cell_angle_alpha                90
_cell_angle_beta                 93.23(3)
_cell_angle_gamma                90
_cell_volume                     1870.78
_exptl_crystal_colour            yellow
_exptl_crystal_description       block
_cell_formula_units_Z            4
loop_
_atom_site_label
_atom_site_type_symbol
_atom_site_fract_x
_atom_site_fract_y
_atom_site_fract_z
N1 N 0.40172(17) 0.4306(4) 0.60092(17)
H1 H 0.3855 0.5068 0.5593
H2 H 0.4541 0.3943 0.5874
O1 O 0.20414(15) 0.0867(3) 0.54378(16)
C1 C 0.0783(2) -0.0245(5) 0.5948(2)
O2 O 0.27260(14) 0.3625(3) 0.45087(15)
C2 C 0.0499(2) 0.1326(6) 0.6206(2)
H3 H 0.0842 0.2231 0.6110
O3 O 0.3081(2) 0.2709(4) 0.31387(19)
C3 C -0.0272(3) 0.1522(7) 0.6592(3)
H4 H -0.0450 0.2555 0.6758
C4 C -0.0788(3) 0.0189(9) 0.6735(3)
H5 H -0.1314 0.0343 0.6993
C5 C -0.0547(3) -0.1334(8) 0.6510(3)
H6 H -0.0908 -0.2206 0.6619
C6 C 0.0248(3) -0.1623(6) 0.6110(3)
C7 C 0.0532(3) -0.3184(6) 0.5867(3)
H7 H 0.0194 -0.4091 0.5972
C8 C 0.1295(3) -0.3368(6) 0.5482(3)
H8 H 0.1473 -0.4406 0.5322
C9 C 0.1817(3) -0.2049(5) 0.5320(3)
H9 H 0.2338 -0.2211 0.5052
C10 C 0.1576(2) -0.0522(5) 0.5546(2)
C11 C 0.2810(2) 0.0738(5) 0.4924(3)
H10 H 0.2657 0.0439 0.4296
H11 H 0.3192 -0.0088 0.5191
C12 C 0.3240(2) 0.2361(4) 0.4961(2)
H12 H 0.3791 0.2280 0.4672
C13 C 0.3402(2) 0.2938(5) 0.5934(2)
H13 H 0.2861 0.3276 0.6172
H14 H 0.3626 0.2039 0.6305
C14 C 0.4085(2) 0.5085(5) 0.6944(2)
H15 H 0.4113 0.4211 0.7400
C15 C 0.4901(3) 0.6048(6) 0.7055(3)
H16 H 0.4967 0.6463 0.7666
H17 H 0.4879 0.6939 0.6630
H18 H 0.5381 0.5359 0.6938
C16 C 0.3301(3) 0.6086(6) 0.7096(3)
H19 H 0.3348 0.6548 0.7698
H20 H 0.2798 0.5409 0.7035
H21 H 0.3255 0.6945 0.6652
C17 C 0.2726(2) 0.3674(5) 0.3586(2)
C18 C 0.2213(3) 0.5119(6) 0.3213(3)
H22 H 0.2218 0.5128 0.2559
H23 H 0.2465 0.6108 0.3453
H24 H 0.1630 0.5037 0.3391
Cl1 Cl 0.41641(6) 0.70545(13) 0.44852(7)
O4 O 0.5140(4) 0.0297(9) 0.4132(5)
H25 H 0.5328 -0.0674 0.4172
H26 H 0.5574 0.0922 0.4113
loop_
_geom_bond_atom_site_label_1
_geom_bond_atom_site_label_2
_geom_bond_site_symmetry_1
_geom_bond_site_symmetry_2
N1 H1 1_555 1_555
H2 N1 1_555 1_555
O1 C10 1_555 1_555
C1 C2 1_555 1_555
O2 C12 1_555 1_555
C2 H3 1_555 1_555
O3 C17 1_555 1_555
C3 C2 1_555 1_555
H4 C3 1_555 1_555
C4 C3 1_555 1_555
H5 C4 1_555 1_555
C5 C4 1_555 1_555
H6 C5 1_555 1_555
C6 C1 1_555 1_555
C7 C6 1_555 1_555
H7 C7 1_555 1_555
C8 C7 1_555 1_555
H8 C8 1_555 1_555
C9 C8 1_555 1_555
H9 C9 1_555 1_555
C10 C1 1_555 1_555
C11 O1 1_555 1_555
H10 C11 1_555 1_555
H11 C11 1_555 1_555
C12 C11 1_555 1_555
H12 C12 1_555 1_555
C13 N1 1_555 1_555
H13 C13 1_555 1_555
H14 C13 1_555 1_555
C14 N1 1_555 1_555
H15 C14 1_555 1_555
C15 C14 1_555 1_555
H16 C15 1_555 1_555
H17 C15 1_555 1_555
H18 C15 1_555 1_555
C16 C14 1_555 1_555
H19 C16 1_555 1_555
H20 C16 1_555 1_555
H21 C16 1_555 1_555
C17 O2 1_555 1_555
C18 C17 1_555 1_555
H22 C18 1_555 1_555
H23 C18 1_555 1_555
H24 C18 1_555 1_555
O4 H25 1_555 1_555
H26 O4 1_555 1_555
C5 C6 1_555 1_555
C9 C10 1_555 1_555
C12 C13 1_555 1_555

#END
