
#######################################################################
#
#                 Cambridge Crystallographic Data Centre
#                                CCDC 
#
#######################################################################
#
# If this CIF has been generated from an entry in the Cambridge 
# Structural Database, then it will include bibliographic, chemical, 
# crystal, experimental, refinement or atomic coordinate data resulting 
# from the CCDC's data processing and validation procedures.
#
#######################################################################

data_WIHBOF
_chemical_formula_moiety         'C17 H18 N2 O3'
_chemical_name_systematic        
N'-((1E)-1-(2-Hydroxy-5-methylphenyl)ethylidene)-4-methoxybenzohydrazide
_symmetry_cell_setting           monoclinic
_symmetry_space_group_name_H-M   'P 21/c'
_symmetry_Int_Tables_number      14
_space_group_name_Hall           '-P 2ybc'
loop_
_symmetry_equiv_pos_site_id
_symmetry_equiv_pos_as_xyz
1 x,y,z
2 -x,1/2+y,1/2-z
3 -x,-y,-z
4 x,1/2-y,1/2+z
_cell_length_a                   15.2171(13)
_cell_length_b                   4.9253(4)
_cell_length_c                   20.0906(16)
_cell_angle_alpha                90
_cell_angle_beta                 93.021(3)
_cell_angle_gamma                90
_cell_volume                     1503.67
_exptl_crystal_colour            colorless
_exptl_crystal_description       plate
_cell_formula_units_Z            4
_exptl_crystal_recrystallization_method DMF
loop_
_atom_site_label
_atom_site_type_symbol
_atom_site_fract_x
_atom_site_fract_y
_atom_site_fract_z
O1 O 0.24549(12) -0.3586(4) 0.14131(10)
H1 H 0.1961 -0.2985 0.1321
O2 O 0.01369(11) -0.4028(3) 0.09357(9)
O3 O -0.35729(13) 0.0552(4) -0.00730(10)
N1 N 0.11590(13) -0.0443(4) 0.15312(10)
N2 N 0.03244(13) 0.0274(4) 0.12841(9)
H2 H 0.0115 0.1877 0.1338
C1 C 0.28167(17) -0.2245(5) 0.19477(12)
C2 C 0.23917(16) -0.0114(5) 0.22697(12)
C3 C 0.28441(17) 0.1048(5) 0.28221(12)
H3 H 0.2571 0.2445 0.3045
C4 C 0.36719(17) 0.0243(6) 0.30568(13)
C5 C 0.40601(18) -0.1847(6) 0.27243(15)
H4 H 0.4617 -0.2442 0.2872
C6 C 0.36474(18) -0.3072(6) 0.21818(15)
H5 H 0.3928 -0.4477 0.1968
C7 C 0.4129(2) 0.1559(7) 0.36580(15)
H6 H 0.3776 0.3031 0.3807
H7 H 0.4691 0.2239 0.3541
H8 H 0.4210 0.0243 0.4008
C8 C 0.15058(16) 0.0812(5) 0.20433(12)
C9 C 0.10478(17) 0.3000(6) 0.24057(13)
H9 H 0.1290 0.4732 0.2295
H10 H 0.1128 0.2704 0.2877
H11 H 0.0431 0.2972 0.2278
C10 C -0.01451(16) -0.1688(5) 0.09532(11)
C11 C -0.10208(16) -0.0933(5) 0.06576(11)
C12 C -0.15304(18) 0.1148(5) 0.09037(13)
H12 H -0.1298 0.2249 0.1246
C13 C -0.23702(19) 0.1592(6) 0.06474(14)
H13 H -0.2708 0.2969 0.0821
C14 C -0.27177(18) -0.0003(5) 0.01309(13)
C15 C -0.22169(19) -0.2015(6) -0.01320(13)
H14 H -0.2441 -0.3049 -0.0489
C16 C -0.13797(17) -0.2490(5) 0.01381(12)
H15 H -0.1048 -0.3888 -0.0033
C17 C -0.3986(2) -0.1216(8) -0.05566(16)
H16 H -0.3719 -0.0983 -0.0976
H17 H -0.4601 -0.0793 -0.0608
H18 H -0.3914 -0.3064 -0.0411
loop_
_geom_bond_atom_site_label_1
_geom_bond_atom_site_label_2
_geom_bond_site_symmetry_1
_geom_bond_site_symmetry_2
O1 H1 1_555 1_555
O2 C10 1_555 1_555
O3 C14 1_555 1_555
N1 N2 1_555 1_555
N2 H2 1_555 1_555
C1 O1 1_555 1_555
C2 C1 1_555 1_555
C3 C2 1_555 1_555
H3 C3 1_555 1_555
C4 C3 1_555 1_555
C5 C4 1_555 1_555
H4 C5 1_555 1_555
C6 C1 1_555 1_555
H5 C6 1_555 1_555
C7 C4 1_555 1_555
H6 C7 1_555 1_555
H7 C7 1_555 1_555
H8 C7 1_555 1_555
C8 N1 1_555 1_555
C9 C8 1_555 1_555
H9 C9 1_555 1_555
H10 C9 1_555 1_555
H11 C9 1_555 1_555
C10 N2 1_555 1_555
C11 C10 1_555 1_555
C12 C11 1_555 1_555
H12 C12 1_555 1_555
C13 C12 1_555 1_555
H13 C13 1_555 1_555
C14 C13 1_555 1_555
C15 C14 1_555 1_555
H14 C15 1_555 1_555
C16 C11 1_555 1_555
H15 C16 1_555 1_555
C17 O3 1_555 1_555
H16 C17 1_555 1_555
H17 C17 1_555 1_555
H18 C17 1_555 1_555
C2 C8 1_555 1_555
C5 C6 1_555 1_555
C15 C16 1_555 1_555

#END
