
#######################################################################
#
#                 Cambridge Crystallographic Data Centre
#                                CCDC 
#
#######################################################################
#
# If this CIF has been generated from an entry in the Cambridge 
# Structural Database, then it will include bibliographic, chemical, 
# crystal, experimental, refinement or atomic coordinate data resulting 
# from the CCDC's data processing and validation procedures.
#
#######################################################################

data_WIHCIA
_chemical_formula_moiety         'C14 H14 O2'
_chemical_name_systematic        4-(1-Phenylethyl)benzene-1,3-diol
_symmetry_cell_setting           orthorhombic
_symmetry_space_group_name_H-M   'P c a 21'
_symmetry_Int_Tables_number      29
_space_group_name_Hall           'P 2c -2ac'
loop_
_symmetry_equiv_pos_site_id
_symmetry_equiv_pos_as_xyz
1 x,y,z
2 -x,-y,1/2+z
3 1/2+x,-y,z
4 1/2-x,y,1/2+z
_cell_length_a                   13.131(4)
_cell_length_b                   5.7841(15)
_cell_length_c                   30.046(8)
_cell_angle_alpha                90
_cell_angle_beta                 90
_cell_angle_gamma                90
_cell_volume                     2282.02
_exptl_crystal_colour            colorless
_exptl_crystal_description       block
_cell_formula_units_Z            8
loop_
_atom_site_label
_atom_site_type_symbol
_atom_site_fract_x
_atom_site_fract_y
_atom_site_fract_z
C1 C 0.3184(2) 0.1413(5) 0.40687(9)
C2 C 0.3112(2) 0.3209(6) 0.37688(10)
H1 H 0.3673 0.3616 0.3597
C3 C 0.2211(2) 0.4400(6) 0.37243(10)
C4 C 0.1393(2) 0.3845(6) 0.39909(11)
H2 H 0.0786 0.4664 0.3969
C5 C 0.1493(2) 0.2054(6) 0.42905(10)
H3 H 0.0938 0.1698 0.4470
C6 C 0.2371(2) 0.0756(5) 0.43391(9)
C7 C 0.2454(3) -0.1395(5) 0.46271(10)
H4 H 0.2615 -0.2680 0.4426
C8 C 0.1456(3) -0.2039(7) 0.48646(13)
H5 H 0.1560 -0.3404 0.5040
H6 H 0.0935 -0.2326 0.4647
H7 H 0.1250 -0.0788 0.5054
C9 C 0.3289(2) -0.1328(5) 0.49728(10)
C10 C 0.3943(3) -0.3191(6) 0.50251(12)
H8 H 0.3902 -0.4432 0.4829
C11 C 0.4648(3) -0.3232(7) 0.53610(14)
H9 H 0.5069 -0.4514 0.5394
C12 C 0.4742(3) -0.1426(7) 0.56472(12)
H10 H 0.5221 -0.1470 0.5875
C13 C 0.4121(3) 0.0462(7) 0.55966(13)
H11 H 0.4186 0.1718 0.5788
C14 C 0.3395(3) 0.0502(6) 0.52595(12)
H12 H 0.2975 0.1787 0.5228
O1 O 0.40876(18) 0.0228(5) 0.40921(8)
H13 H 0.4109 -0.0510 0.4325
O2 O 0.21656(15) 0.6154(4) 0.34190(8)
H14 H 0.1634 0.6879 0.3453
C15 C 0.4370(2) 0.6411(6) 0.27380(9)
C16 C 0.4458(2) 0.8177(6) 0.30385(9)
H15 H 0.3904 0.8601 0.3213
C17 C 0.5374(2) 0.9326(6) 0.30808(10)
C18 C 0.6188(2) 0.8732(6) 0.28212(11)
H16 H 0.6804 0.9513 0.2848
C19 C 0.6079(2) 0.6948(6) 0.25181(11)
H17 H 0.6630 0.6568 0.2338
C20 C 0.5186(2) 0.5709(5) 0.24720(9)
C21 C 0.5059(2) 0.3644(5) 0.21609(11)
H18 H 0.4821 0.2352 0.2344
C22 C 0.6056(3) 0.2857(7) 0.19424(13)
H19 H 0.6558 0.2579 0.2168
H20 H 0.6295 0.4041 0.1744
H21 H 0.5939 0.1460 0.1778
C23 C 0.4250(2) 0.4040(5) 0.18056(11)
C24 C 0.4247(3) 0.6009(6) 0.15445(11)
H22 H 0.4724 0.7165 0.1598
C25 C 0.3549(3) 0.6287(7) 0.12061(12)
H23 H 0.3559 0.7627 0.1035
C26 C 0.2847(3) 0.4624(7) 0.11196(13)
H24 H 0.2378 0.4819 0.0890
C27 C 0.2834(3) 0.2660(7) 0.13724(14)
H25 H 0.2356 0.1513 0.1314
C28 C 0.3524(3) 0.2367(6) 0.17134(12)
H26 H 0.3503 0.1026 0.1884
O3 O 0.34586(18) 0.5241(5) 0.27004(9)
H27 H 0.3095 0.5549 0.2914
O4 O 0.54612(17) 1.1101(4) 0.33921(8)
H28 H 0.5120 1.0786 0.3612
loop_
_geom_bond_atom_site_label_1
_geom_bond_atom_site_label_2
_geom_bond_site_symmetry_1
_geom_bond_site_symmetry_2
C1 C2 1_555 1_555
C2 H1 1_555 1_555
C3 C2 1_555 1_555
C4 C3 1_555 1_555
H2 C4 1_555 1_555
C5 C4 1_555 1_555
H3 C5 1_555 1_555
C6 C1 1_555 1_555
C7 C6 1_555 1_555
H4 C7 1_555 1_555
C8 C7 1_555 1_555
H5 C8 1_555 1_555
H6 C8 1_555 1_555
H7 C8 1_555 1_555
C9 C7 1_555 1_555
C10 C9 1_555 1_555
H8 C10 1_555 1_555
C11 C10 1_555 1_555
H9 C11 1_555 1_555
C12 C11 1_555 1_555
H10 C12 1_555 1_555
C13 C12 1_555 1_555
H11 C13 1_555 1_555
C14 C9 1_555 1_555
H12 C14 1_555 1_555
O1 C1 1_555 1_555
H13 O1 1_555 1_555
O2 C3 1_555 1_555
H14 O2 1_555 1_555
C15 C16 1_555 1_555
C16 H15 1_555 1_555
C17 C16 1_555 1_555
C18 C17 1_555 1_555
H16 C18 1_555 1_555
C19 C18 1_555 1_555
H17 C19 1_555 1_555
C20 C15 1_555 1_555
C21 C20 1_555 1_555
H18 C21 1_555 1_555
C22 C21 1_555 1_555
H19 C22 1_555 1_555
H20 C22 1_555 1_555
H21 C22 1_555 1_555
C23 C21 1_555 1_555
C24 C23 1_555 1_555
H22 C24 1_555 1_555
C25 C24 1_555 1_555
H23 C25 1_555 1_555
C26 C25 1_555 1_555
H24 C26 1_555 1_555
C27 C26 1_555 1_555
H25 C27 1_555 1_555
C28 C23 1_555 1_555
H26 C28 1_555 1_555
O3 C15 1_555 1_555
H27 O3 1_555 1_555
O4 C17 1_555 1_555
H28 O4 1_555 1_555
C5 C6 1_555 1_555
C13 C14 1_555 1_555
C19 C20 1_555 1_555
C27 C28 1_555 1_555

#END
