
#######################################################################
#
#                 Cambridge Crystallographic Data Centre
#                                CCDC 
#
#######################################################################
#
# If this CIF has been generated from an entry in the Cambridge 
# Structural Database, then it will include bibliographic, chemical, 
# crystal, experimental, refinement or atomic coordinate data resulting 
# from the CCDC's data processing and validation procedures.
#
#######################################################################

data_WIHCEW
_chemical_formula_moiety         'C22 H20 Br2 O5'
_chemical_name_systematic        
(2E,6E)-2,6-bis(3-Bromo-4-hydroxy-5-methoxybenzylidene)cyclohexanone
_symmetry_cell_setting           monoclinic
_symmetry_space_group_name_H-M   'P 21/c'
_symmetry_Int_Tables_number      14
_space_group_name_Hall           '-P 2ybc'
loop_
_symmetry_equiv_pos_site_id
_symmetry_equiv_pos_as_xyz
1 x,y,z
2 -x,1/2+y,1/2-z
3 -x,-y,-z
4 x,1/2-y,1/2+z
_cell_length_a                   7.5550(11)
_cell_length_b                   14.938(2)
_cell_length_c                   17.763(3)
_cell_angle_alpha                90
_cell_angle_beta                 95.201(3)
_cell_angle_gamma                90
_cell_volume                     1996.42
_exptl_crystal_colour            colorless
_exptl_crystal_description       needle
_cell_formula_units_Z            4
_exptl_crystal_recrystallization_method 'acetic acid/water'
loop_
_atom_site_label
_atom_site_type_symbol
_atom_site_fract_x
_atom_site_fract_y
_atom_site_fract_z
Br1 Br 0.34530(7) 0.66581(3) -0.31408(3)
Br2 Br 0.52599(7) 0.71802(3) 0.39084(3)
C1 C 0.1939(6) 0.4930(3) -0.3194(2)
C2 C 0.1366(6) 0.4134(3) -0.2891(2)
C3 C 0.1561(6) 0.3987(3) -0.2116(2)
H1 H 0.1203 0.3434 -0.1915
C4 C 0.2296(6) 0.4667(3) -0.1626(2)
C5 C 0.2868(6) 0.5456(3) -0.1942(2)
H2 H 0.3390 0.5915 -0.1624
C6 C 0.2681(6) 0.5576(3) -0.2718(2)
C7 C 0.2418(6) 0.4468(3) -0.0817(2)
H3 H 0.2416 0.3849 -0.0695
C8 C 0.2534(6) 0.5023(3) -0.0219(2)
C9 C 0.2528(6) 0.4578(3) 0.0543(2)
C10 C 0.2709(6) 0.5150(3) 0.1238(2)
C11 C 0.2874(6) 0.6152(3) 0.1154(2)
H4 H 0.4147 0.6314 0.1168
H5 H 0.2375 0.6451 0.1585
C12 C 0.1907(6) 0.6488(3) 0.0415(2)
H6 H 0.0618 0.6367 0.0415
H7 H 0.2070 0.7143 0.0375
C13 C 0.2619(6) 0.6028(3) -0.0258(2)
H8 H 0.1927 0.6232 -0.0726
H9 H 0.3870 0.6211 -0.0287
C14 C 0.2704(6) 0.4718(3) 0.1901(2)
H10 H 0.2517 0.4090 0.1859
C15 C 0.2938(6) 0.5054(3) 0.2679(2)
C16 C 0.2337(6) 0.4519(3) 0.3252(2)
H11 H 0.1781 0.3962 0.3123
C17 C 0.2540(6) 0.4787(3) 0.4005(2)
C18 C 0.3355(6) 0.5595(3) 0.4206(2)
C19 C 0.4016(6) 0.6104(3) 0.3643(2)
C20 C 0.3827(6) 0.5844(3) 0.2892(2)
H12 H 0.4304 0.6206 0.2520
C21 C 0.0191(6) 0.2687(3) -0.3221(3)
H13 H 0.1239 0.2395 -0.2965
H14 H -0.0219 0.2347 -0.3676
H15 H -0.0757 0.2710 -0.2880
C22 C 0.1460(7) 0.3418(3) 0.4464(3)
H16 H 0.0396 0.3405 0.4105
H17 H 0.1194 0.3140 0.4940
H18 H 0.2420 0.3086 0.4252
O1 O 0.1786(5) 0.5049(2) -0.39617(16)
H19 H 0.1417 0.4573 -0.4174
O2 O 0.0631(5) 0.3551(2) -0.34238(17)
O3 O 0.2381(5) 0.3768(2) 0.05909(16)
O4 O 0.1989(5) 0.4304(2) 0.45967(17)
O5 O 0.3565(5) 0.5901(2) 0.49255(16)
H20 H 0.3062 0.5550 0.5208
loop_
_geom_bond_atom_site_label_1
_geom_bond_atom_site_label_2
_geom_bond_site_symmetry_1
_geom_bond_site_symmetry_2
Br1 C6 1_555 1_555
Br2 C19 1_555 1_555
C1 C2 1_555 1_555
C2 C3 1_555 1_555
C3 H1 1_555 1_555
C4 C3 1_555 1_555
C5 C4 1_555 1_555
H2 C5 1_555 1_555
C6 C1 1_555 1_555
C7 C4 1_555 1_555
H3 C7 1_555 1_555
C8 C7 1_555 1_555
C9 C8 1_555 1_555
C10 C9 1_555 1_555
C11 C10 1_555 1_555
H4 C11 1_555 1_555
H5 C11 1_555 1_555
C12 C11 1_555 1_555
H6 C12 1_555 1_555
H7 C12 1_555 1_555
C13 C8 1_555 1_555
H8 C13 1_555 1_555
H9 C13 1_555 1_555
C14 C10 1_555 1_555
H10 C14 1_555 1_555
C15 C14 1_555 1_555
C16 C15 1_555 1_555
H11 C16 1_555 1_555
C17 C16 1_555 1_555
C18 C17 1_555 1_555
C19 C18 1_555 1_555
C20 C15 1_555 1_555
H12 C20 1_555 1_555
C21 H13 1_555 1_555
H14 C21 1_555 1_555
H15 C21 1_555 1_555
C22 H16 1_555 1_555
H17 C22 1_555 1_555
H18 C22 1_555 1_555
O1 C1 1_555 1_555
H19 O1 1_555 1_555
O2 C2 1_555 1_555
O3 C9 1_555 1_555
O4 C17 1_555 1_555
O5 C18 1_555 1_555
H20 O5 1_555 1_555
C5 C6 1_555 1_555
C12 C13 1_555 1_555
C19 C20 1_555 1_555
C21 O2 1_555 1_555
C22 O4 1_555 1_555

#END
