
#######################################################################
#
#                 Cambridge Crystallographic Data Centre
#                                CCDC 
#
#######################################################################
#
# If this CIF has been generated from an entry in the Cambridge 
# Structural Database, then it will include bibliographic, chemical, 
# crystal, experimental, refinement or atomic coordinate data resulting 
# from the CCDC's data processing and validation procedures.
#
#######################################################################

data_WIHCAS
_chemical_formula_moiety         'C6 H9 N4 1+,C2 H1 O4 1-'
_chemical_name_systematic        
'Pyridine-2-carboxamidrazonium hydrogen oxalate'
_symmetry_cell_setting           monoclinic
_symmetry_space_group_name_H-M   'C 2/c'
_symmetry_Int_Tables_number      15
_space_group_name_Hall           '-C 2yn'
loop_
_symmetry_equiv_pos_site_id
_symmetry_equiv_pos_as_xyz
1 x,y,z
2 1/2+x,1/2+y,z
3 -x,y,1/2-z
4 1/2-x,1/2+y,1/2-z
5 -x,-y,-z
6 1/2-x,1/2-y,-z
7 x,-y,1/2+z
8 1/2+x,1/2-y,1/2+z
_cell_length_a                   26.634(3)
_cell_length_b                   5.6454(7)
_cell_length_c                   18.337(2)
_cell_angle_alpha                90
_cell_angle_beta                 131.030(2)
_cell_angle_gamma                90
_cell_volume                     2079.9
_exptl_crystal_colour            'light yellow'
_exptl_crystal_description       plate
_cell_formula_units_Z            8
loop_
_atom_site_label
_atom_site_type_symbol
_atom_site_fract_x
_atom_site_fract_y
_atom_site_fract_z
N1 N 0.19244(10) 0.5643(4) 0.56883(16)
N2 N 0.06855(10) 0.6941(3) 0.58191(15)
H1 H 0.0365(9) 0.797(3) 0.5560(16)
H2 H 0.0798(11) 0.609(4) 0.6303(12)
N3 N 0.07582(9) 0.7962(3) 0.46892(14)
H3 H 0.0878(10) 0.761(4) 0.4353(14)
N4 N 0.02341(9) 0.9613(3) 0.42661(13)
H4 H -0.0122(8) 0.887(4) 0.3731(11)
H5 H 0.0319(11) 1.073(3) 0.4017(15)
C1 C 0.09544(10) 0.6720(3) 0.54292(15)
C2 C 0.15045(10) 0.5003(4) 0.58226(15)
C3 C 0.15572(11) 0.2932(4) 0.62603(16)
H6 H 0.1258 0.2573 0.6347
C4 C 0.20684(12) 0.1395(4) 0.65693(18)
H7 H 0.2114 -0.0039 0.6857
C5 C 0.25023(13) 0.2003(5) 0.6447(2)
H8 H 0.2852 0.1002 0.6657
C6 C 0.24161(14) 0.4136(5) 0.6005(2)
H9 H 0.2716 0.4538 0.5925
O1 O 0.06808(8) 0.3398(2) 0.36510(12)
O2 O 0.09533(8) 0.1966(2) 0.28170(12)
H10 H 0.0937(12) 0.061(2) 0.2986(17)
O3 O 0.08940(9) 0.7835(2) 0.33181(13)
O4 O 0.08870(8) 0.6301(2) 0.21993(12)
C7 C 0.08279(10) 0.3658(3) 0.31594(15)
C8 C 0.08774(10) 0.6146(3) 0.28618(15)
loop_
_geom_bond_atom_site_label_1
_geom_bond_atom_site_label_2
_geom_bond_site_symmetry_1
_geom_bond_site_symmetry_2
N1 C2 1_555 1_555
N2 H1 1_555 1_555
H2 N2 1_555 1_555
N3 H3 1_555 1_555
N4 N3 1_555 1_555
H4 N4 1_555 1_555
H5 N4 1_555 1_555
C1 N2 1_555 1_555
C2 C1 1_555 1_555
C3 C2 1_555 1_555
H6 C3 1_555 1_555
C4 C3 1_555 1_555
H7 C4 1_555 1_555
C5 C4 1_555 1_555
H8 C5 1_555 1_555
C6 N1 1_555 1_555
H9 C6 1_555 1_555
O1 C7 1_555 1_555
O2 H10 1_555 1_555
O3 C8 1_555 1_555
O4 C8 1_555 1_555
C7 O2 1_555 1_555
C8 C7 1_555 1_555
N3 C1 1_555 1_555
C5 C6 1_555 1_555

#END
