
#######################################################################
#
#                 Cambridge Crystallographic Data Centre
#                                CCDC 
#
#######################################################################
#
# If this CIF has been generated from an entry in the Cambridge 
# Structural Database, then it will include bibliographic, chemical, 
# crystal, experimental, refinement or atomic coordinate data resulting 
# from the CCDC's data processing and validation procedures.
#
#######################################################################

data_WIHGIG
_chemical_formula_moiety         'C72 H46 O2,2(C6 H5 Cl1)'
_chemical_name_systematic        
"9,20-dimesityl-1,12-dimethoxydicorannuleno[1,10-ab:1',10'-jk]tetracene chlorobenzene solvate"
_symmetry_cell_setting           triclinic
_symmetry_space_group_name_H-M   'P -1'
_symmetry_Int_Tables_number      2
_space_group_name_Hall           '-P 1'
loop_
_symmetry_equiv_pos_site_id
_symmetry_equiv_pos_as_xyz
1 x,y,z
2 -x,-y,-z
_cell_length_a                   7.3515(7)
_cell_length_b                   11.2839(11)
_cell_length_c                   19.4024(19)
_cell_angle_alpha                74.348(9)
_cell_angle_beta                 87.386(8)
_cell_angle_gamma                73.241(8)
_cell_volume                     1483.08
_exptl_crystal_colour            blue
_exptl_crystal_description       prism
_cell_formula_units_Z            1
loop_
_atom_site_label
_atom_site_type_symbol
_atom_site_fract_x
_atom_site_fract_y
_atom_site_fract_z
C1 C 0.6794(8) 0.5760(5) 0.2439(3)
C2 C 0.6889(8) 0.6400(6) 0.1720(3)
H1 H 0.5921 0.7172 0.1518
C3 C 0.8398(8) 0.5938(6) 0.1269(3)
C4 C 0.9095(9) 0.6655(6) 0.0640(3)
H2 H 0.8270 0.7437 0.0361
C5 C 1.0937(9) 0.6237(6) 0.0430(3)
H3 H 1.1351 0.6742 0.0012
C6 C 1.2254(8) 0.5046(6) 0.0830(3)
C7 C 1.4306(9) 0.4712(6) 0.0884(3)
H4 H 1.4966 0.5142 0.0514
C8 C 1.5315(9) 0.3792(6) 0.1456(3)
H5 H 1.6663 0.3588 0.1461
C9 C 1.4448(8) 0.3127(5) 0.2043(3)
C10 C 1.5115(8) 0.2521(5) 0.2768(3)
H6 H 1.6449 0.2210 0.2864
C11 C 1.3939(8) 0.2360(5) 0.3335(3)
H7 H 1.4476 0.1944 0.3805
C12 C 1.1878(8) 0.2819(5) 0.3226(3)
C13 C 1.0498(8) 0.3171(5) 0.3727(3)
C14 C 0.8634(8) 0.4022(5) 0.3503(3)
C15 C 0.8230(8) 0.4555(5) 0.2756(3)
C16 C 0.9448(8) 0.4048(5) 0.2284(3)
C17 C 0.9548(8) 0.4717(5) 0.1562(3)
C18 C 1.1460(8) 0.4279(6) 0.1345(3)
C19 C 1.2497(9) 0.3346(5) 0.1946(3)
C20 C 1.1287(8) 0.3198(5) 0.2528(3)
C21 C 0.7195(8) 0.4502(5) 0.3984(3)
C22 C 0.5645(8) 0.5679(5) 0.3659(3)
C23 C 0.5499(8) 0.6294(5) 0.2931(3)
C24 C 0.7158(8) 0.3928(5) 0.4689(3)
H8 H 0.8128 0.3157 0.4890
C25 C 0.4275(8) 0.5577(5) 0.4844(3)
C26 C 0.4262(8) 0.6161(5) 0.4127(3)
H9 H 0.3278 0.6929 0.3933
C27 C 0.3972(8) 0.7534(5) 0.2646(3)
C28 C 0.4263(8) 0.8691(5) 0.2658(3)
C29 C 0.2815(9) 0.9828(5) 0.2372(3)
H10 H 0.2996 1.0624 0.2382
C30 C 0.1138(9) 0.9833(6) 0.2078(3)
C31 C 0.0896(8) 0.8647(6) 0.2078(3)
H11 H -0.0242 0.8629 0.1873
C32 C 0.2284(8) 0.7490(5) 0.2371(3)
C33 C 0.6055(9) 0.8738(6) 0.2976(4)
H12 H 0.6019 0.8477 0.3500
H13 H 0.6165 0.9615 0.2818
H14 H 0.7153 0.8151 0.2819
C34 C -0.0357(10) 1.1054(6) 0.1756(4)
H15 H -0.0662 1.1575 0.2099
H16 H -0.1502 1.0858 0.1639
H17 H 0.0109 1.1530 0.1319
C35 C 0.1929(9) 0.6237(6) 0.2387(4)
H18 H 0.2866 0.5790 0.2098
H19 H 0.0647 0.6403 0.2191
H20 H 0.2042 0.5702 0.2882
O1 O 1.1054(5) 0.2745(4) 0.4439(2)
C36 C 1.1846(9) 0.3613(6) 0.4669(4)
H21 H 1.3000 0.3679 0.4408
H22 H 1.2159 0.3286 0.5184
H23 H 1.0915 0.4464 0.4572
C1A C 0.3206(8) 0.4240(5) 0.7561(3)
C2A C 0.3111(8) 0.3600(6) 0.8280(3)
H1A H 0.4079 0.2828 0.8482
C3A C 0.1602(8) 0.4062(6) 0.8731(3)
C4A C 0.0905(9) 0.3345(6) 0.9360(3)
H2A H 0.1730 0.2563 0.9639
C5A C -0.0937(9) 0.3763(6) 0.9570(3)
H3A H -0.1351 0.3258 0.9988
C6A C -0.2254(8) 0.4954(6) 0.9170(3)
C7A C -0.4306(9) 0.5288(6) 0.9116(3)
H4A H -0.4966 0.4858 0.9486
C8A C -0.5315(9) 0.6208(6) 0.8544(3)
H5A H -0.6663 0.6412 0.8539
C9A C -0.4448(8) 0.6873(5) 0.7957(3)
C10A C -0.5115(8) 0.7479(5) 0.7232(3)
H6A H -0.6449 0.7790 0.7136
C11A C -0.3939(8) 0.7640(5) 0.6665(3)
H7A H -0.4476 0.8056 0.6195
C12A C -0.1878(8) 0.7181(5) 0.6774(3)
C13A C -0.0498(8) 0.6829(5) 0.6273(3)
C14A C 0.1366(8) 0.5978(5) 0.6497(3)
C15A C 0.1770(8) 0.5445(5) 0.7244(3)
C16A C 0.0552(8) 0.5952(5) 0.7716(3)
C17A C 0.0452(8) 0.5283(5) 0.8438(3)
C18A C -0.1460(8) 0.5721(6) 0.8655(3)
C19A C -0.2497(9) 0.6654(5) 0.8054(3)
C20A C -0.1287(8) 0.6802(5) 0.7472(3)
C21A C 0.2805(8) 0.5498(5) 0.6016(3)
C22A C 0.4355(8) 0.4321(5) 0.6341(3)
C23A C 0.4501(8) 0.3706(5) 0.7069(3)
C24A C 0.2842(8) 0.6072(5) 0.5311(3)
H8A H 0.1872 0.6843 0.5110
C25A C 0.5725(8) 0.4423(5) 0.5156(3)
C26A C 0.5738(8) 0.3839(5) 0.5873(3)
H9A H 0.6722 0.3071 0.6067
C27A C 0.6028(8) 0.2466(5) 0.7354(3)
C28A C 0.5737(8) 0.1309(5) 0.7342(3)
C29A C 0.7185(9) 0.0172(5) 0.7628(3)
H10A H 0.7004 -0.0624 0.7618
C30A C 0.8862(9) 0.0167(6) 0.7922(3)
C31A C 0.9104(8) 0.1353(6) 0.7922(3)
H11A H 1.0242 0.1371 0.8127
C32A C 0.7716(8) 0.2510(5) 0.7629(3)
C33A C 0.3945(9) 0.1262(6) 0.7024(4)
H12A H 0.3981 0.1523 0.6500
H13A H 0.3835 0.0385 0.7182
H14A H 0.2847 0.1849 0.7181
C34A C 1.0357(10) -0.1054(6) 0.8244(4)
H15A H 1.0662 -0.1575 0.7901
H16A H 1.1502 -0.0858 0.8361
H17A H 0.9891 -0.1530 0.8681
C35A C 0.8071(9) 0.3763(6) 0.7613(4)
H18A H 0.7134 0.4210 0.7902
H19A H 0.9353 0.3597 0.7809
H20A H 0.7958 0.4298 0.7118
O1A O -0.1054(5) 0.7255(4) 0.5561(2)
C36A C -0.1846(9) 0.6387(6) 0.5331(4)
H21A H -0.3000 0.6321 0.5592
H22A H -0.2159 0.6714 0.4816
H23A H -0.0915 0.5536 0.5428
Cl1? Cl -0.0131(19) 0.9604(12) 0.3885(6)
C37? C 0.1521(17) 0.978(3) 0.5107(11)
H24? H 0.2747 0.9554 0.4917
C38? C 0.133(3) 0.997(2) 0.5790(10)
H25? H 0.2420 0.9867 0.6067
C39? C -0.047(3) 1.030(2) 0.6067(7)
H26? H -0.0604 1.0427 0.6534
C40? C -0.207(2) 1.045(2) 0.5662(9)
H27? H -0.3312 1.0676 0.5841
C41? C -0.180(5) 1.027(5) 0.503(2)
H28? H -0.2908 1.0370 0.4761
C42? C -0.007(4) 0.994(3) 0.4710(16)
C43? C 0.5109(19) 0.0393(11) 0.0081(7)
C44? C 0.5807(16) 0.0069(10) -0.0542(6)
H29? H 0.6597 0.0517 -0.0836
C45? C 0.5348(16) -0.0913(10) -0.0736(5)
H30? H 0.5825 -0.1135 -0.1161
C46? C 0.4191(18) -0.1569(10) -0.0306(6)
H31? H 0.3878 -0.2240 -0.0438
C47? C 0.3494(15) -0.1245(10) 0.0317(5)
H32? H 0.2703 -0.1693 0.0611
C48? C 0.3953(17) -0.0263(10) 0.0510(5)
H33? H 0.3476 -0.0041 0.0936
Cl2? Cl 0.5651(9) 0.1621(5) 0.0317(4)
Cl3? Cl 0.3852(7) 0.9305(5) 0.4707(3)
C49? C 0.0135(14) 0.990(2) 0.4322(7)
H34? H 0.0570 0.9798 0.3868
C50? C 0.1444(11) 0.975(2) 0.4858(6)
C51? C 0.0819(15) 0.991(2) 0.5522(7)
H35? H 0.1713 0.9809 0.5888
C52? C -0.1114(16) 1.023(2) 0.5651(9)
H36? H -0.1541 1.0351 0.6103
C53? C -0.2444(17) 1.0381(17) 0.5107(9)
H37? H -0.3765 1.0601 0.5193
C54? C -0.181(2) 1.0206(19) 0.4445(8)
H38? H -0.2697 1.0292 0.4080
loop_
_geom_bond_atom_site_label_1
_geom_bond_atom_site_label_2
_geom_bond_site_symmetry_1
_geom_bond_site_symmetry_2
C1 C2 1_555 1_555
C2 H1 1_555 1_555
C3 C2 1_555 1_555
C4 C3 1_555 1_555
H2 C4 1_555 1_555
C5 C4 1_555 1_555
H3 C5 1_555 1_555
C6 C5 1_555 1_555
C7 C6 1_555 1_555
H4 C7 1_555 1_555
C8 C7 1_555 1_555
H5 C8 1_555 1_555
C9 C8 1_555 1_555
C10 C9 1_555 1_555
H6 C10 1_555 1_555
C11 C10 1_555 1_555
H7 C11 1_555 1_555
C12 C11 1_555 1_555
C13 C12 1_555 1_555
C14 C13 1_555 1_555
C15 C1 1_555 1_555
C16 C15 1_555 1_555
C17 C3 1_555 1_555
C18 C6 1_555 1_555
C19 C9 1_555 1_555
C20 C12 1_555 1_555
C21 C14 1_555 1_555
C22 C21 1_555 1_555
C23 C1 1_555 1_555
C24 C21 1_555 1_555
H8 C24 1_555 1_555
C25 C26 1_555 1_555
C26 C22 1_555 1_555
H9 C26 1_555 1_555
C27 C23 1_555 1_555
C28 C27 1_555 1_555
C29 C28 1_555 1_555
H10 C29 1_555 1_555
C30 C29 1_555 1_555
C31 C30 1_555 1_555
H11 C31 1_555 1_555
C32 C27 1_555 1_555
C33 C28 1_555 1_555
H12 C33 1_555 1_555
H13 C33 1_555 1_555
H14 C33 1_555 1_555
C34 C30 1_555 1_555
H15 C34 1_555 1_555
H16 C34 1_555 1_555
H17 C34 1_555 1_555
C35 C32 1_555 1_555
H18 C35 1_555 1_555
H19 C35 1_555 1_555
H20 C35 1_555 1_555
O1 C13 1_555 1_555
C36 O1 1_555 1_555
H21 C36 1_555 1_555
H22 C36 1_555 1_555
H23 C36 1_555 1_555
C1A C2A 1_555 1_555
C2A H1A 1_555 1_555
C3A C2A 1_555 1_555
C4A C3A 1_555 1_555
H2A C4A 1_555 1_555
C5A C4A 1_555 1_555
H3A C5A 1_555 1_555
C6A C5A 1_555 1_555
C7A C6A 1_555 1_555
H4A C7A 1_555 1_555
C8A C7A 1_555 1_555
H5A C8A 1_555 1_555
C9A C8A 1_555 1_555
C10A C9A 1_555 1_555
H6A C10A 1_555 1_555
C11A C10A 1_555 1_555
H7A C11A 1_555 1_555
C12A C11A 1_555 1_555
C13A C12A 1_555 1_555
C14A C13A 1_555 1_555
C15A C1A 1_555 1_555
C16A C15A 1_555 1_555
C17A C3A 1_555 1_555
C18A C6A 1_555 1_555
C19A C9A 1_555 1_555
C20A C12A 1_555 1_555
C21A C14A 1_555 1_555
C22A C21A 1_555 1_555
C23A C1A 1_555 1_555
C24A C25 1_555 1_555
H8A C24A 1_555 1_555
C25A C24 1_555 1_555
C26A C22A 1_555 1_555
H9A C26A 1_555 1_555
C27A C23A 1_555 1_555
C28A C27A 1_555 1_555
C29A C28A 1_555 1_555
H10A C29A 1_555 1_555
C30A C29A 1_555 1_555
C31A C30A 1_555 1_555
H11A C31A 1_555 1_555
C32A C27A 1_555 1_555
C33A C28A 1_555 1_555
H12A C33A 1_555 1_555
H13A C33A 1_555 1_555
H14A C33A 1_555 1_555
C34A C30A 1_555 1_555
H15A C34A 1_555 1_555
H16A C34A 1_555 1_555
H17A C34A 1_555 1_555
C35A C32A 1_555 1_555
H18A C35A 1_555 1_555
H19A C35A 1_555 1_555
H20A C35A 1_555 1_555
O1A C13A 1_555 1_555
C36A O1A 1_555 1_555
H21A C36A 1_555 1_555
H22A C36A 1_555 1_555
H23A C36A 1_555 1_555
C14 C15 1_555 1_555
C16 C17 1_555 1_555
C16 C20 1_555 1_555
C17 C18 1_555 1_555
C18 C19 1_555 1_555
C19 C20 1_555 1_555
C22 C23 1_555 1_555
C25 C25A 1_555 1_555
C31 C32 1_555 1_555
C14A C15A 1_555 1_555
C16A C17A 1_555 1_555
C16A C20A 1_555 1_555
C17A C18A 1_555 1_555
C18A C19A 1_555 1_555
C19A C20A 1_555 1_555
C21A C24A 1_555 1_555
C22A C23A 1_555 1_555
C25A C26A 1_555 1_555
C31A C32A 1_555 1_555

#END
