
#######################################################################
#
#                 Cambridge Crystallographic Data Centre
#                                CCDC 
#
#######################################################################
#
# If this CIF has been generated from an entry in the Cambridge 
# Structural Database, then it will include bibliographic, chemical, 
# crystal, experimental, refinement or atomic coordinate data resulting 
# from the CCDC's data processing and validation procedures.
#
#######################################################################

data_WIHGUS
_chemical_formula_moiety         'C23 H26 F1 N1 O2 S1'
_chemical_name_systematic        
2-(ethylsulfanyl)-N-(1-(4-fluorophenyl)-3-oxohept-1-en-1-yl)-2-phenylacetamide
_symmetry_cell_setting           triclinic
_symmetry_space_group_name_H-M   'P -1'
_symmetry_Int_Tables_number      2
_space_group_name_Hall           '-P 1'
loop_
_symmetry_equiv_pos_site_id
_symmetry_equiv_pos_as_xyz
1 x,y,z
2 -x,-y,-z
_cell_length_a                   8.7586(18)
_cell_length_b                   12.203(3)
_cell_length_c                   19.973(4)
_cell_angle_alpha                91.534(4)
_cell_angle_beta                 96.604(4)
_cell_angle_gamma                90.138(4)
_cell_volume                     2119.78
_exptl_crystal_colour            colorless
_exptl_crystal_description       block
_cell_formula_units_Z            4
_exptl_crystal_recrystallization_method 'ethyl acetate/hexane'
loop_
_atom_site_label
_atom_site_type_symbol
_atom_site_fract_x
_atom_site_fract_y
_atom_site_fract_z
S1 S 0.26115(11) 1.04180(8) 0.70683(5)
O1 O 0.6826(3) 1.0903(2) 0.80288(15)
F1 F 0.9036(4) 0.6090(2) 0.52012(16)
N1 N 0.5762(3) 0.9328(2) 0.71472(15)
H1 H 0.5531 0.9980 0.7304
O2 O 0.4662(4) 0.7721(2) 0.67710(18)
C1 C 0.7301(4) 0.9171(3) 0.70592(17)
C2 C 0.4575(4) 0.8614(3) 0.70242(17)
C3 C 0.7706(4) 0.8338(3) 0.65640(18)
C4 C 0.8384(4) 0.9801(3) 0.74076(19)
H2 H 0.9416 0.9686 0.7320
C5 C 0.3054(4) 0.9015(3) 0.72498(18)
H3 H 0.2214 0.8553 0.7004
C6 C 0.3012(4) 0.8857(3) 0.80016(18)
C7 C 0.8119(5) 1.0644(3) 0.7907(2)
C8 C 0.8868(4) 0.7601(3) 0.6747(2)
H4 H 0.9360 0.7617 0.7197
C9 C 0.7016(5) 0.8311(3) 0.59113(19)
H5 H 0.6223 0.8817 0.5778
C10 C 0.2377(5) 0.7930(4) 0.8211(2)
H6 H 0.1979 0.7387 0.7888
C11 C 0.8607(6) 0.6846(4) 0.5652(2)
C12 C 0.9318(5) 0.6847(4) 0.6288(2)
H7 H 1.0111 0.6338 0.6416
C13 C 0.7467(6) 0.7551(4) 0.5446(2)
H8 H 0.6990 0.7526 0.4993
C14 C 0.3576(6) 0.9641(4) 0.8470(2)
H9 H 0.4021 1.0295 0.8329
C15 C 0.2456(5) 1.0376(4) 0.6159(2)
H10 H 0.2530 1.1133 0.5998
H11 H 0.3331 0.9955 0.6013
C16 C 0.2301(6) 0.7765(5) 0.8883(3)
H12 H 0.1855 0.7111 0.9022
C17 C 0.2864(7) 0.8538(5) 0.9350(2)
H13 H 0.2818 0.8423 0.9816
C18 C 0.3497(7) 0.9481(5) 0.9147(2)
H14 H 0.3883 1.0026 0.9471
C19 C 0.973(4) 1.378(2) 0.9466(19)
H15 H 0.8934 1.4250 0.9244
H16 H 1.0628 1.4230 0.9640
H17 H 0.9335 1.3410 0.9839
C20 C 0.8910(13) 1.2197(10) 0.8697(6)
H18 H 0.8229 1.2565 0.8343
H19 H 0.8295 1.2002 0.9063
C21 C 0.1016(8) 0.9877(8) 0.5845(3)
H20 H 0.1016 0.9845 0.5354
H21 H 0.0147 1.0318 0.5961
H22 H 0.0923 0.9133 0.6010
C22 C 1.0203(14) 1.2938(8) 0.8965(5)
H23 H 1.0589 1.3317 0.8586
H24 H 1.1053 1.2495 0.9185
C23 C 0.972(2) 1.100(2) 0.8357(10)
H25 H 1.0554 1.1161 0.8080
H26 H 1.0063 1.0460 0.8704
S2 S 0.34605(10) 0.54341(8) 0.70949(5)
O3 O -0.0270(3) 0.5889(2) 0.80597(15)
F2 F -0.3937(4) 0.1124(3) 0.51830(17)
N2 N 0.0352(3) 0.4333(2) 0.71652(15)
H36 H 0.0664 0.4986 0.7321
O4 O 0.1265(3) 0.2733(2) 0.67864(18)
C28 C -0.1226(4) 0.4167(3) 0.70763(18)
C29 C 0.1481(4) 0.3616(3) 0.70423(18)
C30 C -0.1892(4) 0.3339(3) 0.65684(18)
C31 C 0.3119(4) 0.4020(3) 0.72749(18)
H37 H 0.3831 0.3566 0.7027
C32 C -0.2140(4) 0.4783(3) 0.74242(19)
H38 H -0.3217 0.4663 0.7331
C33 C 0.3554(4) 0.3853(3) 0.80154(18)
C34 C -0.1624(5) 0.5617(4) 0.7932(2)
C35 C 0.4316(5) 0.2910(3) 0.8215(2)
H39 H 0.4554 0.2384 0.7884
C36 C -0.2974(4) 0.2604(3) 0.6741(2)
H40 H -0.3248 0.2619 0.7188
C37 C -0.1531(5) 0.3331(3) 0.5916(2)
H41 H -0.0801 0.3840 0.5788
C38 C -0.3267(5) 0.1863(4) 0.5641(3)
C39 C -0.3656(5) 0.1856(4) 0.6280(3)
H42 H -0.4385 0.1343 0.6404
C40 C 0.3233(5) 0.4604(4) 0.8503(2)
H43 H 0.2704 0.5257 0.8374
C41 C 0.4734(6) 0.2720(4) 0.8878(2)
H44 H 0.5241 0.2058 0.9007
C42 C -0.2229(6) 0.2585(4) 0.5447(2)
H45 H -0.1988 0.2575 0.4995
C43 C 0.3130(5) 0.5397(4) 0.6184(2)
H46 H 0.2191 0.4959 0.6039
H47 H 0.2947 0.6152 0.6025
C44 C 0.3670(7) 0.4422(4) 0.9177(2)
H48 H 0.3444 0.4950 0.9510
C45 C 0.4427(6) 0.3484(5) 0.9366(2)
H49 H 0.4739 0.3357 0.9829
C46 C 0.4429(8) 0.4922(7) 0.5867(3)
H50 H 0.4254 0.5014 0.5378
H51 H 0.4511 0.4140 0.5963
H52 H 0.5384 0.5297 0.6049
C47 C -0.317(2) 0.8029(10) 0.8881(7)
H53 H -0.3965 0.7747 0.9149
H54 H -0.3659 0.8409 0.8481
C48 C -0.2934(16) 0.5926(17) 0.8379(8)
H55 H -0.3039 0.5387 0.8733
H56 H -0.3939 0.6035 0.8108
C49 C -0.2077(18) 0.7188(16) 0.8714(8)
H57 H -0.1380 0.7032 0.9126
H58 H -0.1443 0.7486 0.8381
C50 C -0.194(4) 0.8725(15) 0.9303(8)
H59 H -0.0925 0.8428 0.9251
H60 H -0.2118 0.8713 0.9779
H61 H -0.2001 0.9482 0.9150
C24? C 0.9490(17) 1.1810(13) 0.8933(7)
H27? H 0.8694 1.1508 0.9191
H28? H 1.0525 1.1714 0.9180
C25? C 0.920(2) 1.2902(14) 0.8741(7)
H29? H 0.8215 1.2926 0.8442
H30? H 1.0024 1.3153 0.8481
C26? C 0.9364(16) 1.1343(13) 0.8181(8)
H31? H 0.9359 1.1983 0.7886
H32? H 1.0326 1.0939 0.8133
C27? C 0.911(8) 1.370(3) 0.9363(15)
H33? H 0.8954 1.4452 0.9207
H34? H 1.0065 1.3664 0.9667
H35? H 0.8242 1.3487 0.9603
C51? C -0.2747(16) 0.6330(13) 0.8201(8)
H62? H -0.3640 0.6550 0.7922
C52? C -0.2469(15) 0.6727(15) 0.8949(7)
H63? H -0.1511 0.6440 0.9193
H64? H -0.3356 0.6599 0.9203
C53? C -0.232(3) 0.7970(12) 0.8722(7)
H65? H -0.3125 0.8122 0.8347
H66? H -0.1305 0.8087 0.8563
C54? C -0.253(4) 0.886(2) 0.9415(13)
H67? H -0.3194 0.9476 0.9265
H68? H -0.1519 0.9146 0.9604
H69? H -0.2994 0.8464 0.9761
loop_
_geom_bond_atom_site_label_1
_geom_bond_atom_site_label_2
_geom_bond_site_symmetry_1
_geom_bond_site_symmetry_2
S1 C5 1_555 1_555
O1 C7 1_555 1_555
F1 C11 1_555 1_555
N1 H1 1_555 1_555
O2 C2 1_555 1_555
C1 N1 1_555 1_555
C2 N1 1_555 1_555
C3 C1 1_555 1_555
C4 C1 1_555 1_555
H2 C4 1_555 1_555
C5 C2 1_555 1_555
H3 C5 1_555 1_555
C6 C5 1_555 1_555
C7 C4 1_555 1_555
C8 C3 1_555 1_555
H4 C8 1_555 1_555
C9 C3 1_555 1_555
H5 C9 1_555 1_555
C10 C6 1_555 1_555
H6 C10 1_555 1_555
C11 C12 1_555 1_555
C12 C8 1_555 1_555
H7 C12 1_555 1_555
C13 C9 1_555 1_555
H8 C13 1_555 1_555
C14 C6 1_555 1_555
H9 C14 1_555 1_555
C15 S1 1_555 1_555
H10 C15 1_555 1_555
H11 C15 1_555 1_555
C16 C10 1_555 1_555
H12 C16 1_555 1_555
C17 C16 1_555 1_555
H13 C17 1_555 1_555
C18 C14 1_555 1_555
H14 C18 1_555 1_555
C19 H15 1_555 1_555
H16 C19 1_555 1_555
H17 C19 1_555 1_555
C20 H18 1_555 1_555
H19 C20 1_555 1_555
C21 C15 1_555 1_555
H20 C21 1_555 1_555
H21 C21 1_555 1_555
H22 C21 1_555 1_555
C22 C19 1_555 1_555
H23 C22 1_555 1_555
H24 C22 1_555 1_555
C23 C7 1_555 1_555
H25 C23 1_555 1_555
H26 C23 1_555 1_555
S2 C31 1_555 1_555
O3 C34 1_555 1_555
F2 C38 1_555 1_555
N2 H36 1_555 1_555
O4 C29 1_555 1_555
C28 N2 1_555 1_555
C29 N2 1_555 1_555
C30 C28 1_555 1_555
C31 C29 1_555 1_555
H37 C31 1_555 1_555
C32 C28 1_555 1_555
H38 C32 1_555 1_555
C33 C31 1_555 1_555
C34 C32 1_555 1_555
C35 C33 1_555 1_555
H39 C35 1_555 1_555
C36 C30 1_555 1_555
H40 C36 1_555 1_555
C37 C30 1_555 1_555
H41 C37 1_555 1_555
C38 C39 1_555 1_555
C39 C36 1_555 1_555
H42 C39 1_555 1_555
C40 C33 1_555 1_555
H43 C40 1_555 1_555
C41 C35 1_555 1_555
H44 C41 1_555 1_555
C42 C37 1_555 1_555
H45 C42 1_555 1_555
C43 S2 1_555 1_555
H46 C43 1_555 1_555
H47 C43 1_555 1_555
C44 C40 1_555 1_555
H48 C44 1_555 1_555
C45 C41 1_555 1_555
H49 C45 1_555 1_555
C46 C43 1_555 1_555
H50 C46 1_555 1_555
H51 C46 1_555 1_555
H52 C46 1_555 1_555
C47 H53 1_555 1_555
H54 C47 1_555 1_555
C48 C34 1_555 1_555
H55 C48 1_555 1_555
H56 C48 1_555 1_555
C49 C47 1_555 1_555
H57 C49 1_555 1_555
H58 C49 1_555 1_555
C50 C47 1_555 1_555
H59 C50 1_555 1_555
H60 C50 1_555 1_555
H61 C50 1_555 1_555
C11 C13 1_555 1_555
C17 C18 1_555 1_555
C20 C22 1_555 1_555
C20 C23 1_555 1_555
C38 C42 1_555 1_555
C44 C45 1_555 1_555
C48 C49 1_555 1_555

#END
