
#######################################################################
#
#                 Cambridge Crystallographic Data Centre
#                                CCDC 
#
#######################################################################
#
# If this CIF has been generated from an entry in the Cambridge 
# Structural Database, then it will include bibliographic, chemical, 
# crystal, experimental, refinement or atomic coordinate data resulting 
# from the CCDC's data processing and validation procedures.
#
#######################################################################

data_WIHGOM
_chemical_formula_moiety         'C68 H44 O2,2(C6 H5 Cl1)'
_chemical_name_systematic        
"9,19-dimesityl-1,11-dimethoxydicorannuleno[1,8-ab:1',8'-hi]anthracene chlorobenzene solvate"
_symmetry_cell_setting           triclinic
_symmetry_space_group_name_H-M   'P -1'
_symmetry_Int_Tables_number      2
_space_group_name_Hall           '-P 1'
loop_
_symmetry_equiv_pos_site_id
_symmetry_equiv_pos_as_xyz
1 x,y,z
2 -x,-y,-z
_cell_length_a                   10.7657(7)
_cell_length_b                   11.9402(7)
_cell_length_c                   12.6973(7)
_cell_angle_alpha                65.614(3)
_cell_angle_beta                 84.355(3)
_cell_angle_gamma                71.603(4)
_cell_volume                     1409.62
_exptl_crystal_colour            black
_exptl_crystal_description       'prism fragment'
_cell_formula_units_Z            1
loop_
_atom_site_label
_atom_site_type_symbol
_atom_site_fract_x
_atom_site_fract_y
_atom_site_fract_z
O1 O 0.9259(6) 0.7648(6) 1.1375(6)
C1 C 1.0259(9) 0.5529(8) 1.0706(8)
H1 H 1.0445 0.5876 1.1203
C2 C 0.9360(8) 0.6330(8) 0.9823(8)
C3 C 0.8676(9) 0.7701(8) 0.9568(9)
C4 C 0.8645(9) 0.8335(9) 1.0299(9)
C5 C 0.7835(9) 0.9653(9) 1.0028(10)
C6 C 0.7281(10) 1.0287(9) 1.0795(10)
H2 H 0.7677 0.9955 1.1543
C7 C 0.6193(11) 1.1360(10) 1.0470(11)
H3 H 0.5861 1.1740 1.1007
C8 C 0.5539(10) 1.1930(9) 0.9354(11)
C9 C 0.4211(11) 1.2748(10) 0.8975(12)
H4 H 0.3738 1.3234 0.9399
C10 C 0.3614(11) 1.2844(10) 0.8020(12)
H5 H 0.2742 1.3397 0.7806
C11 C 0.4263(11) 1.2133(9) 0.7328(10)
C12 C 0.3727(11) 1.1728(10) 0.6599(11)
H6 H 0.2865 1.2200 0.6274
C13 C 0.4415(11) 1.0681(10) 0.6357(10)
H7 H 0.4018 1.0460 0.5866
C14 C 0.5733(10) 0.9904(9) 0.6831(9)
C15 C 0.6433(10) 0.8592(9) 0.7017(9)
H8 H 0.6184 0.8217 0.6574
C16 C 0.7483(9) 0.7845(8) 0.7842(8)
C17 C 0.8141(9) 0.6498(8) 0.8137(9)
C18 C 0.9054(8) 0.5795(8) 0.9055(8)
C19 C 0.7905(9) 0.8412(8) 0.8497(9)
C20 C 0.7352(9) 0.9715(9) 0.8162(9)
C21 C 0.7312(9) 1.0323(9) 0.8911(9)
C22 C 0.6200(10) 1.1429(9) 0.8585(10)
C23 C 0.5580(10) 1.1519(9) 0.7603(10)
C24 C 0.6290(9) 1.0453(9) 0.7340(9)
C25 C 0.7835(9) 0.5881(8) 0.7419(8)
C26 C 0.6884(10) 0.5235(9) 0.7775(9)
C27 C 0.6611(10) 0.4689(10) 0.7067(9)
H9 H 0.5961 0.4257 0.7294
C28 C 0.7240(10) 0.4754(10) 0.6066(10)
C29 C 0.8189(11) 0.5380(10) 0.5746(9)
H10 H 0.8641 0.5424 0.5056
C30 C 0.8502(10) 0.5951(10) 0.6410(10)
C31 C 0.6172(12) 0.5129(12) 0.8863(10)
H11 H 0.6794 0.4621 0.9528
H12 H 0.5508 0.4701 0.8933
H13 H 0.5746 0.5993 0.8845
C32 C 0.6946(12) 0.4137(13) 0.5323(11)
H14 H 0.7683 0.3373 0.5392
H15 H 0.6814 0.4759 0.4513
H16 H 0.6151 0.3882 0.5585
C33 C 0.9555(13) 0.6599(13) 0.6044(12)
H17 H 0.9856 0.6623 0.5283
H18 H 1.0292 0.6115 0.6610
H19 H 0.9205 0.7482 0.5999
C34 C 1.0339(12) 0.8031(12) 1.1528(13)
H20 H 1.1003 0.7917 1.0964
H21 H 1.0723 0.7498 1.2313
H22 H 1.0031 0.8940 1.1412
O1A O 1.0741(6) 0.2352(6) 0.8625(6)
C1A C 0.9741(9) 0.4471(8) 0.9294(8)
H1A H 0.9555 0.4124 0.8797
C2A C 1.0640(8) 0.3670(8) 1.0177(8)
C3A C 1.1324(9) 0.2299(8) 1.0432(9)
C4A C 1.1355(9) 0.1665(9) 0.9701(9)
C5A C 1.2165(9) 0.0347(9) 0.9972(10)
C6A C 1.2719(10) -0.0287(9) 0.9205(10)
H2A H 1.2323 0.0045 0.8457
C7A C 1.3807(11) -0.1360(10) 0.9530(11)
H3A H 1.4139 -0.1740 0.8993
C8A C 1.4461(10) -0.1930(9) 1.0646(11)
C9A C 1.5789(11) -0.2748(10) 1.1025(12)
H4A H 1.6262 -0.3234 1.0601
C10A C 1.6386(11) -0.2844(10) 1.1980(12)
H5A H 1.7258 -0.3397 1.2194
C11A C 1.5737(11) -0.2133(9) 1.2672(10)
C12A C 1.6273(11) -0.1728(10) 1.3401(11)
H6A H 1.7135 -0.2200 1.3726
C13A C 1.5585(11) -0.0681(10) 1.3643(10)
H7A H 1.5982 -0.0460 1.4134
C14A C 1.4267(10) 0.0096(9) 1.3169(9)
C15A C 1.3567(10) 0.1408(9) 1.2983(9)
H8A H 1.3816 0.1783 1.3426
C16A C 1.2517(9) 0.2155(8) 1.2158(8)
C17A C 1.1859(9) 0.3502(8) 1.1863(9)
C18A C 1.0946(8) 0.4205(8) 1.0945(8)
C19A C 1.2095(9) 0.1588(8) 1.1503(9)
C20A C 1.2648(9) 0.0285(9) 1.1838(9)
C21A C 1.2688(9) -0.0323(9) 1.1089(9)
C22A C 1.3800(10) -0.1429(9) 1.1415(10)
C23A C 1.4420(10) -0.1519(9) 1.2397(10)
C24A C 1.3710(9) -0.0453(9) 1.2660(9)
C25A C 1.2165(9) 0.4119(8) 1.2581(8)
C26A C 1.3116(10) 0.4765(9) 1.2225(9)
C27A C 1.3389(10) 0.5311(10) 1.2933(9)
H9A H 1.4039 0.5743 1.2706
C28A C 1.2760(10) 0.5246(10) 1.3934(10)
C29A C 1.1811(11) 0.4620(10) 1.4254(9)
H10A H 1.1359 0.4576 1.4944
C30A C 1.1498(10) 0.4049(10) 1.3590(10)
C31A C 1.3828(12) 0.4871(12) 1.1137(10)
H11A H 1.3206 0.5379 1.0472
H12A H 1.4492 0.5299 1.1067
H13A H 1.4254 0.4007 1.1155
C32A C 1.3054(12) 0.5863(13) 1.4677(11)
H14A H 1.2317 0.6627 1.4608
H15A H 1.3186 0.5241 1.5487
H16A H 1.3849 0.6118 1.4415
C33A C 1.0445(13) 0.3401(13) 1.3956(12)
H17A H 1.0144 0.3377 1.4717
H18A H 0.9708 0.3885 1.3390
H19A H 1.0795 0.2518 1.4001
C34A C 0.9661(12) 0.1969(12) 0.8472(13)
H20A H 0.8997 0.2083 0.9036
H21A H 0.9277 0.2502 0.7687
H22A H 0.9969 0.1060 0.8588
Cl1 Cl 0.9805(9) -0.0502(6) 0.3640(6)
C35 C 0.8621(18) 0.0960(17) 0.3368(17)
C36 C 0.774(2) 0.104(2) 0.4192(17)
H23 H 0.7764 0.0309 0.4895
C37 C 0.681(2) 0.219(3) 0.398(2)
H24 H 0.6163 0.2265 0.4539
C38 C 0.6794(18) 0.327(3) 0.296(2)
H25 H 0.6154 0.4077 0.2811
C39 C 0.7707(19) 0.313(2) 0.2181(17)
H26 H 0.7717 0.3854 0.1488
C40 C 0.8631(15) 0.1950(19) 0.2368(14)
H27 H 0.9253 0.1849 0.1803
loop_
_geom_bond_atom_site_label_1
_geom_bond_atom_site_label_2
_geom_bond_site_symmetry_1
_geom_bond_site_symmetry_2
O1 C4 1_555 1_555
C1 H1 1_555 1_555
C2 C1 1_555 1_555
C3 C2 1_555 1_555
C4 C3 1_555 1_555
C5 C4 1_555 1_555
C6 C5 1_555 1_555
H2 C6 1_555 1_555
C7 C6 1_555 1_555
H3 C7 1_555 1_555
C8 C7 1_555 1_555
C9 C8 1_555 1_555
H4 C9 1_555 1_555
C10 C9 1_555 1_555
H5 C10 1_555 1_555
C11 C10 1_555 1_555
C12 C11 1_555 1_555
H6 C12 1_555 1_555
C13 C12 1_555 1_555
H7 C13 1_555 1_555
C14 C13 1_555 1_555
C15 C14 1_555 1_555
H8 C15 1_555 1_555
C16 C15 1_555 1_555
C17 C16 1_555 1_555
C18 C2 1_555 1_555
C19 C3 1_555 1_555
C20 C19 1_555 1_555
C21 C5 1_555 1_555
C22 C8 1_555 1_555
C23 C11 1_555 1_555
C24 C14 1_555 1_555
C25 C17 1_555 1_555
C26 C25 1_555 1_555
C27 C26 1_555 1_555
H9 C27 1_555 1_555
C28 C27 1_555 1_555
C29 C28 1_555 1_555
H10 C29 1_555 1_555
C30 C25 1_555 1_555
C31 C26 1_555 1_555
H11 C31 1_555 1_555
H12 C31 1_555 1_555
H13 C31 1_555 1_555
C32 C28 1_555 1_555
H14 C32 1_555 1_555
H15 C32 1_555 1_555
H16 C32 1_555 1_555
C33 C30 1_555 1_555
H17 C33 1_555 1_555
H18 C33 1_555 1_555
H19 C33 1_555 1_555
C34 O1 1_555 1_555
H20 C34 1_555 1_555
H21 C34 1_555 1_555
H22 C34 1_555 1_555
Cl1 C35 1_555 1_555
C35 C36 1_555 1_555
C36 H23 1_555 1_555
C37 C36 1_555 1_555
H24 C37 1_555 1_555
C38 C37 1_555 1_555
H25 C38 1_555 1_555
C39 C38 1_555 1_555
H26 C39 1_555 1_555
C40 C35 1_555 1_555
H27 C40 1_555 1_555
O1A C4A 1_555 1_555
C1A C18 1_555 1_555
H1A C1A 1_555 1_555
C2A C1A 1_555 1_555
C3A C2A 1_555 1_555
C4A C3A 1_555 1_555
C5A C4A 1_555 1_555
C6A C5A 1_555 1_555
H2A C6A 1_555 1_555
C7A C6A 1_555 1_555
H3A C7A 1_555 1_555
C8A C7A 1_555 1_555
C9A C8A 1_555 1_555
H4A C9A 1_555 1_555
C10A C9A 1_555 1_555
H5A C10A 1_555 1_555
C11A C10A 1_555 1_555
C12A C11A 1_555 1_555
H6A C12A 1_555 1_555
C13A C12A 1_555 1_555
H7A C13A 1_555 1_555
C14A C13A 1_555 1_555
C15A C14A 1_555 1_555
H8A C15A 1_555 1_555
C16A C15A 1_555 1_555
C17A C16A 1_555 1_555
C18A C1 1_555 1_555
C19A C3A 1_555 1_555
C20A C19A 1_555 1_555
C21A C5A 1_555 1_555
C22A C8A 1_555 1_555
C23A C11A 1_555 1_555
C24A C14A 1_555 1_555
C25A C17A 1_555 1_555
C26A C25A 1_555 1_555
C27A C26A 1_555 1_555
H9A C27A 1_555 1_555
C28A C27A 1_555 1_555
C29A C28A 1_555 1_555
H10A C29A 1_555 1_555
C30A C25A 1_555 1_555
C31A C26A 1_555 1_555
H11A C31A 1_555 1_555
H12A C31A 1_555 1_555
H13A C31A 1_555 1_555
C32A C28A 1_555 1_555
H14A C32A 1_555 1_555
H15A C32A 1_555 1_555
H16A C32A 1_555 1_555
C33A C30A 1_555 1_555
H17A C33A 1_555 1_555
H18A C33A 1_555 1_555
H19A C33A 1_555 1_555
C34A O1A 1_555 1_555
H20A C34A 1_555 1_555
H21A C34A 1_555 1_555
H22A C34A 1_555 1_555
C16 C19 1_555 1_555
C17 C18 1_555 1_555
C20 C21 1_555 1_555
C20 C24 1_555 1_555
C21 C22 1_555 1_555
C22 C23 1_555 1_555
C23 C24 1_555 1_555
C29 C30 1_555 1_555
C39 C40 1_555 1_555
C2A C18A 1_555 1_555
C16A C19A 1_555 1_555
C17A C18A 1_555 1_555
C20A C21A 1_555 1_555
C20A C24A 1_555 1_555
C21A C22A 1_555 1_555
C22A C23A 1_555 1_555
C23A C24A 1_555 1_555
C29A C30A 1_555 1_555

#END
