
#######################################################################
#
#                 Cambridge Crystallographic Data Centre
#                                CCDC 
#
#######################################################################
#
# If this CIF has been generated from an entry in the Cambridge 
# Structural Database, then it will include bibliographic, chemical, 
# crystal, experimental, refinement or atomic coordinate data resulting 
# from the CCDC's data processing and validation procedures.
#
#######################################################################

data_WIHHEB
_chemical_formula_moiety         'C14 H26 Cl1 N5'
_chemical_name_systematic        
6-Chloro-N^2^-propyl-N^4^-(2,4,4-trimethylpentan-2-yl)-1,3,5-triazine-2,4-diamine
_symmetry_cell_setting           monoclinic
_symmetry_space_group_name_H-M   'C 2/c'
_symmetry_Int_Tables_number      15
_space_group_name_Hall           '-C 2yn'
loop_
_symmetry_equiv_pos_site_id
_symmetry_equiv_pos_as_xyz
1 x,y,z
2 1/2+x,1/2+y,z
3 -x,y,1/2-z
4 1/2-x,1/2+y,1/2-z
5 -x,-y,-z
6 1/2-x,1/2-y,-z
7 x,-y,1/2+z
8 1/2+x,1/2-y,1/2+z
_cell_length_a                   19.354(4)
_cell_length_b                   8.1265(16)
_cell_length_c                   22.312(4)
_cell_angle_alpha                90
_cell_angle_beta                 98.211(4)
_cell_angle_gamma                90
_cell_volume                     3473.26
_exptl_crystal_colour            colorless
_exptl_crystal_description       prism
_chemical_melting_point          '427-429 K'
_cell_formula_units_Z            8
_exptl_crystal_recrystallization_method methanol
loop_
_atom_site_label
_atom_site_type_symbol
_atom_site_fract_x
_atom_site_fract_y
_atom_site_fract_z
Cl1 Cl 1.12154(5) 0.54065(15) 0.15428(4)
N1 N 1.01263(14) 0.5960(3) 0.07597(11)
N2 N 1.01295(13) 0.7029(3) 0.17513(11)
N3 N 0.91505(13) 0.7532(3) 0.09899(11)
N4 N 0.91928(15) 0.6518(4) 0.00350(12)
H1 H 0.9410 0.5949 -0.0204
N5 N 0.91712(13) 0.8346(4) 0.19857(12)
H2 H 0.9419 0.8406 0.2337
C1 C 1.03866(16) 0.6232(4) 0.13245(15)
C2 C 0.94741(16) 0.7621(4) 0.15558(14)
C3 C 0.94923(17) 0.6693(4) 0.06058(14)
C4 C 0.84639(17) 0.9060(4) 0.19365(16)
C5 C 0.79276(19) 0.7711(5) 0.1755(2)
H3 H 0.7965 0.7341 0.1353
H4 H 0.7467 0.8136 0.1767
H5 H 0.8013 0.6805 0.2032
C6 C 0.8389(2) 0.9614(6) 0.25784(18)
H6 H 0.8720 1.0470 0.2702
H7 H 0.8474 0.8697 0.2850
H8 H 0.7925 1.0021 0.2586
C7 C 0.83308(19) 1.0435(4) 0.14660(17)
H9 H 0.7848 1.0766 0.1461
H10 H 0.8357 0.9926 0.1077
C8 C 0.8755(2) 1.2031(5) 0.1477(2)
C9 C 0.9459(5) 1.1708(16) 0.1267(5)
H11 H 0.9720 1.2715 0.1280
H12 H 0.9386 1.1292 0.0861
H13 H 0.9714 1.0913 0.1530
C10 C 0.8316(8) 1.301(2) 0.0956(7)
H14 H 0.8526 1.4068 0.0916
H15 H 0.7850 1.3154 0.1047
H16 H 0.8302 1.2413 0.0583
C11 C 0.8522(8) 1.3241(19) 0.1929(6)
H17 H 0.8794 1.4230 0.1933
H18 H 0.8587 1.2757 0.2325
H19 H 0.8037 1.3500 0.1812
C15 C 0.8530(2) 0.7219(6) -0.02092(18)
H29 H 0.8196 0.6870 0.0051
H30 H 0.8389 0.6708 -0.0601
C16 C 0.8442(6) 0.8996(11) -0.0295(5)
H31 H 0.8581 0.9583 0.0081
H32 H 0.7961 0.9269 -0.0448
C17 C 0.8909(6) 0.9395(18) -0.0745(5)
H33 H 0.8929 1.0567 -0.0794
H34 H 0.8732 0.8896 -0.1126
H35 H 0.9368 0.8980 -0.0607
C12? C 0.9560(5) 1.1719(18) 0.1623(6)
H20? H 0.9804 1.2749 0.1629
H21? H 0.9706 1.1020 0.1317
H22? H 0.9664 1.1196 0.2011
C13? C 0.8601(9) 1.299(3) 0.0881(7)
H23? H 0.8874 1.3978 0.0908
H24? H 0.8114 1.3264 0.0807
H25? H 0.8718 1.2321 0.0555
C14? C 0.8846(7) 1.3011(17) 0.2076(5)
H26? H 0.9120 1.3978 0.2033
H27? H 0.9078 1.2337 0.2396
H28? H 0.8396 1.3328 0.2170
C18? C 0.8530(2) 0.7219(6) -0.02092(18)
H36? H 0.8317 0.7718 0.0115
H37? H 0.8222 0.6356 -0.0390
C19? C 0.8621(9) 0.8539(16) -0.0695(6)
H38? H 0.8866 0.8072 -0.1005
H39? H 0.8167 0.8919 -0.0887
C20? C 0.9031(9) 0.995(2) -0.0388(9)
H40? H 0.8821 1.0974 -0.0534
H41? H 0.9502 0.9909 -0.0475
H42? H 0.9032 0.9881 0.0042
loop_
_geom_bond_atom_site_label_1
_geom_bond_atom_site_label_2
_geom_bond_site_symmetry_1
_geom_bond_site_symmetry_2
Cl1 C1 1_555 1_555
N1 C1 1_555 1_555
N2 C1 1_555 1_555
N3 C2 1_555 1_555
N4 H1 1_555 1_555
N5 H2 1_555 1_555
C2 N2 1_555 1_555
C3 N1 1_555 1_555
C4 N5 1_555 1_555
C5 C4 1_555 1_555
H3 C5 1_555 1_555
H4 C5 1_555 1_555
H5 C5 1_555 1_555
C6 C4 1_555 1_555
H6 C6 1_555 1_555
H7 C6 1_555 1_555
H8 C6 1_555 1_555
C7 C4 1_555 1_555
H9 C7 1_555 1_555
H10 C7 1_555 1_555
C8 C7 1_555 1_555
C9 C8 1_555 1_555
H11 C9 1_555 1_555
H12 C9 1_555 1_555
H13 C9 1_555 1_555
C10 C8 1_555 1_555
H14 C10 1_555 1_555
H15 C10 1_555 1_555
H16 C10 1_555 1_555
C11 C8 1_555 1_555
H17 C11 1_555 1_555
H18 C11 1_555 1_555
H19 C11 1_555 1_555
C15 N4 1_555 1_555
H29 C15 1_555 1_555
H30 C15 1_555 1_555
C16 C15 1_555 1_555
H31 C16 1_555 1_555
H32 C16 1_555 1_555
C17 C16 1_555 1_555
H33 C17 1_555 1_555
H34 C17 1_555 1_555
H35 C17 1_555 1_555
N3 C3 1_555 1_555
N4 C3 1_555 1_555
N5 C2 1_555 1_555

#END
