
#######################################################################
#
#                 Cambridge Crystallographic Data Centre
#                                CCDC 
#
#######################################################################
#
# If this CIF has been generated from an entry in the Cambridge 
# Structural Database, then it will include bibliographic, chemical, 
# crystal, experimental, refinement or atomic coordinate data resulting 
# from the CCDC's data processing and validation procedures.
#
#######################################################################

data_WIHHIH
_chemical_formula_moiety         'C41 H35 Cl2 N3 O3,0.5(C6 H12),C4 H8 O1'
_chemical_name_systematic        
'1-benzyl-N-(3-chlorophenyl)-4-(((3-chlorophenyl)amino)(oxo)acetyl)-2-methyl-3,5-bis(4-methylphenyl)-2,3-dihydro-1H-pyrrole-2-carboxamide cyclohexane tetrahydrofuran solvate'
_symmetry_cell_setting           triclinic
_symmetry_space_group_name_H-M   'P -1'
_symmetry_Int_Tables_number      2
_space_group_name_Hall           '-P 1'
loop_
_symmetry_equiv_pos_site_id
_symmetry_equiv_pos_as_xyz
1 x,y,z
2 -x,-y,-z
_cell_length_a                   12.043(3)
_cell_length_b                   13.174(4)
_cell_length_c                   13.616(4)
_cell_angle_alpha                98.819(9)
_cell_angle_beta                 97.641(6)
_cell_angle_gamma                98.079(5)
_cell_volume                     2086.99
_exptl_crystal_colour            colorless
_exptl_crystal_description       Prism
_cell_formula_units_Z            2
loop_
_atom_site_label
_atom_site_type_symbol
_atom_site_fract_x
_atom_site_fract_y
_atom_site_fract_z
Cl1 Cl 1.06924(5) 0.40908(6) 0.06734(5)
Cl2 Cl 0.37451(7) 0.16010(6) 0.97118(8)
O1 O 0.81712(12) 0.46860(10) 0.33123(11)
O2 O 0.54845(12) 0.40750(11) 0.34057(10)
O3 O 0.64573(13) 0.30488(12) 0.76696(12)
N1 N 0.70878(14) 0.32576(13) 0.22579(13)
H1 H 0.6470(13) 0.2788(14) 0.2235(18)
N2 N 0.76964(14) 0.37848(12) 0.63318(12)
N3 N 0.54032(15) 0.43594(13) 0.77702(13)
H2 H 0.526(2) 0.4904(13) 0.7481(16)
C1 C 0.76733(17) 0.31647(15) 0.14296(15)
C2 C 0.70889(19) 0.25593(17) 0.05276(17)
H3 H 0.6330 0.2224 0.0495
C3 C 0.7614(2) 0.24478(19) -0.03164(17)
H4 H 0.7208 0.2041 -0.0929
C4 C 0.8723(2) 0.29216(19) -0.02820(17)
H5 H 0.9085 0.2847 -0.0861
C5 C 0.92838(19) 0.35059(18) 0.06200(17)
C6 C 0.87925(18) 0.36399(17) 0.14788(16)
H6 H 0.9206 0.4046 0.2088
C7 C 0.73541(16) 0.39829(15) 0.31115(14)
C8 C 0.64341(16) 0.39153(14) 0.37878(15)
C9 C 0.66939(16) 0.38155(14) 0.48076(15)
C10 C 0.58745(16) 0.40028(15) 0.55427(14)
H7 H 0.5513 0.4618 0.5414
C11 C 0.49467(17) 0.30691(15) 0.54984(15)
C12 C 0.5153(2) 0.20524(18) 0.5351(2)
H8 H 0.5882 0.1917 0.5231
C13 C 0.4306(2) 0.12299(18) 0.5377(2)
H9 H 0.4467 0.0540 0.5263
C14 C 0.3236(2) 0.13851(17) 0.55636(18)
C15 C 0.30305(19) 0.24002(17) 0.57174(18)
H10 H 0.2305 0.2534 0.5851
C16 C 0.38716(18) 0.32285(16) 0.56791(17)
H11 H 0.3706 0.3917 0.5779
C17 C 0.2330(2) 0.0483(2) 0.5608(3)
H12 H 0.2444 -0.0140 0.5162
H13 H 0.1580 0.0653 0.5391
H14 H 0.2379 0.0350 0.6300
C18 C 0.67166(16) 0.42999(15) 0.65690(15)
C19 C 0.71202(18) 0.54771(15) 0.68337(16)
H15 H 0.7673 0.5639 0.7455
H16 H 0.6469 0.5831 0.6930
H17 H 0.7477 0.5716 0.6285
C20 C 0.61944(17) 0.38350(15) 0.74023(15)
C21 C 0.46771(17) 0.40450(17) 0.84450(15)
C22 C 0.4033(2) 0.47574(19) 0.88334(17)
H18 H 0.4095 0.5428 0.8649
C23 C 0.3301(2) 0.4493(2) 0.9489(2)
H19 H 0.2858 0.4983 0.9747
C24 C 0.3206(2) 0.3528(2) 0.9772(2)
H20 H 0.2707 0.3345 1.0225
C25 C 0.3855(2) 0.2839(2) 0.9379(2)
C26 C 0.45898(19) 0.30716(18) 0.87165(18)
H21 H 0.5023 0.2575 0.8454
C27 C 0.86858(17) 0.38736(15) 0.71182(15)
H22 H 0.8450 0.4070 0.7781
H23 H 0.9269 0.4448 0.7032
C28 C 0.92249(18) 0.29074(16) 0.71337(15)
C29 C 1.03937(19) 0.30231(19) 0.74240(18)
H24 H 1.0842 0.3697 0.7554
C30 C 1.0906(2) 0.2158(2) 0.7525(2)
H25 H 1.1704 0.2240 0.7725
C31 C 1.0261(2) 0.1185(2) 0.7334(2)
H26 H 1.0612 0.0594 0.7410
C32 C 0.9095(2) 0.1061(2) 0.7032(2)
H27 H 0.8654 0.0383 0.6888
C33 C 0.8574(2) 0.19224(17) 0.69390(18)
H28 H 0.7775 0.1838 0.6743
C34 C 0.76984(16) 0.36289(14) 0.53256(14)
C35 C 0.86291(16) 0.32344(14) 0.48573(14)
C36 C 0.97556(17) 0.37252(15) 0.51102(15)
H29 H 0.9959 0.4320 0.5629
C37 C 1.05804(17) 0.33489(15) 0.46075(16)
H30 H 1.1346 0.3691 0.4787
C38 C 1.03112(18) 0.24803(15) 0.38447(16)
C39 C 0.91830(18) 0.19821(15) 0.36065(16)
H31 H 0.8983 0.1381 0.3096
C40 C 0.83515(17) 0.23516(14) 0.41039(15)
H32 H 0.7588 0.2003 0.3932
C41 C 1.1205(2) 0.20846(18) 0.3283(2)
H33 H 1.1254 0.2421 0.2693
H34 H 1.1002 0.1329 0.3066
H35 H 1.1942 0.2246 0.3727
O4 O 0.53278(17) 0.16259(15) 0.2371(2)
C42 C 0.4175(2) 0.1655(2) 0.2530(2)
H36 H 0.3765 0.1964 0.2001
H37 H 0.4156 0.2073 0.3195
C43 C 0.3644(3) 0.0539(2) 0.2481(3)
H38 H 0.3576 0.0390 0.3163
H39 H 0.2881 0.0385 0.2066
C44 C 0.4427(4) -0.0079(3) 0.2013(4)
H40 H 0.4466 -0.0719 0.2305
H41 H 0.4175 -0.0279 0.1277
C45 C 0.5526(3) 0.0595(3) 0.2228(5)
H42 H 0.5978 0.0457 0.2841
H43 H 0.5951 0.0466 0.1660
C46 C 0.8843(3) 0.0120(3) -0.0008(4)
H44 H 0.8703 0.0486 -0.0585
H45 H 0.8126 0.0004 0.0271
C47 C 0.9735(3) 0.0797(2) 0.0781(3)
H46 H 0.9510 0.1487 0.0965
H47 H 0.9823 0.0476 0.1393
C48 C 1.0832(3) 0.0920(2) 0.0379(3)
H48 H 1.1440 0.1324 0.0915
H49 H 1.0763 0.1317 -0.0182
C46A C 1.1157(3) -0.0120(3) 0.0008(4)
H44A H 1.1297 -0.0486 0.0585
H45A H 1.1874 -0.0004 -0.0271
C47A C 1.0265(3) -0.0797(2) -0.0781(3)
H46A H 1.0490 -0.1487 -0.0965
H47A H 1.0177 -0.0476 -0.1393
C48A C 0.9168(3) -0.0920(2) -0.0379(3)
H48A H 0.8560 -0.1324 -0.0915
H49A H 0.9237 -0.1317 0.0182
loop_
_geom_bond_atom_site_label_1
_geom_bond_atom_site_label_2
_geom_bond_site_symmetry_1
_geom_bond_site_symmetry_2
Cl1 C5 1_555 1_555
Cl2 C25 1_555 1_555
O1 C7 1_555 1_555
O2 C8 1_555 1_555
O3 C20 1_555 1_555
N1 H1 1_555 1_555
N2 C18 1_555 1_555
N3 H2 1_555 1_555
C1 N1 1_555 1_555
C2 C1 1_555 1_555
H3 C2 1_555 1_555
C3 C2 1_555 1_555
H4 C3 1_555 1_555
C4 C3 1_555 1_555
H5 C4 1_555 1_555
C5 C4 1_555 1_555
C6 C1 1_555 1_555
H6 C6 1_555 1_555
C7 N1 1_555 1_555
C8 C7 1_555 1_555
C9 C8 1_555 1_555
C10 C9 1_555 1_555
H7 C10 1_555 1_555
C11 C10 1_555 1_555
C12 C11 1_555 1_555
H8 C12 1_555 1_555
C13 C12 1_555 1_555
H9 C13 1_555 1_555
C14 C13 1_555 1_555
C15 C14 1_555 1_555
H10 C15 1_555 1_555
C16 C11 1_555 1_555
H11 C16 1_555 1_555
C17 C14 1_555 1_555
H12 C17 1_555 1_555
H13 C17 1_555 1_555
H14 C17 1_555 1_555
C18 C10 1_555 1_555
C19 C18 1_555 1_555
H15 C19 1_555 1_555
H16 C19 1_555 1_555
H17 C19 1_555 1_555
C20 N3 1_555 1_555
C21 N3 1_555 1_555
C22 C21 1_555 1_555
H18 C22 1_555 1_555
C23 C22 1_555 1_555
H19 C23 1_555 1_555
C24 C23 1_555 1_555
H20 C24 1_555 1_555
C25 C24 1_555 1_555
C26 C21 1_555 1_555
H21 C26 1_555 1_555
C27 N2 1_555 1_555
H22 C27 1_555 1_555
H23 C27 1_555 1_555
C28 C27 1_555 1_555
C29 C28 1_555 1_555
H24 C29 1_555 1_555
C30 C29 1_555 1_555
H25 C30 1_555 1_555
C31 C30 1_555 1_555
H26 C31 1_555 1_555
C32 C31 1_555 1_555
H27 C32 1_555 1_555
C33 C28 1_555 1_555
H28 C33 1_555 1_555
C34 N2 1_555 1_555
C35 C34 1_555 1_555
C36 C35 1_555 1_555
H29 C36 1_555 1_555
C37 C36 1_555 1_555
H30 C37 1_555 1_555
C38 C37 1_555 1_555
C39 C38 1_555 1_555
H31 C39 1_555 1_555
C40 C35 1_555 1_555
H32 C40 1_555 1_555
C41 C38 1_555 1_555
H33 C41 1_555 1_555
H34 C41 1_555 1_555
H35 C41 1_555 1_555
O4 C42 1_555 1_555
C42 H36 1_555 1_555
H37 C42 1_555 1_555
C43 C42 1_555 1_555
H38 C43 1_555 1_555
H39 C43 1_555 1_555
C44 C43 1_555 1_555
H40 C44 1_555 1_555
H41 C44 1_555 1_555
C45 O4 1_555 1_555
H42 C45 1_555 1_555
H43 C45 1_555 1_555
C46 H44 1_555 1_555
H45 C46 1_555 1_555
C47 C46 1_555 1_555
H46 C47 1_555 1_555
H47 C47 1_555 1_555
C48 C47 1_555 1_555
H48 C48 1_555 1_555
H49 C48 1_555 1_555
C46A C48 1_555 1_555
H44A C46A 1_555 1_555
H45A C46A 1_555 1_555
C47A C46A 1_555 1_555
H46A C47A 1_555 1_555
H47A C47A 1_555 1_555
C48A C46 1_555 1_555
H48A C48A 1_555 1_555
H49A C48A 1_555 1_555
C5 C6 1_555 1_555
C9 C34 1_555 1_555
C15 C16 1_555 1_555
C18 C20 1_555 1_555
C25 C26 1_555 1_555
C32 C33 1_555 1_555
C39 C40 1_555 1_555
C44 C45 1_555 1_555
C47A C48A 1_555 1_555

#END
