
#######################################################################
#
#                 Cambridge Crystallographic Data Centre
#                                CCDC 
#
#######################################################################
#
# If this CIF has been generated from an entry in the Cambridge 
# Structural Database, then it will include bibliographic, chemical, 
# crystal, experimental, refinement or atomic coordinate data resulting 
# from the CCDC's data processing and validation procedures.
#
#######################################################################

data_WIHKAC
_chemical_formula_moiety         'C28 H20 B2 N2 S2'
_chemical_name_systematic        
4,9-diphenyl-4,6,7,9-tetrahydrobisthieno[3',2':3,4][1,2]azaborinino[1,6,5-de:5',6',1'-ij]quinoxaline
_symmetry_cell_setting           orthorhombic
_symmetry_space_group_name_H-M   'P n a 21'
_symmetry_Int_Tables_number      33
_space_group_name_Hall           'P 2c -2n'
loop_
_symmetry_equiv_pos_site_id
_symmetry_equiv_pos_as_xyz
1 x,y,z
2 -x,-y,1/2+z
3 1/2+x,1/2-y,z
4 1/2-x,1/2+y,1/2+z
_cell_length_a                   12.195(4)
_cell_length_b                   12.807(5)
_cell_length_c                   30.751(9)
_cell_angle_alpha                90
_cell_angle_beta                 90
_cell_angle_gamma                90
_cell_volume                     4802.73
_exptl_crystal_colour            colorless
_exptl_crystal_description       block
_cell_formula_units_Z            8
loop_
_atom_site_label
_atom_site_type_symbol
_atom_site_fract_x
_atom_site_fract_y
_atom_site_fract_z
B1 B 0.590(2) 0.302(2) 0.6254(8)
B2 B 0.732(2) -0.1321(18) 0.6383(8)
C1 C 0.4977(19) 0.336(2) 0.5937(7)
C2 C 0.4550(18) 0.436(2) 0.5834(8)
H1 H 0.4813 0.4971 0.5958
C3 C 0.3740(19) 0.434(2) 0.5545(8)
H2 H 0.3379 0.4930 0.5443
C4 C 0.449(2) 0.2529(18) 0.5712(9)
C5 C 0.4796(19) 0.145(2) 0.5728(7)
C6 C 0.5673(19) 0.1180(19) 0.6032(7)
C7 C 0.5988(19) 0.0060(19) 0.6050(7)
C8 C 0.5567(18) -0.069(2) 0.5757(7)
C9 C 0.4674(17) -0.0378(18) 0.5452(7)
H3 H 0.4352 -0.0864 0.5267
C10 C 0.4333(19) 0.0658(19) 0.5451(7)
H4 H 0.3777 0.0850 0.5260
C11 C 0.596(2) -0.174(2) 0.5750(7)
C12 C 0.685(2) -0.211(2) 0.6018(8)
C13 C 0.707(2) -0.318(2) 0.5944(7)
H5 H 0.7569 -0.3562 0.6106
C14 C 0.6480(19) -0.359(2) 0.5620(7)
H6 H 0.6570 -0.4266 0.5521
C15 C 0.7125(19) 0.1513(19) 0.6540(8)
H7 H 0.7770 0.1550 0.6356
H8 H 0.7250 0.1970 0.6787
C16 C 0.703(2) 0.0499(19) 0.6693(7)
H9 H 0.6446 0.0481 0.6908
H10 H 0.7705 0.0315 0.6841
C17 C 0.653(2) 0.387(2) 0.6547(8)
C18 C 0.600(2) 0.4552(18) 0.6830(8)
H11 H 0.5234 0.4534 0.6842
C19 C 0.655(2) 0.525(2) 0.7092(8)
H12 H 0.6146 0.5650 0.7288
C20 C 0.767(2) 0.539(2) 0.7077(8)
H13 H 0.8047 0.5863 0.7252
C21 C 0.821(2) 0.473(2) 0.6764(8)
H14 H 0.8961 0.4821 0.6716
C22 C 0.768(2) 0.398(2) 0.6536(8)
H15 H 0.8090 0.3517 0.6367
C23 C 0.8102(11) -0.1708(12) 0.6755(4)
C24 C 0.7852(10) -0.1652(13) 0.7195(5)
H16 H 0.7202 -0.1341 0.7285
C25 C 0.8574(13) -0.2061(13) 0.7500(4)
H17 H 0.8407 -0.2024 0.7795
C26 C 0.9546(12) -0.2526(12) 0.7366(5)
H18 H 1.0029 -0.2800 0.7570
C27 C 0.9796(11) -0.2582(12) 0.6925(6)
H19 H 1.0446 -0.2893 0.6835
C28 C 0.9074(13) -0.2173(12) 0.6620(4)
H20 H 0.9241 -0.2210 0.6325
N1 N 0.6126(15) 0.1949(17) 0.6277(6)
N2 N 0.6800(14) -0.0305(15) 0.6361(5)
S1 S 0.3430(6) 0.3015(7) 0.5375(2)
S2 S 0.5533(7) -0.2724(6) 0.5398(2)
B3 B 0.465(2) 0.628(3) 0.3653(10)
B4 B 0.328(3) 0.192(2) 0.3815(9)
C29 C 0.425(2) 0.706(2) 0.4019(8)
C30 C 0.452(2) 0.818(2) 0.4057(8)
H21 H 0.5034 0.8528 0.3888
C31 C 0.390(2) 0.862(2) 0.4382(7)
H22 H 0.3969 0.9318 0.4465
C32 C 0.3434(19) 0.675(2) 0.4300(8)
C33 C 0.2987(19) 0.573(2) 0.4309(8)
C34 C 0.344(2) 0.492(2) 0.4014(8)
C35 C 0.3074(19) 0.386(2) 0.4050(8)
C36 C 0.224(2) 0.356(2) 0.4355(8)
C37 C 0.1789(19) 0.4351(19) 0.4608(8)
H23 H 0.1230 0.4177 0.4800
C38 C 0.2118(18) 0.5371(19) 0.4589(8)
H24 H 0.1765 0.5856 0.4765
C39 C 0.196(2) 0.251(2) 0.4368(10)
C40 C 0.236(2) 0.169(2) 0.4134(8)
C41 C 0.1895(19) 0.067(2) 0.4243(8)
H25 H 0.2115 0.0030 0.4130
C42 C 0.109(2) 0.082(2) 0.4539(8)
H26 H 0.0657 0.0269 0.4639
C43 C 0.440(2) 0.4459(18) 0.3334(8)
H27 H 0.3783 0.4445 0.3135
H28 H 0.5051 0.4655 0.3171
C44 C 0.455(2) 0.3419(19) 0.3533(8)
H29 H 0.4702 0.2912 0.3306
H30 H 0.5187 0.3439 0.3724
C45 C 0.5529(13) 0.6659(13) 0.3287(5)
C46 C 0.6497(14) 0.7130(13) 0.3422(4)
H31 H 0.6675 0.7151 0.3716
C47 C 0.7202(11) 0.7570(12) 0.3118(6)
H32 H 0.7850 0.7885 0.3208
C48 C 0.6937(13) 0.7539(13) 0.2678(6)
H33 H 0.7408 0.7834 0.2475
C49 C 0.5968(14) 0.7068(14) 0.2543(4)
H34 H 0.5791 0.7047 0.2249
C50 C 0.5264(11) 0.6628(13) 0.2848(5)
H35 H 0.4616 0.6313 0.2758
C51 C 0.391(2) 0.115(2) 0.3512(9)
C52 C 0.510(2) 0.099(2) 0.3521(9)
H36 H 0.5519 0.1394 0.3712
C53 C 0.564(2) 0.025(2) 0.3251(9)
H37 H 0.6403 0.0182 0.3255
C54 C 0.498(2) -0.037(2) 0.2976(9)
H38 H 0.5313 -0.0861 0.2799
C55 C 0.392(2) -0.026(2) 0.2964(9)
H39 H 0.3524 -0.0681 0.2773
C56 C 0.333(2) 0.047(2) 0.3234(9)
H40 H 0.2565 0.0499 0.3223
N3 N 0.4192(16) 0.5239(14) 0.3696(6)
N4 N 0.3597(15) 0.3084(18) 0.3781(6)
S3 S 0.2985(7) 0.7793(7) 0.4620(2)
S4 S 0.0898(7) 0.2061(8) 0.4719(2)
loop_
_geom_bond_atom_site_label_1
_geom_bond_atom_site_label_2
_geom_bond_site_symmetry_1
_geom_bond_site_symmetry_2
B1 C1 1_555 1_555
B2 C12 1_555 1_555
C1 C2 1_555 1_555
C2 H1 1_555 1_555
C3 C2 1_555 1_555
H2 C3 1_555 1_555
C4 C1 1_555 1_555
C5 C4 1_555 1_555
C6 C5 1_555 1_555
C7 C6 1_555 1_555
C8 C7 1_555 1_555
C9 C8 1_555 1_555
H3 C9 1_555 1_555
C10 C5 1_555 1_555
H4 C10 1_555 1_555
C11 C8 1_555 1_555
C12 C11 1_555 1_555
C13 C12 1_555 1_555
H5 C13 1_555 1_555
C14 C13 1_555 1_555
H6 C14 1_555 1_555
C15 H7 1_555 1_555
H8 C15 1_555 1_555
C16 C15 1_555 1_555
H9 C16 1_555 1_555
H10 C16 1_555 1_555
C17 B1 1_555 1_555
C18 C17 1_555 1_555
H11 C18 1_555 1_555
C19 C18 1_555 1_555
H12 C19 1_555 1_555
C20 C19 1_555 1_555
H13 C20 1_555 1_555
C21 C20 1_555 1_555
H14 C21 1_555 1_555
C22 C17 1_555 1_555
H15 C22 1_555 1_555
C23 B2 1_555 1_555
C24 C23 1_555 1_555
H16 C24 1_555 1_555
C25 C24 1_555 1_555
H17 C25 1_555 1_555
C26 C25 1_555 1_555
H18 C26 1_555 1_555
C27 C26 1_555 1_555
H19 C27 1_555 1_555
C28 C23 1_555 1_555
H20 C28 1_555 1_555
N1 B1 1_555 1_555
N2 B2 1_555 1_555
S1 C3 1_555 1_555
S2 C11 1_555 1_555
B3 C29 1_555 1_555
B4 C40 1_555 1_555
C29 C30 1_555 1_555
C30 H21 1_555 1_555
C31 C30 1_555 1_555
H22 C31 1_555 1_555
C32 C29 1_555 1_555
C33 C32 1_555 1_555
C34 C33 1_555 1_555
C35 C34 1_555 1_555
C36 C35 1_555 1_555
C37 C36 1_555 1_555
H23 C37 1_555 1_555
C38 C33 1_555 1_555
H24 C38 1_555 1_555
C39 C36 1_555 1_555
C40 C39 1_555 1_555
C41 C40 1_555 1_555
H25 C41 1_555 1_555
C42 C41 1_555 1_555
H26 C42 1_555 1_555
C43 H27 1_555 1_555
H28 C43 1_555 1_555
C44 C43 1_555 1_555
H29 C44 1_555 1_555
H30 C44 1_555 1_555
C45 B3 1_555 1_555
C46 C45 1_555 1_555
H31 C46 1_555 1_555
C47 C46 1_555 1_555
H32 C47 1_555 1_555
C48 C47 1_555 1_555
H33 C48 1_555 1_555
C49 C48 1_555 1_555
H34 C49 1_555 1_555
C50 C45 1_555 1_555
H35 C50 1_555 1_555
C51 B4 1_555 1_555
C52 C51 1_555 1_555
H36 C52 1_555 1_555
C53 C52 1_555 1_555
H37 C53 1_555 1_555
C54 C53 1_555 1_555
H38 C54 1_555 1_555
C55 C54 1_555 1_555
H39 C55 1_555 1_555
C56 C51 1_555 1_555
H40 C56 1_555 1_555
N3 B3 1_555 1_555
N4 B4 1_555 1_555
S3 C31 1_555 1_555
S4 C39 1_555 1_555
C4 S1 1_555 1_555
C6 N1 1_555 1_555
C7 N2 1_555 1_555
C9 C10 1_555 1_555
C14 S2 1_555 1_555
C15 N1 1_555 1_555
C16 N2 1_555 1_555
C21 C22 1_555 1_555
C27 C28 1_555 1_555
C32 S3 1_555 1_555
C34 N3 1_555 1_555
C35 N4 1_555 1_555
C37 C38 1_555 1_555
C42 S4 1_555 1_555
C43 N3 1_555 1_555
C44 N4 1_555 1_555
C49 C50 1_555 1_555
C55 C56 1_555 1_555

#END
