
#######################################################################
#
#                 Cambridge Crystallographic Data Centre
#                                CCDC 
#
#######################################################################
#
# If this CIF has been generated from an entry in the Cambridge 
# Structural Database, then it will include bibliographic, chemical, 
# crystal, experimental, refinement or atomic coordinate data resulting 
# from the CCDC's data processing and validation procedures.
#
#######################################################################

data_WIHKAC01
_chemical_formula_moiety         'C28 H20 B2 N2 S2'
_chemical_name_systematic        
4,9-diphenyl-4,6,7,9-tetrahydrobisthieno[3',2':3,4][1,2]azaborinino[1,6,5-de:5',6',1'-ij]quinoxaline
_symmetry_cell_setting           orthorhombic
_symmetry_space_group_name_H-M   'P n a 21'
_symmetry_Int_Tables_number      33
_space_group_name_Hall           'P 2c -2n'
loop_
_symmetry_equiv_pos_site_id
_symmetry_equiv_pos_as_xyz
1 x,y,z
2 -x,-y,1/2+z
3 1/2+x,1/2-y,z
4 1/2-x,1/2+y,1/2+z
_cell_length_a                   11.9322(5)
_cell_length_b                   12.5611(4)
_cell_length_c                   30.2148(9)
_cell_angle_alpha                90
_cell_angle_beta                 90
_cell_angle_gamma                90
_cell_volume                     4528.64
_cell_formula_units_Z            8
loop_
_atom_site_label
_atom_site_type_symbol
_atom_site_fract_x
_atom_site_fract_y
_atom_site_fract_z
S1 S 0.34020(5) 0.69488(5) 0.32885(2)
S2 S 0.55144(6) 1.27340(5) 0.32677(2)
N1 N 0.61942(17) 0.80492(14) 0.23849(6)
N2 N 0.67519(15) 1.02773(14) 0.22873(6)
B1 B 0.5926(2) 0.6945(2) 0.24030(9)
B2 B 0.7235(2) 1.1321(2) 0.22757(8)
C1 C 0.6563(2) 0.61009(17) 0.21107(7)
C2 C 0.7737(2) 0.59754(19) 0.21188(8)
H1 H 0.8172 0.6417 0.2308
C3 C 0.8271(2) 0.5223(2) 0.18579(9)
H2 H 0.9061 0.5142 0.1874
C4 C 0.7656(3) 0.45915(19) 0.15746(9)
H3 H 0.8025 0.4096 0.1387
C5 C 0.6507(3) 0.46801(18) 0.15644(8)
H4 H 0.6082 0.4238 0.1372
C6 C 0.5965(2) 0.54171(18) 0.18349(8)
H5 H 0.5170 0.5454 0.1831
C7 C 0.4967(2) 0.66374(18) 0.27080(7)
C8 C 0.4485(2) 0.56098(19) 0.28081(8)
H6 H 0.4726 0.4964 0.2675
C9 C 0.3651(2) 0.5663(2) 0.31126(9)
H7 H 0.3250 0.5061 0.3217
C10 C 0.4463(2) 0.74389(18) 0.29502(8)
C11 C 0.4794(2) 0.85351(18) 0.29344(7)
C12 C 0.4298(2) 0.93174(19) 0.32057(7)
H8 H 0.3695 0.9128 0.3395
C13 C 0.4672(2) 1.03412(19) 0.31990(7)
H9 H 0.4346 1.0848 0.3394
C14 C 0.5533(2) 1.06652(18) 0.29091(7)
C15 C 0.59864(19) 0.99354(17) 0.26086(7)
C16 C 0.56581(19) 0.88320(17) 0.26392(7)
C17 C 0.7174(2) 0.84243(19) 0.21300(8)
H10 H 0.7338 0.7912 0.1890
H11 H 0.7837 0.8456 0.2327
C18 C 0.6968(2) 0.94937(17) 0.19368(8)
H12 H 0.7629 0.9717 0.1762
H13 H 0.6315 0.9460 0.1735
C19 C 0.5975(2) 1.17350(17) 0.29128(7)
C20 C 0.6827(2) 1.20801(18) 0.26367(8)
C21 C 0.7089(2) 1.31800(18) 0.27174(8)
H14 H 0.7641 1.3564 0.2557
C22 C 0.6463(2) 1.36128(19) 0.30481(8)
H15 H 0.6543 1.4327 0.3147
C23 C 0.80728(19) 1.16951(16) 0.19062(7)
C24 C 0.9084(2) 1.21752(19) 0.20339(8)
H16 H 0.9271 1.2215 0.2339
C25 C 0.9820(3) 1.2595(2) 0.17204(9)
H17 H 1.0498 1.2917 0.1816
C26 C 0.9582(2) 1.25500(19) 0.12761(9)
H18 H 1.0084 1.2844 0.1065
C27 C 0.8591(2) 1.20663(17) 0.11419(7)
H19 H 0.8417 1.2025 0.0836
C28 C 0.7857(2) 1.16446(17) 0.14486(7)
H20 H 0.7188 1.1312 0.1348
S3 S 0.41578(6) 0.29353(6) 0.89430(2)
S4 S 0.20258(6) -0.28187(5) 0.904489(19)
N3 N 0.13732(17) 0.19335(15) 0.98665(6)
N4 N 0.07863(16) -0.02768(14) 0.99840(6)
B3 B 0.1665(2) 0.3044(2) 0.98419(9)
B4 B 0.0294(2) -0.13111(19) 1.00046(8)
C29 C 0.1043(2) 0.38961(17) 1.01352(7)
C30 C -0.0124(2) 0.40341(18) 1.01409(8)
H21 H -0.0576 0.3610 0.9952
C31 C -0.0632(2) 0.4772(2) 1.04150(9)
H22 H -0.1424 0.4851 1.0412
C32 C 0.0014(3) 0.53960(19) 1.06944(9)
H23 H -0.0334 0.5890 1.0889
C33 C 0.1155(3) 0.5296(2) 1.06890(9)
H24 H 0.1599 0.5731 1.0877
C34 C 0.1671(2) 0.45658(18) 1.04106(8)
H25 H 0.2466 0.4519 1.0407
C35 C 0.2616(2) 0.33233(19) 0.95262(8)
C36 C 0.3133(2) 0.4320(2) 0.94196(9)
H26 H 0.2916 0.4977 0.9550
C37 C 0.3961(2) 0.4234(2) 0.91147(9)
H27 H 0.4385 0.4820 0.9008
C38 C 0.3096(2) 0.2497(2) 0.92871(9)
C39 C 0.2752(2) 0.13969(19) 0.93175(7)
C40 C 0.3236(2) 0.06008(19) 0.90520(8)
H28 H 0.3838 0.0780 0.8860
C41 C 0.2858(2) -0.04222(18) 0.90644(8)
H29 H 0.3177 -0.0939 0.8872
C42 C 0.1995(2) -0.07229(18) 0.93606(7)
C43 C 0.15536(19) 0.00483(16) 0.96568(7)
C44 C 0.18867(19) 0.11294(17) 0.96179(7)
C45 C 0.0394(2) 0.15904(19) 1.01284(8)
H30 H -0.0275 0.1560 0.9935
H31 H 0.0248 0.2116 1.0365
C46 C 0.0592(2) 0.05273(18) 1.03285(8)
H32 H 0.1252 0.0562 1.0527
H33 H -0.0066 0.0320 1.0508
C47 C 0.1552(2) -0.17811(18) 0.93745(7)
C48 C 0.0697(2) -0.21046(18) 0.96544(7)
C49 C 0.0443(2) -0.32095(19) 0.95942(8)
H34 H -0.0119 -0.3572 0.9758
C50 C 0.1079(2) -0.36850(19) 0.92825(8)
H35 H 0.1013 -0.4414 0.9203
C51 C -0.0544(2) -0.16775(16) 1.03792(7)
C52 C -0.1541(2) -0.2194(2) 1.02516(8)
H36 H -0.1728 -0.2237 0.9946
C53 C -0.2250(2) -0.2638(2) 1.05601(10)
H37 H -0.2924 -0.2971 1.0465
C54 C -0.1994(2) -0.2603(2) 1.10055(10)
H38 H -0.2478 -0.2929 1.1215
C55 C -0.1026(2) -0.20912(18) 1.11464(8)
H39 H -0.0849 -0.2057 1.1453
C56 C -0.0316(2) -0.16277(18) 1.08336(8)
H40 H 0.0339 -0.1269 1.0932
loop_
_geom_bond_atom_site_label_1
_geom_bond_atom_site_label_2
_geom_bond_site_symmetry_1
_geom_bond_site_symmetry_2
S1 C9 1_555 1_555
S2 C19 1_555 1_555
N1 B1 1_555 1_555
N2 B2 1_555 1_555
B1 C1 1_555 1_555
B2 C20 1_555 1_555
C1 C2 1_555 1_555
C2 H1 1_555 1_555
C3 C2 1_555 1_555
H2 C3 1_555 1_555
C4 C3 1_555 1_555
H3 C4 1_555 1_555
C5 C4 1_555 1_555
H4 C5 1_555 1_555
C6 C1 1_555 1_555
H5 C6 1_555 1_555
C7 B1 1_555 1_555
C8 C7 1_555 1_555
H6 C8 1_555 1_555
C9 C8 1_555 1_555
H7 C9 1_555 1_555
C10 S1 1_555 1_555
C11 C10 1_555 1_555
C12 C11 1_555 1_555
H8 C12 1_555 1_555
C13 C12 1_555 1_555
H9 C13 1_555 1_555
C14 C13 1_555 1_555
C15 N2 1_555 1_555
C16 N1 1_555 1_555
C17 N1 1_555 1_555
H10 C17 1_555 1_555
H11 C17 1_555 1_555
C18 N2 1_555 1_555
H12 C18 1_555 1_555
H13 C18 1_555 1_555
C19 C14 1_555 1_555
C20 C19 1_555 1_555
C21 C20 1_555 1_555
H14 C21 1_555 1_555
C22 S2 1_555 1_555
H15 C22 1_555 1_555
C23 B2 1_555 1_555
C24 C23 1_555 1_555
H16 C24 1_555 1_555
C25 C24 1_555 1_555
H17 C25 1_555 1_555
C26 C25 1_555 1_555
H18 C26 1_555 1_555
C27 C26 1_555 1_555
H19 C27 1_555 1_555
C28 C23 1_555 1_555
H20 C28 1_555 1_555
S3 C37 1_555 1_555
S4 C47 1_555 1_555
N3 B3 1_555 1_555
N4 B4 1_555 1_555
B3 C29 1_555 1_555
B4 C48 1_555 1_555
C29 C30 1_555 1_555
C30 H21 1_555 1_555
C31 C30 1_555 1_555
H22 C31 1_555 1_555
C32 C31 1_555 1_555
H23 C32 1_555 1_555
C33 C32 1_555 1_555
H24 C33 1_555 1_555
C34 C29 1_555 1_555
H25 C34 1_555 1_555
C35 B3 1_555 1_555
C36 C35 1_555 1_555
H26 C36 1_555 1_555
C37 C36 1_555 1_555
H27 C37 1_555 1_555
C38 S3 1_555 1_555
C39 C38 1_555 1_555
C40 C39 1_555 1_555
H28 C40 1_555 1_555
C41 C40 1_555 1_555
H29 C41 1_555 1_555
C42 C41 1_555 1_555
C43 N4 1_555 1_555
C44 N3 1_555 1_555
C45 N3 1_555 1_555
H30 C45 1_555 1_555
H31 C45 1_555 1_555
C46 N4 1_555 1_555
H32 C46 1_555 1_555
H33 C46 1_555 1_555
C47 C42 1_555 1_555
C48 C47 1_555 1_555
C49 C48 1_555 1_555
H34 C49 1_555 1_555
C50 S4 1_555 1_555
H35 C50 1_555 1_555
C51 B4 1_555 1_555
C52 C51 1_555 1_555
H36 C52 1_555 1_555
C53 C52 1_555 1_555
H37 C53 1_555 1_555
C54 C53 1_555 1_555
H38 C54 1_555 1_555
C55 C54 1_555 1_555
H39 C55 1_555 1_555
C56 C51 1_555 1_555
H40 C56 1_555 1_555
C5 C6 1_555 1_555
C7 C10 1_555 1_555
C11 C16 1_555 1_555
C14 C15 1_555 1_555
C15 C16 1_555 1_555
C17 C18 1_555 1_555
C21 C22 1_555 1_555
C27 C28 1_555 1_555
C33 C34 1_555 1_555
C35 C38 1_555 1_555
C39 C44 1_555 1_555
C42 C43 1_555 1_555
C43 C44 1_555 1_555
C45 C46 1_555 1_555
C49 C50 1_555 1_555
C55 C56 1_555 1_555

#END
