
#######################################################################
#
#                 Cambridge Crystallographic Data Centre
#                                CCDC 
#
#######################################################################
#
# If this CIF has been generated from an entry in the Cambridge 
# Structural Database, then it will include bibliographic, chemical, 
# crystal, experimental, refinement or atomic coordinate data resulting 
# from the CCDC's data processing and validation procedures.
#
#######################################################################

data_WIHKEG
_chemical_name_common            
difluoro-(4-(1-oxido-3-(4-iodophenyl)-3-(oxo)prop-1-en-1-yl)benzonitrile)-boron
_chemical_formula_moiety         'C16 H9 B1 F2 I1 N1 O2'
_chemical_name_systematic        
2,2-difluoro-4-(4-cyanophenyl)-6-(4-iodophenyl)-2H-1,3,2-dioxaborinin-1-ium-2-ide
_symmetry_cell_setting           triclinic
_symmetry_space_group_name_H-M   'P -1'
_symmetry_Int_Tables_number      2
_space_group_name_Hall           '-P 1'
loop_
_symmetry_equiv_pos_site_id
_symmetry_equiv_pos_as_xyz
1 x,y,z
2 -x,-y,-z
_cell_length_a                   8.1072(16)
_cell_length_b                   10.316(2)
_cell_length_c                   18.661(4)
_cell_angle_alpha                85.33(3)
_cell_angle_beta                 85.74(3)
_cell_angle_gamma                82.69(3)
_cell_volume                     1539.64
_exptl_crystal_colour            yellow
_exptl_crystal_description       plate
_cell_formula_units_Z            4
loop_
_atom_site_label
_atom_site_type_symbol
_atom_site_fract_x
_atom_site_fract_y
_atom_site_fract_z
I1 I -0.18295(6) 1.02260(5) 0.13620(3)
F1 F 0.2707(10) 0.1980(5) 0.1437(4)
F2 F 0.5160(9) 0.2557(7) 0.1680(3)
O1 O 0.3071(7) 0.4137(5) 0.1298(2)
O2 O 0.4534(7) 0.2530(5) 0.0504(2)
N1 N 0.6140(8) 0.0982(6) -0.3336(4)
C1 C -0.0389(8) 0.8449(6) 0.1153(4)
C2 C 0.0237(9) 0.7616(7) 0.1725(4)
H1 H 0.002458 0.784725 0.219693
C3 C 0.1177(9) 0.6443(6) 0.1576(3)
H2 H 0.158941 0.588172 0.195498
C4 C 0.1518(8) 0.6083(6) 0.0875(3)
C5 C 0.0864(9) 0.6925(6) 0.0311(3)
H3 H 0.107736 0.669316 -0.016099
C6 C -0.0100(9) 0.8103(7) 0.0446(3)
H4 H -0.054596 0.865072 0.006955
C7 C 0.2508(8) 0.4834(6) 0.0735(3)
C8 C 0.2881(8) 0.4380(6) 0.0055(3)
H5 H 0.241657 0.485141 -0.034240
C9 C 0.3921(8) 0.3252(7) -0.0036(3)
C10 C 0.4473(8) 0.2750(6) -0.0753(3)
C11 C 0.5556(8) 0.1602(6) -0.0804(4)
H6 H 0.595612 0.114592 -0.038937
C12 C 0.6039(8) 0.1135(6) -0.1468(4)
H7 H 0.677932 0.037303 -0.150440
C13 C 0.5409(8) 0.1814(6) -0.2084(4)
C14 C 0.4335(10) 0.2956(7) -0.2034(4)
H8 H 0.392464 0.340771 -0.244864
C15 C 0.3874(9) 0.3426(7) -0.1373(4)
H9 H 0.315692 0.420092 -0.134000
C16 C 0.5881(8) 0.1234(7) -0.2799(3)
B1 B 0.3907(14) 0.2787(10) 0.1251(4)
I2 I 0.29780(6) 0.55138(4) 0.37356(3)
F3 F 0.7841(6) -0.2919(4) 0.3652(3)
F4 F 1.0134(6) -0.1861(5) 0.3432(2)
O3 O 0.7640(6) -0.0712(4) 0.3818(2)
O4 O 0.9203(6) -0.2371(5) 0.4612(2)
N2 N 1.1269(10) -0.3899(6) 0.8441(4)
C17 C 0.4359(8) 0.3676(6) 0.3937(4)
C18 C 0.4729(8) 0.3266(6) 0.4637(3)
H10 H 0.434107 0.378981 0.501107
C19 C 0.5679(8) 0.2074(6) 0.4777(3)
H11 H 0.593853 0.180209 0.524700
C20 C 0.6256(8) 0.1270(6) 0.4216(3)
C21 C 0.5828(8) 0.1691(6) 0.3514(3)
H12 H 0.617270 0.116359 0.313602
C22 C 0.4888(8) 0.2899(7) 0.3384(3)
H13 H 0.461563 0.318286 0.291647
C23 C 0.7283(8) 0.0021(6) 0.4355(3)
C24 C 0.7882(8) -0.0404(6) 0.5022(3)
H14 H 0.763374 0.012605 0.540506
C25 C 0.8839(7) -0.1599(6) 0.5127(3)
C26 C 0.9464(7) -0.2114(6) 0.5830(3)
C27 C 0.9145(9) -0.1355(7) 0.6423(3)
H15 H 0.859584 -0.050867 0.636541
C28 C 0.9636(9) -0.1847(7) 0.7091(4)
H16 H 0.938081 -0.134481 0.748496
C29 C 1.0503(9) -0.3079(6) 0.7179(4)
C30 C 1.0914(9) -0.3835(6) 0.6585(4)
H17 H 1.153152 -0.465717 0.663823
C31 C 1.0385(8) -0.3339(6) 0.5916(4)
H18 H 1.065036 -0.383488 0.551992
C32 C 1.1110(11) -0.3616(6) 0.7896(3)
B2 B 0.8700(11) -0.1993(8) 0.3865(4)
loop_
_geom_bond_atom_site_label_1
_geom_bond_atom_site_label_2
_geom_bond_site_symmetry_1
_geom_bond_site_symmetry_2
I1 C1 1_555 1_555
F1 B1 1_555 1_555
F2 B1 1_555 1_555
O1 C7 1_555 1_555
O2 C9 1_555 1_555
N1 C16 1_555 1_555
C1 C2 1_555 1_555
C2 H1 1_555 1_555
C3 C2 1_555 1_555
H2 C3 1_555 1_555
C4 C3 1_555 1_555
C5 C4 1_555 1_555
H3 C5 1_555 1_555
C6 C1 1_555 1_555
H4 C6 1_555 1_555
C7 C4 1_555 1_555
C8 C7 1_555 1_555
H5 C8 1_555 1_555
C9 C8 1_555 1_555
C10 C9 1_555 1_555
C11 C10 1_555 1_555
H6 C11 1_555 1_555
C12 C11 1_555 1_555
H7 C12 1_555 1_555
C13 C12 1_555 1_555
C14 C13 1_555 1_555
H8 C14 1_555 1_555
C15 C10 1_555 1_555
H9 C15 1_555 1_555
C16 C13 1_555 1_555
B1 O1 1_555 1_555
I2 C17 1_555 1_555
F3 B2 1_555 1_555
F4 B2 1_555 1_555
O3 C23 1_555 1_555
O4 C25 1_555 1_555
N2 C32 1_555 1_555
C17 C18 1_555 1_555
C18 H10 1_555 1_555
C19 C18 1_555 1_555
H11 C19 1_555 1_555
C20 C19 1_555 1_555
C21 C20 1_555 1_555
H12 C21 1_555 1_555
C22 C17 1_555 1_555
H13 C22 1_555 1_555
C23 C20 1_555 1_555
C24 C23 1_555 1_555
H14 C24 1_555 1_555
C25 C24 1_555 1_555
C26 C25 1_555 1_555
C27 C26 1_555 1_555
H15 C27 1_555 1_555
C28 C27 1_555 1_555
H16 C28 1_555 1_555
C29 C28 1_555 1_555
C30 C29 1_555 1_555
H17 C30 1_555 1_555
C31 C26 1_555 1_555
H18 C31 1_555 1_555
C32 C29 1_555 1_555
B2 O3 1_555 1_555
O2 B1 1_555 1_555
C5 C6 1_555 1_555
C14 C15 1_555 1_555
O4 B2 1_555 1_555
C21 C22 1_555 1_555
C30 C31 1_555 1_555

#END
