
#######################################################################
#
#                 Cambridge Crystallographic Data Centre
#                                CCDC 
#
#######################################################################
#
# If this CIF has been generated from an entry in the Cambridge 
# Structural Database, then it will include bibliographic, chemical, 
# crystal, experimental, refinement or atomic coordinate data resulting 
# from the CCDC's data processing and validation procedures.
#
#######################################################################

data_WIHNIM
_chemical_formula_moiety         'C19 H29 F3 O2'
_chemical_name_systematic        
Dicyclohexyl(5-(trifluoromethyl)-3,4-dihydro-2H-pyran-6-yl)methanol
_symmetry_cell_setting           triclinic
_symmetry_space_group_name_H-M   'P -1'
_symmetry_Int_Tables_number      2
_space_group_name_Hall           '-P 1'
loop_
_symmetry_equiv_pos_site_id
_symmetry_equiv_pos_as_xyz
1 x,y,z
2 -x,-y,-z
_cell_length_a                   9.1909(6)
_cell_length_b                   10.2248(7)
_cell_length_c                   11.7862(6)
_cell_angle_alpha                109.715(6)
_cell_angle_beta                 94.791(5)
_cell_angle_gamma                115.582(7)
_cell_volume                     905.561
_exptl_crystal_colour            'light yellow'
_exptl_crystal_description       block
_cell_formula_units_Z            2
loop_
_atom_site_label
_atom_site_type_symbol
_atom_site_fract_x
_atom_site_fract_y
_atom_site_fract_z
O1 O 0.39572(19) 0.55291(15) 0.07447(12)
O2 O 0.54919(17) 0.92003(14) 0.34395(12)
F1 F 0.37077(19) 0.70249(17) -0.07137(12)
F2 F 0.15841(15) 0.61251(16) 0.00038(12)
F3 F 0.2235(2) 0.8182(2) -0.03584(14)
C1 C 0.7580(2) 0.8056(2) 0.16032(18)
H1 H 0.6941 0.7595 0.0740
H2 H 0.7729 0.9120 0.2009
C2 C 0.9292(3) 0.8157(3) 0.1640(2)
H3 H 0.9139 0.7108 0.1154
H4 H 0.9904 0.8858 0.1260
C3 C 1.0306(3) 0.8778(3) 0.2970(2)
H5 H 1.0606 0.9886 0.3420
H6 H 1.1334 0.8726 0.2952
C4 C 0.9330(3) 0.7816(3) 0.3653(2)
H7 H 0.9980 0.8293 0.4516
H8 H 0.9156 0.6740 0.3266
C5 C 0.7634(2) 0.7752(2) 0.36235(18)
H9 H 0.7802 0.8819 0.4060
H10 H 0.7030 0.7109 0.4046
C6 C 0.6606(2) 0.70320(19) 0.22658(16)
H11 H 0.6574 0.6008 0.1860
C7 C 0.4727(2) 0.66369(19) 0.20195(15)
C8 C 0.3781(2) 0.58539(19) 0.28491(16)
H12 H 0.4353 0.6609 0.3726
C9 C 0.3807(3) 0.4314(2) 0.2677(2)
H13 H 0.4959 0.4541 0.2887
H14 H 0.3291 0.3561 0.1806
C10 C 0.2872(3) 0.3566(3) 0.3502(2)
H15 H 0.2877 0.2575 0.3348
H16 H 0.3447 0.4281 0.4375
C11 C 0.1072(3) 0.3240(3) 0.3242(3)
H17 H 0.0462 0.2444 0.2393
H18 H 0.0532 0.2823 0.3809
C12 C 0.1020(3) 0.4752(3) 0.3409(3)
H19 H 0.1517 0.5502 0.4281
H20 H -0.0137 0.4507 0.3187
C13 C 0.1959(2) 0.5519(2) 0.2600(2)
H21 H 0.1951 0.6512 0.2767
H22 H 0.1383 0.4817 0.1724
C14 C 0.4642(2) 0.81627(19) 0.22198(15)
C15 C 0.3985(2) 0.8573(2) 0.14253(18)
C16 C 0.4317(3) 1.0270(2) 0.1804(2)
H23 H 0.4527 1.0573 0.1113
H24 H 0.3336 1.0333 0.1994
C17 C 0.5785(3) 1.1389(3) 0.2919(3)
H25 H 0.6809 1.1520 0.2682
H26 H 0.5848 1.2424 0.3253
C18 C 0.5607(4) 1.0742(3) 0.3882(2)
H27 H 0.6564 1.1475 0.4609
H28 H 0.4609 1.0665 0.4141
C19 C 0.2907(3) 0.7468(3) 0.0115(2)
H29 H 0.296(7) 0.509(6) 0.058(5)
H30? H 0.463(6) 0.535(5) 0.040(4)
loop_
_geom_bond_atom_site_label_1
_geom_bond_atom_site_label_2
_geom_bond_site_symmetry_1
_geom_bond_site_symmetry_2
O1 C7 1_555 1_555
O2 C14 1_555 1_555
F1 C19 1_555 1_555
F2 C19 1_555 1_555
F3 C19 1_555 1_555
C1 H1 1_555 1_555
H2 C1 1_555 1_555
C2 C1 1_555 1_555
H3 C2 1_555 1_555
H4 C2 1_555 1_555
C3 C2 1_555 1_555
H5 C3 1_555 1_555
H6 C3 1_555 1_555
C4 C3 1_555 1_555
H7 C4 1_555 1_555
H8 C4 1_555 1_555
C5 C4 1_555 1_555
H9 C5 1_555 1_555
H10 C5 1_555 1_555
C6 C1 1_555 1_555
H11 C6 1_555 1_555
C7 C6 1_555 1_555
C8 C7 1_555 1_555
H12 C8 1_555 1_555
C9 C8 1_555 1_555
H13 C9 1_555 1_555
H14 C9 1_555 1_555
C10 C9 1_555 1_555
H15 C10 1_555 1_555
H16 C10 1_555 1_555
C11 C10 1_555 1_555
H17 C11 1_555 1_555
H18 C11 1_555 1_555
C12 C11 1_555 1_555
H19 C12 1_555 1_555
H20 C12 1_555 1_555
C13 C8 1_555 1_555
H21 C13 1_555 1_555
H22 C13 1_555 1_555
C14 C7 1_555 1_555
C15 C14 1_555 1_555
C16 C15 1_555 1_555
H23 C16 1_555 1_555
H24 C16 1_555 1_555
C17 C16 1_555 1_555
H25 C17 1_555 1_555
H26 C17 1_555 1_555
C18 O2 1_555 1_555
H27 C18 1_555 1_555
H28 C18 1_555 1_555
C19 C15 1_555 1_555
H29 O1 1_555 1_555
C5 C6 1_555 1_555
C12 C13 1_555 1_555
C17 C18 1_555 1_555

#END
