
#######################################################################
#
#                 Cambridge Crystallographic Data Centre
#                                CCDC 
#
#######################################################################
#
# If this CIF has been generated from an entry in the Cambridge 
# Structural Database, then it will include bibliographic, chemical, 
# crystal, experimental, refinement or atomic coordinate data resulting 
# from the CCDC's data processing and validation procedures.
#
#######################################################################

data_WIHPEL
_chemical_formula_moiety         'C48 H54 N2 O4 Si2'
_chemical_name_systematic        
2,7-bis(4-{[tris(propan-2-yl)silyl]ethynyl}phenyl)benzo[lmn][3,8]phenanthroline-1,3,6,8(2H,7H)-tetrone
_symmetry_cell_setting           triclinic
_symmetry_space_group_name_H-M   'P -1'
_symmetry_Int_Tables_number      2
_space_group_name_Hall           '-P 1'
loop_
_symmetry_equiv_pos_site_id
_symmetry_equiv_pos_as_xyz
1 x,y,z
2 -x,-y,-z
_cell_length_a                   11.5823(6)
_cell_length_b                   12.0812(6)
_cell_length_c                   16.2660(9)
_cell_angle_alpha                69.920(4)
_cell_angle_beta                 88.568(4)
_cell_angle_gamma                89.946(3)
_cell_volume                     2136.98
_exptl_crystal_colour            colorless
_exptl_crystal_description       plate
_cell_formula_units_Z            2
_exptl_crystal_recrystallization_method 
'Slow diffusion of methanol into a solution of the compound in chloroform.'
loop_
_atom_site_label
_atom_site_type_symbol
_atom_site_fract_x
_atom_site_fract_y
_atom_site_fract_z
Si1 Si 0.35313(12) 0.88888(12) 0.73018(10)
O1 O -0.1592(3) 0.6227(3) 0.4321(2)
O2 O -0.3049(3) 0.5073(3) 0.7112(2)
N1 N -0.2356(3) 0.5740(4) 0.5704(3)
C1 C -0.3218(4) 0.5234(5) 0.6356(3)
C2 C -0.5660(4) 0.5054(4) 0.3959(3)
C3 C -0.5540(4) 0.4876(4) 0.4849(3)
C4 C -0.3535(4) 0.5558(4) 0.4522(3)
C5 C -0.2420(4) 0.5866(4) 0.4822(3)
C6 C -0.3680(4) 0.5725(4) 0.3659(3)
H1 H -0.305582 0.601344 0.325089
C7 C -0.4753(4) 0.5471(5) 0.3370(3)
H2 H -0.484993 0.558828 0.276802
C8 C -0.1350(4) 0.6212(4) 0.5985(3)
C9 C -0.0277(4) 0.5703(5) 0.5999(3)
H3 H -0.018377 0.502727 0.583200
C10 C 0.0663(4) 0.6200(5) 0.6265(3)
H4 H 0.140711 0.586508 0.627385
C11 C 0.0526(4) 0.7179(5) 0.6515(3)
C12 C -0.0568(5) 0.7674(5) 0.6494(4)
H5 H -0.066886 0.834697 0.666324
C13 C -0.1501(4) 0.7189(5) 0.6229(4)
H6 H -0.224442 0.752634 0.621350
C14 C 0.1478(5) 0.7726(5) 0.6788(4)
C15 C 0.2240(5) 0.8225(5) 0.7011(4)
C16 C 0.3625(5) 1.0515(5) 0.6610(4)
H7 H 0.321777 1.094493 0.695766
C17 C 0.2995(5) 1.0829(6) 0.5745(4)
H8 H 0.335228 1.041508 0.538201
H9 H 0.304704 1.168158 0.543474
H10 H 0.218135 1.059233 0.586388
C18 C 0.4865(5) 1.0991(5) 0.6460(4)
H11 H 0.522382 1.084913 0.702635
H12 H 0.485830 1.184002 0.613245
H13 H 0.530773 1.059005 0.612574
C19 C 0.3387(5) 0.8751(5) 0.8491(4)
H14 H 0.296645 0.946967 0.850126
C20 C 0.4560(5) 0.8790(5) 0.8894(4)
H15 H 0.495531 0.803851 0.899577
H16 H 0.444454 0.892307 0.945114
H17 H 0.502997 0.943155 0.849198
C21 C 0.2660(6) 0.7688(7) 0.9073(4)
H18 H 0.188655 0.772465 0.883452
H19 H 0.259726 0.770993 0.966932
H20 H 0.303395 0.695513 0.908498
C22 C 0.4774(4) 0.8020(5) 0.7062(4)
H21 H 0.550976 0.837407 0.717053
C23 C 0.4803(5) 0.8073(6) 0.6111(4)
H22 H 0.407229 0.776695 0.598181
H23 H 0.544252 0.759468 0.601763
H24 H 0.491233 0.889217 0.572378
C24 C 0.4709(6) 0.6732(5) 0.7685(4)
H25 H 0.539009 0.630745 0.758601
H26 H 0.400965 0.635658 0.757266
H27 H 0.468648 0.671143 0.829263
Si1A Si -1.35313(12) 0.11112(12) 0.26982(10)
O1A O -0.8408(3) 0.3773(3) 0.5679(2)
O2A O -0.6951(3) 0.4927(3) 0.2888(2)
N1A N -0.7644(3) 0.4260(4) 0.4296(3)
C1A C -0.6782(4) 0.4766(5) 0.3644(3)
C2A C -0.4340(4) 0.4946(4) 0.6041(3)
C3A C -0.4460(4) 0.5124(4) 0.5151(3)
C4A C -0.6465(4) 0.4442(4) 0.5478(3)
C5A C -0.7580(4) 0.4134(4) 0.5178(3)
C6A C -0.6320(4) 0.4275(4) 0.6341(3)
H1A H -0.694418 0.398656 0.674911
C7A C -0.5247(4) 0.4529(5) 0.6630(3)
H2A H -0.515007 0.441172 0.723198
C8A C -0.8650(4) 0.3788(4) 0.4015(3)
C9A C -0.9723(4) 0.4297(5) 0.4001(3)
H3A H -0.981623 0.497273 0.416800
C10A C -1.0663(4) 0.3800(5) 0.3735(3)
H4A H -1.140711 0.413492 0.372615
C11A C -1.0526(4) 0.2821(5) 0.3485(3)
C12A C -0.9432(5) 0.2326(5) 0.3506(4)
H5A H -0.933114 0.165303 0.333676
C13A C -0.8499(4) 0.2811(5) 0.3771(4)
H6A H -0.775558 0.247366 0.378650
C14A C -1.1478(5) 0.2274(5) 0.3212(4)
C15A C -1.2240(5) 0.1775(5) 0.2989(4)
C16A C -1.3625(5) -0.0515(5) 0.3390(4)
H7A H -1.321777 -0.094493 0.304234
C17A C -1.2995(5) -0.0829(6) 0.4255(4)
H8A H -1.335228 -0.041508 0.461799
H9A H -1.304704 -0.168158 0.456526
H10A H -1.218135 -0.059233 0.413612
C18A C -1.4865(5) -0.0991(5) 0.3540(4)
H11A H -1.522382 -0.084913 0.297365
H12A H -1.485830 -0.184002 0.386755
H13A H -1.530773 -0.059005 0.387426
C19A C -1.3387(5) 0.1249(5) 0.1509(4)
H14A H -1.296645 0.053033 0.149874
C20A C -1.4560(5) 0.1210(5) 0.1106(4)
H15A H -1.495531 0.196149 0.100423
H16A H -1.444454 0.107693 0.054886
H17A H -1.502997 0.056845 0.150802
C21A C -1.2660(6) 0.2312(7) 0.0927(4)
H18A H -1.188655 0.227535 0.116548
H19A H -1.259726 0.229007 0.033068
H20A H -1.303395 0.304487 0.091502
C22A C -1.4774(4) 0.1980(5) 0.2938(4)
H21A H -1.550976 0.162593 0.282947
C23A C -1.4803(5) 0.1927(6) 0.3889(4)
H22A H -1.407229 0.223305 0.401819
H23A H -1.544252 0.240532 0.398237
H24A H -1.491233 0.110783 0.427622
C24A C -1.4709(6) 0.3268(5) 0.2315(4)
H25A H -1.539009 0.369255 0.241399
H26A H -1.400965 0.364342 0.242734
H27A H -1.468648 0.328857 0.170737
Si2 Si 0.85962(12) 0.10327(12) 0.75909(10)
O3 O 0.3410(3) 0.3978(3) 1.0662(2)
O4 O 0.1954(3) 0.4368(4) 0.8007(2)
N2 N 0.2645(3) 0.4050(4) 0.9372(3)
C25 C 0.2592(4) 0.4194(4) 1.0184(3)
C26 C -0.1461(4) 0.5400(4) 0.9551(3)
C27 C -0.0548(4) 0.5167(4) 1.0138(3)
C28 C 0.0663(4) 0.4763(4) 0.9023(3)
C29 C 0.1789(4) 0.4399(4) 0.8730(3)
C30 C -0.0258(4) 0.4990(5) 0.8471(4)
H28 H -0.016743 0.492760 0.790679
C31 C -0.1334(4) 0.5315(4) 0.8739(3)
H29 H -0.196661 0.547364 0.835602
C32 C 0.3644(4) 0.3499(4) 0.9145(3)
C33 C 0.3493(4) 0.2457(5) 0.8968(4)
H30 H 0.274545 0.211329 0.902118
C34 C 0.4424(5) 0.1923(5) 0.8718(4)
H31 H 0.431149 0.122581 0.858316
C35 C 0.5528(4) 0.2401(5) 0.8662(3)
C36 C 0.5684(4) 0.3411(5) 0.8878(3)
H32 H 0.644020 0.372384 0.885939
C37 C 0.4748(4) 0.3969(5) 0.9120(3)
H33 H 0.486169 0.465764 0.926504
C38 C 0.6493(4) 0.1870(5) 0.8371(4)
C39 C 0.7304(5) 0.1457(5) 0.8096(4)
C40 C 0.9837(5) 0.1904(5) 0.7798(4)
H34 H 0.977407 0.273092 0.738153
C41 C 0.9798(5) 0.1952(6) 0.8731(5)
H35 H 0.910253 0.237000 0.881208
H36 H 1.048402 0.236891 0.881747
H37 H 0.978133 0.114877 0.915665
C42 C 1.1016(5) 0.1428(7) 0.7614(5)
H38 H 1.110038 0.061172 0.800717
H39 H 1.163703 0.191413 0.771288
H40 H 1.105897 0.145458 0.700487
C43 C 0.8776(5) -0.0616(5) 0.8090(4)
H41 H 0.945760 -0.082517 0.778453
C44 C 0.9027(7) -0.1051(6) 0.9057(4)
H42 H 0.977240 -0.073305 0.914700
H43 H 0.905398 -0.191444 0.927630
H44 H 0.841673 -0.078883 0.937459
C45 C 0.7731(5) -0.1274(5) 0.7915(5)
H45 H 0.705175 -0.113389 0.823567
H46 H 0.789149 -0.212008 0.811068
H47 H 0.758326 -0.098766 0.728612
C46 C 0.8300(5) 0.1425(5) 0.6391(4)
H48 H 0.766238 0.089185 0.634837
C47 C 0.9323(6) 0.1214(6) 0.5852(4)
H49 H 0.991963 0.181539 0.578635
H50 H 0.906331 0.125922 0.527280
H51 H 0.964295 0.043131 0.615206
C48 C 0.7863(6) 0.2696(6) 0.5971(4)
H52 H 0.720880 0.282494 0.632060
H53 H 0.761594 0.281762 0.537506
H54 H 0.848654 0.325280 0.595202
Si2A Si -0.85962(12) 0.89673(12) 1.24091(10)
O3A O -0.3410(3) 0.6022(3) 0.9338(2)
O4A O -0.1954(3) 0.5632(4) 1.1993(2)
N2A N -0.2645(3) 0.5950(4) 1.0628(3)
C25A C -0.2592(4) 0.5806(4) 0.9816(3)
C26A C 0.1461(4) 0.4600(4) 1.0449(3)
C27A C 0.0548(4) 0.4833(4) 0.9862(3)
C28A C -0.0663(4) 0.5237(4) 1.0977(3)
C29A C -0.1789(4) 0.5601(4) 1.1270(3)
C30A C 0.0258(4) 0.5010(5) 1.1529(4)
H28A H 0.016743 0.507240 1.209321
C31A C 0.1334(4) 0.4685(4) 1.1261(3)
H29A H 0.196661 0.452636 1.164398
C32A C -0.3644(4) 0.6501(4) 1.0855(3)
C33A C -0.3493(4) 0.7543(5) 1.1032(4)
H30A H -0.274545 0.788671 1.097882
C34A C -0.4424(5) 0.8077(5) 1.1282(4)
H31A H -0.431149 0.877419 1.141684
C35A C -0.5528(4) 0.7599(5) 1.1338(3)
C36A C -0.5684(4) 0.6589(5) 1.1122(3)
H32A H -0.644020 0.627616 1.114061
C37A C -0.4748(4) 0.6031(5) 1.0880(3)
H33A H -0.486169 0.534236 1.073496
C38A C -0.6493(4) 0.8130(5) 1.1629(4)
C39A C -0.7304(5) 0.8543(5) 1.1904(4)
C40A C -0.9837(5) 0.8096(5) 1.2202(4)
H34A H -0.977407 0.726908 1.261847
C41A C -0.9798(5) 0.8048(6) 1.1269(5)
H35A H -0.910253 0.763000 1.118792
H36A H -1.048402 0.763109 1.118253
H37A H -0.978133 0.885123 1.084335
C42A C -1.1016(5) 0.8572(7) 1.2386(5)
H38A H -1.110038 0.938828 1.199283
H39A H -1.163703 0.808587 1.228712
H40A H -1.105897 0.854542 1.299513
C43A C -0.8776(5) 1.0616(5) 1.1910(4)
H41A H -0.945760 1.082517 1.221547
C44A C -0.9027(7) 1.1051(6) 1.0943(4)
H42A H -0.977240 1.073305 1.085300
H43A H -0.905398 1.191444 1.072370
H44A H -0.841673 1.078883 1.062541
C45A C -0.7731(5) 1.1274(5) 1.2085(5)
H45A H -0.705175 1.113389 1.176433
H46A H -0.789149 1.212008 1.188932
H47A H -0.758326 1.098766 1.271388
C46A C -0.8300(5) 0.8575(5) 1.3609(4)
H48A H -0.766238 0.910815 1.365163
C47A C -0.9323(6) 0.8786(6) 1.4148(4)
H49A H -0.991963 0.818461 1.421365
H50A H -0.906331 0.874078 1.472720
H51A H -0.964295 0.956869 1.384794
C48A C -0.7863(6) 0.7304(6) 1.4029(4)
H52A H -0.720880 0.717506 1.367940
H53A H -0.761594 0.718238 1.462494
H54A H -0.848654 0.674720 1.404798
loop_
_geom_bond_atom_site_label_1
_geom_bond_atom_site_label_2
_geom_bond_site_symmetry_1
_geom_bond_site_symmetry_2
Si1 C15 1_555 1_555
O1 C5 1_555 1_555
O2 C1 1_555 1_555
N1 C1 1_555 1_555
C1 C2A 1_555 1_555
C2 C3 1_555 1_555
C3 C3A 1_555 1_555
C4 C5 1_555 1_555
C5 N1 1_555 1_555
C6 C4 1_555 1_555
H1 C6 1_555 1_555
C7 C2 1_555 1_555
H2 C7 1_555 1_555
C8 N1 1_555 1_555
C9 C8 1_555 1_555
H3 C9 1_555 1_555
C10 C9 1_555 1_555
H4 C10 1_555 1_555
C11 C10 1_555 1_555
C12 C11 1_555 1_555
H5 C12 1_555 1_555
C13 C8 1_555 1_555
H6 C13 1_555 1_555
C14 C11 1_555 1_555
C15 C14 1_555 1_555
C16 Si1 1_555 1_555
H7 C16 1_555 1_555
C17 C16 1_555 1_555
H8 C17 1_555 1_555
H9 C17 1_555 1_555
H10 C17 1_555 1_555
C18 C16 1_555 1_555
H11 C18 1_555 1_555
H12 C18 1_555 1_555
H13 C18 1_555 1_555
C19 Si1 1_555 1_555
H14 C19 1_555 1_555
C20 C19 1_555 1_555
H15 C20 1_555 1_555
H16 C20 1_555 1_555
H17 C20 1_555 1_555
C21 C19 1_555 1_555
H18 C21 1_555 1_555
H19 C21 1_555 1_555
H20 C21 1_555 1_555
C22 Si1 1_555 1_555
H21 C22 1_555 1_555
C23 C22 1_555 1_555
H22 C23 1_555 1_555
H23 C23 1_555 1_555
H24 C23 1_555 1_555
C24 C22 1_555 1_555
H25 C24 1_555 1_555
H26 C24 1_555 1_555
H27 C24 1_555 1_555
Si2 C39 1_555 1_555
O3 C25 1_555 1_555
O4 C29 1_555 1_555
N2 C25 1_555 1_555
C25 C26A 1_555 1_555
C26 C27 1_555 1_555
C27 C27A 1_555 1_555
C28 C29 1_555 1_555
C29 N2 1_555 1_555
C30 C28 1_555 1_555
H28 C30 1_555 1_555
C31 C26 1_555 1_555
H29 C31 1_555 1_555
C32 N2 1_555 1_555
C33 C32 1_555 1_555
H30 C33 1_555 1_555
C34 C33 1_555 1_555
H31 C34 1_555 1_555
C35 C34 1_555 1_555
C36 C35 1_555 1_555
H32 C36 1_555 1_555
C37 C32 1_555 1_555
H33 C37 1_555 1_555
C38 C35 1_555 1_555
C39 C38 1_555 1_555
C40 Si2 1_555 1_555
H34 C40 1_555 1_555
C41 C40 1_555 1_555
H35 C41 1_555 1_555
H36 C41 1_555 1_555
H37 C41 1_555 1_555
C42 C40 1_555 1_555
H38 C42 1_555 1_555
H39 C42 1_555 1_555
H40 C42 1_555 1_555
C43 Si2 1_555 1_555
H41 C43 1_555 1_555
C44 C43 1_555 1_555
H42 C44 1_555 1_555
H43 C44 1_555 1_555
H44 C44 1_555 1_555
C45 C43 1_555 1_555
H45 C45 1_555 1_555
H46 C45 1_555 1_555
H47 C45 1_555 1_555
C46 Si2 1_555 1_555
H48 C46 1_555 1_555
C47 C46 1_555 1_555
H49 C47 1_555 1_555
H50 C47 1_555 1_555
H51 C47 1_555 1_555
C48 C46 1_555 1_555
H52 C48 1_555 1_555
H53 C48 1_555 1_555
H54 C48 1_555 1_555
Si1A C15A 1_555 1_555
O1A C5A 1_555 1_555
O2A C1A 1_555 1_555
N1A C1A 1_555 1_555
C1A C2 1_555 1_555
C2A C3A 1_555 1_555
C3A C4 1_555 1_555
C4A C3 1_555 1_555
C5A N1A 1_555 1_555
C6A C4A 1_555 1_555
H1A C6A 1_555 1_555
C7A C2A 1_555 1_555
H2A C7A 1_555 1_555
C8A N1A 1_555 1_555
C9A C8A 1_555 1_555
H3A C9A 1_555 1_555
C10A C9A 1_555 1_555
H4A C10A 1_555 1_555
C11A C10A 1_555 1_555
C12A C11A 1_555 1_555
H5A C12A 1_555 1_555
C13A C8A 1_555 1_555
H6A C13A 1_555 1_555
C14A C11A 1_555 1_555
C15A C14A 1_555 1_555
C16A Si1A 1_555 1_555
H7A C16A 1_555 1_555
C17A C16A 1_555 1_555
H8A C17A 1_555 1_555
H9A C17A 1_555 1_555
H10A C17A 1_555 1_555
C18A C16A 1_555 1_555
H11A C18A 1_555 1_555
H12A C18A 1_555 1_555
H13A C18A 1_555 1_555
C19A Si1A 1_555 1_555
H14A C19A 1_555 1_555
C20A C19A 1_555 1_555
H15A C20A 1_555 1_555
H16A C20A 1_555 1_555
H17A C20A 1_555 1_555
C21A C19A 1_555 1_555
H18A C21A 1_555 1_555
H19A C21A 1_555 1_555
H20A C21A 1_555 1_555
C22A Si1A 1_555 1_555
H21A C22A 1_555 1_555
C23A C22A 1_555 1_555
H22A C23A 1_555 1_555
H23A C23A 1_555 1_555
H24A C23A 1_555 1_555
C24A C22A 1_555 1_555
H25A C24A 1_555 1_555
H26A C24A 1_555 1_555
H27A C24A 1_555 1_555
Si2A C39A 1_555 1_555
O3A C25A 1_555 1_555
O4A C29A 1_555 1_555
N2A C25A 1_555 1_555
C25A C26 1_555 1_555
C26A C27A 1_555 1_555
C27A C28 1_555 1_555
C28A C27 1_555 1_555
C29A N2A 1_555 1_555
C30A C28A 1_555 1_555
H28A C30A 1_555 1_555
C31A C26A 1_555 1_555
H29A C31A 1_555 1_555
C32A N2A 1_555 1_555
C33A C32A 1_555 1_555
H30A C33A 1_555 1_555
C34A C33A 1_555 1_555
H31A C34A 1_555 1_555
C35A C34A 1_555 1_555
C36A C35A 1_555 1_555
H32A C36A 1_555 1_555
C37A C32A 1_555 1_555
H33A C37A 1_555 1_555
C38A C35A 1_555 1_555
C39A C38A 1_555 1_555
C40A Si2A 1_555 1_555
H34A C40A 1_555 1_555
C41A C40A 1_555 1_555
H35A C41A 1_555 1_555
H36A C41A 1_555 1_555
H37A C41A 1_555 1_555
C42A C40A 1_555 1_555
H38A C42A 1_555 1_555
H39A C42A 1_555 1_555
H40A C42A 1_555 1_555
C43A Si2A 1_555 1_555
H41A C43A 1_555 1_555
C44A C43A 1_555 1_555
H42A C44A 1_555 1_555
H43A C44A 1_555 1_555
H44A C44A 1_555 1_555
C45A C43A 1_555 1_555
H45A C45A 1_555 1_555
H46A C45A 1_555 1_555
H47A C45A 1_555 1_555
C46A Si2A 1_555 1_555
H48A C46A 1_555 1_555
C47A C46A 1_555 1_555
H49A C47A 1_555 1_555
H50A C47A 1_555 1_555
H51A C47A 1_555 1_555
C48A C46A 1_555 1_555
H52A C48A 1_555 1_555
H53A C48A 1_555 1_555
H54A C48A 1_555 1_555
C6 C7 1_555 1_555
C12 C13 1_555 1_555
C30 C31 1_555 1_555
C36 C37 1_555 1_555
C4A C5A 1_555 1_555
C6A C7A 1_555 1_555
C12A C13A 1_555 1_555
C28A C29A 1_555 1_555
C30A C31A 1_555 1_555
C36A C37A 1_555 1_555

#END
