
#######################################################################
#
#                 Cambridge Crystallographic Data Centre
#                                CCDC 
#
#######################################################################
#
# If this CIF has been generated from an entry in the Cambridge 
# Structural Database, then it will include bibliographic, chemical, 
# crystal, experimental, refinement or atomic coordinate data resulting 
# from the CCDC's data processing and validation procedures.
#
#######################################################################

data_WIHPIP
_chemical_formula_moiety         'C40 H34 Cl1 N3 O5,0.5(H2 O1)'
_chemical_name_systematic        
'N-(3-chlorophenyl)-1-(4-methoxyphenyl)-2-methyl-3,5-bis(4-methylphenyl)-4-(4-nitrobenzene-1-carbonyl)-2,3-dihydro-1H-pyrrole-2-carboxamide unknown solvate hemihydrate'
_symmetry_cell_setting           orthorhombic
_symmetry_space_group_name_H-M   'F d d 2'
_symmetry_Int_Tables_number      43
_space_group_name_Hall           'F 2 -2d'
loop_
_symmetry_equiv_pos_site_id
_symmetry_equiv_pos_as_xyz
1 x,y,z
2 -x,-y,z
3 1/4-x,1/4+y,1/4+z
4 1/4+x,1/4-y,1/4+z
5 x,1/2+y,1/2+z
6 -x,1/2-y,1/2+z
7 1/4-x,3/4+y,3/4+z
8 1/4+x,3/4-y,3/4+z
9 1/2+x,y,1/2+z
10 1/2-x,-y,1/2+z
11 3/4-x,1/4+y,3/4+z
12 3/4+x,1/4-y,3/4+z
13 1/2+x,1/2+y,z
14 1/2-x,1/2-y,z
15 3/4-x,3/4+y,1/4+z
16 3/4+x,3/4-y,1/4+z
_cell_length_a                   21.758(5)
_cell_length_b                   50.304(5)
_cell_length_c                   13.416(5)
_cell_angle_alpha                90
_cell_angle_beta                 90
_cell_angle_gamma                90
_cell_volume                     14684
_exptl_crystal_colour            orange
_exptl_crystal_description       prism
_cell_formula_units_Z            16
loop_
_atom_site_label
_atom_site_type_symbol
_atom_site_fract_x
_atom_site_fract_y
_atom_site_fract_z
C1 C 0.31249(13) 0.02075(6) 0.2761(2)
C2 C 0.29739(13) 0.01438(6) 0.1630(2)
H1 H 0.2563 0.0223 0.1477
C3 C 0.34541(11) 0.03014(5) 0.1055(2)
C4 C 0.37440(11) 0.04733(5) 0.1712(2)
C5 C 0.25535(15) 0.02899(6) 0.3340(3)
H2 H 0.2660 0.0316 0.4043
H3 H 0.2240 0.0151 0.3283
H4 H 0.2392 0.0456 0.3066
C6 C 0.34902(13) -0.00264(6) 0.3225(2)
C7 C 0.33928(13) -0.04475(6) 0.4148(2)
C8 C 0.30248(13) -0.05759(6) 0.4845(2)
H5 H 0.2649 -0.0498 0.5056
C9 C 0.32092(15) -0.08170(6) 0.5229(2)
C10 C 0.37504(18) -0.09361(8) 0.4953(3)
H6 H 0.3874 -0.1101 0.5234
C11 C 0.4113(2) -0.08075(9) 0.4248(4)
H7 H 0.4485 -0.0888 0.4036
C12 C 0.39409(19) -0.05643(8) 0.3849(3)
H8 H 0.4196 -0.0478 0.3374
C13 C 0.29364(14) -0.01497(6) 0.1400(2)
C14 C 0.23773(15) -0.02853(7) 0.1516(3)
H9 H 0.2020 -0.0190 0.1710
C15 C 0.23398(18) -0.05584(7) 0.1348(3)
H10 H 0.1957 -0.0646 0.1439
C16 C 0.28407(17) -0.07037(7) 0.1055(3)
C17 C 0.33946(17) -0.05689(7) 0.0912(3)
H11 H 0.3746 -0.0665 0.0693
C18 C 0.34425(14) -0.02983(6) 0.1082(3)
H12 H 0.3826 -0.0212 0.0980
C19 C 0.2795(2) -0.10013(8) 0.0872(4)
H13 H 0.2569 -0.1085 0.1421
H14 H 0.3208 -0.1077 0.0833
H15 H 0.2577 -0.1033 0.0244
C20 C 0.34984(12) 0.02910(5) 0.0002(2)
C21 C 0.40395(12) 0.04021(6) -0.0558(2)
C22 C 0.39334(16) 0.05549(6) -0.1405(2)
H16 H 0.3524 0.0592 -0.1606
C23 C 0.44194(19) 0.06522(8) -0.1954(3)
H17 H 0.4351 0.0763 -0.2515
C24 C 0.50094(18) 0.05835(9) -0.1666(3)
C25 C 0.51305(16) 0.04296(8) -0.0838(3)
H18 H 0.5541 0.0385 -0.0662
C26 C 0.46393(13) 0.03419(6) -0.0269(2)
H19 H 0.4711 0.0241 0.0317
C27 C 0.41765(12) 0.06952(5) 0.1504(2)
C28 C 0.39904(13) 0.09089(6) 0.0929(2)
H20 H 0.3592 0.0910 0.0640
C29 C 0.43856(14) 0.11214(6) 0.0773(2)
H21 H 0.4250 0.1268 0.0386
C30 C 0.49701(14) 0.11236(6) 0.1169(2)
C31 C 0.51559(13) 0.09077(7) 0.1732(2)
H22 H 0.5559 0.0905 0.2003
C32 C 0.47671(13) 0.06954(6) 0.1909(2)
H23 H 0.4902 0.0550 0.2305
C33 C 0.53956(17) 0.13591(7) 0.0995(3)
H24 H 0.5682 0.1375 0.1556
H25 H 0.5151 0.1522 0.0941
H26 H 0.5627 0.1332 0.0377
C34 C 0.37048(16) 0.06017(7) 0.3490(2)
C35 C 0.34360(17) 0.08477(7) 0.3579(3)
H27 H 0.3146 0.0903 0.3093
C36 C 0.3580(2) 0.10189(9) 0.4370(3)
H28 H 0.3399 0.1190 0.4410
C37 C 0.3983(3) 0.09355(12) 0.5079(3)
C38 C 0.4253(3) 0.06927(15) 0.5010(3)
H29 H 0.4536 0.0639 0.5510
C39 C 0.4120(2) 0.05192(11) 0.4211(3)
H30 H 0.4311 0.0350 0.4168
C40 C 0.3930(5) 0.13449(17) 0.5948(5)
H31 H 0.4054 0.1439 0.5341
H32 H 0.4108 0.1434 0.6530
H33 H 0.3481 0.1345 0.6002
N1 N 0.35566(12) 0.04351(5) 0.26592(18)
N2 N 0.31693(12) -0.02029(5) 0.37680(19)
N3 N 0.5535(2) 0.06662(13) -0.2276(4)
O1 O 0.40404(10) -0.00464(5) 0.3066(2)
O2 O 0.30915(9) 0.01843(4) -0.05154(17)
O3 O 0.6046(2) 0.05800(13) -0.2089(4)
O4 O 0.5427(2) 0.08310(15) -0.2959(4)
O5 O 0.4141(3) 0.10822(12) 0.5905(3)
Cl1 Cl 0.27380(4) -0.09747(2) 0.60979(8)
H34 H 0.2791(18) -0.0170(7) 0.386(3)
O6 O 0.5000 0.0000 0.1735(2)
H35 H 0.5353(19) 0.0004(8) 0.222(3)
H35A H 0.4647(19) -0.0004(8) 0.222(3)
loop_
_geom_bond_atom_site_label_1
_geom_bond_atom_site_label_2
_geom_bond_site_symmetry_1
_geom_bond_site_symmetry_2
C1 C2 1_555 1_555
C2 H1 1_555 1_555
C3 C2 1_555 1_555
C4 C3 1_555 1_555
C5 C1 1_555 1_555
H2 C5 1_555 1_555
H3 C5 1_555 1_555
H4 C5 1_555 1_555
C6 C1 1_555 1_555
C7 C8 1_555 1_555
C8 H5 1_555 1_555
C9 C8 1_555 1_555
C10 C9 1_555 1_555
H6 C10 1_555 1_555
C11 C10 1_555 1_555
H7 C11 1_555 1_555
C12 C7 1_555 1_555
H8 C12 1_555 1_555
C13 C2 1_555 1_555
C14 C13 1_555 1_555
H9 C14 1_555 1_555
C15 C14 1_555 1_555
H10 C15 1_555 1_555
C16 C15 1_555 1_555
C17 C16 1_555 1_555
H11 C17 1_555 1_555
C18 C13 1_555 1_555
H12 C18 1_555 1_555
C19 C16 1_555 1_555
H13 C19 1_555 1_555
H14 C19 1_555 1_555
H15 C19 1_555 1_555
C20 C3 1_555 1_555
C21 C20 1_555 1_555
C22 C21 1_555 1_555
H16 C22 1_555 1_555
C23 C22 1_555 1_555
H17 C23 1_555 1_555
C24 C23 1_555 1_555
C25 C24 1_555 1_555
H18 C25 1_555 1_555
C26 C21 1_555 1_555
H19 C26 1_555 1_555
C27 C4 1_555 1_555
C28 C27 1_555 1_555
H20 C28 1_555 1_555
C29 C28 1_555 1_555
H21 C29 1_555 1_555
C30 C29 1_555 1_555
C31 C30 1_555 1_555
H22 C31 1_555 1_555
C32 C27 1_555 1_555
H23 C32 1_555 1_555
C33 C30 1_555 1_555
H24 C33 1_555 1_555
H25 C33 1_555 1_555
H26 C33 1_555 1_555
C34 C35 1_555 1_555
C35 H27 1_555 1_555
C36 C35 1_555 1_555
H28 C36 1_555 1_555
C37 C36 1_555 1_555
C38 C37 1_555 1_555
H29 C38 1_555 1_555
C39 C34 1_555 1_555
H30 C39 1_555 1_555
C40 H31 1_555 1_555
H32 C40 1_555 1_555
H33 C40 1_555 1_555
N1 C1 1_555 1_555
N2 C6 1_555 1_555
N3 C24 1_555 1_555
O1 C6 1_555 1_555
O2 C20 1_555 1_555
O3 N3 1_555 1_555
O4 N3 1_555 1_555
O5 C37 1_555 1_555
Cl1 C9 1_555 1_555
H34 N2 1_555 1_555
O6 H35 1_555 1_555
H35A O6 1_555 1_555
C4 N1 1_555 1_555
C7 N2 1_555 1_555
C11 C12 1_555 1_555
C17 C18 1_555 1_555
C25 C26 1_555 1_555
C31 C32 1_555 1_555
C34 N1 1_555 1_555
C38 C39 1_555 1_555
C40 O5 1_555 1_555

#END
