
#######################################################################
#
#                 Cambridge Crystallographic Data Centre
#                                CCDC 
#
#######################################################################
#
# If this CIF has been generated from an entry in the Cambridge 
# Structural Database, then it will include bibliographic, chemical, 
# crystal, experimental, refinement or atomic coordinate data resulting 
# from the CCDC's data processing and validation procedures.
#
#######################################################################

data_WIHVUG
_chemical_formula_moiety         'C24 H37 N4 Si1 1+,Cl1 1-'
_chemical_name_systematic        
'2-Methyl-N-(3,3,7,7-tetramethyl-1,5-diphenyl-2,4,6-triaza-3-silaoct-4-en-1-ylidene)propan-2-aminium chloride'
_symmetry_cell_setting           monoclinic
_symmetry_space_group_name_H-M   'P 21/n'
_symmetry_Int_Tables_number      14
_space_group_name_Hall           '-P 2yn'
loop_
_symmetry_equiv_pos_site_id
_symmetry_equiv_pos_as_xyz
1 x,y,z
2 1/2-x,1/2+y,1/2-z
3 -x,-y,-z
4 1/2+x,1/2-y,1/2+z
_cell_length_a                   13.660(5)
_cell_length_b                   10.832(4)
_cell_length_c                   17.977(6)
_cell_angle_alpha                90
_cell_angle_beta                 97.951(7)
_cell_angle_gamma                90
_cell_volume                     2634.4
_exptl_crystal_colour            colorless
_exptl_crystal_description       Block
_cell_formula_units_Z            4
loop_
_atom_site_label
_atom_site_type_symbol
_atom_site_fract_x
_atom_site_fract_y
_atom_site_fract_z
Si1 Si 0.95081(5) 0.72896(6) 0.84604(4)
N1 N 1.15408(15) 0.93537(19) 0.76176(12)
H1 H 1.1957 0.9204 0.8011
N2 N 1.05628(14) 0.80590(18) 0.81813(11)
H2 H 1.1090 0.7961 0.8497
N3 N 0.86518(16) 0.81759(19) 0.87637(12)
N4 N 0.74992(14) 0.94474(19) 0.91953(12)
H3 H 0.7400 1.0175 0.9361
C1 C 1.1907(2) 1.0254(3) 0.70933(17)
C2 C 1.2222(4) 0.9612(5) 0.6439(3)
H4 H 1.1650 0.9323 0.6115
H5 H 1.2635 0.8923 0.6610
H6 H 1.2585 1.0174 0.6167
C3 C 1.2791(4) 1.0842(6) 0.7552(3)
H7 H 1.3225 1.0209 0.7781
H8 H 1.2576 1.1350 0.7935
H9 H 1.3137 1.1340 0.7231
C4 C 1.1150(4) 1.1243(4) 0.6857(4)
H10 H 1.1454 1.1902 0.6615
H11 H 1.0895 1.1556 0.7291
H12 H 1.0619 1.0899 0.6513
C5 C 1.07071(17) 0.8746(2) 0.75953(13)
C6 C 0.99125(17) 0.8774(2) 0.69411(13)
C7 C 0.9971(2) 0.8009(3) 0.63296(15)
H13 H 1.0527 0.7520 0.6314
C8 C 0.9204(2) 0.7976(3) 0.57457(16)
H14 H 0.9240 0.7461 0.5337
C9 C 0.8390(2) 0.8700(3) 0.57680(17)
H15 H 0.7873 0.8675 0.5373
C10 C 0.8328(2) 0.9458(3) 0.63631(18)
H16 H 0.7772 0.9951 0.6370
C11 C 0.90843(19) 0.9499(2) 0.69572(15)
H17 H 0.9037 1.0012 0.7365
C12 C 0.8945(2) 0.6322(3) 0.76685(18)
H18 H 0.8460 0.5786 0.7836
H19 H 0.9449 0.5834 0.7486
H20 H 0.8634 0.6841 0.7272
C13 C 1.0110(3) 0.6321(3) 0.92380(19)
H21 H 1.0469 0.6838 0.9615
H22 H 1.0557 0.5755 0.9049
H23 H 0.9616 0.5866 0.9454
C14 C 0.83909(17) 0.9241(2) 0.89717(13)
C15 C 0.90119(17) 1.0376(2) 0.89535(12)
C16 C 0.8589(2) 1.1506(2) 0.87230(15)
H24 H 0.7906 1.1574 0.8608
C17 C 0.9176(3) 1.2524(3) 0.86647(18)
H25 H 0.8889 1.3272 0.8502
C18 C 1.0187(3) 1.2440(3) 0.88463(19)
H26 H 1.0581 1.3132 0.8809
C19 C 1.0609(2) 1.1345(3) 0.90812(16)
H27 H 1.1292 1.1289 0.9204
C20 C 1.00314(18) 1.0319(2) 0.91378(13)
H28 H 1.0328 0.9576 0.9302
C21 C 0.66790(19) 0.8562(2) 0.91854(16)
C22 C 0.6416(2) 0.8034(3) 0.84012(18)
H29 H 0.6255 0.8696 0.8050
H30 H 0.5857 0.7494 0.8391
H31 H 0.6968 0.7580 0.8267
C23 C 0.6953(3) 0.7540(3) 0.97631(19)
H32 H 0.7564 0.7166 0.9677
H33 H 0.6440 0.6927 0.9716
H34 H 0.7026 0.7886 1.0259
C24 C 0.5805(2) 0.9301(3) 0.9390(2)
H35 H 0.5975 0.9657 0.9879
H36 H 0.5245 0.8765 0.9391
H37 H 0.5643 0.9946 0.9027
Cl1 Cl 0.25431(5) 0.86233(8) 0.92656(4)
loop_
_geom_bond_atom_site_label_1
_geom_bond_atom_site_label_2
_geom_bond_site_symmetry_1
_geom_bond_site_symmetry_2
Si1 N2 1_555 1_555
N1 H1 1_555 1_555
N2 H2 1_555 1_555
N3 Si1 1_555 1_555
N4 H3 1_555 1_555
C1 N1 1_555 1_555
C2 C1 1_555 1_555
H4 C2 1_555 1_555
H5 C2 1_555 1_555
H6 C2 1_555 1_555
C3 C1 1_555 1_555
H7 C3 1_555 1_555
H8 C3 1_555 1_555
H9 C3 1_555 1_555
C4 C1 1_555 1_555
H10 C4 1_555 1_555
H11 C4 1_555 1_555
H12 C4 1_555 1_555
C5 N1 1_555 1_555
C6 C5 1_555 1_555
C7 C6 1_555 1_555
H13 C7 1_555 1_555
C8 C7 1_555 1_555
H14 C8 1_555 1_555
C9 C8 1_555 1_555
H15 C9 1_555 1_555
C10 C9 1_555 1_555
H16 C10 1_555 1_555
C11 C6 1_555 1_555
H17 C11 1_555 1_555
C12 Si1 1_555 1_555
H18 C12 1_555 1_555
H19 C12 1_555 1_555
H20 C12 1_555 1_555
C13 Si1 1_555 1_555
H21 C13 1_555 1_555
H22 C13 1_555 1_555
H23 C13 1_555 1_555
C14 N3 1_555 1_555
C15 C14 1_555 1_555
C16 C15 1_555 1_555
H24 C16 1_555 1_555
C17 C16 1_555 1_555
H25 C17 1_555 1_555
C18 C17 1_555 1_555
H26 C18 1_555 1_555
C19 C18 1_555 1_555
H27 C19 1_555 1_555
C20 C15 1_555 1_555
H28 C20 1_555 1_555
C21 N4 1_555 1_555
C22 C21 1_555 1_555
H29 C22 1_555 1_555
H30 C22 1_555 1_555
H31 C22 1_555 1_555
C23 C21 1_555 1_555
H32 C23 1_555 1_555
H33 C23 1_555 1_555
H34 C23 1_555 1_555
C24 C21 1_555 1_555
H35 C24 1_555 1_555
H36 C24 1_555 1_555
H37 C24 1_555 1_555
N2 C5 1_555 1_555
N4 C14 1_555 1_555
C10 C11 1_555 1_555
C19 C20 1_555 1_555

#END
