
#######################################################################
#
#                 Cambridge Crystallographic Data Centre
#                                CCDC 
#
#######################################################################
#
# If this CIF has been generated from an entry in the Cambridge 
# Structural Database, then it will include bibliographic, chemical, 
# crystal, experimental, refinement or atomic coordinate data resulting 
# from the CCDC's data processing and validation procedures.
#
#######################################################################

data_WIJBOG
_chemical_name_common            
N-Methyl-N-(1-cyano-4-phenylbutadienyl)-4-bromoaniline
_chemical_formula_moiety         'C18 H15 Br1 N2'
_chemical_name_systematic        
2-(N-Methyl-4-bromoanilino)-5-phenyl-2,4-pentadienenitrile
_symmetry_cell_setting           monoclinic
_symmetry_space_group_name_H-M   'C 2/c'
_symmetry_Int_Tables_number      15
_space_group_name_Hall           '-C 2yn'
loop_
_symmetry_equiv_pos_site_id
_symmetry_equiv_pos_as_xyz
1 x,y,z
2 -x,y,1/2-z
3 1/2+x,1/2+y,z
4 1/2-x,1/2+y,1/2-z
5 -x,-y,-z
6 x,-y,1/2+z
7 1/2-x,1/2-y,-z
8 1/2+x,1/2-y,1/2+z
_cell_length_a                   19.209(3)
_cell_length_b                   6.146(1)
_cell_length_c                   26.552(6)
_cell_angle_alpha                90
_cell_angle_beta                 92.41(2)
_cell_angle_gamma                90
_cell_volume                     3131.92
_exptl_crystal_colour            yellow
_chemical_melting_point          128-129deg.C
_cell_formula_units_Z            8
loop_
_atom_site_label
_atom_site_type_symbol
_atom_site_fract_x
_atom_site_fract_y
_atom_site_fract_z
Br1 Br 0.12418(3) 0.23475(13) 0.235823(22)
C1 C 0.50856(24) 0.5974(8) 0.63581(17)
C2 C 0.51802(24) 0.7471(10) 0.67406(16)
C3 C 0.4807(3) 0.9400(9) 0.67320(18)
C4 C 0.43459(23) 0.9818(8) 0.63332(17)
C5 C 0.42494(22) 0.8340(7) 0.59513(17)
C6 C 0.46092(21) 0.6354(7) 0.59553(16)
C7 C 0.45018(22) 0.4712(8) 0.55601(16)
C8 C 0.39588(22) 0.4581(8) 0.52283(15)
C9 C 0.38908(21) 0.2964(7) 0.48479(16)
C10 C 0.33362(21) 0.2742(8) 0.45168(15)
N1 N 0.32218(19) 0.1080(6) 0.41770(13)
C11 C 0.27654(22) 0.1358(7) 0.37472(15)
C12 C 0.22799(24) -0.0243(8) 0.36177(16)
C13 C 0.18319(24) 0.0013(8) 0.32008(16)
C14 C 0.18670(22) 0.1902(8) 0.29306(15)
C15 C 0.23459(25) 0.3538(7) 0.30483(16)
C16 C 0.27920(23) 0.3238(7) 0.34602(16)
C17 C 0.27640(22) 0.4286(8) 0.45526(16)
N2 N 0.23373(19) 0.5521(7) 0.45917(14)
C18 C 0.36882(24) -0.0772(8) 0.41963(18)
H1 H 0.537 0.451 0.637
H2 H 0.552 0.721 0.703
H3 H 0.486 1.054 0.702
H4 H 0.406 1.125 0.633
H5 H 0.392 0.875 0.564
H6 H 0.489 0.353 0.553
H7 H 0.359 0.576 0.525
H8 H 0.430 0.188 0.483
H9 H 0.226 -0.166 0.384
H10 H 0.146 -0.116 0.309
H11 H 0.236 0.494 0.283
H12 H 0.317 0.444 0.356
H13 H 0.420 -0.030 0.413
H14 H 0.370 -0.154 0.452
H15 H 0.357 -0.187 0.392
loop_
_geom_bond_atom_site_label_1
_geom_bond_atom_site_label_2
_geom_bond_site_symmetry_1
_geom_bond_site_symmetry_2
Br1 C14 1_555 1_555
C1 C2 1_555 1_555
C2 C3 1_555 1_555
C3 C4 1_555 1_555
C4 C5 1_555 1_555
C5 C6 1_555 1_555
C6 C1 1_555 1_555
C7 C6 1_555 1_555
C8 C7 1_555 1_555
C9 C8 1_555 1_555
C10 C9 1_555 1_555
N1 C10 1_555 1_555
C11 N1 1_555 1_555
C12 C11 1_555 1_555
C13 C12 1_555 1_555
C14 C13 1_555 1_555
C15 C14 1_555 1_555
C16 C11 1_555 1_555
C17 C10 1_555 1_555
N2 C17 1_555 1_555
C18 N1 1_555 1_555
H1 C1 1_555 1_555
H2 C2 1_555 1_555
H3 C3 1_555 1_555
H4 C4 1_555 1_555
H5 C5 1_555 1_555
H6 C7 1_555 1_555
H7 C8 1_555 1_555
H8 C9 1_555 1_555
H9 C12 1_555 1_555
H10 C13 1_555 1_555
H11 C15 1_555 1_555
H12 C16 1_555 1_555
H13 C18 1_555 1_555
H14 C18 1_555 1_555
H15 C18 1_555 1_555
C15 C16 1_555 1_555

#END
