
#######################################################################
#
#                 Cambridge Crystallographic Data Centre
#                                CCDC 
#
#######################################################################
#
# If this CIF has been generated from an entry in the Cambridge 
# Structural Database, then it will include bibliographic, chemical, 
# crystal, experimental, refinement or atomic coordinate data resulting 
# from the CCDC's data processing and validation procedures.
#
#######################################################################

data_WIJCOH
_chemical_name_common            
N-Methyl-N-(1-cyano-4-(o-nitrophenyl)butadienyl)aniline
_chemical_formula_moiety         'C18 H15 N3 O2'
_chemical_name_systematic        
2-(N-Methylanilino)-5-(2-nitrophenyl)-2,4-pentadienenitrile
_symmetry_cell_setting           monoclinic
_symmetry_space_group_name_H-M   'P 21/c'
_symmetry_Int_Tables_number      14
_space_group_name_Hall           '-P 2ybc'
loop_
_symmetry_equiv_pos_site_id
_symmetry_equiv_pos_as_xyz
1 x,y,z
2 -x,1/2+y,1/2-z
3 -x,-y,-z
4 x,1/2-y,1/2+z
_cell_length_a                   6.797(2)
_cell_length_b                   12.521(2)
_cell_length_c                   18.515(7)
_cell_angle_alpha                90
_cell_angle_beta                 96.68(2)
_cell_angle_gamma                90
_cell_volume                     1565.03
_exptl_crystal_colour            orange
_chemical_melting_point          104-105deg.C
_cell_formula_units_Z            4
loop_
_atom_site_label
_atom_site_type_symbol
_atom_site_fract_x
_atom_site_fract_y
_atom_site_fract_z
N1 N 0.6603(4) 0.93307(25) 0.13221(16)
N2 N 0.2324(5) 1.0408(3) 0.04505(19)
N3 N 0.1961(6) 0.4783(3) -0.10339(23)
C1 C 0.8373(6) 1.0982(4) 0.16398(20)
C2 C 0.8519(7) 1.1943(4) 0.2005(3)
C3 C 0.7060(9) 1.2272(4) 0.2397(3)
C4 C 0.5429(7) 1.1647(4) 0.24251(23)
C5 C 0.5245(6) 1.0683(3) 0.20686(19)
C6 C 0.6727(6) 1.0342(3) 0.16720(18)
C7 C 0.4887(5) 0.8978(3) 0.09134(18)
C8 C 0.4489(5) 0.7969(3) 0.06914(19)
C9 C 0.2744(5) 0.7672(3) 0.02203(19)
C10 C 0.2326(5) 0.6677(3) -0.00128(20)
C11 C 0.0542(5) 0.6392(3) -0.04890(19)
C12 C -0.1150(6) 0.7037(3) -0.05031(21)
C13 C -0.2857(6) 0.6837(3) -0.09479(23)
C14 C -0.2992(6) 0.5970(4) -0.14050(23)
C15 C -0.1396(6) 0.5308(3) -0.14171(21)
C16 C 0.0331(5) 0.5524(3) -0.09646(19)
C17 C 0.8286(6) 0.8626(3) 0.14186(23)
C18 C 0.3483(6) 0.9798(3) 0.06655(20)
O1 O 0.3318(5) 0.4724(3) -0.06031(24)
O2 O 0.2197(13) 0.4504(8) -0.1682(5)
H1 H 0.940 1.076 0.133
H2 H 0.974 1.238 0.200
H3 H 0.720 1.298 0.263
H4 H 0.443 1.191 0.274
H5 H 0.405 1.021 0.210
H6 H 0.539 0.739 0.088
H7 H 0.179 0.825 0.003
H8 H 0.332 0.612 0.015
H9 H -0.110 0.768 -0.021
H10 H -0.405 0.728 -0.093
H11 H -0.426 0.586 -0.172
H12 H -0.156 0.463 -0.174
H13 H 0.804 0.796 0.114
H14 H 0.948 0.892 0.126
H15 H 0.864 0.840 0.192
O3? O 0.1547(14) 0.3918(7) -0.1315(6)
loop_
_geom_bond_atom_site_label_1
_geom_bond_atom_site_label_2
_geom_bond_site_symmetry_1
_geom_bond_site_symmetry_2
N1 C6 1_555 1_555
N2 C18 1_555 1_555
N3 C16 1_555 1_555
C1 C2 1_555 1_555
C2 C3 1_555 1_555
C3 C4 1_555 1_555
C4 C5 1_555 1_555
C5 C6 1_555 1_555
C6 C1 1_555 1_555
C7 N1 1_555 1_555
C8 C7 1_555 1_555
C9 C8 1_555 1_555
C10 C9 1_555 1_555
C11 C10 1_555 1_555
C12 C11 1_555 1_555
C13 C12 1_555 1_555
C14 C13 1_555 1_555
C15 C14 1_555 1_555
C16 C11 1_555 1_555
C17 N1 1_555 1_555
C18 C7 1_555 1_555
O1 N3 1_555 1_555
O2 N3 1_555 1_555
H1 C1 1_555 1_555
H2 C2 1_555 1_555
H3 C3 1_555 1_555
H4 C4 1_555 1_555
H5 C5 1_555 1_555
H6 C8 1_555 1_555
H7 C9 1_555 1_555
H8 C10 1_555 1_555
H9 C12 1_555 1_555
H10 C13 1_555 1_555
H11 C14 1_555 1_555
H12 C15 1_555 1_555
H13 C17 1_555 1_555
H14 C17 1_555 1_555
H15 C17 1_555 1_555
C15 C16 1_555 1_555

#END
