
#######################################################################
#
#                 Cambridge Crystallographic Data Centre
#                                CCDC 
#
#######################################################################
#
# If this CIF has been generated from an entry in the Cambridge 
# Structural Database, then it will include bibliographic, chemical, 
# crystal, experimental, refinement or atomic coordinate data resulting 
# from the CCDC's data processing and validation procedures.
#
#######################################################################

data_WIJDAU
_chemical_formula_moiety         'C36 H32 N4'
_chemical_name_systematic        
1,3-Dicyano-1,3-bis(N-methylanilino)-2,4-bis(2-phenylethenyl)cyclobutane
_symmetry_cell_setting           monoclinic
_symmetry_space_group_name_H-M   'P 21/n'
_symmetry_Int_Tables_number      14
_space_group_name_Hall           '-P 2yn'
loop_
_symmetry_equiv_pos_site_id
_symmetry_equiv_pos_as_xyz
1 x,y,z
2 1/2-x,1/2+y,1/2-z
3 -x,-y,-z
4 1/2+x,1/2-y,1/2+z
_cell_length_a                   11.084(3)
_cell_length_b                   7.138(3)
_cell_length_c                   18.136(8)
_cell_angle_alpha                90
_cell_angle_beta                 97.34(3)
_cell_angle_gamma                90
_cell_volume                     1423.12
_exptl_crystal_colour            colorless
_chemical_melting_point          196-197deg.C
_cell_formula_units_Z            2
loop_
_atom_site_label
_atom_site_type_symbol
_atom_site_fract_x
_atom_site_fract_y
_atom_site_fract_z
C1 C 0.57568(23) 0.5915(4) 0.02555(13)
C2 C 0.50380(23) 0.4217(4) 0.05363(13)
C3 C 0.5525(3) 0.7732(5) 0.06204(14)
N1 N 0.5367(3) 0.9134(4) 0.08927(14)
N2 N 0.70376(19) 0.5545(4) 0.02423(11)
C4 C 0.7685(3) 0.7101(6) -0.00714(16)
C5 C 0.43729(23) 0.4511(4) 0.11991(13)
C6 C 0.46414(24) 0.3536(4) 0.18230(14)
C7 C 0.77194(23) 0.4777(4) 0.09038(14)
C8 C 0.74377(24) 0.5104(4) 0.16121(14)
C9 C 0.8147(3) 0.4315(5) 0.22196(15)
C10 C 0.9133(3) 0.3225(5) 0.21285(17)
C11 C 0.9423(3) 0.2912(5) 0.14184(18)
C12 C 0.8712(3) 0.3677(5) 0.08115(16)
C13 C 0.40448(24) 0.3682(4) 0.25050(13)
C14 C 0.2898(3) 0.4453(5) 0.25169(15)
C15 C 0.2371(3) 0.4472(5) 0.31692(16)
C16 C 0.2983(3) 0.3747(5) 0.38166(15)
C17 C 0.4119(3) 0.3003(5) 0.38111(15)
C18 C 0.4651(3) 0.2964(5) 0.31577(15)
H1 H 0.564 0.312 0.063
H2 H 0.734 0.739 -0.060
H3 H 0.764 0.830 0.023
H4 H 0.859 0.682 -0.007
H5 H 0.374 0.556 0.116
H6 H 0.533 0.253 0.184
H7 H 0.672 0.596 0.169
H8 H 0.792 0.446 0.275
H9 H 0.968 0.265 0.257
H10 H 1.017 0.208 0.135
H11 H 0.893 0.340 0.029
H12 H 0.244 0.500 0.203
H13 H 0.153 0.504 0.318
H14 H 0.261 0.376 0.430
H15 H 0.459 0.244 0.429
H16 H 0.552 0.238 0.316
C2B C 0.49620(23) 0.5783(4) -0.05363(13)
C1B C 0.42432(23) 0.4085(4) -0.02555(13)
C5B C 0.56271(23) 0.5489(4) -0.11991(13)
H1B H 0.436 0.688 -0.063
C3B C 0.4475(3) 0.2268(5) -0.06204(14)
N2B N 0.29624(19) 0.4455(4) -0.02423(11)
C6B C 0.53586(24) 0.6464(4) -0.18230(14)
H5B H 0.626 0.444 -0.116
N1B N 0.4633(3) 0.0866(4) -0.08927(14)
C4B C 0.2315(3) 0.2899(6) 0.00714(16)
C7B C 0.22806(23) 0.5223(4) -0.09038(14)
C13B C 0.59552(24) 0.6318(4) -0.25050(13)
H6B H 0.467 0.747 -0.184
H2B H 0.266 0.261 0.060
H3B H 0.236 0.170 -0.023
H4B H 0.141 0.318 0.007
C8B C 0.25623(24) 0.4896(4) -0.16121(14)
C12B C 0.1288(3) 0.6323(5) -0.08115(16)
C14B C 0.7102(3) 0.5547(5) -0.25169(15)
C18B C 0.5349(3) 0.7036(5) -0.31577(15)
C9B C 0.1853(3) 0.5685(5) -0.22196(15)
H7B H 0.328 0.404 -0.169
C11B C 0.0577(3) 0.7088(5) -0.14184(18)
H11B H 0.107 0.660 -0.029
C15B C 0.7629(3) 0.5528(5) -0.31692(16)
H12B H 0.756 0.500 -0.203
C17B C 0.5881(3) 0.6997(5) -0.38111(15)
H16B H 0.448 0.762 -0.316
C10B C 0.0867(3) 0.6775(5) -0.21285(17)
H8B H 0.208 0.554 -0.275
H10B H -0.017 0.792 -0.135
C16B C 0.7017(3) 0.6253(5) -0.38166(15)
H13B H 0.847 0.496 -0.318
H15B H 0.541 0.756 -0.429
H9B H 0.032 0.735 -0.257
H14B H 0.739 0.624 -0.430
loop_
_geom_bond_atom_site_label_1
_geom_bond_atom_site_label_2
_geom_bond_site_symmetry_1
_geom_bond_site_symmetry_2
C1 C2 1_555 1_555
C2 C5 1_555 1_555
C3 C1 1_555 1_555
N1 C3 1_555 1_555
N2 C1 1_555 1_555
C4 N2 1_555 1_555
C5 C6 1_555 1_555
C6 C13 1_555 1_555
C7 N2 1_555 1_555
C8 C7 1_555 1_555
C9 C8 1_555 1_555
C10 C9 1_555 1_555
C11 C10 1_555 1_555
C12 C7 1_555 1_555
C13 C14 1_555 1_555
C14 C15 1_555 1_555
C15 C16 1_555 1_555
C16 C17 1_555 1_555
C17 C18 1_555 1_555
C18 C13 1_555 1_555
H1 C2 1_555 1_555
H2 C4 1_555 1_555
H3 C4 1_555 1_555
H4 C4 1_555 1_555
H5 C5 1_555 1_555
H6 C6 1_555 1_555
H7 C8 1_555 1_555
H8 C9 1_555 1_555
H9 C10 1_555 1_555
H10 C11 1_555 1_555
H11 C12 1_555 1_555
H12 C14 1_555 1_555
H13 C15 1_555 1_555
H14 C16 1_555 1_555
H15 C17 1_555 1_555
H16 C18 1_555 1_555
C2B C1 1_555 1_555
C1B C2 1_555 1_555
C5B C2B 1_555 1_555
H1B C2B 1_555 1_555
C3B C1B 1_555 1_555
N2B C1B 1_555 1_555
C6B C5B 1_555 1_555
H5B C5B 1_555 1_555
N1B C3B 1_555 1_555
C4B N2B 1_555 1_555
C7B N2B 1_555 1_555
C13B C6B 1_555 1_555
H6B C6B 1_555 1_555
H2B C4B 1_555 1_555
H3B C4B 1_555 1_555
H4B C4B 1_555 1_555
C8B C7B 1_555 1_555
C12B C7B 1_555 1_555
C14B C13B 1_555 1_555
C18B C13B 1_555 1_555
C9B C8B 1_555 1_555
H7B C8B 1_555 1_555
C11B C12B 1_555 1_555
H11B C12B 1_555 1_555
C15B C14B 1_555 1_555
H12B C14B 1_555 1_555
C17B C18B 1_555 1_555
H16B C18B 1_555 1_555
C10B C9B 1_555 1_555
H8B C9B 1_555 1_555
H10B C11B 1_555 1_555
C16B C15B 1_555 1_555
H13B C15B 1_555 1_555
H15B C17B 1_555 1_555
H9B C10B 1_555 1_555
H14B C16B 1_555 1_555
C11 C12 1_555 1_555
C2B C1B 1_555 1_555
C11B C10B 1_555 1_555
C17B C16B 1_555 1_555

#END
