
#######################################################################
#
#                 Cambridge Crystallographic Data Centre
#                                CCDC 
#
#######################################################################
#
# If this CIF has been generated from an entry in the Cambridge 
# Structural Database, then it will include bibliographic, chemical, 
# crystal, experimental, refinement or atomic coordinate data resulting 
# from the CCDC's data processing and validation procedures.
#
#######################################################################

data_WIJDUQ
_chemical_formula_moiety         'C19 H16 Cl1 N1 O1'
_chemical_name_systematic        
1-(1-(4-Chlorophenyl)-2-methyl-4-phenyl-1H-pyrrol-3-yl)ethanone
_symmetry_cell_setting           monoclinic
_symmetry_space_group_name_H-M   'P 21/n'
_symmetry_Int_Tables_number      14
_space_group_name_Hall           '-P 2yn'
loop_
_symmetry_equiv_pos_site_id
_symmetry_equiv_pos_as_xyz
1 x,y,z
2 1/2-x,1/2+y,1/2-z
3 -x,-y,-z
4 1/2+x,1/2-y,1/2+z
_cell_length_a                   9.8200(13)
_cell_length_b                   7.8501(11)
_cell_length_c                   21.302(3)
_cell_angle_alpha                90
_cell_angle_beta                 97.862(2)
_cell_angle_gamma                90
_cell_volume                     1626.69
_exptl_crystal_colour            colorless
_cell_formula_units_Z            4
loop_
_atom_site_label
_atom_site_type_symbol
_atom_site_fract_x
_atom_site_fract_y
_atom_site_fract_z
N1 N 0.34747(15) 0.20702(18) 0.90239(6)
O1 O 0.45750(19) 0.71834(18) 0.87088(8)
Cl1 Cl 0.13396(9) -0.24861(10) 1.08652(3)
C1 C 0.39674(17) 0.1425(2) 0.84968(7)
H1 H 0.3980 0.0280 0.8386
C2 C 0.44328(17) 0.2731(2) 0.81647(8)
C3 C 0.42149(17) 0.4274(2) 0.85066(8)
C4 C 0.36316(19) 0.3803(2) 0.90376(8)
C5 C 0.29220(18) 0.1021(2) 0.94763(8)
C6 C 0.3517(2) 0.1012(3) 1.01013(8)
H2 H 0.4256 0.1726 1.0234
C7 C 0.3016(2) -0.0054(3) 1.05282(9)
H3 H 0.3409 -0.0057 1.0951
C8 C 0.1934(2) -0.1112(3) 1.03264(9)
C9 C 0.1328(2) -0.1106(3) 0.97109(9)
H4 H 0.0586 -0.1818 0.9581
C10 C 0.1826(2) -0.0034(3) 0.92829(8)
H5 H 0.1421 -0.0025 0.8862
C11 C 0.51456(18) 0.2497(2) 0.76072(8)
C12 C 0.6371(2) 0.3333(3) 0.75502(9)
H6 H 0.6743 0.4075 0.7869
C13 C 0.7044(2) 0.3083(3) 0.70309(11)
H7 H 0.7857 0.3665 0.7000
C14 C 0.6521(3) 0.1984(3) 0.65607(11)
H8 H 0.6974 0.1819 0.6210
C15 C 0.5332(2) 0.1134(3) 0.66099(9)
H9 H 0.4983 0.0373 0.6294
C16 C 0.4638(2) 0.1389(2) 0.71254(8)
H10 H 0.3820 0.0809 0.7149
C17 C 0.43852(19) 0.6042(2) 0.83173(9)
C18 C 0.4250(2) 0.6489(3) 0.76301(9)
H11 H 0.3672 0.7474 0.7551
H12 H 0.3849 0.5549 0.7382
H13 H 0.5142 0.6732 0.7516
C19 C 0.3091(2) 0.4871(3) 0.95309(10)
H14 H 0.2232 0.4411 0.9620
H15 H 0.2954 0.6017 0.9378
H16 H 0.3741 0.4870 0.9911
loop_
_geom_bond_atom_site_label_1
_geom_bond_atom_site_label_2
_geom_bond_site_symmetry_1
_geom_bond_site_symmetry_2
N1 C1 1_555 1_555
O1 C17 1_555 1_555
Cl1 C8 1_555 1_555
C1 H1 1_555 1_555
C2 C1 1_555 1_555
C3 C2 1_555 1_555
C4 N1 1_555 1_555
C5 N1 1_555 1_555
C6 C5 1_555 1_555
H2 C6 1_555 1_555
C7 C6 1_555 1_555
H3 C7 1_555 1_555
C8 C7 1_555 1_555
C9 C8 1_555 1_555
H4 C9 1_555 1_555
C10 C5 1_555 1_555
H5 C10 1_555 1_555
C11 C2 1_555 1_555
C12 C11 1_555 1_555
H6 C12 1_555 1_555
C13 C12 1_555 1_555
H7 C13 1_555 1_555
C14 C13 1_555 1_555
H8 C14 1_555 1_555
C15 C14 1_555 1_555
H9 C15 1_555 1_555
C16 C11 1_555 1_555
H10 C16 1_555 1_555
C17 C3 1_555 1_555
C18 C17 1_555 1_555
H11 C18 1_555 1_555
H12 C18 1_555 1_555
H13 C18 1_555 1_555
C19 C4 1_555 1_555
H14 C19 1_555 1_555
H15 C19 1_555 1_555
H16 C19 1_555 1_555
C3 C4 1_555 1_555
C9 C10 1_555 1_555
C15 C16 1_555 1_555

#END
