
#######################################################################
#
#                 Cambridge Crystallographic Data Centre
#                                CCDC 
#
#######################################################################
#
# If this CIF has been generated from an entry in the Cambridge 
# Structural Database, then it will include bibliographic, chemical, 
# crystal, experimental, refinement or atomic coordinate data resulting 
# from the CCDC's data processing and validation procedures.
#
#######################################################################

data_WIJLOR
_chemical_name_common            3,3'-(1,3-Phenylene)bis(2,4-pentanedione)
_chemical_formula_moiety         'C16 H18 O4'
_chemical_name_systematic        1,3-bis(4-Hydroxy-2-oxopent-3-en-3-yl)benzene
_symmetry_cell_setting           triclinic
_symmetry_space_group_name_H-M   'P -1'
_symmetry_Int_Tables_number      2
_space_group_name_Hall           '-P 1'
loop_
_symmetry_equiv_pos_site_id
_symmetry_equiv_pos_as_xyz
1 x,y,z
2 -x,-y,-z
_cell_length_a                   7.928(2)
_cell_length_b                   8.208(2)
_cell_length_c                   12.681(4)
_cell_angle_alpha                78.624(15)
_cell_angle_beta                 73.113(13)
_cell_angle_gamma                69.229(12)
_cell_volume                     734.182
_exptl_crystal_colour            colorless
_cell_formula_units_Z            2
loop_
_atom_site_label
_atom_site_type_symbol
_atom_site_fract_x
_atom_site_fract_y
_atom_site_fract_z
O1 O 0.01765(17) 0.75323(15) 0.89988(10)
H1 H -0.079(3) 0.699(3) 0.8841(18)
O2 O -0.13301(15) 0.57204(19) 0.85364(10)
O3 O 0.7768(2) -0.0991(2) 0.44327(12)
O4 O 0.8589(2) 0.1732(2) 0.38615(10)
H2 H 0.827(4) 0.053(5) 0.388(3)
C1 C 0.36999(18) 0.32924(17) 0.81884(11)
C2 C 0.45380(19) 0.28337(18) 0.71120(11)
H3 H 0.3938 0.3447 0.6535
C3 C 0.62284(19) 0.15033(18) 0.68566(11)
C4 C 0.71024(19) 0.06221(18) 0.77035(11)
H4 H 0.8262 -0.0279 0.7545
C5 C 0.6288(2) 0.10531(18) 0.87825(11)
H5 H 0.6889 0.0440 0.9359
C6 C 0.45991(19) 0.23763(18) 0.90208(11)
H6 H 0.4051 0.2659 0.9762
C7 C 0.3366(3) 0.6656(2) 0.89300(17)
H7 H 0.3208 0.7910 0.8742
H8 H 0.4514 0.5982 0.8449
H9 H 0.3438 0.6320 0.9705
C8 C 0.1759(2) 0.62880(19) 0.87696(12)
C9 C 0.18798(19) 0.47203(19) 0.84337(11)
C10 C 0.0244(2) 0.4496(2) 0.83421(12)
C11 C 0.0231(3) 0.2825(3) 0.80578(17)
H10 H -0.1047 0.2903 0.8096
H11 H 0.0737 0.1855 0.8585
H12 H 0.0995 0.2617 0.7306
C12 C 0.6254(4) -0.1792(3) 0.62706(19)
H13 H 0.5916 -0.2532 0.5901
H14 H 0.5143 -0.1126 0.6780
H15 H 0.7172 -0.2532 0.6687
C13 C 0.7059(3) -0.0561(2) 0.54274(15)
C14 C 0.7064(2) 0.1025(2) 0.56990(12)
C15 C 0.7888(2) 0.2117(3) 0.48822(13)
C16 C 0.8050(3) 0.3758(3) 0.51051(18)
H16 H 0.8895 0.4177 0.4467
H17 H 0.8540 0.3529 0.5765
H18 H 0.6822 0.4651 0.5231
loop_
_geom_bond_atom_site_label_1
_geom_bond_atom_site_label_2
_geom_bond_site_symmetry_1
_geom_bond_site_symmetry_2
O1 H1 1_555 1_555
O2 C10 1_555 1_555
O3 C13 1_555 1_555
O4 H2 1_555 1_555
C1 C2 1_555 1_555
C2 H3 1_555 1_555
C3 C2 1_555 1_555
C4 C3 1_555 1_555
H4 C4 1_555 1_555
C5 C4 1_555 1_555
H5 C5 1_555 1_555
C6 C1 1_555 1_555
H6 C6 1_555 1_555
C7 H7 1_555 1_555
H8 C7 1_555 1_555
H9 C7 1_555 1_555
C8 O1 1_555 1_555
C9 C1 1_555 1_555
C10 C9 1_555 1_555
C11 C10 1_555 1_555
H10 C11 1_555 1_555
H11 C11 1_555 1_555
H12 C11 1_555 1_555
C12 H13 1_555 1_555
H14 C12 1_555 1_555
H15 C12 1_555 1_555
C13 C12 1_555 1_555
C14 C3 1_555 1_555
C15 O4 1_555 1_555
C16 C15 1_555 1_555
H16 C16 1_555 1_555
H17 C16 1_555 1_555
H18 C16 1_555 1_555
C5 C6 1_555 1_555
C7 C8 1_555 1_555
C8 C9 1_555 1_555
C13 C14 1_555 1_555
C14 C15 1_555 1_555

#END
