
#######################################################################
#
#                 Cambridge Crystallographic Data Centre
#                                CCDC 
#
#######################################################################
#
# If this CIF has been generated from an entry in the Cambridge 
# Structural Database, then it will include bibliographic, chemical, 
# crystal, experimental, refinement or atomic coordinate data resulting 
# from the CCDC's data processing and validation procedures.
#
#######################################################################

data_WIJPUD
_chemical_formula_moiety         'C5 H10 N10 2+,2(C6 H2 N3 O7 1-),2(H2 O1)'
_chemical_name_systematic        
"3,9-diamino-6,7-dihydro-5H-bis[1,2,4]triazolo[4,3-e:3',4'-g][1,2,4,5]tetrazepine-2,10-di-ium bis(2,4,6-trinitrophenolate) dihydrate"
_symmetry_cell_setting           triclinic
_symmetry_space_group_name_H-M   'P -1'
_symmetry_Int_Tables_number      2
_space_group_name_Hall           '-P 1'
loop_
_symmetry_equiv_pos_site_id
_symmetry_equiv_pos_as_xyz
1 x,y,z
2 -x,-y,-z
_cell_length_a                   9.9951(4)
_cell_length_b                   11.2503(3)
_cell_length_c                   13.7975(4)
_cell_angle_alpha                105.110(2)
_cell_angle_beta                 108.876(2)
_cell_angle_gamma                92.112(2)
_cell_volume                     1404.78
_exptl_crystal_colour            yellow
_exptl_crystal_description       plate
_cell_formula_units_Z            2
loop_
_atom_site_label
_atom_site_type_symbol
_atom_site_fract_x
_atom_site_fract_y
_atom_site_fract_z
O1 O 0.1454(3) 0.25108(18) 1.12277(15)
O2 O -0.0268(3) 0.2618(2) 0.81303(17)
O3 O 0.2786(3) 0.1163(2) 1.24393(17)
N1 N 0.0219(3) 0.2672(2) 0.90783(18)
O4 O 0.0294(3) 0.3619(2) 0.97613(18)
N2 N 0.2562(3) 0.0296(2) 1.16422(19)
O5 O 0.0292(3) -0.1539(2) 0.69037(18)
O6 O 0.2851(3) -0.0733(2) 1.16997(19)
O7 O 0.1415(3) -0.2531(2) 0.7996(2)
N3 N 0.0932(3) -0.1600(2) 0.7806(2)
C1 C 0.1918(3) 0.0439(2) 1.0579(2)
C2 C 0.0775(3) 0.1575(2) 0.9350(2)
C3 C 0.1403(3) 0.1609(2) 1.0470(2)
C4 C 0.1146(3) -0.0513(2) 0.8706(2)
C5 C 0.1794(3) -0.0574(2) 0.9732(2)
H1 H 0.2149 -0.1305 0.9853
C6 C 0.0635(3) 0.0561(2) 0.8509(2)
H2 H 0.0196 0.0590 0.7803
O8 O 0.3710(3) 0.55250(19) 1.11331(17)
O9 O 0.4157(3) 0.32367(19) 1.03879(16)
O10 O 0.1529(3) 0.2991(2) 0.55898(17)
O11 O 0.1174(3) 0.4854(2) 0.63051(17)
O12 O 0.4584(3) 0.1061(2) 0.93667(17)
N4 N 0.3917(3) 0.1253(2) 0.85333(19)
N5 N 0.3148(3) 0.5574(2) 1.0226(2)
N6 N 0.1628(3) 0.3859(2) 0.63670(19)
O13 O 0.3560(3) 0.0427(2) 0.76904(18)
O14 O 0.2652(4) 0.6491(2) 1.0049(2)
C7 C 0.3066(3) 0.4530(2) 0.9312(2)
C8 C 0.3445(3) 0.2464(2) 0.8500(2)
C9 C 0.3630(3) 0.3399(2) 0.9496(2)
C10 C 0.2443(3) 0.4683(2) 0.8319(2)
H3 H 0.2103 0.5435 0.8247
C11 C 0.2317(3) 0.3717(2) 0.7422(2)
C12 C 0.2824(3) 0.2611(2) 0.7514(2)
H4 H 0.2741 0.1966 0.6898
N7 N 0.7709(3) 0.43332(19) 0.59942(17)
N8 N 0.7630(3) 0.6229(2) 0.67615(18)
H5 H 0.7761 0.6933 0.7251
N9 N 0.5140(3) 0.3996(2) 0.24669(18)
H6 H 0.4663 0.4135 0.1866
N10 N 0.6842(3) 0.6032(2) 0.57079(17)
N11 N 0.6223(3) 0.30709(19) 0.36042(17)
N12 N 0.5537(3) 0.4881(2) 0.34491(17)
N13 N 0.8958(3) 0.5068(2) 0.78678(18)
H7 H 0.9181 0.5684 0.8450
H8 H 0.9256 0.4357 0.7895
N14 N 0.8152(3) 0.3135(2) 0.58931(18)
H9 H 0.8939 0.3137 0.6404
N15 N 0.5392(3) 0.1874(2) 0.17775(19)
H10 H 0.4941 0.1843 0.1114
H11 H 0.5728 0.1219 0.1935
N16 N 0.6811(3) 0.2106(2) 0.40057(19)
H12 H 0.6803 0.1446 0.3505
C13 C 0.6199(3) 0.4285(2) 0.4116(2)
C14 C 0.5567(3) 0.2909(2) 0.2541(2)
C15 C 0.8176(3) 0.5213(2) 0.6952(2)
C16 C 0.6888(3) 0.4877(2) 0.5259(2)
C17 C 0.8188(3) 0.2527(3) 0.4841(2)
H13 H 0.8728 0.3105 0.4637
H14 H 0.8709 0.1810 0.4883
O15 O 0.6285(3) 0.2474(2) 0.70532(19)
H15 H 0.5905 0.2956 0.7454
H16 H 0.6240 0.1746 0.7141
O16 O 0.4537(3) 0.1892(3) 0.4982(2)
H17 H 0.3952 0.2433 0.4927
H18 H 0.4079 0.1161 0.4640
loop_
_geom_bond_atom_site_label_1
_geom_bond_atom_site_label_2
_geom_bond_site_symmetry_1
_geom_bond_site_symmetry_2
O1 C3 1_555 1_555
O2 N1 1_555 1_555
O3 N2 1_555 1_555
N1 O4 1_555 1_555
N2 O6 1_555 1_555
O5 N3 1_555 1_555
O7 N3 1_555 1_555
N3 C4 1_555 1_555
C1 N2 1_555 1_555
C2 N1 1_555 1_555
C3 C1 1_555 1_555
C4 C5 1_555 1_555
C5 C1 1_555 1_555
H1 C5 1_555 1_555
C6 C2 1_555 1_555
H2 C6 1_555 1_555
O8 N5 1_555 1_555
O9 C9 1_555 1_555
O10 N6 1_555 1_555
O11 N6 1_555 1_555
O12 N4 1_555 1_555
N4 O13 1_555 1_555
N5 O14 1_555 1_555
N6 C11 1_555 1_555
C7 N5 1_555 1_555
C8 N4 1_555 1_555
C9 C7 1_555 1_555
C10 C7 1_555 1_555
H3 C10 1_555 1_555
C11 C10 1_555 1_555
C12 C8 1_555 1_555
H4 C12 1_555 1_555
N7 N14 1_555 1_555
N8 H5 1_555 1_555
N9 H6 1_555 1_555
N10 N8 1_555 1_555
N11 N16 1_555 1_555
N12 N9 1_555 1_555
N13 H7 1_555 1_555
H8 N13 1_555 1_555
N14 H9 1_555 1_555
N15 H10 1_555 1_555
H11 N15 1_555 1_555
N16 H12 1_555 1_555
C13 N11 1_555 1_555
C14 N9 1_555 1_555
C15 N7 1_555 1_555
C16 N7 1_555 1_555
C17 N14 1_555 1_555
H13 C17 1_555 1_555
H14 C17 1_555 1_555
O15 H15 1_555 1_555
H16 O15 1_555 1_555
O16 H17 1_555 1_555
H18 O16 1_555 1_555
C2 C3 1_555 1_555
C4 C6 1_555 1_555
C8 C9 1_555 1_555
C11 C12 1_555 1_555
N8 C15 1_555 1_555
N10 C16 1_555 1_555
N11 C14 1_555 1_555
N12 C13 1_555 1_555
N13 C15 1_555 1_555
N15 C14 1_555 1_555
N16 C17 1_555 1_555
C13 C16 1_555 1_555

#END
