
#######################################################################
#
#                 Cambridge Crystallographic Data Centre
#                                CCDC 
#
#######################################################################
#
# If this CIF has been generated from an entry in the Cambridge 
# Structural Database, then it will include bibliographic, chemical, 
# crystal, experimental, refinement or atomic coordinate data resulting 
# from the CCDC's data processing and validation procedures.
#
#######################################################################

data_WIJQEO
_chemical_formula_moiety         'C5 H9 N10 1+,C6 H2 N3 O7 1-'
_chemical_name_systematic        
"3,9-diamino-6,7-dihydro-5H-bis[1,2,4]triazolo[4,3-e:3',4'-g][1,2,4,5]tetrazepin-2-ium 2,4,6-trinitrophenolate"
_symmetry_cell_setting           triclinic
_symmetry_space_group_name_H-M   'P -1'
_symmetry_Int_Tables_number      2
_space_group_name_Hall           '-P 1'
loop_
_symmetry_equiv_pos_site_id
_symmetry_equiv_pos_as_xyz
1 x,y,z
2 -x,-y,-z
_cell_length_a                   6.7272(6)
_cell_length_b                   14.2018(12)
_cell_length_c                   17.1712(14)
_cell_angle_alpha                93.985(2)
_cell_angle_beta                 95.876(2)
_cell_angle_gamma                91.799(2)
_cell_volume                     1626.72
_exptl_crystal_colour            yellow
_exptl_crystal_description       needle
_cell_formula_units_Z            4
loop_
_atom_site_label
_atom_site_type_symbol
_atom_site_fract_x
_atom_site_fract_y
_atom_site_fract_z
O1 O 0.1252(2) 0.22445(10) 0.36661(9)
O2 O 0.0043(3) 0.04316(11) 0.33644(9)
O3 O -0.2685(3) 0.18954(13) 0.01945(10)
O4 O -0.2370(3) 0.34148(13) 0.03971(10)
N1 N -0.0071(3) 0.05664(13) 0.26652(11)
O5 O -0.0094(3) -0.00801(12) 0.21563(10)
N2 N -0.2147(3) 0.26154(15) 0.06142(11)
O6 O 0.2006(4) 0.41162(12) 0.36703(11)
N3 N 0.1126(4) 0.40902(14) 0.30445(12)
C1 C -0.0188(3) 0.15311(14) 0.24236(13)
C2 C 0.0392(3) 0.32174(15) 0.26064(12)
C3 C 0.0566(3) 0.23265(15) 0.29710(12)
C4 C -0.1180(3) 0.25102(16) 0.13928(12)
C5 C -0.1012(3) 0.16197(15) 0.16649(12)
H1 H -0.1458 0.1075 0.1333
C6 C -0.0469(3) 0.33094(16) 0.18570(13)
H2 H -0.0575 0.3916 0.1659
O7 O 0.0005(8) 0.4800(3) 0.2874(3)
O9 O 0.4343(2) 0.23941(11) 0.14636(9)
O10 O 0.4282(3) 0.51184(12) 0.09035(11)
O11 O -0.0779(3) 0.27390(15) -0.17257(11)
O12 O 0.3054(3) 0.06392(13) 0.09717(11)
N4 N 0.2694(3) 0.09162(15) 0.03167(12)
O13 O -0.0284(3) 0.42141(16) -0.13281(12)
N5 N 0.0002(3) 0.33776(18) -0.12531(12)
N6 N 0.4078(3) 0.43494(15) 0.11612(12)
O14 O 0.2495(4) 0.03822(15) -0.02706(13)
C7 C 0.3410(3) 0.26079(16) 0.08403(13)
C8 C 0.3168(4) 0.35747(16) 0.06331(13)
C9 C 0.1251(3) 0.31136(18) -0.05780(13)
C10 C 0.2523(3) 0.19234(16) 0.02229(13)
C11 C 0.1480(3) 0.21676(18) -0.04593(13)
H3 H 0.0923 0.1693 -0.0844
C12 C 0.2129(4) 0.38170(17) -0.00456(14)
H4 H 0.2012 0.4462 -0.0150
O15 O 0.4131(8) 0.4281(5) 0.1891(3)
N7 N 0.8634(3) 0.20204(11) 0.53402(10)
N8 N 0.6149(2) 0.17767(11) 0.38821(10)
N9 N 0.5758(3) 0.27706(12) 0.30002(10)
H5 H 0.5409 0.3017 0.2553
N10 N 0.4565(3) 0.11910(12) 0.26326(10)
H6 H 0.4141 0.1312 0.2149
H7 H 0.4418 0.0616 0.2785
N11 N 0.9114(3) 0.11485(12) 0.49806(11)
N12 N 0.7844(3) 0.35101(12) 0.54919(10)
N13 N 0.6731(3) 0.32791(12) 0.36566(10)
N14 N 0.5618(3) 0.10253(12) 0.43211(11)
N15 N 0.8657(3) 0.32271(12) 0.62207(11)
N16 N 0.9965(3) 0.17829(13) 0.66519(11)
H8 H 0.9611 0.1962 0.7105
H9 H 0.9579 0.1202 0.6534
C13 C 0.7833(3) 0.27830(14) 0.49871(12)
C14 C 0.5410(3) 0.18638(14) 0.31239(12)
C15 C 0.9106(3) 0.23287(14) 0.61067(12)
C16 C 0.6931(3) 0.26635(14) 0.41781(12)
C17 C 0.7327(3) 0.05525(14) 0.47056(13)
H10 H 0.6875 0.0247 0.5161
H11 H 0.7714 0.0045 0.4332
H12 H 0.488(3) 0.1255(17) 0.4659(13)
H13 H 0.971(3) 0.1284(17) 0.4576(12)
N17 N 0.2834(3) 0.31693(12) 0.49858(10)
H14 H 0.2390 0.3183 0.4487
N18 N 0.3788(3) 0.36060(12) 0.61838(10)
N19 N 0.3400(3) 0.23609(12) 0.53362(10)
N20 N 0.4881(3) 0.22446(12) 0.74564(10)
N21 N 0.4980(3) 0.11404(12) 0.64964(11)
N22 N 0.5425(3) 0.07471(13) 0.72040(11)
N23 N 0.4162(3) 0.42027(13) 0.68705(11)
N24 N 0.2622(3) 0.48121(13) 0.53977(13)
N25 N 0.4710(3) 0.30944(13) 0.79222(11)
N26 N 0.5603(4) 0.13266(15) 0.85475(11)
H15 H 0.5876 0.0773 0.8724
H16 H 0.5509 0.1820 0.8880
C18 C 0.3997(3) 0.26482(14) 0.60635(12)
C19 C 0.3038(3) 0.39268(14) 0.54930(12)
C20 C 0.4683(3) 0.20321(14) 0.66552(12)
C21 C 0.5331(4) 0.14188(15) 0.77716(13)
C22 C 0.3441(4) 0.37784(15) 0.75419(13)
H17 H 0.2121 0.3463 0.7368
H18 H 0.3228 0.4293 0.7940
H19 H 0.544(3) 0.4330(17) 0.6912(15)
H20 H 0.598(3) 0.3321(18) 0.8006(16)
H21 H 0.288(4) 0.5225(19) 0.5789(17)
H22 H 0.234(4) 0.5042(19) 0.4942(17)
O8? O 0.1678(8) 0.4767(3) 0.2648(2)
O16? O 0.5080(9) 0.4150(4) 0.1785(3)
loop_
_geom_bond_atom_site_label_1
_geom_bond_atom_site_label_2
_geom_bond_site_symmetry_1
_geom_bond_site_symmetry_2
O1 C3 1_555 1_555
O2 N1 1_555 1_555
O3 N2 1_555 1_555
O4 N2 1_555 1_555
N1 O5 1_555 1_555
N2 C4 1_555 1_555
O6 N3 1_555 1_555
N3 C2 1_555 1_555
C1 N1 1_555 1_555
C2 C3 1_555 1_555
C3 C1 1_555 1_555
C4 C5 1_555 1_555
C5 C1 1_555 1_555
H1 C5 1_555 1_555
C6 C2 1_555 1_555
H2 C6 1_555 1_555
O7 N3 1_555 1_555
O9 C7 1_555 1_555
O10 N6 1_555 1_555
O11 N5 1_555 1_555
O12 N4 1_555 1_555
N4 O14 1_555 1_555
O13 N5 1_555 1_555
N5 C9 1_555 1_555
N6 C8 1_555 1_555
C7 C8 1_555 1_555
C8 C12 1_555 1_555
C9 C11 1_555 1_555
C10 N4 1_555 1_555
C11 C10 1_555 1_555
H3 C11 1_555 1_555
C12 C9 1_555 1_555
H4 C12 1_555 1_555
O15 N6 1_555 1_555
N7 N11 1_555 1_555
N8 N14 1_555 1_555
N9 H5 1_555 1_555
N10 H6 1_555 1_555
H7 N10 1_555 1_555
N11 C17 1_555 1_555
N12 N15 1_555 1_555
N13 N9 1_555 1_555
N14 C17 1_555 1_555
N15 C15 1_555 1_555
N16 H8 1_555 1_555
H9 N16 1_555 1_555
C13 N7 1_555 1_555
C14 N8 1_555 1_555
C15 N7 1_555 1_555
C16 N8 1_555 1_555
C17 H10 1_555 1_555
H11 C17 1_555 1_555
H12 N14 1_555 1_555
H13 N11 1_555 1_555
N17 H14 1_555 1_555
N18 N23 1_555 1_555
N19 N17 1_555 1_555
N20 N25 1_555 1_555
N21 N22 1_555 1_555
N22 C21 1_555 1_555
N23 C22 1_555 1_555
N24 C19 1_555 1_555
N25 C22 1_555 1_555
N26 H15 1_555 1_555
H16 N26 1_555 1_555
C18 N18 1_555 1_555
C19 N17 1_555 1_555
C20 N20 1_555 1_555
C21 N20 1_555 1_555
C22 H17 1_555 1_555
H18 C22 1_555 1_555
H19 N23 1_555 1_555
H20 N25 1_555 1_555
H21 N24 1_555 1_555
H22 N24 1_555 1_555
C4 C6 1_555 1_555
C7 C10 1_555 1_555
N9 C14 1_555 1_555
N10 C14 1_555 1_555
N12 C13 1_555 1_555
N13 C16 1_555 1_555
N16 C15 1_555 1_555
C13 C16 1_555 1_555
N18 C19 1_555 1_555
N19 C18 1_555 1_555
N21 C20 1_555 1_555
N26 C21 1_555 1_555
C18 C20 1_555 1_555

#END
