
#######################################################################
#
#                 Cambridge Crystallographic Data Centre
#                                CCDC 
#
#######################################################################
#
# If this CIF has been generated from an entry in the Cambridge 
# Structural Database, then it will include bibliographic, chemical, 
# crystal, experimental, refinement or atomic coordinate data resulting 
# from the CCDC's data processing and validation procedures.
#
#######################################################################

data_WIJQEM
_chemical_formula_moiety         'C30 H20 N6'
_chemical_name_systematic        
2-(4-(Dimethylamino)phenyl)-3-(6-(4-(dimethylamino)phenyl)hexa-1,3,5-triyn-1-yl)buta-1,3-diene-1,1,4,4-tetracarbonitrile
_symmetry_cell_setting           monoclinic
_symmetry_space_group_name_H-M   'P 21/c'
_symmetry_Int_Tables_number      14
_space_group_name_Hall           '-P 2ybc'
loop_
_symmetry_equiv_pos_site_id
_symmetry_equiv_pos_as_xyz
1 x,y,z
2 -x,1/2+y,1/2-z
3 -x,-y,-z
4 x,1/2-y,1/2+z
_cell_length_a                   7.5252(5)
_cell_length_b                   8.4637(9)
_cell_length_c                   39.5727(15)
_cell_angle_alpha                90
_cell_angle_beta                 92.608(7)
_cell_angle_gamma                90
_cell_volume                     2517.82
_exptl_crystal_colour            black
_chemical_melting_point          '201 deg.C'
_cell_formula_units_Z            4
_chemical_properties_physical    explosive
loop_
_atom_site_label
_atom_site_type_symbol
_atom_site_fract_x
_atom_site_fract_y
_atom_site_fract_z
N1 N -0.0216(4) 0.6590(3) 0.29505(6)
N2 N 1.4893(5) 1.0657(3) 0.14115(7)
N3 N 1.7598(5) 0.8074(4) 0.06116(9)
N4 N 1.4968(5) 0.4503(3) 0.14898(8)
N5 N 1.4406(4) 0.1866(3) 0.05798(7)
N6 N 1.0748(4) 0.7100(3) -0.06182(6)
C1 C 1.3499(4) 0.7370(3) 0.09481(6)
C2 C 1.2018(4) 0.7520(3) 0.11492(7)
C3 C 1.0759(5) 0.7560(4) 0.13264(8)
C4 C 0.9339(5) 0.7586(4) 0.15296(8)
C5 C 0.8126(5) 0.7562(4) 0.17182(8)
C6 C 0.6755(5) 0.7477(4) 0.19284(8)
C7 C 0.5519(5) 0.7331(4) 0.21120(8)
C8 C 0.4082(4) 0.7131(3) 0.23263(7)
C9 C 0.4085(4) 0.7838(4) 0.26438(8)
H1 H 0.5063 0.8458 0.2717
C10 C 0.2694(5) 0.7650(4) 0.28512(7)
H2 H 0.2741 0.8132 0.3065
C11 C 0.1188(4) 0.6744(3) 0.27485(7)
C12 C 0.1208(4) 0.6013(4) 0.24294(7)
H3 H 0.0240 0.5382 0.2355
C13 C 0.2616(4) 0.6204(4) 0.22250(7)
H4 H 0.2594 0.5703 0.2013
C14 C -0.0177(5) 0.7304(5) 0.32835(8)
H5 H 0.0015 0.8432 0.3263
H6 H 0.0782 0.6842 0.3423
H7 H -0.1301 0.7114 0.3387
C15 C -0.1693(4) 0.5570(4) 0.28573(8)
H8 H -0.1270 0.4495 0.2834
H9 H -0.2245 0.5922 0.2644
H10 H -0.2559 0.5608 0.3031
C16 C 1.4889(4) 0.8385(3) 0.09792(7)
C17 C 1.4911(5) 0.9656(4) 0.12178(8)
C18 C 1.6394(5) 0.8213(4) 0.07737(9)
C19 C 1.3525(4) 0.5994(3) 0.07054(7)
C20 C 1.4122(4) 0.4602(3) 0.08540(7)
C21 C 1.4617(5) 0.4561(3) 0.12071(9)
C22 C 1.4264(4) 0.3107(4) 0.06898(7)
C23 C 1.2892(4) 0.6261(3) 0.03646(7)
C24 C 1.2368(4) 0.7779(3) 0.02539(7)
H11 H 1.2490 0.8626 0.0407
C25 C 1.1691(5) 0.8073(4) -0.00649(8)
H12 H 1.1370 0.9112 -0.0126
C26 C 1.1464(4) 0.6857(3) -0.03049(7)
C27 C 1.2033(4) 0.5348(3) -0.01990(7)
H13 H 1.1943 0.4505 -0.0354
C28 C 1.2706(4) 0.5066(3) 0.01184(7)
H14 H 1.3062 0.4033 0.0176
C29 C 1.0198(6) 0.8656(4) -0.07371(8)
H15 H 1.1211 0.9205 -0.0824
H16 H 0.9738 0.9254 -0.0551
H17 H 0.9277 0.8547 -0.0915
C30 C 1.0686(5) 0.5861(4) -0.08717(8)
H18 H 1.0367 0.4869 -0.0768
H19 H 1.1845 0.5759 -0.0967
H20 H 0.9806 0.6126 -0.1049
loop_
_geom_bond_atom_site_label_1
_geom_bond_atom_site_label_2
_geom_bond_site_symmetry_1
_geom_bond_site_symmetry_2
N1 C11 1_555 1_555
N2 C17 1_555 1_555
N3 C18 1_555 1_555
N4 C21 1_555 1_555
N5 C22 1_555 1_555
N6 C26 1_555 1_555
C1 C2 1_555 1_555
C2 C3 1_555 1_555
C3 C4 1_555 1_555
C4 C5 1_555 1_555
C5 C6 1_555 1_555
C6 C7 1_555 1_555
C7 C8 1_555 1_555
C8 C9 1_555 1_555
C9 H1 1_555 1_555
C10 C9 1_555 1_555
H2 C10 1_555 1_555
C11 C10 1_555 1_555
C12 C11 1_555 1_555
H3 C12 1_555 1_555
C13 C8 1_555 1_555
H4 C13 1_555 1_555
C14 N1 1_555 1_555
H5 C14 1_555 1_555
H6 C14 1_555 1_555
H7 C14 1_555 1_555
C15 N1 1_555 1_555
H8 C15 1_555 1_555
H9 C15 1_555 1_555
H10 C15 1_555 1_555
C16 C1 1_555 1_555
C17 C16 1_555 1_555
C18 C16 1_555 1_555
C19 C1 1_555 1_555
C20 C19 1_555 1_555
C21 C20 1_555 1_555
C22 C20 1_555 1_555
C23 C19 1_555 1_555
C24 C23 1_555 1_555
H11 C24 1_555 1_555
C25 C24 1_555 1_555
H12 C25 1_555 1_555
C26 C25 1_555 1_555
C27 C26 1_555 1_555
H13 C27 1_555 1_555
C28 C23 1_555 1_555
H14 C28 1_555 1_555
C29 N6 1_555 1_555
H15 C29 1_555 1_555
H16 C29 1_555 1_555
H17 C29 1_555 1_555
C30 N6 1_555 1_555
H18 C30 1_555 1_555
H19 C30 1_555 1_555
H20 C30 1_555 1_555
C12 C13 1_555 1_555
C27 C28 1_555 1_555

#END
