
#######################################################################
#
#                 Cambridge Crystallographic Data Centre
#                                CCDC 
#
#######################################################################
#
# If this CIF has been generated from an entry in the Cambridge 
# Structural Database, then it will include bibliographic, chemical, 
# crystal, experimental, refinement or atomic coordinate data resulting 
# from the CCDC's data processing and validation procedures.
#
#######################################################################

data_WIJQOY
_chemical_formula_moiety         
'C5 H10 N10 2+,2(C6 H2 N3 O7 1-),C2 H3 N1,2(H2 O1)'
_chemical_name_systematic        
"3,9-diamino-6,7-dihydro-5H-bis[1,2,4]triazolo[4,3-e:3',4'-g][1,2,4,5]tetrazepine-2,10-di-ium 2,4,6-trinitrophenolate acetonitrile solvate dihydrate"
_symmetry_cell_setting           orthorhombic
_symmetry_space_group_name_H-M   'P n m a'
_symmetry_Int_Tables_number      62
_space_group_name_Hall           '-P 2ac 2n'
loop_
_symmetry_equiv_pos_site_id
_symmetry_equiv_pos_as_xyz
1 x,y,z
2 1/2+x,1/2-y,1/2-z
3 -x,1/2+y,-z
4 1/2-x,-y,1/2+z
5 -x,-y,-z
6 1/2-x,1/2+y,1/2+z
7 x,1/2-y,z
8 1/2+x,y,1/2-z
_cell_length_a                   6.3241(18)
_cell_length_b                   25.472(7)
_cell_length_c                   18.369(6)
_cell_angle_alpha                90
_cell_angle_beta                 90
_cell_angle_gamma                90
_cell_volume                     2959.02
_exptl_crystal_colour            colorless
_exptl_crystal_description       plate
_cell_formula_units_Z            4
loop_
_atom_site_label
_atom_site_type_symbol
_atom_site_fract_x
_atom_site_fract_y
_atom_site_fract_z
N1 N 0.9235(3) 0.35686(8) 0.59333(13)
H1 H 1.0038 0.3844 0.6020
N2 N 0.9830(3) 0.30590(8) 0.60737(13)
N3 N 0.6273(4) 0.40161(8) 0.54348(12)
H2 H 0.6867 0.4328 0.5469
H3 H 0.4988 0.3986 0.5255
C1 C 0.7305(4) 0.35956(10) 0.56518(14)
N4 N 0.6588(3) 0.30980(8) 0.56340(12)
C2 C 0.8179(4) 0.27872(10) 0.58985(16)
N5 N 0.4489(4) 0.29843(9) 0.54379(15)
H4 H 0.3873 0.3245 0.5229
C3 C 0.4239(7) 0.2500 0.5051(3)
H5 H 0.5265 0.2500 0.4644
H6 H 0.2808 0.2500 0.4832
N1F N 0.9235(3) 0.14314(8) 0.59333(13)
H1F H 1.0038 0.1156 0.6020
N2F N 0.9830(3) 0.19410(8) 0.60737(13)
N3F N 0.6273(4) 0.09839(8) 0.54348(12)
H2F H 0.6867 0.0672 0.5469
H3F H 0.4988 0.1014 0.5255
C1F C 0.7305(4) 0.14044(10) 0.56518(14)
N4F N 0.6588(3) 0.19020(8) 0.56340(12)
C2F C 0.8179(4) 0.22128(10) 0.58985(16)
N5F N 0.4489(4) 0.20157(9) 0.54379(15)
H4F H 0.3873 0.1755 0.5229
O1 O 0.5986(4) 0.32589(8) 0.34843(13)
O2 O 1.2070(3) 0.39412(7) 0.46045(12)
O3 O 1.2936(3) 0.47569(7) 0.45616(11)
O4 O 1.0160(3) 0.54275(7) 0.40800(12)
O5 O 0.7202(3) 0.59844(7) 0.34198(10)
O6 O 0.4795(4) 0.55801(8) 0.28310(13)
O7 O 0.3727(4) 0.37677(8) 0.29528(12)
N6 N 0.5390(4) 0.36949(9) 0.32865(13)
N7 N 1.1706(4) 0.44017(8) 0.44207(11)
N8 N 0.6364(4) 0.55735(9) 0.32207(12)
C4 C 0.6687(4) 0.41456(10) 0.34638(14)
C5 C 0.8577(4) 0.40733(10) 0.38379(14)
H7 H 0.9037 0.3730 0.3964
C6 C 0.9760(4) 0.45001(10) 0.40219(14)
C7 C 0.9150(4) 0.50391(10) 0.38724(13)
C8 C 0.7197(4) 0.50673(10) 0.34534(13)
C9 C 0.6025(4) 0.46390(10) 0.32623(14)
H8 H 0.4756 0.4681 0.2991
N9 N -0.0727(8) 0.2500 0.4315(3)
C10 C 0.0017(7) 0.2500 0.3754(3)
C11 C 0.1009(10) 0.2500 0.3072(3)
O8 O 0.6104(9) 0.32212(18) 0.7207(2)
H9 H 0.4838 0.3089 0.7234
H10 H 0.6862 0.3108 0.7570
O9 O 0.3504(14) 0.2500 0.7077(3)
H11 H 0.4709 0.2651 0.7169
H11F H 0.4709 0.2349 0.7169
O8F O 0.6104(9) 0.17788(18) 0.7207(2)
H9F H 0.4838 0.1911 0.7234
H10F H 0.6862 0.1892 0.7570
H12? H 0.7523 0.7300 0.2773
H13? H 0.0131 0.2309 0.2722
H14? H 0.2393 0.2329 0.3112
H15? H 0.1198 0.2863 0.2906
loop_
_geom_bond_atom_site_label_1
_geom_bond_atom_site_label_2
_geom_bond_site_symmetry_1
_geom_bond_site_symmetry_2
N1 H1 1_555 1_555
N2 N1 1_555 1_555
N3 H2 1_555 1_555
H3 N3 1_555 1_555
C1 N1 1_555 1_555
N4 C1 1_555 1_555
C2 N2 1_555 1_555
N5 N4 1_555 1_555
H4 N5 1_555 1_555
C3 N5 1_555 1_555
H5 C3 1_555 1_555
H6 C3 1_555 1_555
O1 N6 1_555 1_555
O2 N7 1_555 1_555
O3 N7 1_555 1_555
O4 C7 1_555 1_555
O5 N8 1_555 1_555
O6 N8 1_555 1_555
O7 N6 1_555 1_555
N6 C4 1_555 1_555
N7 C6 1_555 1_555
N8 C8 1_555 1_555
C4 C5 1_555 1_555
C5 H7 1_555 1_555
C6 C5 1_555 1_555
C7 C6 1_555 1_555
C8 C7 1_555 1_555
C9 C4 1_555 1_555
H8 C9 1_555 1_555
N9 C10 1_555 1_555
C10 C11 1_555 1_555
O8 H9 1_555 1_555
H10 O8 1_555 1_555
O9 H11 1_555 1_555
N1F H1F 1_555 1_555
N2F N1F 1_555 1_555
N3F H2F 1_555 1_555
H3F N3F 1_555 1_555
C1F N1F 1_555 1_555
N4F C1F 1_555 1_555
C2F C2 1_555 1_555
N5F C3 1_555 1_555
H4F N5F 1_555 1_555
H11F O9 1_555 1_555
O8F H9F 1_555 1_555
H10F O8F 1_555 1_555
N3 C1 1_555 1_555
N4 C2 1_555 1_555
C8 C9 1_555 1_555
N2F C2F 1_555 1_555
N3F C1F 1_555 1_555
N4F C2F 1_555 1_555
N4F N5F 1_555 1_555

#END
