
#######################################################################
#
#                 Cambridge Crystallographic Data Centre
#                                CCDC 
#
#######################################################################
#
# If this CIF has been generated from an entry in the Cambridge 
# Structural Database, then it will include bibliographic, chemical, 
# crystal, experimental, refinement or atomic coordinate data resulting 
# from the CCDC's data processing and validation procedures.
#
#######################################################################

data_WIJQAK
_chemical_formula_moiety         'C5 H10 N10 2+,3(H2 O1),2(Cl1 1-)'
_chemical_name_systematic        
"3,9-diamino-6,7-dihydro-5H-bis[1,2,4]triazolo[4,3-e:3',4'-g][1,2,4,5]tetrazepine-2,10-di-ium dichloride trihydrate"
_symmetry_cell_setting           monoclinic
_symmetry_space_group_name_H-M   'P 21/c'
_symmetry_Int_Tables_number      14
_space_group_name_Hall           '-P 2ybc'
loop_
_symmetry_equiv_pos_site_id
_symmetry_equiv_pos_as_xyz
1 x,y,z
2 -x,1/2+y,1/2-z
3 -x,-y,-z
4 x,1/2-y,1/2+z
_cell_length_a                   11.310(3)
_cell_length_b                   7.090(2)
_cell_length_c                   18.199(6)
_cell_angle_alpha                90
_cell_angle_beta                 99.480(7)
_cell_angle_gamma                90
_cell_volume                     1439.41
_exptl_crystal_colour            colorless
_exptl_crystal_description       block
_cell_formula_units_Z            4
loop_
_atom_site_label
_atom_site_type_symbol
_atom_site_fract_x
_atom_site_fract_y
_atom_site_fract_z
Cl1 Cl 0.06488(6) 0.28256(9) 0.64206(4)
Cl2 Cl 0.45332(6) 0.80706(11) 0.57293(4)
O1 O 0.34359(18) 0.2703(3) 0.18414(11)
H1 H 0.2703 0.2462 0.1678
H2 H 0.3838 0.2610 0.1487
N1 N 0.19406(18) 0.8167(3) 0.47701(11)
N2 N 0.29950(18) 0.8180(3) 0.33301(12)
N3 N 0.29533(19) 1.0119(3) 0.34767(12)
H3 H 0.3661 1.0570 0.3671
N4 N 0.2187(2) 1.0082(3) 0.46806(11)
H4 H 0.2887 1.0418 0.4933
N5 N 0.1913(2) 0.5050(3) 0.46974(11)
N6 N 0.2844(2) 0.5069(3) 0.33343(12)
N7 N 0.3292(2) 0.5695(3) 0.27198(13)
N8 N 0.14518(19) 0.5681(3) 0.53082(12)
H5 H 0.1181 0.4933 0.5629
N9 N 0.3729(2) 0.8647(3) 0.21973(13)
H6 H 0.3979 0.8147 0.1808
H7 H 0.3725 0.9880 0.2252
N10 N 0.1106(2) 0.8628(3) 0.58667(13)
H8 H 0.0813 0.8116 0.6239
H9 H 0.1162 0.9863 0.5835
C1 C 0.2214(2) 0.6589(4) 0.43859(14)
C2 C 0.2696(2) 0.6603(4) 0.36987(14)
C3 C 0.1463(2) 0.7547(4) 0.53569(14)
C4 C 0.2028(2) 1.0671(4) 0.38988(14)
H10 H 0.1255 1.0158 0.3643
H11 H 0.1963 1.2064 0.3883
C5 C 0.3359(2) 0.7550(4) 0.26975(15)
H12 H 0.344(2) 0.483(3) 0.2376(14)
O2 O 0.0552(2) 0.6879(3) 0.71432(12)
H13 H 0.0116 0.7187 0.7462
H14 H 0.0438 0.5724 0.7028
O3 O 0.4573(2) 0.1597(3) 0.07355(13)
H15 H 0.4624 0.0414 0.0673
H16 H 0.4601 0.2160 0.0326
loop_
_geom_bond_atom_site_label_1
_geom_bond_atom_site_label_2
_geom_bond_site_symmetry_1
_geom_bond_site_symmetry_2
O1 H1 1_555 1_555
H2 O1 1_555 1_555
N1 N4 1_555 1_555
N2 N3 1_555 1_555
N3 H3 1_555 1_555
N4 H4 1_555 1_555
N5 N8 1_555 1_555
N6 N7 1_555 1_555
N7 C5 1_555 1_555
N8 H5 1_555 1_555
N9 H6 1_555 1_555
H7 N9 1_555 1_555
N10 H8 1_555 1_555
H9 N10 1_555 1_555
C1 N1 1_555 1_555
C2 N2 1_555 1_555
C3 N1 1_555 1_555
C4 N3 1_555 1_555
H10 C4 1_555 1_555
H11 C4 1_555 1_555
C5 N2 1_555 1_555
H12 N7 1_555 1_555
O2 H13 1_555 1_555
H14 O2 1_555 1_555
O3 H15 1_555 1_555
H16 O3 1_555 1_555
N4 C4 1_555 1_555
N5 C1 1_555 1_555
N6 C2 1_555 1_555
N8 C3 1_555 1_555
N9 C5 1_555 1_555
N10 C3 1_555 1_555
C1 C2 1_555 1_555

#END
