
#######################################################################
#
#                 Cambridge Crystallographic Data Centre
#                                CCDC 
#
#######################################################################
#
# If this CIF has been generated from an entry in the Cambridge 
# Structural Database, then it will include bibliographic, chemical, 
# crystal, experimental, refinement or atomic coordinate data resulting 
# from the CCDC's data processing and validation procedures.
#
#######################################################################

data_WIJXEV
_chemical_formula_moiety         'C17 H14 F3 N3 O3'
_chemical_name_systematic        
2-amino-N-[2-(4,5-dihydro-1,3-oxazol-2-yl)phenyl]-5-(trifluoromethoxy)benzamide
_symmetry_cell_setting           monoclinic
_symmetry_space_group_name_H-M   'P 21/n'
_symmetry_Int_Tables_number      14
_space_group_name_Hall           '-P 2yn'
loop_
_symmetry_equiv_pos_site_id
_symmetry_equiv_pos_as_xyz
1 x,y,z
2 1/2-x,1/2+y,1/2-z
3 -x,-y,-z
4 1/2+x,1/2-y,1/2+z
_cell_length_a                   11.390(2)
_cell_length_b                   31.815(6)
_cell_length_c                   17.352(3)
_cell_angle_alpha                90
_cell_angle_beta                 92.79(3)
_cell_angle_gamma                90
_cell_volume                     6280.44
_exptl_crystal_colour            colorless
_exptl_crystal_description       rod
_cell_formula_units_Z            16
loop_
_atom_site_label
_atom_site_type_symbol
_atom_site_fract_x
_atom_site_fract_y
_atom_site_fract_z
C1 C 1.09414(10) 0.29480(4) 0.88461(7)
C2 C 1.06930(10) 0.30869(4) 0.95925(7)
H1 H 1.005993 0.296592 0.985187
C3 C 1.13645(11) 0.33968(4) 0.99451(7)
C4 C 1.23105(11) 0.35776(4) 0.95924(8)
H2 H 1.277051 0.378877 0.984988
C5 C 1.25709(11) 0.34464(4) 0.88649(7)
H3 H 1.321956 0.356812 0.862287
C6 C 1.18957(10) 0.31347(4) 0.84703(7)
N1 N 1.21485(10) 0.30338(4) 0.77316(6)
H4 H 1.272556 0.316241 0.750834
H5 H 1.173446 0.284005 0.747888
O1 O 1.11714(8) 0.35274(3) 1.07124(5)
C7 C 1.01894(12) 0.37449(4) 1.08282(7)
F1 F 0.99588(8) 0.40407(3) 1.03025(5)
F2 F 0.92347(8) 0.34985(3) 1.08268(6)
F3 F 1.03013(8) 0.39254(3) 1.15167(5)
C8 C 1.02319(10) 0.26126(4) 0.84409(7)
O2 O 1.02831(8) 0.25531(3) 0.77418(5)
N2 N 0.95278(9) 0.23753(3) 0.88866(6)
H6 H 0.9431(14) 0.2459(5) 0.9372(10)
C9 C 0.86547(10) 0.20963(4) 0.85984(7)
C10 C 0.87601(12) 0.18771(4) 0.79052(7)
H7 H 0.945234 0.190581 0.762577
C11 C 0.78551(13) 0.16179(4) 0.76251(8)
H8 H 0.793199 0.147212 0.715245
C12 C 0.68398(12) 0.15693(4) 0.80274(8)
H9 H 0.621438 0.139859 0.782385
C13 C 0.67472(11) 0.17717(4) 0.87273(7)
H10 H 0.606165 0.173223 0.900955
C14 C 0.76450(10) 0.20334(4) 0.90272(7)
C15 C 0.74880(10) 0.22416(4) 0.97723(7)
O3 O 0.63869(8) 0.22177(3) 1.00344(5)
C16 C 0.64487(11) 0.24086(4) 1.07961(7)
H11 H 0.637654 0.219361 1.120353
H12 H 0.582129 0.262098 1.084425
C17 C 0.76678(12) 0.26143(4) 1.08485(8)
H13 H 0.760310 0.292410 1.081349
H14 H 0.809758 0.253950 1.133908
N3 N 0.82673(9) 0.24421(3) 1.01810(6)
C18 C 1.10206(10) 0.19115(4) 0.39118(7)
C19 C 1.04636(10) 0.17064(4) 0.45104(7)
H15 H 0.972942 0.180741 0.467046
C20 C 1.09695(11) 0.13613(4) 0.48666(7)
C21 C 1.20515(11) 0.12078(4) 0.46602(7)
H16 H 1.238921 0.096782 0.491007
C22 C 1.26265(11) 0.14103(4) 0.40855(7)
H17 H 1.337900 0.131252 0.395413
C23 C 1.21273(10) 0.17590(4) 0.36873(7)
N4 N 1.27106(9) 0.19367(4) 0.31036(6)
H18 H 1.339264 0.183422 0.297742
H19 H 1.240558 0.215414 0.285236
O4 O 1.03061(8) 0.11394(3) 0.54061(5)
C24 C 1.05557(14) 0.12271(4) 0.61484(8)
F4 F 1.16448(9) 0.11153(3) 0.63873(5)
F5 F 1.04498(12) 0.16341(3) 0.63198(6)
F6 F 0.98167(10) 0.10148(3) 0.65683(6)
C25 C 1.04032(10) 0.22543(4) 0.34637(7)
O5 O 1.06389(8) 0.23369(3) 0.27955(5)
N5 N 0.95457(9) 0.24536(3) 0.38485(6)
H20 H 0.9451(14) 0.2391(5) 0.4338(10)
C26 C 0.87633(10) 0.27655(4) 0.35771(7)
C27 C 0.88540(11) 0.29639(4) 0.28628(7)
H21 H 0.947202 0.288958 0.254053
C28 C 0.80461(12) 0.32685(4) 0.26234(7)
H22 H 0.811920 0.340188 0.213828
C29 C 0.71302(11) 0.33818(4) 0.30824(7)
H23 H 0.657153 0.358668 0.290786
C30 C 0.70405(11) 0.31934(4) 0.37954(7)
H24 H 0.641943 0.327228 0.411167
C31 C 0.78496(10) 0.28885(4) 0.40584(7)
C32 C 0.77425(10) 0.27163(4) 0.48404(7)
O6 O 0.67699(8) 0.28384(3) 0.52054(5)
C33 C 0.68788(12) 0.26578(4) 0.59757(7)
H25 H 0.619899 0.247483 0.607339
H26 H 0.693266 0.288096 0.637355
C34 C 0.80226(12) 0.24010(4) 0.59759(7)
H27 H 0.859134 0.249953 0.638636
H28 H 0.786444 0.209854 0.605564
N6 N 0.84736(9) 0.24755(3) 0.52054(6)
C35 C 0.82453(10) 0.10267(4) 0.19103(7)
C36 C 0.82817(11) 0.06484(4) 0.23260(7)
H29 H 0.765914 0.045127 0.225642
C37 C 0.92137(12) 0.05619(4) 0.28331(7)
C38 C 1.01526(11) 0.08376(5) 0.29444(8)
H30 H 1.079469 0.077081 0.329289
C39 C 1.01323(11) 0.12079(5) 0.25407(8)
H31 H 1.077578 0.139642 0.260878
C40 C 0.91838(11) 0.13171(4) 0.20269(7)
N7 N 0.91943(10) 0.17078(4) 0.16931(7)
H32 H 0.978084 0.188132 0.180194
H33 H 0.861455 0.178496 0.137005
O7 O 0.92568(9) 0.01665(3) 0.32150(6)
C41 C 0.87711(14) 0.01548(5) 0.39030(9)
F7 F 0.89304(11) -0.02230(3) 0.41980(6)
F8 F 0.92359(12) 0.04314(4) 0.44003(6)
F9 F 0.76251(10) 0.02315(5) 0.38518(8)
C42 C 0.72678(10) 0.11227(4) 0.13316(7)
O8 O 0.72054(8) 0.14641(3) 0.09967(6)
N8 N 0.64653(9) 0.08096(3) 0.11960(6)
H34 H 0.6535(14) 0.0588(5) 0.1450(9)
C43 C 0.54876(10) 0.08116(4) 0.06723(7)
C44 C 0.52297(11) 0.11441(4) 0.01643(7)
H35 H 0.572446 0.138453 0.016781
C45 C 0.42498(12) 0.11235(5) -0.03464(8)
H36 H 0.408446 0.135080 -0.068988
C46 C 0.35115(11) 0.07770(5) -0.03619(8)
H37 H 0.284548 0.076612 -0.071288
C47 C 0.37561(11) 0.04477(4) 0.01390(8)
H38 H 0.325377 0.020916 0.012724
C48 C 0.47305(10) 0.04582(4) 0.06646(7)
C49 C 0.49088(11) 0.01049(4) 0.12034(7)
O9 O 0.40299(9) -0.01841(3) 0.11850(6)
C50 C 0.43599(15) -0.04910(5) 0.17757(10)
H39 H 0.440553 -0.077629 0.155132
H40 H 0.378516 -0.049371 0.218563
C51 C 0.55673(14) -0.03462(4) 0.20962(9)
H41 H 0.556041 -0.029700 0.265936
H42 H 0.617736 -0.055789 0.199378
N9 N 0.57837(10) 0.00483(4) 0.16820(7)
C52 C 0.33872(10) 0.08400(4) 0.22310(7)
C53 C 0.31571(11) 0.04648(4) 0.26260(7)
H43 H 0.247456 0.030575 0.248390
C54 C 0.39091(11) 0.03260(4) 0.32150(7)
C55 C 0.49263(11) 0.05437(4) 0.34350(8)
H44 H 0.544615 0.044040 0.383596
C56 C 0.51657(11) 0.09131(4) 0.30587(8)
H45 H 0.586225 0.106345 0.320403
C57 C 0.44051(10) 0.10745(4) 0.24630(7)
N10 N 0.46546(9) 0.14587(3) 0.21520(7)
H46 H 0.527856 0.159961 0.232393
H47 H 0.419077 0.156429 0.178043
O10 O 0.36790(9) -0.00682(3) 0.35609(6)
C58 C 0.30430(13) -0.00593(5) 0.41888(9)
F10 F 0.35559(12) 0.01555(4) 0.47705(6)
F11 F 0.19892(9) 0.01140(4) 0.40570(7)
F12 F 0.28835(10) -0.04502(3) 0.44183(6)
C59 C 0.25705(10) 0.09922(4) 0.15908(7)
O11 O 0.26000(8) 0.13574(3) 0.13564(6)
N11 N 0.17986(9) 0.06991(3) 0.12978(6)
H48 H 0.1838(14) 0.0449(5) 0.1484(9)
C60 C 0.08163(10) 0.07596(4) 0.07894(7)
C61 C 0.06459(11) 0.11243(4) 0.03487(7)
H49 H 0.122526 0.133933 0.036953
C62 C -0.03706(12) 0.11728(5) -0.01200(8)
H50 H -0.048625 0.142433 -0.040880
C63 C -0.12201(12) 0.08591(5) -0.01729(8)
H51 H -0.191165 0.089562 -0.049450
C64 C -0.10478(11) 0.04933(4) 0.02477(8)
H52 H -0.161956 0.027608 0.020459
C65 C -0.00440(10) 0.04376(4) 0.07366(7)
C66 C 0.00584(11) 0.00541(4) 0.12070(7)
O12 O -0.09170(9) -0.01942(3) 0.11962(6)
C67 C -0.06317(14) -0.05399(5) 0.17188(9)
H53 H -0.069802 -0.081275 0.144592
H54 H -0.116193 -0.054208 0.215427
C68 C 0.06430(13) -0.04565(4) 0.20063(8)
H55 H 0.070137 -0.042589 0.257459
H56 H 0.116578 -0.068786 0.185529
N12 N 0.09507(10) -0.00613(3) 0.16257(6)
loop_
_geom_bond_atom_site_label_1
_geom_bond_atom_site_label_2
_geom_bond_site_symmetry_1
_geom_bond_site_symmetry_2
C1 C2 1_555 1_555
C2 H1 1_555 1_555
C3 C2 1_555 1_555
C4 C3 1_555 1_555
H2 C4 1_555 1_555
C5 C4 1_555 1_555
H3 C5 1_555 1_555
C6 C1 1_555 1_555
N1 C6 1_555 1_555
H4 N1 1_555 1_555
H5 N1 1_555 1_555
O1 C3 1_555 1_555
C7 O1 1_555 1_555
F1 C7 1_555 1_555
F2 C7 1_555 1_555
F3 C7 1_555 1_555
C8 C1 1_555 1_555
O2 C8 1_555 1_555
N2 C8 1_555 1_555
H6 N2 1_555 1_555
C9 N2 1_555 1_555
C10 C9 1_555 1_555
H7 C10 1_555 1_555
C11 C10 1_555 1_555
H8 C11 1_555 1_555
C12 C11 1_555 1_555
H9 C12 1_555 1_555
C13 C12 1_555 1_555
H10 C13 1_555 1_555
C14 C9 1_555 1_555
C15 C14 1_555 1_555
O3 C15 1_555 1_555
C16 O3 1_555 1_555
H11 C16 1_555 1_555
H12 C16 1_555 1_555
C17 C16 1_555 1_555
H13 C17 1_555 1_555
H14 C17 1_555 1_555
N3 C15 1_555 1_555
C18 C19 1_555 1_555
C19 H15 1_555 1_555
C20 C19 1_555 1_555
C21 C20 1_555 1_555
H16 C21 1_555 1_555
C22 C21 1_555 1_555
H17 C22 1_555 1_555
C23 C18 1_555 1_555
N4 C23 1_555 1_555
H18 N4 1_555 1_555
H19 N4 1_555 1_555
O4 C20 1_555 1_555
C24 O4 1_555 1_555
F4 C24 1_555 1_555
F5 C24 1_555 1_555
F6 C24 1_555 1_555
C25 C18 1_555 1_555
O5 C25 1_555 1_555
N5 C25 1_555 1_555
H20 N5 1_555 1_555
C26 N5 1_555 1_555
C27 C26 1_555 1_555
H21 C27 1_555 1_555
C28 C27 1_555 1_555
H22 C28 1_555 1_555
C29 C28 1_555 1_555
H23 C29 1_555 1_555
C30 C29 1_555 1_555
H24 C30 1_555 1_555
C31 C26 1_555 1_555
C32 C31 1_555 1_555
O6 C32 1_555 1_555
C33 O6 1_555 1_555
H25 C33 1_555 1_555
H26 C33 1_555 1_555
C34 C33 1_555 1_555
H27 C34 1_555 1_555
H28 C34 1_555 1_555
N6 C32 1_555 1_555
C35 C36 1_555 1_555
C36 H29 1_555 1_555
C37 C36 1_555 1_555
C38 C37 1_555 1_555
H30 C38 1_555 1_555
C39 C38 1_555 1_555
H31 C39 1_555 1_555
C40 C35 1_555 1_555
N7 C40 1_555 1_555
H32 N7 1_555 1_555
H33 N7 1_555 1_555
O7 C37 1_555 1_555
C41 O7 1_555 1_555
F7 C41 1_555 1_555
F8 C41 1_555 1_555
F9 C41 1_555 1_555
C42 C35 1_555 1_555
O8 C42 1_555 1_555
N8 C42 1_555 1_555
H34 N8 1_555 1_555
C43 N8 1_555 1_555
C44 C43 1_555 1_555
H35 C44 1_555 1_555
C45 C44 1_555 1_555
H36 C45 1_555 1_555
C46 C45 1_555 1_555
H37 C46 1_555 1_555
C47 C46 1_555 1_555
H38 C47 1_555 1_555
C48 C43 1_555 1_555
C49 C48 1_555 1_555
O9 C49 1_555 1_555
C50 O9 1_555 1_555
H39 C50 1_555 1_555
H40 C50 1_555 1_555
C51 C50 1_555 1_555
H41 C51 1_555 1_555
H42 C51 1_555 1_555
N9 C49 1_555 1_555
C52 C53 1_555 1_555
C53 H43 1_555 1_555
C54 C53 1_555 1_555
C55 C54 1_555 1_555
H44 C55 1_555 1_555
C56 C55 1_555 1_555
H45 C56 1_555 1_555
C57 C52 1_555 1_555
N10 C57 1_555 1_555
H46 N10 1_555 1_555
H47 N10 1_555 1_555
O10 C54 1_555 1_555
C58 O10 1_555 1_555
F10 C58 1_555 1_555
F11 C58 1_555 1_555
F12 C58 1_555 1_555
C59 C52 1_555 1_555
O11 C59 1_555 1_555
N11 C59 1_555 1_555
H48 N11 1_555 1_555
C60 N11 1_555 1_555
C61 C60 1_555 1_555
H49 C61 1_555 1_555
C62 C61 1_555 1_555
H50 C62 1_555 1_555
C63 C62 1_555 1_555
H51 C63 1_555 1_555
C64 C63 1_555 1_555
H52 C64 1_555 1_555
C65 C60 1_555 1_555
C66 C65 1_555 1_555
O12 C66 1_555 1_555
C67 O12 1_555 1_555
H53 C67 1_555 1_555
H54 C67 1_555 1_555
C68 C67 1_555 1_555
H55 C68 1_555 1_555
H56 C68 1_555 1_555
N12 C66 1_555 1_555
C5 C6 1_555 1_555
C13 C14 1_555 1_555
C17 N3 1_555 1_555
C22 C23 1_555 1_555
C30 C31 1_555 1_555
C34 N6 1_555 1_555
C39 C40 1_555 1_555
C47 C48 1_555 1_555
C51 N9 1_555 1_555
C56 C57 1_555 1_555
C64 C65 1_555 1_555
C68 N12 1_555 1_555

#END
