
#######################################################################
#
#                 Cambridge Crystallographic Data Centre
#                                CCDC 
#
#######################################################################
#
# If this CIF has been generated from an entry in the Cambridge 
# Structural Database, then it will include bibliographic, chemical, 
# crystal, experimental, refinement or atomic coordinate data resulting 
# from the CCDC's data processing and validation procedures.
#
#######################################################################

data_WIJXIZ
_chemical_formula_moiety         'C23 H18 O1'
_chemical_name_systematic        7,7-dimethyl-7H-dibenzo[c,h]xanthene
_symmetry_cell_setting           monoclinic
_symmetry_space_group_name_H-M   'P 21/c'
_symmetry_Int_Tables_number      14
_space_group_name_Hall           '-P 2ybc'
loop_
_symmetry_equiv_pos_site_id
_symmetry_equiv_pos_as_xyz
1 x,y,z
2 -x,1/2+y,1/2-z
3 -x,-y,-z
4 x,1/2-y,1/2+z
_cell_length_a                   16.368(3)
_cell_length_b                   10.4558(19)
_cell_length_c                   9.7906(18)
_cell_angle_alpha                90
_cell_angle_beta                 96.342(3)
_cell_angle_gamma                90
_cell_volume                     1665.31
_exptl_crystal_colour            colorless
_exptl_crystal_description       Block
_cell_formula_units_Z            4
loop_
_atom_site_label
_atom_site_type_symbol
_atom_site_fract_x
_atom_site_fract_y
_atom_site_fract_z
C1 C 0.42690(10) 0.42929(15) 0.67001(17)
C2 C 0.47406(10) 0.49791(18) 0.7746(2)
H1 H 0.4480 0.5485 0.8348
C3 C 0.55807(12) 0.4905(2) 0.7881(3)
H2 H 0.5888 0.5354 0.8579
C4 C 0.59787(14) 0.4151(3) 0.6968(3)
H3 H 0.6550 0.4106 0.7060
C5 C 0.55373(16) 0.3493(2) 0.5959(3)
H4 H 0.5811 0.3000 0.5363
C6 C 0.46693(13) 0.35308(18) 0.5782(2)
C7 C 0.41933(17) 0.2868(2) 0.4729(2)
H5 H 0.4454 0.2371 0.4120
C8 C 0.33613(16) 0.29366(19) 0.4583(2)
H6 H 0.3064 0.2483 0.3877
C9 C 0.29326(12) 0.36835(15) 0.54810(17)
C10 C 0.33978(10) 0.43313(14) 0.65038(15)
C11 C 0.22194(9) 0.50496(14) 0.74726(15)
C12 C 0.16978(10) 0.44440(16) 0.64926(16)
C13 C 0.20072(12) 0.3797(2) 0.52603(18)
C14 C 0.17737(14) 0.4663(3) 0.3987(2)
H7 H 0.1188 0.4773 0.3853
H8 H 0.1955 0.4269 0.3188
H9 H 0.2034 0.5482 0.4134
C15 C 0.1616(2) 0.2463(3) 0.5047(4)
H10 H 0.1766 0.1948 0.5848
H11 H 0.1810 0.2064 0.4261
H12 H 0.1029 0.2545 0.4901
C16 C 0.08439(11) 0.4494(2) 0.6657(2)
H13 H 0.0471 0.4096 0.6006
C17 C 0.05587(10) 0.5098(2) 0.7719(2)
H14 H -0.0003 0.5101 0.7790
C18 C 0.10938(9) 0.57271(16) 0.87276(17)
C19 C 0.19457(9) 0.57065(14) 0.86101(15)
C20 C 0.24855(10) 0.63246(17) 0.96226(18)
H15 H 0.3048 0.6313 0.9561
C21 C 0.21872(13) 0.69402(19) 1.0694(2)
H16 H 0.2549 0.7348 1.1354
C22 C 0.13504(14) 0.6964(2) 1.0811(2)
H17 H 0.1156 0.7385 1.1546
C23 C 0.08183(12) 0.63797(19) 0.9862(2)
H18 H 0.0259 0.6405 0.9953
O1 O 0.30579(6) 0.50901(11) 0.74453(12)
loop_
_geom_bond_atom_site_label_1
_geom_bond_atom_site_label_2
_geom_bond_site_symmetry_1
_geom_bond_site_symmetry_2
C1 C2 1_555 1_555
C2 H1 1_555 1_555
C3 C2 1_555 1_555
H2 C3 1_555 1_555
C4 C3 1_555 1_555
H3 C4 1_555 1_555
C5 C4 1_555 1_555
H4 C5 1_555 1_555
C6 C1 1_555 1_555
C7 C6 1_555 1_555
H5 C7 1_555 1_555
C8 C7 1_555 1_555
H6 C8 1_555 1_555
C9 C8 1_555 1_555
C10 C1 1_555 1_555
C11 C12 1_555 1_555
C12 C13 1_555 1_555
C13 C9 1_555 1_555
C14 C13 1_555 1_555
H7 C14 1_555 1_555
H8 C14 1_555 1_555
H9 C14 1_555 1_555
C15 C13 1_555 1_555
H10 C15 1_555 1_555
H11 C15 1_555 1_555
H12 C15 1_555 1_555
C16 C12 1_555 1_555
H13 C16 1_555 1_555
C17 C16 1_555 1_555
H14 C17 1_555 1_555
C18 C17 1_555 1_555
C19 C11 1_555 1_555
C20 C19 1_555 1_555
H15 C20 1_555 1_555
C21 C20 1_555 1_555
H16 C21 1_555 1_555
C22 C21 1_555 1_555
H17 C22 1_555 1_555
C23 C18 1_555 1_555
H18 C23 1_555 1_555
O1 C10 1_555 1_555
C5 C6 1_555 1_555
C9 C10 1_555 1_555
C11 O1 1_555 1_555
C18 C19 1_555 1_555
C22 C23 1_555 1_555

#END
