
#######################################################################
#
#                 Cambridge Crystallographic Data Centre
#                                CCDC 
#
#######################################################################
#
# If this CIF has been generated from an entry in the Cambridge 
# Structural Database, then it will include bibliographic, chemical, 
# crystal, experimental, refinement or atomic coordinate data resulting 
# from the CCDC's data processing and validation procedures.
#
#######################################################################

data_WIKCOI
_chemical_formula_moiety         'C19 H16 O3 S3,C9 H16 O1'
_chemical_name_systematic        
'tris(5-Acetyl-3-thienyl)methane cyclonanone clathrate'
_symmetry_cell_setting           monoclinic
_symmetry_space_group_name_H-M   'P 21/c'
_symmetry_Int_Tables_number      14
_space_group_name_Hall           '-P 2ybc'
loop_
_symmetry_equiv_pos_site_id
_symmetry_equiv_pos_as_xyz
1 x,y,z
2 -x,1/2+y,1/2-z
3 -x,-y,-z
4 x,1/2-y,1/2+z
_cell_length_a                   10.994(2)
_cell_length_b                   19.464(4)
_cell_length_c                   13.417(1)
_cell_angle_alpha                90
_cell_angle_beta                 109.40(1)
_cell_angle_gamma                90
_cell_volume                     2708.05
_exptl_crystal_colour            'pale yellow'
_cell_formula_units_Z            4
loop_
_atom_site_label
_atom_site_type_symbol
_atom_site_fract_x
_atom_site_fract_y
_atom_site_fract_z
S1 S 1.11335(8) -0.05284(4) 0.12793(7)
S2 S 0.79164(8) -0.24288(4) 0.39006(6)
S3 S 0.41166(7) -0.09612(4) -0.02957(6)
O1 O 1.1516(2) 0.0964(1) 0.1733(2)
O2 O 0.8103(3) -0.1640(1) 0.5816(2)
O3 O 0.3355(2) -0.0348(1) -0.2449(2)
C1 C 0.7847(3) -0.1473(1) 0.1219(2)
C2 C 0.8940(3) -0.0983(2) 0.1278(2)
C3 C 1.0061(3) -0.1180(2) 0.1135(2)
C4 C 1.0080(3) 0.0045(2) 0.1528(2)
C5 C 0.8958(3) -0.0272(2) 0.1499(2)
C6 C 1.0445(3) 0.0771(2) 0.1702(2)
C7 C 0.9461(3) 0.1269(2) 0.1805(3)
C8 C 0.7836(3) -0.1681(2) 0.2307(2)
C9 C 0.7886(3) -0.2347(2) 0.2626(2)
C10 C 0.7869(3) -0.1550(2) 0.4035(2)
C11 C 0.7818(3) -0.1218(2) 0.3118(2)
C12 C 0.7972(3) -0.1261(2) 0.5067(3)
C13 C 0.7950(4) -0.0499(2) 0.5181(3)
C14 C 0.6549(3) -0.1198(1) 0.0520(2)
C15 C 0.5414(3) -0.1267(2) 0.0711(2)
C16 C 0.5090(3) -0.0715(2) -0.1004(2)
C17 C 0.6364(3) -0.0874(2) -0.0471(2)
C18 C 0.4529(3) -0.0374(2) -0.2026(2)
C19 C 0.5421(3) -0.0058(2) -0.2520(3)
H1 H 0.800 -0.188 0.089
H2 H 1.023 -0.164 0.097
H3 H 0.826 -0.004 0.162
H4 H 0.982(2) 0.168(2) 0.207(2)
H5 H 0.905 0.108 0.226
H6 H 0.884 0.135 0.113
H7 H 0.790 -0.273 0.219
H8 H 0.778 -0.073 0.304
H9 H 0.773(2) -0.041(2) 0.574(2)
H10 H 0.734 -0.030 0.457
H11 H 0.878 -0.032 0.527
H12 H 0.535 -0.147 0.134
H13 H 0.705 -0.078 -0.074
H14 H 0.603(2) -0.036(2) -0.256(2)
H15 H 0.583 0.033 -0.211
H16 H 0.493 0.009 -0.321
O4 O 0.7136(15) 0.3047(7) 0.4013(13)
C20 C 0.7278(12) 0.2440(7) 0.3916(16)
C21 C 0.8548(12) 0.2095(9) 0.4503(11)
C22 C 0.8611(17) 0.1592(10) 0.5365(13)
C23 C 0.7952(14) 0.1659(11) 0.6170(13)
C24 C 0.6744(14) 0.2084(9) 0.6010(15)
C25 C 0.5488(14) 0.1677(11) 0.5544(11)
C26 C 0.5382(18) 0.1315(8) 0.4496(11)
C27 C 0.5094(12) 0.1817(9) 0.3589(11)
C28 C 0.6216(12) 0.1991(9) 0.3200(11)
H17 H 0.915 0.245 0.480
H18 H 0.881 0.185 0.400
H19 H 0.950 0.156 0.577
H20 H 0.832 0.117 0.502
H21 H 0.770 0.121 0.628
H22 H 0.859 0.182 0.680
H23 H 0.679 0.227 0.668
H24 H 0.675 0.245 0.554
H25 H 0.480 0.200 0.539
H26 H 0.542 0.136 0.606
H27 H 0.470 0.099 0.436
H28 H 0.617 0.108 0.460
H29 H 0.444 0.161 0.302
H30 H 0.478 0.224 0.378
H31 H 0.586 0.222 0.254
H32 H 0.660 0.157 0.310
O5? O 0.7167(9) 0.3024(4) 0.3967(7)
C29? C 0.7097(5) 0.2409(3) 0.3882(6)
C30? C 0.8329(6) 0.2007(3) 0.4133(4)
C31? C 0.8497(5) 0.1374(2) 0.4797(4)
C32? C 0.8661(5) 0.1495(3) 0.5969(3)
C33? C 0.7626(5) 0.1908(3) 0.6224(4)
C34? C 0.6434(5) 0.1488(3) 0.6105(5)
C35? C 0.5570(6) 0.1301(3) 0.5022(5)
C36? C 0.5087(5) 0.1880(3) 0.4230(5)
C37? C 0.5818(5) 0.2037(3) 0.3455(5)
H33? H 0.902 0.231 0.448
H34? H 0.841 0.187 0.348
H35? H 0.776 0.109 0.450
H36? H 0.924 0.114 0.477
H37? H 0.946 0.173 0.628
H38? H 0.870 0.106 0.629
H39? H 0.740 0.229 0.576
H40? H 0.796 0.207 0.693
H41? H 0.671 0.107 0.647
H42? H 0.593 0.174 0.643
H43? H 0.603 0.099 0.473
H44? H 0.484 0.108 0.509
H45? H 0.422 0.177 0.382
H46? H 0.510 0.229 0.463
H47? H 0.527 0.231 0.291
H48? H 0.597 0.161 0.317
loop_
_geom_bond_atom_site_label_1
_geom_bond_atom_site_label_2
_geom_bond_site_symmetry_1
_geom_bond_site_symmetry_2
S1 C3 1_555 1_555
S2 C9 1_555 1_555
S3 C15 1_555 1_555
O1 C6 1_555 1_555
O2 C12 1_555 1_555
O3 C18 1_555 1_555
C1 C2 1_555 1_555
C2 C3 1_555 1_555
C3 H2 1_555 1_555
C4 S1 1_555 1_555
C5 C2 1_555 1_555
C6 C4 1_555 1_555
C7 C6 1_555 1_555
C8 C1 1_555 1_555
C9 C8 1_555 1_555
C10 S2 1_555 1_555
C11 C8 1_555 1_555
C12 C10 1_555 1_555
C13 C12 1_555 1_555
C14 C1 1_555 1_555
C15 C14 1_555 1_555
C16 S3 1_555 1_555
C17 C14 1_555 1_555
C18 C16 1_555 1_555
C19 C18 1_555 1_555
O4 C20 1_555 1_555
C20 C21 1_555 1_555
C21 C22 1_555 1_555
C22 C23 1_555 1_555
C23 C24 1_555 1_555
C24 C25 1_555 1_555
C25 C26 1_555 1_555
C26 C27 1_555 1_555
C27 C28 1_555 1_555
C28 C20 1_555 1_555
H1 C1 1_555 1_555
H3 C5 1_555 1_555
H4 C7 1_555 1_555
H5 C7 1_555 1_555
H6 C7 1_555 1_555
H7 C9 1_555 1_555
H8 C11 1_555 1_555
H9 C13 1_555 1_555
H10 C13 1_555 1_555
H11 C13 1_555 1_555
H12 C15 1_555 1_555
H13 C17 1_555 1_555
H14 C19 1_555 1_555
H15 C19 1_555 1_555
H16 C19 1_555 1_555
H17 C21 1_555 1_555
H18 C21 1_555 1_555
H19 C22 1_555 1_555
H20 C22 1_555 1_555
H21 C23 1_555 1_555
H22 C23 1_555 1_555
H23 C24 1_555 1_555
H24 C24 1_555 1_555
H25 C25 1_555 1_555
H26 C25 1_555 1_555
H27 C26 1_555 1_555
H28 C26 1_555 1_555
H29 C27 1_555 1_555
H30 C27 1_555 1_555
H31 C28 1_555 1_555
H32 C28 1_555 1_555
C4 C5 1_555 1_555
C10 C11 1_555 1_555
C16 C17 1_555 1_555

#END
