
#######################################################################
#
#                 Cambridge Crystallographic Data Centre
#                                CCDC 
#
#######################################################################
#
# If this CIF has been generated from an entry in the Cambridge 
# Structural Database, then it will include bibliographic, chemical, 
# crystal, experimental, refinement or atomic coordinate data resulting 
# from the CCDC's data processing and validation procedures.
#
#######################################################################

data_WIKDAV02
_chemical_formula_moiety         'C10 H8 O3,H2 O1'
_chemical_name_systematic        
'7-Hydroxy-4-methyl-2H-chromen-2-one monohydrate'
_symmetry_cell_setting           monoclinic
_symmetry_space_group_name_H-M   'P 21/n'
_symmetry_Int_Tables_number      14
_space_group_name_Hall           '-P 2yn'
loop_
_symmetry_equiv_pos_site_id
_symmetry_equiv_pos_as_xyz
1 x,y,z
2 1/2-x,1/2+y,1/2-z
3 -x,-y,-z
4 1/2+x,1/2-y,1/2+z
_cell_length_a                   7.1239(6)
_cell_length_b                   11.3561(7)
_cell_length_c                   11.8347(9)
_cell_angle_alpha                90
_cell_angle_beta                 105.298(8)
_cell_angle_gamma                90
_cell_volume                     923.499
_cell_formula_units_Z            4
loop_
_atom_site_label
_atom_site_type_symbol
_atom_site_fract_x
_atom_site_fract_y
_atom_site_fract_z
O1 O 0.8318(2) 0.16963(11) 0.50895(12)
O2 O 0.9586(3) 0.33971(13) 0.57610(15)
O3 O 0.5437(3) -0.18876(13) 0.34389(14)
H1 H 0.5326 -0.1513 0.2832
C1 C 0.7912(3) 0.05266(16) 0.52486(18)
C2 C 0.6917(3) -0.00724(17) 0.42552(18)
H2 H 0.6575 0.0301 0.3530
C3 C 0.6440(3) -0.12380(18) 0.43642(19)
C4 C 0.6974(3) -0.17900(18) 0.5450(2)
H3 H 0.6650 -0.2576 0.5516
C5 C 0.7975(3) -0.11855(18) 0.6423(2)
H4 H 0.8328 -0.1568 0.7143
C6 C 0.8479(3) 0.00089(17) 0.63517(18)
C7 C 0.9557(3) 0.07063(18) 0.73246(18)
C8 C 0.9929(3) 0.18424(18) 0.71321(19)
H5 H 1.0615 0.2297 0.7759
C9 C 0.9313(4) 0.23699(19) 0.6007(2)
C10 C 1.0253(4) 0.0161(2) 0.8519(2)
H6 H 1.0993 0.0729 0.9056
H7 H 1.1058 -0.0508 0.8479
H8 H 0.9154 -0.0088 0.8784
O4 O 0.4734(3) -0.07684(19) 0.13976(18)
H9 H 0.497(5) -0.109(3) 0.079(3)
H10 H 0.475(5) -0.005(3) 0.127(3)
loop_
_geom_bond_atom_site_label_1
_geom_bond_atom_site_label_2
_geom_bond_site_symmetry_1
_geom_bond_site_symmetry_2
O1 C1 1_555 1_555
O2 C9 1_555 1_555
O3 H1 1_555 1_555
C1 C2 1_555 1_555
C2 H2 1_555 1_555
C3 O3 1_555 1_555
C4 C3 1_555 1_555
H3 C4 1_555 1_555
C5 C4 1_555 1_555
H4 C5 1_555 1_555
C6 C1 1_555 1_555
C7 C6 1_555 1_555
C8 C7 1_555 1_555
H5 C8 1_555 1_555
C9 O1 1_555 1_555
C10 C7 1_555 1_555
H6 C10 1_555 1_555
H7 C10 1_555 1_555
H8 C10 1_555 1_555
O4 H9 1_555 1_555
H10 O4 1_555 1_555
C2 C3 1_555 1_555
C5 C6 1_555 1_555
C8 C9 1_555 1_555

#END
