
#######################################################################
#
#                 Cambridge Crystallographic Data Centre
#                                CCDC 
#
#######################################################################
#
# If this CIF has been generated from an entry in the Cambridge 
# Structural Database, then it will include bibliographic, chemical, 
# crystal, experimental, refinement or atomic coordinate data resulting 
# from the CCDC's data processing and validation procedures.
#
#######################################################################

data_WIKFIF
_chemical_compound_source        'Magnolia tripetala tree bark'
_chemical_name_common            
"3',5-bis(2-Propenyl)-(1,1'-biphenyl)-2,4'-diol, Honokiol"
_chemical_formula_moiety         'C18 H18 O2'
_chemical_name_systematic        3,5'-Diallyl-2',4-dihydroxybiphenyl
_symmetry_cell_setting           monoclinic
_symmetry_space_group_name_H-M   'P 21/c'
_symmetry_Int_Tables_number      14
_space_group_name_Hall           '-P 2ybc'
loop_
_symmetry_equiv_pos_site_id
_symmetry_equiv_pos_as_xyz
1 x,y,z
2 -x,1/2+y,1/2-z
3 -x,-y,-z
4 x,1/2-y,1/2+z
_cell_length_a                   12.572(3)
_cell_length_b                   14.442(3)
_cell_length_c                   7.916(1)
_cell_angle_alpha                90
_cell_angle_beta                 94.46(1)
_cell_angle_gamma                90
_cell_volume                     1432.91
_exptl_crystal_colour            colorless
_cell_formula_units_Z            4
loop_
_atom_site_label
_atom_site_type_symbol
_atom_site_fract_x
_atom_site_fract_y
_atom_site_fract_z
O1 O 0.0484(2) 0.1640(1) 0.4192(2)
O2 O 0.0293(2) -0.1778(1) -0.0745(2)
C1 C 0.1581(2) 0.1591(2) 0.4552(3)
C2 C 0.2098(2) 0.2218(2) 0.5661(3)
C3 C 0.3188(3) 0.2187(2) 0.5976(4)
C4 C 0.3796(2) 0.1523(2) 0.5204(4)
C5 C 0.3260(2) 0.0901(2) 0.4108(4)
C6 C 0.2150(2) 0.0913(2) 0.3745(3)
C7 C 0.1641(2) 0.0231(2) 0.2536(3)
C8 C 0.1962(2) 0.0162(2) 0.0900(3)
C9 C 0.1524(2) -0.0492(2) -0.0266(3)
C10 C 0.0753(2) -0.1086(2) 0.0277(3)
C11 C 0.0415(2) -0.1029(2) 0.1893(3)
C12 C 0.0858(2) -0.0372(2) 0.3013(3)
C13 C 0.4994(3) 0.1495(2) 0.5530(5)
C14 C 0.5414(3) 0.1224(3) 0.7282(5)
C15 C 0.4855(4) 0.1014(3) 0.8540(5)
C16 C 0.1878(3) -0.0531(2) -0.2054(3)
C17 C 0.2567(3) -0.1342(3) -0.2362(4)
C18 C 0.2428(3) -0.1920(3) -0.3623(5)
H1 H 0.023(3) 0.222(3) 0.482(5)
H2 H 0.019(3) -0.160(3) -0.187(5)
H3 H 0.1662 0.2696 0.6224
H4 H 0.3552 0.2647 0.6778
H5 H 0.3682 0.0421 0.3557
H6 H 0.2527 0.0590 0.0536
H7 H -0.0139 -0.1461 0.2247
H8 H 0.0605 -0.0330 0.4176
H9 H 0.5277 0.2129 0.5306
H10 H 0.5281 0.1046 0.4717
H11 H 0.6196 0.1195 0.7508
H12 H 0.5220 0.1056 0.9694
H13 H 0.4123 0.0804 0.8310
H14 H 0.2274 0.0049 -0.2274
H15 H 0.1224 -0.0571 -0.2862
H16 H 0.3212 -0.1444 -0.1543
H17 H 0.3053 -0.2214 -0.4126
H18 H 0.1686 -0.2078 -0.4092
loop_
_geom_bond_atom_site_label_1
_geom_bond_atom_site_label_2
_geom_bond_site_symmetry_1
_geom_bond_site_symmetry_2
O1 C1 1_555 1_555
O2 C10 1_555 1_555
C1 C2 1_555 1_555
C2 C3 1_555 1_555
C3 C4 1_555 1_555
C4 C5 1_555 1_555
C5 C6 1_555 1_555
C6 C1 1_555 1_555
C7 C6 1_555 1_555
C8 C7 1_555 1_555
C9 C8 1_555 1_555
C10 C9 1_555 1_555
C11 C10 1_555 1_555
C12 C7 1_555 1_555
C13 C4 1_555 1_555
C14 C13 1_555 1_555
C15 C14 1_555 1_555
C16 C9 1_555 1_555
C17 C16 1_555 1_555
C18 C17 1_555 1_555
H1 O1 1_555 1_555
H2 O2 1_555 1_555
H3 C2 1_555 1_555
H4 C3 1_555 1_555
H5 C5 1_555 1_555
H6 C8 1_555 1_555
H7 C11 1_555 1_555
H8 C12 1_555 1_555
H9 C13 1_555 1_555
H10 C13 1_555 1_555
H11 C14 1_555 1_555
H12 C15 1_555 1_555
H13 C15 1_555 1_555
H14 C16 1_555 1_555
H15 C16 1_555 1_555
H16 C17 1_555 1_555
H17 C18 1_555 1_555
H18 C18 1_555 1_555
C11 C12 1_555 1_555

#END
