
#######################################################################
#
#                 Cambridge Crystallographic Data Centre
#                                CCDC 
#
#######################################################################
#
# If this CIF has been generated from an entry in the Cambridge 
# Structural Database, then it will include bibliographic, chemical, 
# crystal, experimental, refinement or atomic coordinate data resulting 
# from the CCDC's data processing and validation procedures.
#
#######################################################################

data_WIKGEF
_chemical_formula_moiety         'C54 H40 O6'
_chemical_name_systematic        
11,20-bis(2,4,6-trimethoxyphenyl)diindeno[2,1-f:1',2'-j]picene
_symmetry_cell_setting           orthorhombic
_symmetry_space_group_name_H-M   'F d d 2'
_symmetry_Int_Tables_number      43
_space_group_name_Hall           'F 2 -2d'
loop_
_symmetry_equiv_pos_site_id
_symmetry_equiv_pos_as_xyz
1 x,y,z
2 -x,-y,z
3 1/4-x,1/4+y,1/4+z
4 1/4+x,1/4-y,1/4+z
5 x,1/2+y,1/2+z
6 -x,1/2-y,1/2+z
7 1/4-x,3/4+y,3/4+z
8 1/4+x,3/4-y,3/4+z
9 1/2+x,y,1/2+z
10 1/2-x,-y,1/2+z
11 3/4-x,1/4+y,3/4+z
12 3/4+x,1/4-y,3/4+z
13 1/2+x,1/2+y,z
14 1/2-x,1/2-y,z
15 3/4-x,3/4+y,1/4+z
16 3/4+x,3/4-y,1/4+z
_cell_length_a                   12.8513(10)
_cell_length_b                   62.643(6)
_cell_length_c                   9.5148(9)
_cell_angle_alpha                90
_cell_angle_beta                 90
_cell_angle_gamma                90
_cell_volume                     7659.83
_exptl_crystal_colour            'dark brown'
_exptl_crystal_description       Lamellar
_cell_formula_units_Z            8
loop_
_atom_site_label
_atom_site_type_symbol
_atom_site_fract_x
_atom_site_fract_y
_atom_site_fract_z
O1 O 0.7499(3) 0.87238(5) 0.0784(3)
O2 O 0.7823(3) 0.94738(5) 0.1343(3)
O3 O 1.0620(2) 0.90498(4) 0.2703(3)
C1 C 0.7899(4) 0.85126(7) 0.0960(6)
H1 H 0.8552 0.8498 0.0438
H2 H 0.7392 0.8409 0.0603
H3 H 0.8026 0.8486 0.1960
C2 C 0.8106(4) 0.88915(7) 0.1193(5)
C3 C 0.9100(4) 0.88701(7) 0.1738(5)
H4 H 0.9406 0.8733 0.1844
C4 C 0.9645(4) 0.90539(7) 0.2128(4)
C5 C 0.9210(4) 0.92558(7) 0.1987(4)
C6 C 0.9698(3) 0.94515(6) 0.2560(5)
C7 C 0.9531(4) 0.95423(7) 0.3863(5)
C8 C 1.0021(4) 0.97521(7) 0.3898(5)
C9 C 0.9866(3) 0.98866(7) 0.5031(5)
C10 C 0.8212(4) 0.92704(7) 0.1425(4)
C11 C 0.7650(4) 0.90901(7) 0.1027(4)
H5 H 0.6969 0.9103 0.0650
C12 C 0.6739(4) 0.94984(8) 0.1044(6)
H6 H 0.6598 0.9450 0.0083
H7 H 0.6546 0.9649 0.1137
H8 H 0.6332 0.9413 0.1707
C13 C 1.1065(4) 0.88474(7) 0.3027(5)
H9 H 1.0625 0.8773 0.3712
H10 H 1.1762 0.8868 0.3423
H11 H 1.1114 0.8762 0.2168
C14 C 1.0387(3) 0.95920(7) 0.1760(4)
C15 C 1.0609(4) 0.97752(7) 0.2570(5)
C16 C 0.8943(4) 0.94652(7) 0.5072(5)
C17 C 0.8961(4) 0.95878(7) 0.6314(5)
C18 C 0.9489(4) 0.97953(7) 0.6335(5)
C19 C 0.8371(4) 0.92727(7) 0.5055(5)
H12 H 0.8360 0.9188 0.4226
C20 C 0.7831(4) 0.92061(7) 0.6224(5)
H13 H 0.7442 0.9077 0.6191
C21 C 0.7851(4) 0.93255(7) 0.7447(5)
H14 H 0.7476 0.9279 0.8250
C22 C 0.8417(4) 0.95134(7) 0.7501(5)
H15 H 0.8439 0.9593 0.8350
C23 C 0.9720(4) 0.99031(7) 0.7553(5)
H16 H 0.9495 0.9845 0.8425
C24 C 1.1311(4) 0.99272(7) 0.2072(5)
H17 H 1.1476 1.0050 0.2618
C25 C 1.1764(4) 0.98965(7) 0.0763(5)
H18 H 1.2245 0.9999 0.0415
C26 C 1.1524(4) 0.97183(7) -0.0050(5)
H19 H 1.1834 0.9702 -0.0950
C27 C 1.0831(4) 0.95635(7) 0.0447(5)
H20 H 1.0668 0.9442 -0.0104
O1A O 1.2501(3) 1.12762(5) 0.0784(3)
O2A O 1.2177(3) 1.05262(5) 0.1343(3)
O3A O 0.9380(2) 1.09502(4) 0.2703(3)
C1A C 1.2101(4) 1.14874(7) 0.0960(6)
H1A H 1.1448 1.1502 0.0438
H2A H 1.2608 1.1591 0.0603
H3A H 1.1974 1.1514 0.1960
C2A C 1.1894(4) 1.11085(7) 0.1193(5)
C3A C 1.0900(4) 1.11299(7) 0.1738(5)
H4A H 1.0594 1.1267 0.1844
C4A C 1.0355(4) 1.09461(7) 0.2128(4)
C5A C 1.0790(4) 1.07442(7) 0.1987(4)
C6A C 1.0302(3) 1.05485(6) 0.2560(5)
C7A C 1.0469(4) 1.04577(7) 0.3863(5)
C8A C 0.9979(4) 1.02479(7) 0.3898(5)
C9A C 1.0134(3) 1.01134(7) 0.5031(5)
C10A C 1.1788(4) 1.07296(7) 0.1425(4)
C11A C 1.2350(4) 1.09099(7) 0.1027(4)
H5A H 1.3031 1.0897 0.0650
C12A C 1.3261(4) 1.05016(8) 0.1044(6)
H6A H 1.3402 1.0550 0.0083
H7A H 1.3454 1.0351 0.1137
H8A H 1.3668 1.0587 0.1707
C13A C 0.8935(4) 1.11526(7) 0.3027(5)
H9A H 0.9375 1.1227 0.3712
H10A H 0.8238 1.1132 0.3423
H11A H 0.8886 1.1238 0.2168
C14A C 0.9613(3) 1.04080(7) 0.1760(4)
C15A C 0.9391(4) 1.02248(7) 0.2570(5)
C16A C 1.1057(4) 1.05348(7) 0.5072(5)
C17A C 1.1039(4) 1.04122(7) 0.6314(5)
C18A C 1.0511(4) 1.02047(7) 0.6335(5)
C19A C 1.1629(4) 1.07273(7) 0.5055(5)
H12A H 1.1640 1.0812 0.4226
C20A C 1.2169(4) 1.07939(7) 0.6224(5)
H13A H 1.2558 1.0923 0.6191
C21A C 1.2149(4) 1.06745(7) 0.7447(5)
H14A H 1.2524 1.0721 0.8250
C22A C 1.1583(4) 1.04866(7) 0.7501(5)
H15A H 1.1561 1.0407 0.8350
C23A C 1.0280(4) 1.00969(7) 0.7553(5)
H16A H 1.0505 1.0155 0.8425
C24A C 0.8689(4) 1.00728(7) 0.2072(5)
H17A H 0.8524 0.9950 0.2618
C25A C 0.8236(4) 1.01035(7) 0.0763(5)
H18A H 0.7755 1.0001 0.0415
C26A C 0.8476(4) 1.02817(7) -0.0050(5)
H19A H 0.8166 1.0298 -0.0950
C27A C 0.9169(4) 1.04365(7) 0.0447(5)
H20A H 0.9332 1.0558 -0.0104
loop_
_geom_bond_atom_site_label_1
_geom_bond_atom_site_label_2
_geom_bond_site_symmetry_1
_geom_bond_site_symmetry_2
O1 C1 1_555 1_555
O2 C10 1_555 1_555
O3 C4 1_555 1_555
C1 H1 1_555 1_555
H2 C1 1_555 1_555
H3 C1 1_555 1_555
C2 O1 1_555 1_555
C3 C2 1_555 1_555
H4 C3 1_555 1_555
C4 C3 1_555 1_555
C5 C4 1_555 1_555
C6 C5 1_555 1_555
C7 C6 1_555 1_555
C8 C7 1_555 1_555
C9 C8 1_555 1_555
C10 C5 1_555 1_555
C11 C2 1_555 1_555
H5 C11 1_555 1_555
C12 O2 1_555 1_555
H6 C12 1_555 1_555
H7 C12 1_555 1_555
H8 C12 1_555 1_555
C13 O3 1_555 1_555
H9 C13 1_555 1_555
H10 C13 1_555 1_555
H11 C13 1_555 1_555
C14 C6 1_555 1_555
C15 C8 1_555 1_555
C16 C7 1_555 1_555
C17 C16 1_555 1_555
C18 C9 1_555 1_555
C19 C16 1_555 1_555
H12 C19 1_555 1_555
C20 C19 1_555 1_555
H13 C20 1_555 1_555
C21 C20 1_555 1_555
H14 C21 1_555 1_555
C22 C17 1_555 1_555
H15 C22 1_555 1_555
C23 C18 1_555 1_555
H16 C23 1_555 1_555
C24 C15 1_555 1_555
H17 C24 1_555 1_555
C25 C24 1_555 1_555
H18 C25 1_555 1_555
C26 C25 1_555 1_555
H19 C26 1_555 1_555
C27 C14 1_555 1_555
H20 C27 1_555 1_555
O1A C1A 1_555 1_555
O2A C10A 1_555 1_555
O3A C4A 1_555 1_555
C1A H1A 1_555 1_555
H2A C1A 1_555 1_555
H3A C1A 1_555 1_555
C2A O1A 1_555 1_555
C3A C2A 1_555 1_555
H4A C3A 1_555 1_555
C4A C3A 1_555 1_555
C5A C4A 1_555 1_555
C6A C5A 1_555 1_555
C7A C6A 1_555 1_555
C8A C7A 1_555 1_555
C9A C9 1_555 1_555
C10A C5A 1_555 1_555
C11A C2A 1_555 1_555
H5A C11A 1_555 1_555
C12A O2A 1_555 1_555
H6A C12A 1_555 1_555
H7A C12A 1_555 1_555
H8A C12A 1_555 1_555
C13A O3A 1_555 1_555
H9A C13A 1_555 1_555
H10A C13A 1_555 1_555
H11A C13A 1_555 1_555
C14A C6A 1_555 1_555
C15A C8A 1_555 1_555
C16A C7A 1_555 1_555
C17A C16A 1_555 1_555
C18A C9A 1_555 1_555
C19A C16A 1_555 1_555
H12A C19A 1_555 1_555
C20A C19A 1_555 1_555
H13A C20A 1_555 1_555
C21A C20A 1_555 1_555
H14A C21A 1_555 1_555
C22A C17A 1_555 1_555
H15A C22A 1_555 1_555
C23A C23 1_555 1_555
H16A C23A 1_555 1_555
C24A C15A 1_555 1_555
H17A C24A 1_555 1_555
C25A C24A 1_555 1_555
H18A C25A 1_555 1_555
C26A C25A 1_555 1_555
H19A C26A 1_555 1_555
C27A C14A 1_555 1_555
H20A C27A 1_555 1_555
C10 C11 1_555 1_555
C14 C15 1_555 1_555
C17 C18 1_555 1_555
C21 C22 1_555 1_555
C26 C27 1_555 1_555
C8A C9A 1_555 1_555
C10A C11A 1_555 1_555
C14A C15A 1_555 1_555
C17A C18A 1_555 1_555
C18A C23A 1_555 1_555
C21A C22A 1_555 1_555
C26A C27A 1_555 1_555

#END
