
#######################################################################
#
#                 Cambridge Crystallographic Data Centre
#                                CCDC 
#
#######################################################################
#
# If this CIF has been generated from an entry in the Cambridge 
# Structural Database, then it will include bibliographic, chemical, 
# crystal, experimental, refinement or atomic coordinate data resulting 
# from the CCDC's data processing and validation procedures.
#
#######################################################################

data_WILLEI
_chemical_formula_moiety         'C60 H80 N4 O12'
_chemical_name_systematic        
1,7,10,16,17,23,26,32,35,38,43,46-Dodecaoxa-4,13,20,29-tetra-aza(16.8^4,13^.16.8^20,29^)(9,10)anthracenophane
_symmetry_cell_setting           monoclinic
_symmetry_space_group_name_H-M   'P 21/n'
_symmetry_Int_Tables_number      14
_space_group_name_Hall           '-P 2yn'
loop_
_symmetry_equiv_pos_site_id
_symmetry_equiv_pos_as_xyz
1 x,y,z
2 1/2-x,1/2+y,1/2-z
3 -x,-y,-z
4 1/2+x,1/2-y,1/2+z
_cell_length_a                   13.428(2)
_cell_length_b                   11.623(4)
_cell_length_c                   19.377(3)
_cell_angle_alpha                90
_cell_angle_beta                 107.45(3)
_cell_angle_gamma                90
_cell_volume                     2885.06
_exptl_crystal_colour            yellow
_chemical_melting_point          211-212deg.C
_cell_formula_units_Z            2
loop_
_atom_site_label
_atom_site_type_symbol
_atom_site_fract_x
_atom_site_fract_y
_atom_site_fract_z
C1 C 0.5725(4) 0.2283(4) 0.7203(3)
C2 C 0.5587(4) 0.2174(4) 0.6467(3)
C3 C 0.4826(4) 0.1403(5) 0.6033(3)
C4 C 0.4712(5) 0.1305(5) 0.5319(3)
C5 C 0.5336(5) 0.1956(5) 0.4995(3)
C6 C 0.6079(5) 0.2693(5) 0.5389(3)
C7 C 0.6213(4) 0.2827(4) 0.6139(3)
C8 C 0.6937(4) 0.3586(4) 0.6565(3)
C9 C 0.7102(4) 0.3704(4) 0.7304(3)
C10 C 0.7849(4) 0.4463(5) 0.7753(3)
C11 C 0.7932(5) 0.4574(6) 0.8460(3)
C12 C 0.7298(6) 0.3924(6) 0.8776(3)
C13 C 0.6588(5) 0.3183(5) 0.8380(3)
C14 C 0.6464(4) 0.3040(4) 0.7628(3)
O1 O 0.5145(3) 0.1615(3) 0.7533(2)
C15 C 0.4142(5) 0.2077(5) 0.7509(3)
C16 C 0.3503(5) 0.1090(5) 0.7639(3)
N1 N 0.3181(4) 0.0317(4) 0.7020(3)
C17 C 0.2197(6) 0.0704(8) 0.6497(4)
C18 C 0.1997(7) 0.0202(11) 0.5754(5)
O2 O 0.1318(4) -0.0644(5) 0.5627(4)
C19 C 0.1062(9) -0.1128(9) 0.4906(5)
C20 C 0.0514(9) -0.2221(9) 0.4905(6)
O3 O 0.1285(8) -0.3008(6) 0.5331(4)
C21 C 0.1145(8) -0.3906(11) 0.5184(6)
C22 C 0.1910(6) -0.4789(7) 0.5604(4)
N2 N 0.2737(4) -0.5002(4) 0.5275(2)
C23 C 0.3160(6) -0.0873(6) 0.7227(4)
C24 C 0.4247(6) -0.1386(6) 0.7387(5)
O4 O 0.4209(4) -0.2533(4) 0.7538(3)
C25 C 0.5159(8) -0.3103(7) 0.7598(7)
C26 C 0.5181(13) -0.3946(18) 0.7314(11)
O5 O 0.4375(9) -0.4704(7) 0.6841(4)
C27 C 0.4278(8) -0.4500(13) 0.6308(5)
C28 C 0.3657(6) -0.5481(6) 0.5778(4)
C29 C 0.2384(6) -0.5676(5) 0.4619(3)
O6 O 0.7570(3) 0.4221(3) 0.6242(2)
C30 C 0.2892(6) -0.5311(5) 0.4057(3)
H1 H 0.4372(35) 0.0923(39) 0.6268(24)
H2 H 0.4171(38) 0.0789(41) 0.5026(26)
H3 H 0.5272(40) 0.1906(42) 0.4481(26)
H4 H 0.6515(36) 0.3116(39) 0.5164(24)
H5 H 0.8305(38) 0.4909(43) 0.7534(26)
H6 H 0.8457(38) 0.5091(44) 0.8772(26)
H7 H 0.7368(41) 0.4003(45) 0.9309(28)
H8 H 0.6145(38) 0.2767(42) 0.8606(26)
H9 H 0.4296(41) 0.2710(45) 0.7909(29)
H10 H 0.3777(37) 0.2419(39) 0.7007(25)
H11 H 0.3970(40) 0.0647(43) 0.8081(28)
H12 H 0.2803(41) 0.1375(45) 0.7755(28)
H13 H 0.1565(48) 0.0469(53) 0.6684(34)
H14 H 0.2282(52) 0.1574(57) 0.6456(35)
H15 H 0.1745(76) 0.0649(85) 0.5380(54)
H16 H 0.2739(63) -0.0211(72) 0.5634(44)
H17 H 0.0575(65) -0.0520(72) 0.4536(46)
H18 H 0.1782(67) -0.1211(73) 0.4775(46)
H19 H -0.0104(68) -0.2082(70) 0.5147(45)
H20 H 0.0202(73) -0.2594(76) 0.4424(49)
H21 H 0.0486(60) -0.3932(66) 0.5237(40)
H22 H 0.0981(64) -0.4136(69) 0.4619(45)
H23 H 0.2217(51) -0.4487(57) 0.6120(36)
H24 H 0.1532(46) -0.5587(51) 0.5642(32)
H25 H 0.2893(48) -0.0981(53) 0.7675(33)
H26 H 0.2611(50) -0.1312(52) 0.6769(34)
H27 H 0.4781(47) -0.0959(50) 0.7854(32)
H28 H 0.4536(50) -0.1388(56) 0.6942(35)
H29 H 0.5616(64) -0.3083(70) 0.8065(44)
H30 H 0.5572(81) -0.2519(87) 0.7385(54)
H31 H 0.5271(56) -0.4446(62) 0.7697(39)
H32 H 0.5762(61) -0.3901(67) 0.7119(43)
H33 H 0.4881(80) -0.4430(88) 0.6270(53)
H34 H 0.3979(69) -0.3908(72) 0.6203(46)
H35 H 0.3457(48) -0.6074(52) 0.6067(33)
H36 H 0.4158(48) -0.5828(53) 0.5497(34)
H37 H 0.3717(38) -0.5152(43) 0.4341(26)
H38 H 0.2769(42) -0.5871(46) 0.3640(29)
H39 H 0.2512(45) -0.6544(50) 0.4746(30)
H40 H 0.1560(41) -0.5535(45) 0.4383(28)
C30B C 0.7108(6) 0.5311(5) 0.5943(3)
O6B O 0.2430(3) -0.4221(3) 0.3758(2)
C29B C 0.7616(6) 0.5676(5) 0.5381(3)
H37B H 0.6283(38) 0.5152(43) 0.5659(26)
H38B H 0.7231(42) 0.5871(46) 0.6360(29)
C8B C 0.3063(4) -0.3586(4) 0.3435(3)
N2B N 0.7263(4) 0.5002(4) 0.4725(2)
H39B H 0.7488(45) 0.6544(50) 0.5254(30)
H40B H 0.8440(41) 0.5535(45) 0.5617(28)
C7B C 0.3787(4) -0.2827(4) 0.3861(3)
C9B C 0.2898(4) -0.3704(4) 0.2696(3)
C22B C 0.8090(6) 0.4789(7) 0.4396(4)
C28B C 0.6343(6) 0.5481(6) 0.4222(4)
C2B C 0.4413(4) -0.2174(4) 0.3533(3)
C6B C 0.3921(5) -0.2693(5) 0.4611(3)
C10B C 0.2151(4) -0.4463(5) 0.2247(3)
C14B C 0.3536(4) -0.3040(4) 0.2372(3)
C21B C 0.8855(8) 0.3906(11) 0.4816(6)
H23B H 0.7783(51) 0.4487(57) 0.3880(36)
H24B H 0.8468(46) 0.5587(51) 0.4358(32)
C27B C 0.5722(8) 0.4500(13) 0.3692(5)
H35B H 0.6543(48) 0.6074(52) 0.3933(33)
H36B H 0.5842(48) 0.5828(53) 0.4503(34)
C1B C 0.4275(4) -0.2283(4) 0.2797(3)
C3B C 0.5174(4) -0.1403(5) 0.3967(3)
C5B C 0.4664(5) -0.1956(5) 0.5005(3)
H4B H 0.3485(36) -0.3116(39) 0.4836(24)
C11B C 0.2068(5) -0.4574(6) 0.1540(3)
H5B H 0.1695(38) -0.4909(43) 0.2466(26)
C13B C 0.3412(5) -0.3183(5) 0.1620(3)
O3B O 0.8715(8) 0.3008(6) 0.4669(4)
H21B H 0.9514(60) 0.3932(66) 0.4763(40)
H22B H 0.9019(64) 0.4136(69) 0.5381(45)
O5B O 0.5625(9) 0.4704(7) 0.3159(4)
H33B H 0.5119(80) 0.4430(88) 0.3730(53)
H34B H 0.6021(69) 0.3908(72) 0.3797(46)
O1B O 0.4855(3) -0.1615(3) 0.2467(2)
C4B C 0.5288(5) -0.1305(5) 0.4681(3)
H1B H 0.5628(35) -0.0923(39) 0.3732(24)
H3B H 0.4728(40) -0.1906(42) 0.5519(26)
C12B C 0.2702(6) -0.3924(6) 0.1224(3)
H6B H 0.1543(38) -0.5091(44) 0.1228(26)
H8B H 0.3855(38) -0.2767(42) 0.1394(26)
C20B C 0.9486(9) 0.2221(9) 0.5095(6)
C26B C 0.4819(13) 0.3946(18) 0.2686(11)
C15B C 0.5858(5) -0.2077(5) 0.2491(3)
H2B H 0.5829(38) -0.0789(41) 0.4974(26)
H7B H 0.2632(41) -0.4003(45) 0.0691(28)
C19B C 0.8938(9) 0.1128(9) 0.5094(5)
H19B H 1.0104(68) 0.2082(70) 0.4853(45)
H20B H 0.9798(73) 0.2594(76) 0.5576(49)
C25B C 0.4841(8) 0.3103(7) 0.2402(7)
H31B H 0.4729(56) 0.4446(62) 0.2303(39)
H32B H 0.4238(61) 0.3901(67) 0.2881(43)
C16B C 0.6497(5) -0.1090(5) 0.2361(3)
H9B H 0.5704(41) -0.2710(45) 0.2091(29)
H10B H 0.6223(37) -0.2419(39) 0.2993(25)
O2B O 0.8682(4) 0.0644(5) 0.4373(4)
H17B H 0.9425(65) 0.0520(72) 0.5464(46)
H18B H 0.8218(67) 0.1211(73) 0.5225(46)
O4B O 0.5791(4) 0.2533(4) 0.2462(3)
H29B H 0.4384(64) 0.3083(70) 0.1935(44)
H30B H 0.4428(81) 0.2519(87) 0.2615(54)
N1B N 0.6819(4) -0.0317(4) 0.2980(3)
H11B H 0.6030(40) -0.0647(43) 0.1919(28)
H12B H 0.7197(41) -0.1375(45) 0.2245(28)
C18B C 0.8003(7) -0.0202(11) 0.4246(5)
C24B C 0.5753(6) 0.1386(6) 0.2613(5)
C17B C 0.7803(6) -0.0704(8) 0.3503(4)
C23B C 0.6840(6) 0.0873(6) 0.2773(4)
H15B H 0.8255(76) -0.0649(85) 0.4620(54)
H16B H 0.7261(63) 0.0211(72) 0.4366(44)
H27B H 0.5219(47) 0.0959(50) 0.2146(32)
H28B H 0.5464(50) 0.1388(56) 0.3058(35)
H13B H 0.8435(48) -0.0469(53) 0.3316(34)
H14B H 0.7718(52) -0.1574(57) 0.3544(35)
H25B H 0.7107(48) 0.0981(53) 0.2325(33)
H26B H 0.7389(50) 0.1312(52) 0.3231(34)
loop_
_geom_bond_atom_site_label_1
_geom_bond_atom_site_label_2
_geom_bond_site_symmetry_1
_geom_bond_site_symmetry_2
C1 C2 1_555 1_555
C2 C3 1_555 1_555
C3 C4 1_555 1_555
C4 C5 1_555 1_555
C5 C6 1_555 1_555
C6 C7 1_555 1_555
C7 C2 1_555 1_555
C8 C7 1_555 1_555
C9 C8 1_555 1_555
C10 C9 1_555 1_555
C11 C10 1_555 1_555
C12 C11 1_555 1_555
C13 C12 1_555 1_555
C14 C1 1_555 1_555
O1 C1 1_555 1_555
C15 O1 1_555 1_555
C16 C15 1_555 1_555
N1 C16 1_555 1_555
C17 N1 1_555 1_555
C18 C17 1_555 1_555
O2 C18 1_555 1_555
C19 O2 1_555 1_555
C20 C19 1_555 1_555
O3 C20 1_555 1_555
C21 O3 1_555 1_555
C22 C21 1_555 1_555
N2 C22 1_555 1_555
C23 N1 1_555 1_555
C24 C23 1_555 1_555
O4 C24 1_555 1_555
C25 O4 1_555 1_555
C26 C25 1_555 1_555
O5 C26 1_555 1_555
C27 O5 1_555 1_555
C28 N2 1_555 1_555
C29 N2 1_555 1_555
O6 C8 1_555 1_555
C30 C29 1_555 1_555
H1 C3 1_555 1_555
H2 C4 1_555 1_555
H3 C5 1_555 1_555
H4 C6 1_555 1_555
H5 C10 1_555 1_555
H6 C11 1_555 1_555
H7 C12 1_555 1_555
H8 C13 1_555 1_555
H9 C15 1_555 1_555
H10 C15 1_555 1_555
H11 C16 1_555 1_555
H12 C16 1_555 1_555
H13 C17 1_555 1_555
H14 C17 1_555 1_555
H15 C18 1_555 1_555
H16 C18 1_555 1_555
H17 C19 1_555 1_555
H18 C19 1_555 1_555
H19 C20 1_555 1_555
H20 C20 1_555 1_555
H21 C21 1_555 1_555
H22 C21 1_555 1_555
H23 C22 1_555 1_555
H24 C22 1_555 1_555
H25 C23 1_555 1_555
H26 C23 1_555 1_555
H27 C24 1_555 1_555
H28 C24 1_555 1_555
H29 C25 1_555 1_555
H30 C25 1_555 1_555
H31 C26 1_555 1_555
H32 C26 1_555 1_555
H33 C27 1_555 1_555
H34 C27 1_555 1_555
H35 C28 1_555 1_555
H36 C28 1_555 1_555
H37 C30 1_555 1_555
H38 C30 1_555 1_555
H39 C29 1_555 1_555
H40 C29 1_555 1_555
C30B O6 1_555 1_555
O6B C30 1_555 1_555
C29B C30B 1_555 1_555
H37B C30B 1_555 1_555
H38B C30B 1_555 1_555
C8B O6B 1_555 1_555
N2B C29B 1_555 1_555
H39B C29B 1_555 1_555
H40B C29B 1_555 1_555
C7B C8B 1_555 1_555
C9B C8B 1_555 1_555
C22B N2B 1_555 1_555
C28B N2B 1_555 1_555
C2B C7B 1_555 1_555
C6B C7B 1_555 1_555
C10B C9B 1_555 1_555
C14B C9B 1_555 1_555
C21B C22B 1_555 1_555
H23B C22B 1_555 1_555
H24B C22B 1_555 1_555
C27B C28B 1_555 1_555
H35B C28B 1_555 1_555
H36B C28B 1_555 1_555
C1B C2B 1_555 1_555
C3B C2B 1_555 1_555
C5B C6B 1_555 1_555
H4B C6B 1_555 1_555
C11B C10B 1_555 1_555
H5B C10B 1_555 1_555
C13B C14B 1_555 1_555
O3B C21B 1_555 1_555
H21B C21B 1_555 1_555
H22B C21B 1_555 1_555
O5B C27B 1_555 1_555
H33B C27B 1_555 1_555
H34B C27B 1_555 1_555
O1B C1B 1_555 1_555
C4B C3B 1_555 1_555
H1B C3B 1_555 1_555
H3B C5B 1_555 1_555
C12B C11B 1_555 1_555
H6B C11B 1_555 1_555
H8B C13B 1_555 1_555
C20B O3B 1_555 1_555
C26B O5B 1_555 1_555
C15B O1B 1_555 1_555
H2B C4B 1_555 1_555
H7B C12B 1_555 1_555
C19B C20B 1_555 1_555
H19B C20B 1_555 1_555
H20B C20B 1_555 1_555
C25B C26B 1_555 1_555
H31B C26B 1_555 1_555
H32B C26B 1_555 1_555
C16B C15B 1_555 1_555
H9B C15B 1_555 1_555
H10B C15B 1_555 1_555
O2B C19B 1_555 1_555
H17B C19B 1_555 1_555
H18B C19B 1_555 1_555
O4B C25B 1_555 1_555
H29B C25B 1_555 1_555
H30B C25B 1_555 1_555
N1B C16B 1_555 1_555
H11B C16B 1_555 1_555
H12B C16B 1_555 1_555
C18B O2B 1_555 1_555
C24B O4B 1_555 1_555
C17B N1B 1_555 1_555
C23B N1B 1_555 1_555
H15B C18B 1_555 1_555
H16B C18B 1_555 1_555
H27B C24B 1_555 1_555
H28B C24B 1_555 1_555
H13B C17B 1_555 1_555
H14B C17B 1_555 1_555
H25B C23B 1_555 1_555
H26B C23B 1_555 1_555
C9 C14 1_555 1_555
C13 C14 1_555 1_555
C27 C28 1_555 1_555
C14B C1B 1_555 1_555
C5B C4B 1_555 1_555
C13B C12B 1_555 1_555
C18B C17B 1_555 1_555
C24B C23B 1_555 1_555

#END
