
#######################################################################
#
#                 Cambridge Crystallographic Data Centre
#                                CCDC 
#
#######################################################################
#
# If this CIF has been generated from an entry in the Cambridge 
# Structural Database, then it will include bibliographic, chemical, 
# crystal, experimental, refinement or atomic coordinate data resulting 
# from the CCDC's data processing and validation procedures.
#
#######################################################################

data_WILQUG
_chemical_formula_moiety         'C18 H39 O3 P1'
_chemical_name_systematic        'n-Octadecylphosphonic acid'
_symmetry_cell_setting           monoclinic
_symmetry_space_group_name_H-M   'P 21'
_symmetry_Int_Tables_number      4
_space_group_name_Hall           'P 2yb'
loop_
_symmetry_equiv_pos_site_id
_symmetry_equiv_pos_as_xyz
1 x,y,z
2 -x,1/2+y,-z
_cell_length_a                   5.5372(8)
_cell_length_b                   5.4510(8)
_cell_length_c                   33.509(5)
_cell_angle_alpha                90
_cell_angle_beta                 93.7969(18)
_cell_angle_gamma                90
_cell_volume                     1009.19
_exptl_crystal_colour            colorless
_exptl_crystal_description       plate
_cell_formula_units_Z            2
_exptl_crystal_recrystallization_method toluene/hexane
loop_
_atom_site_label
_atom_site_type_symbol
_atom_site_fract_x
_atom_site_fract_y
_atom_site_fract_z
P1 P 0.69682(11) 1.01627(16) 0.96098(2)
O1 O 0.7960(3) 0.8787(4) 0.99722(6)
O2 O 0.8246(4) 1.2692(4) 0.95653(7)
O3 O 0.4195(4) 1.0641(4) 0.96097(7)
C1 C 0.7160(5) 0.8472(6) 0.91581(9)
H1 H 0.6079 0.7031 0.9170
H2 H 0.6511 0.9517 0.8934
C2 C 0.9660(5) 0.7555(5) 0.90565(8)
H3 H 1.0708 0.8970 0.9001
H4 H 1.0426 0.6642 0.9287
C3 C 0.9406(5) 0.5881(6) 0.86901(9)
H5 H 0.8824 0.6879 0.8456
H6 H 0.8149 0.4638 0.8735
C4 C 1.1715(5) 0.4550(5) 0.85875(9)
H7 H 1.2979 0.5774 0.8537
H8 H 1.2311 0.3535 0.8818
C5 C 1.1283(6) 0.2911(6) 0.82196(9)
H9 H 0.9927 0.1782 0.8265
H10 H 1.0782 0.3956 0.7987
C6 C 1.3472(6) 0.1398(6) 0.81175(9)
H11 H 1.4838 0.2522 0.8076
H12 H 1.3957 0.0327 0.8348
C7 C 1.3022(5) -0.0187(6) 0.77471(9)
H13 H 1.2611 0.0895 0.7515
H14 H 1.1602 -0.1247 0.7784
C8 C 1.5156(6) -0.1811(6) 0.76503(9)
H15 H 1.6586 -0.0755 0.7620
H16 H 1.5543 -0.2921 0.7880
C9 C 1.4715(6) -0.3349(6) 0.72744(9)
H17 H 1.4380 -0.2239 0.7044
H18 H 1.3255 -0.4369 0.7301
C10 C 1.6825(5) -0.5025(8) 0.71867(9)
H19 H 1.8290 -0.4006 0.7164
H20 H 1.7142 -0.6151 0.7416
C11 C 1.6414(6) -0.6539(6) 0.68085(10)
H21 H 1.6106 -0.5413 0.6579
H22 H 1.4945 -0.7552 0.6830
C12 C 1.8513(6) -0.8216(6) 0.67231(9)
H23 H 1.9988 -0.7205 0.6705
H24 H 1.8806 -0.9356 0.6951
C13 C 1.8116(5) -0.9707(8) 0.63414(9)
H25 H 1.7841 -0.8567 0.6113
H26 H 1.6633 -1.0706 0.6358
C14 C 2.0223(6) -1.1410(6) 0.62590(10)
H27 H 2.1710 -1.0413 0.6246
H28 H 2.0485 -1.2564 0.6486
C15 C 1.9838(6) -1.2884(6) 0.58730(10)
H29 H 1.8343 -1.3871 0.5884
H30 H 1.9598 -1.1733 0.5645
C16 C 2.1932(5) -1.4587(7) 0.57975(9)
H31 H 2.2134 -1.5769 0.6021
H32 H 2.3435 -1.3603 0.5796
C17 C 2.1622(7) -1.6013(8) 0.54067(11)
H33 H 2.0079 -1.6933 0.5402
H34 H 2.1502 -1.4831 0.5182
C18 C 2.3658(7) -1.7802(7) 0.53409(12)
H35 H 2.3399 -1.8550 0.5076
H36 H 2.3683 -1.9086 0.5546
H37 H 2.5207 -1.6926 0.5359
H38 H 0.370(8) 1.161(10) 0.9755(13)
H39 H 0.925(8) 1.292(9) 0.9733(13)
loop_
_geom_bond_atom_site_label_1
_geom_bond_atom_site_label_2
_geom_bond_site_symmetry_1
_geom_bond_site_symmetry_2
P1 O1 1_555 1_555
O2 P1 1_555 1_555
O3 P1 1_555 1_555
C1 P1 1_555 1_555
H1 C1 1_555 1_555
H2 C1 1_555 1_555
C2 C1 1_555 1_555
H3 C2 1_555 1_555
H4 C2 1_555 1_555
C3 C2 1_555 1_555
H5 C3 1_555 1_555
H6 C3 1_555 1_555
C4 C3 1_555 1_555
H7 C4 1_555 1_555
H8 C4 1_555 1_555
C5 C4 1_555 1_555
H9 C5 1_555 1_555
H10 C5 1_555 1_555
C6 C5 1_555 1_555
H11 C6 1_555 1_555
H12 C6 1_555 1_555
C7 C6 1_555 1_555
H13 C7 1_555 1_555
H14 C7 1_555 1_555
C8 C7 1_555 1_555
H15 C8 1_555 1_555
H16 C8 1_555 1_555
C9 C8 1_555 1_555
H17 C9 1_555 1_555
H18 C9 1_555 1_555
C10 C9 1_555 1_555
H19 C10 1_555 1_555
H20 C10 1_555 1_555
C11 C10 1_555 1_555
H21 C11 1_555 1_555
H22 C11 1_555 1_555
C12 C11 1_555 1_555
H23 C12 1_555 1_555
H24 C12 1_555 1_555
C13 C12 1_555 1_555
H25 C13 1_555 1_555
H26 C13 1_555 1_555
C14 C13 1_555 1_555
H27 C14 1_555 1_555
H28 C14 1_555 1_555
C15 C14 1_555 1_555
H29 C15 1_555 1_555
H30 C15 1_555 1_555
C16 C15 1_555 1_555
H31 C16 1_555 1_555
H32 C16 1_555 1_555
C17 C16 1_555 1_555
H33 C17 1_555 1_555
H34 C17 1_555 1_555
C18 C17 1_555 1_555
H35 C18 1_555 1_555
H36 C18 1_555 1_555
H37 C18 1_555 1_555
H38 O3 1_555 1_555
H39 O2 1_555 1_555

#END
