
#######################################################################
#
#                 Cambridge Crystallographic Data Centre
#                                CCDC 
#
#######################################################################
#
# If this CIF has been generated from an entry in the Cambridge 
# Structural Database, then it will include bibliographic, chemical, 
# crystal, experimental, refinement or atomic coordinate data resulting 
# from the CCDC's data processing and validation procedures.
#
#######################################################################

data_WILQAM
_chemical_formula_moiety         'C10 H11 N3 2+,F6 Si1 2-'
_chemical_name_systematic        
'bis(pyridin-1-ium-4-yl)amine hexafluorosilicate'
_symmetry_cell_setting           orthorhombic
_symmetry_space_group_name_H-M   'P b a 2'
_symmetry_Int_Tables_number      32
_space_group_name_Hall           'P 2 -2ab'
loop_
_symmetry_equiv_pos_site_id
_symmetry_equiv_pos_as_xyz
1 x,y,z
2 -x,-y,z
3 1/2+x,1/2-y,z
4 1/2-x,1/2+y,z
_cell_length_a                   6.8119(2)
_cell_length_b                   38.3891(9)
_cell_length_c                   6.6789(2)
_cell_angle_alpha                90
_cell_angle_beta                 90
_cell_angle_gamma                90
_cell_volume                     1746.55
_exptl_crystal_colour            colorless
_exptl_crystal_description       block
_cell_formula_units_Z            6
loop_
_atom_site_label
_atom_site_type_symbol
_atom_site_fract_x
_atom_site_fract_y
_atom_site_fract_z
Si1 Si 0.3655(2) 0.16671(3) 0.5263(2)
F1 F 0.1473(7) 0.18543(14) 0.5317(7)
F2 F 0.3615(5) 0.17025(7) 0.2711(5)
F3 F 0.5840(6) 0.14801(13) 0.5114(7)
F4 F 0.3666(5) 0.16326(7) 0.7796(5)
F5 F 0.4673(8) 0.20557(10) 0.5395(6)
F6 F 0.2603(7) 0.12789(8) 0.5110(6)
Si2 Si 0.5000 0.5000 0.4718(3)
F7 F 0.3122(6) 0.47222(9) 0.4658(6)
F8 F 0.5000 0.5000 0.2105(7)
F9 F 0.5000 0.5000 0.7225(6)
F10 F 0.3449(6) 0.53351(9) 0.4642(6)
F7A F 0.6878(6) 0.52778(9) 0.4658(6)
F10A F 0.6551(6) 0.46649(9) 0.4642(6)
N1 N 0.3330(7) 0.23722(11) 0.1460(8)
H1 H 0.3252 0.2171 0.2022
N2 N 0.3876(7) 0.33216(10) -0.1278(7)
H2 H 0.3851 0.3306 -0.2562
N3 N 0.4589(7) 0.43278(10) 0.0659(7)
H3 H 0.4725 0.4540 0.1051
C1 C 0.2914(8) 0.26564(13) 0.2531(8)
H4 H 0.2515 0.2634 0.3856
C2 C 0.3068(8) 0.29818(12) 0.1690(9)
H5 H 0.2761 0.3179 0.2433
C3 C 0.3693(7) 0.30122(11) -0.0293(8)
C4 C 0.4054(8) 0.27054(13) -0.1364(8)
H6 H 0.4423 0.2717 -0.2702
C5 C 0.3868(8) 0.23922(13) -0.0466(9)
H7 H 0.4114 0.2190 -0.1186
C6 C 0.4902(8) 0.40715(13) 0.1954(9)
H8 H 0.5293 0.4124 0.3254
C7 C 0.4654(7) 0.37299(13) 0.1396(8)
H9 H 0.4862 0.3551 0.2313
C8 C 0.4094(7) 0.36551(11) -0.0540(8)
C9 C 0.3806(8) 0.39324(13) -0.1878(8)
H10 H 0.3437 0.3889 -0.3195
C10 C 0.4069(8) 0.42658(13) -0.1236(9)
H11 H 0.3887 0.4451 -0.2118
N4 N 0.4093(6) 0.09753(10) 0.9161(7)
H12 H 0.3938 0.1181 0.8675
N5 N 0.5000 0.0000 1.1525(9)
H13 H 0.5000 0.0000 1.2812
C11 C 0.3800(8) 0.06986(12) 0.7978(8)
H14 H 0.3402 0.0733 0.6661
C12 C 0.4075(8) 0.03652(13) 0.8669(8)
H15 H 0.3863 0.0174 0.7841
C13 C 0.4681(7) 0.03216(11) 1.0651(8)
C14 C 0.4938(8) 0.06182(13) 1.1852(8)
H16 H 0.5325 0.0594 1.3180
C15 C 0.4622(8) 0.09400(13) 1.1081(9)
H17 H 0.4773 0.1136 1.1885
N4A N 0.5907(6) -0.09753(10) 0.9161(7)
H12A H 0.6062 -0.1181 0.8675
C11A C 0.6200(8) -0.06986(12) 0.7978(8)
H14A H 0.6598 -0.0733 0.6661
C12A C 0.5925(8) -0.03652(13) 0.8669(8)
H15A H 0.6137 -0.0174 0.7841
C13A C 0.5319(7) -0.03216(11) 1.0651(8)
C14A C 0.5062(8) -0.06182(13) 1.1852(8)
H16A H 0.4675 -0.0594 1.3180
C15A C 0.5378(8) -0.09400(13) 1.1081(9)
H17A H 0.5227 -0.1136 1.1885
loop_
_geom_bond_atom_site_label_1
_geom_bond_atom_site_label_2
_geom_bond_site_symmetry_1
_geom_bond_site_symmetry_2
Si1 F1 1_555 1_555
F2 Si1 1_555 1_555
F3 Si1 1_555 1_555
F4 Si1 1_555 1_555
F5 Si1 1_555 1_555
F6 Si1 1_555 1_555
Si2 F7 1_555 1_555
F8 Si2 1_555 1_555
F9 Si2 1_555 1_555
F10 Si2 1_555 1_555
N1 H1 1_555 1_555
N2 H2 1_555 1_555
N3 H3 1_555 1_555
C1 N1 1_555 1_555
H4 C1 1_555 1_555
C2 C1 1_555 1_555
H5 C2 1_555 1_555
C3 N2 1_555 1_555
C4 C3 1_555 1_555
H6 C4 1_555 1_555
C5 N1 1_555 1_555
H7 C5 1_555 1_555
C6 N3 1_555 1_555
H8 C6 1_555 1_555
C7 C6 1_555 1_555
H9 C7 1_555 1_555
C8 N2 1_555 1_555
C9 C8 1_555 1_555
H10 C9 1_555 1_555
C10 N3 1_555 1_555
H11 C10 1_555 1_555
N4 H12 1_555 1_555
N5 H13 1_555 1_555
C11 N4 1_555 1_555
H14 C11 1_555 1_555
C12 C11 1_555 1_555
H15 C12 1_555 1_555
C13 N5 1_555 1_555
C14 C13 1_555 1_555
H16 C14 1_555 1_555
C15 N4 1_555 1_555
H17 C15 1_555 1_555
F7A Si2 1_555 1_555
F10A Si2 1_555 1_555
N4A H12A 1_555 1_555
C11A N4A 1_555 1_555
H14A C11A 1_555 1_555
C12A C11A 1_555 1_555
H15A C12A 1_555 1_555
C13A N5 1_555 1_555
C14A C13A 1_555 1_555
H16A C14A 1_555 1_555
C15A N4A 1_555 1_555
H17A C15A 1_555 1_555
C2 C3 1_555 1_555
C4 C5 1_555 1_555
C7 C8 1_555 1_555
C9 C10 1_555 1_555
C12 C13 1_555 1_555
C14 C15 1_555 1_555
C12A C13A 1_555 1_555
C14A C15A 1_555 1_555

#END
