
#######################################################################
#
#                 Cambridge Crystallographic Data Centre
#                                CCDC 
#
#######################################################################
#
# If this CIF has been generated from an entry in the Cambridge 
# Structural Database, then it will include bibliographic, chemical, 
# crystal, experimental, refinement or atomic coordinate data resulting 
# from the CCDC's data processing and validation procedures.
#
#######################################################################

data_WILREQ
_chemical_formula_moiety         'C20 H14 O4'
_chemical_name_systematic        5,5'-(1,4-Phenylene)bis(1,3-benzodioxole)
_symmetry_cell_setting           orthorhombic
_symmetry_space_group_name_H-M   'P b c a'
_symmetry_Int_Tables_number      61
_space_group_name_Hall           '-P 2ac 2ab'
loop_
_symmetry_equiv_pos_site_id
_symmetry_equiv_pos_as_xyz
1 x,y,z
2 1/2+x,1/2-y,-z
3 -x,1/2+y,1/2-z
4 1/2-x,-y,1/2+z
5 -x,-y,-z
6 1/2-x,1/2+y,z
7 x,1/2-y,1/2+z
8 1/2+x,y,1/2-z
_cell_length_a                   8.6151(5)
_cell_length_b                   7.8419(4)
_cell_length_c                   21.2292(11)
_cell_angle_alpha                90
_cell_angle_beta                 90
_cell_angle_gamma                90
_cell_volume                     1434.22
_exptl_crystal_colour            'pale yellow'
_exptl_crystal_description       tabular
_cell_formula_units_Z            4
loop_
_atom_site_label
_atom_site_type_symbol
_atom_site_fract_x
_atom_site_fract_y
_atom_site_fract_z
O1 O 0.49527(11) -0.19371(11) 0.29037(4)
O2 O 0.29929(11) 0.00610(11) 0.28196(4)
C1 C 0.51688(15) -0.06747(15) 0.33478(6)
C2 C 0.62797(16) -0.05683(16) 0.38054(6)
H1 H 0.7073 -0.1403 0.3843
C3 C 0.61960(16) 0.08245(16) 0.42158(6)
H2 H 0.6954 0.0935 0.4538
C4 C 0.50315(14) 0.20598(15) 0.41667(6)
C5 C 0.50105(14) 0.35593(16) 0.45951(6)
C6 C 0.55614(15) 0.34537(16) 0.52137(6)
H3 H 0.5952 0.2398 0.5366
C7 C 0.44527(16) 0.51404(16) 0.43915(6)
H4 H 0.4075 0.5253 0.3973
C8 C 0.38950(15) 0.18968(15) 0.36939(6)
H5 H 0.3082 0.2708 0.3653
C9 C 0.40021(15) 0.05304(16) 0.32959(6)
C10 C 0.38330(17) -0.12245(16) 0.24757(6)
H6 H 0.3115 -0.2121 0.2324
H7 H 0.4362 -0.0713 0.2107
O1D O 0.50473(11) 1.19371(11) 0.70963(4)
O2D O 0.70071(11) 0.99390(11) 0.71804(4)
C1D C 0.48312(15) 1.06747(15) 0.66522(6)
C2D C 0.37203(16) 1.05683(16) 0.61946(6)
H1D H 0.2927 1.1403 0.6157
C3D C 0.38040(16) 0.91755(16) 0.57842(6)
H2D H 0.3046 0.9065 0.5462
C4D C 0.49685(14) 0.79402(15) 0.58333(6)
C5D C 0.49895(14) 0.64407(16) 0.54049(6)
C6D C 0.44386(15) 0.65463(16) 0.47863(6)
H3D H 0.4048 0.7602 0.4634
C7D C 0.55473(16) 0.48596(16) 0.56085(6)
H4D H 0.5925 0.4747 0.6027
C8D C 0.61050(15) 0.81032(15) 0.63061(6)
H5D H 0.6918 0.7292 0.6347
C9D C 0.59979(15) 0.94696(16) 0.67041(6)
C10D C 0.61670(17) 1.12245(16) 0.75243(6)
H6D H 0.6885 1.2121 0.7676
H7D H 0.5638 1.0713 0.7893
loop_
_geom_bond_atom_site_label_1
_geom_bond_atom_site_label_2
_geom_bond_site_symmetry_1
_geom_bond_site_symmetry_2
O1 C1 1_555 1_555
O2 C9 1_555 1_555
C1 C2 1_555 1_555
C2 H1 1_555 1_555
C3 C2 1_555 1_555
H2 C3 1_555 1_555
C4 C3 1_555 1_555
C5 C4 1_555 1_555
C6 C5 1_555 1_555
H3 C6 1_555 1_555
C7 C5 1_555 1_555
H4 C7 1_555 1_555
C8 C4 1_555 1_555
H5 C8 1_555 1_555
C9 C1 1_555 1_555
C10 O1 1_555 1_555
H6 C10 1_555 1_555
H7 C10 1_555 1_555
O1D C1D 1_555 1_555
O2D C9D 1_555 1_555
C1D C2D 1_555 1_555
C2D H1D 1_555 1_555
C3D C2D 1_555 1_555
H2D C3D 1_555 1_555
C4D C3D 1_555 1_555
C5D C4D 1_555 1_555
C6D C7 1_555 1_555
H3D C6D 1_555 1_555
C7D C6 1_555 1_555
H4D C7D 1_555 1_555
C8D C4D 1_555 1_555
H5D C8D 1_555 1_555
C9D C1D 1_555 1_555
C10D O1D 1_555 1_555
H6D C10D 1_555 1_555
H7D C10D 1_555 1_555
O2 C10 1_555 1_555
C8 C9 1_555 1_555
O2D C10D 1_555 1_555
C5D C6D 1_555 1_555
C5D C7D 1_555 1_555
C8D C9D 1_555 1_555

#END
