
#######################################################################
#
#                 Cambridge Crystallographic Data Centre
#                                CCDC 
#
#######################################################################
#
# If this CIF has been generated from an entry in the Cambridge 
# Structural Database, then it will include bibliographic, chemical, 
# crystal, experimental, refinement or atomic coordinate data resulting 
# from the CCDC's data processing and validation procedures.
#
#######################################################################

data_WILSEQ
_chemical_formula_moiety         'C21 H39 N3 O6'
_chemical_name_systematic        
't-Butoxycarbonyl-isoleucyl-\a-amino-isobutyryl-valine methyl ester'
_symmetry_cell_setting           monoclinic
_symmetry_space_group_name_H-M   'P 21'
_symmetry_Int_Tables_number      4
_space_group_name_Hall           'P 2yb'
loop_
_symmetry_equiv_pos_site_id
_symmetry_equiv_pos_as_xyz
1 x,y,z
2 -x,1/2+y,-z
_cell_length_a                   6.0564(2)
_cell_length_b                   21.3440(6)
_cell_length_c                   9.8971(2)
_cell_angle_alpha                90
_cell_angle_beta                 107.3390(10)
_cell_angle_gamma                90
_cell_volume                     1221.24
_exptl_crystal_colour            colorless
_exptl_crystal_description       block
_chemical_melting_point          '109-110 deg.C'
_cell_formula_units_Z            2
_exptl_crystal_recrystallization_method acetone/water
loop_
_atom_site_label
_atom_site_type_symbol
_atom_site_fract_x
_atom_site_fract_y
_atom_site_fract_z
C1 C 1.2965(3) 0.56763(9) 0.7918(2)
H1 H 1.4090 0.5502 0.8762
H2 H 1.3279 0.6123 0.7840
H3 H 1.3092 0.5456 0.7075
C2 C 1.0279(4) 0.59113(9) 0.9358(2)
H4 H 0.8736 0.5825 0.9442
H5 H 1.0483 0.6364 0.9290
H6 H 1.1455 0.5748 1.0193
C3 C 0.8703(3) 0.58350(9) 0.6734(2)
H7 H 0.8908 0.5637 0.5887
H8 H 0.8855 0.6290 0.6669
H9 H 0.7165 0.5734 0.6807
C4 C 1.0534(3) 0.55940(8) 0.80358(19)
C5 C 1.0468(3) 0.44825(8) 0.73941(18)
C6 C 1.1420(3) 0.33847(7) 0.73179(16)
H10 H 1.2406 0.3477 0.6692
C7 C 1.2588(3) 0.28533(8) 0.83524(18)
H11 H 1.4103 0.3018 0.8961
C8 C 1.1206(4) 0.26455(9) 0.9341(2)
H12 H 0.9701 0.2482 0.8778
H13 H 1.0973 0.3004 0.9901
H14 H 1.2059 0.2317 0.9976
C9 C 1.3116(3) 0.22961(8) 0.7523(2)
H15 H 1.1650 0.2080 0.7031
H16 H 1.3793 0.2454 0.6793
C10 C 1.4775(4) 0.18265(10) 0.8457(2)
H17 H 1.6127 0.2048 0.9062
H18 H 1.5274 0.1525 0.7861
H19 H 1.3992 0.1604 0.9050
C11 C 0.9019(3) 0.31899(7) 0.63842(16)
C12 C 0.6779(3) 0.27403(7) 0.41053(17)
C13 C 0.6382(3) 0.20905(8) 0.46382(19)
H20 H 0.7670 0.1815 0.4627
H21 H 0.4933 0.1916 0.4023
H22 H 0.6288 0.2124 0.5607
C14 C 0.7069(3) 0.26932(8) 0.26198(18)
H23 H 0.7310 0.3113 0.2287
H24 H 0.5674 0.2508 0.1969
H25 H 0.8408 0.2429 0.2655
C15 C 0.4679(3) 0.31715(8) 0.39737(16)
C16 C 0.3133(3) 0.42262(8) 0.36937(17)
H26 H 0.2174 0.4132 0.4335
C17 C 0.1657(3) 0.41307(7) 0.21670(17)
C18 C -0.2155(3) 0.41651(9) 0.05979(18)
H27 H -0.1854 0.4516 0.0039
H28 H -0.3758 0.4186 0.0625
H29 H -0.1908 0.3769 0.0164
C19 C 0.4039(3) 0.49061(8) 0.39629(17)
H30 H 0.4995 0.4932 0.4977
C20 C 0.2047(3) 0.53703(8) 0.3760(2)
H31 H 0.2670 0.5789 0.4059
H32 H 0.1058 0.5239 0.4332
H33 H 0.1136 0.5381 0.2759
C21 C 0.5599(3) 0.50982(8) 0.3065(2)
H34 H 0.4706 0.5089 0.2061
H35 H 0.6901 0.4806 0.3235
H36 H 0.6186 0.5523 0.3325
N1 N 1.1251(3) 0.39501(6) 0.80974(15)
H37 H 1.152(3) 0.3947(10) 0.901(2)
N2 N 0.8887(2) 0.30235(6) 0.50461(14)
H38 H 1.008(3) 0.3048(9) 0.4729(19)
N3 N 0.5067(2) 0.37883(6) 0.39979(15)
H39 H 0.648(4) 0.3921(9) 0.4275(19)
O1 O 1.0190(2) 0.49305(5) 0.83084(13)
O2 O 1.0014(2) 0.45460(6) 0.61154(13)
O3 O 0.73379(19) 0.31847(6) 0.68399(12)
O4 O 0.27182(19) 0.29511(5) 0.37345(12)
O5 O 0.2413(2) 0.40189(6) 0.11951(12)
O6 O -0.05913(19) 0.42013(5) 0.20308(12)
loop_
_geom_bond_atom_site_label_1
_geom_bond_atom_site_label_2
_geom_bond_site_symmetry_1
_geom_bond_site_symmetry_2
C1 H1 1_555 1_555
H2 C1 1_555 1_555
H3 C1 1_555 1_555
C2 H4 1_555 1_555
H5 C2 1_555 1_555
H6 C2 1_555 1_555
C3 H7 1_555 1_555
H8 C3 1_555 1_555
H9 C3 1_555 1_555
C4 C1 1_555 1_555
C5 N1 1_555 1_555
C6 H10 1_555 1_555
C7 C6 1_555 1_555
H11 C7 1_555 1_555
C8 C7 1_555 1_555
H12 C8 1_555 1_555
H13 C8 1_555 1_555
H14 C8 1_555 1_555
C9 C7 1_555 1_555
H15 C9 1_555 1_555
H16 C9 1_555 1_555
C10 C9 1_555 1_555
H17 C10 1_555 1_555
H18 C10 1_555 1_555
H19 C10 1_555 1_555
C11 C6 1_555 1_555
C12 C13 1_555 1_555
C13 H20 1_555 1_555
H21 C13 1_555 1_555
H22 C13 1_555 1_555
C14 C12 1_555 1_555
H23 C14 1_555 1_555
H24 C14 1_555 1_555
H25 C14 1_555 1_555
C15 C12 1_555 1_555
C16 H26 1_555 1_555
C17 C16 1_555 1_555
C18 H27 1_555 1_555
H28 C18 1_555 1_555
H29 C18 1_555 1_555
C19 C16 1_555 1_555
H30 C19 1_555 1_555
C20 C19 1_555 1_555
H31 C20 1_555 1_555
H32 C20 1_555 1_555
H33 C20 1_555 1_555
C21 C19 1_555 1_555
H34 C21 1_555 1_555
H35 C21 1_555 1_555
H36 C21 1_555 1_555
N1 C6 1_555 1_555
H37 N1 1_555 1_555
N2 C11 1_555 1_555
H38 N2 1_555 1_555
N3 C15 1_555 1_555
H39 N3 1_555 1_555
O1 C4 1_555 1_555
O2 C5 1_555 1_555
O3 C11 1_555 1_555
O4 C15 1_555 1_555
O5 C17 1_555 1_555
O6 C17 1_555 1_555
C2 C4 1_555 1_555
C3 C4 1_555 1_555
C5 O1 1_555 1_555
C12 N2 1_555 1_555
C16 N3 1_555 1_555
C18 O6 1_555 1_555

#END
