
#######################################################################
#
#                 Cambridge Crystallographic Data Centre
#                                CCDC 
#
#######################################################################
#
# If this CIF has been generated from an entry in the Cambridge 
# Structural Database, then it will include bibliographic, chemical, 
# crystal, experimental, refinement or atomic coordinate data resulting 
# from the CCDC's data processing and validation procedures.
#
#######################################################################

data_WILSOA
_chemical_formula_moiety         'C25 H39 N3 O6'
_chemical_name_systematic        
't-Butoxycarbonyl-isoleucyl-\a-amino-isobutyryl-phenylalanine methyl ester'
_symmetry_cell_setting           triclinic
_symmetry_space_group_name_H-M   'P 1'
_symmetry_Int_Tables_number      1
_space_group_name_Hall           'P 1'
loop_
_symmetry_equiv_pos_site_id
_symmetry_equiv_pos_as_xyz
1 x,y,z
_cell_length_a                   6.0872(11)
_cell_length_b                   9.9683(18)
_cell_length_c                   11.413(2)
_cell_angle_alpha                92.977(4)
_cell_angle_beta                 100.634(4)
_cell_angle_gamma                102.505(4)
_cell_volume                     661.435
_exptl_crystal_colour            colorless
_exptl_crystal_description       plate
_chemical_melting_point          '114-115 deg.C'
_cell_formula_units_Z            1
_exptl_crystal_recrystallization_method acetone/water
loop_
_atom_site_label
_atom_site_type_symbol
_atom_site_fract_x
_atom_site_fract_y
_atom_site_fract_z
C1 C 0.5635(4) 0.1847(2) 0.5648(2)
H1 H 0.6398 0.1224 0.6122
H2 H 0.5252 0.1489 0.4802
H3 H 0.4225 0.1908 0.5925
C2 C 0.6123(4) 0.4322(2) 0.5155(2)
H4 H 0.4689 0.4344 0.5422
H5 H 0.5791 0.4064 0.4290
H6 H 0.7170 0.5236 0.5338
C3 C 0.9443(4) 0.3187(2) 0.53834(19)
H7 H 1.0474 0.4107 0.5494
H8 H 0.9083 0.2841 0.4534
H9 H 1.0194 0.2558 0.5856
C4 C 0.7233(3) 0.32732(19) 0.57976(17)
C5 C 0.6570(3) 0.39941(18) 0.77536(17)
C6 C 0.6435(3) 0.48558(18) 0.97609(17)
H10 H 0.5518 0.3938 0.9899
C7 C 0.8129(3) 0.5439(2) 1.09387(18)
H11 H 0.9405 0.6160 1.0753
C8 C 0.7001(4) 0.6108(2) 1.1822(2)
H12 H 0.6435 0.6877 1.1473
H13 H 0.8129 0.6454 1.2565
H14 H 0.5713 0.5424 1.1998
C9 C 0.9160(4) 0.4275(2) 1.1479(2)
H15 H 0.7912 0.3568 1.1685
H16 H 0.9794 0.3832 1.0864
C10 C 1.1040(4) 0.4746(3) 1.2590(2)
H17 H 1.2229 0.5499 1.2414
H18 H 1.1720 0.3972 1.2828
H19 H 1.0384 0.5072 1.3242
C11 C 0.4730(3) 0.57487(18) 0.93536(17)
C12 C 0.3866(3) 0.76093(19) 0.81519(17)
C13 C 0.5232(3) 0.8894(2) 0.77190(19)
H20 H 0.6222 0.9493 0.8409
H21 H 0.4169 0.9394 0.7284
H22 H 0.6181 0.8619 0.7186
C14 C 0.2291(3) 0.6677(2) 0.70919(18)
H23 H 0.3211 0.6412 0.6538
H24 H 0.1198 0.7171 0.6677
H25 H 0.1450 0.5846 0.7378
C15 C 0.2425(3) 0.80859(18) 0.89952(18)
C16 C 0.2371(3) 0.94100(19) 1.08207(17)
H26 H 0.1398 0.8662 1.1175
C17 C 0.0819(3) 1.02581(19) 1.01468(17)
C18 C 0.0543(4) 1.1842(2) 0.8680(2)
H27 H -0.0544 1.1251 0.8015
H28 H 0.1590 1.2556 0.8363
H29 H -0.0304 1.2280 0.9180
C19 C 0.4069(3) 1.0364(2) 1.18411(18)
H30 H 0.5178 1.1020 1.1490
H31 H 0.3210 1.0910 1.2255
C20 C 0.5395(4) 0.9652(2) 1.27590(18)
C21 C 0.7770(4) 1.0096(2) 1.3105(2)
H32 H 0.8577 1.0793 1.2704
C22 C 0.8968(4) 0.9529(3) 1.4029(2)
H33 H 1.0585 0.9855 1.4267
C23 C 0.7833(5) 0.8495(3) 1.4606(2)
H34 H 0.8663 0.8115 1.5243
C24 C 0.5493(4) 0.8018(2) 1.4256(2)
H35 H 0.4711 0.7292 1.4640
C25 C 0.4271(4) 0.8591(2) 1.33449(19)
H36 H 0.2653 0.8260 1.3115
N1 N 0.7715(3) 0.46107(16) 0.88433(15)
H37 H 0.921(4) 0.484(2) 0.900(2)
N2 N 0.5476(3) 0.68672(16) 0.87989(15)
H38 H 0.679(4) 0.703(2) 0.8681(18)
N3 N 0.3593(3) 0.87812(16) 1.00516(15)
H39 H 0.513(4) 0.894(2) 1.0207(18)
O1 O 0.8063(2) 0.37609(13) 0.70699(11)
O2 O 0.4495(2) 0.36890(14) 0.74581(12)
O3 O 0.2779(2) 0.54581(13) 0.95669(12)
O4 O 0.0336(2) 0.79327(13) 0.87055(12)
O5 O -0.1051(2) 1.02832(15) 1.03445(13)
O6 O 0.1854(2) 1.10120(13) 0.93976(13)
loop_
_geom_bond_atom_site_label_1
_geom_bond_atom_site_label_2
_geom_bond_site_symmetry_1
_geom_bond_site_symmetry_2
C1 H1 1_555 1_555
H2 C1 1_555 1_555
H3 C1 1_555 1_555
C2 H4 1_555 1_555
H5 C2 1_555 1_555
H6 C2 1_555 1_555
C3 H7 1_555 1_555
H8 C3 1_555 1_555
H9 C3 1_555 1_555
C4 C1 1_555 1_555
C5 N1 1_555 1_555
C6 H10 1_555 1_555
C7 C6 1_555 1_555
H11 C7 1_555 1_555
C8 C7 1_555 1_555
H12 C8 1_555 1_555
H13 C8 1_555 1_555
H14 C8 1_555 1_555
C9 C7 1_555 1_555
H15 C9 1_555 1_555
H16 C9 1_555 1_555
C10 C9 1_555 1_555
H17 C10 1_555 1_555
H18 C10 1_555 1_555
H19 C10 1_555 1_555
C11 C6 1_555 1_555
C12 C13 1_555 1_555
C13 H20 1_555 1_555
H21 C13 1_555 1_555
H22 C13 1_555 1_555
C14 C12 1_555 1_555
H23 C14 1_555 1_555
H24 C14 1_555 1_555
H25 C14 1_555 1_555
C15 C12 1_555 1_555
C16 H26 1_555 1_555
C17 C16 1_555 1_555
C18 H27 1_555 1_555
H28 C18 1_555 1_555
H29 C18 1_555 1_555
C19 C16 1_555 1_555
H30 C19 1_555 1_555
H31 C19 1_555 1_555
C20 C19 1_555 1_555
C21 C20 1_555 1_555
H32 C21 1_555 1_555
C22 C21 1_555 1_555
H33 C22 1_555 1_555
C23 C22 1_555 1_555
H34 C23 1_555 1_555
C24 C23 1_555 1_555
H35 C24 1_555 1_555
C25 C20 1_555 1_555
H36 C25 1_555 1_555
N1 C6 1_555 1_555
H37 N1 1_555 1_555
N2 C11 1_555 1_555
H38 N2 1_555 1_555
N3 C15 1_555 1_555
H39 N3 1_555 1_555
O1 C4 1_555 1_555
O2 C5 1_555 1_555
O3 C11 1_555 1_555
O4 C15 1_555 1_555
O5 C17 1_555 1_555
O6 C17 1_555 1_555
C2 C4 1_555 1_555
C3 C4 1_555 1_555
C5 O1 1_555 1_555
C12 N2 1_555 1_555
C16 N3 1_555 1_555
C18 O6 1_555 1_555
C24 C25 1_555 1_555

#END
