
#######################################################################
#
#                 Cambridge Crystallographic Data Centre
#                                CCDC 
#
#######################################################################
#
# If this CIF has been generated from an entry in the Cambridge 
# Structural Database, then it will include bibliographic, chemical, 
# crystal, experimental, refinement or atomic coordinate data resulting 
# from the CCDC's data processing and validation procedures.
#
#######################################################################

data_WILYOH
_chemical_formula_moiety         'C21 H20 O3 S1'
_chemical_name_systematic        
"4'-Methoxy-2-methylbiphenyl-4-yl 4-methylphenyl sulfone"
_symmetry_cell_setting           triclinic
_symmetry_space_group_name_H-M   'P -1'
_symmetry_Int_Tables_number      2
_space_group_name_Hall           '-P 1'
loop_
_symmetry_equiv_pos_site_id
_symmetry_equiv_pos_as_xyz
1 x,y,z
2 -x,-y,-z
_cell_length_a                   8.5706(9)
_cell_length_b                   9.9688(12)
_cell_length_c                   11.1452(12)
_cell_angle_alpha                109.257(6)
_cell_angle_beta                 90.685(6)
_cell_angle_gamma                101.009(7)
_cell_volume                     879.519
_exptl_crystal_colour            colorless
_exptl_crystal_description       tabular
_cell_formula_units_Z            2
loop_
_atom_site_label
_atom_site_type_symbol
_atom_site_fract_x
_atom_site_fract_y
_atom_site_fract_z
S1 S -0.00255(6) 0.33025(6) 0.19841(5)
O1 O 0.88188(17) 0.04188(17) -0.37309(14)
O2 O -0.07153(17) 0.43204(17) 0.15941(14)
O3 O -0.10499(17) 0.20569(17) 0.21423(14)
C1 C 0.4387(3) 0.6496(2) 0.6769(2)
H1 H 0.3793 0.6947 0.7487
H2 H 0.5192 0.7248 0.6612
H3 H 0.4913 0.5799 0.6973
C2 C 0.3258(2) 0.5723(2) 0.55988(19)
C3 C 0.3020(3) 0.6390(2) 0.4707(2)
H4 H 0.3574 0.7357 0.4851
C4 C 0.2000(3) 0.5677(2) 0.3628(2)
H5 H 0.1853 0.6147 0.3032
C5 C 0.1186(2) 0.4260(2) 0.34146(19)
C6 C 0.1370(2) 0.2688(2) 0.08828(19)
C7 C 0.1880(2) 0.1429(2) 0.0818(2)
H6 H 0.1427 0.0857 0.1309
C8 C 0.3062(3) 0.1021(2) 0.0024(2)
H7 H 0.3423 0.0162 -0.0026
C9 C 0.3728(2) 0.1851(2) -0.06998(19)
C10 C 0.5072(2) 0.1451(2) -0.14907(19)
C11 C 0.4828(3) 0.0445(2) -0.2721(2)
H8 H 0.3772 -0.0039 -0.3069
C12 C 0.6097(3) 0.0137(2) -0.3447(2)
H9 H 0.5907 -0.0540 -0.4291
C13 C 0.7647(2) 0.0816(2) -0.29428(19)
C14 C 1.0432(3) 0.1073(3) -0.3229(2)
H10 H 1.0586 0.2131 -0.2990
H11 H 1.1156 0.0716 -0.3878
H12 H 1.0659 0.0821 -0.2475
C15 C 0.7923(2) 0.1810(2) -0.17149(19)
H13 H 0.8981 0.2272 -0.1361
C16 C 0.6631(2) 0.2123(2) -0.10067(19)
H14 H 0.6821 0.2815 -0.0169
C17 C 0.3161(2) 0.3095(2) -0.06744(18)
C18 C 0.3811(3) 0.3965(2) -0.1501(2)
H15 H 0.3101 0.4617 -0.1533
H16 H 0.3878 0.3305 -0.2364
H17 H 0.4876 0.4538 -0.1143
C19 C 0.1985(2) 0.3515(2) 0.01392(19)
H18 H 0.1605 0.4365 0.0186
C20 C 0.1384(3) 0.3576(2) 0.4288(2)
H19 H 0.0818 0.2613 0.4147
C21 C 0.2416(3) 0.4312(2) 0.5367(2)
H20 H 0.2554 0.3842 0.5965
loop_
_geom_bond_atom_site_label_1
_geom_bond_atom_site_label_2
_geom_bond_site_symmetry_1
_geom_bond_site_symmetry_2
S1 O2 1_555 1_555
O1 C13 1_555 1_555
O3 S1 1_555 1_555
C1 H1 1_555 1_555
H2 C1 1_555 1_555
H3 C1 1_555 1_555
C2 C1 1_555 1_555
C3 C2 1_555 1_555
H4 C3 1_555 1_555
C4 C3 1_555 1_555
H5 C4 1_555 1_555
C5 S1 1_555 1_555
C6 S1 1_555 1_555
C7 C6 1_555 1_555
H6 C7 1_555 1_555
C8 C7 1_555 1_555
H7 C8 1_555 1_555
C9 C8 1_555 1_555
C10 C9 1_555 1_555
C11 C10 1_555 1_555
H8 C11 1_555 1_555
C12 C11 1_555 1_555
H9 C12 1_555 1_555
C13 C12 1_555 1_555
C14 O1 1_555 1_555
H10 C14 1_555 1_555
H11 C14 1_555 1_555
H12 C14 1_555 1_555
C15 C13 1_555 1_555
H13 C15 1_555 1_555
C16 C10 1_555 1_555
H14 C16 1_555 1_555
C17 C9 1_555 1_555
C18 C17 1_555 1_555
H15 C18 1_555 1_555
H16 C18 1_555 1_555
H17 C18 1_555 1_555
C19 C6 1_555 1_555
H18 C19 1_555 1_555
C20 C5 1_555 1_555
H19 C20 1_555 1_555
C21 C2 1_555 1_555
H20 C21 1_555 1_555
C4 C5 1_555 1_555
C15 C16 1_555 1_555
C17 C19 1_555 1_555
C20 C21 1_555 1_555

#END
