
#######################################################################
#
#                 Cambridge Crystallographic Data Centre
#                                CCDC 
#
#######################################################################
#
# If this CIF has been generated from an entry in the Cambridge 
# Structural Database, then it will include bibliographic, chemical, 
# crystal, experimental, refinement or atomic coordinate data resulting 
# from the CCDC's data processing and validation procedures.
#
#######################################################################

data_WIMCIH
_chemical_formula_moiety         'C6 H1 F3 N2 O4'
_chemical_name_systematic        2,3,4-trifluoro-1,5-dinitrobenzene
_symmetry_cell_setting           orthorhombic
_symmetry_space_group_name_H-M   'P b c a'
_symmetry_Int_Tables_number      61
_space_group_name_Hall           '-P 2ac 2ab'
loop_
_symmetry_equiv_pos_site_id
_symmetry_equiv_pos_as_xyz
1 x,y,z
2 1/2-x,-y,1/2+z
3 -x,1/2+y,1/2-z
4 1/2+x,1/2-y,-z
5 -x,-y,-z
6 1/2+x,y,1/2-z
7 x,1/2-y,1/2+z
8 1/2-x,1/2+y,z
_cell_length_a                   10.7585(7)
_cell_length_b                   10.6526(8)
_cell_length_c                   13.1462(9)
_cell_angle_alpha                90
_cell_angle_beta                 90
_cell_angle_gamma                90
_cell_volume                     1506.63
_exptl_crystal_description       block
_cell_formula_units_Z            8
loop_
_atom_site_label
_atom_site_type_symbol
_atom_site_fract_x
_atom_site_fract_y
_atom_site_fract_z
F1 F 0.09748(17) 0.07353(16) 0.44625(12)
F2 F -0.05464(16) 0.26906(18) 0.46749(12)
F3 F 0.25595(16) 0.00892(16) 0.59204(12)
N1 N -0.0626(2) 0.4113(2) 0.65208(19)
O1 O 0.25974(19) 0.2020(2) 0.85991(14)
O2 O -0.0983(2) 0.4228(2) 0.74040(18)
N2 N 0.2782(2) 0.1533(2) 0.77711(17)
C1 C 0.1035(2) 0.1432(2) 0.53083(18)
C2 C 0.1901(2) 0.1810(2) 0.69516(19)
O3 O 0.36741(19) 0.08540(19) 0.75750(18)
C3 C 0.0246(2) 0.2434(3) 0.54226(19)
O4 O -0.0964(2) 0.4755(2) 0.5817(2)
C4 C 0.0270(2) 0.3106(2) 0.6329(2)
C5 C 0.1864(2) 0.1100(2) 0.60652(19)
C6 C 0.1085(2) 0.2795(2) 0.70916(19)
H1 H 0.1087 0.3254 0.7711
loop_
_geom_bond_atom_site_label_1
_geom_bond_atom_site_label_2
_geom_bond_site_symmetry_1
_geom_bond_site_symmetry_2
F1 C1 1_555 1_555
F2 C3 1_555 1_555
F3 C5 1_555 1_555
N1 O2 1_555 1_555
O1 N2 1_555 1_555
N2 C2 1_555 1_555
C1 C3 1_555 1_555
C2 C5 1_555 1_555
O3 N2 1_555 1_555
C3 C4 1_555 1_555
O4 N1 1_555 1_555
C4 N1 1_555 1_555
C5 C1 1_555 1_555
C6 C2 1_555 1_555
H1 C6 1_555 1_555
C4 C6 1_555 1_555

#END
