
#######################################################################
#
#                 Cambridge Crystallographic Data Centre
#                                CCDC 
#
#######################################################################
#
# If this CIF has been generated from an entry in the Cambridge 
# Structural Database, then it will include bibliographic, chemical, 
# crystal, experimental, refinement or atomic coordinate data resulting 
# from the CCDC's data processing and validation procedures.
#
#######################################################################

data_WIMDOL
_chemical_formula_moiety         'C12 H17 N4 O1 S1 1+,I1 1-,1.5(H2 O1)'
_chemical_name_systematic        'Thiamine iodide sesquihydrate clathrate'
_symmetry_cell_setting           monoclinic
_symmetry_space_group_name_H-M   'P 21/c'
_symmetry_Int_Tables_number      14
_space_group_name_Hall           '-P 2ybc'
loop_
_symmetry_equiv_pos_site_id
_symmetry_equiv_pos_as_xyz
1 x,y,z
2 -x,1/2+y,1/2-z
3 -x,-y,-z
4 x,1/2-y,1/2+z
_cell_length_a                   12.585(2)
_cell_length_b                   25.303(5)
_cell_length_c                   12.030(2)
_cell_angle_alpha                90
_cell_angle_beta                 64.85(1)
_cell_angle_gamma                90
_cell_volume                     3467.64
_exptl_crystal_colour            colorless
_cell_formula_units_Z            8
_chemical_properties_physical    'Unstable in air'
loop_
_atom_site_label
_atom_site_type_symbol
_atom_site_fract_x
_atom_site_fract_y
_atom_site_fract_z
I1 I 1.21149(4) 0.28163(2) -0.44481(5)
I2 I 0.77831(5) 0.05639(2) -0.05842(5)
O1 O 0.5731(6) 0.4033(3) -0.2636(7)
O2 O 0.496(1) 0.0786(5) -0.522(1)
O4 O 0.032(1) 0.4267(7) 0.180(1)
S1 S 1.2186(2) 0.1510(1) -0.2894(2)
C1 C 1.0972(6) 0.1849(3) -0.1996(7)
N1 N 1.0386(5) 0.1613(2) -0.0929(5)
C2 C 1.0883(6) 0.1148(3) -0.0781(7)
C3 C 1.1884(7) 0.1040(3) -0.1769(7)
C4 C 1.0354(7) 0.0859(3) 0.0413(7)
C5 C 1.276(1) 0.0593(6) -0.194(1)
C7 C 1.244(1) 0.0154(5) -0.262(1)
O6 O 1.258(1) 0.0329(4) -0.3777(9)
C9 C 0.9316(6) 0.1851(3) 0.0048(6)
N2 N 0.8963(5) 0.3312(3) -0.0310(7)
C10 C 0.8356(6) 0.3290(3) -0.0973(7)
N3 N 0.8003(5) 0.2859(2) -0.1347(5)
C11 C 0.8318(6) 0.2377(3) -0.1064(6)
C12 C 0.8975(6) 0.2360(3) -0.0341(6)
C13 C 0.9261(6) 0.2833(3) 0.0009(8)
C14 C 0.7994(8) 0.3807(3) -0.1332(8)
N4 N 0.7947(5) 0.1957(3) -0.1442(6)
S2 S 0.2229(2) 0.34680(9) -0.1051(2)
C15 C 0.3348(6) 0.3111(3) -0.1988(7)
N5 N 0.3951(4) 0.3342(2) -0.3055(5)
C16 C 0.3508(6) 0.3838(3) -0.3159(7)
C17 C 0.2553(7) 0.3961(3) -0.2123(7)
C18 C 0.4045(8) 0.4139(4) -0.4317(9)
C19 C 0.194(1) 0.4524(4) -0.177(1)
C21 C 0.069(1) 0.4416(6) -0.146(1)
O8 O 0.0102(9) 0.4159(4) -0.0245(9)
C23 C 0.4993(6) 0.3101(3) -0.4060(6)
N6 N 0.5356(5) 0.1637(3) -0.3864(6)
C24 C 0.5980(6) 0.1637(3) -0.3189(7)
N7 N 0.6325(5) 0.2062(2) -0.2786(6)
C25 C 0.5997(6) 0.2541(3) -0.3031(6)
C26 C 0.5335(6) 0.2578(3) -0.3734(6)
C27 C 0.5068(6) 0.2107(3) -0.4132(7)
C28 C 0.6348(8) 0.1122(3) -0.2904(8)
N8 N 0.6348(6) 0.2966(3) -0.2612(6)
O3? O 0.429(2) 0.031(1) -0.586(2)
O5? O -0.045(2) 0.4113(7) 0.109(2)
C6? C 1.239(3) 0.0458(6) -0.205(3)
C8? C 1.362(3) 0.060(1) -0.245(3)
O7? O 1.416(2) 0.0814(8) -0.372(2)
C20? C 0.164(2) 0.4375(9) -0.206(2)
C22? C 0.192(2) 0.477(1) -0.124(2)
O9? O 0.171(1) 0.4574(6) -0.008(1)
loop_
_geom_bond_atom_site_label_1
_geom_bond_atom_site_label_2
_geom_bond_site_symmetry_1
_geom_bond_site_symmetry_2
S1 C1 1_555 1_555
C1 N1 1_555 1_555
N1 C2 1_555 1_555
C2 C3 1_555 1_555
C3 S1 1_555 1_555
C4 C2 1_555 1_555
C5 C3 1_555 1_555
C7 C5 1_555 1_555
O6 C7 1_555 1_555
C9 N1 1_555 1_555
N2 C10 1_555 1_555
C10 N3 1_555 1_555
N3 C11 1_555 1_555
C11 C12 1_555 1_555
C12 C9 1_555 1_555
C13 N2 1_555 1_555
C14 C10 1_555 1_555
N4 C11 1_555 1_555
S2 C15 1_555 1_555
C15 N5 1_555 1_555
N5 C16 1_555 1_555
C16 C17 1_555 1_555
C17 S2 1_555 1_555
C18 C16 1_555 1_555
C19 C17 1_555 1_555
C21 C19 1_555 1_555
O8 C21 1_555 1_555
C23 N5 1_555 1_555
N6 C24 1_555 1_555
C24 N7 1_555 1_555
N7 C25 1_555 1_555
C25 C26 1_555 1_555
C26 C23 1_555 1_555
C27 N6 1_555 1_555
C28 C24 1_555 1_555
N8 C25 1_555 1_555
C12 C13 1_555 1_555
C26 C27 1_555 1_555

#END
