
#######################################################################
#
#                 Cambridge Crystallographic Data Centre
#                                CCDC 
#
#######################################################################
#
# If this CIF has been generated from an entry in the Cambridge 
# Structural Database, then it will include bibliographic, chemical, 
# crystal, experimental, refinement or atomic coordinate data resulting 
# from the CCDC's data processing and validation procedures.
#
#######################################################################

data_WIMFAZ
_chemical_formula_moiety         'C39 H67 Br2 N1 O5 S1 Si2'
_chemical_name_systematic        
17,17-Dibromo-3-(1-(2-methyl-1,3-thiazol-4-yl)propen-2-yl)-7,11-bis(t-butyl(dimethyl)silyloxy)-8,8,12-trimethylbicyclo(14.1.0)heptadecane-5,9-dione
_symmetry_cell_setting           orthorhombic
_symmetry_space_group_name_H-M   'P 21 21 21'
_symmetry_Int_Tables_number      19
_space_group_name_Hall           'P 2ac 2ab'
loop_
_symmetry_equiv_pos_site_id
_symmetry_equiv_pos_as_xyz
1 x,y,z
2 1/2-x,-y,1/2+z
3 1/2+x,1/2-y,-z
4 -x,1/2+y,1/2-z
_cell_length_a                   15.888(3)
_cell_length_b                   29.582(4)
_cell_length_c                   9.680(1)
_cell_angle_alpha                90
_cell_angle_beta                 90
_cell_angle_gamma                90
_cell_volume                     4549.59
_exptl_crystal_colour            colorless
_exptl_crystal_description       rods
_chemical_melting_point          175-180deg.C
_cell_formula_units_Z            4
_exptl_crystal_recrystallization_method n-hexane
loop_
_atom_site_label
_atom_site_type_symbol
_atom_site_fract_x
_atom_site_fract_y
_atom_site_fract_z
Br1 Br 0.73254(6) 0.49792(4) 1.1811(1)
Br2 Br 0.59485(8) 0.47176(4) 1.4035(1)
Si1 Si 0.2535(2) 0.41535(8) 0.9108(3)
Si2 Si 0.6735(2) 0.28766(8) 0.4926(3)
O1 O 0.3573(4) 0.5218(2) 0.7760(6)
O2 O 0.3193(3) 0.4064(2) 0.7814(5)
O3 O 0.3457(4) 0.3225(2) 0.5873(8)
O4 O 0.6085(4) 0.3266(2) 0.5451(6)
O5 O 0.4889(3) 0.5008(2) 0.8337(6)
S1 S 0.6458(2) 0.6333(1) 0.3575(3)
N1 N 0.5508(5) 0.6479(2) 0.5649(8)
C1 C 0.4145(5) 0.4958(3) 0.7652(8)
C2 C 0.4195(5) 0.4557(3) 0.6711(9)
C3 C 0.3325(5) 0.4321(3) 0.6599(8)
C4 C 0.3233(6) 0.4000(3) 0.5337(9)
C5 C 0.3778(5) 0.3580(3) 0.5481(8)
C6 C 0.4703(6) 0.3575(3) 0.5038(9)
C7 C 0.5221(5) 0.3249(3) 0.595(1)
C8 C 0.5212(6) 0.3348(3) 0.751(1)
C9 C 0.5813(6) 0.3714(3) 0.7947(9)
C10 C 0.5545(6) 0.3935(3) 0.9298(9)
C11 C 0.6139(6) 0.4289(3) 0.9875(9)
C12 C 0.5735(5) 0.4509(3) 1.112(1)
C13 C 0.5516(5) 0.5017(3) 1.1206(9)
C14 C 0.5714(5) 0.5354(3) 1.011(1)
C15 C 0.4982(5) 0.5433(3) 0.908(1)
C16 C 0.3430(6) 0.4270(3) 0.399(1)
C17 C 0.2323(6) 0.3856(3) 0.5248(9)
C18 C 0.4715(6) 0.3422(4) 0.354(1)
C19 C 0.5339(7) 0.2918(3) 0.832(1)
C20 C 0.5167(5) 0.5821(3) 0.811(1)
C21 C 0.4896(6) 0.6272(3) 0.862(1)
C22 C 0.5553(5) 0.5739(3) 0.690(1)
C23 C 0.5776(6) 0.6042(3) 0.577(1)
C24 C 0.6313(8) 0.5912(3) 0.474(1)
C25 C 0.5794(7) 0.6674(3) 0.454(1)
C26 C 0.5596(8) 0.7139(4) 0.410(1)
C27 C 0.3015(6) 0.4547(3) 1.0360(9)
C28 C 0.1523(6) 0.4400(4) 0.848(1)
C29 C 0.2374(6) 0.3580(3) 0.9910(9)
C30 C 0.1788(6) 0.3627(3) 1.115(1)
C31 C 0.1978(8) 0.3255(3) 0.888(1)
C32 C 0.3206(7) 0.3385(3) 1.037(1)
C33 C 0.7353(8) 0.2656(4) 0.638(1)
C34 C 0.6173(7) 0.2385(3) 0.416(1)
C35 C 0.7452(6) 0.3163(3) 0.365(1)
C36 C 0.7013(9) 0.3313(6) 0.239(2)
C37 C 0.8159(7) 0.2862(4) 0.323(1)
C38 C 0.7790(8) 0.3593(4) 0.432(2)
C39 C 0.6189(5) 0.4813(3) 1.2113(9)
H1 H 0.438 0.468 0.568
H2 H 0.465 0.432 0.708
H3 H 0.284 0.458 0.654
H4 H 0.496 0.392 0.516
H5 H 0.497 0.290 0.581
H6 H 0.458 0.345 0.779
H7 H 0.643 0.356 0.808
H8 H 0.584 0.397 0.716
H9 H 0.492 0.408 0.917
H10 H 0.548 0.367 1.010
H11 H 0.674 0.414 1.015
H12 H 0.625 0.455 0.908
H13 H 0.513 0.433 1.128
H14 H 0.483 0.503 1.131
H15 H 0.587 0.567 1.064
H16 H 0.626 0.524 0.956
H17 H 0.439 0.551 0.966
H18 H 0.337 0.406 0.310
H19 H 0.299 0.456 0.388
H20 H 0.407 0.441 0.403
H21 H 0.220 0.363 0.436
H22 H 0.211 0.368 0.617
H23 H 0.188 0.414 0.511
H24 H 0.530 0.325 0.334
H25 H 0.419 0.322 0.334
H26 H 0.469 0.373 0.288
H27 H 0.533 0.298 0.943
H28 H 0.483 0.267 0.810
H29 H 0.593 0.276 0.806
H30 H 0.507 0.652 0.784
H31 H 0.423 0.628 0.876
H32 H 0.521 0.636 0.956
H33 H 0.574 0.538 0.672
H34 H 0.667 0.558 0.473
H35 H 0.518 0.731 0.485
H36 H 0.620 0.735 0.411
H37 H 0.534 0.717 0.310
H38 H 0.257 0.461 1.120
H39 H 0.358 0.441 1.076
H40 H 0.313 0.487 0.986
H41 H 0.110 0.446 0.935
H42 H 0.164 0.472 0.799
H43 H 0.123 0.418 0.776
H44 H 0.169 0.330 1.165
H45 H 0.207 0.385 1.193
H46 H 0.118 0.377 1.087
H47 H 0.187 0.293 0.936
H48 H 0.137 0.338 0.852
H49 H 0.238 0.322 0.800
H50 H 0.314 0.306 1.085
H51 H 0.363 0.336 0.949
H52 H 0.351 0.362 1.111
H53 H 0.780 0.240 0.605
H54 H 0.772 0.292 0.687
H55 H 0.695 0.251 0.717
H56 H 0.660 0.213 0.380
H57 H 0.574 0.224 0.489
H58 H 0.580 0.250 0.326
H59 H 0.743 0.350 0.169
H60 H 0.671 0.305 0.186
H61 H 0.651 0.357 0.268
H62 H 0.860 0.304 0.249
H63 H 0.857 0.278 0.414
H64 H 0.797 0.255 0.277
H65 H 0.821 0.377 0.358
H66 H 0.729 0.382 0.459
H67 H 0.816 0.351 0.521
loop_
_geom_bond_atom_site_label_1
_geom_bond_atom_site_label_2
_geom_bond_site_symmetry_1
_geom_bond_site_symmetry_2
Br1 C39 1_555 1_555
Br2 C39 1_555 1_555
Si1 O2 1_555 1_555
Si2 O4 1_555 1_555
O1 C1 1_555 1_555
O2 C3 1_555 1_555
O3 C5 1_555 1_555
O4 C7 1_555 1_555
O5 C1 1_555 1_555
S1 C24 1_555 1_555
N1 C23 1_555 1_555
C1 C2 1_555 1_555
C2 C3 1_555 1_555
C3 C4 1_555 1_555
C4 C5 1_555 1_555
C5 C6 1_555 1_555
C6 C7 1_555 1_555
C7 C8 1_555 1_555
C8 C9 1_555 1_555
C9 C10 1_555 1_555
C10 C11 1_555 1_555
C11 C12 1_555 1_555
C12 C13 1_555 1_555
C13 C14 1_555 1_555
C14 C15 1_555 1_555
C15 O5 1_555 1_555
C16 C4 1_555 1_555
C17 C4 1_555 1_555
C18 C6 1_555 1_555
C19 C8 1_555 1_555
C20 C15 1_555 1_555
C21 C20 1_555 1_555
C22 C20 1_555 1_555
C23 C22 1_555 1_555
C24 C23 1_555 1_555
C25 S1 1_555 1_555
C26 C25 1_555 1_555
C27 Si1 1_555 1_555
C28 Si1 1_555 1_555
C29 Si1 1_555 1_555
C30 C29 1_555 1_555
C31 C29 1_555 1_555
C32 C29 1_555 1_555
C33 Si2 1_555 1_555
C34 Si2 1_555 1_555
C35 Si2 1_555 1_555
C36 C35 1_555 1_555
C37 C35 1_555 1_555
C38 C35 1_555 1_555
C39 C12 1_555 1_555
H1 C2 1_555 1_555
H2 C2 1_555 1_555
H3 C3 1_555 1_555
H4 C6 1_555 1_555
H5 C7 1_555 1_555
H6 C8 1_555 1_555
H7 C9 1_555 1_555
H8 C9 1_555 1_555
H9 C10 1_555 1_555
H10 C10 1_555 1_555
H11 C11 1_555 1_555
H12 C11 1_555 1_555
H13 C12 1_555 1_555
H14 C13 1_555 1_555
H15 C14 1_555 1_555
H16 C14 1_555 1_555
H17 C15 1_555 1_555
H18 C16 1_555 1_555
H19 C16 1_555 1_555
H20 C16 1_555 1_555
H21 C17 1_555 1_555
H22 C17 1_555 1_555
H23 C17 1_555 1_555
H24 C18 1_555 1_555
H25 C18 1_555 1_555
H26 C18 1_555 1_555
H27 C19 1_555 1_555
H28 C19 1_555 1_555
H29 C19 1_555 1_555
H30 C21 1_555 1_555
H31 C21 1_555 1_555
H32 C21 1_555 1_555
H33 C22 1_555 1_555
H34 C24 1_555 1_555
H35 C26 1_555 1_555
H36 C26 1_555 1_555
H37 C26 1_555 1_555
H38 C27 1_555 1_555
H39 C27 1_555 1_555
H40 C27 1_555 1_555
H41 C28 1_555 1_555
H42 C28 1_555 1_555
H43 C28 1_555 1_555
H44 C30 1_555 1_555
H45 C30 1_555 1_555
H46 C30 1_555 1_555
H47 C31 1_555 1_555
H48 C31 1_555 1_555
H49 C31 1_555 1_555
H50 C32 1_555 1_555
H51 C32 1_555 1_555
H52 C32 1_555 1_555
H53 C33 1_555 1_555
H54 C33 1_555 1_555
H55 C33 1_555 1_555
H56 C34 1_555 1_555
H57 C34 1_555 1_555
H58 C34 1_555 1_555
H59 C36 1_555 1_555
H60 C36 1_555 1_555
H61 C36 1_555 1_555
H62 C37 1_555 1_555
H63 C37 1_555 1_555
H64 C37 1_555 1_555
H65 C38 1_555 1_555
H66 C38 1_555 1_555
H67 C38 1_555 1_555
N1 C25 1_555 1_555
C13 C39 1_555 1_555

#END
