
#######################################################################
#
#                 Cambridge Crystallographic Data Centre
#                                CCDC 
#
#######################################################################
#
# If this CIF has been generated from an entry in the Cambridge 
# Structural Database, then it will include bibliographic, chemical, 
# crystal, experimental, refinement or atomic coordinate data resulting 
# from the CCDC's data processing and validation procedures.
#
#######################################################################

data_WIMMIR
_chemical_formula_moiety         'C18 H23 N5 O1'
_chemical_name_systematic        
13-[(4-methoxyphenyl)methyl]-5,7,8,9,10,11-hexahydro-4,6-(epiminomethano)pyrimido[4,5-b][1,5]diazonine
_symmetry_cell_setting           monoclinic
_symmetry_space_group_name_H-M   'P 21/n'
_symmetry_Int_Tables_number      14
_space_group_name_Hall           '-P 2yn'
loop_
_symmetry_equiv_pos_site_id
_symmetry_equiv_pos_as_xyz
1 x,y,z
2 1/2-x,1/2+y,1/2-z
3 -x,-y,-z
4 1/2+x,1/2-y,1/2+z
_cell_length_a                   8.8828(6)
_cell_length_b                   19.2484(13)
_cell_length_c                   10.8095(7)
_cell_angle_alpha                90
_cell_angle_beta                 113.471(4)
_cell_angle_gamma                90
_cell_volume                     1695.29
_exptl_crystal_colour            colorless
_exptl_crystal_description       block
_cell_formula_units_Z            4
loop_
_atom_site_label
_atom_site_type_symbol
_atom_site_fract_x
_atom_site_fract_y
_atom_site_fract_z
C1 C -0.0678(3) 0.53666(13) -0.3172(2)
H1 H -0.0431 0.5048 -0.3749
H2 H -0.097 0.581 -0.361
H3 H -0.1579 0.519 -0.2989
C2 C 0.1392(2) 0.48546(9) -0.12353(19)
C3 C 0.0815(2) 0.41919(9) -0.16042(19)
H4 H -0.0146 0.4119 -0.2365
C4 C 0.1663(2) 0.36354(9) -0.08456(18)
H5 H 0.1261 0.3189 -0.1109
C5 C 0.3091(2) 0.37189(9) 0.02939(17)
C6 C 0.3613(3) 0.43905(11) 0.0665(2)
H6 H 0.4548 0.4467 0.1446
C7 C 0.2786(3) 0.49497(11) -0.0089(2)
H7 H 0.3175 0.5397 0.0181
C8 C 0.4055(2) 0.31040(10) 0.10779(18)
H8 H 0.443 0.2833 0.0499
H9 H 0.5017 0.3272 0.1829
C9 C 0.25907(19) 0.20102(8) 0.10969(15)
C10 C 0.2229(2) 0.11722(9) -0.04418(17)
H10 H 0.2498 0.0991 -0.1125
C11 C 0.1005(2) 0.10107(8) 0.10316(15)
C12 C 0.18125(19) 0.15928(8) 0.17309(14)
C13 C 0.1855(2) 0.18571(9) 0.30550(15)
H11 H 0.1078 0.16 0.3303
H12 H 0.2942 0.1791 0.3757
C14 C 0.2689(3) 0.29642(10) 0.26626(19)
H13 H 0.367 0.2985 0.3491
H14 H 0.2321 0.3437 0.2407
C15 C -0.0215(2) 0.27072(9) 0.18705(19)
H15 H -0.0198 0.2594 0.1001
H16 H -0.0489 0.3196 0.1857
C16 C -0.1550(2) 0.22781(10) 0.2061(2)
H17 H -0.2514 0.2571 0.1821
H18 H -0.1179 0.2175 0.3015
C17 C -0.2096(2) 0.15896(10) 0.12897(18)
H19 H -0.2022 0.1649 0.0424
H20 H -0.3249 0.1529 0.1107
C18 C -0.1229(2) 0.09021(9) 0.18902(17)
H21 H -0.0639 0.0966 0.2854
H22 H -0.2065 0.0552 0.1761
N1 N 0.31221(18) 0.26539(7) 0.15956(14)
N2 N 0.28392(17) 0.17966(7) -0.00002(13)
N3 N 0.12932(18) 0.07701(7) -0.00498(14)
N4 N 0.14333(18) 0.25941(7) 0.29235(13)
N5 N -0.00821(19) 0.06305(7) 0.13487(15)
H23 H -0.0095 0.0189 0.1218
O1 O 0.0706(2) 0.54421(7) -0.19541(16)
loop_
_geom_bond_atom_site_label_1
_geom_bond_atom_site_label_2
_geom_bond_site_symmetry_1
_geom_bond_site_symmetry_2
C1 H1 1_555 1_555
H2 C1 1_555 1_555
H3 C1 1_555 1_555
C2 C3 1_555 1_555
C3 H4 1_555 1_555
C4 C3 1_555 1_555
H5 C4 1_555 1_555
C5 C4 1_555 1_555
C6 C5 1_555 1_555
H6 C6 1_555 1_555
C7 C2 1_555 1_555
H7 C7 1_555 1_555
C8 C5 1_555 1_555
H8 C8 1_555 1_555
H9 C8 1_555 1_555
C9 C12 1_555 1_555
C10 H10 1_555 1_555
C11 C12 1_555 1_555
C12 C13 1_555 1_555
C13 H11 1_555 1_555
H12 C13 1_555 1_555
C14 H13 1_555 1_555
H14 C14 1_555 1_555
C15 H15 1_555 1_555
H16 C15 1_555 1_555
C16 C15 1_555 1_555
H17 C16 1_555 1_555
H18 C16 1_555 1_555
C17 C16 1_555 1_555
H19 C17 1_555 1_555
H20 C17 1_555 1_555
C18 C17 1_555 1_555
H21 C18 1_555 1_555
H22 C18 1_555 1_555
N1 C8 1_555 1_555
N2 C9 1_555 1_555
N3 C10 1_555 1_555
N4 C13 1_555 1_555
N5 C11 1_555 1_555
H23 N5 1_555 1_555
O1 C1 1_555 1_555
C2 O1 1_555 1_555
C6 C7 1_555 1_555
C9 N1 1_555 1_555
C10 N2 1_555 1_555
C11 N3 1_555 1_555
C14 N1 1_555 1_555
C14 N4 1_555 1_555
C15 N4 1_555 1_555
C18 N5 1_555 1_555

#END
