
#######################################################################
#
#                 Cambridge Crystallographic Data Centre
#                                CCDC 
#
#######################################################################
#
# If this CIF has been generated from an entry in the Cambridge 
# Structural Database, then it will include bibliographic, chemical, 
# crystal, experimental, refinement or atomic coordinate data resulting 
# from the CCDC's data processing and validation procedures.
#
#######################################################################

data_WIMMAJ
_chemical_formula_moiety         'C20 H22 F3 N1 O3'
_chemical_name_systematic        
'6,6,6-trifluoro-4-(4-methylpyridin-2-yl)hexyl 4-methoxybenzoate'
_symmetry_cell_setting           triclinic
_symmetry_space_group_name_H-M   'P -1'
_symmetry_Int_Tables_number      2
_space_group_name_Hall           '-P 1'
loop_
_symmetry_equiv_pos_site_id
_symmetry_equiv_pos_as_xyz
1 x,y,z
2 -x,-y,-z
_cell_length_a                   8.3180(17)
_cell_length_b                   11.515(2)
_cell_length_c                   11.539(2)
_cell_angle_alpha                61.60(3)
_cell_angle_beta                 78.05(3)
_cell_angle_gamma                75.08(3)
_cell_volume                     934.769
_exptl_crystal_colour            colorless
_exptl_crystal_description       block
_cell_formula_units_Z            2
loop_
_atom_site_label
_atom_site_type_symbol
_atom_site_fract_x
_atom_site_fract_y
_atom_site_fract_z
O1 O 0.04892(13) 0.21892(10) 0.37190(10)
O2 O -0.62493(13) 0.38370(10) 0.11427(10)
N1 N 0.36134(16) 0.09656(12) 0.83765(12)
F1 F 0.61750(13) 0.28949(11) 0.79198(10)
F2 F 0.86221(13) 0.22815(11) 0.71278(11)
C1 C 0.33465(17) 0.22124(14) 0.73911(13)
C2 C -0.16826(17) 0.21266(13) 0.27204(13)
C3 C -0.47400(17) 0.32241(13) 0.16378(13)
O3 O 0.07378(14) 0.04156(11) 0.33339(12)
C4 C 0.20709(18) 0.15515(14) 0.42932(14)
H1 H 0.297465 0.148846 0.360517
H2 H 0.200275 0.063145 0.499906
C5 C -0.25611(18) 0.33806(13) 0.26185(13)
H3 H -0.211185 0.385972 0.291679
C6 C -0.00487(18) 0.14784(14) 0.32778(13)
C7 C 0.45385(18) 0.24811(13) 0.61343(14)
H4 H 0.437177 0.347051 0.554641
C8 C 0.20114(18) 0.31978(13) 0.74708(14)
H5 H 0.186856 0.407221 0.675015
C9 C 0.63712(18) 0.19657(14) 0.64351(14)
H6 H 0.648317 0.103443 0.715248
H7 H 0.706836 0.193946 0.563778
C10 C -0.23616(17) 0.14416(13) 0.22767(13)
H8 H -0.177428 0.058896 0.234753
C11 C 0.08874(18) 0.29054(15) 0.86017(15)
C12 C 0.41476(18) 0.17743(14) 0.54058(13)
H9 H 0.502591 0.183540 0.466495
H10 H 0.417668 0.081127 0.602387
C13 C -0.40802(18) 0.39242(13) 0.20854(14)
H11 H -0.467484 0.477205 0.202332
C14 C 0.24458(19) 0.23818(14) 0.48628(14)
H12 H 0.156917 0.240455 0.558121
H13 H 0.244787 0.331507 0.416573
C15 C -0.38820(18) 0.19790(13) 0.17317(13)
H14 H -0.432781 0.150262 0.142809
C16 C 0.2533(2) 0.06885(15) 0.94719(15)
H15 H 0.271293 -0.018955 1.018382
C17 C -0.6937(2) 0.31862(16) 0.06245(15)
H16 H -0.617352 0.309885 -0.011197
H17 H -0.801982 0.372040 0.030781
H18 H -0.709008 0.229223 0.132151
F3 F 0.70243(17) 0.40624(10) 0.58955(12)
C18 C 0.1168(2) 0.16148(16) 0.96223(15)
H19 H 0.043393 0.136645 1.041603
C19 C 0.70306(19) 0.27974(15) 0.68398(16)
C20 C -0.0594(2) 0.39455(17) 0.87054(17)
H20 H -0.029127 0.483782 0.821964
H21 H -0.091867 0.374483 0.963835
H22 H -0.153283 0.392840 0.832547
loop_
_geom_bond_atom_site_label_1
_geom_bond_atom_site_label_2
_geom_bond_site_symmetry_1
_geom_bond_site_symmetry_2
O1 C4 1_555 1_555
O2 C3 1_555 1_555
N1 C1 1_555 1_555
F1 C19 1_555 1_555
F2 C19 1_555 1_555
C1 C7 1_555 1_555
C2 C5 1_555 1_555
C3 C13 1_555 1_555
O3 C6 1_555 1_555
C4 H1 1_555 1_555
H2 C4 1_555 1_555
C5 H3 1_555 1_555
C6 O1 1_555 1_555
C7 H4 1_555 1_555
C8 C1 1_555 1_555
H5 C8 1_555 1_555
C9 C7 1_555 1_555
H6 C9 1_555 1_555
H7 C9 1_555 1_555
C10 C2 1_555 1_555
H8 C10 1_555 1_555
C11 C8 1_555 1_555
C12 C7 1_555 1_555
H9 C12 1_555 1_555
H10 C12 1_555 1_555
C13 C5 1_555 1_555
H11 C13 1_555 1_555
C14 C4 1_555 1_555
H12 C14 1_555 1_555
H13 C14 1_555 1_555
C15 C3 1_555 1_555
H14 C15 1_555 1_555
C16 N1 1_555 1_555
H15 C16 1_555 1_555
C17 O2 1_555 1_555
H16 C17 1_555 1_555
H17 C17 1_555 1_555
H18 C17 1_555 1_555
F3 C19 1_555 1_555
C18 C11 1_555 1_555
H19 C18 1_555 1_555
C19 C9 1_555 1_555
C20 C11 1_555 1_555
H20 C20 1_555 1_555
H21 C20 1_555 1_555
H22 C20 1_555 1_555
C2 C6 1_555 1_555
C10 C15 1_555 1_555
C12 C14 1_555 1_555
C16 C18 1_555 1_555

#END
