
#######################################################################
#
#                 Cambridge Crystallographic Data Centre
#                                CCDC 
#
#######################################################################
#
# If this CIF has been generated from an entry in the Cambridge 
# Structural Database, then it will include bibliographic, chemical, 
# crystal, experimental, refinement or atomic coordinate data resulting 
# from the CCDC's data processing and validation procedures.
#
#######################################################################

data_WIMZOJ
_chemical_formula_moiety         'C18 H13 N1 O5 S2'
_chemical_name_systematic        
'Dimethyl 6-(2-thienyl)-2-(2-thienylcarbonyl)pyridine-3,4-dicarboxylate'
_symmetry_cell_setting           monoclinic
_symmetry_space_group_name_H-M   'C 2/c'
_symmetry_Int_Tables_number      15
_space_group_name_Hall           '-C 2yn'
loop_
_symmetry_equiv_pos_site_id
_symmetry_equiv_pos_as_xyz
1 x,y,z
2 -x,y,1/2-z
3 1/2+x,1/2+y,z
4 1/2-x,1/2+y,1/2-z
5 -x,-y,-z
6 x,-y,1/2+z
7 1/2-x,1/2-y,-z
8 1/2+x,1/2-y,1/2+z
_cell_length_a                   25.3709(8)
_cell_length_b                   11.4204(4)
_cell_length_c                   13.8513(4)
_cell_angle_alpha                90
_cell_angle_beta                 119.1470(10)
_cell_angle_gamma                90
_cell_volume                     3505.16
_exptl_crystal_colour            yellow
_exptl_crystal_description       chunk
_cell_formula_units_Z            8
loop_
_atom_site_label
_atom_site_type_symbol
_atom_site_fract_x
_atom_site_fract_y
_atom_site_fract_z
C1 C 0.52088(8) 0.42728(17) 0.39204(14)
C2 C 0.52887(9) 0.30642(18) 0.40076(15)
H1 H 0.5675 0.2748 0.4393
C3 C 0.47909(9) 0.23384(18) 0.35181(15)
C4 C 0.42137(9) 0.28307(19) 0.29582(15)
C5 C 0.41726(8) 0.40507(18) 0.29784(15)
C6 C 0.57255(8) 0.50649(17) 0.43553(14)
C7 C 0.63298(9) 0.4791(2) 0.48260(17)
H2 H 0.6476 0.4029 0.4919
C8 C 0.66997(10) 0.5789(2) 0.51487(19)
H3 H 0.7118 0.5759 0.5482
C9 C 0.63846(10) 0.6791(2) 0.4925(2)
H4 H 0.6560 0.7531 0.5089
C10 C 0.48749(10) 0.1037(2) 0.35588(18)
C11 C 0.55673(15) -0.0500(2) 0.4422(3)
H5 H 0.5966 -0.0630 0.5027
H6 H 0.5552 -0.0736 0.3744
H7 H 0.5282 -0.0951 0.4535
C12 C 0.36682(10) 0.2046(2) 0.23937(18)
C13 C 0.30047(14) 0.1144(3) 0.0704(3)
H8 H 0.2911 0.1134 -0.0056
H9 H 0.2657 0.1394 0.0751
H10 H 0.3119 0.0371 0.1009
C14 C 0.35596(9) 0.4630(2) 0.24864(16)
C15 C 0.34909(9) 0.5887(2) 0.26031(16)
C16 C 0.2952(2) 0.6434(5) 0.2368(9)
H11 H 0.2594 0.6016 0.2100
C17 C 0.29751(12) 0.7626(3) 0.2552(2)
H12 H 0.2653 0.8101 0.2443
C18 C 0.35521(13) 0.7979(3) 0.2919(2)
H13 H 0.3665 0.8759 0.3084
N1 N 0.46555(7) 0.47539(15) 0.34372(12)
O1 O 0.45031(8) 0.03592(16) 0.29389(16)
O2 O 0.54188(8) 0.07307(14) 0.43644(14)
O3 O 0.34432(8) 0.15395(16) 0.28602(15)
O4 O 0.34997(7) 0.19462(15) 0.13197(13)
O5 O 0.31119(7) 0.40079(17) 0.20193(15)
S1 S 0.56258(2) 0.65492(5) 0.43039(5)
S2 S 0.40382(5) 0.69707(8) 0.30559(8)
C19? C 0.3819(4) 0.6906(5) 0.2955(17)
H14? H 0.4234 0.6875 0.3226
S3? S 0.27650(19) 0.6195(4) 0.2214(5)
loop_
_geom_bond_atom_site_label_1
_geom_bond_atom_site_label_2
_geom_bond_site_symmetry_1
_geom_bond_site_symmetry_2
C1 C2 1_555 1_555
C2 H1 1_555 1_555
C3 C2 1_555 1_555
C4 C3 1_555 1_555
C5 C4 1_555 1_555
C6 C1 1_555 1_555
C7 C6 1_555 1_555
H2 C7 1_555 1_555
C8 C7 1_555 1_555
H3 C8 1_555 1_555
C9 C8 1_555 1_555
H4 C9 1_555 1_555
C10 C3 1_555 1_555
C11 H5 1_555 1_555
H6 C11 1_555 1_555
H7 C11 1_555 1_555
C12 C4 1_555 1_555
C13 H8 1_555 1_555
H9 C13 1_555 1_555
H10 C13 1_555 1_555
C14 C5 1_555 1_555
C15 C14 1_555 1_555
C16 C15 1_555 1_555
H11 C16 1_555 1_555
C17 C16 1_555 1_555
H12 C17 1_555 1_555
C18 C17 1_555 1_555
H13 C18 1_555 1_555
N1 C1 1_555 1_555
O1 C10 1_555 1_555
O2 C10 1_555 1_555
O3 C12 1_555 1_555
O4 C12 1_555 1_555
O5 C14 1_555 1_555
S1 C6 1_555 1_555
S2 C15 1_555 1_555
C5 N1 1_555 1_555
C9 S1 1_555 1_555
C11 O2 1_555 1_555
C13 O4 1_555 1_555
C18 S2 1_555 1_555

#END
