
#######################################################################
#
#                 Cambridge Crystallographic Data Centre
#                                CCDC 
#
#######################################################################
#
# If this CIF has been generated from an entry in the Cambridge 
# Structural Database, then it will include bibliographic, chemical, 
# crystal, experimental, refinement or atomic coordinate data resulting 
# from the CCDC's data processing and validation procedures.
#
#######################################################################

data_WINBUQ
_chemical_formula_moiety         'C42 H52 N4'
_chemical_name_systematic        
1,5,9,13-Tetra-aza-3,7,11,15(1,3)-tetrabenzenatricyclo(7.7.5.5^5,13^)hexacosaphane
_symmetry_cell_setting           monoclinic
_symmetry_space_group_name_H-M   'P 21/n'
_symmetry_Int_Tables_number      14
_space_group_name_Hall           '-P 2yn'
loop_
_symmetry_equiv_pos_site_id
_symmetry_equiv_pos_as_xyz
1 x,y,z
2 1/2+x,1/2-y,1/2+z
3 -x,-y,-z
4 1/2-x,1/2+y,1/2-z
_cell_length_a                   12.2843(2)
_cell_length_b                   21.1605(3)
_cell_length_c                   14.9170(3)
_cell_angle_alpha                90
_cell_angle_beta                 112.5150(5)
_cell_angle_gamma                90
_cell_volume                     3582
_exptl_crystal_colour            colorless
_exptl_crystal_description       prism
_chemical_melting_point          347.2-347.7deg.C
_cell_formula_units_Z            4
_exptl_crystal_recrystallization_method benzene
loop_
_atom_site_label
_atom_site_type_symbol
_atom_site_fract_x
_atom_site_fract_y
_atom_site_fract_z
N1 N 0.7135(1) 0.07298(7) 1.3595(1)
N2 N 0.8526(1) -0.09407(7) 1.1375(1)
N3 N 1.1227(1) 0.11601(7) 1.2972(1)
N4 N 0.6866(1) 0.14365(7) 1.0083(1)
C1 C 0.6542(2) -0.03947(9) 1.3133(1)
C2 C 0.6021(2) -0.09010(10) 1.3411(2)
C3 C 0.6299(2) -0.15199(10) 1.3276(2)
C4 C 0.7133(2) -0.16379(9) 1.2875(1)
C5 C 0.7721(2) -0.11382(9) 1.2625(1)
C6 C 0.7403(2) -0.05185(9) 1.2744(1)
C7 C 1.0676(2) -0.07638(10) 1.1800(2)
C8 C 1.1613(2) -0.11445(9) 1.2394(2)
C9 C 1.2676(2) -0.08734(10) 1.2979(2)
C10 C 1.2795(2) -0.02216(10) 1.3006(2)
C11 C 1.1854(2) 0.01647(9) 1.2460(2)
C12 C 1.0815(2) -0.01109(10) 1.1855(2)
C13 C 1.0468(2) 0.20056(8) 1.1730(1)
C14 C 1.0920(2) 0.24708(9) 1.1304(2)
C15 C 1.0312(2) 0.26517(10) 1.0351(2)
C16 C 0.9242(2) 0.23665(9) 0.9806(2)
C17 C 0.8784(2) 0.18901(9) 1.0202(1)
C18 C 0.9408(2) 0.17151(8) 1.1169(1)
C19 C 0.5864(2) 0.19696(8) 1.1044(1)
C20 C 0.4752(2) 0.22286(9) 1.0851(2)
C21 C 0.4255(2) 0.2193(1) 1.1542(2)
C22 C 0.4847(2) 0.18970(10) 1.2425(2)
C23 C 0.5955(2) 0.16377(9) 1.2628(2)
C24 C 0.6452(2) 0.16724(9) 1.1930(1)
C25 C 0.6172(2) 0.02733(10) 1.3256(2)
C26 C 0.8684(2) -0.12771(10) 1.2261(2)
C27 C 0.9550(2) -0.1057(1) 1.1100(2)
C28 C 1.1955(2) 0.08741(9) 1.2499(2)
C29 C 1.1108(2) 0.18397(9) 1.2783(2)
C30 C 0.7656(2) 0.15558(9) 0.9579(1)
C31 C 0.6444(2) 0.20393(9) 1.0319(1)
C32 C 0.6648(2) 0.13586(9) 1.3617(2)
C33 C 0.7980(2) 0.05552(9) 1.4562(1)
C34 C 0.9144(2) 0.09138(9) 1.4881(2)
C35 C 0.9782(2) 0.08427(9) 1.4191(1)
C36 C 1.0967(2) 0.11814(9) 1.4569(2)
C37 C 1.1752(2) 0.10338(10) 1.4019(2)
C38 C 0.7452(2) -0.11475(9) 1.0570(2)
C39 C 0.7012(2) -0.06706(10) 0.9738(2)
C40 C 0.6780(2) -0.00164(9) 1.0062(1)
C41 C 0.6121(2) 0.04055(9) 0.9210(1)
C42 C 0.5838(2) 0.10582(9) 0.9481(1)
H1 H 0.5486 -0.0860 1.3707
H2 H 0.5974 -0.1903 1.3511
H3 H 0.7304 -0.2080 1.2766
H4 H 0.7799 -0.0128 1.2535
H5 H 1.1560 -0.1608 1.2352
H6 H 1.3288 -0.1146 1.3362
H7 H 1.3511 0.0054 1.3366
H8 H 1.0173 0.0164 1.1514
H9 H 1.1670 0.2665 1.1674
H10 H 1.0611 0.2995 1.0011
H11 H 0.8785 0.2525 0.9142
H12 H 0.9067 0.1415 1.1449
H13 H 0.4265 0.2444 1.0207
H14 H 0.3501 0.2358 1.1398
H15 H 0.4479 0.1862 1.2921
H16 H 0.7208 0.1512 1.2063
H17 H 0.5718 0.0255 1.3597
H18 H 0.5563 0.0388 1.2654
H19 H 0.9560 -0.1223 1.2534
H20 H 0.8776 -0.1729 1.2220
H21 H 0.9706 -0.1543 1.1043
H22 H 0.9301 -0.0909 1.0413
H23 H 1.1719 0.1045 1.1864
H24 H 1.2715 0.1002 1.2760
H25 H 1.0729 0.2016 1.3142
H26 H 1.1933 0.2036 1.3062
H27 H 0.7911 0.1200 0.9403
H28 H 0.7247 0.1838 0.8974
H29 H 0.7179 0.2300 1.0559
H30 H 0.5930 0.2266 0.9742
H31 H 0.6071 0.1368 1.3998
H32 H 0.7262 0.1662 1.3938
H33 H 0.7560 0.0578 1.5027
H34 H 0.8054 0.0125 1.4548
H35 H 0.9026 0.1293 1.4960
H36 H 0.9699 0.0757 1.5555
H37 H 0.9925 0.0437 1.4141
H38 H 0.9345 0.0977 1.3515
H39 H 1.0805 0.1615 1.4577
H40 H 1.1437 0.1064 1.5237
H41 H 1.2508 0.1236 1.4353
H42 H 1.1949 0.0624 1.4109
H43 H 0.7516 -0.1559 1.0272
H44 H 0.6797 -0.1211 1.0820
H45 H 0.7662 -0.0615 0.9555
H46 H 0.6261 -0.0865 0.9248
H47 H 0.6266 0.0002 1.0423
H48 H 0.7500 0.0142 1.0391
H49 H 0.5471 0.0219 0.8868
H50 H 0.6547 0.0411 0.8776
H51 H 0.5303 0.0990 0.9824
H52 H 0.5334 0.1299 0.8948
loop_
_geom_bond_atom_site_label_1
_geom_bond_atom_site_label_2
_geom_bond_site_symmetry_1
_geom_bond_site_symmetry_2
N1 C25 1_555 1_555
N2 C26 1_555 1_555
N3 C28 1_555 1_555
N4 C30 1_555 1_555
C1 C2 1_555 1_555
C2 C3 1_555 1_555
C3 C4 1_555 1_555
C4 C5 1_555 1_555
C5 C6 1_555 1_555
C6 C1 1_555 1_555
C7 C8 1_555 1_555
C8 C9 1_555 1_555
C9 C10 1_555 1_555
C10 C11 1_555 1_555
C11 C12 1_555 1_555
C12 C7 1_555 1_555
C13 C14 1_555 1_555
C14 C15 1_555 1_555
C15 C16 1_555 1_555
C16 C17 1_555 1_555
C17 C18 1_555 1_555
C18 C13 1_555 1_555
C19 C20 1_555 1_555
C20 C21 1_555 1_555
C21 C22 1_555 1_555
C22 C23 1_555 1_555
C23 C24 1_555 1_555
C24 C19 1_555 1_555
C25 C1 1_555 1_555
C26 C5 1_555 1_555
C27 N2 1_555 1_555
C28 C11 1_555 1_555
C29 N3 1_555 1_555
C30 C17 1_555 1_555
C31 N4 1_555 1_555
C32 N1 1_555 1_555
C33 N1 1_555 1_555
C34 C33 1_555 1_555
C35 C34 1_555 1_555
C36 C35 1_555 1_555
C37 N3 1_555 1_555
C38 N2 1_555 1_555
C39 C38 1_555 1_555
C40 C39 1_555 1_555
C41 C40 1_555 1_555
C42 N4 1_555 1_555
H1 C2 1_555 1_555
H2 C3 1_555 1_555
H3 C4 1_555 1_555
H4 C6 1_555 1_555
H5 C8 1_555 1_555
H6 C9 1_555 1_555
H7 C10 1_555 1_555
H8 C12 1_555 1_555
H9 C14 1_555 1_555
H10 C15 1_555 1_555
H11 C16 1_555 1_555
H12 C18 1_555 1_555
H13 C20 1_555 1_555
H14 C21 1_555 1_555
H15 C22 1_555 1_555
H16 C24 1_555 1_555
H17 C25 1_555 1_555
H18 C25 1_555 1_555
H19 C26 1_555 1_555
H20 C26 1_555 1_555
H21 C27 1_555 1_555
H22 C27 1_555 1_555
H23 C28 1_555 1_555
H24 C28 1_555 1_555
H25 C29 1_555 1_555
H26 C29 1_555 1_555
H27 C30 1_555 1_555
H28 C30 1_555 1_555
H29 C31 1_555 1_555
H30 C31 1_555 1_555
H31 C32 1_555 1_555
H32 C32 1_555 1_555
H33 C33 1_555 1_555
H34 C33 1_555 1_555
H35 C34 1_555 1_555
H36 C34 1_555 1_555
H37 C35 1_555 1_555
H38 C35 1_555 1_555
H39 C36 1_555 1_555
H40 C36 1_555 1_555
H41 C37 1_555 1_555
H42 C37 1_555 1_555
H43 C38 1_555 1_555
H44 C38 1_555 1_555
H45 C39 1_555 1_555
H46 C39 1_555 1_555
H47 C40 1_555 1_555
H48 C40 1_555 1_555
H49 C41 1_555 1_555
H50 C41 1_555 1_555
H51 C42 1_555 1_555
H52 C42 1_555 1_555
C7 C27 1_555 1_555
C13 C29 1_555 1_555
C19 C31 1_555 1_555
C23 C32 1_555 1_555
C36 C37 1_555 1_555
C41 C42 1_555 1_555

#END
