
#######################################################################
#
#                 Cambridge Crystallographic Data Centre
#                                CCDC 
#
#######################################################################
#
# If this CIF has been generated from an entry in the Cambridge 
# Structural Database, then it will include bibliographic, chemical, 
# crystal, experimental, refinement or atomic coordinate data resulting 
# from the CCDC's data processing and validation procedures.
#
#######################################################################

data_WINCIF
_chemical_formula_moiety         'C48 H48 N4,C6 H6'
_chemical_name_systematic        
'1,5,9,13-Tetra-azatricyclo(11.3.3.3^5,9^)docosaphane benzene solvate'
_symmetry_cell_setting           monoclinic
_symmetry_space_group_name_H-M   'C 2/c'
_symmetry_Int_Tables_number      15
_space_group_name_Hall           '-C 2yn'
loop_
_symmetry_equiv_pos_site_id
_symmetry_equiv_pos_as_xyz
1 x,y,z
2 x,-y,1/2+z
3 1/2+x,1/2+y,z
4 1/2+x,1/2-y,1/2+z
5 -x,-y,-z
6 -x,y,1/2-z
7 1/2-x,1/2-y,-z
8 1/2-x,1/2+y,1/2-z
_cell_length_a                   28.8007(4)
_cell_length_b                   15.6739(2)
_cell_length_c                   29.2798(3)
_cell_angle_alpha                90
_cell_angle_beta                 102.3677(4)
_cell_angle_gamma                90
_cell_volume                     12910.7
_exptl_crystal_colour            colorless
_exptl_crystal_description       prism
_cell_formula_units_Z            12
loop_
_atom_site_label
_atom_site_type_symbol
_atom_site_fract_x
_atom_site_fract_y
_atom_site_fract_z
N1 N 0.22600(6) 0.82216(9) 0.34677(5)
N2 N 0.14928(6) 0.68139(9) 0.16429(5)
N3 N 0.32471(6) 0.70149(10) 0.16663(6)
N4 N 0.31883(6) 0.55782(9) 0.34812(5)
C1 C 0.21037(9) 0.8100(1) 0.03977(7)
C2 C 0.21465(8) 0.5564(1) 0.04396(6)
C3 C 0.25638(8) 0.8093(1) 0.06623(7)
C4 C 0.17883(7) 0.5627(1) 0.06879(6)
C5 C 0.17221(8) 0.7924(1) 0.06041(7)
C6 C 0.26093(7) 0.5758(1) 0.06547(7)
C7 C 0.26467(7) 0.7935(1) 0.11391(7)
C8 C 0.17973(7) 0.7772(1) 0.10833(6)
C9 C 0.22573(7) 0.7823(1) 0.13493(6)
C10 C 0.18961(7) 0.5852(1) 0.11593(6)
C11 C 0.27244(7) 0.6000(1) 0.11243(6)
C12 C 0.23668(7) 0.5996(1) 0.13765(6)
C13 C 0.31458(8) 0.7843(1) 0.14202(8)
C14 C 0.13876(7) 0.7513(1) 0.13006(7)
C15 C 0.15044(7) 0.5968(1) 0.14215(7)
C16 C 0.32245(7) 0.6286(1) 0.13435(7)
C17 C 0.37311(7) 0.7064(1) 0.19553(8)
C18 C 0.11130(8) 0.6781(1) 0.19065(8)
C19 C 0.11145(7) 0.7501(1) 0.22516(7)
C20 C 0.15317(7) 0.7847(1) 0.25146(7)
C21 C 0.38627(7) 0.6350(1) 0.23036(8)
C22 C 0.35430(7) 0.5997(1) 0.25471(7)
C23 C 0.15204(7) 0.8462(1) 0.28574(7)
C24 C 0.06804(8) 0.7781(1) 0.23353(8)
C25 C 0.19704(8) 0.8838(1) 0.31482(7)
C26 C 0.43347(8) 0.6070(1) 0.24108(9)
C27 C 0.36873(7) 0.5375(1) 0.28896(7)
C28 C 0.10885(9) 0.8725(1) 0.29388(8)
C29 C 0.33443(8) 0.4983(1) 0.31546(7)
C30 C 0.06677(8) 0.8383(1) 0.26823(9)
C31 C 0.26924(8) 0.8673(1) 0.37148(7)
C32 C 0.44820(8) 0.5460(2) 0.27544(9)
C33 C 0.41612(8) 0.5111(1) 0.29960(8)
C34 C 0.32023(7) 0.7350(1) 0.37768(6)
C35 C 0.30818(8) 0.8100(1) 0.39770(7)
C36 C 0.23471(8) 0.6421(1) 0.37662(6)
C37 C 0.19818(8) 0.7874(1) 0.37932(7)
C38 C 0.28455(8) 0.5125(1) 0.37060(7)
C39 C 0.35177(8) 0.6767(1) 0.40304(7)
C40 C 0.25891(8) 0.5710(1) 0.39771(7)
C41 C 0.21772(8) 0.7046(1) 0.40226(7)
C42 C 0.33253(9) 0.8306(1) 0.44282(7)
C43 C 0.37542(10) 0.6981(1) 0.44807(8)
C44 C 0.3669(1) 0.7757(1) 0.46736(8)
C45 C 0.26142(10) 0.5583(1) 0.44540(7)
C46 C 0.22071(10) 0.6912(1) 0.44978(7)
C47 C 0.2420(1) 0.6175(1) 0.47106(7)
C48 C 0.35974(8) 0.5903(1) 0.38263(7)
H1 H 0.3800 0.7930 0.4986
H2 H 0.3034 0.7228 0.3453
H3 H 0.2325 0.6515 0.3439
H4 H 0.2813 0.8975 0.3469
H5 H 0.2596 0.9110 0.3929
H6 H 0.1907 0.8278 0.4025
H7 H 0.1632 0.7732 0.3594
H8 H 0.2087 0.7353 0.4693
H9 H 0.2439 0.6063 0.5054
H10 H 0.3881 0.5981 0.3667
H11 H 0.3696 0.5515 0.4100
H12 H 0.2996 0.4671 0.3900
H13 H 0.2627 0.4848 0.3453
H14 H 0.3458 0.4431 0.3316
H15 H 0.3066 0.4794 0.2961
H16 H 0.3187 0.6201 0.2461
H17 H 0.4571 0.6284 0.2212
H18 H 0.4253 0.4620 0.3224
H19 H 0.3423 0.5795 0.1543
H20 H 0.3766 0.7641 0.2130
H21 H 0.3977 0.7109 0.1762
H22 H 0.3400 0.6391 0.1089
H23 H 0.3213 0.8260 0.1647
H24 H 0.2448 0.6180 0.1706
H25 H 0.3368 0.7924 0.1214
H26 H 0.2858 0.5784 0.0475
H27 H 0.2086 0.5435 0.0095
H28 H 0.2879 0.8169 0.0530
H29 H 0.1437 0.5535 0.0548
H30 H 0.2320 0.7696 0.1687
H31 H 0.1543 0.5534 0.1679
H32 H 0.1208 0.5798 0.1226
H33 H 0.1084 0.7335 0.1047
H34 H 0.1297 0.8016 0.1444
H35 H 0.0781 0.6748 0.1698
H36 H 0.1115 0.6234 0.2055
H37 H 0.1846 0.7668 0.2474
H38 H 0.2147 0.9036 0.2912
H39 H 0.1888 0.9360 0.3319
H40 H 0.1088 0.9177 0.3188
H41 H 0.2772 0.5101 0.4605
H66 H 0.4803 0.5278 0.2834
H67 H 0.2051 0.8230 0.0072
H68 H 0.1408 0.7903 0.0414
H69 H 0.0391 0.7562 0.2150
H70 H 0.0372 0.8560 0.2749
H71 H 0.3249 0.8827 0.4571
H72 H 0.3977 0.6592 0.4651
N5 N 0.41712(6) 0.0416(1) 0.16758(5)
N6 N 0.45411(6) -0.15116(10) 0.34114(6)
C55 C 0.37286(7) 0.0010(1) 0.22833(7)
C56 C 0.32399(8) -0.0035(2) 0.22573(8)
C57 C 0.40220(7) -0.0604(1) 0.25468(7)
C58 C 0.39338(8) 0.0725(1) 0.20390(7)
C59 C 0.38351(7) -0.1247(1) 0.27832(7)
C60 C 0.30531(8) -0.0684(2) 0.24813(10)
C61 C 0.33429(8) -0.1285(2) 0.27432(8)
C62 C 0.38348(7) 0.0010(1) 0.12883(7)
C63 C 0.44348(8) 0.1130(1) 0.15202(7)
C64 C 0.40578(7) -0.0684(1) 0.10498(7)
C65 C 0.47681(7) 0.0840(1) 0.12176(7)
C66 C 0.44046(7) -0.1211(1) 0.13088(6)
C67 C 0.39354(8) -0.0798(1) 0.05654(7)
C68 C 0.50814(7) 0.0172(1) 0.13732(6)
C69 C 0.41546(7) -0.1904(1) 0.30725(8)
C70 C 0.53434(7) -0.0213(1) 0.10824(6)
C71 C 0.46643(7) -0.1772(1) 0.10931(7)
C72 C 0.41656(9) -0.1407(2) 0.03513(8)
C73 C 0.43653(7) -0.1007(1) 0.37635(7)
C74 C 0.53254(8) 0.0151(1) 0.06420(7)
C75 C 0.50427(8) 0.0858(2) 0.04959(7)
C76 C 0.47559(8) 0.1193(1) 0.07790(7)
C77 C 0.48898(7) -0.2170(1) 0.36210(7)
C78 C 0.45351(9) -0.1878(1) 0.06095(8)
H42 H 0.3037 0.0443 0.2084
H43 H 0.4360 -0.0579 0.2575
H44 H 0.4144 0.1024 0.2252
H45 H 0.3663 0.1114 0.1894
H46 H 0.4528 0.1700 0.0642
H47 H 0.5016 0.1123 0.0160
H48 H 0.5493 -0.0171 0.0424
H49 H 0.5103 -0.0006 0.1681
H50 H 0.3663 -0.0428 0.0390
H51 H 0.4084 -0.1475 0.0001
H52 H 0.4696 -0.2297 0.0424
H53 H 0.4028 -0.0838 0.3642
H54 H 0.4315 -0.1327 0.4034
H55 H 0.4307 -0.2291 0.2853
H56 H 0.3955 -0.2285 0.3222
H57 H 0.4748 -0.2608 0.3810
H58 H 0.4975 -0.2498 0.3354
H59 H 0.3581 -0.0187 0.1399
H60 H 0.3660 0.0417 0.1038
H61 H 0.4200 0.1568 0.1375
H62 H 0.4630 0.1411 0.1802
H63 H 0.4525 -0.1101 0.1650
H64 H 0.2716 -0.0729 0.2456
H65 H 0.3206 -0.1734 0.2897
C70E C 0.46566(7) -0.0213(1) 0.39176(6)
C68E C 0.49186(7) 0.0172(1) 0.36268(6)
C65E C 0.52319(7) 0.0840(1) 0.37824(7)
C63E C 0.55652(8) 0.1130(1) 0.34798(7)
N5E N 0.58288(6) 0.0416(1) 0.33242(5)
C58E C 0.60662(8) 0.0725(1) 0.29610(7)
C55E C 0.62714(7) 0.0010(1) 0.27167(7)
C56E C 0.67601(8) -0.0035(2) 0.27427(8)
C60E C 0.69469(8) -0.0684(2) 0.25187(10)
C61E C 0.66571(8) -0.1285(2) 0.22568(8)
C59E C 0.61649(7) -0.1247(1) 0.22168(7)
C57E C 0.59780(7) -0.0604(1) 0.24532(7)
H43E H 0.5640 -0.0579 0.2425
C69E C 0.58454(7) -0.1904(1) 0.19275(8)
N6E N 0.54589(6) -0.15116(10) 0.15886(6)
C73E C 0.56347(7) -0.1007(1) 0.12365(7)
C77E C 0.51102(7) -0.2170(1) 0.13790(7)
H57E H 0.5252 -0.2608 0.1190
H58E H 0.5025 -0.2498 0.1646
H53E H 0.5972 -0.0838 0.1358
H54E H 0.5685 -0.1327 0.0966
H55E H 0.5693 -0.2291 0.2147
H56E H 0.6045 -0.2285 0.1778
H65E H 0.6794 -0.1734 0.2103
H64E H 0.7284 -0.0729 0.2544
H42E H 0.6963 0.0443 0.2916
H44E H 0.5856 0.1024 0.2748
H45E H 0.6337 0.1114 0.3106
C62E C 0.61652(7) 0.0010(1) 0.37117(7)
C64E C 0.59422(7) -0.0684(1) 0.39502(7)
C66E C 0.55954(7) -0.1211(1) 0.36912(6)
C71E C 0.53357(7) -0.1772(1) 0.39069(7)
C78E C 0.54649(9) -0.1878(1) 0.43905(8)
C72E C 0.58344(9) -0.1407(2) 0.46487(8)
C67E C 0.60646(8) -0.0798(1) 0.44346(7)
H50E H 0.6337 -0.0428 0.4610
H51E H 0.5916 -0.1475 0.4999
H52E H 0.5304 -0.2297 0.4576
H63E H 0.5475 -0.1101 0.3350
H59E H 0.6419 -0.0187 0.3601
H60E H 0.6340 0.0417 0.3962
H61E H 0.5800 0.1568 0.3625
H62E H 0.5370 0.1411 0.3198
C76E C 0.52441(8) 0.1193(1) 0.42210(7)
C75E C 0.49573(8) 0.0858(2) 0.45041(7)
C74E C 0.46746(8) 0.0151(1) 0.43580(7)
H48E H 0.4507 -0.0171 0.4576
H47E H 0.4984 0.1123 0.4840
H46E H 0.5472 0.1700 0.4358
H49E H 0.4897 -0.0006 0.3319
C49 C 0.3800(2) 0.4454(3) 0.0480(1)
C50 C 0.4100(3) 0.4128(5) 0.0852(2)
C51 C 0.4484(3) 0.4657(8) 0.1139(2)
C52 C 0.4450(3) 0.5523(7) 0.0983(2)
C53 C 0.4137(2) 0.5843(4) 0.0560(3)
C54 C 0.3822(2) 0.5284(3) 0.0329(2)
C79? C 0.9818(4) 0.0823(9) 0.4840(4)
C80? C 1.0227(3) 0.1629(6) 0.5513(6)
C81? C 1.0432(4) 0.0870(6) 0.5664(4)
C82? C 1.0286(4) 0.0160(7) 0.5424(5)
C83? C 1.0000 0.0000 0.5000
C84? C 0.9905(3) 0.1588(7) 0.5079(4)
loop_
_geom_bond_atom_site_label_1
_geom_bond_atom_site_label_2
_geom_bond_site_symmetry_1
_geom_bond_site_symmetry_2
N1 C25 1_555 1_555
N2 C14 1_555 1_555
N3 C13 1_555 1_555
N4 C29 1_555 1_555
N5 C58 1_555 1_555
N6 C69 1_555 1_555
C1 C3 1_555 1_555
C2 C4 1_555 1_555
C3 C7 1_555 1_555
C4 C10 1_555 1_555
C5 C1 1_555 1_555
C6 C2 1_555 1_555
C7 C9 1_555 1_555
C8 C5 1_555 1_555
C9 C8 1_555 1_555
C10 C12 1_555 1_555
C11 C6 1_555 1_555
C12 C11 1_555 1_555
C13 C7 1_555 1_555
C14 C8 1_555 1_555
C15 N2 1_555 1_555
C16 N3 1_555 1_555
C17 N3 1_555 1_555
C18 N2 1_555 1_555
C19 C18 1_555 1_555
C20 C19 1_555 1_555
C21 C17 1_555 1_555
C22 C21 1_555 1_555
C23 C20 1_555 1_555
C24 C19 1_555 1_555
C25 C23 1_555 1_555
C26 C21 1_555 1_555
C27 C22 1_555 1_555
C28 C23 1_555 1_555
C29 C27 1_555 1_555
C30 C24 1_555 1_555
C31 N1 1_555 1_555
C32 C26 1_555 1_555
C33 C27 1_555 1_555
C34 C35 1_555 1_555
C35 C31 1_555 1_555
C36 C40 1_555 1_555
C37 N1 1_555 1_555
C38 N4 1_555 1_555
C39 C34 1_555 1_555
C40 C38 1_555 1_555
C41 C36 1_555 1_555
C42 C35 1_555 1_555
C43 C39 1_555 1_555
C44 C42 1_555 1_555
C45 C40 1_555 1_555
C46 C41 1_555 1_555
C47 C45 1_555 1_555
C48 N4 1_555 1_555
C49 C50 1_555 1_555
C50 C51 1_555 1_555
C51 C52 1_555 1_555
C52 C53 1_555 1_555
C53 C54 1_555 1_555
C54 C49 1_555 1_555
C55 C56 1_555 1_555
C56 C60 1_555 1_555
C57 C55 1_555 1_555
C58 C55 1_555 1_555
C59 C57 1_555 1_555
C60 C61 1_555 1_555
C61 C59 1_555 1_555
C62 N5 1_555 1_555
C63 N5 1_555 1_555
C64 C62 1_555 1_555
C65 C63 1_555 1_555
C66 C64 1_555 1_555
C67 C64 1_555 1_555
C68 C65 1_555 1_555
C69 C59 1_555 1_555
C70 C68 1_555 1_555
C71 C66 1_555 1_555
C72 C67 1_555 1_555
C73 N6 1_555 1_555
C74 C70 1_555 1_555
C75 C74 1_555 1_555
C76 C65 1_555 1_555
C77 N6 1_555 1_555
C78 C71 1_555 1_555
H1 C44 1_555 1_555
H2 C34 1_555 1_555
H3 C36 1_555 1_555
H4 C31 1_555 1_555
H5 C31 1_555 1_555
H6 C37 1_555 1_555
H7 C37 1_555 1_555
H8 C46 1_555 1_555
H9 C47 1_555 1_555
H10 C48 1_555 1_555
H11 C48 1_555 1_555
H12 C38 1_555 1_555
H13 C38 1_555 1_555
H14 C29 1_555 1_555
H15 C29 1_555 1_555
H16 C22 1_555 1_555
H17 C26 1_555 1_555
H18 C33 1_555 1_555
H19 C16 1_555 1_555
H20 C17 1_555 1_555
H21 C17 1_555 1_555
H22 C16 1_555 1_555
H23 C13 1_555 1_555
H24 C12 1_555 1_555
H25 C13 1_555 1_555
H26 C6 1_555 1_555
H27 C2 1_555 1_555
H28 C3 1_555 1_555
H29 C4 1_555 1_555
H30 C9 1_555 1_555
H31 C15 1_555 1_555
H32 C15 1_555 1_555
H33 C14 1_555 1_555
H34 C14 1_555 1_555
H35 C18 1_555 1_555
H36 C18 1_555 1_555
H37 C20 1_555 1_555
H38 C25 1_555 1_555
H39 C25 1_555 1_555
H40 C28 1_555 1_555
H41 C45 1_555 1_555
H42 C56 1_555 1_555
H43 C57 1_555 1_555
H44 C58 1_555 1_555
H45 C58 1_555 1_555
H46 C76 1_555 1_555
H47 C75 1_555 1_555
H48 C74 1_555 1_555
H49 C68 1_555 1_555
H50 C67 1_555 1_555
H51 C72 1_555 1_555
H52 C78 1_555 1_555
H53 C73 1_555 1_555
H54 C73 1_555 1_555
H55 C69 1_555 1_555
H56 C69 1_555 1_555
H57 C77 1_555 1_555
H58 C77 1_555 1_555
H59 C62 1_555 1_555
H60 C62 1_555 1_555
H61 C63 1_555 1_555
H62 C63 1_555 1_555
H63 C66 1_555 1_555
H64 C60 1_555 1_555
H65 C61 1_555 1_555
H66 C32 1_555 1_555
H67 C1 1_555 1_555
H68 C5 1_555 1_555
H69 C24 1_555 1_555
H70 C30 1_555 1_555
H71 C42 1_555 1_555
H72 C43 1_555 1_555
C70E C73 1_555 1_555
C68E C70E 1_555 1_555
C65E C68E 1_555 1_555
C63E C65E 1_555 1_555
N5E C63E 1_555 1_555
C58E N5E 1_555 1_555
C55E C58E 1_555 1_555
C56E C55E 1_555 1_555
C60E C56E 1_555 1_555
C61E C60E 1_555 1_555
C59E C61E 1_555 1_555
C57E C55E 1_555 1_555
H43E C57E 1_555 1_555
C69E C59E 1_555 1_555
N6E C69E 1_555 1_555
C73E C70 1_555 1_555
C77E C71 1_555 1_555
H57E C77E 1_555 1_555
H58E C77E 1_555 1_555
H53E C73E 1_555 1_555
H54E C73E 1_555 1_555
H55E C69E 1_555 1_555
H56E C69E 1_555 1_555
H65E C61E 1_555 1_555
H64E C60E 1_555 1_555
H42E C56E 1_555 1_555
H44E C58E 1_555 1_555
H45E C58E 1_555 1_555
C62E N5E 1_555 1_555
C64E C62E 1_555 1_555
C66E C64E 1_555 1_555
C71E C77 1_555 1_555
C78E C71E 1_555 1_555
C72E C78E 1_555 1_555
C67E C64E 1_555 1_555
H50E C67E 1_555 1_555
H51E C72E 1_555 1_555
H52E C78E 1_555 1_555
H63E C66E 1_555 1_555
H59E C62E 1_555 1_555
H60E C62E 1_555 1_555
H61E C63E 1_555 1_555
H62E C63E 1_555 1_555
C76E C65E 1_555 1_555
C75E C76E 1_555 1_555
C74E C70E 1_555 1_555
H48E C74E 1_555 1_555
H47E C75E 1_555 1_555
H46E C76E 1_555 1_555
H49E C68E 1_555 1_555
C10 C15 1_555 1_555
C11 C16 1_555 1_555
C28 C30 1_555 1_555
C32 C33 1_555 1_555
C37 C41 1_555 1_555
C39 C48 1_555 1_555
C43 C44 1_555 1_555
C46 C47 1_555 1_555
C72 C78 1_555 1_555
C75 C76 1_555 1_555
C59E C57E 1_555 1_555
N6E C73E 1_555 1_555
N6E C77E 1_555 1_555
C66E C71E 1_555 1_555
C72E C67E 1_555 1_555
C75E C74E 1_555 1_555

#END
