
#######################################################################
#
#                 Cambridge Crystallographic Data Centre
#                                CCDC 
#
#######################################################################
#
# If this CIF has been generated from an entry in the Cambridge 
# Structural Database, then it will include bibliographic, chemical, 
# crystal, experimental, refinement or atomic coordinate data resulting 
# from the CCDC's data processing and validation procedures.
#
#######################################################################

data_WINJEK
_chemical_formula_moiety         'C27 H22 N2 O2'
_chemical_name_systematic        
1,6-Dimethyl-2,2,4-triphenyl-1H-pyrrolo[3,4-b]pyridine-5,7(2H,6H)-dione
_symmetry_cell_setting           monoclinic
_symmetry_space_group_name_H-M   'P 21/c'
_symmetry_Int_Tables_number      14
_space_group_name_Hall           '-P 2ybc'
loop_
_symmetry_equiv_pos_site_id
_symmetry_equiv_pos_as_xyz
1 x,y,z
2 -x,1/2+y,1/2-z
3 -x,-y,-z
4 x,1/2-y,1/2+z
_cell_length_a                   6.4971(5)
_cell_length_b                   16.1310(12)
_cell_length_c                   19.6188(18)
_cell_angle_alpha                90
_cell_angle_beta                 97.465(6)
_cell_angle_gamma                90
_cell_volume                     2038.72
_exptl_crystal_colour            red
_exptl_crystal_description       needle
_cell_formula_units_Z            4
loop_
_atom_site_label
_atom_site_type_symbol
_atom_site_fract_x
_atom_site_fract_y
_atom_site_fract_z
O1 O 0.21066(19) 0.47710(8) 0.26705(7)
O2 O 0.7728(2) 0.37251(9) 0.40193(6)
N1 N 0.4052(2) 0.35183(10) 0.17759(7)
N2 N 0.4861(2) 0.43910(10) 0.34621(8)
C1 C 0.4756(3) 0.37622(11) 0.24161(9)
C2 C 0.3685(3) 0.43766(12) 0.28327(9)
C3 C 0.6555(3) 0.38367(12) 0.34911(9)
C4 C 0.6489(2) 0.34678(12) 0.28104(9)
C5 C 0.7647(2) 0.27886(11) 0.25577(9)
C6 C 0.6998(3) 0.25287(12) 0.19171(9)
H1 H 0.7727 0.2075 0.1754
C7 C 0.5216(2) 0.28839(12) 0.14223(9)
C8 C 0.2061(3) 0.38080(13) 0.14074(10)
H2 H 0.0923 0.3482 0.1554
H3 H 0.2070 0.3740 0.0911
H4 H 0.1864 0.4394 0.1512
C9 C 0.4321(3) 0.48524(14) 0.40491(10)
H5 H 0.3854 0.5410 0.3902
H6 H 0.5540 0.4895 0.4398
H7 H 0.3204 0.4564 0.4244
C10 C 0.9422(2) 0.23700(11) 0.29767(9)
C11 C 1.1027(2) 0.28137(12) 0.33532(9)
H8 H 1.0952 0.3401 0.3373
C12 C 1.2727(3) 0.24065(13) 0.36983(10)
H9 H 1.3823 0.2717 0.3945
C13 C 1.2840(3) 0.15517(14) 0.36859(10)
H10 H 1.4007 0.1274 0.3924
C14 C 1.1241(3) 0.11020(13) 0.33235(10)
H11 H 1.1307 0.0514 0.3315
C15 C 0.9545(3) 0.15090(12) 0.29726(9)
H12 H 0.8452 0.1196 0.2726
C16 C 0.3680(2) 0.21804(12) 0.11847(9)
C17 C 0.3106(3) 0.16336(13) 0.16760(10)
H13 H 0.3680 0.1695 0.2144
C18 C 0.1703(3) 0.10003(13) 0.14880(11)
H14 H 0.1324 0.0629 0.1826
C19 C 0.0858(3) 0.09095(14) 0.08094(12)
H15 H -0.0081 0.0469 0.0679
C20 C 0.1379(3) 0.14593(13) 0.03206(11)
H16 H 0.0780 0.1402 -0.0145
C21 C 0.2770(3) 0.20924(13) 0.05077(10)
H17 H 0.3108 0.2472 0.0169
C22 C 0.6190(2) 0.32944(12) 0.08312(9)
C23 C 0.7074(2) 0.28096(13) 0.03567(9)
H18 H 0.7012 0.2223 0.0386
C24 C 0.8041(3) 0.31734(14) -0.01571(10)
H19 H 0.8622 0.2836 -0.0480
C25 C 0.8163(3) 0.40263(13) -0.02006(10)
H20 H 0.8811 0.4276 -0.0556
C26 C 0.7338(3) 0.45124(13) 0.02739(10)
H21 H 0.7437 0.5099 0.0249
C27 C 0.6364(3) 0.41501(12) 0.07877(9)
H22 H 0.5809 0.4492 0.1114
loop_
_geom_bond_atom_site_label_1
_geom_bond_atom_site_label_2
_geom_bond_site_symmetry_1
_geom_bond_site_symmetry_2
O1 C2 1_555 1_555
O2 C3 1_555 1_555
N1 C1 1_555 1_555
N2 C2 1_555 1_555
C1 C2 1_555 1_555
C3 N2 1_555 1_555
C4 C1 1_555 1_555
C5 C4 1_555 1_555
C6 C5 1_555 1_555
H1 C6 1_555 1_555
C7 N1 1_555 1_555
C8 N1 1_555 1_555
H2 C8 1_555 1_555
H3 C8 1_555 1_555
H4 C8 1_555 1_555
C9 N2 1_555 1_555
H5 C9 1_555 1_555
H6 C9 1_555 1_555
H7 C9 1_555 1_555
C10 C5 1_555 1_555
C11 C10 1_555 1_555
H8 C11 1_555 1_555
C12 C11 1_555 1_555
H9 C12 1_555 1_555
C13 C12 1_555 1_555
H10 C13 1_555 1_555
C14 C13 1_555 1_555
H11 C14 1_555 1_555
C15 C10 1_555 1_555
H12 C15 1_555 1_555
C16 C7 1_555 1_555
C17 C16 1_555 1_555
H13 C17 1_555 1_555
C18 C17 1_555 1_555
H14 C18 1_555 1_555
C19 C18 1_555 1_555
H15 C19 1_555 1_555
C20 C19 1_555 1_555
H16 C20 1_555 1_555
C21 C16 1_555 1_555
H17 C21 1_555 1_555
C22 C7 1_555 1_555
C23 C22 1_555 1_555
H18 C23 1_555 1_555
C24 C23 1_555 1_555
H19 C24 1_555 1_555
C25 C24 1_555 1_555
H20 C25 1_555 1_555
C26 C25 1_555 1_555
H21 C26 1_555 1_555
C27 C22 1_555 1_555
H22 C27 1_555 1_555
C3 C4 1_555 1_555
C6 C7 1_555 1_555
C14 C15 1_555 1_555
C20 C21 1_555 1_555
C26 C27 1_555 1_555

#END
