
#######################################################################
#
#                 Cambridge Crystallographic Data Centre
#                                CCDC 
#
#######################################################################
#
# If this CIF has been generated from an entry in the Cambridge 
# Structural Database, then it will include bibliographic, chemical, 
# crystal, experimental, refinement or atomic coordinate data resulting 
# from the CCDC's data processing and validation procedures.
#
#######################################################################

data_WINKUA
_chemical_formula_moiety         'C7 H10 Cl1 N3 O3,0.5(H2 O1)'
_chemical_name_systematic        'Ornidazole hemihydrate'
_chemical_properties_biological  'antimicrobial activity'
_symmetry_cell_setting           monoclinic
_symmetry_space_group_name_H-M   'C 2/c'
_symmetry_Int_Tables_number      15
_space_group_name_Hall           '-C 2yn'
loop_
_symmetry_equiv_pos_site_id
_symmetry_equiv_pos_as_xyz
1 x,y,z
2 1/2+x,1/2+y,z
3 -x,y,1/2-z
4 1/2-x,1/2+y,1/2-z
5 -x,-y,-z
6 1/2-x,1/2-y,-z
7 x,-y,1/2+z
8 1/2+x,1/2-y,1/2+z
_cell_length_a                   23.202(8)
_cell_length_b                   8.289(2)
_cell_length_c                   22.270(7)
_cell_angle_alpha                90
_cell_angle_beta                 103.996(14)
_cell_angle_gamma                90
_cell_volume                     4155.85
_exptl_crystal_colour            colorless
_exptl_crystal_description       Block
_cell_formula_units_Z            16
loop_
_atom_site_label
_atom_site_type_symbol
_atom_site_fract_x
_atom_site_fract_y
_atom_site_fract_z
Cl1 Cl 0.51877(3) 0.54256(8) 0.64516(4)
O2 O 0.38555(6) 0.74189(13) 0.52290(6)
O3 O 0.43759(6) 0.28657(19) 0.48376(8)
O4 O 0.37775(9) 0.1710(2) 0.40646(9)
N1 N 0.33913(6) 0.42982(16) 0.51646(6)
N2 N 0.24678(6) 0.42340(19) 0.45819(8)
N3 N 0.38789(8) 0.2606(2) 0.45115(8)
C1 C 0.46743(8) 0.6864(2) 0.60469(10)
C2 C 0.42434(8) 0.6139(2) 0.54889(8)
C3 C 0.38913(6) 0.4751(2) 0.56720(8)
C4 C 0.33813(8) 0.3374(2) 0.46472(8)
C5 C 0.28143(9) 0.3346(2) 0.43015(9)
C6 C 0.28216(8) 0.4799(2) 0.51017(8)
C7 C 0.26214(9) 0.5812(2) 0.55585(10)
H1 H 0.3781 0.7312 0.4804
H3 H 0.4450 0.7297 0.6326
H4 H 0.4892 0.7728 0.5908
H5 H 0.4460 0.5762 0.5189
H6 H 0.3742 0.5078 0.6024
H7 H 0.4151 0.3827 0.5785
H8 H 0.2684 0.2799 0.3929
H9 H 0.2206 0.6048 0.5409
H10 H 0.2684 0.5244 0.5945
H11 H 0.2843 0.6800 0.5619
Cl2 Cl 0.36375(4) 1.26213(8) 0.21447(4)
O5 O 0.43764(6) 0.9665(2) 0.18369(6)
O6 O 0.31344(9) 0.6537(2) 0.19209(8)
O7 O 0.25133(9) 0.5497(2) 0.23892(10)
N4 N 0.38473(6) 0.75918(17) 0.30684(6)
N5 N 0.36136(8) 0.7319(2) 0.39693(8)
N6 N 0.29640(8) 0.6258(2) 0.23892(9)
C8 C 0.39930(12) 1.0974(2) 0.26126(11)
C9 C 0.39831(9) 0.9501(2) 0.22289(9)
C10 C 0.41990(8) 0.8002(2) 0.26236(9)
C11 C 0.33042(8) 0.6820(2) 0.29689(9)
C12 C 0.31703(9) 0.6678(2) 0.35252(10)
C13 C 0.40150(8) 0.7856(2) 0.36831(8)
C14 C 0.45826(9) 0.8620(2) 0.40072(9)
H2 H 0.4123 0.9602 0.1424
H12 H 0.4402 1.1262 0.2802
H13 H 0.3786 1.0757 0.2933
H14 H 0.3579 0.9317 0.1978
H15 H 0.4606 0.8191 0.2852
H16 H 0.4187 0.7091 0.2347
H17 H 0.2826 0.6213 0.3592
H18 H 0.4599 0.8700 0.4441
H19 H 0.4909 0.7975 0.3950
H20 H 0.4608 0.9679 0.3841
O1 O 0.12252(6) 0.44528(16) 0.43419(6)
H21 H 0.1147 0.5476 0.4490
H22 H 0.1637 0.4386 0.4380
loop_
_geom_bond_atom_site_label_1
_geom_bond_atom_site_label_2
_geom_bond_site_symmetry_1
_geom_bond_site_symmetry_2
Cl1 C1 1_555 1_555
Cl2 C8 1_555 1_555
O1 H21 1_555 1_555
O2 C2 1_555 1_555
O3 N3 1_555 1_555
O4 N3 1_555 1_555
O5 C9 1_555 1_555
O6 N6 1_555 1_555
O7 N6 1_555 1_555
N1 C3 1_555 1_555
N2 C5 1_555 1_555
N3 C4 1_555 1_555
N4 C10 1_555 1_555
N5 C12 1_555 1_555
N6 C11 1_555 1_555
C1 C2 1_555 1_555
C2 C3 1_555 1_555
C3 H6 1_555 1_555
C4 N1 1_555 1_555
C5 C4 1_555 1_555
C6 N1 1_555 1_555
C7 C6 1_555 1_555
C8 C9 1_555 1_555
C9 C10 1_555 1_555
C10 H15 1_555 1_555
C11 N4 1_555 1_555
C12 C11 1_555 1_555
C13 N4 1_555 1_555
C14 C13 1_555 1_555
H1 O2 1_555 1_555
H2 O5 1_555 1_555
H3 C1 1_555 1_555
H4 C1 1_555 1_555
H5 C2 1_555 1_555
H7 C3 1_555 1_555
H8 C5 1_555 1_555
H9 C7 1_555 1_555
H10 C7 1_555 1_555
H11 C7 1_555 1_555
H12 C8 1_555 1_555
H13 C8 1_555 1_555
H14 C9 1_555 1_555
H16 C10 1_555 1_555
H17 C12 1_555 1_555
H18 C14 1_555 1_555
H19 C14 1_555 1_555
H20 C14 1_555 1_555
H22 O1 1_555 1_555
N2 C6 1_555 1_555
N5 C13 1_555 1_555

#END
