
#######################################################################
#
#                 Cambridge Crystallographic Data Centre
#                                CCDC 
#
#######################################################################
#
# If this CIF has been generated from an entry in the Cambridge 
# Structural Database, then it will include bibliographic, chemical, 
# crystal, experimental, refinement or atomic coordinate data resulting 
# from the CCDC's data processing and validation procedures.
#
#######################################################################

data_WINLEN
_chemical_formula_moiety         'C14 H14 N2'
_chemical_name_systematic        (E)-(1-(biphenyl-4-yl)ethylidene)hydrazine
_symmetry_cell_setting           monoclinic
_symmetry_space_group_name_H-M   'P 21/c'
_symmetry_Int_Tables_number      14
_space_group_name_Hall           '-P 2ybc'
loop_
_symmetry_equiv_pos_site_id
_symmetry_equiv_pos_as_xyz
1 x,y,z
2 -x,1/2+y,1/2-z
3 -x,-y,-z
4 x,1/2-y,1/2+z
_cell_length_a                   24.740(2)
_cell_length_b                   5.5154(6)
_cell_length_c                   8.1367(8)
_cell_angle_alpha                90
_cell_angle_beta                 95.727(9)
_cell_angle_gamma                90
_cell_volume                     1104.72
_exptl_crystal_colour            colorless
_exptl_crystal_description       plate
_chemical_melting_point          '422.7 K'
_cell_formula_units_Z            4
loop_
_atom_site_label
_atom_site_type_symbol
_atom_site_fract_x
_atom_site_fract_y
_atom_site_fract_z
C1 C 0.87333(7) 0.6786(3) 0.4854(2)
C2 C 0.92711(7) 0.6754(4) 0.5540(2)
C3 C 0.94541(7) 0.4964(3) 0.6609(2)
C4 C 0.91024(7) 0.3212(4) 0.7026(2)
C5 C 0.85648(7) 0.3229(3) 0.6346(2)
C6 C 0.83701(6) 0.5017(3) 0.52435(17)
C7 C 0.77929(6) 0.5012(2) 0.44764(17)
C8 C 0.74336(7) 0.3197(3) 0.4809(2)
C9 C 0.69049(7) 0.3165(3) 0.4096(2)
C10 C 0.67029(6) 0.4953(2) 0.30037(17)
C11 C 0.70597(7) 0.6775(3) 0.2679(2)
C12 C 0.75911(7) 0.6797(3) 0.3400(2)
C13 C 0.61364(6) 0.4869(3) 0.21933(18)
C14 C 0.59471(9) 0.6695(4) 0.0922(3)
N1 N 0.58372(5) 0.3143(2) 0.26501(17)
N2 N 0.53027(6) 0.3034(3) 0.1868(2)
H1 H 0.8610(7) 0.808(3) 0.407(2)
H2 H 0.9521(8) 0.801(3) 0.525(2)
H3 H 0.9819(8) 0.493(3) 0.706(2)
H4 H 0.9212(8) 0.199(3) 0.780(2)
H5 H 0.8320(7) 0.195(3) 0.662(2)
H6 H 0.7540(8) 0.192(3) 0.558(2)
H7 H 0.6656(8) 0.184(3) 0.437(2)
H8 H 0.6939(8) 0.802(3) 0.192(2)
H9 H 0.7813(7) 0.808(3) 0.311(2)
H10 H 0.6175(10) 0.796(4) 0.084(3)
H11 H 0.5573(9) 0.726(3) 0.106(2)
H12 H 0.5906(9) 0.600(4) -0.015(3)
H13 H 0.5151(7) 0.144(4) 0.209(2)
H14 H 0.5285(8) 0.323(4) 0.079(3)
loop_
_geom_bond_atom_site_label_1
_geom_bond_atom_site_label_2
_geom_bond_site_symmetry_1
_geom_bond_site_symmetry_2
C1 C2 1_555 1_555
C2 C3 1_555 1_555
C3 C4 1_555 1_555
C4 C5 1_555 1_555
C5 C6 1_555 1_555
C6 C1 1_555 1_555
C7 C6 1_555 1_555
C8 C7 1_555 1_555
C9 C8 1_555 1_555
C10 C9 1_555 1_555
C11 C10 1_555 1_555
C12 C7 1_555 1_555
C13 C10 1_555 1_555
C14 C13 1_555 1_555
N1 C13 1_555 1_555
N2 N1 1_555 1_555
H1 C1 1_555 1_555
H2 C2 1_555 1_555
H3 C3 1_555 1_555
H4 C4 1_555 1_555
H5 C5 1_555 1_555
H6 C8 1_555 1_555
H7 C9 1_555 1_555
H8 C11 1_555 1_555
H9 C12 1_555 1_555
H10 C14 1_555 1_555
H11 C14 1_555 1_555
H12 C14 1_555 1_555
H13 N2 1_555 1_555
H14 N2 1_555 1_555
C11 C12 1_555 1_555

#END
