
#######################################################################
#
#                 Cambridge Crystallographic Data Centre
#                                CCDC 
#
#######################################################################
#
# If this CIF has been generated from an entry in the Cambridge 
# Structural Database, then it will include bibliographic, chemical, 
# crystal, experimental, refinement or atomic coordinate data resulting 
# from the CCDC's data processing and validation procedures.
#
#######################################################################

data_WINLIP
_chemical_formula_moiety         'C19 H28 O4,2(H2 O1)'
_chemical_name_systematic        
'3\b,7\a,15\a-Trihydroxy-5-androsten-17-one dihydrate'
_symmetry_cell_setting           orthorhombic
_symmetry_space_group_name_H-M   'P 21 21 21'
_symmetry_Int_Tables_number      19
_space_group_name_Hall           'P 2ac 2ab'
loop_
_symmetry_equiv_pos_site_id
_symmetry_equiv_pos_as_xyz
1 x,y,z
2 1/2-x,-y,1/2+z
3 -x,1/2+y,1/2-z
4 1/2+x,1/2-y,-z
_cell_length_a                   6.0653(8)
_cell_length_b                   12.4906(16)
_cell_length_c                   25.472(3)
_cell_angle_alpha                90
_cell_angle_beta                 90
_cell_angle_gamma                90
_cell_volume                     1929.74
_exptl_crystal_colour            colorless
_exptl_crystal_description       block
_cell_formula_units_Z            4
_exptl_crystal_recrystallization_method tetrahydrofuran/water
loop_
_atom_site_label
_atom_site_type_symbol
_atom_site_fract_x
_atom_site_fract_y
_atom_site_fract_z
O1 O 0.8995(3) 0.83766(13) 0.94606(5)
H1 H 0.994(5) 0.884(2) 0.9523(11)
O2 O 1.0556(3) 0.96442(12) 0.69625(6)
H2 H 1.048(5) 0.9884(19) 0.6657(7)
O3 O 0.8912(4) 1.01700(14) 0.59879(6)
H3 H 0.904(5) 1.054(2) 0.5714(8)
O4 O 0.7005(4) 0.68704(14) 0.53143(6)
C1 C 0.7195(4) 0.71106(15) 0.81999(8)
H8 H 0.6202 0.6519 0.8131
H9 H 0.8654 0.6896 0.8085
C2 C 0.7263(4) 0.73072(17) 0.87909(8)
H10 H 0.5794 0.7468 0.8919
H11 H 0.7791 0.6671 0.8970
C3 C 0.8782(3) 0.82337(16) 0.89005(7)
H12 H 1.0238 0.8074 0.8753
C4 C 0.7891(4) 0.92309(16) 0.86418(7)
H13 H 0.8881 0.9825 0.8710
H14 H 0.6467 0.9405 0.8793
C5 C 0.7647(3) 0.90839(14) 0.80534(7)
C6 C 0.8447(4) 0.98109(14) 0.77263(7)
H15 H 0.9146 1.0401 0.7874
C7 C 0.8322(3) 0.97645(14) 0.71421(7)
H16 H 0.7756 1.0451 0.7014
C8 C 0.6798(3) 0.88707(14) 0.69432(7)
H17 H 0.5267 0.9116 0.6970
C9 C 0.7080(3) 0.78640(13) 0.72853(7)
H18 H 0.8660 0.7701 0.7284
C10 C 0.6452(3) 0.80810(14) 0.78689(7)
C11 C 0.5923(4) 0.68699(16) 0.70619(8)
H19 H 0.6357 0.6250 0.7266
H20 H 0.4342 0.6957 0.7101
C12 C 0.6449(4) 0.66589(17) 0.64823(8)
H21 H 0.7997 0.6478 0.6445
H22 H 0.5582 0.6058 0.6357
C13 C 0.5931(4) 0.76454(16) 0.61572(8)
C14 C 0.7281(3) 0.85949(15) 0.63714(7)
H23 H 0.8819 0.8354 0.6367
C15 C 0.7121(4) 0.94462(17) 0.59409(8)
H24 H 0.5715 0.9830 0.5965
C16 C 0.7217(5) 0.87818(19) 0.54340(8)
H25 H 0.6131 0.9035 0.5184
H26 H 0.8667 0.8831 0.5275
C17 C 0.6729(4) 0.76470(18) 0.55922(8)
C18 C 0.3422(4) 0.7862(2) 0.61283(10)
H27 H 0.2878 0.8033 0.6472
H28 H 0.2683 0.7236 0.5999
H29 H 0.3149 0.8452 0.5896
C19 C 0.3950(4) 0.8263(2) 0.79409(9)
H30 H 0.3456 0.8802 0.7700
H31 H 0.3662 0.8492 0.8294
H32 H 0.3177 0.7606 0.7874
O5 O 0.0560(3) 0.64593(14) 0.98689(6)
H4 H 0.027(6) 0.7099(16) 0.9776(11)
H5 H 0.166(4) 0.657(2) 1.0062(10)
O6 O 1.2334(5) 0.9667(2) 0.96135(14)
H6 H 1.325(7) 0.937(4) 0.9813(17)
H7 H 1.258(8) 1.0295(17) 0.9615(16)
loop_
_geom_bond_atom_site_label_1
_geom_bond_atom_site_label_2
_geom_bond_site_symmetry_1
_geom_bond_site_symmetry_2
O1 H1 1_555 1_555
O2 H2 1_555 1_555
O3 H3 1_555 1_555
O4 C17 1_555 1_555
O5 H4 1_555 1_555
H5 O5 1_555 1_555
O6 H6 1_555 1_555
H7 O6 1_555 1_555
C1 H8 1_555 1_555
H9 C1 1_555 1_555
C2 C1 1_555 1_555
H10 C2 1_555 1_555
H11 C2 1_555 1_555
C3 O1 1_555 1_555
H12 C3 1_555 1_555
C4 C3 1_555 1_555
H13 C4 1_555 1_555
H14 C4 1_555 1_555
C5 C4 1_555 1_555
C6 C5 1_555 1_555
H15 C6 1_555 1_555
C7 O2 1_555 1_555
H16 C7 1_555 1_555
C8 C7 1_555 1_555
H17 C8 1_555 1_555
C9 C8 1_555 1_555
H18 C9 1_555 1_555
C10 C1 1_555 1_555
C11 C9 1_555 1_555
H19 C11 1_555 1_555
H20 C11 1_555 1_555
C12 C11 1_555 1_555
H21 C12 1_555 1_555
H22 C12 1_555 1_555
C13 C12 1_555 1_555
C14 C8 1_555 1_555
H23 C14 1_555 1_555
C15 O3 1_555 1_555
H24 C15 1_555 1_555
C16 C15 1_555 1_555
H25 C16 1_555 1_555
H26 C16 1_555 1_555
C17 C13 1_555 1_555
C18 C13 1_555 1_555
H27 C18 1_555 1_555
H28 C18 1_555 1_555
H29 C18 1_555 1_555
C19 C10 1_555 1_555
H30 C19 1_555 1_555
H31 C19 1_555 1_555
H32 C19 1_555 1_555
C2 C3 1_555 1_555
C5 C10 1_555 1_555
C6 C7 1_555 1_555
C9 C10 1_555 1_555
C13 C14 1_555 1_555
C14 C15 1_555 1_555
C16 C17 1_555 1_555

#END
