
#######################################################################
#
#                 Cambridge Crystallographic Data Centre
#                                CCDC 
#
#######################################################################
#
# If this CIF has been generated from an entry in the Cambridge 
# Structural Database, then it will include bibliographic, chemical, 
# crystal, experimental, refinement or atomic coordinate data resulting 
# from the CCDC's data processing and validation procedures.
#
#######################################################################

data_WINLEN01
_chemical_formula_moiety         'C14 H14 N2'
_chemical_name_systematic        (E)-(1-(biphenyl-4-yl)ethylidene)hydrazine
_symmetry_cell_setting           monoclinic
_symmetry_space_group_name_H-M   'P 21/c'
_symmetry_Int_Tables_number      14
_space_group_name_Hall           '-P 2ybc'
loop_
_symmetry_equiv_pos_site_id
_symmetry_equiv_pos_as_xyz
1 x,y,z
2 -x,1/2+y,1/2-z
3 -x,-y,-z
4 x,1/2-y,1/2+z
_cell_length_a                   24.8153(19)
_cell_length_b                   5.5146(4)
_cell_length_c                   8.1513(9)
_cell_angle_alpha                90
_cell_angle_beta                 95.719(9)
_cell_angle_gamma                90
_cell_volume                     1109.92
_exptl_crystal_colour            colorless
_exptl_crystal_description       plate
_chemical_melting_point          '422.7 K'
_cell_formula_units_Z            4
loop_
_atom_site_label
_atom_site_type_symbol
_atom_site_fract_x
_atom_site_fract_y
_atom_site_fract_z
C1 C 0.3306(2) 0.3201(9) 0.5939(6)
H1 H 0.3071 0.1973 0.6191
C2 C 0.3836(2) 0.3115(19) 0.6653(11)
H2 H 0.3957 0.1847 0.7347
C3 C 0.41696(19) 0.4930(9) 0.6308(6)
H3 H 0.4524 0.4955 0.6805
C4 C 0.3989(3) 0.6794(11) 0.5201(10)
H4 H 0.4231 0.7971 0.4915
C5 C 0.3474(3) 0.6881(11) 0.4563(8)
H5 H 0.3348 0.8171 0.3898
C6 C 0.3116(5) 0.493(3) 0.492(2)
C7 C 0.2523(2) 0.4981(9) 0.4070(6)
C8 C 0.2332(4) 0.6777(12) 0.3093(15)
H6 H 0.2553 0.8075 0.2870
C9 C 0.1797(2) 0.6680(10) 0.2410(6)
H7 H 0.1668 0.7978 0.1755
C10 C 0.1435(4) 0.4789(19) 0.2625(8)
C11 C 0.1625(3) 0.3111(11) 0.3787(8)
H8 H 0.1393 0.1925 0.4118
C12 C 0.21717(15) 0.3166(7) 0.4487(6)
H9 H 0.2297 0.1971 0.5234
C13 C 0.08530(18) 0.4874(8) 0.1799(5)
C14 C 0.0682(7) 0.659(2) 0.0592(16)
H10 H 0.0345 0.7287 0.0841
H11 H 0.0632 0.5807 -0.0466
H12 H 0.0950 0.7836 0.0573
N1 N 0.05682(7) 0.3088(3) 0.2274(3)
N2 N 0.00263(15) 0.3039(9) 0.1401(6)
H13 H -0.006(2) 0.417(11) 0.068(6)
H14 H -0.016(2) 0.199(8) 0.171(6)
C15? C 0.3822(6) 0.340(3) 0.6724(16)
H15? H 0.3578 0.2284 0.7085
C16? C 0.4359(3) 0.3351(12) 0.7403(10)
H16? H 0.4473 0.2184 0.8186
C17? C 0.4719(2) 0.5008(7) 0.6927(5)
H17? H 0.5085 0.4907 0.7301
C18? C 0.4527(3) 0.6842(11) 0.5873(8)
H18? H 0.4751 0.8130 0.5650
C19? C 0.4051(8) 0.675(3) 0.522(2)
H19? H 0.3947 0.7939 0.4444
C20? C 0.3648(2) 0.5017(10) 0.5554(7)
C21? C 0.3051(6) 0.517(4) 0.483(3)
C22? C 0.2840(2) 0.6726(8) 0.3711(7)
H20? H 0.3077 0.7928 0.3425
C23? C 0.2321(6) 0.686(3) 0.289(3)
H21? H 0.2215 0.8025 0.2106
C24? C 0.1975(2) 0.5039(9) 0.3383(6)
C25? C 0.2168(9) 0.320(3) 0.436(2)
H22? H 0.1948 0.1850 0.4465
C26? C 0.2696(2) 0.3231(9) 0.5225(7)
H23? H 0.2806 0.2062 0.6010
C27? C 0.1403(8) 0.528(3) 0.2582(19)
C28? C 0.11061(16) 0.3231(7) 0.3007(6)
H24? H 0.1102 0.3164 0.4182
H25? H 0.1273 0.1788 0.2632
H26? H 0.0741 0.3346 0.2495
N3? N 0.12152(18) 0.6649(7) 0.1208(5)
N4? N 0.0690(8) 0.727(3) 0.101(2)
H27? H 0.047(3) 0.673(14) 0.174(11)
H28? H 0.057(3) 0.802(14) 0.013(10)
loop_
_geom_bond_atom_site_label_1
_geom_bond_atom_site_label_2
_geom_bond_site_symmetry_1
_geom_bond_site_symmetry_2
C1 H1 1_555 1_555
C2 C1 1_555 1_555
H2 C2 1_555 1_555
C3 C2 1_555 1_555
H3 C3 1_555 1_555
C4 C3 1_555 1_555
H4 C4 1_555 1_555
C5 C4 1_555 1_555
H5 C5 1_555 1_555
C6 C1 1_555 1_555
C7 C6 1_555 1_555
C8 C7 1_555 1_555
H6 C8 1_555 1_555
C9 C8 1_555 1_555
H7 C9 1_555 1_555
C10 C9 1_555 1_555
C11 C10 1_555 1_555
H8 C11 1_555 1_555
C12 C7 1_555 1_555
H9 C12 1_555 1_555
C13 C10 1_555 1_555
C14 C13 1_555 1_555
H10 C14 1_555 1_555
H11 C14 1_555 1_555
H12 C14 1_555 1_555
N1 C13 1_555 1_555
N2 N1 1_555 1_555
H13 N2 1_555 1_555
H14 N2 1_555 1_555
C5 C6 1_555 1_555
C11 C12 1_555 1_555

#END
