
#######################################################################
#
#                 Cambridge Crystallographic Data Centre
#                                CCDC 
#
#######################################################################
#
# If this CIF has been generated from an entry in the Cambridge 
# Structural Database, then it will include bibliographic, chemical, 
# crystal, experimental, refinement or atomic coordinate data resulting 
# from the CCDC's data processing and validation procedures.
#
#######################################################################

data_WINPIT
_chemical_formula_moiety         'C20 H26 N2 2+,2(C1 F3 O3 S1 1-)'
_chemical_name_systematic        
'1,4-Dibenzyl-1,4-diazoniabicyclo(2.2.2)octane bis(trifluoromethanesulfonate)'
_symmetry_cell_setting           orthorhombic
_symmetry_space_group_name_H-M   'P b c a'
_symmetry_Int_Tables_number      61
_space_group_name_Hall           '-P 2ac 2ab'
loop_
_symmetry_equiv_pos_site_id
_symmetry_equiv_pos_as_xyz
1 x,y,z
2 1/2-x,-y,1/2+z
3 1/2+x,1/2-y,-z
4 -x,1/2+y,1/2-z
5 -x,-y,-z
6 1/2+x,y,1/2-z
7 1/2-x,1/2+y,z
8 x,1/2-y,1/2+z
_cell_length_a                   13.759(3)
_cell_length_b                   14.334(3)
_cell_length_c                   26.195(6)
_cell_angle_alpha                90
_cell_angle_beta                 90
_cell_angle_gamma                90
_cell_volume                     5166.22
_exptl_crystal_colour            colorless
_exptl_crystal_description       block
_cell_formula_units_Z            8
_exptl_crystal_recrystallization_method acetonitrile/dichloromethane
loop_
_atom_site_label
_atom_site_type_symbol
_atom_site_fract_x
_atom_site_fract_y
_atom_site_fract_z
N1 N 0.5039(3) 0.1698(2) 0.28420(15)
N2 N 0.5071(3) 0.0692(2) 0.20271(15)
C1 C 0.3890(4) 0.1821(3) 0.3991(2)
H1 H 0.3366 0.2006 0.3790
C2 C 0.3725(5) 0.1458(4) 0.4476(3)
H2 H 0.3094 0.1403 0.4599
C3 C 0.4484(6) 0.1187(4) 0.4768(2)
H3 H 0.4370 0.0941 0.5091
C4 C 0.5424(6) 0.1269(4) 0.4593(3)
H4 H 0.5941 0.1082 0.4797
C5 C 0.5592(4) 0.1626(4) 0.4119(2)
H5 H 0.6229 0.1682 0.4003
C6 C 0.4831(4) 0.1908(3) 0.3804(2)
C7 C 0.5038(4) 0.2349(3) 0.33045(19)
H6 H 0.5668 0.2650 0.3325
H7 H 0.4558 0.2834 0.3247
C8 C 0.5599(4) 0.0811(3) 0.29332(19)
H8 H 0.5336 0.0489 0.3228
H9 H 0.6274 0.0958 0.3003
C9 C 0.5532(4) 0.0187(3) 0.24675(19)
H10 H 0.6178 -0.0018 0.2371
H11 H 0.5150 -0.0362 0.2550
C10 C 0.4022(3) 0.1436(3) 0.2681(2)
H12 H 0.3628 0.1995 0.2650
H13 H 0.3730 0.1040 0.2939
C11 C 0.4043(3) 0.0927(3) 0.2176(2)
H14 H 0.3665 0.0357 0.2202
H15 H 0.3751 0.1315 0.1914
C12 C 0.5512(3) 0.2205(3) 0.24066(18)
H16 H 0.6148 0.2425 0.2512
H17 H 0.5123 0.2745 0.2316
C13 C 0.5621(4) 0.1581(3) 0.1945(2)
H18 H 0.5374 0.1897 0.1644
H19 H 0.6303 0.1443 0.1889
C14 C 0.5103(4) 0.0051(3) 0.15592(19)
H20 H 0.5752 -0.0209 0.1532
H21 H 0.4658 -0.0464 0.1616
C15 C 0.4850(4) 0.0501(3) 0.1062(2)
C16 C 0.5581(4) 0.0838(4) 0.0752(2)
H22 H 0.6223 0.0811 0.0862
C17 C 0.5370(6) 0.1213(4) 0.0284(3)
H23 H 0.5870 0.1441 0.0080
C18 C 0.4437(7) 0.1253(4) 0.0115(3)
H24 H 0.4297 0.1507 -0.0203
C19 C 0.3693(6) 0.0912(5) 0.0421(3)
H25 H 0.3053 0.0940 0.0308
C20 C 0.3901(5) 0.0532(4) 0.0893(2)
H26 H 0.3403 0.0298 0.1095
S1 S 0.20596(10) 0.40619(9) 0.33002(5)
F1 F 0.1019(5) 0.4374(3) 0.4105(2)
F2 F 0.2488(4) 0.3995(5) 0.42608(18)
F3 F 0.1492(5) 0.2968(3) 0.4033(2)
O1 O 0.2473(3) 0.4983(2) 0.33005(16)
O2 O 0.1144(3) 0.4028(3) 0.30509(16)
O3 O 0.2700(4) 0.3325(3) 0.31787(18)
C21 C 0.1763(4) 0.3850(4) 0.3955(3)
S2 S 0.28188(10) 0.33629(9) 0.17470(5)
F7 F 0.3532(11) 0.4358(5) 0.1020(4)
F8 F 0.2433(8) 0.3406(12) 0.0780(3)
F9 F 0.3860(9) 0.2898(7) 0.0955(5)
O4 O 0.2075(3) 0.4040(3) 0.18113(17)
O5 O 0.3699(3) 0.3521(3) 0.20207(16)
O6 O 0.2488(2) 0.2410(2) 0.17770(15)
C22 C 0.3177(4) 0.3502(4) 0.1094(2)
F4? F 0.101(3) 0.323(3) 0.397(3)
F5? F 0.170(4) 0.4667(15) 0.4217(13)
F6? F 0.256(2) 0.339(3) 0.4140(7)
F10? F 0.4084(12) 0.3128(19) 0.1073(7)
F11? F 0.322(2) 0.4388(9) 0.0912(14)
F12? F 0.268(2) 0.299(2) 0.0755(8)
loop_
_geom_bond_atom_site_label_1
_geom_bond_atom_site_label_2
_geom_bond_site_symmetry_1
_geom_bond_site_symmetry_2
N1 C7 1_555 1_555
N2 C9 1_555 1_555
C1 H1 1_555 1_555
C2 C1 1_555 1_555
H2 C2 1_555 1_555
C3 C2 1_555 1_555
H3 C3 1_555 1_555
C4 C3 1_555 1_555
H4 C4 1_555 1_555
C5 C4 1_555 1_555
H5 C5 1_555 1_555
C6 C1 1_555 1_555
C7 C6 1_555 1_555
H6 C7 1_555 1_555
H7 C7 1_555 1_555
C8 N1 1_555 1_555
H8 C8 1_555 1_555
H9 C8 1_555 1_555
C9 C8 1_555 1_555
H10 C9 1_555 1_555
H11 C9 1_555 1_555
C10 N1 1_555 1_555
H12 C10 1_555 1_555
H13 C10 1_555 1_555
C11 N2 1_555 1_555
H14 C11 1_555 1_555
H15 C11 1_555 1_555
C12 N1 1_555 1_555
H16 C12 1_555 1_555
H17 C12 1_555 1_555
C13 N2 1_555 1_555
H18 C13 1_555 1_555
H19 C13 1_555 1_555
C14 N2 1_555 1_555
H20 C14 1_555 1_555
H21 C14 1_555 1_555
C15 C14 1_555 1_555
C16 C15 1_555 1_555
H22 C16 1_555 1_555
C17 C16 1_555 1_555
H23 C17 1_555 1_555
C18 C17 1_555 1_555
H24 C18 1_555 1_555
C19 C18 1_555 1_555
H25 C19 1_555 1_555
C20 C15 1_555 1_555
H26 C20 1_555 1_555
S1 O1 1_555 1_555
F1 C21 1_555 1_555
F2 C21 1_555 1_555
F3 C21 1_555 1_555
O2 S1 1_555 1_555
O3 S1 1_555 1_555
C21 S1 1_555 1_555
S2 O4 1_555 1_555
F7 C22 1_555 1_555
F8 C22 1_555 1_555
F9 C22 1_555 1_555
O5 S2 1_555 1_555
O6 S2 1_555 1_555
C22 S2 1_555 1_555
C5 C6 1_555 1_555
C10 C11 1_555 1_555
C12 C13 1_555 1_555
C19 C20 1_555 1_555

#END
