
#######################################################################
#
#                 Cambridge Crystallographic Data Centre
#                                CCDC 
#
#######################################################################
#
# If this CIF has been generated from an entry in the Cambridge 
# Structural Database, then it will include bibliographic, chemical, 
# crystal, experimental, refinement or atomic coordinate data resulting 
# from the CCDC's data processing and validation procedures.
#
#######################################################################

data_WINQUI
_chemical_compound_source        'rhizomes of Homalomena occulta'
_chemical_formula_moiety         'C15 H28 O3'
_chemical_name_systematic        (1R,4S,5S,6R,7S,10R)-isodauc-6,7,10-triol
_symmetry_cell_setting           orthorhombic
_symmetry_space_group_name_H-M   'P 21 21 21'
_symmetry_Int_Tables_number      19
_space_group_name_Hall           'P 2ac 2ab'
loop_
_symmetry_equiv_pos_site_id
_symmetry_equiv_pos_as_xyz
1 x,y,z
2 1/2-x,-y,1/2+z
3 -x,1/2+y,1/2-z
4 1/2+x,1/2-y,-z
_cell_length_a                   6.4636(6)
_cell_length_b                   12.9225(12)
_cell_length_c                   17.516(2)
_cell_angle_alpha                90
_cell_angle_beta                 90
_cell_angle_gamma                90
_cell_volume                     1463.04
_exptl_crystal_colour            colorless
_exptl_crystal_description       block
_cell_formula_units_Z            4
loop_
_atom_site_label
_atom_site_type_symbol
_atom_site_fract_x
_atom_site_fract_y
_atom_site_fract_z
C1 C 0.7838(5) 0.1931(3) 0.3122(2)
C2 C 0.5989(6) 0.1540(3) 0.3597(2)
H1 H 0.4856 0.1334 0.3268
H2 H 0.6390 0.0952 0.3909
C3 C 0.5367(6) 0.2444(3) 0.4094(2)
H3 H 0.6317 0.2531 0.4517
H4 H 0.3976 0.2355 0.4291
C4 C 0.5483(6) 0.3369(3) 0.3540(2)
H5 H 0.4165 0.3385 0.3263
C5 C 0.7177(5) 0.3089(3) 0.2946(2)
H6 H 0.8375 0.3539 0.3032
C6 C 0.6398(6) 0.3258(3) 0.2130(2)
H7 H 0.5439 0.2695 0.2006
C7 C 0.8138(6) 0.3275(3) 0.1501(2)
C8 C 1.0105(6) 0.2697(3) 0.1724(3)
H8 H 1.0676 0.3028 0.2174
H9 H 1.1102 0.2783 0.1315
C9 C 0.9903(6) 0.1542(3) 0.1890(2)
H10 H 0.9740 0.1178 0.1410
H11 H 1.1181 0.1303 0.2122
C10 C 0.8120(6) 0.1249(3) 0.2410(2)
H12 H 0.6841 0.1281 0.2111
C11 C 0.5718(6) 0.4429(3) 0.3931(2)
H13 H 0.5858 0.4947 0.3526
C12 C 0.3774(7) 0.4700(4) 0.4380(3)
H14 H 0.3566 0.4197 0.4776
H15 H 0.2602 0.4698 0.4043
H16 H 0.3927 0.5374 0.4603
C13 C 0.7628(7) 0.4518(3) 0.4435(3)
H17 H 0.7477 0.4075 0.4871
H18 H 0.7785 0.5222 0.4602
H19 H 0.8829 0.4314 0.4150
C14 C 0.9815(6) 0.1934(3) 0.3611(2)
H20 H 0.9584 0.2332 0.4065
H21 H 1.0930 0.2235 0.3324
H22 H 1.0166 0.1236 0.3748
C15 C 0.7238(8) 0.2886(4) 0.0750(2)
H23 H 0.6026 0.3280 0.0625
H24 H 0.6875 0.2169 0.0800
H25 H 0.8247 0.2964 0.0352
O1 O 0.5287(5) 0.4215(2) 0.20694(18)
H26 H 0.6020 0.4649 0.1860
O2 O 0.8668(5) 0.4339(2) 0.13613(17)
H27 H 0.9526 0.4530 0.1676
O3 O 0.8466(4) 0.01860(19) 0.26237(18)
H28 H 0.7350 -0.0110 0.2669
loop_
_geom_bond_atom_site_label_1
_geom_bond_atom_site_label_2
_geom_bond_site_symmetry_1
_geom_bond_site_symmetry_2
C1 C2 1_555 1_555
C2 H1 1_555 1_555
H2 C2 1_555 1_555
C3 C2 1_555 1_555
H3 C3 1_555 1_555
H4 C3 1_555 1_555
C4 C3 1_555 1_555
H5 C4 1_555 1_555
C5 C1 1_555 1_555
H6 C5 1_555 1_555
C6 C5 1_555 1_555
H7 C6 1_555 1_555
C7 C6 1_555 1_555
C8 C7 1_555 1_555
H8 C8 1_555 1_555
H9 C8 1_555 1_555
C9 C8 1_555 1_555
H10 C9 1_555 1_555
H11 C9 1_555 1_555
C10 C1 1_555 1_555
H12 C10 1_555 1_555
C11 C4 1_555 1_555
H13 C11 1_555 1_555
C12 C11 1_555 1_555
H14 C12 1_555 1_555
H15 C12 1_555 1_555
H16 C12 1_555 1_555
C13 C11 1_555 1_555
H17 C13 1_555 1_555
H18 C13 1_555 1_555
H19 C13 1_555 1_555
C14 C1 1_555 1_555
H20 C14 1_555 1_555
H21 C14 1_555 1_555
H22 C14 1_555 1_555
C15 C7 1_555 1_555
H23 C15 1_555 1_555
H24 C15 1_555 1_555
H25 C15 1_555 1_555
O1 C6 1_555 1_555
H26 O1 1_555 1_555
O2 C7 1_555 1_555
H27 O2 1_555 1_555
O3 C10 1_555 1_555
H28 O3 1_555 1_555
C4 C5 1_555 1_555
C9 C10 1_555 1_555

#END
