
#######################################################################
#
#                 Cambridge Crystallographic Data Centre
#                                CCDC 
#
#######################################################################
#
# If this CIF has been generated from an entry in the Cambridge 
# Structural Database, then it will include bibliographic, chemical, 
# crystal, experimental, refinement or atomic coordinate data resulting 
# from the CCDC's data processing and validation procedures.
#
#######################################################################

data_WINQIU
_chemical_formula_moiety         'C20 H18 N2 O6 S2'
_chemical_name_systematic        3-Nitro-N,N-bis(p-tolylsulfonyl)aniline
_symmetry_cell_setting           monoclinic
_symmetry_space_group_name_H-M   'C 2/c'
_symmetry_Int_Tables_number      15
_space_group_name_Hall           '-C 2yn'
loop_
_symmetry_equiv_pos_site_id
_symmetry_equiv_pos_as_xyz
1 x,y,z
2 1/2+x,1/2+y,z
3 -x,y,1/2-z
4 1/2-x,1/2+y,1/2-z
5 -x,-y,-z
6 1/2-x,1/2-y,-z
7 x,-y,1/2+z
8 1/2+x,1/2-y,1/2+z
_cell_length_a                   25.7789(9)
_cell_length_b                   9.7238(7)
_cell_length_c                   16.4653(8)
_cell_angle_alpha                90
_cell_angle_beta                 99.5070(10)
_cell_angle_gamma                90
_cell_volume                     4070.65
_exptl_crystal_colour            colorless
_exptl_crystal_description       Block
_cell_formula_units_Z            8
loop_
_atom_site_label
_atom_site_type_symbol
_atom_site_fract_x
_atom_site_fract_y
_atom_site_fract_z
S1 S 0.34132(3) 0.03077(7) 0.05542(4)
S2 S 0.29039(3) 0.01230(7) 0.20435(4)
O1 O 0.31699(8) -0.0994(2) 0.04417(15)
O2 O 0.33162(8) 0.1314(2) -0.00784(12)
O3 O 0.31436(8) -0.1187(2) 0.21575(15)
O4 O 0.29099(8) 0.1039(2) 0.27150(12)
O5 O 0.45481(10) 0.4127(3) 0.30077(16)
O6 O 0.43517(11) 0.6151(3) 0.2557(2)
N1 N 0.32225(8) 0.1017(2) 0.13871(14)
N2 N 0.42661(11) 0.4927(3) 0.25742(18)
C1 C 0.57602(13) -0.0289(4) 0.1548(2)
H1 H 0.5890 -0.0989 0.1223
H2 H 0.5838 -0.0537 0.2120
H3 H 0.5927 0.0572 0.1465
C2 C 0.51728(11) -0.0150(3) 0.12921(18)
C3 C 0.48381(12) -0.1222(3) 0.1399(2)
H4 H 0.4978 -0.2045 0.1625
C4 C 0.43021(11) -0.1092(3) 0.11752(18)
H5 H 0.4081 -0.1818 0.1254
C5 C 0.40961(10) 0.0117(3) 0.08350(16)
C6 C 0.44203(11) 0.1200(3) 0.07136(19)
H6 H 0.4280 0.2015 0.0478
C7 C 0.49557(12) 0.1052(3) 0.0948(2)
H7 H 0.5176 0.1782 0.0872
C8 C 0.07156(13) -0.0322(4) 0.0105(2)
H8 H 0.0479 0.0263 0.0339
H9 H 0.0592 -0.1255 0.0098
H10 H 0.0731 -0.0031 -0.0447
C9 C 0.12544(11) -0.0235(3) 0.06152(19)
C10 C 0.14279(11) 0.0960(3) 0.10178(19)
H11 H 0.1203 0.1713 0.0983
C11 C 0.19262(11) 0.1071(3) 0.14717(19)
H12 H 0.2035 0.1884 0.1745
C12 C 0.22587(10) -0.0044(3) 0.15123(17)
C13 C 0.20953(11) -0.1263(3) 0.1129(2)
H13 H 0.2320 -0.2017 0.1164
C14 C 0.15919(12) -0.1345(3) 0.0691(2)
H14 H 0.1477 -0.2172 0.0440
C15 C 0.32900(10) 0.2488(3) 0.14926(16)
C16 C 0.37314(10) 0.2977(3) 0.19917(16)
H15 H 0.3979 0.2381 0.2276
C17 C 0.37934(11) 0.4383(3) 0.20555(17)
C18 C 0.34264(13) 0.5292(3) 0.1651(2)
H16 H 0.3476 0.6236 0.1709
C19 C 0.29890(13) 0.4776(3) 0.1165(2)
H17 H 0.2737 0.5374 0.0891
C20 C 0.29180(11) 0.3376(3) 0.10773(17)
H18 H 0.2621 0.3030 0.0741
loop_
_geom_bond_atom_site_label_1
_geom_bond_atom_site_label_2
_geom_bond_site_symmetry_1
_geom_bond_site_symmetry_2
S1 O1 1_555 1_555
S2 O3 1_555 1_555
O2 S1 1_555 1_555
O4 S2 1_555 1_555
O5 N2 1_555 1_555
O6 N2 1_555 1_555
N1 S1 1_555 1_555
N2 C17 1_555 1_555
C1 H1 1_555 1_555
H2 C1 1_555 1_555
H3 C1 1_555 1_555
C2 C1 1_555 1_555
C3 C2 1_555 1_555
H4 C3 1_555 1_555
C4 C3 1_555 1_555
H5 C4 1_555 1_555
C5 S1 1_555 1_555
C6 C5 1_555 1_555
H6 C6 1_555 1_555
C7 C2 1_555 1_555
H7 C7 1_555 1_555
C8 H8 1_555 1_555
H9 C8 1_555 1_555
H10 C8 1_555 1_555
C9 C8 1_555 1_555
C10 C9 1_555 1_555
H11 C10 1_555 1_555
C11 C10 1_555 1_555
H12 C11 1_555 1_555
C12 S2 1_555 1_555
C13 C12 1_555 1_555
H13 C13 1_555 1_555
C14 C9 1_555 1_555
H14 C14 1_555 1_555
C15 N1 1_555 1_555
C16 C15 1_555 1_555
H15 C16 1_555 1_555
C17 C16 1_555 1_555
C18 C17 1_555 1_555
H16 C18 1_555 1_555
C19 C18 1_555 1_555
H17 C19 1_555 1_555
C20 C15 1_555 1_555
H18 C20 1_555 1_555
S2 N1 1_555 1_555
C4 C5 1_555 1_555
C6 C7 1_555 1_555
C11 C12 1_555 1_555
C13 C14 1_555 1_555
C19 C20 1_555 1_555

#END
