
#######################################################################
#
#                 Cambridge Crystallographic Data Centre
#                                CCDC 
#
#######################################################################
#
# If this CIF has been generated from an entry in the Cambridge 
# Structural Database, then it will include bibliographic, chemical, 
# crystal, experimental, refinement or atomic coordinate data resulting 
# from the CCDC's data processing and validation procedures.
#
#######################################################################

data_WINSIW
_chemical_name_common            
'cis-2-(p-Fluoro)phenyl-6-phenyldithian-4-one 1-oxide'
_chemical_formula_moiety         'C17 H15 F1 O2 S1'
_chemical_name_systematic        
'2-(4-Fluorophenyl)-6-phenyltetrahydro-2H-thiopyran-4-one 1-oxide'
_symmetry_cell_setting           orthorhombic
_symmetry_space_group_name_H-M   'P n m a'
_symmetry_Int_Tables_number      62
_space_group_name_Hall           '-P 2ac 2n'
loop_
_symmetry_equiv_pos_site_id
_symmetry_equiv_pos_as_xyz
1 x,y,z
2 1/2-x,-y,1/2+z
3 1/2+x,1/2-y,1/2-z
4 -x,1/2+y,-z
5 -x,-y,-z
6 1/2+x,y,1/2-z
7 1/2-x,1/2+y,1/2+z
8 x,1/2-y,z
_cell_length_a                   11.3887(5)
_cell_length_b                   24.6558(14)
_cell_length_c                   5.1828(2)
_cell_angle_alpha                90
_cell_angle_beta                 90
_cell_angle_gamma                90
_cell_volume                     1455.32
_exptl_crystal_colour            colorless
_exptl_crystal_description       prism
_chemical_melting_point          '429 K'
_cell_formula_units_Z            4
_exptl_crystal_recrystallization_method 'chloroform/carbon tetrachloride'
loop_
_atom_site_label
_atom_site_type_symbol
_atom_site_fract_x
_atom_site_fract_y
_atom_site_fract_z
S1 S 0.22216(6) 0.25000 0.26615(12)
O1 O 0.29629(18) 0.25000 0.0254(3)
O2 O 0.53648(19) 0.25000 0.7603(5)
C1 C 0.27869(17) 0.19474(9) 0.4669(4)
C2 C 0.41209(17) 0.19809(10) 0.4870(4)
C3 C 0.4589(2) 0.25000 0.6018(5)
C4 C 0.23702(14) 0.14190(6) 0.3389(3)
C5 C 0.29790(18) 0.11851(8) 0.1348(4)
C6 C 0.2563(3) 0.07115(9) 0.0215(5)
C7 C 0.1539(3) 0.04718(8) 0.1123(6)
C8 C 0.09301(19) 0.07057(9) 0.3164(6)
C9 C 0.13457(15) 0.11792(8) 0.4297(4)
F1 F 0.1134(4) 0.00221(17) 0.0294(12)
H1 H 0.44573 0.19371 0.31205
H2 H 0.44008 0.16732 0.59314
H3 H 0.36791 0.13490 0.07269
H4 H 0.29794 0.05517 -0.11800
H5 H 0.02300 0.05418 0.37848
H6 H 0.09297 0.13391 0.56917
H7 H 0.2454(15) 0.2004(7) 0.636(3)
C1G C 0.27869(17) 0.30526(9) 0.4669(4)
C2G C 0.41209(17) 0.30191(10) 0.4870(4)
C4G C 0.23702(14) 0.35810(6) 0.3389(3)
C5G C 0.29790(18) 0.38149(8) 0.1348(4)
C6G C 0.2563(3) 0.42885(9) 0.0215(5)
C7G C 0.1539(3) 0.45282(8) 0.1123(6)
C8G C 0.09301(19) 0.42943(9) 0.3164(6)
C9G C 0.13457(15) 0.38208(8) 0.4297(4)
F1G F 0.1134(4) 0.49779(17) 0.0294(12)
H1G H 0.44573 0.30629 0.31205
H2G H 0.44008 0.33268 0.59314
H3G H 0.36791 0.36510 0.07269
H4G H 0.29794 0.44483 -0.11800
H5G H 0.02300 0.44582 0.37848
H6G H 0.09297 0.36609 0.56917
H7G H 0.2454(15) 0.2996(7) 0.636(3)
F2? F 0.0819(14) 0.0004(5) 0.184(4)
C10? C 0.2246(4) 0.14362(19) 0.3974(10)
C11? C 0.2571(6) 0.1214(3) 0.1615(11)
C12? C 0.2080(8) 0.0727(3) 0.0801(15)
C13? C 0.1264(8) 0.0462(3) 0.235(2)
C14? C 0.0938(6) 0.0685(3) 0.4705(19)
C15? C 0.1430(5) 0.1171(3) 0.5519(12)
H8? H 0.31295 0.13951 0.05590
H9? H 0.23027 0.05754 -0.08116
H10? H 0.03804 0.05035 0.57606
H11? H 0.12072 0.13232 0.71313
loop_
_geom_bond_atom_site_label_1
_geom_bond_atom_site_label_2
_geom_bond_site_symmetry_1
_geom_bond_site_symmetry_2
S1 O1 1_555 1_555
O2 C3 1_555 1_555
C1 S1 1_555 1_555
C2 C1 1_555 1_555
C3 C2 1_555 1_555
C4 C1 1_555 1_555
C5 C4 1_555 1_555
C6 C5 1_555 1_555
C7 C6 1_555 1_555
C8 C7 1_555 1_555
C9 C4 1_555 1_555
F1 C7 1_555 1_555
H1 C2 1_555 1_555
H2 C2 1_555 1_555
H3 C5 1_555 1_555
H4 C6 1_555 1_555
H5 C8 1_555 1_555
H6 C9 1_555 1_555
H7 C1 1_555 1_555
C1G S1 1_555 1_555
C2G C3 1_555 1_555
C4G C1G 1_555 1_555
C5G C4G 1_555 1_555
C6G C5G 1_555 1_555
C7G C6G 1_555 1_555
C8G C7G 1_555 1_555
C9G C4G 1_555 1_555
F1G C7G 1_555 1_555
H1G C2G 1_555 1_555
H2G C2G 1_555 1_555
H3G C5G 1_555 1_555
H4G C6G 1_555 1_555
H5G C8G 1_555 1_555
H6G C9G 1_555 1_555
H7G C1G 1_555 1_555
C8 C9 1_555 1_555
C1G C2G 1_555 1_555
C8G C9G 1_555 1_555

#END
