
#######################################################################
#
#                 Cambridge Crystallographic Data Centre
#                                CCDC 
#
#######################################################################
#
# If this CIF has been generated from an entry in the Cambridge 
# Structural Database, then it will include bibliographic, chemical, 
# crystal, experimental, refinement or atomic coordinate data resulting 
# from the CCDC's data processing and validation procedures.
#
#######################################################################

data_WINVAR
_chemical_compound_source        'Chinese yam Dioscorea opposita Thunb'
_chemical_name_common            '6-Methyl citrate'
_chemical_formula_moiety         'C7 H10 O7'
_chemical_name_systematic        
'Methyl 3-carboxy-2-carboxymethyl-2-hydroxypropanoate'
_symmetry_cell_setting           orthorhombic
_symmetry_space_group_name_H-M   'P 21 21 21'
_symmetry_Int_Tables_number      19
_space_group_name_Hall           'P 2ac 2ab'
loop_
_symmetry_equiv_pos_site_id
_symmetry_equiv_pos_as_xyz
1 x,y,z
2 1/2-x,-y,1/2+z
3 -x,1/2+y,1/2-z
4 1/2+x,1/2-y,-z
_cell_length_a                   5.8826(14)
_cell_length_b                   11.927(3)
_cell_length_c                   12.752(3)
_cell_angle_alpha                90
_cell_angle_beta                 90
_cell_angle_gamma                90
_cell_volume                     894.703
_exptl_crystal_colour            colorless
_exptl_crystal_description       block
_cell_formula_units_Z            4
loop_
_atom_site_label
_atom_site_type_symbol
_atom_site_fract_x
_atom_site_fract_y
_atom_site_fract_z
C1 C 0.4925(3) 0.69161(15) 0.39585(14)
C2 C 0.4378(4) 0.57648(14) 0.35749(13)
H1 H 0.5755 0.5318 0.3576
H2 H 0.3842 0.5813 0.2857
C3 C 0.2577(3) 0.51732(12) 0.42384(12)
C4 C 0.2234(3) 0.40041(13) 0.37674(12)
H3 H 0.1832 0.4077 0.3033
H4 H 0.3651 0.3590 0.3809
C5 C 0.0418(3) 0.33632(12) 0.43216(13)
C6 C 0.3374(3) 0.50941(12) 0.53815(12)
C7 C 0.6422(4) 0.4600(2) 0.64713(16)
H5 H 0.7871 0.4232 0.6430
H6 H 0.5460 0.4203 0.6953
H7 H 0.6630 0.5356 0.6713
O1 O 0.5924(4) 0.75236(12) 0.32416(11)
H8 H 0.6223 0.8143 0.3483
O2 O 0.4556(3) 0.72368(11) 0.48306(11)
O3 O 0.0456(2) 0.57004(10) 0.41776(10)
H9 H 0.0493 0.6290 0.4508
O4 O -0.1301(3) 0.30863(13) 0.37240(11)
H10 H -0.2223 0.2724 0.4067
O5 O 0.0531(2) 0.30970(10) 0.52392(9)
O6 O 0.2305(2) 0.54263(10) 0.61229(8)
O7 O 0.5378(2) 0.46140(12) 0.54464(9)
loop_
_geom_bond_atom_site_label_1
_geom_bond_atom_site_label_2
_geom_bond_site_symmetry_1
_geom_bond_site_symmetry_2
C1 C2 1_555 1_555
C2 H1 1_555 1_555
H2 C2 1_555 1_555
C3 C2 1_555 1_555
C4 C3 1_555 1_555
H3 C4 1_555 1_555
H4 C4 1_555 1_555
C5 C4 1_555 1_555
C6 C3 1_555 1_555
C7 H5 1_555 1_555
H6 C7 1_555 1_555
H7 C7 1_555 1_555
O1 C1 1_555 1_555
H8 O1 1_555 1_555
O2 C1 1_555 1_555
O3 C3 1_555 1_555
H9 O3 1_555 1_555
O4 C5 1_555 1_555
H10 O4 1_555 1_555
O5 C5 1_555 1_555
O6 C6 1_555 1_555
O7 C6 1_555 1_555
C7 O7 1_555 1_555

#END
