
#######################################################################
#
#                 Cambridge Crystallographic Data Centre
#                                CCDC 
#
#######################################################################
#
# If this CIF has been generated from an entry in the Cambridge 
# Structural Database, then it will include bibliographic, chemical, 
# crystal, experimental, refinement or atomic coordinate data resulting 
# from the CCDC's data processing and validation procedures.
#
#######################################################################

data_WINVUK
_chemical_formula_moiety         'C14 H16 P1 1+,Br1 1-'
_chemical_name_systematic        'Dimethyldiphenylphosphonium bromide'
_symmetry_cell_setting           hexagonal
_symmetry_space_group_name_H-M   'P 65 2 2'
_symmetry_Int_Tables_number      179
_space_group_name_Hall           "P 65 2' (0,0,1)"
loop_
_symmetry_equiv_pos_site_id
_symmetry_equiv_pos_as_xyz
1 x,y,z
2 x-y,x,5/6+z
3 -y,-x,1/6-z
4 -y,x-y,2/3+z
5 x-y,-y,-z
6 -x,-y,1/2+z
7 x,x-y,5/6-z
8 -x+y,-x,1/3+z
9 y,x,2/3-z
10 y,-x+y,1/6+z
11 -x+y,y,1/2-z
12 -x,-x+y,1/3-z
_cell_length_a                   11.603(2)
_cell_length_b                   11.603(2)
_cell_length_c                   17.968(5)
_cell_angle_alpha                90
_cell_angle_beta                 90
_cell_angle_gamma                120
_cell_volume                     2094.94
_exptl_crystal_colour            colorless
_cell_formula_units_Z            6
loop_
_atom_site_label
_atom_site_type_symbol
_atom_site_fract_x
_atom_site_fract_y
_atom_site_fract_z
Br1 Br 0.4703(1) 0.0000 0.0000
P1 P 0.4270(1) 0.8540(2) 0.2500
C1 C 0.3837(6) 0.7530(6) 0.1691(3)
C2 C 0.3557(6) 0.9597(5) 0.2469(3)
C3 C 0.4009(7) 1.0639(6) 0.2969(4)
C4 C 0.3491(10) 1.1475(7) 0.2960(6)
C5 C 0.2516(12) 1.1224(11) 0.2448(6)
C6 C 0.2067(11) 1.0240(12) 0.1958(5)
C7 C 0.2587(8) 0.9395(9) 0.1968(4)
H1 H 0.4226 0.6970 0.1718
H2 H 0.2887 0.6987 0.1658
H3 H 0.4168 0.8090 0.1260
H4 H 0.4690 1.0778 0.3321
H5 H 0.3802 1.2204 0.3303
H6 H 0.2180 1.1830 0.2446
H7 H 0.1361 1.0101 0.1626
H8 H 0.2295 0.8677 0.1618
C1J C 0.3693(8) 0.7530(6) 0.3309(3)
C2J C 0.6040(8) 0.9597(5) 0.2531(3)
H1J H 0.2744 0.6970 0.3282
H2J H 0.4100 0.6987 0.3342
H3J H 0.3922 0.8090 0.3740
C3J C 0.6630(9) 1.0639(6) 0.2031(4)
C7J C 0.6808(12) 0.9395(9) 0.3032(4)
C4J C 0.7984(12) 1.1475(7) 0.2040(6)
H4J H 0.6088 1.0778 0.1679
C6J C 0.8173(16) 1.0240(12) 0.3042(5)
H8J H 0.6382 0.8677 0.3382
C5J C 0.8708(16) 1.1224(11) 0.2552(6)
H5J H 0.8402 1.2204 0.1697
H7J H 0.8740 1.0101 0.3374
H6J H 0.9650 1.1830 0.2554
loop_
_geom_bond_atom_site_label_1
_geom_bond_atom_site_label_2
_geom_bond_site_symmetry_1
_geom_bond_site_symmetry_2
P1 C1 1_555 1_555
C1 H1 1_555 1_555
C2 P1 1_555 1_555
C3 C2 1_555 1_555
C4 C3 1_555 1_555
C5 C4 1_555 1_555
C6 C5 1_555 1_555
C7 C2 1_555 1_555
H2 C1 1_555 1_555
H3 C1 1_555 1_555
H4 C3 1_555 1_555
H5 C4 1_555 1_555
H6 C5 1_555 1_555
H7 C6 1_555 1_555
H8 C7 1_555 1_555
C1J P1 1_555 1_555
C2J P1 1_555 1_555
H1J C1J 1_555 1_555
H2J C1J 1_555 1_555
H3J C1J 1_555 1_555
C3J C2J 1_555 1_555
C7J C2J 1_555 1_555
C4J C3J 1_555 1_555
H4J C3J 1_555 1_555
C6J C7J 1_555 1_555
H8J C7J 1_555 1_555
C5J C4J 1_555 1_555
H5J C4J 1_555 1_555
H7J C6J 1_555 1_555
H6J C5J 1_555 1_555
C6 C7 1_555 1_555
C6J C5J 1_555 1_555

#END
