
#######################################################################
#
#                 Cambridge Crystallographic Data Centre
#                                CCDC 
#
#######################################################################
#
# If this CIF has been generated from an entry in the Cambridge 
# Structural Database, then it will include bibliographic, chemical, 
# crystal, experimental, refinement or atomic coordinate data resulting 
# from the CCDC's data processing and validation procedures.
#
#######################################################################

data_WINYOJ
_chemical_formula_moiety         'C30 H41 Cl1 K1 N2 O10 1+,Cl1 O4 1-'
_chemical_name_systematic        
'aqua-(1-ethyl-2-(2-(16-methyl-2,3,5,6,8,9,11,12,15,16-decahydro-14H-1,4,7,10,13,16-benzopentaoxazacyclooctadecin-19-yl)vinyl)quinolinium)-perchlorate-potassium perchlorate'
_symmetry_cell_setting           triclinic
_symmetry_space_group_name_H-M   'P -1'
_symmetry_Int_Tables_number      2
_space_group_name_Hall           '-P 1'
loop_
_symmetry_equiv_pos_site_id
_symmetry_equiv_pos_as_xyz
1 x,y,z
2 -x,-y,-z
_cell_length_a                   8.8035(3)
_cell_length_b                   9.5442(3)
_cell_length_c                   23.1098(8)
_cell_angle_alpha                90.879(2)
_cell_angle_beta                 98.589(2)
_cell_angle_gamma                115.328(2)
_cell_volume                     1728.57
_exptl_crystal_colour            red
_exptl_crystal_description       block
_cell_formula_units_Z            2
loop_
_atom_site_label
_atom_site_type_symbol
_atom_site_fract_x
_atom_site_fract_y
_atom_site_fract_z
Cl1 Cl 0.30022(14) 0.63553(12) 0.59894(4)
O1 O 0.3261(4) 0.4963(3) 0.60341(14)
O2 O 0.4385(6) 0.7502(4) 0.57521(19)
O3 O 0.3031(6) 0.6984(5) 0.65584(16)
O4 O 0.1469(6) 0.6037(5) 0.5596(2)
O5 O 0.7497(4) 0.5668(3) 0.73738(12)
N1 N 0.1526(4) 0.1385(3) 0.45992(13)
N2 N 0.9408(5) 0.4330(4) 0.79080(14)
C1 C 0.0479(5) 0.0570(4) 0.40703(16)
C2 C -0.0438(5) 0.1201(5) 0.36908(16)
H1 H -0.0337 0.2211 0.3789
C3 C -0.1473(5) 0.0360(5) 0.31814(17)
H2 H -0.2058 0.0808 0.2925
C4 C -0.1681(6) -0.1160(5) 0.30333(18)
H3 H -0.2430 -0.1743 0.2686
C5 C -0.0800(6) -0.1791(5) 0.33919(18)
H4 H -0.0936 -0.2811 0.3290
C6 C 0.0325(5) -0.0928(5) 0.39181(16)
C7 C 0.1307(5) -0.1537(5) 0.42838(17)
H5 H 0.1215 -0.2544 0.4186
C8 C 0.2381(5) -0.0662(4) 0.47754(16)
H6 H 0.3068 -0.1055 0.5009
C9 C 0.2503(5) 0.0823(4) 0.49481(15)
C10 C 0.3631(5) 0.1738(4) 0.54808(15)
H7 H 0.3889 0.2810 0.5533
C11 C 0.4324(5) 0.1113(4) 0.59041(16)
H8 H 0.4003 0.0029 0.5843
C12 C 0.5509(5) 0.1921(4) 0.64427(15)
C13 C 0.6361(5) 0.1161(5) 0.67630(16)
H9 H 0.6066 0.0105 0.6648
C14 C 0.7631(5) 0.1921(5) 0.72462(16)
H10 H 0.8201 0.1381 0.7453
C15 C 0.8081(5) 0.3471(5) 0.74317(15)
C16 C 0.7106(5) 0.4200(4) 0.71394(16)
C17 C 0.5875(5) 0.3449(4) 0.66451(16)
H11 H 0.5277 0.3971 0.6443
C18 C 1.0869(6) 0.5646(6) 0.7719(2)
H12 H 1.1441 0.5233 0.7480
H13 H 1.1679 0.6273 0.8067
H14 H 1.0447 0.6296 0.7487
K1 K 0.8173(12) 0.5997(10) 0.8644(4)
Cl2 Cl 1.2084(3) 0.9724(3) 0.86660(9)
O6 O 1.0396(14) 0.9009(13) 0.8260(5)
O7 O 1.1994(14) 0.8685(12) 0.9120(4)
O8 O 1.3406(11) 0.9923(11) 0.8332(4)
O9 O 1.226(2) 1.1182(16) 0.8855(7)
O10 O 0.510(3) 0.327(3) 0.8247(13)
C19 C 0.6523(13) 0.6440(12) 0.7124(4)
H15 H 0.5296 0.5805 0.7132
H16 H 0.6673 0.6623 0.6711
C20 C 0.7177(15) 0.7978(12) 0.7494(4)
H17 H 0.8394 0.8598 0.7467
H18 H 0.6545 0.8560 0.7323
O11 O 0.7029(11) 0.7854(9) 0.8092(3)
C21 C 0.5543(16) 0.7769(18) 0.8243(6)
H19 H 0.4605 0.6740 0.8089
H20 H 0.5271 0.8572 0.8050
C22 C 0.5608(15) 0.7991(15) 0.8896(4)
H21 H 0.4493 0.7261 0.8990
H22 H 0.5748 0.9060 0.8991
O12 O 0.7020(11) 0.7753(10) 0.9302(3)
C23 C 0.6312(18) 0.6987(16) 0.9798(5)
H23 H 0.5077 0.6329 0.9667
H24 H 0.6429 0.7794 1.0099
C24 C 0.7067(17) 0.6023(15) 1.0074(5)
H25 H 0.8277 0.6690 1.0243
H26 H 0.6469 0.5541 1.0400
O13 O 0.6983(9) 0.4850(8) 0.9683(3)
C25 C 0.7491(14) 0.3757(12) 0.9928(5)
H27 H 0.6706 0.3177 1.0197
H28 H 0.8649 0.4311 1.0164
C26 C 0.7507(13) 0.2646(11) 0.9486(4)
H29 H 0.7851 0.1885 0.9681
H30 H 0.6351 0.2069 0.9251
O14 O 0.8683(8) 0.3476(7) 0.9112(3)
C27 C 0.8851(11) 0.2487(10) 0.8664(4)
H31 H 0.9268 0.1766 0.8854
H32 H 0.7721 0.1858 0.8419
C28 C 1.0001(6) 0.3400(6) 0.8304(2)
H33 H 1.0274 0.2701 0.8063
H34 H 1.1073 0.4117 0.8562
C29 C 0.1535(5) 0.2896(4) 0.47812(16)
H35 H 0.1854 0.3099 0.5214
H36 H 0.0372 0.2824 0.4669
C30 C 0.2787(6) 0.4256(5) 0.44962(18)
H37 H 0.2756 0.5224 0.4626
H38 H 0.2463 0.4069 0.4068
H39 H 0.3944 0.4344 0.4612
K2? K 0.7775(13) 0.5673(12) 0.8615(5)
Cl3? Cl 0.4348(5) 0.2167(5) 0.85751(16)
O15? O 0.4625(19) 0.350(2) 0.8197(8)
O16? O 0.565(2) 0.2539(18) 0.8994(6)
O17? O 0.401(2) 0.0744(17) 0.8196(6)
O18? O 0.279(2) 0.182(2) 0.8745(8)
O19? O 1.041(4) 0.859(3) 0.8605(14)
C31? C 0.6108(15) 0.6183(14) 0.7163(5)
H40? H 0.6021 0.6290 0.6736
H41? H 0.4993 0.5399 0.7238
C32? C 0.6557(15) 0.7707(12) 0.7488(4)
H42? H 0.7781 0.8412 0.7506
H43? H 0.5868 0.8214 0.7292
O20? O 0.6186(9) 0.7354(7) 0.8064(2)
C33? C 0.6671(12) 0.8857(10) 0.8415(3)
H44? H 0.7919 0.9501 0.8470
H45? H 0.6093 0.9448 0.8213
C34? C 0.6142(18) 0.8468(15) 0.8976(5)
H46? H 0.4949 0.8325 0.8938
H47? H 0.6849 0.9378 0.9263
O21? O 0.6225(12) 0.7070(11) 0.9232(4)
C35? C 0.723(2) 0.789(2) 0.9781(8)
H48? H 0.6955 0.8779 0.9851
H49? H 0.6834 0.7188 1.0092
C36? C 0.901(2) 0.849(2) 0.9864(9)
H50? H 0.9485 0.8885 1.0281
H51? H 0.9461 0.9373 0.9622
O22? O 0.9613(11) 0.7333(10) 0.9710(4)
C37? C 1.142(3) 0.775(2) 0.9745(11)
H52? H 1.2053 0.8306 1.0132
H53? H 1.1872 0.8441 0.9436
C38? C 1.164(3) 0.633(2) 0.9664(9)
H54? H 1.1363 0.5727 1.0010
H55? H 1.2844 0.6611 0.9639
O23? O 1.0529(19) 0.5337(16) 0.9125(6)
C39? C 1.113(2) 0.429(2) 0.8847(7)
H56? H 1.2286 0.4921 0.8758
H57? H 1.1225 0.3551 0.9131
loop_
_geom_bond_atom_site_label_1
_geom_bond_atom_site_label_2
_geom_bond_site_symmetry_1
_geom_bond_site_symmetry_2
Cl1 O1 1_555 1_555
O2 Cl1 1_555 1_555
O3 Cl1 1_555 1_555
O4 Cl1 1_555 1_555
O5 C16 1_555 1_555
N1 C1 1_555 1_555
N2 C15 1_555 1_555
C1 C2 1_555 1_555
C2 H1 1_555 1_555
C3 C2 1_555 1_555
H2 C3 1_555 1_555
C4 C3 1_555 1_555
H3 C4 1_555 1_555
C5 C4 1_555 1_555
H4 C5 1_555 1_555
C6 C1 1_555 1_555
C7 C6 1_555 1_555
H5 C7 1_555 1_555
C8 C7 1_555 1_555
H6 C8 1_555 1_555
C9 N1 1_555 1_555
C10 C9 1_555 1_555
H7 C10 1_555 1_555
C11 C10 1_555 1_555
H8 C11 1_555 1_555
C12 C11 1_555 1_555
C13 C12 1_555 1_555
H9 C13 1_555 1_555
C14 C13 1_555 1_555
H10 C14 1_555 1_555
C15 C14 1_555 1_555
C16 C15 1_555 1_555
C17 C12 1_555 1_555
H11 C17 1_555 1_555
C18 N2 1_555 1_555
H12 C18 1_555 1_555
H13 C18 1_555 1_555
H14 C18 1_555 1_555
K1 O5 1_555 1_555
Cl2 O6 1_555 1_555
O6 K1 1_555 1_555
O7 K1 1_555 1_555
O8 Cl2 1_555 1_555
O9 Cl2 1_555 1_555
O10 K1 1_555 1_555
C19 O5 1_555 1_555
H15 C19 1_555 1_555
H16 C19 1_555 1_555
C20 C19 1_555 1_555
H17 C20 1_555 1_555
H18 C20 1_555 1_555
O11 K1 1_555 1_555
C21 O11 1_555 1_555
H19 C21 1_555 1_555
H20 C21 1_555 1_555
C22 C21 1_555 1_555
H21 C22 1_555 1_555
H22 C22 1_555 1_555
O12 K1 1_555 1_555
C23 O12 1_555 1_555
H23 C23 1_555 1_555
H24 C23 1_555 1_555
C24 C23 1_555 1_555
H25 C24 1_555 1_555
H26 C24 1_555 1_555
O13 K1 1_555 1_555
C25 O13 1_555 1_555
H27 C25 1_555 1_555
H28 C25 1_555 1_555
C26 C25 1_555 1_555
H29 C26 1_555 1_555
H30 C26 1_555 1_555
O14 K1 1_555 1_555
C27 O14 1_555 1_555
H31 C27 1_555 1_555
H32 C27 1_555 1_555
C28 N2 1_555 1_555
H33 C28 1_555 1_555
H34 C28 1_555 1_555
C29 N1 1_555 1_555
H35 C29 1_555 1_555
H36 C29 1_555 1_555
C30 C29 1_555 1_555
H37 C30 1_555 1_555
H38 C30 1_555 1_555
H39 C30 1_555 1_555
N2 K1 1_555 1_555
C5 C6 1_555 1_555
C8 C9 1_555 1_555
C16 C17 1_555 1_555
Cl2 O7 1_555 1_555
C20 O11 1_555 1_555
C22 O12 1_555 1_555
C24 O13 1_555 1_555
C26 O14 1_555 1_555
C27 C28 1_555 1_555

#END
