
#######################################################################
#
#                 Cambridge Crystallographic Data Centre
#                                CCDC 
#
#######################################################################
#
# If this CIF has been generated from an entry in the Cambridge 
# Structural Database, then it will include bibliographic, chemical, 
# crystal, experimental, refinement or atomic coordinate data resulting 
# from the CCDC's data processing and validation procedures.
#
#######################################################################

data_WINZEA
_chemical_formula_moiety         'C26 H35 Ba1 Cl3 N2 O17 S1,H2 O1'
_chemical_name_systematic        
'(3-Ethyl-2-(2-(13-methyl-2,3,5,6,8,9,12,13-octahydro-11H-1,4,7,10,13-benzotetraoxazacyclopentadecin-16-yl)vinyl)-1,3-benzothiazol-3-ium)-triperchlorate-oxy-barium monohydrate'
_symmetry_cell_setting           triclinic
_symmetry_space_group_name_H-M   'P -1'
_symmetry_Int_Tables_number      2
_space_group_name_Hall           '-P 1'
loop_
_symmetry_equiv_pos_site_id
_symmetry_equiv_pos_as_xyz
1 x,y,z
2 -x,-y,-z
_cell_length_a                   8.7392(8)
_cell_length_b                   12.4179(11)
_cell_length_c                   17.0087(15)
_cell_angle_alpha                75.226(4)
_cell_angle_beta                 80.385(4)
_cell_angle_gamma                84.548(4)
_cell_volume                     1757.07
_exptl_crystal_colour            orange
_exptl_crystal_description       plate
_cell_formula_units_Z            2
loop_
_atom_site_label
_atom_site_type_symbol
_atom_site_fract_x
_atom_site_fract_y
_atom_site_fract_z
Ba1 Ba 0.01849(7) 0.12224(5) 0.19535(4)
O1 O 0.0412(9) -0.0322(7) 0.3479(5)
Cl1 Cl -0.3109(3) 0.2803(2) 0.05806(17)
O2 O -0.2203(8) 0.1869(6) 0.0989(5)
O3 O -0.4295(8) 0.2391(6) 0.0261(5)
O4 O -0.2119(11) 0.3468(7) -0.0071(6)
O5 O -0.3829(10) 0.3415(9) 0.1166(7)
Cl2 Cl -0.1512(3) -0.1898(2) 0.25421(19)
O6 O -0.1013(11) -0.0820(7) 0.2072(5)
O7 O -0.0726(16) -0.2707(8) 0.2149(7)
O8 O -0.118(2) -0.2120(11) 0.3324(8)
O9 O -0.3082(11) -0.1898(10) 0.2539(11)
Cl3 Cl -0.2558(3) 0.1853(4) 0.3584(2)
O10 O -0.0970(10) 0.1956(8) 0.3528(6)
O11 O -0.2744(11) 0.1410(13) 0.2907(7)
O12 O -0.3286(19) 0.1228(14) 0.4277(7)
O13 O -0.333(2) 0.2955(16) 0.3521(11)
S1 S 0.3428(3) 0.4623(2) 0.62679(18)
O14 O 0.2608(8) 0.1982(5) 0.2567(4)
O15 O 0.3171(7) 0.0103(5) 0.1943(4)
O16 O 0.1444(9) 0.0290(5) 0.0636(4)
O17 O 0.1632(8) 0.2470(6) 0.0474(5)
N1 N 0.5538(11) 0.3089(7) 0.6190(6)
N2 N 0.0831(10) 0.3614(7) 0.1780(6)
C1 C 0.4635(12) 0.4291(8) 0.7030(7)
C2 C 0.4607(12) 0.4751(9) 0.7682(7)
H1 H 0.3898 0.5359 0.7756
C3 C 0.5621(12) 0.4313(9) 0.8223(7)
H2 H 0.5580 0.4587 0.8700
C4 C 0.6707(13) 0.3477(10) 0.8083(8)
H3 H 0.7421 0.3201 0.8462
C5 C 0.6797(12) 0.3025(8) 0.7418(7)
H4 H 0.7559 0.2452 0.7330
C6 C 0.5732(12) 0.3440(8) 0.6881(7)
C7 C 0.4361(13) 0.3602(9) 0.5813(7)
C8 C 0.3923(12) 0.3409(10) 0.5083(7)
H5 H 0.4538 0.2881 0.4831
C9 C 0.2700(13) 0.3931(9) 0.4741(7)
H6 H 0.2112 0.4453 0.5009
C10 C 0.2159(13) 0.3802(9) 0.4014(7)
C11 C 0.1148(13) 0.4586(9) 0.3638(8)
H7 H 0.0741 0.5176 0.3888
C12 C 0.0697(12) 0.4555(8) 0.2915(8)
H8 H 0.0001 0.5127 0.2668
C13 C 0.1250(11) 0.3685(8) 0.2529(7)
C14 C 0.2197(11) 0.2850(8) 0.2941(6)
C15 C 0.2686(12) 0.2900(9) 0.3654(7)
H9 H 0.3378 0.2329 0.3907
C16 C -0.0588(14) 0.4281(10) 0.1569(9)
H10 H -0.0432 0.5071 0.1506
H11 H -0.1455 0.4045 0.2008
H12 H -0.0824 0.4172 0.1052
C17 C 0.3673(12) 0.1088(8) 0.2900(7)
H13 H 0.3112 0.0542 0.3362
H14 H 0.4493 0.1387 0.3109
C18 C 0.4377(12) 0.0542(8) 0.2235(7)
H15 H 0.4946 0.1089 0.1778
H16 H 0.5127 -0.0071 0.2446
C19 C 0.3792(12) -0.0341(9) 0.1249(7)
H17 H 0.4478 -0.1012 0.1423
H18 H 0.4417 0.0220 0.0830
C20 C 0.2488(12) -0.0637(8) 0.0893(8)
H19 H 0.2923 -0.0947 0.0416
H20 H 0.1904 -0.1225 0.1309
C21 C 0.224(2) 0.0976(12) -0.0118(9)
H21 H 0.3358 0.0968 -0.0086
H22 H 0.2121 0.0679 -0.0592
C22 C 0.1556(16) 0.2103(10) -0.0225(7)
H23 H 0.2130 0.2598 -0.0714
H24 H 0.0460 0.2120 -0.0310
C23 C 0.1966(14) 0.3614(9) 0.0309(8)
H25 H 0.1108 0.4096 0.0069
H26 H 0.2934 0.3761 -0.0088
C24 C 0.2153(13) 0.3861(8) 0.1107(6)
H27 H 0.3088 0.3429 0.1300
H28 H 0.2350 0.4662 0.0997
C25 C 0.6595(13) 0.2212(9) 0.5918(7)
H29 H 0.6066 0.1850 0.5589
H30 H 0.6858 0.1636 0.6404
C26 C 0.8081(13) 0.2697(10) 0.5401(8)
H31 H 0.8763 0.2100 0.5228
H32 H 0.8615 0.3044 0.5729
H33 H 0.7823 0.3260 0.4915
O18 O 0.080(3) 0.0516(18) 0.4807(12)
O19 O -0.344(3) -0.087(2) 0.459(2)
C27? C 0.128(8) 0.102(3) -0.017(3)
H34? H 0.2026 0.0742 -0.0595
H35? H 0.0222 0.0981 -0.0290
loop_
_geom_bond_atom_site_label_1
_geom_bond_atom_site_label_2
_geom_bond_site_symmetry_1
_geom_bond_site_symmetry_2
Ba1 O1 1_555 1_555
Cl1 O2 1_555 1_555
O2 Ba1 1_555 1_555
O3 Cl1 1_555 1_555
O4 Cl1 1_555 1_555
O5 Cl1 1_555 1_555
Cl2 O6 1_555 1_555
O6 Ba1 1_555 1_555
O7 Cl2 1_555 1_555
O8 Cl2 1_555 1_555
O9 Cl2 1_555 1_555
Cl3 O10 1_555 1_555
O10 Ba1 1_555 1_555
O11 Ba1 1_555 1_555
O12 Cl3 1_555 1_555
O13 Cl3 1_555 1_555
S1 C1 1_555 1_555
O14 Ba1 1_555 1_555
O15 Ba1 1_555 1_555
O16 Ba1 1_555 1_555
O17 Ba1 1_555 1_555
N1 C6 1_555 1_555
N2 Ba1 1_555 1_555
C1 C2 1_555 1_555
C2 H1 1_555 1_555
C3 C2 1_555 1_555
H2 C3 1_555 1_555
C4 C3 1_555 1_555
H3 C4 1_555 1_555
C5 C4 1_555 1_555
H4 C5 1_555 1_555
C6 C1 1_555 1_555
C7 S1 1_555 1_555
C8 C7 1_555 1_555
H5 C8 1_555 1_555
C9 C8 1_555 1_555
H6 C9 1_555 1_555
C10 C9 1_555 1_555
C11 C10 1_555 1_555
H7 C11 1_555 1_555
C12 C11 1_555 1_555
H8 C12 1_555 1_555
C13 N2 1_555 1_555
C14 O14 1_555 1_555
C15 C10 1_555 1_555
H9 C15 1_555 1_555
C16 N2 1_555 1_555
H10 C16 1_555 1_555
H11 C16 1_555 1_555
H12 C16 1_555 1_555
C17 O14 1_555 1_555
H13 C17 1_555 1_555
H14 C17 1_555 1_555
C18 O15 1_555 1_555
H15 C18 1_555 1_555
H16 C18 1_555 1_555
C19 O15 1_555 1_555
H17 C19 1_555 1_555
H18 C19 1_555 1_555
C20 O16 1_555 1_555
H19 C20 1_555 1_555
H20 C20 1_555 1_555
C21 O16 1_555 1_555
H21 C21 1_555 1_555
H22 C21 1_555 1_555
C22 O17 1_555 1_555
H23 C22 1_555 1_555
H24 C22 1_555 1_555
C23 O17 1_555 1_555
H25 C23 1_555 1_555
H26 C23 1_555 1_555
C24 N2 1_555 1_555
H27 C24 1_555 1_555
H28 C24 1_555 1_555
C25 N1 1_555 1_555
H29 C25 1_555 1_555
H30 C25 1_555 1_555
C26 C25 1_555 1_555
H31 C26 1_555 1_555
H32 C26 1_555 1_555
H33 C26 1_555 1_555
Cl3 O11 1_555 1_555
N1 C7 1_555 1_555
C5 C6 1_555 1_555
C12 C13 1_555 1_555
C13 C14 1_555 1_555
C14 C15 1_555 1_555
C17 C18 1_555 1_555
C19 C20 1_555 1_555
C21 C22 1_555 1_555
C23 C24 1_555 1_555

#END
