
#######################################################################
#
#                 Cambridge Crystallographic Data Centre
#                                CCDC 
#
#######################################################################
#
# If this CIF has been generated from an entry in the Cambridge 
# Structural Database, then it will include bibliographic, chemical, 
# crystal, experimental, refinement or atomic coordinate data resulting 
# from the CCDC's data processing and validation procedures.
#
#######################################################################

data_WINZUQ
_chemical_formula_moiety         'C25 H35 N2 O5 1+,I1 1-'
_chemical_name_systematic        
'1-Methyl-4-(2-(16-methyl-2,3,5,6,8,9,11,12,15,16-decahydro-14H-1,4,7,10,13,16-benzopentaoxazacyclooctadecin-19-yl)vinyl)pyridinium iodide'
_symmetry_cell_setting           triclinic
_symmetry_space_group_name_H-M   'P -1'
_symmetry_Int_Tables_number      2
_space_group_name_Hall           '-P 1'
loop_
_symmetry_equiv_pos_site_id
_symmetry_equiv_pos_as_xyz
1 x,y,z
2 -x,-y,-z
_cell_length_a                   9.0052(8)
_cell_length_b                   10.7537(9)
_cell_length_c                   13.4745(12)
_cell_angle_alpha                85.777(3)
_cell_angle_beta                 84.127(3)
_cell_angle_gamma                85.136(3)
_cell_volume                     1290.56
_exptl_crystal_colour            'dark red'
_exptl_crystal_description       block
_cell_formula_units_Z            2
loop_
_atom_site_label
_atom_site_type_symbol
_atom_site_fract_x
_atom_site_fract_y
_atom_site_fract_z
I1 I 0.61154(12) 0.10722(12) 0.77064(7)
O1 O 0.7175(4) 0.2742(3) 0.2132(2)
O2 O 0.8900(4) 0.1553(3) 0.0539(2)
O3 O 1.1716(4) 0.2676(3) 0.0012(3)
O4 O 1.3120(4) 0.3913(3) 0.1521(3)
O5 O 1.1447(4) 0.4842(3) 0.3343(3)
N1 N -0.0020(4) -0.1368(3) 0.6755(3)
N2 N 0.8194(5) 0.4633(4) 0.3082(3)
C1 C 0.0460(5) -0.1706(4) 0.5833(3)
H1 H 0.0094 -0.2424 0.5602
C2 C 0.1468(5) -0.1047(4) 0.5209(3)
H2 H 0.1774 -0.1307 0.4555
C3 C 0.2029(5) -0.0016(5) 0.5530(4)
C4 C 0.1518(6) 0.0341(4) 0.6492(4)
H3 H 0.1875 0.1055 0.6736
C5 C 0.0492(6) -0.0348(5) 0.7089(4)
H4 H 0.0147 -0.0099 0.7740
C6 C 0.3109(5) 0.0687(5) 0.4858(4)
H5 H 0.3288 0.0487 0.4178
C7 C 0.3847(5) 0.1595(5) 0.5167(4)
H6 H 0.3623 0.1782 0.5846
C8 C 0.4959(5) 0.2332(5) 0.4577(4)
C9 C 0.5520(5) 0.3262(5) 0.5061(4)
H7 H 0.5192 0.3370 0.5745
C10 C 0.6554(5) 0.4040(5) 0.4561(4)
H8 H 0.6899 0.4684 0.4904
C11 C 0.7091(5) 0.3890(4) 0.3566(3)
C12 C 0.6563(5) 0.2914(4) 0.3082(3)
C13 C 0.5470(5) 0.2166(4) 0.3583(4)
H9 H 0.5081 0.1544 0.3239
C14 C 0.7875(8) 0.5274(7) 0.2110(5)
H10 H 0.7431 0.4701 0.1713
H11 H 0.8809 0.5538 0.1749
H12 H 0.7174 0.6010 0.2223
C15 C 0.6602(6) 0.1804(5) 0.1597(4)
H13 H 0.5501 0.1948 0.1601
H14 H 0.6841 0.0961 0.1915
C16 C 0.7336(6) 0.1901(5) 0.0535(4)
H15 H 0.6880 0.1342 0.0121
H16 H 0.7180 0.2770 0.0244
C17 C 0.9659(6) 0.1690(6) -0.0440(4)
H17 H 0.9360 0.2520 -0.0759
H18 H 0.9385 0.1040 -0.0856
C18 C 1.1312(6) 0.1567(5) -0.0366(4)
H19 H 1.1581 0.0834 0.0088
H20 H 1.1854 0.1446 -0.1033
C19 C 1.3261(5) 0.2625(5) 0.0125(4)
H21 H 1.3848 0.2478 -0.0523
H22 H 1.3531 0.1929 0.0612
C20 C 1.3617(6) 0.3859(5) 0.0493(4)
H23 H 1.4710 0.3938 0.0391
H24 H 1.3115 0.4563 0.0107
C21 C 1.3260(6) 0.5110(5) 0.1852(4)
H25 H 1.2557 0.5728 0.1525
H26 H 1.4290 0.5354 0.1654
C22 C 1.2936(6) 0.5132(5) 0.2967(4)
H27 H 1.3660 0.4525 0.3287
H28 H 1.3101 0.5974 0.3166
C23 C 1.0394(6) 0.5870(5) 0.3273(4)
H29 H 1.0351 0.6174 0.2564
H30 H 1.0685 0.6558 0.3644
C24 C 0.8874(6) 0.5472(5) 0.3712(4)
H31 H 0.8979 0.5037 0.4378
H32 H 0.8184 0.6229 0.3809
C25 C -0.1060(6) -0.2119(5) 0.7430(4)
H33 H -0.1283 -0.1726 0.8068
H34 H -0.0593 -0.2966 0.7549
H35 H -0.1990 -0.2160 0.7119
I2? I 0.6451(16) 0.1335(9) 0.7684(5)
loop_
_geom_bond_atom_site_label_1
_geom_bond_atom_site_label_2
_geom_bond_site_symmetry_1
_geom_bond_site_symmetry_2
O1 C12 1_555 1_555
O2 C16 1_555 1_555
O3 C18 1_555 1_555
O4 C20 1_555 1_555
O5 C22 1_555 1_555
N1 C1 1_555 1_555
N2 C11 1_555 1_555
C1 H1 1_555 1_555
C2 C1 1_555 1_555
H2 C2 1_555 1_555
C3 C2 1_555 1_555
C4 C3 1_555 1_555
H3 C4 1_555 1_555
C5 N1 1_555 1_555
H4 C5 1_555 1_555
C6 C3 1_555 1_555
H5 C6 1_555 1_555
C7 C6 1_555 1_555
H6 C7 1_555 1_555
C8 C7 1_555 1_555
C9 C8 1_555 1_555
H7 C9 1_555 1_555
C10 C9 1_555 1_555
H8 C10 1_555 1_555
C11 C10 1_555 1_555
C12 C11 1_555 1_555
C13 C8 1_555 1_555
H9 C13 1_555 1_555
C14 N2 1_555 1_555
H10 C14 1_555 1_555
H11 C14 1_555 1_555
H12 C14 1_555 1_555
C15 O1 1_555 1_555
H13 C15 1_555 1_555
H14 C15 1_555 1_555
C16 C15 1_555 1_555
H15 C16 1_555 1_555
H16 C16 1_555 1_555
C17 O2 1_555 1_555
H17 C17 1_555 1_555
H18 C17 1_555 1_555
C18 C17 1_555 1_555
H19 C18 1_555 1_555
H20 C18 1_555 1_555
C19 O3 1_555 1_555
H21 C19 1_555 1_555
H22 C19 1_555 1_555
C20 C19 1_555 1_555
H23 C20 1_555 1_555
H24 C20 1_555 1_555
C21 O4 1_555 1_555
H25 C21 1_555 1_555
H26 C21 1_555 1_555
C22 C21 1_555 1_555
H27 C22 1_555 1_555
H28 C22 1_555 1_555
C23 O5 1_555 1_555
H29 C23 1_555 1_555
H30 C23 1_555 1_555
C24 N2 1_555 1_555
H31 C24 1_555 1_555
H32 C24 1_555 1_555
C25 N1 1_555 1_555
H33 C25 1_555 1_555
H34 C25 1_555 1_555
H35 C25 1_555 1_555
C4 C5 1_555 1_555
C12 C13 1_555 1_555
C23 C24 1_555 1_555

#END
