
#######################################################################
#
#                 Cambridge Crystallographic Data Centre
#                                CCDC 
#
#######################################################################
#
# If this CIF has been generated from an entry in the Cambridge 
# Structural Database, then it will include bibliographic, chemical, 
# crystal, experimental, refinement or atomic coordinate data resulting 
# from the CCDC's data processing and validation procedures.
#
#######################################################################

data_WINZOJ
_chemical_formula_moiety         'C17 H18 O4'
_chemical_name_systematic        
cis-5-Phenyl-4-ethoxycarbonyl-1,3,3a,4,5,7a-hexahydro-2-benzofuran-1-one
_symmetry_cell_setting           monoclinic
_symmetry_space_group_name_H-M   'P 21/n'
_symmetry_Int_Tables_number      14
_space_group_name_Hall           '-P 2yn'
loop_
_symmetry_equiv_pos_site_id
_symmetry_equiv_pos_as_xyz
1 x,y,z
2 1/2-x,1/2+y,1/2-z
3 -x,-y,-z
4 1/2+x,1/2-y,1/2+z
_cell_length_a                   8.0044(9)
_cell_length_b                   10.9848(12)
_cell_length_c                   16.1574(18)
_cell_angle_alpha                90
_cell_angle_beta                 90.232(2)
_cell_angle_gamma                90
_cell_volume                     1420.66
_exptl_crystal_colour            colorless
_exptl_crystal_description       bar
_chemical_melting_point          '117-119 deg.C'
_cell_formula_units_Z            4
loop_
_atom_site_label
_atom_site_type_symbol
_atom_site_fract_x
_atom_site_fract_y
_atom_site_fract_z
O1 O 0.92247(16) 0.75831(11) 0.00184(8)
O2 O 1.04456(14) 0.60059(10) 0.06460(7)
O3 O 0.80725(14) 0.28490(10) 0.19015(7)
O4 O 0.68084(14) 0.24525(9) 0.06841(7)
C1 C 0.9229(2) 0.68538(15) 0.05697(10)
C2 C 0.7962(2) 0.66866(14) 0.12574(10)
H1 H 0.8280 0.7236 0.1726
C3 C 0.82517(19) 0.53698(14) 0.15342(10)
H2 H 0.8046 0.5280 0.2141
C4 C 0.71325(19) 0.45080(13) 0.10390(9)
H3 H 0.7439 0.4597 0.0443
C5 C 0.52486(19) 0.48373(13) 0.11185(9)
H4 H 0.4647 0.4391 0.0667
C6 C 0.5012(2) 0.61724(13) 0.09539(9)
H5 H 0.3924 0.6446 0.0809
C7 C 0.6217(2) 0.69902(14) 0.09980(9)
H6 H 0.5963 0.7810 0.0858
C8 C 1.0103(2) 0.52025(15) 0.13395(10)
H7 H 1.0800 0.5426 0.1824
H8 H 1.0339 0.4346 0.1189
C9 C 0.74190(19) 0.31952(14) 0.12738(9)
C10 C 0.6958(2) 0.11531(14) 0.08268(11)
H9 H 0.7886 0.0995 0.1219
H10 H 0.7216 0.0736 0.0299
C11 C 0.5374(3) 0.06666(16) 0.11707(14)
H11 H 0.5485 -0.0212 0.1262
H12 H 0.4459 0.0819 0.0779
H13 H 0.5132 0.1071 0.1697
C12 C 0.44707(19) 0.44382(13) 0.19287(9)
C13 C 0.46822(19) 0.50962(14) 0.26560(10)
H14 H 0.5315 0.5828 0.2648
C14 C 0.3988(2) 0.47040(15) 0.33907(10)
H15 H 0.4155 0.5159 0.3884
C15 C 0.3049(2) 0.36456(14) 0.34062(11)
H16 H 0.2583 0.3367 0.3912
C16 C 0.2793(2) 0.29980(14) 0.26880(10)
H17 H 0.2130 0.2281 0.2696
C17 C 0.35007(19) 0.33889(13) 0.19521(10)
H18 H 0.3321 0.2935 0.1459
loop_
_geom_bond_atom_site_label_1
_geom_bond_atom_site_label_2
_geom_bond_site_symmetry_1
_geom_bond_site_symmetry_2
O1 C1 1_555 1_555
O2 C1 1_555 1_555
O3 C9 1_555 1_555
O4 C9 1_555 1_555
C1 C2 1_555 1_555
C2 H1 1_555 1_555
C3 C2 1_555 1_555
H2 C3 1_555 1_555
C4 C3 1_555 1_555
H3 C4 1_555 1_555
C5 C4 1_555 1_555
H4 C5 1_555 1_555
C6 C5 1_555 1_555
H5 C6 1_555 1_555
C7 C2 1_555 1_555
H6 C7 1_555 1_555
C8 O2 1_555 1_555
H7 C8 1_555 1_555
H8 C8 1_555 1_555
C9 C4 1_555 1_555
C10 O4 1_555 1_555
H9 C10 1_555 1_555
H10 C10 1_555 1_555
C11 C10 1_555 1_555
H11 C11 1_555 1_555
H12 C11 1_555 1_555
H13 C11 1_555 1_555
C12 C5 1_555 1_555
C13 C12 1_555 1_555
H14 C13 1_555 1_555
C14 C13 1_555 1_555
H15 C14 1_555 1_555
C15 C14 1_555 1_555
H16 C15 1_555 1_555
C16 C15 1_555 1_555
H17 C16 1_555 1_555
C17 C12 1_555 1_555
H18 C17 1_555 1_555
C3 C8 1_555 1_555
C6 C7 1_555 1_555
C16 C17 1_555 1_555

#END
