
#######################################################################
#
#                 Cambridge Crystallographic Data Centre
#                                CCDC 
#
#######################################################################
#
# If this CIF has been generated from an entry in the Cambridge 
# Structural Database, then it will include bibliographic, chemical, 
# crystal, experimental, refinement or atomic coordinate data resulting 
# from the CCDC's data processing and validation procedures.
#
#######################################################################

data_WINZOK
_chemical_formula_moiety         'C25 H35 N2 O5 1+,Cl1 O4 1-'
_chemical_name_systematic        
'1-Methyl-4-(2-(16-methyl-2,3,5,6,8,9,11,12,15,16-decahydro-14H-1,4,7,10,13,16-benzopentaoxazacyclooctadecin-19-yl)vinyl)pyridinium perchlorate'
_symmetry_cell_setting           triclinic
_symmetry_space_group_name_H-M   'P -1'
_symmetry_Int_Tables_number      2
_space_group_name_Hall           '-P 1'
loop_
_symmetry_equiv_pos_site_id
_symmetry_equiv_pos_as_xyz
1 x,y,z
2 -x,-y,-z
_cell_length_a                   8.9466(8)
_cell_length_b                   10.8772(9)
_cell_length_c                   13.6319(12)
_cell_angle_alpha                85.650(5)
_cell_angle_beta                 84.387(5)
_cell_angle_gamma                85.205(5)
_cell_volume                     1312.53
_exptl_crystal_colour            red
_exptl_crystal_description       prism
_cell_formula_units_Z            2
loop_
_atom_site_label
_atom_site_type_symbol
_atom_site_fract_x
_atom_site_fract_y
_atom_site_fract_z
Cl1 Cl 0.61178(11) 0.61542(8) 0.77834(7)
O1 O 0.6265(5) 0.5245(3) 0.8604(3)
O2 O 0.5003(8) 0.5778(7) 0.7229(5)
O3 O 0.7603(8) 0.6015(8) 0.7201(6)
O4 O 0.5857(8) 0.7325(6) 0.8109(5)
O11 O 0.2866(3) 0.2271(2) 0.78396(18)
O12 O 0.1201(3) 0.3442(2) 0.94388(18)
O13 O -0.1583(3) 0.2301(2) 0.99867(18)
O14 O -0.3091(3) 0.1116(2) 0.85148(18)
O15 O -0.1452(3) 0.0238(2) 0.66758(19)
N1 N 0.9988(3) 0.6350(2) 0.3178(2)
N2 N 0.1827(3) 0.0413(3) 0.6912(2)
C1 C 0.9580(10) 0.6685(8) 0.4100(4)
C2 C 0.8595(5) 0.6034(4) 0.4737(4)
C3 C 0.7981(4) 0.4988(4) 0.4427(3)
C4 C 0.8439(6) 0.4682(4) 0.3463(4)
C5 C 0.9403(7) 0.5358(4) 0.2866(4)
C6 C 0.6917(4) 0.4312(4) 0.5095(3)
C7 C 0.6195(4) 0.3391(3) 0.4825(3)
C8 C 0.5071(5) 0.2650(5) 0.5398(4)
C9 C 0.4487(6) 0.1737(5) 0.4931(4)
C10 C 0.3465(8) 0.0960(7) 0.5442(4)
C11 C 0.4556(5) 0.2817(5) 0.6371(4)
H1 H 0.4951 0.3443 0.6697
H2 H 1.010(4) 0.745(3) 0.426(3)
H3 H 0.837(4) 0.628(3) 0.534(3)
H4 H 0.820(4) 0.410(3) 0.321(3)
H5 H 0.970(4) 0.512(3) 0.232(3)
H6 H 0.675(5) 0.458(4) 0.574(3)
H7 H 0.644(5) 0.312(4) 0.418(4)
H8 H 0.483(4) 0.161(3) 0.431(3)
H9 H 0.319(4) 0.027(3) 0.514(3)
C12 C 0.2933(4) 0.1130(3) 0.6420(3)
C13 C 0.3475(4) 0.2102(3) 0.6894(3)
C14 C 0.2147(6) -0.0218(4) 0.7863(3)
H10 H 0.2607 0.0345 0.8253
H11 H 0.2842 -0.0950 0.7753
H12 H 0.1206 -0.0471 0.8222
C15 C 0.3486(4) 0.3190(4) 0.8365(3)
C16 C 0.2765(5) 0.3082(4) 0.9409(3)
C17 C 0.0492(5) 0.3297(4) 1.0415(3)
C18 C -0.1177(5) 0.3394(4) 1.0380(3)
C19 C -0.3163(5) 0.2324(4) 0.9916(3)
C20 C -0.3523(5) 0.1132(4) 0.9547(3)
C21 C -0.3241(5) -0.0054(3) 0.8159(3)
C22 C -0.2962(4) -0.0020(4) 0.7054(3)
C23 C -0.0406(5) -0.0795(3) 0.6736(4)
C24 C 0.1123(5) -0.0402(4) 0.6285(3)
C25 C 1.1017(4) 0.7099(3) 0.2508(3)
H13 H 1.1169 0.7860 0.2814
H14 H 1.0575 0.7309 0.1881
H15 H 1.1989 0.6623 0.2384
H16 H 0.321(5) 0.412(4) 0.804(3)
H17 H 0.461(4) 0.299(3) 0.837(2)
H18 H 0.291(4) 0.214(3) 0.973(2)
H19 H 0.328(5) 0.357(4) 0.989(3)
H20 H 0.086(5) 0.392(4) 1.083(3)
H21 H 0.082(4) 0.248(4) 1.075(3)
H22 H -0.171(4) 0.353(3) 1.099(3)
H23 H -0.168(4) 0.414(3) 0.991(3)
H24 H -0.349(4) 0.316(3) 0.946(3)
H25 H -0.368(4) 0.241(3) 1.046(3)
H26 H -0.287(4) 0.038(3) 0.988(3)
H27 H -0.468(6) 0.111(4) 0.960(3)
H28 H -0.425(5) -0.038(3) 0.833(3)
H29 H -0.252(4) -0.070(3) 0.845(2)
H30 H -0.315(4) -0.079(3) 0.685(2)
H31 H -0.360(4) 0.072(3) 0.677(3)
H32 H -0.093(4) -0.140(3) 0.637(2)
H33 H -0.044(5) -0.122(4) 0.747(4)
H34 H 0.168(4) -0.108(3) 0.606(2)
H35 H 0.101(5) 0.006(4) 0.558(3)
O5? O 0.6443(10) 0.7182(8) 0.8281(6)
O6? O 0.7059(14) 0.5988(13) 0.6931(9)
O7? O 0.4550(11) 0.6334(10) 0.7552(8)
O8? O 0.7528(14) 0.6592(15) 0.7155(12)
O9? O 0.559(2) 0.5308(13) 0.7136(14)
O10? O 0.5020(14) 0.7283(11) 0.7670(10)
C26? C 0.939(9) 0.647(6) 0.412(3)
H36? H 0.9652 0.7107 0.4498
C27? C 0.840(3) 0.563(3) 0.449(2)
H37? H 0.7861 0.5744 0.5116
C28? C 0.815(4) 0.461(3) 0.399(3)
C29? C 0.892(5) 0.449(4) 0.306(3)
H38? H 0.8772 0.3806 0.2695
C30? C 0.987(5) 0.534(3) 0.268(3)
H39? H 1.0452 0.5232 0.2064
C31? C 0.706(4) 0.373(3) 0.439(2)
H40? H 0.6855 0.3119 0.3970
C32? C 0.633(3) 0.372(2) 0.5277(19)
H41? H 0.6597 0.4298 0.5704
C33? C 0.515(4) 0.292(4) 0.569(2)
C34? C 0.479(4) 0.195(4) 0.518(3)
H42? H 0.5446 0.1746 0.4618
C35? C 0.355(6) 0.124(5) 0.5421(18)
H43? H 0.3130 0.0840 0.4926
C36? C 0.456(4) 0.299(3) 0.664(2)
H44? H 0.4828 0.3560 0.7078
loop_
_geom_bond_atom_site_label_1
_geom_bond_atom_site_label_2
_geom_bond_site_symmetry_1
_geom_bond_site_symmetry_2
Cl1 O1 1_555 1_555
O2 Cl1 1_555 1_555
O3 Cl1 1_555 1_555
O4 Cl1 1_555 1_555
O11 C13 1_555 1_555
O12 C16 1_555 1_555
O13 C18 1_555 1_555
O14 C20 1_555 1_555
O15 C22 1_555 1_555
N1 C1 1_555 1_555
N2 C12 1_555 1_555
C1 C2 1_555 1_555
C2 C3 1_555 1_555
C3 C4 1_555 1_555
C4 C5 1_555 1_555
C5 N1 1_555 1_555
C6 C3 1_555 1_555
C7 C6 1_555 1_555
C8 C7 1_555 1_555
C9 C8 1_555 1_555
C10 C9 1_555 1_555
C11 C8 1_555 1_555
H1 C11 1_555 1_555
H2 C1 1_555 1_555
H3 C2 1_555 1_555
H4 C4 1_555 1_555
H5 C5 1_555 1_555
H6 C6 1_555 1_555
H7 C7 1_555 1_555
H8 C9 1_555 1_555
H9 C10 1_555 1_555
C12 C10 1_555 1_555
C13 C11 1_555 1_555
C14 N2 1_555 1_555
H10 C14 1_555 1_555
H11 C14 1_555 1_555
H12 C14 1_555 1_555
C15 O11 1_555 1_555
C16 C15 1_555 1_555
C17 O12 1_555 1_555
C18 C17 1_555 1_555
C19 O13 1_555 1_555
C20 C19 1_555 1_555
C21 O14 1_555 1_555
C22 C21 1_555 1_555
C23 O15 1_555 1_555
C24 N2 1_555 1_555
C25 N1 1_555 1_555
H13 C25 1_555 1_555
H14 C25 1_555 1_555
H15 C25 1_555 1_555
H16 C15 1_555 1_555
H17 C15 1_555 1_555
H18 C16 1_555 1_555
H19 C16 1_555 1_555
H20 C17 1_555 1_555
H21 C17 1_555 1_555
H22 C18 1_555 1_555
H23 C18 1_555 1_555
H24 C19 1_555 1_555
H25 C19 1_555 1_555
H26 C20 1_555 1_555
H27 C20 1_555 1_555
H28 C21 1_555 1_555
H29 C21 1_555 1_555
H30 C22 1_555 1_555
H31 C22 1_555 1_555
H32 C23 1_555 1_555
H33 C23 1_555 1_555
H34 C24 1_555 1_555
H35 C24 1_555 1_555
C12 C13 1_555 1_555
C23 C24 1_555 1_555

#END
