
#######################################################################
#
#                 Cambridge Crystallographic Data Centre
#                                CCDC 
#
#######################################################################
#
# If this CIF has been generated from an entry in the Cambridge 
# Structural Database, then it will include bibliographic, chemical, 
# crystal, experimental, refinement or atomic coordinate data resulting 
# from the CCDC's data processing and validation procedures.
#
#######################################################################

data_WINZAW
_chemical_formula_moiety         'C30 H41 Li1 N2 O6 2+,2(Cl1 O4 1-)'
_chemical_name_systematic        
'Aqua-(1-ethyl-2-(2-(16-methyl-2,3,5,6,8,9,11,12,15,16-decahydro-14H-1,4,7,10,13,16-benzopentaoxazacyclooctadecin-19-yl)vinyl)quinolinium)-lithium diperchlorate'
_symmetry_cell_setting           triclinic
_symmetry_space_group_name_H-M   'P -1'
_symmetry_Int_Tables_number      2
_space_group_name_Hall           '-P 1'
loop_
_symmetry_equiv_pos_site_id
_symmetry_equiv_pos_as_xyz
1 x,y,z
2 -x,-y,-z
_cell_length_a                   7.0910(9)
_cell_length_b                   14.0438(15)
_cell_length_c                   17.133(2)
_cell_angle_alpha                98.366(10)
_cell_angle_beta                 93.940(7)
_cell_angle_gamma                94.900(6)
_cell_volume                     1676.15
_exptl_crystal_colour            'dark red'
_exptl_crystal_description       needle
_cell_formula_units_Z            2
loop_
_atom_site_label
_atom_site_type_symbol
_atom_site_fract_x
_atom_site_fract_y
_atom_site_fract_z
Li1 Li 0.922(4) 0.486(2) 0.2159(16)
O1 O 0.805(2) 0.6068(9) 0.2318(8)
O2 O 0.7290(18) 0.2538(8) 0.3324(6)
O3 O 0.9054(18) 0.4461(8) 0.3297(7)
O4 O 1.1955(19) 0.5104(9) 0.2595(8)
O5 O 1.063(2) 0.4980(9) 0.1108(7)
O6 O 0.773(2) 0.3756(8) 0.1458(7)
N1 N 0.809(2) 0.0656(9) 0.7090(8)
N2 N 0.713(2) 0.1241(10) 0.1954(8)
C1 C 0.771(3) 0.0079(13) 0.6393(10)
C2 C 0.739(3) -0.0926(12) 0.6389(11)
H1 H 0.7168 -0.1346 0.5898
C3 C 0.741(2) -0.1302(12) 0.7071(10)
H2 H 0.7193 -0.1981 0.7060
C4 C 0.775(2) -0.0680(13) 0.7796(10)
C5 C 0.772(2) -0.1059(13) 0.8537(10)
H3 H 0.7500 -0.1737 0.8534
C6 C 0.801(3) -0.0453(13) 0.9237(11)
H4 H 0.7994 -0.0702 0.9724
C7 C 0.833(3) 0.0549(14) 0.9232(11)
H5 H 0.8532 0.0974 0.9721
C8 C 0.837(2) 0.0929(12) 0.8536(10)
H6 H 0.8565 0.1608 0.8547
C9 C 0.812(2) 0.0314(12) 0.7820(10)
C10 C 0.763(3) 0.0488(12) 0.5658(10)
H7 H 0.7606 0.1167 0.5690
C11 C 0.759(3) -0.0038(13) 0.4948(10)
H8 H 0.7603 -0.0717 0.4934
C12 C 0.754(2) 0.0315(12) 0.4180(10)
C13 C 0.757(2) 0.1291(13) 0.4129(10)
H9 H 0.7700 0.1751 0.4598
C14 C 0.742(2) 0.1599(12) 0.3400(10)
C15 C 0.728(2) 0.0945(12) 0.2694(10)
C16 C 0.725(3) -0.0023(14) 0.2762(10)
H10 H 0.7152 -0.0483 0.2293
C17 C 0.737(3) -0.0356(13) 0.3494(10)
H11 H 0.7327 -0.1028 0.3520
C18 C 0.748(3) 0.3262(12) 0.4019(10)
H12 H 0.8698 0.3237 0.4332
H13 H 0.6428 0.3155 0.4356
C19 C 0.743(3) 0.4233(13) 0.3732(11)
H14 H 0.6248 0.4225 0.3386
H15 H 0.7403 0.4745 0.4193
C20 C 1.066(3) 0.4893(16) 0.3787(11)
H16 H 1.0766 0.4594 0.4275
H17 H 1.0557 0.5593 0.3939
C21 C 1.237(3) 0.4744(15) 0.3340(11)
H18 H 1.3520 0.5111 0.3637
H19 H 1.2584 0.4051 0.3242
C22 C 1.323(3) 0.4848(18) 0.2023(12)
H20 H 1.3214 0.4136 0.1909
H21 H 1.4534 0.5124 0.2220
C23 C 1.262(3) 0.5235(16) 0.1295(12)
H22 H 1.2894 0.5948 0.1380
H23 H 1.3330 0.4963 0.0851
C24 C 1.027(3) 0.4033(14) 0.0618(11)
H24 H 1.1006 0.3551 0.0841
H25 H 1.0603 0.4062 0.0070
C25 C 0.812(3) 0.3791(17) 0.0649(11)
H26 H 0.7418 0.4291 0.0439
H27 H 0.7702 0.3159 0.0320
C26 C 0.674(3) 0.2864(13) 0.1621(11)
H28 H 0.5840 0.2582 0.1162
H29 H 0.5997 0.3009 0.2086
C27 C 0.812(3) 0.2143(13) 0.1783(10)
H30 H 0.8856 0.1996 0.1317
H31 H 0.9023 0.2428 0.2240
C28 C 0.681(3) 0.0495(12) 0.1255(10)
H32 H 0.6134 -0.0087 0.1396
H33 H 0.8030 0.0339 0.1061
H34 H 0.6040 0.0733 0.0840
C29 C 0.869(4) 0.1738(15) 0.7110(12)
H35 H 0.9652 0.1969 0.7560
H36 H 0.9273 0.1838 0.6615
C30 C 0.704(3) 0.2287(15) 0.7193(12)
H37 H 0.7433 0.2974 0.7196
H38 H 0.6493 0.2201 0.7690
H39 H 0.6094 0.2055 0.6747
Cl1 Cl 0.6932(7) 0.6988(3) 0.4492(2)
O7 O 0.641(2) 0.6406(9) 0.3745(7)
O8 O 0.5568(17) 0.7656(8) 0.4641(7)
O9 O 0.692(3) 0.6384(11) 0.5094(9)
O10 O 0.8793(19) 0.7504(10) 0.4474(9)
Cl2 Cl 0.6557(7) 0.7444(3) 0.0705(3)
O11 O 0.802(3) 0.7751(11) 0.0227(11)
O12 O 0.612(2) 0.6418(10) 0.0523(10)
O13 O 0.728(3) 0.7679(13) 0.1501(10)
O14 O 0.498(3) 0.7930(14) 0.0594(12)
loop_
_geom_bond_atom_site_label_1
_geom_bond_atom_site_label_2
_geom_bond_site_symmetry_1
_geom_bond_site_symmetry_2
Li1 O1 1_555 1_555
O2 C14 1_555 1_555
O3 Li1 1_555 1_555
O4 Li1 1_555 1_555
O5 Li1 1_555 1_555
O6 Li1 1_555 1_555
N1 C1 1_555 1_555
N2 C15 1_555 1_555
C1 C2 1_555 1_555
C2 H1 1_555 1_555
C3 C2 1_555 1_555
H2 C3 1_555 1_555
C4 C3 1_555 1_555
C5 C4 1_555 1_555
H3 C5 1_555 1_555
C6 C5 1_555 1_555
H4 C6 1_555 1_555
C7 C6 1_555 1_555
H5 C7 1_555 1_555
C8 C7 1_555 1_555
H6 C8 1_555 1_555
C9 N1 1_555 1_555
C10 C1 1_555 1_555
H7 C10 1_555 1_555
C11 C10 1_555 1_555
H8 C11 1_555 1_555
C12 C11 1_555 1_555
C13 C12 1_555 1_555
H9 C13 1_555 1_555
C14 C13 1_555 1_555
C15 C14 1_555 1_555
C16 C15 1_555 1_555
H10 C16 1_555 1_555
C17 C12 1_555 1_555
H11 C17 1_555 1_555
C18 O2 1_555 1_555
H12 C18 1_555 1_555
H13 C18 1_555 1_555
C19 O3 1_555 1_555
H14 C19 1_555 1_555
H15 C19 1_555 1_555
C20 O3 1_555 1_555
H16 C20 1_555 1_555
H17 C20 1_555 1_555
C21 O4 1_555 1_555
H18 C21 1_555 1_555
H19 C21 1_555 1_555
C22 O4 1_555 1_555
H20 C22 1_555 1_555
H21 C22 1_555 1_555
C23 O5 1_555 1_555
H22 C23 1_555 1_555
H23 C23 1_555 1_555
C24 O5 1_555 1_555
H24 C24 1_555 1_555
H25 C24 1_555 1_555
C25 O6 1_555 1_555
H26 C25 1_555 1_555
H27 C25 1_555 1_555
C26 O6 1_555 1_555
H28 C26 1_555 1_555
H29 C26 1_555 1_555
C27 N2 1_555 1_555
H30 C27 1_555 1_555
H31 C27 1_555 1_555
C28 N2 1_555 1_555
H32 C28 1_555 1_555
H33 C28 1_555 1_555
H34 C28 1_555 1_555
C29 N1 1_555 1_555
H35 C29 1_555 1_555
H36 C29 1_555 1_555
C30 C29 1_555 1_555
H37 C30 1_555 1_555
H38 C30 1_555 1_555
H39 C30 1_555 1_555
Cl1 O7 1_555 1_555
O8 Cl1 1_555 1_555
O9 Cl1 1_555 1_555
O10 Cl1 1_555 1_555
Cl2 O11 1_555 1_555
O12 Cl2 1_555 1_555
O13 Cl2 1_555 1_555
O14 Cl2 1_555 1_555
C4 C9 1_555 1_555
C8 C9 1_555 1_555
C16 C17 1_555 1_555
C18 C19 1_555 1_555
C20 C21 1_555 1_555
C22 C23 1_555 1_555
C24 C25 1_555 1_555
C26 C27 1_555 1_555

#END
