
#######################################################################
#
#                 Cambridge Crystallographic Data Centre
#                                CCDC 
#
#######################################################################
#
# If this CIF has been generated from an entry in the Cambridge 
# Structural Database, then it will include bibliographic, chemical, 
# crystal, experimental, refinement or atomic coordinate data resulting 
# from the CCDC's data processing and validation procedures.
#
#######################################################################

data_WIPBEE
_chemical_formula_moiety         'C28 H35 N2 O4 1+,Cl1 O4 1-'
_chemical_name_systematic        
'1-Ethyl-2-(2-(13-methyl-2,3,5,6,8,9,12,13-octahydro-11H-1,4,7,10,13-benzotetraoxazacyclopentadecin-16-yl)vinyl)quinolinium perchlorate'
_symmetry_cell_setting           monoclinic
_symmetry_space_group_name_H-M   'P 21/n'
_symmetry_Int_Tables_number      14
_space_group_name_Hall           '-P 2yn'
loop_
_symmetry_equiv_pos_site_id
_symmetry_equiv_pos_as_xyz
1 x,y,z
2 1/2-x,1/2+y,1/2-z
3 -x,-y,-z
4 1/2+x,1/2-y,1/2+z
_cell_length_a                   10.5263(12)
_cell_length_b                   8.2120(10)
_cell_length_c                   31.305(4)
_cell_angle_alpha                90
_cell_angle_beta                 97.253(2)
_cell_angle_gamma                90
_cell_volume                     2684.41
_exptl_crystal_colour            'dark red'
_exptl_crystal_description       block
_cell_formula_units_Z            4
loop_
_atom_site_label
_atom_site_type_symbol
_atom_site_fract_x
_atom_site_fract_y
_atom_site_fract_z
Cl1 Cl 0.87980(7) 0.65005(9) 0.56927(3)
O1 O 0.7667(4) 0.5518(5) 0.57028(13)
O2 O 0.9832(6) 0.5412(8) 0.5576(3)
O3 O 0.8673(9) 0.7740(12) 0.5357(3)
O4 O 0.9216(8) 0.7186(12) 0.6095(2)
O5 O 0.55939(17) 0.6151(2) 0.67420(6)
O6 O 0.80944(17) 0.5843(2) 0.72916(6)
O7 O 0.76542(19) 0.5957(2) 0.82073(6)
O8 O 0.4924(2) 0.6299(2) 0.80077(6)
N1 N 0.6741(2) 0.2027(2) 0.47110(7)
N2 N 0.3140(2) 0.6160(3) 0.69280(7)
C1 C 0.6938(3) 0.1178(3) 0.43379(8)
C2 C 0.8163(3) 0.0963(4) 0.42158(10)
C3 C 0.8306(4) 0.0173(4) 0.38413(11)
C4 C 0.7257(4) -0.0439(4) 0.35727(11)
C5 C 0.6063(4) -0.0274(4) 0.36887(10)
C6 C 0.5869(3) 0.0531(3) 0.40760(9)
C7 C 0.4654(3) 0.0694(3) 0.42119(10)
C8 C 0.4507(3) 0.1452(3) 0.45854(9)
C9 C 0.5566(3) 0.2165(3) 0.48434(8)
C10 C 0.5412(3) 0.2979(3) 0.52424(9)
C11 C 0.4257(3) 0.3352(3) 0.53649(9)
C12 C 0.4004(2) 0.4134(3) 0.57571(8)
C13 C 0.2748(3) 0.4243(4) 0.58485(10)
C14 C 0.2463(3) 0.4894(3) 0.62302(10)
C15 C 0.3412(3) 0.5475(3) 0.65412(9)
C16 C 0.4699(2) 0.5449(3) 0.64413(9)
C17 C 0.4974(3) 0.4792(3) 0.60616(9)
C18 C 0.1801(3) 0.6500(5) 0.69674(13)
C19 C 0.6853(3) 0.6424(4) 0.66235(10)
C20 C 0.7688(3) 0.7112(4) 0.69960(10)
C21 C 0.8946(3) 0.6382(4) 0.76481(10)
C22 C 0.8297(3) 0.7172(3) 0.79953(10)
C23 C 0.6840(3) 0.6560(4) 0.84984(10)
C24 C 0.5652(3) 0.7410(4) 0.82852(11)
C25 C 0.4385(3) 0.6960(4) 0.76175(10)
C26 C 0.3851(3) 0.5578(3) 0.73317(10)
C27 C 0.7873(3) 0.2822(4) 0.49602(9)
C28 C 0.8568(3) 0.1691(5) 0.52892(11)
H1 H 0.888(3) 0.131(4) 0.4375(9)
H2 H 0.907(3) -0.003(4) 0.3756(11)
H3 H 0.741(3) -0.101(4) 0.3295(12)
H4 H 0.527(3) -0.068(4) 0.3536(10)
H5 H 0.392(3) 0.022(3) 0.4043(8)
H6 H 0.369(3) 0.154(3) 0.4692(9)
H7 H 0.617(3) 0.335(3) 0.5442(9)
H8 H 0.349(3) 0.313(3) 0.5181(9)
H9 H 0.207(3) 0.380(3) 0.5640(8)
H10 H 0.155(3) 0.496(4) 0.6261(9)
H11 H 0.575(3) 0.482(3) 0.6002(8)
H12 H 0.145(3) 0.708(4) 0.6735(10)
H13 H 0.177(3) 0.716(4) 0.7242(11)
H14 H 0.125(3) 0.544(4) 0.6983(9)
H15 H 0.684(3) 0.717(4) 0.6395(10)
H16 H 0.722(2) 0.546(3) 0.6527(8)
H17 H 0.842(3) 0.759(3) 0.6915(8)
H18 H 0.720(3) 0.797(3) 0.7129(9)
H19 H 0.952(3) 0.706(3) 0.7555(9)
H20 H 0.943(3) 0.544(4) 0.7769(9)
H21 H 0.890(3) 0.766(3) 0.8196(9)
H22 H 0.775(2) 0.800(3) 0.7874(8)
H23 H 0.734(2) 0.731(3) 0.8712(8)
H24 H 0.659(3) 0.573(4) 0.8645(10)
H25 H 0.514(3) 0.780(4) 0.8505(11)
H26 H 0.584(3) 0.838(3) 0.8099(9)
H27 H 0.509(3) 0.763(4) 0.7485(10)
H28 H 0.357(3) 0.761(4) 0.7665(9)
H29 H 0.462(3) 0.484(3) 0.7279(8)
H30 H 0.326(3) 0.494(4) 0.7506(9)
H31 H 0.757(2) 0.380(3) 0.5091(8)
H32 H 0.841(2) 0.320(3) 0.4756(8)
H33 H 0.930(3) 0.221(4) 0.5439(11)
H34 H 0.889(3) 0.078(4) 0.5169(9)
H35 H 0.803(3) 0.126(4) 0.5503(10)
O9? O 0.9818(7) 0.5549(8) 0.5781(2)
O10? O 0.8825(6) 0.7205(8) 0.52385(18)
O11? O 0.8784(5) 0.7902(7) 0.5966(2)
O12? O 0.7520(5) 0.5884(7) 0.56009(17)
O13? O 0.9600(9) 0.6098(11) 0.5412(3)
O14? O 0.8610(8) 0.8184(10) 0.5763(3)
O15? O 0.9363(9) 0.5933(12) 0.6150(3)
loop_
_geom_bond_atom_site_label_1
_geom_bond_atom_site_label_2
_geom_bond_site_symmetry_1
_geom_bond_site_symmetry_2
Cl1 O1 1_555 1_555
O2 Cl1 1_555 1_555
O3 Cl1 1_555 1_555
O4 Cl1 1_555 1_555
O5 C16 1_555 1_555
O6 C20 1_555 1_555
O7 C22 1_555 1_555
O8 C24 1_555 1_555
N1 C1 1_555 1_555
N2 C15 1_555 1_555
C1 C2 1_555 1_555
C2 C3 1_555 1_555
C3 C4 1_555 1_555
C4 C5 1_555 1_555
C5 C6 1_555 1_555
C6 C1 1_555 1_555
C7 C6 1_555 1_555
C8 C7 1_555 1_555
C9 N1 1_555 1_555
C10 C9 1_555 1_555
C11 C10 1_555 1_555
C12 C11 1_555 1_555
C13 C12 1_555 1_555
C14 C13 1_555 1_555
C15 C14 1_555 1_555
C16 C15 1_555 1_555
C17 C12 1_555 1_555
C18 N2 1_555 1_555
C19 O5 1_555 1_555
C20 C19 1_555 1_555
C21 O6 1_555 1_555
C22 C21 1_555 1_555
C23 O7 1_555 1_555
C24 C23 1_555 1_555
C25 O8 1_555 1_555
C26 N2 1_555 1_555
C27 N1 1_555 1_555
C28 C27 1_555 1_555
H1 C2 1_555 1_555
H2 C3 1_555 1_555
H3 C4 1_555 1_555
H4 C5 1_555 1_555
H5 C7 1_555 1_555
H6 C8 1_555 1_555
H7 C10 1_555 1_555
H8 C11 1_555 1_555
H9 C13 1_555 1_555
H10 C14 1_555 1_555
H11 C17 1_555 1_555
H12 C18 1_555 1_555
H13 C18 1_555 1_555
H14 C18 1_555 1_555
H15 C19 1_555 1_555
H16 C19 1_555 1_555
H17 C20 1_555 1_555
H18 C20 1_555 1_555
H19 C21 1_555 1_555
H20 C21 1_555 1_555
H21 C22 1_555 1_555
H22 C22 1_555 1_555
H23 C23 1_555 1_555
H24 C23 1_555 1_555
H25 C24 1_555 1_555
H26 C24 1_555 1_555
H27 C25 1_555 1_555
H28 C25 1_555 1_555
H29 C26 1_555 1_555
H30 C26 1_555 1_555
H31 C27 1_555 1_555
H32 C27 1_555 1_555
H33 C28 1_555 1_555
H34 C28 1_555 1_555
H35 C28 1_555 1_555
C8 C9 1_555 1_555
C16 C17 1_555 1_555
C25 C26 1_555 1_555

#END
