
#######################################################################
#
#                 Cambridge Crystallographic Data Centre
#                                CCDC 
#
#######################################################################
#
# If this CIF has been generated from an entry in the Cambridge 
# Structural Database, then it will include bibliographic, chemical, 
# crystal, experimental, refinement or atomic coordinate data resulting 
# from the CCDC's data processing and validation procedures.
#
#######################################################################

data_WIPDEG
_chemical_formula_moiety         'C21 H24 Br1 N2 O3 1+,Cl1 1-'
_chemical_name_systematic        
'1-Benzyl-4-(3-(3-bromo-4-hydroxy-5-methoxyphenyl)acryloyl)piperazine hydrochloride'
_symmetry_cell_setting           monoclinic
_symmetry_space_group_name_H-M   'P 21/c'
_symmetry_Int_Tables_number      14
_space_group_name_Hall           '-P 2ybc'
loop_
_symmetry_equiv_pos_site_id
_symmetry_equiv_pos_as_xyz
1 x,y,z
2 -x,1/2+y,1/2-z
3 -x,-y,-z
4 x,1/2-y,1/2+z
_cell_length_a                   6.4698(13)
_cell_length_b                   14.136(3)
_cell_length_c                   22.981(5)
_cell_angle_alpha                90
_cell_angle_beta                 95.99(3)
_cell_angle_gamma                90
_cell_volume                     2090.3
_exptl_crystal_colour            colorless
_exptl_crystal_description       Needle
_cell_formula_units_Z            4
loop_
_atom_site_label
_atom_site_type_symbol
_atom_site_fract_x
_atom_site_fract_y
_atom_site_fract_z
Cl1 Cl -1.2348(2) 0.48300(11) 0.07632(7)
N1 N -0.7262(7) 0.5691(3) 0.1919(2)
N2 N -0.8969(7) 0.6366(3) 0.0797(2)
C1 C -0.9118(9) 0.6946(4) 0.1333(3)
H1 H -1.0397 0.7309 0.1290
H2 H -0.7962 0.7386 0.1383
C2 C -0.9082(10) 0.6311(4) 0.1866(3)
H3 H -0.9067 0.6699 0.2214
H4 H -1.0333 0.5929 0.1836
C3 C -0.7155(10) 0.5103(4) 0.1397(3)
H5 H -0.8360 0.4692 0.1342
H6 H -0.5919 0.4710 0.1446
C4 C -0.7089(9) 0.5737(4) 0.0872(3)
H7 H -0.5843 0.6122 0.0920
H8 H -0.7038 0.5353 0.0524
C5 C -0.8837(10) 0.6970(5) 0.0259(3)
H9 H -0.7741 0.7433 0.0347
H10 H -0.8430 0.6568 -0.0051
C6 C -1.0763(11) 0.8456(5) -0.0025(3)
H11 H -0.9622 0.8801 0.0137
C7 C -1.2434(15) 0.8924(5) -0.0323(4)
H12 H -1.2399 0.9577 -0.0366
C8 C -1.4132(12) 0.8424(6) -0.0552(3)
H13 H -1.5244 0.8743 -0.0753
C9 C -1.4227(11) 0.7471(6) -0.0493(3)
H14 H -1.5397 0.7139 -0.0649
C10 C -1.2541(11) 0.6994(5) -0.0193(3)
H15 H -1.2606 0.6342 -0.0145
C11 C -0.5806(9) 0.5741(4) 0.2387(3)
O1 O -0.5963(7) 0.6319(3) 0.27880(18)
C12 C -0.4051(10) 0.5084(4) 0.2394(3)
H16 H -0.4031 0.4650 0.2091
C13 C -0.2481(9) 0.5083(4) 0.2820(2)
H17 H -0.2543 0.5508 0.3127
C14 C -0.0680(9) 0.4465(4) 0.2837(2)
C15 C -1.0768(10) 0.7483(4) 0.0035(2)
C16 C 0.2615(10) 0.3930(4) 0.3305(3)
Br1 Br 0.46972(12) 0.39812(5) 0.39507(3)
C17 C 0.2890(9) 0.3318(4) 0.2853(3)
O2 O 0.4632(7) 0.2782(3) 0.2873(2)
H18 H 0.4513 0.2396 0.2605
C18 C 0.1327(9) 0.3268(4) 0.2393(2)
O3 O 0.1701(7) 0.2625(3) 0.1971(2)
C19 C -0.0418(10) 0.3818(4) 0.2381(3)
H19 H -0.1447 0.3766 0.2069
C20 C 0.0070(10) 0.2438(5) 0.1520(3)
H20 H 0.0527 0.1977 0.1255
H21 H -0.0300 0.3012 0.1312
H22 H -0.1118 0.2199 0.1691
C21 C 0.0870(9) 0.4512(4) 0.3302(2)
H23 H 0.0747 0.4929 0.3609
loop_
_geom_bond_atom_site_label_1
_geom_bond_atom_site_label_2
_geom_bond_site_symmetry_1
_geom_bond_site_symmetry_2
N1 C2 1_555 1_555
N2 C1 1_555 1_555
C1 H1 1_555 1_555
H2 C1 1_555 1_555
C2 C1 1_555 1_555
H3 C2 1_555 1_555
H4 C2 1_555 1_555
C3 N1 1_555 1_555
H5 C3 1_555 1_555
H6 C3 1_555 1_555
C4 N2 1_555 1_555
H7 C4 1_555 1_555
H8 C4 1_555 1_555
C5 N2 1_555 1_555
H9 C5 1_555 1_555
H10 C5 1_555 1_555
C6 H11 1_555 1_555
C7 C6 1_555 1_555
H12 C7 1_555 1_555
C8 C7 1_555 1_555
H13 C8 1_555 1_555
C9 C8 1_555 1_555
H14 C9 1_555 1_555
C10 C9 1_555 1_555
H15 C10 1_555 1_555
C11 N1 1_555 1_555
O1 C11 1_555 1_555
C12 C11 1_555 1_555
H16 C12 1_555 1_555
C13 C12 1_555 1_555
H17 C13 1_555 1_555
C14 C13 1_555 1_555
C15 C5 1_555 1_555
C16 Br1 1_555 1_555
C17 C16 1_555 1_555
O2 C17 1_555 1_555
H18 O2 1_555 1_555
C18 C17 1_555 1_555
O3 C18 1_555 1_555
C19 C14 1_555 1_555
H19 C19 1_555 1_555
C20 O3 1_555 1_555
H20 C20 1_555 1_555
H21 C20 1_555 1_555
H22 C20 1_555 1_555
C21 C14 1_555 1_555
H23 C21 1_555 1_555
C3 C4 1_555 1_555
C6 C15 1_555 1_555
C10 C15 1_555 1_555
C16 C21 1_555 1_555
C18 C19 1_555 1_555

#END
