
#######################################################################
#
#                 Cambridge Crystallographic Data Centre
#                                CCDC 
#
#######################################################################
#
# If this CIF has been generated from an entry in the Cambridge 
# Structural Database, then it will include bibliographic, chemical, 
# crystal, experimental, refinement or atomic coordinate data resulting 
# from the CCDC's data processing and validation procedures.
#
#######################################################################

data_WIPDEH
_chemical_formula_moiety         'C32 H27 N1 O5 S1'
_chemical_name_systematic        
'benzyl [(4-methylphenyl)sulfonyl][(4-oxo-2,3-diphenylcyclobut-2-en-1-yl)methyl]carbamate'
_symmetry_cell_setting           triclinic
_symmetry_space_group_name_H-M   'P -1'
_symmetry_Int_Tables_number      2
_space_group_name_Hall           '-P 1'
loop_
_symmetry_equiv_pos_site_id
_symmetry_equiv_pos_as_xyz
1 x,y,z
2 -x,-y,-z
_cell_length_a                   8.9899(3)
_cell_length_b                   11.9289(4)
_cell_length_c                   13.6822(5)
_cell_angle_alpha                68.6950(10)
_cell_angle_beta                 74.9310(10)
_cell_angle_gamma                81.0700(10)
_cell_volume                     1316.98
_exptl_crystal_colour            colorless
_exptl_crystal_description       block
_cell_formula_units_Z            2
loop_
_atom_site_label
_atom_site_type_symbol
_atom_site_fract_x
_atom_site_fract_y
_atom_site_fract_z
C1 C 0.69814(16) 0.50020(12) 0.43157(11)
H1 H 0.5936 0.5259 0.4194
N1 N 0.75769(14) 0.45152(10) 0.26027(9)
O1 O 0.62415(13) 0.62881(9) 0.21116(8)
S1 S 0.82756(4) 0.31757(3) 0.24710(3)
C2 C 0.70094(16) 0.39309(13) 0.53863(11)
O2 O 0.64523(13) 0.50425(9) 0.11558(8)
C3 C 0.74801(16) 0.47328(12) 0.58485(11)
O3 O 0.67322(13) 0.28855(9) 0.56961(8)
C4 C 0.74795(16) 0.56942(12) 0.49153(11)
O4 O 0.91425(12) 0.33498(10) 0.13996(8)
C5 C 0.77617(16) 0.45377(13) 0.69103(11)
O5 O 0.90200(13) 0.25866(9) 0.33488(9)
C6 C 0.84808(17) 0.34530(13) 0.74602(11)
H2 H 0.8744 0.2837 0.7169
C7 C 0.88045(19) 0.32924(14) 0.84443(12)
H3 H 0.9304 0.2574 0.8802
C8 C 0.8388(2) 0.41935(16) 0.88954(12)
H4 H 0.8620 0.4086 0.9549
C9 C 0.7625(2) 0.52549(16) 0.83701(13)
H5 H 0.7318 0.5852 0.8683
C10 C 0.73169(19) 0.54336(14) 0.73834(12)
H6 H 0.6812 0.6152 0.7033
C11 C 0.79056(16) 0.69394(12) 0.44980(11)
C12 C 0.89363(17) 0.73046(13) 0.49190(12)
H7 H 0.9304 0.6760 0.5504
C13 C 0.94114(18) 0.84674(14) 0.44726(12)
H8 H 1.0113 0.8696 0.4748
C14 C 0.88432(19) 0.92931(14) 0.36162(13)
H9 H 0.9155 1.0077 0.3322
C15 C 0.7810(2) 0.89484(14) 0.31992(13)
H10 H 0.7421 0.9506 0.2629
C16 C 0.73533(18) 0.77792(13) 0.36268(12)
H11 H 0.6676 0.7551 0.3333
C17 C 0.81587(16) 0.49661(13) 0.32980(11)
H12 H 0.8490 0.5773 0.2886
H13 H 0.9056 0.4456 0.3502
C18 C 0.67244(17) 0.52751(12) 0.18723(11)
C19 C 0.54497(19) 0.72430(14) 0.13668(13)
H14 H 0.4572 0.7599 0.1766
H15 H 0.5073 0.6911 0.0933
C20 C 0.65526(18) 0.81908(13) 0.06529(12)
C21 C 0.6332(2) 0.93300(14) 0.07382(14)
H16 H 0.5504 0.9502 0.1245
C22 C 0.7331(2) 1.02144(15) 0.00779(15)
H17 H 0.7158 1.0981 0.0132
C23 C 0.8579(2) 0.99621(15) -0.06586(14)
H18 H 0.9251 1.0556 -0.1101
C24 C 0.8829(2) 0.88263(16) -0.07384(14)
H19 H 0.9681 0.8650 -0.1228
C25 C 0.7819(2) 0.79477(14) -0.00921(13)
H20 H 0.7988 0.7186 -0.0157
C26 C 0.66176(17) 0.24265(12) 0.26977(11)
C27 C 0.61609(18) 0.23353(13) 0.18343(12)
H21 H 0.6701 0.2696 0.1133
C28 C 0.48891(19) 0.16979(14) 0.20385(13)
H22 H 0.4578 0.1631 0.1466
C29 C 0.40651(18) 0.11545(14) 0.30828(13)
C30 C 0.45346(18) 0.12831(14) 0.39295(12)
H23 H 0.3982 0.0939 0.4630
C31 C 0.58054(18) 0.19116(13) 0.37472(12)
H24 H 0.6111 0.1988 0.4318
C32 C 0.2693(2) 0.04502(18) 0.32969(17)
H25 H 0.1768 0.0972 0.3326
H26 H 0.2630 -0.0199 0.3971
H27 H 0.2806 0.0128 0.2730
loop_
_geom_bond_atom_site_label_1
_geom_bond_atom_site_label_2
_geom_bond_site_symmetry_1
_geom_bond_site_symmetry_2
C1 H1 1_555 1_555
N1 S1 1_555 1_555
O1 C18 1_555 1_555
S1 O4 1_555 1_555
C2 C1 1_555 1_555
O2 C18 1_555 1_555
C3 C2 1_555 1_555
O3 C2 1_555 1_555
C4 C1 1_555 1_555
C5 C3 1_555 1_555
O5 S1 1_555 1_555
C6 C5 1_555 1_555
H2 C6 1_555 1_555
C7 C6 1_555 1_555
H3 C7 1_555 1_555
C8 C7 1_555 1_555
H4 C8 1_555 1_555
C9 C8 1_555 1_555
H5 C9 1_555 1_555
C10 C5 1_555 1_555
H6 C10 1_555 1_555
C11 C4 1_555 1_555
C12 C11 1_555 1_555
H7 C12 1_555 1_555
C13 C12 1_555 1_555
H8 C13 1_555 1_555
C14 C13 1_555 1_555
H9 C14 1_555 1_555
C15 C14 1_555 1_555
H10 C15 1_555 1_555
C16 C11 1_555 1_555
H11 C16 1_555 1_555
C17 C1 1_555 1_555
H12 C17 1_555 1_555
H13 C17 1_555 1_555
C18 N1 1_555 1_555
C19 O1 1_555 1_555
H14 C19 1_555 1_555
H15 C19 1_555 1_555
C20 C19 1_555 1_555
C21 C20 1_555 1_555
H16 C21 1_555 1_555
C22 C21 1_555 1_555
H17 C22 1_555 1_555
C23 C22 1_555 1_555
H18 C23 1_555 1_555
C24 C23 1_555 1_555
H19 C24 1_555 1_555
C25 C20 1_555 1_555
H20 C25 1_555 1_555
C26 S1 1_555 1_555
C27 C26 1_555 1_555
H21 C27 1_555 1_555
C28 C27 1_555 1_555
H22 C28 1_555 1_555
C29 C28 1_555 1_555
C30 C29 1_555 1_555
H23 C30 1_555 1_555
C31 C26 1_555 1_555
H24 C31 1_555 1_555
C32 C29 1_555 1_555
H25 C32 1_555 1_555
H26 C32 1_555 1_555
H27 C32 1_555 1_555
N1 C17 1_555 1_555
C3 C4 1_555 1_555
C9 C10 1_555 1_555
C15 C16 1_555 1_555
C24 C25 1_555 1_555
C30 C31 1_555 1_555

#END
