
#######################################################################
#
#                 Cambridge Crystallographic Data Centre
#                                CCDC 
#
#######################################################################
#
# If this CIF has been generated from an entry in the Cambridge 
# Structural Database, then it will include bibliographic, chemical, 
# crystal, experimental, refinement or atomic coordinate data resulting 
# from the CCDC's data processing and validation procedures.
#
#######################################################################

data_WIPFOT
_chemical_formula_moiety         'C26 H22 N2 O3 S1'
_chemical_name_systematic        
N-(cyanomethyl)-4-methyl-N-[(4-oxo-2,3-diphenylcyclobut-2-en-1-yl)methyl]benzene-1-sulfonamide
_symmetry_cell_setting           monoclinic
_symmetry_space_group_name_H-M   'P 21/n'
_symmetry_Int_Tables_number      14
_space_group_name_Hall           '-P 2yn'
loop_
_symmetry_equiv_pos_site_id
_symmetry_equiv_pos_as_xyz
1 x,y,z
2 1/2-x,1/2+y,1/2-z
3 -x,-y,-z
4 1/2+x,1/2-y,1/2+z
_cell_length_a                   15.0294(13)
_cell_length_b                   8.9261(7)
_cell_length_c                   16.282(2)
_cell_angle_alpha                90
_cell_angle_beta                 93.011(9)
_cell_angle_gamma                90
_cell_volume                     2181.28
_exptl_crystal_colour            colorless
_exptl_crystal_description       block
_cell_formula_units_Z            4
loop_
_atom_site_label
_atom_site_type_symbol
_atom_site_fract_x
_atom_site_fract_y
_atom_site_fract_z
S1 S 0.45100(2) 0.41232(4) 0.79238(2)
C1 C 0.47393(10) 0.31891(17) 0.58809(9)
H1 H 0.445415 0.418701 0.596123
N1 N 0.52493(8) 0.33100(15) 0.73692(8)
O1 O 0.62427(8) 0.38111(17) 0.53372(8)
O2 O 0.37443(8) 0.44964(14) 0.74027(7)
N2 N 0.73164(12) 0.1750(3) 0.74704(14)
C2 C 0.42853(10) 0.23002(17) 0.51708(9)
O3 O 0.49783(8) 0.52556(12) 0.83966(7)
C3 C 0.49784(10) 0.24097(17) 0.46588(9)
C4 C 0.44951(10) 0.20195(18) 0.31872(10)
H2 H 0.391198 0.234058 0.330226
C5 C 0.51639(10) 0.19787(16) 0.38159(9)
C6 C 0.55110(10) 0.32640(18) 0.52862(9)
C7 C 0.55300(11) 0.11245(18) 0.22233(9)
H3 H 0.565008 0.080948 0.168296
C8 C 0.46802(11) 0.15931(19) 0.23970(9)
H4 H 0.422318 0.162151 0.197147
C9 C 0.62036(11) 0.11157(17) 0.28378(10)
H5 H 0.678779 0.080943 0.271682
C10 C 0.60243(10) 0.15552(17) 0.36314(9)
H6 H 0.648943 0.156711 0.404962
C11 C 0.34041(9) 0.16243(17) 0.51424(9)
C12 C 0.28119(10) 0.20228(18) 0.57405(10)
H7 H 0.299159 0.271960 0.615799
C13 C 0.19651(11) 0.1407(2) 0.57274(11)
H8 H 0.156420 0.169008 0.613202
C14 C 0.17028(11) 0.0381(2) 0.51258(11)
H9 H 0.111846 -0.002731 0.511350
C15 C 0.22875(12) -0.0054(2) 0.45415(10)
H10 H 0.210803 -0.077518 0.413678
C16 C 0.31360(11) 0.05617(19) 0.45463(10)
H11 H 0.353583 0.026179 0.414438
C17 C 0.49150(9) 0.23456(17) 0.66881(9)
H12 H 0.435515 0.186249 0.684320
H13 H 0.535576 0.154341 0.660336
C18 C 0.61462(10) 0.39156(19) 0.73374(10)
H14 H 0.625342 0.465490 0.778491
H15 H 0.620958 0.443427 0.680622
C19 C 0.68066(11) 0.2695(2) 0.74271(11)
C20 C 0.41699(9) 0.27541(16) 0.86191(9)
C21 C 0.47170(10) 0.24709(17) 0.93157(9)
H16 H 0.529544 0.290006 0.937151
C22 C 0.44142(10) 0.15635(18) 0.99244(9)
H17 H 0.478661 0.138461 1.040392
C23 C 0.35731(10) 0.08996(17) 0.98543(9)
C24 C 0.30455(10) 0.11613(18) 0.91401(10)
H18 H 0.247738 0.069752 0.907352
C25 C 0.33351(10) 0.20879(18) 0.85238(9)
H19 H 0.296638 0.226481 0.804166
C26 C 0.32445(12) -0.0041(2) 1.05421(10)
H20 H 0.284616 -0.082326 1.031383
H21 H 0.292007 0.059336 1.091597
H22 H 0.375311 -0.050706 1.084471
loop_
_geom_bond_atom_site_label_1
_geom_bond_atom_site_label_2
_geom_bond_site_symmetry_1
_geom_bond_site_symmetry_2
S1 N1 1_555 1_555
C1 H1 1_555 1_555
N1 C17 1_555 1_555
O1 C6 1_555 1_555
O2 S1 1_555 1_555
N2 C19 1_555 1_555
C2 C1 1_555 1_555
O3 S1 1_555 1_555
C3 C2 1_555 1_555
C4 H2 1_555 1_555
C5 C3 1_555 1_555
C6 C1 1_555 1_555
C7 H3 1_555 1_555
C8 C4 1_555 1_555
H4 C8 1_555 1_555
C9 C7 1_555 1_555
H5 C9 1_555 1_555
C10 C5 1_555 1_555
H6 C10 1_555 1_555
C11 C2 1_555 1_555
C12 C11 1_555 1_555
H7 C12 1_555 1_555
C13 C12 1_555 1_555
H8 C13 1_555 1_555
C14 C13 1_555 1_555
H9 C14 1_555 1_555
C15 C14 1_555 1_555
H10 C15 1_555 1_555
C16 C11 1_555 1_555
H11 C16 1_555 1_555
C17 C1 1_555 1_555
H12 C17 1_555 1_555
H13 C17 1_555 1_555
C18 N1 1_555 1_555
H14 C18 1_555 1_555
H15 C18 1_555 1_555
C19 C18 1_555 1_555
C20 S1 1_555 1_555
C21 C20 1_555 1_555
H16 C21 1_555 1_555
C22 C21 1_555 1_555
H17 C22 1_555 1_555
C23 C22 1_555 1_555
C24 C23 1_555 1_555
H18 C24 1_555 1_555
C25 C20 1_555 1_555
H19 C25 1_555 1_555
C26 C23 1_555 1_555
H20 C26 1_555 1_555
H21 C26 1_555 1_555
H22 C26 1_555 1_555
C3 C6 1_555 1_555
C4 C5 1_555 1_555
C7 C8 1_555 1_555
C9 C10 1_555 1_555
C15 C16 1_555 1_555
C24 C25 1_555 1_555

#END
