
#######################################################################
#
#                 Cambridge Crystallographic Data Centre
#                                CCDC 
#
#######################################################################
#
# If this CIF has been generated from an entry in the Cambridge 
# Structural Database, then it will include bibliographic, chemical, 
# crystal, experimental, refinement or atomic coordinate data resulting 
# from the CCDC's data processing and validation procedures.
#
#######################################################################

data_WIPGEK
_chemical_formula_moiety         'C17 H14 F3 N3 O2'
_chemical_name_systematic        
1-(1-benzyl-5-phenyl-1H-1,2,3-triazol-4-yl)-2,2,2-trifluoroethane-1,1-diol
_symmetry_cell_setting           monoclinic
_symmetry_space_group_name_H-M   'P 21/c'
_symmetry_Int_Tables_number      14
_space_group_name_Hall           '-P 2ybc'
loop_
_symmetry_equiv_pos_site_id
_symmetry_equiv_pos_as_xyz
1 x,y,z
2 -x,1/2+y,1/2-z
3 -x,-y,-z
4 x,1/2-y,1/2+z
_cell_length_a                   7.2701(2)
_cell_length_b                   17.7353(6)
_cell_length_c                   12.5132(4)
_cell_angle_alpha                90
_cell_angle_beta                 98.3290(10)
_cell_angle_gamma                90
_cell_volume                     1596.4
_exptl_crystal_colour            colorless
_exptl_crystal_description       prismatic
_cell_formula_units_Z            4
_exptl_crystal_recrystallization_method Sublimation
loop_
_atom_site_label
_atom_site_type_symbol
_atom_site_fract_x
_atom_site_fract_y
_atom_site_fract_z
N1 N 0.32241(14) 0.30196(6) 0.38440(8)
N2 N 0.26446(14) 0.36556(6) 0.42734(9)
N3 N 0.40407(14) 0.41343(6) 0.43606(9)
O1 O 0.77946(13) 0.46378(5) 0.49444(8)
O2 O 0.86919(13) 0.36607(5) 0.39909(9)
F1 F 0.60796(15) 0.52784(5) 0.30243(9)
F2 F 0.89712(14) 0.50301(6) 0.29959(8)
F3 F 0.68659(14) 0.43411(6) 0.21027(7)
C1 C 0.49990(16) 0.30841(7) 0.36434(10)
C2 C 0.54974(16) 0.38039(7) 0.39851(10)
C3 C 0.73368(17) 0.42087(7) 0.40222(11)
C4 C 0.7308(2) 0.47214(8) 0.30284(12)
C5 C 0.59839(16) 0.24742(7) 0.31563(10)
C6 C 0.6077(2) 0.24851(8) 0.20541(11)
H1 H 0.5497 0.2879 0.1614
C7 C 0.7026(2) 0.19156(9) 0.16029(13)
H2 H 0.7096 0.1922 0.0851
C8 C 0.7867(2) 0.13395(8) 0.22372(13)
H3 H 0.8508 0.0951 0.1921
C9 C 0.77772(19) 0.13293(7) 0.33297(13)
H4 H 0.8361 0.0934 0.3766
C10 C 0.68338(18) 0.18956(7) 0.37940(11)
H5 H 0.6770 0.1887 0.4547
C11 C 0.19617(18) 0.23679(7) 0.36479(11)
H6 H 0.2286 0.2080 0.3024
H7 H 0.0674 0.2555 0.3453
C12 C 0.20269(17) 0.18429(7) 0.46015(11)
C13 C 0.2883(2) 0.11443(8) 0.45979(13)
H8 H 0.3503 0.1007 0.4009
C14 C 0.2843(2) 0.06461(9) 0.54436(15)
H9 H 0.3452 0.0173 0.5438
C15 C 0.1922(2) 0.08341(9) 0.62945(14)
H10 H 0.1891 0.0490 0.6874
C16 C 0.1046(2) 0.15237(9) 0.63006(12)
H11 H 0.0396 0.1651 0.6881
C17 C 0.11086(19) 0.20313(8) 0.54637(11)
H12 H 0.0522 0.2509 0.5480
H13 H 0.688(3) 0.4977(11) 0.5048(14)
H14 H 0.981(3) 0.3859(11) 0.4162(15)
loop_
_geom_bond_atom_site_label_1
_geom_bond_atom_site_label_2
_geom_bond_site_symmetry_1
_geom_bond_site_symmetry_2
N1 N2 1_555 1_555
N2 N3 1_555 1_555
N3 C2 1_555 1_555
O1 C3 1_555 1_555
O2 C3 1_555 1_555
F1 C4 1_555 1_555
F2 C4 1_555 1_555
F3 C4 1_555 1_555
C1 N1 1_555 1_555
C2 C1 1_555 1_555
C3 C2 1_555 1_555
C4 C3 1_555 1_555
C5 C1 1_555 1_555
C6 C5 1_555 1_555
H1 C6 1_555 1_555
C7 C6 1_555 1_555
H2 C7 1_555 1_555
C8 C7 1_555 1_555
H3 C8 1_555 1_555
C9 C8 1_555 1_555
H4 C9 1_555 1_555
C10 C5 1_555 1_555
H5 C10 1_555 1_555
C11 N1 1_555 1_555
H6 C11 1_555 1_555
H7 C11 1_555 1_555
C12 C11 1_555 1_555
C13 C12 1_555 1_555
H8 C13 1_555 1_555
C14 C13 1_555 1_555
H9 C14 1_555 1_555
C15 C14 1_555 1_555
H10 C15 1_555 1_555
C16 C15 1_555 1_555
H11 C16 1_555 1_555
C17 C12 1_555 1_555
H12 C17 1_555 1_555
H13 O1 1_555 1_555
H14 O2 1_555 1_555
C9 C10 1_555 1_555
C16 C17 1_555 1_555

#END
