
#######################################################################
#
#                 Cambridge Crystallographic Data Centre
#                                CCDC 
#
#######################################################################
#
# If this CIF has been generated from an entry in the Cambridge 
# Structural Database, then it will include bibliographic, chemical, 
# crystal, experimental, refinement or atomic coordinate data resulting 
# from the CCDC's data processing and validation procedures.
#
#######################################################################

data_WIPGOU
_chemical_formula_moiety         'C19 H16 Br1 O3 P1'
_chemical_name_systematic        
5-bromo-2-(diphenylphosphoryl)-4-methoxyphenol
_symmetry_cell_setting           orthorhombic
_symmetry_space_group_name_H-M   'P b c a'
_symmetry_Int_Tables_number      61
_space_group_name_Hall           '-P 2ac 2ab'
loop_
_symmetry_equiv_pos_site_id
_symmetry_equiv_pos_as_xyz
1 x,y,z
2 1/2-x,-y,1/2+z
3 -x,1/2+y,1/2-z
4 1/2+x,1/2-y,-z
5 -x,-y,-z
6 1/2+x,y,1/2-z
7 x,1/2-y,1/2+z
8 1/2-x,1/2+y,z
_cell_length_a                   11.472(9)
_cell_length_b                   17.116(13)
_cell_length_c                   18.240(14)
_cell_angle_alpha                90
_cell_angle_beta                 90
_cell_angle_gamma                90
_cell_volume                     3581.51
_exptl_crystal_colour            white
_exptl_crystal_description       Block
_cell_formula_units_Z            8
loop_
_atom_site_label
_atom_site_type_symbol
_atom_site_fract_x
_atom_site_fract_y
_atom_site_fract_z
Br1 Br 0.14024(8) 0.05112(5) 0.27135(4)
C1 C 0.0850(5) 0.2565(4) 0.6328(3)
H1 H 0.0732 0.2967 0.5993
C2 C 0.0031(6) 0.2407(5) 0.6856(4)
H2 H -0.0653 0.2698 0.6873
C3 C 0.0212(8) 0.1831(5) 0.7352(4)
H3 H -0.0344 0.1738 0.7713
C4 C 0.1195(8) 0.1386(5) 0.7333(4)
H4 H 0.1308 0.0991 0.7675
C5 C 0.2015(6) 0.1526(4) 0.6804(3)
H5 H 0.2684 0.1221 0.6785
C6 C 0.1856(5) 0.2116(3) 0.6301(3)
C7 C 0.3192(4) 0.3290(3) 0.5517(3)
C8 C 0.3190(6) 0.3764(4) 0.6126(4)
H6 H 0.3049 0.3556 0.6589
C9 C 0.3398(7) 0.4550(4) 0.6042(6)
H7 H 0.3388 0.4875 0.6450
C10 C 0.3618(6) 0.4859(5) 0.5366(7)
H8 H 0.3755 0.5392 0.5313
C11 C 0.3638(6) 0.4382(4) 0.4771(5)
H9 H 0.3798 0.4591 0.4311
C12 C 0.3423(5) 0.3593(4) 0.4839(4)
H10 H 0.3434 0.3271 0.4429
C13 C 0.2592(4) 0.1837(3) 0.4793(3)
C14 C 0.3236(5) 0.1212(3) 0.4525(3)
H11 H 0.3893 0.1051 0.4783
C15 C 0.2941(5) 0.0825(3) 0.3900(3)
C16 C 0.1929(6) 0.1065(3) 0.3531(3)
C17 C 0.1303(5) 0.1696(3) 0.3768(3)
H12 H 0.0659 0.1863 0.3500
C18 C 0.1614(5) 0.2088(3) 0.4398(3)
C19 C 0.4455(7) -0.0096(4) 0.4017(4)
H13 H 0.4794 -0.0529 0.3758
H14 H 0.5032 0.0303 0.4085
H15 H 0.4178 -0.0270 0.4486
O1 O 0.4096(3) 0.18821(19) 0.59201(18)
O2 O 0.1040(3) 0.2716(2) 0.4660(2)
H16 H 0.0484 0.2815 0.4393
O3 O 0.3517(4) 0.0207(3) 0.3608(2)
P1 P 0.30020(12) 0.22613(8) 0.56447(7)
loop_
_geom_bond_atom_site_label_1
_geom_bond_atom_site_label_2
_geom_bond_site_symmetry_1
_geom_bond_site_symmetry_2
Br1 C16 1_555 1_555
C1 H1 1_555 1_555
C2 C1 1_555 1_555
H2 C2 1_555 1_555
C3 C2 1_555 1_555
H3 C3 1_555 1_555
C4 C3 1_555 1_555
H4 C4 1_555 1_555
C5 C4 1_555 1_555
H5 C5 1_555 1_555
C6 C1 1_555 1_555
C7 C8 1_555 1_555
C8 H6 1_555 1_555
C9 C8 1_555 1_555
H7 C9 1_555 1_555
C10 C9 1_555 1_555
H8 C10 1_555 1_555
C11 C10 1_555 1_555
H9 C11 1_555 1_555
C12 C7 1_555 1_555
H10 C12 1_555 1_555
C13 C14 1_555 1_555
C14 H11 1_555 1_555
C15 C14 1_555 1_555
C16 C15 1_555 1_555
C17 C16 1_555 1_555
H12 C17 1_555 1_555
C18 C13 1_555 1_555
C19 H13 1_555 1_555
H14 C19 1_555 1_555
H15 C19 1_555 1_555
O1 P1 1_555 1_555
O2 C18 1_555 1_555
H16 O2 1_555 1_555
O3 C15 1_555 1_555
P1 C6 1_555 1_555
C5 C6 1_555 1_555
C7 P1 1_555 1_555
C11 C12 1_555 1_555
C13 P1 1_555 1_555
C17 C18 1_555 1_555
C19 O3 1_555 1_555

#END
