
#######################################################################
#
#                 Cambridge Crystallographic Data Centre
#                                CCDC 
#
#######################################################################
#
# If this CIF has been generated from an entry in the Cambridge 
# Structural Database, then it will include bibliographic, chemical, 
# crystal, experimental, refinement or atomic coordinate data resulting 
# from the CCDC's data processing and validation procedures.
#
#######################################################################

data_WIPHOV
_chemical_formula_moiety         'C20 H12 F7 N3'
_chemical_name_systematic        
4-(heptafluoropropyl)-2-(pyridin-3-yl)-5,6-dihydrobenzo[h]quinazoline
_symmetry_cell_setting           triclinic
_symmetry_space_group_name_H-M   'P -1'
_symmetry_Int_Tables_number      2
_space_group_name_Hall           '-P 1'
loop_
_symmetry_equiv_pos_site_id
_symmetry_equiv_pos_as_xyz
1 x,y,z
2 -x,-y,-z
_cell_length_a                   8.5757(7)
_cell_length_b                   10.7240(9)
_cell_length_c                   11.5979(7)
_cell_angle_alpha                64.620(7)
_cell_angle_beta                 77.985(7)
_cell_angle_gamma                71.245(7)
_cell_volume                     909.407
_exptl_crystal_description       block
_cell_formula_units_Z            2
loop_
_atom_site_label
_atom_site_type_symbol
_atom_site_fract_x
_atom_site_fract_y
_atom_site_fract_z
F1 F 0.9333(2) 0.9411(2) 0.21598(18)
F2 F 0.8842(3) 0.8437(2) 0.10308(17)
F3 F 0.5969(3) 1.0434(2) 0.26322(18)
F4 F 0.5536(2) 0.9524(2) 0.14205(19)
N1 N 0.7785(3) 0.5400(2) 0.55688(19)
N2 N 0.8231(3) 0.7691(2) 0.4296(2)
F5 F 0.5290(4) 1.2325(3) 0.0272(3)
F6 F 0.7319(4) 1.1142(4) -0.0558(2)
F7 F 0.7730(5) 1.2043(3) 0.0628(3)
C1 C 0.7495(3) 0.5302(2) 0.4518(2)
C2 C 0.7999(3) 0.7560(3) 0.3252(2)
C3 C 0.8444(3) 0.6711(3) 0.6566(2)
C4 C 0.7588(3) 0.6396(3) 0.3287(2)
C5 C 0.8131(3) 0.6596(3) 0.5407(2)
C6 C 0.7124(3) 0.3979(3) 0.4694(2)
C7 C 0.8357(4) 0.5789(3) 0.8862(2)
H1 H 0.8088 0.5136 0.9663
C8 C 0.6468(3) 0.3948(3) 0.3702(3)
C9 C 0.7427(3) 0.2768(3) 0.5830(3)
H2 H 0.7851 0.2798 0.6490
C10 C 0.9153(4) 0.7746(3) 0.6469(3)
H3 H 0.9411 0.8411 0.5671
C11 C 0.7325(4) 0.6149(3) 0.2159(2)
H4 H 0.8371 0.5649 0.1851
H5 H 0.6938 0.7065 0.1471
C12 C 0.8224(4) 0.8834(3) 0.2032(2)
C13 C 0.6082(4) 0.5281(3) 0.2513(3)
H6 H 0.4986 0.5864 0.2645
H7 H 0.6076 0.5021 0.1809
C14 C 0.6621(4) 1.0046(3) 0.1644(2)
C15 C 0.6149(4) 0.2681(3) 0.3882(3)
H8 H 0.5709 0.2645 0.3232
C16 C 0.7096(4) 0.1519(3) 0.5977(3)
H9 H 0.7297 0.0710 0.6733
C17 C 0.8058(4) 0.5763(3) 0.7788(3)
H10 H 0.7564 0.5073 0.7861
N3 N 0.9475(4) 0.7781(4) 0.7574(3)
C18 C 0.9050(5) 0.6780(4) 0.8738(3)
H11 H 0.9266 0.6807 0.9480
C19 C 0.6462(4) 0.1495(3) 0.4980(4)
H12 H 0.6250 0.0661 0.5064
C20 C 0.6761(5) 1.1419(4) 0.0470(3)
loop_
_geom_bond_atom_site_label_1
_geom_bond_atom_site_label_2
_geom_bond_site_symmetry_1
_geom_bond_site_symmetry_2
F1 C12 1_555 1_555
F2 C12 1_555 1_555
F3 C14 1_555 1_555
F4 C14 1_555 1_555
N1 C1 1_555 1_555
N2 C2 1_555 1_555
F5 C20 1_555 1_555
F6 C20 1_555 1_555
F7 C20 1_555 1_555
C1 C4 1_555 1_555
C2 C4 1_555 1_555
C3 C5 1_555 1_555
C4 C11 1_555 1_555
C5 N1 1_555 1_555
C6 C1 1_555 1_555
C7 H1 1_555 1_555
C8 C6 1_555 1_555
C9 C6 1_555 1_555
H2 C9 1_555 1_555
C10 C3 1_555 1_555
H3 C10 1_555 1_555
C11 H4 1_555 1_555
H5 C11 1_555 1_555
C12 C2 1_555 1_555
C13 C8 1_555 1_555
H6 C13 1_555 1_555
H7 C13 1_555 1_555
C14 C12 1_555 1_555
C15 C8 1_555 1_555
H8 C15 1_555 1_555
C16 C9 1_555 1_555
H9 C16 1_555 1_555
C17 C3 1_555 1_555
H10 C17 1_555 1_555
N3 C10 1_555 1_555
C18 C7 1_555 1_555
H11 C18 1_555 1_555
C19 C15 1_555 1_555
H12 C19 1_555 1_555
C20 C14 1_555 1_555
N2 C5 1_555 1_555
C7 C17 1_555 1_555
C11 C13 1_555 1_555
C16 C19 1_555 1_555
N3 C18 1_555 1_555

#END
