
#######################################################################
#
#                 Cambridge Crystallographic Data Centre
#                                CCDC 
#
#######################################################################
#
# If this CIF has been generated from an entry in the Cambridge 
# Structural Database, then it will include bibliographic, chemical, 
# crystal, experimental, refinement or atomic coordinate data resulting 
# from the CCDC's data processing and validation procedures.
#
#######################################################################

data_WIPHUB
_chemical_formula_moiety         'C16 H14 N2 O1'
_chemical_name_systematic        
(3-amino-1H-indol-2-yl)(4-methylphenyl)methanone
_symmetry_cell_setting           monoclinic
_symmetry_space_group_name_H-M   'C c'
_symmetry_Int_Tables_number      9
_space_group_name_Hall           'C -2yc'
loop_
_symmetry_equiv_pos_site_id
_symmetry_equiv_pos_as_xyz
1 x,y,z
2 x,-y,1/2+z
3 1/2+x,1/2+y,z
4 1/2+x,1/2-y,1/2+z
_cell_length_a                   9.7923(13)
_cell_length_b                   17.627(2)
_cell_length_c                   15.121(2)
_cell_angle_alpha                90
_cell_angle_beta                 91.028(2)
_cell_angle_gamma                90
_cell_volume                     2609.6
_exptl_crystal_colour            yellow
_exptl_crystal_description       block
_cell_formula_units_Z            8
loop_
_atom_site_label
_atom_site_type_symbol
_atom_site_fract_x
_atom_site_fract_y
_atom_site_fract_z
C1 C 0.8138(3) 0.4121(2) 0.1161(3)
H1 H 0.8276 0.4575 0.1502
H2 H 0.8228 0.4235 0.0544
H3 H 0.8809 0.3750 0.1333
C2 C 0.6730(3) 0.38131(15) 0.1323(2)
C3 C 0.5715(3) 0.38547(17) 0.0672(2)
H4 H 0.5924 0.4051 0.0120
C4 C 0.4410(3) 0.36131(16) 0.08263(18)
H5 H 0.3744 0.3656 0.0383
C5 C 0.4074(3) 0.33036(13) 0.16424(17)
C6 C 0.5095(3) 0.32454(15) 0.22826(19)
H6 H 0.4897 0.3034 0.2829
C7 C 0.6397(3) 0.34947(16) 0.2125(2)
H7 H 0.7067 0.3448 0.2566
C8 C 0.2642(3) 0.30711(14) 0.18057(17)
C9 C 0.2379(3) 0.23657(14) 0.22313(17)
C10 C 0.1112(3) 0.20850(14) 0.24831(16)
C11 C 0.1350(3) 0.13518(14) 0.28654(16)
C12 C 0.0492(3) 0.07967(15) 0.32187(19)
H8 H -0.0444 0.0879 0.3253
C13 C 0.1059(4) 0.01319(17) 0.3512(2)
H9 H 0.0499 -0.0242 0.3744
C14 C 0.2459(4) 0.00034(17) 0.3469(2)
H10 H 0.2814 -0.0454 0.3677
C15 C 0.3325(3) 0.05318(17) 0.3129(2)
H11 H 0.4259 0.0443 0.3105
C16 C 0.2753(3) 0.12119(14) 0.28198(18)
N1 N 0.3372(2) 0.18171(11) 0.24380(16)
H12 H 0.4231 0.1857 0.2340
N2 N -0.0104(2) 0.24343(13) 0.23793(17)
H13 H -0.0148 0.2875 0.2137
H14 H -0.0836 0.2216 0.2556
O1 O 0.1679(2) 0.34972(11) 0.15761(13)
C17 C 0.4835(6) 0.4092(2) 0.5715(3)
H15 H 0.4338 0.4413 0.5310
H16 H 0.5587 0.4369 0.5971
H17 H 0.4240 0.3927 0.6174
C18 C 0.5368(4) 0.34102(18) 0.5225(2)
C19 C 0.4541(4) 0.28049(19) 0.5038(2)
H18 H 0.3638 0.2813 0.5218
C20 C 0.5022(3) 0.21781(17) 0.4585(2)
H19 H 0.4446 0.1767 0.4481
C21 C 0.6340(3) 0.21578(14) 0.42858(18)
C22 C 0.7184(4) 0.27712(17) 0.4454(2)
H20 H 0.8071 0.2776 0.4244
C23 C 0.6699(5) 0.33792(17) 0.4939(2)
H21 H 0.7287 0.3778 0.5075
C24 C 0.6819(3) 0.15085(15) 0.37392(18)
C25 C 0.6660(2) 0.07548(15) 0.40541(16)
C26 C 0.6793(2) 0.00872(15) 0.35630(16)
C27 C 0.6417(2) -0.05215(15) 0.41205(16)
C28 C 0.6323(3) -0.13099(16) 0.3989(2)
H22 H 0.6523 -0.1521 0.3443
C29 C 0.5938(4) -0.17561(17) 0.4668(2)
H23 H 0.5876 -0.2278 0.4589
C30 C 0.5634(4) -0.14395(18) 0.5487(2)
H24 H 0.5379 -0.1760 0.5944
C31 C 0.5697(3) -0.06722(17) 0.5645(2)
H25 H 0.5489 -0.0470 0.6195
C32 C 0.6089(3) -0.02098(14) 0.49436(17)
N3 N 0.6210(2) 0.05591(12) 0.49013(13)
H26 H 0.6041 0.0872 0.5322
N4 N 0.7126(3) 0.00410(14) 0.26972(15)
H27 H 0.7278 0.0448 0.2400
H28 H 0.7186 -0.0395 0.2445
O2 O 0.7338(2) 0.16272(12) 0.30013(15)
loop_
_geom_bond_atom_site_label_1
_geom_bond_atom_site_label_2
_geom_bond_site_symmetry_1
_geom_bond_site_symmetry_2
C1 H1 1_555 1_555
H2 C1 1_555 1_555
H3 C1 1_555 1_555
C2 C1 1_555 1_555
C3 C2 1_555 1_555
H4 C3 1_555 1_555
C4 C3 1_555 1_555
H5 C4 1_555 1_555
C5 C4 1_555 1_555
C6 C5 1_555 1_555
H6 C6 1_555 1_555
C7 C2 1_555 1_555
H7 C7 1_555 1_555
C8 C5 1_555 1_555
C9 C8 1_555 1_555
C10 C9 1_555 1_555
C11 C10 1_555 1_555
C12 C11 1_555 1_555
H8 C12 1_555 1_555
C13 C12 1_555 1_555
H9 C13 1_555 1_555
C14 C13 1_555 1_555
H10 C14 1_555 1_555
C15 C14 1_555 1_555
H11 C15 1_555 1_555
C16 C11 1_555 1_555
N1 C9 1_555 1_555
H12 N1 1_555 1_555
N2 C10 1_555 1_555
H13 N2 1_555 1_555
H14 N2 1_555 1_555
O1 C8 1_555 1_555
C17 H15 1_555 1_555
H16 C17 1_555 1_555
H17 C17 1_555 1_555
C18 C17 1_555 1_555
C19 C18 1_555 1_555
H18 C19 1_555 1_555
C20 C19 1_555 1_555
H19 C20 1_555 1_555
C21 C20 1_555 1_555
C22 C21 1_555 1_555
H20 C22 1_555 1_555
C23 C18 1_555 1_555
H21 C23 1_555 1_555
C24 C21 1_555 1_555
C25 C24 1_555 1_555
C26 C25 1_555 1_555
C27 C26 1_555 1_555
C28 C27 1_555 1_555
H22 C28 1_555 1_555
C29 C28 1_555 1_555
H23 C29 1_555 1_555
C30 C29 1_555 1_555
H24 C30 1_555 1_555
C31 C30 1_555 1_555
H25 C31 1_555 1_555
C32 C27 1_555 1_555
N3 C25 1_555 1_555
H26 N3 1_555 1_555
N4 C26 1_555 1_555
H27 N4 1_555 1_555
H28 N4 1_555 1_555
O2 C24 1_555 1_555
C6 C7 1_555 1_555
C15 C16 1_555 1_555
C16 N1 1_555 1_555
C22 C23 1_555 1_555
C31 C32 1_555 1_555
C32 N3 1_555 1_555

#END
