
#######################################################################
#
#                 Cambridge Crystallographic Data Centre
#                                CCDC 
#
#######################################################################
#
# If this CIF has been generated from an entry in the Cambridge 
# Structural Database, then it will include bibliographic, chemical, 
# crystal, experimental, refinement or atomic coordinate data resulting 
# from the CCDC's data processing and validation procedures.
#
#######################################################################

data_WIPJEN
_chemical_formula_moiety         'C37 H31 N3 O4 S1'
_chemical_name_systematic        
'2-(9-acetyl-4,4-dicyano-1,2-diphenyl-2,3,4,9-tetrahydro-1H-carbazol-3-yl)ethyl 4-methylbenzene-1-sulfonate'
_symmetry_cell_setting           monoclinic
_symmetry_space_group_name_H-M   'P 21'
_symmetry_Int_Tables_number      4
_space_group_name_Hall           'P 2yb'
loop_
_symmetry_equiv_pos_site_id
_symmetry_equiv_pos_as_xyz
1 x,y,z
2 -x,1/2+y,-z
_cell_length_a                   13.6363(6)
_cell_length_b                   8.5322(3)
_cell_length_c                   15.2209(8)
_cell_angle_alpha                90
_cell_angle_beta                 116.2050(10)
_cell_angle_gamma                90
_cell_volume                     1588.9
_exptl_crystal_colour            colorless
_exptl_crystal_description       prismatic
_cell_formula_units_Z            2
loop_
_atom_site_label
_atom_site_type_symbol
_atom_site_fract_x
_atom_site_fract_y
_atom_site_fract_z
S1 S 0.81955(6) 0.70737(10) 0.95751(6)
O1 O 0.2297(2) 0.1320(3) 0.4362(2)
O2 O 0.69739(16) 0.7371(2) 0.88148(16)
O3 O 0.8466(2) 0.8408(3) 1.0193(2)
O4 O 0.88221(18) 0.6706(3) 0.90630(18)
N1 N 0.21360(18) 0.3902(3) 0.40098(17)
N2 N 0.4985(3) 0.8896(5) 0.5360(3)
N3 N 0.2581(3) 0.8374(4) 0.6449(2)
C1 C 0.1933(2) 0.5146(4) 0.3335(2)
C2 C 0.1315(3) 0.5203(4) 0.2327(2)
H1 H 0.0963 0.4314 0.1976
C3 C 0.1238(3) 0.6606(5) 0.1867(3)
H2 H 0.0820 0.6669 0.1193
C4 C 0.1767(3) 0.7940(4) 0.2380(3)
H3 H 0.1684 0.8883 0.2048
C5 C 0.2415(3) 0.7878(4) 0.3377(2)
H4 H 0.2786 0.8764 0.3718
C6 C 0.2503(2) 0.6460(3) 0.3863(2)
C7 C 0.3062(2) 0.5991(3) 0.4871(2)
C8 C 0.2825(2) 0.4482(3) 0.4945(2)
C9 C 0.3056(2) 0.3600(3) 0.5865(2)
H5 H 0.3379 0.2585 0.5839
C10 C 0.3879(2) 0.4516(3) 0.6790(2)
H6 H 0.3444 0.5053 0.7068
C11 C 0.4564(2) 0.5786(3) 0.6590(2)
H7 H 0.5049 0.5269 0.6360
C12 C 0.3785(2) 0.6919(3) 0.5766(2)
C13 C 0.4457(3) 0.8058(4) 0.5535(2)
C14 C 0.3115(3) 0.7803(3) 0.6140(2)
C15 C 0.1766(3) 0.2338(4) 0.3823(2)
C16 C 0.0695(3) 0.2038(5) 0.2986(3)
H8 H 0.0786 0.1937 0.2398
H9 H 0.0210 0.2895 0.2918
H10 H 0.0392 0.1086 0.3098
C17 C 0.2000(2) 0.3313(3) 0.5958(2)
C18 C 0.1928(3) 0.2053(4) 0.6498(3)
H11 H 0.2510 0.1356 0.6777
C19 C 0.0994(3) 0.1825(6) 0.6628(3)
H12 H 0.0957 0.0983 0.7000
C20 C 0.0132(3) 0.2819(6) 0.6214(3)
H13 H -0.0491 0.2660 0.6306
C21 C 0.0181(3) 0.4048(5) 0.5666(3)
H14 H -0.0416 0.4712 0.5367
C22 C 0.1122(2) 0.4310(4) 0.5552(2)
H15 H 0.1159 0.5174 0.5196
C23 C 0.4602(2) 0.3349(3) 0.7552(2)
C24 C 0.4550(3) 0.3177(4) 0.8431(3)
H16 H 0.4087 0.3814 0.8575
C25 C 0.5193(3) 0.2043(6) 0.9111(3)
H17 H 0.5156 0.1932 0.9703
C26 C 0.5874(3) 0.1105(5) 0.8902(4)
H18 H 0.6292 0.0345 0.9348
C27 C 0.5942(3) 0.1278(4) 0.8041(3)
H19 H 0.6419 0.0652 0.7908
C28 C 0.5308(2) 0.2378(4) 0.7367(3)
H20 H 0.5352 0.2473 0.6777
C29 C 0.5271(2) 0.6729(3) 0.7523(2)
H21 H 0.5222 0.7831 0.7353
H22 H 0.4969 0.6601 0.7988
C30 C 0.6447(2) 0.6267(4) 0.8007(3)
H23 H 0.6528 0.5201 0.8250
H24 H 0.6765 0.6340 0.7550
C31 C 0.8116(2) 0.5403(4) 1.0207(2)
C32 C 0.7536(3) 0.5456(5) 1.0751(3)
H25 H 0.7210 0.6386 1.0804
C33 C 0.7440(4) 0.4117(6) 1.1216(3)
H26 H 0.7042 0.4151 1.1579
C34 C 0.7922(3) 0.2735(5) 1.1153(3)
C35 C 0.8517(3) 0.2703(4) 1.0622(2)
H27 H 0.8853 0.1778 1.0580
C36 C 0.8618(3) 0.4030(4) 1.0154(2)
H28 H 0.9027 0.3999 0.9801
C37 C 0.7796(4) 0.1267(5) 1.1651(3)
H29 H 0.8138 0.1420 1.2348
H30 H 0.8137 0.0402 1.1490
H31 H 0.7034 0.1046 1.1432
loop_
_geom_bond_atom_site_label_1
_geom_bond_atom_site_label_2
_geom_bond_site_symmetry_1
_geom_bond_site_symmetry_2
S1 O2 1_555 1_555
O1 C15 1_555 1_555
O2 C30 1_555 1_555
O3 S1 1_555 1_555
O4 S1 1_555 1_555
N1 C1 1_555 1_555
N2 C13 1_555 1_555
N3 C14 1_555 1_555
C1 C2 1_555 1_555
C2 H1 1_555 1_555
C3 C2 1_555 1_555
H2 C3 1_555 1_555
C4 C3 1_555 1_555
H3 C4 1_555 1_555
C5 C4 1_555 1_555
H4 C5 1_555 1_555
C6 C1 1_555 1_555
C7 C6 1_555 1_555
C8 N1 1_555 1_555
C9 C8 1_555 1_555
H5 C9 1_555 1_555
C10 C9 1_555 1_555
H6 C10 1_555 1_555
C11 C10 1_555 1_555
H7 C11 1_555 1_555
C12 C7 1_555 1_555
C13 C12 1_555 1_555
C14 C12 1_555 1_555
C15 N1 1_555 1_555
C16 C15 1_555 1_555
H8 C16 1_555 1_555
H9 C16 1_555 1_555
H10 C16 1_555 1_555
C17 C9 1_555 1_555
C18 C17 1_555 1_555
H11 C18 1_555 1_555
C19 C18 1_555 1_555
H12 C19 1_555 1_555
C20 C19 1_555 1_555
H13 C20 1_555 1_555
C21 C20 1_555 1_555
H14 C21 1_555 1_555
C22 C17 1_555 1_555
H15 C22 1_555 1_555
C23 C10 1_555 1_555
C24 C23 1_555 1_555
H16 C24 1_555 1_555
C25 C24 1_555 1_555
H17 C25 1_555 1_555
C26 C25 1_555 1_555
H18 C26 1_555 1_555
C27 C26 1_555 1_555
H19 C27 1_555 1_555
C28 C23 1_555 1_555
H20 C28 1_555 1_555
C29 C11 1_555 1_555
H21 C29 1_555 1_555
H22 C29 1_555 1_555
C30 C29 1_555 1_555
H23 C30 1_555 1_555
H24 C30 1_555 1_555
C31 S1 1_555 1_555
C32 C31 1_555 1_555
H25 C32 1_555 1_555
C33 C32 1_555 1_555
H26 C33 1_555 1_555
C34 C33 1_555 1_555
C35 C34 1_555 1_555
H27 C35 1_555 1_555
C36 C31 1_555 1_555
H28 C36 1_555 1_555
C37 C34 1_555 1_555
H29 C37 1_555 1_555
H30 C37 1_555 1_555
H31 C37 1_555 1_555
C5 C6 1_555 1_555
C7 C8 1_555 1_555
C11 C12 1_555 1_555
C21 C22 1_555 1_555
C27 C28 1_555 1_555
C35 C36 1_555 1_555

#END
