
#######################################################################
#
#                 Cambridge Crystallographic Data Centre
#                                CCDC 
#
#######################################################################
#
# If this CIF has been generated from an entry in the Cambridge 
# Structural Database, then it will include bibliographic, chemical, 
# crystal, experimental, refinement or atomic coordinate data resulting 
# from the CCDC's data processing and validation procedures.
#
#######################################################################

data_WIPJIR
_chemical_formula_moiety         'C20 H19 O5 P1'
_chemical_name_systematic        
7-(diphenylphosphoryl)-7a-methoxy-7,7a-dihydro-2H-1,3-benzodioxol-5(6H)-one
_symmetry_cell_setting           orthorhombic
_symmetry_space_group_name_H-M   'P n a 21'
_symmetry_Int_Tables_number      33
_space_group_name_Hall           'P 2c -2n'
loop_
_symmetry_equiv_pos_site_id
_symmetry_equiv_pos_as_xyz
1 x,y,z
2 -x,-y,1/2+z
3 1/2-x,1/2+y,1/2+z
4 1/2+x,1/2-y,z
_cell_length_a                   12.4510(7)
_cell_length_b                   18.5872(10)
_cell_length_c                   7.9138(5)
_cell_angle_alpha                90
_cell_angle_beta                 90
_cell_angle_gamma                90
_cell_volume                     1831.48
_exptl_crystal_colour            colorless
_exptl_crystal_description       block
_cell_formula_units_Z            4
loop_
_atom_site_label
_atom_site_type_symbol
_atom_site_fract_x
_atom_site_fract_y
_atom_site_fract_z
P1 P 0.66969(6) 0.35533(4) 0.64989(12)
O1 O 0.67551(18) 0.45495(11) 0.3509(3)
O2 O 0.5100(2) 0.44394(13) 0.2285(5)
O3 O 0.71080(17) 0.37069(12) 0.1406(3)
O4 O 0.4796(2) 0.20277(14) 0.3996(4)
O5 O 0.55664(17) 0.37711(11) 0.6768(3)
C1 C 0.5964(3) 0.49371(19) 0.2598(7)
H1 H 0.625682 0.511386 0.154069
H2 H 0.571071 0.534391 0.325416
C2 C 0.6637(2) 0.38251(16) 0.2993(4)
C3 C 0.5448(3) 0.37818(18) 0.2703(5)
C4 C 0.4841(3) 0.3200(2) 0.2916(5)
H3 H 0.411718 0.320614 0.262730
C5 C 0.5326(3) 0.25631(19) 0.3599(5)
C6 C 0.6534(3) 0.25509(17) 0.3835(4)
H4 H 0.686403 0.238718 0.279300
H5 H 0.670922 0.220457 0.470903
C7 C 0.7024(2) 0.32853(16) 0.4319(4)
H6 H 0.780712 0.324668 0.422613
C8 C 0.8241(3) 0.3824(3) 0.1327(6)
H7 H 0.846808 0.382538 0.016762
H8 H 0.860492 0.344582 0.192349
H9 H 0.841116 0.427836 0.183622
C9 C 0.7652(3) 0.42497(16) 0.7061(4)
C10 C 0.7248(3) 0.48373(17) 0.7947(5)
H10 H 0.652139 0.485925 0.821350
C11 C 0.7929(4) 0.53893(19) 0.8433(5)
H11 H 0.765563 0.578378 0.901423
C12 C 0.9007(4) 0.5357(2) 0.8059(5)
H12 H 0.946141 0.572760 0.839124
C13 C 0.9408(4) 0.4781(2) 0.7200(6)
H13 H 1.013871 0.475956 0.695876
C14 C 0.8739(3) 0.42232(19) 0.6680(5)
H14 H 0.901833 0.383549 0.608172
C15 C 0.7031(2) 0.27480(16) 0.7689(4)
C16 C 0.8035(3) 0.24201(19) 0.7613(6)
H15 H 0.858766 0.263576 0.700504
C17 C 0.8215(3) 0.1776(2) 0.8436(6)
H16 H 0.888782 0.155946 0.838222
C18 C 0.7400(3) 0.1452(2) 0.9338(5)
H17 H 0.752053 0.101794 0.988939
C19 C 0.6410(3) 0.1774(2) 0.9417(6)
H18 H 0.585955 0.155484 1.002321
C20 C 0.6221(3) 0.24200(19) 0.8604(5)
H19 H 0.554757 0.263460 0.867185
loop_
_geom_bond_atom_site_label_1
_geom_bond_atom_site_label_2
_geom_bond_site_symmetry_1
_geom_bond_site_symmetry_2
P1 O5 1_555 1_555
O1 C1 1_555 1_555
O2 C1 1_555 1_555
O3 C2 1_555 1_555
O4 C5 1_555 1_555
C1 H1 1_555 1_555
H2 C1 1_555 1_555
C2 O1 1_555 1_555
C3 O2 1_555 1_555
C4 C3 1_555 1_555
H3 C4 1_555 1_555
C5 C4 1_555 1_555
C6 C5 1_555 1_555
H4 C6 1_555 1_555
H5 C6 1_555 1_555
C7 P1 1_555 1_555
H6 C7 1_555 1_555
C8 O3 1_555 1_555
H7 C8 1_555 1_555
H8 C8 1_555 1_555
H9 C8 1_555 1_555
C9 P1 1_555 1_555
C10 C9 1_555 1_555
H10 C10 1_555 1_555
C11 C10 1_555 1_555
H11 C11 1_555 1_555
C12 C11 1_555 1_555
H12 C12 1_555 1_555
C13 C12 1_555 1_555
H13 C13 1_555 1_555
C14 C9 1_555 1_555
H14 C14 1_555 1_555
C15 P1 1_555 1_555
C16 C15 1_555 1_555
H15 C16 1_555 1_555
C17 C16 1_555 1_555
H16 C17 1_555 1_555
C18 C17 1_555 1_555
H17 C18 1_555 1_555
C19 C18 1_555 1_555
H18 C19 1_555 1_555
C20 C15 1_555 1_555
H19 C20 1_555 1_555
C2 C3 1_555 1_555
C2 C7 1_555 1_555
C6 C7 1_555 1_555
C13 C14 1_555 1_555
C19 C20 1_555 1_555

#END
