
#######################################################################
#
#                 Cambridge Crystallographic Data Centre
#                                CCDC 
#
#######################################################################
#
# If this CIF has been generated from an entry in the Cambridge 
# Structural Database, then it will include bibliographic, chemical, 
# crystal, experimental, refinement or atomic coordinate data resulting 
# from the CCDC's data processing and validation procedures.
#
#######################################################################

data_WIPJAJ
_chemical_formula_moiety         'C16 H14 N2 O3 S1'
_chemical_name_systematic        
(3-amino-1H-indol-2-yl)[4-(methylsulfonyl)phenyl]methanone
_symmetry_cell_setting           monoclinic
_symmetry_space_group_name_H-M   'P 21/n'
_symmetry_Int_Tables_number      14
_space_group_name_Hall           '-P 2yn'
loop_
_symmetry_equiv_pos_site_id
_symmetry_equiv_pos_as_xyz
1 x,y,z
2 1/2-x,1/2+y,1/2-z
3 -x,-y,-z
4 1/2+x,1/2-y,1/2+z
_cell_length_a                   5.7269(7)
_cell_length_b                   28.551(4)
_cell_length_c                   8.8421(11)
_cell_angle_alpha                90
_cell_angle_beta                 103.507(2)
_cell_angle_gamma                90
_cell_volume                     1405.77
_exptl_crystal_colour            yellow
_exptl_crystal_description       block
_cell_formula_units_Z            4
loop_
_atom_site_label
_atom_site_type_symbol
_atom_site_fract_x
_atom_site_fract_y
_atom_site_fract_z
C1 C 0.5987(2) 0.70437(4) 0.65364(15)
C2 C 0.5119(2) 0.65994(4) 0.68069(14)
C3 C 0.6316(2) 0.62660(4) 0.60504(14)
C4 C 0.7906(2) 0.65202(5) 0.53566(14)
C5 C 0.9389(3) 0.62907(5) 0.45311(16)
H1 H 1.0481 0.6459 0.4076
C6 C 0.9190(3) 0.58100(5) 0.44109(17)
H2 H 1.0164 0.5646 0.3851
C7 C 0.7593(3) 0.55518(5) 0.50893(17)
H3 H 0.7509 0.5221 0.4975
C8 C 0.6155(3) 0.57754(5) 0.59161(16)
H4 H 0.5088 0.5603 0.6381
C9 C 0.5156(2) 0.74720(4) 0.70346(15)
C10 C 0.6004(2) 0.79295(4) 0.65247(15)
C11 C 0.4328(2) 0.82228(5) 0.55728(15)
H5 H 0.2719 0.8120 0.5196
C12 C 0.5016(2) 0.86640(5) 0.51784(15)
H6 H 0.3896 0.8864 0.4517
C13 C 0.7377(2) 0.88088(4) 0.57694(15)
C14 C 0.9064(2) 0.85207(5) 0.67119(16)
H7 H 1.0664 0.8626 0.7105
C15 C 0.8375(2) 0.80744(5) 0.70721(16)
H8 H 0.9518 0.7869 0.7689
C16 C 0.7346(3) 0.97573(5) 0.65084(16)
H9 H 0.8186 0.9687 0.7582
H10 H 0.5611 0.9725 0.6399
H11 H 0.7717 1.0079 0.6251
N1 N 0.3515(2) 0.65084(4) 0.76741(14)
H12 H 0.284(3) 0.6236(4) 0.761(2)
H13 H 0.283(3) 0.6751(5) 0.795(2)
N2 N 0.7734(2) 0.69872(4) 0.56592(13)
H14 H 0.827(3) 0.7202(5) 0.514(2)
O1 O 0.36695(19) 0.74801(3) 0.78733(13)
O2 O 0.6965(2) 0.94602(3) 0.36649(11)
O3 O 1.08796(19) 0.93756(4) 0.55672(13)
S1 S 0.82890(6) 0.936492(10) 0.52396(4)
loop_
_geom_bond_atom_site_label_1
_geom_bond_atom_site_label_2
_geom_bond_site_symmetry_1
_geom_bond_site_symmetry_2
C1 C2 1_555 1_555
C2 C3 1_555 1_555
C3 C4 1_555 1_555
C4 C5 1_555 1_555
C5 H1 1_555 1_555
C6 C5 1_555 1_555
H2 C6 1_555 1_555
C7 C6 1_555 1_555
H3 C7 1_555 1_555
C8 C3 1_555 1_555
H4 C8 1_555 1_555
C9 C1 1_555 1_555
C10 C9 1_555 1_555
C11 C10 1_555 1_555
H5 C11 1_555 1_555
C12 C11 1_555 1_555
H6 C12 1_555 1_555
C13 C12 1_555 1_555
C14 C13 1_555 1_555
H7 C14 1_555 1_555
C15 C10 1_555 1_555
H8 C15 1_555 1_555
C16 H9 1_555 1_555
H10 C16 1_555 1_555
H11 C16 1_555 1_555
N1 C2 1_555 1_555
H12 N1 1_555 1_555
H13 N1 1_555 1_555
N2 C1 1_555 1_555
H14 N2 1_555 1_555
O1 C9 1_555 1_555
O2 S1 1_555 1_555
O3 S1 1_555 1_555
S1 C13 1_555 1_555
C4 N2 1_555 1_555
C7 C8 1_555 1_555
C14 C15 1_555 1_555
C16 S1 1_555 1_555

#END
