
#######################################################################
#
#                 Cambridge Crystallographic Data Centre
#                                CCDC 
#
#######################################################################
#
# If this CIF has been generated from an entry in the Cambridge 
# Structural Database, then it will include bibliographic, chemical, 
# crystal, experimental, refinement or atomic coordinate data resulting 
# from the CCDC's data processing and validation procedures.
#
#######################################################################

data_WIPMEP
_chemical_formula_moiety         'C44 H32 N2 S2,0.5(C1 H4 O1)'
_chemical_name_systematic        
"4,4'-(2,2'-bithiene-5,5'-diyl)bis(N,N-diphenylaniline) methanol solvate"
_symmetry_cell_setting           triclinic
_symmetry_space_group_name_H-M   'P -1'
_symmetry_Int_Tables_number      2
_space_group_name_Hall           '-P 1'
loop_
_symmetry_equiv_pos_site_id
_symmetry_equiv_pos_as_xyz
1 x,y,z
2 -x,-y,-z
_cell_length_a                   10.4704(6)
_cell_length_b                   11.6039(6)
_cell_length_c                   15.7041(9)
_cell_angle_alpha                75.0710(10)
_cell_angle_beta                 86.8200(10)
_cell_angle_gamma                80.4240(10)
_cell_volume                     1817.76
_exptl_crystal_colour            yellow
_exptl_crystal_description       block
_cell_formula_units_Z            2
loop_
_atom_site_label
_atom_site_type_symbol
_atom_site_fract_x
_atom_site_fract_y
_atom_site_fract_z
C23 C 0.9659(3) 1.4505(3) 0.02005(19)
C24 C 0.8465(4) 1.4326(3) 0.0006(2)
H17 H 0.7941 1.4869 -0.0426
C25 C 0.8102(4) 1.3250(3) 0.0519(3)
H18 H 0.7320 1.3005 0.0452
C26 C 0.9003(3) 1.2591(3) 0.11294(19)
C27 C 0.8933(3) 1.1414(3) 0.17527(19)
C28 C 0.7791(3) 1.0931(3) 0.1859(2)
H19 H 0.7067 1.1364 0.1540
C29 C 0.7709(4) 0.9819(3) 0.2430(2)
H20 H 0.6936 0.9510 0.2484
C30 C 0.8754(3) 0.9165(3) 0.29173(19)
C31 C 0.9904(3) 0.9627(3) 0.28203(19)
H21 H 1.0623 0.9189 0.3143
C32 C 0.9989(3) 1.0743(3) 0.22440(19)
H22 H 1.0767 1.1045 0.2187
C33 C 0.8263(3) 0.7112(3) 0.3162(2)
C34 C 0.8725(5) 0.6953(4) 0.2379(3)
H23 H 0.9341 0.7403 0.2076
C35 C 0.8282(8) 0.6113(5) 0.2019(3)
H24 H 0.8545 0.6071 0.1451
C36 C 0.7497(7) 0.5372(5) 0.2461(4)
H25 H 0.7256 0.4782 0.2228
C37 C 0.7061(4) 0.5504(4) 0.3258(4)
H26 H 0.6501 0.5002 0.3577
C38 C 0.7431(4) 0.6374(3) 0.3611(3)
H27 H 0.7108 0.6455 0.4160
C39 C 0.9003(3) 0.7805(2) 0.43873(19)
C40 C 0.9532(4) 0.6663(3) 0.4878(2)
H28 H 0.9679 0.6021 0.4614
C41 C 0.9845(5) 0.6469(4) 0.5760(2)
H29 H 1.0168 0.5694 0.6083
C42 C 0.9682(4) 0.7399(3) 0.6151(2)
H30 H 0.9887 0.7266 0.6741
C43 C 0.9211(4) 0.8534(3) 0.5664(2)
H31 H 0.9135 0.9181 0.5921
C44 C 0.8848(3) 0.8742(3) 0.4805(2)
H32 H 0.8494 0.9517 0.4498
N2 N 0.8646(3) 0.8017(2) 0.35070(16)
S2 S 1.03390(9) 1.33024(7) 0.10288(5)
C23A C 1.0341(3) 1.5495(3) -0.02005(19)
C24A C 1.1535(4) 1.5674(3) -0.0006(2)
H17A H 1.2059 1.5131 0.0426
C25A C 1.1898(4) 1.6750(3) -0.0519(3)
H18A H 1.2680 1.6995 -0.0452
C26A C 1.0997(3) 1.7409(3) -0.11294(19)
C27A C 1.1067(3) 1.8586(3) -0.17527(19)
C28A C 1.2209(3) 1.9069(3) -0.1859(2)
H19A H 1.2933 1.8636 -0.1540
C29A C 1.2291(4) 2.0181(3) -0.2430(2)
H20A H 1.3064 2.0490 -0.2484
C30A C 1.1246(3) 2.0835(3) -0.29173(19)
C31A C 1.0096(3) 2.0373(3) -0.28203(19)
H21A H 0.9377 2.0811 -0.3143
C32A C 1.0011(3) 1.9257(3) -0.22440(19)
H22A H 0.9233 1.8955 -0.2187
C33A C 1.1737(3) 2.2888(3) -0.3162(2)
C34A C 1.1275(5) 2.3047(4) -0.2379(3)
H23A H 1.0659 2.2597 -0.2076
C35A C 1.1718(8) 2.3887(5) -0.2019(3)
H24A H 1.1455 2.3929 -0.1451
C36A C 1.2503(7) 2.4628(5) -0.2461(4)
H25A H 1.2744 2.5218 -0.2228
C37A C 1.2939(4) 2.4496(4) -0.3258(4)
H26A H 1.3499 2.4998 -0.3577
C38A C 1.2569(4) 2.3626(3) -0.3611(3)
H27A H 1.2892 2.3545 -0.4160
C39A C 1.0997(3) 2.2195(2) -0.43873(19)
C40A C 1.0468(4) 2.3337(3) -0.4878(2)
H28A H 1.0321 2.3979 -0.4614
C41A C 1.0155(5) 2.3531(4) -0.5760(2)
H29A H 0.9832 2.4306 -0.6083
C42A C 1.0318(4) 2.2601(3) -0.6151(2)
H30A H 1.0113 2.2734 -0.6741
C43A C 1.0789(4) 2.1466(3) -0.5664(2)
H31A H 1.0865 2.0819 -0.5921
C44A C 1.1152(3) 2.1258(3) -0.4805(2)
H32A H 1.1506 2.0483 -0.4498
N2A N 1.1354(3) 2.1983(2) -0.35070(16)
S2A S 0.96610(9) 1.66976(7) -0.10288(5)
C1 C 0.4884(3) 1.4379(2) 0.00920(18)
C2 C 0.4868(4) 1.3671(3) -0.0459(2)
H1 H 0.5014 1.3919 -0.1064
C3 C 0.4606(5) 1.2505(3) -0.0023(2)
H2 H 0.4560 1.1915 -0.0318
C4 C 0.4427(3) 1.2318(3) 0.08567(19)
C5 C 0.4181(3) 1.1222(2) 0.15199(18)
C6 C 0.4590(4) 1.0086(3) 0.1394(2)
H3 H 0.4999 1.0018 0.0864
C7 C 0.4416(4) 0.9049(3) 0.2020(2)
H4 H 0.4707 0.8300 0.1909
C8 C 0.3814(3) 0.9115(3) 0.28120(19)
C9 C 0.3414(3) 1.0241(3) 0.29511(19)
H5 H 0.3012 1.0308 0.3483
C10 C 0.3598(3) 1.1278(3) 0.23161(19)
H6 H 0.3321 1.2028 0.2431
C11 C 0.3316(3) 0.7029(3) 0.3303(2)
C12 C 0.2635(4) 0.7098(4) 0.2574(3)
H7 H 0.2358 0.7842 0.2187
C13 C 0.2354(5) 0.6032(5) 0.2413(4)
H8 H 0.1902 0.6071 0.1911
C14 C 0.2738(7) 0.4940(5) 0.2985(5)
H9 H 0.2543 0.4238 0.2878
C15 C 0.3400(6) 0.4889(4) 0.3706(4)
H10 H 0.3657 0.4142 0.4096
C16 C 0.3707(4) 0.5902(3) 0.3881(3)
H11 H 0.4174 0.5842 0.4382
C17 C 0.3816(3) 0.8100(2) 0.43786(19)
C18 C 0.2857(4) 0.7866(3) 0.5006(2)
H12 H 0.2083 0.7681 0.4855
C19 C 0.3051(4) 0.7908(3) 0.5861(2)
H13 H 0.2402 0.7749 0.6284
C20 C 0.4191(4) 0.8180(3) 0.6091(2)
H14 H 0.4320 0.8205 0.6667
C21 C 0.5137(4) 0.8416(3) 0.5459(2)
H15 H 0.5912 0.8602 0.5609
C22 C 0.4958(3) 0.8381(3) 0.4614(2)
H16 H 0.5607 0.8546 0.4193
N1 N 0.3637(3) 0.8078(2) 0.34867(16)
S1 S 0.45700(8) 1.36074(6) 0.11635(5)
C1A C 0.5116(3) 1.5621(2) -0.00920(18)
C2A C 0.5132(4) 1.6329(3) 0.0459(2)
H1A H 0.4986 1.6081 0.1064
C3A C 0.5394(5) 1.7495(3) 0.0023(2)
H2A H 0.5440 1.8085 0.0318
C4A C 0.5573(3) 1.7682(3) -0.08567(19)
C5A C 0.5819(3) 1.8778(2) -0.15199(18)
C6A C 0.5410(4) 1.9914(3) -0.1394(2)
H3A H 0.5001 1.9982 -0.0864
C7A C 0.5584(4) 2.0951(3) -0.2020(2)
H4A H 0.5293 2.1700 -0.1909
C8A C 0.6186(3) 2.0885(3) -0.28120(19)
C9A C 0.6586(3) 1.9759(3) -0.29511(19)
H5A H 0.6988 1.9692 -0.3483
C10A C 0.6402(3) 1.8722(3) -0.23161(19)
H6A H 0.6679 1.7972 -0.2431
C11A C 0.6684(3) 2.2971(3) -0.3303(2)
C12A C 0.7365(4) 2.2902(4) -0.2574(3)
H7A H 0.7642 2.2158 -0.2187
C13A C 0.7646(5) 2.3968(5) -0.2413(4)
H8A H 0.8098 2.3929 -0.1911
C14A C 0.7262(7) 2.5060(5) -0.2985(5)
H9A H 0.7457 2.5762 -0.2878
C15A C 0.6600(6) 2.5111(4) -0.3706(4)
H10A H 0.6343 2.5858 -0.4096
C16A C 0.6293(4) 2.4098(3) -0.3881(3)
H11A H 0.5826 2.4158 -0.4382
C17A C 0.6184(3) 2.1900(2) -0.43786(19)
C18A C 0.7143(4) 2.2134(3) -0.5006(2)
H12A H 0.7917 2.2319 -0.4855
C19A C 0.6949(4) 2.2092(3) -0.5861(2)
H13A H 0.7598 2.2251 -0.6284
C20A C 0.5809(4) 2.1820(3) -0.6091(2)
H14A H 0.5680 2.1795 -0.6667
C21A C 0.4863(4) 2.1584(3) -0.5459(2)
H15A H 0.4088 2.1398 -0.5609
C22A C 0.5042(3) 2.1619(3) -0.4614(2)
H16A H 0.4393 2.1454 -0.4193
N1A N 0.6363(3) 2.1922(2) -0.34867(16)
S1A S 0.54300(8) 1.63926(6) -0.11635(5)
H33? H 0.9762 0.1655 0.9518
H34? H 0.8481 0.1099 0.9607
H35? H 0.9499 0.0899 0.8868
O1? O 1.0000 0.0000 1.0000
H36? H 0.9892 -0.0693 0.9957
C45? C 0.9388(18) 0.0977(11) 0.9463(6)
loop_
_geom_bond_atom_site_label_1
_geom_bond_atom_site_label_2
_geom_bond_site_symmetry_1
_geom_bond_site_symmetry_2
C1 C2 1_555 1_555
C2 H1 1_555 1_555
C3 C2 1_555 1_555
H2 C3 1_555 1_555
C4 C3 1_555 1_555
C5 C4 1_555 1_555
C6 C5 1_555 1_555
H3 C6 1_555 1_555
C7 C6 1_555 1_555
H4 C7 1_555 1_555
C8 C7 1_555 1_555
C9 C8 1_555 1_555
H5 C9 1_555 1_555
C10 C5 1_555 1_555
H6 C10 1_555 1_555
C11 C12 1_555 1_555
C12 H7 1_555 1_555
C13 C12 1_555 1_555
H8 C13 1_555 1_555
C14 C13 1_555 1_555
H9 C14 1_555 1_555
C15 C14 1_555 1_555
H10 C15 1_555 1_555
C16 C11 1_555 1_555
H11 C16 1_555 1_555
C17 C18 1_555 1_555
C18 H12 1_555 1_555
C19 C18 1_555 1_555
H13 C19 1_555 1_555
C20 C19 1_555 1_555
H14 C20 1_555 1_555
C21 C20 1_555 1_555
H15 C21 1_555 1_555
C22 C17 1_555 1_555
H16 C22 1_555 1_555
N1 C8 1_555 1_555
S1 C1 1_555 1_555
C23 C24 1_555 1_555
C24 H17 1_555 1_555
C25 C24 1_555 1_555
H18 C25 1_555 1_555
C26 C25 1_555 1_555
C27 C26 1_555 1_555
C28 C27 1_555 1_555
H19 C28 1_555 1_555
C29 C28 1_555 1_555
H20 C29 1_555 1_555
C30 C29 1_555 1_555
C31 C30 1_555 1_555
H21 C31 1_555 1_555
C32 C27 1_555 1_555
H22 C32 1_555 1_555
C33 C34 1_555 1_555
C34 H23 1_555 1_555
C35 C34 1_555 1_555
H24 C35 1_555 1_555
C36 C35 1_555 1_555
H25 C36 1_555 1_555
C37 C36 1_555 1_555
H26 C37 1_555 1_555
C38 C33 1_555 1_555
H27 C38 1_555 1_555
C39 C40 1_555 1_555
C40 H28 1_555 1_555
C41 C40 1_555 1_555
H29 C41 1_555 1_555
C42 C41 1_555 1_555
H30 C42 1_555 1_555
C43 C42 1_555 1_555
H31 C43 1_555 1_555
C44 C39 1_555 1_555
H32 C44 1_555 1_555
N2 C30 1_555 1_555
S2 C23 1_555 1_555
H33? C45? 1_555 1_555
H34? C45? 1_555 1_555
H35? C45? 1_555 1_555
O1? H36? 1_555 1_555
C45? O1? 1_555 1_555
C1A C1 1_555 1_555
C2A C1A 1_555 1_555
H1A C2A 1_555 1_555
C3A C2A 1_555 1_555
H2A C3A 1_555 1_555
C4A C3A 1_555 1_555
C5A C4A 1_555 1_555
C6A C5A 1_555 1_555
H3A C6A 1_555 1_555
C7A C6A 1_555 1_555
H4A C7A 1_555 1_555
C8A C7A 1_555 1_555
C9A C8A 1_555 1_555
H5A C9A 1_555 1_555
C10A C5A 1_555 1_555
H6A C10A 1_555 1_555
C11A C12A 1_555 1_555
C12A H7A 1_555 1_555
C13A C12A 1_555 1_555
H8A C13A 1_555 1_555
C14A C13A 1_555 1_555
H9A C14A 1_555 1_555
C15A C14A 1_555 1_555
H10A C15A 1_555 1_555
C16A C11A 1_555 1_555
H11A C16A 1_555 1_555
C17A C18A 1_555 1_555
C18A H12A 1_555 1_555
C19A C18A 1_555 1_555
H13A C19A 1_555 1_555
C20A C19A 1_555 1_555
H14A C20A 1_555 1_555
C21A C20A 1_555 1_555
H15A C21A 1_555 1_555
C22A C17A 1_555 1_555
H16A C22A 1_555 1_555
N1A C8A 1_555 1_555
S1A C1A 1_555 1_555
C23A C23 1_555 1_555
C24A C23A 1_555 1_555
H17A C24A 1_555 1_555
C25A C24A 1_555 1_555
H18A C25A 1_555 1_555
C26A C25A 1_555 1_555
C27A C26A 1_555 1_555
C28A C27A 1_555 1_555
H19A C28A 1_555 1_555
C29A C28A 1_555 1_555
H20A C29A 1_555 1_555
C30A C29A 1_555 1_555
C31A C30A 1_555 1_555
H21A C31A 1_555 1_555
C32A C27A 1_555 1_555
H22A C32A 1_555 1_555
C33A C34A 1_555 1_555
C34A H23A 1_555 1_555
C35A C34A 1_555 1_555
H24A C35A 1_555 1_555
C36A C35A 1_555 1_555
H25A C36A 1_555 1_555
C37A C36A 1_555 1_555
H26A C37A 1_555 1_555
C38A C33A 1_555 1_555
H27A C38A 1_555 1_555
C39A C40A 1_555 1_555
C40A H28A 1_555 1_555
C41A C40A 1_555 1_555
H29A C41A 1_555 1_555
C42A C41A 1_555 1_555
H30A C42A 1_555 1_555
C43A C42A 1_555 1_555
H31A C43A 1_555 1_555
C44A C39A 1_555 1_555
H32A C44A 1_555 1_555
N2A C30A 1_555 1_555
S2A C23A 1_555 1_555
C4 S1 1_555 1_555
C9 C10 1_555 1_555
C11 N1 1_555 1_555
C15 C16 1_555 1_555
C17 N1 1_555 1_555
C21 C22 1_555 1_555
C26 S2 1_555 1_555
C31 C32 1_555 1_555
C33 N2 1_555 1_555
C37 C38 1_555 1_555
C39 N2 1_555 1_555
C43 C44 1_555 1_555
C4A S1A 1_555 1_555
C9A C10A 1_555 1_555
C11A N1A 1_555 1_555
C15A C16A 1_555 1_555
C17A N1A 1_555 1_555
C21A C22A 1_555 1_555
C26A S2A 1_555 1_555
C31A C32A 1_555 1_555
C33A N2A 1_555 1_555
C37A C38A 1_555 1_555
C39A N2A 1_555 1_555
C43A C44A 1_555 1_555

#END
