
#######################################################################
#
#                 Cambridge Crystallographic Data Centre
#                                CCDC 
#
#######################################################################
#
# If this CIF has been generated from an entry in the Cambridge 
# Structural Database, then it will include bibliographic, chemical, 
# crystal, experimental, refinement or atomic coordinate data resulting 
# from the CCDC's data processing and validation procedures.
#
#######################################################################

data_WIPNUH
_chemical_formula_moiety         'C21 H21 O3 P1'
_chemical_name_systematic        
2-[(3,5-dimethylphenyl)(phenyl)phosphoryl]-4-methoxyphenol
_symmetry_cell_setting           orthorhombic
_symmetry_space_group_name_H-M   'A b a 2'
_symmetry_Int_Tables_number      41
_space_group_name_Hall           'A 2 -2ab'
loop_
_symmetry_equiv_pos_site_id
_symmetry_equiv_pos_as_xyz
1 x,y,z
2 -x,-y,z
3 1/2+x,1/2-y,z
4 1/2-x,1/2+y,z
5 x,1/2+y,1/2+z
6 -x,1/2-y,1/2+z
7 1/2+x,-y,1/2+z
8 1/2-x,y,1/2+z
_cell_length_a                   32.26(3)
_cell_length_b                   16.224(15)
_cell_length_c                   7.120(7)
_cell_angle_alpha                90
_cell_angle_beta                 90
_cell_angle_gamma                90
_cell_volume                     3726.51
_exptl_crystal_colour            white
_exptl_crystal_description       Block
_cell_formula_units_Z            8
loop_
_atom_site_label
_atom_site_type_symbol
_atom_site_fract_x
_atom_site_fract_y
_atom_site_fract_z
C1 C 0.42012(7) 0.80731(14) 0.6027(3)
C2 C 0.45520(7) 0.83902(16) 0.5102(4)
H1 H 0.4556 0.8424 0.3798
C3 C 0.48932(8) 0.86536(19) 0.6136(4)
C4 C 0.48805(9) 0.8603(2) 0.8080(5)
H2 H 0.5106 0.8785 0.8778
C5 C 0.45396(8) 0.82894(18) 0.8993(4)
H3 H 0.4539 0.8257 1.0297
C6 C 0.41949(7) 0.80194(15) 0.7980(4)
C7 C 0.37621(7) 0.65797(15) 0.4954(4)
C8 C 0.35591(8) 0.62200(16) 0.6476(4)
H4 H 0.3415 0.6548 0.7325
C9 C 0.35721(9) 0.53729(18) 0.6724(5)
H5 H 0.3432 0.5131 0.7724
C10 C 0.37950(11) 0.4886(2) 0.5477(6)
H6 H 0.3808 0.4319 0.5657
C11 C 0.39967(10) 0.52390(18) 0.3980(5)
H7 H 0.4147 0.4911 0.3153
C12 C 0.39771(9) 0.60781(17) 0.3703(5)
H8 H 0.4109 0.6312 0.2670
C13 C 0.33004(7) 0.81347(15) 0.5239(4)
C14 C 0.32910(8) 0.89456(16) 0.5870(4)
H9 H 0.3538 0.9232 0.6050
C15 C 0.29096(8) 0.93331(18) 0.6237(4)
C16 C 0.25472(8) 0.88848(19) 0.5961(4)
H10 H 0.2294 0.9136 0.6209
C17 C 0.25497(8) 0.80777(18) 0.5331(4)
C18 C 0.29324(8) 0.77055(16) 0.4968(3)
H11 H 0.2941 0.7164 0.4541
C19 C 0.52914(11) 0.8960(2) 0.3379(6)
H12 H 0.5553 0.9197 0.3034
H13 H 0.5278 0.8401 0.2937
H14 H 0.5071 0.9274 0.2825
C20 C 0.28928(11) 1.0211(2) 0.6932(7)
H15 H 0.3169 1.0424 0.7041
H16 H 0.2738 1.0541 0.6059
H17 H 0.2760 1.0226 0.8138
C21 C 0.21491(9) 0.7611(2) 0.5024(5)
H18 H 0.2210 0.7064 0.4589
H19 H 0.1999 0.7580 0.6186
H20 H 0.1984 0.7892 0.4103
O1 O 0.38917(6) 0.78583(12) 0.2524(3)
O2 O 0.38529(6) 0.76988(12) 0.8821(3)
H21 H 0.3872 0.7754 0.9962
O3 O 0.52500(6) 0.89693(18) 0.5359(4)
P1 P 0.37897(2) 0.76806(4) 0.45333(9)
loop_
_geom_bond_atom_site_label_1
_geom_bond_atom_site_label_2
_geom_bond_site_symmetry_1
_geom_bond_site_symmetry_2
C1 C2 1_555 1_555
C2 H1 1_555 1_555
C3 C2 1_555 1_555
C4 C3 1_555 1_555
H2 C4 1_555 1_555
C5 C4 1_555 1_555
H3 C5 1_555 1_555
C6 C1 1_555 1_555
C7 C8 1_555 1_555
C8 H4 1_555 1_555
C9 C8 1_555 1_555
H5 C9 1_555 1_555
C10 C9 1_555 1_555
H6 C10 1_555 1_555
C11 C10 1_555 1_555
H7 C11 1_555 1_555
C12 C7 1_555 1_555
H8 C12 1_555 1_555
C13 C14 1_555 1_555
C14 H9 1_555 1_555
C15 C14 1_555 1_555
C16 C15 1_555 1_555
H10 C16 1_555 1_555
C17 C16 1_555 1_555
C18 C13 1_555 1_555
H11 C18 1_555 1_555
C19 H12 1_555 1_555
H13 C19 1_555 1_555
H14 C19 1_555 1_555
C20 C15 1_555 1_555
H15 C20 1_555 1_555
H16 C20 1_555 1_555
H17 C20 1_555 1_555
C21 C17 1_555 1_555
H18 C21 1_555 1_555
H19 C21 1_555 1_555
H20 C21 1_555 1_555
O1 P1 1_555 1_555
O2 C6 1_555 1_555
H21 O2 1_555 1_555
O3 C3 1_555 1_555
P1 C1 1_555 1_555
C5 C6 1_555 1_555
C7 P1 1_555 1_555
C11 C12 1_555 1_555
C13 P1 1_555 1_555
C17 C18 1_555 1_555
C19 O3 1_555 1_555

#END
