
#######################################################################
#
#                 Cambridge Crystallographic Data Centre
#                                CCDC 
#
#######################################################################
#
# If this CIF has been generated from an entry in the Cambridge 
# Structural Database, then it will include bibliographic, chemical, 
# crystal, experimental, refinement or atomic coordinate data resulting 
# from the CCDC's data processing and validation procedures.
#
#######################################################################

data_WIPNOB
_chemical_formula_moiety         'C20 H19 O3 P1'
_chemical_name_systematic        
2-(diphenylphosphoryl)-4-methoxy-5-methylphenol
_symmetry_cell_setting           monoclinic
_symmetry_space_group_name_H-M   'C 2/c'
_symmetry_Int_Tables_number      15
_space_group_name_Hall           '-C 2yn'
loop_
_symmetry_equiv_pos_site_id
_symmetry_equiv_pos_as_xyz
1 x,y,z
2 -x,y,1/2-z
3 1/2+x,1/2+y,z
4 1/2-x,1/2+y,1/2-z
5 -x,-y,-z
6 x,-y,1/2+z
7 1/2-x,1/2-y,-z
8 1/2+x,1/2-y,1/2+z
_cell_length_a                   18.086(10)
_cell_length_b                   11.245(6)
_cell_length_c                   17.491(10)
_cell_angle_alpha                90
_cell_angle_beta                 98.109(7)
_cell_angle_gamma                90
_cell_volume                     3521.7
_exptl_crystal_colour            white
_exptl_crystal_description       Block
_cell_formula_units_Z            8
loop_
_atom_site_label
_atom_site_type_symbol
_atom_site_fract_x
_atom_site_fract_y
_atom_site_fract_z
C1 C 0.25152(16) 0.5937(2) 0.35863(15)
H1 H 0.2949 0.6012 0.3360
C2 C 0.25305(19) 0.6183(3) 0.43695(16)
H2 H 0.2975 0.6416 0.4666
C3 C 0.1897(2) 0.6081(3) 0.47012(17)
H3 H 0.1910 0.6239 0.5225
C4 C 0.1242(2) 0.5748(3) 0.42680(17)
H4 H 0.0808 0.5691 0.4495
C5 C 0.12221(17) 0.5495(3) 0.34949(16)
H5 H 0.0775 0.5263 0.3205
C6 C 0.18586(15) 0.5584(2) 0.31453(13)
C7 C 0.11846(13) 0.4143(2) 0.18619(14)
C8 C 0.12168(16) 0.3085(2) 0.22761(18)
H6 H 0.1547 0.3009 0.2732
C9 C 0.07594(18) 0.2147(3) 0.2012(2)
H7 H 0.0787 0.1435 0.2285
C10 C 0.02612(18) 0.2266(3) 0.1345(2)
H8 H -0.0047 0.1632 0.1167
C11 C 0.02177(18) 0.3303(3) 0.09439(19)
H9 H -0.0122 0.3376 0.0495
C12 C 0.06732(15) 0.4251(3) 0.11975(15)
H10 H 0.0636 0.4961 0.0922
C13 C 0.26997(13) 0.4988(2) 0.18784(13)
C14 C 0.29434(14) 0.5561(2) 0.12470(13)
H11 H 0.2666 0.6190 0.1010
C15 C 0.35858(14) 0.5210(2) 0.09732(14)
C16 C 0.40188(14) 0.4287(2) 0.13239(15)
C17 C 0.37899(14) 0.3738(2) 0.19618(14)
H12 H 0.4082 0.3134 0.2210
C18 C 0.31370(14) 0.4067(2) 0.22392(13)
C19 C 0.34353(18) 0.6671(3) -0.00408(17)
H13 H 0.3676 0.6938 -0.0465
H14 H 0.2939 0.6406 -0.0231
H15 H 0.3411 0.7314 0.0316
C20 C 0.47168(17) 0.3871(3) 0.10161(18)
H16 H 0.4793 0.4344 0.0577
H17 H 0.5140 0.3953 0.1411
H18 H 0.4661 0.3051 0.0865
O1 O 0.15028(9) 0.64735(14) 0.16846(9)
O2 O 0.38498(10) 0.57150(18) 0.03415(10)
O3 O 0.28992(10) 0.35240(15) 0.28583(9)
H19 H 0.3123 0.2894 0.2947
P1 P 0.17996(4) 0.53838(6) 0.21210(3)
loop_
_geom_bond_atom_site_label_1
_geom_bond_atom_site_label_2
_geom_bond_site_symmetry_1
_geom_bond_site_symmetry_2
C1 H1 1_555 1_555
C2 C1 1_555 1_555
H2 C2 1_555 1_555
C3 C2 1_555 1_555
H3 C3 1_555 1_555
C4 C3 1_555 1_555
H4 C4 1_555 1_555
C5 C4 1_555 1_555
H5 C5 1_555 1_555
C6 C1 1_555 1_555
C7 C8 1_555 1_555
C8 H6 1_555 1_555
C9 C8 1_555 1_555
H7 C9 1_555 1_555
C10 C9 1_555 1_555
H8 C10 1_555 1_555
C11 C10 1_555 1_555
H9 C11 1_555 1_555
C12 C7 1_555 1_555
H10 C12 1_555 1_555
C13 C14 1_555 1_555
C14 H11 1_555 1_555
C15 C14 1_555 1_555
C16 C15 1_555 1_555
C17 C16 1_555 1_555
H12 C17 1_555 1_555
C18 C13 1_555 1_555
C19 H13 1_555 1_555
H14 C19 1_555 1_555
H15 C19 1_555 1_555
C20 C16 1_555 1_555
H16 C20 1_555 1_555
H17 C20 1_555 1_555
H18 C20 1_555 1_555
O1 P1 1_555 1_555
O2 C15 1_555 1_555
O3 C18 1_555 1_555
H19 O3 1_555 1_555
P1 C6 1_555 1_555
C5 C6 1_555 1_555
C7 P1 1_555 1_555
C11 C12 1_555 1_555
C13 P1 1_555 1_555
C17 C18 1_555 1_555
C19 O2 1_555 1_555

#END
