
#######################################################################
#
#                 Cambridge Crystallographic Data Centre
#                                CCDC 
#
#######################################################################
#
# If this CIF has been generated from an entry in the Cambridge 
# Structural Database, then it will include bibliographic, chemical, 
# crystal, experimental, refinement or atomic coordinate data resulting 
# from the CCDC's data processing and validation procedures.
#
#######################################################################

data_WIPNEQ
_chemical_formula_moiety         'C20 H30 O4'
_chemical_name_systematic        '16,17-Dihydroxybeyer-9(11)-en-18-oic acid'
_symmetry_cell_setting           orthorhombic
_symmetry_space_group_name_H-M   'P 21 21 21'
_symmetry_Int_Tables_number      19
_space_group_name_Hall           'P 2ac 2ab'
loop_
_symmetry_equiv_pos_site_id
_symmetry_equiv_pos_as_xyz
1 x,y,z
2 1/2-x,-y,1/2+z
3 -x,1/2+y,1/2-z
4 1/2+x,1/2-y,-z
_cell_length_a                   7.3140(4)
_cell_length_b                   10.8789(7)
_cell_length_c                   22.9393(14)
_cell_angle_alpha                90
_cell_angle_beta                 90
_cell_angle_gamma                90
_cell_volume                     1825.24
_cell_formula_units_Z            4
loop_
_atom_site_label
_atom_site_type_symbol
_atom_site_fract_x
_atom_site_fract_y
_atom_site_fract_z
O1 O 0.5494(3) 0.5979(2) -0.18012(11)
O2 O 0.7757(3) 0.5970(2) -0.11611(10)
H1 H 0.8232 0.6433 -0.1399
O3 O 0.4731(3) 0.74614(18) 0.18005(10)
H2 H 0.5385 0.7925 0.1990
O4 O 0.2955(3) 0.3896(2) 0.25620(9)
H3 H 0.3537 0.3396 0.2754
C1 C 0.2199(4) 0.4989(3) -0.03774(14)
H4 H 0.1802 0.4200 -0.0227
H5 H 0.1322 0.5602 -0.0250
C2 C 0.2183(4) 0.4938(3) -0.10351(14)
H6 H 0.0987 0.4671 -0.1167
H7 H 0.2398 0.5756 -0.1189
C3 C 0.3617(5) 0.4074(3) -0.12710(14)
H8 H 0.3585 0.4100 -0.1694
H9 H 0.3318 0.3242 -0.1152
C4 C 0.5541(4) 0.4376(3) -0.10670(13)
C5 C 0.5529(4) 0.4419(3) -0.03863(13)
H10 H 0.5105 0.3598 -0.0273
C6 C 0.7361(4) 0.4545(3) -0.00800(13)
H11 H 0.8268 0.4044 -0.0276
H12 H 0.7763 0.5395 -0.0094
C7 C 0.7177(4) 0.4140(3) 0.05464(13)
H13 H 0.8361 0.4206 0.0735
H14 H 0.6821 0.3281 0.0554
C8 C 0.5788(4) 0.4884(3) 0.08941(14)
C9 C 0.4033(4) 0.5132(3) 0.05520(13)
C10 C 0.4085(4) 0.5301(3) -0.01132(12)
C11 C 0.2567(5) 0.5430(3) 0.08656(14)
H15 H 0.1525 0.5664 0.0662
C12 C 0.2446(5) 0.5423(3) 0.15116(13)
H16 H 0.1611 0.4778 0.1632
H17 H 0.1944 0.6201 0.1642
C13 C 0.4295(4) 0.5218(3) 0.18092(14)
C14 C 0.5307(5) 0.4226(3) 0.14658(12)
H18 H 0.4529 0.3519 0.1395
H19 H 0.6400 0.3960 0.1669
C15 C 0.6543(4) 0.6132(3) 0.11304(14)
H20 H 0.7863 0.6103 0.1168
H21 H 0.6218 0.6802 0.0871
C16 C 0.5639(5) 0.6297(3) 0.17278(13)
H22 H 0.6590 0.6230 0.2027
C17 C 0.4071(5) 0.4955(3) 0.24513(14)
H23 H 0.5267 0.4827 0.2623
H24 H 0.3523 0.5665 0.2638
C18 C 0.6831(5) 0.3349(3) -0.12829(15)
H25 H 0.6838 0.3338 -0.1701
H26 H 0.6411 0.2570 -0.1139
H27 H 0.8047 0.3502 -0.1142
C19 C 0.6197(5) 0.5532(3) -0.13789(16)
C20 C 0.4535(5) 0.6659(3) -0.02455(14)
H28 H 0.3625 0.7178 -0.0071
H29 H 0.4544 0.6786 -0.0660
H30 H 0.5714 0.6858 -0.0088
loop_
_geom_bond_atom_site_label_1
_geom_bond_atom_site_label_2
_geom_bond_site_symmetry_1
_geom_bond_site_symmetry_2
O1 C19 1_555 1_555
O2 H1 1_555 1_555
O3 H2 1_555 1_555
O4 H3 1_555 1_555
C1 H4 1_555 1_555
H5 C1 1_555 1_555
C2 C1 1_555 1_555
H6 C2 1_555 1_555
H7 C2 1_555 1_555
C3 C2 1_555 1_555
H8 C3 1_555 1_555
H9 C3 1_555 1_555
C4 C3 1_555 1_555
C5 C4 1_555 1_555
H10 C5 1_555 1_555
C6 C5 1_555 1_555
H11 C6 1_555 1_555
H12 C6 1_555 1_555
C7 C6 1_555 1_555
H13 C7 1_555 1_555
H14 C7 1_555 1_555
C8 C7 1_555 1_555
C9 C8 1_555 1_555
C10 C1 1_555 1_555
C11 C9 1_555 1_555
H15 C11 1_555 1_555
C12 C11 1_555 1_555
H16 C12 1_555 1_555
H17 C12 1_555 1_555
C13 C12 1_555 1_555
C14 C8 1_555 1_555
H18 C14 1_555 1_555
H19 C14 1_555 1_555
C15 C8 1_555 1_555
H20 C15 1_555 1_555
H21 C15 1_555 1_555
C16 O3 1_555 1_555
H22 C16 1_555 1_555
C17 O4 1_555 1_555
H23 C17 1_555 1_555
H24 C17 1_555 1_555
C18 C4 1_555 1_555
H25 C18 1_555 1_555
H26 C18 1_555 1_555
H27 C18 1_555 1_555
C19 O2 1_555 1_555
C20 C10 1_555 1_555
H28 C20 1_555 1_555
H29 C20 1_555 1_555
H30 C20 1_555 1_555
C4 C19 1_555 1_555
C5 C10 1_555 1_555
C9 C10 1_555 1_555
C13 C14 1_555 1_555
C13 C16 1_555 1_555
C13 C17 1_555 1_555
C15 C16 1_555 1_555

#END
