
#######################################################################
#
#                 Cambridge Crystallographic Data Centre
#                                CCDC 
#
#######################################################################
#
# If this CIF has been generated from an entry in the Cambridge 
# Structural Database, then it will include bibliographic, chemical, 
# crystal, experimental, refinement or atomic coordinate data resulting 
# from the CCDC's data processing and validation procedures.
#
#######################################################################

data_WIPRIY
_chemical_formula_moiety         'C18 H12 F3 N1 O1'
_chemical_name_systematic        
2-(2-(2-(Trifluoromethyl)phenyl)vinyl)quinolin-8-ol
_symmetry_cell_setting           monoclinic
_symmetry_space_group_name_H-M   'P 21'
_symmetry_Int_Tables_number      4
_space_group_name_Hall           'P 2yb'
loop_
_symmetry_equiv_pos_site_id
_symmetry_equiv_pos_as_xyz
1 x,y,z
2 -x,1/2+y,-z
_cell_length_a                   4.7745(12)
_cell_length_b                   9.809(2)
_cell_length_c                   15.104(4)
_cell_angle_alpha                90
_cell_angle_beta                 96.584(4)
_cell_angle_gamma                90
_cell_volume                     702.701
_cell_formula_units_Z            2
loop_
_atom_site_label
_atom_site_type_symbol
_atom_site_fract_x
_atom_site_fract_y
_atom_site_fract_z
F1 F 0.1788(2) 0.73596(15) 0.50216(7)
F2 F -0.1516(3) 0.86955(14) 0.53257(7)
F3 F -0.2474(2) 0.69451(14) 0.45036(7)
O1 O 1.0435(3) 0.94811(16) 1.03032(9)
H1 H 0.910(5) 0.900(2) 1.0080(8)
N1 N 0.7606(3) 0.93683(16) 0.86585(10)
C1 C 0.9648(3) 1.03354(19) 0.88088(11)
C2 C 1.0345(4) 1.12745(19) 0.81599(13)
C3 C 0.8757(4) 1.1182(2) 0.73151(12)
H2 H 0.9122 1.1790 0.6852
C4 C 0.6698(4) 1.0219(2) 0.71624(12)
H3 H 0.5628 1.0156 0.6593
C5 C 0.6152(4) 0.93083(19) 0.78562(11)
C6 C 1.2536(4) 1.2220(2) 0.83915(14)
H4 H 1.3020 1.2861 0.7963
C7 C 1.3967(4) 1.2217(2) 0.92300(14)
H5 H 1.5454 1.2850 0.9374
C8 C 1.3274(4) 1.1295(2) 0.98789(14)
H6 H 1.4282 1.1311 1.0459
C9 C 1.1147(4) 1.0373(2) 0.96775(12)
C10 C 0.4000(4) 0.82416(19) 0.77369(12)
H7 H 0.3732 0.7713 0.8247
C11 C 0.2386(4) 0.7936(2) 0.69903(12)
H8 H 0.2604 0.8478 0.6481
C12 C 0.0288(4) 0.68344(19) 0.68794(11)
C13 C -0.1251(4) 0.65443(19) 0.60439(11)
C14 C -0.3170(4) 0.5477(2) 0.59559(12)
H9 H -0.4174 0.5287 0.5389
C15 C -0.3639(4) 0.4689(2) 0.66780(14)
H10 H -0.4952 0.3958 0.6609
C16 C -0.2188(4) 0.4966(2) 0.75063(13)
H11 H -0.2514 0.4432 0.8009
C17 C -0.0268(4) 0.6021(2) 0.75967(12)
H12 H 0.0712 0.6201 0.8168
C18 C -0.0862(4) 0.7368(2) 0.52357(11)
loop_
_geom_bond_atom_site_label_1
_geom_bond_atom_site_label_2
_geom_bond_site_symmetry_1
_geom_bond_site_symmetry_2
F1 C18 1_555 1_555
F2 C18 1_555 1_555
F3 C18 1_555 1_555
O1 H1 1_555 1_555
N1 C1 1_555 1_555
C1 C2 1_555 1_555
C2 C3 1_555 1_555
C3 H2 1_555 1_555
C4 C3 1_555 1_555
H3 C4 1_555 1_555
C5 N1 1_555 1_555
C6 C2 1_555 1_555
H4 C6 1_555 1_555
C7 C6 1_555 1_555
H5 C7 1_555 1_555
C8 C7 1_555 1_555
H6 C8 1_555 1_555
C9 O1 1_555 1_555
C10 C5 1_555 1_555
H7 C10 1_555 1_555
C11 C10 1_555 1_555
H8 C11 1_555 1_555
C12 C11 1_555 1_555
C13 C12 1_555 1_555
C14 C13 1_555 1_555
H9 C14 1_555 1_555
C15 C14 1_555 1_555
H10 C15 1_555 1_555
C16 C15 1_555 1_555
H11 C16 1_555 1_555
C17 C12 1_555 1_555
H12 C17 1_555 1_555
C18 C13 1_555 1_555
C1 C9 1_555 1_555
C4 C5 1_555 1_555
C8 C9 1_555 1_555
C16 C17 1_555 1_555

#END
