
#######################################################################
#
#                 Cambridge Crystallographic Data Centre
#                                CCDC 
#
#######################################################################
#
# If this CIF has been generated from an entry in the Cambridge 
# Structural Database, then it will include bibliographic, chemical, 
# crystal, experimental, refinement or atomic coordinate data resulting 
# from the CCDC's data processing and validation procedures.
#
#######################################################################

data_WIPXIE
_chemical_formula_moiety         'C9 H9 N1 O2 S1'
_chemical_name_systematic        2-(2-Hydroxyethyl)-1,2-benzothiazol-3(2H)-one
_symmetry_cell_setting           monoclinic
_symmetry_space_group_name_H-M   'P n'
_symmetry_Int_Tables_number      7
_space_group_name_Hall           'P -2yac'
loop_
_symmetry_equiv_pos_site_id
_symmetry_equiv_pos_as_xyz
1 x,y,z
2 1/2+x,-y,1/2+z
_cell_length_a                   10.552(3)
_cell_length_b                   7.849(2)
_cell_length_c                   10.765(4)
_cell_angle_alpha                90
_cell_angle_beta                 103.128(4)
_cell_angle_gamma                90
_cell_volume                     868.284
_exptl_crystal_colour            colorless
_exptl_crystal_description       Block
_cell_formula_units_Z            4
loop_
_atom_site_label
_atom_site_type_symbol
_atom_site_fract_x
_atom_site_fract_y
_atom_site_fract_z
S1 S 0.36806(5) 0.78498(7) 0.17690(5)
O1 O 0.27503(14) 0.9127(2) -0.17320(13)
O2 O 0.65830(17) 0.8110(2) 0.17787(15)
N1 N 0.38485(18) 0.8162(2) 0.02430(16)
C1 C 0.2129(2) 0.8725(3) 0.1383(2)
C2 C 0.1298(2) 0.8988(3) 0.2205(2)
H1 H 0.1545 0.8668 0.3078
C3 C 0.0100(2) 0.9732(3) 0.1702(2)
H2 H -0.0485 0.9928 0.2240
C4 C -0.0262(2) 1.0200(3) 0.0411(2)
H3 H -0.1092 1.0697 0.0084
C5 C 0.0570(2) 0.9947(3) -0.0385(2)
H4 H 0.0324 1.0273 -0.1257
C6 C 0.1780(2) 0.9206(3) 0.01050(18)
C7 C 0.2787(2) 0.8860(3) -0.05815(19)
C8 C 0.5007(2) 0.7564(3) -0.0149(2)
H5 H 0.4860 0.7661 -0.1087
H6 H 0.5142 0.6345 0.0077
C9 C 0.6222(2) 0.8540(3) 0.0459(2)
H7 H 0.6935 0.8243 0.0038
H8 H 0.6058 0.9780 0.0359
H9 H 0.682(3) 0.905(4) 0.210(3)
S2 S 0.57332(5) 0.54482(7) 0.43824(5)
O3 O 0.63021(16) 0.5828(2) 0.79775(13)
O4 O 0.26919(17) 0.6510(2) 0.46331(16)
N2 N 0.54063(18) 0.5375(2) 0.58631(17)
C10 C 0.7280(2) 0.6218(3) 0.50289(19)
C11 C 0.8257(2) 0.6591(3) 0.4392(2)
H10 H 0.8121 0.6444 0.3495
C12 C 0.9430(2) 0.7181(3) 0.5106(2)
H11 H 1.0112 0.7424 0.4690
C13 C 0.9643(2) 0.7430(3) 0.6423(2)
H12 H 1.0461 0.7835 0.6891
C14 C 0.8665(2) 0.7087(3) 0.70348(19)
H13 H 0.8796 0.7285 0.7926
C15 C 0.7482(2) 0.6450(3) 0.63504(18)
C16 C 0.6381(2) 0.5890(3) 0.68455(19)
C17 C 0.4193(2) 0.4604(3) 0.6042(2)
H14 H 0.4353 0.4096 0.6905
H15 H 0.3942 0.3672 0.5415
C18 C 0.3075(2) 0.5843(3) 0.5893(2)
H16 H 0.2322 0.5260 0.6111
H17 H 0.3331 0.6797 0.6500
H18 H 0.224(3) 0.572(4) 0.410(3)
loop_
_geom_bond_atom_site_label_1
_geom_bond_atom_site_label_2
_geom_bond_site_symmetry_1
_geom_bond_site_symmetry_2
S1 N1 1_555 1_555
O1 C7 1_555 1_555
O2 C9 1_555 1_555
N1 C7 1_555 1_555
C1 S1 1_555 1_555
C2 C1 1_555 1_555
H1 C2 1_555 1_555
C3 C2 1_555 1_555
H2 C3 1_555 1_555
C4 C3 1_555 1_555
H3 C4 1_555 1_555
C5 C4 1_555 1_555
H4 C5 1_555 1_555
C6 C1 1_555 1_555
C7 C6 1_555 1_555
C8 N1 1_555 1_555
H5 C8 1_555 1_555
H6 C8 1_555 1_555
C9 C8 1_555 1_555
H7 C9 1_555 1_555
H8 C9 1_555 1_555
H9 O2 1_555 1_555
S2 N2 1_555 1_555
O3 C16 1_555 1_555
O4 C18 1_555 1_555
N2 C16 1_555 1_555
C10 S2 1_555 1_555
C11 C10 1_555 1_555
H10 C11 1_555 1_555
C12 C11 1_555 1_555
H11 C12 1_555 1_555
C13 C12 1_555 1_555
H12 C13 1_555 1_555
C14 C13 1_555 1_555
H13 C14 1_555 1_555
C15 C10 1_555 1_555
C16 C15 1_555 1_555
C17 N2 1_555 1_555
H14 C17 1_555 1_555
H15 C17 1_555 1_555
C18 C17 1_555 1_555
H16 C18 1_555 1_555
H17 C18 1_555 1_555
H18 O4 1_555 1_555
C5 C6 1_555 1_555
C14 C15 1_555 1_555

#END
