
#######################################################################
#
#                 Cambridge Crystallographic Data Centre
#                                CCDC 
#
#######################################################################
#
# If this CIF has been generated from an entry in the Cambridge 
# Structural Database, then it will include bibliographic, chemical, 
# crystal, experimental, refinement or atomic coordinate data resulting 
# from the CCDC's data processing and validation procedures.
#
#######################################################################

data_WIPXOK
_chemical_formula_moiety         'C17 H15 N1 O4 S1'
_chemical_name_systematic        
'2-(3-Oxo-1,2-benzothiazol-2(3H)-yl)ethyl 3-methoxybenzoate'
_symmetry_cell_setting           triclinic
_symmetry_space_group_name_H-M   'P -1'
_symmetry_Int_Tables_number      2
_space_group_name_Hall           '-P 1'
loop_
_symmetry_equiv_pos_site_id
_symmetry_equiv_pos_as_xyz
1 x,y,z
2 -x,-y,-z
_cell_length_a                   8.028(2)
_cell_length_b                   9.300(2)
_cell_length_c                   10.430(3)
_cell_angle_alpha                82.863(7)
_cell_angle_beta                 84.678(8)
_cell_angle_gamma                77.321(6)
_cell_volume                     752.106
_exptl_crystal_colour            colorless
_exptl_crystal_description       Chunk
_cell_formula_units_Z            2
loop_
_atom_site_label
_atom_site_type_symbol
_atom_site_fract_x
_atom_site_fract_y
_atom_site_fract_z
S1 S 0.32126(4) 0.41430(4) 0.20766(3)
O1 O 0.27457(12) 0.08388(10) 0.32196(9)
O2 O 0.67947(12) 0.17743(11) 0.01383(10)
O3 O 0.39717(13) -0.12422(11) 0.44102(11)
O4 O -0.15959(12) 0.37462(11) 0.61837(10)
N1 N 0.42246(14) 0.27456(12) 0.11786(11)
C1 C 0.50606(16) 0.48557(14) 0.19351(13)
C2 C 0.52920(17) 0.61146(14) 0.24444(13)
H1 H 0.4380 0.6715 0.2907
C3 C 0.68942(17) 0.64548(15) 0.22505(14)
H2 H 0.7082 0.7307 0.2584
C4 C 0.82480(17) 0.55725(16) 0.15742(14)
H3 H 0.9342 0.5822 0.1467
C5 C 0.80003(17) 0.43460(16) 0.10644(14)
H4 H 0.8915 0.3748 0.0602
C6 C 0.63838(16) 0.39938(14) 0.12363(13)
C7 C 0.59024(16) 0.27303(14) 0.07728(13)
C8 C 0.33893(17) 0.15462(15) 0.10028(13)
H5 H 0.3821 0.1161 0.0165
H6 H 0.2142 0.1942 0.0970
C9 C 0.36989(17) 0.02922(15) 0.20744(13)
H7 H 0.3301 -0.0574 0.1850
H8 H 0.4934 -0.0012 0.2219
C10 C 0.29806(17) -0.00600(15) 0.43308(14)
C11 C 0.18481(16) 0.05702(14) 0.54309(13)
C12 C 0.19674(17) -0.02168(15) 0.66493(14)
H9 H 0.2775 -0.1128 0.6777
C13 C 0.09030(17) 0.03320(16) 0.76802(14)
H10 H 0.0986 -0.0205 0.8516
C14 C -0.02799(17) 0.16559(15) 0.75013(13)
H11 H -0.1005 0.2029 0.8211
C15 C -0.03991(16) 0.24362(14) 0.62724(13)
C16 C 0.06620(16) 0.19079(15) 0.52312(13)
H12 H 0.0583 0.2447 0.4396
C17 C -0.20772(19) 0.43973(16) 0.49203(14)
H13 H -0.1091 0.4699 0.4422
H14 H -0.3009 0.5268 0.4997
H15 H -0.2461 0.3672 0.4476
loop_
_geom_bond_atom_site_label_1
_geom_bond_atom_site_label_2
_geom_bond_site_symmetry_1
_geom_bond_site_symmetry_2
S1 N1 1_555 1_555
O1 C9 1_555 1_555
O2 C7 1_555 1_555
O3 C10 1_555 1_555
O4 C15 1_555 1_555
N1 C7 1_555 1_555
C1 S1 1_555 1_555
C2 C1 1_555 1_555
H1 C2 1_555 1_555
C3 C2 1_555 1_555
H2 C3 1_555 1_555
C4 C3 1_555 1_555
H3 C4 1_555 1_555
C5 C4 1_555 1_555
H4 C5 1_555 1_555
C6 C1 1_555 1_555
C7 C6 1_555 1_555
C8 N1 1_555 1_555
H5 C8 1_555 1_555
H6 C8 1_555 1_555
C9 C8 1_555 1_555
H7 C9 1_555 1_555
H8 C9 1_555 1_555
C10 O1 1_555 1_555
C11 C10 1_555 1_555
C12 C11 1_555 1_555
H9 C12 1_555 1_555
C13 C12 1_555 1_555
H10 C13 1_555 1_555
C14 C13 1_555 1_555
H11 C14 1_555 1_555
C15 C14 1_555 1_555
C16 C11 1_555 1_555
H12 C16 1_555 1_555
C17 O4 1_555 1_555
H13 C17 1_555 1_555
H14 C17 1_555 1_555
H15 C17 1_555 1_555
C5 C6 1_555 1_555
C15 C16 1_555 1_555

#END
