
#######################################################################
#
#                 Cambridge Crystallographic Data Centre
#                                CCDC 
#
#######################################################################
#
# If this CIF has been generated from an entry in the Cambridge 
# Structural Database, then it will include bibliographic, chemical, 
# crystal, experimental, refinement or atomic coordinate data resulting 
# from the CCDC's data processing and validation procedures.
#
#######################################################################

data_WIQDUY
_chemical_formula_moiety         'C23 H24 F1 N3 O1 S1'
_chemical_name_systematic        
1-[4-(3,4-dihydroquinoline-1(2H)-carbonothioyl)piperazin-1-yl]-3-(4-fluorophenyl)prop-2-en-1-one
_symmetry_cell_setting           monoclinic
_symmetry_space_group_name_H-M   'P 21/c'
_symmetry_Int_Tables_number      14
_space_group_name_Hall           '-P 2ybc'
loop_
_symmetry_equiv_pos_site_id
_symmetry_equiv_pos_as_xyz
1 x,y,z
2 -x,1/2+y,1/2-z
3 -x,-y,-z
4 x,1/2-y,1/2+z
_cell_length_a                   19.8075(18)
_cell_length_b                   5.9150(4)
_cell_length_c                   17.460(2)
_cell_angle_alpha                90
_cell_angle_beta                 102.567(12)
_cell_angle_gamma                90
_cell_volume                     1996.63
_cell_formula_units_Z            4
_exptl_crystal_recrystallization_method 'acetic ether'
loop_
_atom_site_label
_atom_site_type_symbol
_atom_site_fract_x
_atom_site_fract_y
_atom_site_fract_z
S1 S 0.30661(3) 0.74271(8) 0.45258(4)
F1 F -0.22582(7) 0.40832(18) -0.12485(7)
O1 O 0.02508(8) 1.3256(2) 0.17428(9)
N1 N 0.23924(10) 0.9610(2) 0.32583(10)
N2 N 0.35661(10) 1.0350(3) 0.36206(10)
N3 N 0.10338(9) 1.0662(2) 0.23191(10)
C1 C 0.00148(12) 0.9405(3) 0.13851(12)
H1 H 0.0165 0.7916 0.1465
C2 C 0.17770(12) 0.8288(3) 0.33032(13)
H2 H 0.1566 0.8906 0.3710
H3 H 0.1910 0.6738 0.3442
C3 C -0.05662(12) 0.9857(3) 0.08734(13)
H4 H -0.0709 1.1359 0.0844
C4 C 0.04303(12) 1.1255(3) 0.18334(13)
C5 C 0.12594(12) 0.8328(3) 0.25280(13)
H5 H 0.1468 0.7695 0.2122
H6 H 0.0862 0.7408 0.2564
C6 C 0.30015(12) 0.9202(3) 0.37584(12)
C7 C -0.07810(12) 0.6136(3) 0.01825(13)
H7 H -0.0343 0.5646 0.0435
C8 C -0.16775(13) 0.8935(3) -0.00318(13)
H8 H -0.1837 1.0358 0.0070
C9 C 0.22588(12) 1.1640(3) 0.27553(13)
H9 H 0.2340 1.1295 0.2240
H10 H 0.2573 1.2840 0.2982
C10 C -0.10117(12) 0.8282(3) 0.03482(13)
C11 C -0.18493(13) 0.5470(4) -0.07084(13)
C12 C 0.35169(11) 0.8959(3) 0.22746(13)
H11 H 0.3289 0.7653 0.2375
C13 C 0.15159(13) 1.2420(3) 0.26800(15)
H12 H 0.1437 1.2779 0.3196
H13 H 0.1437 1.3780 0.2362
C14 C 0.37020(11) 1.0582(3) 0.28517(13)
C15 C 0.42085(14) 1.2818(4) 0.19886(17)
H14 H 0.4445 1.4104 0.1888
C16 C 0.42610(13) 1.4092(3) 0.34028(15)
H15 H 0.3855 1.4836 0.3510
H16 H 0.4575 1.5242 0.3290
C17 C -0.21058(13) 0.7532(3) -0.05548(14)
H17 H -0.2553 0.7972 -0.0794
C18 C 0.40128(14) 1.1212(4) 0.14017(15)
H18 H 0.4112 1.1436 0.0910
C19 C -0.12009(12) 0.4740(3) -0.03552(13)
H19 H -0.1045 0.3327 -0.0475
C20 C 0.41668(13) 1.0726(4) 0.42724(14)
H20 H 0.4445 0.9363 0.4357
H21 H 0.4006 1.1034 0.4748
C21 C 0.40569(13) 1.2537(3) 0.27183(16)
C22 C 0.36712(13) 0.9283(4) 0.15503(14)
H22 H 0.3545 0.8198 0.1160
C23 C 0.46142(15) 1.2697(3) 0.41090(16)
H23 H 0.4721 1.3666 0.4568
H24 H 0.5047 1.2110 0.4017
loop_
_geom_bond_atom_site_label_1
_geom_bond_atom_site_label_2
_geom_bond_site_symmetry_1
_geom_bond_site_symmetry_2
S1 C6 1_555 1_555
F1 C11 1_555 1_555
O1 C4 1_555 1_555
N1 C2 1_555 1_555
N2 C6 1_555 1_555
N3 C4 1_555 1_555
C1 H1 1_555 1_555
C2 H2 1_555 1_555
H3 C2 1_555 1_555
C3 C1 1_555 1_555
H4 C3 1_555 1_555
C4 C1 1_555 1_555
C5 N3 1_555 1_555
H5 C5 1_555 1_555
H6 C5 1_555 1_555
C6 N1 1_555 1_555
C7 H7 1_555 1_555
C8 H8 1_555 1_555
C9 N1 1_555 1_555
H9 C9 1_555 1_555
H10 C9 1_555 1_555
C10 C3 1_555 1_555
C11 C17 1_555 1_555
C12 H11 1_555 1_555
C13 N3 1_555 1_555
H12 C13 1_555 1_555
H13 C13 1_555 1_555
C14 N2 1_555 1_555
C15 H14 1_555 1_555
C16 H15 1_555 1_555
H16 C16 1_555 1_555
C17 C8 1_555 1_555
H17 C17 1_555 1_555
C18 C15 1_555 1_555
H18 C18 1_555 1_555
C19 C7 1_555 1_555
H19 C19 1_555 1_555
C20 N2 1_555 1_555
H20 C20 1_555 1_555
H21 C20 1_555 1_555
C21 C14 1_555 1_555
C22 C12 1_555 1_555
H22 C22 1_555 1_555
C23 C16 1_555 1_555
H23 C23 1_555 1_555
H24 C23 1_555 1_555
C2 C5 1_555 1_555
C7 C10 1_555 1_555
C8 C10 1_555 1_555
C9 C13 1_555 1_555
C11 C19 1_555 1_555
C12 C14 1_555 1_555
C15 C21 1_555 1_555
C16 C21 1_555 1_555
C18 C22 1_555 1_555
C20 C23 1_555 1_555

#END
