
#######################################################################
#
#                 Cambridge Crystallographic Data Centre
#                                CCDC 
#
#######################################################################
#
# If this CIF has been generated from an entry in the Cambridge 
# Structural Database, then it will include bibliographic, chemical, 
# crystal, experimental, refinement or atomic coordinate data resulting 
# from the CCDC's data processing and validation procedures.
#
#######################################################################

data_WIQFAF
_chemical_name_common            
5-Carboxy-11,17-di-t-butyl-25,26-Dipropoxy-27,28-(3,6,9-trioxaundecane-1,11-dioxy)calix(4)arene
_chemical_formula_moiety         'C49 H62 O8'
_chemical_name_systematic        
'3,21-Di-t-butyl-37,38-dipropoxy-25,28,31,34-tetraoxahexacyclo[21.12.1.1^7,11^.1^13,17^.0^5,35^.0^19,24^]octatriaconta-1(35),2,4,7(38),8,10,13(37),14,16,19,21,23-dodecaene-9-carboxylic acid'
_symmetry_cell_setting           monoclinic
_symmetry_space_group_name_H-M   'P 21/n'
_symmetry_Int_Tables_number      14
_space_group_name_Hall           '-P 2yn'
loop_
_symmetry_equiv_pos_site_id
_symmetry_equiv_pos_as_xyz
1 x,y,z
2 1/2-x,1/2+y,1/2-z
3 -x,-y,-z
4 1/2+x,1/2-y,1/2+z
_cell_length_a                   12.4563(9)
_cell_length_b                   27.547(2)
_cell_length_c                   12.7605(9)
_cell_angle_alpha                90
_cell_angle_beta                 92.7790(10)
_cell_angle_gamma                90
_cell_volume                     4373.41
_exptl_crystal_colour            colorless
_exptl_crystal_description       block
_cell_formula_units_Z            4
loop_
_atom_site_label
_atom_site_type_symbol
_atom_site_fract_x
_atom_site_fract_y
_atom_site_fract_z
C1 C 0.20815(15) 0.22718(6) 0.23080(15)
C2 C 0.15097(15) 0.25798(7) 0.16107(15)
C3 C 0.13050(15) 0.30535(7) 0.19327(15)
H1 H 0.0923 0.3266 0.1461
C4 C 0.16415(15) 0.32260(7) 0.29216(15)
C5 C 0.21682(15) 0.28993(7) 0.36090(15)
H2 H 0.2387 0.3006 0.4294
C6 C 0.23833(15) 0.24220(7) 0.33253(15)
C7 C 0.14670(17) 0.37524(7) 0.32719(16)
C8 C 0.08108(19) 0.40459(7) 0.24465(18)
H3 H 0.1196 0.4057 0.1795
H4 H 0.0708 0.4377 0.2705
H5 H 0.0109 0.3891 0.2311
C9 C 0.25720(19) 0.39924(7) 0.34522(18)
H6 H 0.3019 0.3795 0.3941
H7 H 0.2483 0.4317 0.3749
H8 H 0.2921 0.4019 0.2782
C10 C 0.0872(2) 0.37570(8) 0.42951(18)
H9 H 0.0177 0.3594 0.4184
H10 H 0.0757 0.4093 0.4513
H11 H 0.1303 0.3587 0.4843
C11 C 0.28855(16) 0.20677(7) 0.41144(15)
H12 H 0.3127 0.2244 0.4759
H13 H 0.3522 0.1914 0.3818
C12 C 0.20805(15) 0.16779(7) 0.43869(14)
C13 C 0.22902(15) 0.11857(7) 0.42374(14)
C14 C 0.14891(16) 0.08378(7) 0.43141(14)
C15 C 0.04838(16) 0.09819(7) 0.46391(14)
H14 H -0.0061 0.0744 0.4709
C16 C 0.02581(16) 0.14653(7) 0.48642(14)
C17 C 0.10642(16) 0.18039(7) 0.47162(14)
H15 H 0.0917 0.2136 0.4845
C18 C -0.08433(16) 0.16308(7) 0.52263(16)
C19 C -0.12971(19) 0.20312(9) 0.44993(18)
H16 H -0.2020 0.2119 0.4704
H17 H -0.1332 0.1914 0.3773
H18 H -0.0829 0.2317 0.4556
C20 C -0.07139(18) 0.18272(9) 0.63457(16)
H19 H -0.0464 0.1567 0.6820
H20 H -0.1407 0.1949 0.6565
H21 H -0.0188 0.2092 0.6370
C21 C -0.16629(18) 0.12139(9) 0.5223(2)
H22 H -0.1408 0.0962 0.5716
H23 H -0.1747 0.1076 0.4516
H24 H -0.2357 0.1338 0.5435
C22 C 0.16724(17) 0.03234(7) 0.39302(15)
H25 H 0.2358 0.0196 0.4246
H26 H 0.1083 0.0110 0.4147
C23 C 0.17103(16) 0.03234(6) 0.27422(15)
C24 C 0.07756(16) 0.03993(7) 0.21107(16)
C25 C 0.08016(16) 0.04792(7) 0.10270(15)
C26 C 0.17813(17) 0.04275(6) 0.05670(16)
H27 H 0.1817 0.0467 -0.0170
C27 C 0.27164(17) 0.03184(6) 0.11683(15)
C28 C 0.26743(17) 0.02834(6) 0.22561(15)
H28 H 0.3319 0.0231 0.2670
C29 C 0.37323(17) 0.02204(7) 0.06579(15)
C30 C -0.01907(17) 0.06509(7) 0.03981(16)
H29 H -0.0813 0.0447 0.0565
H30 H -0.0075 0.0618 -0.0361
C31 C -0.04257(16) 0.11785(7) 0.06546(15)
C32 C 0.02740(15) 0.15457(7) 0.03625(14)
C33 C 0.01821(15) 0.20221(7) 0.07254(14)
C34 C -0.06958(15) 0.21334(7) 0.13181(15)
H31 H -0.0784 0.2455 0.1566
C35 C -0.14381(16) 0.17823(8) 0.15503(16)
H32 H -0.2051 0.1868 0.1926
C36 C -0.12934(16) 0.13057(8) 0.12382(16)
H33 H -0.1793 0.1064 0.1426
C37 C 0.08539(19) 0.15062(8) -0.13646(17)
H34 H 0.0645 0.1850 -0.1471
H35 H 0.0228 0.1302 -0.1584
C38 C 0.10393(15) 0.24003(7) 0.05614(15)
H36 H 0.0723 0.2677 0.0158
H37 H 0.1616 0.2258 0.0152
C39 C 0.30662(16) 0.17273(7) 0.12455(16)
H38 H 0.3181 0.2040 0.0884
H39 H 0.2776 0.1492 0.0717
C40 C 0.41118(17) 0.15461(8) 0.16958(17)
H40 H 0.3992 0.1273 0.2180
H41 H 0.4559 0.1428 0.1128
C41 C 0.57603(18) 0.18514(10) 0.2456(2)
H42 H 0.6062 0.2127 0.2872
H43 H 0.6120 0.1845 0.1782
C42 C 0.60164(18) 0.13875(10) 0.30394(19)
H44 H 0.5779 0.1105 0.2608
H45 H 0.6802 0.1361 0.3189
C43 C 0.51612(18) 0.09332(9) 0.43707(18)
H46 H 0.5687 0.0819 0.4924
H47 H 0.5138 0.0694 0.3792
C44 C 0.40631(17) 0.09807(8) 0.48120(17)
H48 H 0.3893 0.0687 0.5221
H49 H 0.4042 0.1266 0.5281
C45 C -0.0592(3) -0.01054(14) 0.2655(3)
H50 H -0.0788 -0.0234 0.1947
H51 H -0.0018 -0.0312 0.2981
C46 C -0.1559(3) -0.01063(13) 0.3318(3)
H52 H -0.1353 0.0036 0.4011
H53 H -0.1780 -0.0446 0.3435
C47 C -0.2509(4) 0.01718(17) 0.2843(4)
H54 H -0.2330 0.0518 0.2812
H55 H -0.3131 0.0126 0.3275
H56 H -0.2683 0.0051 0.2132
C48 C 0.1759(2) 0.13916(11) -0.2033(2)
H57 H 0.1500 0.1387 -0.2779
H58 H 0.2047 0.1066 -0.1850
C49 C 0.2639(2) 0.17654(11) -0.1879(2)
H59 H 0.2358 0.2086 -0.2077
H60 H 0.3236 0.1683 -0.2320
H61 H 0.2896 0.1770 -0.1141
O1 O 0.22958(10) 0.17959(4) 0.20344(10)
O2 O 0.33029(10) 0.10370(5) 0.39447(10)
O3 O -0.02040(11) 0.04151(5) 0.25788(11)
O4 O 0.11187(10) 0.14254(5) -0.02647(10)
O5 O 0.36845(13) 0.01801(6) -0.03443(11)
H62 H 0.4302 0.0124 -0.0553
O6 O 0.45964(12) 0.01690(5) 0.12116(11)
O7 O 0.46479(12) 0.19336(6) 0.22484(12)
O8 O 0.54743(13) 0.13921(6) 0.39943(13)
H63? H 0.0465 0.1815 -0.1505
H64? H 0.0467 0.1231 -0.1710
C50? C -0.0895(5) 0.0024(2) 0.2577(6)
H65? H -0.0568 -0.0241 0.3008
H66? H -0.1020 -0.0097 0.1851
C51? C -0.1961(5) 0.0172(2) 0.3017(5)
H67? H -0.2296 0.0431 0.2575
H68? H -0.1832 0.0302 0.3735
C52? C -0.2719(5) -0.0260(2) 0.3047(5)
H69? H -0.2841 -0.0391 0.2337
H70? H -0.3406 -0.0156 0.3316
H71? H -0.2400 -0.0512 0.3507
C53? C 0.2125(8) 0.1548(6) -0.1605(9)
H72? H 0.2464 0.1788 -0.1113
H73? H 0.2470 0.1230 -0.1455
C54? C 0.2361(10) 0.1696(5) -0.2715(8)
H74? H 0.2146 0.1435 -0.3201
H75? H 0.3133 0.1759 -0.2757
H76? H 0.1958 0.1992 -0.2904
loop_
_geom_bond_atom_site_label_1
_geom_bond_atom_site_label_2
_geom_bond_site_symmetry_1
_geom_bond_site_symmetry_2
C1 C2 1_555 1_555
C2 C3 1_555 1_555
C3 H1 1_555 1_555
C4 C3 1_555 1_555
C5 C4 1_555 1_555
H2 C5 1_555 1_555
C6 C1 1_555 1_555
C7 C4 1_555 1_555
C8 C7 1_555 1_555
H3 C8 1_555 1_555
H4 C8 1_555 1_555
H5 C8 1_555 1_555
C9 C7 1_555 1_555
H6 C9 1_555 1_555
H7 C9 1_555 1_555
H8 C9 1_555 1_555
C10 C7 1_555 1_555
H9 C10 1_555 1_555
H10 C10 1_555 1_555
H11 C10 1_555 1_555
C11 C6 1_555 1_555
H12 C11 1_555 1_555
H13 C11 1_555 1_555
C12 C11 1_555 1_555
C13 C12 1_555 1_555
C14 C13 1_555 1_555
C15 C14 1_555 1_555
H14 C15 1_555 1_555
C16 C15 1_555 1_555
C17 C12 1_555 1_555
H15 C17 1_555 1_555
C18 C16 1_555 1_555
C19 C18 1_555 1_555
H16 C19 1_555 1_555
H17 C19 1_555 1_555
H18 C19 1_555 1_555
C20 C18 1_555 1_555
H19 C20 1_555 1_555
H20 C20 1_555 1_555
H21 C20 1_555 1_555
C21 C18 1_555 1_555
H22 C21 1_555 1_555
H23 C21 1_555 1_555
H24 C21 1_555 1_555
C22 C14 1_555 1_555
H25 C22 1_555 1_555
H26 C22 1_555 1_555
C23 C22 1_555 1_555
C24 C23 1_555 1_555
C25 C24 1_555 1_555
C26 C25 1_555 1_555
H27 C26 1_555 1_555
C27 C26 1_555 1_555
C28 C23 1_555 1_555
H28 C28 1_555 1_555
C29 C27 1_555 1_555
C30 C25 1_555 1_555
H29 C30 1_555 1_555
H30 C30 1_555 1_555
C31 C30 1_555 1_555
C32 C31 1_555 1_555
C33 C32 1_555 1_555
C34 C33 1_555 1_555
H31 C34 1_555 1_555
C35 C34 1_555 1_555
H32 C35 1_555 1_555
C36 C31 1_555 1_555
H33 C36 1_555 1_555
C37 H34 1_555 1_555
H35 C37 1_555 1_555
C38 C2 1_555 1_555
H36 C38 1_555 1_555
H37 C38 1_555 1_555
C39 H38 1_555 1_555
H39 C39 1_555 1_555
C40 C39 1_555 1_555
H40 C40 1_555 1_555
H41 C40 1_555 1_555
C41 H42 1_555 1_555
H43 C41 1_555 1_555
C42 C41 1_555 1_555
H44 C42 1_555 1_555
H45 C42 1_555 1_555
C43 H46 1_555 1_555
H47 C43 1_555 1_555
C44 C43 1_555 1_555
H48 C44 1_555 1_555
H49 C44 1_555 1_555
C45 H50 1_555 1_555
H51 C45 1_555 1_555
C46 C45 1_555 1_555
H52 C46 1_555 1_555
H53 C46 1_555 1_555
C47 C46 1_555 1_555
H54 C47 1_555 1_555
H55 C47 1_555 1_555
H56 C47 1_555 1_555
C48 C37 1_555 1_555
H57 C48 1_555 1_555
H58 C48 1_555 1_555
C49 C48 1_555 1_555
H59 C49 1_555 1_555
H60 C49 1_555 1_555
H61 C49 1_555 1_555
O1 C1 1_555 1_555
O2 C13 1_555 1_555
O3 C24 1_555 1_555
O4 C32 1_555 1_555
O5 C29 1_555 1_555
H62 O5 1_555 1_555
O6 C29 1_555 1_555
O7 C40 1_555 1_555
O8 C42 1_555 1_555
C5 C6 1_555 1_555
C16 C17 1_555 1_555
C27 C28 1_555 1_555
C33 C38 1_555 1_555
C35 C36 1_555 1_555
C37 O4 1_555 1_555
C39 O1 1_555 1_555
C41 O7 1_555 1_555
C43 O8 1_555 1_555
C44 O2 1_555 1_555
C45 O3 1_555 1_555

#END
