
#######################################################################
#
#                 Cambridge Crystallographic Data Centre
#                                CCDC 
#
#######################################################################
#
# If this CIF has been generated from an entry in the Cambridge 
# Structural Database, then it will include bibliographic, chemical, 
# crystal, experimental, refinement or atomic coordinate data resulting 
# from the CCDC's data processing and validation procedures.
#
#######################################################################

data_WIQFEJ
_chemical_name_common            
5-Formyl-11,17-di-t-butyl-25,26-Dipropoxy-27,28-(3,6,9-trioxaundecane-1,11-dioxy)calix(4)arene
_chemical_formula_moiety         'C49 H62 O7'
_chemical_name_systematic        
3,21-Di-t-butyl-37,38-dipropoxy-25,28,31,34-tetraoxahexacyclo[21.12.1.1^7,11^.1^13,17^.0^5,35^.0^19,24^]octatriaconta-1(35),2,4,7(38),8,10,13(37),14,16,19,21,23-dodecaene-9-carbaldehyde
_symmetry_cell_setting           orthorhombic
_symmetry_space_group_name_H-M   'P 21 21 21'
_symmetry_Int_Tables_number      19
_space_group_name_Hall           'P 2ac 2ab'
loop_
_symmetry_equiv_pos_site_id
_symmetry_equiv_pos_as_xyz
1 x,y,z
2 1/2-x,-y,1/2+z
3 -x,1/2+y,1/2-z
4 1/2+x,1/2-y,-z
_cell_length_a                   13.591(3)
_cell_length_b                   16.131(3)
_cell_length_c                   20.812(5)
_cell_angle_alpha                90
_cell_angle_beta                 90
_cell_angle_gamma                90
_cell_volume                     4562.75
_exptl_crystal_colour            colorless
_exptl_crystal_description       block
_cell_formula_units_Z            4
loop_
_atom_site_label
_atom_site_type_symbol
_atom_site_fract_x
_atom_site_fract_y
_atom_site_fract_z
C1 C 0.0960(3) 0.4293(2) 0.1639(2)
C2 C 0.1883(3) 0.4030(3) 0.1824(2)
C3 C 0.2355(4) 0.3441(3) 0.1459(2)
H1 H 0.2965 0.3250 0.1598
C4 C 0.1972(4) 0.3118(3) 0.0898(3)
C5 C 0.1084(3) 0.3432(3) 0.0706(2)
H2 H 0.0821 0.3247 0.0319
C6 C 0.0551(3) 0.4017(3) 0.1058(2)
C7 C -0.0390(3) 0.4383(3) 0.0807(3)
H3 H -0.0902 0.4314 0.1127
H4 H -0.0589 0.4083 0.0424
C8 C -0.0290(3) 0.5292(3) 0.0647(2)
C9 C -0.0752(4) 0.5898(4) 0.0989(3)
H5 H -0.1189 0.5745 0.1312
C10 C -0.0596(5) 0.6731(4) 0.0875(3)
C11 C 0.0052(5) 0.6959(4) 0.0406(4)
H6 H 0.0169 0.7520 0.0338
C12 C 0.0545(4) 0.6383(3) 0.0027(3)
C13 C 0.0320(4) 0.5548(3) 0.0137(3)
C14 C 0.1300(5) 0.6635(4) -0.0467(3)
H7 H 0.1290 0.7233 -0.0514
H8 H 0.1127 0.6394 -0.0878
C15 C 0.2337(4) 0.6359(3) -0.0283(3)
C16 C 0.2804(6) 0.5760(4) -0.0636(3)
H9 H 0.2502 0.5555 -0.1004
C17 C 0.3704(6) 0.5457(4) -0.0461(4)
H10 H 0.4020 0.5064 -0.0714
C18 C 0.4133(5) 0.5738(4) 0.0093(3)
H11 H 0.4732 0.5519 0.0226
C19 C 0.3680(4) 0.6349(3) 0.0457(3)
C20 C 0.2806(4) 0.6679(3) 0.0257(3)
C21 C 0.4152(4) 0.6586(4) 0.1104(3)
H12 H 0.4806 0.6804 0.1028
H13 H 0.3764 0.7019 0.1305
C22 C 0.4219(4) 0.5861(3) 0.1550(2)
C23 C 0.5096(4) 0.5443(4) 0.1663(3)
H14 H 0.5670 0.5655 0.1483
C24 C 0.5160(4) 0.4732(4) 0.2027(3)
C25 C 0.4280(4) 0.4434(3) 0.2282(2)
H15 H 0.4302 0.3957 0.2532
C26 C 0.3378(3) 0.4805(3) 0.2184(2)
C27 C 0.3361(3) 0.5535(3) 0.1831(2)
C28 C 0.2427(4) 0.4420(3) 0.2402(2)
H16 H 0.2014 0.4840 0.2599
H17 H 0.2561 0.3997 0.2722
C29 C 0.0016(4) 0.4558(3) 0.2571(3)
H18 H 0.0506 0.4272 0.2827
H19 H -0.0508 0.4171 0.2469
C30 C -0.0383(5) 0.5279(4) 0.2931(3)
H20 H -0.0815 0.5601 0.2657
H21 H -0.0758 0.5089 0.3300
C31 C 0.1281(4) 0.6894(3) 0.2074(3)
H22 H 0.1329 0.7179 0.1665
H23 H 0.0784 0.6466 0.2034
C32 C 0.2241(4) 0.6509(3) 0.2230(3)
H24 H 0.2747 0.6931 0.2262
H25 H 0.2201 0.6220 0.2638
C33 C 0.2554(5) 0.2480(4) 0.0512(3)
C34 C 0.0246(6) 0.4739(5) -0.0815(3)
H26 H 0.0073 0.5232 -0.1056
H27 H -0.0353 0.4442 -0.0708
C35 C 0.2628(5) 0.8097(4) 0.0410(4)
H28 H 0.2593 0.8144 -0.0055
H29 H 0.3304 0.8195 0.0538
C36 C 0.1989(6) 0.8737(4) 0.0704(4)
H30 H 0.1308 0.8604 0.0610
H31 H 0.2072 0.8721 0.1166
C37 C 0.2197(7) 0.9578(4) 0.0476(5)
H32 H 0.2851 0.9739 0.0597
H33 H 0.1731 0.9958 0.0659
H34 H 0.2140 0.9586 0.0016
C38 C 0.6157(4) 0.4310(5) 0.2143(3)
O1 O 0.0451(2) 0.48687(19) 0.19913(14)
O2 O 0.0424(3) 0.5772(2) 0.31362(19)
O3 O 0.0995(4) 0.7465(3) 0.2556(3)
O4 O 0.2471(2) 0.59364(18) 0.17233(15)
O5 O 0.0776(3) 0.4956(2) -0.02433(17)
O6 O 0.2351(3) 0.7291(2) 0.05934(18)
C39 C 0.0279(17) 0.6576(7) 0.3422(7)
H35 H 0.0856 0.6738 0.3666
H36 H -0.0283 0.6567 0.3709
C40 C 0.0104(8) 0.7175(7) 0.2880(6)
H37 H -0.0318 0.6911 0.2565
H38 H -0.0246 0.7652 0.3048
C41 C 0.3599(10) 0.2799(15) 0.0389(10)
H39 H 0.3973 0.2803 0.0781
H40 H 0.3557 0.3352 0.0222
H41 H 0.3918 0.2448 0.0081
C42 C 0.2715(16) 0.1719(12) 0.0938(12)
H42 H 0.3014 0.1282 0.0693
H43 H 0.2093 0.1533 0.1103
H44 H 0.3138 0.1866 0.1290
C43 C 0.2087(18) 0.2254(16) -0.0111(8)
H45 H 0.2235 0.1685 -0.0205
H46 H 0.2332 0.2600 -0.0451
H47 H 0.1388 0.2324 -0.0075
C44 C -0.1063(16) 0.7399(11) 0.1244(12)
H48 H -0.0868 0.7947 0.1191
O7 O -0.1742(11) 0.7211(9) 0.1639(8)
C45 C 0.0927(15) 0.4198(13) -0.1198(11)
H49 H 0.1384 0.4544 -0.1435
H50 H 0.1305 0.3852 -0.0907
C46 C 0.0376(12) 0.3658(9) -0.1658(8)
H51 H -0.0032 0.3275 -0.1426
H52 H 0.0829 0.3356 -0.1923
H53 H -0.0028 0.4006 -0.1923
C47 C 0.6092(9) 0.3632(7) 0.2640(6)
H54 H 0.5702 0.3182 0.2479
H55 H 0.5793 0.3849 0.3023
H56 H 0.6742 0.3436 0.2738
C48 C 0.6866(8) 0.4937(7) 0.2454(7)
H57 H 0.7477 0.4669 0.2557
H58 H 0.6572 0.5148 0.2840
H59 H 0.6987 0.5387 0.2162
C49 C 0.6602(14) 0.4066(13) 0.1523(6)
H60 H 0.7259 0.3864 0.1583
H61 H 0.6613 0.4537 0.1241
H62 H 0.6203 0.3637 0.1337
H63? H 0.0338 0.5174 -0.1131
H64? H -0.0448 0.4727 -0.0708
C50? C 0.0030(15) 0.6615(7) 0.3202(14)
H65? H -0.0347 0.6657 0.3596
H66? H -0.0406 0.6734 0.2845
C51? C 0.0864(15) 0.7239(10) 0.3212(5)
H67? H 0.0692 0.7718 0.3470
H68? H 0.1459 0.6992 0.3385
C52? C 0.3313(14) 0.2949(17) 0.0129(11)
H69? H 0.2967 0.3345 -0.0131
H70? H 0.3663 0.2570 -0.0144
H71? H 0.3772 0.3233 0.0402
C53? C 0.309(2) 0.1852(17) 0.0924(17)
H72? H 0.3358 0.1419 0.0661
H73? H 0.2640 0.1615 0.1231
H74? H 0.3610 0.2130 0.1147
C54? C 0.1894(11) 0.2005(10) 0.0047(8)
H75? H 0.2256 0.1553 -0.0139
H76? H 0.1662 0.2364 -0.0288
H77? H 0.1344 0.1791 0.0283
C55? C -0.138(3) 0.717(8) 0.121(4)
H78? H -0.1991 0.7200 0.1008
O8? O -0.128(3) 0.751(3) 0.173(2)
C56? C 0.0527(14) 0.3941(11) -0.1116(10)
H79? H 0.0155 0.3861 -0.1509
H80? H 0.0373 0.3488 -0.0826
C57? C 0.1611(16) 0.3937(19) -0.1265(16)
H81? H 0.1789 0.4357 -0.1571
H82? H 0.1791 0.3402 -0.1429
H83? H 0.1949 0.4036 -0.0868
C58? C 0.650(2) 0.422(2) 0.2821(7)
H84? H 0.7115 0.3935 0.2840
H85? H 0.6010 0.3919 0.3056
H86? H 0.6573 0.4765 0.3008
C59? C 0.6960(13) 0.4723(14) 0.1744(11)
H87? H 0.7543 0.4388 0.1763
H88? H 0.7099 0.5263 0.1915
H89? H 0.6748 0.4773 0.1306
C60? C 0.6063(13) 0.3442(10) 0.1855(15)
H90? H 0.5785 0.3480 0.1432
H91? H 0.5643 0.3110 0.2123
H92? H 0.6702 0.3190 0.1830
loop_
_geom_bond_atom_site_label_1
_geom_bond_atom_site_label_2
_geom_bond_site_symmetry_1
_geom_bond_site_symmetry_2
C1 C2 1_555 1_555
C2 C3 1_555 1_555
C3 H1 1_555 1_555
C4 C3 1_555 1_555
C5 C4 1_555 1_555
H2 C5 1_555 1_555
C6 C1 1_555 1_555
C7 C6 1_555 1_555
H3 C7 1_555 1_555
H4 C7 1_555 1_555
C8 C7 1_555 1_555
C9 C8 1_555 1_555
H5 C9 1_555 1_555
C10 C9 1_555 1_555
C11 C10 1_555 1_555
H6 C11 1_555 1_555
C12 C11 1_555 1_555
C13 C8 1_555 1_555
C14 C12 1_555 1_555
H7 C14 1_555 1_555
H8 C14 1_555 1_555
C15 C14 1_555 1_555
C16 C15 1_555 1_555
H9 C16 1_555 1_555
C17 C16 1_555 1_555
H10 C17 1_555 1_555
C18 C17 1_555 1_555
H11 C18 1_555 1_555
C19 C18 1_555 1_555
C20 C15 1_555 1_555
C21 C19 1_555 1_555
H12 C21 1_555 1_555
H13 C21 1_555 1_555
C22 C21 1_555 1_555
C23 C22 1_555 1_555
H14 C23 1_555 1_555
C24 C23 1_555 1_555
C25 C24 1_555 1_555
H15 C25 1_555 1_555
C26 C25 1_555 1_555
C27 C22 1_555 1_555
C28 C2 1_555 1_555
H16 C28 1_555 1_555
H17 C28 1_555 1_555
C29 H18 1_555 1_555
H19 C29 1_555 1_555
C30 C29 1_555 1_555
H20 C30 1_555 1_555
H21 C30 1_555 1_555
C31 H22 1_555 1_555
H23 C31 1_555 1_555
C32 C31 1_555 1_555
H24 C32 1_555 1_555
H25 C32 1_555 1_555
C33 C4 1_555 1_555
C34 H26 1_555 1_555
H27 C34 1_555 1_555
C35 H28 1_555 1_555
H29 C35 1_555 1_555
C36 C35 1_555 1_555
H30 C36 1_555 1_555
H31 C36 1_555 1_555
C37 C36 1_555 1_555
H32 C37 1_555 1_555
H33 C37 1_555 1_555
H34 C37 1_555 1_555
C38 C24 1_555 1_555
O1 C1 1_555 1_555
O2 C30 1_555 1_555
O3 C31 1_555 1_555
O4 C27 1_555 1_555
O5 C13 1_555 1_555
O6 C20 1_555 1_555
C39 O2 1_555 1_555
H35 C39 1_555 1_555
H36 C39 1_555 1_555
C40 O3 1_555 1_555
H37 C40 1_555 1_555
H38 C40 1_555 1_555
C41 C33 1_555 1_555
H39 C41 1_555 1_555
H40 C41 1_555 1_555
H41 C41 1_555 1_555
C42 C33 1_555 1_555
H42 C42 1_555 1_555
H43 C42 1_555 1_555
H44 C42 1_555 1_555
C43 C33 1_555 1_555
H45 C43 1_555 1_555
H46 C43 1_555 1_555
H47 C43 1_555 1_555
C44 C10 1_555 1_555
H48 C44 1_555 1_555
O7 C44 1_555 1_555
C45 C34 1_555 1_555
H49 C45 1_555 1_555
H50 C45 1_555 1_555
C46 C45 1_555 1_555
H51 C46 1_555 1_555
H52 C46 1_555 1_555
H53 C46 1_555 1_555
C47 C38 1_555 1_555
H54 C47 1_555 1_555
H55 C47 1_555 1_555
H56 C47 1_555 1_555
C48 C38 1_555 1_555
H57 C48 1_555 1_555
H58 C48 1_555 1_555
H59 C48 1_555 1_555
C49 C38 1_555 1_555
H60 C49 1_555 1_555
H61 C49 1_555 1_555
H62 C49 1_555 1_555
C5 C6 1_555 1_555
C12 C13 1_555 1_555
C19 C20 1_555 1_555
C26 C27 1_555 1_555
C26 C28 1_555 1_555
C29 O1 1_555 1_555
C32 O4 1_555 1_555
C34 O5 1_555 1_555
C35 O6 1_555 1_555
C39 C40 1_555 1_555

#END
