
#######################################################################
#
#                 Cambridge Crystallographic Data Centre
#                                CCDC 
#
#######################################################################
#
# If this CIF has been generated from an entry in the Cambridge 
# Structural Database, then it will include bibliographic, chemical, 
# crystal, experimental, refinement or atomic coordinate data resulting 
# from the CCDC's data processing and validation procedures.
#
#######################################################################

data_WIQHOW
_chemical_formula_moiety         'C39 H42 N7 3+,3(I1 1-)'
_chemical_name_systematic        
'2,28,41-trimethyl-12,15,18,37-tetraaza-5,25,30-triazonianonacyclo[13.13.11.1^3,27^.1^5,12^.1^18,25^.1^30,37^.0^6,11^.0^19,24^.0^31,36^]tritetraconta-1,3(41),5(43),6,8,10,19,21,23,25(42),27,30(40),31,33,35-pentadecaene tris(iodide)'
_symmetry_cell_setting           monoclinic
_symmetry_space_group_name_H-M   'P 21/c'
_symmetry_Int_Tables_number      14
_space_group_name_Hall           '-P 2ybc'
loop_
_symmetry_equiv_pos_site_id
_symmetry_equiv_pos_as_xyz
1 x,y,z
2 -x,1/2+y,1/2-z
3 -x,-y,-z
4 x,1/2-y,1/2+z
_cell_length_a                   13.34926(19)
_cell_length_b                   16.7927(2)
_cell_length_c                   36.5631(6)
_cell_angle_alpha                90
_cell_angle_beta                 90.0824(13)
_cell_angle_gamma                90
_cell_volume                     8196.35
_cell_formula_units_Z            8
loop_
_atom_site_label
_atom_site_type_symbol
_atom_site_fract_x
_atom_site_fract_y
_atom_site_fract_z
C1 C 0.2150(9) 0.4310(5) 0.6481(3)
H1 H 0.1709 0.4336 0.6677
C2 C 0.3138(10) 0.4574(6) 0.6504(3)
H2 H 0.3369 0.4778 0.6725
C3 C 0.3781(9) 0.4544(6) 0.6213(3)
H3 H 0.4434 0.4726 0.6243
C4 C 0.3490(7) 0.4250(5) 0.5873(3)
H4 H 0.3927 0.4231 0.5675
C5 C 0.2500(6) 0.3985(4) 0.5847(2)
C6 C 0.1878(7) 0.4006(4) 0.6144(2)
C7 C 0.1042(6) 0.3534(5) 0.5668(2)
H5 H 0.0537 0.3331 0.5520
C8 C 0.2318(7) 0.3618(5) 0.5177(2)
H6 H 0.2877 0.3980 0.5144
H7 H 0.1785 0.3790 0.5014
C9 C 0.2646(6) 0.2794(5) 0.5063(2)
H8 H 0.3060 0.2840 0.4847
H9 H 0.3060 0.2572 0.5256
C10 C -0.1054(9) 0.3398(5) 0.4267(3)
H10 H -0.0517 0.3398 0.4105
C11 C -0.1901(12) 0.3908(6) 0.4233(3)
H11 H -0.1935 0.4242 0.4031
C12 C -0.2661(10) 0.3938(7) 0.4479(3)
H12 H -0.3177 0.4303 0.4444
C13 C -0.2689(8) 0.3455(5) 0.4771(3)
H13 H -0.3215 0.3478 0.4937
C14 C -0.1907(7) 0.2921(5) 0.4817(2)
C15 C -0.1126(7) 0.2894(5) 0.4574(2)
C16 C -0.0872(6) 0.1977(5) 0.4991(2)
H14 H -0.0599 0.1554 0.5122
C17 C 0.0448(6) 0.1987(6) 0.4509(2)
H15 H 0.0363 0.2028 0.4246
H16 H 0.0545 0.1430 0.4570
C18 C 0.1371(6) 0.2463(5) 0.4626(2)
H17 H 0.1879 0.2408 0.4438
H18 H 0.1189 0.3022 0.4638
C19 C 0.1316(7) -0.0921(5) 0.6104(3)
H19 H 0.0830 -0.0988 0.6283
C20 C 0.1970(8) -0.1534(5) 0.6004(3)
H20 H 0.1913 -0.2027 0.6118
C21 C 0.2699(7) -0.1425(5) 0.5741(3)
H21 H 0.3125 -0.1847 0.5686
C22 C 0.2819(6) -0.0721(5) 0.5557(3)
H22 H 0.3303 -0.0654 0.5376
C23 C 0.2159(6) -0.0103(4) 0.5659(2)
C24 C 0.1437(6) -0.0212(4) 0.5920(2)
C25 C 0.1318(5) 0.1010(5) 0.5709(2)
H23 H 0.1104 0.1531 0.5674
C26 C 0.2750(6) 0.1048(5) 0.5270(3)
H24 H 0.3231 0.0652 0.5189
H25 H 0.3120 0.1458 0.5399
C27 C 0.2280(7) 0.1423(5) 0.4932(2)
H26 H 0.2791 0.1466 0.4745
H27 H 0.1767 0.1065 0.4841
C28 C -0.0476(7) 0.2837(5) 0.6126(2)
C29 C -0.1272(6) 0.2847(5) 0.5867(2)
C30 C -0.1646(6) 0.2131(5) 0.5732(2)
C31 C -0.1283(6) 0.1403(4) 0.5862(2)
C32 C -0.0462(6) 0.1395(5) 0.6103(2)
C33 C -0.0083(7) 0.2114(6) 0.6247(3)
C34 C 0.0025(8) 0.3610(6) 0.6236(3)
H28 H -0.0427 0.4053 0.6194
H29 H 0.0195 0.3597 0.6494
C35 C -0.1690(9) 0.3640(5) 0.5724(3)
H30 H -0.1373 0.4074 0.5850
H31 H -0.2400 0.3660 0.5766
H32 H -0.1560 0.3684 0.5467
C36 C -0.2332(6) 0.2151(6) 0.5405(3)
H33 H -0.2654 0.1638 0.5373
H34 H -0.2848 0.2551 0.5439
C37 C -0.1755(8) 0.0620(5) 0.5746(3)
H35 H -0.1237 0.0242 0.5691
H36 H -0.2163 0.0703 0.5533
H37 H -0.2162 0.0418 0.5942
C38 C 0.0038(7) 0.0620(6) 0.6197(3)
H38 H -0.0433 0.0184 0.6169
H39 H 0.0266 0.0629 0.6449
C39 C 0.0775(9) 0.2111(8) 0.6528(3)
H40 H 0.1391 0.1976 0.6408
H41 H 0.0636 0.1725 0.6715
H42 H 0.0835 0.2629 0.6637
N1 N 0.1963(5) 0.3683(4) 0.55552(17)
N2 N 0.0924(5) 0.3708(4) 0.6020(2)
N3 N -0.1716(5) 0.2346(4) 0.50761(19)
N4 N -0.0473(5) 0.2292(4) 0.46966(17)
N5 N 0.2066(5) 0.0668(4) 0.55292(18)
N6 N 0.0920(5) 0.0501(4) 0.59438(18)
N7 N 0.1821(5) 0.2226(4) 0.49851(17)
C40 C 0.8339(7) 0.6077(4) 0.6291(3)
H43 H 0.8906 0.6126 0.6437
C41 C 0.8358(8) 0.5711(5) 0.5951(3)
H44 H 0.8961 0.5505 0.5866
C42 C 0.7511(10) 0.5641(5) 0.5733(3)
H45 H 0.7561 0.5373 0.5511
C43 C 0.6608(8) 0.5950(5) 0.5834(2)
H46 H 0.6047 0.5910 0.5683
C44 C 0.6568(6) 0.6329(4) 0.6173(2)
C45 C 0.7390(6) 0.6372(4) 0.6398(2)
C46 C 0.6143(6) 0.6945(5) 0.6678(2)
H47 H 0.5764 0.7207 0.6854
C47 C 0.7767(6) 0.6884(5) 0.7037(2)
H48 H 0.8196 0.7336 0.6985
H49 H 0.8194 0.6421 0.7065
C48 C 0.7229(6) 0.7034(4) 0.7396(2)
H50 H 0.6709 0.6634 0.7421
H51 H 0.7706 0.6945 0.7592
C49 C 0.6491(7) 1.1212(5) 0.6492(3)
H52 H 0.6061 1.1302 0.6296
C50 C 0.7210(9) 1.1748(5) 0.6587(3)
H53 H 0.7273 1.2215 0.6452
C51 C 0.7866(8) 1.1612(6) 0.6887(3)
H54 H 0.8341 1.1996 0.6947
C52 C 0.7813(7) 1.0922(5) 0.7090(3)
H55 H 0.8247 1.0824 0.7284
C53 C 0.7075(6) 1.0383(4) 0.6990(2)
C54 C 0.6430(6) 1.0521(4) 0.6704(2)
C55 C 0.6044(6) 0.9368(5) 0.6945(2)
H56 H 0.5724 0.8886 0.6989
C56 C 0.7249(6) 0.9290(5) 0.7473(2)
H57 H 0.6758 0.9328 0.7668
H58 H 0.7825 0.9606 0.7545
C57 C 0.7572(5) 0.8431(4) 0.7438(2)
H59 H 0.7917 0.8369 0.7207
H60 H 0.8052 0.8318 0.7631
C58 C 0.4097(9) 0.8526(6) 0.8355(3)
H61 H 0.4649 0.8386 0.8496
C59 C 0.3368(11) 0.9035(7) 0.8479(3)
H62 H 0.3430 0.9240 0.8714
C60 C 0.2566(10) 0.9252(6) 0.8278(4)
H63 H 0.2111 0.9609 0.8379
C61 C 0.2385(8) 0.8971(6) 0.7926(3)
H64 H 0.1825 0.9109 0.7789
C62 C 0.3132(7) 0.8461(5) 0.7803(3)
C63 C 0.3956(6) 0.8239(5) 0.8006(2)
C64 C 0.4017(6) 0.7603(5) 0.7486(2)
H65 H 0.4230 0.7256 0.7304
C65 C 0.5445(6) 0.7290(5) 0.7903(2)
H66 H 0.5512 0.6799 0.7766
H67 H 0.5415 0.7155 0.8161
C66 C 0.6359(6) 0.7819(5) 0.7833(2)
H68 H 0.6183 0.8362 0.7897
H69 H 0.6890 0.7653 0.7998
C67 C 0.4309(6) 0.7587(5) 0.6374(2)
C68 C 0.4764(6) 0.8317(5) 0.6291(2)
C69 C 0.4407(7) 0.9001(5) 0.6473(2)
C70 C 0.3663(7) 0.8960(5) 0.6729(3)
C71 C 0.3222(6) 0.8213(5) 0.6807(2)
C72 C 0.3524(6) 0.7531(5) 0.6626(2)
C73 C 0.4767(7) 0.6818(6) 0.6218(3)
H70 H 0.4363 0.6364 0.6290
H71 H 0.4777 0.6844 0.5953
C74 C 0.5583(9) 0.8353(7) 0.6010(3)
H72 H 0.5433 0.8761 0.5834
H73 H 0.5632 0.7848 0.5888
H74 H 0.6208 0.8471 0.6128
C75 C 0.4950(8) 0.9795(6) 0.6412(3)
H75 H 0.5214 0.9816 0.6165
H76 H 0.4484 1.0233 0.6443
C76 C 0.3289(11) 0.9702(7) 0.6923(3)
H77 H 0.3728 1.0140 0.6870
H78 H 0.3279 0.9610 0.7182
H79 H 0.2625 0.9826 0.6839
C77 C 0.2535(7) 0.8129(7) 0.7143(3)
H80 H 0.2116 0.8597 0.7170
H81 H 0.2107 0.7665 0.7119
C78 C 0.2990(7) 0.6745(6) 0.6688(3)
H82 H 0.2780 0.6530 0.6457
H83 H 0.2414 0.6831 0.6840
H84 H 0.3437 0.6378 0.6806
N8 N 0.5803(5) 0.6718(4) 0.63588(18)
N9 N 0.7101(4) 0.6752(3) 0.67162(16)
N10 N 0.6813(5) 0.9640(3) 0.71368(17)
N11 N 0.5792(5) 0.9869(4) 0.66837(19)
N12 N 0.3203(5) 0.8042(5) 0.7460(2)
N13 N 0.4493(5) 0.7705(4) 0.77925(17)
N14 N 0.6763(4) 0.7821(3) 0.74571(16)
I1 I 0.0000 0.0000 0.5000
I2 I 0.98354(7) 0.46198(7) 0.28979(3)
I3 I 0.15583(6) 0.13573(4) 0.35907(2)
I4 I 0.5000 0.5000 0.5000
I5 I 0.54588(12) 0.02866(11) 0.53048(5)
I6 I 0.50394(4) 0.54702(3) 0.72213(2)
I7 I 0.0000 0.5000 0.5000
I8 I 0.63741(9) 0.80440(5) 0.38623(3)
loop_
_geom_bond_atom_site_label_1
_geom_bond_atom_site_label_2
_geom_bond_site_symmetry_1
_geom_bond_site_symmetry_2
C1 H1 1_555 1_555
C2 C1 1_555 1_555
H2 C2 1_555 1_555
C3 C2 1_555 1_555
H3 C3 1_555 1_555
C4 C3 1_555 1_555
H4 C4 1_555 1_555
C5 C4 1_555 1_555
C6 C1 1_555 1_555
C7 H5 1_555 1_555
C8 H6 1_555 1_555
H7 C8 1_555 1_555
C9 C8 1_555 1_555
H8 C9 1_555 1_555
H9 C9 1_555 1_555
C10 H10 1_555 1_555
C11 C10 1_555 1_555
H11 C11 1_555 1_555
C12 C11 1_555 1_555
H12 C12 1_555 1_555
C13 C12 1_555 1_555
H13 C13 1_555 1_555
C14 C13 1_555 1_555
C15 C10 1_555 1_555
C16 H14 1_555 1_555
C17 H15 1_555 1_555
H16 C17 1_555 1_555
C18 C17 1_555 1_555
H17 C18 1_555 1_555
H18 C18 1_555 1_555
C19 H19 1_555 1_555
C20 C19 1_555 1_555
H20 C20 1_555 1_555
C21 C20 1_555 1_555
H21 C21 1_555 1_555
C22 C21 1_555 1_555
H22 C22 1_555 1_555
C23 C22 1_555 1_555
C24 C19 1_555 1_555
C25 H23 1_555 1_555
C26 H24 1_555 1_555
H25 C26 1_555 1_555
C27 C26 1_555 1_555
H26 C27 1_555 1_555
H27 C27 1_555 1_555
C28 C29 1_555 1_555
C29 C30 1_555 1_555
C30 C31 1_555 1_555
C31 C32 1_555 1_555
C32 C33 1_555 1_555
C33 C28 1_555 1_555
C34 C28 1_555 1_555
H28 C34 1_555 1_555
H29 C34 1_555 1_555
C35 C29 1_555 1_555
H30 C35 1_555 1_555
H31 C35 1_555 1_555
H32 C35 1_555 1_555
C36 C30 1_555 1_555
H33 C36 1_555 1_555
H34 C36 1_555 1_555
C37 C31 1_555 1_555
H35 C37 1_555 1_555
H36 C37 1_555 1_555
H37 C37 1_555 1_555
C38 C32 1_555 1_555
H38 C38 1_555 1_555
H39 C38 1_555 1_555
C39 C33 1_555 1_555
H40 C39 1_555 1_555
H41 C39 1_555 1_555
H42 C39 1_555 1_555
N1 C5 1_555 1_555
N2 C6 1_555 1_555
N3 C14 1_555 1_555
N4 C15 1_555 1_555
N5 C23 1_555 1_555
N6 C24 1_555 1_555
N7 C9 1_555 1_555
C40 H43 1_555 1_555
C41 C40 1_555 1_555
H44 C41 1_555 1_555
C42 C41 1_555 1_555
H45 C42 1_555 1_555
C43 C42 1_555 1_555
H46 C43 1_555 1_555
C44 C43 1_555 1_555
C45 C40 1_555 1_555
C46 H47 1_555 1_555
C47 H48 1_555 1_555
H49 C47 1_555 1_555
C48 C47 1_555 1_555
H50 C48 1_555 1_555
H51 C48 1_555 1_555
C49 H52 1_555 1_555
C50 C49 1_555 1_555
H53 C50 1_555 1_555
C51 C50 1_555 1_555
H54 C51 1_555 1_555
C52 C51 1_555 1_555
H55 C52 1_555 1_555
C53 C52 1_555 1_555
C54 C49 1_555 1_555
C55 H56 1_555 1_555
C56 H57 1_555 1_555
H58 C56 1_555 1_555
C57 C56 1_555 1_555
H59 C57 1_555 1_555
H60 C57 1_555 1_555
C58 H61 1_555 1_555
C59 C58 1_555 1_555
H62 C59 1_555 1_555
C60 C59 1_555 1_555
H63 C60 1_555 1_555
C61 C60 1_555 1_555
H64 C61 1_555 1_555
C62 C61 1_555 1_555
C63 C58 1_555 1_555
C64 H65 1_555 1_555
C65 H66 1_555 1_555
H67 C65 1_555 1_555
C66 C65 1_555 1_555
H68 C66 1_555 1_555
H69 C66 1_555 1_555
C67 C68 1_555 1_555
C68 C69 1_555 1_555
C69 C70 1_555 1_555
C70 C71 1_555 1_555
C71 C72 1_555 1_555
C72 C67 1_555 1_555
C73 C67 1_555 1_555
H70 C73 1_555 1_555
H71 C73 1_555 1_555
C74 C68 1_555 1_555
H72 C74 1_555 1_555
H73 C74 1_555 1_555
H74 C74 1_555 1_555
C75 C69 1_555 1_555
H75 C75 1_555 1_555
H76 C75 1_555 1_555
C76 C70 1_555 1_555
H77 C76 1_555 1_555
H78 C76 1_555 1_555
H79 C76 1_555 1_555
C77 C71 1_555 1_555
H80 C77 1_555 1_555
H81 C77 1_555 1_555
C78 C72 1_555 1_555
H82 C78 1_555 1_555
H83 C78 1_555 1_555
H84 C78 1_555 1_555
N8 C44 1_555 1_555
N9 C45 1_555 1_555
N10 C53 1_555 1_555
N11 C54 1_555 1_555
N12 C62 1_555 1_555
N13 C63 1_555 1_555
N14 C48 1_555 1_555
C5 C6 1_555 1_555
C7 N1 1_555 1_555
C7 N2 1_555 1_555
C8 N1 1_555 1_555
C14 C15 1_555 1_555
C16 N3 1_555 1_555
C16 N4 1_555 1_555
C17 N4 1_555 1_555
C18 N7 1_555 1_555
C23 C24 1_555 1_555
C25 N5 1_555 1_555
C25 N6 1_555 1_555
C26 N5 1_555 1_555
C27 N7 1_555 1_555
C34 N2 1_555 1_555
C36 N3 1_555 1_555
C38 N6 1_555 1_555
C44 C45 1_555 1_555
C46 N8 1_555 1_555
C46 N9 1_555 1_555
C47 N9 1_555 1_555
C53 C54 1_555 1_555
C55 N10 1_555 1_555
C55 N11 1_555 1_555
C56 N10 1_555 1_555
C57 N14 1_555 1_555
C62 C63 1_555 1_555
C64 N12 1_555 1_555
C64 N13 1_555 1_555
C65 N13 1_555 1_555
C66 N14 1_555 1_555
C73 N8 1_555 1_555
C75 N11 1_555 1_555
C77 N12 1_555 1_555

#END
