
#######################################################################
#
#                 Cambridge Crystallographic Data Centre
#                                CCDC 
#
#######################################################################
#
# If this CIF has been generated from an entry in the Cambridge 
# Structural Database, then it will include bibliographic, chemical, 
# crystal, experimental, refinement or atomic coordinate data resulting 
# from the CCDC's data processing and validation procedures.
#
#######################################################################

data_WIQHOT
_chemical_formula_moiety         'C22 H14 F4'
_chemical_name_systematic        1,4-bis(4-Fluorostyryl)-2,5-difluorobenzene
_symmetry_cell_setting           monoclinic
_symmetry_space_group_name_H-M   'P 21/n'
_symmetry_Int_Tables_number      14
_space_group_name_Hall           '-P 2yn'
loop_
_symmetry_equiv_pos_site_id
_symmetry_equiv_pos_as_xyz
1 x,y,z
2 1/2-x,1/2+y,1/2-z
3 -x,-y,-z
4 1/2+x,1/2-y,1/2+z
_cell_length_a                   3.8377(3)
_cell_length_b                   5.6407(4)
_cell_length_c                   36.592(3)
_cell_angle_alpha                90
_cell_angle_beta                 92.23(2)
_cell_angle_gamma                90
_cell_volume                     791.519
_exptl_crystal_colour            yellow
_chemical_melting_point          '222 deg.C'
_cell_formula_units_Z            2
_exptl_crystal_recrystallization_method acetone
loop_
_atom_site_label
_atom_site_type_symbol
_atom_site_fract_x
_atom_site_fract_y
_atom_site_fract_z
F1 F 1.6157(3) 0.1054(2) 0.2414(1)
F2 F 0.7926(2) 0.8263(2) 0.0486(1)
C1 C 1.5436(4) 0.1424(3) 0.2054(1)
C2 C 1.6361(4) -0.0261(3) 0.1808(1)
C3 C 1.5629(4) 0.0146(3) 0.1441(1)
C4 C 1.3951(4) 0.2211(3) 0.1321(1)
C5 C 1.3066(4) 0.3868(3) 0.1583(1)
C6 C 1.3795(4) 0.3492(3) 0.1950(1)
C7 C 1.3197(4) 0.2542(3) 0.0931(1)
C8 C 1.1504(4) 0.4337(3) 0.0772(1)
C9 C 1.0768(4) 0.4624(3) 0.0382(1)
C10 C 1.1750(4) 0.2985(3) 0.0118(1)
C11 C 0.9012(4) 0.6602(3) 0.0243(1)
H1 H 1.7493(49) -0.1625(36) 0.1893(5)
H2 H 1.6302(42) -0.0987(30) 0.1257(5)
H3 H 1.1868(42) 0.5270(32) 0.1513(4)
H4 H 1.3194(46) 0.4565(35) 0.2131(5)
H5 H 1.3983(45) 0.1288(32) 0.0783(5)
H6 H 1.0683(46) 0.5546(33) 0.0926(5)
H7 H 1.3009(43) 0.1636(33) 0.0184(4)
C11B C 1.0988(4) 0.3398(3) -0.0243(1)
F2B F 1.2074(2) 0.1737(2) -0.0486(1)
C9B C 0.9232(4) 0.5376(3) -0.0382(1)
C8B C 0.8496(4) 0.5663(3) -0.0772(1)
C7B C 0.6803(4) 0.7458(3) -0.0931(1)
C4B C 0.6049(4) 0.7789(3) -0.1321(1)
C3B C 0.4371(4) 0.9854(3) -0.1441(1)
C2B C 0.3639(4) 1.0261(3) -0.1808(1)
C1B C 0.4564(4) 0.8576(3) -0.2054(1)
F1B F 0.3843(3) 0.8946(2) -0.2414(1)
C6B C 0.6205(4) 0.6508(3) -0.1950(1)
C5B C 0.6934(4) 0.6132(3) -0.1583(1)
H3B H 0.8132(42) 0.4730(32) -0.1513(4)
H4B H 0.6806(46) 0.5435(35) -0.2131(5)
H1B H 0.2507(49) 1.1625(36) -0.1893(5)
H2B H 0.3698(42) 1.0987(30) -0.1257(5)
H5B H 0.6017(45) 0.8712(32) -0.0783(5)
H6B H 0.9317(46) 0.4454(33) -0.0926(5)
C10B C 0.8250(4) 0.7015(3) -0.0118(1)
H7B H 0.6991(43) 0.8364(33) -0.0184(4)
loop_
_geom_bond_atom_site_label_1
_geom_bond_atom_site_label_2
_geom_bond_site_symmetry_1
_geom_bond_site_symmetry_2
F1 C1 1_555 1_555
F2 C11 1_555 1_555
C1 C2 1_555 1_555
C2 C3 1_555 1_555
C3 C4 1_555 1_555
C4 C5 1_555 1_555
C5 C6 1_555 1_555
C6 C1 1_555 1_555
C7 C4 1_555 1_555
C8 C7 1_555 1_555
C9 C8 1_555 1_555
C10 C9 1_555 1_555
C11 C9 1_555 1_555
H1 C2 1_555 1_555
H2 C3 1_555 1_555
H3 C5 1_555 1_555
H4 C6 1_555 1_555
H5 C7 1_555 1_555
H6 C8 1_555 1_555
H7 C10 1_555 1_555
C11B C10 1_555 1_555
F2B C11B 1_555 1_555
C9B C11B 1_555 1_555
C8B C9B 1_555 1_555
C7B C8B 1_555 1_555
C4B C7B 1_555 1_555
C3B C4B 1_555 1_555
C2B C3B 1_555 1_555
C1B C2B 1_555 1_555
F1B C1B 1_555 1_555
C6B C1B 1_555 1_555
C5B C4B 1_555 1_555
H3B C5B 1_555 1_555
H4B C6B 1_555 1_555
H1B C2B 1_555 1_555
H2B C3B 1_555 1_555
H5B C7B 1_555 1_555
H6B C8B 1_555 1_555
C10B C11 1_555 1_555
H7B C10B 1_555 1_555
C9B C10B 1_555 1_555
C6B C5B 1_555 1_555

#END
