
#######################################################################
#
#                 Cambridge Crystallographic Data Centre
#                                CCDC 
#
#######################################################################
#
# If this CIF has been generated from an entry in the Cambridge 
# Structural Database, then it will include bibliographic, chemical, 
# crystal, experimental, refinement or atomic coordinate data resulting 
# from the CCDC's data processing and validation procedures.
#
#######################################################################

data_WIQHIN
_chemical_formula_moiety         'C22 H16 F2'
_chemical_name_systematic        1,4-bis(Styryl)-2,5-difluorobenzene
_symmetry_cell_setting           monoclinic
_symmetry_space_group_name_H-M   'C 2/c'
_symmetry_Int_Tables_number      15
_space_group_name_Hall           '-C 2yn'
loop_
_symmetry_equiv_pos_site_id
_symmetry_equiv_pos_as_xyz
1 x,y,z
2 -x,y,1/2-z
3 1/2+x,1/2+y,z
4 1/2-x,1/2+y,1/2-z
5 -x,-y,-z
6 x,-y,1/2+z
7 1/2-x,1/2-y,-z
8 1/2+x,1/2-y,1/2+z
_cell_length_a                   12.1979(4)
_cell_length_b                   5.5916(2)
_cell_length_c                   23.1852(4)
_cell_angle_alpha                90
_cell_angle_beta                 92.134(2)
_cell_angle_gamma                90
_cell_volume                     1580.27
_exptl_crystal_colour            'pale green'
_chemical_melting_point          '201 deg.C'
_cell_formula_units_Z            4
_exptl_crystal_recrystallization_method acetone
loop_
_atom_site_label
_atom_site_type_symbol
_atom_site_fract_x
_atom_site_fract_y
_atom_site_fract_z
F1 F 0.8906(1) 0.1160(2) 0.4566(1)
C1 C 1.2585(1) 0.0172(3) 0.3656(1)
C2 C 1.2060(2) -0.1823(3) 0.3415(1)
C3 C 1.2599(2) -0.3390(3) 0.3067(1)
C4 C 1.3690(2) -0.3012(3) 0.2949(1)
C5 C 1.4225(2) -0.1050(3) 0.3178(1)
C6 C 1.3687(1) 0.0532(3) 0.3524(1)
C7 C 1.2068(1) 0.1852(3) 0.4041(1)
C8 C 1.1048(1) 0.1739(3) 0.4226(1)
C9 C 1.0544(1) 0.3418(3) 0.4616(1)
C10 C 0.9465(1) 0.3094(3) 0.4785(1)
C11 C 0.8931(1) 0.4562(3) 0.5151(1)
H1 H 0.8196(16) 0.4141(31) 0.5230(8)
H2 H 1.1312(16) -0.2132(32) 0.3504(8)
H3 H 1.2238(18) -0.4779(41) 0.2920(9)
H4 H 1.4054(14) -0.4134(31) 0.2716(7)
H5 H 1.4984(17) -0.0673(35) 0.3097(8)
H6 H 1.4004(15) 0.1903(35) 0.3686(8)
H7 H 1.2521(16) 0.3105(35) 0.4185(8)
H8 H 1.0601(16) 0.0461(39) 0.4115(8)
C11D C 1.1069(1) 0.5438(3) 0.4849(1)
C10D C 1.0535(1) 0.6906(3) 0.5215(1)
F1D F 1.1094(1) 0.8840(2) 0.5434(1)
C9D C 0.9456(1) 0.6582(3) 0.5384(1)
C8D C 0.8952(1) 0.8261(3) 0.5774(1)
C7D C 0.7932(1) 0.8148(3) 0.5959(1)
C1D C 0.7415(1) 0.9828(3) 0.6344(1)
C2D C 0.7940(2) 1.1823(3) 0.6585(1)
C3D C 0.7401(2) 1.3390(3) 0.6933(1)
C4D C 0.6310(2) 1.3012(3) 0.7051(1)
C5D C 0.5775(2) 1.1050(3) 0.6822(1)
C6D C 0.6313(1) 0.9468(3) 0.6476(1)
H6D H 0.5996(15) 0.8097(35) 0.6314(8)
H5D H 0.5016(17) 1.0673(35) 0.6903(8)
H4D H 0.5946(14) 1.4134(31) 0.7284(7)
H3D H 0.7762(18) 1.4779(41) 0.7080(9)
H2D H 0.8688(16) 1.2132(32) 0.6496(8)
H7D H 0.7479(16) 0.6895(35) 0.5815(8)
H8D H 0.9399(16) 0.9539(39) 0.5885(8)
H1D H 1.1804(16) 0.5859(31) 0.4770(8)
loop_
_geom_bond_atom_site_label_1
_geom_bond_atom_site_label_2
_geom_bond_site_symmetry_1
_geom_bond_site_symmetry_2
F1 C10 1_555 1_555
C1 C2 1_555 1_555
C2 C3 1_555 1_555
C3 C4 1_555 1_555
C4 C5 1_555 1_555
C5 C6 1_555 1_555
C6 C1 1_555 1_555
C7 C1 1_555 1_555
C8 C7 1_555 1_555
C9 C8 1_555 1_555
C10 C9 1_555 1_555
C11 C10 1_555 1_555
H1 C11 1_555 1_555
H2 C2 1_555 1_555
H3 C3 1_555 1_555
H4 C4 1_555 1_555
H5 C5 1_555 1_555
H6 C6 1_555 1_555
H7 C7 1_555 1_555
H8 C8 1_555 1_555
C11D C9 1_555 1_555
C10D C11D 1_555 1_555
F1D C10D 1_555 1_555
C9D C11 1_555 1_555
C8D C9D 1_555 1_555
C7D C8D 1_555 1_555
C1D C7D 1_555 1_555
C2D C1D 1_555 1_555
C3D C2D 1_555 1_555
C4D C3D 1_555 1_555
C5D C4D 1_555 1_555
C6D C1D 1_555 1_555
H6D C6D 1_555 1_555
H5D C5D 1_555 1_555
H4D C4D 1_555 1_555
H3D C3D 1_555 1_555
H2D C2D 1_555 1_555
H7D C7D 1_555 1_555
H8D C8D 1_555 1_555
H1D C11D 1_555 1_555
C10D C9D 1_555 1_555
C5D C6D 1_555 1_555

#END
