
#######################################################################
#
#                 Cambridge Crystallographic Data Centre
#                                CCDC 
#
#######################################################################
#
# If this CIF has been generated from an entry in the Cambridge 
# Structural Database, then it will include bibliographic, chemical, 
# crystal, experimental, refinement or atomic coordinate data resulting 
# from the CCDC's data processing and validation procedures.
#
#######################################################################

data_WIQJEL
_chemical_formula_moiety         'C22 H6 F12'
_chemical_name_systematic        
1,4-bis(Pentafluorostyryl)-2,5-difluorobenzene
_symmetry_cell_setting           monoclinic
_symmetry_space_group_name_H-M   'P 21/c'
_symmetry_Int_Tables_number      14
_space_group_name_Hall           '-P 2ybc'
loop_
_symmetry_equiv_pos_site_id
_symmetry_equiv_pos_as_xyz
1 x,y,z
2 -x,1/2+y,1/2-z
3 -x,-y,-z
4 x,1/2-y,1/2+z
_cell_length_a                   4.829(2)
_cell_length_b                   6.641(2)
_cell_length_c                   28.019(13)
_cell_angle_alpha                90
_cell_angle_beta                 92.28(3)
_cell_angle_gamma                90
_cell_volume                     897.841
_exptl_crystal_colour            colorless
_chemical_melting_point          '207 deg.C'
_cell_formula_units_Z            2
_exptl_crystal_recrystallization_method 'diethyl ether'
loop_
_atom_site_label
_atom_site_type_symbol
_atom_site_fract_x
_atom_site_fract_y
_atom_site_fract_z
F1 F -0.2159(8) 0.9498(6) 0.3366(1)
F2 F -0.6283(8) 1.0354(7) 0.2737(1)
F3 F -0.8868(8) 1.3994(7) 0.2757(1)
F4 F -0.7230(9) 1.6780(6) 0.3419(2)
F5 F -0.3061(8) 1.5956(5) 0.4050(1)
F6 F 0.2222(7) 0.6805(5) 0.4619(1)
C1 C -0.2466(12) 1.2679(9) 0.3742(2)
C2 C -0.3385(13) 1.1306(10) 0.3393(2)
C3 C -0.5495(13) 1.1750(11) 0.3069(2)
C4 C -0.6791(13) 1.3593(11) 0.3073(2)
C5 C -0.5948(13) 1.4994(10) 0.3408(2)
C6 C -0.3831(13) 1.4517(10) 0.3725(2)
C7 C -0.0294(12) 1.2323(10) 0.4112(2)
C8 C 0.0809(12) 1.0549(9) 0.4252(2)
C9 C 0.2934(11) 1.0328(9) 0.4630(2)
C10 C 0.3632(12) 0.8426(9) 0.4800(2)
C11 C 0.4379(13) 1.1936(9) 0.4848(2)
H1 H 0.0419(12) 1.3484(10) 0.4272(2)
H2 H 0.0158(12) 0.9365(9) 0.4094(2)
H3 H 0.3978(13) 1.3279(9) 0.4752(2)
C11B C 0.5621(13) 0.8064(9) 0.5152(2)
C9B C 0.7066(11) 0.9672(9) 0.5370(2)
C8B C 0.9191(12) 0.9451(9) 0.5748(2)
C7B C 1.0294(12) 0.7677(10) 0.5888(2)
C1B C 1.2466(12) 0.7321(9) 0.6258(2)
C2B C 1.3385(13) 0.8694(10) 0.6607(2)
F1B F 1.2159(8) 1.0502(6) 0.6634(1)
C3B C 1.5495(13) 0.8250(11) 0.6931(2)
F2B F 1.6283(8) 0.9646(7) 0.7263(1)
C4B C 1.6791(13) 0.6407(11) 0.6927(2)
F3B F 1.8868(8) 0.6006(7) 0.7243(1)
C5B C 1.5948(13) 0.5006(10) 0.6592(2)
F4B F 1.7230(9) 0.3220(6) 0.6581(2)
C6B C 1.3831(13) 0.5483(10) 0.6275(2)
F5B F 1.3061(8) 0.4044(5) 0.5950(1)
H1B H 0.9581(12) 0.6516(10) 0.5728(2)
H2B H 0.9842(12) 1.0635(9) 0.5906(2)
C10B C 0.6368(12) 1.1574(9) 0.5200(2)
F6B F 0.7778(7) 1.3195(5) 0.5381(1)
H3B H 0.6022(13) 0.6721(9) 0.5248(2)
loop_
_geom_bond_atom_site_label_1
_geom_bond_atom_site_label_2
_geom_bond_site_symmetry_1
_geom_bond_site_symmetry_2
F1 C2 1_555 1_555
F2 C3 1_555 1_555
F3 C4 1_555 1_555
F4 C5 1_555 1_555
F5 C6 1_555 1_555
F6 C10 1_555 1_555
C1 C2 1_555 1_555
C2 C3 1_555 1_555
C3 C4 1_555 1_555
C4 C5 1_555 1_555
C5 C6 1_555 1_555
C6 C1 1_555 1_555
C7 C1 1_555 1_555
C8 C7 1_555 1_555
C9 C8 1_555 1_555
C10 C9 1_555 1_555
C11 C9 1_555 1_555
H1 C7 1_555 1_555
H2 C8 1_555 1_555
H3 C11 1_555 1_555
C11B C10 1_555 1_555
C9B C11B 1_555 1_555
C8B C9B 1_555 1_555
C7B C8B 1_555 1_555
C1B C7B 1_555 1_555
C2B C1B 1_555 1_555
F1B C2B 1_555 1_555
C3B C2B 1_555 1_555
F2B C3B 1_555 1_555
C4B C3B 1_555 1_555
F3B C4B 1_555 1_555
C5B C4B 1_555 1_555
F4B C5B 1_555 1_555
C6B C1B 1_555 1_555
F5B C6B 1_555 1_555
H1B C7B 1_555 1_555
H2B C8B 1_555 1_555
C10B C11 1_555 1_555
F6B C10B 1_555 1_555
H3B C11B 1_555 1_555
C9B C10B 1_555 1_555
C5B C6B 1_555 1_555

#END
