
#######################################################################
#
#                 Cambridge Crystallographic Data Centre
#                                CCDC 
#
#######################################################################
#
# If this CIF has been generated from an entry in the Cambridge 
# Structural Database, then it will include bibliographic, chemical, 
# crystal, experimental, refinement or atomic coordinate data resulting 
# from the CCDC's data processing and validation procedures.
#
#######################################################################

data_WIQJAK
_chemical_formula_moiety         'C33 H39 N6 3+,2(H2 O1),2(Br1 1-),I1 1-'
_chemical_name_systematic        
'2,11,13,22,30,32-hexamethyl-5,8,16,19,24,27-hexaazaheptacyclo[10.10.6.1^3,21^.1^5,8^.1^10,14^.1^16,19^.1^24,27^]tritriaconta-1,3(30),5(33),6,10(32),11,13,17,19(31),21,24(29),25-dodecaene-5,19,24-triium bis(bromide) iodide dihydrate'
_symmetry_cell_setting           monoclinic
_symmetry_space_group_name_H-M   'P 21/m'
_symmetry_Int_Tables_number      11
_space_group_name_Hall           '-P 2yb'
loop_
_symmetry_equiv_pos_site_id
_symmetry_equiv_pos_as_xyz
1 x,y,z
2 -x,1/2+y,-z
3 -x,-y,-z
4 x,1/2-y,z
_cell_length_a                   10.0714(5)
_cell_length_b                   17.5006(5)
_cell_length_c                   10.6518(6)
_cell_angle_alpha                90
_cell_angle_beta                 115.604(7)
_cell_angle_gamma                90
_cell_volume                     1693.08
_exptl_crystal_colour            yellow
_exptl_crystal_description       prism
_cell_formula_units_Z            2
loop_
_atom_site_label
_atom_site_type_symbol
_atom_site_fract_x
_atom_site_fract_y
_atom_site_fract_z
Br1 Br 0.90066(7) 0.54757(3) 0.73632(6)
C1 C 0.2970(5) 0.3979(2) 0.9170(5)
C2 C 0.2994(5) 0.3997(2) 0.7869(5)
C3 C 0.4369(5) 0.3987(2) 0.7806(5)
C4 C 0.5697(5) 0.3984(2) 0.9020(5)
C5 C 0.5638(5) 0.3974(2) 1.0329(5)
C6 C 0.4287(5) 0.3963(2) 1.0412(5)
C7 C 0.1514(5) 0.3913(2) 0.9276(5)
H1 H 0.1519 0.4253 0.9998
H2 H 0.0712 0.4064 0.8401
C8 C 0.1570(6) 0.3982(3) 0.6545(5)
H3 H 0.1003 0.4431 0.6503
H4 H 0.1014 0.3535 0.6539
H5 H 0.1789 0.3972 0.5753
C9 C 0.4392(6) 0.3924(3) 0.6393(5)
H6 H 0.3648 0.4257 0.5732
H7 H 0.5345 0.4084 0.6466
C10 C 0.7166(6) 0.3962(3) 0.8942(6)
H8 H 0.7196 0.3526 0.8409
H9 H 0.7948 0.3927 0.9866
H10 H 0.7283 0.4420 0.8504
C11 C 0.7060(5) 0.3930(2) 1.1658(5)
H11 H 0.7823 0.4217 1.1540
H12 H 0.6913 0.4158 1.2418
C12 C 0.4248(6) 0.3893(3) 1.1810(5)
H13 H 0.4452 0.3374 1.2130
H14 H 0.3290 0.4035 1.1720
H15 H 0.4976 0.4224 1.2468
C13 C 0.0685(6) 0.2888(3) 1.0476(5)
H16 H 0.0339 0.3203 1.0973
C14 C 0.1628(7) 0.2500 0.9081(7)
H17 H 0.2036 0.2500 0.8447
C15 C 0.3344(7) 0.2890(3) 0.4538(6)
H18 H 0.2910 0.3206 0.3764
C16 C 0.4564(8) 0.2500 0.6683(7)
H19 H 0.5124 0.2500 0.7643
C17 C 0.6747(8) 0.2500 1.1425(8)
H20 H 0.5790 0.2500 1.0723
C18 C 0.8870(6) 0.2888(3) 1.2997(5)
H21 H 0.9638 0.3203 1.3569
N1 N 0.1292(4) 0.3122(2) 0.9606(4)
N2 N 0.4101(5) 0.3120(2) 0.5889(4)
N3 N 0.7536(4) 0.3122(2) 1.2003(4)
C1C C 0.2970(5) 0.1021(2) 0.9170(5)
C2C C 0.2994(5) 0.1003(2) 0.7869(5)
C3C C 0.4369(5) 0.1013(2) 0.7806(5)
C4C C 0.5697(5) 0.1016(2) 0.9020(5)
C5C C 0.5638(5) 0.1026(2) 1.0329(5)
C6C C 0.4287(5) 0.1037(2) 1.0412(5)
C7C C 0.1514(5) 0.1087(2) 0.9276(5)
H1C H 0.1519 0.0747 0.9998
H2C H 0.0712 0.0936 0.8401
C8C C 0.1570(6) 0.1018(3) 0.6545(5)
H3C H 0.1003 0.0569 0.6503
H4C H 0.1014 0.1465 0.6539
H5C H 0.1789 0.1028 0.5753
C9C C 0.4392(6) 0.1076(3) 0.6393(5)
H6C H 0.3648 0.0743 0.5732
H7C H 0.5345 0.0916 0.6466
C10C C 0.7166(6) 0.1038(3) 0.8942(6)
H8C H 0.7196 0.1474 0.8409
H9C H 0.7948 0.1073 0.9866
H10C H 0.7283 0.0580 0.8504
C11C C 0.7060(5) 0.1070(2) 1.1658(5)
H11C H 0.7823 0.0783 1.1540
H12C H 0.6913 0.0842 1.2418
C12C C 0.4248(6) 0.1107(3) 1.1810(5)
H13C H 0.4452 0.1626 1.2130
H14C H 0.3290 0.0965 1.1720
H15C H 0.4976 0.0776 1.2468
C13C C 0.0685(6) 0.2112(3) 1.0476(5)
H16C H 0.0339 0.1797 1.0973
C15C C 0.3344(7) 0.2110(3) 0.4538(6)
H18C H 0.2910 0.1794 0.3764
C18C C 0.8870(6) 0.2112(3) 1.2997(5)
H21C H 0.9638 0.1797 1.3569
N1C N 0.1292(4) 0.1878(2) 0.9606(4)
N2C N 0.4101(5) 0.1880(2) 0.5889(4)
N3C N 0.7536(4) 0.1878(2) 1.2003(4)
O1 O 0.7161(9) 0.4310(3) 0.4829(6)
H22 H 0.786(9) 0.448(6) 0.563(6)
H23 H 0.738(13) 0.382(2) 0.510(12)
I1 I 0.2007(3) 0.7500 0.3684(4)
I2? I 0.244(3) 0.7500 0.426(4)
loop_
_geom_bond_atom_site_label_1
_geom_bond_atom_site_label_2
_geom_bond_site_symmetry_1
_geom_bond_site_symmetry_2
C1 C2 1_555 1_555
C2 C3 1_555 1_555
C3 C4 1_555 1_555
C4 C5 1_555 1_555
C5 C6 1_555 1_555
C6 C1 1_555 1_555
C7 C1 1_555 1_555
H1 C7 1_555 1_555
H2 C7 1_555 1_555
C8 C2 1_555 1_555
H3 C8 1_555 1_555
H4 C8 1_555 1_555
H5 C8 1_555 1_555
C9 C3 1_555 1_555
H6 C9 1_555 1_555
H7 C9 1_555 1_555
C10 C4 1_555 1_555
H8 C10 1_555 1_555
H9 C10 1_555 1_555
H10 C10 1_555 1_555
C11 C5 1_555 1_555
H11 C11 1_555 1_555
H12 C11 1_555 1_555
C12 C6 1_555 1_555
H13 C12 1_555 1_555
H14 C12 1_555 1_555
H15 C12 1_555 1_555
C13 H16 1_555 1_555
C14 H17 1_555 1_555
C15 H18 1_555 1_555
C16 H19 1_555 1_555
C17 H20 1_555 1_555
C18 H21 1_555 1_555
N1 C7 1_555 1_555
N2 C9 1_555 1_555
N3 C11 1_555 1_555
O1 H22 1_555 1_555
H23 O1 1_555 1_555
C1C C2C 1_555 1_555
C2C C3C 1_555 1_555
C3C C4C 1_555 1_555
C4C C5C 1_555 1_555
C5C C6C 1_555 1_555
C6C C1C 1_555 1_555
C7C C1C 1_555 1_555
H1C C7C 1_555 1_555
H2C C7C 1_555 1_555
C8C C2C 1_555 1_555
H3C C8C 1_555 1_555
H4C C8C 1_555 1_555
H5C C8C 1_555 1_555
C9C C3C 1_555 1_555
H6C C9C 1_555 1_555
H7C C9C 1_555 1_555
C10C C4C 1_555 1_555
H8C C10C 1_555 1_555
H9C C10C 1_555 1_555
H10C C10C 1_555 1_555
C11C C5C 1_555 1_555
H11C C11C 1_555 1_555
H12C C11C 1_555 1_555
C12C C6C 1_555 1_555
H13C C12C 1_555 1_555
H14C C12C 1_555 1_555
H15C C12C 1_555 1_555
C13C C13 1_555 1_555
H16C C13C 1_555 1_555
C15C C15 1_555 1_555
H18C C15C 1_555 1_555
C18C C18 1_555 1_555
H21C C18C 1_555 1_555
N1C C14 1_555 1_555
N2C C16 1_555 1_555
N3C C17 1_555 1_555
C13 N1 1_555 1_555
C14 N1 1_555 1_555
C15 N2 1_555 1_555
C16 N2 1_555 1_555
C17 N3 1_555 1_555
C18 N3 1_555 1_555
C7C N1C 1_555 1_555
C9C N2C 1_555 1_555
C11C N3C 1_555 1_555
C13C N1C 1_555 1_555
C15C N2C 1_555 1_555
C18C N3C 1_555 1_555

#END
