
#######################################################################
#
#                 Cambridge Crystallographic Data Centre
#                                CCDC 
#
#######################################################################
#
# If this CIF has been generated from an entry in the Cambridge 
# Structural Database, then it will include bibliographic, chemical, 
# crystal, experimental, refinement or atomic coordinate data resulting 
# from the CCDC's data processing and validation procedures.
#
#######################################################################

data_WIQNIW
_chemical_formula_moiety         'C66 H63 N9,2(C1 H1 Cl3)'
_chemical_name_systematic        
'9,12,15,31,34,37,50,53,56-nonaazadecacyclo[21.21.17.2^4,7^.2^17,20^.2^26,29^.2^39,42^.2^45,48^.2^58,61^.1^3,43^.1^21,25^]pentaheptaconta-1,3(66),4,6,8,15,17,19,21(71),22,24,26,28,30,37,39,41,43,45,47,49,56,58,60,62,64,67,69,72,74-triacontaene chloroform solvate'
_symmetry_cell_setting           orthorhombic
_symmetry_space_group_name_H-M   'P b c a'
_symmetry_Int_Tables_number      61
_space_group_name_Hall           '-P 2ac 2ab'
loop_
_symmetry_equiv_pos_site_id
_symmetry_equiv_pos_as_xyz
1 x,y,z
2 1/2-x,-y,1/2+z
3 1/2+x,1/2-y,-z
4 -x,1/2+y,1/2-z
5 -x,-y,-z
6 1/2+x,y,1/2-z
7 1/2-x,1/2+y,z
8 x,1/2-y,1/2+z
_cell_length_a                   26.1980(11)
_cell_length_b                   15.1390(5)
_cell_length_c                   31.8305(11)
_cell_angle_alpha                90
_cell_angle_beta                 90
_cell_angle_gamma                90
_cell_volume                     12624.3
_exptl_crystal_colour            colorless
_exptl_crystal_description       block
_cell_formula_units_Z            8
loop_
_atom_site_label
_atom_site_type_symbol
_atom_site_fract_x
_atom_site_fract_y
_atom_site_fract_z
Cl1 Cl 0.79616(6) 0.16040(12) 0.43450(5)
Cl2 Cl 0.87681(9) 0.24732(15) 0.47876(6)
Cl3 Cl 0.87416(11) 0.05753(18) 0.47443(12)
C1 C 0.8615(2) 0.1547(4) 0.4488(2)
H1 H 0.882349 0.156247 0.422487
C2 C 0.64870(15) 0.3452(2) 0.69056(12)
H2 H 0.617398 0.340470 0.675666
C3 C 0.73989(15) 0.3537(3) 0.69065(12)
H3 H 0.771231 0.356897 0.675719
C4 C 0.69521(15) 0.3393(2) 0.62164(13)
C5 C 0.69412(15) 0.3551(2) 0.75559(12)
H4 H 0.694049 0.356840 0.785421
C6 C 0.74059(15) 0.3566(2) 0.73427(12)
C7 C 0.67033(15) 0.1173(3) 0.76664(12)
H5 H 0.666247 0.121306 0.796230
C8 C 0.59902(15) 0.3583(2) 0.75767(12)
C9 C 0.64751(15) 0.3511(2) 0.73407(12)
C10 C 0.78964(15) 0.3613(3) 0.75785(13)
C11 C 0.62745(15) 0.1131(2) 0.74138(12)
C12 C 0.71975(15) 0.1157(2) 0.74962(12)
C13 C 0.56566(15) 0.0812(3) 0.79983(12)
H6 H 0.592981 0.057319 0.815815
C14 C 0.50826(16) 0.3850(3) 0.80402(13)
C15 C 0.63384(16) 0.1055(2) 0.69818(13)
H7 H 0.604660 0.101578 0.680559
C16 C 0.57531(15) 0.1148(2) 0.75972(12)
C17 C 0.69413(15) 0.3461(2) 0.66809(13)
C18 C 0.88233(16) 0.3620(3) 0.80269(14)
C19 C 0.55816(15) 0.4062(3) 0.74095(13)
H8 H 0.560870 0.430530 0.713532
C20 C 0.68848(16) 0.0921(3) 0.63412(13)
C21 C 0.51713(15) 0.0823(3) 0.81658(12)
H9 H 0.511496 0.059370 0.843974
C22 C 0.46147(16) 0.4029(3) 0.82713(14)
H10 H 0.434251 0.430794 0.812534
C23 C 0.47633(15) 0.1165(3) 0.79384(13)
C24 C 0.54877(16) 0.3356(3) 0.82054(13)
H11 H 0.545778 0.310426 0.847778
N1 N 0.37525(15) 0.2567(2) 0.87665(12)
H12 H 0.354497 0.271385 0.856914
N2 N 0.93647(15) 0.3646(3) 0.86404(12)
C25 C 0.59281(16) 0.3230(3) 0.79780(13)
H13 H 0.619730 0.289271 0.809761
C26 C 0.79276(16) 0.3954(3) 0.79818(13)
H14 H 0.762982 0.419495 0.810799
N3 N 0.45471(14) 0.3838(2) 0.86534(12)
C27 C 0.80952(16) 0.0742(3) 0.76849(14)
H15 H 0.812034 0.042195 0.742901
C28 C 0.83788(17) 0.3954(3) 0.82050(13)
H16 H 0.838597 0.418395 0.848262
C29 C 0.76457(15) 0.1202(3) 0.77772(13)
C30 C 0.68266(16) 0.1036(2) 0.68023(13)
N4 N 1.00843(15) 0.2085(3) 0.86558(12)
H17 H 1.032359 0.223510 0.848512
C31 C 0.72492(16) 0.1093(3) 0.70626(13)
H18 H 0.758105 0.108944 0.694233
C32 C 0.65388(15) 0.3682(3) 0.59700(13)
H19 H 0.624301 0.391345 0.610315
C33 C 0.42450(16) 0.1182(3) 0.81116(14)
H20 H 0.397872 0.142654 0.794575
C34 C 0.88919(18) 0.1199(3) 0.86472(15)
H21 H 0.886322 0.156023 0.889006
C35 C 0.73926(16) 0.3018(3) 0.55723(13)
H22 H 0.768794 0.278824 0.543800
C36 C 0.85013(17) 0.0746(3) 0.79588(15)
H23 H 0.880190 0.042386 0.789246
C37 C 0.51412(16) 0.4186(3) 0.76367(13)
H24 H 0.486889 0.451078 0.751434
C38 C 0.73741(16) 0.3048(3) 0.60064(13)
H25 H 0.765468 0.282984 0.616443
C39 C 0.69890(16) 0.3315(3) 0.53299(13)
N5 N 0.92757(16) 0.0733(3) 0.86068(13)
C40 C 0.84733(17) 0.1220(3) 0.83327(14)
C41 C 0.69775(19) 0.0607(3) 0.54755(14)
C42 C 0.72884(17) 0.0447(3) 0.61786(13)
H26 H 0.753764 0.021313 0.636479
C43 C 0.70354(19) 0.3306(3) 0.48692(14)
H27 H 0.735971 0.317151 0.475204
C44 C 0.93183(17) 0.3601(3) 0.82494(15)
H28 H 0.962012 0.355088 0.808563
C45 C 1.00162(18) 0.2730(3) 0.89877(15)
H29 H 1.033294 0.277191 0.915612
H30 H 0.973674 0.253753 0.917613
C46 C 0.65579(17) 0.3634(3) 0.55347(13)
H31 H 0.627200 0.382218 0.537431
C47 C 0.65251(16) 0.1270(3) 0.60576(14)
H32 H 0.625099 0.162049 0.615957
C48 C 0.98889(18) 0.3629(3) 0.88033(15)
H33 H 0.992759 0.408777 0.902286
H34 H 1.013052 0.376638 0.857325
C49 C 0.53447(16) 0.1500(3) 0.73705(13)
H35 H 0.540175 0.174171 0.709913
C50 C 0.88000(17) 0.3311(3) 0.76168(14)
H36 H 0.910255 0.311097 0.748264
C51 C 0.48594(16) 0.1498(3) 0.75376(13)
H37 H 0.458481 0.172908 0.737656
C52 C 0.36215(17) 0.1012(3) 0.86230(16)
H38 H 0.349162 0.045200 0.874285
H39 H 0.339574 0.118481 0.838753
N6 N 0.41371(14) 0.0887(2) 0.84704(12)
C53 C 0.83459(16) 0.3291(3) 0.74028(14)
H40 H 0.833784 0.305079 0.712720
C54 C 0.76325(17) 0.1692(3) 0.81519(14)
H41 H 0.733410 0.201721 0.822126
N7 N 0.66763(16) 0.3464(3) 0.46220(12)
C55 C 0.80412(17) 0.1709(3) 0.84180(15)
H42 H 0.802784 0.206156 0.866458
C56 C 0.36173(18) 0.1726(3) 0.89570(15)
H43 H 0.327360 0.176650 0.908491
H44 H 0.386486 0.157817 0.918113
C57 C 0.65674(18) 0.1108(3) 0.56359(14)
H45 H 0.631740 0.133637 0.544886
C58 C 0.40530(19) 0.4067(3) 0.88383(16)
H46 H 0.381467 0.425749 0.861451
H47 H 0.409594 0.456374 0.903772
C59 C 0.73400(18) 0.0302(3) 0.57537(15)
H48 H 0.762857 -0.001065 0.565115
C60 C 1.01371(19) 0.1182(3) 0.87953(17)
H49 H 1.038845 0.116579 0.902736
H50 H 1.027789 0.082806 0.856091
C61 C 0.38367(19) 0.3279(3) 0.90648(15)
H51 H 0.407727 0.308244 0.928577
H52 H 0.351018 0.344062 0.920106
C62 C 0.96484(18) 0.0749(4) 0.89446(17)
H53 H 0.972104 0.013875 0.903844
H54 H 0.950876 0.108214 0.918646
N8 N 0.6670(2) 0.0484(4) 0.47780(15)
C63 C 0.6791(2) 0.3417(4) 0.41730(15)
H55 H 0.716471 0.342068 0.412965
H56 H 0.664457 0.393725 0.402771
C64 C 0.7023(2) 0.0395(4) 0.50249(16)
H57 H 0.734015 0.018089 0.492246
C65 C 0.6560(3) 0.2559(5) 0.39879(18)
H58 H 0.618705 0.255187 0.404010
H59 H 0.661426 0.255060 0.368022
N9 N 0.67892(19) 0.1777(3) 0.41732(15)
H60 H 0.683208 0.183518 0.443970
C66 C 0.6555(3) 0.0959(5) 0.4067(2)
H61 H 0.661886 0.082183 0.376791
H62 H 0.618094 0.100266 0.410935
C67 C 0.6765(3) 0.0244(5) 0.43355(19)
H63 H 0.659576 -0.032342 0.426865
H64 H 0.713553 0.017872 0.428499
Cl4 Cl 0.51763(10) 0.10951(17) 1.00438(9)
Cl5 Cl 0.51203(13) 0.1686(3) 0.91961(9)
Cl6 Cl 0.54135(19) 0.2883(2) 0.98329(13)
C68 C 0.5439(4) 0.1766(7) 0.9665(3)
Cl7? Cl 0.5134(4) 0.3358(6) 1.0025(3)
Cl8? Cl 0.44732(14) 0.4790(2) 0.99162(11)
C69? C 0.5021(12) 0.446(2) 0.9858(8)
loop_
_geom_bond_atom_site_label_1
_geom_bond_atom_site_label_2
_geom_bond_site_symmetry_1
_geom_bond_site_symmetry_2
Cl1 C1 1_555 1_555
Cl2 C1 1_555 1_555
Cl3 C1 1_555 1_555
C1 H1 1_555 1_555
C2 H2 1_555 1_555
C3 H3 1_555 1_555
C4 C17 1_555 1_555
C5 H4 1_555 1_555
C6 C3 1_555 1_555
C7 H5 1_555 1_555
C8 C9 1_555 1_555
C9 C2 1_555 1_555
C10 C6 1_555 1_555
C11 C7 1_555 1_555
C12 C7 1_555 1_555
C13 H6 1_555 1_555
C14 C22 1_555 1_555
C15 C11 1_555 1_555
H7 C15 1_555 1_555
C16 C11 1_555 1_555
C17 C2 1_555 1_555
C18 C28 1_555 1_555
C19 C8 1_555 1_555
H8 C19 1_555 1_555
C20 C30 1_555 1_555
C21 C13 1_555 1_555
H9 C21 1_555 1_555
C22 H10 1_555 1_555
C23 C21 1_555 1_555
C24 C14 1_555 1_555
H11 C24 1_555 1_555
N1 H12 1_555 1_555
N2 C44 1_555 1_555
C25 C8 1_555 1_555
H13 C25 1_555 1_555
C26 C10 1_555 1_555
H14 C26 1_555 1_555
N3 C22 1_555 1_555
C27 H15 1_555 1_555
C28 C26 1_555 1_555
H16 C28 1_555 1_555
C29 C12 1_555 1_555
C30 C15 1_555 1_555
N4 H17 1_555 1_555
C31 C12 1_555 1_555
H18 C31 1_555 1_555
C32 C4 1_555 1_555
H19 C32 1_555 1_555
C33 C23 1_555 1_555
H20 C33 1_555 1_555
C34 H21 1_555 1_555
C35 H22 1_555 1_555
C36 C27 1_555 1_555
H23 C36 1_555 1_555
C37 C14 1_555 1_555
H24 C37 1_555 1_555
C38 C4 1_555 1_555
H25 C38 1_555 1_555
C39 C35 1_555 1_555
N5 C34 1_555 1_555
C40 C34 1_555 1_555
C41 C57 1_555 1_555
C42 C20 1_555 1_555
H26 C42 1_555 1_555
C43 C39 1_555 1_555
H27 C43 1_555 1_555
C44 C18 1_555 1_555
H28 C44 1_555 1_555
C45 N4 1_555 1_555
H29 C45 1_555 1_555
H30 C45 1_555 1_555
C46 C32 1_555 1_555
H31 C46 1_555 1_555
C47 C20 1_555 1_555
H32 C47 1_555 1_555
C48 N2 1_555 1_555
H33 C48 1_555 1_555
H34 C48 1_555 1_555
C49 C16 1_555 1_555
H35 C49 1_555 1_555
C50 C18 1_555 1_555
H36 C50 1_555 1_555
C51 C23 1_555 1_555
H37 C51 1_555 1_555
C52 H38 1_555 1_555
H39 C52 1_555 1_555
N6 C33 1_555 1_555
C53 C10 1_555 1_555
H40 C53 1_555 1_555
C54 C29 1_555 1_555
H41 C54 1_555 1_555
N7 C43 1_555 1_555
C55 C40 1_555 1_555
H42 C55 1_555 1_555
C56 N1 1_555 1_555
H43 C56 1_555 1_555
H44 C56 1_555 1_555
C57 C47 1_555 1_555
H45 C57 1_555 1_555
C58 N3 1_555 1_555
H46 C58 1_555 1_555
H47 C58 1_555 1_555
C59 C41 1_555 1_555
H48 C59 1_555 1_555
C60 N4 1_555 1_555
H49 C60 1_555 1_555
H50 C60 1_555 1_555
C61 N1 1_555 1_555
H51 C61 1_555 1_555
H52 C61 1_555 1_555
C62 N5 1_555 1_555
H53 C62 1_555 1_555
H54 C62 1_555 1_555
N8 C64 1_555 1_555
C63 N7 1_555 1_555
H55 C63 1_555 1_555
H56 C63 1_555 1_555
C64 C41 1_555 1_555
H57 C64 1_555 1_555
C65 C63 1_555 1_555
H58 C65 1_555 1_555
H59 C65 1_555 1_555
N9 C65 1_555 1_555
H60 N9 1_555 1_555
C66 N9 1_555 1_555
H61 C66 1_555 1_555
H62 C66 1_555 1_555
C67 N8 1_555 1_555
H63 C67 1_555 1_555
H64 C67 1_555 1_555
Cl4 C68 1_555 1_555
Cl5 C68 1_555 1_555
Cl6 C68 1_555 1_555
C3 C17 1_555 1_555
C5 C6 1_555 1_555
C5 C9 1_555 1_555
C13 C16 1_555 1_555
C19 C37 1_555 1_555
C24 C25 1_555 1_555
C27 C29 1_555 1_555
C30 C31 1_555 1_555
C35 C38 1_555 1_555
C36 C40 1_555 1_555
C39 C46 1_555 1_555
C42 C59 1_555 1_555
C45 C48 1_555 1_555
C49 C51 1_555 1_555
C50 C53 1_555 1_555
C52 N6 1_555 1_555
C52 C56 1_555 1_555
C54 C55 1_555 1_555
C58 C61 1_555 1_555
C60 C62 1_555 1_555
C66 C67 1_555 1_555

#END
