
#######################################################################
#
#                 Cambridge Crystallographic Data Centre
#                                CCDC 
#
#######################################################################
#
# If this CIF has been generated from an entry in the Cambridge 
# Structural Database, then it will include bibliographic, chemical, 
# crystal, experimental, refinement or atomic coordinate data resulting 
# from the CCDC's data processing and validation procedures.
#
#######################################################################

data_WIQNUF
_chemical_formula_moiety         'C26 F20 O4'
_chemical_name_systematic        tetrakis(Pentafluorophenoxy)ethene
_symmetry_cell_setting           monoclinic
_symmetry_space_group_name_H-M   'P 21/c'
_symmetry_Int_Tables_number      14
_space_group_name_Hall           '-P 2ybc'
loop_
_symmetry_equiv_pos_site_id
_symmetry_equiv_pos_as_xyz
1 x,y,z
2 -x,1/2+y,1/2-z
3 -x,-y,-z
4 x,1/2-y,1/2+z
_cell_length_a                   10.112(3)
_cell_length_b                   8.999(2)
_cell_length_c                   13.344(3)
_cell_angle_alpha                90
_cell_angle_beta                 97.38(3)
_cell_angle_gamma                90
_cell_volume                     1204.22
_exptl_crystal_description       prism
_chemical_melting_point          '143.0-144.0 deg.C'
_cell_formula_units_Z            2
loop_
_atom_site_label
_atom_site_type_symbol
_atom_site_fract_x
_atom_site_fract_y
_atom_site_fract_z
F1 F 1.2049(1) -0.5467(1) 0.1990(1)
F2 F 1.4268(1) -0.4455(1) 0.3170(1)
F3 F 1.6144(1) -0.2899(1) 0.2321(1)
F4 F 1.5852(1) -0.2442(1) 0.0281(1)
F5 F 1.3674(1) -0.3487(1) -0.0889(1)
F6 F 0.8539(1) -0.1528(1) 0.1133(1)
F7 F 0.6999(1) 0.0485(1) 0.0008(1)
F8 F 0.7304(1) 0.0913(1) -0.1966(1)
F9 F 0.9198(1) -0.0641(1) -0.2808(1)
F10 F 1.0778(1) -0.2609(1) -0.1675(1)
O1 O 1.1757(1) -0.5060(1) -0.0100(1)
O2 O 1.0475(1) -0.3086(1) 0.0354(1)
C1 C 1.0519(2) -0.4549(2) 0.0052(1)
C2 C 1.2824(2) -0.4489(2) 0.0534(1)
C3 C 1.2988(2) -0.4726(2) 0.1572(1)
C4 C 1.4106(2) -0.4200(2) 0.2173(1)
C5 C 1.5068(2) -0.3418(2) 0.1741(1)
C6 C 1.4919(2) -0.3178(2) 0.0710(1)
C7 C 1.3801(2) -0.3713(2) 0.0109(1)
C8 C 0.9656(2) -0.2136(2) -0.0263(1)
C9 C 0.8696(2) -0.1333(2) 0.0163(1)
C10 C 0.7909(2) -0.0300(2) -0.0411(1)
C11 C 0.8076(2) -0.0070(2) -0.1411(1)
C12 C 0.9034(2) -0.0862(2) -0.1842(1)
C13 C 0.9828(2) -0.1875(2) -0.1263(1)
C1B C 0.9481(2) -0.5451(2) -0.0052(1)
O1B O 0.8243(1) -0.4940(1) 0.0100(1)
C2B C 0.7176(2) -0.5511(2) -0.0534(1)
C3B C 0.7012(2) -0.5274(2) -0.1572(1)
F1B F 0.7951(1) -0.4533(1) -0.1990(1)
C4B C 0.5894(2) -0.5800(2) -0.2173(1)
F2B F 0.5732(1) -0.5545(1) -0.3170(1)
C5B C 0.4932(2) -0.6582(2) -0.1741(1)
F3B F 0.3856(1) -0.7101(1) -0.2321(1)
C6B C 0.5081(2) -0.6822(2) -0.0710(1)
F4B F 0.4148(1) -0.7558(1) -0.0281(1)
C7B C 0.6199(2) -0.6287(2) -0.0109(1)
F5B F 0.6326(1) -0.6513(1) 0.0889(1)
O2B O 0.9525(1) -0.6914(1) -0.0354(1)
C8B C 1.0344(2) -0.7864(2) 0.0263(1)
C9B C 1.1304(2) -0.8667(2) -0.0163(1)
F6B F 1.1461(1) -0.8472(1) -0.1133(1)
C10B C 1.2091(2) -0.9700(2) 0.0411(1)
F7B F 1.3001(1) -1.0485(1) -0.0008(1)
C11B C 1.1924(2) -0.9930(2) 0.1411(1)
F8B F 1.2696(1) -1.0913(1) 0.1966(1)
C12B C 1.0966(2) -0.9138(2) 0.1842(1)
F9B F 1.0802(1) -0.9359(1) 0.2808(1)
C13B C 1.0172(2) -0.8125(2) 0.1263(1)
F10B F 0.9222(1) -0.7391(1) 0.1675(1)
loop_
_geom_bond_atom_site_label_1
_geom_bond_atom_site_label_2
_geom_bond_site_symmetry_1
_geom_bond_site_symmetry_2
F1 C3 1_555 1_555
F2 C4 1_555 1_555
F3 C5 1_555 1_555
F4 C6 1_555 1_555
F5 C7 1_555 1_555
F6 C9 1_555 1_555
F7 C10 1_555 1_555
F8 C11 1_555 1_555
F9 C12 1_555 1_555
F10 C13 1_555 1_555
O1 C1 1_555 1_555
O2 C1 1_555 1_555
C1 C1B 1_555 1_555
C2 O1 1_555 1_555
C3 C2 1_555 1_555
C4 C3 1_555 1_555
C5 C4 1_555 1_555
C6 C5 1_555 1_555
C7 C2 1_555 1_555
C8 O2 1_555 1_555
C9 C8 1_555 1_555
C10 C9 1_555 1_555
C11 C10 1_555 1_555
C12 C11 1_555 1_555
C13 C8 1_555 1_555
C1B O1B 1_555 1_555
O1B C2B 1_555 1_555
C2B C3B 1_555 1_555
C3B F1B 1_555 1_555
C4B C3B 1_555 1_555
F2B C4B 1_555 1_555
C5B C4B 1_555 1_555
F3B C5B 1_555 1_555
C6B C5B 1_555 1_555
F4B C6B 1_555 1_555
C7B C2B 1_555 1_555
F5B C7B 1_555 1_555
O2B C1B 1_555 1_555
C8B O2B 1_555 1_555
C9B C8B 1_555 1_555
F6B C9B 1_555 1_555
C10B C9B 1_555 1_555
F7B C10B 1_555 1_555
C11B C10B 1_555 1_555
F8B C11B 1_555 1_555
C12B C11B 1_555 1_555
F9B C12B 1_555 1_555
C13B C8B 1_555 1_555
F10B C13B 1_555 1_555
C6 C7 1_555 1_555
C12 C13 1_555 1_555
C6B C7B 1_555 1_555
C12B C13B 1_555 1_555

#END
