
#######################################################################
#
#                 Cambridge Crystallographic Data Centre
#                                CCDC 
#
#######################################################################
#
# If this CIF has been generated from an entry in the Cambridge 
# Structural Database, then it will include bibliographic, chemical, 
# crystal, experimental, refinement or atomic coordinate data resulting 
# from the CCDC's data processing and validation procedures.
#
#######################################################################

data_WIQSOH
_chemical_formula_moiety         'C19 H15 N3 O3,H2 O1'
_chemical_name_systematic        
'8a-methyl-8,8a-dihydro-2H-benzimidazo[1,2-c][1,3]dioxolo[4,5-g]pyrrolo[1,2-a]quinazolin-6(7H)-one monohydrate'
_symmetry_cell_setting           monoclinic
_symmetry_space_group_name_H-M   'P 21/c'
_symmetry_Int_Tables_number      14
_space_group_name_Hall           '-P 2ybc'
loop_
_symmetry_equiv_pos_site_id
_symmetry_equiv_pos_as_xyz
1 x,y,z
2 -x,1/2+y,1/2-z
3 -x,-y,-z
4 x,1/2-y,1/2+z
_cell_length_a                   10.6180(9)
_cell_length_b                   13.5123(10)
_cell_length_c                   12.1001(12)
_cell_angle_alpha                90
_cell_angle_beta                 108.177(3)
_cell_angle_gamma                90
_cell_volume                     1649.41
_exptl_crystal_colour            colorless
_exptl_crystal_description       block
_cell_formula_units_Z            4
loop_
_atom_site_label
_atom_site_type_symbol
_atom_site_fract_x
_atom_site_fract_y
_atom_site_fract_z
O1 O 0.9723(2) 0.1047(2) 0.1717(3)
O2 O 0.8596(3) -0.0208(2) 0.5132(3)
O3 O 0.6406(3) -0.0583(2) 0.4884(2)
N1 N 0.3640(3) 0.0757(2) 0.0657(3)
N2 N 0.5261(3) 0.15960(19) 0.0246(2)
N3 N 0.7520(3) 0.14429(19) 0.1342(2)
C1 C 0.3121(4) 0.1240(2) -0.0404(3)
C2 C 0.1829(4) 0.1246(3) -0.1157(4)
H1 H 0.1161 0.0894 -0.0986
C3 C 0.1574(5) 0.1788(3) -0.2158(4)
H2 H 0.0716 0.1799 -0.2674
C4 C 0.2558(5) 0.2323(3) -0.2427(4)
H3 H 0.2344 0.2683 -0.3116
C5 C 0.3838(4) 0.2331(3) -0.1697(3)
H4 H 0.4497 0.2691 -0.1873
C6 C 0.4109(4) 0.1775(2) -0.0679(3)
C7 C 0.4906(3) 0.1004(2) 0.1018(3)
C8 C 0.5894(3) 0.0712(2) 0.2098(3)
C9 C 0.5522(3) 0.0199(2) 0.2961(3)
H5 H 0.4638 0.0061 0.2874
C10 C 0.6508(4) -0.0085(2) 0.3925(3)
C11 C 0.7821(4) 0.0136(3) 0.4073(3)
C12 C 0.8222(3) 0.0658(2) 0.3272(3)
H6 H 0.9107 0.0816 0.3394
C13 C 0.7227(3) 0.0940(2) 0.2263(3)
C14 C 0.8721(4) 0.1462(3) 0.1130(3)
C15 C 0.8566(4) 0.2088(3) 0.0073(3)
H7 H 0.8962 0.1767 -0.0455
H8 H 0.8980 0.2729 0.0289
C16 C 0.7077(4) 0.2194(3) -0.0483(3)
H9 H 0.6728 0.1674 -0.1047
H10 H 0.6855 0.2831 -0.0863
C17 C 0.6541(3) 0.2105(2) 0.0549(3)
C18 C 0.6456(4) 0.3089(2) 0.1135(3)
H11 H 0.6118 0.2981 0.1774
H12 H 0.5874 0.3527 0.0582
H13 H 0.7323 0.3379 0.1417
C19 C 0.7729(4) -0.0786(3) 0.5577(4)
H14 H 0.7922 -0.1485 0.5540
H15 H 0.7852 -0.0613 0.6382
O4 O 0.1845(4) -0.0209(2) 0.1672(3)
H16 H 0.117(4) 0.020(3) 0.154(5)
H17 H 0.238(4) 0.011(4) 0.137(5)
loop_
_geom_bond_atom_site_label_1
_geom_bond_atom_site_label_2
_geom_bond_site_symmetry_1
_geom_bond_site_symmetry_2
O1 C14 1_555 1_555
O2 C11 1_555 1_555
O3 C10 1_555 1_555
N1 C1 1_555 1_555
N2 C6 1_555 1_555
N3 C13 1_555 1_555
C1 C2 1_555 1_555
C2 H1 1_555 1_555
C3 C2 1_555 1_555
H2 C3 1_555 1_555
C4 C3 1_555 1_555
H3 C4 1_555 1_555
C5 C4 1_555 1_555
H4 C5 1_555 1_555
C6 C1 1_555 1_555
C7 N1 1_555 1_555
C8 C7 1_555 1_555
C9 C8 1_555 1_555
H5 C9 1_555 1_555
C10 C9 1_555 1_555
C11 C10 1_555 1_555
C12 C11 1_555 1_555
H6 C12 1_555 1_555
C13 C8 1_555 1_555
C14 N3 1_555 1_555
C15 C14 1_555 1_555
H7 C15 1_555 1_555
H8 C15 1_555 1_555
C16 C15 1_555 1_555
H9 C16 1_555 1_555
H10 C16 1_555 1_555
C17 N2 1_555 1_555
C18 C17 1_555 1_555
H11 C18 1_555 1_555
H12 C18 1_555 1_555
H13 C18 1_555 1_555
C19 O2 1_555 1_555
H14 C19 1_555 1_555
H15 C19 1_555 1_555
O4 H16 1_555 1_555
H17 O4 1_555 1_555
O3 C19 1_555 1_555
N2 C7 1_555 1_555
N3 C17 1_555 1_555
C5 C6 1_555 1_555
C12 C13 1_555 1_555
C16 C17 1_555 1_555

#END
