
#######################################################################
#
#                 Cambridge Crystallographic Data Centre
#                                CCDC 
#
#######################################################################
#
# If this CIF has been generated from an entry in the Cambridge 
# Structural Database, then it will include bibliographic, chemical, 
# crystal, experimental, refinement or atomic coordinate data resulting 
# from the CCDC's data processing and validation procedures.
#
#######################################################################

data_WIQTEY
_chemical_compound_source        'fungus Xylaria feejeensis GM06'
_chemical_name_common            '(-) Mangostafeejin A'
_chemical_formula_moiety         'C25 H28 O9'
_chemical_name_systematic        
9b-hydroxy-2-(2-hydroxypropan-2-yl)-4,9-dimethoxy-12,12-dimethyl-2,3,11,12-tetrahydro-9bH-11,13a-epoxyfuro[2,3-a]oxepino[4,3,2-kl]xanthen-8(10H)-one
_symmetry_cell_setting           trigonal
_symmetry_space_group_name_H-M   'P 31 2 1'
_symmetry_Int_Tables_number      152
_space_group_name_Hall           'P 31 2"'
loop_
_symmetry_equiv_pos_site_id
_symmetry_equiv_pos_as_xyz
1 x,y,z
2 -y,x-y,1/3+z
3 -x+y,-x,2/3+z
4 x-y,-y,2/3-z
5 -x,-x+y,1/3-z
6 y,x,-z
_cell_length_a                   11.6878(3)
_cell_length_b                   11.6878(3)
_cell_length_c                   29.8747(8)
_cell_angle_alpha                90
_cell_angle_beta                 90
_cell_angle_gamma                120
_cell_volume                     3534.27
_exptl_crystal_colour            'light yellow'
_exptl_crystal_description       block
_cell_formula_units_Z            6
loop_
_atom_site_label
_atom_site_type_symbol
_atom_site_fract_x
_atom_site_fract_y
_atom_site_fract_z
C1 C 0.1016(3) 0.8824(3) 0.99498(10)
C2 C 0.1850(3) 0.9872(3) 1.02261(10)
C3 C 0.3140(3) 1.0711(3) 1.00968(12)
C4 C 0.3577(3) 1.0544(3) 0.96849(12)
H1 H 0.4438 1.1113 0.9591
C5 C 0.2709(3) 0.9517(3) 0.94181(10)
C6 C 0.3101(3) 0.8225(3) 0.83859(13)
H2 H 0.4017 0.8625 0.8382
C7 C 0.2346(3) 0.7284(3) 0.80510(12)
C8 C 0.0899(3) 0.6643(3) 0.80681(11)
C9 C 0.0278(3) 0.6947(3) 0.83947(11)
C10 C 0.1064(3) 0.8032(3) 0.87245(10)
C11 C 0.0543(3) 0.7538(3) 0.92047(10)
C12 C 0.1394(3) 0.8593(3) 0.95285(10)
C13 C 0.2514(3) 0.8540(3) 0.87053(12)
C14 C 0.1125(3) 0.9841(3) 1.06380(11)
H3 H 0.1105 1.0656 1.0675
H4 H 0.1517 0.9693 1.0902
C15 C -0.0257(3) 0.8673(3) 1.05500(10)
H5 H -0.0856 0.9021 1.0505
C16 C -0.0836(3) 0.7627(3) 1.09153(10)
C17 C 0.0033(4) 0.7034(4) 1.10158(13)
H6 H 0.0149 0.6648 1.0748
H7 H -0.0379 0.6364 1.1241
H8 H 0.0879 0.7714 1.1121
C18 C -0.2222(4) 0.6573(4) 1.07948(13)
H9 H -0.2747 0.6977 1.0733
H10 H -0.2604 0.5968 1.1040
H11 H -0.2198 0.6104 1.0534
C19 C -0.1175(3) 0.6223(3) 0.84782(10)
H12 H -0.1584 0.5392 0.8316
H13 H -0.1554 0.6744 0.8370
C20 C -0.1452(3) 0.5957(3) 0.89808(10)
H14 H -0.2405 0.5504 0.9039
C21 C -0.0830(3) 0.5233(3) 0.92089(11)
C22 C -0.0768(4) 0.4178(3) 0.89384(13)
H15 H -0.0339 0.4542 0.8658
H16 H -0.1647 0.3463 0.8884
H17 H -0.0277 0.3855 0.9101
C23 C -0.1452(4) 0.4727(4) 0.96629(12)
H18 H -0.1507 0.5414 0.9821
H19 H -0.0921 0.4465 0.9831
H20 H -0.2323 0.3981 0.9625
C24 C 0.5312(4) 1.2427(4) 1.03153(17)
H21 H 0.5764 1.2869 1.0585
H22 H 0.5476 1.3070 1.0087
H23 H 0.5628 1.1852 1.0217
C25 C 0.0347(5) 0.5908(5) 0.73242(14)
H24 H -0.0347 0.5199 0.7157
H25 H 0.1185 0.6029 0.7229
H26 H 0.0323 0.6707 0.7273
O1 O -0.01961(19) 0.8052(2) 1.01303(6)
O2 O 0.3920(3) 1.1664(2) 1.04008(8)
O3 O 0.3274(2) 0.9447(2) 0.90202(8)
O4 O 0.2886(3) 0.6966(3) 0.77596(10)
O5 O 0.0167(3) 0.5595(2) 0.77914(8)
O6 O 0.0834(2) 0.9111(2) 0.86576(7)
H27 H 0.0862 0.9270 0.8389
O7 O -0.07877(18) 0.72201(18) 0.92134(6)
O8 O 0.05333(18) 0.63322(18) 0.92811(7)
O9 O -0.0907(2) 0.8299(2) 1.13111(6)
H28 H -0.1362 0.8636 1.1259
H29? H 0.1429 0.9677 0.8504
H30? H -0.0971 0.8941 1.1237
loop_
_geom_bond_atom_site_label_1
_geom_bond_atom_site_label_2
_geom_bond_site_symmetry_1
_geom_bond_site_symmetry_2
C1 C2 1_555 1_555
C2 C3 1_555 1_555
C3 C4 1_555 1_555
C4 H1 1_555 1_555
C5 C4 1_555 1_555
C6 H2 1_555 1_555
C7 C6 1_555 1_555
C8 C7 1_555 1_555
C9 C8 1_555 1_555
C10 C9 1_555 1_555
C11 C10 1_555 1_555
C12 C1 1_555 1_555
C13 C6 1_555 1_555
C14 C2 1_555 1_555
H3 C14 1_555 1_555
H4 C14 1_555 1_555
C15 C14 1_555 1_555
H5 C15 1_555 1_555
C16 C15 1_555 1_555
C17 C16 1_555 1_555
H6 C17 1_555 1_555
H7 C17 1_555 1_555
H8 C17 1_555 1_555
C18 C16 1_555 1_555
H9 C18 1_555 1_555
H10 C18 1_555 1_555
H11 C18 1_555 1_555
C19 C9 1_555 1_555
H12 C19 1_555 1_555
H13 C19 1_555 1_555
C20 C19 1_555 1_555
H14 C20 1_555 1_555
C21 C20 1_555 1_555
C22 C21 1_555 1_555
H15 C22 1_555 1_555
H16 C22 1_555 1_555
H17 C22 1_555 1_555
C23 C21 1_555 1_555
H18 C23 1_555 1_555
H19 C23 1_555 1_555
H20 C23 1_555 1_555
C24 H21 1_555 1_555
H22 C24 1_555 1_555
H23 C24 1_555 1_555
C25 H24 1_555 1_555
H25 C25 1_555 1_555
H26 C25 1_555 1_555
O1 C1 1_555 1_555
O2 C3 1_555 1_555
O3 C5 1_555 1_555
O4 C7 1_555 1_555
O5 C8 1_555 1_555
O6 C10 1_555 1_555
H27 O6 1_555 1_555
O7 C11 1_555 1_555
O8 C11 1_555 1_555
O9 C16 1_555 1_555
H28 O9 1_555 1_555
C5 C12 1_555 1_555
C10 C13 1_555 1_555
C11 C12 1_555 1_555
C13 O3 1_555 1_555
C15 O1 1_555 1_555
C20 O7 1_555 1_555
C21 O8 1_555 1_555
C24 O2 1_555 1_555
C25 O5 1_555 1_555

#END
