
#######################################################################
#
#                 Cambridge Crystallographic Data Centre
#                                CCDC 
#
#######################################################################
#
# If this CIF has been generated from an entry in the Cambridge 
# Structural Database, then it will include bibliographic, chemical, 
# crystal, experimental, refinement or atomic coordinate data resulting 
# from the CCDC's data processing and validation procedures.
#
#######################################################################

data_WIQTIC
_chemical_compound_source        'fungus Xylaria feejeensis GM06'
_chemical_name_common            '(+) Mangostafeejin A'
_chemical_formula_moiety         'C25 H28 O9'
_chemical_name_systematic        
9b-hydroxy-2-(2-hydroxypropan-2-yl)-4,9-dimethoxy-12,12-dimethyl-2,3,11,12-tetrahydro-9bH-11,13a-epoxyfuro[2,3-a]oxepino[4,3,2-kl]xanthen-8(10H)-one
_symmetry_cell_setting           trigonal
_symmetry_space_group_name_H-M   'P 32 2 1'
_symmetry_Int_Tables_number      154
_space_group_name_Hall           'P 32 2"'
loop_
_symmetry_equiv_pos_site_id
_symmetry_equiv_pos_as_xyz
1 x,y,z
2 -y,x-y,2/3+z
3 -x+y,-x,1/3+z
4 y,x,-z
5 x-y,-y,1/3-z
6 -x,-x+y,2/3-z
_cell_length_a                   11.6860(2)
_cell_length_b                   11.6860(2)
_cell_length_c                   29.8596(6)
_cell_angle_alpha                90
_cell_angle_beta                 90
_cell_angle_gamma                120
_cell_volume                     3531.4
_exptl_crystal_colour            'light yellow'
_exptl_crystal_description       Block
_cell_formula_units_Z            6
loop_
_atom_site_label
_atom_site_type_symbol
_atom_site_fract_x
_atom_site_fract_y
_atom_site_fract_z
C1 C 0.8825(3) 0.7806(3) 0.67162(11)
C2 C 0.9864(3) 0.8015(4) 0.64424(11)
C3 C 1.0711(4) 0.7562(4) 0.65702(13)
C4 C 1.0541(4) 0.6964(4) 0.69818(13)
H1 H 1.1108 0.6671 0.7078
C5 C 0.9517(4) 0.6812(4) 0.72462(12)
C6 C 0.8229(4) 0.5122(4) 0.82791(14)
H2 H 0.8626 0.4602 0.8281
C7 C 0.7282(4) 0.4938(4) 0.86155(14)
C8 C 0.6650(4) 0.5748(4) 0.85956(13)
C9 C 0.6948(4) 0.6666(4) 0.82711(12)
C10 C 0.8033(3) 0.6969(3) 0.79431(11)
C11 C 0.7536(3) 0.6992(3) 0.74628(11)
C12 C 0.8595(3) 0.7199(4) 0.71376(11)
C13 C 0.8545(4) 0.6034(4) 0.79633(13)
C14 C 0.9833(4) 0.8716(5) 0.60260(12)
H3 H 0.9682 0.8174 0.5762
H4 H 1.0649 0.9549 0.5989
C15 C 0.8668(4) 0.8932(4) 0.61157(11)
H5 H 0.9016 0.9880 0.6161
C16 C 0.7622(4) 0.8464(4) 0.57503(11)
C17 C 0.7029(5) 0.6996(4) 0.56510(14)
H6 H 0.6402 0.6748 0.5411
H7 H 0.6592 0.6493 0.5914
H8 H 0.7719 0.6821 0.5566
C18 C 0.6568(4) 0.8793(5) 0.58712(14)
H9 H 0.6972 0.9716 0.5942
H10 H 0.6081 0.8279 0.6126
H11 H 0.5977 0.8595 0.5622
C19 C 0.6218(4) 0.7394(4) 0.81878(11)
H12 H 0.6734 0.8292 0.8298
H13 H 0.5385 0.6965 0.8348
C20 C 0.5960(3) 0.7417(4) 0.76880(11)
H14 H 0.5506 0.7916 0.7630
C21 C 0.5239(3) 0.6060(4) 0.74568(12)
C22 C 0.4178(4) 0.4950(4) 0.77273(14)
H15 H 0.3832 0.4140 0.7562
H16 H 0.3481 0.5135 0.7788
H17 H 0.4546 0.4866 0.8005
C23 C 0.4729(4) 0.6187(5) 0.70041(13)
H18 H 0.5413 0.6936 0.6848
H19 H 0.3979 0.6303 0.7044
H20 H 0.4474 0.5401 0.6832
C24 C 1.2419(4) 0.7110(5) 0.63503(18)
H21 H 1.3032 0.7561 0.6589
H22 H 1.2895 0.7137 0.6085
H23 H 1.1836 0.6207 0.6434
C25 C 0.5899(6) 0.5561(6) 0.93471(14)
H24 H 0.6201 0.4962 0.9430
H25 H 0.5120 0.5357 0.9515
H26 H 0.6578 0.6451 0.9410
O1 O 0.8050(2) 0.8248(2) 0.65360(7)
O2 O 1.1663(3) 0.7744(3) 0.62646(9)
O3 O 0.9443(3) 0.6168(3) 0.76464(9)
O4 O 0.6965(3) 0.4086(3) 0.89102(11)
O5 O 0.5597(3) 0.5430(3) 0.88767(9)
O6 O 0.9117(2) 0.8270(2) 0.80106(9)
H27 H 0.8877 0.8693 0.8164
O7 O 0.7222(2) 0.8008(2) 0.74538(7)
O8 O 0.6330(2) 0.5800(2) 0.73847(8)
O9 O 0.8302(3) 0.9215(3) 0.53565(8)
H28 H 0.8717 1.0003 0.5419
H29? H 0.8887 0.8811 0.7952
H30? H 0.8483 0.8763 0.5193
loop_
_geom_bond_atom_site_label_1
_geom_bond_atom_site_label_2
_geom_bond_site_symmetry_1
_geom_bond_site_symmetry_2
C1 C2 1_555 1_555
C2 C3 1_555 1_555
C3 C4 1_555 1_555
C4 H1 1_555 1_555
C5 C4 1_555 1_555
C6 H2 1_555 1_555
C7 C6 1_555 1_555
C8 C7 1_555 1_555
C9 C8 1_555 1_555
C10 C9 1_555 1_555
C11 C10 1_555 1_555
C12 C1 1_555 1_555
C13 C6 1_555 1_555
C14 C2 1_555 1_555
H3 C14 1_555 1_555
H4 C14 1_555 1_555
C15 C14 1_555 1_555
H5 C15 1_555 1_555
C16 C15 1_555 1_555
C17 C16 1_555 1_555
H6 C17 1_555 1_555
H7 C17 1_555 1_555
H8 C17 1_555 1_555
C18 C16 1_555 1_555
H9 C18 1_555 1_555
H10 C18 1_555 1_555
H11 C18 1_555 1_555
C19 C9 1_555 1_555
H12 C19 1_555 1_555
H13 C19 1_555 1_555
C20 C19 1_555 1_555
H14 C20 1_555 1_555
C21 C20 1_555 1_555
C22 C21 1_555 1_555
H15 C22 1_555 1_555
H16 C22 1_555 1_555
H17 C22 1_555 1_555
C23 C21 1_555 1_555
H18 C23 1_555 1_555
H19 C23 1_555 1_555
H20 C23 1_555 1_555
C24 H21 1_555 1_555
H22 C24 1_555 1_555
H23 C24 1_555 1_555
C25 H24 1_555 1_555
H25 C25 1_555 1_555
H26 C25 1_555 1_555
O1 C1 1_555 1_555
O2 C3 1_555 1_555
O3 C5 1_555 1_555
O4 C7 1_555 1_555
O5 C8 1_555 1_555
O6 C10 1_555 1_555
H27 O6 1_555 1_555
O7 C11 1_555 1_555
O8 C11 1_555 1_555
O9 C16 1_555 1_555
H28 O9 1_555 1_555
C5 C12 1_555 1_555
C10 C13 1_555 1_555
C11 C12 1_555 1_555
C13 O3 1_555 1_555
C15 O1 1_555 1_555
C20 O7 1_555 1_555
C21 O8 1_555 1_555
C24 O2 1_555 1_555
C25 O5 1_555 1_555

#END
