
#######################################################################
#
#                 Cambridge Crystallographic Data Centre
#                                CCDC 
#
#######################################################################
#
# If this CIF has been generated from an entry in the Cambridge 
# Structural Database, then it will include bibliographic, chemical, 
# crystal, experimental, refinement or atomic coordinate data resulting 
# from the CCDC's data processing and validation procedures.
#
#######################################################################

data_WIQVIE
_chemical_compound_source        'Michelia shiluensis'
_chemical_formula_moiety         'C18 H26 O7'
_chemical_name_systematic        
'4-ethyl-4-hydroxy-6a,9a-dimethyl-3-oxododecahydrobisoxireno[5,6:9,10]cyclodeca[1,2-b]furan-5-yl acetate'
_symmetry_cell_setting           monoclinic
_symmetry_space_group_name_H-M   'P 21'
_symmetry_Int_Tables_number      4
_space_group_name_Hall           'P 2yb'
loop_
_symmetry_equiv_pos_site_id
_symmetry_equiv_pos_as_xyz
1 x,y,z
2 -x,1/2+y,-z
_cell_length_a                   10.7912(6)
_cell_length_b                   7.2246(4)
_cell_length_c                   11.6007(6)
_cell_angle_alpha                90
_cell_angle_beta                 96.970(3)
_cell_angle_gamma                90
_cell_volume                     897.731
_exptl_crystal_colour            colorless
_exptl_crystal_description       prism
_cell_formula_units_Z            2
loop_
_atom_site_label
_atom_site_type_symbol
_atom_site_fract_x
_atom_site_fract_y
_atom_site_fract_z
O1 O 0.9045(4) 0.1499(5) 0.3421(3)
O2 O 0.8010(3) 0.6720(5) -0.0021(3)
O3 O 0.5383(3) 0.6648(4) 0.0256(2)
O4 O 0.3372(3) 0.6042(5) -0.0279(2)
O5 O 0.3430(3) 0.4114(5) 0.1899(2)
H1 H 0.326964 0.352442 0.129577
O6 O 0.6611(2) 0.6313(4) 0.3743(2)
O7 O 0.5793(4) 0.5806(7) 0.5403(3)
C1 C 0.8905(5) 0.2743(6) 0.2441(4)
H2 H 0.826874 0.235080 0.181373
C2 C 1.0055(5) 0.3551(8) 0.2020(5)
H3 H 1.060759 0.255634 0.184842
H4 H 1.049437 0.430525 0.263059
C3 C 0.9731(5) 0.4735(8) 0.0935(4)
H5 H 1.047741 0.537064 0.075856
H6 H 0.945278 0.393309 0.028372
C4 C 0.8726(4) 0.6150(6) 0.1069(3)
C5 C 0.7443(4) 0.5539(5) 0.0764(3)
H7 H 0.736558 0.424407 0.051360
C6 C 0.6325(4) 0.6267(5) 0.1262(3)
H8 H 0.653329 0.739920 0.170909
C7 C 0.5657(4) 0.4875(5) 0.1975(3)
H9 H 0.570552 0.366874 0.159680
C8 C 0.6107(4) 0.4580(5) 0.3267(3)
H10 H 0.536024 0.432432 0.364419
C9 C 0.7021(5) 0.2995(6) 0.3605(3)
H11 H 0.693903 0.266635 0.440304
H12 H 0.674005 0.193539 0.313021
C10 C 0.8397(4) 0.3242(6) 0.3518(3)
C11 C 0.4287(4) 0.5514(6) 0.1735(3)
C12 C 0.4001(4) 0.7206(6) 0.2466(4)
H13 H 0.416204 0.687860 0.328096
H14 H 0.457129 0.819596 0.232498
C13 C 0.4248(4) 0.6078(6) 0.0465(3)
C14 C 0.9106(5) 0.4493(9) 0.4411(5)
H15 H 0.888414 0.420095 0.516698
H16 H 0.889703 0.575989 0.422851
H17 H 0.998655 0.431363 0.440536
C15 C 0.9068(5) 0.7721(7) 0.1897(5)
H18 H 0.985403 0.823638 0.175161
H19 H 0.913269 0.727126 0.268077
H20 H 0.843444 0.865959 0.178775
C16 C 0.2676(6) 0.7927(10) 0.2222(5)
H21 H 0.251550 0.830814 0.142526
H22 H 0.257124 0.896495 0.271849
H23 H 0.210107 0.696595 0.236896
C17 C 0.6418(4) 0.6735(6) 0.4849(3)
C18 C 0.7060(5) 0.8482(8) 0.5233(4)
H24 H 0.771468 0.872374 0.476200
H25 H 0.741093 0.836975 0.603113
H26 H 0.647154 0.948356 0.515524
loop_
_geom_bond_atom_site_label_1
_geom_bond_atom_site_label_2
_geom_bond_site_symmetry_1
_geom_bond_site_symmetry_2
O1 C1 1_555 1_555
O2 C4 1_555 1_555
O3 C6 1_555 1_555
O4 C13 1_555 1_555
O5 H1 1_555 1_555
O6 C8 1_555 1_555
O7 C17 1_555 1_555
C1 H2 1_555 1_555
C2 C1 1_555 1_555
H3 C2 1_555 1_555
H4 C2 1_555 1_555
C3 C2 1_555 1_555
H5 C3 1_555 1_555
H6 C3 1_555 1_555
C4 C3 1_555 1_555
C5 O2 1_555 1_555
H7 C5 1_555 1_555
C6 C5 1_555 1_555
H8 C6 1_555 1_555
C7 C6 1_555 1_555
H9 C7 1_555 1_555
C8 C7 1_555 1_555
H10 C8 1_555 1_555
C9 C8 1_555 1_555
H11 C9 1_555 1_555
H12 C9 1_555 1_555
C10 O1 1_555 1_555
C11 O5 1_555 1_555
C12 C11 1_555 1_555
H13 C12 1_555 1_555
H14 C12 1_555 1_555
C13 O3 1_555 1_555
C14 C10 1_555 1_555
H15 C14 1_555 1_555
H16 C14 1_555 1_555
H17 C14 1_555 1_555
C15 C4 1_555 1_555
H18 C15 1_555 1_555
H19 C15 1_555 1_555
H20 C15 1_555 1_555
C16 C12 1_555 1_555
H21 C16 1_555 1_555
H22 C16 1_555 1_555
H23 C16 1_555 1_555
C17 O6 1_555 1_555
C18 C17 1_555 1_555
H24 C18 1_555 1_555
H25 C18 1_555 1_555
H26 C18 1_555 1_555
C1 C10 1_555 1_555
C4 C5 1_555 1_555
C7 C11 1_555 1_555
C9 C10 1_555 1_555
C11 C13 1_555 1_555

#END
