
#######################################################################
#
#                 Cambridge Crystallographic Data Centre
#                                CCDC 
#
#######################################################################
#
# If this CIF has been generated from an entry in the Cambridge 
# Structural Database, then it will include bibliographic, chemical, 
# crystal, experimental, refinement or atomic coordinate data resulting 
# from the CCDC's data processing and validation procedures.
#
#######################################################################

data_WIRBEG
_chemical_formula_moiety         'C36 H36 N6 O4 S1,1.5(H2 O1)'
_chemical_name_systematic        
"4,4'-(Sulfonylbis(4,1-phenylene-1,3,4-oxadiazole-5,2-diyl))bis(N,N-diethylaniline) trihydrate"
_symmetry_cell_setting           triclinic
_symmetry_space_group_name_H-M   'P -1'
_symmetry_Int_Tables_number      2
_space_group_name_Hall           '-P 1'
loop_
_symmetry_equiv_pos_site_id
_symmetry_equiv_pos_as_xyz
1 x,y,z
2 -x,-y,-z
_cell_length_a                   7.6474(5)
_cell_length_b                   13.7431(8)
_cell_length_c                   18.0003(12)
_cell_angle_alpha                94.984(6)
_cell_angle_beta                 101.784(6)
_cell_angle_gamma                104.416(5)
_cell_volume                     1774.61
_exptl_crystal_colour            yellow
_exptl_crystal_description       flake
_cell_formula_units_Z            2
loop_
_atom_site_label
_atom_site_type_symbol
_atom_site_fract_x
_atom_site_fract_y
_atom_site_fract_z
S1 S 0.7561(3) 0.41617(16) 0.37517(12)
O1 O 0.6370(9) 0.3164(4) 0.3760(4)
O2 O 0.4602(8) 0.8115(4) 0.5090(3)
O3 O 0.9495(9) 0.4429(5) 0.4151(4)
O4 O 0.8315(9) 0.5515(5) 0.0277(3)
N1 N 0.1644(10) 0.8034(6) 0.4653(5)
N2 N 0.2003(10) 0.7180(6) 0.4296(4)
C1 C 0.4763(11) 0.6532(6) 0.4413(4)
C2 C 0.3194(11) 0.8559(6) 0.5120(5)
C3 C 0.6503(12) 0.5081(6) 0.4059(5)
C4 C 0.3575(12) 0.9485(6) 0.5628(5)
C5 C 0.6678(11) 0.6770(6) 0.4573(5)
H1 H 0.7373 0.7425 0.4795
N3 N 0.6495(13) 0.4524(7) -0.0778(4)
C6 C 0.3726(12) 0.7254(6) 0.4571(5)
C7 C 0.7475(13) 0.4330(6) 0.2779(5)
C8 C 0.3703(12) 0.5534(6) 0.4092(5)
H2 H 0.2414 0.5362 0.3994
C9 C 0.7312(13) 0.4586(7) 0.1271(5)
N4 N 0.6074(13) 0.4081(6) -0.0138(5)
C10 C 0.5601(14) 1.0856(7) 0.6586(5)
H3 H 0.6794 1.1166 0.6881
C11 C 0.7573(12) 0.6057(6) 0.4410(5)
H4 H 0.8863 0.6218 0.4530
C12 C 0.8740(14) 0.6114(8) -0.0924(5)
C13 C 0.8600(13) 0.5264(6) 0.1838(5)
H5 H 0.9428 0.5806 0.1709
C14 C 0.7827(14) 0.5372(8) -0.0503(5)
C15 C 0.8705(12) 0.5166(7) 0.2598(5)
H6 H 0.9571 0.5642 0.2983
C16 C 0.4167(15) 1.1301(7) 0.6656(5)
C17 C 0.5298(13) 0.9976(7) 0.6094(5)
H7 H 0.6288 0.9703 0.6076
C18 C 0.6169(13) 0.3643(7) 0.2213(5)
H8 H 0.5338 0.3102 0.2341
N5 N 0.4509(15) 1.2199(7) 0.7142(5)
N6 N 1.1220(15) 0.8223(8) -0.2229(6)
C19 C 0.7155(14) 0.4685(7) 0.0452(5)
C20 C 0.2096(13) 0.9903(7) 0.5697(5)
H9 H 0.0905 0.9578 0.5406
C21 C 0.8142(14) 0.5981(7) -0.1728(5)
H10 H 0.7188 0.5414 -0.1981
C22 C 0.8963(16) 0.6687(8) -0.2145(6)
H11 H 0.8527 0.6586 -0.2675
C23 C 1.0379(15) 0.7521(9) -0.1812(6)
C24 C 0.2392(14) 1.0795(7) 0.6193(6)
H12 H 0.1398 1.1063 0.6219
C25 C 0.6084(14) 0.3752(7) 0.1454(5)
H13 H 0.5221 0.3277 0.1067
C26 C 0.4599(12) 0.4814(7) 0.3924(5)
H14 H 0.3916 0.4150 0.3721
C27 C 1.0164(16) 0.6963(9) -0.0575(6)
H15 H 1.0575 0.7071 -0.0044
C28 C 0.191(3) 1.2097(11) 0.7791(8)
H16 H 0.1525 1.1374 0.7641
H17 H 0.0830 1.2341 0.7781
H18 H 0.2687 1.2259 0.8301
C29 C 0.2938(19) 1.2582(9) 0.7258(7)
H19 H 0.3403 1.3304 0.7443
H20 H 0.2080 1.2499 0.6764
C30 C 1.260(2) 0.9159(14) -0.1878(11)
H21 H 1.2486 0.9324 -0.1358
H22 H 1.2352 0.9701 -0.2159
C31 C 0.6395(18) 1.2746(8) 0.7617(6)
H23 H 0.6428 1.3443 0.7779
H24 H 0.7299 1.2756 0.7308
C32 C 1.0992(18) 0.7655(10) -0.0995(7)
H25 H 1.1961 0.8216 -0.0745
C33 C 1.0544(19) 0.8081(10) -0.3052(7)
H26 H 1.0219 0.7364 -0.3248
H27 H 1.1526 0.8431 -0.3279
C34 C 0.692(2) 1.2257(9) 0.8310(7)
H28 H 0.6882 1.1566 0.8152
H29 H 0.6054 1.2271 0.8628
H30 H 0.8147 1.2621 0.8594
C35 C 0.8825(19) 0.8486(11) -0.3293(8)
H31 H 0.8255 0.8245 -0.3826
H32 H 0.9205 0.9215 -0.3212
H33 H 0.7950 0.8248 -0.2990
C36 C 1.454(3) 0.9112(16) -0.1859(17)
H34 H 1.4698 0.9019 -0.2374
H35 H 1.4770 0.8553 -0.1607
H36 H 1.5401 0.9734 -0.1584
O5 O 1.5000 1.0000 0.0000
O6 O 1.895(7) 0.996(5) -0.046(3)
loop_
_geom_bond_atom_site_label_1
_geom_bond_atom_site_label_2
_geom_bond_site_symmetry_1
_geom_bond_site_symmetry_2
S1 O1 1_555 1_555
O2 C2 1_555 1_555
O3 S1 1_555 1_555
O4 C14 1_555 1_555
N1 N2 1_555 1_555
N2 C6 1_555 1_555
C1 C5 1_555 1_555
C2 N1 1_555 1_555
C3 S1 1_555 1_555
C4 C2 1_555 1_555
C5 H1 1_555 1_555
N3 N4 1_555 1_555
C6 O2 1_555 1_555
C7 S1 1_555 1_555
C8 C1 1_555 1_555
H2 C8 1_555 1_555
C9 C13 1_555 1_555
N4 C19 1_555 1_555
C10 H3 1_555 1_555
C11 C3 1_555 1_555
H4 C11 1_555 1_555
C12 C14 1_555 1_555
C13 H5 1_555 1_555
C14 N3 1_555 1_555
C15 C7 1_555 1_555
H6 C15 1_555 1_555
C16 C10 1_555 1_555
C17 C4 1_555 1_555
H7 C17 1_555 1_555
C18 C7 1_555 1_555
H8 C18 1_555 1_555
N5 C16 1_555 1_555
N6 C23 1_555 1_555
C19 O4 1_555 1_555
C20 C4 1_555 1_555
H9 C20 1_555 1_555
C21 C12 1_555 1_555
H10 C21 1_555 1_555
C22 C21 1_555 1_555
H11 C22 1_555 1_555
C23 C22 1_555 1_555
C24 C16 1_555 1_555
H12 C24 1_555 1_555
C25 C9 1_555 1_555
H13 C25 1_555 1_555
C26 C3 1_555 1_555
H14 C26 1_555 1_555
C27 C12 1_555 1_555
H15 C27 1_555 1_555
C28 H16 1_555 1_555
H17 C28 1_555 1_555
H18 C28 1_555 1_555
C29 N5 1_555 1_555
H19 C29 1_555 1_555
H20 C29 1_555 1_555
C30 N6 1_555 1_555
H21 C30 1_555 1_555
H22 C30 1_555 1_555
C31 N5 1_555 1_555
H23 C31 1_555 1_555
H24 C31 1_555 1_555
C32 C23 1_555 1_555
H25 C32 1_555 1_555
C33 N6 1_555 1_555
H26 C33 1_555 1_555
H27 C33 1_555 1_555
C34 C31 1_555 1_555
H28 C34 1_555 1_555
H29 C34 1_555 1_555
H30 C34 1_555 1_555
C35 C33 1_555 1_555
H31 C35 1_555 1_555
H32 C35 1_555 1_555
H33 C35 1_555 1_555
C36 C30 1_555 1_555
H34 C36 1_555 1_555
H35 C36 1_555 1_555
H36 C36 1_555 1_555
C1 C6 1_555 1_555
C5 C11 1_555 1_555
C8 C26 1_555 1_555
C9 C19 1_555 1_555
C10 C17 1_555 1_555
C13 C15 1_555 1_555
C18 C25 1_555 1_555
C20 C24 1_555 1_555
C27 C32 1_555 1_555
C28 C29 1_555 1_555

#END
