
#######################################################################
#
#                 Cambridge Crystallographic Data Centre
#                                CCDC 
#
#######################################################################
#
# If this CIF has been generated from an entry in the Cambridge 
# Structural Database, then it will include bibliographic, chemical, 
# crystal, experimental, refinement or atomic coordinate data resulting 
# from the CCDC's data processing and validation procedures.
#
#######################################################################

data_WIRDAC
_chemical_formula_moiety         'C21 H20 N2 O4 S1'
_chemical_name_systematic        
2,3,4,5,6,7-Hexahydro-1,5-methano-3-oxo-7-((p-methoxyphenyl)sulfonyl)-1H-azocino(4,3-b)indole
_symmetry_cell_setting           orthorhombic
_symmetry_space_group_name_H-M   'P n c a'
_symmetry_Int_Tables_number      60
_space_group_name_Hall           '-P 2a 2n'
loop_
_symmetry_equiv_pos_site_id
_symmetry_equiv_pos_as_xyz
1 x,y,z
2 1/2-x,-y,z
3 1/2+x,1/2-y,1/2-z
4 -x,1/2+y,1/2-z
5 -x,-y,-z
6 1/2+x,y,-z
7 1/2-x,1/2+y,1/2+z
8 x,1/2-y,1/2+z
_cell_length_a                   15.692(5)
_cell_length_b                   25.426(10)
_cell_length_c                   9.175(2)
_cell_angle_alpha                90
_cell_angle_beta                 90
_cell_angle_gamma                90
_cell_volume                     3660.69
_exptl_crystal_colour            colorless
_chemical_melting_point          241.5-242deg.C
_cell_formula_units_Z            8
loop_
_atom_site_label
_atom_site_type_symbol
_atom_site_fract_x
_atom_site_fract_y
_atom_site_fract_z
C1 C 0.6472(3) 0.6902(2) 0.2653(6)
C2 C 0.6444(4) 0.7140(2) 0.4029(6)
C3 C 0.5645(4) 0.7183(2) 0.4653(7)
C4 C 0.4903(4) 0.7001(2) 0.3972(7)
C5 C 0.4954(4) 0.6752(2) 0.2647(6)
C6 C 0.5743(3) 0.6694(2) 0.1987(6)
C7 C 0.6002(3) 0.6476(2) 0.0604(6)
C8 C 0.5478(4) 0.6222(2) -0.0567(6)
N1 N 0.5463(3) 0.5643(2) -0.0433(5)
C9 C 0.6058(3) 0.5330(2) -0.0995(6)
C10 C 0.6795(4) 0.5575(2) -0.1809(6)
C11 C 0.6771(4) 0.6176(2) -0.2071(7)
C12 C 0.7317(4) 0.6476(2) -0.0996(6)
C13 C 0.6855(3) 0.6569(2) 0.0407(6)
N2 N 0.7165(3) 0.6844(2) 0.1651(5)
O1 O 0.6016(2) 0.4838(1) -0.0897(4)
C14 C 0.5839(4) 0.6367(2) -0.2048(7)
S1 S 0.8184(1) 0.6843(1) 0.2173(2)
O2 O 0.8666(2) 0.6873(1) 0.0859(4)
O3 O 0.8264(2) 0.7240(1) 0.3263(4)
C15 C 0.8351(3) 0.6224(2) 0.2989(6)
C16 C 0.8337(4) 0.6167(2) 0.4495(7)
C17 C 0.8503(4) 0.5684(2) 0.5111(7)
C18 C 0.8681(4) 0.5253(2) 0.4214(6)
C19 C 0.8681(4) 0.5310(2) 0.2705(6)
C20 C 0.8515(3) 0.5792(2) 0.2086(6)
O4 O 0.8875(3) 0.4797(1) 0.4918(5)
C21 C 0.9062(6) 0.4348(2) 0.4010(8)
H1 H 0.699(3) 0.727(2) 0.448(5)
H2 H 0.558(3) 0.733(2) 0.555(6)
H3 H 0.436(4) 0.708(2) 0.447(6)
H4 H 0.446(3) 0.663(2) 0.213(5)
H5 H 0.489(3) 0.637(2) -0.044(5)
H6 H 0.499(3) 0.552(2) -0.006(5)
H7 H 0.735(4) 0.544(2) -0.132(7)
H8 H 0.678(3) 0.540(2) -0.270(5)
H9 H 0.697(3) 0.623(2) -0.302(6)
H10 H 0.786(3) 0.629(2) -0.078(5)
H11 H 0.745(4) 0.681(2) -0.137(6)
H12 H 0.550(4) 0.621(2) -0.281(6)
H13 H 0.581(3) 0.676(2) -0.212(6)
H14 H 0.822(3) 0.647(2) 0.498(6)
H15 H 0.854(3) 0.560(2) 0.607(6)
H16 H 0.882(3) 0.505(2) 0.218(5)
H17 H 0.851(3) 0.584(2) 0.100(5)
H18 H 0.853(5) 0.424(3) 0.329(8)
H19 H 0.960(4) 0.442(2) 0.330(6)
H20 H 0.915(3) 0.408(2) 0.474(5)
loop_
_geom_bond_atom_site_label_1
_geom_bond_atom_site_label_2
_geom_bond_site_symmetry_1
_geom_bond_site_symmetry_2
C1 C2 1_555 1_555
C2 C3 1_555 1_555
C3 C4 1_555 1_555
C4 C5 1_555 1_555
C5 C6 1_555 1_555
C6 C1 1_555 1_555
C7 C6 1_555 1_555
C8 C7 1_555 1_555
N1 C8 1_555 1_555
C9 N1 1_555 1_555
C10 C9 1_555 1_555
C11 C10 1_555 1_555
C12 C11 1_555 1_555
C13 C7 1_555 1_555
N2 C1 1_555 1_555
O1 C9 1_555 1_555
C14 C8 1_555 1_555
S1 N2 1_555 1_555
O2 S1 1_555 1_555
O3 S1 1_555 1_555
C15 S1 1_555 1_555
C16 C15 1_555 1_555
C17 C16 1_555 1_555
C18 C17 1_555 1_555
C19 C18 1_555 1_555
C20 C15 1_555 1_555
O4 C18 1_555 1_555
C21 O4 1_555 1_555
H1 C2 1_555 1_555
H2 C3 1_555 1_555
H3 C4 1_555 1_555
H4 C5 1_555 1_555
H5 C8 1_555 1_555
H6 N1 1_555 1_555
H7 C10 1_555 1_555
H8 C10 1_555 1_555
H9 C11 1_555 1_555
H10 C12 1_555 1_555
H11 C12 1_555 1_555
H12 C14 1_555 1_555
H13 C14 1_555 1_555
H14 C16 1_555 1_555
H15 C17 1_555 1_555
H16 C19 1_555 1_555
H17 C20 1_555 1_555
H18 C21 1_555 1_555
H19 C21 1_555 1_555
H20 C21 1_555 1_555
C11 C14 1_555 1_555
C12 C13 1_555 1_555
C13 N2 1_555 1_555
C19 C20 1_555 1_555

#END
