
#######################################################################
#
#                 Cambridge Crystallographic Data Centre
#                                CCDC 
#
#######################################################################
#
# If this CIF has been generated from an entry in the Cambridge 
# Structural Database, then it will include bibliographic, chemical, 
# crystal, experimental, refinement or atomic coordinate data resulting 
# from the CCDC's data processing and validation procedures.
#
#######################################################################

data_WIRHOW
_chemical_formula_moiety         'C21 H19 N1 O5'
_chemical_name_systematic        
'Ethyl 2-(6-(benzyloxy)-3-oxo-1,3-dihydro-2H-indol-2-ylidene)-3-oxobutanoate'
_symmetry_cell_setting           triclinic
_symmetry_space_group_name_H-M   'P -1'
_symmetry_Int_Tables_number      2
_space_group_name_Hall           '-P 1'
loop_
_symmetry_equiv_pos_site_id
_symmetry_equiv_pos_as_xyz
1 x,y,z
2 -x,-y,-z
_cell_length_a                   5.86050(10)
_cell_length_b                   11.8631(2)
_cell_length_c                   14.0648(3)
_cell_angle_alpha                73.4260(10)
_cell_angle_beta                 83.0680(10)
_cell_angle_gamma                82.1040(10)
_cell_volume                     924.897
_cell_formula_units_Z            2
loop_
_atom_site_label
_atom_site_type_symbol
_atom_site_fract_x
_atom_site_fract_y
_atom_site_fract_z
O1 O 0.4703(2) 0.54487(10) 0.09407(8)
O2 O 1.2946(2) 0.12192(11) -0.10543(9)
O3 O 1.2084(2) 0.35376(11) 0.26507(9)
N1 N 0.8511(2) 0.38982(10) 0.07570(9)
H1 H 0.7356 0.4200 0.0409
C1 C 1.1192(2) 0.34824(12) 0.19368(11)
C2 C 0.8818(2) 0.41152(12) 0.16307(10)
C3 C 0.7397(3) 0.47830(12) 0.21416(10)
O4 O 0.7726(3) 0.37938(12) 0.38145(9)
C4 C 1.2006(2) 0.28608(12) 0.11891(10)
C5 C 1.4231(3) 0.15656(13) 0.03230(12)
H2 H 1.5539 0.1048 0.0246
C6 C 1.0343(2) 0.31143(11) 0.05047(10)
C7 C 1.2156(3) 0.05950(13) -0.24248(11)
O5 O 0.8496(3) 0.56719(12) 0.33201(10)
C8 C 0.7971(3) 0.48155(14) 0.31402(12)
C9 C 1.2510(3) 0.18130(13) -0.03445(11)
C10 C 1.0537(3) 0.26038(12) -0.02725(11)
H3 H 0.9416 0.2776 -0.0724
C11 C 0.5272(3) 0.54722(13) 0.17441(11)
C12 C 1.3982(3) 0.20879(13) 0.10893(11)
H4 H 1.5112 0.1929 0.1534
C13 C 1.1276(3) 0.13792(15) -0.17624(13)
H5 H 1.1083 0.2199 -0.2153
H6 H 0.9792 0.1167 -0.1421
C14 C 1.0858(3) -0.02471(16) -0.25174(13)
H7 H 0.9421 -0.0337 -0.2160
C15 C 0.3829(3) 0.6210(2) 0.23446(16)
H8 H 0.2501 0.6609 0.2001
H9 H 0.4728 0.6785 0.2435
H10 H 0.3333 0.5711 0.2983
C16 C 1.4293(3) 0.06981(17) -0.29570(13)
H11 H 1.5193 0.1261 -0.2903
C17 C 1.3799(4) -0.08520(18) -0.36553(14)
H12 H 1.4351 -0.1339 -0.4065
C18 C 1.1675(4) -0.09600(17) -0.31382(15)
H13 H 1.0773 -0.1516 -0.3204
C19 C 1.5113(4) -0.0022(2) -0.35665(14)
H14 H 1.6558 0.0055 -0.3918
C20 C 0.8420(9) 0.3689(3) 0.47973(18)
H15 H 0.8173 0.4312 0.5088
C21 C 0.9412(11) 0.2653(4) 0.5235(3)
H16 H 0.9800 0.2653 0.5879
H17 H 1.0795 0.2474 0.4840
H18 H 0.8376 0.2068 0.5310
loop_
_geom_bond_atom_site_label_1
_geom_bond_atom_site_label_2
_geom_bond_site_symmetry_1
_geom_bond_site_symmetry_2
O1 C11 1_555 1_555
O2 C9 1_555 1_555
O3 C1 1_555 1_555
N1 H1 1_555 1_555
C1 C2 1_555 1_555
C2 N1 1_555 1_555
C3 C2 1_555 1_555
O4 C8 1_555 1_555
C4 C1 1_555 1_555
C5 H2 1_555 1_555
C6 N1 1_555 1_555
C7 C13 1_555 1_555
O5 C8 1_555 1_555
C8 C3 1_555 1_555
C9 C5 1_555 1_555
C10 C6 1_555 1_555
H3 C10 1_555 1_555
C11 C3 1_555 1_555
C12 C4 1_555 1_555
H4 C12 1_555 1_555
C13 O2 1_555 1_555
H5 C13 1_555 1_555
H6 C13 1_555 1_555
C14 C7 1_555 1_555
H7 C14 1_555 1_555
C15 C11 1_555 1_555
H8 C15 1_555 1_555
H9 C15 1_555 1_555
H10 C15 1_555 1_555
C16 C7 1_555 1_555
H11 C16 1_555 1_555
C17 H12 1_555 1_555
C18 C14 1_555 1_555
H13 C18 1_555 1_555
C19 C16 1_555 1_555
H14 C19 1_555 1_555
C20 O4 1_555 1_555
H15 C20 1_555 1_555
C21 C20 1_555 1_555
H16 C21 1_555 1_555
H17 C21 1_555 1_555
H18 C21 1_555 1_555
C4 C6 1_555 1_555
C5 C12 1_555 1_555
C9 C10 1_555 1_555
C17 C18 1_555 1_555
C17 C19 1_555 1_555

#END
