
#######################################################################
#
#                 Cambridge Crystallographic Data Centre
#                                CCDC 
#
#######################################################################
#
# If this CIF has been generated from an entry in the Cambridge 
# Structural Database, then it will include bibliographic, chemical, 
# crystal, experimental, refinement or atomic coordinate data resulting 
# from the CCDC's data processing and validation procedures.
#
#######################################################################

data_WIRKUG
_chemical_formula_moiety         'C40 H32 O2 P2'
_chemical_name_systematic        
(3-methyl-3H,3'H-1,1'-spirobi[[2]benzofuran]-7,7'-diyl)bis(diphenylphosphane)
_symmetry_cell_setting           monoclinic
_symmetry_space_group_name_H-M   'P 21'
_symmetry_Int_Tables_number      4
_space_group_name_Hall           'P 2yb'
loop_
_symmetry_equiv_pos_site_id
_symmetry_equiv_pos_as_xyz
1 x,y,z
2 -x,1/2+y,-z
_cell_length_a                   11.283(5)
_cell_length_b                   8.734(4)
_cell_length_c                   16.552(8)
_cell_angle_alpha                90
_cell_angle_beta                 92.249(8)
_cell_angle_gamma                90
_cell_volume                     1629.87
_exptl_crystal_colour            colorless
_exptl_crystal_description       prism
_cell_formula_units_Z            2
loop_
_atom_site_label
_atom_site_type_symbol
_atom_site_fract_x
_atom_site_fract_y
_atom_site_fract_z
P1 P 1.01593(12) 1.01309(18) 0.81019(8)
P2 P 0.67711(13) 0.82142(16) 0.72976(9)
O1 O 0.8033(3) 0.9826(4) 0.56514(19)
O2 O 0.9411(4) 1.1652(4) 0.6150(2)
C1 C 0.8656(6) 0.8589(6) 0.5267(3)
H1 H 0.9053 0.8992 0.4796
C2 C 0.9565(5) 0.8140(7) 0.5892(3)
C3 C 1.0358(7) 0.6956(7) 0.5880(4)
H2 H 1.0393 0.6326 0.5429
C4 C 1.1092(6) 0.6716(7) 0.6535(4)
H3 H 1.1633 0.5912 0.6531
C5 C 1.1048(5) 0.7640(7) 0.7202(4)
H4 H 1.1557 0.7444 0.7646
C6 C 1.0259(5) 0.8866(6) 0.7231(3)
C7 C 0.9507(5) 0.9086(6) 0.6557(3)
C8 C 0.8663(5) 1.0372(6) 0.6350(3)
C9 C 0.7810(5) 1.1018(5) 0.6924(3)
C10 C 0.6941(5) 1.0312(6) 0.7352(3)
C11 C 0.6240(5) 1.1204(7) 0.7828(4)
H5 H 0.5651 1.0751 0.8125
C12 C 0.6415(6) 1.2792(8) 0.7864(4)
H6 H 0.5939 1.3388 0.8186
C13 C 0.7285(6) 1.3476(7) 0.7428(4)
H7 H 0.7402 1.4529 0.7455
C14 C 0.7973(6) 1.2588(6) 0.6956(3)
C15 C 0.8936(6) 1.3066(7) 0.6431(3)
H8 H 0.8629 1.3683 0.5982
H9 H 0.9535 1.3649 0.6734
C16 C 0.7819(6) 0.7331(7) 0.4996(4)
H10 H 0.8235 0.6599 0.4680
H11 H 0.7174 0.7759 0.4675
H12 H 0.7514 0.6832 0.5461
C17 C 1.1314(5) 1.1540(6) 0.7919(3)
C18 C 1.1246(6) 1.2914(8) 0.8324(4)
H13 H 1.0619 1.3101 0.8659
C19 C 1.2114(8) 1.4016(8) 0.8231(5)
H14 H 1.2073 1.4928 0.8518
C20 C 1.3013(8) 1.3798(10) 0.7735(5)
H15 H 1.3585 1.4553 0.7675
C21 C 1.3072(6) 1.2476(11) 0.7330(4)
H16 H 1.3689 1.2329 0.6981
C22 C 1.2239(6) 1.1311(8) 0.7414(4)
H17 H 1.2307 1.0396 0.7133
C23 C 1.0837(5) 0.8981(7) 0.8916(3)
C24 C 1.0327(6) 0.7611(8) 0.9108(4)
H18 H 0.9703 0.7237 0.8781
C25 C 1.0717(7) 0.6763(9) 0.9780(5)
H19 H 1.0364 0.5830 0.9894
C26 C 1.1604(8) 0.7301(10) 1.0259(5)
H20 H 1.1876 0.6744 1.0708
C27 C 1.2102(7) 0.8660(10) 1.0085(5)
H21 H 1.2706 0.9048 1.0425
C28 C 1.1734(6) 0.9476(8) 0.9417(4)
H22 H 1.2109 1.0395 0.9304
C29 C 0.6091(6) 0.7820(7) 0.8258(3)
C30 C 0.6788(7) 0.7986(10) 0.8952(4)
H23 H 0.7571 0.8303 0.8915
C31 C 0.6347(11) 0.7689(13) 0.9710(5)
H24 H 0.6811 0.7868 1.0177
C32 C 0.5241(13) 0.7141(14) 0.9755(7)
H25 H 0.4972 0.6827 1.0252
C33 C 0.4501(11) 0.7034(14) 0.9081(7)
H26 H 0.3711 0.6750 0.9123
C34 C 0.4960(8) 0.7360(11) 0.8338(5)
H27 H 0.4471 0.7258 0.7876
C35 C 0.5544(5) 0.7967(6) 0.6571(3)
C36 C 0.5240(6) 0.6497(7) 0.6338(4)
H28 H 0.5650 0.5674 0.6572
C37 C 0.4334(7) 0.6218(9) 0.5763(5)
H29 H 0.4137 0.5217 0.5621
C38 C 0.3748(7) 0.7385(12) 0.5413(4)
H30 H 0.3154 0.7196 0.5021
C39 C 0.4018(7) 0.8858(10) 0.5631(5)
H31 H 0.3593 0.9669 0.5399
C40 C 0.4926(6) 0.9137(8) 0.6196(4)
H32 H 0.5123 1.0144 0.6326
loop_
_geom_bond_atom_site_label_1
_geom_bond_atom_site_label_2
_geom_bond_site_symmetry_1
_geom_bond_site_symmetry_2
P1 C6 1_555 1_555
P2 C10 1_555 1_555
O1 C1 1_555 1_555
O2 C8 1_555 1_555
C1 H1 1_555 1_555
C2 C1 1_555 1_555
C3 C2 1_555 1_555
H2 C3 1_555 1_555
C4 C3 1_555 1_555
H3 C4 1_555 1_555
C5 C4 1_555 1_555
H4 C5 1_555 1_555
C6 C5 1_555 1_555
C7 C2 1_555 1_555
C8 O1 1_555 1_555
C9 C8 1_555 1_555
C10 C9 1_555 1_555
C11 C10 1_555 1_555
H5 C11 1_555 1_555
C12 C11 1_555 1_555
H6 C12 1_555 1_555
C13 C12 1_555 1_555
H7 C13 1_555 1_555
C14 C9 1_555 1_555
C15 O2 1_555 1_555
H8 C15 1_555 1_555
H9 C15 1_555 1_555
C16 C1 1_555 1_555
H10 C16 1_555 1_555
H11 C16 1_555 1_555
H12 C16 1_555 1_555
C17 P1 1_555 1_555
C18 C17 1_555 1_555
H13 C18 1_555 1_555
C19 C18 1_555 1_555
H14 C19 1_555 1_555
C20 C19 1_555 1_555
H15 C20 1_555 1_555
C21 C20 1_555 1_555
H16 C21 1_555 1_555
C22 C17 1_555 1_555
H17 C22 1_555 1_555
C23 P1 1_555 1_555
C24 C23 1_555 1_555
H18 C24 1_555 1_555
C25 C24 1_555 1_555
H19 C25 1_555 1_555
C26 C25 1_555 1_555
H20 C26 1_555 1_555
C27 C26 1_555 1_555
H21 C27 1_555 1_555
C28 C23 1_555 1_555
H22 C28 1_555 1_555
C29 P2 1_555 1_555
C30 C29 1_555 1_555
H23 C30 1_555 1_555
C31 C30 1_555 1_555
H24 C31 1_555 1_555
C32 C31 1_555 1_555
H25 C32 1_555 1_555
C33 C32 1_555 1_555
H26 C33 1_555 1_555
C34 C29 1_555 1_555
H27 C34 1_555 1_555
C35 P2 1_555 1_555
C36 C35 1_555 1_555
H28 C36 1_555 1_555
C37 C36 1_555 1_555
H29 C37 1_555 1_555
C38 C37 1_555 1_555
H30 C38 1_555 1_555
C39 C38 1_555 1_555
H31 C39 1_555 1_555
C40 C35 1_555 1_555
H32 C40 1_555 1_555
C6 C7 1_555 1_555
C7 C8 1_555 1_555
C13 C14 1_555 1_555
C14 C15 1_555 1_555
C21 C22 1_555 1_555
C27 C28 1_555 1_555
C33 C34 1_555 1_555
C39 C40 1_555 1_555

#END
