
#######################################################################
#
#                 Cambridge Crystallographic Data Centre
#                                CCDC 
#
#######################################################################
#
# If this CIF has been generated from an entry in the Cambridge 
# Structural Database, then it will include bibliographic, chemical, 
# crystal, experimental, refinement or atomic coordinate data resulting 
# from the CCDC's data processing and validation procedures.
#
#######################################################################

data_WIRLIV
_chemical_formula_moiety         'C17 H16 O2'
_chemical_name_systematic        
8-methyl-2-phenyl-2,3-dihydro-5H-2,5-methano-1,4-benzodioxepine
_symmetry_cell_setting           monoclinic
_symmetry_space_group_name_H-M   'P 21/c'
_symmetry_Int_Tables_number      14
_space_group_name_Hall           '-P 2ybc'
loop_
_symmetry_equiv_pos_site_id
_symmetry_equiv_pos_as_xyz
1 x,y,z
2 -x,1/2+y,1/2-z
3 -x,-y,-z
4 x,1/2-y,1/2+z
_cell_length_a                   14.1406(3)
_cell_length_b                   9.58175(18)
_cell_length_c                   10.1251(2)
_cell_angle_alpha                90
_cell_angle_beta                 109.792(3)
_cell_angle_gamma                90
_cell_volume                     1290.83
_exptl_crystal_colour            colorless
_exptl_crystal_description       block
_cell_formula_units_Z            4
loop_
_atom_site_label
_atom_site_type_symbol
_atom_site_fract_x
_atom_site_fract_y
_atom_site_fract_z
O1 O 0.29625(6) 0.04883(9) 0.61983(10)
O2 O 0.15154(7) 0.29437(10) 0.62377(12)
C1 C 0.17400(9) -0.08753(14) 0.67423(13)
C2 C 0.10509(12) -0.11436(17) 0.74120(18)
H1 H 0.0827 -0.0416 0.7838
C3 C 0.06922(13) -0.24801(19) 0.7455(2)
H2 H 0.0227 -0.2640 0.7904
C4 C 0.10162(13) -0.35724(18) 0.6843(2)
H3 H 0.0779 -0.4472 0.6881
C5 C 0.16929(14) -0.33195(17) 0.6175(2)
H4 H 0.1912 -0.4051 0.5749
C6 C 0.20551(13) -0.19818(16) 0.61277(18)
H5 H 0.2518 -0.1830 0.5674
C7 C 0.21055(9) 0.05991(13) 0.66787(13)
C8 C 0.24113(10) 0.14543(14) 0.80292(14)
H6 H 0.1912 0.1411 0.8489
H7 H 0.3061 0.1173 0.8681
C9 C 0.24501(10) 0.28803(14) 0.74008(15)
H8 H 0.2497 0.3628 0.8080
C10 C 0.33274(10) 0.29046(13) 0.68777(13)
C11 C 0.35335(9) 0.16698(12) 0.62989(12)
C12 C 0.43344(9) 0.15770(13) 0.58124(13)
H9 H 0.4457 0.0744 0.5428
C13 C 0.49590(10) 0.27194(14) 0.58934(13)
C14 C 0.47575(11) 0.39488(14) 0.64687(15)
H10 H 0.5167 0.4723 0.6531
C15 C 0.39512(10) 0.40363(13) 0.69528(14)
H11 H 0.3828 0.4871 0.7335
C16 C 0.13180(10) 0.15610(14) 0.56755(15)
H12 H 0.1370 0.1529 0.4745
H13 H 0.0646 0.1271 0.5610
C17 C 0.58319(11) 0.26067(16) 0.53608(17)
H14 H 0.6268 0.1864 0.5843
H15 H 0.6198 0.3470 0.5528
H16 H 0.5585 0.2415 0.4372
loop_
_geom_bond_atom_site_label_1
_geom_bond_atom_site_label_2
_geom_bond_site_symmetry_1
_geom_bond_site_symmetry_2
O1 C7 1_555 1_555
O2 C9 1_555 1_555
C1 C2 1_555 1_555
C2 H1 1_555 1_555
C3 C2 1_555 1_555
H2 C3 1_555 1_555
C4 C3 1_555 1_555
H3 C4 1_555 1_555
C5 C4 1_555 1_555
H4 C5 1_555 1_555
C6 C1 1_555 1_555
H5 C6 1_555 1_555
C7 C1 1_555 1_555
C8 C7 1_555 1_555
H6 C8 1_555 1_555
H7 C8 1_555 1_555
C9 C8 1_555 1_555
H8 C9 1_555 1_555
C10 C9 1_555 1_555
C11 O1 1_555 1_555
C12 C11 1_555 1_555
H9 C12 1_555 1_555
C13 C12 1_555 1_555
C14 C13 1_555 1_555
H10 C14 1_555 1_555
C15 C10 1_555 1_555
H11 C15 1_555 1_555
C16 O2 1_555 1_555
H12 C16 1_555 1_555
H13 C16 1_555 1_555
C17 C13 1_555 1_555
H14 C17 1_555 1_555
H15 C17 1_555 1_555
H16 C17 1_555 1_555
C5 C6 1_555 1_555
C7 C16 1_555 1_555
C10 C11 1_555 1_555
C14 C15 1_555 1_555

#END
