
#######################################################################
#
#                 Cambridge Crystallographic Data Centre
#                                CCDC 
#
#######################################################################
#
# If this CIF has been generated from an entry in the Cambridge 
# Structural Database, then it will include bibliographic, chemical, 
# crystal, experimental, refinement or atomic coordinate data resulting 
# from the CCDC's data processing and validation procedures.
#
#######################################################################

data_WIRMUF01
_chemical_formula_moiety         'C22 H30 B20 F4'
_chemical_name_systematic        
1,4-bis(2-Phenyl-1,2-dicarba-closo-dodecaboran(12)-1-yl)-2,3,5,6-tetrafluorobenzene
_symmetry_cell_setting           monoclinic
_symmetry_space_group_name_H-M   'P 21/c'
_symmetry_Int_Tables_number      14
_space_group_name_Hall           '-P 2ybc'
loop_
_symmetry_equiv_pos_site_id
_symmetry_equiv_pos_as_xyz
1 x,y,z
2 x,1/2-y,1/2+z
3 -x,-y,-z
4 -x,1/2+y,1/2-z
_cell_length_a                   8.528(1)
_cell_length_b                   12.936(1)
_cell_length_c                   14.093(2)
_cell_angle_alpha                90
_cell_angle_beta                 101.953(4)
_cell_angle_gamma                90
_cell_volume                     1521
_exptl_crystal_colour            colorless
_exptl_crystal_description       prism
_cell_formula_units_Z            2
loop_
_atom_site_label
_atom_site_type_symbol
_atom_site_fract_x
_atom_site_fract_y
_atom_site_fract_z
F1 F 0.52323(14) 0.00934(10) 0.69298(8)
F2 F 0.28163(13) -0.07669(10) 0.59341(8)
C1 C 0.7873(2) 0.23959(14) 0.63112(13)
C2 C 0.7822(2) 0.10635(14) 0.61938(13)
B1 B 0.7610(3) 0.1636(2) 0.7277(2)
H1 H 0.6456(24) 0.1652(15) 0.7462(14)
B2 B 0.8896(3) 0.2724(2) 0.7449(2)
H2 H 0.8462(24) 0.3403(16) 0.7778(15)
B3 B 0.9810(3) 0.2827(2) 0.6434(2)
H3 H 0.9974(25) 0.3582(17) 0.6106(15)
B4 B 0.9100(3) 0.1798(2) 0.5638(2)
H4 H 0.8855(24) 0.1903(15) 0.4877(15)
B5 B 0.8795(3) 0.0502(2) 0.7258(2)
H5 H 0.8311(25) -0.0239(17) 0.7440(15)
B6 B 0.9504(3) 0.1539(2) 0.8057(2)
H6 H 0.9571(26) 0.1465(17) 0.8837(16)
B7 B 1.0888(3) 0.2275(2) 0.7535(2)
H7 H 1.1899(26) 0.2691(17) 0.7983(16)
B8 B 1.1002(3) 0.1698(2) 0.6402(2)
H8 H 1.2044(27) 0.1723(17) 0.6076(16)
B9 B 0.9706(3) 0.0601(2) 0.6233(2)
H9 H 0.9779(25) -0.0071(17) 0.5794(15)
B10 B 1.0829(3) 0.0906(2) 0.7412(2)
H10 H 1.1769(26) 0.0386(17) 0.7755(15)
C3 C 0.6409(2) 0.29777(14) 0.58016(14)
C4 C 0.5366(2) 0.3400(2) 0.6343(2)
H11 H 0.5619(25) 0.3348(16) 0.7035(16)
C5 C 0.3980(3) 0.3897(2) 0.5889(2)
H12 H 0.3280(29) 0.4174(19) 0.6286(17)
C6 C 0.3604(3) 0.3984(2) 0.4889(2)
H13 H 0.2622(29) 0.4332(18) 0.4580(17)
C7 C 0.4644(3) 0.3592(2) 0.4346(2)
H14 H 0.4390(29) 0.3667(19) 0.3635(19)
C8 C 0.6042(3) 0.3094(2) 0.4795(2)
H15 H 0.6776(26) 0.2829(17) 0.4414(16)
C9 C 0.6377(2) 0.05433(14) 0.55784(13)
C10 C 0.5176(2) 0.00891(15) 0.59719(13)
C11 C 0.3865(2) -0.04129(15) 0.54244(13)
C11B C 0.6135(2) 0.04129(15) 0.45756(13)
F2B F 0.71837(13) 0.07669(10) 0.40659(8)
C10B C 0.4824(2) -0.00891(15) 0.40281(13)
F1B F 0.47677(14) -0.00934(10) 0.30702(8)
C9B C 0.3623(2) -0.05433(14) 0.44216(13)
C2B C 0.2178(2) -0.10635(14) 0.38062(13)
C1B C 0.2127(2) -0.23959(14) 0.36888(13)
B1B B 0.2390(3) -0.1636(2) 0.2723(2)
B4B B 0.0900(3) -0.1798(2) 0.4362(2)
B2B B 0.1104(3) -0.2724(2) 0.2551(2)
H1B H 0.3544(24) -0.1652(15) 0.2538(14)
B5B B 0.1205(3) -0.0502(2) 0.2742(2)
B9B B 0.0294(3) -0.0601(2) 0.3767(2)
B3B B 0.0190(3) -0.2827(2) 0.3566(2)
C3B C 0.3591(2) -0.29777(14) 0.41984(14)
C4B C 0.4634(2) -0.3400(2) 0.3657(2)
H11B H 0.4381(25) -0.3348(16) 0.2965(16)
C5B C 0.6020(3) -0.3897(2) 0.4111(2)
H12B H 0.6720(29) -0.4174(19) 0.3714(17)
C6B C 0.6396(3) -0.3984(2) 0.5111(2)
H13B H 0.7378(29) -0.4332(18) 0.5420(17)
C7B C 0.5356(3) -0.3592(2) 0.5654(2)
H14B H 0.5610(29) -0.3667(19) 0.6365(19)
C8B C 0.3958(3) -0.3094(2) 0.5205(2)
H15B H 0.3224(26) -0.2829(17) 0.5586(16)
H2B H 0.1538(24) -0.3403(16) 0.2222(15)
B6B B 0.0496(3) -0.1539(2) 0.1943(2)
H5B H 0.1689(25) 0.0239(17) 0.2560(15)
B8B B -0.1002(3) -0.1698(2) 0.3598(2)
H3B H 0.0026(25) -0.3582(17) 0.3894(15)
B7B B -0.0888(3) -0.2275(2) 0.2465(2)
H6B H 0.0429(26) -0.1465(17) 0.1163(16)
B10B B -0.0829(3) -0.0906(2) 0.2588(2)
H7B H -0.1899(26) -0.2691(17) 0.2017(16)
H4B H 0.1145(24) -0.1903(15) 0.5123(15)
H8B H -0.2044(27) -0.1723(17) 0.3924(16)
H9B H 0.0221(25) 0.0071(17) 0.4206(15)
H10B H -0.1769(26) -0.0386(17) 0.2245(15)
loop_
_geom_bond_atom_site_label_1
_geom_bond_atom_site_label_2
_geom_bond_site_symmetry_1
_geom_bond_site_symmetry_2
F1 C10 1_555 1_555
F2 C11 1_555 1_555
C1 C2 1_555 1_555
C2 B1 1_555 1_555
B1 C1 1_555 1_555
H1 B1 1_555 1_555
B2 C1 1_555 1_555
H2 B2 1_555 1_555
B3 C1 1_555 1_555
H3 B3 1_555 1_555
B4 C1 1_555 1_555
H4 B4 1_555 1_555
B5 C2 1_555 1_555
H5 B5 1_555 1_555
B6 B1 1_555 1_555
H6 B6 1_555 1_555
B7 B2 1_555 1_555
H7 B7 1_555 1_555
B8 B3 1_555 1_555
H8 B8 1_555 1_555
B9 C2 1_555 1_555
H9 B9 1_555 1_555
B10 B5 1_555 1_555
H10 B10 1_555 1_555
C3 C1 1_555 1_555
C4 C3 1_555 1_555
H11 C4 1_555 1_555
C5 C4 1_555 1_555
H12 C5 1_555 1_555
C6 C5 1_555 1_555
H13 C6 1_555 1_555
C7 C6 1_555 1_555
H14 C7 1_555 1_555
C8 C3 1_555 1_555
H15 C8 1_555 1_555
C9 C2 1_555 1_555
C10 C9 1_555 1_555
C11 C10 1_555 1_555
C11B C9 1_555 1_555
F2B C11B 1_555 1_555
C10B C11B 1_555 1_555
F1B C10B 1_555 1_555
C9B C11 1_555 1_555
C2B C9B 1_555 1_555
C1B C2B 1_555 1_555
B1B C2B 1_555 1_555
B4B C2B 1_555 1_555
B2B C1B 1_555 1_555
H1B B1B 1_555 1_555
B5B C2B 1_555 1_555
B9B C2B 1_555 1_555
B3B C1B 1_555 1_555
C3B C1B 1_555 1_555
C4B C3B 1_555 1_555
H11B C4B 1_555 1_555
C5B C4B 1_555 1_555
H12B C5B 1_555 1_555
C6B C5B 1_555 1_555
H13B C6B 1_555 1_555
C7B C6B 1_555 1_555
H14B C7B 1_555 1_555
C8B C3B 1_555 1_555
H15B C8B 1_555 1_555
H2B B2B 1_555 1_555
B6B B1B 1_555 1_555
H5B B5B 1_555 1_555
B8B B4B 1_555 1_555
H3B B3B 1_555 1_555
B7B B2B 1_555 1_555
H6B B6B 1_555 1_555
B10B B5B 1_555 1_555
H7B B7B 1_555 1_555
H4B B4B 1_555 1_555
H8B B8B 1_555 1_555
H9B B9B 1_555 1_555
H10B B10B 1_555 1_555
C2 B4 1_555 1_555
B1 B5 1_555 1_555
B1 B2 1_555 1_555
B2 B6 1_555 1_555
B2 B3 1_555 1_555
B3 B4 1_555 1_555
B3 B7 1_555 1_555
B4 B9 1_555 1_555
B4 B8 1_555 1_555
B5 B6 1_555 1_555
B5 B9 1_555 1_555
B6 B10 1_555 1_555
B6 B7 1_555 1_555
B7 B10 1_555 1_555
B7 B8 1_555 1_555
B8 B9 1_555 1_555
B8 B10 1_555 1_555
B9 B10 1_555 1_555
C7 C8 1_555 1_555
C10B C9B 1_555 1_555
C1B B1B 1_555 1_555
C1B B4B 1_555 1_555
B1B B5B 1_555 1_555
B1B B2B 1_555 1_555
B4B B3B 1_555 1_555
B4B B9B 1_555 1_555
B2B B6B 1_555 1_555
B2B B3B 1_555 1_555
B5B B6B 1_555 1_555
B5B B9B 1_555 1_555
B9B B8B 1_555 1_555
B9B B10B 1_555 1_555
B3B B7B 1_555 1_555
B3B B8B 1_555 1_555
C7B C8B 1_555 1_555
B6B B10B 1_555 1_555
B6B B7B 1_555 1_555
B8B B7B 1_555 1_555
B8B B10B 1_555 1_555
B7B B10B 1_555 1_555

#END
