
#######################################################################
#
#                 Cambridge Crystallographic Data Centre
#                                CCDC 
#
#######################################################################
#
# If this CIF has been generated from an entry in the Cambridge 
# Structural Database, then it will include bibliographic, chemical, 
# crystal, experimental, refinement or atomic coordinate data resulting 
# from the CCDC's data processing and validation procedures.
#
#######################################################################

data_WIRNIX
_chemical_formula_moiety         'C22 H23 N1 O1'
_chemical_name_systematic        
1-(4a,9-dimethyl-9a-phenyl-4,4a,9,9a-tetrahydro-1H-carbazol-2-yl)ethan-1-one
_symmetry_cell_setting           monoclinic
_symmetry_space_group_name_H-M   'P 21/c'
_symmetry_Int_Tables_number      14
_space_group_name_Hall           '-P 2ybc'
loop_
_symmetry_equiv_pos_site_id
_symmetry_equiv_pos_as_xyz
1 x,y,z
2 -x,1/2+y,1/2-z
3 -x,-y,-z
4 x,1/2-y,1/2+z
_cell_length_a                   7.92510(10)
_cell_length_b                   28.2180(4)
_cell_length_c                   7.56820(10)
_cell_angle_alpha                90
_cell_angle_beta                 95.4890(10)
_cell_angle_gamma                90
_cell_volume                     1684.72
_exptl_crystal_colour            colorless
_exptl_crystal_description       prism
_cell_formula_units_Z            4
loop_
_atom_site_label
_atom_site_type_symbol
_atom_site_fract_x
_atom_site_fract_y
_atom_site_fract_z
C1 C 0.77635(15) 0.39894(4) 0.59175(15)
C2 C 0.79972(15) 0.44926(4) 0.66285(15)
H1 H 0.921818 0.457226 0.680579
H2 H 0.743169 0.472103 0.577300
C3 C 0.72181(15) 0.45189(4) 0.83853(15)
C4 C 0.60903(16) 0.41986(4) 0.88699(15)
H3 H 0.571932 0.422796 1.002197
C5 C 0.53714(15) 0.37959(4) 0.77157(16)
H4 H 0.412463 0.378341 0.773216
H5 H 0.585071 0.349082 0.817278
C6 C 0.58230(15) 0.38767(4) 0.58243(15)
C7 C 0.56728(15) 0.34897(4) 0.44327(15)
C8 C 0.44701(16) 0.31442(4) 0.40283(16)
H6 H 0.355372 0.310380 0.473691
C9 C 0.46243(18) 0.28528(5) 0.25487(17)
H7 H 0.382501 0.260679 0.226871
C10 C 0.59396(18) 0.29234(4) 0.14959(16)
H8 H 0.601498 0.272688 0.048719
C11 C 0.71615(17) 0.32769(4) 0.18801(16)
H9 H 0.806049 0.332235 0.115232
C12 C 0.70119(15) 0.35591(4) 0.33657(15)
C13 C 0.88918(15) 0.36332(4) 0.70842(15)
C14 C 0.87649(18) 0.31431(4) 0.68197(17)
H10 H 0.792403 0.302304 0.595631
C15 C 0.98375(19) 0.28272(5) 0.77877(18)
H11 H 0.971735 0.249632 0.758052
C16 C 1.10789(17) 0.29914(5) 0.90506(17)
H12 H 1.181676 0.277568 0.970520
C17 C 1.12301(16) 0.34736(5) 0.93462(16)
H13 H 1.207467 0.359048 1.021227
C18 C 1.01465(15) 0.37896(4) 0.83772(15)
H14 H 1.026493 0.411971 0.860247
C19 C 0.77156(16) 0.49368(4) 0.95168(16)
C20 C 0.72758(16) 0.49544(4) 1.14120(16)
H15 H 0.769259 0.525169 1.196278
H16 H 0.780665 0.468608 1.207339
H17 H 0.604270 0.493673 1.143061
C21 C 0.46997(16) 0.42848(4) 0.49904(16)
H18 H 0.352689 0.417424 0.476089
H19 H 0.512089 0.438384 0.387177
H20 H 0.474196 0.455385 0.581206
C22 C 0.98103(16) 0.39459(5) 0.35565(16)
H21 H 0.980484 0.397455 0.226550
H22 H 1.040468 0.365491 0.395653
H23 H 1.039074 0.422009 0.412980
N1 N 0.80721(13) 0.39282(3) 0.40287(12)
O1 O 0.84633(14) 0.52650(3) 0.88926(13)
loop_
_geom_bond_atom_site_label_1
_geom_bond_atom_site_label_2
_geom_bond_site_symmetry_1
_geom_bond_site_symmetry_2
C1 C2 1_555 1_555
C2 H1 1_555 1_555
H2 C2 1_555 1_555
C3 C2 1_555 1_555
C4 C3 1_555 1_555
H3 C4 1_555 1_555
C5 C4 1_555 1_555
H4 C5 1_555 1_555
H5 C5 1_555 1_555
C6 C1 1_555 1_555
C7 C6 1_555 1_555
C8 C7 1_555 1_555
H6 C8 1_555 1_555
C9 C8 1_555 1_555
H7 C9 1_555 1_555
C10 C9 1_555 1_555
H8 C10 1_555 1_555
C11 C10 1_555 1_555
H9 C11 1_555 1_555
C12 C7 1_555 1_555
C13 C1 1_555 1_555
C14 C13 1_555 1_555
H10 C14 1_555 1_555
C15 C14 1_555 1_555
H11 C15 1_555 1_555
C16 C15 1_555 1_555
H12 C16 1_555 1_555
C17 C16 1_555 1_555
H13 C17 1_555 1_555
C18 C13 1_555 1_555
H14 C18 1_555 1_555
C19 C3 1_555 1_555
C20 C19 1_555 1_555
H15 C20 1_555 1_555
H16 C20 1_555 1_555
H17 C20 1_555 1_555
C21 C6 1_555 1_555
H18 C21 1_555 1_555
H19 C21 1_555 1_555
H20 C21 1_555 1_555
C22 H21 1_555 1_555
H22 C22 1_555 1_555
H23 C22 1_555 1_555
N1 C1 1_555 1_555
O1 C19 1_555 1_555
C5 C6 1_555 1_555
C11 C12 1_555 1_555
C12 N1 1_555 1_555
C17 C18 1_555 1_555
C22 N1 1_555 1_555

#END
