
#######################################################################
#
#                 Cambridge Crystallographic Data Centre
#                                CCDC 
#
#######################################################################
#
# If this CIF has been generated from an entry in the Cambridge 
# Structural Database, then it will include bibliographic, chemical, 
# crystal, experimental, refinement or atomic coordinate data resulting 
# from the CCDC's data processing and validation procedures.
#
#######################################################################

data_WIRNOD
_chemical_formula_moiety         'C24 H29 N1 O2'
_chemical_name_systematic        
9a-(4-methoxyphenyl)-7,10-dimethyl-10-(prop-2-en-1-yl)-6,7,8,9,9a,10-hexahydropyrido[1,2-a]indol-7-ol
_symmetry_cell_setting           monoclinic
_symmetry_space_group_name_H-M   'C 2'
_symmetry_Int_Tables_number      5
_space_group_name_Hall           'C 2y'
loop_
_symmetry_equiv_pos_site_id
_symmetry_equiv_pos_as_xyz
1 x,y,z
2 -x,y,-z
3 1/2+x,1/2+y,z
4 1/2-x,1/2+y,-z
_cell_length_a                   18.6672(3)
_cell_length_b                   6.42230(10)
_cell_length_c                   16.6077(2)
_cell_angle_alpha                90
_cell_angle_beta                 90.3740(10)
_cell_angle_gamma                90
_cell_volume                     1990.99
_exptl_crystal_colour            colorless
_exptl_crystal_description       plate
_cell_formula_units_Z            4
loop_
_atom_site_label
_atom_site_type_symbol
_atom_site_fract_x
_atom_site_fract_y
_atom_site_fract_z
C1 C 0.30663(9) 0.4920(3) 0.72692(10)
C2 C 0.24257(9) 0.5687(3) 0.78149(10)
C3 C 0.17949(9) 0.4903(3) 0.73238(10)
C4 C 0.10815(9) 0.5506(3) 0.73183(10)
H1 H 0.092875 0.666545 0.762810
C5 C 0.05898(9) 0.4383(3) 0.68502(11)
H2 H 0.010051 0.478872 0.683570
C6 C 0.08173(10) 0.2675(3) 0.64065(11)
H3 H 0.047612 0.189678 0.610477
C7 C 0.15368(9) 0.2077(3) 0.63945(10)
H4 H 0.168927 0.091498 0.608602
C8 C 0.20239(9) 0.3237(3) 0.68487(9)
C9 C 0.31775(9) 0.1982(3) 0.62898(10)
H5 H 0.289704 0.079891 0.607138
H6 H 0.362460 0.140770 0.652440
C10 C 0.33749(9) 0.3431(3) 0.55911(10)
C11 C 0.36787(9) 0.5462(3) 0.59223(10)
H7 H 0.374044 0.646215 0.547442
H8 H 0.415644 0.519393 0.616308
C12 C 0.31909(9) 0.6428(3) 0.65599(10)
H9 H 0.272435 0.679097 0.631014
H10 H 0.341159 0.772758 0.676474
C13 C 0.24388(9) 0.4468(3) 0.86293(9)
H11 H 0.244249 0.295703 0.851200
H12 H 0.288906 0.480454 0.891958
C14 C 0.18190(9) 0.4936(3) 0.91701(10)
H13 H 0.135320 0.495726 0.893635
C15 C 0.18767(10) 0.5321(3) 0.99512(11)
H14 H 0.233440 0.531289 1.020460
H15 H 0.146035 0.560662 1.025809
C16 C 0.24238(9) 0.8018(3) 0.79836(11)
H16 H 0.239753 0.878232 0.747351
H17 H 0.286445 0.840098 0.827152
H18 H 0.200832 0.837142 0.831441
C17 C 0.37539(9) 0.4537(3) 0.77467(9)
C18 C 0.39247(9) 0.2569(3) 0.80554(10)
H19 H 0.362336 0.141977 0.793132
C19 C 0.45236(9) 0.2262(3) 0.85380(10)
H20 H 0.462809 0.091198 0.874111
C20 C 0.49741(9) 0.3930(3) 0.87266(10)
C21 C 0.48253(9) 0.5886(3) 0.84132(11)
H21 H 0.513396 0.702607 0.852726
C22 C 0.42197(9) 0.6167(3) 0.79296(10)
H22 H 0.412158 0.751266 0.771819
C23 C 0.59781(10) 0.5180(3) 0.94695(12)
H23 H 0.619303 0.584654 0.899844
H24 H 0.635800 0.467271 0.982917
H25 H 0.568149 0.619326 0.975626
C24 C 0.38973(10) 0.2318(3) 0.50302(11)
H26 H 0.367074 0.105848 0.481405
H27 H 0.433079 0.193593 0.533175
H28 H 0.402508 0.324751 0.458571
N1 N 0.27673(7) 0.2953(2) 0.69314(8)
O1 O 0.27340(7) 0.4002(2) 0.51464(7)
O2 O 0.55440(7) 0.3473(2) 0.92141(8)
H29 H 0.2547(16) 0.284(5) 0.5009(17)
loop_
_geom_bond_atom_site_label_1
_geom_bond_atom_site_label_2
_geom_bond_site_symmetry_1
_geom_bond_site_symmetry_2
C1 C2 1_555 1_555
C2 C3 1_555 1_555
C3 C4 1_555 1_555
C4 H1 1_555 1_555
C5 C4 1_555 1_555
H2 C5 1_555 1_555
C6 C5 1_555 1_555
H3 C6 1_555 1_555
C7 C6 1_555 1_555
H4 C7 1_555 1_555
C8 C3 1_555 1_555
C9 H5 1_555 1_555
H6 C9 1_555 1_555
C10 C9 1_555 1_555
C11 C10 1_555 1_555
H7 C11 1_555 1_555
H8 C11 1_555 1_555
C12 C1 1_555 1_555
H9 C12 1_555 1_555
H10 C12 1_555 1_555
C13 C2 1_555 1_555
H11 C13 1_555 1_555
H12 C13 1_555 1_555
C14 C13 1_555 1_555
H13 C14 1_555 1_555
C15 C14 1_555 1_555
H14 C15 1_555 1_555
H15 C15 1_555 1_555
C16 C2 1_555 1_555
H16 C16 1_555 1_555
H17 C16 1_555 1_555
H18 C16 1_555 1_555
C17 C1 1_555 1_555
C18 C17 1_555 1_555
H19 C18 1_555 1_555
C19 C18 1_555 1_555
H20 C19 1_555 1_555
C20 C19 1_555 1_555
C21 C20 1_555 1_555
H21 C21 1_555 1_555
C22 C17 1_555 1_555
H22 C22 1_555 1_555
C23 H23 1_555 1_555
H24 C23 1_555 1_555
H25 C23 1_555 1_555
C24 C10 1_555 1_555
H26 C24 1_555 1_555
H27 C24 1_555 1_555
H28 C24 1_555 1_555
N1 C1 1_555 1_555
O1 C10 1_555 1_555
O2 C20 1_555 1_555
H29 O1 1_555 1_555
C7 C8 1_555 1_555
C8 N1 1_555 1_555
C9 N1 1_555 1_555
C11 C12 1_555 1_555
C21 C22 1_555 1_555
C23 O2 1_555 1_555

#END
