
#######################################################################
#
#                 Cambridge Crystallographic Data Centre
#                                CCDC 
#
#######################################################################
#
# If this CIF has been generated from an entry in the Cambridge 
# Structural Database, then it will include bibliographic, chemical, 
# crystal, experimental, refinement or atomic coordinate data resulting 
# from the CCDC's data processing and validation procedures.
#
#######################################################################

data_WIRPAR
_chemical_formula_moiety         'C19 H21 N1 O1'
_chemical_name_systematic        
4a,9-dimethyl-9a-phenyl-2,3,4,4a,9,9a-hexahydropyrano[2,3-b]indole
_symmetry_cell_setting           orthorhombic
_symmetry_space_group_name_H-M   'P b c a'
_symmetry_Int_Tables_number      61
_space_group_name_Hall           '-P 2ac 2ab'
loop_
_symmetry_equiv_pos_site_id
_symmetry_equiv_pos_as_xyz
1 x,y,z
2 1/2-x,-y,1/2+z
3 -x,1/2+y,1/2-z
4 1/2+x,1/2-y,-z
5 -x,-y,-z
6 1/2+x,y,1/2-z
7 x,1/2-y,1/2+z
8 1/2-x,1/2+y,z
_cell_length_a                   6.690(2)
_cell_length_b                   14.091(4)
_cell_length_c                   31.349(11)
_cell_angle_alpha                90
_cell_angle_beta                 90
_cell_angle_gamma                90
_cell_volume                     2955.23
_exptl_crystal_colour            colorless
_exptl_crystal_description       plate
_cell_formula_units_Z            8
loop_
_atom_site_label
_atom_site_type_symbol
_atom_site_fract_x
_atom_site_fract_y
_atom_site_fract_z
C1 C 0.3288(2) 0.69443(10) 0.62426(4)
C2 C 0.3387(2) 0.58475(10) 0.61251(4)
C3 C 0.4326(2) 0.54195(10) 0.65205(5)
C4 C 0.4645(2) 0.44831(10) 0.66264(5)
H1 H 0.423973 0.399019 0.643865
C5 C 0.5571(2) 0.42682(11) 0.70129(5)
H2 H 0.578801 0.362403 0.708948
C6 C 0.6177(2) 0.49838(12) 0.72863(5)
H3 H 0.681099 0.482551 0.754792
C7 C 0.5868(2) 0.59346(11) 0.71819(5)
H4 H 0.627897 0.642771 0.736899
C8 C 0.49405(19) 0.61393(10) 0.67963(5)
C9 C 0.0248(2) 0.66210(11) 0.66248(5)
H5 H -0.105700 0.690693 0.669980
H6 H 0.104324 0.656347 0.688996
C10 C -0.0095(2) 0.56320(11) 0.64364(5)
H7 H 0.019939 0.514382 0.665467
H8 H -0.151128 0.556446 0.635040
C11 C 0.1252(2) 0.54827(11) 0.60498(5)
H9 H 0.067054 0.581671 0.580128
H10 H 0.130377 0.479733 0.598130
C12 C 0.4499(2) 0.78767(11) 0.68771(5)
H11 H 0.336068 0.784081 0.707310
H12 H 0.435076 0.843311 0.669221
H13 H 0.574047 0.793173 0.704129
C13 C 0.4684(2) 0.56370(11) 0.57324(5)
H14 H 0.603256 0.588939 0.577791
H15 H 0.409057 0.593777 0.548063
H16 H 0.475766 0.494946 0.568798
C14 C 0.3965(2) 0.76004(10) 0.58867(5)
C15 C 0.2631(2) 0.78700(10) 0.55679(5)
H17 H 0.127606 0.766998 0.558195
C16 C 0.3269(3) 0.84295(12) 0.52296(5)
H18 H 0.235019 0.860804 0.501292
C17 C 0.5236(3) 0.87282(11) 0.52067(5)
H19 H 0.566646 0.911402 0.497571
C18 C 0.6573(2) 0.84635(11) 0.55209(5)
H20 H 0.792468 0.866798 0.550547
C19 C 0.5951(2) 0.79004(11) 0.58587(5)
H21 H 0.688153 0.771761 0.607235
N1 N 0.45674(17) 0.70260(8) 0.66179(4)
O1 O 0.12726(14) 0.72312(7) 0.63323(3)
loop_
_geom_bond_atom_site_label_1
_geom_bond_atom_site_label_2
_geom_bond_site_symmetry_1
_geom_bond_site_symmetry_2
C1 C2 1_555 1_555
C2 C3 1_555 1_555
C3 C4 1_555 1_555
C4 H1 1_555 1_555
C5 C4 1_555 1_555
H2 C5 1_555 1_555
C6 C5 1_555 1_555
H3 C6 1_555 1_555
C7 C6 1_555 1_555
H4 C7 1_555 1_555
C8 C3 1_555 1_555
C9 H5 1_555 1_555
H6 C9 1_555 1_555
C10 C9 1_555 1_555
H7 C10 1_555 1_555
H8 C10 1_555 1_555
C11 C2 1_555 1_555
H9 C11 1_555 1_555
H10 C11 1_555 1_555
C12 H11 1_555 1_555
H12 C12 1_555 1_555
H13 C12 1_555 1_555
C13 C2 1_555 1_555
H14 C13 1_555 1_555
H15 C13 1_555 1_555
H16 C13 1_555 1_555
C14 C1 1_555 1_555
C15 C14 1_555 1_555
H17 C15 1_555 1_555
C16 C15 1_555 1_555
H18 C16 1_555 1_555
C17 C16 1_555 1_555
H19 C17 1_555 1_555
C18 C17 1_555 1_555
H20 C18 1_555 1_555
C19 C14 1_555 1_555
H21 C19 1_555 1_555
N1 C1 1_555 1_555
O1 C1 1_555 1_555
C7 C8 1_555 1_555
C8 N1 1_555 1_555
C9 O1 1_555 1_555
C10 C11 1_555 1_555
C12 N1 1_555 1_555
C18 C19 1_555 1_555

#END
