
#######################################################################
#
#                 Cambridge Crystallographic Data Centre
#                                CCDC 
#
#######################################################################
#
# If this CIF has been generated from an entry in the Cambridge 
# Structural Database, then it will include bibliographic, chemical, 
# crystal, experimental, refinement or atomic coordinate data resulting 
# from the CCDC's data processing and validation procedures.
#
#######################################################################

data_WIRQIA
_chemical_formula_moiety         'C53 H33 N1 O3 S2'
_chemical_name_systematic        
11-(2,6-bis(phenylsulfanyl)phenyl)-9,13-diphenyl-12a,13-dihydro-9H-9,13-methanopyreno[4,5-f]isoindole-10,12,14(9aH,11H)-trione
_symmetry_cell_setting           monoclinic
_symmetry_space_group_name_H-M   'P 21/n'
_symmetry_Int_Tables_number      14
_space_group_name_Hall           '-P 2yn'
loop_
_symmetry_equiv_pos_site_id
_symmetry_equiv_pos_as_xyz
1 x,y,z
2 1/2-x,1/2+y,1/2-z
3 -x,-y,-z
4 1/2+x,1/2-y,1/2+z
_cell_length_a                   11.0741(8)
_cell_length_b                   18.6180(11)
_cell_length_c                   19.0103(13)
_cell_angle_alpha                90
_cell_angle_beta                 94.754(2)
_cell_angle_gamma                90
_cell_volume                     3906.01
_exptl_crystal_colour            colorless
_exptl_crystal_description       block
_cell_formula_units_Z            4
loop_
_atom_site_label
_atom_site_type_symbol
_atom_site_fract_x
_atom_site_fract_y
_atom_site_fract_z
S1 S 0.60433(4) 0.18505(2) 0.33087(2)
S2 S 0.21560(4) 0.35338(3) 0.25180(3)
O1 O 0.54530(10) 0.41902(6) 0.60044(6)
O2 O 0.58451(10) 0.37854(6) 0.31323(6)
O3 O 0.29740(10) 0.23828(7) 0.40305(6)
N1 N 0.43420(11) 0.30254(7) 0.34432(6)
C1 C 0.54286(13) 0.38304(8) 0.54844(8)
C2 C 0.61031(13) 0.39261(8) 0.48025(8)
C3 C 0.49551(13) 0.39276(8) 0.42631(8)
H1 H 0.4617 0.4424 0.4204
C4 C 0.51454(13) 0.35997(8) 0.35506(8)
C5 C 0.36860(13) 0.28706(8) 0.40203(8)
C6 C 0.40320(13) 0.34227(8) 0.45883(8)
H2 H 0.3301 0.3701 0.4702
C7 C 0.47172(13) 0.31271(8) 0.52832(8)
C8 C 0.58176(13) 0.27017(8) 0.50771(7)
C9 C 0.66233(13) 0.31647(8) 0.48035(7)
C10 C 0.77622(13) 0.29241(8) 0.45672(8)
C11 C 0.85584(14) 0.33574(9) 0.42204(8)
H3 H 0.8345 0.3841 0.4110
C12 C 0.96581(15) 0.30858(9) 0.40363(9)
H4 H 1.0184 0.3385 0.3796
C13 C 0.99969(14) 0.23890(9) 0.41964(9)
H5 H 1.0768 0.2220 0.4086
C14 C 0.92148(14) 0.19306(9) 0.45195(8)
C15 C 0.95226(16) 0.11908(10) 0.46619(9)
H6 H 1.0304 0.1021 0.4571
C16 C 0.87305(17) 0.07362(10) 0.49201(10)
H7 H 0.8956 0.0249 0.4998
C17 C 0.75468(15) 0.09697(9) 0.50825(8)
C18 C 0.67098(17) 0.04962(9) 0.53352(9)
H8 H 0.6926 0.0007 0.5412
C19 C 0.55725(17) 0.07287(9) 0.54754(9)
H9 H 0.5007 0.0395 0.5635
C20 C 0.52427(15) 0.14439(8) 0.53859(8)
H10 H 0.4455 0.1595 0.5484
C21 C 0.60621(14) 0.19445(8) 0.51518(7)
C22 C 0.72317(14) 0.17069(8) 0.49822(7)
C23 C 0.80651(13) 0.21881(8) 0.46986(7)
C24 C 0.69534(13) 0.45583(8) 0.48065(8)
C25 C 0.69925(14) 0.50087(8) 0.42258(8)
H11 H 0.6432 0.4941 0.3825
C26 C 0.78481(15) 0.55589(9) 0.42259(9)
H12 H 0.7873 0.5861 0.3824
C27 C 0.86616(15) 0.56667(9) 0.48094(10)
H13 H 0.9249 0.6038 0.4808
C28 C 0.86128(15) 0.52295(9) 0.53955(10)
H14 H 0.9162 0.5306 0.5799
C29 C 0.77682(14) 0.46810(8) 0.53968(9)
H15 H 0.7742 0.4385 0.5802
C30 C 0.39590(15) 0.28380(8) 0.58404(8)
C31 C 0.44845(17) 0.27615(9) 0.65292(9)
H16 H 0.5304 0.2899 0.6642
C32 C 0.3807(2) 0.24832(11) 0.70508(10)
H17 H 0.4168 0.2431 0.7519
C33 C 0.2613(2) 0.22817(10) 0.68943(11)
H18 H 0.2156 0.2095 0.7254
C34 C 0.20896(18) 0.23522(10) 0.62154(11)
H19 H 0.1272 0.2209 0.6106
C35 C 0.27535(15) 0.26327(9) 0.56869(10)
H20 H 0.2384 0.2684 0.5221
C36 C 0.41538(14) 0.26540(8) 0.27842(8)
C37 C 0.49139(14) 0.20900(8) 0.26392(8)
C38 C 0.47612(17) 0.17561(9) 0.19778(8)
H21 H 0.5284 0.1376 0.1866
C39 C 0.38481(18) 0.19812(10) 0.14875(9)
H22 H 0.3762 0.1761 0.1035
C40 C 0.30611(16) 0.25203(11) 0.16458(9)
H23 H 0.2419 0.2656 0.1310
C41 C 0.32045(15) 0.28673(9) 0.22962(9)
C42 C 0.64062(17) 0.09635(9) 0.30546(8)
C43 C 0.75294(17) 0.08258(10) 0.28135(9)
H24 H 0.8103 0.1202 0.2785
C44 C 0.78088(19) 0.01313(11) 0.26129(10)
H25 H 0.8579 0.0031 0.2450
C45 C 0.6974(2) -0.04118(11) 0.26496(11)
H26 H 0.7165 -0.0883 0.2502
C46 C 0.5860(2) -0.02769(11) 0.28996(12)
H27 H 0.5290 -0.0655 0.2928
C47 C 0.5573(2) 0.04124(10) 0.31094(11)
H28 H 0.4813 0.0507 0.3289
C48 C 0.28727(16) 0.43503(10) 0.22970(9)
C49 C 0.2438(2) 0.49775(13) 0.25732(12)
H29 H 0.1815 0.4956 0.2888
C50 C 0.2906(3) 0.56350(14) 0.23940(15)
H30 H 0.2595 0.6063 0.2582
C51 C 0.3815(2) 0.56741(12) 0.19470(12)
H31 H 0.4127 0.6127 0.1819
C52 C 0.42685(19) 0.50501(11) 0.16861(10)
H32 H 0.4913 0.5074 0.1387
C53 C 0.38025(17) 0.43882(10) 0.18524(10)
H33 H 0.4118 0.3962 0.1663
loop_
_geom_bond_atom_site_label_1
_geom_bond_atom_site_label_2
_geom_bond_site_symmetry_1
_geom_bond_site_symmetry_2
S1 C37 1_555 1_555
S2 C41 1_555 1_555
O1 C1 1_555 1_555
O2 C4 1_555 1_555
O3 C5 1_555 1_555
N1 C4 1_555 1_555
C1 C2 1_555 1_555
C2 C3 1_555 1_555
C3 H1 1_555 1_555
C4 C3 1_555 1_555
C5 N1 1_555 1_555
C6 C3 1_555 1_555
H2 C6 1_555 1_555
C7 C1 1_555 1_555
C8 C7 1_555 1_555
C9 C2 1_555 1_555
C10 C9 1_555 1_555
C11 C10 1_555 1_555
H3 C11 1_555 1_555
C12 C11 1_555 1_555
H4 C12 1_555 1_555
C13 C12 1_555 1_555
H5 C13 1_555 1_555
C14 C13 1_555 1_555
C15 C14 1_555 1_555
H6 C15 1_555 1_555
C16 C15 1_555 1_555
H7 C16 1_555 1_555
C17 C16 1_555 1_555
C18 C17 1_555 1_555
H8 C18 1_555 1_555
C19 C18 1_555 1_555
H9 C19 1_555 1_555
C20 C19 1_555 1_555
H10 C20 1_555 1_555
C21 C8 1_555 1_555
C22 C17 1_555 1_555
C23 C10 1_555 1_555
C24 C2 1_555 1_555
C25 C24 1_555 1_555
H11 C25 1_555 1_555
C26 C25 1_555 1_555
H12 C26 1_555 1_555
C27 C26 1_555 1_555
H13 C27 1_555 1_555
C28 C27 1_555 1_555
H14 C28 1_555 1_555
C29 C24 1_555 1_555
H15 C29 1_555 1_555
C30 C7 1_555 1_555
C31 C30 1_555 1_555
H16 C31 1_555 1_555
C32 C31 1_555 1_555
H17 C32 1_555 1_555
C33 C32 1_555 1_555
H18 C33 1_555 1_555
C34 C33 1_555 1_555
H19 C34 1_555 1_555
C35 C30 1_555 1_555
H20 C35 1_555 1_555
C36 N1 1_555 1_555
C37 C36 1_555 1_555
C38 C37 1_555 1_555
H21 C38 1_555 1_555
C39 C38 1_555 1_555
H22 C39 1_555 1_555
C40 C39 1_555 1_555
H23 C40 1_555 1_555
C41 C36 1_555 1_555
C42 S1 1_555 1_555
C43 C42 1_555 1_555
H24 C43 1_555 1_555
C44 C43 1_555 1_555
H25 C44 1_555 1_555
C45 C44 1_555 1_555
H26 C45 1_555 1_555
C46 C45 1_555 1_555
H27 C46 1_555 1_555
C47 C42 1_555 1_555
H28 C47 1_555 1_555
C48 S2 1_555 1_555
C49 C48 1_555 1_555
H29 C49 1_555 1_555
C50 C49 1_555 1_555
H30 C50 1_555 1_555
C51 C50 1_555 1_555
H31 C51 1_555 1_555
C52 C51 1_555 1_555
H32 C52 1_555 1_555
C53 C48 1_555 1_555
H33 C53 1_555 1_555
C5 C6 1_555 1_555
C6 C7 1_555 1_555
C8 C9 1_555 1_555
C14 C23 1_555 1_555
C20 C21 1_555 1_555
C21 C22 1_555 1_555
C22 C23 1_555 1_555
C28 C29 1_555 1_555
C34 C35 1_555 1_555
C40 C41 1_555 1_555
C46 C47 1_555 1_555
C52 C53 1_555 1_555

#END
