
#######################################################################
#
#                 Cambridge Crystallographic Data Centre
#                                CCDC 
#
#######################################################################
#
# If this CIF has been generated from an entry in the Cambridge 
# Structural Database, then it will include bibliographic, chemical, 
# crystal, experimental, refinement or atomic coordinate data resulting 
# from the CCDC's data processing and validation procedures.
#
#######################################################################

data_WIRRAT
_chemical_formula_moiety         'C53 H33 N1 O5'
_chemical_name_systematic        
11-(2,6-diphenoxyphenyl)-9,13-diphenyl-12a,13-dihydro-9H-9,13-methanopyreno[4,5-f]isoindole-10,12,14(9aH,11H)-trione
_symmetry_cell_setting           triclinic
_symmetry_space_group_name_H-M   'P -1'
_symmetry_Int_Tables_number      2
_space_group_name_Hall           '-P 1'
loop_
_symmetry_equiv_pos_site_id
_symmetry_equiv_pos_as_xyz
1 x,y,z
2 -x,-y,-z
_cell_length_a                   10.8932(6)
_cell_length_b                   11.5571(6)
_cell_length_c                   17.0474(9)
_cell_angle_alpha                78.3710(10)
_cell_angle_beta                 72.4860(10)
_cell_angle_gamma                63.6950(10)
_cell_volume                     1828.89
_exptl_crystal_colour            colorless
_exptl_crystal_description       plate
_cell_formula_units_Z            2
loop_
_atom_site_label
_atom_site_type_symbol
_atom_site_fract_x
_atom_site_fract_y
_atom_site_fract_z
O1 O -0.16208(10) 0.42712(10) 0.41095(6)
O2 O 0.12126(10) 0.56320(9) 0.10470(6)
O3 O 0.35771(10) 0.14784(9) 0.20254(6)
O4 O 0.49851(10) 0.35102(9) 0.16059(6)
O5 O 0.24362(11) 0.35545(9) -0.02259(6)
N1 N 0.26166(12) 0.35059(11) 0.13680(7)
C1 C -0.05652(14) 0.42169(13) 0.36053(8)
C2 C -0.02937(14) 0.52215(13) 0.28980(8)
C3 C 0.02829(14) 0.43354(13) 0.21732(8)
H1 H -0.0508 0.4371 0.1974
C4 C 0.13652(14) 0.46263(13) 0.14645(8)
C5 C 0.25909(14) 0.25035(13) 0.19804(8)
C6 C 0.11012(14) 0.29464(13) 0.25365(8)
H2 H 0.0659 0.2363 0.2511
C7 C 0.09429(14) 0.31051(13) 0.34590(8)
C8 C 0.17059(14) 0.39467(13) 0.34481(8)
C9 C 0.10045(14) 0.51680(13) 0.31084(8)
C10 C 0.15354(14) 0.61533(13) 0.29561(8)
C11 C 0.09918(15) 0.73394(13) 0.24975(9)
H3 H 0.0206 0.7540 0.2281
C12 C 0.15936(15) 0.82217(13) 0.23584(9)
H4 H 0.1225 0.9015 0.2039
C13 C 0.27217(15) 0.79616(14) 0.26790(9)
H5 H 0.3112 0.8582 0.2581
C14 C 0.32965(15) 0.67972(13) 0.31451(9)
C15 C 0.44642(15) 0.65085(14) 0.34914(10)
H6 H 0.4833 0.7139 0.3421
C16 C 0.50443(15) 0.53673(14) 0.39125(9)
H7 H 0.5784 0.5222 0.4156
C17 C 0.45619(15) 0.43628(14) 0.40002(9)
C18 C 0.52847(15) 0.31195(14) 0.43374(9)
H8 H 0.6036 0.2958 0.4576
C19 C 0.49155(15) 0.21218(14) 0.43271(9)
H9 H 0.5454 0.1270 0.4527
C20 C 0.37678(15) 0.23498(13) 0.40279(9)
H10 H 0.3528 0.1654 0.4028
C21 C 0.29597(14) 0.35987(13) 0.37254(8)
C22 C 0.33939(14) 0.46147(13) 0.36810(8)
C23 C 0.27269(14) 0.58586(13) 0.32710(8)
C24 C -0.15484(14) 0.64946(13) 0.28638(9)
C25 C -0.20880(15) 0.70057(14) 0.21642(9)
H11 H -0.1660 0.6542 0.1683
C26 C -0.32493(15) 0.81910(14) 0.21659(9)
H12 H -0.3607 0.8530 0.1686
C27 C -0.38852(15) 0.88788(14) 0.28611(10)
H13 H -0.4676 0.9688 0.2860
C28 C -0.33586(16) 0.83765(14) 0.35592(9)
H14 H -0.3785 0.8847 0.4037
C29 C -0.22115(15) 0.71902(13) 0.35640(9)
H15 H -0.1873 0.6847 0.4050
C30 C 0.11147(14) 0.19445(13) 0.40726(9)
C31 C 0.06601(15) 0.21421(14) 0.49148(9)
H16 H 0.0199 0.2998 0.5084
C32 C 0.08781(15) 0.10959(14) 0.55027(9)
H17 H 0.0578 0.1237 0.6072
C33 C 0.15345(16) -0.01585(14) 0.52589(9)
H18 H 0.1690 -0.0875 0.5662
C34 C 0.19607(16) -0.03617(14) 0.44308(9)
H19 H 0.2398 -0.1219 0.4265
C35 C 0.17526(15) 0.06846(13) 0.38383(9)
H20 H 0.2049 0.0537 0.3270
C36 C 0.37961(14) 0.34272(12) 0.06908(9)
C37 C 0.50112(15) 0.34031(12) 0.08101(9)
C38 C 0.61242(15) 0.33906(13) 0.01390(9)
H21 H 0.6962 0.3363 0.0220
C39 C 0.59953(16) 0.34184(13) -0.06478(9)
H22 H 0.6748 0.3423 -0.1108
C40 C 0.47867(16) 0.34402(13) -0.07789(9)
H23 H 0.4716 0.3449 -0.1322
C41 C 0.36901(15) 0.34497(13) -0.01083(9)
C42 C 0.62291(14) 0.27885(13) 0.18695(9)
C43 C 0.66790(15) 0.34284(14) 0.22440(9)
H24 H 0.6215 0.4342 0.2264
C44 C 0.78278(16) 0.27091(15) 0.25923(9)
H25 H 0.8136 0.3132 0.2867
C45 C 0.85245(16) 0.13850(15) 0.25422(9)
H26 H 0.9315 0.0902 0.2775
C46 C 0.80673(16) 0.07622(15) 0.21509(10)
H27 H 0.8550 -0.0147 0.2114
C47 C 0.69057(16) 0.14624(14) 0.18131(10)
H28 H 0.6582 0.1040 0.1549
C48 C 0.20977(16) 0.24858(14) 0.00294(9)
C49 C 0.31054(17) 0.12351(15) 0.00919(10)
H29 H 0.4069 0.1074 0.0006
C50 C 0.26881(19) 0.02130(16) 0.02830(12)
H30 H 0.3373 -0.0651 0.0327
C51 C 0.1293(2) 0.04440(18) 0.04093(11)
H31 H 0.1016 -0.0257 0.0526
C52 C 0.02955(19) 0.17088(19) 0.03639(12)
H32 H -0.0671 0.1872 0.0463
C53 C 0.06890(17) 0.27318(16) 0.01761(10)
H33 H -0.0001 0.3597 0.0148
loop_
_geom_bond_atom_site_label_1
_geom_bond_atom_site_label_2
_geom_bond_site_symmetry_1
_geom_bond_site_symmetry_2
O1 C1 1_555 1_555
O2 C4 1_555 1_555
O3 C5 1_555 1_555
O4 C37 1_555 1_555
O5 C41 1_555 1_555
N1 C4 1_555 1_555
C1 C2 1_555 1_555
C2 C3 1_555 1_555
C3 H1 1_555 1_555
C4 C3 1_555 1_555
C5 N1 1_555 1_555
C6 C3 1_555 1_555
H2 C6 1_555 1_555
C7 C1 1_555 1_555
C8 C7 1_555 1_555
C9 C2 1_555 1_555
C10 C9 1_555 1_555
C11 C10 1_555 1_555
H3 C11 1_555 1_555
C12 C11 1_555 1_555
H4 C12 1_555 1_555
C13 C12 1_555 1_555
H5 C13 1_555 1_555
C14 C13 1_555 1_555
C15 C14 1_555 1_555
H6 C15 1_555 1_555
C16 C15 1_555 1_555
H7 C16 1_555 1_555
C17 C16 1_555 1_555
C18 C17 1_555 1_555
H8 C18 1_555 1_555
C19 C18 1_555 1_555
H9 C19 1_555 1_555
C20 C19 1_555 1_555
H10 C20 1_555 1_555
C21 C8 1_555 1_555
C22 C17 1_555 1_555
C23 C10 1_555 1_555
C24 C2 1_555 1_555
C25 C24 1_555 1_555
H11 C25 1_555 1_555
C26 C25 1_555 1_555
H12 C26 1_555 1_555
C27 C26 1_555 1_555
H13 C27 1_555 1_555
C28 C27 1_555 1_555
H14 C28 1_555 1_555
C29 C24 1_555 1_555
H15 C29 1_555 1_555
C30 C7 1_555 1_555
C31 C30 1_555 1_555
H16 C31 1_555 1_555
C32 C31 1_555 1_555
H17 C32 1_555 1_555
C33 C32 1_555 1_555
H18 C33 1_555 1_555
C34 C33 1_555 1_555
H19 C34 1_555 1_555
C35 C30 1_555 1_555
H20 C35 1_555 1_555
C36 N1 1_555 1_555
C37 C36 1_555 1_555
C38 C37 1_555 1_555
H21 C38 1_555 1_555
C39 C38 1_555 1_555
H22 C39 1_555 1_555
C40 C39 1_555 1_555
H23 C40 1_555 1_555
C41 C36 1_555 1_555
C42 O4 1_555 1_555
C43 C42 1_555 1_555
H24 C43 1_555 1_555
C44 C43 1_555 1_555
H25 C44 1_555 1_555
C45 C44 1_555 1_555
H26 C45 1_555 1_555
C46 C45 1_555 1_555
H27 C46 1_555 1_555
C47 C42 1_555 1_555
H28 C47 1_555 1_555
C48 O5 1_555 1_555
C49 C48 1_555 1_555
H29 C49 1_555 1_555
C50 C49 1_555 1_555
H30 C50 1_555 1_555
C51 C50 1_555 1_555
H31 C51 1_555 1_555
C52 C51 1_555 1_555
H32 C52 1_555 1_555
C53 C48 1_555 1_555
H33 C53 1_555 1_555
C5 C6 1_555 1_555
C6 C7 1_555 1_555
C8 C9 1_555 1_555
C14 C23 1_555 1_555
C20 C21 1_555 1_555
C21 C22 1_555 1_555
C22 C23 1_555 1_555
C28 C29 1_555 1_555
C34 C35 1_555 1_555
C40 C41 1_555 1_555
C46 C47 1_555 1_555
C52 C53 1_555 1_555

#END
