
#######################################################################
#
#                 Cambridge Crystallographic Data Centre
#                                CCDC 
#
#######################################################################
#
# If this CIF has been generated from an entry in the Cambridge 
# Structural Database, then it will include bibliographic, chemical, 
# crystal, experimental, refinement or atomic coordinate data resulting 
# from the CCDC's data processing and validation procedures.
#
#######################################################################

data_WIRTAV
_chemical_formula_moiety         'C30 H32 N2 O6 S1'
_chemical_name_systematic        
'diethyl (S)-(((3-methyl-1H-indol-2-yl)(4-methylphenyl)methyl)(phenylsulfonyl)amino)propanedioate'
_symmetry_cell_setting           monoclinic
_symmetry_space_group_name_H-M   'P 21'
_symmetry_Int_Tables_number      4
_space_group_name_Hall           'P 2yb'
loop_
_symmetry_equiv_pos_site_id
_symmetry_equiv_pos_as_xyz
1 x,y,z
2 -x,1/2+y,-z
_cell_length_a                   13.9107(9)
_cell_length_b                   13.9185(8)
_cell_length_c                   15.4002(10)
_cell_angle_alpha                90
_cell_angle_beta                 109.507(4)
_cell_angle_gamma                90
_cell_volume                     2810.58
_exptl_crystal_colour            colorless
_exptl_crystal_description       block
_cell_formula_units_Z            4
loop_
_atom_site_label
_atom_site_type_symbol
_atom_site_fract_x
_atom_site_fract_y
_atom_site_fract_z
S1 S 0.56542(6) 0.40948(5) 0.18641(5)
O1 O 0.56449(17) 0.36596(15) 0.10219(13)
O2 O 0.75647(15) 0.44926(16) 0.02979(13)
O3 O 0.79189(16) 0.35730(15) 0.15613(14)
O4 O 0.70025(16) 0.64933(15) 0.05949(14)
O5 O 0.55509(16) 0.57386(17) 0.05264(15)
O6 O 0.47692(16) 0.46034(16) 0.19019(15)
N1 N 0.66763(18) 0.47822(16) 0.22069(15)
N2 N 0.54892(18) 0.66429(17) 0.24448(16)
H1 H 0.498448 0.625489 0.242986
C1 C 0.6284(3) 0.1803(3) 0.4049(3)
H2 H 0.641181 0.131328 0.450282
C2 C 0.6771(3) 0.1778(3) 0.3405(3)
H3 H 0.722106 0.126402 0.340923
C3 C 0.6608(3) 0.2499(2) 0.2751(2)
H4 H 0.696146 0.249696 0.231869
C4 C 0.5923(2) 0.3221(2) 0.27390(19)
C5 C 0.6804(2) 0.5378(2) 0.30391(18)
H5 H 0.629938 0.513288 0.332074
C6 C 0.6518(2) 0.6409(2) 0.27721(18)
C7 C 0.5389(2) 0.7578(2) 0.21486(19)
C8 C 0.4520(3) 0.8126(2) 0.1740(2)
H6 H 0.385700 0.786781 0.162671
C9 C 0.4658(3) 0.9063(2) 0.1503(2)
H7 H 0.407801 0.944795 0.120261
C10 C 0.7149(2) 0.5126(2) 0.15478(18)
H8 H 0.775334 0.551473 0.191336
C11 C 0.7573(2) 0.4292(2) 0.11417(18)
C12 C 0.8051(3) 0.3779(3) -0.0111(2)
H9 H 0.761906 0.319778 -0.028587
H10 H 0.872113 0.359039 0.033446
C13 C 0.8187(3) 0.4229(4) -0.0948(2)
H11 H 0.751680 0.436348 -0.140412
H12 H 0.856325 0.378792 -0.121268
H13 H 0.856940 0.483065 -0.077298
C14 C 0.6463(2) 0.5812(2) 0.08258(18)
C15 C 0.6414(3) 0.7181(2) -0.0098(2)
H14 H 0.677762 0.780368 -0.000714
H15 H 0.574162 0.728748 -0.002407
C16 C 0.6263(3) 0.6814(3) -0.1050(2)
H16 H 0.692592 0.665389 -0.110511
H17 H 0.593077 0.731087 -0.150206
H18 H 0.583255 0.623870 -0.116578
C17 C 0.7855(2) 0.52509(19) 0.37618(18)
C18 C 0.8553(2) 0.4567(2) 0.36867(19)
H19 H 0.838622 0.415914 0.316241
C19 C 0.9491(2) 0.4480(2) 0.4376(2)
H20 H 0.996075 0.401185 0.431273
C20 C 0.9765(2) 0.5056(2) 0.5154(2)
C21 C 1.0794(3) 0.4954(3) 0.5889(2)
H21 H 1.080239 0.437382 0.625193
H22 H 1.092652 0.551763 0.629427
H23 H 1.132217 0.490589 0.560078
C22 C 0.9058(3) 0.5722(2) 0.5234(2)
H24 H 0.922049 0.611681 0.576732
C23 C 0.8119(2) 0.5820(2) 0.45499(19)
H25 H 0.764833 0.628290 0.461891
C24 C 0.6378(2) 0.7954(2) 0.23369(19)
C25 C 0.6490(3) 0.8917(2) 0.2116(2)
H26 H 0.714925 0.919282 0.225455
C26 C 0.5631(3) 0.9453(2) 0.1696(3)
H27 H 0.570061 1.010174 0.153411
C27 C 0.7089(2) 0.7199(2) 0.27250(19)
C28 C 0.8220(2) 0.7307(2) 0.2998(2)
H28 H 0.850643 0.742569 0.366207
H29 H 0.838089 0.784843 0.266376
H30 H 0.851448 0.671649 0.284659
C29 C 0.5423(3) 0.3247(2) 0.3384(2)
H31 H 0.495640 0.374884 0.337309
C30 C 0.5614(3) 0.2530(3) 0.4041(3)
H32 H 0.528103 0.254031 0.448784
S2 S 0.07818(5) 0.58775(5) 0.20603(5)
O7 O 0.08483(17) 0.63053(15) 0.12381(14)
O8 O -0.01750(15) 0.55229(15) 0.20895(14)
O9 O 0.17153(16) 0.33313(15) 0.06354(13)
O10 O 0.04055(16) 0.42986(17) 0.05908(15)
O11 O 0.25537(17) 0.52748(19) 0.04527(14)
O12 O 0.31520(15) 0.60307(15) 0.18221(13)
N3 N 0.16637(17) 0.50300(17) 0.23407(15)
N4 N 0.35141(18) 0.51891(17) 0.37021(15)
H33 H 0.340601 0.553684 0.320124
C31 C 0.5865(2) 0.5008(3) 0.6152(2)
H34 H 0.638021 0.496032 0.673851
C32 C 0.5005(2) 0.4450(2) 0.59627(19)
H35 H 0.492774 0.401120 0.640748
C33 C 0.4245(2) 0.4541(2) 0.50995(19)
C34 C 0.3249(2) 0.4128(2) 0.47005(18)
C35 C 0.2830(2) 0.4540(2) 0.38545(18)
C36 C 0.1766(2) 0.44383(19) 0.31692(18)
H36 H 0.128913 0.471666 0.346543
C37 C 0.1225(2) 0.6708(2) 0.2975(2)
C38 C 0.1969(3) 0.7361(2) 0.2967(2)
H37 H 0.226677 0.734306 0.249443
C39 C 0.2275(3) 0.8045(3) 0.3662(3)
H38 H 0.278858 0.849724 0.366751
C40 C 0.1838(3) 0.8071(3) 0.4344(3)
H39 H 0.203977 0.855038 0.480889
C41 C 0.2075(2) 0.4648(2) 0.16624(18)
H40 H 0.260270 0.416704 0.199793
C42 C 0.1287(2) 0.4087(2) 0.08910(18)
C43 C 0.1036(3) 0.2755(2) -0.0111(2)
H41 H 0.036279 0.269656 -0.002856
H42 H 0.132285 0.210098 -0.009339
C44 C 0.0909(3) 0.3213(3) -0.1027(2)
H43 H 0.056640 0.383420 -0.106607
H44 H 0.049818 0.279279 -0.152323
H45 H 0.158111 0.330976 -0.108983
C45 C 0.2645(2) 0.5416(2) 0.13202(19)
C46 C 0.3193(3) 0.5856(4) 0.0072(2)
H46 H 0.337945 0.646261 0.042535
H47 H 0.382997 0.550380 0.013091
C47 C 0.2675(4) 0.6066(4) -0.0859(3)
H48 H 0.250966 0.546636 -0.121104
H49 H 0.310917 0.646488 -0.110020
H50 H 0.204398 0.641383 -0.091633
C48 C 0.1422(2) 0.3407(2) 0.29061(18)
C49 C 0.0387(2) 0.3211(2) 0.2600(2)
H51 H -0.008523 0.371189 0.257553
C50 C 0.0036(3) 0.2291(2) 0.2329(2)
H52 H -0.067701 0.216971 0.212428
C51 C 0.0698(3) 0.1548(2) 0.2349(2)
C52 C 0.1731(2) 0.1745(2) 0.2648(2)
H53 H 0.219927 0.124413 0.266228
C53 C 0.2097(2) 0.2667(2) 0.2927(2)
H54 H 0.280957 0.278781 0.313310
C54 C 0.0302(3) 0.0545(2) 0.2047(3)
H55 H 0.006683 0.050756 0.137317
H56 H -0.026615 0.040213 0.226792
H57 H 0.085075 0.007817 0.230514
C55 C 0.4385(2) 0.5201(2) 0.44561(18)
C56 C 0.5998(2) 0.5647(2) 0.5498(2)
H58 H 0.660707 0.601447 0.564807
C57 C 0.5264(2) 0.5756(2) 0.4639(2)
H59 H 0.535433 0.618839 0.419475
C58 C 0.2797(3) 0.3391(2) 0.5159(2)
H60 H 0.206686 0.332625 0.481814
H61 H 0.289440 0.359267 0.579262
H62 H 0.313539 0.277144 0.516754
C59 C 0.0797(2) 0.6717(2) 0.3671(2)
H63 H 0.029532 0.625660 0.367696
C60 C 0.1113(3) 0.7407(3) 0.4354(2)
H64 H 0.082595 0.742062 0.483406
loop_
_geom_bond_atom_site_label_1
_geom_bond_atom_site_label_2
_geom_bond_site_symmetry_1
_geom_bond_site_symmetry_2
S1 O1 1_555 1_555
O2 C11 1_555 1_555
O3 C11 1_555 1_555
O4 C14 1_555 1_555
O5 C14 1_555 1_555
O6 S1 1_555 1_555
N1 S1 1_555 1_555
N2 H1 1_555 1_555
C1 H2 1_555 1_555
C2 C1 1_555 1_555
H3 C2 1_555 1_555
C3 C2 1_555 1_555
H4 C3 1_555 1_555
C4 S1 1_555 1_555
C5 N1 1_555 1_555
H5 C5 1_555 1_555
C6 N2 1_555 1_555
C7 N2 1_555 1_555
C8 C7 1_555 1_555
H6 C8 1_555 1_555
C9 C8 1_555 1_555
H7 C9 1_555 1_555
C10 N1 1_555 1_555
H8 C10 1_555 1_555
C11 C10 1_555 1_555
C12 O2 1_555 1_555
H9 C12 1_555 1_555
H10 C12 1_555 1_555
C13 C12 1_555 1_555
H11 C13 1_555 1_555
H12 C13 1_555 1_555
H13 C13 1_555 1_555
C14 C10 1_555 1_555
C15 O4 1_555 1_555
H14 C15 1_555 1_555
H15 C15 1_555 1_555
C16 C15 1_555 1_555
H16 C16 1_555 1_555
H17 C16 1_555 1_555
H18 C16 1_555 1_555
C17 C5 1_555 1_555
C18 C17 1_555 1_555
H19 C18 1_555 1_555
C19 C18 1_555 1_555
H20 C19 1_555 1_555
C20 C19 1_555 1_555
C21 C20 1_555 1_555
H21 C21 1_555 1_555
H22 C21 1_555 1_555
H23 C21 1_555 1_555
C22 C20 1_555 1_555
H24 C22 1_555 1_555
C23 C17 1_555 1_555
H25 C23 1_555 1_555
C24 C7 1_555 1_555
C25 C24 1_555 1_555
H26 C25 1_555 1_555
C26 C9 1_555 1_555
H27 C26 1_555 1_555
C27 C6 1_555 1_555
C28 C27 1_555 1_555
H28 C28 1_555 1_555
H29 C28 1_555 1_555
H30 C28 1_555 1_555
C29 C4 1_555 1_555
H31 C29 1_555 1_555
C30 C1 1_555 1_555
H32 C30 1_555 1_555
S2 O7 1_555 1_555
O8 S2 1_555 1_555
O9 C42 1_555 1_555
O10 C42 1_555 1_555
O11 C45 1_555 1_555
O12 C45 1_555 1_555
N3 S2 1_555 1_555
N4 H33 1_555 1_555
C31 H34 1_555 1_555
C32 C31 1_555 1_555
H35 C32 1_555 1_555
C33 C32 1_555 1_555
C34 C33 1_555 1_555
C35 N4 1_555 1_555
C36 N3 1_555 1_555
H36 C36 1_555 1_555
C37 S2 1_555 1_555
C38 C37 1_555 1_555
H37 C38 1_555 1_555
C39 C38 1_555 1_555
H38 C39 1_555 1_555
C40 C39 1_555 1_555
H39 C40 1_555 1_555
C41 N3 1_555 1_555
H40 C41 1_555 1_555
C42 C41 1_555 1_555
C43 O9 1_555 1_555
H41 C43 1_555 1_555
H42 C43 1_555 1_555
C44 C43 1_555 1_555
H43 C44 1_555 1_555
H44 C44 1_555 1_555
H45 C44 1_555 1_555
C45 C41 1_555 1_555
C46 O11 1_555 1_555
H46 C46 1_555 1_555
H47 C46 1_555 1_555
C47 C46 1_555 1_555
H48 C47 1_555 1_555
H49 C47 1_555 1_555
H50 C47 1_555 1_555
C48 C36 1_555 1_555
C49 C48 1_555 1_555
H51 C49 1_555 1_555
C50 C49 1_555 1_555
H52 C50 1_555 1_555
C51 C50 1_555 1_555
C52 C51 1_555 1_555
H53 C52 1_555 1_555
C53 C48 1_555 1_555
H54 C53 1_555 1_555
C54 C51 1_555 1_555
H55 C54 1_555 1_555
H56 C54 1_555 1_555
H57 C54 1_555 1_555
C55 N4 1_555 1_555
C56 C31 1_555 1_555
H58 C56 1_555 1_555
C57 C55 1_555 1_555
H59 C57 1_555 1_555
C58 C34 1_555 1_555
H60 C58 1_555 1_555
H61 C58 1_555 1_555
H62 C58 1_555 1_555
C59 C37 1_555 1_555
H63 C59 1_555 1_555
C60 C40 1_555 1_555
H64 C60 1_555 1_555
C3 C4 1_555 1_555
C5 C6 1_555 1_555
C22 C23 1_555 1_555
C24 C27 1_555 1_555
C25 C26 1_555 1_555
C29 C30 1_555 1_555
C33 C55 1_555 1_555
C34 C35 1_555 1_555
C35 C36 1_555 1_555
C52 C53 1_555 1_555
C56 C57 1_555 1_555
C59 C60 1_555 1_555

#END
