
#######################################################################
#
#                 Cambridge Crystallographic Data Centre
#                                CCDC 
#
#######################################################################
#
# If this CIF has been generated from an entry in the Cambridge 
# Structural Database, then it will include bibliographic, chemical, 
# crystal, experimental, refinement or atomic coordinate data resulting 
# from the CCDC's data processing and validation procedures.
#
#######################################################################

data_WIRYAA
_chemical_formula_moiety         'C43 H29 N1 O5,1.81(C1 H1 Cl3)'
_chemical_name_systematic        
'11-(2,6-dimethoxyphenyl)-9,13-diphenyl-12a,13-dihydro-9H-9,13-methanopyreno[4,5-f]isoindole-10,12,14(9aH,11H)-trione chloroform solvate'
_symmetry_cell_setting           monoclinic
_symmetry_space_group_name_H-M   'P 21/c'
_symmetry_Int_Tables_number      14
_space_group_name_Hall           '-P 2ybc'
loop_
_symmetry_equiv_pos_site_id
_symmetry_equiv_pos_as_xyz
1 x,y,z
2 -x,1/2+y,1/2-z
3 -x,-y,-z
4 x,1/2-y,1/2+z
_cell_length_a                   15.8387(8)
_cell_length_b                   24.1540(12)
_cell_length_c                   10.6840(5)
_cell_angle_alpha                90
_cell_angle_beta                 102.962(2)
_cell_angle_gamma                90
_cell_volume                     3983.21
_exptl_crystal_colour            colorless
_exptl_crystal_description       irregular
_cell_formula_units_Z            4
loop_
_atom_site_label
_atom_site_type_symbol
_atom_site_fract_x
_atom_site_fract_y
_atom_site_fract_z
O1 O 0.42976(7) 0.43729(5) 0.58841(11)
O2 O 0.15538(7) 0.56937(5) 0.32791(10)
O3 O 0.38179(7) 0.66414(4) 0.57488(10)
O4 O 0.12071(7) 0.63403(5) 0.56489(11)
O5 O 0.29243(7) 0.70819(4) 0.30603(10)
N1 N 0.25680(8) 0.62627(5) 0.45115(12)
C1 C 0.38364(9) 0.47680(6) 0.58002(14)
C2 C 0.28651(9) 0.48452(6) 0.51107(14)
C3 C 0.30098(9) 0.53469(6) 0.42391(13)
H1 H 0.3153 0.5209 0.3429
C4 C 0.22734(9) 0.57624(6) 0.39336(13)
C5 C 0.34381(9) 0.62537(6) 0.51752(13)
C6 C 0.37839(9) 0.56774(6) 0.50448(13)
H2 H 0.4280 0.5687 0.4609
C7 C 0.40326(9) 0.53603(6) 0.63506(14)
C8 C 0.32571(9) 0.53963(6) 0.69808(13)
C9 C 0.25870(9) 0.50846(6) 0.62875(13)
C10 C 0.17868(9) 0.50153(6) 0.66942(14)
C11 C 0.10765(10) 0.47102(6) 0.60203(14)
H3 H 0.1101 0.4546 0.5221
C12 C 0.03369(10) 0.46443(6) 0.65013(15)
H4 H -0.0135 0.4432 0.6034
C13 C 0.02816(10) 0.48855(6) 0.76572(14)
H5 H -0.0224 0.4832 0.7981
C14 C 0.09627(9) 0.52059(6) 0.83519(14)
C15 C 0.08983(10) 0.54826(7) 0.95191(14)
H6 H 0.0389 0.5437 0.9839
C16 C 0.15430(10) 0.58054(7) 1.01696(15)
H7 H 0.1482 0.5981 1.0940
C17 C 0.23220(10) 0.58874(6) 0.97155(14)
C18 C 0.29853(11) 0.62308(7) 1.03715(15)
H8 H 0.2934 0.6403 1.1151
C19 C 0.37174(11) 0.63229(7) 0.98938(15)
H9 H 0.4155 0.6566 1.0336
C20 C 0.38192(10) 0.60632(6) 0.87749(15)
H10 H 0.4324 0.6133 0.8458
C21 C 0.31850(9) 0.56999(6) 0.81100(14)
C22 C 0.24126(9) 0.56179(6) 0.85651(13)
C23 C 0.17292(9) 0.52743(6) 0.78779(13)
C24 C 0.24169(10) 0.43447(6) 0.44279(15)
C25 C 0.18577(10) 0.43869(7) 0.32202(15)
H11 H 0.1758 0.4738 0.2811
C26 C 0.14453(11) 0.39189(7) 0.26117(17)
H12 H 0.1058 0.3953 0.1796
C27 C 0.15973(12) 0.34039(7) 0.31900(18)
H13 H 0.1319 0.3084 0.2770
C28 C 0.21572(12) 0.33577(7) 0.43841(18)
H14 H 0.2267 0.3005 0.4780
C29 C 0.25597(11) 0.38250(7) 0.50073(16)
H15 H 0.2934 0.3790 0.5833
C30 C 0.49280(9) 0.54335(6) 0.71739(14)
C31 C 0.51945(10) 0.50739(7) 0.82093(15)
H16 H 0.4814 0.4791 0.8366
C32 C 0.60124(11) 0.51257(7) 0.90133(16)
H17 H 0.6187 0.4881 0.9720
C33 C 0.65734(10) 0.55336(8) 0.87851(16)
H18 H 0.7133 0.5568 0.9334
C34 C 0.63171(10) 0.58911(7) 0.77546(16)
H19 H 0.6702 0.6171 0.7598
C35 C 0.54975(10) 0.58422(6) 0.69482(14)
H20 H 0.5326 0.6088 0.6243
C36 C 0.20496(9) 0.67509(6) 0.43699(14)
C37 C 0.13542(10) 0.67918(6) 0.49659(14)
C38 C 0.08749(10) 0.72805(7) 0.48521(15)
H21 H 0.0398 0.7316 0.5251
C39 C 0.11062(11) 0.77148(7) 0.41457(16)
H22 H 0.0787 0.8051 0.4084
C40 C 0.17865(10) 0.76770(6) 0.35260(15)
H23 H 0.1928 0.7979 0.3042
C41 C 0.22572(10) 0.71854(6) 0.36301(14)
C42 C 0.04224(10) 0.63378(7) 0.61039(16)
H24 H -0.0072 0.6405 0.5383
H25 H 0.0448 0.6630 0.6748
H26 H 0.0354 0.5977 0.6491
C43 C 0.31405(11) 0.75072(7) 0.22501(16)
H27 H 0.2632 0.7592 0.1566
H28 H 0.3614 0.7379 0.1869
H29 H 0.3323 0.7841 0.2761
Cl1 Cl 0.33819(4) 0.24119(3) 0.74546(7)
H30 H 0.4845 0.2284 0.7832
Cl2 Cl 0.46949(4) 0.31646(3) 0.70288(9)
Cl3 Cl 0.44255(5) 0.21161(3) 0.56812(8)
C44 C 0.44144(14) 0.24631(9) 0.7119(2)
Cl4 Cl 0.13177(4) 0.31654(3) 0.70447(5)
Cl5 Cl 0.19709(6) 0.32664(3) 0.97587(6)
Cl6 Cl 0.01373(5) 0.33936(3) 0.86533(9)
C45 C 0.11828(13) 0.34997(8) 0.84376(18)
H31 H 0.1268 0.3906 0.8335
Cl7? Cl 0.0751(16) 0.3107(11) 0.718(2)
Cl8? Cl 0.1422(18) 0.3084(12) 0.990(2)
Cl9? Cl 0.2518(15) 0.3177(11) 0.823(2)
C46? C 0.1512(18) 0.3404(17) 0.845(3)
H32? H 0.1467 0.3816 0.8479
Cl10? Cl 0.4688(13) 0.1824(7) 1.110(2)
Cl11? Cl 0.4468(15) 0.2917(8) 1.127(2)
Cl12? Cl 0.4331(12) 0.2407(8) 0.8721(16)
C47? C 0.486(3) 0.2433(11) 1.033(2)
H33? H 0.5498 0.2490 1.0403
loop_
_geom_bond_atom_site_label_1
_geom_bond_atom_site_label_2
_geom_bond_site_symmetry_1
_geom_bond_site_symmetry_2
O1 C1 1_555 1_555
O2 C4 1_555 1_555
O3 C5 1_555 1_555
O4 C37 1_555 1_555
O5 C41 1_555 1_555
N1 C4 1_555 1_555
C1 C2 1_555 1_555
C2 C3 1_555 1_555
C3 H1 1_555 1_555
C4 C3 1_555 1_555
C5 N1 1_555 1_555
C6 C3 1_555 1_555
H2 C6 1_555 1_555
C7 C1 1_555 1_555
C8 C7 1_555 1_555
C9 C2 1_555 1_555
C10 C9 1_555 1_555
C11 C10 1_555 1_555
H3 C11 1_555 1_555
C12 C11 1_555 1_555
H4 C12 1_555 1_555
C13 C12 1_555 1_555
H5 C13 1_555 1_555
C14 C13 1_555 1_555
C15 C14 1_555 1_555
H6 C15 1_555 1_555
C16 C15 1_555 1_555
H7 C16 1_555 1_555
C17 C16 1_555 1_555
C18 C17 1_555 1_555
H8 C18 1_555 1_555
C19 C18 1_555 1_555
H9 C19 1_555 1_555
C20 C19 1_555 1_555
H10 C20 1_555 1_555
C21 C8 1_555 1_555
C22 C17 1_555 1_555
C23 C10 1_555 1_555
C24 C2 1_555 1_555
C25 C24 1_555 1_555
H11 C25 1_555 1_555
C26 C25 1_555 1_555
H12 C26 1_555 1_555
C27 C26 1_555 1_555
H13 C27 1_555 1_555
C28 C27 1_555 1_555
H14 C28 1_555 1_555
C29 C24 1_555 1_555
H15 C29 1_555 1_555
C30 C7 1_555 1_555
C31 C30 1_555 1_555
H16 C31 1_555 1_555
C32 C31 1_555 1_555
H17 C32 1_555 1_555
C33 C32 1_555 1_555
H18 C33 1_555 1_555
C34 C33 1_555 1_555
H19 C34 1_555 1_555
C35 C30 1_555 1_555
H20 C35 1_555 1_555
C36 N1 1_555 1_555
C37 C36 1_555 1_555
C38 C37 1_555 1_555
H21 C38 1_555 1_555
C39 C38 1_555 1_555
H22 C39 1_555 1_555
C40 C39 1_555 1_555
H23 C40 1_555 1_555
C41 C36 1_555 1_555
C42 O4 1_555 1_555
H24 C42 1_555 1_555
H25 C42 1_555 1_555
H26 C42 1_555 1_555
C43 O5 1_555 1_555
H27 C43 1_555 1_555
H28 C43 1_555 1_555
H29 C43 1_555 1_555
Cl1 C44 1_555 1_555
H30 C44 1_555 1_555
Cl2 C44 1_555 1_555
Cl3 C44 1_555 1_555
Cl4 C45 1_555 1_555
Cl5 C45 1_555 1_555
Cl6 C45 1_555 1_555
C45 H31 1_555 1_555
C5 C6 1_555 1_555
C6 C7 1_555 1_555
C8 C9 1_555 1_555
C14 C23 1_555 1_555
C20 C21 1_555 1_555
C21 C22 1_555 1_555
C22 C23 1_555 1_555
C28 C29 1_555 1_555
C34 C35 1_555 1_555
C40 C41 1_555 1_555

#END
