
#######################################################################
#
#                 Cambridge Crystallographic Data Centre
#                                CCDC 
#
#######################################################################
#
# If this CIF has been generated from an entry in the Cambridge 
# Structural Database, then it will include bibliographic, chemical, 
# crystal, experimental, refinement or atomic coordinate data resulting 
# from the CCDC's data processing and validation procedures.
#
#######################################################################

data_WIRZAY
_chemical_formula_moiety         'C15 H14 N2 O2 S1'
_chemical_name_systematic        1-Benzoyl-3-(4-methoxyphenyl)thiourea
_symmetry_cell_setting           triclinic
_symmetry_space_group_name_H-M   'P -1'
_symmetry_Int_Tables_number      2
_space_group_name_Hall           '-P 1'
loop_
_symmetry_equiv_pos_site_id
_symmetry_equiv_pos_as_xyz
1 x,y,z
2 -x,-y,-z
_cell_length_a                   9.835(1)
_cell_length_b                   13.484(1)
_cell_length_c                   5.440(1)
_cell_angle_alpha                93.51(1)
_cell_angle_beta                 93.68(1)
_cell_angle_gamma                91.462(10)
_cell_volume                     718.274
_exptl_crystal_colour            colorless
_cell_formula_units_Z            2
loop_
_atom_site_label
_atom_site_type_symbol
_atom_site_fract_x
_atom_site_fract_y
_atom_site_fract_z
S1 S 0.3664(2) 0.0982(2) 0.3330(2)
O1 O 0.7228(2) 0.2996(2) 0.6307(4)
O2 O 0.1447(3) 0.4653(2) -0.2896(4)
N1 N 0.5032(3) 0.2709(2) 0.3339(5)
N2 N 0.5946(2) 0.1559(2) 0.5878(4)
C1 C 0.7021(3) 0.2145(2) 0.6926(5)
C2 C 0.7925(3) 0.1710(2) 0.8818(5)
C3 C 0.9271(4) 0.2050(3) 0.9101(7)
C4 C 1.0145(4) 0.1690(3) 1.0887(7)
C5 C 0.9695(4) 0.0989(3) 1.2396(7)
C6 C 0.8367(4) 0.0651(3) 1.2119(6)
C7 C 0.7475(4) 0.1003(2) 1.0339(5)
C8 C 0.4921(3) 0.1803(2) 0.4153(5)
C9 C 0.4094(3) 0.3186(2) 0.1725(5)
C10 C 0.3759(4) 0.4149(2) 0.2388(7)
C11 C 0.2886(4) 0.4668(3) 0.0880(7)
C12 C 0.2340(3) 0.4220(2) -0.1300(5)
C13 C 0.2688(4) 0.3258(2) -0.1984(6)
C14 C 0.3559(4) 0.2747(3) -0.0477(6)
C15 C 0.1114(6) 0.5667(3) -0.2290(1)
H1 H 0.195(5) 0.612(3) -0.218(8)
H2 H 0.052(5) 0.583(3) -0.343(9)
H3 H 0.073(4) 0.571(3) -0.057(8)
H4 H 0.221(3) 0.296(2) -0.364(6)
H5 H 0.654(4) 0.080(2) 1.015(5)
H6 H 0.809(3) 0.019(2) 1.306(6)
H7 H 1.034(4) 0.079(3) 1.377(7)
H8 H 1.104(4) 0.187(3) 1.098(7)
H9 H 0.955(3) 0.254(2) 0.806(5)
H10 H 0.382(4) 0.213(3) -0.094(6)
H11 H 0.408(3) 0.442(2) 0.403(6)
H12 H 0.265(4) 0.528(3) 0.137(6)
H13 H 0.589(3) 0.098(2) 0.627(5)
H14 H 0.569(3) 0.304(2) 0.393(6)
loop_
_geom_bond_atom_site_label_1
_geom_bond_atom_site_label_2
_geom_bond_site_symmetry_1
_geom_bond_site_symmetry_2
S1 C8 1_555 1_555
O1 C1 1_555 1_555
O2 C12 1_555 1_555
N1 C8 1_555 1_555
N2 C1 1_555 1_555
C1 C2 1_555 1_555
C2 C3 1_555 1_555
C3 C4 1_555 1_555
C4 C5 1_555 1_555
C5 C6 1_555 1_555
C6 C7 1_555 1_555
C7 C2 1_555 1_555
C8 N2 1_555 1_555
C9 N1 1_555 1_555
C10 C9 1_555 1_555
C11 C10 1_555 1_555
C12 C11 1_555 1_555
C13 C12 1_555 1_555
C14 C9 1_555 1_555
C15 O2 1_555 1_555
H1 C15 1_555 1_555
H2 C15 1_555 1_555
H3 C15 1_555 1_555
H4 C13 1_555 1_555
H5 C7 1_555 1_555
H6 C6 1_555 1_555
H7 C5 1_555 1_555
H8 C4 1_555 1_555
H9 C3 1_555 1_555
H10 C14 1_555 1_555
H11 C10 1_555 1_555
H12 C11 1_555 1_555
H13 N2 1_555 1_555
H14 N1 1_555 1_555
C13 C14 1_555 1_555

#END
