
#######################################################################
#
#                 Cambridge Crystallographic Data Centre
#                                CCDC 
#
#######################################################################
#
# If this CIF has been generated from an entry in the Cambridge 
# Structural Database, then it will include bibliographic, chemical, 
# crystal, experimental, refinement or atomic coordinate data resulting 
# from the CCDC's data processing and validation procedures.
#
#######################################################################

data_WISCUW
_chemical_formula_moiety         'C14 H22 N2 O3'
_chemical_name_systematic        
2,3-Benzo-7,10,13-trioxa-1,4-diaza-pentadec-2-ene
_symmetry_cell_setting           monoclinic
_symmetry_space_group_name_H-M   'P 21/n'
_symmetry_Int_Tables_number      14
_space_group_name_Hall           '-P 2yn'
loop_
_symmetry_equiv_pos_site_id
_symmetry_equiv_pos_as_xyz
1 x,y,z
2 1/2-x,1/2+y,1/2-z
3 -x,-y,-z
4 1/2+x,1/2-y,1/2+z
_cell_length_a                   8.569(3)
_cell_length_b                   17.316(6)
_cell_length_c                   9.968(4)
_cell_angle_alpha                90
_cell_angle_beta                 109.02(2)
_cell_angle_gamma                90
_cell_volume                     1398.31
_exptl_crystal_colour            colorless
_chemical_melting_point          381K
_cell_formula_units_Z            4
loop_
_atom_site_label
_atom_site_type_symbol
_atom_site_fract_x
_atom_site_fract_y
_atom_site_fract_z
N1 N 0.2993(2) 0.31373(10) 0.5145(2)
H1 H 0.2954(30) 0.3583(14) 0.4744(25)
C1 C 0.1866(3) 0.26024(12) 0.4171(2)
H2 H 0.0725(3) 0.27216(12) 0.4105(2)
H3 H 0.2110(3) 0.20719(12) 0.4519(2)
C2 C 0.2074(3) 0.26801(12) 0.2730(2)
H4 H 0.3167(3) 0.24882(12) 0.2777(2)
H5 H 0.1243(3) 0.23632(12) 0.2042(2)
O1 O 0.1906(2) 0.34625(8) 0.22644(14)
C3 C 0.0247(3) 0.37202(14) 0.1725(2)
H6 H -0.0383(3) 0.35187(14) 0.2311(2)
H7 H -0.0266(3) 0.35317(14) 0.0753(2)
C4 C 0.0232(3) 0.45810(14) 0.1741(2)
H8 H 0.0936(3) 0.47823(14) 0.1219(2)
H9 H -0.0894(3) 0.47709(14) 0.1282(2)
O2 O 0.0825(2) 0.48365(8) 0.31695(14)
C5 C 0.0920(3) 0.56527(12) 0.3275(3)
H10 H -0.0179(3) 0.58777(12) 0.2845(3)
H11 H 0.1642(3) 0.58500(12) 0.2767(3)
C6 C 0.1591(3) 0.58745(14) 0.4803(3)
H12 H 0.1508(3) 0.64349(14) 0.4900(3)
H13 H 0.0947(3) 0.56244(14) 0.5333(3)
O3 O 0.3267(2) 0.56419(10) 0.5361(2)
C7 C 0.3888(3) 0.56084(13) 0.6865(2)
H14 H 0.3029(3) 0.54241(13) 0.7238(2)
H15 H 0.4240(3) 0.61228(13) 0.7257(2)
C8 C 0.5334(3) 0.50603(12) 0.7275(2)
H16 H 0.6153(3) 0.52409(12) 0.6853(2)
H17 H 0.5850(3) 0.50711(12) 0.8309(2)
N2 N 0.4893(2) 0.42747(10) 0.6833(2)
H18 H 0.5051(32) 0.4161(14) 0.6039(27)
C9 C 0.3892(2) 0.38239(10) 0.7370(2)
C10 C 0.3850(3) 0.39198(12) 0.8740(2)
H19 H 0.4454(3) 0.43249(12) 0.9301(2)
C11 C 0.2935(3) 0.34297(13) 0.9302(2)
H20 H 0.2921(3) 0.35057(13) 1.0232(2)
C12 C 0.2052(3) 0.28340(12) 0.8493(2)
H21 H 0.1458(3) 0.24923(12) 0.8879(2)
C13 C 0.2037(3) 0.27377(11) 0.7106(2)
H22 H 0.1410(3) 0.23367(11) 0.6551(2)
C14 C 0.2939(2) 0.32265(11) 0.6525(2)
loop_
_geom_bond_atom_site_label_1
_geom_bond_atom_site_label_2
_geom_bond_site_symmetry_1
_geom_bond_site_symmetry_2
N1 H1 1_555 1_555
C1 N1 1_555 1_555
H2 C1 1_555 1_555
H3 C1 1_555 1_555
C2 C1 1_555 1_555
H4 C2 1_555 1_555
H5 C2 1_555 1_555
O1 C2 1_555 1_555
C3 O1 1_555 1_555
H6 C3 1_555 1_555
H7 C3 1_555 1_555
C4 C3 1_555 1_555
H8 C4 1_555 1_555
H9 C4 1_555 1_555
O2 C4 1_555 1_555
C5 O2 1_555 1_555
H10 C5 1_555 1_555
H11 C5 1_555 1_555
C6 C5 1_555 1_555
H12 C6 1_555 1_555
H13 C6 1_555 1_555
O3 C6 1_555 1_555
C7 O3 1_555 1_555
H14 C7 1_555 1_555
H15 C7 1_555 1_555
C8 C7 1_555 1_555
H16 C8 1_555 1_555
H17 C8 1_555 1_555
N2 C8 1_555 1_555
H18 N2 1_555 1_555
C9 N2 1_555 1_555
C10 C9 1_555 1_555
H19 C10 1_555 1_555
C11 C10 1_555 1_555
H20 C11 1_555 1_555
C12 C11 1_555 1_555
H21 C12 1_555 1_555
C13 C12 1_555 1_555
H22 C13 1_555 1_555
C14 N1 1_555 1_555
C9 C14 1_555 1_555
C13 C14 1_555 1_555

#END
