
#######################################################################
#
#                 Cambridge Crystallographic Data Centre
#                                CCDC 
#
#######################################################################
#
# If this CIF has been generated from an entry in the Cambridge 
# Structural Database, then it will include bibliographic, chemical, 
# crystal, experimental, refinement or atomic coordinate data resulting 
# from the CCDC's data processing and validation procedures.
#
#######################################################################

data_WISDEK
_chemical_formula_moiety         'C24 H22 Cl1 N3 O2'
_chemical_name_systematic        
3-((4-chloro-1-(pyrimidin-2-yl)-1H-indol-2-yl)methylidene)-2,2,7a-trimethyl-2,3,3a,7a-tetrahydro-1-benzofuran-5(4H)-one
_symmetry_cell_setting           triclinic
_symmetry_space_group_name_H-M   'P -1'
_symmetry_Int_Tables_number      2
_space_group_name_Hall           '-P 1'
loop_
_symmetry_equiv_pos_site_id
_symmetry_equiv_pos_as_xyz
1 x,y,z
2 -x,-y,-z
_cell_length_a                   9.5004(3)
_cell_length_b                   11.2780(4)
_cell_length_c                   11.5979(3)
_cell_angle_alpha                104.256(2)
_cell_angle_beta                 109.363(2)
_cell_angle_gamma                106.026(3)
_cell_volume                     1045.71
_exptl_crystal_colour            colorless
_exptl_crystal_description       block
_cell_formula_units_Z            2
loop_
_atom_site_label
_atom_site_type_symbol
_atom_site_fract_x
_atom_site_fract_y
_atom_site_fract_z
Cl1 Cl 0.78756(9) 0.97254(7) 0.47110(7)
O1 O 0.8560(2) 0.74670(18) 1.08357(14)
N1 N 0.3999(2) 0.63226(16) 0.53767(15)
N2 N 0.1413(2) 0.4699(2) 0.4085(2)
C1 C 0.7153(2) 0.69954(19) 0.85761(18)
C2 C 0.5631(2) 0.67560(19) 0.62799(17)
C3 C 0.7568(2) 0.84330(19) 0.93336(18)
H1 H 0.860170 0.897309 0.937676
C4 C 0.6217(2) 0.6242(2) 0.73065(19)
H2 H 0.591568 0.532695 0.705644
N3 N 0.2884(3) 0.4911(2) 0.6286(2)
O2 O 0.3520(3) 0.8415(3) 0.8203(3)
C5 C 0.6573(3) 0.7676(2) 0.59988(19)
H3 H 0.769660 0.809520 0.643323
C6 C 0.3951(3) 0.7058(2) 0.45581(18)
C7 C 0.5559(3) 0.7893(2) 0.49313(18)
C8 C 0.8019(3) 0.6460(2) 0.9549(2)
C9 C 0.7842(3) 0.8420(2) 1.07126(19)
C10 C 0.2694(3) 0.5253(2) 0.5248(2)
C11 C 0.6342(3) 0.9037(2) 0.8859(2)
H4 H 0.682162 0.998178 0.938183
H5 H 0.610599 0.893335 0.795154
C12 C 0.5869(3) 0.8750(2) 0.4277(2)
C13 C 0.2659(3) 0.7112(3) 0.3582(2)
H6 H 0.159109 0.656721 0.333567
C14 C 0.6253(3) 0.7947(2) 1.0808(2)
H7 H 0.624155 0.765276 1.148818
C15 C 0.9546(3) 0.6408(3) 0.9420(3)
H8 H 1.018733 0.725723 0.946611
H9 H 0.925043 0.573952 0.858915
H10 H 1.016212 0.619552 1.012191
C16 C 0.4787(3) 0.8424(2) 0.8946(3)
C17 C 0.4626(4) 0.8818(3) 0.3322(2)
H11 H 0.483772 0.939542 0.289263
C18 C 0.9012(3) 0.9736(3) 1.1833(2)
H12 H 0.913495 0.964579 1.265852
H13 H 0.859363 1.040867 1.174564
H14 H 1.004603 0.998439 1.180160
C19 C 0.4889(3) 0.7920(3) 1.0005(3)
H15 H 0.395328 0.756922 1.011171
C20 C 0.3038(4) 0.8018(3) 0.2992(2)
H16 H 0.219671 0.808909 0.235495
C21 C 0.6964(4) 0.5145(3) 0.9476(3)
H17 H 0.754288 0.493628 1.019749
H18 H 0.668559 0.446292 0.865952
H19 H 0.599353 0.519958 0.952458
C22 C 0.0278(4) 0.3164(3) 0.4919(4)
H20 H -0.056151 0.241347 0.479546
C23 C 0.0212(3) 0.3651(3) 0.3951(3)
H21 H -0.071641 0.323424 0.315795
C24 C 0.1646(4) 0.3835(3) 0.6089(4)
H22 H 0.171893 0.353149 0.677438
loop_
_geom_bond_atom_site_label_1
_geom_bond_atom_site_label_2
_geom_bond_site_symmetry_1
_geom_bond_site_symmetry_2
Cl1 C12 1_555 1_555
O1 C8 1_555 1_555
N1 C2 1_555 1_555
N2 C10 1_555 1_555
C1 C3 1_555 1_555
C2 C4 1_555 1_555
C3 H1 1_555 1_555
C4 C1 1_555 1_555
H2 C4 1_555 1_555
N3 C10 1_555 1_555
O2 C16 1_555 1_555
C5 C2 1_555 1_555
H3 C5 1_555 1_555
C6 N1 1_555 1_555
C7 C5 1_555 1_555
C8 C1 1_555 1_555
C9 O1 1_555 1_555
C10 N1 1_555 1_555
C11 C3 1_555 1_555
H4 C11 1_555 1_555
H5 C11 1_555 1_555
C12 C7 1_555 1_555
C13 C6 1_555 1_555
H6 C13 1_555 1_555
C14 C9 1_555 1_555
H7 C14 1_555 1_555
C15 C8 1_555 1_555
H8 C15 1_555 1_555
H9 C15 1_555 1_555
H10 C15 1_555 1_555
C16 C11 1_555 1_555
C17 C12 1_555 1_555
H11 C17 1_555 1_555
C18 C9 1_555 1_555
H12 C18 1_555 1_555
H13 C18 1_555 1_555
H14 C18 1_555 1_555
C19 C14 1_555 1_555
H15 C19 1_555 1_555
C20 C13 1_555 1_555
H16 C20 1_555 1_555
C21 C8 1_555 1_555
H17 C21 1_555 1_555
H18 C21 1_555 1_555
H19 C21 1_555 1_555
C22 H20 1_555 1_555
C23 N2 1_555 1_555
H21 C23 1_555 1_555
C24 N3 1_555 1_555
H22 C24 1_555 1_555
C3 C9 1_555 1_555
C6 C7 1_555 1_555
C16 C19 1_555 1_555
C17 C20 1_555 1_555
C22 C23 1_555 1_555
C22 C24 1_555 1_555

#END
