
#######################################################################
#
#                 Cambridge Crystallographic Data Centre
#                                CCDC 
#
#######################################################################
#
# If this CIF has been generated from an entry in the Cambridge 
# Structural Database, then it will include bibliographic, chemical, 
# crystal, experimental, refinement or atomic coordinate data resulting 
# from the CCDC's data processing and validation procedures.
#
#######################################################################

data_WISGIR
_chemical_formula_moiety         'C27 H26 Cl2 N4 O7,H2 O1'
_chemical_name_systematic        
"t-butyl (3R,6'R,2''S)-5,5'''-dichloro-1,1'''-dimethyl-2,2',2'''-trioxo-1,1''',2,2'''-tetrahydrotrispiro[indole-3,4'-[1,3]oxazinane-6',4''-[1,3]oxazolidine-2'',3'''-indole]-3''-carboxylate monohydrate"
_symmetry_cell_setting           orthorhombic
_symmetry_space_group_name_H-M   'P 21 21 21'
_symmetry_Int_Tables_number      19
_space_group_name_Hall           'P 2ac 2ab'
loop_
_symmetry_equiv_pos_site_id
_symmetry_equiv_pos_as_xyz
1 x,y,z
2 1/2-x,-y,1/2+z
3 -x,1/2+y,1/2-z
4 1/2+x,1/2-y,-z
_cell_length_a                   12.4437(12)
_cell_length_b                   15.4069(15)
_cell_length_c                   15.5019(16)
_cell_angle_alpha                90
_cell_angle_beta                 90
_cell_angle_gamma                90
_cell_volume                     2972.01
_exptl_crystal_colour            colorless
_exptl_crystal_description       prismatic
_cell_formula_units_Z            4
loop_
_atom_site_label
_atom_site_type_symbol
_atom_site_fract_x
_atom_site_fract_y
_atom_site_fract_z
Cl1 Cl 0.62939(14) -0.17691(11) 0.15684(11)
Cl2 Cl 0.6110(2) 0.59492(13) 0.10358(18)
N1 N 1.0561(3) -0.0203(2) 0.2106(2)
N2 N 0.8777(2) 0.14009(19) 0.13657(18)
N3 N 0.9126(3) 0.4062(2) -0.1151(2)
N4 N 0.7106(3) 0.26882(19) -0.0507(2)
O1 O 1.1124(2) 0.1153(2) 0.17017(19)
O2 O 0.9503(2) 0.05325(16) 0.03389(16)
O3 O 0.9240(3) 0.2600(2) -0.1392(2)
O4 O 0.5935(2) 0.15830(19) -0.0399(2)
O5 O 0.7426(2) 0.14815(15) 0.03469(18)
O6 O 0.7714(3) 0.2196(2) 0.2257(2)
O7 O 0.8796(2) 0.11416(17) 0.27589(16)
C1 C 0.8850(3) -0.0239(2) 0.1553(2)
C2 C 0.7839(4) -0.0562(3) 0.1391(3)
H1 H 0.7345 -0.0256 0.1058
C3 C 0.7591(4) -0.1360(3) 0.1744(3)
C4 C 0.8316(5) -0.1815(3) 0.2216(3)
H2 H 0.8125 -0.2354 0.2436
C5 C 0.9343(5) -0.1491(3) 0.2379(3)
H3 H 0.9840 -0.1803 0.2703
C6 C 0.9591(4) -0.0690(3) 0.2039(3)
C7 C 1.0462(3) 0.0580(3) 0.1712(2)
C8 C 0.9364(3) 0.0587(2) 0.1236(2)
C9 C 0.9327(3) 0.1359(2) -0.0032(2)
H4 H 0.9056 0.1303 -0.0616
H5 H 0.9988 0.1692 -0.0045
C10 C 0.8497(3) 0.1792(2) 0.0548(2)
C11 C 0.8515(3) 0.2777(2) 0.0570(2)
H6 H 0.9250 0.2973 0.0642
H7 H 0.8104 0.2978 0.1063
C12 C 0.8043(3) 0.3179(2) -0.0262(2)
C13 C 0.8886(3) 0.3218(3) -0.1003(3)
C14 C 0.8488(4) 0.4605(3) -0.0655(3)
C15 C 0.7813(3) 0.4130(2) -0.0129(3)
C16 C 0.7083(4) 0.4521(3) 0.0404(3)
H8 H 0.6632 0.4200 0.0760
C17 C 0.7049(5) 0.5435(3) 0.0385(4)
C18 C 0.7727(6) 0.5905(3) -0.0122(5)
H9 H 0.7694 0.6508 -0.0107
C19 C 0.8450(5) 0.5512(3) -0.0648(4)
H10 H 0.8908 0.5837 -0.0995
C20 C 0.9954(5) 0.4343(5) -0.1743(4)
H11 H 1.0186 0.3859 -0.2086
H12 H 1.0553 0.4568 -0.1424
H13 H 0.9673 0.4788 -0.2114
C21 C 1.1494(5) -0.0465(4) 0.2605(4)
H14 H 1.2030 -0.0017 0.2579
H15 H 1.1783 -0.0993 0.2371
H16 H 1.1287 -0.0558 0.3194
C22 C 0.6784(3) 0.1910(2) -0.0205(2)
C23 C 0.8355(3) 0.1631(3) 0.2149(2)
C24 C 0.8446(5) 0.1184(3) 0.3677(3)
C25 C 0.9317(18) 0.0631(19) 0.4059(19)
H17 H 1.0002 0.0902 0.3963
H18 H 0.9309 0.0070 0.3790
H19 H 0.9198 0.0568 0.4667
C26 C 0.7366(16) 0.0676(18) 0.3595(14)
H20 H 0.7136 0.0491 0.4157
H21 H 0.7470 0.0178 0.3232
H22 H 0.6830 0.1047 0.3346
C27 C 0.831(2) 0.2068(15) 0.403(2)
H23 H 0.8988 0.2363 0.4026
H24 H 0.8048 0.2031 0.4612
H25 H 0.7803 0.2383 0.3684
H26 H 0.666(3) 0.292(3) -0.090(3)
O8 O 0.5986(3) 0.3422(3) 0.2178(4)
H36 H 0.5962 0.3002 0.2581
H37 H 0.5641 0.3098 0.1837
C28? C 0.9014(19) 0.0459(19) 0.415(2)
H27? H 0.8724 -0.0090 0.3973
H28? H 0.8911 0.0529 0.4762
H29? H 0.9768 0.0477 0.4022
C29? C 0.7260(16) 0.108(2) 0.3837(14)
H30? H 0.6877 0.1536 0.3540
H31? H 0.7120 0.1127 0.4445
H32? H 0.7025 0.0529 0.3630
C30? C 0.8938(19) 0.2054(14) 0.3985(17)
H33? H 0.9705 0.2035 0.3920
H34? H 0.8762 0.2145 0.4582
H35? H 0.8652 0.2521 0.3646
loop_
_geom_bond_atom_site_label_1
_geom_bond_atom_site_label_2
_geom_bond_site_symmetry_1
_geom_bond_site_symmetry_2
Cl1 C3 1_555 1_555
Cl2 C17 1_555 1_555
N1 C6 1_555 1_555
N2 C8 1_555 1_555
N3 C13 1_555 1_555
N4 C12 1_555 1_555
O1 C7 1_555 1_555
O2 C8 1_555 1_555
O3 C13 1_555 1_555
O4 C22 1_555 1_555
O5 C10 1_555 1_555
O6 C23 1_555 1_555
O7 C23 1_555 1_555
C1 C2 1_555 1_555
C2 H1 1_555 1_555
C3 C2 1_555 1_555
C4 C3 1_555 1_555
H2 C4 1_555 1_555
C5 C4 1_555 1_555
H3 C5 1_555 1_555
C6 C1 1_555 1_555
C7 N1 1_555 1_555
C8 C1 1_555 1_555
C9 O2 1_555 1_555
H4 C9 1_555 1_555
H5 C9 1_555 1_555
C10 N2 1_555 1_555
C11 C10 1_555 1_555
H6 C11 1_555 1_555
H7 C11 1_555 1_555
C12 C11 1_555 1_555
C13 C12 1_555 1_555
C14 N3 1_555 1_555
C15 C12 1_555 1_555
C16 C15 1_555 1_555
H8 C16 1_555 1_555
C17 C16 1_555 1_555
C18 C17 1_555 1_555
H9 C18 1_555 1_555
C19 C14 1_555 1_555
H10 C19 1_555 1_555
C20 N3 1_555 1_555
H11 C20 1_555 1_555
H12 C20 1_555 1_555
H13 C20 1_555 1_555
C21 N1 1_555 1_555
H14 C21 1_555 1_555
H15 C21 1_555 1_555
H16 C21 1_555 1_555
C22 N4 1_555 1_555
C23 N2 1_555 1_555
C24 O7 1_555 1_555
C25 C24 1_555 1_555
H17 C25 1_555 1_555
H18 C25 1_555 1_555
H19 C25 1_555 1_555
C26 C24 1_555 1_555
H20 C26 1_555 1_555
H21 C26 1_555 1_555
H22 C26 1_555 1_555
C27 C24 1_555 1_555
H23 C27 1_555 1_555
H24 C27 1_555 1_555
H25 C27 1_555 1_555
H26 N4 1_555 1_555
O8 H36 1_555 1_555
H37 O8 1_555 1_555
O5 C22 1_555 1_555
C5 C6 1_555 1_555
C7 C8 1_555 1_555
C9 C10 1_555 1_555
C14 C15 1_555 1_555
C18 C19 1_555 1_555

#END
