
#######################################################################
#
#                 Cambridge Crystallographic Data Centre
#                                CCDC 
#
#######################################################################
#
# If this CIF has been generated from an entry in the Cambridge 
# Structural Database, then it will include bibliographic, chemical, 
# crystal, experimental, refinement or atomic coordinate data resulting 
# from the CCDC's data processing and validation procedures.
#
#######################################################################

data_WISMET
_chemical_formula_moiety         'C7 H8 N1 O2 1+,C7 H7 O3 S1 1-'
_chemical_name_systematic        
'4-carboxyanilinium 4-methylbenzene-1-sulfonate'
_symmetry_cell_setting           monoclinic
_symmetry_space_group_name_H-M   'P 21/c'
_symmetry_Int_Tables_number      14
_space_group_name_Hall           '-P 2ybc'
loop_
_symmetry_equiv_pos_site_id
_symmetry_equiv_pos_as_xyz
1 x,y,z
2 -x,1/2+y,1/2-z
3 -x,-y,-z
4 x,1/2-y,1/2+z
_cell_length_a                   32.236(3)
_cell_length_b                   6.0514(6)
_cell_length_c                   15.0494(13)
_cell_angle_alpha                90
_cell_angle_beta                 97.5480(10)
_cell_angle_gamma                90
_cell_volume                     2910.29
_exptl_crystal_colour            colorless
_exptl_crystal_description       block
_cell_formula_units_Z            8
loop_
_atom_site_label
_atom_site_type_symbol
_atom_site_fract_x
_atom_site_fract_y
_atom_site_fract_z
N1 N 0.26447(19) 0.3157(11) 0.9393(5)
H1 H 0.2589 0.1717 0.9390
H2 H 0.2548 0.3733 0.8862
H3 H 0.2522 0.3818 0.9818
O1 O 0.4545(2) 0.6419(17) 1.0186(7)
H4 H 0.4799 0.6471 1.0182
O2 O 0.4639(2) 0.2997(17) 0.9697(7)
C1 C 0.4409(4) 0.454(3) 0.9901(9)
C2 C 0.3943(3) 0.417(2) 0.9807(7)
C3 C 0.3679(3) 0.5804(18) 1.0056(7)
H5 H 0.3787 0.7124 1.0304
C4 C 0.3248(3) 0.5432(17) 0.9930(7)
H6 H 0.3067 0.6510 1.0092
C5 C 0.3093(3) 0.3487(15) 0.9568(6)
C6 C 0.3351(3) 0.1822(16) 0.9320(7)
H7 H 0.3242 0.0507 0.9070
C7 C 0.3787(3) 0.221(2) 0.9464(7)
H8 H 0.3970 0.1117 0.9324
N2 N 0.21085(19) -0.1649(11) 0.6854(5)
H9 H 0.2157 -0.2703 0.7267
H10 H 0.2303 -0.0601 0.6958
H11 H 0.2118 -0.2226 0.6313
O3 O 0.05147(18) 0.4060(12) 0.7469(5)
H12 H 0.0278 0.4476 0.7530
O4 O 0.01783(18) 0.0899(12) 0.7082(5)
C8 C 0.0502(3) 0.1918(18) 0.7207(6)
C9 C 0.0923(2) 0.1062(15) 0.7083(5)
C10 C 0.1284(2) 0.2309(15) 0.7351(5)
H13 H 0.1263 0.3726 0.7581
C11 C 0.1676(2) 0.1402(14) 0.7272(5)
H14 H 0.1919 0.2184 0.7468
C12 C 0.1698(2) -0.0694(14) 0.6894(5)
C13 C 0.1343(2) -0.1878(13) 0.6606(6)
H15 H 0.1364 -0.3269 0.6353
C14 C 0.0957(2) -0.1023(15) 0.6690(6)
H16 H 0.0718 -0.1825 0.6487
O5 O 0.21062(19) -0.3650(11) 1.0040(4)
O6 O 0.18530(18) -0.4094(10) 0.8470(4)
O7 O 0.22630(18) -0.0886(10) 0.8957(4)
S1 S 0.19635(6) -0.2521(4) 0.91818(14)
C15 C 0.1502(2) -0.1089(14) 0.9344(6)
C16 C 0.1527(3) 0.1008(16) 0.9753(6)
H17 H 0.1786 0.1649 0.9935
C17 C 0.1165(3) 0.2109(15) 0.9883(6)
H18 H 0.1186 0.3482 1.0163
C18 C 0.0769(3) 0.1236(17) 0.9609(6)
C19 C 0.0749(3) -0.0846(17) 0.9198(7)
H19 H 0.0489 -0.1471 0.9004
C20 C 0.1109(2) -0.1989(14) 0.9074(6)
H20 H 0.1088 -0.3377 0.8807
C21 C 0.0372(3) 0.2458(19) 0.9713(8)
H21 H 0.0406 0.3238 1.0274
H22 H 0.0146 0.1424 0.9703
H23 H 0.0312 0.3492 0.9230
O8 O 0.25941(18) 0.4573(11) 0.7603(4)
O9 O 0.28050(18) 0.1229(11) 0.6951(6)
O10 O 0.26295(19) 0.4458(13) 0.6023(4)
S2 S 0.28018(7) 0.3597(4) 0.68894(17)
C22 C 0.3331(3) 0.4474(15) 0.7100(6)
C23 C 0.3427(3) 0.6562(18) 0.7433(8)
H24 H 0.3213 0.7517 0.7540
C24 C 0.3835(4) 0.724(2) 0.7607(9)
H25 H 0.3895 0.8615 0.7866
C25 C 0.4164(3) 0.591(2) 0.7403(8)
C26 C 0.4061(3) 0.388(2) 0.7054(9)
H26 H 0.4272 0.2975 0.6895
C27 C 0.3659(3) 0.3134(17) 0.6929(7)
H27 H 0.3604 0.1699 0.6725
C28 C 0.4617(3) 0.677(2) 0.7578(10)
H28 H 0.4788 0.5708 0.7930
H29 H 0.4622 0.8145 0.7895
H30 H 0.4722 0.6983 0.7016
loop_
_geom_bond_atom_site_label_1
_geom_bond_atom_site_label_2
_geom_bond_site_symmetry_1
_geom_bond_site_symmetry_2
N1 H1 1_555 1_555
H2 N1 1_555 1_555
H3 N1 1_555 1_555
O1 H4 1_555 1_555
O2 C1 1_555 1_555
C1 O1 1_555 1_555
C2 C1 1_555 1_555
C3 C2 1_555 1_555
H5 C3 1_555 1_555
C4 C3 1_555 1_555
H6 C4 1_555 1_555
C5 N1 1_555 1_555
C6 C5 1_555 1_555
H7 C6 1_555 1_555
C7 C2 1_555 1_555
H8 C7 1_555 1_555
N2 H9 1_555 1_555
H10 N2 1_555 1_555
H11 N2 1_555 1_555
O3 H12 1_555 1_555
O4 C8 1_555 1_555
C8 O3 1_555 1_555
C9 C8 1_555 1_555
C10 C9 1_555 1_555
H13 C10 1_555 1_555
C11 C10 1_555 1_555
H14 C11 1_555 1_555
C12 N2 1_555 1_555
C13 C12 1_555 1_555
H15 C13 1_555 1_555
C14 C9 1_555 1_555
H16 C14 1_555 1_555
O5 S1 1_555 1_555
O6 S1 1_555 1_555
O7 S1 1_555 1_555
S1 C15 1_555 1_555
C15 C16 1_555 1_555
C16 H17 1_555 1_555
C17 C16 1_555 1_555
H18 C17 1_555 1_555
C18 C17 1_555 1_555
C19 C18 1_555 1_555
H19 C19 1_555 1_555
C20 C15 1_555 1_555
H20 C20 1_555 1_555
C21 C18 1_555 1_555
H21 C21 1_555 1_555
H22 C21 1_555 1_555
H23 C21 1_555 1_555
O8 S2 1_555 1_555
O9 S2 1_555 1_555
O10 S2 1_555 1_555
S2 C22 1_555 1_555
C22 C23 1_555 1_555
C23 H24 1_555 1_555
C24 C23 1_555 1_555
H25 C24 1_555 1_555
C25 C24 1_555 1_555
C26 C25 1_555 1_555
H26 C26 1_555 1_555
C27 C22 1_555 1_555
H27 C27 1_555 1_555
C28 C25 1_555 1_555
H28 C28 1_555 1_555
H29 C28 1_555 1_555
H30 C28 1_555 1_555
C4 C5 1_555 1_555
C6 C7 1_555 1_555
C11 C12 1_555 1_555
C13 C14 1_555 1_555
C19 C20 1_555 1_555
C26 C27 1_555 1_555

#END
