
#######################################################################
#
#                 Cambridge Crystallographic Data Centre
#                                CCDC 
#
#######################################################################
#
# If this CIF has been generated from an entry in the Cambridge 
# Structural Database, then it will include bibliographic, chemical, 
# crystal, experimental, refinement or atomic coordinate data resulting 
# from the CCDC's data processing and validation procedures.
#
#######################################################################

data_WISMIW
_chemical_formula_moiety         'C26 H41 N1 O8'
_chemical_name_systematic        
'20-Ethyl-7,8-dihydroxy-1,6,14,16-tetramethoxyaconitan-4-yl acetate'
_symmetry_cell_setting           monoclinic
_symmetry_space_group_name_H-M   'P 21'
_symmetry_Int_Tables_number      4
_space_group_name_Hall           'P 2yb'
loop_
_symmetry_equiv_pos_site_id
_symmetry_equiv_pos_as_xyz
1 x,y,z
2 -x,1/2+y,-z
_cell_length_a                   8.1986(16)
_cell_length_b                   15.265(3)
_cell_length_c                   10.314(2)
_cell_angle_alpha                90
_cell_angle_beta                 100.22(3)
_cell_angle_gamma                90
_cell_volume                     1270.33
_exptl_crystal_colour            colorless
_exptl_crystal_description       PRISMATIC
_cell_formula_units_Z            2
loop_
_atom_site_label
_atom_site_type_symbol
_atom_site_fract_x
_atom_site_fract_y
_atom_site_fract_z
N1 N 0.1835(2) 0.55206(12) 0.61030(18)
O1 O 0.2870(2) 0.44271(11) 0.86351(17)
O2 O 0.5612(2) 0.66837(11) 0.54804(17)
O3 O 0.3684(2) 0.81636(11) 0.74693(17)
O4 O 0.0185(2) 0.72070(12) 0.61854(16)
H1 H -0.013(4) 0.772(3) 0.638(3)
O5 O 0.07161(12) 0.82902(6) 0.82957(9)
H2 H 0.1625 0.8487 0.8111
O6 O 0.11649(12) 0.80059(6) 1.11938(9)
O7 O -0.17246(12) 0.63116(6) 1.05630(9)
O8 O 0.56251(12) 0.58065(6) 0.37242(9)
C1 C 0.41918(12) 0.49996(6) 0.84233(9)
H3 H 0.5030 0.4999 0.9229
C2 C 0.3407(4) 0.36751(18) 0.9390(3)
H4 H 0.2465 0.3325 0.9491
H5 H 0.3987 0.3850 1.0242
H6 H 0.4135 0.3339 0.8951
C3 C 0.4985(3) 0.46084(16) 0.7317(3)
H7 H 0.5755 0.4152 0.7682
H8 H 0.4126 0.4339 0.6672
C4 C 0.5898(3) 0.52766(17) 0.6629(3)
H9 H 0.6254 0.5010 0.5872
H10 H 0.6873 0.5481 0.7226
C5 C 0.4743(3) 0.60481(16) 0.6184(2)
C6 C 0.5981(3) 0.64918(19) 0.4291(3)
C7 C 0.4422(3) 0.65553(15) 0.7388(2)
H11 H 0.5457 0.6774 0.7912
C8 C 0.3196(3) 0.73143(15) 0.6927(2)
H12 H 0.3079 0.7358 0.5967
C9 C 0.4838(5) 0.8588(2) 0.6820(3)
H13 H 0.5117 0.9148 0.7221
H14 H 0.4362 0.8668 0.5908
H15 H 0.5820 0.8236 0.6889
C10 C 0.1514(3) 0.69975(14) 0.7242(2)
C11 C 0.1120(3) 0.73735(14) 0.8542(2)
C12 C 0.2628(3) 0.72647(17) 0.9645(2)
H16 H 0.3427 0.7736 0.9597
C13 C 0.3490(3) 0.63579(16) 0.9614(2)
H17 H 0.4657 0.6447 1.0007
C14 C 0.3478(3) 0.59420(15) 0.8223(2)
C15 C 0.2720(3) 0.57907(18) 1.0618(2)
H18 H 0.2272 0.5248 1.0213
H19 H 0.3549 0.5652 1.1385
C16 C 0.1338(3) 0.63577(17) 1.1006(2)
H20 H 0.1138 0.6204 1.1887
C17 C 0.2137(3) 0.7255(2) 1.1006(2)
H21 H 0.3148 0.7261 1.1675
C18 C 0.0880(5) 0.8097(3) 1.2485(3)
H22 H 0.0223 0.8612 1.2545
H23 H 0.1920 0.8152 1.3076
H24 H 0.0300 0.7591 1.2720
C19 C -0.0470(3) 0.69822(18) 0.8917(3)
C20 C -0.0259(3) 0.62683(18) 0.9972(2)
H25 H -0.0241 0.5699 0.9536
C21 C -0.1998(4) 0.5525(2) 1.1223(3)
H26 H -0.2982 0.5582 1.1600
H27 H -0.1066 0.5412 1.1908
H28 H -0.2130 0.5048 1.0606
C22 C 0.1773(3) 0.59937(14) 0.7336(2)
H29 H 0.0936 0.5728 0.7783
C23 C 0.6863(4) 0.7227(2) 0.3773(3)
H30 H 0.7108 0.7071 0.2927
H31 H 0.7877 0.7346 0.4371
H32 H 0.6175 0.7740 0.3688
C24 C 0.3090(3) 0.57884(16) 0.5334(2)
H33 H 0.2667 0.6281 0.4781
H34 H 0.3278 0.5309 0.4761
C25 C 0.0242(3) 0.53297(17) 0.5285(2)
H35 H -0.0020 0.5787 0.4628
H36 H -0.0608 0.5335 0.5830
C26 C 0.0213(4) 0.4452(2) 0.4596(3)
H37 H -0.0862 0.4358 0.4071
H38 H 0.0447 0.3994 0.5241
H39 H 0.1035 0.4446 0.4040
H40 H -0.096(3) 0.7486(19) 0.924(3)
H41 H -0.114(3) 0.6781(17) 0.808(3)
loop_
_geom_bond_atom_site_label_1
_geom_bond_atom_site_label_2
_geom_bond_site_symmetry_1
_geom_bond_site_symmetry_2
N1 C22 1_555 1_555
O1 C1 1_555 1_555
O2 C5 1_555 1_555
O3 C8 1_555 1_555
O4 H1 1_555 1_555
O5 H2 1_555 1_555
O6 C17 1_555 1_555
O7 C20 1_555 1_555
O8 C6 1_555 1_555
C1 H3 1_555 1_555
C2 O1 1_555 1_555
H4 C2 1_555 1_555
H5 C2 1_555 1_555
H6 C2 1_555 1_555
C3 C1 1_555 1_555
H7 C3 1_555 1_555
H8 C3 1_555 1_555
C4 C3 1_555 1_555
H9 C4 1_555 1_555
H10 C4 1_555 1_555
C5 C4 1_555 1_555
C6 O2 1_555 1_555
C7 C5 1_555 1_555
H11 C7 1_555 1_555
C8 C7 1_555 1_555
H12 C8 1_555 1_555
C9 O3 1_555 1_555
H13 C9 1_555 1_555
H14 C9 1_555 1_555
H15 C9 1_555 1_555
C10 O4 1_555 1_555
C11 O5 1_555 1_555
C12 C11 1_555 1_555
H16 C12 1_555 1_555
C13 C12 1_555 1_555
H17 C13 1_555 1_555
C14 C1 1_555 1_555
C15 C13 1_555 1_555
H18 C15 1_555 1_555
H19 C15 1_555 1_555
C16 C15 1_555 1_555
H20 C16 1_555 1_555
C17 C12 1_555 1_555
H21 C17 1_555 1_555
C18 O6 1_555 1_555
H22 C18 1_555 1_555
H23 C18 1_555 1_555
H24 C18 1_555 1_555
C19 C11 1_555 1_555
C20 C16 1_555 1_555
H25 C20 1_555 1_555
C21 O7 1_555 1_555
H26 C21 1_555 1_555
H27 C21 1_555 1_555
H28 C21 1_555 1_555
C22 C10 1_555 1_555
H29 C22 1_555 1_555
C23 C6 1_555 1_555
H30 C23 1_555 1_555
H31 C23 1_555 1_555
H32 C23 1_555 1_555
C24 N1 1_555 1_555
H33 C24 1_555 1_555
H34 C24 1_555 1_555
C25 N1 1_555 1_555
H35 C25 1_555 1_555
H36 C25 1_555 1_555
C26 C25 1_555 1_555
H37 C26 1_555 1_555
H38 C26 1_555 1_555
H39 C26 1_555 1_555
H40 C19 1_555 1_555
H41 C19 1_555 1_555
C5 C24 1_555 1_555
C7 C14 1_555 1_555
C8 C10 1_555 1_555
C10 C11 1_555 1_555
C13 C14 1_555 1_555
C14 C22 1_555 1_555
C16 C17 1_555 1_555
C19 C20 1_555 1_555

#END
