
#######################################################################
#
#                 Cambridge Crystallographic Data Centre
#                                CCDC 
#
#######################################################################
#
# If this CIF has been generated from an entry in the Cambridge 
# Structural Database, then it will include bibliographic, chemical, 
# crystal, experimental, refinement or atomic coordinate data resulting 
# from the CCDC's data processing and validation procedures.
#
#######################################################################

data_WISNAN04
_chemical_formula_moiety         '2(C10 H9 N2 1+),C10 H4 O8 2-'
_chemical_name_systematic        
"bis(4,4'-Bipyridyl) benzene-1,2,4,5-tetracarboxylic acid"
_symmetry_cell_setting           triclinic
_symmetry_space_group_name_H-M   'P -1'
_symmetry_Int_Tables_number      2
_space_group_name_Hall           '-P 1'
loop_
_symmetry_equiv_pos_site_id
_symmetry_equiv_pos_as_xyz
1 x,y,z
2 -x,-y,-z
_cell_length_a                   7.357(2)
_cell_length_b                   9.587(3)
_cell_length_c                   10.147(3)
_cell_angle_alpha                65.256(4)
_cell_angle_beta                 72.687(4)
_cell_angle_gamma                77.052(4)
_cell_volume                     616.426
_exptl_crystal_colour            colorless
_exptl_crystal_description       block
_cell_formula_units_Z            1
loop_
_atom_site_label
_atom_site_type_symbol
_atom_site_fract_x
_atom_site_fract_y
_atom_site_fract_z
C1 C 0.58628(18) 0.58045(14) -0.14876(13)
C2 C 0.67364(18) 0.67962(15) -0.30729(14)
O1 O 0.62539(13) 0.81828(10) -0.35663(10)
O2 O 0.80279(12) 0.60285(10) -0.38178(10)
C3 C 0.39158(18) 0.55949(14) -0.10827(14)
C4 C 0.27494(18) 0.61849(14) -0.22590(14)
O3 O 0.10389(13) 0.66758(10) -0.19559(10)
O4 O 0.37066(13) 0.60893(10) -0.35071(9)
H1 H 0.820(3) 0.666(2) -0.490(2)
C5 C 0.69346(19) 0.52064(14) -0.04044(14)
H2 H 0.826(2) 0.5345(16) -0.0667(16)
C5A C 0.30654(19) 0.47936(14) 0.04044(14)
C1A C 0.41372(18) 0.41955(14) 0.14876(13)
C2A C 0.32636(18) 0.32038(15) 0.30729(14)
O1A O 0.37461(13) 0.18172(10) 0.35663(10)
O2A O 0.19721(12) 0.39715(10) 0.38178(10)
H1A H 0.180(3) 0.334(2) 0.490(2)
C3A C 0.60842(18) 0.44051(14) 0.10827(14)
C4A C 0.72506(18) 0.38151(14) 0.22590(14)
O3A O 0.89611(13) 0.33242(10) 0.19559(10)
O4A O 0.62934(13) 0.39107(10) 0.35071(9)
H2A H 0.174(2) 0.4655(16) 0.0667(16)
N1 N 0.28515(15) 0.77398(12) -0.59822(12)
H3 H 0.309(3) 0.702(2) -0.481(2)
C6 C 0.35504(18) 0.71648(15) -0.70591(14)
H4 H 0.421(2) 0.6135(17) -0.6806(16)
C7 C 0.33640(18) 0.80494(15) -0.85034(15)
H5 H 0.391(2) 0.7556(18) -0.9235(17)
C8 C 0.24500(18) 0.95646(15) -0.88697(14)
C9 C 0.17579(18) 1.01331(15) -0.77263(14)
H6 H 0.113(2) 1.1128(18) -0.7893(16)
C10 C 0.19959(18) 0.91909(15) -0.63026(14)
H7 H 0.159(2) 0.9551(16) -0.5478(16)
C11 C 0.27741(18) 1.09086(15) -1.30019(14)
H8 H 0.328(2) 1.0541(16) -1.3816(16)
C12 C 0.30112(18) 0.99866(15) -1.15749(14)
H9 H 0.376(2) 0.8999(17) -1.1445(15)
C13 C 0.22327(18) 1.05401(15) -1.04257(14)
C14 C 0.12511(18) 1.20308(15) -1.07942(14)
H10 H 0.065(2) 1.2487(16) -1.0073(15)
C15 C 0.10877(18) 1.28843(15) -1.22582(14)
H11 H 0.0398(19) 1.3925(16) -1.2530(15)
N2 N 0.18216(15) 1.23362(13) -1.33515(12)
loop_
_geom_bond_atom_site_label_1
_geom_bond_atom_site_label_2
_geom_bond_site_symmetry_1
_geom_bond_site_symmetry_2
C1 C2 1_555 1_555
C2 O1 1_555 1_555
O2 C2 1_555 1_555
C3 C1 1_555 1_555
C4 C3 1_555 1_555
O3 C4 1_555 1_555
O4 C4 1_555 1_555
H1 O2 1_555 1_555
C5 C1 1_555 1_555
H2 C5 1_555 1_555
N1 H3 1_555 1_555
C6 N1 1_555 1_555
H4 C6 1_555 1_555
C7 C6 1_555 1_555
H5 C7 1_555 1_555
C8 C7 1_555 1_555
C9 C8 1_555 1_555
H6 C9 1_555 1_555
C10 N1 1_555 1_555
H7 C10 1_555 1_555
C11 H8 1_555 1_555
C12 C11 1_555 1_555
H9 C12 1_555 1_555
C13 C8 1_555 1_555
C14 C13 1_555 1_555
H10 C14 1_555 1_555
C15 C14 1_555 1_555
H11 C15 1_555 1_555
N2 C11 1_555 1_555
C5A C3 1_555 1_555
C1A C5A 1_555 1_555
C2A C1A 1_555 1_555
O1A C2A 1_555 1_555
O2A C2A 1_555 1_555
H1A O2A 1_555 1_555
C3A C5 1_555 1_555
C4A C3A 1_555 1_555
O3A C4A 1_555 1_555
O4A C4A 1_555 1_555
H2A C5A 1_555 1_555
C9 C10 1_555 1_555
C12 C13 1_555 1_555
C15 N2 1_555 1_555
C1A C3A 1_555 1_555

#END
