
#######################################################################
#
#                 Cambridge Crystallographic Data Centre
#                                CCDC 
#
#######################################################################
#
# If this CIF has been generated from an entry in the Cambridge 
# Structural Database, then it will include bibliographic, chemical, 
# crystal, experimental, refinement or atomic coordinate data resulting 
# from the CCDC's data processing and validation procedures.
#
#######################################################################

data_WISNAQ
_chemical_formula_moiety         'C7 H8 N1 O2 1+,C2 Cl3 O2 1-'
_chemical_name_systematic        '3-carboxyanilinium trichloroacetate'
_symmetry_cell_setting           monoclinic
_symmetry_space_group_name_H-M   'P 21/c'
_symmetry_Int_Tables_number      14
_space_group_name_Hall           '-P 2ybc'
loop_
_symmetry_equiv_pos_site_id
_symmetry_equiv_pos_as_xyz
1 x,y,z
2 -x,1/2+y,1/2-z
3 -x,-y,-z
4 x,1/2-y,1/2+z
_cell_length_a                   16.7245(14)
_cell_length_b                   10.6570(9)
_cell_length_c                   6.9321(6)
_cell_angle_alpha                90
_cell_angle_beta                 91.150(2)
_cell_angle_gamma                90
_cell_volume                     1235.28
_exptl_crystal_colour            colorless
_exptl_crystal_description       block
_cell_formula_units_Z            4
loop_
_atom_site_label
_atom_site_type_symbol
_atom_site_fract_x
_atom_site_fract_y
_atom_site_fract_z
Cl1 Cl 0.11479(14) 0.4690(4) 1.0580(3)
Cl2 Cl 0.04945(15) 0.3642(4) 0.7198(6)
Cl3 Cl 0.1149(2) 0.6125(3) 0.7100(6)
O1 O 0.2667(2) 0.4361(4) 0.8663(5)
O2 O 0.2140(2) 0.3577(4) 0.5928(5)
C1 C 0.2108(3) 0.4131(5) 0.7474(8)
C2 C 0.1265(3) 0.4618(5) 0.8047(7)
N1 N 0.7032(2) 0.6127(3) 0.7423(5)
H1 H 0.6672 0.6722 0.7650
H2 H 0.7325 0.6348 0.6421
H3 H 0.7348 0.6029 0.8460
O3 O 0.41848(18) 0.4556(3) 0.7886(4)
H4 H 0.3702 0.4433 0.7955
O4 O 0.41467(19) 0.2742(3) 0.6235(4)
C3 C 0.4517(3) 0.3626(4) 0.6936(6)
C4 C 0.5403(3) 0.3754(4) 0.6742(5)
C5 C 0.5798(3) 0.4874(4) 0.7203(5)
H5 H 0.5514 0.5563 0.7645
C6 C 0.6621(3) 0.4947(4) 0.6993(6)
C7 C 0.7052(3) 0.3907(5) 0.6404(6)
H6 H 0.7605 0.3958 0.6301
C8 C 0.6663(3) 0.2800(5) 0.5974(7)
H7 H 0.6951 0.2104 0.5575
C9 C 0.5844(3) 0.2731(4) 0.6140(6)
H8 H 0.5583 0.1984 0.5843
Cl4? Cl 0.0669(8) 0.478(2) 0.6057(19)
Cl5? Cl 0.1378(8) 0.6129(15) 0.912(3)
Cl6? Cl 0.0916(8) 0.3698(17) 0.955(3)
loop_
_geom_bond_atom_site_label_1
_geom_bond_atom_site_label_2
_geom_bond_site_symmetry_1
_geom_bond_site_symmetry_2
Cl1 C2 1_555 1_555
Cl2 C2 1_555 1_555
Cl3 C2 1_555 1_555
O1 C1 1_555 1_555
O2 C1 1_555 1_555
C1 C2 1_555 1_555
N1 H1 1_555 1_555
H2 N1 1_555 1_555
H3 N1 1_555 1_555
O3 H4 1_555 1_555
O4 C3 1_555 1_555
C3 O3 1_555 1_555
C4 C3 1_555 1_555
C5 C4 1_555 1_555
H5 C5 1_555 1_555
C6 N1 1_555 1_555
C7 C6 1_555 1_555
H6 C7 1_555 1_555
C8 C7 1_555 1_555
H7 C8 1_555 1_555
C9 C4 1_555 1_555
H8 C9 1_555 1_555
C5 C6 1_555 1_555
C8 C9 1_555 1_555

#END
