
#######################################################################
#
#                 Cambridge Crystallographic Data Centre
#                                CCDC 
#
#######################################################################
#
# If this CIF has been generated from an entry in the Cambridge 
# Structural Database, then it will include bibliographic, chemical, 
# crystal, experimental, refinement or atomic coordinate data resulting 
# from the CCDC's data processing and validation procedures.
#
#######################################################################

data_WISNAN02
_chemical_formula_moiety         '2(C10 H9 N2 1+),C10 H4 O8 2-'
_chemical_name_systematic        
"bis(4,4'-Bipyridyl) benzene-1,2,4,5-tetracarboxylic acid"
_symmetry_cell_setting           triclinic
_symmetry_space_group_name_H-M   'P -1'
_symmetry_Int_Tables_number      2
_space_group_name_Hall           '-P 1'
loop_
_symmetry_equiv_pos_site_id
_symmetry_equiv_pos_as_xyz
1 x,y,z
2 -x,-y,-z
_cell_length_a                   7.5011(2)
_cell_length_b                   9.7868(3)
_cell_length_c                   10.2303(3)
_cell_angle_alpha                64.140(3)
_cell_angle_beta                 71.682(3)
_cell_angle_gamma                75.516(3)
_cell_volume                     635.933
_exptl_crystal_colour            colorless
_exptl_crystal_description       prism
_cell_formula_units_Z            1
loop_
_atom_site_label
_atom_site_type_symbol
_atom_site_fract_x
_atom_site_fract_y
_atom_site_fract_z
C1 C 0.41579(17) 0.41855(14) 0.14981(13)
C2 C 0.3285(2) 0.32047(15) 0.30805(13)
O1 O 0.3785(4) 0.1839(2) 0.3567(2)
O2 O 0.1992(2) 0.3939(2) 0.38196(17)
H1 H 0.1780(4) 0.3249(4) 0.4998(4)
C3 C 0.60671(17) 0.44024(14) 0.10818(13)
C4 C 0.72238(18) 0.38061(15) 0.22366(14)
O3 O 0.8909(2) 0.3350(3) 0.1937(2)
O4 O 0.6282(3) 0.3887(2) 0.34904(18)
C5 C 0.30969(18) 0.47878(15) 0.04139(13)
H2 H 0.1627(4) 0.4608(4) 0.0727(3)
C5A C 0.69031(18) 0.52122(15) -0.04139(13)
C1A C 0.58421(17) 0.58145(14) -0.14981(13)
C2A C 0.6715(2) 0.67953(15) -0.30805(13)
O1A O 0.6215(4) 0.8161(2) -0.3567(2)
O2A O 0.8008(2) 0.6061(2) -0.38196(17)
H1A H 0.8220(4) 0.6751(4) -0.4998(4)
C3A C 0.39329(17) 0.55976(14) -0.10818(13)
C4A C 0.27762(18) 0.61939(15) -0.22366(14)
O3A O 0.1091(2) 0.6650(3) -0.1937(2)
O4A O 0.3718(3) 0.6113(2) -0.34904(18)
H2A H 0.8373(4) 0.5392(4) -0.0727(3)
N1 N 0.28131(15) -0.22432(12) 1.40422(11)
H3 H 0.3116(5) -0.3078(4) 1.5369(4)
C6 C 0.2025(3) -0.07861(19) 1.36857(17)
H4 H 0.1600(9) -0.0374(6) 1.4578(4)
C7 C 0.1801(2) 0.01558(18) 1.22540(16)
H5 H 0.1126(8) 0.1331(5) 1.2044(4)
C8 C 0.24339(17) -0.04221(15) 1.11355(13)
C9 C 0.3280(2) -0.19436(17) 1.15343(16)
H6 H 0.3815(9) -0.2474(5) 1.0734(4)
C10 C 0.3450(3) -0.28168(17) 1.29888(17)
H7 H 0.4098(8) -0.4002(4) 1.3334(4)
C11 C 0.1128(2) 0.28835(17) 0.77215(15)
H8 H 0.0405(7) 0.4055(4) 0.7373(4)
C12 C 0.1290(2) 0.20355(16) 0.91907(15)
H9 H 0.0651(6) 0.2552(4) 1.0004(4)
C13 C 0.22317(17) 0.05442(14) 0.95848(13)
C14 C 0.2977(2) -0.00191(17) 0.84542(15)
H10 H 0.3755(7) -0.1154(4) 0.8643(4)
C15 C 0.2749(2) 0.08987(18) 0.70220(15)
H11 H 0.3339(7) 0.0500(5) 0.6118(4)
N2 N 0.18361(15) 0.23219(12) 0.66549(10)
loop_
_geom_bond_atom_site_label_1
_geom_bond_atom_site_label_2
_geom_bond_site_symmetry_1
_geom_bond_site_symmetry_2
C1 C2 1_555 1_555
C2 O1 1_555 1_555
O2 C2 1_555 1_555
H1 O2 1_555 1_555
C3 C1 1_555 1_555
C4 C3 1_555 1_555
O3 C4 1_555 1_555
O4 C4 1_555 1_555
C5 C1 1_555 1_555
H2 C5 1_555 1_555
N1 H3 1_555 1_555
C6 N1 1_555 1_555
H4 C6 1_555 1_555
C7 C6 1_555 1_555
H5 C7 1_555 1_555
C8 C7 1_555 1_555
C9 C8 1_555 1_555
H6 C9 1_555 1_555
C10 N1 1_555 1_555
H7 C10 1_555 1_555
C11 H8 1_555 1_555
C12 C11 1_555 1_555
H9 C12 1_555 1_555
C13 C8 1_555 1_555
C14 C13 1_555 1_555
H10 C14 1_555 1_555
C15 C14 1_555 1_555
H11 C15 1_555 1_555
N2 C11 1_555 1_555
C5A C3 1_555 1_555
C1A C5A 1_555 1_555
C2A C1A 1_555 1_555
O1A C2A 1_555 1_555
O2A C2A 1_555 1_555
H1A O2A 1_555 1_555
C3A C5 1_555 1_555
C4A C3A 1_555 1_555
O3A C4A 1_555 1_555
O4A C4A 1_555 1_555
H2A C5A 1_555 1_555
C9 C10 1_555 1_555
C12 C13 1_555 1_555
C15 N2 1_555 1_555
C1A C3A 1_555 1_555

#END
