
#######################################################################
#
#                 Cambridge Crystallographic Data Centre
#                                CCDC 
#
#######################################################################
#
# If this CIF has been generated from an entry in the Cambridge 
# Structural Database, then it will include bibliographic, chemical, 
# crystal, experimental, refinement or atomic coordinate data resulting 
# from the CCDC's data processing and validation procedures.
#
#######################################################################

data_WISWOM
_chemical_formula_moiety         'C20 H28 O5'
_chemical_name_systematic        
'5-Hydroxy-3,5,8a-trimethyl-4,4a,5,6,7,8,8a,9-octahydronaphtho[2,3-b]furan-6-yl 2,3-dimethyloxirane-2-carboxylate'
_symmetry_cell_setting           orthorhombic
_symmetry_space_group_name_H-M   'P 21 21 21'
_symmetry_Int_Tables_number      19
_space_group_name_Hall           'P 2ac 2ab'
loop_
_symmetry_equiv_pos_site_id
_symmetry_equiv_pos_as_xyz
1 x,y,z
2 1/2-x,-y,1/2+z
3 -x,1/2+y,1/2-z
4 1/2+x,1/2-y,-z
_cell_length_a                   7.3794(10)
_cell_length_b                   12.1840(16)
_cell_length_c                   21.074(3)
_cell_angle_alpha                90
_cell_angle_beta                 90
_cell_angle_gamma                90
_cell_volume                     1894.78
_exptl_crystal_colour            colorless
_exptl_crystal_description       block
_cell_formula_units_Z            4
loop_
_atom_site_label
_atom_site_type_symbol
_atom_site_fract_x
_atom_site_fract_y
_atom_site_fract_z
O1 O 0.8379(3) 0.74089(16) 1.00155(8)
O2 O 0.7475(4) 0.51113(17) 0.99481(10)
O3 O 0.9264(3) 0.72262(13) 0.90027(7)
O4 O 1.2617(3) 0.76433(15) 0.86088(7)
H1 H 1.2885 0.7722 0.8984
O5 O 0.9082(3) 0.72150(16) 0.59533(8)
C1 C 0.7363(4) 0.8605(2) 0.80794(13)
H2 H 0.6358 0.9065 0.7948
H3 H 0.6905 0.7864 0.8130
C2 C 0.8045(4) 0.9008(2) 0.87157(12)
H4 H 0.7096 0.8919 0.9030
H5 H 0.8323 0.9785 0.8685
C3 C 0.9723(4) 0.83944(19) 0.89328(11)
H6 H 1.0153 0.8692 0.9338
C4 C 1.1246(4) 0.84289(19) 0.84374(10)
C5 C 1.0534(3) 0.8025(2) 0.77910(9)
H7 H 1.0171 0.7262 0.7865
C6 C 1.2039(4) 0.7958(2) 0.72862(10)
H8 H 1.2589 0.8675 0.7231
H9 H 1.2972 0.7451 0.7425
C7 C 1.1251(4) 0.75735(19) 0.66664(11)
C8 C 0.9470(5) 0.7597(2) 0.65550(11)
C9 C 0.8004(4) 0.7924(2) 0.69901(12)
H10 H 0.7401 0.7275 0.7153
H11 H 0.7117 0.8360 0.6763
C10 C 0.8791(4) 0.8604(2) 0.75525(11)
C11 C 1.2114(5) 0.7135(2) 0.61027(12)
C12 C 1.0734(6) 0.6940(2) 0.56975(14)
H12 H 1.0884 0.6652 0.5292
C13 C 1.4091(5) 0.6933(3) 0.60010(14)
H13 H 1.4275 0.6617 0.5589
H14 H 1.4531 0.6437 0.6320
H15 H 1.4738 0.7614 0.6029
C14 C 0.9124(5) 0.9786(2) 0.73093(13)
H16 H 0.8038 1.0061 0.7115
H17 H 1.0086 0.9780 0.7003
H18 H 0.9453 1.0249 0.7659
C15 C 1.2108(4) 0.9568(2) 0.84509(12)
H19 H 1.3026 0.9613 0.8129
H20 H 1.2644 0.9693 0.8860
H21 H 1.1196 1.0113 0.8372
C16 C 0.8750(4) 0.6852(2) 0.95624(11)
C17 C 0.8771(5) 0.5619(2) 0.95464(11)
C18 C 0.7235(5) 0.5039(3) 0.92613(16)
H22 H 0.7528 0.4323 0.9076
C19 C 0.5640(5) 0.5588(3) 0.8986(3)
H23 H 0.5812 0.5676 0.8537
H24 H 0.5490 0.6296 0.9180
H25 H 0.4580 0.5151 0.9062
C20 C 1.0642(5) 0.5146(3) 0.95467(14)
H26 H 1.0572 0.4362 0.9509
H27 H 1.1241 0.5335 0.9936
H28 H 1.1313 0.5439 0.9195
loop_
_geom_bond_atom_site_label_1
_geom_bond_atom_site_label_2
_geom_bond_site_symmetry_1
_geom_bond_site_symmetry_2
O1 C16 1_555 1_555
O2 C17 1_555 1_555
O3 C3 1_555 1_555
O4 H1 1_555 1_555
O5 C8 1_555 1_555
C1 H2 1_555 1_555
H3 C1 1_555 1_555
C2 C1 1_555 1_555
H4 C2 1_555 1_555
H5 C2 1_555 1_555
C3 C2 1_555 1_555
H6 C3 1_555 1_555
C4 O4 1_555 1_555
C5 C4 1_555 1_555
H7 C5 1_555 1_555
C6 C5 1_555 1_555
H8 C6 1_555 1_555
H9 C6 1_555 1_555
C7 C6 1_555 1_555
C8 C7 1_555 1_555
C9 C8 1_555 1_555
H10 C9 1_555 1_555
H11 C9 1_555 1_555
C10 C1 1_555 1_555
C11 C7 1_555 1_555
C12 O5 1_555 1_555
H12 C12 1_555 1_555
C13 C11 1_555 1_555
H13 C13 1_555 1_555
H14 C13 1_555 1_555
H15 C13 1_555 1_555
C14 C10 1_555 1_555
H16 C14 1_555 1_555
H17 C14 1_555 1_555
H18 C14 1_555 1_555
C15 C4 1_555 1_555
H19 C15 1_555 1_555
H20 C15 1_555 1_555
H21 C15 1_555 1_555
C16 O3 1_555 1_555
C17 C16 1_555 1_555
C18 O2 1_555 1_555
H22 C18 1_555 1_555
C19 C18 1_555 1_555
H23 C19 1_555 1_555
H24 C19 1_555 1_555
H25 C19 1_555 1_555
C20 C17 1_555 1_555
H26 C20 1_555 1_555
H27 C20 1_555 1_555
H28 C20 1_555 1_555
C3 C4 1_555 1_555
C5 C10 1_555 1_555
C9 C10 1_555 1_555
C11 C12 1_555 1_555
C17 C18 1_555 1_555

#END
