
#######################################################################
#
#                 Cambridge Crystallographic Data Centre
#                                CCDC 
#
#######################################################################
#
# If this CIF has been generated from an entry in the Cambridge 
# Structural Database, then it will include bibliographic, chemical, 
# crystal, experimental, refinement or atomic coordinate data resulting 
# from the CCDC's data processing and validation procedures.
#
#######################################################################

data_WITDUA04
_chemical_formula_moiety         'C14 H14 N2 O2'
_chemical_name_systematic        '2-(ethyl(phenyl)amino)nicotinic acid'
_symmetry_cell_setting           monoclinic
_symmetry_space_group_name_H-M   'P 21/c'
_symmetry_Int_Tables_number      14
_space_group_name_Hall           '-P 2ybc'
loop_
_symmetry_equiv_pos_site_id
_symmetry_equiv_pos_as_xyz
1 x,y,z
2 -x,1/2+y,1/2-z
3 -x,-y,-z
4 x,1/2-y,1/2+z
_cell_length_a                   10.3769(2)
_cell_length_b                   8.8497(2)
_cell_length_c                   13.5431(3)
_cell_angle_alpha                90
_cell_angle_beta                 96.8897(8)
_cell_angle_gamma                90
_cell_volume                     1234.72
_exptl_crystal_colour            colorless
_exptl_crystal_description       block
_cell_formula_units_Z            4
loop_
_atom_site_label
_atom_site_type_symbol
_atom_site_fract_x
_atom_site_fract_y
_atom_site_fract_z
N1 N 0.28535(11) 0.31758(13) 0.30187(8)
C1 C 0.28529(12) 0.26848(15) 0.20754(9)
C2 C 0.21398(12) 0.34823(15) 0.12735(9)
C3 C 0.13645(13) 0.46855(15) 0.14959(10)
H1 H 0.0829 0.5181 0.0976
C4 C 0.13655(14) 0.51709(16) 0.24720(10)
H2 H 0.0848 0.6001 0.2632
C5 C 0.21478(14) 0.43993(16) 0.31978(10)
H3 H 0.2191 0.4752 0.3863
N2 N 0.35727(10) 0.14036(13) 0.19346(8)
C6 C 0.30678(13) 0.02378(15) 0.12685(9)
C7 C 0.17491(13) -0.00995(16) 0.11361(10)
H4 H 0.1160 0.0497 0.1455
C8 C 0.12896(14) -0.13098(17) 0.05371(11)
H5 H 0.0387 -0.1529 0.0447
C9 C 0.21375(15) -0.21991(16) 0.00707(11)
H6 H 0.1821 -0.3027 -0.0334
C10 C 0.34515(15) -0.18641(16) 0.02028(10)
H7 H 0.4039 -0.2466 -0.0114
C11 C 0.39165(14) -0.06547(16) 0.07952(10)
H8 H 0.4819 -0.0434 0.0879
C12 C 0.21886(13) 0.32196(15) 0.01869(10)
O1 O 0.33210(9) 0.27297(11) -0.00515(7)
H9 H 0.3257 0.2557 -0.0665
O2 O 0.12745(9) 0.35223(12) -0.04263(7)
C13 C 0.46093(13) 0.09366(16) 0.27169(10)
H10 H 0.4880 0.1822 0.3138
H11 H 0.5370 0.0597 0.2400
C14 C 0.42004(15) -0.03289(16) 0.33755(10)
H12 H 0.3420 -0.0022 0.3666
H13 H 0.4903 -0.0535 0.3909
H14 H 0.4014 -0.1243 0.2975
loop_
_geom_bond_atom_site_label_1
_geom_bond_atom_site_label_2
_geom_bond_site_symmetry_1
_geom_bond_site_symmetry_2
N1 C1 1_555 1_555
C1 C2 1_555 1_555
C2 C3 1_555 1_555
C3 H1 1_555 1_555
C4 C3 1_555 1_555
H2 C4 1_555 1_555
C5 N1 1_555 1_555
H3 C5 1_555 1_555
N2 C1 1_555 1_555
C6 N2 1_555 1_555
C7 C6 1_555 1_555
H4 C7 1_555 1_555
C8 C7 1_555 1_555
H5 C8 1_555 1_555
C9 C8 1_555 1_555
H6 C9 1_555 1_555
C10 C9 1_555 1_555
H7 C10 1_555 1_555
C11 C6 1_555 1_555
H8 C11 1_555 1_555
C12 C2 1_555 1_555
O1 C12 1_555 1_555
H9 O1 1_555 1_555
O2 C12 1_555 1_555
C13 N2 1_555 1_555
H10 C13 1_555 1_555
H11 C13 1_555 1_555
C14 C13 1_555 1_555
H12 C14 1_555 1_555
H13 C14 1_555 1_555
H14 C14 1_555 1_555
C4 C5 1_555 1_555
C10 C11 1_555 1_555

#END
