
#######################################################################
#
#                 Cambridge Crystallographic Data Centre
#                                CCDC 
#
#######################################################################
#
# If this CIF has been generated from an entry in the Cambridge 
# Structural Database, then it will include bibliographic, chemical, 
# crystal, experimental, refinement or atomic coordinate data resulting 
# from the CCDC's data processing and validation procedures.
#
#######################################################################

data_WITFAI
_chemical_formula_moiety         'C16 H18 N2 O2'
_chemical_name_systematic        '2-(n-Butyl(phenyl)amino)nicotinic acid'
_symmetry_cell_setting           triclinic
_symmetry_space_group_name_H-M   'P -1'
_symmetry_Int_Tables_number      2
_space_group_name_Hall           '-P 1'
loop_
_symmetry_equiv_pos_site_id
_symmetry_equiv_pos_as_xyz
1 x,y,z
2 -x,-y,-z
_cell_length_a                   11.1175(2)
_cell_length_b                   11.5416(2)
_cell_length_c                   12.2025(2)
_cell_angle_alpha                105.7668(7)
_cell_angle_beta                 102.7156(7)
_cell_angle_gamma                98.4533(8)
_cell_volume                     1433.77
_exptl_crystal_colour            colorless
_exptl_crystal_description       block
_cell_formula_units_Z            4
loop_
_atom_site_label
_atom_site_type_symbol
_atom_site_fract_x
_atom_site_fract_y
_atom_site_fract_z
O1 O 1.19339(8) 0.19638(8) 0.59835(8)
O2 O 1.30012(9) 0.36458(8) 0.57405(8)
H1 H 1.2790 0.4016 0.6338
N1 N 1.24950(10) -0.01323(10) 0.27465(10)
N2 N 1.07745(10) 0.03855(9) 0.34011(9)
C1 C 0.91685(12) 0.11143(12) 0.43196(11)
H2 H 0.8997 0.0359 0.4487
C2 C 1.25354(11) 0.24381(11) 0.54421(11)
C3 C 1.03432(13) 0.24340(12) 0.35100(11)
H3 H 1.0972 0.2579 0.3118
C4 C 0.99846(12) -0.08063(11) 0.25694(11)
H4 H 0.9235 -0.1030 0.2844
H5 H 1.0475 -0.1456 0.2575
C5 C 1.20514(12) 0.06557(11) 0.35162(11)
C6 C 1.00992(11) 0.13257(11) 0.37514(11)
C7 C 0.95465(12) -0.07696(12) 0.13076(11)
H6 H 1.0296 -0.0548 0.1032
H7 H 0.9057 -0.0120 0.1302
C8 C 0.96651(13) 0.33326(13) 0.38431(12)
H8 H 0.9838 0.4092 0.3683
C9 C 1.28974(12) 0.17021(11) 0.44059(11)
C10 C 1.41545(12) 0.19392(12) 0.44058(12)
H9 H 1.4722 0.2658 0.4967
C11 C 1.37324(12) 0.01077(12) 0.28067(12)
H10 H 1.4030 -0.0470 0.2272
C12 C 0.87307(12) -0.19997(12) 0.04549(12)
H11 H 0.9188 -0.2665 0.0510
H12 H 0.7940 -0.2185 0.0682
C13 C 1.45944(13) 0.11356(12) 0.35928(12)
H13 H 1.5454 0.1290 0.3581
C14 C 0.84108(15) -0.19684(15) -0.08122(13)
H14 H 0.7927 -0.1334 -0.0875
H15 H 0.7906 -0.2775 -0.1344
H16 H 0.9193 -0.1776 -0.1035
C15 C 0.87412(13) 0.31220(13) 0.44054(13)
H17 H 0.8279 0.3734 0.4631
C16 C 0.84926(13) 0.20124(13) 0.46392(12)
H18 H 0.7854 0.1866 0.5021
O3 O 0.75242(9) 0.13873(8) 0.01121(9)
O4 O 0.81970(9) 0.23663(8) -0.10744(8)
H19 H 0.8050 0.1645 -0.1541
N3 N 0.77781(10) 0.50697(9) 0.24250(9)
N4 N 0.62020(10) 0.32906(9) 0.13878(9)
C17 C 0.46715(12) 0.44345(12) 0.21866(12)
H20 H 0.4027 0.4066 0.1413
H21 H 0.5159 0.5225 0.2188
C18 C 0.53203(12) 0.30344(12) -0.07132(12)
H22 H 0.5814 0.3822 -0.0606
C19 C 0.55605(12) 0.35667(12) 0.23301(11)
H23 H 0.6207 0.3942 0.3102
H24 H 0.5071 0.2783 0.2343
C20 C 0.89131(12) 0.57869(12) 0.25785(12)
H25 H 0.9191 0.6533 0.3223
C21 C 0.38446(12) 0.07421(12) -0.10346(12)
H26 H 0.3337 -0.0039 -0.1140
C22 C 0.81620(12) 0.35962(11) 0.07913(11)
C23 C 0.46541(12) 0.14255(12) 0.00706(12)
H27 H 0.4699 0.1109 0.0717
C24 C 0.73790(12) 0.39873(11) 0.15330(11)
C25 C 0.96927(12) 0.55035(12) 0.18587(12)
H28 H 1.0469 0.6052 0.1975
C26 C 0.54005(12) 0.25726(11) 0.02363(11)
C27 C 0.92975(12) 0.43819(12) 0.09555(12)
H29 H 0.9814 0.4152 0.0444
C28 C 0.45136(12) 0.23382(12) -0.18201(12)
H30 H 0.4469 0.2650 -0.2469
C29 C 0.37730(12) 0.11930(12) -0.19842(12)
H31 H 0.3222 0.0723 -0.2741
C30 C 0.30688(15) 0.54986(15) 0.29931(15)
H32 H 0.3515 0.6303 0.3008
H33 H 0.2649 0.5613 0.3630
H34 H 0.2436 0.5101 0.2228
C31 C 0.79037(12) 0.23316(12) -0.00790(12)
C32 C 0.40113(13) 0.46878(13) 0.31693(12)
H35 H 0.3563 0.3893 0.3197
H36 H 0.4654 0.5098 0.3939
loop_
_geom_bond_atom_site_label_1
_geom_bond_atom_site_label_2
_geom_bond_site_symmetry_1
_geom_bond_site_symmetry_2
O1 C2 1_555 1_555
O2 H1 1_555 1_555
N1 C5 1_555 1_555
N2 C4 1_555 1_555
C1 H2 1_555 1_555
C2 O2 1_555 1_555
C3 H3 1_555 1_555
C4 H4 1_555 1_555
H5 C4 1_555 1_555
C5 N2 1_555 1_555
C6 N2 1_555 1_555
C7 C4 1_555 1_555
H6 C7 1_555 1_555
H7 C7 1_555 1_555
C8 C3 1_555 1_555
H8 C8 1_555 1_555
C9 C2 1_555 1_555
C10 C9 1_555 1_555
H9 C10 1_555 1_555
C11 N1 1_555 1_555
H10 C11 1_555 1_555
C12 C7 1_555 1_555
H11 C12 1_555 1_555
H12 C12 1_555 1_555
C13 C10 1_555 1_555
H13 C13 1_555 1_555
C14 C12 1_555 1_555
H14 C14 1_555 1_555
H15 C14 1_555 1_555
H16 C14 1_555 1_555
C15 C8 1_555 1_555
H17 C15 1_555 1_555
C16 C1 1_555 1_555
H18 C16 1_555 1_555
O3 C31 1_555 1_555
O4 H19 1_555 1_555
N3 C20 1_555 1_555
N4 C19 1_555 1_555
C17 H20 1_555 1_555
H21 C17 1_555 1_555
C18 H22 1_555 1_555
C19 C17 1_555 1_555
H23 C19 1_555 1_555
H24 C19 1_555 1_555
C20 H25 1_555 1_555
C21 H26 1_555 1_555
C22 C24 1_555 1_555
C23 C21 1_555 1_555
H27 C23 1_555 1_555
C24 N3 1_555 1_555
C25 C20 1_555 1_555
H28 C25 1_555 1_555
C26 N4 1_555 1_555
C27 C22 1_555 1_555
H29 C27 1_555 1_555
C28 C18 1_555 1_555
H30 C28 1_555 1_555
C29 C21 1_555 1_555
H31 C29 1_555 1_555
C30 H32 1_555 1_555
H33 C30 1_555 1_555
H34 C30 1_555 1_555
C31 O4 1_555 1_555
C32 C17 1_555 1_555
H35 C32 1_555 1_555
H36 C32 1_555 1_555
C1 C6 1_555 1_555
C3 C6 1_555 1_555
C5 C9 1_555 1_555
C11 C13 1_555 1_555
C15 C16 1_555 1_555
N4 C24 1_555 1_555
C18 C26 1_555 1_555
C22 C31 1_555 1_555
C23 C26 1_555 1_555
C25 C27 1_555 1_555
C28 C29 1_555 1_555
C30 C32 1_555 1_555

#END
