
#######################################################################
#
#                 Cambridge Crystallographic Data Centre
#                                CCDC 
#
#######################################################################
#
# If this CIF has been generated from an entry in the Cambridge 
# Structural Database, then it will include bibliographic, chemical, 
# crystal, experimental, refinement or atomic coordinate data resulting 
# from the CCDC's data processing and validation procedures.
#
#######################################################################

data_WITKUH
_chemical_formula_moiety         'C24 H15 N3 O6,C9 H6 O6,C1 H4 O1,2(C1 H1 Cl3)'
_chemical_name_systematic        
'Benzene-1,3,5-tricarboxylic acid benzene-1,3,5-triyl tri-isonicotinate chloroform methanol solvate'
_symmetry_cell_setting           monoclinic
_symmetry_space_group_name_H-M   'P 21/c'
_symmetry_Int_Tables_number      14
_space_group_name_Hall           '-P 2ybc'
loop_
_symmetry_equiv_pos_site_id
_symmetry_equiv_pos_as_xyz
1 x,y,z
2 -x,1/2+y,1/2-z
3 -x,-y,-z
4 x,1/2-y,1/2+z
_cell_length_a                   20.565(8)
_cell_length_b                   22.834(8)
_cell_length_c                   7.502(3)
_cell_angle_alpha                90
_cell_angle_beta                 90.730(12)
_cell_angle_gamma                90
_cell_volume                     3522.51
_exptl_crystal_colour            colorless
_exptl_crystal_description       needle
_cell_formula_units_Z            4
loop_
_atom_site_label
_atom_site_type_symbol
_atom_site_fract_x
_atom_site_fract_y
_atom_site_fract_z
O7 O 0.98651(14) 0.44304(16) -0.1820(6)
O8 O 0.98780(13) 0.53311(13) -0.2923(4)
H16 H 1.0350(19) 0.5299(15) -0.288(5)
O9 O 0.77509(14) 0.34571(13) -0.0891(5)
H17 H 0.7468(19) 0.3230(17) -0.055(5)
O10 O 0.68612(13) 0.40169(11) -0.0745(4)
O11 O 0.69031(13) 0.58482(11) -0.4336(4)
O12 O 0.78253(13) 0.63613(11) -0.4357(4)
C25 C 0.88587(17) 0.48937(17) -0.2460(5)
C26 C 0.85085(18) 0.44192(17) -0.1820(5)
H18 H 0.8725 0.4093 -0.1363
C27 C 0.78332(17) 0.44349(16) -0.1868(5)
C28 C 0.75171(18) 0.49179(16) -0.2566(5)
H19 H 0.7065 0.4926 -0.2603
C29 C 0.78629(17) 0.53876(16) -0.3212(5)
C30 C 0.85376(17) 0.53811(17) -0.3126(5)
H20 H 0.8773 0.5703 -0.3515
C31 C 0.9585(2) 0.4859(2) -0.2366(6)
C32 C 0.7424(2) 0.39469(17) -0.1103(5)
C33 C 0.7482(2) 0.58902(17) -0.4019(5)
C1 C 0.47372(17) 0.43977(15) 0.1988(5)
C2 C 0.54066(17) 0.43690(16) 0.2025(5)
H1 H 0.5624 0.4032 0.1678
C3 C 0.57421(16) 0.48580(16) 0.2597(5)
C4 C 0.54322(17) 0.53673(16) 0.3107(5)
H2 H 0.5665 0.5691 0.3511
C5 C 0.47670(17) 0.53737(16) 0.2992(5)
C6 C 0.44127(17) 0.48999(16) 0.2439(5)
H3 H 0.3961 0.4917 0.2370
O1 O 0.47746(15) 0.33129(12) 0.3505(4)
O2 O 0.43475(11) 0.39248(11) 0.1451(3)
N1 N 0.29377(16) 0.21853(14) 0.0665(4)
C7 C 0.28431(19) 0.27571(17) 0.0434(5)
H4 H 0.2454 0.2881 -0.0084
C8 C 0.32980(19) 0.31760(17) 0.0930(5)
H5 H 0.3219 0.3571 0.0718
C9 C 0.38700(17) 0.29979(16) 0.1743(5)
C10 C 0.39668(19) 0.24068(16) 0.2019(5)
H6 H 0.4342 0.2273 0.2592
C11 C 0.3498(2) 0.20178(18) 0.1433(6)
H7 H 0.3575 0.1619 0.1579
C12 C 0.43758(19) 0.34167(17) 0.2359(6)
O3 O 0.66295(13) 0.55768(14) 0.1139(4)
O4 O 0.64181(11) 0.47868(10) 0.2816(3)
N2 N 0.88349(15) 0.48019(16) 0.2678(5)
C13 C 0.86188(19) 0.53183(19) 0.2077(6)
H8 H 0.8923 0.5604 0.1791
C14 C 0.79707(18) 0.54501(18) 0.1859(5)
H9 H 0.7840 0.5814 0.1432
C15 C 0.75173(17) 0.50277(17) 0.2291(5)
C16 C 0.77358(18) 0.44963(17) 0.2936(5)
H10 H 0.7442 0.4206 0.3252
C17 C 0.83961(19) 0.44016(19) 0.3104(6)
H11 H 0.8540 0.4042 0.3534
C18 C 0.68161(18) 0.51688(18) 0.2001(5)
O5 O 0.48475(14) 0.65150(12) 0.1804(4)
O6 O 0.43922(11) 0.58476(11) 0.3622(3)
N3 N 0.30651(16) 0.76129(14) 0.4832(5)
C19 C 0.3623(2) 0.77787(18) 0.4106(5)
H12 H 0.3705 0.8178 0.4013
C20 C 0.40839(19) 0.73975(16) 0.3485(5)
H13 H 0.4455 0.7536 0.2932
C21 C 0.39845(17) 0.68027(16) 0.3700(5)
C22 C 0.34227(18) 0.66212(17) 0.4512(5)
H14 H 0.3346 0.6225 0.4712
C23 C 0.2976(2) 0.70368(19) 0.5023(6)
H15 H 0.2591 0.6909 0.5530
C24 C 0.44636(18) 0.63879(17) 0.2923(5)
loop_
_geom_bond_atom_site_label_1
_geom_bond_atom_site_label_2
_geom_bond_site_symmetry_1
_geom_bond_site_symmetry_2
C1 C2 1_555 1_555
C2 H1 1_555 1_555
C3 C2 1_555 1_555
C4 C3 1_555 1_555
H2 C4 1_555 1_555
C5 C4 1_555 1_555
C6 C1 1_555 1_555
H3 C6 1_555 1_555
O1 C12 1_555 1_555
O2 C1 1_555 1_555
N1 C7 1_555 1_555
C7 H4 1_555 1_555
C8 C7 1_555 1_555
H5 C8 1_555 1_555
C9 C8 1_555 1_555
C10 C9 1_555 1_555
H6 C10 1_555 1_555
C11 N1 1_555 1_555
H7 C11 1_555 1_555
C12 O2 1_555 1_555
O3 C18 1_555 1_555
O4 C3 1_555 1_555
N2 C13 1_555 1_555
C13 H8 1_555 1_555
C14 C13 1_555 1_555
H9 C14 1_555 1_555
C15 C14 1_555 1_555
C16 C15 1_555 1_555
H10 C16 1_555 1_555
C17 N2 1_555 1_555
H11 C17 1_555 1_555
C18 O4 1_555 1_555
O5 C24 1_555 1_555
O6 C5 1_555 1_555
N3 C19 1_555 1_555
C19 H12 1_555 1_555
C20 C19 1_555 1_555
H13 C20 1_555 1_555
C21 C20 1_555 1_555
C22 C21 1_555 1_555
H14 C22 1_555 1_555
C23 N3 1_555 1_555
H15 C23 1_555 1_555
C24 O6 1_555 1_555
O7 C31 1_555 1_555
O8 H16 1_555 1_555
O9 H17 1_555 1_555
O10 C32 1_555 1_555
O11 C33 1_555 1_555
O12 C33 1_555 1_555
C25 C26 1_555 1_555
C26 H18 1_555 1_555
C27 C26 1_555 1_555
C28 C27 1_555 1_555
H19 C28 1_555 1_555
C29 C28 1_555 1_555
C30 C25 1_555 1_555
H20 C30 1_555 1_555
C31 O8 1_555 1_555
C32 O9 1_555 1_555
C33 C29 1_555 1_555
C5 C6 1_555 1_555
C9 C12 1_555 1_555
C10 C11 1_555 1_555
C15 C18 1_555 1_555
C16 C17 1_555 1_555
C21 C24 1_555 1_555
C22 C23 1_555 1_555
C25 C31 1_555 1_555
C27 C32 1_555 1_555
C29 C30 1_555 1_555

#END
