
#######################################################################
#
#                 Cambridge Crystallographic Data Centre
#                                CCDC 
#
#######################################################################
#
# If this CIF has been generated from an entry in the Cambridge 
# Structural Database, then it will include bibliographic, chemical, 
# crystal, experimental, refinement or atomic coordinate data resulting 
# from the CCDC's data processing and validation procedures.
#
#######################################################################

data_WITMUJ
_chemical_formula_moiety         '2(C24 H30 N10 O3),H12 Mg1 O6 2+,2(Cl1 1-)'
_chemical_name_systematic        
"hexakis(aqua)-magnesium bis(1,1',1''-(nitrilotriethane-2,1-diyl)tris(3-pyridin-4-ylurea)) bis(chloride)"
_symmetry_cell_setting           rhombohedral
_symmetry_space_group_name_H-M   'R -3'
_symmetry_Int_Tables_number      148
_space_group_name_Hall           '-R 3'
loop_
_symmetry_equiv_pos_site_id
_symmetry_equiv_pos_as_xyz
1 x,y,z
2 -y,x-y,z
3 -x+y,-x,z
4 2/3+x,1/3+y,1/3+z
5 2/3-y,1/3+x-y,1/3+z
6 2/3-x+y,1/3-x,1/3+z
7 1/3+x,2/3+y,2/3+z
8 1/3-y,2/3+x-y,2/3+z
9 1/3-x+y,2/3-x,2/3+z
10 -x,-y,-z
11 y,-x+y,-z
12 x-y,x,-z
13 1/3-x,2/3-y,2/3-z
14 1/3+y,2/3-x+y,2/3-z
15 1/3+x-y,2/3+x,2/3-z
16 2/3-x,1/3-y,1/3-z
17 2/3+y,1/3-x+y,1/3-z
18 2/3+x-y,1/3+x,1/3-z
_cell_length_a                   13.139(5)
_cell_length_b                   13.139(5)
_cell_length_c                   30.095(12)
_cell_angle_alpha                90
_cell_angle_beta                 90
_cell_angle_gamma                120
_cell_volume                     4499.35
_exptl_crystal_colour            colorless
_exptl_crystal_description       Block
_cell_formula_units_Z            3
loop_
_atom_site_label
_atom_site_type_symbol
_atom_site_fract_x
_atom_site_fract_y
_atom_site_fract_z
Cl1 Cl 0.0000 0.0000 0.94304(4)
Mg1 Mg 0.3333 0.6667 0.1667
O1 O 0.38527(19) 0.57380(18) 0.12678(7)
H1 H 0.407(3) 0.592(3) 0.0998(7)
H2 H 0.363(3) 0.5061(18) 0.1324(12)
O1A O 0.42620(18) 0.81147(26) 0.12678(7)
H1A H 0.408(3) 0.815(4) 0.0998(7)
H2A H 0.4939(18) 0.8569(35) 0.1324(12)
O1B O 0.18853(26) 0.61473(19) 0.12678(7)
H1B H 0.185(4) 0.593(3) 0.0998(7)
H2B H 0.1431(35) 0.637(3) 0.1324(12)
O1O O 0.28140(19) 0.75953(18) 0.20655(7)
H1O H 0.260(3) 0.741(3) 0.2335(7)
H2O H 0.304(3) 0.8272(18) 0.2009(12)
O1P O 0.24047(18) 0.52186(26) 0.20655(7)
H1P H 0.259(3) 0.518(4) 0.2335(7)
H2P H 0.1728(18) 0.4764(35) 0.2009(12)
O1Q O 0.47814(26) 0.71860(19) 0.20655(7)
H1Q H 0.482(4) 0.740(3) 0.2335(7)
H2Q H 0.5236(35) 0.696(3) 0.2009(12)
O2 O 0.01000(18) 0.35629(17) 0.88270(7)
N1 N 0.0000 0.0000 0.81436(12)
N2 N 0.0057(3) 0.1853(2) 0.87031(8)
H3 H 0.0172 0.1320 0.8819
N3 N 0.0567(2) 0.2692(2) 0.93833(8)
H4 H 0.0619 0.2079 0.9442
N4 N 0.1483(3) 0.4987(3) 1.04632(10)
C1 C 0.0299(3) 0.1174(2) 0.79907(9)
H5 H 0.0093 0.1129 0.7679
H6 H 0.1142 0.1687 0.8015
C2 C -0.0300(3) 0.1715(3) 0.82422(10)
H7 H -0.0087 0.2475 0.8115
H8 H -0.1145 0.1215 0.8220
C3 C 0.0223(2) 0.2757(2) 0.89635(9)
C4 C 0.0845(3) 0.3483(3) 0.97272(9)
C5 C 0.0918(4) 0.3105(3) 1.01543(11)
H9 H 0.0756 0.2339 1.0203
C6 C 0.1230(4) 0.3880(4) 1.04995(12)
H10 H 0.1268 0.3609 1.0781
C7 C 0.1395(3) 0.5329(3) 1.00579(12)
H11 H 0.1556 0.6099 1.0023
C8 C 0.1082(3) 0.4631(3) 0.96832(10)
H12 H 0.1031 0.4924 0.9408
O2A O -0.35629(17) -0.34629(25) 0.88270(7)
N2A N -0.1853(2) -0.1796(4) 0.87031(8)
H3A H -0.1320 -0.1148 0.8819
N3A N -0.2692(2) -0.2125(3) 0.93833(8)
H4A H -0.2079 -0.1460 0.9442
N4A N -0.4987(3) -0.3504(4) 1.04632(10)
C1A C -0.1174(2) -0.0875(4) 0.79907(9)
H5A H -0.1129 -0.1036 0.7679
H6A H -0.1687 -0.0545 0.8015
C2A C -0.1715(3) -0.2015(4) 0.82422(10)
H7A H -0.2475 -0.2562 0.8115
H8A H -0.1215 -0.2360 0.8220
C3A C -0.2757(2) -0.2534(3) 0.89635(9)
C4A C -0.3483(3) -0.2638(4) 0.97272(9)
C5A C -0.3105(3) -0.2187(5) 1.01543(11)
H9A H -0.2339 -0.1583 1.0203
C6A C -0.3880(4) -0.2650(6) 1.04995(12)
H10A H -0.3609 -0.2341 1.0781
C7A C -0.5329(3) -0.3934(4) 1.00579(12)
H11A H -0.6099 -0.4543 1.0023
C8A C -0.4631(3) -0.3549(4) 0.96832(10)
H12A H -0.4924 -0.3893 0.9408
O2B O 0.34629(25) -0.01000(18) 0.88270(7)
N2B N 0.1796(4) -0.0057(3) 0.87031(8)
H3B H 0.1148 -0.0172 0.8819
N3B N 0.2125(3) -0.0567(2) 0.93833(8)
H4B H 0.1460 -0.0619 0.9442
N4B N 0.3504(4) -0.1483(3) 1.04632(10)
C1B C 0.0875(4) -0.0299(3) 0.79907(9)
H5B H 0.1036 -0.0093 0.7679
H6B H 0.0545 -0.1142 0.8015
C2B C 0.2015(4) 0.0300(3) 0.82422(10)
H7B H 0.2562 0.0087 0.8115
H8B H 0.2360 0.1145 0.8220
C3B C 0.2534(3) -0.0223(2) 0.89635(9)
C4B C 0.2638(4) -0.0845(3) 0.97272(9)
C5B C 0.2187(5) -0.0918(4) 1.01543(11)
H9B H 0.1583 -0.0756 1.0203
C6B C 0.2650(6) -0.1230(4) 1.04995(12)
H10B H 0.2341 -0.1268 1.0781
C7B C 0.3934(4) -0.1395(3) 1.00579(12)
H11B H 0.4543 -0.1556 1.0023
C8B C 0.3549(4) -0.1082(3) 0.96832(10)
H12B H 0.3893 -0.1031 0.9408
loop_
_geom_bond_atom_site_label_1
_geom_bond_atom_site_label_2
_geom_bond_site_symmetry_1
_geom_bond_site_symmetry_2
Mg1 O1 1_555 1_555
O1 H1 1_555 1_555
H2 O1 1_555 1_555
O2 C3 1_555 1_555
N1 C1 1_555 1_555
N2 H3 1_555 1_555
N3 H4 1_555 1_555
N4 C6 1_555 1_555
C1 H5 1_555 1_555
H6 C1 1_555 1_555
C2 N2 1_555 1_555
H7 C2 1_555 1_555
H8 C2 1_555 1_555
C3 N2 1_555 1_555
C4 N3 1_555 1_555
C5 C4 1_555 1_555
H9 C5 1_555 1_555
C6 C5 1_555 1_555
H10 C6 1_555 1_555
C7 N4 1_555 1_555
H11 C7 1_555 1_555
C8 C4 1_555 1_555
H12 C8 1_555 1_555
O1A Mg1 1_555 1_555
H1A O1A 1_555 1_555
H2A O1A 1_555 1_555
O1B Mg1 1_555 1_555
H1B O1B 1_555 1_555
H2B O1B 1_555 1_555
O1O Mg1 1_555 1_555
H1O O1O 1_555 1_555
H2O O1O 1_555 1_555
O1P Mg1 1_555 1_555
H1P O1P 1_555 1_555
H2P O1P 1_555 1_555
O1Q Mg1 1_555 1_555
H1Q O1Q 1_555 1_555
H2Q O1Q 1_555 1_555
O2A C3A 1_555 1_555
N2A H3A 1_555 1_555
N3A H4A 1_555 1_555
N4A C6A 1_555 1_555
C1A N1 1_555 1_555
H5A C1A 1_555 1_555
H6A C1A 1_555 1_555
C2A N2A 1_555 1_555
H7A C2A 1_555 1_555
H8A C2A 1_555 1_555
C3A N2A 1_555 1_555
C4A N3A 1_555 1_555
C5A C4A 1_555 1_555
H9A C5A 1_555 1_555
C6A C5A 1_555 1_555
H10A C6A 1_555 1_555
C7A N4A 1_555 1_555
H11A C7A 1_555 1_555
C8A C4A 1_555 1_555
H12A C8A 1_555 1_555
O2B C3B 1_555 1_555
N2B H3B 1_555 1_555
N3B H4B 1_555 1_555
N4B C6B 1_555 1_555
C1B N1 1_555 1_555
H5B C1B 1_555 1_555
H6B C1B 1_555 1_555
C2B N2B 1_555 1_555
H7B C2B 1_555 1_555
H8B C2B 1_555 1_555
C3B N2B 1_555 1_555
C4B N3B 1_555 1_555
C5B C4B 1_555 1_555
H9B C5B 1_555 1_555
C6B C5B 1_555 1_555
H10B C6B 1_555 1_555
C7B N4B 1_555 1_555
H11B C7B 1_555 1_555
C8B C4B 1_555 1_555
H12B C8B 1_555 1_555
N3 C3 1_555 1_555
C1 C2 1_555 1_555
C7 C8 1_555 1_555
N3A C3A 1_555 1_555
C1A C2A 1_555 1_555
C7A C8A 1_555 1_555
N3B C3B 1_555 1_555
C1B C2B 1_555 1_555
C7B C8B 1_555 1_555

#END
