
#######################################################################
#
#                 Cambridge Crystallographic Data Centre
#                                CCDC 
#
#######################################################################
#
# If this CIF has been generated from an entry in the Cambridge 
# Structural Database, then it will include bibliographic, chemical, 
# crystal, experimental, refinement or atomic coordinate data resulting 
# from the CCDC's data processing and validation procedures.
#
#######################################################################

data_WITNAQ
_chemical_formula_moiety         '2(C24 H30 N10 O3),H12 Ca1 O6 2+,2(Cl1 1-)'
_chemical_name_systematic        
"hexakis(aqua)-calcium bis(1,1',1''-(nitrilotriethane-2,1-diyl)tris(3-pyridin-4-ylurea)) bis(chloride)"
_symmetry_cell_setting           rhombohedral
_symmetry_space_group_name_H-M   'R -3'
_symmetry_Int_Tables_number      148
_space_group_name_Hall           '-R 3'
loop_
_symmetry_equiv_pos_site_id
_symmetry_equiv_pos_as_xyz
1 x,y,z
2 -y,x-y,z
3 -x+y,-x,z
4 2/3+x,1/3+y,1/3+z
5 2/3-y,1/3+x-y,1/3+z
6 2/3-x+y,1/3-x,1/3+z
7 1/3+x,2/3+y,2/3+z
8 1/3-y,2/3+x-y,2/3+z
9 1/3-x+y,2/3-x,2/3+z
10 -x,-y,-z
11 y,-x+y,-z
12 x-y,x,-z
13 1/3-x,2/3-y,2/3-z
14 1/3+y,2/3-x+y,2/3-z
15 1/3+x-y,2/3+x,2/3-z
16 2/3-x,1/3-y,1/3-z
17 2/3+y,1/3-x+y,1/3-z
18 2/3+x-y,1/3+x,1/3-z
_cell_length_a                   13.241(2)
_cell_length_b                   13.241(2)
_cell_length_c                   31.070(5)
_cell_angle_alpha                90
_cell_angle_beta                 90
_cell_angle_gamma                120
_cell_volume                     4717.52
_exptl_crystal_colour            colorless
_exptl_crystal_description       Block
_cell_formula_units_Z            3
loop_
_atom_site_label
_atom_site_type_symbol
_atom_site_fract_x
_atom_site_fract_y
_atom_site_fract_z
Ca1 Ca 1.0000 1.0000 0.0000
O1 O 0.89752(16) 0.84109(15) 0.04551(5)
H1 H 0.832(3) 0.782(3) 0.0431(10)
H2 H 0.922(3) 0.834(3) 0.0729(10)
O1A O 1.15891(15) 1.05643(22) 0.04551(5)
H1A H 1.218(3) 1.050(4) 0.0431(10)
H2A H 1.166(3) 1.088(4) 0.0729(10)
O1B O 0.94357(22) 1.10248(16) 0.04551(5)
H1B H 0.950(4) 1.168(3) 0.0431(10)
H2B H 0.912(4) 1.078(3) 0.0729(10)
O1I O 1.10248(16) 1.15891(15) -0.04551(5)
H1I H 1.168(3) 1.218(3) -0.0431(10)
H2I H 1.078(3) 1.166(3) -0.0729(10)
O1J O 0.84109(15) 0.94357(22) -0.04551(5)
H1J H 0.782(3) 0.950(4) -0.0431(10)
H2J H 0.834(3) 0.912(4) -0.0729(10)
O1K O 1.05643(22) 0.89752(16) -0.04551(5)
H1K H 1.050(4) 0.832(3) -0.0431(10)
H2K H 1.088(4) 0.922(3) -0.0729(10)
Cl1 Cl 0.3333 0.6667 0.11092(3)
O2 O 0.35277(13) 1.02559(12) 0.05016(5)
N1 N 0.3333 0.6667 -0.01570(8)
N2 N 0.33891(18) 0.85023(16) 0.03938(6)
H3 H 0.3475 0.7961 0.0511
N3 N 0.39491(17) 0.93668(15) 0.10483(6)
H4 H 0.3999 0.8758 0.1107
N4 N 0.48061(19) 1.1645(2) 0.20958(7)
C1 C 0.3609(2) 0.78309(18) -0.03077(6)
H5 H 0.3377 0.7776 -0.0607
H6 H 0.4446 0.8349 -0.0293
C2 C 0.3017(2) 0.8355(2) -0.00514(7)
H7 H 0.3209 0.9105 -0.0173
H8 H 0.2178 0.7849 -0.0067
C3 C 0.36080(17) 0.94289(17) 0.06339(6)
C4 C 0.42230(18) 1.01577(19) 0.13837(7)
C5 C 0.4295(2) 0.9790(2) 0.17956(7)
H9 H 0.4151 0.9035 0.1842
C6 C 0.4582(3) 1.0552(3) 0.21330(8)
H10 H 0.4623 1.0287 0.2406
C7 C 0.4736(2) 1.1982(2) 0.17007(8)
H11 H 0.4891 1.2744 0.1665
C8 C 0.4451(2) 1.12923(19) 0.13385(7)
H12 H 0.4412 1.1582 0.1070
O2A O -0.02559(12) 0.32718(18) 0.05016(5)
N2A N 0.14977(16) 0.48868(24) 0.03938(6)
H3A H 0.2039 0.5514 0.0511
N3A N 0.06332(15) 0.45823(23) 0.10483(6)
H4A H 0.1242 0.5241 0.1107
N4A N -0.1645(2) 0.31611(28) 0.20958(7)
C1A C 0.21691(18) 0.57781(27) -0.03077(6)
H5A H 0.2224 0.5601 -0.0607
H6A H 0.1651 0.6097 -0.0293
C2A C 0.1645(2) 0.4662(3) -0.00514(7)
H7A H 0.0895 0.4104 -0.0173
H8A H 0.2151 0.4329 -0.0067
C3A C 0.05711(17) 0.41791(24) 0.06339(6)
C4A C -0.01577(19) 0.40653(26) 0.13837(7)
C5A C 0.0210(2) 0.4505(3) 0.17956(7)
H9A H 0.0965 0.5116 0.1842
C6A C -0.0552(3) 0.4030(4) 0.21330(8)
H10A H -0.0287 0.4336 0.2406
C7A C -0.1982(2) 0.2754(3) 0.17007(8)
H11A H -0.2744 0.2147 0.1665
C8A C -0.12923(19) 0.31587(28) 0.13385(7)
H12A H -0.1582 0.2830 0.1070
O2B O 0.67282(18) 0.64723(13) 0.05016(5)
N2B N 0.51132(24) 0.66109(18) 0.03938(6)
H3B H 0.4486 0.6525 0.0511
N3B N 0.54177(23) 0.60509(17) 0.10483(6)
H4B H 0.4759 0.6001 0.1107
N4B N 0.68389(28) 0.51939(19) 0.20958(7)
C1B C 0.42219(27) 0.6391(2) -0.03077(6)
H5B H 0.4399 0.6623 -0.0607
H6B H 0.3903 0.5554 -0.0293
C2B C 0.5338(3) 0.6983(2) -0.00514(7)
H7B H 0.5896 0.6791 -0.0173
H8B H 0.5671 0.7822 -0.0067
C3B C 0.58209(24) 0.63920(17) 0.06339(6)
C4B C 0.59347(26) 0.57770(18) 0.13837(7)
C5B C 0.5495(3) 0.5705(2) 0.17956(7)
H9B H 0.4884 0.5849 0.1842
C6B C 0.5970(4) 0.5418(3) 0.21330(8)
H10B H 0.5664 0.5377 0.2406
C7B C 0.7246(3) 0.5264(2) 0.17007(8)
H11B H 0.7853 0.5109 0.1665
C8B C 0.68413(28) 0.5549(2) 0.13385(7)
H12B H 0.7170 0.5588 0.1070
loop_
_geom_bond_atom_site_label_1
_geom_bond_atom_site_label_2
_geom_bond_site_symmetry_1
_geom_bond_site_symmetry_2
Ca1 O1 1_555 1_555
O1 H1 1_555 1_555
H2 O1 1_555 1_555
O2 C3 1_555 1_555
N1 C1 1_555 1_555
N2 H3 1_555 1_555
N3 H4 1_555 1_555
N4 C6 1_555 1_555
C1 H5 1_555 1_555
H6 C1 1_555 1_555
C2 N2 1_555 1_555
H7 C2 1_555 1_555
H8 C2 1_555 1_555
C3 N2 1_555 1_555
C4 N3 1_555 1_555
C5 C4 1_555 1_555
H9 C5 1_555 1_555
C6 C5 1_555 1_555
H10 C6 1_555 1_555
C7 N4 1_555 1_555
H11 C7 1_555 1_555
C8 C4 1_555 1_555
H12 C8 1_555 1_555
O1A Ca1 1_555 1_555
H1A O1A 1_555 1_555
H2A O1A 1_555 1_555
O1B Ca1 1_555 1_555
H1B O1B 1_555 1_555
H2B O1B 1_555 1_555
O1I Ca1 1_555 1_555
H1I O1I 1_555 1_555
H2I O1I 1_555 1_555
O1J Ca1 1_555 1_555
H1J O1J 1_555 1_555
H2J O1J 1_555 1_555
O1K Ca1 1_555 1_555
H1K O1K 1_555 1_555
H2K O1K 1_555 1_555
O2A C3A 1_555 1_555
N2A H3A 1_555 1_555
N3A H4A 1_555 1_555
N4A C6A 1_555 1_555
C1A N1 1_555 1_555
H5A C1A 1_555 1_555
H6A C1A 1_555 1_555
C2A N2A 1_555 1_555
H7A C2A 1_555 1_555
H8A C2A 1_555 1_555
C3A N2A 1_555 1_555
C4A N3A 1_555 1_555
C5A C4A 1_555 1_555
H9A C5A 1_555 1_555
C6A C5A 1_555 1_555
H10A C6A 1_555 1_555
C7A N4A 1_555 1_555
H11A C7A 1_555 1_555
C8A C4A 1_555 1_555
H12A C8A 1_555 1_555
O2B C3B 1_555 1_555
N2B H3B 1_555 1_555
N3B H4B 1_555 1_555
N4B C6B 1_555 1_555
C1B N1 1_555 1_555
H5B C1B 1_555 1_555
H6B C1B 1_555 1_555
C2B N2B 1_555 1_555
H7B C2B 1_555 1_555
H8B C2B 1_555 1_555
C3B N2B 1_555 1_555
C4B N3B 1_555 1_555
C5B C4B 1_555 1_555
H9B C5B 1_555 1_555
C6B C5B 1_555 1_555
H10B C6B 1_555 1_555
C7B N4B 1_555 1_555
H11B C7B 1_555 1_555
C8B C4B 1_555 1_555
H12B C8B 1_555 1_555
N3 C3 1_555 1_555
C1 C2 1_555 1_555
C7 C8 1_555 1_555
N3A C3A 1_555 1_555
C1A C2A 1_555 1_555
C7A C8A 1_555 1_555
N3B C3B 1_555 1_555
C1B C2B 1_555 1_555
C7B C8B 1_555 1_555

#END
