
#######################################################################
#
#                 Cambridge Crystallographic Data Centre
#                                CCDC 
#
#######################################################################
#
# If this CIF has been generated from an entry in the Cambridge 
# Structural Database, then it will include bibliographic, chemical, 
# crystal, experimental, refinement or atomic coordinate data resulting 
# from the CCDC's data processing and validation procedures.
#
#######################################################################

data_WITTOK
_chemical_formula_moiety         'C20 H20 N2 O2 S2'
_chemical_name_systematic        
'(E)-ethyl 4-(((1,3-dithian-2-ylidene)(phenyl)methyl)diazenyl)benzoate'
_symmetry_cell_setting           triclinic
_symmetry_space_group_name_H-M   'P -1'
_symmetry_Int_Tables_number      2
_space_group_name_Hall           '-P 1'
loop_
_symmetry_equiv_pos_site_id
_symmetry_equiv_pos_as_xyz
1 x,y,z
2 -x,-y,-z
_cell_length_a                   5.3530(2)
_cell_length_b                   12.0557(6)
_cell_length_c                   14.7571(6)
_cell_angle_alpha                97.282(2)
_cell_angle_beta                 99.665(2)
_cell_angle_gamma                98.463(3)
_cell_volume                     917.326
_exptl_crystal_colour            red
_exptl_crystal_description       rods
_cell_formula_units_Z            2
loop_
_atom_site_label
_atom_site_type_symbol
_atom_site_fract_x
_atom_site_fract_y
_atom_site_fract_z
S1 S 1.09815(9) 0.12338(4) 0.45411(3)
C1 C 1.1137(3) 0.25112(15) 0.40866(12)
S2 S 1.33876(9) 0.36837(4) 0.46785(3)
C2 C 1.5931(4) 0.29888(19) 0.52048(15)
H1 H 1.6461 0.2500 0.4705
H2 H 1.7436 0.3578 0.5502
C3 C 1.5214(4) 0.22666(17) 0.59280(14)
H3 H 1.5709 0.2737 0.6551
H4 H 1.6209 0.1637 0.5928
C4 C 1.2352(4) 0.17721(17) 0.57566(13)
H5 H 1.1412 0.2368 0.5981
H6 H 1.2099 0.1147 0.6125
C5 C 0.9443(3) 0.26252(15) 0.33116(12)
N1 N 0.7387(3) 0.17324(13) 0.30135(11)
N2 N 0.5779(3) 0.18275(13) 0.22967(11)
C6 C 0.9693(3) 0.36842(15) 0.28802(12)
C7 C 1.1522(4) 0.39036(17) 0.23265(13)
H7 H 1.2595 0.3363 0.2204
C8 C 1.1790(4) 0.49045(18) 0.19533(14)
H8 H 1.3047 0.5048 0.1579
C9 C 1.0225(4) 0.56958(17) 0.21256(14)
H9 H 1.0410 0.6382 0.1870
C10 C 0.8394(4) 0.54845(17) 0.26698(14)
H10 H 0.7315 0.6025 0.2785
C11 C 0.8126(4) 0.44846(17) 0.30483(14)
H11 H 0.6869 0.4346 0.3423
C12 C -0.0844(3) -0.07077(15) 0.16001(12)
C13 C 0.1087(4) -0.07815(16) 0.23438(13)
H12 H 0.0872 -0.1395 0.2685
C14 C 0.3301(4) 0.00223(16) 0.25903(13)
H13 H 0.4599 -0.0036 0.3098
C15 C 0.3619(3) 0.09238(15) 0.20858(12)
C16 C 0.1711(4) 0.09934(16) 0.13359(13)
H14 H 0.1939 0.1598 0.0987
C17 C -0.0520(4) 0.01864(16) 0.10957(13)
H15 H -0.1821 0.0244 0.0589
C18 C -0.3165(3) -0.16117(15) 0.13703(13)
O1 O -0.3678(3) -0.23095(12) 0.18632(10)
O2 O -0.4616(3) -0.15799(11) 0.05392(9)
C19 C -0.6796(4) -0.25006(17) 0.02157(16)
H16 H -0.8060 -0.2271 -0.0264
H17 H -0.7651 -0.2659 0.0742
C20 C -0.5932(5) -0.3555(2) -0.01860(17)
H18 H -0.7423 -0.4164 -0.0400
H19 H -0.4700 -0.3788 0.0292
H20 H -0.5107 -0.3400 -0.0712
loop_
_geom_bond_atom_site_label_1
_geom_bond_atom_site_label_2
_geom_bond_site_symmetry_1
_geom_bond_site_symmetry_2
S1 C1 1_555 1_555
C1 S2 1_555 1_555
S2 C2 1_555 1_555
C2 H1 1_555 1_555
H2 C2 1_555 1_555
C3 C2 1_555 1_555
H3 C3 1_555 1_555
H4 C3 1_555 1_555
C4 S1 1_555 1_555
H5 C4 1_555 1_555
H6 C4 1_555 1_555
C5 C1 1_555 1_555
N1 C5 1_555 1_555
N2 N1 1_555 1_555
C6 C5 1_555 1_555
C7 C6 1_555 1_555
H7 C7 1_555 1_555
C8 C7 1_555 1_555
H8 C8 1_555 1_555
C9 C8 1_555 1_555
H9 C9 1_555 1_555
C10 C9 1_555 1_555
H10 C10 1_555 1_555
C11 C6 1_555 1_555
H11 C11 1_555 1_555
C12 C13 1_555 1_555
C13 H12 1_555 1_555
C14 C13 1_555 1_555
H13 C14 1_555 1_555
C15 N2 1_555 1_555
C16 C15 1_555 1_555
H14 C16 1_555 1_555
C17 C12 1_555 1_555
H15 C17 1_555 1_555
C18 C12 1_555 1_555
O1 C18 1_555 1_555
O2 C18 1_555 1_555
C19 O2 1_555 1_555
H16 C19 1_555 1_555
H17 C19 1_555 1_555
C20 C19 1_555 1_555
H18 C20 1_555 1_555
H19 C20 1_555 1_555
H20 C20 1_555 1_555
C3 C4 1_555 1_555
C10 C11 1_555 1_555
C14 C15 1_555 1_555
C16 C17 1_555 1_555

#END
