
#######################################################################
#
#                 Cambridge Crystallographic Data Centre
#                                CCDC 
#
#######################################################################
#
# If this CIF has been generated from an entry in the Cambridge 
# Structural Database, then it will include bibliographic, chemical, 
# crystal, experimental, refinement or atomic coordinate data resulting 
# from the CCDC's data processing and validation procedures.
#
#######################################################################

data_WITTIE
_chemical_formula_moiety         'C17 H15 I1 N2 S2'
_chemical_name_systematic        
(E)-1-(1,3-Dithian-2-ylidene(phenyl)methyl)-2-(4-iodophenyl)diazene
_symmetry_cell_setting           triclinic
_symmetry_space_group_name_H-M   'P -1'
_symmetry_Int_Tables_number      2
_space_group_name_Hall           '-P 1'
loop_
_symmetry_equiv_pos_site_id
_symmetry_equiv_pos_as_xyz
1 x,y,z
2 -x,-y,-z
_cell_length_a                   10.846(1)
_cell_length_b                   12.392(1)
_cell_length_c                   12.584(2)
_cell_angle_alpha                82.08(1)
_cell_angle_beta                 80.19(1)
_cell_angle_gamma                85.35(1)
_cell_volume                     1647.83
_exptl_crystal_colour            red
_exptl_crystal_description       plates
_cell_formula_units_Z            4
loop_
_atom_site_label
_atom_site_type_symbol
_atom_site_fract_x
_atom_site_fract_y
_atom_site_fract_z
S1 S 0.20347(9) 0.87193(9) 0.00797(10)
C1 C 0.1410(3) 0.7461(4) 0.0637(4)
S2 S 0.16250(10) 0.63196(10) -0.00713(11)
C2 C 0.3166(4) 0.6432(4) -0.0898(4)
H1 H 0.3808 0.6245 -0.0418
H2 H 0.3277 0.5888 -0.1418
C3 C 0.3398(4) 0.7549(4) -0.1528(4)
H3 H 0.4187 0.7503 -0.2051
H4 H 0.2708 0.7776 -0.1950
C4 C 0.3485(4) 0.8403(4) -0.0800(4)
H5 H 0.3762 0.9081 -0.1261
H6 H 0.4135 0.8146 -0.0344
C5 C 0.0520(3) 0.7476(4) 0.1535(4)
N1 N -0.0120(3) 0.6514(3) 0.1850(3)
N2 N -0.1127(3) 0.6608(3) 0.2526(3)
C6 C 0.0244(3) 0.8420(4) 0.2173(4)
C7 C -0.0818(4) 0.9126(4) 0.2111(4)
H7 H -0.1379 0.9021 0.1636
C8 C -0.1066(4) 0.9986(4) 0.2740(4)
H8 H -0.1791 1.0462 0.2692
C9 C -0.0256(4) 1.0141(4) 0.3430(4)
H9 H -0.0428 1.0721 0.3864
C10 C 0.0805(4) 0.9458(4) 0.3492(4)
H10 H 0.1362 0.9570 0.3968
C11 C 0.1063(4) 0.8604(4) 0.2860(4)
H11 H 0.1803 0.8144 0.2897
C12 C -0.1678(4) 0.5589(4) 0.2913(4)
C13 C -0.2936(4) 0.5633(4) 0.3385(4)
H12 H -0.3401 0.6316 0.3390
C14 C -0.3513(4) 0.4678(4) 0.3848(4)
H13 H -0.4380 0.4707 0.4143
C15 C -0.2832(4) 0.3701(4) 0.3878(4)
I1 I -0.36740(3) 0.23031(3) 0.47378(3)
C16 C -0.1583(4) 0.3642(4) 0.3410(4)
H14 H -0.1119 0.2957 0.3427
C17 C -0.1012(4) 0.4582(4) 0.2916(4)
H15 H -0.0160 0.4539 0.2578
S3 S 0.70846(9) 0.87954(9) 0.00715(10)
C18 C 0.6424(3) 0.7551(4) 0.0594(4)
S4 S 0.66765(10) 0.64071(10) -0.01123(11)
C19 C 0.8277(4) 0.6496(4) -0.0811(4)
H16 H 0.8846 0.6314 -0.0267
H17 H 0.8447 0.5937 -0.1316
C20 C 0.8596(4) 0.7591(4) -0.1448(4)
H18 H 0.9434 0.7519 -0.1897
H19 H 0.7980 0.7817 -0.1945
C21 C 0.8594(4) 0.8458(4) -0.0726(4)
H20 H 0.8898 0.9130 -0.1184
H21 H 0.9199 0.8217 -0.0222
C22 C 0.5501(3) 0.7570(4) 0.1473(4)
N3 N 0.4848(3) 0.6606(3) 0.1774(3)
N4 N 0.3886(3) 0.6675(3) 0.2501(3)
C23 C 0.5220(4) 0.8516(4) 0.2116(4)
C24 C 0.5995(4) 0.8680(4) 0.2847(4)
H22 H 0.6719 0.8205 0.2913
C25 C 0.5725(4) 0.9525(4) 0.3479(4)
H23 H 0.6266 0.9629 0.3971
C26 C 0.4671(4) 1.0219(4) 0.3398(4)
H24 H 0.4467 1.0788 0.3844
C27 C 0.3915(4) 1.0065(4) 0.2646(4)
H25 H 0.3205 1.0551 0.2562
C28 C 0.4179(4) 0.9219(4) 0.2025(4)
H26 H 0.3640 0.9118 0.1530
C29 C 0.3345(3) 0.5652(4) 0.2876(4)
C30 C 0.3857(4) 0.4660(4) 0.2567(4)
H27 H 0.4567 0.4639 0.2010
C31 C 0.3336(4) 0.3695(4) 0.3068(4)
H28 H 0.3689 0.3014 0.2857
C32 C 0.2295(4) 0.3728(4) 0.3881(4)
I2 I 0.15692(3) 0.22784(3) 0.47273(3)
C33 C 0.1754(4) 0.4722(4) 0.4165(4)
H29 H 0.1026 0.4744 0.4703
C34 C 0.2279(4) 0.5679(4) 0.3664(4)
H30 H 0.1909 0.6360 0.3859
loop_
_geom_bond_atom_site_label_1
_geom_bond_atom_site_label_2
_geom_bond_site_symmetry_1
_geom_bond_site_symmetry_2
S1 C1 1_555 1_555
C1 S2 1_555 1_555
S2 C2 1_555 1_555
C2 H1 1_555 1_555
H2 C2 1_555 1_555
C3 C2 1_555 1_555
H3 C3 1_555 1_555
H4 C3 1_555 1_555
C4 S1 1_555 1_555
H5 C4 1_555 1_555
H6 C4 1_555 1_555
C5 C1 1_555 1_555
N1 C5 1_555 1_555
N2 N1 1_555 1_555
C6 C5 1_555 1_555
C7 C6 1_555 1_555
H7 C7 1_555 1_555
C8 C7 1_555 1_555
H8 C8 1_555 1_555
C9 C8 1_555 1_555
H9 C9 1_555 1_555
C10 C9 1_555 1_555
H10 C10 1_555 1_555
C11 C6 1_555 1_555
H11 C11 1_555 1_555
C12 N2 1_555 1_555
C13 C12 1_555 1_555
H12 C13 1_555 1_555
C14 C13 1_555 1_555
H13 C14 1_555 1_555
C15 C14 1_555 1_555
I1 C15 1_555 1_555
C16 C15 1_555 1_555
H14 C16 1_555 1_555
C17 C12 1_555 1_555
H15 C17 1_555 1_555
S3 C18 1_555 1_555
C18 S4 1_555 1_555
S4 C19 1_555 1_555
C19 H16 1_555 1_555
H17 C19 1_555 1_555
C20 C19 1_555 1_555
H18 C20 1_555 1_555
H19 C20 1_555 1_555
C21 S3 1_555 1_555
H20 C21 1_555 1_555
H21 C21 1_555 1_555
C22 C18 1_555 1_555
N3 C22 1_555 1_555
N4 N3 1_555 1_555
C23 C22 1_555 1_555
C24 C23 1_555 1_555
H22 C24 1_555 1_555
C25 C24 1_555 1_555
H23 C25 1_555 1_555
C26 C25 1_555 1_555
H24 C26 1_555 1_555
C27 C26 1_555 1_555
H25 C27 1_555 1_555
C28 C23 1_555 1_555
H26 C28 1_555 1_555
C29 N4 1_555 1_555
C30 C29 1_555 1_555
H27 C30 1_555 1_555
C31 C30 1_555 1_555
H28 C31 1_555 1_555
C32 C31 1_555 1_555
I2 C32 1_555 1_555
C33 C32 1_555 1_555
H29 C33 1_555 1_555
C34 C29 1_555 1_555
H30 C34 1_555 1_555
C3 C4 1_555 1_555
C10 C11 1_555 1_555
C16 C17 1_555 1_555
C20 C21 1_555 1_555
C27 C28 1_555 1_555
C33 C34 1_555 1_555

#END
