
#######################################################################
#
#                 Cambridge Crystallographic Data Centre
#                                CCDC 
#
#######################################################################
#
# If this CIF has been generated from an entry in the Cambridge 
# Structural Database, then it will include bibliographic, chemical, 
# crystal, experimental, refinement or atomic coordinate data resulting 
# from the CCDC's data processing and validation procedures.
#
#######################################################################

data_WITYUV
_chemical_formula_moiety         'C54 H42 B1 F2 N3 O6 S2'
_chemical_name_systematic        
11,11-Difluoro-1,2,4,6,8,9-hexakis(4-methoxyphenyl)-11H-12,11-bisthieno[2',3':4,5]pyrrolo[1,2-c:2',1'-f][1,3,5,2]triazaborinine
_symmetry_cell_setting           triclinic
_symmetry_space_group_name_H-M   'P -1'
_symmetry_Int_Tables_number      2
_space_group_name_Hall           '-P 1'
loop_
_symmetry_equiv_pos_site_id
_symmetry_equiv_pos_as_xyz
1 x,y,z
2 -x,-y,-z
_cell_length_a                   13.4459(12)
_cell_length_b                   17.5551(16)
_cell_length_c                   20.9947(19)
_cell_angle_alpha                92.0090(10)
_cell_angle_beta                 93.810(2)
_cell_angle_gamma                111.4960(10)
_cell_volume                     4591.36
_exptl_crystal_colour            colorless
_exptl_crystal_description       block
_cell_formula_units_Z            4
loop_
_atom_site_label
_atom_site_type_symbol
_atom_site_fract_x
_atom_site_fract_y
_atom_site_fract_z
B1 B 0.0810(4) 0.3604(3) 0.7103(2)
C1 C -0.1648(3) 0.1408(2) 0.57527(19)
C2 C -0.1099(3) 0.2165(2) 0.60700(17)
C3 C -0.0284(3) 0.2126(2) 0.65136(18)
C4 C -0.0205(3) 0.1343(2) 0.65151(17)
C5 C 0.0669(3) 0.1383(2) 0.69206(17)
C6 C 0.1089(3) 0.2215(2) 0.71909(18)
C7 C 0.2233(3) 0.3298(2) 0.78381(17)
C8 C 0.3125(3) 0.3686(2) 0.83097(17)
C9 C 0.3218(3) 0.4492(2) 0.83354(16)
C10 C 0.2438(3) 0.4599(2) 0.79000(17)
C11 C 0.2521(3) 0.5427(2) 0.78774(17)
C12 C 0.3326(3) 0.5931(2) 0.83129(16)
C13 C -0.2564(3) 0.1164(2) 0.5262(2)
C14 C -0.2681(4) 0.0577(3) 0.4771(2)
H1 H -0.2163 0.0344 0.4749
C15 C -0.3551(4) 0.0328(3) 0.4313(2)
H2 H -0.3613 -0.0066 0.3989
C16 C -0.4314(4) 0.0666(3) 0.4345(3)
C17 C -0.4240(4) 0.1242(3) 0.4833(3)
H3 H -0.4774 0.1458 0.4857
C18 C -0.3366(4) 0.1494(3) 0.5283(2)
H4 H -0.3309 0.1889 0.5605
C19 C -0.5419(5) -0.0138(3) 0.3443(3)
H5 H -0.4905 0.0065 0.3133
H6 H -0.6131 -0.0284 0.3239
H7 H -0.5344 -0.0614 0.3619
C20 C -0.1332(3) 0.2903(2) 0.59013(18)
C21 C -0.1111(3) 0.3204(2) 0.53074(19)
H8 H -0.0734 0.2987 0.5047
C22 C -0.1431(3) 0.3818(3) 0.50845(19)
H9 H -0.1256 0.4017 0.4686
C23 C -0.2003(3) 0.4124(3) 0.5456(2)
C24 C -0.2186(3) 0.3879(2) 0.6068(2)
H10 H -0.2529 0.4121 0.6333
C25 C -0.1855(3) 0.3268(2) 0.62831(18)
H11 H -0.1987 0.3098 0.6694
C26 C -0.2329(4) 0.4930(3) 0.4621(2)
H12 H -0.1586 0.5230 0.4567
H13 H -0.2734 0.5271 0.4534
H14 H -0.2593 0.4451 0.4330
C27 C 0.1132(3) 0.0762(2) 0.70423(17)
C28 C 0.0540(3) -0.0069(3) 0.68985(16)
H15 H -0.0173 -0.0234 0.6737
C29 C 0.0994(4) -0.0656(2) 0.69918(18)
H16 H 0.0593 -0.1210 0.6891
C30 C 0.2046(4) -0.0402(3) 0.7236(2)
C31 C 0.2636(3) 0.0401(3) 0.7388(2)
H17 H 0.3344 0.0560 0.7559
C32 C 0.2187(3) 0.0977(2) 0.72910(19)
H18 H 0.2601 0.1527 0.7394
C33 C 0.2238(5) -0.1615(4) 0.7124(3)
H19 H 0.1660 -0.1944 0.7359
H20 H 0.2787 -0.1842 0.7133
H21 H 0.1973 -0.1608 0.6689
C34 C 0.3778(3) 0.3284(2) 0.86329(16)
C35 C 0.3352(3) 0.2452(2) 0.87569(17)
H22 H 0.2627 0.2148 0.8652
C36 C 0.4004(3) 0.2083(2) 0.90341(17)
H23 H 0.3712 0.1528 0.9109
C37 C 0.5077(3) 0.2515(3) 0.92027(17)
C38 C 0.5502(3) 0.3345(2) 0.91042(16)
H24 H 0.6221 0.3651 0.9226
C39 C 0.4852(3) 0.3713(2) 0.88237(16)
H25 H 0.5146 0.4271 0.8760
C40 C 0.6725(3) 0.2495(2) 0.96736(18)
H26 H 0.7110 0.2773 0.9328
H27 H 0.7030 0.2112 0.9825
H28 H 0.6777 0.2889 1.0015
C41 C 0.3668(3) 0.6817(2) 0.84814(17)
C42 C 0.2963(3) 0.7223(2) 0.84445(17)
H29 H 0.2259 0.6941 0.8278
C43 C 0.3284(3) 0.8045(3) 0.86508(18)
H30 H 0.2794 0.8305 0.8619
C44 C 0.4310(3) 0.8474(3) 0.8900(2)
C45 C 0.5022(3) 0.8081(3) 0.8936(2)
H31 H 0.5728 0.8369 0.9099
C46 C 0.4705(3) 0.7262(3) 0.8733(2)
H32 H 0.5199 0.7006 0.8767
C47 C 0.4003(4) 0.9698(2) 0.9152(2)
H33 H 0.3702 0.9716 0.8728
H34 H 0.4384 1.0246 0.9333
H35 H 0.3438 0.9417 0.9413
C48 C 0.1891(3) 0.5744(2) 0.74191(17)
C49 C 0.2421(3) 0.6307(2) 0.69854(18)
H36 H 0.3160 0.6470 0.6976
C50 C 0.1848(4) 0.6623(2) 0.65686(19)
H37 H 0.2201 0.6995 0.6277
C51 C 0.0757(4) 0.6386(3) 0.65883(19)
C52 C 0.0220(3) 0.5827(2) 0.70023(18)
H38 H -0.0521 0.5658 0.7006
C53 C 0.0796(3) 0.5519(2) 0.74137(17)
H39 H 0.0432 0.5144 0.7700
C54 C -0.0849(4) 0.6354(3) 0.5989(2)
H40 H -0.0973 0.5809 0.5818
H41 H -0.1074 0.6648 0.5669
H42 H -0.1250 0.6325 0.6355
F1 F 0.10419(16) 0.40374(11) 0.65638(9)
F2 F -0.00355(15) 0.37045(11) 0.73835(9)
N1 N 0.0514(2) 0.26639(17) 0.69293(13)
N2 N 0.1895(2) 0.25134(19) 0.76386(14)
N3 N 0.1818(2) 0.38563(18) 0.75921(13)
O1 O -0.2439(2) 0.46872(17) 0.52624(14)
O2 O -0.5240(3) 0.0471(2) 0.39337(18)
O3 O 0.2608(3) -0.0916(2) 0.73673(18)
O4 O 0.5632(2) 0.20693(15) 0.94551(12)
O5 O 0.4715(2) 0.92778(17) 0.91263(14)
O6 O 0.0268(2) 0.67706(17) 0.61744(13)
S1 S -0.11706(9) 0.06448(6) 0.59836(5)
S2 S 0.40205(8) 0.54071(6) 0.87390(5)
B2 B 0.7463(3) 0.5047(3) 0.7886(2)
C55 C 1.0176(3) 0.7274(2) 0.90230(16)
C56 C 0.9328(3) 0.6801(2) 0.86001(16)
C57 C 0.9208(3) 0.5965(2) 0.86024(16)
C58 C 1.0004(3) 0.5825(2) 0.90109(15)
C59 C 0.9851(3) 0.4999(2) 0.89642(15)
C60 C 0.8882(3) 0.4633(2) 0.85416(16)
C61 C 0.7476(3) 0.3586(2) 0.80168(16)
C62 C 0.6861(3) 0.2744(2) 0.78159(16)
C63 C 0.6001(3) 0.2766(2) 0.74390(16)
C64 C 0.6099(3) 0.3587(2) 0.73832(16)
C65 C 0.5310(3) 0.3685(2) 0.69369(17)
C66 C 0.4623(3) 0.2929(2) 0.66697(17)
C67 C 1.0575(3) 0.8164(2) 0.91696(19)
C68 C 1.0886(3) 0.8510(2) 0.9788(2)
H43 H 1.0846 0.8165 1.0120
C69 C 1.1255(3) 0.9348(3) 0.9933(2)
H44 H 1.1441 0.9560 1.0355
C70 C 1.1342(3) 0.9863(3) 0.9442(2)
C71 C 1.1088(3) 0.9546(2) 0.8822(2)
H45 H 1.1173 0.9895 0.8490
C72 C 1.0706(3) 0.8709(2) 0.86903(18)
H46 H 1.0532 0.8502 0.8267
C73 C 1.1865(4) 1.1075(2) 1.0141(2)
H47 H 1.2395 1.0931 1.0382
H48 H 1.1207 1.0887 1.0345
H49 H 1.2114 1.1660 1.0121
C74 C 0.8670(3) 0.7151(2) 0.8187(2)
C75 C 0.7944(3) 0.7446(2) 0.8428(2)
H50 H 0.7835 0.7413 0.8861
C76 C 0.7373(4) 0.7789(3) 0.8040(3)
H51 H 0.6868 0.7964 0.8213
C77 C 0.7533(5) 0.7877(3) 0.7411(3)
C78 C 0.8244(4) 0.7590(3) 0.7165(2)
H52 H 0.8352 0.7637 0.6733
C79 C 0.8819(3) 0.7225(2) 0.7540(2)
H53 H 0.9301 0.7032 0.7358
C80 C 0.6212(5) 0.8431(4) 0.7172(3)
H54 H 0.6444 0.8803 0.7545
H55 H 0.5641 0.7939 0.7268
H56 H 0.5960 0.8684 0.6832
C81 C 1.0522(3) 0.4586(2) 0.92436(16)
C82 C 1.1368(3) 0.4992(2) 0.96930(17)
H57 H 1.1492 0.5532 0.9827
C83 C 1.2039(3) 0.4619(2) 0.99501(17)
H58 H 1.2597 0.4907 1.0256
C84 C 1.1881(3) 0.3826(2) 0.97544(18)
C85 C 1.1043(3) 0.3403(2) 0.93053(17)
H59 H 1.0927 0.2864 0.9173
C86 C 1.0376(3) 0.3775(2) 0.90521(16)
H60 H 0.9817 0.3482 0.8748
C87 C 1.3511(3) 0.3857(2) 1.03092(18)
H61 H 1.3401 0.4030 1.0729
H62 H 1.3884 0.4330 1.0083
H63 H 1.3930 0.3518 1.0345
C88 C 0.7145(3) 0.2033(2) 0.79741(16)
C89 C 0.8192(3) 0.2075(2) 0.79503(16)
H64 H 0.8715 0.2560 0.7845
C90 C 0.8479(3) 0.1410(2) 0.80800(17)
H65 H 0.9184 0.1449 0.8058
C91 C 0.7707(3) 0.0691(2) 0.82418(18)
C92 C 0.6665(3) 0.0642(2) 0.82726(18)
H66 H 0.6148 0.0158 0.8387
C93 C 0.6381(3) 0.1301(2) 0.81361(16)
H67 H 0.5673 0.1256 0.8153
C94 C 0.8918(4) -0.0019(2) 0.8270(2)
H68 H 0.9467 0.0419 0.8523
H69 H 0.9029 0.0046 0.7825
H70 H 0.8949 -0.0535 0.8385
C95 C 0.3678(3) 0.2707(2) 0.62079(17)
C96 C 0.3024(3) 0.3162(2) 0.61765(17)
H71 H 0.3202 0.3636 0.6442
C97 C 0.2114(3) 0.2919(2) 0.57579(18)
H72 H 0.1688 0.3234 0.5738
C98 C 0.1835(3) 0.2214(3) 0.53695(19)
C99 C 0.2455(3) 0.1748(2) 0.53834(19)
H73 H 0.2268 0.1275 0.5116
C100 C 0.3369(3) 0.1996(2) 0.58050(19)
H74 H 0.3791 0.1678 0.5820
C101 C 0.0576(4) 0.1330(3) 0.4564(2)
H75 H 0.0435 0.0857 0.4811
H76 H 0.1135 0.1365 0.4292
H77 H -0.0064 0.1283 0.4307
C102 C 0.5271(3) 0.4477(2) 0.67312(18)
C103 C 0.5029(3) 0.5001(2) 0.71447(18)
H78 H 0.4896 0.4861 0.7562
C104 C 0.4983(3) 0.5728(2) 0.6947(2)
H79 H 0.4825 0.6076 0.7233
C105 C 0.5165(3) 0.5939(3) 0.6338(2)
C106 C 0.5427(3) 0.5444(3) 0.5918(2)
H80 H 0.5573 0.5597 0.5504
C107 C 0.5473(3) 0.4709(2) 0.61170(19)
H81 H 0.5643 0.4368 0.5831
C108 C 0.5372(5) 0.6968(3) 0.5587(3)
H82 H 0.4863 0.6625 0.5256
H83 H 0.6071 0.6964 0.5524
H84 H 0.5391 0.7519 0.5573
F3 F 0.76430(14) 0.54268(11) 0.73208(9)
F4 F 0.67661(15) 0.52899(11) 0.82274(10)
N4 N 0.7000(2) 0.41007(16) 0.77479(13)
N5 N 0.8364(2) 0.38360(17) 0.84029(13)
N6 N 0.8521(2) 0.52296(17) 0.83128(13)
O7 O 0.7065(3) 0.8236(2) 0.69839(19)
O8 O 1.1686(2) 1.07029(17) 0.95164(15)
O9 O 1.2499(2) 0.34029(15) 0.99689(12)
O10 O 0.7900(2) -0.00018(15) 0.83825(13)
O11 O 0.0901(2) 0.20411(17) 0.49788(14)
O12 O 0.5069(3) 0.66697(18) 0.61880(16)
S3 S 1.08455(7) 0.67215(6) 0.94165(4)
S4 S 0.49374(8) 0.20979(6) 0.69534(5)
loop_
_geom_bond_atom_site_label_1
_geom_bond_atom_site_label_2
_geom_bond_site_symmetry_1
_geom_bond_site_symmetry_2
B1 F1 1_555 1_555
C1 C2 1_555 1_555
C2 C3 1_555 1_555
C3 C4 1_555 1_555
C4 C5 1_555 1_555
C5 C6 1_555 1_555
C6 N1 1_555 1_555
C7 C8 1_555 1_555
C8 C9 1_555 1_555
C9 C10 1_555 1_555
C10 C11 1_555 1_555
C11 C12 1_555 1_555
C12 C41 1_555 1_555
C13 C1 1_555 1_555
C14 C13 1_555 1_555
H1 C14 1_555 1_555
C15 C14 1_555 1_555
H2 C15 1_555 1_555
C16 C15 1_555 1_555
C17 C16 1_555 1_555
H3 C17 1_555 1_555
C18 C13 1_555 1_555
H4 C18 1_555 1_555
C19 H5 1_555 1_555
H6 C19 1_555 1_555
H7 C19 1_555 1_555
C20 C2 1_555 1_555
C21 C20 1_555 1_555
H8 C21 1_555 1_555
C22 C21 1_555 1_555
H9 C22 1_555 1_555
C23 C22 1_555 1_555
C24 C23 1_555 1_555
H10 C24 1_555 1_555
C25 C20 1_555 1_555
H11 C25 1_555 1_555
C26 H12 1_555 1_555
H13 C26 1_555 1_555
H14 C26 1_555 1_555
C27 C5 1_555 1_555
C28 C27 1_555 1_555
H15 C28 1_555 1_555
C29 C28 1_555 1_555
H16 C29 1_555 1_555
C30 C29 1_555 1_555
C31 C30 1_555 1_555
H17 C31 1_555 1_555
C32 C27 1_555 1_555
H18 C32 1_555 1_555
C33 H19 1_555 1_555
H20 C33 1_555 1_555
H21 C33 1_555 1_555
C34 C8 1_555 1_555
C35 C34 1_555 1_555
H22 C35 1_555 1_555
C36 C35 1_555 1_555
H23 C36 1_555 1_555
C37 C36 1_555 1_555
C38 C37 1_555 1_555
H24 C38 1_555 1_555
C39 C34 1_555 1_555
H25 C39 1_555 1_555
C40 H26 1_555 1_555
H27 C40 1_555 1_555
H28 C40 1_555 1_555
C41 C42 1_555 1_555
C42 H29 1_555 1_555
C43 C42 1_555 1_555
H30 C43 1_555 1_555
C44 C43 1_555 1_555
C45 C44 1_555 1_555
H31 C45 1_555 1_555
C46 C41 1_555 1_555
H32 C46 1_555 1_555
C47 H33 1_555 1_555
H34 C47 1_555 1_555
H35 C47 1_555 1_555
C48 C11 1_555 1_555
C49 C48 1_555 1_555
H36 C49 1_555 1_555
C50 C49 1_555 1_555
H37 C50 1_555 1_555
C51 C50 1_555 1_555
C52 C51 1_555 1_555
H38 C52 1_555 1_555
C53 C48 1_555 1_555
H39 C53 1_555 1_555
C54 H40 1_555 1_555
H41 C54 1_555 1_555
H42 C54 1_555 1_555
F2 B1 1_555 1_555
N1 B1 1_555 1_555
N2 C6 1_555 1_555
N3 B1 1_555 1_555
O1 C23 1_555 1_555
O2 C16 1_555 1_555
O3 C30 1_555 1_555
O4 C37 1_555 1_555
O5 C44 1_555 1_555
O6 C51 1_555 1_555
S1 C1 1_555 1_555
S2 C9 1_555 1_555
B2 F3 1_555 1_555
C55 C56 1_555 1_555
C56 C57 1_555 1_555
C57 C58 1_555 1_555
C58 C59 1_555 1_555
C59 C60 1_555 1_555
C60 N5 1_555 1_555
C61 C62 1_555 1_555
C62 C63 1_555 1_555
C63 C64 1_555 1_555
C64 C65 1_555 1_555
C65 C66 1_555 1_555
C66 C95 1_555 1_555
C67 C55 1_555 1_555
C68 C67 1_555 1_555
H43 C68 1_555 1_555
C69 C68 1_555 1_555
H44 C69 1_555 1_555
C70 C69 1_555 1_555
C71 C70 1_555 1_555
H45 C71 1_555 1_555
C72 C67 1_555 1_555
H46 C72 1_555 1_555
C73 H47 1_555 1_555
H48 C73 1_555 1_555
H49 C73 1_555 1_555
C74 C56 1_555 1_555
C75 C74 1_555 1_555
H50 C75 1_555 1_555
C76 C75 1_555 1_555
H51 C76 1_555 1_555
C77 C76 1_555 1_555
C78 C77 1_555 1_555
H52 C78 1_555 1_555
C79 C74 1_555 1_555
H53 C79 1_555 1_555
C80 H54 1_555 1_555
H55 C80 1_555 1_555
H56 C80 1_555 1_555
C81 C59 1_555 1_555
C82 C81 1_555 1_555
H57 C82 1_555 1_555
C83 C82 1_555 1_555
H58 C83 1_555 1_555
C84 C83 1_555 1_555
C85 C84 1_555 1_555
H59 C85 1_555 1_555
C86 C81 1_555 1_555
H60 C86 1_555 1_555
C87 H61 1_555 1_555
H62 C87 1_555 1_555
H63 C87 1_555 1_555
C88 C62 1_555 1_555
C89 C88 1_555 1_555
H64 C89 1_555 1_555
C90 C89 1_555 1_555
H65 C90 1_555 1_555
C91 C90 1_555 1_555
C92 C91 1_555 1_555
H66 C92 1_555 1_555
C93 C88 1_555 1_555
H67 C93 1_555 1_555
C94 H68 1_555 1_555
H69 C94 1_555 1_555
H70 C94 1_555 1_555
C95 C96 1_555 1_555
C96 H71 1_555 1_555
C97 C96 1_555 1_555
H72 C97 1_555 1_555
C98 C97 1_555 1_555
C99 C98 1_555 1_555
H73 C99 1_555 1_555
C100 C95 1_555 1_555
H74 C100 1_555 1_555
C101 H75 1_555 1_555
H76 C101 1_555 1_555
H77 C101 1_555 1_555
C102 C65 1_555 1_555
C103 C102 1_555 1_555
H78 C103 1_555 1_555
C104 C103 1_555 1_555
H79 C104 1_555 1_555
C105 C104 1_555 1_555
C106 C105 1_555 1_555
H80 C106 1_555 1_555
C107 C102 1_555 1_555
H81 C107 1_555 1_555
C108 H82 1_555 1_555
H83 C108 1_555 1_555
H84 C108 1_555 1_555
F4 B2 1_555 1_555
N4 B2 1_555 1_555
N5 C61 1_555 1_555
N6 B2 1_555 1_555
O7 C77 1_555 1_555
O8 C70 1_555 1_555
O9 C84 1_555 1_555
O10 C91 1_555 1_555
O11 C98 1_555 1_555
O12 C105 1_555 1_555
S3 C55 1_555 1_555
S4 C63 1_555 1_555
C3 N1 1_555 1_555
C4 S1 1_555 1_555
C7 N2 1_555 1_555
C7 N3 1_555 1_555
C10 N3 1_555 1_555
C12 S2 1_555 1_555
C17 C18 1_555 1_555
C19 O2 1_555 1_555
C24 C25 1_555 1_555
C26 O1 1_555 1_555
C31 C32 1_555 1_555
C33 O3 1_555 1_555
C38 C39 1_555 1_555
C40 O4 1_555 1_555
C45 C46 1_555 1_555
C47 O5 1_555 1_555
C52 C53 1_555 1_555
C54 O6 1_555 1_555
C57 N6 1_555 1_555
C58 S3 1_555 1_555
C60 N6 1_555 1_555
C61 N4 1_555 1_555
C64 N4 1_555 1_555
C66 S4 1_555 1_555
C71 C72 1_555 1_555
C73 O8 1_555 1_555
C78 C79 1_555 1_555
C80 O7 1_555 1_555
C85 C86 1_555 1_555
C87 O9 1_555 1_555
C92 C93 1_555 1_555
C94 O10 1_555 1_555
C99 C100 1_555 1_555
C101 O11 1_555 1_555
C106 C107 1_555 1_555
C108 O12 1_555 1_555

#END
