
#######################################################################
#
#                 Cambridge Crystallographic Data Centre
#                                CCDC 
#
#######################################################################
#
# If this CIF has been generated from an entry in the Cambridge 
# Structural Database, then it will include bibliographic, chemical, 
# crystal, experimental, refinement or atomic coordinate data resulting 
# from the CCDC's data processing and validation procedures.
#
#######################################################################

data_WITYOP
_chemical_formula_moiety         'C30 H27 N1 O5 S1'
_chemical_name_systematic        
'Ethyl 2,3,6-tris(4-methoxyphenyl)-4H-thieno[3,2-b]pyrrole-5-carboxylate unknown solvate'
_symmetry_cell_setting           monoclinic
_symmetry_space_group_name_H-M   'P 21/c'
_symmetry_Int_Tables_number      14
_space_group_name_Hall           '-P 2ybc'
loop_
_symmetry_equiv_pos_site_id
_symmetry_equiv_pos_as_xyz
1 x,y,z
2 -x,1/2+y,1/2-z
3 -x,-y,-z
4 x,1/2-y,1/2+z
_cell_length_a                   8.9414(10)
_cell_length_b                   28.522(3)
_cell_length_c                   23.2853(19)
_cell_angle_alpha                90
_cell_angle_beta                 110.371(3)
_cell_angle_gamma                90
_cell_volume                     5566.98
_exptl_crystal_colour            colorless
_exptl_crystal_description       block
_cell_formula_units_Z            8
loop_
_atom_site_label
_atom_site_type_symbol
_atom_site_fract_x
_atom_site_fract_y
_atom_site_fract_z
C1 C 0.3757(3) 0.06260(9) 0.69687(11)
C2 C 0.2756(3) 0.08626(9) 0.64537(12)
C3 C 0.2613(3) 0.05546(9) 0.59612(11)
C4 C 0.3482(3) 0.01504(9) 0.61746(11)
C5 C 0.3443(3) -0.01848(9) 0.57202(11)
C6 C 0.2560(3) -0.00160(9) 0.51483(11)
C7 C 0.4377(3) 0.07369(9) 0.76206(12)
C8 C 0.4369(5) 0.12651(13) 0.83991(15)
H1 H 0.4214 0.1016 0.8657
H2 H 0.5501 0.1332 0.8526
C9 C 0.3509(8) 0.1681(2) 0.8461(2)
H3 H 0.3682 0.1927 0.8210
H4 H 0.3885 0.1780 0.8882
H5 H 0.2390 0.1612 0.8334
C10 C 0.1971(3) 0.13229(9) 0.63798(12)
C11 C 0.2791(4) 0.17300(11) 0.66453(15)
H6 H 0.3846 0.1708 0.6907
C12 C 0.2059(4) 0.21664(11) 0.65266(16)
H7 H 0.2627 0.2433 0.6706
C13 C 0.0505(4) 0.22048(10) 0.61461(15)
C14 C -0.0337(4) 0.18055(11) 0.58870(15)
H8 H -0.1403 0.1828 0.5638
C15 C 0.0400(3) 0.13759(10) 0.59974(13)
H9 H -0.0174 0.1112 0.5809
C16 C 0.2308(3) -0.02165(9) 0.45395(11)
C17 C 0.0941(3) -0.01101(9) 0.40424(12)
H10 H 0.0154 0.0074 0.4105
C18 C 0.0720(3) -0.02713(10) 0.34558(12)
H11 H -0.0201 -0.0194 0.3131
C19 C 0.1870(4) -0.05446(9) 0.33590(12)
C20 C 0.3228(3) -0.06640(9) 0.38447(12)
H12 H 0.3989 -0.0859 0.3780
C21 C 0.3459(3) -0.04952(9) 0.44246(12)
H13 H 0.4396 -0.0568 0.4744
C22 C 0.0591(6) -0.05516(17) 0.22774(16)
H14 H -0.0433 -0.0645 0.2286
H15 H 0.0735 -0.0677 0.1918
H16 H 0.0647 -0.0216 0.2270
C23 C 0.4252(3) -0.06466(9) 0.58461(11)
C24 C 0.5885(3) -0.06746(9) 0.61503(12)
H17 H 0.6463 -0.0402 0.6297
C25 C 0.6672(4) -0.11016(11) 0.62394(15)
H18 H 0.7771 -0.1115 0.6436
C26 C 0.5813(4) -0.15057(11) 0.60344(15)
C27 C 0.4194(4) -0.14880(10) 0.57430(15)
H19 H 0.3621 -0.1763 0.5607
C28 C 0.3405(4) -0.10595(10) 0.56503(13)
H20 H 0.2304 -0.1049 0.5456
C29 C 0.8131(8) -0.19899(19) 0.6356(3)
H21 H 0.8584 -0.1834 0.6090
H22 H 0.8426 -0.2315 0.6389
H23 H 0.8525 -0.1848 0.6754
C30 C 0.0475(6) 0.30377(13) 0.6269(2)
H24 H 0.0697 0.3029 0.6703
H25 H -0.0194 0.3302 0.6095
H26 H 0.1458 0.3066 0.6191
N1 N 0.4182(3) 0.01927(7) 0.67934(9)
H27 H 0.4785 -0.0013 0.7035
O1 O 0.5349(3) 0.04927(7) 0.79955(9)
O2 O 0.3764(3) 0.11206(8) 0.77594(9)
O3 O -0.0319(3) 0.26171(8) 0.59968(13)
O4 O 0.1802(3) -0.07237(8) 0.28046(10)
O5 O 0.6463(4) -0.19505(9) 0.61154(14)
S1 S 0.17573(8) 0.05426(2) 0.51737(3)
C31 C 0.3583(3) 0.43057(9) 0.62702(11)
C32 C 0.3627(3) 0.40605(9) 0.57569(12)
C33 C 0.3170(3) 0.43935(9) 0.52785(11)
C34 C 0.2871(3) 0.48216(9) 0.55040(11)
C35 C 0.2456(3) 0.51956(9) 0.50734(11)
C36 C 0.2432(3) 0.50383(9) 0.45147(11)
C37 C 0.3892(3) 0.41624(10) 0.69032(12)
C38 C 0.4385(5) 0.35099(13) 0.75767(16)
H28 H 0.3381 0.3435 0.7628
H29 H 0.4949 0.3736 0.7888
C39 C 0.5362(7) 0.30790(15) 0.7635(2)
H30 H 0.4884 0.2882 0.7285
H31 H 0.5411 0.2913 0.8000
H32 H 0.6420 0.3164 0.7658
C40 C 0.4085(3) 0.35672(9) 0.57152(12)
C41 C 0.5574(4) 0.33932(12) 0.60570(16)
H33 H 0.6330 0.3594 0.6316
C42 C 0.5954(5) 0.29378(14) 0.6022(2)
H34 H 0.6974 0.2834 0.6252
C43 C 0.4885(5) 0.26275(13) 0.56606(19)
C44 C 0.3437(5) 0.27895(13) 0.52929(19)
H35 H 0.2708 0.2586 0.5027
C45 C 0.3043(4) 0.32618(11) 0.53146(16)
H36 H 0.2062 0.3371 0.5054
C46 C 0.4292(8) 0.18276(15) 0.5418(3)
H37 H 0.3421 0.1845 0.5569
H38 H 0.4792 0.1526 0.5514
H39 H 0.3897 0.1872 0.4982
C47 C 0.1978(3) 0.52834(9) 0.39198(11)
C48 C 0.2807(3) 0.52031(10) 0.35213(12)
H40 H 0.3662 0.4996 0.3639
C49 C 0.2402(3) 0.54205(10) 0.29588(13)
H41 H 0.2991 0.5364 0.2706
C50 C 0.1120(4) 0.57214(11) 0.27751(13)
C51 C 0.0249(4) 0.58006(11) 0.31589(14)
H42 H -0.0628 0.6000 0.3034
C52 C 0.0677(3) 0.55850(10) 0.37230(13)
H43 H 0.0088 0.5642 0.3975
C53 C 0.1484(5) 0.59033(15) 0.18281(17)
H44 H 0.2576 0.5990 0.2038
H45 H 0.1033 0.6101 0.1476
H46 H 0.1434 0.5582 0.1700
C54 C 0.2124(3) 0.56789(9) 0.52250(11)
C55 C 0.1152(3) 0.57540(9) 0.55687(13)
H47 H 0.0705 0.5498 0.5697
C56 C 0.0836(4) 0.61985(10) 0.57237(14)
H48 H 0.0191 0.6240 0.5959
C57 C 0.1470(4) 0.65813(10) 0.55328(14)
C58 C 0.2449(4) 0.65205(10) 0.51924(14)
H49 H 0.2883 0.6779 0.5063
C59 C 0.2780(3) 0.60681(10) 0.50456(13)
H50 H 0.3454 0.6026 0.4823
C60 C 0.1835(7) 0.74048(13) 0.5610(2)
H51 H 0.2956 0.7340 0.5734
H52 H 0.1663 0.7660 0.5849
H53 H 0.1434 0.7488 0.5184
N2 N 0.3140(3) 0.47654(8) 0.61143(10)
O6 O 0.3937(3) 0.44251(7) 0.73091(9)
O7 O 0.4103(3) 0.37002(7) 0.69738(9)
O8 O 0.5384(5) 0.21707(10) 0.56888(19)
O9 O 0.0609(3) 0.59580(9) 0.22287(10)
O10 O 0.1038(4) 0.70078(8) 0.57017(13)
S2 S 0.29466(8) 0.44425(2) 0.45169(3)
H54 H 0.322(5) 0.5001(15) 0.6348(19)
loop_
_geom_bond_atom_site_label_1
_geom_bond_atom_site_label_2
_geom_bond_site_symmetry_1
_geom_bond_site_symmetry_2
C1 C2 1_555 1_555
C2 C3 1_555 1_555
C3 C4 1_555 1_555
C4 C5 1_555 1_555
C5 C6 1_555 1_555
C6 C16 1_555 1_555
C7 C1 1_555 1_555
C8 H1 1_555 1_555
H2 C8 1_555 1_555
C9 C8 1_555 1_555
H3 C9 1_555 1_555
H4 C9 1_555 1_555
H5 C9 1_555 1_555
C10 C2 1_555 1_555
C11 C10 1_555 1_555
H6 C11 1_555 1_555
C12 C11 1_555 1_555
H7 C12 1_555 1_555
C13 C12 1_555 1_555
C14 C13 1_555 1_555
H8 C14 1_555 1_555
C15 C10 1_555 1_555
H9 C15 1_555 1_555
C16 C17 1_555 1_555
C17 H10 1_555 1_555
C18 C17 1_555 1_555
H11 C18 1_555 1_555
C19 C18 1_555 1_555
C20 C19 1_555 1_555
H12 C20 1_555 1_555
C21 C16 1_555 1_555
H13 C21 1_555 1_555
C22 H14 1_555 1_555
H15 C22 1_555 1_555
H16 C22 1_555 1_555
C23 C5 1_555 1_555
C24 C23 1_555 1_555
H17 C24 1_555 1_555
C25 C24 1_555 1_555
H18 C25 1_555 1_555
C26 C25 1_555 1_555
C27 C26 1_555 1_555
H19 C27 1_555 1_555
C28 C23 1_555 1_555
H20 C28 1_555 1_555
C29 H21 1_555 1_555
H22 C29 1_555 1_555
H23 C29 1_555 1_555
C30 H24 1_555 1_555
H25 C30 1_555 1_555
H26 C30 1_555 1_555
N1 C1 1_555 1_555
H27 N1 1_555 1_555
O1 C7 1_555 1_555
O2 C7 1_555 1_555
O3 C13 1_555 1_555
O4 C19 1_555 1_555
O5 C26 1_555 1_555
S1 C3 1_555 1_555
C31 C32 1_555 1_555
C32 C33 1_555 1_555
C33 C34 1_555 1_555
C34 C35 1_555 1_555
C35 C36 1_555 1_555
C36 C47 1_555 1_555
C37 C31 1_555 1_555
C38 H28 1_555 1_555
H29 C38 1_555 1_555
C39 C38 1_555 1_555
H30 C39 1_555 1_555
H31 C39 1_555 1_555
H32 C39 1_555 1_555
C40 C32 1_555 1_555
C41 C40 1_555 1_555
H33 C41 1_555 1_555
C42 C41 1_555 1_555
H34 C42 1_555 1_555
C43 C42 1_555 1_555
C44 C43 1_555 1_555
H35 C44 1_555 1_555
C45 C40 1_555 1_555
H36 C45 1_555 1_555
C46 H37 1_555 1_555
H38 C46 1_555 1_555
H39 C46 1_555 1_555
C47 C48 1_555 1_555
C48 H40 1_555 1_555
C49 C48 1_555 1_555
H41 C49 1_555 1_555
C50 C49 1_555 1_555
C51 C50 1_555 1_555
H42 C51 1_555 1_555
C52 C47 1_555 1_555
H43 C52 1_555 1_555
C53 H44 1_555 1_555
H45 C53 1_555 1_555
H46 C53 1_555 1_555
C54 C35 1_555 1_555
C55 C54 1_555 1_555
H47 C55 1_555 1_555
C56 C55 1_555 1_555
H48 C56 1_555 1_555
C57 C56 1_555 1_555
C58 C57 1_555 1_555
H49 C58 1_555 1_555
C59 C54 1_555 1_555
H50 C59 1_555 1_555
C60 H51 1_555 1_555
H52 C60 1_555 1_555
H53 C60 1_555 1_555
N2 C31 1_555 1_555
O6 C37 1_555 1_555
O7 C37 1_555 1_555
O8 C43 1_555 1_555
O9 C50 1_555 1_555
O10 C57 1_555 1_555
S2 C33 1_555 1_555
H54 N2 1_555 1_555
C4 N1 1_555 1_555
C6 S1 1_555 1_555
C8 O2 1_555 1_555
C14 C15 1_555 1_555
C20 C21 1_555 1_555
C22 O4 1_555 1_555
C27 C28 1_555 1_555
C29 O5 1_555 1_555
C30 O3 1_555 1_555
C34 N2 1_555 1_555
C36 S2 1_555 1_555
C38 O7 1_555 1_555
C44 C45 1_555 1_555
C46 O8 1_555 1_555
C51 C52 1_555 1_555
C53 O9 1_555 1_555
C58 C59 1_555 1_555
C60 O10 1_555 1_555

#END
