
#######################################################################
#
#                 Cambridge Crystallographic Data Centre
#                                CCDC 
#
#######################################################################
#
# If this CIF has been generated from an entry in the Cambridge 
# Structural Database, then it will include bibliographic, chemical, 
# crystal, experimental, refinement or atomic coordinate data resulting 
# from the CCDC's data processing and validation procedures.
#
#######################################################################

data_WITZEG
_chemical_formula_moiety         
'C34 H40 Cl1 N2 1+,C18 Cl12 O6 P1 1-,1.5(C4 H10 O1)'
_chemical_name_systematic        
'2-(2-(2-Chloro-3-(2-(1-ethyl-3,3-dimethyl-1,3-dihydro-2H-indol-2-ylidene)ethylidene)cyclohex-1-en-1-yl)vinyl)-1-ethyl-3,3-dimethyl-3H-indolium tris(3,4,5,6-tetrachlorobenzene-1,2-diolato)phosphate diethyl ether solvate'
_symmetry_cell_setting           triclinic
_symmetry_space_group_name_H-M   'P -1'
_symmetry_Int_Tables_number      2
_space_group_name_Hall           '-P 1'
loop_
_symmetry_equiv_pos_site_id
_symmetry_equiv_pos_as_xyz
1 x,y,z
2 -x,-y,-z
_cell_length_a                   12.8224(3)
_cell_length_b                   14.2116(3)
_cell_length_c                   18.3477(4)
_cell_angle_alpha                98.9303(18)
_cell_angle_beta                 107.070(2)
_cell_angle_gamma                101.931(2)
_cell_volume                     3042.64
_exptl_crystal_colour            'yellow green'
_exptl_crystal_description       needle
_cell_formula_units_Z            2
loop_
_atom_site_label
_atom_site_type_symbol
_atom_site_fract_x
_atom_site_fract_y
_atom_site_fract_z
Cl2 Cl 0.09827(8) 0.04027(6) -0.04101(5)
Cl3 Cl -0.00026(8) 0.06692(6) -0.21186(4)
Cl4 Cl -0.06981(9) 0.25917(7) -0.23855(5)
Cl5 Cl -0.05851(9) 0.41825(7) -0.09439(5)
Cl6 Cl -0.37300(7) 0.10242(8) 0.03982(6)
Cl7 Cl -0.42065(11) -0.00764(11) 0.16830(8)
Cl8 Cl -0.22080(13) 0.00812(10) 0.32088(8)
Cl9 Cl 0.02535(9) 0.13342(8) 0.34382(5)
Cl10 Cl -0.05256(7) 0.53812(7) 0.29840(5)
Cl11 Cl 0.18118(8) 0.67692(7) 0.41368(5)
Cl12 Cl 0.40607(8) 0.63904(8) 0.39985(6)
Cl13 Cl 0.39789(7) 0.46243(8) 0.26880(6)
P1 P 0.01507(6) 0.28422(6) 0.13031(4)
O1 O 0.05445(18) 0.19539(16) 0.07810(12)
O2 O -0.00505(19) 0.34309(16) 0.05551(12)
O3 O -0.12637(18) 0.22095(17) 0.09062(13)
O4 O 0.03194(18) 0.22353(17) 0.20538(13)
O5 O -0.02151(17) 0.37610(17) 0.18258(13)
O6 O 0.15545(18) 0.34557(17) 0.17246(13)
C36 C 0.0317(3) 0.2026(2) 0.00289(18)
C37 C 0.0417(3) 0.1378(2) -0.05743(18)
C38 C 0.0063(3) 0.1549(2) -0.13316(19)
C39 C -0.0270(3) 0.2393(2) -0.14559(18)
C40 C -0.0268(3) 0.3092(2) -0.08269(19)
C41 C -0.0019(3) 0.2872(2) -0.01020(18)
C42 C -0.1588(3) 0.1669(2) 0.13827(18)
C43 C -0.2671(3) 0.1117(3) 0.1255(2)
C44 C -0.2854(3) 0.0625(3) 0.1823(3)
C45 C -0.1965(4) 0.0691(3) 0.2502(2)
C46 C -0.0865(3) 0.1242(3) 0.2620(2)
C47 C -0.0690(3) 0.1706(2) 0.20481(19)
C48 C 0.0712(2) 0.4417(2) 0.23606(17)
C49 C 0.0720(3) 0.5182(2) 0.29197(18)
C50 C 0.1776(3) 0.5809(2) 0.34262(18)
C51 C 0.2777(3) 0.5647(3) 0.3364(2)
C52 C 0.2755(3) 0.4858(3) 0.2790(2)
C53 C 0.1721(3) 0.4246(2) 0.22995(17)
Cl1 Cl 0.35016(8) 0.17722(6) 0.59284(5)
N1 N 0.2849(2) 0.0442(2) 0.22983(15)
N2 N 0.2974(2) 0.5071(2) 0.85138(18)
C1 C 0.3179(3) 0.0707(3) 0.30840(18)
C2 C 0.3632(3) -0.0107(3) 0.34197(19)
C3 C 0.3462(3) -0.0849(3) 0.2681(2)
C4 C 0.3660(3) -0.1773(3) 0.2571(3)
H1 H 0.3965 -0.2039 0.3006
C5 C 0.3399(4) -0.2302(3) 0.1804(3)
H2 H 0.3526 -0.2939 0.1718
C6 C 0.2960(3) -0.1923(3) 0.1171(2)
H3 H 0.2798 -0.2301 0.0657
C7 C 0.2751(3) -0.0995(3) 0.1268(2)
H4 H 0.2449 -0.0728 0.0833
C8 C 0.3007(3) -0.0484(3) 0.2034(2)
C9 C 0.2357(3) 0.1013(3) 0.17489(19)
H5 H 0.1967 0.1434 0.1993
H6 H 0.1787 0.0553 0.1270
C10 C 0.3251(4) 0.1656(4) 0.1527(3)
H7 H 0.3781 0.2148 0.1993
H8 H 0.2891 0.1992 0.1135
H9 H 0.3662 0.1244 0.1307
C11 C 0.2928(4) -0.0600(3) 0.3890(2)
H10 H 0.2119 -0.0735 0.3597
H11 H 0.3111 -0.0153 0.4401
H12 H 0.3112 -0.1221 0.3968
C12 C 0.4891(3) 0.0270(3) 0.3907(2)
H13 H 0.5153 -0.0264 0.4119
H14 H 0.5006 0.0824 0.4339
H15 H 0.5321 0.0492 0.3575
C13 C 0.3103(3) 0.1592(3) 0.34832(19)
H16 H 0.2907 0.2067 0.3194
C14 C 0.3300(3) 0.1816(3) 0.42844(19)
H17 H 0.3552 0.1354 0.4569
C15 C 0.3162(3) 0.2657(3) 0.47074(18)
C16 C 0.3262(3) 0.2766(2) 0.55016(19)
C17 C 0.3178(3) 0.3599(3) 0.59777(19)
C18 C 0.3003(4) 0.4461(3) 0.5615(2)
H18 H 0.3748 0.4913 0.5697
H19 H 0.2587 0.4832 0.5877
C19 C 0.2340(5) 0.4114(4) 0.4740(2)
H20 H 0.1565 0.3722 0.4660
H21 H 0.2277 0.4696 0.4512
C20 C 0.2910(3) 0.3492(3) 0.4323(2)
H22 H 0.3627 0.3917 0.4322
H23 H 0.2414 0.3212 0.3771
C21 C 0.3244(3) 0.3632(3) 0.6757(2)
H24 H 0.3359 0.3065 0.6949
C22 C 0.3159(3) 0.4409(3) 0.7278(2)
H25 H 0.3118 0.5010 0.7120
C23 C 0.3133(3) 0.4343(3) 0.80198(19)
C24 C 0.3231(3) 0.3479(3) 0.8409(2)
C25 C 0.3063(3) 0.3843(3) 0.9172(2)
C26 C 0.3032(4) 0.3378(3) 0.9784(2)
H26 H 0.3138 0.2734 0.9767
C27 C 0.2838(4) 0.3897(4) 1.0429(2)
H27 H 0.2817 0.3602 1.0857
C28 C 0.2678(4) 0.4823(4) 1.0445(2)
H28 H 0.2541 0.5153 1.0885
C29 C 0.2709(4) 0.5301(4) 0.9839(3)
H29 H 0.2598 0.5943 0.9854
C30 C 0.2914(3) 0.4782(3) 0.9209(2)
C31 C 0.3000(3) 0.6071(3) 0.8403(2)
H30 H 0.2561 0.6363 0.8694
H31 H 0.2641 0.6042 0.7840
C32 C 0.4204(4) 0.6718(4) 0.8688(4)
H32 H 0.4556 0.6756 0.9247
H33 H 0.4200 0.7383 0.8606
H34 H 0.4636 0.6434 0.8394
C33 C 0.2338(4) 0.2511(3) 0.7951(3)
H35 H 0.2332 0.2041 0.8289
H36 H 0.2518 0.2234 0.7494
H37 H 0.1592 0.2638 0.7776
C34 C 0.4438(4) 0.3344(4) 0.8582(3)
H38 H 0.4993 0.3972 0.8882
H39 H 0.4564 0.3136 0.8088
H40 H 0.4522 0.2840 0.8887
H41? H 0.3432 0.5080 0.6016
H42? H 0.2191 0.4443 0.5466
C35? C 0.3361(16) 0.4492(6) 0.4900(6)
H43? H 0.4197 0.4693 0.5065
H44? H 0.3073 0.4992 0.4639
H45? H 0.2081 0.3359 0.4073
H46? H 0.3253 0.3512 0.3905
loop_
_geom_bond_atom_site_label_1
_geom_bond_atom_site_label_2
_geom_bond_site_symmetry_1
_geom_bond_site_symmetry_2
Cl1 C16 1_555 1_555
N1 C1 1_555 1_555
N2 C23 1_555 1_555
C1 C2 1_555 1_555
C2 C3 1_555 1_555
C3 C4 1_555 1_555
C4 H1 1_555 1_555
C5 C4 1_555 1_555
H2 C5 1_555 1_555
C6 C5 1_555 1_555
H3 C6 1_555 1_555
C7 C6 1_555 1_555
H4 C7 1_555 1_555
C8 N1 1_555 1_555
C9 N1 1_555 1_555
H5 C9 1_555 1_555
H6 C9 1_555 1_555
C10 C9 1_555 1_555
H7 C10 1_555 1_555
H8 C10 1_555 1_555
H9 C10 1_555 1_555
C11 C2 1_555 1_555
H10 C11 1_555 1_555
H11 C11 1_555 1_555
H12 C11 1_555 1_555
C12 C2 1_555 1_555
H13 C12 1_555 1_555
H14 C12 1_555 1_555
H15 C12 1_555 1_555
C13 C1 1_555 1_555
H16 C13 1_555 1_555
C14 C13 1_555 1_555
H17 C14 1_555 1_555
C15 C14 1_555 1_555
C16 C15 1_555 1_555
C17 C16 1_555 1_555
C18 C17 1_555 1_555
H18 C18 1_555 1_555
H19 C18 1_555 1_555
C19 C18 1_555 1_555
H20 C19 1_555 1_555
H21 C19 1_555 1_555
C20 C15 1_555 1_555
H22 C20 1_555 1_555
H23 C20 1_555 1_555
C21 C17 1_555 1_555
H24 C21 1_555 1_555
C22 C21 1_555 1_555
H25 C22 1_555 1_555
C23 C22 1_555 1_555
C24 C23 1_555 1_555
C25 C24 1_555 1_555
C26 C25 1_555 1_555
H26 C26 1_555 1_555
C27 C26 1_555 1_555
H27 C27 1_555 1_555
C28 C27 1_555 1_555
H28 C28 1_555 1_555
C29 C28 1_555 1_555
H29 C29 1_555 1_555
C30 N2 1_555 1_555
C31 N2 1_555 1_555
H30 C31 1_555 1_555
H31 C31 1_555 1_555
C32 C31 1_555 1_555
H32 C32 1_555 1_555
H33 C32 1_555 1_555
H34 C32 1_555 1_555
C33 C24 1_555 1_555
H35 C33 1_555 1_555
H36 C33 1_555 1_555
H37 C33 1_555 1_555
C34 C24 1_555 1_555
H38 C34 1_555 1_555
H39 C34 1_555 1_555
H40 C34 1_555 1_555
Cl2 C37 1_555 1_555
Cl3 C38 1_555 1_555
Cl4 C39 1_555 1_555
Cl5 C40 1_555 1_555
Cl6 C43 1_555 1_555
Cl7 C44 1_555 1_555
Cl8 C45 1_555 1_555
Cl9 C46 1_555 1_555
Cl10 C49 1_555 1_555
Cl11 C50 1_555 1_555
Cl12 C51 1_555 1_555
Cl13 C52 1_555 1_555
P1 O1 1_555 1_555
O1 C36 1_555 1_555
O2 P1 1_555 1_555
O3 P1 1_555 1_555
O4 P1 1_555 1_555
O5 P1 1_555 1_555
O6 P1 1_555 1_555
C36 C37 1_555 1_555
C37 C38 1_555 1_555
C38 C39 1_555 1_555
C39 C40 1_555 1_555
C40 C41 1_555 1_555
C41 O2 1_555 1_555
C42 O3 1_555 1_555
C43 C42 1_555 1_555
C44 C43 1_555 1_555
C45 C44 1_555 1_555
C46 C45 1_555 1_555
C47 O4 1_555 1_555
C48 O5 1_555 1_555
C49 C48 1_555 1_555
C50 C49 1_555 1_555
C51 C50 1_555 1_555
C52 C51 1_555 1_555
C53 O6 1_555 1_555
C3 C8 1_555 1_555
C7 C8 1_555 1_555
C19 C20 1_555 1_555
C25 C30 1_555 1_555
C29 C30 1_555 1_555
C36 C41 1_555 1_555
C42 C47 1_555 1_555
C46 C47 1_555 1_555
C48 C53 1_555 1_555
C52 C53 1_555 1_555

#END
