
#######################################################################
#
#                 Cambridge Crystallographic Data Centre
#                                CCDC 
#
#######################################################################
#
# If this CIF has been generated from an entry in the Cambridge 
# Structural Database, then it will include bibliographic, chemical, 
# crystal, experimental, refinement or atomic coordinate data resulting 
# from the CCDC's data processing and validation procedures.
#
#######################################################################

data_WIVGEO03
_chemical_formula_moiety         'C24 H18 N6 O3,H2 O1'
_chemical_name_systematic        
"N,N',N''-tris(pyridin-3-yl)benzene-1,3,5-tricarboxamide monohydrate"
_symmetry_cell_setting           monoclinic
_symmetry_space_group_name_H-M   'C c'
_symmetry_Int_Tables_number      9
_space_group_name_Hall           'C -2yc'
loop_
_symmetry_equiv_pos_site_id
_symmetry_equiv_pos_as_xyz
1 x,y,z
2 x,-y,1/2+z
3 1/2+x,1/2+y,z
4 1/2+x,1/2-y,1/2+z
_cell_length_a                   17.7919(14)
_cell_length_b                   14.5737(9)
_cell_length_c                   8.3397(7)
_cell_angle_alpha                90
_cell_angle_beta                 99.900(5)
_cell_angle_gamma                90
_cell_volume                     2130.23
_exptl_crystal_colour            yellow
_exptl_crystal_description       Block
_cell_formula_units_Z            4
loop_
_atom_site_label
_atom_site_type_symbol
_atom_site_fract_x
_atom_site_fract_y
_atom_site_fract_z
C1 C 0.31629(18) 0.43451(18) 0.0839(4)
H1 H 0.3214 0.4980 0.0864
C2 C 0.26008(17) 0.29772(19) -0.0444(4)
H2 H 0.2277 0.2696 -0.1298
C3 C 0.35058(17) 0.28630(19) 0.2027(4)
H3 H 0.3777 0.2511 0.2861
C4 C 0.35928(15) 0.38099(18) 0.2053(3)
C5 C 0.41407(17) 0.42535(18) 0.3400(3)
C6 C 0.26580(17) 0.39276(19) -0.0409(3)
C7 C 0.21820(16) 0.4459(2) -0.1746(3)
C8 C 0.30170(17) 0.24360(18) 0.0768(4)
C9 C 0.34774(19) -0.0089(2) 0.1313(4)
C10 C 0.50296(17) 0.5509(2) 0.4187(3)
C11 C 0.5961(2) 0.6487(3) 0.6421(5)
H4 H 0.6285 0.6823 0.7201
C12 C 0.56873(18) 0.5098(2) 0.4992(4)
H5 H 0.5807 0.4495 0.4767
C13 C 0.15230(17) 0.5959(2) -0.2338(4)
C14 C 0.48736(19) 0.6392(2) 0.4548(4)
H6 H 0.4427 0.6658 0.4001
C15 C 0.2991(2) -0.0641(2) 0.0261(4)
H7 H 0.2622 -0.0359 -0.0507
C16 C 0.10181(18) 0.5751(2) -0.3735(4)
H8 H 0.0938 0.5139 -0.4031
C17 C 0.3556(3) -0.1947(3) 0.1390(5)
H9 H 0.3585 -0.2584 0.1426
C18 C 0.0743(2) 0.7273(3) -0.4199(5)
H10 H 0.0483 0.7728 -0.4855
C19 C 0.28769(18) 0.1420(2) 0.0651(4)
C20 C 0.4031(2) -0.0516(2) 0.2437(4)
H11 H 0.4376 -0.0170 0.3157
C21 C 0.1208(2) 0.7537(3) -0.2805(5)
H12 H 0.1251 0.8152 -0.2504
C22 C 0.61604(19) 0.5608(3) 0.6138(4)
H13 H 0.6608 0.5356 0.6708
C23 C 0.4064(3) -0.1455(3) 0.2475(5)
H14 H 0.4428 -0.1754 0.3230
C24 C 0.1613(2) 0.6874(2) -0.1854(4)
H15 H 0.1942 0.7032 -0.0903
H16 H 0.2084(18) 0.542(2) -0.024(4)
H17 H 0.4445(15) 0.5195(19) 0.197(4)
H18 H 0.390(2) 0.110(2) 0.164(4)
N1 N 0.19496(15) 0.52902(18) -0.1330(3)
N2 N 0.34670(17) 0.08790(16) 0.1277(3)
N3 N 0.44972(14) 0.50180(17) 0.3018(3)
N4 N 0.06381(17) 0.6401(2) -0.4683(4)
N5 N 0.3020(2) -0.1560(2) 0.0285(4)
N6 N 0.53309(18) 0.68999(19) 0.5651(4)
O1 O 0.22513(14) 0.11307(15) -0.0006(3)
O2 O 0.42506(13) 0.39346(13) 0.4789(2)
O3 O 0.20290(14) 0.41311(14) -0.3121(2)
H19 H 0.513(3) 0.192(4) 0.159(7)
H20 H 0.522(3) 0.132(3) 0.287(6)
O4 O 0.49991(16) 0.1351(2) 0.1945(4)
loop_
_geom_bond_atom_site_label_1
_geom_bond_atom_site_label_2
_geom_bond_site_symmetry_1
_geom_bond_site_symmetry_2
C1 H1 1_555 1_555
C2 H2 1_555 1_555
C3 H3 1_555 1_555
C4 C1 1_555 1_555
C5 C4 1_555 1_555
C6 C1 1_555 1_555
C7 C6 1_555 1_555
C8 C2 1_555 1_555
C9 C15 1_555 1_555
C10 C12 1_555 1_555
C11 H4 1_555 1_555
C12 H5 1_555 1_555
C13 C16 1_555 1_555
C14 C10 1_555 1_555
H6 C14 1_555 1_555
C15 H7 1_555 1_555
C16 H8 1_555 1_555
C17 H9 1_555 1_555
C18 H10 1_555 1_555
C19 C8 1_555 1_555
C20 C9 1_555 1_555
H11 C20 1_555 1_555
C21 C18 1_555 1_555
H12 C21 1_555 1_555
C22 C11 1_555 1_555
H13 C22 1_555 1_555
C23 C17 1_555 1_555
H14 C23 1_555 1_555
C24 C13 1_555 1_555
H15 C24 1_555 1_555
H16 N1 1_555 1_555
H17 N3 1_555 1_555
H18 N2 1_555 1_555
N1 C7 1_555 1_555
N2 C9 1_555 1_555
N3 C5 1_555 1_555
N4 C16 1_555 1_555
N5 C15 1_555 1_555
N6 C11 1_555 1_555
O1 C19 1_555 1_555
O2 C5 1_555 1_555
O3 C7 1_555 1_555
H19 O4 1_555 1_555
H20 O4 1_555 1_555
C2 C6 1_555 1_555
C3 C4 1_555 1_555
C3 C8 1_555 1_555
C10 N3 1_555 1_555
C12 C22 1_555 1_555
C13 N1 1_555 1_555
C14 N6 1_555 1_555
C17 N5 1_555 1_555
C18 N4 1_555 1_555
C19 N2 1_555 1_555
C20 C23 1_555 1_555
C21 C24 1_555 1_555

#END
