
#######################################################################
#
#                 Cambridge Crystallographic Data Centre
#                                CCDC 
#
#######################################################################
#
# If this CIF has been generated from an entry in the Cambridge 
# Structural Database, then it will include bibliographic, chemical, 
# crystal, experimental, refinement or atomic coordinate data resulting 
# from the CCDC's data processing and validation procedures.
#
#######################################################################

data_WIVGEO04
_chemical_formula_moiety         'C24 H18 N6 O3,H2 O1'
_chemical_name_systematic        
"N,N',N''-tris(pyridin-3-yl)benzene-1,3,5-tricarboxamide hydrate"
_symmetry_cell_setting           orthorhombic
_symmetry_space_group_name_H-M   'P b c a'
_symmetry_Int_Tables_number      61
_space_group_name_Hall           '-P 2ac 2ab'
loop_
_symmetry_equiv_pos_site_id
_symmetry_equiv_pos_as_xyz
1 x,y,z
2 1/2-x,-y,1/2+z
3 -x,1/2+y,1/2-z
4 1/2+x,1/2-y,-z
5 -x,-y,-z
6 1/2+x,y,1/2-z
7 x,1/2-y,1/2+z
8 1/2-x,1/2+y,z
_cell_length_a                   8.1083(15)
_cell_length_b                   22.087(4)
_cell_length_c                   24.109(4)
_cell_angle_alpha                90
_cell_angle_beta                 90
_cell_angle_gamma                90
_cell_volume                     4317.63
_exptl_crystal_colour            yellow
_exptl_crystal_description       Block
_cell_formula_units_Z            8
loop_
_atom_site_label
_atom_site_type_symbol
_atom_site_fract_x
_atom_site_fract_y
_atom_site_fract_z
H1 H 0.777(6) 0.8795(19) 0.0695(15)
O1 O 0.6779(4) 0.87823(12) 0.07621(10)
H2 H 0.616(6) 0.8635(18) 0.0485(17)
C1 C 0.2852(4) 0.93574(11) 0.26436(10)
C2 C 0.4811(3) 1.04822(11) 0.16715(10)
C3 C 0.4264(4) 1.01887(11) 0.22014(10)
C4 C 0.1872(4) 0.87823(11) 0.25664(10)
C5 C 0.4651(4) 1.04236(12) 0.27188(10)
H3 H 0.5261 1.0779 0.2744
C6 C 0.3375(4) 0.96535(11) 0.21679(10)
H4 H 0.3127 0.9491 0.1822
C7 C 0.4134(4) 1.01329(11) 0.31990(10)
C8 C 0.3233(4) 0.96015(11) 0.31611(10)
H5 H 0.2881 0.9407 0.3482
C9 C 0.4640(4) 1.04069(12) 0.37427(11)
C10 C 0.5374(4) 1.14430(12) 0.12037(11)
C11 C 0.0419(4) 0.79552(11) 0.30503(10)
C12 C 0.3588(4) 1.05881(12) 0.46904(10)
C13 C -0.0511(4) 0.78427(12) 0.35178(11)
H6 H -0.0570 0.8127 0.3801
C14 C 0.0438(4) 0.75227(12) 0.26358(11)
H7 H 0.1045 0.7600 0.2316
C15 C -0.1254(4) 0.68974(13) 0.31303(12)
H8 H -0.1828 0.6534 0.3161
C16 C 0.4526(4) 1.13440(13) 0.07153(11)
H9 H 0.3777 1.1025 0.0701
C17 C 0.2266(4) 1.04977(14) 0.50375(11)
H10 H 0.1349 1.0285 0.4912
C18 C 0.5790(6) 1.21361(17) 0.02939(14)
H11 H 0.5946 1.2377 -0.0018
C19 C 0.3676(5) 1.10241(15) 0.57433(12)
H12 H 0.3698 1.1177 0.6102
C20 C -0.1353(4) 0.73027(13) 0.35589(12)
H13 H -0.1979 0.7215 0.3872
C21 C 0.2300(5) 1.07218(15) 0.55699(11)
H14 H 0.1406 1.0669 0.5806
C22 C 0.6473(5) 1.19166(15) 0.12243(14)
H15 H 0.7069 1.1997 0.1545
C23 C 0.4919(4) 1.08943(16) 0.49015(12)
H16 H 0.5827 1.0957 0.4673
C24 C 0.6669(7) 1.22681(18) 0.07587(15)
H17 H 0.7396 1.2594 0.0762
N1 N 0.1330(3) 0.84977(9) 0.30324(8)
H18 H 0.1565 0.8664 0.3345
N2 N 0.5068(3) 1.10910(9) 0.16843(8)
H19 H 0.5043 1.1271 0.2000
N3 N 0.3491(3) 1.03624(10) 0.41458(8)
H20 H 0.2598 1.0175 0.4060
N4 N -0.0378(4) 0.69961(10) 0.26733(10)
N5 N 0.4728(4) 1.16840(12) 0.02625(10)
N6 N 0.4975(4) 1.11078(14) 0.54226(10)
O2 O 0.1584(3) 0.85910(9) 0.21020(7)
O3 O 0.5022(3) 1.01802(8) 0.12503(7)
O4 O 0.5974(3) 1.06508(10) 0.37961(8)
loop_
_geom_bond_atom_site_label_1
_geom_bond_atom_site_label_2
_geom_bond_site_symmetry_1
_geom_bond_site_symmetry_2
H1 O1 1_555 1_555
O1 H2 1_555 1_555
C1 C4 1_555 1_555
C2 C3 1_555 1_555
C3 C5 1_555 1_555
C4 N1 1_555 1_555
C5 H3 1_555 1_555
C6 C1 1_555 1_555
H4 C6 1_555 1_555
C7 C5 1_555 1_555
C8 C1 1_555 1_555
H5 C8 1_555 1_555
C9 C7 1_555 1_555
C10 C16 1_555 1_555
C11 C13 1_555 1_555
C12 C17 1_555 1_555
C13 H6 1_555 1_555
C14 C11 1_555 1_555
H7 C14 1_555 1_555
C15 H8 1_555 1_555
C16 H9 1_555 1_555
C17 H10 1_555 1_555
C18 H11 1_555 1_555
C19 H12 1_555 1_555
C20 C13 1_555 1_555
H13 C20 1_555 1_555
C21 C17 1_555 1_555
H14 C21 1_555 1_555
C22 C10 1_555 1_555
H15 C22 1_555 1_555
C23 C12 1_555 1_555
H16 C23 1_555 1_555
C24 C18 1_555 1_555
H17 C24 1_555 1_555
N1 C11 1_555 1_555
H18 N1 1_555 1_555
N2 C2 1_555 1_555
H19 N2 1_555 1_555
N3 C9 1_555 1_555
H20 N3 1_555 1_555
N4 C14 1_555 1_555
N5 C16 1_555 1_555
N6 C19 1_555 1_555
O2 C4 1_555 1_555
O3 C2 1_555 1_555
O4 C9 1_555 1_555
C3 C6 1_555 1_555
C7 C8 1_555 1_555
C10 N2 1_555 1_555
C12 N3 1_555 1_555
C15 C20 1_555 1_555
C15 N4 1_555 1_555
C18 N5 1_555 1_555
C19 C21 1_555 1_555
C22 C24 1_555 1_555
C23 N6 1_555 1_555

#END
