
#######################################################################
#
#                 Cambridge Crystallographic Data Centre
#                                CCDC 
#
#######################################################################
#
# If this CIF has been generated from an entry in the Cambridge 
# Structural Database, then it will include bibliographic, chemical, 
# crystal, experimental, refinement or atomic coordinate data resulting 
# from the CCDC's data processing and validation procedures.
#
#######################################################################

data_WIVGUE
_chemical_formula_moiety         'C19 H22 O3'
_chemical_name_systematic        
1,1,3,3-Tetramethyl-1,3-bis(4-hydroxylphenyl)acetone
_symmetry_cell_setting           monoclinic
_symmetry_space_group_name_H-M   'P 21/c'
_symmetry_Int_Tables_number      14
_space_group_name_Hall           '-P 2ybc'
loop_
_symmetry_equiv_pos_site_id
_symmetry_equiv_pos_as_xyz
1 x,y,z
2 -x,1/2+y,1/2-z
3 -x,-y,-z
4 x,1/2-y,1/2+z
_cell_length_a                   10.0719(2)
_cell_length_b                   11.2639(2)
_cell_length_c                   14.2688(3)
_cell_angle_alpha                90
_cell_angle_beta                 98.7710(10)
_cell_angle_gamma                90
_cell_volume                     1599.85
_exptl_crystal_colour            colorless
_exptl_crystal_description       block
_cell_formula_units_Z            4
_exptl_crystal_recrystallization_method chloroform
loop_
_atom_site_label
_atom_site_type_symbol
_atom_site_fract_x
_atom_site_fract_y
_atom_site_fract_z
O1 O 0.29511(7) 0.55502(7) 0.89432(5)
O2 O -0.22315(8) 0.83959(7) 1.07868(6)
H1 H -0.2351(16) 0.7790(16) 1.1167(12)
O3 O 0.74550(8) 0.84601(7) 0.70087(5)
H2 H 0.7364(16) 0.9194(16) 0.6783(12)
C1 C 0.27145(10) 0.66166(9) 0.89288(7)
C2 C 0.14508(10) 0.70918(9) 0.82876(7)
C3 C 0.37304(10) 0.74332(9) 0.95512(7)
C4 C 0.08163(11) 0.60872(10) 0.76372(8)
H3 H 0.0603 0.5416 0.8025
H4 H 0.1451 0.5830 0.7221
H5 H -0.0009 0.6376 0.7251
C5 C 0.17967(11) 0.81016(10) 0.76387(7)
H6 H 0.0990 0.8328 0.7201
H7 H 0.2491 0.7831 0.7275
H8 H 0.2130 0.8788 0.8026
C6 C 0.31055(11) 0.85266(9) 0.99503(7)
H9 H 0.3816 0.9010 1.0310
H10 H 0.2473 0.8272 1.0369
H11 H 0.2628 0.8997 0.9427
C7 C 0.44177(11) 0.67123(10) 1.04083(7)
H12 H 0.5073 0.7215 1.0803
H13 H 0.4877 0.6026 1.0183
H14 H 0.3739 0.6438 1.0783
C8 C 0.04555(10) 0.74554(9) 0.89514(7)
C9 C 0.01191(11) 0.66427(9) 0.96154(8)
H15 H 0.0513 0.5875 0.9648
C10 C -0.07768(11) 0.69290(10) 1.02294(8)
H16 H -0.0991 0.6361 1.0675
C11 C -0.13619(10) 0.80538(9) 1.01889(7)
C12 C -0.10432(10) 0.88691(9) 0.95297(8)
H17 H -0.1442 0.9635 0.9494
C13 C -0.01449(10) 0.85701(9) 0.89225(7)
H18 H 0.0066 0.9139 0.8476
C14 C 0.47628(10) 0.77573(9) 0.88985(7)
C15 C 0.55509(10) 0.68652(9) 0.85756(7)
H19 H 0.5467 0.6073 0.8787
C16 C 0.64504(10) 0.71105(9) 0.79554(8)
H20 H 0.6979 0.6493 0.7749
C17 C 0.65723(10) 0.82649(9) 0.76385(7)
C18 C 0.58223(10) 0.91704(9) 0.79592(7)
H21 H 0.5920 0.9963 0.7753
C19 C 0.49271(10) 0.89137(9) 0.85843(7)
H22 H 0.4418 0.9538 0.8801
loop_
_geom_bond_atom_site_label_1
_geom_bond_atom_site_label_2
_geom_bond_site_symmetry_1
_geom_bond_site_symmetry_2
O1 C1 1_555 1_555
O2 H1 1_555 1_555
O3 H2 1_555 1_555
C1 C2 1_555 1_555
C2 C4 1_555 1_555
C3 C1 1_555 1_555
C4 H3 1_555 1_555
H4 C4 1_555 1_555
H5 C4 1_555 1_555
C5 C2 1_555 1_555
H6 C5 1_555 1_555
H7 C5 1_555 1_555
H8 C5 1_555 1_555
C6 C3 1_555 1_555
H9 C6 1_555 1_555
H10 C6 1_555 1_555
H11 C6 1_555 1_555
C7 C3 1_555 1_555
H12 C7 1_555 1_555
H13 C7 1_555 1_555
H14 C7 1_555 1_555
C8 C2 1_555 1_555
C9 C8 1_555 1_555
H15 C9 1_555 1_555
C10 C9 1_555 1_555
H16 C10 1_555 1_555
C11 O2 1_555 1_555
C12 C11 1_555 1_555
H17 C12 1_555 1_555
C13 C8 1_555 1_555
H18 C13 1_555 1_555
C14 C3 1_555 1_555
C15 C14 1_555 1_555
H19 C15 1_555 1_555
C16 C15 1_555 1_555
H20 C16 1_555 1_555
C17 O3 1_555 1_555
C18 C17 1_555 1_555
H21 C18 1_555 1_555
C19 C14 1_555 1_555
H22 C19 1_555 1_555
C10 C11 1_555 1_555
C12 C13 1_555 1_555
C16 C17 1_555 1_555
C18 C19 1_555 1_555

#END
