
#######################################################################
#
#                 Cambridge Crystallographic Data Centre
#                                CCDC 
#
#######################################################################
#
# If this CIF has been generated from an entry in the Cambridge 
# Structural Database, then it will include bibliographic, chemical, 
# crystal, experimental, refinement or atomic coordinate data resulting 
# from the CCDC's data processing and validation procedures.
#
#######################################################################

data_WIVHUF
_chemical_name_common            
'1,4-bis(Imidazol-1-ylmethyl)benzene dibenzyl ketone hemikis(C-propylcalix(4)resorcinarene)'
_chemical_formula_moiety         'C15 H14 O1,C14 H14 N4,0.5(C40 H48 O8)'
_chemical_name_systematic        
'1,4-bis(Imidazol-1-ylmethyl)benzene dibenzyl ketone hemikis(2,8,14,20-tetrapropylpentacyclo[19.3.1.1^3,7^.1^9,13^.1^15,19^]octacosa-1(25),3(28),4,6,9(27),10,12,15(26),16,18,21,23-dodecaene-4,6,10,12,16,18,22,24-octol)'
_symmetry_cell_setting           triclinic
_symmetry_space_group_name_H-M   'P -1'
_symmetry_Int_Tables_number      2
_space_group_name_Hall           '-P 1'
loop_
_symmetry_equiv_pos_site_id
_symmetry_equiv_pos_as_xyz
1 x,y,z
2 -x,-y,-z
_cell_length_a                   15.235(4)
_cell_length_b                   17.000(4)
_cell_length_c                   17.087(4)
_cell_angle_alpha                92.351(7)
_cell_angle_beta                 97.743(7)
_cell_angle_gamma                109.341(7)
_cell_volume                     4120.23
_exptl_crystal_colour            pink
_exptl_crystal_description       Plate
_cell_formula_units_Z            4
loop_
_atom_site_label
_atom_site_type_symbol
_atom_site_fract_x
_atom_site_fract_y
_atom_site_fract_z
O1 O 0.48255(19) 0.14310(19) 0.15754(17)
C1 C 0.4317(3) 0.0862(3) 0.1885(2)
C2 C 0.3264(3) 0.0550(3) 0.1656(2)
H1 H 0.3071 0.0014 0.1321
H2 H 0.2975 0.0436 0.2143
C3 C 0.2880(3) 0.1139(3) 0.1217(2)
C4 C 0.2923(3) 0.1201(3) 0.0402(2)
H3 H 0.3183 0.0860 0.0121
C5 C 0.2585(3) 0.1758(3) 0.0018(2)
H4 H 0.2605 0.1795 -0.0533
C6 C 0.2218(3) 0.2267(3) 0.0415(3)
H5 H 0.1997 0.2655 0.0139
C7 C 0.2169(3) 0.2215(3) 0.1214(3)
H6 H 0.1907 0.2559 0.1487
C8 C 0.2505(3) 0.1657(3) 0.1611(2)
H7 H 0.2481 0.1625 0.2161
C9 C 0.4728(3) 0.0446(3) 0.2538(2)
H8 H 0.4213 0.0020 0.2742
H9 H 0.5127 0.0161 0.2323
C10 C 0.5313(3) 0.1101(2) 0.3207(2)
C11 C 0.4875(3) 0.1467(3) 0.3713(2)
H10 H 0.4207 0.1279 0.3653
C12 C 0.5396(3) 0.2096(3) 0.4297(2)
H11 H 0.5083 0.2332 0.4634
C13 C 0.6374(3) 0.2387(3) 0.4395(2)
H12 H 0.6730 0.2831 0.4787
C14 C 0.6827(3) 0.2019(3) 0.3911(2)
H13 H 0.7496 0.2202 0.3980
C15 C 0.6296(3) 0.1384(3) 0.3328(2)
H14 H 0.6609 0.1136 0.3002
O2 O 0.3731(3) 0.9638(2) 0.00905(18)
C16 C 0.3551(3) 0.9058(3) -0.0422(2)
C17 C 0.3321(3) 0.9185(3) -0.1292(2)
H15 H 0.3659 0.8916 -0.1610
H16 H 0.3546 0.9791 -0.1359
C18 C 0.2270(3) 0.8819(3) -0.1599(2)
C19 C 0.1665(3) 0.9199(3) -0.1350(2)
H17 H 0.1915 0.9696 -0.0999
C20 C 0.0703(3) 0.8866(3) -0.1607(2)
H18 H 0.0297 0.9128 -0.1424
C21 C 0.0330(3) 0.8146(3) -0.2134(2)
H19 H -0.0331 0.7909 -0.2305
C22 C 0.0931(3) 0.7781(3) -0.2406(2)
H20 H 0.0687 0.7311 -0.2789
C23 C 0.1880(3) 0.8096(3) -0.2123(2)
H21 H 0.2278 0.7816 -0.2288
C24 C 0.3520(3) 0.8189(3) -0.0243(2)
H22 H 0.3901 0.8000 -0.0584
H23 H 0.2862 0.7800 -0.0373
C25 C 0.3886(3) 0.8149(3) 0.0614(2)
C26 C 0.4818(3) 0.8226(3) 0.0869(2)
H24 H 0.5233 0.8287 0.0490
C27 C 0.5157(3) 0.8217(3) 0.1656(2)
H25 H 0.5796 0.8264 0.1813
C28 C 0.4563(3) 0.8141(3) 0.2218(2)
H26 H 0.4794 0.8138 0.2763
C29 C 0.3633(3) 0.8067(2) 0.1982(2)
H27 H 0.3227 0.8011 0.2368
C30 C 0.3286(3) 0.8075(3) 0.1195(2)
H28 H 0.2648 0.8032 0.1042
O3 O -0.40668(15) 0.65416(17) 0.25962(13)
H29 H -0.404(3) 0.687(3) 0.291(2)
O4 O -0.18808(18) 0.63944(17) 0.09614(13)
H30 H -0.141(3) 0.662(2) 0.088(2)
O5 O -0.00060(16) 0.69234(16) 0.06658(12)
H31 H 0.026(3) 0.673(3) 0.043(3)
O6 O 0.19840(16) 0.65563(17) 0.29613(13)
H32 H 0.194(3) 0.614(3) 0.267(3)
O7 O 0.1109(2) 0.6043(2) 0.43419(15)
H33 H 0.085(4) 0.567(4) 0.425(4)
O8 O -0.08408(17) 0.63882(17) 0.61484(13)
H34 H -0.119(4) 0.664(3) 0.617(3)
O9 O -0.22523(17) 0.70540(17) 0.63544(12)
H35 H -0.277(3) 0.669(3) 0.650(3)
O10 O -0.43929(16) 0.71264(17) 0.40355(12)
H36 H -0.479(3) 0.669(2) 0.419(2)
C31 C -0.2924(2) 0.8245(2) 0.33397(17)
H37 H -0.3617 0.8125 0.3204
C32 C -0.2644(2) 0.7772(2) 0.26818(16)
C33 C -0.3208(2) 0.6975(2) 0.23714(17)
C34 C -0.2947(2) 0.6526(2) 0.17879(17)
H38 H -0.3351 0.5982 0.1576
C35 C -0.2087(2) 0.6892(2) 0.15251(17)
C36 C -0.1499(2) 0.7692(2) 0.18157(17)
C37 C -0.1799(2) 0.8115(2) 0.23949(17)
H39 H -0.1403 0.8665 0.2600
C38 C -0.0559(2) 0.8082(2) 0.15294(17)
H40 H -0.0674 0.7922 0.0945
C39 C 0.0150(2) 0.7691(2) 0.18923(17)
C40 C 0.0414(2) 0.7126(2) 0.14457(17)
C41 C 0.1030(2) 0.6748(2) 0.17892(17)
H41 H 0.1194 0.6354 0.1481
C42 C 0.1407(2) 0.6950(2) 0.25921(18)
C43 C 0.1182(2) 0.7536(2) 0.30592(17)
C44 C 0.0544(2) 0.7877(2) 0.26936(17)
H42 H 0.0364 0.8258 0.3003
C45 C 0.1617(2) 0.7790(2) 0.39369(17)
H43 H 0.2137 0.7553 0.4040
C46 C 0.0911(2) 0.7396(2) 0.44941(17)
C47 C 0.0713(2) 0.6580(2) 0.46742(18)
C48 C 0.0125(2) 0.6255(2) 0.52275(18)
H44 H 0.0013 0.5696 0.5359
C49 C -0.0296(2) 0.6758(2) 0.55855(17)
C50 C -0.0151(2) 0.7575(2) 0.54042(17)
C51 C 0.0454(2) 0.7874(2) 0.48563(17)
H45 H 0.0564 0.8431 0.4721
C52 C -0.0663(2) 0.8111(2) 0.57572(17)
H46 H -0.0716 0.7959 0.6312
C53 C -0.1669(2) 0.7848(2) 0.53105(17)
C54 C -0.2437(2) 0.7336(2) 0.56255(17)
C55 C -0.3343(2) 0.7100(2) 0.52145(17)
H47 H -0.3855 0.6748 0.5438
C56 C -0.3504(2) 0.7380(2) 0.44679(17)
C57 C -0.2762(2) 0.7900(2) 0.41370(17)
C58 C -0.1863(2) 0.8109(2) 0.45639(17)
H48 H -0.1350 0.8449 0.4334
C59 C -0.2454(2) 0.9199(2) 0.33900(18)
H49 H -0.2637 0.9396 0.2876
H50 H -0.1763 0.9334 0.3470
C60 C -0.2705(2) 0.9686(2) 0.40569(19)
H51 H -0.2419 0.9569 0.4575
H52 H -0.2423 1.0293 0.4007
C61 C -0.3754(2) 0.9470(2) 0.4049(2)
H53 H -0.3861 0.9802 0.4486
H54 H -0.4038 0.8873 0.4113
H55 H -0.4042 0.9597 0.3544
C62 C -0.0182(2) 0.9040(2) 0.16363(19)
H56 H -0.0672 0.9250 0.1376
H57 H -0.0068 0.9224 0.2209
C63 C 0.0721(3) 0.9434(3) 0.1300(2)
H58 H 0.0907 1.0051 0.1387
H59 H 0.1226 0.9269 0.1597
C64 C 0.0647(3) 0.9191(3) 0.0418(2)
H60 H 0.1254 0.9468 0.0245
H61 H 0.0160 0.9365 0.0116
H62 H 0.0480 0.8582 0.0327
C65 C 0.2069(2) 0.8738(2) 0.41179(18)
H63 H 0.2273 0.8866 0.4698
H64 H 0.1587 0.8998 0.3961
C66 C 0.2916(2) 0.9140(2) 0.3703(2)
H65 H 0.2727 0.8983 0.3125
H66 H 0.3102 0.9756 0.3791
C67 C 0.3753(3) 0.8886(3) 0.3986(2)
H67 H 0.4271 0.9166 0.3700
H68 H 0.3581 0.8278 0.3885
H69 H 0.3953 0.9049 0.4556
C68 C -0.0138(2) 0.9055(2) 0.58185(18)
H70 H 0.0039 0.9208 0.5295
H71 H 0.0452 0.9185 0.6200
C69 C -0.0694(2) 0.9609(2) 0.6083(2)
H72 H -0.0254 1.0192 0.6206
H73 H -0.1177 0.9607 0.5632
C70 C -0.1171(3) 0.9345(3) 0.6790(2)
H74 H -0.1504 0.9727 0.6915
H75 H -0.0698 0.9361 0.7246
H76 H -0.1622 0.8774 0.6671
N1 N -0.48968(19) 0.37388(18) 0.26081(14)
N2 N -0.6164(2) 0.3715(2) 0.31102(15)
N3 N -0.35835(19) 0.46620(18) -0.13263(14)
N4 N -0.2536(2) 0.4413(2) -0.19882(15)
C71 C -0.4244(2) 0.3435(2) 0.22183(18)
H77 H -0.4431 0.2820 0.2222
H78 H -0.3596 0.3689 0.2513
C72 C -0.4270(2) 0.3669(2) 0.13721(18)
C73 C -0.5085(2) 0.3329(2) 0.08261(19)
H79 H -0.5617 0.2917 0.0972
C74 C -0.5130(2) 0.3587(2) 0.00619(19)
H80 H -0.5690 0.3348 -0.0311
C75 C -0.4360(2) 0.4192(2) -0.01538(17)
C76 C -0.3541(2) 0.4524(2) 0.03942(18)
H81 H -0.3006 0.4932 0.0249
C77 C -0.3498(2) 0.4262(2) 0.11520(18)
H82 H -0.2935 0.4493 0.1522
C78 C -0.4443(2) 0.4498(2) -0.09702(18)
H83 H -0.4971 0.4073 -0.1323
H84 H -0.4597 0.5019 -0.0933
C79 C -0.5677(2) 0.3255(2) 0.28677(18)
H85 H -0.5857 0.2665 0.2877
C80 C -0.5671(2) 0.4522(2) 0.29937(18)
H86 H -0.5848 0.4994 0.3115
C81 C -0.4886(2) 0.4549(2) 0.26770(17)
H87 H -0.4426 0.5031 0.2534
C82 C -0.3344(2) 0.4076(2) -0.17198(18)
H88 H -0.3708 0.3497 -0.1795
C83 C -0.2896(3) 0.5413(2) -0.1342(2)
H89 H -0.2866 0.5942 -0.1115
C84 C -0.2260(3) 0.5244(3) -0.1753(2)
H90 H -0.1700 0.5652 -0.1860
N5 N -0.32086(18) 0.49641(18) 0.48181(14)
N6 N -0.42516(19) 0.40233(19) 0.53857(15)
N7 N -0.05916(19) 0.44349(19) 0.15420(14)
N8 N -0.0726(2) 0.3828(2) 0.03369(15)
C85 C -0.2806(2) 0.5553(2) 0.42577(18)
H91 H -0.2432 0.6100 0.4556
H92 H -0.3327 0.5636 0.3896
C86 C -0.1599(2) 0.5891(2) 0.33586(18)
H93 H -0.1615 0.6445 0.3391
C87 C -0.0991(2) 0.5681(2) 0.29051(18)
H94 H -0.0595 0.6098 0.2633
C88 C -0.0961(2) 0.4878(2) 0.28490(17)
C89 C -0.1552(2) 0.4275(2) 0.32418(17)
H95 H -0.1548 0.3717 0.3199
C90 C -0.2153(2) 0.4480(2) 0.37015(18)
H96 H -0.2547 0.4062 0.3975
C91 C -0.2178(2) 0.5282(2) 0.37603(17)
C92 C -0.0249(2) 0.4677(2) 0.24050(17)
H97 H 0.0334 0.5172 0.2472
H98 H -0.0086 0.4213 0.2645
C93 C -0.4125(2) 0.4492(2) 0.47896(18)
H99 H -0.4617 0.4498 0.4387
C94 C -0.2720(2) 0.4773(2) 0.54772(18)
H100 H -0.2061 0.4998 0.5657
C95 C -0.3367(2) 0.4201(2) 0.58147(18)
H101 H -0.3231 0.3955 0.6284
C96 C -0.0431(3) 0.3832(2) 0.10982(19)
H102 H -0.0138 0.3457 0.1312
C97 C -0.1020(2) 0.4843(2) 0.10290(19)
H103 H -0.1218 0.5300 0.1159
C98 C -0.1105(2) 0.4459(2) 0.02931(19)
H104 H -0.1386 0.4607 -0.0183
loop_
_geom_bond_atom_site_label_1
_geom_bond_atom_site_label_2
_geom_bond_site_symmetry_1
_geom_bond_site_symmetry_2
O1 C1 1_555 1_555
C1 C2 1_555 1_555
C2 H1 1_555 1_555
H2 C2 1_555 1_555
C3 C2 1_555 1_555
C4 C3 1_555 1_555
H3 C4 1_555 1_555
C5 C4 1_555 1_555
H4 C5 1_555 1_555
C6 C5 1_555 1_555
H5 C6 1_555 1_555
C7 C6 1_555 1_555
H6 C7 1_555 1_555
C8 C3 1_555 1_555
H7 C8 1_555 1_555
C9 C1 1_555 1_555
H8 C9 1_555 1_555
H9 C9 1_555 1_555
C10 C9 1_555 1_555
C11 C10 1_555 1_555
H10 C11 1_555 1_555
C12 C11 1_555 1_555
H11 C12 1_555 1_555
C13 C12 1_555 1_555
H12 C13 1_555 1_555
C14 C13 1_555 1_555
H13 C14 1_555 1_555
C15 C10 1_555 1_555
H14 C15 1_555 1_555
O2 C16 1_555 1_555
C16 C17 1_555 1_555
C17 H15 1_555 1_555
H16 C17 1_555 1_555
C18 C17 1_555 1_555
C19 C18 1_555 1_555
H17 C19 1_555 1_555
C20 C19 1_555 1_555
H18 C20 1_555 1_555
C21 C20 1_555 1_555
H19 C21 1_555 1_555
C22 C21 1_555 1_555
H20 C22 1_555 1_555
C23 C18 1_555 1_555
H21 C23 1_555 1_555
C24 C16 1_555 1_555
H22 C24 1_555 1_555
H23 C24 1_555 1_555
C25 C24 1_555 1_555
C26 C25 1_555 1_555
H24 C26 1_555 1_555
C27 C26 1_555 1_555
H25 C27 1_555 1_555
C28 C27 1_555 1_555
H26 C28 1_555 1_555
C29 C28 1_555 1_555
H27 C29 1_555 1_555
C30 C25 1_555 1_555
H28 C30 1_555 1_555
O3 H29 1_555 1_555
O4 H30 1_555 1_555
O5 H31 1_555 1_555
O6 H32 1_555 1_555
O7 H33 1_555 1_555
O8 H34 1_555 1_555
O9 H35 1_555 1_555
O10 H36 1_555 1_555
C31 H37 1_555 1_555
C32 C31 1_555 1_555
C33 O3 1_555 1_555
C34 C33 1_555 1_555
H38 C34 1_555 1_555
C35 O4 1_555 1_555
C36 C35 1_555 1_555
C37 C32 1_555 1_555
H39 C37 1_555 1_555
C38 C36 1_555 1_555
H40 C38 1_555 1_555
C39 C38 1_555 1_555
C40 O5 1_555 1_555
C41 C40 1_555 1_555
H41 C41 1_555 1_555
C42 O6 1_555 1_555
C43 C42 1_555 1_555
C44 C39 1_555 1_555
H42 C44 1_555 1_555
C45 C43 1_555 1_555
H43 C45 1_555 1_555
C46 C45 1_555 1_555
C47 O7 1_555 1_555
C48 C47 1_555 1_555
H44 C48 1_555 1_555
C49 O8 1_555 1_555
C50 C49 1_555 1_555
C51 C46 1_555 1_555
H45 C51 1_555 1_555
C52 C50 1_555 1_555
H46 C52 1_555 1_555
C53 C52 1_555 1_555
C54 O9 1_555 1_555
C55 C54 1_555 1_555
H47 C55 1_555 1_555
C56 O10 1_555 1_555
C57 C31 1_555 1_555
C58 C53 1_555 1_555
H48 C58 1_555 1_555
C59 C31 1_555 1_555
H49 C59 1_555 1_555
H50 C59 1_555 1_555
C60 C59 1_555 1_555
H51 C60 1_555 1_555
H52 C60 1_555 1_555
C61 C60 1_555 1_555
H53 C61 1_555 1_555
H54 C61 1_555 1_555
H55 C61 1_555 1_555
C62 C38 1_555 1_555
H56 C62 1_555 1_555
H57 C62 1_555 1_555
C63 C62 1_555 1_555
H58 C63 1_555 1_555
H59 C63 1_555 1_555
C64 C63 1_555 1_555
H60 C64 1_555 1_555
H61 C64 1_555 1_555
H62 C64 1_555 1_555
C65 C45 1_555 1_555
H63 C65 1_555 1_555
H64 C65 1_555 1_555
C66 C65 1_555 1_555
H65 C66 1_555 1_555
H66 C66 1_555 1_555
C67 C66 1_555 1_555
H67 C67 1_555 1_555
H68 C67 1_555 1_555
H69 C67 1_555 1_555
C68 C52 1_555 1_555
H70 C68 1_555 1_555
H71 C68 1_555 1_555
C69 C68 1_555 1_555
H72 C69 1_555 1_555
H73 C69 1_555 1_555
C70 C69 1_555 1_555
H74 C70 1_555 1_555
H75 C70 1_555 1_555
H76 C70 1_555 1_555
N1 C71 1_555 1_555
N2 C79 1_555 1_555
N3 C78 1_555 1_555
N4 C82 1_555 1_555
C71 H77 1_555 1_555
H78 C71 1_555 1_555
C72 C71 1_555 1_555
C73 C72 1_555 1_555
H79 C73 1_555 1_555
C74 C73 1_555 1_555
H80 C74 1_555 1_555
C75 C74 1_555 1_555
C76 C75 1_555 1_555
H81 C76 1_555 1_555
C77 C72 1_555 1_555
H82 C77 1_555 1_555
C78 C75 1_555 1_555
H83 C78 1_555 1_555
H84 C78 1_555 1_555
C79 N1 1_555 1_555
H85 C79 1_555 1_555
C80 N2 1_555 1_555
H86 C80 1_555 1_555
C81 N1 1_555 1_555
H87 C81 1_555 1_555
C82 N3 1_555 1_555
H88 C82 1_555 1_555
C83 N3 1_555 1_555
H89 C83 1_555 1_555
C84 N4 1_555 1_555
H90 C84 1_555 1_555
N5 C85 1_555 1_555
N6 C93 1_555 1_555
N7 C92 1_555 1_555
N8 C96 1_555 1_555
C85 H91 1_555 1_555
H92 C85 1_555 1_555
C86 H93 1_555 1_555
C87 C86 1_555 1_555
H94 C87 1_555 1_555
C88 C87 1_555 1_555
C89 C88 1_555 1_555
H95 C89 1_555 1_555
C90 C89 1_555 1_555
H96 C90 1_555 1_555
C91 C85 1_555 1_555
C92 C88 1_555 1_555
H97 C92 1_555 1_555
H98 C92 1_555 1_555
C93 N5 1_555 1_555
H99 C93 1_555 1_555
C94 N5 1_555 1_555
H100 C94 1_555 1_555
C95 N6 1_555 1_555
H101 C95 1_555 1_555
C96 N7 1_555 1_555
H102 C96 1_555 1_555
C97 N7 1_555 1_555
H103 C97 1_555 1_555
C98 N8 1_555 1_555
H104 C98 1_555 1_555
C7 C8 1_555 1_555
C14 C15 1_555 1_555
C22 C23 1_555 1_555
C29 C30 1_555 1_555
C32 C33 1_555 1_555
C34 C35 1_555 1_555
C36 C37 1_555 1_555
C39 C40 1_555 1_555
C41 C42 1_555 1_555
C43 C44 1_555 1_555
C46 C47 1_555 1_555
C48 C49 1_555 1_555
C50 C51 1_555 1_555
C53 C54 1_555 1_555
C55 C56 1_555 1_555
C56 C57 1_555 1_555
C57 C58 1_555 1_555
C76 C77 1_555 1_555
C80 C81 1_555 1_555
C83 C84 1_555 1_555
C86 C91 1_555 1_555
C90 C91 1_555 1_555
C94 C95 1_555 1_555
C97 C98 1_555 1_555

#END
