
#######################################################################
#
#                 Cambridge Crystallographic Data Centre
#                                CCDC 
#
#######################################################################
#
# If this CIF has been generated from an entry in the Cambridge 
# Structural Database, then it will include bibliographic, chemical, 
# crystal, experimental, refinement or atomic coordinate data resulting 
# from the CCDC's data processing and validation procedures.
#
#######################################################################

data_WIVHOZ
_chemical_formula_moiety         'C21 H26 O1'
_chemical_name_systematic        1,1,3,3-Tetramethyl-1,3-di(p-tolyl)acetone
_symmetry_cell_setting           monoclinic
_symmetry_space_group_name_H-M   'C 2/c'
_symmetry_Int_Tables_number      15
_space_group_name_Hall           '-C 2yn'
loop_
_symmetry_equiv_pos_site_id
_symmetry_equiv_pos_as_xyz
1 x,y,z
2 1/2+x,1/2+y,z
3 -x,y,1/2-z
4 1/2-x,1/2+y,1/2-z
5 -x,-y,-z
6 1/2-x,1/2-y,-z
7 x,-y,1/2+z
8 1/2+x,1/2-y,1/2+z
_cell_length_a                   21.939(4)
_cell_length_b                   6.3190(13)
_cell_length_c                   12.606(3)
_cell_angle_alpha                90
_cell_angle_beta                 105.79(3)
_cell_angle_gamma                90
_cell_volume                     1681.66
_exptl_crystal_colour            colorless
_exptl_crystal_description       prism
_cell_formula_units_Z            4
loop_
_atom_site_label
_atom_site_type_symbol
_atom_site_fract_x
_atom_site_fract_y
_atom_site_fract_z
O1 O 0.0000 0.05350(14) 0.7500
C1 C 0.0000 -0.13860(18) 0.7500
C2 C -0.05561(4) -0.25771(12) 0.66960(6)
C3 C -0.03235(4) -0.44066(14) 0.61108(7)
H1 H -0.0123(7) -0.556(2) 0.6590(12)
H2 H -0.0012(7) -0.387(2) 0.5741(12)
H3 H -0.0681(7) -0.499(2) 0.5548(12)
C4 C -0.09063(4) -0.10098(15) 0.57973(7)
H4 H -0.1265(7) -0.170(2) 0.5283(12)
H5 H -0.0609(8) -0.047(2) 0.5369(12)
H6 H -0.1098(7) 0.028(2) 0.6116(13)
C5 C -0.10169(4) -0.32809(12) 0.73523(6)
C6 C -0.12262(4) -0.18087(13) 0.80074(7)
H7 H -0.1068(6) -0.037(2) 0.8063(11)
C7 C -0.16605(4) -0.23756(14) 0.85833(7)
H8 H -0.1800(8) -0.127(2) 0.9027(13)
C8 C -0.18997(4) -0.44298(14) 0.85318(7)
C9 C -0.16925(4) -0.58912(14) 0.78796(7)
H9 H -0.1864(6) -0.739(2) 0.7819(11)
C10 C -0.12557(4) -0.53332(13) 0.73026(7)
H10 H -0.1111(7) -0.640(2) 0.6895(12)
C11 C -0.23609(5) -0.50527(17) 0.91725(7)
H11 H -0.2570(8) -0.645(3) 0.8940(14)
H12 H -0.2695(8) -0.400(3) 0.9069(14)
H13 H -0.2133(9) -0.525(3) 0.9963(15)
C2B C 0.05561(4) -0.25771(12) 0.83040(6)
C3B C 0.03235(4) -0.44066(14) 0.88892(7)
H1B H 0.0123(7) -0.556(2) 0.8410(12)
H2B H 0.0012(7) -0.387(2) 0.9259(12)
H3B H 0.0681(7) -0.499(2) 0.9452(12)
C4B C 0.09063(4) -0.10098(15) 0.92027(7)
H4B H 0.1265(7) -0.170(2) 0.9717(12)
H5B H 0.0609(8) -0.047(2) 0.9631(12)
H6B H 0.1098(7) 0.028(2) 0.8884(13)
C5B C 0.10169(4) -0.32809(12) 0.76477(6)
C6B C 0.12262(4) -0.18087(13) 0.69926(7)
H7B H 0.1068(6) -0.037(2) 0.6937(11)
C7B C 0.16605(4) -0.23756(14) 0.64167(7)
H8B H 0.1800(8) -0.127(2) 0.5973(13)
C8B C 0.18997(4) -0.44298(14) 0.64682(7)
C9B C 0.16925(4) -0.58912(14) 0.71204(7)
H9B H 0.1864(6) -0.739(2) 0.7181(11)
C10B C 0.12557(4) -0.53332(13) 0.76974(7)
H10B H 0.1111(7) -0.640(2) 0.8105(12)
C11B C 0.23609(5) -0.50527(17) 0.58275(7)
H11B H 0.2570(8) -0.645(3) 0.6060(14)
H12B H 0.2695(8) -0.400(3) 0.5931(14)
H13B H 0.2133(9) -0.525(3) 0.5037(15)
loop_
_geom_bond_atom_site_label_1
_geom_bond_atom_site_label_2
_geom_bond_site_symmetry_1
_geom_bond_site_symmetry_2
O1 C1 1_555 1_555
C1 C2 1_555 1_555
C2 C3 1_555 1_555
C3 H1 1_555 1_555
H2 C3 1_555 1_555
H3 C3 1_555 1_555
C4 C2 1_555 1_555
H4 C4 1_555 1_555
H5 C4 1_555 1_555
H6 C4 1_555 1_555
C5 C2 1_555 1_555
C6 C5 1_555 1_555
H7 C6 1_555 1_555
C7 C6 1_555 1_555
H8 C7 1_555 1_555
C8 C7 1_555 1_555
C9 C8 1_555 1_555
H9 C9 1_555 1_555
C10 C5 1_555 1_555
H10 C10 1_555 1_555
C11 C8 1_555 1_555
H11 C11 1_555 1_555
H12 C11 1_555 1_555
H13 C11 1_555 1_555
C2B C1 1_555 1_555
C3B C2B 1_555 1_555
H1B C3B 1_555 1_555
H2B C3B 1_555 1_555
H3B C3B 1_555 1_555
C4B C2B 1_555 1_555
H4B C4B 1_555 1_555
H5B C4B 1_555 1_555
H6B C4B 1_555 1_555
C5B C2B 1_555 1_555
C6B C5B 1_555 1_555
H7B C6B 1_555 1_555
C7B C6B 1_555 1_555
H8B C7B 1_555 1_555
C8B C7B 1_555 1_555
C9B C8B 1_555 1_555
H9B C9B 1_555 1_555
C10B C5B 1_555 1_555
H10B C10B 1_555 1_555
C11B C8B 1_555 1_555
H11B C11B 1_555 1_555
H12B C11B 1_555 1_555
H13B C11B 1_555 1_555
C9 C10 1_555 1_555
C9B C10B 1_555 1_555

#END
