
#######################################################################
#
#                 Cambridge Crystallographic Data Centre
#                                CCDC 
#
#######################################################################
#
# If this CIF has been generated from an entry in the Cambridge 
# Structural Database, then it will include bibliographic, chemical, 
# crystal, experimental, refinement or atomic coordinate data resulting 
# from the CCDC's data processing and validation procedures.
#
#######################################################################

data_WIVHEP
_chemical_formula_moiety         'C20 H24 O3,0.5(C12 H18 O2)'
_chemical_name_systematic        
"1,1,3,3-Tetramethyl-1-(4-hydroxyphenyl)-3-(4-methoxyphenyl)acetone hemikis(4,4'-bi-cyclohexanone)"
_symmetry_cell_setting           monoclinic
_symmetry_space_group_name_H-M   'P 21/c'
_symmetry_Int_Tables_number      14
_space_group_name_Hall           '-P 2ybc'
loop_
_symmetry_equiv_pos_site_id
_symmetry_equiv_pos_as_xyz
1 x,y,z
2 -x,1/2+y,1/2-z
3 -x,-y,-z
4 x,1/2-y,1/2+z
_cell_length_a                   6.2893(2)
_cell_length_b                   7.9701(2)
_cell_length_c                   43.7044(11)
_cell_angle_alpha                90
_cell_angle_beta                 92.9470(10)
_cell_angle_gamma                90
_cell_volume                     2187.84
_exptl_crystal_colour            colorless
_exptl_crystal_description       Block
_cell_formula_units_Z            4
loop_
_atom_site_label
_atom_site_type_symbol
_atom_site_fract_x
_atom_site_fract_y
_atom_site_fract_z
O1 O -0.36875(13) 0.28880(11) 0.15275(2)
O2 O 0.30237(13) -0.17530(11) 0.253407(18)
O3 O 0.07201(15) 0.79132(12) 0.047377(19)
H1 H 0.195(3) 0.838(3) 0.0477(4)
C1 C -0.17569(17) 0.28736(13) 0.15272(2)
C2 C -0.06163(16) 0.12286(13) 0.14398(2)
C3 C -0.05193(16) 0.45155(13) 0.16032(2)
C4 C 0.09702(18) 0.15499(14) 0.11890(2)
H2 H 0.146(2) 0.0470(19) 0.1109(3)
H3 H 0.222(2) 0.220(2) 0.1259(3)
H4 H 0.025(2) 0.2157(18) 0.1015(3)
C5 C -0.23018(19) -0.00273(15) 0.13140(3)
H5 H -0.305(3) 0.041(2) 0.1125(4)
H6 H -0.155(2) -0.107(2) 0.1260(4)
H7 H -0.334(2) -0.0287(19) 0.1470(3)
C6 C -0.19701(19) 0.56911(14) 0.17808(3)
H8 H -0.237(2) 0.517(2) 0.1973(4)
H9 H -0.333(2) 0.5950(19) 0.1657(3)
H10 H -0.120(3) 0.675(2) 0.1823(4)
C7 C 0.15154(18) 0.42291(14) 0.18067(3)
H11 H 0.222(2) 0.533(2) 0.1857(3)
H12 H 0.260(2) 0.352(2) 0.1711(3)
H13 H 0.113(2) 0.371(2) 0.2003(4)
C8 C 0.04446(16) 0.04496(12) 0.17299(2)
C9 C 0.23708(17) -0.03992(13) 0.17263(2)
H14 H 0.311(2) -0.0452(19) 0.1538(3)
C10 C 0.32823(17) -0.11747(13) 0.19877(3)
H15 H 0.462(3) -0.174(2) 0.1978(4)
C11 C 0.22559(17) -0.10884(13) 0.22608(2)
C12 C 0.03139(18) -0.02429(15) 0.22706(3)
H16 H -0.051(2) -0.0227(17) 0.2501(3)
C13 C -0.05775(17) 0.04971(14) 0.20070(2)
H17 H -0.192(2) 0.1057(19) 0.2017(3)
C14 C -0.00854(17) 0.53499(12) 0.12952(2)
C15 C 0.19169(17) 0.59500(14) 0.12260(2)
H18 H 0.311(2) 0.5785(18) 0.1373(3)
C16 C 0.22285(18) 0.67989(14) 0.09527(3)
H19 H 0.361(2) 0.7241(19) 0.0916(3)
C17 C 0.05278(18) 0.70606(14) 0.07419(2)
C18 C -0.14778(18) 0.64407(14) 0.08044(2)
H20 H -0.267(2) 0.6687(19) 0.0660(3)
C19 C -0.17659(17) 0.56011(13) 0.10773(2)
H21 H -0.316(2) 0.5204(18) 0.1120(3)
C20 C 0.5006(2) -0.26069(17) 0.25343(3)
H22 H 0.491(3) -0.359(2) 0.2399(4)
H23 H 0.615(2) -0.186(2) 0.2463(4)
H24 H 0.534(3) -0.295(2) 0.2746(4)
O4 O 0.44697(14) -0.03878(11) 0.04771(2)
C21 C 0.44536(19) 0.11404(16) 0.04469(3)
C22 C 0.6427(2) 0.21820(16) 0.05010(3)
H25 H 0.766(3) 0.138(2) 0.0538(4)
H26 H 0.621(3) 0.290(2) 0.0692(4)
C23 C 0.67769(18) 0.33731(15) 0.02314(3)
H27 H 0.716(2) 0.270(2) 0.0051(4)
H28 H 0.800(3) 0.408(2) 0.0282(4)
C24 C 0.48085(17) 0.44241(14) 0.01377(2)
H29 H 0.448(2) 0.518(2) 0.0322(4)
C25 C 0.29098(18) 0.32494(16) 0.00742(3)
H30 H 0.161(3) 0.389(2) 0.0025(4)
H31 H 0.323(3) 0.249(2) -0.0103(4)
C26 C 0.2484(2) 0.21098(18) 0.03481(3)
H32 H 0.129(3) 0.124(2) 0.0286(4)
H33 H 0.214(3) 0.288(2) 0.0525(4)
O4B O 0.55303(14) 1.03878(11) -0.04771(2)
C21B C 0.55464(19) 0.88596(16) -0.04469(3)
C22B C 0.3573(2) 0.78180(16) -0.05010(3)
H25B H 0.234(3) 0.862(2) -0.0538(4)
H26B H 0.379(3) 0.710(2) -0.0692(4)
C23B C 0.32231(18) 0.66269(15) -0.02314(3)
H27B H 0.284(2) 0.730(2) -0.0051(4)
H28B H 0.200(3) 0.592(2) -0.0282(4)
C24B C 0.51915(17) 0.55759(14) -0.01377(2)
H29B H 0.552(2) 0.482(2) -0.0322(4)
C25B C 0.70902(18) 0.67506(16) -0.00742(3)
H30B H 0.839(3) 0.611(2) -0.0025(4)
H31B H 0.677(3) 0.751(2) 0.0103(4)
C26B C 0.7516(2) 0.78902(18) -0.03481(3)
H32B H 0.871(3) 0.876(2) -0.0286(4)
H33B H 0.786(3) 0.712(2) -0.0525(4)
loop_
_geom_bond_atom_site_label_1
_geom_bond_atom_site_label_2
_geom_bond_site_symmetry_1
_geom_bond_site_symmetry_2
O1 C1 1_555 1_555
O2 C11 1_555 1_555
O3 H1 1_555 1_555
O4 C21 1_555 1_555
C1 C2 1_555 1_555
C2 C4 1_555 1_555
C3 C1 1_555 1_555
C4 H2 1_555 1_555
H3 C4 1_555 1_555
H4 C4 1_555 1_555
C5 C2 1_555 1_555
H5 C5 1_555 1_555
H6 C5 1_555 1_555
H7 C5 1_555 1_555
C6 C3 1_555 1_555
H8 C6 1_555 1_555
H9 C6 1_555 1_555
H10 C6 1_555 1_555
C7 C3 1_555 1_555
H11 C7 1_555 1_555
H12 C7 1_555 1_555
H13 C7 1_555 1_555
C8 C2 1_555 1_555
C9 C8 1_555 1_555
H14 C9 1_555 1_555
C10 C9 1_555 1_555
H15 C10 1_555 1_555
C11 C10 1_555 1_555
C12 C11 1_555 1_555
H16 C12 1_555 1_555
C13 C8 1_555 1_555
H17 C13 1_555 1_555
C14 C3 1_555 1_555
C15 C14 1_555 1_555
H18 C15 1_555 1_555
C16 C15 1_555 1_555
H19 C16 1_555 1_555
C17 O3 1_555 1_555
C18 C17 1_555 1_555
H20 C18 1_555 1_555
C19 C14 1_555 1_555
H21 C19 1_555 1_555
C20 O2 1_555 1_555
H22 C20 1_555 1_555
H23 C20 1_555 1_555
H24 C20 1_555 1_555
C21 C22 1_555 1_555
C22 H25 1_555 1_555
H26 C22 1_555 1_555
C23 C22 1_555 1_555
H27 C23 1_555 1_555
H28 C23 1_555 1_555
C24 C23 1_555 1_555
H29 C24 1_555 1_555
C25 C24 1_555 1_555
H30 C25 1_555 1_555
H31 C25 1_555 1_555
C26 C21 1_555 1_555
H32 C26 1_555 1_555
H33 C26 1_555 1_555
O4B C21B 1_555 1_555
C21B C22B 1_555 1_555
C22B H25B 1_555 1_555
H26B C22B 1_555 1_555
C23B C22B 1_555 1_555
H27B C23B 1_555 1_555
H28B C23B 1_555 1_555
C24B C24 1_555 1_555
H29B C24B 1_555 1_555
C25B C24B 1_555 1_555
H30B C25B 1_555 1_555
H31B C25B 1_555 1_555
C26B C21B 1_555 1_555
H32B C26B 1_555 1_555
H33B C26B 1_555 1_555
C12 C13 1_555 1_555
C16 C17 1_555 1_555
C18 C19 1_555 1_555
C25 C26 1_555 1_555
C23B C24B 1_555 1_555
C25B C26B 1_555 1_555

#END
