
#######################################################################
#
#                 Cambridge Crystallographic Data Centre
#                                CCDC 
#
#######################################################################
#
# If this CIF has been generated from an entry in the Cambridge 
# Structural Database, then it will include bibliographic, chemical, 
# crystal, experimental, refinement or atomic coordinate data resulting 
# from the CCDC's data processing and validation procedures.
#
#######################################################################

data_WIVJAN
_chemical_name_common            
"bis(4,4'-Bipyridine) dibenzyl ketone C-methylcalix(4)resorcinarene"
_chemical_formula_moiety         '2(C10 H8 N2),C15 H14 O1,C32 H32 O8,H2 O1'
_chemical_name_systematic        
"bis(4,4'-Bipyridine) dibenzyl ketone (2,8,14,20-tetrapropylpentacyclo[19.3.1.1^3,7^1^9,13^1^15,19^]octacosa-1(25),3(28),4,6,9(27),10,12,15(26),16,18,21,23-dodecaene-4,6,10,12,16,18,22,24-octol) monohydrate"
_symmetry_cell_setting           monoclinic
_symmetry_space_group_name_H-M   'C 2/c'
_symmetry_Int_Tables_number      15
_space_group_name_Hall           '-C 2yn'
loop_
_symmetry_equiv_pos_site_id
_symmetry_equiv_pos_as_xyz
1 x,y,z
2 1/2+x,1/2+y,z
3 -x,y,1/2-z
4 1/2-x,1/2+y,1/2-z
5 -x,-y,-z
6 1/2-x,1/2-y,-z
7 x,-y,1/2+z
8 1/2+x,1/2-y,1/2+z
_cell_length_a                   16.8532(3)
_cell_length_b                   15.7957(3)
_cell_length_c                   21.3382(4)
_cell_angle_alpha                90
_cell_angle_beta                 107.2930(10)
_cell_angle_gamma                90
_cell_volume                     5423.63
_exptl_crystal_colour            pink
_exptl_crystal_description       prism
_cell_formula_units_Z            4
loop_
_atom_site_label
_atom_site_type_symbol
_atom_site_fract_x
_atom_site_fract_y
_atom_site_fract_z
C1 C 0.0000 0.48026(16) 0.2500
C2 C 0.06906(14) 0.43281(16) 0.29749(10)
H1 H 0.1204 0.4642 0.3042
H2 H 0.0758 0.3785 0.2785
C3 C 0.05455(12) 0.41803(12) 0.36395(9)
C4 C 0.12234(13) 0.41140(12) 0.41914(10)
H3 H 0.1768(14) 0.4184(14) 0.4168(11)
C5 C 0.11116(14) 0.39827(14) 0.48060(10)
H4 H 0.1588(15) 0.3981(15) 0.5179(12)
C6 C 0.03226(14) 0.39147(12) 0.48658(9)
H5 H 0.0239(14) 0.3829(14) 0.5294(12)
C7 C -0.03582(13) 0.39885(12) 0.43177(9)
H6 H -0.0953(15) 0.3968(14) 0.4347(11)
C8 C -0.02454(13) 0.41202(14) 0.37087(9)
H7 H -0.0736(15) 0.4166(16) 0.3275(12)
O1 O 0.0000 0.55655(12) 0.2500
C2B C -0.06906(14) 0.43281(16) 0.20251(10)
H1B H -0.1204 0.4642 0.1958
H2B H -0.0758 0.3785 0.2215
C3B C -0.05455(12) 0.41803(12) 0.13605(9)
C4B C -0.12234(13) 0.41140(12) 0.08086(10)
H3B H -0.1768(14) 0.4184(14) 0.0832(11)
C5B C -0.11116(14) 0.39827(14) 0.01940(10)
H4B H -0.1588(15) 0.3981(15) -0.0179(12)
C6B C -0.03226(14) 0.39147(12) 0.01342(9)
H5B H -0.0239(14) 0.3829(14) -0.0294(12)
C7B C 0.03582(13) 0.39885(12) 0.06823(9)
H6B H 0.0953(15) 0.3968(14) 0.0653(11)
C8B C 0.02454(13) 0.41202(14) 0.12913(9)
H7B H 0.0736(15) 0.4166(16) 0.1725(12)
C9 C -0.15605(10) 0.71803(10) 0.08961(7)
H8 H -0.1967(11) 0.7344(12) 0.0498(9)
C10 C -0.18148(10) 0.75798(10) 0.14577(8)
C11 C -0.22410(10) 0.83502(11) 0.13732(8)
C12 C -0.24667(11) 0.87121(11) 0.18885(8)
H9 H -0.2744(13) 0.9238(14) 0.1828(10)
C13 C -0.22586(10) 0.83202(11) 0.24998(8)
C14 C -0.18286(9) 0.75524(10) 0.26071(8)
C15 C -0.16149(10) 0.72075(11) 0.20769(8)
H10 H -0.1326(12) 0.6685(13) 0.2131(9)
C16 C -0.15986(10) 0.71209(10) 0.32759(8)
H11 H -0.2045(12) 0.7255(12) 0.3456(9)
C17 C -0.07984(10) 0.74942(10) 0.37326(7)
C18 C -0.08151(11) 0.81047(11) 0.42028(7)
C19 C -0.00849(11) 0.84392(11) 0.46162(8)
H12 H -0.0098(12) 0.8878(12) 0.4921(10)
C20 C 0.06789(11) 0.81476(11) 0.45845(7)
C21 C -0.07272(10) 0.75259(10) 0.08712(7)
C22 C -0.00215(10) 0.72339(10) 0.37025(7)
H13 H 0.0002(11) 0.6811(12) 0.3381(9)
C23 C -0.15654(12) 0.62125(11) 0.09103(8)
H14 H -0.1135(12) 0.5979(12) 0.1284(10)
H15 H -0.1481(13) 0.6009(13) 0.0512(11)
H16 H -0.2113(13) 0.5993(13) 0.0927(10)
C24 C -0.15607(11) 0.61542(11) 0.32320(9)
H17 H -0.1109(11) 0.5941(11) 0.3075(9)
H18 H -0.2089(13) 0.5933(13) 0.2932(10)
H19 H -0.1468(13) 0.5866(14) 0.3669(11)
O2 O -0.24722(9) 0.87867(8) 0.07905(6)
H20 H -0.2211(16) 0.8612(17) 0.0542(13)
O3 O -0.25223(8) 0.87227(8) 0.29744(7)
H21 H -0.2247(14) 0.8554(15) 0.3350(12)
O4 O -0.15779(8) 0.83841(8) 0.42372(6)
H22 H -0.1501(15) 0.8589(16) 0.4622(13)
O5 O 0.14095(8) 0.84709(8) 0.49900(6)
H23 H 0.1329(15) 0.8682(16) 0.5341(13)
C9B C 0.15605(10) 0.71803(10) 0.41039(7)
H8B H 0.1967(11) 0.7344(12) 0.4502(9)
C10B C 0.18148(10) 0.75798(10) 0.35423(8)
C11B C 0.22410(10) 0.83502(11) 0.36268(8)
C12B C 0.24667(11) 0.87121(11) 0.31115(8)
H9B H 0.2744(13) 0.9238(14) 0.3172(10)
C13B C 0.22586(10) 0.83202(11) 0.25002(8)
C14B C 0.18286(9) 0.75524(10) 0.23929(8)
C15B C 0.16149(10) 0.72075(11) 0.29231(8)
H10B H 0.1326(12) 0.6685(13) 0.2869(9)
C16B C 0.15986(10) 0.71209(10) 0.17241(8)
H11B H 0.2045(12) 0.7255(12) 0.1544(9)
C17B C 0.07984(10) 0.74942(10) 0.12674(7)
C18B C 0.08151(11) 0.81047(11) 0.07972(7)
C19B C 0.00849(11) 0.84392(11) 0.03838(8)
H12B H 0.0098(12) 0.8878(12) 0.0079(10)
C20B C -0.06789(11) 0.81476(11) 0.04155(7)
C21B C 0.07272(10) 0.75259(10) 0.41288(7)
C22B C 0.00215(10) 0.72339(10) 0.12975(7)
H13B H -0.0002(11) 0.6811(12) 0.1619(9)
C23B C 0.15654(12) 0.62125(11) 0.40897(8)
H14B H 0.1135(12) 0.5979(12) 0.3716(10)
H15B H 0.1481(13) 0.6009(13) 0.4488(11)
H16B H 0.2113(13) 0.5993(13) 0.4073(10)
C24B C 0.15607(11) 0.61542(11) 0.17680(9)
H17B H 0.1109(11) 0.5941(11) 0.1925(9)
H18B H 0.2089(13) 0.5933(13) 0.2068(10)
H19B H 0.1468(13) 0.5866(14) 0.1331(11)
O2B O 0.24722(9) 0.87867(8) 0.42095(6)
H20B H 0.2211(16) 0.8612(17) 0.4458(13)
O3B O 0.25223(8) 0.87227(8) 0.20256(7)
H21B H 0.2247(14) 0.8554(15) 0.1650(12)
O4B O 0.15779(8) 0.83841(8) 0.07628(6)
H22B H 0.1501(15) 0.8589(16) 0.0378(13)
O5B O -0.14095(8) 0.84709(8) 0.00100(6)
H23B H -0.1329(15) 0.8682(16) -0.0341(13)
C25 C 0.11781(10) 0.11470(10) 0.31585(8)
C26 C 0.1395(2) 0.1888(2) 0.35206(19)
H24 H 0.1479 0.2390 0.3321
C27 C 0.1483(2) 0.1859(3) 0.4189(2)
H25 H 0.1621 0.2360 0.4426
C28 C 0.1145(2) 0.0462(2) 0.41419(16)
H26 H 0.1050 -0.0028 0.4350
C29 C 0.1035(2) 0.0429(2) 0.34691(16)
H27 H 0.0867 -0.0070 0.3235
C30 C 0.11266(10) 0.11368(10) 0.24506(8)
C31 C 0.0995(6) 0.1874(8) 0.2042(6)
H28 H 0.0874 0.2382 0.2215
C32 C 0.1035(11) 0.1871(10) 0.1425(8)
H29 H 0.0984 0.2374 0.1191
C33 C 0.1290(5) 0.0416(8) 0.1492(6)
H30 H 0.1404 -0.0078 0.1297
C34 C 0.1270(5) 0.0383(7) 0.2118(6)
H31 H 0.1350 -0.0132 0.2339
N1 N 0.13863(11) 0.11743(10) 0.45137(7)
N2 N 0.11530(10) 0.11238(9) 0.11403(7)
O6 O 0.0000 0.87497(16) 0.2500
C35? C 0.1010(6) 0.1852(5) 0.3481(4)
H32? H 0.0826 0.2343 0.3241
C36? C 0.1107(6) 0.1852(7) 0.4146(5)
H33? H 0.0974 0.2337 0.4341
C37? C 0.1599(5) 0.0519(5) 0.4257(4)
H34? H 0.1843 0.0071 0.4529
C38? C 0.1484(5) 0.0445(5) 0.3594(4)
H35? H 0.1605 -0.0065 0.3425
C39? C 0.1204(9) 0.1862(13) 0.2163(8)
H36? H 0.1266 0.2382 0.2378
C40? C 0.1185(16) 0.1773(15) 0.1478(13)
H37? H 0.1198 0.2280 0.1260
C41? C 0.1016(8) 0.0421(13) 0.1460(10)
H38? H 0.0913 -0.0085 0.1227
C42? C 0.1017(8) 0.0406(12) 0.2135(8)
H39? H 0.0945 -0.0096 0.2339
loop_
_geom_bond_atom_site_label_1
_geom_bond_atom_site_label_2
_geom_bond_site_symmetry_1
_geom_bond_site_symmetry_2
C1 C2 1_555 1_555
C2 H1 1_555 1_555
H2 C2 1_555 1_555
C3 C2 1_555 1_555
C4 C3 1_555 1_555
H3 C4 1_555 1_555
C5 C4 1_555 1_555
H4 C5 1_555 1_555
C6 C5 1_555 1_555
H5 C6 1_555 1_555
C7 C6 1_555 1_555
H6 C7 1_555 1_555
C8 C3 1_555 1_555
H7 C8 1_555 1_555
O1 C1 1_555 1_555
C9 H8 1_555 1_555
C10 C9 1_555 1_555
C11 C10 1_555 1_555
C12 C11 1_555 1_555
H9 C12 1_555 1_555
C13 C12 1_555 1_555
C14 C13 1_555 1_555
C15 C10 1_555 1_555
H10 C15 1_555 1_555
C16 C14 1_555 1_555
H11 C16 1_555 1_555
C17 C16 1_555 1_555
C18 C17 1_555 1_555
C19 C18 1_555 1_555
H12 C19 1_555 1_555
C20 C19 1_555 1_555
C21 C9 1_555 1_555
C22 C17 1_555 1_555
H13 C22 1_555 1_555
C23 C9 1_555 1_555
H14 C23 1_555 1_555
H15 C23 1_555 1_555
H16 C23 1_555 1_555
C24 C16 1_555 1_555
H17 C24 1_555 1_555
H18 C24 1_555 1_555
H19 C24 1_555 1_555
O2 C11 1_555 1_555
H20 O2 1_555 1_555
O3 C13 1_555 1_555
H21 O3 1_555 1_555
O4 C18 1_555 1_555
H22 O4 1_555 1_555
O5 C20 1_555 1_555
H23 O5 1_555 1_555
C25 C26 1_555 1_555
C26 H24 1_555 1_555
C27 C26 1_555 1_555
H25 C27 1_555 1_555
C28 H26 1_555 1_555
C29 C25 1_555 1_555
H27 C29 1_555 1_555
C30 C25 1_555 1_555
C31 C30 1_555 1_555
H28 C31 1_555 1_555
C32 C31 1_555 1_555
H29 C32 1_555 1_555
C33 H30 1_555 1_555
C34 C30 1_555 1_555
H31 C34 1_555 1_555
N1 C27 1_555 1_555
N2 C32 1_555 1_555
C2B C1 1_555 1_555
H1B C2B 1_555 1_555
H2B C2B 1_555 1_555
C3B C2B 1_555 1_555
C4B C3B 1_555 1_555
H3B C4B 1_555 1_555
C5B C4B 1_555 1_555
H4B C5B 1_555 1_555
C6B C5B 1_555 1_555
H5B C6B 1_555 1_555
C7B C6B 1_555 1_555
H6B C7B 1_555 1_555
C8B C3B 1_555 1_555
H7B C8B 1_555 1_555
C9B H8B 1_555 1_555
C10B C9B 1_555 1_555
C11B C10B 1_555 1_555
C12B C11B 1_555 1_555
H9B C12B 1_555 1_555
C13B C12B 1_555 1_555
C14B C13B 1_555 1_555
C15B C10B 1_555 1_555
H10B C15B 1_555 1_555
C16B C14B 1_555 1_555
H11B C16B 1_555 1_555
C17B C16B 1_555 1_555
C18B C17B 1_555 1_555
C19B C18B 1_555 1_555
H12B C19B 1_555 1_555
C20B C21 1_555 1_555
C21B C20 1_555 1_555
C22B C21 1_555 1_555
H13B C22B 1_555 1_555
C23B C9B 1_555 1_555
H14B C23B 1_555 1_555
H15B C23B 1_555 1_555
H16B C23B 1_555 1_555
C24B C16B 1_555 1_555
H17B C24B 1_555 1_555
H18B C24B 1_555 1_555
H19B C24B 1_555 1_555
O2B C11B 1_555 1_555
H20B O2B 1_555 1_555
O3B C13B 1_555 1_555
H21B O3B 1_555 1_555
O4B C18B 1_555 1_555
H22B O4B 1_555 1_555
O5B C20B 1_555 1_555
H23B O5B 1_555 1_555
C7 C8 1_555 1_555
C14 C15 1_555 1_555
C22 C21B 1_555 1_555
C28 C29 1_555 1_555
C28 N1 1_555 1_555
C33 C34 1_555 1_555
C33 N2 1_555 1_555
C7B C8B 1_555 1_555
C9B C21B 1_555 1_555
C14B C15B 1_555 1_555
C17B C22B 1_555 1_555
C19B C20B 1_555 1_555

#END
