
#######################################################################
#
#                 Cambridge Crystallographic Data Centre
#                                CCDC 
#
#######################################################################
#
# If this CIF has been generated from an entry in the Cambridge 
# Structural Database, then it will include bibliographic, chemical, 
# crystal, experimental, refinement or atomic coordinate data resulting 
# from the CCDC's data processing and validation procedures.
#
#######################################################################

data_WIVKOC
_chemical_formula_moiety         'C32 H32 B1 N1'
_chemical_name_systematic        N-(Dimesitylboryl)-3-phenylindole
_symmetry_cell_setting           monoclinic
_symmetry_space_group_name_H-M   'P 21/c'
_symmetry_Int_Tables_number      14
_space_group_name_Hall           '-P 2ybc'
loop_
_symmetry_equiv_pos_site_id
_symmetry_equiv_pos_as_xyz
1 x,y,z
2 -x,1/2+y,1/2-z
3 -x,-y,-z
4 x,1/2-y,1/2+z
_cell_length_a                   11.4353(10)
_cell_length_b                   18.5158(15)
_cell_length_c                   11.9490(10)
_cell_angle_alpha                90
_cell_angle_beta                 92.2680(10)
_cell_angle_gamma                90
_cell_volume                     2528.02
_chemical_melting_point          233deg.C
_cell_formula_units_Z            4
loop_
_atom_site_label
_atom_site_type_symbol
_atom_site_fract_x
_atom_site_fract_y
_atom_site_fract_z
N1 N 0.26213(11) 0.09551(7) 0.81559(11)
B1 B 0.30446(17) 0.12357(9) 0.92248(16)
C1 C 0.33168(16) 0.06332(9) 0.73502(14)
H1 H 0.4123(15) 0.0559(9) 0.7515(14)
C2 C 0.26859(15) 0.04561(8) 0.64084(14)
C3 C 0.04861(15) 0.07016(9) 0.58896(15)
H2 H 0.0510(14) 0.0518(8) 0.5122(15)
C4 C -0.05296(16) 0.09816(9) 0.62918(16)
H3 H -0.1250(16) 0.1000(9) 0.5832(15)
C5 C -0.05535(16) 0.12493(9) 0.73802(16)
H4 H -0.1277(14) 0.1448(8) 0.7685(13)
C6 C 0.04406(15) 0.12580(9) 0.80826(15)
H5 H 0.0399(14) 0.1453(8) 0.8837(14)
C7 C 0.14712(14) 0.09801(8) 0.76723(13)
C8 C 0.14976(14) 0.06926(8) 0.65832(14)
C9 C 0.21459(14) 0.13057(8) 1.01791(13)
C10 C 0.18439(15) 0.19899(9) 1.06011(14)
C11 C 0.10418(16) 0.20430(11) 1.14369(15)
H6 H 0.0837(14) 0.2500(9) 1.1687(14)
C12 C 0.05295(15) 0.14376(10) 1.18967(15)
C13 C 0.08272(16) 0.07663(10) 1.14847(15)
H7 H 0.0474(14) 0.0340(9) 1.1778(14)
C14 C 0.16073(14) 0.06890(9) 1.06260(14)
C15 C 0.18583(16) -0.00641(9) 1.02029(15)
H8 H 0.1809 -0.0410 1.0820
H9 H 0.2646 -0.0078 0.9909
H10 H 0.1282 -0.0191 0.9606
C16 C -0.03462(19) 0.15034(12) 1.28121(18)
H11 H -0.0966 0.1843 1.2575
H12 H 0.0052 0.1681 1.3499
H13 H -0.0691 0.1029 1.2953
C17 C 0.23249(17) 0.26683(9) 1.00866(16)
H14 H 0.2097 0.3089 1.0526
H15 H 0.2009 0.2718 0.9316
H16 H 0.3180 0.2638 1.0084
C18 C 0.43717(14) 0.14765(8) 0.93662(14)
C19 C 0.50805(15) 0.12541(8) 1.03018(14)
C20 C 0.62080(16) 0.15171(10) 1.04586(16)
H17 H 0.6679(15) 0.1350(8) 1.1073(14)
C21 C 0.66919(16) 0.20086(10) 0.97368(16)
C22 C 0.59963(16) 0.22320(10) 0.88274(16)
H18 H 0.6330(14) 0.2574(8) 0.8324(14)
C23 C 0.48594(15) 0.19800(9) 0.86247(13)
C24 C 0.41754(17) 0.22953(10) 0.76259(15)
H19 H 0.4515 0.2762 0.7427
H20 H 0.3357 0.2364 0.7817
H21 H 0.4213 0.1964 0.6989
C25 C 0.79157(17) 0.22972(12) 0.99538(19)
H22 H 0.8470 0.1894 1.0007
H23 H 0.7949 0.2570 1.0658
H24 H 0.8123 0.2616 0.9337
C26 C 0.46431(16) 0.07251(10) 1.11476(15)
H25 H 0.5270 0.0619 1.1706
H26 H 0.4401 0.0278 1.0767
H27 H 0.3974 0.0934 1.1520
C27 C 0.30861(14) 0.00640(9) 0.54157(14)
C28 C 0.37108(16) -0.05777(10) 0.55323(17)
H28 H 0.3924(16) -0.0759(9) 0.6320(16)
C29 C 0.40273(18) -0.09683(11) 0.45996(18)
H29 H 0.4501(16) -0.1413(10) 0.4715(16)
C30 C 0.37184(16) -0.07259(11) 0.35367(17)
H30 H 0.3915(15) -0.1024(9) 0.2851(16)
C31 C 0.31174(16) -0.00833(11) 0.34091(16)
H31 H 0.2915(14) 0.0091(9) 0.2654(15)
C32 C 0.28057(16) 0.03108(10) 0.43333(15)
H32 H 0.2386(14) 0.0772(9) 0.4225(14)
loop_
_geom_bond_atom_site_label_1
_geom_bond_atom_site_label_2
_geom_bond_site_symmetry_1
_geom_bond_site_symmetry_2
N1 B1 1_555 1_555
B1 C9 1_555 1_555
C1 N1 1_555 1_555
H1 C1 1_555 1_555
C2 C1 1_555 1_555
C3 H2 1_555 1_555
C4 C3 1_555 1_555
H3 C4 1_555 1_555
C5 C4 1_555 1_555
H4 C5 1_555 1_555
C6 C5 1_555 1_555
H5 C6 1_555 1_555
C7 N1 1_555 1_555
C8 C2 1_555 1_555
C9 C10 1_555 1_555
C10 C11 1_555 1_555
C11 H6 1_555 1_555
C12 C11 1_555 1_555
C13 C12 1_555 1_555
H7 C13 1_555 1_555
C14 C9 1_555 1_555
C15 C14 1_555 1_555
H8 C15 1_555 1_555
H9 C15 1_555 1_555
H10 C15 1_555 1_555
C16 C12 1_555 1_555
H11 C16 1_555 1_555
H12 C16 1_555 1_555
H13 C16 1_555 1_555
C17 C10 1_555 1_555
H14 C17 1_555 1_555
H15 C17 1_555 1_555
H16 C17 1_555 1_555
C18 B1 1_555 1_555
C19 C18 1_555 1_555
C20 C19 1_555 1_555
H17 C20 1_555 1_555
C21 C20 1_555 1_555
C22 C21 1_555 1_555
H18 C22 1_555 1_555
C23 C18 1_555 1_555
C24 C23 1_555 1_555
H19 C24 1_555 1_555
H20 C24 1_555 1_555
H21 C24 1_555 1_555
C25 C21 1_555 1_555
H22 C25 1_555 1_555
H23 C25 1_555 1_555
H24 C25 1_555 1_555
C26 C19 1_555 1_555
H25 C26 1_555 1_555
H26 C26 1_555 1_555
H27 C26 1_555 1_555
C27 C2 1_555 1_555
C28 C27 1_555 1_555
H28 C28 1_555 1_555
C29 C28 1_555 1_555
H29 C29 1_555 1_555
C30 C29 1_555 1_555
H30 C30 1_555 1_555
C31 C30 1_555 1_555
H31 C31 1_555 1_555
C32 C27 1_555 1_555
H32 C32 1_555 1_555
C3 C8 1_555 1_555
C6 C7 1_555 1_555
C7 C8 1_555 1_555
C13 C14 1_555 1_555
C22 C23 1_555 1_555
C31 C32 1_555 1_555

#END
