
#######################################################################
#
#                 Cambridge Crystallographic Data Centre
#                                CCDC 
#
#######################################################################
#
# If this CIF has been generated from an entry in the Cambridge 
# Structural Database, then it will include bibliographic, chemical, 
# crystal, experimental, refinement or atomic coordinate data resulting 
# from the CCDC's data processing and validation procedures.
#
#######################################################################

data_WIVKAO
_chemical_formula_moiety         'C27 H30 B1 N1'
_chemical_name_systematic        N-(Dimesitylboryl)-2-methylindole
_symmetry_cell_setting           orthorhombic
_symmetry_space_group_name_H-M   'P n a 21'
_symmetry_Int_Tables_number      33
_space_group_name_Hall           'P 2c -2n'
loop_
_symmetry_equiv_pos_site_id
_symmetry_equiv_pos_as_xyz
1 x,y,z
2 -x,-y,1/2+z
3 1/2+x,1/2-y,z
4 1/2-x,1/2+y,1/2+z
_cell_length_a                   22.3981(18)
_cell_length_b                   8.1607(7)
_cell_length_c                   12.2170(10)
_cell_angle_alpha                90
_cell_angle_beta                 90
_cell_angle_gamma                90
_cell_volume                     2233.07
_chemical_melting_point          226deg.C
_cell_formula_units_Z            4
loop_
_atom_site_label
_atom_site_type_symbol
_atom_site_fract_x
_atom_site_fract_y
_atom_site_fract_z
B1 B 0.82950(8) 0.8388(2) 0.25605(17)
N1 N 0.86532(6) 0.93744(15) 0.18209(12)
C1 C 0.84593(8) 1.0205(2) 0.08610(16)
C2 C 0.89142(10) 1.1053(2) 0.04335(17)
C3 C 1.00089(10) 1.1488(2) 0.1075(2)
H1 H 1.0128 1.2173 0.0507
C4 C 1.03967(9) 1.1088(3) 0.1900(3)
H2 H 1.0784 1.1498 0.1885
C5 C 1.02225(8) 1.0086(2) 0.27555(19)
H3 H 1.0492 0.9854 0.3313
C6 C 0.96533(8) 0.9421(2) 0.2796(2)
C7 C 0.92644(8) 0.97884(18) 0.19562(15)
C8 C 0.94326(8) 1.0846(2) 0.11047(16)
C9 C 0.86042(6) 0.69545(17) 0.32118(14)
C10 C 0.85590(7) 0.68446(18) 0.43700(14)
C11 C 0.88143(7) 0.55258(19) 0.49153(16)
H4 H 0.8783 0.5473 0.5674
C12 C 0.91153(7) 0.42831(19) 0.43674(16)
C13 C 0.91518(7) 0.43930(19) 0.32436(17)
H5 H 0.9344 0.3560 0.2862
C14 C 0.89124(7) 0.56985(18) 0.26550(15)
C15 C 0.89818(10) 0.5674(2) 0.14252(16)
H6 H 0.9164 0.4662 0.1205
H7 H 0.9229 0.6574 0.1201
H8 H 0.8596 0.5772 0.1088
C16 C 0.93795(10) 0.2853(2) 0.49814(19)
H9 H 0.9645 0.2259 0.4508
H10 H 0.9065 0.2140 0.5222
H11 H 0.9597 0.3249 0.5605
C17 C 0.82674(9) 0.8160(2) 0.50415(16)
H12 H 0.8248 0.7817 0.5792
H13 H 0.7871 0.8355 0.4772
H14 H 0.8497 0.9151 0.4989
C18 C 0.76131(7) 0.87967(18) 0.26955(15)
C19 C 0.71655(7) 0.7614(2) 0.25189(14)
C20 C 0.65708(8) 0.8000(3) 0.27043(17)
C21 C 0.63948(7) 0.9514(2) 0.30944(16)
C22 C 0.68321(8) 1.0664(2) 0.32713(17)
H15 H 0.6723 1.1688 0.3540
C23 C 0.74340(7) 1.0351(2) 0.30625(15)
C24 C 0.78795(9) 1.1718(2) 0.3266(2)
H16 H 0.7686 1.2598 0.3649
H17 H 0.8030 1.2112 0.2579
H18 H 0.8204 1.1309 0.3700
C25 C 0.57411(9) 0.9880(3) 0.3303(2)
H19 H 0.5707 1.0863 0.3731
H20 H 0.5563 0.8983 0.3694
H21 H 0.5539 1.0027 0.2617
C26 C 0.73182(9) 0.5938(2) 0.2063(2)
H22 H 0.6983 0.5219 0.2152
H23 H 0.7656 0.5500 0.2449
H24 H 0.7413 0.6034 0.1299
C27 C 0.78547(10) 0.9975(3) 0.03826(19)
H25 H 0.7844 1.0442 -0.0338
H26 H 0.7564 1.0508 0.0837
H27 H 0.7766 0.8826 0.0340
H28 H 0.6275(7) 0.7254(19) 0.2580(15)
H29 H 0.9576(8) 0.879(2) 0.3343(16)
H30 H 0.8877(8) 1.163(2) -0.0218(17)
loop_
_geom_bond_atom_site_label_1
_geom_bond_atom_site_label_2
_geom_bond_site_symmetry_1
_geom_bond_site_symmetry_2
B1 N1 1_555 1_555
N1 C1 1_555 1_555
C1 C2 1_555 1_555
C2 C8 1_555 1_555
C3 H1 1_555 1_555
C4 C3 1_555 1_555
H2 C4 1_555 1_555
C5 C4 1_555 1_555
H3 C5 1_555 1_555
C6 C5 1_555 1_555
C7 N1 1_555 1_555
C8 C3 1_555 1_555
C9 B1 1_555 1_555
C10 C9 1_555 1_555
C11 C10 1_555 1_555
H4 C11 1_555 1_555
C12 C11 1_555 1_555
C13 C12 1_555 1_555
H5 C13 1_555 1_555
C14 C9 1_555 1_555
C15 C14 1_555 1_555
H6 C15 1_555 1_555
H7 C15 1_555 1_555
H8 C15 1_555 1_555
C16 C12 1_555 1_555
H9 C16 1_555 1_555
H10 C16 1_555 1_555
H11 C16 1_555 1_555
C17 C10 1_555 1_555
H12 C17 1_555 1_555
H13 C17 1_555 1_555
H14 C17 1_555 1_555
C18 B1 1_555 1_555
C19 C18 1_555 1_555
C20 C19 1_555 1_555
C21 C20 1_555 1_555
C22 C21 1_555 1_555
H15 C22 1_555 1_555
C23 C18 1_555 1_555
C24 C23 1_555 1_555
H16 C24 1_555 1_555
H17 C24 1_555 1_555
H18 C24 1_555 1_555
C25 C21 1_555 1_555
H19 C25 1_555 1_555
H20 C25 1_555 1_555
H21 C25 1_555 1_555
C26 C19 1_555 1_555
H22 C26 1_555 1_555
H23 C26 1_555 1_555
H24 C26 1_555 1_555
C27 C1 1_555 1_555
H25 C27 1_555 1_555
H26 C27 1_555 1_555
H27 C27 1_555 1_555
H28 C20 1_555 1_555
H29 C6 1_555 1_555
H30 C2 1_555 1_555
C6 C7 1_555 1_555
C7 C8 1_555 1_555
C13 C14 1_555 1_555
C22 C23 1_555 1_555

#END
