
#######################################################################
#
#                 Cambridge Crystallographic Data Centre
#                                CCDC 
#
#######################################################################
#
# If this CIF has been generated from an entry in the Cambridge 
# Structural Database, then it will include bibliographic, chemical, 
# crystal, experimental, refinement or atomic coordinate data resulting 
# from the CCDC's data processing and validation procedures.
#
#######################################################################

data_WIVPUO
_chemical_formula_moiety         'C13 H16 O2'
_chemical_name_systematic        6-(Prop-2-yn-1-yl)spiro[4.5]decane-1,7-dione
_symmetry_cell_setting           monoclinic
_symmetry_space_group_name_H-M   'P 21/c'
_symmetry_Int_Tables_number      14
_space_group_name_Hall           '-P 2ybc'
loop_
_symmetry_equiv_pos_site_id
_symmetry_equiv_pos_as_xyz
1 x,y,z
2 -x,1/2+y,1/2-z
3 -x,-y,-z
4 x,1/2-y,1/2+z
_cell_length_a                   12.5769(11)
_cell_length_b                   7.8178(4)
_cell_length_c                   12.5456(8)
_cell_angle_alpha                90
_cell_angle_beta                 115.695(10)
_cell_angle_gamma                90
_cell_volume                     1111.55
_cell_formula_units_Z            4
loop_
_atom_site_label
_atom_site_type_symbol
_atom_site_fract_x
_atom_site_fract_y
_atom_site_fract_z
O1 O 0.79007(19) 0.8694(3) 0.62056(17)
O2 O 0.6220(2) 1.1324(3) 0.69370(18)
C1 C 0.6186(2) 0.9821(4) 0.7131(2)
C2 C 0.5137(3) 0.8728(4) 0.6424(3)
H1 H 0.4587 0.9371 0.5748
H2 H 0.4738 0.8421 0.6908
C3 C 0.5502(3) 0.7110(5) 0.5997(3)
H3 H 0.4823 0.6368 0.5616
H4 H 0.5791 0.7406 0.5418
C4 C 0.6456(3) 0.6173(3) 0.7019(3)
H5 H 0.6691 0.5174 0.6715
H6 H 0.6130 0.5775 0.7548
C5 C 0.7562(2) 0.7264(3) 0.77331(19)
C6 C 0.7198(2) 0.8937(3) 0.81405(19)
H7 H 0.6904 0.8611 0.8718
C7 C 0.8218(2) 1.0185(4) 0.8769(2)
H8 H 0.8927 0.9537 0.9235
H9 H 0.8358 1.0822 0.8179
C8 C 0.8007(2) 1.1390(4) 0.9542(2)
C9 C 0.7815(3) 1.2331(4) 1.0172(3)
H10 H 0.7663 1.3074 1.0669
C10 C 0.8468(3) 0.6192(4) 0.8735(2)
H11 H 0.9018 0.6922 0.9354
H12 H 0.8081 0.5444 0.9075
C11 C 0.9106(3) 0.5150(4) 0.8159(3)
H13 H 0.9885 0.4806 0.8737
H14 H 0.8658 0.4138 0.7773
C12 C 0.9187(3) 0.6379(4) 0.7268(3)
H15 H 0.9931 0.6991 0.7608
H16 H 0.9129 0.5768 0.6572
C13 C 0.8185(2) 0.7586(3) 0.69530(19)
loop_
_geom_bond_atom_site_label_1
_geom_bond_atom_site_label_2
_geom_bond_site_symmetry_1
_geom_bond_site_symmetry_2
O1 C13 1_555 1_555
O2 C1 1_555 1_555
C1 C2 1_555 1_555
C2 H1 1_555 1_555
H2 C2 1_555 1_555
C3 C2 1_555 1_555
H3 C3 1_555 1_555
H4 C3 1_555 1_555
C4 C3 1_555 1_555
H5 C4 1_555 1_555
H6 C4 1_555 1_555
C5 C4 1_555 1_555
C6 C1 1_555 1_555
H7 C6 1_555 1_555
C7 C6 1_555 1_555
H8 C7 1_555 1_555
H9 C7 1_555 1_555
C8 C7 1_555 1_555
C9 C8 1_555 1_555
H10 C9 1_555 1_555
C10 C5 1_555 1_555
H11 C10 1_555 1_555
H12 C10 1_555 1_555
C11 C10 1_555 1_555
H13 C11 1_555 1_555
H14 C11 1_555 1_555
C12 C11 1_555 1_555
H15 C12 1_555 1_555
H16 C12 1_555 1_555
C13 C5 1_555 1_555
C5 C6 1_555 1_555
C12 C13 1_555 1_555

#END
