
#######################################################################
#
#                 Cambridge Crystallographic Data Centre
#                                CCDC 
#
#######################################################################
#
# If this CIF has been generated from an entry in the Cambridge 
# Structural Database, then it will include bibliographic, chemical, 
# crystal, experimental, refinement or atomic coordinate data resulting 
# from the CCDC's data processing and validation procedures.
#
#######################################################################

data_WIVRUQ
_chemical_formula_moiety         'C42 H40 B1 N3 Si2'
_chemical_name_systematic        
1,3,7,9-tetraphenyl-5,5-bis((trimethylsilyl)ethynyl)-5H-dipyrrolo[1,2-c:2',1'-f][1,3,5,2]triazaborinine
_symmetry_cell_setting           triclinic
_symmetry_space_group_name_H-M   'P -1'
_symmetry_Int_Tables_number      2
_space_group_name_Hall           '-P 1'
loop_
_symmetry_equiv_pos_site_id
_symmetry_equiv_pos_as_xyz
1 x,y,z
2 -x,-y,-z
_cell_length_a                   10.0268(10)
_cell_length_b                   12.5229(12)
_cell_length_c                   15.1688(14)
_cell_angle_alpha                81.432(2)
_cell_angle_beta                 79.619(2)
_cell_angle_gamma                84.886(2)
_cell_volume                     1848.78
_exptl_crystal_colour            orange
_exptl_crystal_description       prism
_cell_formula_units_Z            2
loop_
_atom_site_label
_atom_site_type_symbol
_atom_site_fract_x
_atom_site_fract_y
_atom_site_fract_z
Si1 Si 0.43363(4) 1.07348(3) 0.28973(3)
N1 N 0.60225(10) 0.67853(8) 0.21026(7)
C1 C 0.71858(13) 0.71925(10) 0.16307(8)
B1 B 0.45148(14) 0.72773(11) 0.21704(9)
Si2 Si 0.26807(4) 0.61075(3) -0.00884(2)
N2 N 0.55144(11) 0.52315(8) 0.32085(7)
C2 C 0.83032(13) 0.64793(10) 0.18159(9)
H1 H 0.9231 0.6590 0.1577
N3 N 0.37308(10) 0.66246(8) 0.30571(7)
C3 C 0.78211(13) 0.55960(10) 0.24021(8)
C4 C 0.63747(13) 0.58020(10) 0.25942(8)
C5 C 0.24901(13) 0.68310(10) 0.35492(8)
C6 C 0.21957(13) 0.59606(11) 0.42481(9)
H2 H 0.1391 0.5916 0.4688
C7 C 0.32662(13) 0.51868(10) 0.41877(8)
C8 C 0.42516(13) 0.56258(10) 0.34388(8)
C9 C 0.72843(13) 0.82306(10) 0.10355(9)
C10 C 0.64882(14) 0.85538(12) 0.03674(9)
H3 H 0.5836 0.8093 0.0277
C11 C 0.66504(15) 0.95506(12) -0.01652(9)
H4 H 0.6120 0.9764 -0.0629
C12 C 0.75757(16) 1.02351(12) -0.00264(10)
H5 H 0.7659 1.0926 -0.0381
C13 C 0.83815(16) 0.99141(12) 0.06290(11)
H6 H 0.9024 1.0382 0.0722
C14 C 0.82492(15) 0.89084(12) 0.11494(10)
H7 H 0.8821 0.8680 0.1587
C15 C 0.86213(13) 0.46617(10) 0.27827(8)
C16 C 0.99683(14) 0.47675(11) 0.28721(9)
H8 H 1.0345 0.5453 0.2704
C17 C 1.07577(14) 0.38855(12) 0.32029(10)
H9 H 1.1671 0.3968 0.3257
C18 C 1.02154(15) 0.28832(12) 0.34546(10)
H10 H 1.0758 0.2276 0.3675
C19 C 0.88774(15) 0.27697(11) 0.33835(10)
H11 H 0.8501 0.2085 0.3565
C20 C 0.80840(14) 0.36482(11) 0.30487(9)
H12 H 0.7170 0.3561 0.3000
C21 C 0.15970(13) 0.78149(10) 0.34130(9)
C22 C 0.14644(13) 0.83821(11) 0.25643(10)
H13 H 0.1953 0.8123 0.2033
C23 C 0.06237(14) 0.93208(11) 0.24943(11)
H14 H 0.0563 0.9714 0.1915
C24 C -0.01279(15) 0.96904(12) 0.32615(12)
H15 H -0.0707 1.0332 0.3209
C25 C -0.00324(15) 0.91231(12) 0.41041(11)
H16 H -0.0559 0.9368 0.4630
C26 C 0.08302(14) 0.81966(12) 0.41843(10)
H17 H 0.0902 0.7818 0.4767
C27 C 0.33761(13) 0.41558(10) 0.47822(8)
C28 C 0.46093(14) 0.35452(11) 0.48214(9)
H18 H 0.5413 0.3781 0.4434
C29 C 0.46654(15) 0.25977(11) 0.54217(9)
H19 H 0.5507 0.2189 0.5441
C30 C 0.34991(15) 0.22411(11) 0.59954(9)
H20 H 0.3544 0.1597 0.6411
C31 C 0.22736(15) 0.28313(11) 0.59563(9)
H21 H 0.1473 0.2588 0.6343
C32 C 0.22068(14) 0.37755(11) 0.53559(9)
H22 H 0.1357 0.4171 0.5332
C33 C 0.44757(12) 0.85141(10) 0.22947(8)
C34 C 0.44603(13) 0.94202(10) 0.24798(9)
C35 C 0.33181(17) 1.05741(13) 0.40553(11)
H23 H 0.2431 1.0316 0.4036
H24 H 0.3189 1.1273 0.4286
H25 H 0.3798 1.0049 0.4455
C36 C 0.34767(19) 1.17725(12) 0.21440(12)
H26 H 0.2574 1.1548 0.2119
H27 H 0.4018 1.1851 0.1535
H28 H 0.3384 1.2467 0.2381
C37 C 0.60713(16) 1.11224(14) 0.29421(14)
H29 H 0.6614 1.1184 0.2333
H30 H 0.6506 1.0568 0.3344
H31 H 0.6006 1.1820 0.3172
C38 C 0.38797(13) 0.69924(10) 0.13484(8)
C39 C 0.33693(14) 0.66771(11) 0.07782(9)
C40 C 0.13424(16) 0.70689(13) -0.05172(11)
H32 H 0.1756 0.7724 -0.0848
H33 H 0.0661 0.7260 -0.0006
H34 H 0.0906 0.6728 -0.0923
C41 C 0.41038(16) 0.59083(14) -0.10296(10)
H35 H 0.4562 0.6583 -0.1227
H36 H 0.3748 0.5701 -0.1536
H37 H 0.4752 0.5335 -0.0822
C42 C 0.19526(19) 0.47953(13) 0.04233(12)
H38 H 0.2657 0.4303 0.0664
H39 H 0.1618 0.4474 -0.0039
H40 H 0.1200 0.4919 0.0915
loop_
_geom_bond_atom_site_label_1
_geom_bond_atom_site_label_2
_geom_bond_site_symmetry_1
_geom_bond_site_symmetry_2
Si1 C34 1_555 1_555
N1 C1 1_555 1_555
C1 C2 1_555 1_555
B1 N1 1_555 1_555
Si2 C39 1_555 1_555
N2 C4 1_555 1_555
C2 H1 1_555 1_555
N3 B1 1_555 1_555
C3 C2 1_555 1_555
C4 N1 1_555 1_555
C5 N3 1_555 1_555
C6 C5 1_555 1_555
H2 C6 1_555 1_555
C7 C6 1_555 1_555
C8 N2 1_555 1_555
C9 C1 1_555 1_555
C10 C9 1_555 1_555
H3 C10 1_555 1_555
C11 C10 1_555 1_555
H4 C11 1_555 1_555
C12 C11 1_555 1_555
H5 C12 1_555 1_555
C13 C12 1_555 1_555
H6 C13 1_555 1_555
C14 C9 1_555 1_555
H7 C14 1_555 1_555
C15 C3 1_555 1_555
C16 C15 1_555 1_555
H8 C16 1_555 1_555
C17 C16 1_555 1_555
H9 C17 1_555 1_555
C18 C17 1_555 1_555
H10 C18 1_555 1_555
C19 C18 1_555 1_555
H11 C19 1_555 1_555
C20 C15 1_555 1_555
H12 C20 1_555 1_555
C21 C5 1_555 1_555
C22 C21 1_555 1_555
H13 C22 1_555 1_555
C23 C22 1_555 1_555
H14 C23 1_555 1_555
C24 C23 1_555 1_555
H15 C24 1_555 1_555
C25 C24 1_555 1_555
H16 C25 1_555 1_555
C26 C21 1_555 1_555
H17 C26 1_555 1_555
C27 C7 1_555 1_555
C28 C27 1_555 1_555
H18 C28 1_555 1_555
C29 C28 1_555 1_555
H19 C29 1_555 1_555
C30 C29 1_555 1_555
H20 C30 1_555 1_555
C31 C30 1_555 1_555
H21 C31 1_555 1_555
C32 C27 1_555 1_555
H22 C32 1_555 1_555
C33 B1 1_555 1_555
C34 C33 1_555 1_555
C35 Si1 1_555 1_555
H23 C35 1_555 1_555
H24 C35 1_555 1_555
H25 C35 1_555 1_555
C36 Si1 1_555 1_555
H26 C36 1_555 1_555
H27 C36 1_555 1_555
H28 C36 1_555 1_555
C37 Si1 1_555 1_555
H29 C37 1_555 1_555
H30 C37 1_555 1_555
H31 C37 1_555 1_555
C38 B1 1_555 1_555
C39 C38 1_555 1_555
C40 Si2 1_555 1_555
H32 C40 1_555 1_555
H33 C40 1_555 1_555
H34 C40 1_555 1_555
C41 Si2 1_555 1_555
H35 C41 1_555 1_555
H36 C41 1_555 1_555
H37 C41 1_555 1_555
C42 Si2 1_555 1_555
H38 C42 1_555 1_555
H39 C42 1_555 1_555
H40 C42 1_555 1_555
N3 C8 1_555 1_555
C3 C4 1_555 1_555
C7 C8 1_555 1_555
C13 C14 1_555 1_555
C19 C20 1_555 1_555
C25 C26 1_555 1_555
C31 C32 1_555 1_555

#END
