
#######################################################################
#
#                 Cambridge Crystallographic Data Centre
#                                CCDC 
#
#######################################################################
#
# If this CIF has been generated from an entry in the Cambridge 
# Structural Database, then it will include bibliographic, chemical, 
# crystal, experimental, refinement or atomic coordinate data resulting 
# from the CCDC's data processing and validation procedures.
#
#######################################################################

data_WIVSAX
_chemical_formula_moiety         'C36 H28 B1 N3'
_chemical_name_systematic        
1,3,7,9-tetraphenyl-5,5-divinyl-5H-dipyrrolo[1,2-c:2',1'-f][1,3,5,2]triazaborinine
_symmetry_cell_setting           triclinic
_symmetry_space_group_name_H-M   'P -1'
_symmetry_Int_Tables_number      2
_space_group_name_Hall           '-P 1'
loop_
_symmetry_equiv_pos_site_id
_symmetry_equiv_pos_as_xyz
1 x,y,z
2 -x,-y,-z
_cell_length_a                   8.8688(11)
_cell_length_b                   18.125(2)
_cell_length_c                   19.124(2)
_cell_angle_alpha                62.151(2)
_cell_angle_beta                 81.553(2)
_cell_angle_gamma                80.656(2)
_cell_volume                     2673.11
_exptl_crystal_colour            black
_exptl_crystal_description       plate
_cell_formula_units_Z            4
loop_
_atom_site_label
_atom_site_type_symbol
_atom_site_fract_x
_atom_site_fract_y
_atom_site_fract_z
N1 N 1.09696(15) 0.54837(8) 0.17224(8)
C1 C 1.20818(18) 0.59359(10) 0.12114(9)
B1 B 1.0199(2) 0.54189(12) 0.25598(11)
N2 N 0.95157(15) 0.44740(8) 0.17321(8)
C2 C 1.25283(18) 0.56749(10) 0.06152(10)
H1 H 1.3275 0.5909 0.0184
N3 N 0.86806(15) 0.50047(8) 0.26818(8)
C3 C 1.17139(18) 0.50294(10) 0.07563(9)
C4 C 1.06786(18) 0.49299(10) 0.14462(9)
C5 C 0.73924(18) 0.49604(10) 0.31775(9)
C6 C 0.63966(19) 0.44783(10) 0.30986(10)
H2 H 0.5410 0.4368 0.3371
C7 C 0.70820(18) 0.41923(10) 0.25627(9)
C8 C 0.85250(18) 0.45288(10) 0.23015(9)
C9 C 1.27782(18) 0.66007(10) 0.12477(10)
C10 C 1.30288(19) 0.73252(10) 0.05446(10)
H3 H 1.2717 0.7386 0.0064
C11 C 1.3728(2) 0.79570(11) 0.05392(11)
H4 H 1.3882 0.8451 0.0057
C12 C 1.4201(2) 0.78746(12) 0.12287(12)
H5 H 1.4671 0.8312 0.1225
C13 C 1.3989(2) 0.71553(13) 0.19223(12)
H6 H 1.4330 0.7092 0.2397
C14 C 1.3283(2) 0.65219(12) 0.19355(11)
H7 H 1.3142 0.6028 0.2420
C15 C 1.19286(18) 0.45225(10) 0.03247(9)
C16 C 1.1045(2) 0.38722(11) 0.05212(11)
H8 H 1.0221 0.3771 0.0922
C17 C 1.1356(2) 0.33718(11) 0.01369(11)
H9 H 1.0746 0.2930 0.0278
C18 C 1.2542(2) 0.35088(11) -0.04485(10)
H10 H 1.2763 0.3157 -0.0703
C19 C 1.3406(2) 0.41621(11) -0.06612(10)
H11 H 1.4211 0.4267 -0.1072
C20 C 1.31073(19) 0.46646(11) -0.02806(10)
H12 H 1.3711 0.5112 -0.0433
C21 C 0.70664(19) 0.53308(10) 0.37316(9)
C22 C 0.8154(2) 0.53241(11) 0.41927(10)
H13 H 0.9177 0.5088 0.4144
C23 C 0.7752(2) 0.56599(11) 0.47214(10)
H14 H 0.8501 0.5648 0.5036
C24 C 0.6275(2) 0.60111(11) 0.47954(11)
H15 H 0.6010 0.6244 0.5156
C25 C 0.5178(2) 0.60240(11) 0.43434(11)
H16 H 0.4160 0.6268 0.4391
C26 C 0.5570(2) 0.56797(10) 0.38220(10)
H17 H 0.4808 0.5680 0.3520
C27 C 0.64058(18) 0.37328(10) 0.22481(9)
C28 C 0.48101(19) 0.38098(10) 0.22476(10)
H18 H 0.4185 0.4129 0.2479
C29 C 0.4131(2) 0.34271(10) 0.19144(10)
H19 H 0.3045 0.3480 0.1924
C30 C 0.5026(2) 0.29674(10) 0.15668(10)
H20 H 0.4562 0.2723 0.1319
C31 C 0.66025(19) 0.28663(10) 0.15819(10)
H21 H 0.7219 0.2540 0.1355
C32 C 0.72900(19) 0.32377(10) 0.19264(9)
H22 H 0.8372 0.3154 0.1943
C33 C 1.1310(2) 0.47463(12) 0.32306(10)
H23 H 1.2086 0.4962 0.3353
C34 C 1.1244(2) 0.39317(12) 0.36228(11)
H24 H 1.0488 0.3685 0.3522
H25 H 1.1953 0.3590 0.4007
C35 C 0.9817(2) 0.63335(11) 0.25170(11)
H26 H 1.0370 0.6454 0.2834
C36 C 0.8822(2) 0.69233(12) 0.20877(11)
H27 H 0.8244 0.6830 0.1761
H28 H 0.8672 0.7448 0.2100
N4 N 0.41308(15) -0.02757(8) 0.32226(8)
C37 C 0.29339(18) -0.06286(10) 0.37340(10)
B2 B 0.4913(2) -0.03382(12) 0.24383(11)
N5 N 0.58233(15) 0.06592(8) 0.31619(8)
C38 C 0.25193(19) -0.02583(10) 0.42529(10)
H29 H 0.1713 -0.0404 0.4665
N6 N 0.65159(15) 0.00095(8) 0.22957(8)
C39 C 0.34764(19) 0.03465(10) 0.40625(10)
C40 C 0.45318(18) 0.03076(10) 0.34293(10)
C41 C 0.77821(18) -0.00142(10) 0.18025(10)
C42 C 0.88947(19) 0.04145(10) 0.18729(10)
H30 H 0.9885 0.0478 0.1597
C43 C 0.83265(18) 0.07285(10) 0.24040(10)
C44 C 0.68133(19) 0.04772(10) 0.26573(10)
C45 C 0.21815(18) -0.13218(10) 0.37808(10)
C46 C 0.2123(2) -0.20476(11) 0.45024(11)
H31 H 0.2587 -0.2088 0.4938
C47 C 0.1395(2) -0.27090(12) 0.45904(12)
H32 H 0.1369 -0.3202 0.5084
C48 C 0.0706(2) -0.26560(12) 0.39635(12)
H33 H 0.0207 -0.3111 0.4025
C49 C 0.0747(2) -0.19388(13) 0.32490(12)
H34 H 0.0274 -0.1900 0.2817
C50 C 0.1474(2) -0.12742(12) 0.31563(11)
H35 H 0.1489 -0.0782 0.2662
C51 C 0.34782(19) 0.08981(10) 0.44304(10)
C52 C 0.43242(19) 0.15895(11) 0.40821(10)
H36 H 0.4907 0.1717 0.3589
C53 C 0.4317(2) 0.20892(11) 0.44530(11)
H37 H 0.4912 0.2551 0.4217
C54 C 0.3454(2) 0.19222(11) 0.51622(11)
H38 H 0.3466 0.2263 0.5417
C55 C 0.2572(2) 0.12576(12) 0.55004(11)
H39 H 0.1957 0.1149 0.5982
C56 C 0.2585(2) 0.07521(11) 0.51384(10)
H40 H 0.1975 0.0297 0.5375
C57 C 0.79990(19) -0.03975(10) 0.12609(10)
C58 C 0.6839(2) -0.03950(10) 0.08415(10)
H41 H 0.5828 -0.0163 0.0923
C59 C 0.7138(2) -0.07257(11) 0.03072(10)
H42 H 0.6339 -0.0709 0.0018
C60 C 0.8595(2) -0.10797(11) 0.01926(11)
H43 H 0.8793 -0.1318 -0.0166
C61 C 0.9760(2) -0.10862(11) 0.06003(11)
H44 H 1.0763 -0.1329 0.0522
C62 C 0.9475(2) -0.07417(10) 0.11216(11)
H45 H 1.0292 -0.0738 0.1390
C63 C 0.91323(18) 0.11900(10) 0.26691(10)
C64 C 0.8605(2) 0.13339(10) 0.33251(10)
H46 H 0.7677 0.1129 0.3622
C65 C 0.9417(2) 0.17705(11) 0.35466(11)
H47 H 0.9038 0.1864 0.3993
C66 C 1.0775(2) 0.20726(11) 0.31257(11)
H48 H 1.1329 0.2372 0.3280
C67 C 1.1311(2) 0.19328(11) 0.24808(12)
H49 H 1.2244 0.2135 0.2189
C68 C 1.04999(19) 0.14984(11) 0.22540(11)
H50 H 1.0885 0.1409 0.1806
C69 C 0.38748(19) 0.03255(11) 0.17333(10)
H51 H 0.3043 0.0123 0.1637
C70 C 0.4073(2) 0.11239(11) 0.12774(10)
H52 H 0.4890 0.1354 0.1351
H53 H 0.3400 0.1468 0.0875
C71 C 0.5117(2) -0.12920(11) 0.25886(10)
H54 H 0.4337 -0.1466 0.2425
C72 C 0.6265(2) -0.18583(11) 0.29175(10)
H55 H 0.7072 -0.1713 0.3090
H56 H 0.6287 -0.2412 0.2982
loop_
_geom_bond_atom_site_label_1
_geom_bond_atom_site_label_2
_geom_bond_site_symmetry_1
_geom_bond_site_symmetry_2
N1 C1 1_555 1_555
C1 C2 1_555 1_555
B1 N1 1_555 1_555
N2 C4 1_555 1_555
C2 H1 1_555 1_555
N3 B1 1_555 1_555
C3 C2 1_555 1_555
C4 N1 1_555 1_555
C5 N3 1_555 1_555
C6 C5 1_555 1_555
H2 C6 1_555 1_555
C7 C6 1_555 1_555
C8 N2 1_555 1_555
C9 C1 1_555 1_555
C10 C9 1_555 1_555
H3 C10 1_555 1_555
C11 C10 1_555 1_555
H4 C11 1_555 1_555
C12 C11 1_555 1_555
H5 C12 1_555 1_555
C13 C12 1_555 1_555
H6 C13 1_555 1_555
C14 C9 1_555 1_555
H7 C14 1_555 1_555
C15 C3 1_555 1_555
C16 C15 1_555 1_555
H8 C16 1_555 1_555
C17 C16 1_555 1_555
H9 C17 1_555 1_555
C18 C17 1_555 1_555
H10 C18 1_555 1_555
C19 C18 1_555 1_555
H11 C19 1_555 1_555
C20 C15 1_555 1_555
H12 C20 1_555 1_555
C21 C5 1_555 1_555
C22 C21 1_555 1_555
H13 C22 1_555 1_555
C23 C22 1_555 1_555
H14 C23 1_555 1_555
C24 C23 1_555 1_555
H15 C24 1_555 1_555
C25 C24 1_555 1_555
H16 C25 1_555 1_555
C26 C21 1_555 1_555
H17 C26 1_555 1_555
C27 C7 1_555 1_555
C28 C27 1_555 1_555
H18 C28 1_555 1_555
C29 C28 1_555 1_555
H19 C29 1_555 1_555
C30 C29 1_555 1_555
H20 C30 1_555 1_555
C31 C30 1_555 1_555
H21 C31 1_555 1_555
C32 C27 1_555 1_555
H22 C32 1_555 1_555
C33 B1 1_555 1_555
H23 C33 1_555 1_555
C34 C33 1_555 1_555
H24 C34 1_555 1_555
H25 C34 1_555 1_555
C35 B1 1_555 1_555
H26 C35 1_555 1_555
C36 C35 1_555 1_555
H27 C36 1_555 1_555
H28 C36 1_555 1_555
N4 C37 1_555 1_555
C37 C38 1_555 1_555
B2 N4 1_555 1_555
N5 C40 1_555 1_555
C38 H29 1_555 1_555
N6 B2 1_555 1_555
C39 C38 1_555 1_555
C40 N4 1_555 1_555
C41 N6 1_555 1_555
C42 C41 1_555 1_555
H30 C42 1_555 1_555
C43 C42 1_555 1_555
C44 N5 1_555 1_555
C45 C37 1_555 1_555
C46 C45 1_555 1_555
H31 C46 1_555 1_555
C47 C46 1_555 1_555
H32 C47 1_555 1_555
C48 C47 1_555 1_555
H33 C48 1_555 1_555
C49 C48 1_555 1_555
H34 C49 1_555 1_555
C50 C45 1_555 1_555
H35 C50 1_555 1_555
C51 C39 1_555 1_555
C52 C51 1_555 1_555
H36 C52 1_555 1_555
C53 C52 1_555 1_555
H37 C53 1_555 1_555
C54 C53 1_555 1_555
H38 C54 1_555 1_555
C55 C54 1_555 1_555
H39 C55 1_555 1_555
C56 C51 1_555 1_555
H40 C56 1_555 1_555
C57 C41 1_555 1_555
C58 C57 1_555 1_555
H41 C58 1_555 1_555
C59 C58 1_555 1_555
H42 C59 1_555 1_555
C60 C59 1_555 1_555
H43 C60 1_555 1_555
C61 C60 1_555 1_555
H44 C61 1_555 1_555
C62 C57 1_555 1_555
H45 C62 1_555 1_555
C63 C43 1_555 1_555
C64 C63 1_555 1_555
H46 C64 1_555 1_555
C65 C64 1_555 1_555
H47 C65 1_555 1_555
C66 C65 1_555 1_555
H48 C66 1_555 1_555
C67 C66 1_555 1_555
H49 C67 1_555 1_555
C68 C63 1_555 1_555
H50 C68 1_555 1_555
C69 B2 1_555 1_555
H51 C69 1_555 1_555
C70 C69 1_555 1_555
H52 C70 1_555 1_555
H53 C70 1_555 1_555
C71 B2 1_555 1_555
H54 C71 1_555 1_555
C72 C71 1_555 1_555
H55 C72 1_555 1_555
H56 C72 1_555 1_555
N3 C8 1_555 1_555
C3 C4 1_555 1_555
C7 C8 1_555 1_555
C13 C14 1_555 1_555
C19 C20 1_555 1_555
C25 C26 1_555 1_555
C31 C32 1_555 1_555
N6 C44 1_555 1_555
C39 C40 1_555 1_555
C43 C44 1_555 1_555
C49 C50 1_555 1_555
C55 C56 1_555 1_555
C61 C62 1_555 1_555
C67 C68 1_555 1_555

#END
