
#######################################################################
#
#                 Cambridge Crystallographic Data Centre
#                                CCDC 
#
#######################################################################
#
# If this CIF has been generated from an entry in the Cambridge 
# Structural Database, then it will include bibliographic, chemical, 
# crystal, experimental, refinement or atomic coordinate data resulting 
# from the CCDC's data processing and validation procedures.
#
#######################################################################

data_WIVTUS
_chemical_formula_moiety         'C18 H15 N5,C1 H4 O1'
_chemical_name_systematic        
"4,4'-bis(1H-imidazol-1-yl)biphenyl-2-amine methanol solvate"
_symmetry_cell_setting           monoclinic
_symmetry_space_group_name_H-M   'C 2/c'
_symmetry_Int_Tables_number      15
_space_group_name_Hall           '-C 2yn'
loop_
_symmetry_equiv_pos_site_id
_symmetry_equiv_pos_as_xyz
1 x,y,z
2 -x,y,1/2-z
3 1/2+x,1/2+y,z
4 1/2-x,1/2+y,1/2-z
5 -x,-y,-z
6 x,-y,1/2+z
7 1/2-x,1/2-y,-z
8 1/2+x,1/2-y,1/2+z
_cell_length_a                   18.018(4)
_cell_length_b                   9.1661(18)
_cell_length_c                   20.694(4)
_cell_angle_alpha                90
_cell_angle_beta                 96.54(3)
_cell_angle_gamma                90
_cell_volume                     3395.47
_exptl_crystal_description       Block
_cell_formula_units_Z            8
loop_
_atom_site_label
_atom_site_type_symbol
_atom_site_fract_x
_atom_site_fract_y
_atom_site_fract_z
O1 O 0.84412(10) 0.0302(2) 0.80166(9)
H1 H 0.8032 0.0485 0.7818
C1 C 0.89918(16) 0.0389(4) 0.75908(16)
H2 H 0.8956 0.1313 0.7371
H3 H 0.8920 -0.0383 0.7276
H4 H 0.9477 0.0297 0.7833
N1 N 0.70345(11) 0.0584(3) 0.73526(10)
N2 N 0.59173(10) 0.0936(2) 0.68181(9)
N3 N 0.14752(9) 0.6087(2) 0.46376(9)
N4 N 0.02866(11) 0.6728(3) 0.44186(10)
N5 N 0.38606(10) 0.3850(2) 0.44465(9)
H5 H 0.3812 0.4107 0.4044
H6 H 0.4251 0.3375 0.4606
C2 C 0.65608(12) 0.1560(3) 0.70852(11)
H7 H 0.6656 0.2556 0.7080
C3 C 0.66773(14) -0.0727(3) 0.72495(13)
H8 H 0.6879 -0.1625 0.7384
C4 C 0.59906(14) -0.0532(3) 0.69240(12)
H9 H 0.5639 -0.1250 0.6798
C5 C 0.52791(11) 0.1676(2) 0.64961(10)
C6 C 0.53740(12) 0.2839(3) 0.60896(11)
H10 H 0.5852 0.3159 0.6032
C7 C 0.47559(12) 0.3524(3) 0.57682(11)
H11 H 0.4823 0.4315 0.5499
C8 C 0.40328(11) 0.3056(2) 0.58388(10)
C9 C 0.39560(12) 0.1896(3) 0.62617(10)
H12 H 0.3480 0.1577 0.6325
C10 C 0.45696(12) 0.1209(3) 0.65900(10)
H13 H 0.4506 0.0439 0.6871
C11 C 0.33691(11) 0.3801(2) 0.55002(10)
C12 C 0.33152(11) 0.4197(2) 0.48340(10)
C13 C 0.26887(11) 0.4967(2) 0.45621(11)
H14 H 0.2656 0.5256 0.4129
C14 C 0.21152(11) 0.5308(2) 0.49279(11)
C15 C 0.21465(12) 0.4873(3) 0.55692(12)
H15 H 0.1756 0.5077 0.5812
C16 C 0.27692(12) 0.4131(3) 0.58405(11)
H16 H 0.2789 0.3836 0.6272
C17 C 0.14487(14) 0.7170(3) 0.41844(13)
H17 H 0.1849 0.7565 0.3997
C18 C 0.07229(15) 0.7552(3) 0.40636(14)
H18 H 0.0544 0.8283 0.3775
C19 C 0.07631(12) 0.5862(3) 0.47600(12)
H19 H 0.0625 0.5171 0.5053
loop_
_geom_bond_atom_site_label_1
_geom_bond_atom_site_label_2
_geom_bond_site_symmetry_1
_geom_bond_site_symmetry_2
O1 H1 1_555 1_555
C1 O1 1_555 1_555
H2 C1 1_555 1_555
H3 C1 1_555 1_555
H4 C1 1_555 1_555
N1 C2 1_555 1_555
N2 C2 1_555 1_555
N3 C14 1_555 1_555
N4 C18 1_555 1_555
N5 H5 1_555 1_555
H6 N5 1_555 1_555
C2 H7 1_555 1_555
C3 N1 1_555 1_555
H8 C3 1_555 1_555
C4 N2 1_555 1_555
H9 C4 1_555 1_555
C5 N2 1_555 1_555
C6 C5 1_555 1_555
H10 C6 1_555 1_555
C7 C6 1_555 1_555
H11 C7 1_555 1_555
C8 C7 1_555 1_555
C9 C8 1_555 1_555
H12 C9 1_555 1_555
C10 C5 1_555 1_555
H13 C10 1_555 1_555
C11 C8 1_555 1_555
C12 N5 1_555 1_555
C13 C12 1_555 1_555
H14 C13 1_555 1_555
C14 C13 1_555 1_555
C15 C14 1_555 1_555
H15 C15 1_555 1_555
C16 C11 1_555 1_555
H16 C16 1_555 1_555
C17 N3 1_555 1_555
H17 C17 1_555 1_555
C18 C17 1_555 1_555
H18 C18 1_555 1_555
C19 N3 1_555 1_555
H19 C19 1_555 1_555
N4 C19 1_555 1_555
C3 C4 1_555 1_555
C9 C10 1_555 1_555
C11 C12 1_555 1_555
C15 C16 1_555 1_555

#END
