
#######################################################################
#
#                 Cambridge Crystallographic Data Centre
#                                CCDC 
#
#######################################################################
#
# If this CIF has been generated from an entry in the Cambridge 
# Structural Database, then it will include bibliographic, chemical, 
# crystal, experimental, refinement or atomic coordinate data resulting 
# from the CCDC's data processing and validation procedures.
#
#######################################################################

data_WIWWIK
_chemical_formula_moiety         'C18 H20 O2'
_chemical_name_systematic        
Pentacyclo[9.6.1.0^2,7^.0^2,10^.0^12,17^]octadeca-7,12(17)-diene-9,18-dione
_symmetry_cell_setting           orthorhombic
_symmetry_space_group_name_H-M   'P 21 21 21'
_symmetry_Int_Tables_number      19
_space_group_name_Hall           'P 2ac 2ab'
loop_
_symmetry_equiv_pos_site_id
_symmetry_equiv_pos_as_xyz
1 x,y,z
2 1/2-x,-y,1/2+z
3 -x,1/2+y,1/2-z
4 1/2+x,1/2-y,-z
_cell_length_a                   9.1769(18)
_cell_length_b                   10.289(2)
_cell_length_c                   14.620(3)
_cell_angle_alpha                90
_cell_angle_beta                 90
_cell_angle_gamma                90
_cell_volume                     1380.44
_exptl_crystal_colour            colorless
_exptl_crystal_description       block
_cell_formula_units_Z            4
loop_
_atom_site_label
_atom_site_type_symbol
_atom_site_fract_x
_atom_site_fract_y
_atom_site_fract_z
O1 O 1.1673(2) 0.4048(2) 0.40218(17)
O2 O 0.6714(3) 0.4884(2) 0.60594(14)
C1 C 0.8761(3) 0.5892(2) 0.36536(16)
C2 C 0.8112(4) 0.6862(2) 0.30110(18)
H1 H 0.7103 0.6644 0.2885
H2 H 0.8644 0.6868 0.2438
C3 C 0.7432(8) 0.8017(6) 0.3499(4)
H3 H 0.7299 0.8725 0.3070
H4 H 0.6482 0.7775 0.3736
C4 C 0.8392(9) 0.8458(6) 0.4275(5)
H5 H 0.7937 0.9195 0.4574
H6 H 0.9317 0.8748 0.4027
C5 C 0.8688(4) 0.7371(3) 0.5010(2)
H7 H 0.8249 0.7193 0.5600
H8 H 0.9588 0.7844 0.5114
C6 C 0.9019(3) 0.6116(3) 0.45367(17)
C7 C 0.9606(3) 0.4877(3) 0.49614(18)
H9 H 1.0165 0.4969 0.5529
C8 C 1.0440(3) 0.4395(3) 0.4117(2)
C9 C 0.9168(3) 0.4503(2) 0.34362(16)
H10 H 0.9389 0.4307 0.2795
C10 C 0.8075(3) 0.3551(2) 0.39379(16)
C11 C 0.8352(3) 0.3872(3) 0.49652(16)
H11 H 0.8620 0.3091 0.5310
C12 C 0.6912(4) 0.4429(3) 0.52994(17)
C13 C 0.5866(3) 0.4340(3) 0.45537(19)
H12 H 0.4891 0.4577 0.4597
C14 C 0.6495(3) 0.3871(3) 0.37995(17)
C15 C 0.5803(3) 0.3554(3) 0.29017(19)
H13 H 0.6191 0.4118 0.2429
H14 H 0.4759 0.3692 0.2938
C16 C 0.6122(4) 0.2122(3) 0.2661(2)
H15 H 0.5611 0.1559 0.3086
H16 H 0.5766 0.1938 0.2050
C17 C 0.7736(4) 0.1841(3) 0.2706(2)
H17 H 0.8240 0.2368 0.2256
H18 H 0.7905 0.0935 0.2556
C18 C 0.8356(3) 0.2127(2) 0.36545(19)
H19 H 0.9396 0.1961 0.3654
H20 H 0.7910 0.1549 0.4098
C19? C 0.8211(11) 0.8209(6) 0.3480(5)
H21? H 0.9212 0.8511 0.3461
H22? H 0.7618 0.8827 0.3144
C20? C 0.7702(9) 0.8166(9) 0.4468(5)
H23? H 0.7672 0.9040 0.4716
H24? H 0.6726 0.7806 0.4497
loop_
_geom_bond_atom_site_label_1
_geom_bond_atom_site_label_2
_geom_bond_site_symmetry_1
_geom_bond_site_symmetry_2
O1 C8 1_555 1_555
O2 C12 1_555 1_555
C1 C2 1_555 1_555
C2 H1 1_555 1_555
H2 C2 1_555 1_555
C3 C2 1_555 1_555
H3 C3 1_555 1_555
H4 C3 1_555 1_555
C4 C3 1_555 1_555
H5 C4 1_555 1_555
H6 C4 1_555 1_555
C5 C4 1_555 1_555
H7 C5 1_555 1_555
H8 C5 1_555 1_555
C6 C1 1_555 1_555
C7 C6 1_555 1_555
H9 C7 1_555 1_555
C8 C7 1_555 1_555
C9 C1 1_555 1_555
H10 C9 1_555 1_555
C10 C9 1_555 1_555
C11 C7 1_555 1_555
H11 C11 1_555 1_555
C12 C11 1_555 1_555
C13 C12 1_555 1_555
H12 C13 1_555 1_555
C14 C10 1_555 1_555
C15 C14 1_555 1_555
H13 C15 1_555 1_555
H14 C15 1_555 1_555
C16 C15 1_555 1_555
H15 C16 1_555 1_555
H16 C16 1_555 1_555
C17 C16 1_555 1_555
H17 C17 1_555 1_555
H18 C17 1_555 1_555
C18 C10 1_555 1_555
H19 C18 1_555 1_555
H20 C18 1_555 1_555
C5 C6 1_555 1_555
C8 C9 1_555 1_555
C10 C11 1_555 1_555
C13 C14 1_555 1_555
C17 C18 1_555 1_555

#END
