
#######################################################################
#
#                 Cambridge Crystallographic Data Centre
#                                CCDC 
#
#######################################################################
#
# If this CIF has been generated from an entry in the Cambridge 
# Structural Database, then it will include bibliographic, chemical, 
# crystal, experimental, refinement or atomic coordinate data resulting 
# from the CCDC's data processing and validation procedures.
#
#######################################################################

data_WIWZUZ
_chemical_formula_moiety         'C18 H9 F6 N3'
_chemical_name_systematic        
9-phenyl-2,4-bis(trifluoromethyl)imidazo[1,2-a][1,8]naphthyridine
_symmetry_cell_setting           monoclinic
_symmetry_space_group_name_H-M   'P 21/c'
_symmetry_Int_Tables_number      14
_space_group_name_Hall           '-P 2ybc'
loop_
_symmetry_equiv_pos_site_id
_symmetry_equiv_pos_as_xyz
1 x,y,z
2 -x,1/2+y,1/2-z
3 -x,-y,-z
4 x,1/2-y,1/2+z
_cell_length_a                   14.868(4)
_cell_length_b                   9.506(3)
_cell_length_c                   11.977(4)
_cell_angle_alpha                90
_cell_angle_beta                 111.598(3)
_cell_angle_gamma                90
_cell_volume                     1573.92
_exptl_crystal_colour            yellow
_exptl_crystal_description       block
_cell_formula_units_Z            4
loop_
_atom_site_label
_atom_site_type_symbol
_atom_site_fract_x
_atom_site_fract_y
_atom_site_fract_z
F1 F 0.79152(10) 0.77843(13) 0.68024(10)
F2 F 0.87570(9) 0.86957(13) 0.58730(11)
F3 F 0.72513(10) 0.91730(12) 0.53095(12)
F4 F 0.5042(2) 0.6726(3) 0.2079(3)
F5 F 0.57597(18) 0.5812(7) 0.10502(19)
F6 F 0.5161(2) 0.4553(3) 0.2044(3)
N1 N 0.71613(10) 0.46671(14) 0.32600(12)
N2 N 0.85678(10) 0.34701(15) 0.43792(12)
N3 N 0.97721(12) 0.20265(18) 0.54633(15)
C1 C 0.65873(12) 0.57747(17) 0.31169(15)
C2 C 0.67984(12) 0.69267(18) 0.38805(15)
H1 H 0.6369 0.7704 0.3732
C3 C 0.76543(13) 0.69042(18) 0.48626(15)
C4 C 0.82824(12) 0.57429(18) 0.50877(15)
C5 C 0.91559(14) 0.5574(2) 0.61349(16)
H2 H 0.9367 0.6307 0.6713
C6 C 0.96687(14) 0.4376(2) 0.62882(16)
H3 H 1.0235 0.4264 0.6987
C7 C 0.93822(12) 0.32814(19) 0.54295(16)
C8 C 0.91994(14) 0.1388(2) 0.44141(18)
H4 H 0.9310 0.0464 0.4192
C9 C 0.79826(11) 0.46567(17) 0.42189(14)
C10 C 0.84542(13) 0.22207(18) 0.37237(16)
C11 C 0.76975(12) 0.18923(18) 0.25510(15)
C12 C 0.75351(14) 0.27206(19) 0.15361(16)
H5 H 0.7922 0.3532 0.1589
C13 C 0.68180(15) 0.2375(2) 0.04525(17)
H6 H 0.6705 0.2959 -0.0229
C14 C 0.62674(15) 0.1183(2) 0.03595(19)
H7 H 0.5767 0.0954 -0.0382
C15 C 0.64437(16) 0.0321(2) 0.1347(2)
H8 H 0.6077 -0.0515 0.1277
C16 C 0.71559(15) 0.0675(2) 0.24408(18)
H9 H 0.7273 0.0081 0.3117
C17 C 0.56492(13) 0.57083(19) 0.20419(16)
C18 C 0.78926(14) 0.8137(2) 0.57084(17)
F7? F 0.4924(4) 0.5736(14) 0.2298(5)
F8? F 0.5575(5) 0.6800(7) 0.1315(7)
F9? F 0.5592(4) 0.4619(6) 0.1326(6)
loop_
_geom_bond_atom_site_label_1
_geom_bond_atom_site_label_2
_geom_bond_site_symmetry_1
_geom_bond_site_symmetry_2
F1 C18 1_555 1_555
F2 C18 1_555 1_555
F3 C18 1_555 1_555
F4 C17 1_555 1_555
F5 C17 1_555 1_555
F6 C17 1_555 1_555
N1 C1 1_555 1_555
N2 C7 1_555 1_555
N3 C7 1_555 1_555
C1 C2 1_555 1_555
C2 H1 1_555 1_555
C3 C2 1_555 1_555
C4 C3 1_555 1_555
C5 C4 1_555 1_555
H2 C5 1_555 1_555
C6 C5 1_555 1_555
H3 C6 1_555 1_555
C7 C6 1_555 1_555
C8 N3 1_555 1_555
H4 C8 1_555 1_555
C9 N1 1_555 1_555
C10 N2 1_555 1_555
C11 C10 1_555 1_555
C12 C11 1_555 1_555
H5 C12 1_555 1_555
C13 C12 1_555 1_555
H6 C13 1_555 1_555
C14 C13 1_555 1_555
H7 C14 1_555 1_555
C15 C14 1_555 1_555
H8 C15 1_555 1_555
C16 C11 1_555 1_555
H9 C16 1_555 1_555
C17 C1 1_555 1_555
C18 C3 1_555 1_555
N2 C9 1_555 1_555
C4 C9 1_555 1_555
C8 C10 1_555 1_555
C15 C16 1_555 1_555

#END
