
#######################################################################
#
#                 Cambridge Crystallographic Data Centre
#                                CCDC 
#
#######################################################################
#
# If this CIF has been generated from an entry in the Cambridge 
# Structural Database, then it will include bibliographic, chemical, 
# crystal, experimental, refinement or atomic coordinate data resulting 
# from the CCDC's data processing and validation procedures.
#
#######################################################################

data_WIWZEI
_chemical_formula_moiety         'C31 H26'
_chemical_name_systematic        
7-t-butyl-13-phenyl-8H-indeno[2,1-b]phenanthrene
_symmetry_cell_setting           monoclinic
_symmetry_space_group_name_H-M   'P 21/n'
_symmetry_Int_Tables_number      14
_space_group_name_Hall           '-P 2yn'
loop_
_symmetry_equiv_pos_site_id
_symmetry_equiv_pos_as_xyz
1 x,y,z
2 1/2-x,1/2+y,1/2-z
3 -x,-y,-z
4 1/2+x,1/2-y,1/2+z
_cell_length_a                   14.8243(12)
_cell_length_b                   9.0268(8)
_cell_length_c                   16.5130(14)
_cell_angle_alpha                90
_cell_angle_beta                 96.945(2)
_cell_angle_gamma                90
_cell_volume                     2193.49
_cell_formula_units_Z            4
_exptl_crystal_recrystallization_method dichloromethane/hexanes
loop_
_atom_site_label
_atom_site_type_symbol
_atom_site_fract_x
_atom_site_fract_y
_atom_site_fract_z
C1 C 0.32555(11) 0.6342(2) 0.13757(10)
C2 C 0.22915(12) 0.6820(2) 0.12386(11)
C3 C 0.15112(12) 0.6211(2) 0.08006(12)
H1 H 0.1541 0.5322 0.0520
C4 C 0.06972(13) 0.6953(3) 0.07923(13)
H2 H 0.0179 0.6565 0.0493
C5 C 0.06322(14) 0.8250(3) 0.12156(14)
H3 H 0.0074 0.8725 0.1202
C6 C 0.13883(14) 0.8850(3) 0.16600(14)
H4 H 0.1345 0.9721 0.1954
C7 C 0.22139(13) 0.8137(2) 0.16636(12)
C8 C 0.31179(13) 0.8636(2) 0.20604(12)
H5 H 0.3113 0.8764 0.2643
H6 H 0.3295 0.9562 0.1827
C9 C 0.37556(12) 0.7392(2) 0.18850(10)
C10 C 0.46643(12) 0.7172(2) 0.21719(11)
C11 C 0.50410(12) 0.5760(2) 0.19832(11)
C12 C 0.58469(12) 0.5187(2) 0.24468(12)
H7 H 0.6106 0.5721 0.2898
C13 C 0.62410(13) 0.3925(3) 0.22608(13)
H8 H 0.6726 0.3552 0.2612
C14 C 0.59317(12) 0.3142(2) 0.15352(13)
C15 C 0.64456(14) 0.1972(3) 0.12605(16)
H9 H 0.6965 0.1649 0.1586
C16 C 0.61981(16) 0.1306(3) 0.05313(16)
H10 H 0.6540 0.0528 0.0360
C17 C 0.54244(15) 0.1800(2) 0.00411(14)
H11 H 0.5263 0.1371 -0.0468
C18 C 0.48990(13) 0.2912(2) 0.03012(12)
H12 H 0.4383 0.3216 -0.0034
C19 C 0.51208(12) 0.3605(2) 0.10658(11)
C20 C 0.45961(11) 0.4828(2) 0.13627(10)
C21 C 0.36682(11) 0.5106(2) 0.10769(10)
C22 C 0.52633(13) 0.8359(2) 0.26584(12)
C23 C 0.49129(15) 0.9950(2) 0.25035(15)
H13 H 0.4369 1.0088 0.2757
H14 H 0.4782 1.0115 0.1927
H15 H 0.5368 1.0640 0.2730
C24 C 0.53062(19) 0.8072(3) 0.35837(14)
H16 H 0.4703 0.8093 0.3739
H17 H 0.5668 0.8827 0.3876
H18 H 0.5575 0.7120 0.3711
C25 C 0.62191(14) 0.8416(3) 0.23744(15)
H19 H 0.6554 0.9231 0.2635
H20 H 0.6162 0.8545 0.1793
H21 H 0.6535 0.7508 0.2519
C26 C 0.30985(11) 0.4065(2) 0.05304(11)
C27 C 0.28270(13) 0.4414(2) -0.02826(11)
H22 H 0.3011 0.5303 -0.0495
C28 C 0.22899(15) 0.3455(3) -0.07747(13)
H23 H 0.2118 0.3695 -0.1319
C29 C 0.20052(15) 0.2145(3) -0.04674(15)
H24 H 0.1638 0.1502 -0.0802
C30 C 0.22651(15) 0.1783(3) 0.03405(15)
H25 H 0.2072 0.0898 0.0551
C31 C 0.28123(12) 0.2737(2) 0.08339(12)
H26 H 0.2991 0.2486 0.1376
loop_
_geom_bond_atom_site_label_1
_geom_bond_atom_site_label_2
_geom_bond_site_symmetry_1
_geom_bond_site_symmetry_2
C1 C2 1_555 1_555
C2 C3 1_555 1_555
C3 H1 1_555 1_555
C4 C3 1_555 1_555
H2 C4 1_555 1_555
C5 C4 1_555 1_555
H3 C5 1_555 1_555
C6 C5 1_555 1_555
H4 C6 1_555 1_555
C7 C2 1_555 1_555
C8 C7 1_555 1_555
H5 C8 1_555 1_555
H6 C8 1_555 1_555
C9 C1 1_555 1_555
C10 C9 1_555 1_555
C11 C10 1_555 1_555
C12 C11 1_555 1_555
H7 C12 1_555 1_555
C13 C12 1_555 1_555
H8 C13 1_555 1_555
C14 C13 1_555 1_555
C15 C14 1_555 1_555
H9 C15 1_555 1_555
C16 C15 1_555 1_555
H10 C16 1_555 1_555
C17 C16 1_555 1_555
H11 C17 1_555 1_555
C18 C17 1_555 1_555
H12 C18 1_555 1_555
C19 C14 1_555 1_555
C20 C11 1_555 1_555
C21 C1 1_555 1_555
C22 C10 1_555 1_555
C23 C22 1_555 1_555
H13 C23 1_555 1_555
H14 C23 1_555 1_555
H15 C23 1_555 1_555
C24 C22 1_555 1_555
H16 C24 1_555 1_555
H17 C24 1_555 1_555
H18 C24 1_555 1_555
C25 C22 1_555 1_555
H19 C25 1_555 1_555
H20 C25 1_555 1_555
H21 C25 1_555 1_555
C26 C21 1_555 1_555
C27 C26 1_555 1_555
H22 C27 1_555 1_555
C28 C27 1_555 1_555
H23 C28 1_555 1_555
C29 C28 1_555 1_555
H24 C29 1_555 1_555
C30 C29 1_555 1_555
H25 C30 1_555 1_555
C31 C26 1_555 1_555
H26 C31 1_555 1_555
C6 C7 1_555 1_555
C8 C9 1_555 1_555
C18 C19 1_555 1_555
C19 C20 1_555 1_555
C20 C21 1_555 1_555
C30 C31 1_555 1_555

#END
