
#######################################################################
#
#                 Cambridge Crystallographic Data Centre
#                                CCDC 
#
#######################################################################
#
# If this CIF has been generated from an entry in the Cambridge 
# Structural Database, then it will include bibliographic, chemical, 
# crystal, experimental, refinement or atomic coordinate data resulting 
# from the CCDC's data processing and validation procedures.
#
#######################################################################

data_WIWZIM
_chemical_formula_moiety         'C39 H30'
_chemical_name_systematic        
7-t-butyl-13-phenyl-8H-indeno[1,2-b]pentahelicene
_symmetry_cell_setting           triclinic
_symmetry_space_group_name_H-M   'P -1'
_symmetry_Int_Tables_number      2
_space_group_name_Hall           '-P 1'
loop_
_symmetry_equiv_pos_site_id
_symmetry_equiv_pos_as_xyz
1 x,y,z
2 -x,-y,-z
_cell_length_a                   9.9442(6)
_cell_length_b                   15.1244(8)
_cell_length_c                   18.6721(10)
_cell_angle_alpha                92.0100(10)
_cell_angle_beta                 102.1110(10)
_cell_angle_gamma                101.6480(10)
_cell_volume                     2680.43
_chemical_melting_point          'above 250 deg.C'
_cell_formula_units_Z            4
_exptl_crystal_recrystallization_method dichloromethane/hexanes
loop_
_atom_site_label
_atom_site_type_symbol
_atom_site_fract_x
_atom_site_fract_y
_atom_site_fract_z
C1 C 0.4854(2) 0.75068(13) 0.43222(11)
C2 C 0.5597(3) 0.83324(15) 0.48493(13)
H1 H 0.5840 0.8860 0.4584
H2 H 0.5010 0.8464 0.5177
C3 C 0.6883(3) 0.80672(15) 0.52645(12)
C4 C 0.7893(4) 0.85537(19) 0.58494(15)
H3 H 0.7848 0.9136 0.6006
C5 C 0.8964(3) 0.8159(2) 0.61944(15)
H4 H 0.9654 0.8481 0.6583
C6 C 0.9022(3) 0.7299(2) 0.59718(14)
H5 H 0.9738 0.7038 0.6220
C7 C 0.8038(3) 0.68110(18) 0.53865(13)
H6 H 0.8086 0.6226 0.5240
C8 C 0.6968(2) 0.72096(14) 0.50162(11)
C9 C 0.5763(2) 0.68754(13) 0.43912(11)
C10 C 0.5437(2) 0.60921(13) 0.39305(10)
C11 C 0.4097(2) 0.58814(13) 0.34358(11)
C12 C 0.3684(2) 0.50816(13) 0.29132(11)
C13 C 0.4621(3) 0.47364(13) 0.25417(10)
C14 C 0.5846(2) 0.52906(14) 0.23454(10)
C15 C 0.6085(2) 0.62441(14) 0.23589(11)
H7 H 0.5469 0.6543 0.2530
C16 C 0.7200(3) 0.67378(16) 0.21268(12)
H8 H 0.7324 0.7365 0.2134
C17 C 0.8157(3) 0.6308(2) 0.18781(13)
H9 H 0.8936 0.6648 0.1739
C18 C 0.7939(3) 0.5398(2) 0.18415(13)
H10 H 0.8577 0.5116 0.1674
C19 C 0.6771(3) 0.48585(17) 0.20493(12)
C20 C 0.6453(4) 0.38997(19) 0.19209(14)
H11 H 0.7110 0.3611 0.1780
C21 C 0.5227(4) 0.34075(18) 0.19989(14)
H12 H 0.5013 0.2787 0.1873
C22 C 0.4236(3) 0.38116(15) 0.22705(12)
C23 C 0.2859(4) 0.33104(17) 0.22512(13)
H13 H 0.2624 0.2696 0.2100
C24 C 0.1891(3) 0.37107(17) 0.24484(13)
H14 H 0.0961 0.3395 0.2368
C25 C 0.2269(3) 0.46109(16) 0.27787(12)
C26 C 0.1274(3) 0.50570(18) 0.29728(13)
H15 H 0.0343 0.4745 0.2902
C27 C 0.1631(3) 0.59274(17) 0.32590(12)
H16 H 0.0922 0.6234 0.3294
C28 C 0.3078(2) 0.63937(14) 0.35121(11)
C29 C 0.3497(2) 0.72857(14) 0.38936(11)
C30 C 0.6361(2) 0.54202(13) 0.40325(10)
C31 C 0.5851(2) 0.45814(14) 0.42685(11)
H17 H 0.4930 0.4436 0.4331
C32 C 0.6701(3) 0.39636(17) 0.44109(14)
H18 H 0.6348 0.3404 0.4567
C33 C 0.8059(3) 0.41672(19) 0.43252(15)
H19 H 0.8630 0.3749 0.4425
C34 C 0.8577(3) 0.49947(18) 0.40895(13)
H20 H 0.9502 0.5137 0.4033
C35 C 0.7732(2) 0.56080(15) 0.39379(11)
H21 H 0.8085 0.6159 0.3769
C36 C 0.2432(3) 0.79136(15) 0.38274(13)
C37 C 0.1407(3) 0.76505(19) 0.43332(15)
H22 H 0.0707 0.8012 0.4252
H23 H 0.1916 0.7753 0.4836
H24 H 0.0957 0.7022 0.4227
C38 C 0.1647(4) 0.7894(2) 0.30179(15)
H25 H 0.1099 0.7295 0.2856
H26 H 0.2319 0.8058 0.2718
H27 H 0.1037 0.8315 0.2977
C39 C 0.3123(4) 0.89222(17) 0.40375(19)
H28 H 0.2432 0.9282 0.3899
H29 H 0.3872 0.9097 0.3786
H30 H 0.3495 0.9016 0.4559
C40 C 0.4928(2) 0.73770(12) 0.05884(10)
C41 C 0.5674(2) 0.68066(13) 0.01891(11)
H31 H 0.6009 0.6357 0.0497
H32 H 0.5054 0.6501 -0.0261
C42 C 0.6880(2) 0.74801(13) 0.00284(11)
C43 C 0.7811(3) 0.73353(15) -0.03905(12)
H33 H 0.7804 0.6752 -0.0569
C44 C 0.8756(3) 0.80659(17) -0.05417(12)
H34 H 0.9402 0.7976 -0.0817
C45 C 0.8745(2) 0.89278(16) -0.02867(11)
H35 H 0.9359 0.9417 -0.0412
C46 C 0.7843(2) 0.90846(13) 0.01528(10)
H36 H 0.7859 0.9670 0.0330
C47 C 0.6908(2) 0.83461(12) 0.03247(10)
C48 C 0.5767(2) 0.82779(12) 0.07277(10)
C49 C 0.5446(2) 0.89297(12) 0.11595(10)
C50 C 0.4134(2) 0.87118(13) 0.13786(10)
C51 C 0.3697(2) 0.93452(14) 0.18413(11)
C52 C 0.4615(3) 0.99471(13) 0.24378(11)
C53 C 0.5894(2) 0.97558(14) 0.28845(11)
C54 C 0.6221(2) 0.88916(14) 0.28870(11)
H37 H 0.5627 0.8422 0.2565
C55 C 0.7385(3) 0.87248(18) 0.33492(13)
H38 H 0.7569 0.8146 0.3342
C56 C 0.8300(3) 0.9418(2) 0.38314(15)
H39 H 0.9113 0.9310 0.4132
C57 C 0.8001(3) 1.0246(2) 0.38594(14)
H40 H 0.8614 1.0703 0.4185
C58 C 0.6790(3) 1.04386(16) 0.34123(13)
C59 C 0.6386(4) 1.12805(17) 0.35027(15)
H41 H 0.7018 1.1758 0.3799
C60 C 0.5104(4) 1.13963(17) 0.31664(15)
H42 H 0.4836 1.1933 0.3268
C61 C 0.4160(3) 1.07164(15) 0.26622(13)
C62 C 0.2732(4) 1.0779(2) 0.23989(16)
H43 H 0.2440 1.1298 0.2526
C63 C 0.1801(3) 1.0098(2) 0.19693(15)
H44 H 0.0850 1.0113 0.1861
C64 C 0.2246(3) 0.93647(17) 0.16825(12)
C65 C 0.1275(3) 0.8635(2) 0.12488(13)
H45 H 0.0327 0.8655 0.1128
C66 C 0.1690(2) 0.79097(18) 0.10063(12)
H46 H 0.1012 0.7398 0.0796
C67 C 0.3150(2) 0.79030(14) 0.10623(11)
C68 C 0.3608(2) 0.71675(13) 0.07450(10)
C69 C 0.6309(2) 0.98756(12) 0.12852(10)
C70 C 0.5739(2) 1.05681(13) 0.09601(11)
H47 H 0.4817 1.0440 0.0685
C71 C 0.6521(3) 1.14437(15) 0.10387(13)
H48 H 0.6127 1.1900 0.0815
C72 C 0.7879(3) 1.16429(15) 0.14473(13)
H49 H 0.8405 1.2234 0.1502
C73 C 0.8457(2) 1.09685(15) 0.17748(12)
H50 H 0.9373 1.1105 0.2056
C74 C 0.7685(2) 1.00858(13) 0.16903(11)
H51 H 0.8094 0.9631 0.1907
C75 C 0.2610(3) 0.62161(14) 0.05745(12)
C76 C 0.1520(3) 0.61886(18) -0.01515(13)
H52 H 0.2000 0.6333 -0.0542
H53 H 0.0954 0.6622 -0.0104
H54 H 0.0929 0.5593 -0.0261
C77 C 0.1891(3) 0.59659(18) 0.12195(14)
H55 H 0.1373 0.5349 0.1132
H56 H 0.1259 0.6359 0.1258
H57 H 0.2594 0.6033 0.1668
C78 C 0.3367(3) 0.54429(16) 0.04896(17)
H58 H 0.3681 0.5474 0.0037
H59 H 0.2730 0.4872 0.0485
H60 H 0.4163 0.5499 0.0894
loop_
_geom_bond_atom_site_label_1
_geom_bond_atom_site_label_2
_geom_bond_site_symmetry_1
_geom_bond_site_symmetry_2
C1 C2 1_555 1_555
C2 H1 1_555 1_555
H2 C2 1_555 1_555
C3 C2 1_555 1_555
C4 C3 1_555 1_555
H3 C4 1_555 1_555
C5 C4 1_555 1_555
H4 C5 1_555 1_555
C6 C5 1_555 1_555
H5 C6 1_555 1_555
C7 C6 1_555 1_555
H6 C7 1_555 1_555
C8 C3 1_555 1_555
C9 C1 1_555 1_555
C10 C9 1_555 1_555
C11 C10 1_555 1_555
C12 C11 1_555 1_555
C13 C12 1_555 1_555
C14 C13 1_555 1_555
C15 C14 1_555 1_555
H7 C15 1_555 1_555
C16 C15 1_555 1_555
H8 C16 1_555 1_555
C17 C16 1_555 1_555
H9 C17 1_555 1_555
C18 C17 1_555 1_555
H10 C18 1_555 1_555
C19 C14 1_555 1_555
C20 C19 1_555 1_555
H11 C20 1_555 1_555
C21 C20 1_555 1_555
H12 C21 1_555 1_555
C22 C13 1_555 1_555
C23 C22 1_555 1_555
H13 C23 1_555 1_555
C24 C23 1_555 1_555
H14 C24 1_555 1_555
C25 C12 1_555 1_555
C26 C25 1_555 1_555
H15 C26 1_555 1_555
C27 C26 1_555 1_555
H16 C27 1_555 1_555
C28 C11 1_555 1_555
C29 C1 1_555 1_555
C30 C10 1_555 1_555
C31 C30 1_555 1_555
H17 C31 1_555 1_555
C32 C31 1_555 1_555
H18 C32 1_555 1_555
C33 C32 1_555 1_555
H19 C33 1_555 1_555
C34 C33 1_555 1_555
H20 C34 1_555 1_555
C35 C30 1_555 1_555
H21 C35 1_555 1_555
C36 C29 1_555 1_555
C37 C36 1_555 1_555
H22 C37 1_555 1_555
H23 C37 1_555 1_555
H24 C37 1_555 1_555
C38 C36 1_555 1_555
H25 C38 1_555 1_555
H26 C38 1_555 1_555
H27 C38 1_555 1_555
C39 C36 1_555 1_555
H28 C39 1_555 1_555
H29 C39 1_555 1_555
H30 C39 1_555 1_555
C40 C41 1_555 1_555
C41 H31 1_555 1_555
H32 C41 1_555 1_555
C42 C41 1_555 1_555
C43 C42 1_555 1_555
H33 C43 1_555 1_555
C44 C43 1_555 1_555
H34 C44 1_555 1_555
C45 C44 1_555 1_555
H35 C45 1_555 1_555
C46 C45 1_555 1_555
H36 C46 1_555 1_555
C47 C42 1_555 1_555
C48 C40 1_555 1_555
C49 C48 1_555 1_555
C50 C49 1_555 1_555
C51 C50 1_555 1_555
C52 C51 1_555 1_555
C53 C52 1_555 1_555
C54 C53 1_555 1_555
H37 C54 1_555 1_555
C55 C54 1_555 1_555
H38 C55 1_555 1_555
C56 C55 1_555 1_555
H39 C56 1_555 1_555
C57 C56 1_555 1_555
H40 C57 1_555 1_555
C58 C53 1_555 1_555
C59 C58 1_555 1_555
H41 C59 1_555 1_555
C60 C59 1_555 1_555
H42 C60 1_555 1_555
C61 C52 1_555 1_555
C62 C61 1_555 1_555
H43 C62 1_555 1_555
C63 C62 1_555 1_555
H44 C63 1_555 1_555
C64 C51 1_555 1_555
C65 C64 1_555 1_555
H45 C65 1_555 1_555
C66 C65 1_555 1_555
H46 C66 1_555 1_555
C67 C50 1_555 1_555
C68 C40 1_555 1_555
C69 C49 1_555 1_555
C70 C69 1_555 1_555
H47 C70 1_555 1_555
C71 C70 1_555 1_555
H48 C71 1_555 1_555
C72 C71 1_555 1_555
H49 C72 1_555 1_555
C73 C72 1_555 1_555
H50 C73 1_555 1_555
C74 C69 1_555 1_555
H51 C74 1_555 1_555
C75 C68 1_555 1_555
C76 C75 1_555 1_555
H52 C76 1_555 1_555
H53 C76 1_555 1_555
H54 C76 1_555 1_555
C77 C75 1_555 1_555
H55 C77 1_555 1_555
H56 C77 1_555 1_555
H57 C77 1_555 1_555
C78 C75 1_555 1_555
H58 C78 1_555 1_555
H59 C78 1_555 1_555
H60 C78 1_555 1_555
C7 C8 1_555 1_555
C8 C9 1_555 1_555
C18 C19 1_555 1_555
C21 C22 1_555 1_555
C24 C25 1_555 1_555
C27 C28 1_555 1_555
C28 C29 1_555 1_555
C34 C35 1_555 1_555
C46 C47 1_555 1_555
C47 C48 1_555 1_555
C57 C58 1_555 1_555
C60 C61 1_555 1_555
C63 C64 1_555 1_555
C66 C67 1_555 1_555
C67 C68 1_555 1_555
C73 C74 1_555 1_555

#END
