
#######################################################################
#
#                 Cambridge Crystallographic Data Centre
#                                CCDC 
#
#######################################################################
#
# If this CIF has been generated from an entry in the Cambridge 
# Structural Database, then it will include bibliographic, chemical, 
# crystal, experimental, refinement or atomic coordinate data resulting 
# from the CCDC's data processing and validation procedures.
#
#######################################################################

data_WIWZIN
_chemical_formula_moiety         'C17 H16 Cl1 N1 O4'
_chemical_name_systematic        
'Ethyl 2,2-diacetyl-3-(4-chlorophenyl)-1-cyanocyclopropanecarboxylate'
_symmetry_cell_setting           triclinic
_symmetry_space_group_name_H-M   'P -1'
_symmetry_Int_Tables_number      2
_space_group_name_Hall           '-P 1'
loop_
_symmetry_equiv_pos_site_id
_symmetry_equiv_pos_as_xyz
1 x,y,z
2 -x,-y,-z
_cell_length_a                   7.7069(10)
_cell_length_b                   10.4968(14)
_cell_length_c                   11.1874(15)
_cell_angle_alpha                93.206(2)
_cell_angle_beta                 102.273(2)
_cell_angle_gamma                104.014(2)
_cell_volume                     852.507
_cell_formula_units_Z            2
loop_
_atom_site_label
_atom_site_type_symbol
_atom_site_fract_x
_atom_site_fract_y
_atom_site_fract_z
Cl1 Cl 1.41544(11) 0.99031(8) 0.67720(8)
O1 O 0.3864(2) 0.75000(18) 0.10603(16)
O2 O 0.8223(3) 0.5142(2) 0.12087(18)
C1 C 0.4174(3) 0.6817(2) 0.1997(2)
O3 O 0.3072(3) 0.6309(2) 0.25494(19)
C2 C 0.8770(3) 0.7435(2) 0.4389(2)
C3 C 0.8825(3) 0.8164(2) 0.5479(2)
H1 H 0.7735 0.8125 0.5724
C4 C 0.6146(3) 0.6757(2) 0.2317(2)
C5 C 0.6953(3) 0.6599(2) 0.3686(2)
H2 H 0.6023 0.6477 0.4176
C6 C 1.0460(4) 0.8949(2) 0.6209(2)
H3 H 1.0475 0.9441 0.6930
N1 N 0.8336(3) 0.8314(2) 0.1256(2)
C7 C 1.2064(4) 0.8981(2) 0.5840(2)
O4 O 0.4774(3) 0.3895(2) 0.3680(2)
C8 C 1.0409(3) 0.7526(3) 0.4032(2)
H4 H 1.0398 0.7069 0.3292
C9 C 0.8048(4) 0.4996(2) 0.2233(2)
C10 C 0.6574(3) 0.5474(2) 0.2711(2)
C11 C 1.2064(4) 0.8287(3) 0.4762(2)
H5 H 1.3160 0.8327 0.4525
C12 C 0.4969(4) 0.4278(3) 0.2726(2)
C13 C 0.2033(4) 0.7706(3) 0.0700(3)
H6 H 0.1679 0.8034 0.1416
H7 H 0.1146 0.6878 0.0340
C14 C 0.9121(5) 0.4262(3) 0.3078(3)
H8 H 1.0081 0.4079 0.2728
H9 H 0.8319 0.3445 0.3192
H10 H 0.9653 0.4788 0.3860
C15 C 0.3850(5) 0.3575(3) 0.1497(3)
H11 H 0.4627 0.3242 0.1064
H12 H 0.3317 0.4180 0.1026
H13 H 0.2889 0.2853 0.1616
C16 C 0.2066(5) 0.8668(5) -0.0199(4)
H14 H 0.2890 0.9500 0.0181
H15 H 0.0852 0.8780 -0.0483
H16 H 0.2478 0.8356 -0.0884
C17 C 0.7364(3) 0.7601(2) 0.1697(2)
loop_
_geom_bond_atom_site_label_1
_geom_bond_atom_site_label_2
_geom_bond_site_symmetry_1
_geom_bond_site_symmetry_2
Cl1 C7 1_555 1_555
O1 C1 1_555 1_555
O2 C9 1_555 1_555
C1 O3 1_555 1_555
C2 C3 1_555 1_555
C3 H1 1_555 1_555
C4 C1 1_555 1_555
C5 C2 1_555 1_555
H2 C5 1_555 1_555
C6 C3 1_555 1_555
H3 C6 1_555 1_555
N1 C17 1_555 1_555
C7 C6 1_555 1_555
O4 C12 1_555 1_555
C8 C2 1_555 1_555
H4 C8 1_555 1_555
C9 C10 1_555 1_555
C10 C4 1_555 1_555
C11 C7 1_555 1_555
H5 C11 1_555 1_555
C12 C10 1_555 1_555
C13 O1 1_555 1_555
H6 C13 1_555 1_555
H7 C13 1_555 1_555
C14 C9 1_555 1_555
H8 C14 1_555 1_555
H9 C14 1_555 1_555
H10 C14 1_555 1_555
C15 C12 1_555 1_555
H11 C15 1_555 1_555
H12 C15 1_555 1_555
H13 C15 1_555 1_555
C16 C13 1_555 1_555
H14 C16 1_555 1_555
H15 C16 1_555 1_555
H16 C16 1_555 1_555
C17 C4 1_555 1_555
C4 C5 1_555 1_555
C5 C10 1_555 1_555
C8 C11 1_555 1_555

#END
