
#######################################################################
#
#                 Cambridge Crystallographic Data Centre
#                                CCDC 
#
#######################################################################
#
# If this CIF has been generated from an entry in the Cambridge 
# Structural Database, then it will include bibliographic, chemical, 
# crystal, experimental, refinement or atomic coordinate data resulting 
# from the CCDC's data processing and validation procedures.
#
#######################################################################

data_WIXBAI
_chemical_formula_moiety         'C50 H60 N16 O16,8.75(H2 O1)'
_chemical_name_systematic        
"1,4,14,17-tetrakis(2-hydroxyethoxy)-19b,19c,25b,25c-tetramethyl-5,13,18,19b,19c,21b,21c,23b,23c,25b,25c,26-dodecahydro-5a,6a,7a,8a,9a,10a,11a,12a,18a,19a,20a,21a,22a,23a,24a,25a-hexadecaazabenzo[5,6]cyclohepta[1,2,3-cd]benzo[5'''''',6'''''']cyclohepta[1'''''',2'''''',3'''''':3''''',4''''']pentaleno[1''''',6''''':5'''',6'''',7'''']cycloocta[1'''',2'''',3'''':3''',4''']pentaleno[1''',6''':5'',6'',7'']cycloocta[1'',2'',3'':3',4']pentaleno[1',6':5,6,7]cycloocta[1,2,3-gh]pentalene-6,8,10,12,19,21,23,25-octone trioxidane hydrate"
_symmetry_cell_setting           monoclinic
_symmetry_space_group_name_H-M   'P 21/n'
_symmetry_Int_Tables_number      14
_space_group_name_Hall           '-P 2yn'
loop_
_symmetry_equiv_pos_site_id
_symmetry_equiv_pos_as_xyz
1 x,y,z
2 1/2-x,1/2+y,1/2-z
3 -x,-y,-z
4 1/2+x,1/2-y,1/2+z
_cell_length_a                   29.339(3)
_cell_length_b                   13.8631(13)
_cell_length_c                   29.715(3)
_cell_angle_alpha                90
_cell_angle_beta                 99.2288(16)
_cell_angle_gamma                90
_cell_volume                     11929.5
_exptl_crystal_colour            colorless
_exptl_crystal_description       prism
_cell_formula_units_Z            8
loop_
_atom_site_label
_atom_site_type_symbol
_atom_site_fract_x
_atom_site_fract_y
_atom_site_fract_z
O1 O 0.16952(11) 0.8442(2) 0.84082(10)
H1 H 0.1704 0.7917 0.8269
C1 C 0.13112(17) 0.9017(3) 0.81842(18)
H2 H 0.1413 0.9400 0.7937
H3 H 0.1214 0.9473 0.8407
C2 C 0.09003(16) 0.8392(3) 0.79839(16)
H4 H 0.0800 0.7985 0.8224
H5 H 0.0638 0.8800 0.7846
O2 O 0.10556(7) 0.78086(14) 0.76458(8)
C3 C 0.08401(10) 0.6948(2) 0.75122(11)
C4 C 0.03935(11) 0.6721(2) 0.75705(12)
H6 H 0.0222 0.7160 0.7723
C5 C 0.01953(11) 0.5854(2) 0.74068(12)
H7 H -0.0112 0.5705 0.7446
C6 C 0.04430(10) 0.5208(2) 0.71879(11)
O3 O 0.02707(7) 0.43439(16) 0.70019(8)
C7 C -0.01427(12) 0.3972(3) 0.71342(15)
H8 H -0.0416 0.4296 0.6959
H9 H -0.0142 0.4092 0.7463
C8 C -0.01630(15) 0.2902(3) 0.70390(14)
H10 H 0.0141 0.2615 0.7158
H11 H -0.0393 0.2606 0.7207
O4 O -0.02813(9) 0.26670(18) 0.65667(9)
H12 H -0.0566 0.2558 0.6505
C9 C 0.15790(9) 0.6569(2) 0.72196(10)
H13 H 0.1589 0.6570 0.6888
H14 H 0.1648 0.7232 0.7334
C10 C 0.10944(9) 0.6302(2) 0.72926(10)
C11 C 0.08967(10) 0.5424(2) 0.71333(10)
C12 C 0.11645(10) 0.4701(2) 0.69016(10)
H15 H 0.0968 0.4128 0.6817
H16 H 0.1240 0.4988 0.6617
O5 O 0.19671(8) 0.65562(15) 0.81658(8)
C13 C 0.20338(9) 0.5895(2) 0.79121(11)
N1 N 0.19413(8) 0.59161(16) 0.74464(8)
C14 C 0.20150(9) 0.49751(19) 0.72535(10)
C15 C 0.22175(11) 0.5038(2) 0.68152(11)
H17 H 0.2000 0.5375 0.6583
H18 H 0.2273 0.4387 0.6708
H19 H 0.2510 0.5394 0.6872
N2 N 0.15917(8) 0.43945(16) 0.71876(8)
C16 C 0.16534(10) 0.3519(2) 0.73885(9)
O6 O 0.13755(7) 0.28489(15) 0.73426(7)
C17 C 0.24863(10) 0.4929(2) 0.85092(10)
H20 H 0.2819 0.4868 0.8490
H21 H 0.2445 0.5529 0.8679
N3 N 0.22293(8) 0.50173(16) 0.80500(8)
C18 C 0.23148(9) 0.4431(2) 0.76575(10)
C19 C 0.28280(10) 0.4359(2) 0.76262(12)
H22 H 0.2990 0.4034 0.7898
H23 H 0.2955 0.5009 0.7606
H24 H 0.2868 0.3990 0.7354
N4 N 0.20905(8) 0.34909(16) 0.76393(8)
C20 C 0.22702(11) 0.2632(2) 0.78769(10)
H25 H 0.2601 0.2573 0.7852
H26 H 0.2109 0.2066 0.7723
O7 O 0.21488(7) 0.50141(14) 0.93590(8)
C21 C 0.22506(9) 0.4249(2) 0.91992(10)
N5 N 0.23497(8) 0.41180(16) 0.87633(8)
C22 C 0.25187(9) 0.31517(19) 0.87007(10)
H27 H 0.2847 0.3157 0.8648
N6 N 0.22250(8) 0.25995(16) 0.83549(8)
C23 C 0.20247(9) 0.18259(19) 0.85383(10)
O8 O 0.17890(7) 0.12026(13) 0.83213(7)
C24 C 0.23300(10) 0.3315(2) 0.99122(10)
H28 H 0.2634 0.3033 1.0038
H29 H 0.2319 0.3975 1.0038
N7 N 0.22919(8) 0.33774(16) 0.94200(8)
C25 C 0.24665(9) 0.26332(19) 0.91511(10)
H30 H 0.2769 0.2375 0.9308
N8 N 0.21448(8) 0.18616(16) 0.90021(8)
C26 C 0.20831(10) 0.10437(19) 0.92913(10)
H31 H 0.1944 0.0505 0.9098
H32 H 0.2389 0.0828 0.9448
O9 O 0.16897(7) 0.39421(13) 1.04839(7)
C27 C 0.17074(9) 0.31022(19) 1.03681(9)
N9 N 0.19710(8) 0.27418(16) 1.00632(8)
C28 C 0.19811(9) 0.16970(19) 1.00626(9)
H33 H 0.2296 0.1444 1.0184
N10 N 0.17951(8) 0.12593(15) 0.96273(7)
C29 C 0.14093(9) 0.07231(19) 0.96582(9)
O10 O 0.12102(7) 0.01913(14) 0.93580(7)
C30 C 0.12784(9) 0.2451(2) 1.09384(9)
H34 H 0.1345 0.3111 1.1059
H35 H 0.1438 0.1992 1.1166
N11 N 0.14663(7) 0.23485(15) 1.05202(7)
C31 C 0.16276(9) 0.14242(18) 1.03757(9)
H36 H 0.1772 0.1027 1.0642
N12 N 0.12819(8) 0.08792(16) 1.00725(8)
C32 C 0.09230(9) 0.03337(19) 1.02368(10)
H37 H 0.0778 -0.0102 0.9991
H38 H 0.1065 -0.0073 1.0495
O11 O 0.05831(6) 0.38214(13) 1.10895(6)
C33 C 0.04875(9) 0.29709(18) 1.10044(9)
N13 N 0.07849(7) 0.22816(15) 1.08890(7)
C34 C 0.05729(9) 0.13164(18) 1.08380(9)
C35 C 0.07762(10) 0.06257(19) 1.12127(10)
H39 H 0.0627 -0.0006 1.1160
H40 H 0.0724 0.0878 1.1508
H41 H 0.1109 0.0558 1.1212
N14 N 0.05686(7) 0.09172(15) 1.03835(7)
C36 C 0.01769(9) 0.11734(18) 1.00906(9)
O12 O 0.01020(7) 0.09966(14) 0.96800(6)
C37 C -0.03529(10) 0.3116(2) 1.10177(11)
H42 H -0.0600 0.2671 1.1079
H43 H -0.0298 0.3574 1.1276
N15 N 0.00702(7) 0.25402(16) 1.10284(8)
C38 C 0.00523(9) 0.15835(18) 1.08274(9)
C39 C -0.02269(9) 0.0880(2) 1.10629(9)
H44 H -0.0110 0.0876 1.1391
H45 H -0.0200 0.0232 1.0938
H46 H -0.0552 0.1078 1.1012
N16 N -0.01115(7) 0.16245(16) 1.03348(7)
C40 C -0.05516(9) 0.2048(2) 1.01385(10)
H47 H -0.0799 0.1731 1.0275
H48 H -0.0609 0.1910 0.9807
O13 O -0.0485(6) 0.607(3) 1.1890(5)
H49 H -0.0532 0.6629 1.1987
C41 C -0.0912(4) 0.5654(9) 1.1699(3)
H50 H -0.1168 0.6043 1.1784
H51 H -0.0933 0.4997 1.1825
C42 C -0.0964(3) 0.5593(8) 1.1183(3)
H52 H -0.1255 0.5261 1.1056
H53 H -0.0968 0.6247 1.1048
O14 O -0.0568(4) 0.5049(10) 1.1083(3)
C43 C -0.0606(7) 0.4630(8) 1.0657(2)
C44 C -0.0523(6) 0.3635(8) 1.0636(3)
C45 C -0.0584(9) 0.3177(8) 1.0210(3)
C46 C -0.0699(7) 0.3730(8) 0.9821(3)
O15 O -0.0769(4) 0.3275(10) 0.9395(3)
C47 C -0.0490(2) 0.3590(5) 0.9070(2)
H54 H -0.0415 0.4281 0.9124
H55 H -0.0671 0.3531 0.8760
C48 C -0.0053(2) 0.3037(4) 0.9089(3)
H56 H 0.0139 0.3343 0.8884
H57 H 0.0121 0.3061 0.9403
O16 O -0.01356(14) 0.2033(3) 0.89550(14)
H58 H -0.0115 0.1686 0.9189
C49 C -0.0757(5) 0.5144(7) 1.0268(3)
H59 H -0.0842 0.5801 1.0289
C50 C -0.0788(7) 0.4717(8) 0.9846(3)
H60 H -0.0869 0.5088 0.9576
O17 O -0.09244(15) 0.1867(3) 0.83123(16)
O18 O -0.09807(15) 0.3528(3) 0.77987(14)
O19 O -0.15894(14) 0.3323(3) 0.70080(15)
O20 O 0.42460(18) 1.3331(3) -0.01730(14)
H61 H 0.4390 1.3765 -0.0011
C51 C 0.3898(2) 1.2894(5) 0.0072(2)
H62 H 0.3779 1.3389 0.0264
H63 H 0.3636 1.2652 -0.0150
C52 C 0.40977(18) 1.2104(3) 0.03580(18)
H64 H 0.4388 1.2314 0.0549
H65 H 0.3881 1.1891 0.0561
O21 O 0.41883(9) 1.13212(19) 0.00640(10)
C53 C 0.43857(13) 1.0511(3) 0.02861(15)
C54 C 0.45643(13) 1.0465(3) 0.07491(15)
H66 H 0.4540 1.1013 0.0936
C55 C 0.47746(13) 0.9643(3) 0.09400(15)
H67 H 0.4896 0.9630 0.1256
C56 C 0.48107(12) 0.8839(3) 0.06765(13)
O22 O 0.50180(9) 0.7998(2) 0.08354(9)
C57 C 0.52958(14) 0.7998(3) 0.12798(13)
H68 H 0.5098 0.8088 0.1517
H69 H 0.5523 0.8530 0.1305
C58 C 0.55362(16) 0.7058(4) 0.13411(16)
H70 H 0.5671 0.6966 0.1665
H71 H 0.5315 0.6528 0.1250
O23 O 0.58873(12) 0.7045(3) 0.10691(12)
H72 H 0.5775 0.6886 0.0802
C59 C 0.44104(11) 0.9691(3) 0.00085(13)
C60 C 0.46177(11) 0.8857(2) 0.02090(12)
C61 C 0.42384(11) 0.9740(2) -0.05038(13)
H73 H 0.4134 1.0408 -0.0581
H74 H 0.4502 0.9606 -0.0665
C62 C 0.46273(11) 0.7946(2) -0.00643(12)
H75 H 0.4823 0.8048 -0.0302
H76 H 0.4768 0.7422 0.0138
O24 O 0.32708(7) 1.00523(14) -0.05163(8)
C63 C 0.34223(11) 0.9249(2) -0.06006(10)
N17 N 0.38583(9) 0.90743(18) -0.06818(9)
C64 C 0.39433(11) 0.8039(2) -0.07166(11)
C65 C 0.42177(12) 0.7791(2) -0.10944(12)
H77 H 0.4501 0.8178 -0.1058
H78 H 0.4031 0.7929 -0.1391
H79 H 0.4298 0.7104 -0.1077
N18 N 0.41659(9) 0.76530(18) -0.02802(9)
C66 C 0.39206(10) 0.6941(2) -0.01212(11)
O25 O 0.40385(8) 0.64572(16) 0.02219(8)
C67 C 0.26760(10) 0.8427(2) -0.06634(10)
H80 H 0.2568 0.9105 -0.0683
H81 H 0.2531 0.8093 -0.0945
N19 N 0.31743(8) 0.84167(17) -0.06436(9)
C68 C 0.34455(10) 0.7588(2) -0.07664(10)
C69 C 0.32512(12) 0.7204(2) -0.12367(11)
H82 H 0.3440 0.6661 -0.1311
H83 H 0.3256 0.7717 -0.1463
H84 H 0.2933 0.6987 -0.1240
N20 N 0.35107(8) 0.68403(16) -0.04180(8)
C70 C 0.31852(10) 0.6091(2) -0.03568(10)
H85 H 0.3357 0.5532 -0.0208
H86 H 0.3029 0.5877 -0.0661
O26 O 0.22028(7) 0.93481(13) -0.00120(7)
C71 C 0.22568(9) 0.84771(19) -0.00126(10)
N21 N 0.25234(8) 0.79770(16) -0.02782(8)
C72 C 0.24377(9) 0.69467(19) -0.02699(10)
H87 H 0.2287 0.6705 -0.0575
N22 N 0.28380(8) 0.63734(16) -0.00887(8)
C73 C 0.27772(10) 0.58860(19) 0.02993(10)
O27 O 0.30374(7) 0.52669(14) 0.04890(7)
C74 C 0.16999(9) 0.8093(2) 0.04936(10)
H88 H 0.1611 0.8768 0.0414
H89 H 0.1427 0.7682 0.0391
N23 N 0.20635(8) 0.78170(15) 0.02453(8)
C75 C 0.21168(10) 0.68346(18) 0.00923(9)
H90 H 0.1813 0.6545 -0.0042
N24 N 0.23769(8) 0.61992(15) 0.04275(8)
C76 C 0.21975(10) 0.58161(19) 0.08157(9)
H91 H 0.2377 0.5235 0.0927
H92 H 0.1873 0.5614 0.0717
O28 O 0.18981(6) 0.96504(13) 0.11367(7)
C77 C 0.19153(9) 0.88058(19) 0.12596(10)
N25 N 0.18146(8) 0.80212(15) 0.09816(8)
C78 C 0.18274(9) 0.71265(19) 0.12334(10)
H93 H 0.1526 0.6776 0.1165
N26 N 0.22134(8) 0.64947(15) 0.11894(8)
C79 C 0.24892(9) 0.63352(18) 0.16037(9)
O29 O 0.28146(6) 0.57775(13) 0.16776(6)
C80 C 0.21221(9) 0.91113(19) 0.20893(9)
H94 H 0.1918 0.8946 0.2313
H95 H 0.2053 0.9784 0.1989
N27 N 0.20169(8) 0.84809(15) 0.17003(8)
C81 C 0.19278(9) 0.74541(18) 0.17366(10)
H96 H 0.1659 0.7329 0.1898
N28 N 0.23257(7) 0.68867(15) 0.19255(8)
C82 C 0.24826(9) 0.67739(19) 0.24109(9)
H97 H 0.2218 0.6874 0.2575
H98 H 0.2595 0.6105 0.2471
O30 O 0.29034(7) 0.97575(14) 0.17202(7)
C83 C 0.29550(9) 0.93604(19) 0.20966(9)
N29 N 0.26007(7) 0.90566(15) 0.23148(7)
C84 C 0.27788(9) 0.84546(18) 0.27077(9)
C85 C 0.24973(10) 0.8538(2) 0.30928(10)
H99 H 0.2457 0.9220 0.3163
H100 H 0.2659 0.8208 0.3364
H101 H 0.2194 0.8239 0.2999
N30 N 0.28468(7) 0.74370(15) 0.25881(7)
C86 C 0.32810(9) 0.71204(19) 0.27534(9)
O31 O 0.34158(6) 0.62842(13) 0.27539(7)
C87 C 0.38089(9) 0.9297(2) 0.22243(10)
H102 H 0.4026 0.9600 0.2474
H103 H 0.3776 0.9735 0.1958
N31 N 0.33606(7) 0.91781(16) 0.23688(7)
C88 C 0.32949(9) 0.87926(19) 0.28137(9)
C89 C 0.34023(10) 0.9559(2) 0.31813(10)
H104 H 0.3325 0.9313 0.3469
H105 H 0.3220 1.0139 0.3090
H106 H 0.3732 0.9719 0.3222
N32 N 0.35482(8) 0.78974(15) 0.29285(7)
C90 C 0.40483(9) 0.7834(2) 0.29162(9)
H107 H 0.4182 0.7303 0.3118
H108 H 0.4199 0.8443 0.3035
O32 O 0.29092(8) 0.8886(2) 0.08714(8)
H109 H 0.2964 0.9138 0.1132
C91 C 0.32453(11) 0.8160(3) 0.08333(12)
H110 H 0.3165 0.7833 0.0535
H111 H 0.3237 0.7672 0.1075
C92 C 0.37207(11) 0.8559(3) 0.08738(10)
H112 H 0.3927 0.8063 0.0777
H113 H 0.3719 0.9119 0.0667
O33 O 0.38980(7) 0.88561(15) 0.13314(7)
C93 C 0.40444(9) 0.8144(2) 0.16453(10)
C94 C 0.40083(9) 0.8345(2) 0.20984(9)
C95 C 0.41499(9) 0.7658(2) 0.24383(9)
C96 C 0.43512(9) 0.6796(2) 0.23254(10)
O34 O 0.45112(7) 0.61811(15) 0.26833(7)
C97 C 0.45965(13) 0.5191(3) 0.25822(12)
H114 H 0.4746 0.4876 0.2867
H115 H 0.4820 0.5177 0.2366
C98 C 0.4196(2) 0.4611(6) 0.2390(3)
H116 H 0.4042 0.4896 0.2099
H117 H 0.4293 0.3945 0.2330
O35 O 0.38971(13) 0.4604(3) 0.27081(14)
H118 H 0.4048 0.4519 0.2970
C99 C 0.42355(11) 0.7278(2) 0.15369(11)
H119 H 0.4258 0.7137 0.1228
C100 C 0.43945(11) 0.6615(2) 0.18746(11)
H120 H 0.4534 0.6032 0.1797
O36 O 0.03472(7) 0.50796(16) 0.17653(8)
H121 H 0.0361(11) 0.476(2) 0.1494(7)
H122 H 0.0044(6) 0.530(3) 0.1739(11)
O37 O 0.33928(8) 0.16478(17) 0.89266(8)
H123 H 0.3411(11) 0.120(2) 0.9161(9)
H124 H 0.3662(8) 0.200(2) 0.8988(11)
O38 O 0.14438(9) 0.81400(17) 0.92663(8)
H125 H 0.1420(14) 0.8807(10) 0.9292(11)
H126 H 0.1517(14) 0.804(2) 0.8975(7)
O39 O 0.30589(11) 0.06028(19) 0.03495(9)
H127 H 0.3145(15) 0.039(3) 0.0078(8)
H128 H 0.3037(16) 0.0041(17) 0.0519(11)
O40 O 0.23062(9) 0.15282(17) 0.13462(10)
H129 H 0.2628(5) 0.154(3) 0.1388(16)
H130 H 0.2233(12) 0.0872(11) 0.1336(15)
O41 O 0.34997(10) 0.4618(2) 0.13182(9)
H131 H 0.3249(9) 0.470(4) 0.1087(10)
H132 H 0.3754(9) 0.483(4) 0.1192(13)
O42 O 0.38009(9) 0.2747(2) 0.14708(13)
H133 H 0.3648(14) 0.3338(16) 0.1461(19)
H134 H 0.3575(12) 0.229(2) 0.1492(18)
O43 O 0.42717(13) 0.5128(3) 0.09245(13)
O44 O 0.50057(12) 0.4211(3) 0.14158(16)
O45 O 0.63764(14) 0.5358(4) 0.1292(2)
O46 O 0.0763(3) 0.0049(6) 0.6964(3)
O47 O 0.0612(2) 0.1530(5) 0.8938(3)
O48? O 0.1285(6) 0.9500(10) 0.8219(6)
H135? H 0.1153 0.9413 0.8447
C101? C 0.0948(6) 0.9457(9) 0.7809(5)
H136? H 0.1103 0.9592 0.7544
H137? H 0.0714 0.9965 0.7822
C102? C 0.0708(5) 0.8482(9) 0.7743(8)
H138? H 0.0588 0.8289 0.8022
H139? H 0.0448 0.8508 0.7486
O49? O -0.0464(7) 0.611(3) 1.1762(6)
H140? H -0.0303 0.6454 1.1615
C103? C -0.0898(5) 0.5935(11) 1.1492(3)
H141? H -0.1111 0.6469 1.1535
H142? H -0.1028 0.5332 1.1596
C104? C -0.0864(4) 0.5847(8) 1.0988(3)
H143? H -0.1171 0.5691 1.0813
H144? H -0.0760 0.6468 1.0875
O50? O -0.0538(5) 0.5094(12) 1.0925(3)
C105? C -0.0582(8) 0.4631(9) 1.0506(3)
C106? C -0.0482(7) 0.3641(9) 1.0508(3)
C107? C -0.0548(10) 0.3115(9) 1.0100(4)
C108? C -0.0688(8) 0.3614(9) 0.9700(3)
O51? O -0.0782(4) 0.3080(11) 0.9295(4)
C109? C -0.0407(3) 0.2967(6) 0.9045(2)
H145? H -0.0173 0.2529 0.9213
H146? H -0.0259 0.3601 0.9016
C110? C -0.0571(2) 0.2568(5) 0.8581(2)
H147? H -0.0301 0.2383 0.8439
H148? H -0.0756 0.1980 0.8608
O52? O -0.08483(16) 0.3263(3) 0.82936(16)
H149? H -0.0934 0.3022 0.8035
C111? C -0.0689(6) 0.5115(8) 1.0101(3)
H150? H -0.0723 0.5796 1.0100
C112? C -0.0746(8) 0.4612(9) 0.9693(3)
H151? H -0.0824 0.4943 0.9411
O53? O -0.13686(18) 0.3076(5) 0.74026(18)
O54? O 0.2006(6) 0.8282(10) 0.8418(5)
H152? H 0.4834 0.4909 0.2820
H153? H 0.4703 0.5134 0.2283
C113? C 0.4132(3) 0.4683(10) 0.2573(4)
H154? H 0.4197 0.3985 0.2554
H155? H 0.4046 0.4791 0.2877
O55? O 0.37236(18) 0.4853(4) 0.22535(19)
H156? H 0.3581 0.5326 0.2340
O56? O 0.1008(6) 0.0859(12) 0.6885(6)
O57? O 0.1380(8) 0.0868(13) 0.6990(7)
O58? O 0.0564(8) 0.0504(17) 0.7176(8)
O59? O 0.32567(19) 0.1234(4) 0.12283(19)
O60? O 0.10382(16) 0.1254(3) 0.76798(17)
O61? O 0.0326(2) 0.1943(5) 0.8084(2)
O62? O 0.0709(2) 0.2149(6) 0.7840(2)
O63? O 0.0630(2) 0.1266(6) 0.8579(2)
O64? O 0.29653(17) 0.2214(4) 0.07994(17)
O65? O 0.5507(4) 0.4499(8) 0.0682(5)
O66? O 0.5760(6) 0.4743(12) 0.0615(6)
O67? O 0.5063(6) 0.5891(12) 0.9600(6)
O68? O -0.1410(7) 0.3698(16) 1.1156(7)
O69? O 0.5219(4) 0.5069(10) 0.9934(4)
loop_
_geom_bond_atom_site_label_1
_geom_bond_atom_site_label_2
_geom_bond_site_symmetry_1
_geom_bond_site_symmetry_2
O1 H1 1_555 1_555
C1 O1 1_555 1_555
H2 C1 1_555 1_555
H3 C1 1_555 1_555
C2 C1 1_555 1_555
H4 C2 1_555 1_555
H5 C2 1_555 1_555
O2 C2 1_555 1_555
C3 O2 1_555 1_555
C4 C3 1_555 1_555
H6 C4 1_555 1_555
C5 C4 1_555 1_555
H7 C5 1_555 1_555
C6 C5 1_555 1_555
O3 C6 1_555 1_555
C7 O3 1_555 1_555
H8 C7 1_555 1_555
H9 C7 1_555 1_555
C8 C7 1_555 1_555
H10 C8 1_555 1_555
H11 C8 1_555 1_555
O4 C8 1_555 1_555
H12 O4 1_555 1_555
C9 H13 1_555 1_555
H14 C9 1_555 1_555
C10 C3 1_555 1_555
C11 C6 1_555 1_555
C12 C11 1_555 1_555
H15 C12 1_555 1_555
H16 C12 1_555 1_555
O5 C13 1_555 1_555
C13 N1 1_555 1_555
N1 C9 1_555 1_555
C14 N1 1_555 1_555
C15 C14 1_555 1_555
H17 C15 1_555 1_555
H18 C15 1_555 1_555
H19 C15 1_555 1_555
N2 C12 1_555 1_555
C16 N2 1_555 1_555
O6 C16 1_555 1_555
C17 H20 1_555 1_555
H21 C17 1_555 1_555
N3 C13 1_555 1_555
C18 C14 1_555 1_555
C19 C18 1_555 1_555
H22 C19 1_555 1_555
H23 C19 1_555 1_555
H24 C19 1_555 1_555
N4 C16 1_555 1_555
C20 N4 1_555 1_555
H25 C20 1_555 1_555
H26 C20 1_555 1_555
O7 C21 1_555 1_555
C21 N5 1_555 1_555
N5 C17 1_555 1_555
C22 N5 1_555 1_555
H27 C22 1_555 1_555
N6 C20 1_555 1_555
C23 N6 1_555 1_555
O8 C23 1_555 1_555
C24 H28 1_555 1_555
H29 C24 1_555 1_555
N7 C21 1_555 1_555
C25 C22 1_555 1_555
H30 C25 1_555 1_555
N8 C23 1_555 1_555
C26 N8 1_555 1_555
H31 C26 1_555 1_555
H32 C26 1_555 1_555
O9 C27 1_555 1_555
C27 N9 1_555 1_555
N9 C24 1_555 1_555
C28 N9 1_555 1_555
H33 C28 1_555 1_555
N10 C26 1_555 1_555
C29 N10 1_555 1_555
O10 C29 1_555 1_555
C30 H34 1_555 1_555
H35 C30 1_555 1_555
N11 C27 1_555 1_555
C31 C28 1_555 1_555
H36 C31 1_555 1_555
N12 C29 1_555 1_555
C32 N12 1_555 1_555
H37 C32 1_555 1_555
H38 C32 1_555 1_555
O11 C33 1_555 1_555
C33 N13 1_555 1_555
N13 C30 1_555 1_555
C34 N13 1_555 1_555
C35 C34 1_555 1_555
H39 C35 1_555 1_555
H40 C35 1_555 1_555
H41 C35 1_555 1_555
N14 C32 1_555 1_555
C36 N14 1_555 1_555
O12 C36 1_555 1_555
C37 H42 1_555 1_555
H43 C37 1_555 1_555
N15 C33 1_555 1_555
C38 C34 1_555 1_555
C39 C38 1_555 1_555
H44 C39 1_555 1_555
H45 C39 1_555 1_555
H46 C39 1_555 1_555
N16 C36 1_555 1_555
C40 N16 1_555 1_555
H47 C40 1_555 1_555
H48 C40 1_555 1_555
O13 H49 1_555 1_555
C41 O13 1_555 1_555
H50 C41 1_555 1_555
H51 C41 1_555 1_555
C42 C41 1_555 1_555
H52 C42 1_555 1_555
H53 C42 1_555 1_555
O14 C42 1_555 1_555
C43 O14 1_555 1_555
C44 C37 1_555 1_555
C45 C40 1_555 1_555
C46 C45 1_555 1_555
O15 C46 1_555 1_555
C47 O15 1_555 1_555
H54 C47 1_555 1_555
H55 C47 1_555 1_555
C48 C47 1_555 1_555
H56 C48 1_555 1_555
H57 C48 1_555 1_555
O16 C48 1_555 1_555
H58 O16 1_555 1_555
C49 C43 1_555 1_555
H59 C49 1_555 1_555
C50 C46 1_555 1_555
H60 C50 1_555 1_555
O20 H61 1_555 1_555
C51 O20 1_555 1_555
H62 C51 1_555 1_555
H63 C51 1_555 1_555
C52 C51 1_555 1_555
H64 C52 1_555 1_555
H65 C52 1_555 1_555
O21 C52 1_555 1_555
C53 O21 1_555 1_555
C54 C53 1_555 1_555
H66 C54 1_555 1_555
C55 C54 1_555 1_555
H67 C55 1_555 1_555
C56 C55 1_555 1_555
O22 C56 1_555 1_555
C57 O22 1_555 1_555
H68 C57 1_555 1_555
H69 C57 1_555 1_555
C58 C57 1_555 1_555
H70 C58 1_555 1_555
H71 C58 1_555 1_555
O23 C58 1_555 1_555
H72 O23 1_555 1_555
C59 C53 1_555 1_555
C60 C56 1_555 1_555
C61 C59 1_555 1_555
H73 C61 1_555 1_555
H74 C61 1_555 1_555
C62 C60 1_555 1_555
H75 C62 1_555 1_555
H76 C62 1_555 1_555
O24 C63 1_555 1_555
C63 N17 1_555 1_555
N17 C61 1_555 1_555
C64 N17 1_555 1_555
C65 C64 1_555 1_555
H77 C65 1_555 1_555
H78 C65 1_555 1_555
H79 C65 1_555 1_555
N18 C62 1_555 1_555
C66 N18 1_555 1_555
O25 C66 1_555 1_555
C67 H80 1_555 1_555
H81 C67 1_555 1_555
N19 C63 1_555 1_555
C68 C64 1_555 1_555
C69 C68 1_555 1_555
H82 C69 1_555 1_555
H83 C69 1_555 1_555
H84 C69 1_555 1_555
N20 C66 1_555 1_555
C70 N20 1_555 1_555
H85 C70 1_555 1_555
H86 C70 1_555 1_555
O26 C71 1_555 1_555
C71 N21 1_555 1_555
N21 C67 1_555 1_555
C72 N21 1_555 1_555
H87 C72 1_555 1_555
N22 C70 1_555 1_555
C73 N22 1_555 1_555
O27 C73 1_555 1_555
C74 H88 1_555 1_555
H89 C74 1_555 1_555
N23 C71 1_555 1_555
C75 C72 1_555 1_555
H90 C75 1_555 1_555
N24 C73 1_555 1_555
C76 N24 1_555 1_555
H91 C76 1_555 1_555
H92 C76 1_555 1_555
O28 C77 1_555 1_555
C77 N25 1_555 1_555
N25 C74 1_555 1_555
C78 N25 1_555 1_555
H93 C78 1_555 1_555
N26 C76 1_555 1_555
C79 N26 1_555 1_555
O29 C79 1_555 1_555
C80 H94 1_555 1_555
H95 C80 1_555 1_555
N27 C77 1_555 1_555
C81 C78 1_555 1_555
H96 C81 1_555 1_555
N28 C79 1_555 1_555
C82 N28 1_555 1_555
H97 C82 1_555 1_555
H98 C82 1_555 1_555
O30 C83 1_555 1_555
C83 N29 1_555 1_555
N29 C80 1_555 1_555
C84 N29 1_555 1_555
C85 C84 1_555 1_555
H99 C85 1_555 1_555
H100 C85 1_555 1_555
H101 C85 1_555 1_555
N30 C82 1_555 1_555
C86 N30 1_555 1_555
O31 C86 1_555 1_555
C87 H102 1_555 1_555
H103 C87 1_555 1_555
N31 C83 1_555 1_555
C88 C84 1_555 1_555
C89 C88 1_555 1_555
H104 C89 1_555 1_555
H105 C89 1_555 1_555
H106 C89 1_555 1_555
N32 C86 1_555 1_555
C90 N32 1_555 1_555
H107 C90 1_555 1_555
H108 C90 1_555 1_555
O32 H109 1_555 1_555
C91 O32 1_555 1_555
H110 C91 1_555 1_555
H111 C91 1_555 1_555
C92 C91 1_555 1_555
H112 C92 1_555 1_555
H113 C92 1_555 1_555
O33 C92 1_555 1_555
C93 O33 1_555 1_555
C94 C87 1_555 1_555
C95 C90 1_555 1_555
C96 C95 1_555 1_555
O34 C96 1_555 1_555
C97 O34 1_555 1_555
H114 C97 1_555 1_555
H115 C97 1_555 1_555
C98 C97 1_555 1_555
H116 C98 1_555 1_555
H117 C98 1_555 1_555
O35 C98 1_555 1_555
H118 O35 1_555 1_555
C99 C93 1_555 1_555
H119 C99 1_555 1_555
C100 C96 1_555 1_555
H120 C100 1_555 1_555
O36 H121 1_555 1_555
H122 O36 1_555 1_555
O37 H123 1_555 1_555
H124 O37 1_555 1_555
O38 H125 1_555 1_555
H126 O38 1_555 1_555
O39 H127 1_555 1_555
H128 O39 1_555 1_555
O40 H129 1_555 1_555
H130 O40 1_555 1_555
O41 H131 1_555 1_555
H132 O41 1_555 1_555
O42 H133 1_555 1_555
H134 O42 1_555 1_555
C9 C10 1_555 1_555
C10 C11 1_555 1_555
C14 N2 1_555 1_555
C17 N3 1_555 1_555
N3 C18 1_555 1_555
C18 N4 1_555 1_555
C22 N6 1_555 1_555
C24 N7 1_555 1_555
N7 C25 1_555 1_555
C25 N8 1_555 1_555
C28 N10 1_555 1_555
C30 N11 1_555 1_555
N11 C31 1_555 1_555
C31 N12 1_555 1_555
C34 N14 1_555 1_555
C37 N15 1_555 1_555
N15 C38 1_555 1_555
C38 N16 1_555 1_555
C43 C44 1_555 1_555
C44 C45 1_555 1_555
C49 C50 1_555 1_555
C59 C60 1_555 1_555
C64 N18 1_555 1_555
C67 N19 1_555 1_555
N19 C68 1_555 1_555
C68 N20 1_555 1_555
C72 N22 1_555 1_555
C74 N23 1_555 1_555
N23 C75 1_555 1_555
C75 N24 1_555 1_555
C78 N26 1_555 1_555
C80 N27 1_555 1_555
N27 C81 1_555 1_555
C81 N28 1_555 1_555
C84 N30 1_555 1_555
C87 N31 1_555 1_555
N31 C88 1_555 1_555
C88 N32 1_555 1_555
C93 C94 1_555 1_555
C94 C95 1_555 1_555
C99 C100 1_555 1_555

#END
