
#######################################################################
#
#                 Cambridge Crystallographic Data Centre
#                                CCDC 
#
#######################################################################
#
# If this CIF has been generated from an entry in the Cambridge 
# Structural Database, then it will include bibliographic, chemical, 
# crystal, experimental, refinement or atomic coordinate data resulting 
# from the CCDC's data processing and validation procedures.
#
#######################################################################

data_WIXHUG
_chemical_formula_moiety         'C12 H16 N2 O6'
_chemical_name_systematic        
(1S,5R,6S,8S)-8-Hydroxy-1-hydroxymethyl-6-(thymin-2-yl)-3,7-dioxabicyclo(3.2.1)octane
_symmetry_cell_setting           triclinic
_symmetry_space_group_name_H-M   'P 1'
_symmetry_Int_Tables_number      1
_space_group_name_Hall           'P 1'
loop_
_symmetry_equiv_pos_site_id
_symmetry_equiv_pos_as_xyz
1 x,y,z
_cell_length_a                   10.1754(6)
_cell_length_b                   10.7939(6)
_cell_length_c                   12.0403(7)
_cell_angle_alpha                99.3290(10)
_cell_angle_beta                 99.0300(10)
_cell_angle_gamma                90.8950(10)
_cell_volume                     1287.61
_exptl_crystal_colour            colorless
_chemical_melting_point          '225-226 deg.C'
_cell_formula_units_Z            4
_exptl_crystal_recrystallization_method acetone
loop_
_atom_site_label
_atom_site_type_symbol
_atom_site_fract_x
_atom_site_fract_y
_atom_site_fract_z
C1 C 1.0702(2) 0.6043(2) 0.0784(1)
C2 C 1.1936(2) 0.6850(2) 0.0769(1)
C3 C 1.3165(2) 0.6468(2) 0.1504(2)
C4 C 1.2209(2) 0.7298(2) 0.3167(1)
C5 C 1.1013(2) 0.7652(2) 0.2366(2)
C6 C 1.1475(2) 0.8109(2) 0.1340(1)
C7 C 1.0170(2) 0.8602(2) 0.2967(2)
C8 C 1.0889(2) 0.4037(2) 0.1610(1)
C9 C 1.1078(2) 0.2791(2) 0.1530(1)
C10 C 1.1398(2) 0.2117(2) 0.0468(1)
C11 C 1.1168(2) 0.4077(2) -0.0334(1)
C12 C 1.0961(2) 0.2081(2) 0.2488(2)
N1 N 1.0942(1) 0.4681(1) 0.0718(1)
N2 N 1.1412(1) 0.2818(1) -0.0388(1)
O1 O 1.2886(1) 0.6283(1) 0.2606(1)
O2 O 1.0222(1) 0.6508(1) 0.1822(1)
O3 O 1.2485(1) 0.9074(1) 0.1679(1)
O4 O 0.9937(2) 0.8318(1) 0.4035(2)
O5 O 1.1646(1) 0.0985(1) 0.0291(1)
O6 O 1.1157(1) 0.4611(1) -0.1152(1)
H1 H 1.0000(20) 0.6094(19) 0.0163(17)
H2 H 1.2120(20) 0.6840(20) 0.0000(19)
H3 H 1.3870(20) 0.7170(20) 0.1570(20)
H4 H 1.3460(20) 0.5650(20) 0.1180(20)
H5 H 1.1900(20) 0.7013(19) 0.3779(18)
H6 H 1.2850(20) 0.8070(20) 0.3400(20)
H7 H 1.0740(20) 0.8392(19) 0.0898(17)
H8 H 1.0690(20) 0.9410(20) 0.3090(20)
H9 H 0.9340(30) 0.8660(30) 0.2430(20)
H10 H 1.0690(20) 0.4560(20) 0.2295(18)
H11 H 1.0800(30) 0.2630(30) 0.3180(20)
H12 H 1.0210(30) 0.1430(30) 0.2240(20)
H13 H 1.1790(30) 0.1710(30) 0.2770(20)
H14 H 1.2300(30) 0.9630(30) 0.1280(30)
H15 H 0.9970(30) 0.9000(30) 0.4470(30)
H16 H 1.1680(20) 0.2490(20) -0.1010(20)
C13 C 0.7242(2) 0.3459(1) 0.1236(1)
C14 C 0.6379(2) 0.2572(2) 0.0264(1)
C15 C 0.4938(2) 0.2967(2) 0.0069(2)
C16 C 0.4670(2) 0.2373(2) 0.1843(2)
C17 C 0.6117(2) 0.1980(1) 0.1984(1)
C18 C 0.6447(2) 0.1380(2) 0.0819(1)
C19 C 0.6388(2) 0.1234(2) 0.2954(1)
C20 C 0.6538(2) 0.5502(2) 0.2251(1)
C21 C 0.6465(2) 0.6759(2) 0.2408(1)
C22 C 0.6779(2) 0.7410(2) 0.1518(1)
C23 C 0.7354(2) 0.5398(2) 0.0478(1)
C24 C 0.6079(2) 0.7505(2) 0.3460(2)
N3 N 0.6967(1) 0.4820(1) 0.1316(1)
N4 N 0.7184(1) 0.6667(1) 0.0601(1)
O7 O 0.4450(1) 0.3309(1) 0.1128(1)
O8 O 0.7021(1) 0.3075(1) 0.2268(1)
O9 O 0.7652(1) 0.0673(1) 0.3014(1)
O10 O 0.5552(1) 0.0408(1) 0.0197(1)
O11 O 0.6705(1) 0.8559(1) 0.1526(1)
O12 O 0.7813(1) 0.4809(1) -0.0326(1)
H17 H 0.8180(20) 0.3420(20) 0.1192(18)
H18 H 0.6730(20) 0.2490(20) -0.0429(19)
H19 H 0.4340(20) 0.2290(20) -0.0427(18)
H20 H 0.4850(20) 0.3750(20) -0.0260(20)
H21 H 0.4110(20) 0.1650(20) 0.1518(18)
H22 H 0.4470(20) 0.2780(20) 0.2600(20)
H23 H 0.7350(20) 0.1100(20) 0.0950(18)
H24 H 0.5640(30) 0.0610(30) 0.2910(20)
H25 H 0.6460(20) 0.1810(20) 0.3690(20)
H26 H 0.6254(19) 0.5040(20) 0.2759(17)
H27 H 0.5470(30) 0.8090(30) 0.3260(20)
H28 H 0.5690(30) 0.6940(30) 0.3910(30)
H29 H 0.6880(30) 0.7980(30) 0.3940(30)
H30 H 0.7520(30) -0.0010(30) 0.2670(20)
H31 H 0.5790(30) -0.0200(30) 0.0510(30)
H32 H 0.7450(20) 0.7030(20) 0.0083(19)
C25 C 0.9039(2) 0.9291(2) 0.7643(1)
C26 C 0.7893(2) 1.0109(1) 0.7960(1)
C27 C 0.6559(2) 0.9620(2) 0.7258(1)
C28 C 0.7325(2) 1.0245(2) 0.5641(1)
C29 C 0.8627(2) 1.0749(1) 0.6403(1)
C30 C 0.8317(2) 1.1335(2) 0.7583(1)
C31 C 0.9443(2) 1.1578(2) 0.5832(1)
C32 C 0.8840(2) 0.7269(2) 0.6243(1)
C33 C 0.8745(2) 0.6009(2) 0.5976(1)
C34 C 0.8474(2) 0.5296(2) 0.6844(1)
C35 C 0.8504(2) 0.7286(2) 0.8168(1)
C36 C 0.8908(2) 0.5310(2) 0.4822(2)
N5 N 0.8720(1) 0.7915(1) 0.7311(1)
N6 N 0.8381(1) 0.6007(1) 0.7887(1)
O13 O 0.6664(1) 0.9291(1) 0.6073(1)
O14 O 0.9457(1) 0.9726(1) 0.6693(1)
O15 O 0.7286(1) 1.2185(1) 0.7581(1)
O16 O 0.9810(1) 1.0916(1) 0.4803(1)
O17 O 0.8302(1) 0.4148(1) 0.6691(1)
O18 O 0.8417(1) 0.7845(1) 0.9133(1)
H33 H 0.9740(20) 0.9383(18) 0.8250(17)
H34 H 0.7830(20) 1.0200(20) 0.8780(20)
H35 H 0.5938(19) 1.0251(19) 0.7357(16)
H36 H 0.6260(20) 0.8850(20) 0.7470(20)
H37 H 0.6760(20) 1.0980(20) 0.5600(20)
H38 H 0.7490(20) 0.9880(20) 0.4900(20)
H39 H 0.9110(20) 1.1724(19) 0.8044(17)
H40 H 0.8920(20) 1.2330(20) 0.5677(17)
H41 H 1.0260(20) 1.1864(19) 0.6363(17)
H42 H 0.8998(19) 0.7735(19) 0.5699(17)
H43 H 0.9670(20) 0.4750(20) 0.4880(20)
H44 H 0.8200(30) 0.4780(30) 0.4430(30)
H45 H 0.9060(30) 0.5840(30) 0.4310(20)
H46 H 0.7570(30) 1.2910(30) 0.7440(20)
H47 H 0.9180(20) 1.0950(20) 0.4280(20)
H48 H 0.8180(20) 0.5600(20) 0.8400(20)
C37 C 0.2492(2) 0.6600(2) 0.6691(1)
C38 C 0.3214(2) 0.5865(2) 0.7572(1)
C39 C 0.4608(2) 0.6410(2) 0.8069(2)
C40 C 0.5269(2) 0.5700(2) 0.6262(2)
C41 C 0.3855(2) 0.5157(2) 0.5825(1)
C42 C 0.3329(2) 0.4614(2) 0.6775(1)
C43 C 0.3771(2) 0.4242(2) 0.4719(2)
C44 C 0.3146(2) 0.8693(2) 0.6237(1)
C45 C 0.3147(2) 0.9961(2) 0.6400(1)
C46 C 0.2725(2) 1.0608(2) 0.7422(1)
C47 C 0.2231(2) 0.8555(2) 0.7932(1)
C48 C 0.3571(2) 1.0720(2) 0.5563(2)
N7 N 0.2708(1) 0.7988(1) 0.6972(1)
N8 N 0.2374(1) 0.9844(1) 0.8152(1)
O19 O 0.5304(1) 0.6714(1) 0.7198(1)
O20 O 0.2959(1) 0.6165(1) 0.5648(1)
O21 O 0.4206(1) 0.3776(1) 0.7254(1)
O22 O 0.4387(2) 0.4710(1) 0.3883(1)
O23 O 0.2661(1) 1.1767(1) 0.7682(1)
O24 O 0.1715(1) 0.7962(1) 0.8546(1)
H49 H 0.1560(20) 0.6464(19) 0.6604(17)
H50 H 0.2740(20) 0.5750(20) 0.8200(20)
H51 H 0.5090(20) 0.5790(20) 0.8460(20)
H52 H 0.4590(20) 0.7190(20) 0.8570(20)
H53 H 0.5800(20) 0.4977(19) 0.6501(17)
H54 H 0.5600(20) 0.6070(20) 0.5658(19)
H55 H 0.2430(20) 0.4260(20) 0.6470(19)
H56 H 0.4250(30) 0.3440(30) 0.4890(20)
H57 H 0.2840(30) 0.4020(20) 0.4470(20)
H58 H 0.3420(20) 0.8250(20) 0.5630(18)
H59 H 0.4230(30) 1.1310(30) 0.5960(20)
H60 H 0.2860(30) 1.1130(30) 0.5170(20)
H61 H 0.3930(30) 1.0220(30) 0.4970(30)
H62 H 0.3790(30) 0.3180(30) 0.7360(20)
H63 H 0.3860(30) 0.5170(30) 0.3570(20)
H64 H 0.2170(20) 1.0180(20) 0.8810(20)
loop_
_geom_bond_atom_site_label_1
_geom_bond_atom_site_label_2
_geom_bond_site_symmetry_1
_geom_bond_site_symmetry_2
C1 C2 1_555 1_555
C2 C3 1_555 1_555
C3 O1 1_555 1_555
C4 C5 1_555 1_555
C5 C6 1_555 1_555
C6 C2 1_555 1_555
C7 C5 1_555 1_555
C8 C9 1_555 1_555
C9 C10 1_555 1_555
C10 N2 1_555 1_555
C11 N1 1_555 1_555
C12 C9 1_555 1_555
N1 C1 1_555 1_555
N2 C11 1_555 1_555
O1 C4 1_555 1_555
O2 C1 1_555 1_555
O3 C6 1_555 1_555
O4 C7 1_555 1_555
O5 C10 1_555 1_555
O6 C11 1_555 1_555
C13 C14 1_555 1_555
C14 C15 1_555 1_555
C15 O7 1_555 1_555
C16 C17 1_555 1_555
C17 C18 1_555 1_555
C18 C14 1_555 1_555
C19 C17 1_555 1_555
C20 C21 1_555 1_555
C21 C22 1_555 1_555
C22 N4 1_555 1_555
C23 N3 1_555 1_555
C24 C21 1_555 1_555
N3 C13 1_555 1_555
N4 C23 1_555 1_555
O7 C16 1_555 1_555
O8 C13 1_555 1_555
O9 C19 1_555 1_555
O10 C18 1_555 1_555
O11 C22 1_555 1_555
O12 C23 1_555 1_555
C25 C26 1_555 1_555
C26 C27 1_555 1_555
C27 O13 1_555 1_555
C28 C29 1_555 1_555
C29 C30 1_555 1_555
C30 C26 1_555 1_555
C31 C29 1_555 1_555
C32 C33 1_555 1_555
C33 C34 1_555 1_555
C34 N6 1_555 1_555
C35 N5 1_555 1_555
C36 C33 1_555 1_555
N5 C25 1_555 1_555
N6 C35 1_555 1_555
O13 C28 1_555 1_555
O14 C25 1_555 1_555
O15 C30 1_555 1_555
O16 C31 1_555 1_555
O17 C34 1_555 1_555
O18 C35 1_555 1_555
C37 C38 1_555 1_555
C38 C39 1_555 1_555
C39 O19 1_555 1_555
C40 C41 1_555 1_555
C41 C42 1_555 1_555
C42 C38 1_555 1_555
C43 C41 1_555 1_555
C44 C45 1_555 1_555
C45 C46 1_555 1_555
C46 N8 1_555 1_555
C47 N7 1_555 1_555
C48 C45 1_555 1_555
N7 C37 1_555 1_555
N8 C47 1_555 1_555
O19 C40 1_555 1_555
O20 C37 1_555 1_555
O21 C42 1_555 1_555
O22 C43 1_555 1_555
O23 C46 1_555 1_555
O24 C47 1_555 1_555
H1 C1 1_555 1_555
H2 C2 1_555 1_555
H3 C3 1_555 1_555
H4 C3 1_555 1_555
H5 C4 1_555 1_555
H6 C4 1_555 1_555
H7 C6 1_555 1_555
H8 C7 1_555 1_555
H9 C7 1_555 1_555
H10 C8 1_555 1_555
H11 C12 1_555 1_555
H12 C12 1_555 1_555
H13 C12 1_555 1_555
H14 O3 1_555 1_555
H15 O4 1_555 1_555
H16 N2 1_555 1_555
H17 C13 1_555 1_555
H18 C14 1_555 1_555
H19 C15 1_555 1_555
H20 C15 1_555 1_555
H21 C16 1_555 1_555
H22 C16 1_555 1_555
H23 C18 1_555 1_555
H24 C19 1_555 1_555
H25 C19 1_555 1_555
H26 C20 1_555 1_555
H27 C24 1_555 1_555
H28 C24 1_555 1_555
H29 C24 1_555 1_555
H30 O9 1_555 1_555
H31 O10 1_555 1_555
H32 N4 1_555 1_555
H33 C25 1_555 1_555
H34 C26 1_555 1_555
H35 C27 1_555 1_555
H36 C27 1_555 1_555
H37 C28 1_555 1_555
H38 C28 1_555 1_555
H39 C30 1_555 1_555
H40 C31 1_555 1_555
H41 C31 1_555 1_555
H42 C32 1_555 1_555
H43 C36 1_555 1_555
H44 C36 1_555 1_555
H45 C36 1_555 1_555
H46 O15 1_555 1_555
H47 O16 1_555 1_555
H48 N6 1_555 1_555
H49 C37 1_555 1_555
H50 C38 1_555 1_555
H51 C39 1_555 1_555
H52 C39 1_555 1_555
H53 C40 1_555 1_555
H54 C40 1_555 1_555
H55 C42 1_555 1_555
H56 C43 1_555 1_555
H57 C43 1_555 1_555
H58 C44 1_555 1_555
H59 C48 1_555 1_555
H60 C48 1_555 1_555
H61 C48 1_555 1_555
H62 O21 1_555 1_555
H63 O22 1_555 1_555
H64 N8 1_555 1_555
C5 O2 1_555 1_555
C8 N1 1_555 1_555
C17 O8 1_555 1_555
C20 N3 1_555 1_555
C29 O14 1_555 1_555
C32 N5 1_555 1_555
C41 O20 1_555 1_555
C44 N7 1_555 1_555

#END
