
#######################################################################
#
#                 Cambridge Crystallographic Data Centre
#                                CCDC 
#
#######################################################################
#
# If this CIF has been generated from an entry in the Cambridge 
# Structural Database, then it will include bibliographic, chemical, 
# crystal, experimental, refinement or atomic coordinate data resulting 
# from the CCDC's data processing and validation procedures.
#
#######################################################################

data_WIXNEY
_chemical_formula_moiety         'C10 H20 N2 O7 P2,H2 O1'
_chemical_name_systematic        
'Hydrogen (1-hydroxy-6-(2-methyl-1H-imidazol-3-ium-1-yl)-1-phosphonohexyl)phosphonate monohydrate'
_symmetry_cell_setting           monoclinic
_symmetry_space_group_name_H-M   'P 21/n'
_symmetry_Int_Tables_number      14
_space_group_name_Hall           '-P 2yn'
loop_
_symmetry_equiv_pos_site_id
_symmetry_equiv_pos_as_xyz
1 x,y,z
2 1/2-x,1/2+y,1/2-z
3 -x,-y,-z
4 1/2+x,1/2-y,1/2+z
_cell_length_a                   10.296(3)
_cell_length_b                   8.906(3)
_cell_length_c                   16.974(5)
_cell_angle_alpha                90
_cell_angle_beta                 98.689(4)
_cell_angle_gamma                90
_cell_volume                     1538.59
_exptl_crystal_colour            colorless
_exptl_crystal_description       Block
_cell_formula_units_Z            4
loop_
_atom_site_label
_atom_site_type_symbol
_atom_site_fract_x
_atom_site_fract_y
_atom_site_fract_z
P1 P 0.16887(5) 0.65859(6) 0.54208(3)
P2 P 0.09080(5) 0.42853(7) 0.66318(3)
O1 O 0.02846(14) 0.71708(18) 0.52822(9)
O2 O 0.26921(16) 0.79014(19) 0.54192(10)
H1 H 0.2463 0.8623 0.5686
O3 O 0.19741(15) 0.54585(18) 0.48049(9)
O4 O 0.10813(16) 0.29874(18) 0.60466(10)
H2 H 0.0593 0.3138 0.5611
O5 O -0.05105(15) 0.48671(19) 0.64805(10)
H3 H -0.0856 0.4642 0.6015
O6 O 0.12964(17) 0.3831(2) 0.74848(10)
O7 O 0.16824(16) 0.70014(19) 0.69499(10)
N1 N 0.6987(2) -0.0345(2) 0.64772(13)
N2 N 0.8017(2) -0.2116(3) 0.59742(14)
C1 C 0.6130(3) -0.1554(3) 0.6341(2)
H4 H 0.5253 -0.1593 0.6451
C2 C 0.6778(3) -0.2659(3) 0.6023(2)
H5 H 0.6446 -0.3625 0.5864
C3 C 0.8124(2) -0.0721(3) 0.62470(14)
C4 C 0.9300(3) 0.0222(3) 0.62732(18)
H6 H 0.9209 0.0865 0.5800
H7 H 1.0076 -0.0420 0.6284
H8 H 0.9400 0.0849 0.6753
C5 C 0.6649(3) 0.1099(3) 0.68228(16)
H9 H 0.7466 0.1676 0.6990
H10 H 0.6241 0.0898 0.7304
C6 C 0.5719(2) 0.2036(3) 0.62479(14)
H11 H 0.4957 0.1417 0.6017
H12 H 0.6173 0.2382 0.5807
C7 C 0.5239(2) 0.3398(3) 0.66746(14)
H13 H 0.4981 0.3065 0.7185
H14 H 0.5971 0.4121 0.6798
C8 C 0.4075(2) 0.4187(3) 0.61809(14)
H15 H 0.3400 0.3435 0.5976
H16 H 0.4371 0.4687 0.5718
C9 C 0.3469(2) 0.5359(3) 0.66816(13)
H17 H 0.4007 0.6282 0.6693
H18 H 0.3562 0.4976 0.7235
C10 C 0.2017(2) 0.5816(2) 0.64321(12)
H19 H 0.240(5) 0.761(6) 0.712(3)
H20 H 0.866(4) -0.261(4) 0.584(2)
O8 O 0.26398(19) 0.0354(2) 0.61942(11)
H21 H 0.293(3) 0.012(4) 0.6664(9)
H22 H 0.212(3) 0.108(3) 0.6178(19)
loop_
_geom_bond_atom_site_label_1
_geom_bond_atom_site_label_2
_geom_bond_site_symmetry_1
_geom_bond_site_symmetry_2
P1 O1 1_555 1_555
P2 O4 1_555 1_555
O2 P1 1_555 1_555
H1 O2 1_555 1_555
O3 P1 1_555 1_555
O4 H2 1_555 1_555
O5 P2 1_555 1_555
H3 O5 1_555 1_555
O6 P2 1_555 1_555
O7 C10 1_555 1_555
N1 C1 1_555 1_555
N2 C2 1_555 1_555
C1 H4 1_555 1_555
C2 C1 1_555 1_555
H5 C2 1_555 1_555
C3 N1 1_555 1_555
C4 C3 1_555 1_555
H6 C4 1_555 1_555
H7 C4 1_555 1_555
H8 C4 1_555 1_555
C5 N1 1_555 1_555
H9 C5 1_555 1_555
H10 C5 1_555 1_555
C6 C5 1_555 1_555
H11 C6 1_555 1_555
H12 C6 1_555 1_555
C7 C6 1_555 1_555
H13 C7 1_555 1_555
H14 C7 1_555 1_555
C8 C7 1_555 1_555
H15 C8 1_555 1_555
H16 C8 1_555 1_555
C9 C8 1_555 1_555
H17 C9 1_555 1_555
H18 C9 1_555 1_555
C10 P1 1_555 1_555
H19 O7 1_555 1_555
H20 N2 1_555 1_555
O8 H21 1_555 1_555
H22 O8 1_555 1_555
P2 C10 1_555 1_555
N2 C3 1_555 1_555
C9 C10 1_555 1_555

#END
