
#######################################################################
#
#                 Cambridge Crystallographic Data Centre
#                                CCDC 
#
#######################################################################
#
# If this CIF has been generated from an entry in the Cambridge 
# Structural Database, then it will include bibliographic, chemical, 
# crystal, experimental, refinement or atomic coordinate data resulting 
# from the CCDC's data processing and validation procedures.
#
#######################################################################

data_WIXNAU
_chemical_formula_moiety         'C11 H22 N2 O7 P2'
_chemical_name_systematic        
'Hydrogen (6-(2-ethyl-1H-imidazol-3-ium-1-yl)-1-hydroxy-1-phosphonohexyl)phosphonate'
_symmetry_cell_setting           monoclinic
_symmetry_space_group_name_H-M   'P 21/n'
_symmetry_Int_Tables_number      14
_space_group_name_Hall           '-P 2yn'
loop_
_symmetry_equiv_pos_site_id
_symmetry_equiv_pos_as_xyz
1 x,y,z
2 1/2-x,1/2+y,1/2-z
3 -x,-y,-z
4 1/2+x,1/2-y,1/2+z
_cell_length_a                   11.094(4)
_cell_length_b                   10.369(3)
_cell_length_c                   14.078(5)
_cell_angle_alpha                90
_cell_angle_beta                 96.614(3)
_cell_angle_gamma                90
_cell_volume                     1608.67
_exptl_crystal_colour            colorless
_exptl_crystal_description       Chunk
_cell_formula_units_Z            4
loop_
_atom_site_label
_atom_site_type_symbol
_atom_site_fract_x
_atom_site_fract_y
_atom_site_fract_z
P1 P 0.13279(3) 0.39311(3) 0.63825(2)
P2 P 0.16094(3) 0.68717(3) 0.64247(3)
O1 O 0.12187(8) 0.39814(9) 0.74413(7)
O2 O 0.20622(9) 0.27157(9) 0.61238(7)
O3 O 0.01320(9) 0.39353(9) 0.57570(7)
O4 O 0.14672(9) 0.69049(9) 0.74653(7)
O5 O 0.25196(10) 0.79165(10) 0.61379(8)
O6 O 0.03835(10) 0.71254(11) 0.58172(9)
H1 H 0.0343 0.6686 0.5313
O7 O 0.21657(9) 0.53470(10) 0.50020(7)
N1 N 0.78078(11) 0.52940(12) 0.89243(9)
N2 N 0.94238(12) 0.53134(13) 0.82068(10)
C1 C 0.82324(15) 0.65488(16) 0.89534(12)
H2 H 0.7879 0.7268 0.9235
C2 C 0.92479(15) 0.65573(16) 0.85048(12)
H3 H 0.9745 0.7283 0.8413
C3 C 0.85445(13) 0.45585(15) 0.84664(10)
C4 C 0.67214(13) 0.48685(16) 0.93446(11)
H4 H 0.6795 0.5128 1.0026
H5 H 0.6673 0.3916 0.9318
C5 C 0.55625(13) 0.54338(15) 0.88307(11)
H6 H 0.5639 0.6385 0.8831
H7 H 0.4882 0.5213 0.9198
C6 C 0.52412(12) 0.49839(14) 0.78035(10)
H8 H 0.5276 0.4031 0.7775
H9 H 0.5834 0.5336 0.7397
C7 C 0.39655(12) 0.54460(13) 0.74346(10)
H10 H 0.3379 0.5027 0.7815
H11 H 0.3920 0.6387 0.7542
C8 C 0.35808(12) 0.51725(13) 0.63775(10)
H12 H 0.3823 0.4279 0.6240
H13 H 0.4041 0.5756 0.5995
C9 C 0.22179(12) 0.53262(12) 0.60294(9)
C10 C 0.84490(16) 0.31446(16) 0.83081(13)
H14 H 0.8939 0.2897 0.7792
H15 H 0.7593 0.2916 0.8099
C11 C 0.88919(18) 0.23914(18) 0.92175(15)
H16 H 0.9760 0.2551 0.9390
H17 H 0.8756 0.1468 0.9104
H18 H 0.8443 0.2674 0.9740
H19 H 0.256(2) 0.251(2) 0.6597(17)
H20 H 0.1433(19) 0.5336(19) 0.4760(16)
H21 H 1.012(2) 0.500(2) 0.7894(19)
H22 H 0.293(2) 0.819(3) 0.6581(19)
loop_
_geom_bond_atom_site_label_1
_geom_bond_atom_site_label_2
_geom_bond_site_symmetry_1
_geom_bond_site_symmetry_2
P1 O1 1_555 1_555
P2 O4 1_555 1_555
O2 P1 1_555 1_555
O3 P1 1_555 1_555
O5 P2 1_555 1_555
O6 P2 1_555 1_555
H1 O6 1_555 1_555
O7 C9 1_555 1_555
N1 C1 1_555 1_555
N2 C2 1_555 1_555
C1 H2 1_555 1_555
C2 C1 1_555 1_555
H3 C2 1_555 1_555
C3 N1 1_555 1_555
C4 N1 1_555 1_555
H4 C4 1_555 1_555
H5 C4 1_555 1_555
C5 C4 1_555 1_555
H6 C5 1_555 1_555
H7 C5 1_555 1_555
C6 C5 1_555 1_555
H8 C6 1_555 1_555
H9 C6 1_555 1_555
C7 C6 1_555 1_555
H10 C7 1_555 1_555
H11 C7 1_555 1_555
C8 C7 1_555 1_555
H12 C8 1_555 1_555
H13 C8 1_555 1_555
C9 P1 1_555 1_555
C10 C3 1_555 1_555
H14 C10 1_555 1_555
H15 C10 1_555 1_555
C11 C10 1_555 1_555
H16 C11 1_555 1_555
H17 C11 1_555 1_555
H18 C11 1_555 1_555
H19 O2 1_555 1_555
H20 O7 1_555 1_555
H21 N2 1_555 1_555
H22 O5 1_555 1_555
P2 C9 1_555 1_555
N2 C3 1_555 1_555
C8 C9 1_555 1_555

#END
