
#######################################################################
#
#                 Cambridge Crystallographic Data Centre
#                                CCDC 
#
#######################################################################
#
# If this CIF has been generated from an entry in the Cambridge 
# Structural Database, then it will include bibliographic, chemical, 
# crystal, experimental, refinement or atomic coordinate data resulting 
# from the CCDC's data processing and validation procedures.
#
#######################################################################

data_WIXQOK
_chemical_formula_moiety         'C27 H18 F6 N4 S2'
_chemical_name_systematic        
1,2-bis(5-(2,2'-Dicyanovinyl)-2-n-propyl-3-thienyl)perfluorocyclopentene
_symmetry_cell_setting           monoclinic
_symmetry_space_group_name_H-M   'C 2/c'
_symmetry_Int_Tables_number      15
_space_group_name_Hall           '-C 2yn'
loop_
_symmetry_equiv_pos_site_id
_symmetry_equiv_pos_as_xyz
1 x,y,z
2 1/2+x,1/2+y,z
3 -x,y,1/2-z
4 1/2-x,1/2+y,1/2-z
5 -x,-y,-z
6 1/2-x,1/2-y,-z
7 x,-y,1/2+z
8 1/2+x,1/2-y,1/2+z
_cell_length_a                   35.398(6)
_cell_length_b                   11.2324(19)
_cell_length_c                   15.557(3)
_cell_angle_alpha                90
_cell_angle_beta                 113.127(2)
_cell_angle_gamma                90
_cell_volume                     5688.44
_cell_formula_units_Z            8
loop_
_atom_site_label
_atom_site_type_symbol
_atom_site_fract_x
_atom_site_fract_y
_atom_site_fract_z
F7 F 0.2073(3) 0.5731(10) 0.4166(8)
F8 F 0.1505(3) 0.5071(9) 0.4100(9)
F9 F 0.2120(3) 0.6772(11) 0.5664(8)
F10 F 0.1551(3) 0.5956(9) 0.5423(8)
F11 F 0.1704(3) 0.8724(7) 0.5417(7)
F12 F 0.1198(2) 0.7602(9) 0.5152(6)
C4 C 0.1720(4) 0.6105(10) 0.4136(7)
C5 C 0.1759(3) 0.6708(9) 0.5030(9)
C6 C 0.1518(3) 0.7823(10) 0.4868(7)
C7 C 0.1623(5) 1.0689(14) 0.4030(10)
H1 H 0.1648 1.0689 0.4674
H2 H 0.1842 1.0203 0.3993
C8 C 0.1666(5) 1.1965(11) 0.3734(11)
H3 H 0.1412 1.2393 0.3603
H4 H 0.1882 1.2368 0.4244
C9 C 0.1769(6) 1.1987(16) 0.2870(11)
H5 H 0.2049 1.1749 0.3039
H6 H 0.1731 1.2778 0.2617
H7 H 0.1591 1.1447 0.2411
S1 S 0.12034(7) 0.69000(17) 0.06907(14)
S2 S 0.08122(7) 1.09624(17) 0.26612(15)
N1 N -0.0015(3) 0.3294(8) -0.1387(6)
N2 N 0.0738(3) 0.6190(7) -0.1586(6)
N3 N -0.0828(3) 1.0205(8) -0.0277(7)
N4 N 0.0133(3) 1.2749(7) 0.1009(6)
C13 C 0.0222(3) 0.3979(8) -0.1005(6)
C14 C 0.0641(3) 0.5635(7) -0.1103(6)
C15 C 0.0521(2) 0.4880(6) -0.0516(5)
C16 C 0.0682(2) 0.4937(6) 0.0434(5)
H15 H 0.0589 0.4356 0.0731
C17 C 0.0969(2) 0.5755(6) 0.1035(5)
C18 C 0.1080(2) 0.5793(6) 0.1991(5)
H16 H 0.0991 0.5241 0.2317
C19 C 0.1338(2) 0.6746(6) 0.2417(5)
C20 C 0.1439(2) 0.7423(6) 0.1802(5)
C21 C 0.1718(2) 0.8499(7) 0.2014(7)
H17 H 0.1574 0.9140 0.1595
H18 H 0.1776 0.8760 0.2647
C22 C 0.2115(3) 0.8274(8) 0.1915(8)
H19 H 0.2059 0.8006 0.1284
H20 H 0.2262 0.7644 0.2341
C23 C 0.2387(3) 0.9389(9) 0.2122(8)
H21 H 0.2267 0.9958 0.1628
H22 H 0.2656 0.9175 0.2162
H23 H 0.2407 0.9732 0.2704
C24 C 0.1482(2) 0.6999(6) 0.3430(5)
C25 C 0.1396(2) 0.7970(7) 0.3834(4)
C26 C 0.1123(2) 0.8941(6) 0.3318(5)
C27 C 0.1206(2) 1.0144(7) 0.3405(5)
C28 C 0.0517(2) 0.9724(6) 0.2214(5)
C29 C 0.0735(2) 0.8719(6) 0.2654(5)
H24 H 0.0628 0.7954 0.2512
C30 C 0.0117(3) 0.9693(7) 0.1501(6)
H25 H -0.0010 0.8950 0.1387
C31 C -0.0107(3) 1.0593(7) 0.0961(6)
C32 C -0.0515(3) 1.0357(8) 0.0250(7)
C33 C 0.0030(3) 1.1791(9) 0.0995(6)
F1? F 0.2147(4) 0.6276(12) 0.4021(10)
F2? F 0.1693(4) 0.5079(11) 0.4011(10)
F3? F 0.2275(3) 0.6897(13) 0.5537(9)
F4? F 0.1768(4) 0.6129(12) 0.5670(9)
F5? F 0.2011(3) 0.8667(9) 0.5069(8)
F6? F 0.1479(3) 0.8322(11) 0.5305(8)
C1? C 0.1775(4) 0.6227(12) 0.4140(8)
C2? C 0.1846(4) 0.6687(10) 0.5057(10)
C3? C 0.1678(3) 0.7880(11) 0.4817(7)
C10? C 0.1550(6) 1.088(2) 0.4094(12)
H8? H 0.1706 1.0399 0.4632
H9? H 0.1433 1.1543 0.4309
C11? C 0.1840(6) 1.137(2) 0.3666(13)
H10? H 0.1681 1.1806 0.3098
H11? H 0.1976 1.0718 0.3501
C12? C 0.2162(6) 1.220(2) 0.4342(15)
H12? H 0.2031 1.2916 0.4430
H13? H 0.2362 1.2408 0.4089
H14? H 0.2297 1.1811 0.4932
loop_
_geom_bond_atom_site_label_1
_geom_bond_atom_site_label_2
_geom_bond_site_symmetry_1
_geom_bond_site_symmetry_2
F7 C4 1_555 1_555
F8 C4 1_555 1_555
F9 C5 1_555 1_555
F10 C5 1_555 1_555
F11 C6 1_555 1_555
F12 C6 1_555 1_555
C4 C5 1_555 1_555
C5 C6 1_555 1_555
C6 C25 1_555 1_555
C7 H1 1_555 1_555
H2 C7 1_555 1_555
C8 C7 1_555 1_555
H3 C8 1_555 1_555
H4 C8 1_555 1_555
C9 C8 1_555 1_555
H5 C9 1_555 1_555
H6 C9 1_555 1_555
H7 C9 1_555 1_555
S1 C17 1_555 1_555
S2 C27 1_555 1_555
N1 C13 1_555 1_555
N2 C14 1_555 1_555
N3 C32 1_555 1_555
N4 C33 1_555 1_555
C13 C15 1_555 1_555
C14 C15 1_555 1_555
C15 C16 1_555 1_555
C16 H15 1_555 1_555
C17 C16 1_555 1_555
C18 C17 1_555 1_555
H16 C18 1_555 1_555
C19 C18 1_555 1_555
C20 S1 1_555 1_555
C21 C20 1_555 1_555
H17 C21 1_555 1_555
H18 C21 1_555 1_555
C22 C21 1_555 1_555
H19 C22 1_555 1_555
H20 C22 1_555 1_555
C23 C22 1_555 1_555
H21 C23 1_555 1_555
H22 C23 1_555 1_555
H23 C23 1_555 1_555
C24 C4 1_555 1_555
C25 C24 1_555 1_555
C26 C25 1_555 1_555
C27 C7 1_555 1_555
C28 S2 1_555 1_555
C29 C26 1_555 1_555
H24 C29 1_555 1_555
C30 C28 1_555 1_555
H25 C30 1_555 1_555
C31 C30 1_555 1_555
C32 C31 1_555 1_555
C33 C31 1_555 1_555
C19 C20 1_555 1_555
C19 C24 1_555 1_555
C26 C27 1_555 1_555
C28 C29 1_555 1_555

#END
