
#######################################################################
#
#                 Cambridge Crystallographic Data Centre
#                                CCDC 
#
#######################################################################
#
# If this CIF has been generated from an entry in the Cambridge 
# Structural Database, then it will include bibliographic, chemical, 
# crystal, experimental, refinement or atomic coordinate data resulting 
# from the CCDC's data processing and validation procedures.
#
#######################################################################

data_WIXVOO
_chemical_formula_moiety         'C20 H23 N1 O4'
_chemical_name_systematic        
7,8-Dihydro-7\b,14-(1R-hydroxy)ethanocodeinone
_chemical_properties_biological  'opiate activity'
_symmetry_cell_setting           orthorhombic
_symmetry_space_group_name_H-M   'P 21 21 21'
_symmetry_Int_Tables_number      19
_space_group_name_Hall           'P 2ac 2ab'
loop_
_symmetry_equiv_pos_site_id
_symmetry_equiv_pos_as_xyz
1 x,y,z
2 1/2-x,-y,1/2+z
3 -x,1/2+y,1/2-z
4 1/2+x,1/2-y,-z
_cell_length_a                   6.9655(5)
_cell_length_b                   8.6637(8)
_cell_length_c                   27.873(2)
_cell_angle_alpha                90
_cell_angle_beta                 90
_cell_angle_gamma                90
_cell_volume                     1682.05
_exptl_crystal_colour            colorless
_exptl_crystal_description       'flat plate'
_chemical_melting_point          235-237deg.C
_cell_formula_units_Z            4
_exptl_crystal_recrystallization_method dichloromethane
loop_
_atom_site_label
_atom_site_type_symbol
_atom_site_fract_x
_atom_site_fract_y
_atom_site_fract_z
C1 C 0.5100(7) 1.3476(6) 0.04306(16)
H1 H 0.5660 1.4401 0.0335
C2 C 0.5411(8) 1.2138(6) 0.01680(17)
H2 H 0.6163 1.2195 -0.0107
O1 O 0.2729(5) 0.9396(3) 0.09265(11)
O2 O 0.5024(6) 0.9442(5) 0.00179(13)
C3 C 0.4651(8) 1.0724(6) 0.02975(16)
C4 C 0.6239(12) 0.8358(7) 0.0218(3)
H3 H 0.6408 0.7517 -0.0002
H4 H 0.5693 0.7980 0.0512
H5 H 0.7461 0.8826 0.0284
C5 C 0.3532(7) 1.0678(5) 0.07037(15)
C6 C 0.2365(8) 0.9893(5) 0.14228(17)
H6 H 0.1221 0.9365 0.1545
C7 C 0.4071(8) 0.9499(6) 0.17371(17)
O3 O 0.5044(7) 0.8366(5) 0.16560(14)
C8 C 0.4566(7) 1.0613(6) 0.21327(15)
H7 H 0.5736 1.0296 0.2301
C9 C 0.4802(7) 1.2230(5) 0.19065(16)
H8 H 0.5401 1.2947 0.2128
H9 H 0.5544 1.2187 0.1612
C10 C 0.2424(6) 1.4342(5) 0.16403(14)
H10 H 0.2874 1.5006 0.1902
C11 C 0.3661(7) 1.4742(5) 0.11913(16)
H11 H 0.3062 1.5595 0.1023
H12 H 0.4915 1.5086 0.1298
C12 C 0.3927(7) 1.3425(5) 0.08442(16)
C13 C 0.3152(7) 1.2010(5) 0.09588(15)
C14 C 0.1956(7) 1.1653(5) 0.13873(16)
C15 C 0.2699(7) 1.2660(5) 0.18086(15)
C16 C -0.0173(7) 1.1968(5) 0.12934(17)
H13 H -0.0591 1.1381 0.1016
H14 H -0.0922 1.1634 0.1568
C17 C -0.0525(7) 1.3688(5) 0.12039(17)
H15 H 0.0034 1.3981 0.0898
H16 H -0.1895 1.3883 0.1189
N1 N 0.0330(6) 1.4624(4) 0.15891(13)
C18 C -0.0084(9) 1.6280(5) 0.1503(2)
H17 H 0.0476 1.6887 0.1755
H18 H -0.1448 1.6439 0.1499
H19 H 0.0451 1.6586 0.1200
C19 C 0.1774(7) 1.2245(5) 0.22888(16)
H20 H 0.0432 1.1984 0.2244
H21 H 0.1859 1.3108 0.2510
O4 O 0.1791(5) 0.9468(4) 0.25078(12)
H22 H 0.107(7) 0.952(6) 0.2771(18)
C20 C 0.2887(7) 1.0852(5) 0.24855(16)
H23 H 0.3392 1.1096 0.2805
loop_
_geom_bond_atom_site_label_1
_geom_bond_atom_site_label_2
_geom_bond_site_symmetry_1
_geom_bond_site_symmetry_2
C1 H1 1_555 1_555
C2 C1 1_555 1_555
H2 C2 1_555 1_555
O1 C5 1_555 1_555
O2 C3 1_555 1_555
C3 C2 1_555 1_555
C4 O2 1_555 1_555
H3 C4 1_555 1_555
H4 C4 1_555 1_555
H5 C4 1_555 1_555
C5 C3 1_555 1_555
C6 O1 1_555 1_555
H6 C6 1_555 1_555
C7 C6 1_555 1_555
O3 C7 1_555 1_555
C8 C7 1_555 1_555
H7 C8 1_555 1_555
C9 C8 1_555 1_555
H8 C9 1_555 1_555
H9 C9 1_555 1_555
C10 H10 1_555 1_555
C11 C10 1_555 1_555
H11 C11 1_555 1_555
H12 C11 1_555 1_555
C12 C1 1_555 1_555
C13 C5 1_555 1_555
C14 C6 1_555 1_555
C15 C9 1_555 1_555
C16 C14 1_555 1_555
H13 C16 1_555 1_555
H14 C16 1_555 1_555
C17 C16 1_555 1_555
H15 C17 1_555 1_555
H16 C17 1_555 1_555
N1 C10 1_555 1_555
C18 N1 1_555 1_555
H17 C18 1_555 1_555
H18 C18 1_555 1_555
H19 C18 1_555 1_555
C19 C15 1_555 1_555
H20 C19 1_555 1_555
H21 C19 1_555 1_555
O4 H22 1_555 1_555
C20 C8 1_555 1_555
H23 C20 1_555 1_555
C10 C15 1_555 1_555
C11 C12 1_555 1_555
C12 C13 1_555 1_555
C13 C14 1_555 1_555
C14 C15 1_555 1_555
C17 N1 1_555 1_555
C19 C20 1_555 1_555
O4 C20 1_555 1_555

#END
