
#######################################################################
#
#                 Cambridge Crystallographic Data Centre
#                                CCDC 
#
#######################################################################
#
# If this CIF has been generated from an entry in the Cambridge 
# Structural Database, then it will include bibliographic, chemical, 
# crystal, experimental, refinement or atomic coordinate data resulting 
# from the CCDC's data processing and validation procedures.
#
#######################################################################

data_WIXVAB
_chemical_formula_moiety         'C22 H28 O9'
_chemical_name_systematic        
'4-((5-(Ethoxycarbonyl)-2,2,5-trimethyl-1,3-oxolan-4-yl)(methoxymethoxy)methyl)-3-methoxyphenyl propionate'
_symmetry_cell_setting           triclinic
_symmetry_space_group_name_H-M   'P -1'
_symmetry_Int_Tables_number      2
_space_group_name_Hall           '-P 1'
loop_
_symmetry_equiv_pos_site_id
_symmetry_equiv_pos_as_xyz
1 x,y,z
2 -x,-y,-z
_cell_length_a                   10.1759(8)
_cell_length_b                   11.0415(12)
_cell_length_c                   11.2677(13)
_cell_angle_alpha                95.662(2)
_cell_angle_beta                 96.243(2)
_cell_angle_gamma                113.477(3)
_cell_volume                     1140.24
_exptl_crystal_colour            white
_chemical_melting_point          '134-136 deg.C'
_cell_formula_units_Z            2
loop_
_atom_site_label
_atom_site_type_symbol
_atom_site_fract_x
_atom_site_fract_y
_atom_site_fract_z
O1 O -0.2758(2) 0.4216(2) 0.57431(18)
O3 O -0.3616(8) 0.2518(7) 0.4212(5)
O4 O -0.22974(18) 0.0811(2) 0.79154(19)
O5 O 0.17165(18) 0.32703(18) 0.93975(15)
O6 O 0.0849(2) 0.2722(2) 1.11833(19)
O7 O 0.08584(19) 0.0739(2) 0.68232(16)
O8 O 0.2902(2) 0.0458(2) 0.74708(18)
O9 O 0.4601(2) 0.2316(2) 1.00757(18)
O10 O 0.4874(2) 0.3154(3) 0.8380(2)
C1 C -0.1922(3) 0.3648(3) 0.6373(3)
C2 C -0.2591(3) 0.2475(3) 0.6793(2)
H1 H -0.3597 0.2016 0.6637
C3 C -0.1744(3) 0.1978(3) 0.7459(2)
C4 C -0.0241(3) 0.2687(3) 0.7714(2)
C5 C 0.0374(3) 0.3874(3) 0.7272(3)
H2 H 0.1377 0.4353 0.7432
C6 C -0.0454(3) 0.4374(3) 0.6601(3)
H3 H -0.0026 0.5180 0.6313
C7 C 0.0716(2) 0.2204(3) 0.8473(2)
H4 H 0.0116 0.1450 0.8844
C8 C 0.1698(3) 0.1813(3) 0.7762(2)
H5 H 0.2307 0.2580 0.7410
C9 C 0.2666(3) 0.1248(3) 0.8441(2)
C10 C 0.4166(3) 0.2351(3) 0.8953(3)
C11 C 0.1966(3) 0.0382(3) 0.9345(3)
H6 H 0.1019 -0.0269 0.8972
H7 H 0.1877 0.0928 1.0022
H8 H 0.2554 -0.0066 0.9617
C12 C -0.3344(4) 0.3715(4) 0.4618(3)
C13 C -0.3941(3) 0.4522(4) 0.4034(3)
C14 C -0.4410(4) 0.5143(4) 0.3499(3)
H9 H -0.4787 0.5641 0.3068
C15 C -0.3823(3) 0.0019(3) 0.7651(3)
H10 H -0.4324 0.0522 0.7967
H11 H -0.4053 -0.0776 0.8015
H12 H -0.4119 -0.0223 0.6791
C16 C 0.1074(3) 0.3593(3) 1.0360(3)
H13 H 0.1696 0.4489 1.0771
H14 H 0.0151 0.3591 1.0034
C17 C 0.2125(4) 0.2936(5) 1.1978(3)
H15 H 0.2876 0.2968 1.1518
H16 H 0.1927 0.2219 1.2444
H17 H 0.2438 0.3767 1.2512
C18 C 0.1799(3) 0.0165(3) 0.6433(3)
C19 C 0.0949(4) -0.1320(4) 0.6106(4)
H18 H 0.0562 -0.1680 0.6797
H19 H 0.1574 -0.1722 0.5854
H20 H 0.0166 -0.1509 0.5459
C20 C 0.2527(4) 0.0801(4) 0.5425(3)
H21 H 0.1822 0.0552 0.4704
H22 H 0.3270 0.0503 0.5280
H23 H 0.2955 0.1756 0.5647
C21 C 0.6015(4) 0.3307(4) 1.0663(4)
H26 H 0.6238 0.4130 1.0327
H27 H 0.5991 0.3505 1.1516
C23 C 0.7074(9) 0.2826(10) 1.0587(14)
H31 H 0.6786 0.1994 1.0896
H32 H 0.7976 0.3462 1.1054
H33 H 0.7192 0.2687 0.9758
O2? O -0.2755(13) 0.3200(11) 0.3996(10)
H24? H 0.5896 0.3914 1.1282
H25? H 0.6515 0.3825 1.0074
C22? C 0.691(2) 0.264(3) 1.123(3)
H28? H 0.6900 0.1937 1.0647
H29? H 0.6517 0.2270 1.1914
H30? H 0.7897 0.3286 1.1488
loop_
_geom_bond_atom_site_label_1
_geom_bond_atom_site_label_2
_geom_bond_site_symmetry_1
_geom_bond_site_symmetry_2
O1 C1 1_555 1_555
O3 C12 1_555 1_555
O4 C3 1_555 1_555
O5 C7 1_555 1_555
O6 C16 1_555 1_555
O7 C8 1_555 1_555
O8 C9 1_555 1_555
O9 C10 1_555 1_555
O10 C10 1_555 1_555
C1 C2 1_555 1_555
C2 H1 1_555 1_555
C3 C2 1_555 1_555
C4 C3 1_555 1_555
C5 C4 1_555 1_555
H2 C5 1_555 1_555
C6 C1 1_555 1_555
H3 C6 1_555 1_555
C7 C4 1_555 1_555
H4 C7 1_555 1_555
C8 C7 1_555 1_555
H5 C8 1_555 1_555
C9 C8 1_555 1_555
C10 C9 1_555 1_555
C11 C9 1_555 1_555
H6 C11 1_555 1_555
H7 C11 1_555 1_555
H8 C11 1_555 1_555
C12 O1 1_555 1_555
C13 C12 1_555 1_555
C14 C13 1_555 1_555
H9 C14 1_555 1_555
C15 O4 1_555 1_555
H10 C15 1_555 1_555
H11 C15 1_555 1_555
H12 C15 1_555 1_555
C16 O5 1_555 1_555
H13 C16 1_555 1_555
H14 C16 1_555 1_555
C17 O6 1_555 1_555
H15 C17 1_555 1_555
H16 C17 1_555 1_555
H17 C17 1_555 1_555
C18 O7 1_555 1_555
C19 C18 1_555 1_555
H18 C19 1_555 1_555
H19 C19 1_555 1_555
H20 C19 1_555 1_555
C20 C18 1_555 1_555
H21 C20 1_555 1_555
H22 C20 1_555 1_555
H23 C20 1_555 1_555
C21 O9 1_555 1_555
H26 C21 1_555 1_555
H27 C21 1_555 1_555
C23 C21 1_555 1_555
H31 C23 1_555 1_555
H32 C23 1_555 1_555
H33 C23 1_555 1_555
O8 C18 1_555 1_555
C5 C6 1_555 1_555

#END
