
#######################################################################
#
#                 Cambridge Crystallographic Data Centre
#                                CCDC 
#
#######################################################################
#
# If this CIF has been generated from an entry in the Cambridge 
# Structural Database, then it will include bibliographic, chemical, 
# crystal, experimental, refinement or atomic coordinate data resulting 
# from the CCDC's data processing and validation procedures.
#
#######################################################################

data_WIYBUC
_chemical_formula_moiety         'C38 H39 N3 O2 S1'
_chemical_name_systematic        
"(Z)-Methyl 2'-n-butylimino-1,3,4'-tribenzyl-spiro(benzimidazoline-2,3'-tetrahydrothien-5'-ylidene)acetate"
_symmetry_cell_setting           triclinic
_symmetry_space_group_name_H-M   'P -1'
_symmetry_Int_Tables_number      2
_space_group_name_Hall           '-P 1'
loop_
_symmetry_equiv_pos_site_id
_symmetry_equiv_pos_as_xyz
1 x,y,z
2 -x,-y,-z
_cell_length_a                   10.271(8)
_cell_length_b                   13.602(10)
_cell_length_c                   13.602(10)
_cell_angle_alpha                71.85
_cell_angle_beta                 72.135(8)
_cell_angle_gamma                72.135(8)
_cell_volume                     1671.14
_exptl_crystal_colour            yellow
_chemical_melting_point          '427-428 K'
_cell_formula_units_Z            2
_exptl_crystal_recrystallization_method 'ethyl acetate/n-butane'
loop_
_atom_site_label
_atom_site_type_symbol
_atom_site_fract_x
_atom_site_fract_y
_atom_site_fract_z
S1 S 0.41400(6) 0.74279(5) 0.32345(5)
O1 O 0.1489(2) 1.03241(15) 0.43554(15)
O2 O 0.3341(2) 0.89258(17) 0.45265(16)
N1 N 0.15497(19) 0.68628(14) 0.23384(14)
N2 N 0.3249(2) 0.69156(16) 0.08000(14)
N3 N 0.4672(2) 0.56504(18) 0.25211(17)
C1 C 0.1471(2) 0.61543(18) 0.18103(18)
C2 C 0.0571(3) 0.5506(2) 0.2075(2)
H1 H -0.0103 0.5450 0.2716
C3 C 0.0700(4) 0.4928(2) 0.1344(3)
H2 H 0.0090 0.4488 0.1500
C4 C 0.1695(4) 0.4996(2) 0.0412(3)
H3 H 0.1750 0.4605 -0.0057
C5 C 0.2625(3) 0.5635(2) 0.0152(2)
H4 H 0.3313 0.5677 -0.0482
C6 C 0.2495(3) 0.62050(19) 0.08656(19)
C7 C 0.1088(2) 0.6652(2) 0.34930(17)
H5 H 0.1464 0.7078 0.3742
H6 H 0.1477 0.5909 0.3792
C8 C -0.1019(3) 0.6412(2) 0.4954(2)
H7 H -0.0411 0.5939 0.5368
C9 C -0.2452(3) 0.6639(3) 0.5387(3)
H8 H -0.2805 0.6320 0.6093
C10 C -0.3367(3) 0.7342(3) 0.4774(3)
H9 H -0.4331 0.7491 0.5067
C11 C -0.2849(3) 0.7811(2) 0.3741(2)
H10 H -0.3461 0.8285 0.3330
C12 C -0.1422(3) 0.7588(2) 0.3301(2)
H11 H -0.1080 0.7911 0.2594
C13 C 0.4649(3) 0.6881(2) 0.01212(19)
H12 H 0.5093 0.6153 0.0065
H13 H 0.5201 0.7089 0.0453
C14 C 0.4676(3) 0.7592(2) -0.09849(19)
C15 C 0.3517(3) 0.8126(3) -0.1378(2)
H14 H 0.2636 0.8060 -0.0944
C16 C 0.3601(4) 0.8763(3) -0.2399(3)
H15 H 0.2785 0.9122 -0.2639
C17 C 0.4860(5) 0.8863(3) -0.3040(3)
H16 H 0.4929 0.9304 -0.3723
C18 C 0.6039(5) 0.8305(4) -0.2674(3)
H17 H 0.6919 0.8342 -0.3125
C19 C 0.5951(4) 0.7680(3) -0.1638(3)
H18 H 0.6766 0.7325 -0.1395
C20 C 0.2880(2) 0.71894(18) 0.18232(17)
C21 C 0.4002(2) 0.6603(2) 0.24928(18)
C22 C 0.5655(3) 0.5145(2) 0.3230(2)
H19 H 0.5120 0.4957 0.3957
H20 H 0.6163 0.5655 0.3194
C23 C 0.6685(3) 0.4176(2) 0.2954(2)
H21 H 0.7218 0.4367 0.2227
H22 H 0.6174 0.3669 0.2987
C24 C 0.7708(3) 0.3641(3) 0.3679(3)
H23 H 0.8208 0.4152 0.3653
H24 H 0.7174 0.3442 0.4404
C25 C 0.8761(4) 0.2671(3) 0.3396(4)
H25 H 0.8279 0.2175 0.3382
H26 H 0.9317 0.2347 0.3917
H27 H 0.9363 0.2871 0.2708
C26 C 0.2734(2) 0.83843(18) 0.16696(19)
H28 H 0.3561 0.8549 0.1114
C27 C -0.0488(2) 0.68854(19) 0.39040(18)
C28 C 0.1465(3) 0.91252(19) 0.1231(2)
H29 H 0.1266 0.8793 0.0775
H30 H 0.0651 0.9193 0.1823
C29 C 0.1651(3) 1.0233(2) 0.0606(2)
C30 C 0.2821(4) 1.0374(2) -0.0200(2)
H31 H 0.3525 0.9786 -0.0355
C31 C 0.2960(4) 1.1386(3) -0.0785(3)
H32 H 0.3763 1.1472 -0.1323
C32 C 0.1931(5) 1.2258(3) -0.0581(3)
H33 H 0.2028 1.2934 -0.0985
C33 C 0.0776(5) 1.2141(3) 0.0203(3)
H34 H 0.0074 1.2735 0.0344
C34 C 0.0633(3) 1.1126(2) 0.0806(3)
H35 H -0.0164 1.1052 0.1353
C35 C 0.2933(2) 0.85342(19) 0.26551(19)
C36 C 0.2277(3) 0.9382(2) 0.3061(2)
H36 H 0.1669 0.9933 0.2700
C37 C 0.2463(3) 0.9496(2) 0.4047(2)
C38 C 0.1537(4) 1.0526(3) 0.5317(2)
H37 H 0.1333 0.9940 0.5905
H38 H 0.0853 1.1166 0.5436
H39 H 0.2458 1.0607 0.5253
loop_
_geom_bond_atom_site_label_1
_geom_bond_atom_site_label_2
_geom_bond_site_symmetry_1
_geom_bond_site_symmetry_2
S1 C21 1_555 1_555
O1 C37 1_555 1_555
O2 C37 1_555 1_555
N1 C1 1_555 1_555
N2 C6 1_555 1_555
N3 C21 1_555 1_555
C1 C2 1_555 1_555
C2 H1 1_555 1_555
C3 C2 1_555 1_555
H2 C3 1_555 1_555
C4 C3 1_555 1_555
H3 C4 1_555 1_555
C5 C4 1_555 1_555
H4 C5 1_555 1_555
C6 C1 1_555 1_555
C7 N1 1_555 1_555
H5 C7 1_555 1_555
H6 C7 1_555 1_555
C8 H7 1_555 1_555
C9 C8 1_555 1_555
H8 C9 1_555 1_555
C10 C9 1_555 1_555
H9 C10 1_555 1_555
C11 C10 1_555 1_555
H10 C11 1_555 1_555
C12 C11 1_555 1_555
H11 C12 1_555 1_555
C13 N2 1_555 1_555
H12 C13 1_555 1_555
H13 C13 1_555 1_555
C14 C13 1_555 1_555
C15 C14 1_555 1_555
H14 C15 1_555 1_555
C16 C15 1_555 1_555
H15 C16 1_555 1_555
C17 C16 1_555 1_555
H16 C17 1_555 1_555
C18 C17 1_555 1_555
H17 C18 1_555 1_555
C19 C14 1_555 1_555
H18 C19 1_555 1_555
C20 N1 1_555 1_555
C21 C20 1_555 1_555
C22 N3 1_555 1_555
H19 C22 1_555 1_555
H20 C22 1_555 1_555
C23 C22 1_555 1_555
H21 C23 1_555 1_555
H22 C23 1_555 1_555
C24 C23 1_555 1_555
H23 C24 1_555 1_555
H24 C24 1_555 1_555
C25 C24 1_555 1_555
H25 C25 1_555 1_555
H26 C25 1_555 1_555
H27 C25 1_555 1_555
C26 C20 1_555 1_555
H28 C26 1_555 1_555
C27 C7 1_555 1_555
C28 C26 1_555 1_555
H29 C28 1_555 1_555
H30 C28 1_555 1_555
C29 C28 1_555 1_555
C30 C29 1_555 1_555
H31 C30 1_555 1_555
C31 C30 1_555 1_555
H32 C31 1_555 1_555
C32 C31 1_555 1_555
H33 C32 1_555 1_555
C33 C32 1_555 1_555
H34 C33 1_555 1_555
C34 C29 1_555 1_555
H35 C34 1_555 1_555
C35 S1 1_555 1_555
C36 C35 1_555 1_555
H36 C36 1_555 1_555
C37 C36 1_555 1_555
C38 O1 1_555 1_555
H37 C38 1_555 1_555
H38 C38 1_555 1_555
H39 C38 1_555 1_555
N2 C20 1_555 1_555
C5 C6 1_555 1_555
C8 C27 1_555 1_555
C12 C27 1_555 1_555
C18 C19 1_555 1_555
C26 C35 1_555 1_555
C33 C34 1_555 1_555

#END
