
#######################################################################
#
#                 Cambridge Crystallographic Data Centre
#                                CCDC 
#
#######################################################################
#
# If this CIF has been generated from an entry in the Cambridge 
# Structural Database, then it will include bibliographic, chemical, 
# crystal, experimental, refinement or atomic coordinate data resulting 
# from the CCDC's data processing and validation procedures.
#
#######################################################################

data_WIYCAJ
_chemical_formula_moiety         'C31 H33 N3 O2 S1'
_chemical_name_systematic        
"(E)-Methyl 1,3-diethyl-1',4'-dibenzyl-2'-thioxo-spiro(benzimidazoline-2,3'-pyrrolidin-5'-ylidene)acetate"
_symmetry_cell_setting           monoclinic
_symmetry_space_group_name_H-M   'P 21/n'
_symmetry_Int_Tables_number      14
_space_group_name_Hall           '-P 2yn'
loop_
_symmetry_equiv_pos_site_id
_symmetry_equiv_pos_as_xyz
1 x,y,z
2 1/2-x,1/2+y,1/2-z
3 -x,-y,-z
4 1/2+x,1/2-y,1/2+z
_cell_length_a                   13.5513(8)
_cell_length_b                   12.4961(6)
_cell_length_c                   16.0731(11)
_cell_angle_alpha                90
_cell_angle_beta                 96.584(3)
_cell_angle_gamma                90
_cell_volume                     2703.84
_exptl_crystal_colour            red
_exptl_crystal_description       prism
_chemical_melting_point          '392-393 K'
_cell_formula_units_Z            4
_exptl_crystal_recrystallization_method 'ethyl acetate/n-butane'
loop_
_atom_site_label
_atom_site_type_symbol
_atom_site_fract_x
_atom_site_fract_y
_atom_site_fract_z
N1 N 0.36386(10) 0.20785(11) 0.14680(8)
N2 N 0.26606(10) 0.38688(11) -0.01872(8)
N3 N 0.25000(10) 0.20555(11) -0.03865(8)
O1 O 0.05661(9) 0.12122(10) 0.15723(8)
O2 O 0.10349(8) 0.06990(10) 0.28992(8)
S1 S 0.48621(3) 0.28753(4) 0.04148(3)
C1 C 0.37913(12) 0.26154(13) 0.07522(10)
C2 C 0.27460(12) 0.28543(13) 0.02774(10)
C3 C 0.20564(12) 0.27256(13) 0.09824(10)
H1 H 0.1404 0.2411 0.0749
C4 C 0.26236(12) 0.19457(13) 0.15679(10)
C5 C 0.25063(12) 0.36521(14) -0.10491(10)
C6 C 0.24635(12) 0.43317(15) -0.17275(11)
H2 H 0.2581 0.5077 -0.1654
C7 C 0.22422(13) 0.38908(16) -0.25298(11)
H3 H 0.2208 0.4347 -0.3005
C8 C 0.20739(13) 0.28112(16) -0.26428(11)
H4 H 0.1913 0.2535 -0.3192
C9 C 0.21389(12) 0.21127(15) -0.19511(10)
H5 H 0.2027 0.1367 -0.2025
C10 C 0.23696(12) 0.25431(14) -0.11649(10)
C11 C 0.44378(12) 0.15736(14) 0.20273(10)
H6 H 0.5076 0.1679 0.1793
H7 H 0.4312 0.0794 0.2048
C12 C 0.45296(12) 0.20184(14) 0.29094(11)
C13 C 0.48536(13) 0.13593(15) 0.35788(11)
H8 H 0.5011 0.0633 0.3482
C14 C 0.49489(14) 0.17553(16) 0.43898(11)
H9 H 0.5176 0.1297 0.4843
C15 C 0.47203(14) 0.27995(17) 0.45471(12)
H10 H 0.4768 0.3059 0.5106
C16 C 0.44199(16) 0.34704(17) 0.38810(13)
H11 H 0.4275 0.4200 0.3981
C17 C 0.43295(14) 0.30798(15) 0.30655(12)
H12 H 0.4128 0.3547 0.2611
C18 C 0.18919(12) 0.37842(13) 0.14497(10)
H13 H 0.2543 0.4057 0.1704
H14 H 0.1607 0.4322 0.1038
C19 C 0.12140(13) 0.36686(14) 0.21259(11)
C20 C 0.15890(16) 0.36117(14) 0.29705(12)
H15 H 0.2285 0.3653 0.3129
C21 C 0.09459(19) 0.34951(17) 0.35821(14)
H16 H 0.1207 0.3446 0.4155
C22 C -0.00676(19) 0.34512(18) 0.33615(16)
H17 H -0.0502 0.3384 0.3782
C23 C -0.04482(16) 0.35052(17) 0.25292(16)
H18 H -0.1145 0.3469 0.2375
C24 C 0.01913(14) 0.36128(14) 0.19175(13)
H19 H -0.0076 0.3649 0.1345
C25 C 0.22858(12) 0.12743(13) 0.21240(10)
H20 H 0.2750 0.0912 0.2513
C26 C 0.12150(13) 0.10828(13) 0.21478(11)
C27 C -0.00083(13) 0.05537(17) 0.30044(13)
H21 H -0.0376 0.1209 0.2837
H22 H -0.0073 0.0397 0.3593
H23 H -0.0279 -0.0043 0.2654
C28 C 0.31965(13) 0.48437(13) 0.01098(11)
H24 H 0.3751 0.4961 -0.0231
H25 H 0.3487 0.4733 0.0697
C29 C 0.25471(14) 0.58504(14) 0.00669(13)
H26 H 0.2224 0.5944 -0.0506
H27 H 0.2962 0.6476 0.0227
H28 H 0.2040 0.5775 0.0451
C30 C 0.2710(3) 0.0901(3) -0.0283(2)
H29 H 0.3124 0.0782 0.0258
H30 H 0.3094 0.0658 -0.0736
C31 C 0.1764(2) 0.0236(3) -0.0304(2)
H31 H 0.1393 0.0455 0.0156
H32 H 0.1938 -0.0523 -0.0243
H33 H 0.1353 0.0349 -0.0839
C32? C 0.2203(4) 0.0933(4) -0.0258(4)
H34? H 0.1707 0.0711 -0.0727
H35? H 0.1889 0.0880 0.0267
C33? C 0.3099(4) 0.0176(5) -0.0210(4)
H36? H 0.3451 0.0280 -0.0704
H37? H 0.2870 -0.0566 -0.0193
H38? H 0.3550 0.0332 0.0297
loop_
_geom_bond_atom_site_label_1
_geom_bond_atom_site_label_2
_geom_bond_site_symmetry_1
_geom_bond_site_symmetry_2
N1 C1 1_555 1_555
N2 C2 1_555 1_555
N3 C2 1_555 1_555
O1 C26 1_555 1_555
O2 C26 1_555 1_555
S1 C1 1_555 1_555
C1 C2 1_555 1_555
C2 C3 1_555 1_555
C3 H1 1_555 1_555
C4 N1 1_555 1_555
C5 N2 1_555 1_555
C6 C5 1_555 1_555
H2 C6 1_555 1_555
C7 C6 1_555 1_555
H3 C7 1_555 1_555
C8 C7 1_555 1_555
H4 C8 1_555 1_555
C9 C8 1_555 1_555
H5 C9 1_555 1_555
C10 N3 1_555 1_555
C11 N1 1_555 1_555
H6 C11 1_555 1_555
H7 C11 1_555 1_555
C12 C11 1_555 1_555
C13 C12 1_555 1_555
H8 C13 1_555 1_555
C14 C13 1_555 1_555
H9 C14 1_555 1_555
C15 C14 1_555 1_555
H10 C15 1_555 1_555
C16 C15 1_555 1_555
H11 C16 1_555 1_555
C17 C12 1_555 1_555
H12 C17 1_555 1_555
C18 C3 1_555 1_555
H13 C18 1_555 1_555
H14 C18 1_555 1_555
C19 C18 1_555 1_555
C20 C19 1_555 1_555
H15 C20 1_555 1_555
C21 C20 1_555 1_555
H16 C21 1_555 1_555
C22 C21 1_555 1_555
H17 C22 1_555 1_555
C23 C22 1_555 1_555
H18 C23 1_555 1_555
C24 C19 1_555 1_555
H19 C24 1_555 1_555
C25 C4 1_555 1_555
H20 C25 1_555 1_555
C26 C25 1_555 1_555
C27 O2 1_555 1_555
H21 C27 1_555 1_555
H22 C27 1_555 1_555
H23 C27 1_555 1_555
C28 N2 1_555 1_555
H24 C28 1_555 1_555
H25 C28 1_555 1_555
C29 C28 1_555 1_555
H26 C29 1_555 1_555
H27 C29 1_555 1_555
H28 C29 1_555 1_555
C30 N3 1_555 1_555
H29 C30 1_555 1_555
H30 C30 1_555 1_555
C31 C30 1_555 1_555
H31 C31 1_555 1_555
H32 C31 1_555 1_555
H33 C31 1_555 1_555
C3 C4 1_555 1_555
C5 C10 1_555 1_555
C9 C10 1_555 1_555
C16 C17 1_555 1_555
C23 C24 1_555 1_555

#END
