
#######################################################################
#
#                 Cambridge Crystallographic Data Centre
#                                CCDC 
#
#######################################################################
#
# If this CIF has been generated from an entry in the Cambridge 
# Structural Database, then it will include bibliographic, chemical, 
# crystal, experimental, refinement or atomic coordinate data resulting 
# from the CCDC's data processing and validation procedures.
#
#######################################################################

data_WIYCEN
_chemical_formula_moiety         'C38 H39 N3 O2 S1'
_chemical_name_systematic        
"Methyl 1,3-dibenzyl-1'-n-butyl-5'-(2-phenylethyl)-2'-thioxo-spiro(benzimidazoline-2,3'-(2,3-dihydropyrrol-4'-yl))carboxylate"
_symmetry_cell_setting           monoclinic
_symmetry_space_group_name_H-M   'P 21/n'
_symmetry_Int_Tables_number      14
_space_group_name_Hall           '-P 2yn'
loop_
_symmetry_equiv_pos_site_id
_symmetry_equiv_pos_as_xyz
1 x,y,z
2 1/2-x,1/2+y,1/2-z
3 -x,-y,-z
4 1/2+x,1/2-y,1/2+z
_cell_length_a                   10.649(2)
_cell_length_b                   14.602(3)
_cell_length_c                   21.921(5)
_cell_angle_alpha                90
_cell_angle_beta                 98.670(5)
_cell_angle_gamma                90
_cell_volume                     3369.69
_exptl_crystal_colour            green
_chemical_melting_point          '429-430 K'
_cell_formula_units_Z            4
_exptl_crystal_recrystallization_method 'ethyl acetate/n-butane'
loop_
_atom_site_label
_atom_site_type_symbol
_atom_site_fract_x
_atom_site_fract_y
_atom_site_fract_z
S1 S -0.05625(8) 0.71973(5) 0.04648(4)
O1 O 0.48129(17) 0.69788(12) 0.07186(8)
O2 O 0.5217(2) 0.74720(14) 0.16920(10)
N1 N 0.2249(2) 0.76104(13) 0.00735(9)
N2 N 0.2197(2) 0.61509(13) 0.04379(10)
N3 N 0.1136(2) 0.76047(13) 0.14636(11)
C1 C 0.1976(3) 0.70123(17) -0.04280(13)
C2 C 0.1797(3) 0.71902(18) -0.10488(13)
H1 H 0.1838 0.7785 -0.1196
C3 C 0.1550(3) 0.6448(2) -0.14548(13)
H2 H 0.1413 0.6550 -0.1879
C4 C 0.1510(3) 0.5573(2) -0.12302(15)
H3 H 0.1348 0.5089 -0.1507
C5 C 0.1706(3) 0.53894(18) -0.05989(15)
H4 H 0.1674 0.4795 -0.0450
C6 C 0.1948(2) 0.61205(17) -0.02053(13)
C7 C 0.1818(3) 0.54031(17) 0.08133(12)
H5 H 0.0971 0.5203 0.0638
H6 H 0.1777 0.5632 0.1225
C8 C 0.2701(3) 0.45904(18) 0.08602(12)
C9 C 0.3975(3) 0.4689(2) 0.08329(13)
H7 H 0.4295 0.5260 0.0748
C10 C 0.4790(3) 0.3940(2) 0.09321(14)
H8 H 0.5653 0.4012 0.0919
C11 C 0.4316(5) 0.3101(2) 0.10488(15)
H9 H 0.4859 0.2600 0.1114
C12 C 0.3057(5) 0.2991(2) 0.10700(15)
H10 H 0.2743 0.2417 0.1152
C13 C 0.2239(3) 0.3732(2) 0.09692(11)
H11 H 0.1375 0.3651 0.0975
C14 C 0.1858(3) 0.85647(16) 0.00316(12)
H12 H 0.1898 0.8810 0.0445
H13 H 0.0981 0.8598 -0.0167
C15 C 0.2663(3) 0.91545(18) -0.03238(13)
C16 C 0.2168(3) 0.9965(2) -0.05802(15)
H14 H 0.1340 1.0133 -0.0545
C17 C 0.2905(5) 1.0527(2) -0.08889(19)
H15 H 0.2576 1.1079 -0.1052
C18 C 0.4105(5) 1.0280(3) -0.09560(19)
H16 H 0.4587 1.0657 -0.1172
C19 C 0.4606(4) 0.9475(2) -0.07055(16)
H17 H 0.5431 0.9307 -0.0748
C20 C 0.3878(4) 0.8913(2) -0.03884(14)
H18 H 0.4217 0.8367 -0.0218
C21 C 0.2119(3) 0.70993(16) 0.06371(12)
C22 C 0.0838(3) 0.73077(16) 0.08728(13)
C23 C 0.0149(3) 0.78055(19) 0.18467(14)
H19 H -0.0566 0.8096 0.1593
H20 H 0.0485 0.8233 0.2169
C24 C -0.0309(3) 0.6954(2) 0.21399(15)
H21 H 0.0361 0.6728 0.2453
H22 H -0.0496 0.6482 0.1828
C25 C -0.1486(4) 0.7140(3) 0.24312(16)
H23 H -0.1271 0.7565 0.2771
H24 H -0.2118 0.7433 0.2128
C26 C -0.2041(4) 0.6314(3) 0.26603(18)
H25 H -0.2323 0.5912 0.2321
H26 H -0.2749 0.6481 0.2861
H27 H -0.1412 0.6008 0.2950
C27 C 0.2461(3) 0.76199(16) 0.16605(13)
C28 C 0.3005(3) 0.79296(18) 0.22999(12)
H28 H 0.3701 0.7527 0.2460
H29 H 0.2357 0.7869 0.2564
C29 C 0.3491(3) 0.89221(18) 0.23358(13)
H30 H 0.3822 0.9063 0.2762
H31 H 0.4189 0.8970 0.2100
C30 C 0.2503(3) 0.96264(19) 0.21003(15)
C31 C 0.2433(4) 0.9981(2) 0.15136(16)
H32 H 0.3015 0.9788 0.1264
C32 C 0.1534(5) 1.0603(3) 0.1291(2)
H33 H 0.1500 1.0827 0.0892
C33 C 0.0680(5) 1.0900(3) 0.1653(3)
H34 H 0.0074 1.1336 0.1504
C34 C 0.0716(5) 1.0555(3) 0.2239(3)
H35 H 0.0124 1.0748 0.2483
C35 C 0.1631(4) 0.9921(2) 0.24632(16)
H36 H 0.1660 0.9692 0.2861
C36 C 0.3082(3) 0.73494(16) 0.11972(12)
C37 C 0.4458(3) 0.72785(18) 0.12430(15)
C38 C 0.6159(3) 0.6861(2) 0.07194(14)
H37 H 0.6585 0.7434 0.0813
H38 H 0.6304 0.6654 0.0320
H39 H 0.6482 0.6415 0.1025
loop_
_geom_bond_atom_site_label_1
_geom_bond_atom_site_label_2
_geom_bond_site_symmetry_1
_geom_bond_site_symmetry_2
S1 C22 1_555 1_555
O1 C37 1_555 1_555
O2 C37 1_555 1_555
N1 C1 1_555 1_555
N2 C6 1_555 1_555
N3 C22 1_555 1_555
C1 C2 1_555 1_555
C2 H1 1_555 1_555
C3 C2 1_555 1_555
H2 C3 1_555 1_555
C4 C3 1_555 1_555
H3 C4 1_555 1_555
C5 C4 1_555 1_555
H4 C5 1_555 1_555
C6 C1 1_555 1_555
C7 N2 1_555 1_555
H5 C7 1_555 1_555
H6 C7 1_555 1_555
C8 C7 1_555 1_555
C9 C8 1_555 1_555
H7 C9 1_555 1_555
C10 C9 1_555 1_555
H8 C10 1_555 1_555
C11 C10 1_555 1_555
H9 C11 1_555 1_555
C12 C11 1_555 1_555
H10 C12 1_555 1_555
C13 C8 1_555 1_555
H11 C13 1_555 1_555
C14 N1 1_555 1_555
H12 C14 1_555 1_555
H13 C14 1_555 1_555
C15 C14 1_555 1_555
C16 C15 1_555 1_555
H14 C16 1_555 1_555
C17 C16 1_555 1_555
H15 C17 1_555 1_555
C18 C17 1_555 1_555
H16 C18 1_555 1_555
C19 C18 1_555 1_555
H17 C19 1_555 1_555
C20 C15 1_555 1_555
H18 C20 1_555 1_555
C21 N1 1_555 1_555
C22 C21 1_555 1_555
C23 N3 1_555 1_555
H19 C23 1_555 1_555
H20 C23 1_555 1_555
C24 C23 1_555 1_555
H21 C24 1_555 1_555
H22 C24 1_555 1_555
C25 C24 1_555 1_555
H23 C25 1_555 1_555
H24 C25 1_555 1_555
C26 C25 1_555 1_555
H25 C26 1_555 1_555
H26 C26 1_555 1_555
H27 C26 1_555 1_555
C27 N3 1_555 1_555
C28 C27 1_555 1_555
H28 C28 1_555 1_555
H29 C28 1_555 1_555
C29 C28 1_555 1_555
H30 C29 1_555 1_555
H31 C29 1_555 1_555
C30 C29 1_555 1_555
C31 C30 1_555 1_555
H32 C31 1_555 1_555
C32 C31 1_555 1_555
H33 C32 1_555 1_555
C33 C32 1_555 1_555
H34 C33 1_555 1_555
C34 C33 1_555 1_555
H35 C34 1_555 1_555
C35 C30 1_555 1_555
H36 C35 1_555 1_555
C36 C21 1_555 1_555
C37 C36 1_555 1_555
C38 O1 1_555 1_555
H37 C38 1_555 1_555
H38 C38 1_555 1_555
H39 C38 1_555 1_555
N2 C21 1_555 1_555
C5 C6 1_555 1_555
C12 C13 1_555 1_555
C19 C20 1_555 1_555
C27 C36 1_555 1_555
C34 C35 1_555 1_555

#END
