
#######################################################################
#
#                 Cambridge Crystallographic Data Centre
#                                CCDC 
#
#######################################################################
#
# If this CIF has been generated from an entry in the Cambridge 
# Structural Database, then it will include bibliographic, chemical, 
# crystal, experimental, refinement or atomic coordinate data resulting 
# from the CCDC's data processing and validation procedures.
#
#######################################################################

data_WIYDEP
_chemical_formula_moiety         'C30 H44 O8,1.5(C1 H4 O1),0.5(H2 O1)'
_chemical_name_systematic        
'4-[(3S,4aR,6S,6aR,9R,10R,12aR,12bS)-Tetradecahydro-6-hydroxy-10,12b-dimethyl-13-oxo-3-{[(2R,4R,5S,6R)-tetrahydro-5-hydroxy-4-methoxy-6-methyl-2H-pyran-2-yl]oxy}-1H-6a,10-methanocy-cloocta[a]naphthalen-9-yl]furan-2(5H)-one methanol solvate hemihydrate'
_symmetry_cell_setting           monoclinic
_symmetry_space_group_name_H-M   'C 2'
_symmetry_Int_Tables_number      5
_space_group_name_Hall           'C 2y'
loop_
_symmetry_equiv_pos_site_id
_symmetry_equiv_pos_as_xyz
1 x,y,z
2 -x,y,-z
3 1/2+x,1/2+y,z
4 1/2-x,1/2+y,-z
_cell_length_a                   11.9641(3)
_cell_length_b                   8.1765(2)
_cell_length_c                   31.3782(7)
_cell_angle_alpha                90
_cell_angle_beta                 98.8000(10)
_cell_angle_gamma                90
_cell_volume                     3033.42
_exptl_crystal_colour            colorless
_exptl_crystal_description       plate
_cell_formula_units_Z            4
loop_
_atom_site_label
_atom_site_type_symbol
_atom_site_fract_x
_atom_site_fract_y
_atom_site_fract_z
O1 O 0.65675(14) 0.4564(2) 0.83640(5)
O2 O 0.69937(17) -0.1239(2) 0.69350(6)
H1 H 0.7668 -0.1559 0.6963
O3 O 0.90880(15) -0.0169(3) 0.68478(6)
O4 O 0.7956(3) -0.4080(3) 0.55782(9)
O5 O 0.8622(3) -0.1943(3) 0.52477(7)
O6 O 0.49012(15) 0.4340(2) 0.86303(6)
O7 O 0.64953(18) 0.2677(3) 0.98190(6)
O8 O 0.47811(16) 0.4889(3) 0.95502(6)
H2 H 0.5171 0.5545 0.9429
C1 C 0.7909(2) 0.5214(3) 0.76551(8)
H3 H 0.8341 0.5246 0.7951
H4 H 0.8249 0.6032 0.7481
C2 C 0.6688(2) 0.5723(3) 0.76763(8)
H5 H 0.6689 0.6791 0.7825
H6 H 0.6279 0.5862 0.7380
C3 C 0.6073(2) 0.4481(4) 0.79113(8)
H7 H 0.5255 0.4785 0.7881
C4 C 0.6180(2) 0.2788(4) 0.77226(8)
H8 H 0.5774 0.2768 0.7423
H9 H 0.5814 0.1983 0.7892
C5 C 0.74157(19) 0.2277(3) 0.77213(7)
H10 H 0.7803 0.2294 0.8027
C6 C 0.7488(2) 0.0542(3) 0.75555(8)
H11 H 0.7092 -0.0207 0.7731
H12 H 0.8291 0.0204 0.7588
C7 C 0.6961(2) 0.0401(3) 0.70840(8)
H13 H 0.6144 0.0688 0.7070
C8 C 0.74523(19) 0.1620(3) 0.67802(8)
C9 C 0.75618(18) 0.3405(3) 0.69720(8)
H14 H 0.6769 0.3821 0.6949
C10 C 0.80525(18) 0.3501(3) 0.74627(7)
C11 C 0.8148(2) 0.4544(3) 0.66837(8)
H15 H 0.8432 0.5513 0.6856
H16 H 0.7571 0.4934 0.6445
C12 C 0.9139(2) 0.3807(3) 0.64863(8)
H17 H 0.9830 0.3905 0.6703
H18 H 0.9255 0.4493 0.6237
C13 C 0.9047(2) 0.2008(3) 0.63324(8)
C14 C 0.8589(2) 0.1019(3) 0.66780(8)
C15 C 0.6594(2) 0.1603(4) 0.63504(8)
H19 H 0.6366 0.0455 0.6286
H20 H 0.5908 0.2207 0.6401
C16 C 0.6992(2) 0.2326(4) 0.59494(8)
H21 H 0.6961 0.3534 0.5965
H22 H 0.6469 0.1974 0.5690
C17 C 0.8207(2) 0.1798(3) 0.59029(8)
H23 H 0.8469 0.2547 0.5687
C18 C 1.0226(2) 0.1405(4) 0.62703(9)
H24 H 1.0762 0.1610 0.6534
H25 H 1.0473 0.1990 0.6029
H26 H 1.0196 0.0229 0.6209
C19 C 0.93317(19) 0.3138(3) 0.75483(8)
H27 H 0.9744 0.4044 0.7440
H28 H 0.9485 0.2125 0.7401
H29 H 0.9579 0.3014 0.7859
C20 C 0.8244(2) 0.0097(4) 0.57283(8)
C21 C 0.8726(3) -0.0212(4) 0.53204(10)
H30 H 0.8298 0.0400 0.5076
H31 H 0.9530 0.0128 0.5355
C22 C 0.7906(2) -0.1338(4) 0.58663(9)
H32 H 0.7573 -0.1493 0.6119
C23 C 0.8126(3) -0.2632(4) 0.55694(10)
C24 C 0.6001(2) 0.3647(3) 0.86373(8)
H33 H 0.5925 0.2492 0.8532
C25 C 0.6658(2) 0.3677(4) 0.90894(8)
H34 H 0.6746 0.4816 0.9196
H35 H 0.7419 0.3201 0.9091
C26 C 0.5995(2) 0.2672(4) 0.93768(8)
H36 H 0.5952 0.1516 0.9271
C27 C 0.4796(2) 0.3328(3) 0.93541(8)
H37 H 0.4360 0.2553 0.9512
C28 C 0.4233(2) 0.3381(4) 0.88826(9)
H38 H 0.4174 0.2240 0.8767
C29 C 0.3058(2) 0.4134(5) 0.88231(10)
H39 H 0.3110 0.5276 0.8918
H40 H 0.2580 0.3524 0.8995
H41 H 0.2725 0.4086 0.8518
C30 C 0.7513(3) 0.1761(5) 0.99033(9)
H42 H 0.7366 0.0628 0.9809
H43 H 0.7797 0.1781 1.0213
H44 H 0.8079 0.2243 0.9746
C31 C 0.4925(3) 0.8363(4) 0.88314(10)
H45 H 0.4166 0.8829 0.8817
H46 H 0.4894 0.7413 0.8639
H47 H 0.5435 0.9187 0.8741
O9 O 0.5332(3) 0.7866(4) 0.92627(8)
H48 H 0.4804 0.7856 0.9401
O10 O 0.5000 -0.0429(5) 1.0000
H49 H 0.4633 0.0454 1.0015
H49A H 0.5367 0.0454 0.9985
loop_
_geom_bond_atom_site_label_1
_geom_bond_atom_site_label_2
_geom_bond_site_symmetry_1
_geom_bond_site_symmetry_2
O1 C3 1_555 1_555
O2 H1 1_555 1_555
O3 C14 1_555 1_555
O4 C23 1_555 1_555
O5 C21 1_555 1_555
O6 C24 1_555 1_555
O7 C26 1_555 1_555
O8 H2 1_555 1_555
C1 H3 1_555 1_555
H4 C1 1_555 1_555
C2 C1 1_555 1_555
H5 C2 1_555 1_555
H6 C2 1_555 1_555
C3 C2 1_555 1_555
H7 C3 1_555 1_555
C4 C3 1_555 1_555
H8 C4 1_555 1_555
H9 C4 1_555 1_555
C5 C4 1_555 1_555
H10 C5 1_555 1_555
C6 C5 1_555 1_555
H11 C6 1_555 1_555
H12 C6 1_555 1_555
C7 O2 1_555 1_555
H13 C7 1_555 1_555
C8 C7 1_555 1_555
C9 C8 1_555 1_555
H14 C9 1_555 1_555
C10 C1 1_555 1_555
C11 C9 1_555 1_555
H15 C11 1_555 1_555
H16 C11 1_555 1_555
C12 C11 1_555 1_555
H17 C12 1_555 1_555
H18 C12 1_555 1_555
C13 C12 1_555 1_555
C14 C8 1_555 1_555
C15 C8 1_555 1_555
H19 C15 1_555 1_555
H20 C15 1_555 1_555
C16 C15 1_555 1_555
H21 C16 1_555 1_555
H22 C16 1_555 1_555
C17 C13 1_555 1_555
H23 C17 1_555 1_555
C18 C13 1_555 1_555
H24 C18 1_555 1_555
H25 C18 1_555 1_555
H26 C18 1_555 1_555
C19 C10 1_555 1_555
H27 C19 1_555 1_555
H28 C19 1_555 1_555
H29 C19 1_555 1_555
C20 C17 1_555 1_555
C21 C20 1_555 1_555
H30 C21 1_555 1_555
H31 C21 1_555 1_555
C22 C20 1_555 1_555
H32 C22 1_555 1_555
C23 O5 1_555 1_555
C24 O1 1_555 1_555
H33 C24 1_555 1_555
C25 C24 1_555 1_555
H34 C25 1_555 1_555
H35 C25 1_555 1_555
C26 C25 1_555 1_555
H36 C26 1_555 1_555
C27 O8 1_555 1_555
H37 C27 1_555 1_555
C28 O6 1_555 1_555
H38 C28 1_555 1_555
C29 C28 1_555 1_555
H39 C29 1_555 1_555
H40 C29 1_555 1_555
H41 C29 1_555 1_555
C30 O7 1_555 1_555
H42 C30 1_555 1_555
H43 C30 1_555 1_555
H44 C30 1_555 1_555
C31 H45 1_555 1_555
H46 C31 1_555 1_555
H47 C31 1_555 1_555
O9 C31 1_555 1_555
H48 O9 1_555 1_555
O10 H49 1_555 1_555
H49A O10 1_555 1_555
C5 C10 1_555 1_555
C6 C7 1_555 1_555
C9 C10 1_555 1_555
C13 C14 1_555 1_555
C16 C17 1_555 1_555
C22 C23 1_555 1_555
C26 C27 1_555 1_555
C27 C28 1_555 1_555

#END
