
#######################################################################
#
#                 Cambridge Crystallographic Data Centre
#                                CCDC 
#
#######################################################################
#
# If this CIF has been generated from an entry in the Cambridge 
# Structural Database, then it will include bibliographic, chemical, 
# crystal, experimental, refinement or atomic coordinate data resulting 
# from the CCDC's data processing and validation procedures.
#
#######################################################################

data_WIYFOB
_chemical_formula_moiety         'C24 H20 N2 O2'
_chemical_name_systematic        
1,2,3,4-Tetrahydro-2,3'-bipyridine-5,5'-diylbis(phenylmethanone)
_symmetry_cell_setting           orthorhombic
_symmetry_space_group_name_H-M   'P 21 21 21'
_symmetry_Int_Tables_number      19
_space_group_name_Hall           'P 2ac 2ab'
loop_
_symmetry_equiv_pos_site_id
_symmetry_equiv_pos_as_xyz
1 x,y,z
2 1/2-x,-y,1/2+z
3 -x,1/2+y,1/2-z
4 1/2+x,1/2-y,-z
_cell_length_a                   9.444(3)
_cell_length_b                   13.119(4)
_cell_length_c                   15.736(4)
_cell_angle_alpha                90
_cell_angle_beta                 90
_cell_angle_gamma                90
_cell_volume                     1949.62
_exptl_crystal_colour            colorless
_exptl_crystal_description       prismatic
_cell_formula_units_Z            4
loop_
_atom_site_label
_atom_site_type_symbol
_atom_site_fract_x
_atom_site_fract_y
_atom_site_fract_z
N1 N 0.84336(15) 1.03347(10) 0.82125(7)
N2 N 1.08031(19) 0.71147(11) 0.78170(9)
O1 O 0.72504(18) 0.99898(9) 1.10894(7)
O2 O 1.39614(13) 0.81106(11) 0.94217(12)
C1 C 0.81422(17) 1.07022(12) 0.89818(9)
H1 H 0.8307 1.1392 0.9077
C2 C 0.76216(16) 1.01416(12) 0.96367(9)
C3 C 0.72630(17) 0.90465(12) 0.94861(9)
H2 H 0.6428 0.8865 0.9811
H3 H 0.8040 0.8619 0.9675
C4 C 0.69875(17) 0.88654(14) 0.85440(10)
H4 H 0.6869 0.8141 0.8442
H5 H 0.6119 0.9207 0.8378
C5 C 0.82103(18) 0.92659(11) 0.80107(9)
H6 H 0.7950 0.9212 0.7410
C6 C 0.95227(17) 0.86314(11) 0.81606(8)
C7 C 0.9724(2) 0.77505(13) 0.77019(10)
H7 H 0.9064 0.7590 0.7285
C8 C 1.1737(2) 0.73453(13) 0.84175(11)
H8 H 1.2494 0.6904 0.8506
C9 C 1.16388(17) 0.82141(11) 0.89206(10)
C10 C 1.05135(17) 0.88601(11) 0.87749(9)
H9 H 1.0422 0.9454 0.9093
C11 C 0.75063(17) 1.05431(12) 1.04769(9)
C12 C 0.77108(19) 1.16590(12) 1.06416(10)
C13 C 0.6854(2) 1.23779(15) 1.02674(12)
H10 H 0.6164 1.2174 0.9881
C14 C 0.7005(3) 1.33935(17) 1.04579(15)
H11 H 0.6419 1.3873 1.0202
C15 C 0.8003(4) 1.36951(17) 1.10144(16)
H12 H 0.8110 1.4385 1.1135
C16 C 0.8858(3) 1.29987(17) 1.14026(14)
H13 H 0.9538 1.3214 1.1791
C17 C 0.8713(2) 1.19718(14) 1.12191(11)
H14 H 0.9292 1.1495 1.1486
C18 C 1.27659(18) 0.84093(12) 0.95626(12)
C19 C 1.24343(18) 0.89592(13) 1.03620(12)
C20 C 1.1112(2) 0.89444(14) 1.07317(11)
H15 H 1.0384 0.8579 1.0476
C21 C 1.0853(3) 0.94683(18) 1.14810(12)
H16 H 0.9960 0.9453 1.1729
C22 C 1.1929(3) 1.0007(2) 1.18495(15)
H17 H 1.1759 1.0371 1.2346
C23 C 1.3241(3) 1.0018(2) 1.14994(18)
H18 H 1.3963 1.0384 1.1761
C24 C 1.3513(2) 0.94945(17) 1.07620(15)
H19 H 1.4419 0.9498 1.0531
H20 H 0.875(2) 1.0758(13) 0.7815(10)
loop_
_geom_bond_atom_site_label_1
_geom_bond_atom_site_label_2
_geom_bond_site_symmetry_1
_geom_bond_site_symmetry_2
N1 C1 1_555 1_555
N2 C7 1_555 1_555
O1 C11 1_555 1_555
O2 C18 1_555 1_555
C1 H1 1_555 1_555
C2 C1 1_555 1_555
C3 C2 1_555 1_555
H2 C3 1_555 1_555
H3 C3 1_555 1_555
C4 C3 1_555 1_555
H4 C4 1_555 1_555
H5 C4 1_555 1_555
C5 N1 1_555 1_555
H6 C5 1_555 1_555
C6 C5 1_555 1_555
C7 C6 1_555 1_555
H7 C7 1_555 1_555
C8 N2 1_555 1_555
H8 C8 1_555 1_555
C9 C8 1_555 1_555
C10 C6 1_555 1_555
H9 C10 1_555 1_555
C11 C2 1_555 1_555
C12 C11 1_555 1_555
C13 C12 1_555 1_555
H10 C13 1_555 1_555
C14 C13 1_555 1_555
H11 C14 1_555 1_555
C15 C14 1_555 1_555
H12 C15 1_555 1_555
C16 C15 1_555 1_555
H13 C16 1_555 1_555
C17 C12 1_555 1_555
H14 C17 1_555 1_555
C18 C9 1_555 1_555
C19 C18 1_555 1_555
C20 C19 1_555 1_555
H15 C20 1_555 1_555
C21 C20 1_555 1_555
H16 C21 1_555 1_555
C22 C21 1_555 1_555
H17 C22 1_555 1_555
C23 C22 1_555 1_555
H18 C23 1_555 1_555
C24 C19 1_555 1_555
H19 C24 1_555 1_555
H20 N1 1_555 1_555
C4 C5 1_555 1_555
C9 C10 1_555 1_555
C16 C17 1_555 1_555
C23 C24 1_555 1_555

#END
