
#######################################################################
#
#                 Cambridge Crystallographic Data Centre
#                                CCDC 
#
#######################################################################
#
# If this CIF has been generated from an entry in the Cambridge 
# Structural Database, then it will include bibliographic, chemical, 
# crystal, experimental, refinement or atomic coordinate data resulting 
# from the CCDC's data processing and validation procedures.
#
#######################################################################

data_WIYGUI
_chemical_formula_moiety         'C19 H19 N1 O2'
_chemical_name_systematic        
1-(1-(2-Furylmethyl)-2,5-dimethyl-4-phenyl-1H-pyrrol-3-yl)ethanone
_symmetry_cell_setting           monoclinic
_symmetry_space_group_name_H-M   'P 21/c'
_symmetry_Int_Tables_number      14
_space_group_name_Hall           '-P 2ybc'
loop_
_symmetry_equiv_pos_site_id
_symmetry_equiv_pos_as_xyz
1 x,y,z
2 -x,1/2+y,1/2-z
3 -x,-y,-z
4 x,1/2-y,1/2+z
_cell_length_a                   9.4209(6)
_cell_length_b                   18.6410(12)
_cell_length_c                   9.7949(6)
_cell_angle_alpha                90
_cell_angle_beta                 112.6340(10)
_cell_angle_gamma                90
_cell_volume                     1587.65
_exptl_crystal_colour            colorless
_exptl_crystal_description       block
_cell_formula_units_Z            4
loop_
_atom_site_label
_atom_site_type_symbol
_atom_site_fract_x
_atom_site_fract_y
_atom_site_fract_z
N1 N 0.63062(14) 0.06184(7) 0.42113(14)
C1 C 0.64826(16) 0.03668(8) 0.29550(16)
C2 C 0.73064(16) -0.02582(8) 0.33240(16)
C3 C 0.76405(16) -0.03931(8) 0.48658(16)
C4 C 0.69996(16) 0.01626(8) 0.53754(17)
C5 C 0.5788(2) 0.07421(10) 0.15061(19)
H1 H 0.6026 0.0483 0.0773
H2 H 0.6199 0.1219 0.1597
H3 H 0.4693 0.0766 0.1214
C6 C 0.7084(2) 0.03230(10) 0.68965(19)
H4 H 0.6065 0.0395 0.6870
H5 H 0.7683 0.0749 0.7259
H6 H 0.7557 -0.0072 0.7539
C7 C 0.86333(18) -0.09504(8) 0.58180(17)
C8 C 0.9903(2) -0.12553(10) 0.5437(2)
H7 H 1.0765 -0.1368 0.6330
H8 H 1.0209 -0.0910 0.4876
H9 H 0.9550 -0.1683 0.4861
C9 C 0.76360(16) -0.07322(8) 0.22674(16)
C10 C 0.7123(2) -0.14326(10) 0.2060(2)
H10 H 0.6567 -0.1607 0.2594
C11 C 0.7418(3) -0.18807(11) 0.1072(2)
H11 H 0.7076 -0.2353 0.0961
C12 C 0.8217(2) -0.16283(12) 0.0258(2)
H12 H 0.8404 -0.1926 -0.0416
C13 C 0.8734(2) -0.09369(12) 0.0446(2)
H13 H 0.9278 -0.0765 -0.0101
C14 C 0.84572(19) -0.04885(10) 0.14434(18)
H14 H 0.8824 -0.0020 0.1564
C15 C 0.55009(19) 0.12831(9) 0.4273(2)
H15 H 0.5117 0.1243 0.5058
H16 H 0.4622 0.1340 0.3348
C16 C 0.64825(19) 0.19304(9) 0.4536(2)
C17 C 0.6511(2) 0.24830(11) 0.3681(3)
H17 H 0.5855 0.2556 0.2701
C18 C 0.7728(3) 0.29361(12) 0.4547(4)
H18 H 0.8016 0.3368 0.4252
C19 C 0.8369(3) 0.26322(13) 0.5842(3)
H19 H 0.9206 0.2817 0.6626
O1 O 0.84848(18) -0.11536(8) 0.69428(15)
O2 O 0.76319(17) 0.19985(8) 0.58862(15)
loop_
_geom_bond_atom_site_label_1
_geom_bond_atom_site_label_2
_geom_bond_site_symmetry_1
_geom_bond_site_symmetry_2
N1 C1 1_555 1_555
C1 C2 1_555 1_555
C2 C3 1_555 1_555
C3 C4 1_555 1_555
C4 N1 1_555 1_555
C5 C1 1_555 1_555
H1 C5 1_555 1_555
H2 C5 1_555 1_555
H3 C5 1_555 1_555
C6 C4 1_555 1_555
H4 C6 1_555 1_555
H5 C6 1_555 1_555
H6 C6 1_555 1_555
C7 C3 1_555 1_555
C8 C7 1_555 1_555
H7 C8 1_555 1_555
H8 C8 1_555 1_555
H9 C8 1_555 1_555
C9 C2 1_555 1_555
C10 C9 1_555 1_555
H10 C10 1_555 1_555
C11 C10 1_555 1_555
H11 C11 1_555 1_555
C12 C11 1_555 1_555
H12 C12 1_555 1_555
C13 C12 1_555 1_555
H13 C13 1_555 1_555
C14 C9 1_555 1_555
H14 C14 1_555 1_555
C15 N1 1_555 1_555
H15 C15 1_555 1_555
H16 C15 1_555 1_555
C16 C15 1_555 1_555
C17 C16 1_555 1_555
H17 C17 1_555 1_555
C18 C17 1_555 1_555
H18 C18 1_555 1_555
C19 C18 1_555 1_555
H19 C19 1_555 1_555
O1 C7 1_555 1_555
O2 C16 1_555 1_555
C13 C14 1_555 1_555
C19 O2 1_555 1_555

#END
