
#######################################################################
#
#                 Cambridge Crystallographic Data Centre
#                                CCDC 
#
#######################################################################
#
# If this CIF has been generated from an entry in the Cambridge 
# Structural Database, then it will include bibliographic, chemical, 
# crystal, experimental, refinement or atomic coordinate data resulting 
# from the CCDC's data processing and validation procedures.
#
#######################################################################

data_WIYPAW
_chemical_formula_moiety         'C16 H15 N1 O1'
_chemical_name_systematic        
2-phenyl-3,3a,8,8a-tetrahydro-2H-indeno[1,2-d][1,3]oxazole
_symmetry_cell_setting           monoclinic
_symmetry_space_group_name_H-M   'C 2'
_symmetry_Int_Tables_number      5
_space_group_name_Hall           'C 2y'
loop_
_symmetry_equiv_pos_site_id
_symmetry_equiv_pos_as_xyz
1 x,y,z
2 -x,y,-z
3 1/2+x,1/2+y,z
4 1/2-x,1/2+y,-z
_cell_length_a                   19.246(6)
_cell_length_b                   5.8447(16)
_cell_length_c                   14.509(5)
_cell_angle_alpha                90
_cell_angle_beta                 129.844(4)
_cell_angle_gamma                90
_cell_volume                     1253.09
_exptl_crystal_colour            colorless
_exptl_crystal_description       block
_chemical_melting_point          '69-70 deg.C'
_cell_formula_units_Z            4
_exptl_crystal_recrystallization_method 'isopropanol/petroleum ether'
loop_
_atom_site_label
_atom_site_type_symbol
_atom_site_fract_x
_atom_site_fract_y
_atom_site_fract_z
O1 O 0.37312(10) -0.1383(3) -0.03384(12)
N1 N 0.33282(10) 0.1086(3) 0.04937(14)
H1 H 0.2761(15) 0.045(5) 0.009(2)
C1 C 0.35168(12) 0.0953(3) -0.03231(16)
H2 H 0.4054 0.1907 -0.0003
C2 C 0.41495(14) -0.2351(4) 0.08139(18)
H3 H 0.3870 -0.3838 0.0736
C3 C 0.39825(13) -0.0562(4) 0.14422(17)
H4 H 0.3743 -0.1289 0.1804
C4 C 0.51755(14) -0.2597(4) 0.15645(18)
H5 H 0.5386 -0.4073 0.1981
H6 H 0.5345 -0.2471 0.1057
C5 C 0.55668(12) -0.0661(4) 0.24445(15)
C6 C 0.64563(13) 0.0088(4) 0.32425(17)
H7 H 0.6905 -0.0643 0.3271
C7 C 0.66799(14) 0.1896(5) 0.39887(18)
H8 H 0.7285 0.2382 0.4539
C8 C 0.60316(16) 0.2998(5) 0.39405(18)
H9 H 0.6194 0.4235 0.4458
C9 C 0.51317(14) 0.2302(5) 0.31309(17)
H10 H 0.4685 0.3074 0.3091
C10 C 0.49052(12) 0.0468(4) 0.23887(16)
C11 C 0.27486(12) 0.1727(3) -0.15803(17)
C12 C 0.20029(12) 0.0322(4) -0.23457(16)
H11 H 0.1972 -0.1102 -0.2073
C13 C 0.13038(13) 0.1014(4) -0.35121(18)
H12 H 0.0804 0.0045 -0.4029
C14 C 0.13337(15) 0.3103(4) -0.39214(19)
H13 H 0.0858 0.3564 -0.4713
C15 C 0.20635(16) 0.4503(5) -0.31637(19)
H14 H 0.2086 0.5937 -0.3437
C16 C 0.27705(15) 0.3825(4) -0.19966(18)
H15 H 0.3268 0.4803 -0.1485
loop_
_geom_bond_atom_site_label_1
_geom_bond_atom_site_label_2
_geom_bond_site_symmetry_1
_geom_bond_site_symmetry_2
O1 C1 1_555 1_555
N1 H1 1_555 1_555
C1 N1 1_555 1_555
H2 C1 1_555 1_555
C2 O1 1_555 1_555
H3 C2 1_555 1_555
C3 N1 1_555 1_555
H4 C3 1_555 1_555
C4 C2 1_555 1_555
H5 C4 1_555 1_555
H6 C4 1_555 1_555
C5 C4 1_555 1_555
C6 C5 1_555 1_555
H7 C6 1_555 1_555
C7 C6 1_555 1_555
H8 C7 1_555 1_555
C8 C7 1_555 1_555
H9 C8 1_555 1_555
C9 C8 1_555 1_555
H10 C9 1_555 1_555
C10 C3 1_555 1_555
C11 C1 1_555 1_555
C12 C11 1_555 1_555
H11 C12 1_555 1_555
C13 C12 1_555 1_555
H12 C13 1_555 1_555
C14 C13 1_555 1_555
H13 C14 1_555 1_555
C15 C14 1_555 1_555
H14 C15 1_555 1_555
C16 C11 1_555 1_555
H15 C16 1_555 1_555
C2 C3 1_555 1_555
C5 C10 1_555 1_555
C9 C10 1_555 1_555
C15 C16 1_555 1_555

#END
