
#######################################################################
#
#                 Cambridge Crystallographic Data Centre
#                                CCDC 
#
#######################################################################
#
# If this CIF has been generated from an entry in the Cambridge 
# Structural Database, then it will include bibliographic, chemical, 
# crystal, experimental, refinement or atomic coordinate data resulting 
# from the CCDC's data processing and validation procedures.
#
#######################################################################

data_WIYSEE
_chemical_formula_moiety         'C26 H23 Cl1 N2 O2'
_chemical_name_systematic        
'Ethyl 4-(2-chlorophenyl)-5-(2,4-dimethylphenyl)-1-phenyl-1H-pyrazole-3-carboxylate'
_symmetry_cell_setting           triclinic
_symmetry_space_group_name_H-M   'P -1'
_symmetry_Int_Tables_number      2
_space_group_name_Hall           '-P 1'
loop_
_symmetry_equiv_pos_site_id
_symmetry_equiv_pos_as_xyz
1 x,y,z
2 -x,-y,-z
_cell_length_a                   9.1400(13)
_cell_length_b                   11.5229(19)
_cell_length_c                   12.485(2)
_cell_angle_alpha                103.136(2)
_cell_angle_beta                 107.8620(10)
_cell_angle_gamma                104.3140(10)
_cell_volume                     1145.32
_exptl_crystal_colour            colorless
_exptl_crystal_description       Block
_cell_formula_units_Z            2
loop_
_atom_site_label
_atom_site_type_symbol
_atom_site_fract_x
_atom_site_fract_y
_atom_site_fract_z
Cl1 Cl 0.16872(17) 0.80970(14) 0.22436(12)
N1 N 0.6889(3) 1.0573(2) 0.3076(2)
N2 N 0.6886(3) 0.9376(2) 0.2724(2)
C1 C 0.9171(4) 1.1266(4) 0.4966(3)
H1 H 0.8760 1.0486 0.5054
C2 C 1.0608(5) 1.2161(5) 0.5822(4)
H2 H 1.1162 1.1987 0.6494
C3 C 1.1225(5) 1.3307(4) 0.5686(4)
H3 H 1.2193 1.3910 0.6267
C4 C 1.0415(5) 1.3564(4) 0.4693(4)
H4 H 1.0840 1.4340 0.4603
C5 C 0.8965(4) 1.2673(3) 0.3824(4)
H5 H 0.8421 1.2844 0.3148
C6 C 0.8345(4) 1.1533(3) 0.3976(3)
C7 C 0.5436(4) 1.0687(3) 0.2465(3)
C8 C 0.4445(4) 0.9501(3) 0.1672(3)
C9 C 0.5412(4) 0.8722(3) 0.1886(3)
C10 C 0.5038(4) 1.1865(3) 0.2698(3)
C11 C 0.4537(4) 1.2233(3) 0.3638(3)
C12 C 0.4063(5) 1.3310(3) 0.3750(3)
H6 H 0.3739 1.3569 0.4374
C13 C 0.4053(4) 1.3996(3) 0.2992(3)
C14 C 0.4615(4) 1.3637(3) 0.2100(3)
H7 H 0.4688 1.4118 0.1600
C15 C 0.5068(4) 1.2576(3) 0.1946(3)
H8 H 0.5400 1.2332 0.1323
C16 C 0.4521(7) 1.1516(4) 0.4496(4)
H9 H 0.4875 1.0811 0.4279
H10 H 0.3431 1.1210 0.4473
H11 H 0.5245 1.2066 0.5287
C17 C 0.3454(6) 1.5104(4) 0.3107(4)
H12 H 0.3552 1.5469 0.2502
H13 H 0.4098 1.5730 0.3879
H14 H 0.2328 1.4821 0.3013
C18 C 0.2762(4) 0.9154(3) 0.0789(3)
C19 C 0.1418(5) 0.8503(4) 0.0964(4)
C20 C -0.0168(5) 0.8169(4) 0.0121(5)
H15 H -0.1065 0.7735 0.0251
C21 C -0.0386(5) 0.8482(4) -0.0883(5)
H16 H -0.1439 0.8249 -0.1447
C22 C 0.0911(5) 0.9132(4) -0.1084(4)
H17 H 0.0711 0.9360 -0.1769
C23 C 0.2523(4) 0.9467(3) -0.0303(3)
H18 H 0.3400 0.9869 -0.0470
C24 C 0.4972(4) 0.7345(3) 0.1297(3)
C25 C 0.2825(5) 0.5527(3) -0.0222(4)
H19 H 0.2580 0.5076 0.0305
H20 H 0.3581 0.5228 -0.0511
C26 C 0.1331(6) 0.5308(4) -0.1216(4)
H21 H 0.0828 0.4417 -0.1654
H22 H 0.1588 0.5758 -0.1730
H23 H 0.0591 0.5604 -0.0919
O1 O 0.5790(4) 0.6728(3) 0.1583(3)
O2 O 0.3540(3) 0.6883(2) 0.0410(2)
loop_
_geom_bond_atom_site_label_1
_geom_bond_atom_site_label_2
_geom_bond_site_symmetry_1
_geom_bond_site_symmetry_2
Cl1 C19 1_555 1_555
N1 N2 1_555 1_555
N2 C9 1_555 1_555
C1 H1 1_555 1_555
C2 C1 1_555 1_555
H2 C2 1_555 1_555
C3 C2 1_555 1_555
H3 C3 1_555 1_555
C4 C3 1_555 1_555
H4 C4 1_555 1_555
C5 C4 1_555 1_555
H5 C5 1_555 1_555
C6 N1 1_555 1_555
C7 N1 1_555 1_555
C8 C7 1_555 1_555
C9 C8 1_555 1_555
C10 C7 1_555 1_555
C11 C10 1_555 1_555
C12 C11 1_555 1_555
H6 C12 1_555 1_555
C13 C12 1_555 1_555
C14 C13 1_555 1_555
H7 C14 1_555 1_555
C15 C10 1_555 1_555
H8 C15 1_555 1_555
C16 C11 1_555 1_555
H9 C16 1_555 1_555
H10 C16 1_555 1_555
H11 C16 1_555 1_555
C17 C13 1_555 1_555
H12 C17 1_555 1_555
H13 C17 1_555 1_555
H14 C17 1_555 1_555
C18 C8 1_555 1_555
C19 C18 1_555 1_555
C20 C19 1_555 1_555
H15 C20 1_555 1_555
C21 C20 1_555 1_555
H16 C21 1_555 1_555
C22 C21 1_555 1_555
H17 C22 1_555 1_555
C23 C18 1_555 1_555
H18 C23 1_555 1_555
C24 C9 1_555 1_555
C25 H19 1_555 1_555
H20 C25 1_555 1_555
C26 C25 1_555 1_555
H21 C26 1_555 1_555
H22 C26 1_555 1_555
H23 C26 1_555 1_555
O1 C24 1_555 1_555
O2 C24 1_555 1_555
C1 C6 1_555 1_555
C5 C6 1_555 1_555
C14 C15 1_555 1_555
C22 C23 1_555 1_555
C25 O2 1_555 1_555

#END
