
#######################################################################
#
#                 Cambridge Crystallographic Data Centre
#                                CCDC 
#
#######################################################################
#
# If this CIF has been generated from an entry in the Cambridge 
# Structural Database, then it will include bibliographic, chemical, 
# crystal, experimental, refinement or atomic coordinate data resulting 
# from the CCDC's data processing and validation procedures.
#
#######################################################################

data_WIYTEE
_chemical_name_common            'lycoxonine chloroform solvate'
_chemical_formula_moiety         'C24 H37 N1 O8,C1 H1 Cl3'
_chemical_name_systematic        
'N-ethyl-4,7,8-trihydroxy-1\a,6\b,14\a,16\b-tetramethoxy-19-oxoaconitane chloroform solvate'
_symmetry_cell_setting           orthorhombic
_symmetry_space_group_name_H-M   'P 21 21 21'
_symmetry_Int_Tables_number      19
_space_group_name_Hall           'P 2ac 2ab'
loop_
_symmetry_equiv_pos_site_id
_symmetry_equiv_pos_as_xyz
1 x,y,z
2 1/2-x,-y,1/2+z
3 1/2+x,1/2-y,-z
4 -x,1/2+y,1/2-z
_cell_length_a                   9.273(2)
_cell_length_b                   16.111(4)
_cell_length_c                   18.218(5)
_cell_angle_alpha                90
_cell_angle_beta                 90
_cell_angle_gamma                90
_cell_volume                     2721.72
_exptl_crystal_colour            colorless
_exptl_crystal_description       block
_chemical_melting_point          '88-91 deg.C'
_cell_formula_units_Z            4
loop_
_atom_site_label
_atom_site_type_symbol
_atom_site_fract_x
_atom_site_fract_y
_atom_site_fract_z
Cl1 Cl 0.03257(12) 0.49904(6) 0.09309(6)
Cl2 Cl 0.17109(12) 0.45382(7) 0.22902(6)
Cl3 Cl 0.16307(12) 0.33744(7) 0.10823(5)
C25 C 0.0692(4) 0.4169(2) 0.15406(19)
H38 H -0.0241 0.3942 0.1728
O1 O 0.3046(2) 0.11693(14) 0.26798(13)
O2 O 0.3808(3) 0.34862(15) 0.47821(12)
H1 H 0.3434 0.3328 0.5178
O3 O 0.6581(3) 0.40581(13) 0.35412(12)
O4 O 0.7882(2) 0.21907(13) 0.38327(11)
H2 H 0.8245 0.2572 0.4087
O5 O 0.8600(2) 0.33226(15) 0.27261(12)
H3 H 0.8330 0.3692 0.3021
O6 O 0.7938(3) 0.32768(15) 0.10694(12)
O7 O 0.8526(3) 0.12365(17) 0.11706(14)
O8 O 0.3894(3) 0.17586(15) 0.51176(12)
N1 N 0.5098(3) 0.16023(16) 0.40459(13)
C1 C 0.2808(3) 0.2008(2) 0.29057(17)
H4 H 0.2282 0.2295 0.2499
C2 C 0.1802(4) 0.1995(2) 0.35763(19)
H5 H 0.0789 0.1976 0.3404
H6 H 0.1986 0.1483 0.3862
C3 C 0.1991(3) 0.2740(2) 0.40764(19)
H7 H 0.1467 0.2648 0.4543
H8 H 0.1587 0.3242 0.3839
C4 C 0.3595(3) 0.2868(2) 0.42314(17)
C5 C 0.4378(3) 0.3153(2) 0.35427(16)
H9 H 0.3952 0.3674 0.3339
C6 C 0.6007(3) 0.32644(19) 0.37382(16)
H10 H 0.6108 0.3201 0.4282
C7 C 0.6780(3) 0.25269(18) 0.33734(15)
C8 C 0.7443(3) 0.27398(19) 0.26110(15)
C9 C 0.6269(3) 0.31336(19) 0.21186(15)
H11 H 0.6193 0.3742 0.2218
C10 C 0.4773(3) 0.27146(19) 0.21935(15)
H12 H 0.4039 0.3129 0.2029
C11 C 0.4323(3) 0.24246(19) 0.29752(16)
C12 C 0.4796(4) 0.2001(2) 0.16051(16)
H13 H 0.4666 0.1454 0.1844
H14 H 0.4013 0.2081 0.1242
C13 C 0.6279(4) 0.2051(2) 0.12285(16)
H15 H 0.6214 0.1881 0.0702
C14 C 0.6570(4) 0.2978(2) 0.12986(16)
H16 H 0.5817 0.3278 0.1009
C15 C 0.8188(3) 0.19968(19) 0.22550(16)
H17 H 0.8416 0.1594 0.2649
H18 H 0.9119 0.2193 0.2053
C16 C 0.7404(3) 0.1524(2) 0.16437(17)
H19 H 0.6908 0.1033 0.1864
C17 C 0.5521(3) 0.18964(17) 0.33079(15)
H20 H 0.5781 0.1423 0.2979
C18 C 0.4215(3) 0.2027(2) 0.45012(16)
C19 C 0.5681(4) 0.07961(19) 0.42802(18)
H21 H 0.5752 0.0789 0.4822
H22 H 0.6666 0.0732 0.4080
C20 C 0.4774(5) 0.0072(2) 0.4035(3)
H23 H 0.5215 -0.0446 0.4205
H24 H 0.4714 0.0068 0.3498
H25 H 0.3803 0.0124 0.4242
C21 C 0.1794(4) 0.0789(3) 0.2373(2)
H26 H 0.2022 0.0218 0.2229
H27 H 0.1482 0.1103 0.1941
H28 H 0.1019 0.0785 0.2739
C22 C 0.6359(5) 0.4663(2) 0.4108(2)
H29 H 0.6762 0.5197 0.3952
H30 H 0.6840 0.4481 0.4559
H31 H 0.5323 0.4726 0.4200
C23 C 0.8146(5) 0.3173(3) 0.02994(18)
H32 H 0.9102 0.3382 0.0162
H33 H 0.7404 0.3482 0.0032
H34 H 0.8077 0.2582 0.0175
C24 C 0.8150(7) 0.0509(3) 0.0776(3)
H35 H 0.8958 0.0343 0.0462
H36 H 0.7301 0.0621 0.0471
H37 H 0.7931 0.0061 0.1122
loop_
_geom_bond_atom_site_label_1
_geom_bond_atom_site_label_2
_geom_bond_site_symmetry_1
_geom_bond_site_symmetry_2
Cl1 C25 1_555 1_555
Cl2 C25 1_555 1_555
Cl3 C25 1_555 1_555
O1 C1 1_555 1_555
O2 H1 1_555 1_555
O3 C6 1_555 1_555
O4 H2 1_555 1_555
O5 H3 1_555 1_555
O6 C14 1_555 1_555
O7 C16 1_555 1_555
O8 C18 1_555 1_555
N1 C17 1_555 1_555
C1 H4 1_555 1_555
C2 C1 1_555 1_555
H5 C2 1_555 1_555
H6 C2 1_555 1_555
C3 C2 1_555 1_555
H7 C3 1_555 1_555
H8 C3 1_555 1_555
C4 O2 1_555 1_555
C5 C4 1_555 1_555
H9 C5 1_555 1_555
C6 C5 1_555 1_555
H10 C6 1_555 1_555
C7 O4 1_555 1_555
C8 O5 1_555 1_555
C9 C8 1_555 1_555
H11 C9 1_555 1_555
C10 C9 1_555 1_555
H12 C10 1_555 1_555
C11 C1 1_555 1_555
C12 C10 1_555 1_555
H13 C12 1_555 1_555
H14 C12 1_555 1_555
C13 C12 1_555 1_555
H15 C13 1_555 1_555
C14 C9 1_555 1_555
H16 C14 1_555 1_555
C15 C8 1_555 1_555
H17 C15 1_555 1_555
H18 C15 1_555 1_555
C16 C13 1_555 1_555
H19 C16 1_555 1_555
C17 C7 1_555 1_555
H20 C17 1_555 1_555
C18 N1 1_555 1_555
C19 N1 1_555 1_555
H21 C19 1_555 1_555
H22 C19 1_555 1_555
C20 C19 1_555 1_555
H23 C20 1_555 1_555
H24 C20 1_555 1_555
H25 C20 1_555 1_555
C21 O1 1_555 1_555
H26 C21 1_555 1_555
H27 C21 1_555 1_555
H28 C21 1_555 1_555
C22 O3 1_555 1_555
H29 C22 1_555 1_555
H30 C22 1_555 1_555
H31 C22 1_555 1_555
C23 O6 1_555 1_555
H32 C23 1_555 1_555
H33 C23 1_555 1_555
H34 C23 1_555 1_555
C24 O7 1_555 1_555
H35 C24 1_555 1_555
H36 C24 1_555 1_555
H37 C24 1_555 1_555
C25 H38 1_555 1_555
C3 C4 1_555 1_555
C4 C18 1_555 1_555
C5 C11 1_555 1_555
C6 C7 1_555 1_555
C7 C8 1_555 1_555
C10 C11 1_555 1_555
C11 C17 1_555 1_555
C13 C14 1_555 1_555
C15 C16 1_555 1_555

#END
