
#######################################################################
#
#                 Cambridge Crystallographic Data Centre
#                                CCDC 
#
#######################################################################
#
# If this CIF has been generated from an entry in the Cambridge 
# Structural Database, then it will include bibliographic, chemical, 
# crystal, experimental, refinement or atomic coordinate data resulting 
# from the CCDC's data processing and validation procedures.
#
#######################################################################

data_WIZBUD
_chemical_formula_moiety         'C10 H20 N6 O5 Sr1,0.5(H2 O1)'
_chemical_name_systematic        
'bis(Azido)-(1,4,7,10,13-pentaoxacyclopentadecane)-strontium hemihydrate'
_symmetry_cell_setting           monoclinic
_symmetry_space_group_name_H-M   'P 2/c'
_symmetry_Int_Tables_number      13
_space_group_name_Hall           '-P 2yc'
loop_
_symmetry_equiv_pos_site_id
_symmetry_equiv_pos_as_xyz
1 x,y,z
2 -x,y,1/2-z
3 -x,-y,-z
4 x,-y,1/2+z
_cell_length_a                   12.7961(11)
_cell_length_b                   9.4865(10)
_cell_length_c                   13.1647(11)
_cell_angle_alpha                90
_cell_angle_beta                 94.676(5)
_cell_angle_gamma                90
_cell_volume                     1592.75
_exptl_crystal_colour            colorless
_exptl_crystal_description       block
_cell_formula_units_Z            4
loop_
_atom_site_label
_atom_site_type_symbol
_atom_site_fract_x
_atom_site_fract_y
_atom_site_fract_z
Sr1 Sr 0.77584(4) 0.71913(6) 0.04789(4)
O1 O 0.8623(3) 0.9297(4) -0.0578(3)
O2 O 0.9457(3) 0.6585(4) -0.0465(3)
O3 O 0.7598(3) 0.5418(4) -0.1063(3)
O4 O 0.5829(3) 0.6432(5) -0.0338(3)
O5 O 0.6510(3) 0.9215(5) -0.0398(4)
C1 C 0.9454(5) 0.8909(7) -0.1199(5)
H1 H 0.9899 0.9737 -0.1318
H2 H 0.9159 0.8545 -0.1867
C2 C 1.0078(5) 0.7802(7) -0.0637(5)
H3 H 1.0672 0.7527 -0.1032
H4 H 1.0370 0.8184 0.0026
C3 C 0.9368(5) 0.5648(6) -0.1310(4)
H5 H 1.0041 0.5151 -0.1367
H6 H 0.9194 0.6181 -0.1948
C4 C 0.8529(5) 0.4618(6) -0.1149(4)
H7 H 0.8436 0.3958 -0.1732
H8 H 0.8705 0.4067 -0.0520
C5 C 0.6671(5) 0.4561(7) -0.1110(5)
H9 H 0.6658 0.3987 -0.0483
H10 H 0.6656 0.3917 -0.1703
C6 C 0.5764(5) 0.5520(8) -0.1208(5)
H11 H 0.5773 0.6082 -0.1841
H12 H 0.5103 0.4972 -0.1239
C7 C 0.5125(5) 0.7611(8) -0.0450(6)
H13 H 0.4950 0.7929 0.0232
H14 H 0.4466 0.7312 -0.0837
C8 C 0.5590(6) 0.8800(9) -0.0988(6)
H15 H 0.5761 0.8501 -0.1675
H16 H 0.5089 0.9596 -0.1063
C9 C 0.7085(7) 1.0528(9) -0.0588(7)
H17 H 0.7383 1.0937 0.0064
H18 H 0.6605 1.1227 -0.0935
C10 C 0.7940(7) 1.0160(11) -0.1245(8)
H19 H 0.7666 0.9628 -0.1857
H20 H 0.8306 1.1015 -0.1462
N1 N 0.9336(4) 0.7733(5) 0.1824(4)
N2 N 1.0000 0.7729(7) 0.2500
N3 N 0.7686(4) 0.4813(8) 0.1367(5)
N4 N 0.7520(4) 0.3636(9) 0.1564(4)
N5 N 0.7369(4) 0.2432(8) 0.1761(5)
N1A N 1.0664(4) 0.7733(5) 0.3176(4)
O6 O 0.6914(7) 0.8949(13) 0.1694(7)
C11? C 0.6876(12) 0.9925(19) -0.1309(12)
H21? H 0.6401 1.0691 -0.1567
H22? H 0.6996 0.9257 -0.1865
C12? C 0.7881(12) 1.0471(17) -0.0780(16)
H23? H 0.8192 1.1184 -0.1215
H24? H 0.7736 1.0928 -0.0130
N6? N 0.6518(9) 0.7814(14) 0.1843(8)
N7? N 0.5698(9) 0.7861(11) 0.2140(8)
N8? N 0.5000 0.7901(10) 0.2500
loop_
_geom_bond_atom_site_label_1
_geom_bond_atom_site_label_2
_geom_bond_site_symmetry_1
_geom_bond_site_symmetry_2
Sr1 O1 1_555 1_555
O1 C1 1_555 1_555
O2 Sr1 1_555 1_555
O3 Sr1 1_555 1_555
O4 Sr1 1_555 1_555
O5 Sr1 1_555 1_555
C1 H1 1_555 1_555
H2 C1 1_555 1_555
C2 O2 1_555 1_555
H3 C2 1_555 1_555
H4 C2 1_555 1_555
C3 O2 1_555 1_555
H5 C3 1_555 1_555
H6 C3 1_555 1_555
C4 O3 1_555 1_555
H7 C4 1_555 1_555
H8 C4 1_555 1_555
C5 O3 1_555 1_555
H9 C5 1_555 1_555
H10 C5 1_555 1_555
C6 O4 1_555 1_555
H11 C6 1_555 1_555
H12 C6 1_555 1_555
C7 O4 1_555 1_555
H13 C7 1_555 1_555
H14 C7 1_555 1_555
C8 O5 1_555 1_555
H15 C8 1_555 1_555
H16 C8 1_555 1_555
C9 O5 1_555 1_555
H17 C9 1_555 1_555
H18 C9 1_555 1_555
C10 O1 1_555 1_555
H19 C10 1_555 1_555
H20 C10 1_555 1_555
N1 Sr1 1_555 1_555
N2 N1 1_555 1_555
N3 Sr1 1_555 1_555
N4 N3 1_555 1_555
N5 N4 1_555 1_555
N1A N2 1_555 1_555
C1 C2 1_555 1_555
C3 C4 1_555 1_555
C5 C6 1_555 1_555
C7 C8 1_555 1_555
C9 C10 1_555 1_555

#END
