
#######################################################################
#
#                 Cambridge Crystallographic Data Centre
#                                CCDC 
#
#######################################################################
#
# If this CIF has been generated from an entry in the Cambridge 
# Structural Database, then it will include bibliographic, chemical, 
# crystal, experimental, refinement or atomic coordinate data resulting 
# from the CCDC's data processing and validation procedures.
#
#######################################################################

data_WIZCIS
_chemical_formula_moiety         'C12 H24 Ba1 N2 O12'
_chemical_name_systematic        
bis(Nitrato-O,O')-(1,4,7,10,13,16-hexaoxacyclo-octadecane)-barium(ii)
_symmetry_cell_setting           monoclinic
_symmetry_space_group_name_H-M   'P 21/c'
_symmetry_Int_Tables_number      14
_space_group_name_Hall           '-P 2ybc'
loop_
_symmetry_equiv_pos_site_id
_symmetry_equiv_pos_as_xyz
1 x,y,z
2 -x,1/2+y,1/2-z
3 -x,-y,-z
4 x,1/2-y,1/2+z
_cell_length_a                   8.300(2)
_cell_length_b                   15.540(4)
_cell_length_c                   7.6191(12)
_cell_angle_alpha                90
_cell_angle_beta                 106.316(12)
_cell_angle_gamma                90
_cell_volume                     943.149
_exptl_crystal_colour            colorless
_exptl_crystal_description       block
_cell_formula_units_Z            2
_exptl_crystal_recrystallization_method 'diethyl ether/methanol'
loop_
_atom_site_label
_atom_site_type_symbol
_atom_site_fract_x
_atom_site_fract_y
_atom_site_fract_z
Ba1 Ba 0.5000 0.0000 1.0000
O1 O 0.7419(2) -0.00067(12) 0.8148(2)
O2 O 0.4674(2) -0.10937(11) 0.6967(2)
O3 O 0.2576(2) -0.13028(11) 0.9307(2)
C1 C 0.7133(3) -0.04777(18) 0.6466(3)
H1 H 0.8216 -0.0602 0.6211
H2 H 0.6431 -0.0134 0.5439
C2 C 0.6257(3) -0.13030(18) 0.6656(4)
H3 H 0.6075 -0.1651 0.5529
H4 H 0.6952 -0.1642 0.7695
C3 C 0.3664(3) -0.18480(18) 0.6959(4)
H5 H 0.4303 -0.2272 0.7857
H6 H 0.3363 -0.2118 0.5733
C4 C 0.2100(3) -0.15864(18) 0.7446(4)
H7 H 0.1525 -0.1116 0.6633
H8 H 0.1321 -0.2081 0.7296
C5 C 0.1163(3) -0.11438(18) 0.9999(4)
H9 H 0.0521 -0.1682 0.9984
H10 H 0.0409 -0.0713 0.9226
C6 C 0.8194(3) 0.08159(17) 0.8086(4)
H11 H 0.9130 0.0756 0.7528
H12 H 0.7364 0.1224 0.7339
N1 N 0.7716(3) -0.13238(16) 1.2554(3)
O4 O 0.6261(3) -0.15602(14) 1.1708(3)
O5 O 0.8036(2) -0.05330(12) 1.2556(3)
O6 O 0.8793(3) -0.18439(13) 1.3385(3)
O1B O 0.2581(2) 0.00067(12) 1.1852(2)
O2B O 0.5326(2) 0.10937(11) 1.3033(2)
O3B O 0.7424(2) 0.13028(11) 1.0693(2)
C1B C 0.2867(3) 0.04777(18) 1.3534(3)
H1B H 0.1784 0.0602 1.3789
H2B H 0.3569 0.0134 1.4561
C2B C 0.3743(3) 0.13030(18) 1.3344(4)
H3B H 0.3925 0.1651 1.4471
H4B H 0.3048 0.1642 1.2305
C3B C 0.6336(3) 0.18480(18) 1.3041(4)
H5B H 0.5697 0.2272 1.2143
H6B H 0.6637 0.2118 1.4267
C4B C 0.7900(3) 0.15864(18) 1.2554(4)
H7B H 0.8475 0.1116 1.3367
H8B H 0.8679 0.2081 1.2704
C5B C 0.8837(3) 0.11438(18) 1.0001(4)
H9B H 0.9479 0.1682 1.0016
H10B H 0.9591 0.0713 1.0774
C6B C 0.1806(3) -0.08159(17) 1.1914(4)
H11B H 0.0870 -0.0756 1.2472
H12B H 0.2636 -0.1224 1.2661
N1B N 0.2284(3) 0.13238(16) 0.7446(3)
O4B O 0.3739(3) 0.15602(14) 0.8292(3)
O5B O 0.1964(2) 0.05330(12) 0.7444(3)
O6B O 0.1207(3) 0.18439(13) 0.6615(3)
loop_
_geom_bond_atom_site_label_1
_geom_bond_atom_site_label_2
_geom_bond_site_symmetry_1
_geom_bond_site_symmetry_2
Ba1 O1 1_555 1_555
O1 C1 1_555 1_555
O2 Ba1 1_555 1_555
O3 Ba1 1_555 1_555
C1 H1 1_555 1_555
H2 C1 1_555 1_555
C2 O2 1_555 1_555
H3 C2 1_555 1_555
H4 C2 1_555 1_555
C3 O2 1_555 1_555
H5 C3 1_555 1_555
H6 C3 1_555 1_555
C4 O3 1_555 1_555
H7 C4 1_555 1_555
H8 C4 1_555 1_555
C5 O3 1_555 1_555
H9 C5 1_555 1_555
H10 C5 1_555 1_555
C6 O1 1_555 1_555
H11 C6 1_555 1_555
H12 C6 1_555 1_555
N1 O4 1_555 1_555
O4 Ba1 1_555 1_555
O5 Ba1 1_555 1_555
O6 N1 1_555 1_555
O1B Ba1 1_555 1_555
O2B Ba1 1_555 1_555
O3B Ba1 1_555 1_555
C1B O1B 1_555 1_555
H1B C1B 1_555 1_555
H2B C1B 1_555 1_555
C2B O2B 1_555 1_555
H3B C2B 1_555 1_555
H4B C2B 1_555 1_555
C3B O2B 1_555 1_555
H5B C3B 1_555 1_555
H6B C3B 1_555 1_555
C4B O3B 1_555 1_555
H7B C4B 1_555 1_555
H8B C4B 1_555 1_555
C5B C6 1_555 1_555
H9B C5B 1_555 1_555
H10B C5B 1_555 1_555
C6B C5 1_555 1_555
H11B C6B 1_555 1_555
H12B C6B 1_555 1_555
N1B O4B 1_555 1_555
O4B Ba1 1_555 1_555
O5B Ba1 1_555 1_555
O6B N1B 1_555 1_555
C1 C2 1_555 1_555
C3 C4 1_555 1_555
N1 O5 1_555 1_555
O1B C6B 1_555 1_555
O3B C5B 1_555 1_555
C1B C2B 1_555 1_555
C3B C4B 1_555 1_555
N1B O5B 1_555 1_555

#END
