
#######################################################################
#
#                 Cambridge Crystallographic Data Centre
#                                CCDC 
#
#######################################################################
#
# If this CIF has been generated from an entry in the Cambridge 
# Structural Database, then it will include bibliographic, chemical, 
# crystal, experimental, refinement or atomic coordinate data resulting 
# from the CCDC's data processing and validation procedures.
#
#######################################################################

data_WIZFUG
_chemical_formula_moiety         'C19 H18 P1 1+,C18 H13 O1 1-'
_chemical_name_systematic        
'Methyltriphenylphosphonium 2,6-diphenylphenoxide'
_symmetry_cell_setting           triclinic
_symmetry_space_group_name_H-M   'P -1'
_symmetry_Int_Tables_number      2
_space_group_name_Hall           '-P 1'
loop_
_symmetry_equiv_pos_site_id
_symmetry_equiv_pos_as_xyz
1 x,y,z
2 -x,-y,-z
_cell_length_a                   13.430(1)
_cell_length_b                   13.748(1)
_cell_length_c                   18.444(1)
_cell_angle_alpha                88.310(3)
_cell_angle_beta                 70.157(3)
_cell_angle_gamma                62.542(3)
_cell_volume                     2809.27
_exptl_crystal_colour            green
_exptl_crystal_description       'rectangular prism'
_chemical_melting_point          205-207deg.C
_cell_formula_units_Z            4
loop_
_atom_site_label
_atom_site_type_symbol
_atom_site_fract_x
_atom_site_fract_y
_atom_site_fract_z
P1 P 0.4414(2) 0.5701(2) 0.69110(14)
C1 C 0.46893(19) 0.58802(17) 0.59128(11)
H1 H 0.3957(4) 0.5907(4) 0.5757(3)
H2 H 0.5570(4) 0.5221(4) 0.5526(3)
H3 H 0.4694(5) 0.6665(4) 0.5838(3)
C2 C 0.30077(18) 0.68540(16) 0.74998(11)
C3 C 0.23970(19) 0.67454(16) 0.82550(11)
H4 H 0.2765(4) 0.5971(4) 0.8480(2)
C4 C 0.12810(19) 0.76277(17) 0.87135(12)
H5 H 0.0797(4) 0.7536(4) 0.9296(3)
C5 C 0.0776(2) 0.86098(17) 0.84196(12)
H6 H -0.0091(4) 0.9289(4) 0.8778(3)
C6 C 0.13773(19) 0.87190(16) 0.76647(12)
H7 H 0.0982(4) 0.9480(4) 0.7432(3)
C7 C 0.24876(19) 0.78401(16) 0.72016(12)
H8 H 0.2932(4) 0.7918(4) 0.6604(2)
C8 C 0.56391(18) 0.55477(15) 0.71664(11)
C9 C 0.54773(19) 0.59544(16) 0.79080(12)
H9 H 0.4579(4) 0.6475(4) 0.8337(3)
C10 C 0.64873(19) 0.56912(17) 0.80990(12)
H10 H 0.6364(5) 0.6001(4) 0.8676(3)
C11 C 0.76492(19) 0.50395(17) 0.75512(12)
H11 H 0.8426(4) 0.4844(4) 0.7709(3)
C12 C 0.78130(19) 0.46415(17) 0.68080(12)
H12 H 0.8714(4) 0.4138(4) 0.6374(3)
C13 C 0.68149(19) 0.48946(16) 0.66147(12)
H13 H 0.6945(4) 0.4574(4) 0.6039(2)
C14 C 0.43137(18) 0.44505(16) 0.70800(11)
C15 C 0.36381(18) 0.42056(16) 0.67541(11)
H14 H 0.3254(4) 0.4713(4) 0.6356(3)
C16 C 0.34815(19) 0.32796(16) 0.69335(12)
H15 H 0.2962(4) 0.3093(4) 0.6688(3)
C17 C 0.40139(19) 0.25988(16) 0.74184(12)
H16 H 0.3884(5) 0.1885(4) 0.7557(3)
C18 C 0.47017(19) 0.28351(16) 0.77279(11)
H17 H 0.5107(4) 0.2304(4) 0.8105(3)
C19 C 0.48463(19) 0.37681(16) 0.75628(11)
H18 H 0.5391(4) 0.3950(4) 0.7811(3)
O1 O 0.7127(2) 0.43905(18) 0.45860(13)
C20 C 0.82034(18) 0.38567(16) 0.45965(11)
C21 C 0.89478(18) 0.43830(16) 0.44920(11)
C22 C 1.01252(19) 0.37869(16) 0.44828(11)
H19 H 1.0650(4) 0.4207(4) 0.4416(3)
C23 C 1.0612(2) 0.26731(17) 0.45895(12)
H20 H 1.1501(4) 0.2247(4) 0.4622(3)
C24 C 0.99124(18) 0.21453(16) 0.46785(11)
H21 H 1.0287(4) 0.1280(3) 0.4769(3)
C25 C 0.87410(18) 0.26978(16) 0.46723(11)
C26 C 0.80873(18) 0.20621(16) 0.47035(11)
C27 C 0.87276(19) 0.09778(16) 0.43014(12)
H22 H 0.9681(4) 0.0630(4) 0.3948(3)
C28 C 0.81510(19) 0.03333(17) 0.43452(12)
H23 H 0.8671(4) -0.0515(4) 0.4035(3)
C29 C 0.69189(19) 0.07759(17) 0.47898(12)
H24 H 0.6474(4) 0.0277(4) 0.4829(3)
C30 C 0.6277(2) 0.18542(16) 0.51881(12)
H25 H 0.5327(4) 0.2206(4) 0.5546(3)
C31 C 0.68598(19) 0.24926(16) 0.51500(11)
H26 H 0.6340(4) 0.3325(3) 0.5469(3)
C32 C 0.84865(18) 0.55528(16) 0.43559(11)
C33 C 0.73434(19) 0.64027(16) 0.48342(12)
H27 H 0.6770(4) 0.6190(4) 0.5299(3)
C34 C 0.69637(19) 0.75043(16) 0.47205(12)
H28 H 0.6073(4) 0.8149(4) 0.5101(3)
C35 C 0.7704(2) 0.77920(17) 0.41185(12)
H29 H 0.7400(4) 0.8647(4) 0.4021(3)
C36 C 0.8835(2) 0.69538(17) 0.36344(12)
H30 H 0.9418(5) 0.7168(4) 0.3167(3)
C37 C 0.92105(19) 0.58522(17) 0.37526(12)
H31 H 1.0082(4) 0.5197(4) 0.3367(3)
P2 P 0.7135(2) 0.9206(2) 0.81649(14)
C38 C 0.64332(19) 0.97526(16) 0.91704(11)
H32 H 0.6237(4) 0.9157(4) 0.9523(2)
H33 H 0.5596(4) 1.0542(4) 0.9274(3)
H34 H 0.7055(4) 0.9906(4) 0.9342(3)
C39 C 0.84425(18) 0.78867(15) 0.80073(11)
C40 C 0.95469(18) 0.76058(16) 0.74034(11)
H35 H 0.9640(4) 0.8176(4) 0.7003(3)
C41 C 1.05454(19) 0.65771(16) 0.73212(12)
H36 H 1.1397(4) 0.6353(4) 0.6853(3)
C42 C 1.04387(19) 0.58326(16) 0.78362(11)
H37 H 1.1230(4) 0.5046(4) 0.7769(3)
C43 C 0.93352(19) 0.61095(16) 0.84336(11)
H38 H 0.9236(4) 0.5542(4) 0.8837(3)
C44 C 0.83310(19) 0.71361(16) 0.85217(11)
H39 H 0.7486(4) 0.7352(4) 0.8996(3)
C45 C 0.75552(18) 1.01442(15) 0.76172(11)
C46 C 0.76821(19) 1.01286(16) 0.68324(11)
H40 H 0.7523(5) 0.9557(4) 0.6559(3)
C47 C 0.80184(19) 1.08458(16) 0.63988(12)
H41 H 0.8115(5) 1.0831(4) 0.5789(2)
C48 C 0.82169(19) 1.15977(16) 0.67497(12)
H42 H 0.8459(5) 1.2162(4) 0.6400(3)
C49 C 0.8083(2) 1.16158(17) 0.75303(12)
H43 H 0.8216(5) 1.2212(4) 0.7813(3)
C50 C 0.77599(19) 1.08949(16) 0.79703(12)
H44 H 0.7625(5) 1.0948(4) 0.8584(3)
C51 C 0.61228(18) 0.90302(15) 0.78163(11)
C52 C 0.65870(19) 0.81603(16) 0.72203(11)
H45 H 0.7543(4) 0.7544(4) 0.7004(3)
C53 C 0.58180(19) 0.80834(17) 0.68956(12)
H46 H 0.6186(4) 0.7410(4) 0.6433(3)
C54 C 0.4595(2) 0.88807(17) 0.71686(12)
H47 H 0.4007(5) 0.8823(4) 0.6915(3)
C55 C 0.41363(19) 0.97376(17) 0.77669(12)
H48 H 0.3185(4) 1.0353(4) 0.7988(3)
C56 C 0.48933(19) 0.98255(16) 0.80976(12)
H49 H 0.4525(4) 1.0506(4) 0.8567(3)
O2 O 0.3956(2) 1.17115(18) 0.95147(13)
C57 C 0.33907(18) 1.27766(16) 0.95851(11)
C58 C 0.22519(18) 1.33557(16) 0.94692(11)
C59 C 0.16536(19) 1.45118(16) 0.95518(11)
H50 H 0.0781(4) 1.4938(3) 0.9482(3)
C60 C 0.21205(19) 1.51521(16) 0.97492(11)
H51 H 0.1603(4) 1.6044(4) 0.9849(3)
C61 C 0.32354(19) 1.46079(16) 0.98351(11)
H52 H 0.3609(4) 1.5076(4) 0.9971(3)
C62 C 0.38659(18) 1.34460(16) 0.97541(11)
C63 C 0.50644(18) 1.29258(16) 0.98359(11)
C64 C 0.59108(19) 1.32787(16) 0.94586(11)
H53 H 0.5702(4) 1.3925(4) 0.9095(3)
C65 C 0.70285(19) 1.28247(17) 0.95466(12)
H54 H 0.7678(4) 1.3111(4) 0.9251(3)
C66 C 0.7321(2) 1.20068(17) 1.00225(12)
H55 H 0.8181(4) 1.1654(4) 1.0095(3)
C67 C 0.64767(19) 1.16550(17) 1.04083(12)
H56 H 0.6677(4) 1.1037(4) 1.0787(3)
C68 C 0.53683(19) 1.21074(16) 1.03143(11)
H57 H 0.4727(4) 1.1815(4) 1.0614(3)
C69 C 0.17007(18) 1.27344(16) 0.92633(11)
C70 C 0.17295(18) 1.17931(16) 0.95955(11)
H58 H 0.2194(4) 1.1492(4) 0.9995(3)
C71 C 0.11596(19) 1.12504(16) 0.94137(12)
H59 H 0.1194(5) 1.0530(4) 0.9681(3)
C72 C 0.0557(2) 1.16268(17) 0.88945(12)
H60 H 0.0124(4) 1.1213(4) 0.8757(3)
C73 C 0.05347(19) 1.25588(17) 0.85578(12)
H61 H 0.0063(5) 1.2874(4) 0.8153(3)
C74 C 0.11010(18) 1.30920(16) 0.87351(11)
H62 H 0.1102(4) 1.3798(4) 0.8454(3)
loop_
_geom_bond_atom_site_label_1
_geom_bond_atom_site_label_2
_geom_bond_site_symmetry_1
_geom_bond_site_symmetry_2
P1 C1 1_555 1_555
O1 C20 1_555 1_555
C1 H1 1_555 1_555
H2 C1 1_555 1_555
H3 C1 1_555 1_555
C2 P1 1_555 1_555
C3 C2 1_555 1_555
H4 C3 1_555 1_555
C4 C3 1_555 1_555
H5 C4 1_555 1_555
C5 C4 1_555 1_555
H6 C5 1_555 1_555
C6 C5 1_555 1_555
H7 C6 1_555 1_555
C7 C2 1_555 1_555
H8 C7 1_555 1_555
C8 P1 1_555 1_555
C9 C8 1_555 1_555
H9 C9 1_555 1_555
C10 C9 1_555 1_555
H10 C10 1_555 1_555
C11 C10 1_555 1_555
H11 C11 1_555 1_555
C12 C11 1_555 1_555
H12 C12 1_555 1_555
C13 C8 1_555 1_555
H13 C13 1_555 1_555
C14 P1 1_555 1_555
C15 C14 1_555 1_555
H14 C15 1_555 1_555
C16 C15 1_555 1_555
H15 C16 1_555 1_555
C17 C16 1_555 1_555
H16 C17 1_555 1_555
C18 C17 1_555 1_555
H17 C18 1_555 1_555
C19 C14 1_555 1_555
H18 C19 1_555 1_555
C20 C21 1_555 1_555
C21 C22 1_555 1_555
C22 H19 1_555 1_555
C23 C22 1_555 1_555
H20 C23 1_555 1_555
C24 C23 1_555 1_555
H21 C24 1_555 1_555
C25 C20 1_555 1_555
C26 C25 1_555 1_555
C27 C26 1_555 1_555
H22 C27 1_555 1_555
C28 C27 1_555 1_555
H23 C28 1_555 1_555
C29 C28 1_555 1_555
H24 C29 1_555 1_555
C30 C29 1_555 1_555
H25 C30 1_555 1_555
C31 C26 1_555 1_555
H26 C31 1_555 1_555
C32 C21 1_555 1_555
C33 C32 1_555 1_555
H27 C33 1_555 1_555
C34 C33 1_555 1_555
H28 C34 1_555 1_555
C35 C34 1_555 1_555
H29 C35 1_555 1_555
C36 C35 1_555 1_555
H30 C36 1_555 1_555
C37 C32 1_555 1_555
H31 C37 1_555 1_555
P2 C38 1_555 1_555
O2 C57 1_555 1_555
C38 H32 1_555 1_555
H33 C38 1_555 1_555
H34 C38 1_555 1_555
C39 P2 1_555 1_555
C40 C39 1_555 1_555
H35 C40 1_555 1_555
C41 C40 1_555 1_555
H36 C41 1_555 1_555
C42 C41 1_555 1_555
H37 C42 1_555 1_555
C43 C42 1_555 1_555
H38 C43 1_555 1_555
C44 C39 1_555 1_555
H39 C44 1_555 1_555
C45 P2 1_555 1_555
C46 C45 1_555 1_555
H40 C46 1_555 1_555
C47 C46 1_555 1_555
H41 C47 1_555 1_555
C48 C47 1_555 1_555
H42 C48 1_555 1_555
C49 C48 1_555 1_555
H43 C49 1_555 1_555
C50 C45 1_555 1_555
H44 C50 1_555 1_555
C51 P2 1_555 1_555
C52 C51 1_555 1_555
H45 C52 1_555 1_555
C53 C52 1_555 1_555
H46 C53 1_555 1_555
C54 C53 1_555 1_555
H47 C54 1_555 1_555
C55 C54 1_555 1_555
H48 C55 1_555 1_555
C56 C51 1_555 1_555
H49 C56 1_555 1_555
C57 C58 1_555 1_555
C58 C59 1_555 1_555
C59 H50 1_555 1_555
C60 C59 1_555 1_555
H51 C60 1_555 1_555
C61 C60 1_555 1_555
H52 C61 1_555 1_555
C62 C57 1_555 1_555
C63 C62 1_555 1_555
C64 C63 1_555 1_555
H53 C64 1_555 1_555
C65 C64 1_555 1_555
H54 C65 1_555 1_555
C66 C65 1_555 1_555
H55 C66 1_555 1_555
C67 C66 1_555 1_555
H56 C67 1_555 1_555
C68 C63 1_555 1_555
H57 C68 1_555 1_555
C69 C58 1_555 1_555
C70 C69 1_555 1_555
H58 C70 1_555 1_555
C71 C70 1_555 1_555
H59 C71 1_555 1_555
C72 C71 1_555 1_555
H60 C72 1_555 1_555
C73 C72 1_555 1_555
H61 C73 1_555 1_555
C74 C69 1_555 1_555
H62 C74 1_555 1_555
C6 C7 1_555 1_555
C12 C13 1_555 1_555
C18 C19 1_555 1_555
C24 C25 1_555 1_555
C30 C31 1_555 1_555
C36 C37 1_555 1_555
C43 C44 1_555 1_555
C49 C50 1_555 1_555
C55 C56 1_555 1_555
C61 C62 1_555 1_555
C67 C68 1_555 1_555
C73 C74 1_555 1_555

#END
