
#######################################################################
#
#                 Cambridge Crystallographic Data Centre
#                                CCDC 
#
#######################################################################
#
# If this CIF has been generated from an entry in the Cambridge 
# Structural Database, then it will include bibliographic, chemical, 
# crystal, experimental, refinement or atomic coordinate data resulting 
# from the CCDC's data processing and validation procedures.
#
#######################################################################

data_WIZHET
_chemical_formula_moiety         'C16 H18 N4 S1'
_chemical_name_systematic        
cis-1-(Anilinomethyl)-5-phenyl-1,3,5-triazinane-2-thione
_symmetry_cell_setting           monoclinic
_symmetry_space_group_name_H-M   'P 21/n'
_symmetry_Int_Tables_number      14
_space_group_name_Hall           '-P 2yn'
loop_
_symmetry_equiv_pos_site_id
_symmetry_equiv_pos_as_xyz
1 x,y,z
2 1/2-x,1/2+y,1/2-z
3 -x,-y,-z
4 1/2+x,1/2-y,1/2+z
_cell_length_a                   5.8564(8)
_cell_length_b                   15.486(2)
_cell_length_c                   17.285(2)
_cell_angle_alpha                90.00
_cell_angle_beta                 92.660(2)
_cell_angle_gamma                90.00
_cell_volume                     1565.93
_exptl_crystal_colour            colorless
_exptl_crystal_description       plate
_cell_formula_units_Z            4
_exptl_crystal_recrystallization_method acetonitrile
loop_
_atom_site_label
_atom_site_type_symbol
_atom_site_fract_x
_atom_site_fract_y
_atom_site_fract_z
S1 S 0.22985(8) 0.04923(3) 0.40760(3)
N1 N 0.4078(3) 0.19555(10) 0.62536(8)
N2 N 0.2185(2) 0.08151(9) 0.55677(9)
H1 H 0.0937 0.0522 0.5534
N3 N 0.5076(2) 0.15073(9) 0.49676(8)
N4 N 0.7175(2) 0.25134(11) 0.41977(9)
H2 H 0.8443 0.2714 0.4394
C1 C 0.2573(3) 0.26732(12) 0.61505(10)
C2 C 0.1013(4) 0.28340(14) 0.67104(12)
H3 H 0.0976 0.2473 0.7140
C3 C -0.0480(4) 0.35158(15) 0.66442(14)
H4 H -0.1523 0.3609 0.7025
C4 C -0.0442(4) 0.40607(15) 0.60187(15)
H5 H -0.1463 0.4520 0.5970
C5 C 0.1116(4) 0.39195(14) 0.54692(13)
H6 H 0.1170 0.4292 0.5048
C6 C 0.2615(4) 0.32305(12) 0.55290(11)
H7 H 0.3660 0.3142 0.5147
C7 C 0.2990(3) 0.11240(12) 0.63295(11)
H8 H 0.1710 0.1175 0.6663
H9 H 0.4070 0.0715 0.6563
C8 C 0.3280(3) 0.09623(11) 0.49175(10)
C9 C 0.5885(3) 0.18639(13) 0.57241(11)
H10 H 0.7054 0.1487 0.5953
H11 H 0.6575 0.2424 0.5644
C10 C 0.6659(3) 0.16269(13) 0.43371(12)
H12 H 0.8069 0.1320 0.4467
H13 H 0.5986 0.1375 0.3866
C11 C 0.5767(3) 0.30742(13) 0.37660(10)
C12 C 0.6523(4) 0.39069(14) 0.36228(12)
H14 H 0.7944 0.4086 0.3825
C13 C 0.5180(4) 0.44710(15) 0.31820(13)
H15 H 0.5701 0.5028 0.3091
C14 C 0.3077(4) 0.42155(17) 0.28758(13)
H16 H 0.2185 0.4592 0.2571
C15 C 0.2316(4) 0.33993(16) 0.30271(11)
H17 H 0.0888 0.3227 0.2826
C16 C 0.3617(3) 0.28265(14) 0.34710(10)
H18 H 0.3060 0.2278 0.3572
loop_
_geom_bond_atom_site_label_1
_geom_bond_atom_site_label_2
_geom_bond_site_symmetry_1
_geom_bond_site_symmetry_2
S1 C8 1_555 1_555
N1 C1 1_555 1_555
N2 H1 1_555 1_555
N3 C8 1_555 1_555
N4 H2 1_555 1_555
C1 C2 1_555 1_555
C2 H3 1_555 1_555
C3 C2 1_555 1_555
H4 C3 1_555 1_555
C4 C3 1_555 1_555
H5 C4 1_555 1_555
C5 C4 1_555 1_555
H6 C5 1_555 1_555
C6 C1 1_555 1_555
H7 C6 1_555 1_555
C7 N1 1_555 1_555
H8 C7 1_555 1_555
H9 C7 1_555 1_555
C8 N2 1_555 1_555
C9 N1 1_555 1_555
H10 C9 1_555 1_555
H11 C9 1_555 1_555
C10 N3 1_555 1_555
H12 C10 1_555 1_555
H13 C10 1_555 1_555
C11 N4 1_555 1_555
C12 C11 1_555 1_555
H14 C12 1_555 1_555
C13 C12 1_555 1_555
H15 C13 1_555 1_555
C14 C13 1_555 1_555
H16 C14 1_555 1_555
C15 C14 1_555 1_555
H17 C15 1_555 1_555
C16 C11 1_555 1_555
H18 C16 1_555 1_555
N2 C7 1_555 1_555
N3 C9 1_555 1_555
N4 C10 1_555 1_555
C5 C6 1_555 1_555
C15 C16 1_555 1_555

#END
