
#######################################################################
#
#                 Cambridge Crystallographic Data Centre
#                                CCDC 
#
#######################################################################
#
# If this CIF has been generated from an entry in the Cambridge 
# Structural Database, then it will include bibliographic, chemical, 
# crystal, experimental, refinement or atomic coordinate data resulting 
# from the CCDC's data processing and validation procedures.
#
#######################################################################

data_WIZKIZ
_chemical_formula_moiety         'C17 H22 O3'
_chemical_name_systematic        
3-Oxo-1,5-bis(propen-3-yl)-2,4-dioxabicyclo(3.3.1)nonane-6-spiro-4'-cyclopentene
_symmetry_cell_setting           monoclinic
_symmetry_space_group_name_H-M   'P 21/n'
_symmetry_Int_Tables_number      14
_space_group_name_Hall           '-P 2yn'
loop_
_symmetry_equiv_pos_site_id
_symmetry_equiv_pos_as_xyz
1 x,y,z
2 1/2+x,1/2-y,1/2+z
3 -x,-y,-z
4 1/2-x,1/2+y,1/2-z
_cell_length_a                   9.8448(9)
_cell_length_b                   13.2382(12)
_cell_length_c                   11.0507(10)
_cell_angle_alpha                90
_cell_angle_beta                 99.152(2)
_cell_angle_gamma                90
_cell_volume                     1421.88
_exptl_crystal_colour            colorless
_exptl_crystal_description       block
_cell_formula_units_Z            4
loop_
_atom_site_label
_atom_site_type_symbol
_atom_site_fract_x
_atom_site_fract_y
_atom_site_fract_z
O1 O 0.16180(12) 0.12485(9) 0.90139(11)
O2 O 0.17633(12) 0.18209(9) 0.70525(10)
O3 O 0.02657(13) 0.06533(10) 0.73876(12)
C1 C 0.26935(16) 0.28767(13) 0.87837(14)
C2 C 0.12751(18) 0.34215(14) 0.87229(16)
H1 H 0.0799 0.3474 0.7866
H2 H 0.0675 0.3054 0.9212
C3 C 0.1636(2) 0.44486(14) 0.92528(17)
H3 H 0.0973 0.4952 0.9349
C4 C 0.2980(2) 0.45773(15) 0.95726(17)
H4 H 0.3383 0.5185 0.9920
C5 C 0.37963(18) 0.36697(13) 0.93307(16)
H5 H 0.4347 0.3416 1.0099
H6 H 0.4423 0.3829 0.8740
C6 C 0.27428(17) 0.19177(13) 0.95850(15)
C7 C 0.40801(18) 0.13249(14) 0.96443(16)
H7 H 0.4851 0.1742 1.0059
H8 H 0.4027 0.0709 1.0142
C8 C 0.43765(18) 0.10221(14) 0.83857(16)
H9 H 0.3715 0.0495 0.8036
H10 H 0.5315 0.0734 0.8465
C9 C 0.42630(17) 0.19290(13) 0.75234(16)
H11 H 0.4324 0.1692 0.6684
H12 H 0.5047 0.2390 0.7784
C10 C 0.29135(16) 0.25142(12) 0.75026(15)
C11 C 0.27891(18) 0.33506(13) 0.65318(15)
H13 H 0.1934 0.3736 0.6565
H14 H 0.3573 0.3822 0.6739
C12 C 0.27664(19) 0.29742(14) 0.52404(16)
H15 H 0.2298 0.2359 0.5011
C13 C 0.2432(2) 0.21217(14) 1.08902(16)
H16 H 0.3265 0.2409 1.1392
H17 H 0.1695 0.2636 1.0840
C14 C 0.1996(2) 0.12054(14) 1.15286(17)
H18 H 0.1205 0.0856 1.1133
C15 C 0.2598(2) 0.08404(18) 1.25767(19)
H19 H 0.2101 0.0239 1.2783
H20 H 0.2595 0.1351 1.3219
C16 C 0.3357(2) 0.34458(18) 0.44100(18)
H22 H 0.3207 0.3061 0.3643
H23 H 0.4347 0.3506 0.4704
C17 C 0.11863(17) 0.12175(13) 0.77966(16)
H21? H 0.3549 0.0657 1.2515
H24? H 0.2955 0.4121 0.4266
loop_
_geom_bond_atom_site_label_1
_geom_bond_atom_site_label_2
_geom_bond_site_symmetry_1
_geom_bond_site_symmetry_2
O1 C6 1_555 1_555
O2 C10 1_555 1_555
O3 C17 1_555 1_555
C1 C2 1_555 1_555
C2 H1 1_555 1_555
H2 C2 1_555 1_555
C3 C2 1_555 1_555
H3 C3 1_555 1_555
C4 C3 1_555 1_555
H4 C4 1_555 1_555
C5 C1 1_555 1_555
H5 C5 1_555 1_555
H6 C5 1_555 1_555
C6 C1 1_555 1_555
C7 C6 1_555 1_555
H7 C7 1_555 1_555
H8 C7 1_555 1_555
C8 C7 1_555 1_555
H9 C8 1_555 1_555
H10 C8 1_555 1_555
C9 C8 1_555 1_555
H11 C9 1_555 1_555
H12 C9 1_555 1_555
C10 C1 1_555 1_555
C11 C10 1_555 1_555
H13 C11 1_555 1_555
H14 C11 1_555 1_555
C12 C11 1_555 1_555
H15 C12 1_555 1_555
C13 C6 1_555 1_555
H16 C13 1_555 1_555
H17 C13 1_555 1_555
C14 C13 1_555 1_555
H18 C14 1_555 1_555
C15 C14 1_555 1_555
H19 C15 1_555 1_555
H20 C15 1_555 1_555
C16 C12 1_555 1_555
H22 C16 1_555 1_555
H23 C16 1_555 1_555
C17 O1 1_555 1_555
O2 C17 1_555 1_555
C4 C5 1_555 1_555
C9 C10 1_555 1_555

#END
