
#######################################################################
#
#                 Cambridge Crystallographic Data Centre
#                                CCDC 
#
#######################################################################
#
# If this CIF has been generated from an entry in the Cambridge 
# Structural Database, then it will include bibliographic, chemical, 
# crystal, experimental, refinement or atomic coordinate data resulting 
# from the CCDC's data processing and validation procedures.
#
#######################################################################

data_WIZWIL
_chemical_formula_moiety         'C12 H13 Br1 O2'
_chemical_name_systematic        
trans-5-(4'-Bromophenyl)-3,5-dimethyltetrahydrofuran-2-one
_symmetry_cell_setting           orthorhombic
_symmetry_space_group_name_H-M   'P 21 21 21'
_symmetry_Int_Tables_number      19
_space_group_name_Hall           'P 2ac 2ab'
loop_
_symmetry_equiv_pos_site_id
_symmetry_equiv_pos_as_xyz
1 x,y,z
2 1/2-x,-y,1/2+z
3 1/2+x,1/2-y,-z
4 -x,1/2+y,1/2-z
_cell_length_a                   8.101(3)
_cell_length_b                   25.457(3)
_cell_length_c                   5.886(3)
_cell_angle_alpha                90
_cell_angle_beta                 90
_cell_angle_gamma                90
_cell_volume                     1213.85
_exptl_crystal_colour            colorless
_exptl_crystal_description       prismatic
_cell_formula_units_Z            4
_exptl_crystal_recrystallization_method 'ethyl acetate/hexane'
loop_
_atom_site_label
_atom_site_type_symbol
_atom_site_fract_x
_atom_site_fract_y
_atom_site_fract_z
Br1 Br 0.0434(1) 0.01792(4) 0.0519(2)
O1 O -0.5003(5) 0.1812(2) -0.4859(7)
O2 O -0.4239(8) 0.2589(2) -0.6111(10)
C1 C -0.4593(9) 0.2314(3) -0.453(1)
C2 C -0.4641(9) 0.2450(2) -0.207(1)
C3 C -0.5709(9) 0.2022(3) -0.110(1)
C4 C -0.5395(9) 0.1556(2) -0.270(1)
C5 C -0.520(1) 0.3017(3) -0.157(1)
C6 C -0.693(1) 0.1226(3) -0.313(2)
C7 C -0.3949(8) 0.1219(2) -0.196(1)
C8 C -0.3995(9) 0.0966(3) 0.013(1)
C9 C -0.271(1) 0.0651(3) 0.086(1)
C10 C -0.1357(9) 0.0598(3) -0.049(2)
C11 C -0.1286(9) 0.0835(3) -0.260(1)
C12 C -0.2589(8) 0.1148(3) -0.330(1)
H1 H -0.3524 0.2404 -0.1486
H2 H -0.6859 0.2132 -0.1161
H3 H -0.5445 0.1944 0.0417
H4 H -0.4438 0.3263 -0.2375
H5 H -0.6256 0.3076 -0.2193
H6 H -0.5153 0.3095 -0.0040
H7 H -0.7815 0.1440 -0.3604
H8 H -0.7236 0.1044 -0.1768
H9 H -0.6695 0.0971 -0.4276
H10 H -0.4937 0.1010 0.1102
H11 H -0.2751 0.0477 0.2336
H12 H -0.0312 0.0788 -0.3499
H13 H -0.2547 0.1322 -0.4781
loop_
_geom_bond_atom_site_label_1
_geom_bond_atom_site_label_2
_geom_bond_site_symmetry_1
_geom_bond_site_symmetry_2
Br1 C10 1_555 1_555
O1 C1 1_555 1_555
O2 C1 1_555 1_555
C1 C2 1_555 1_555
C2 C3 1_555 1_555
C3 C4 1_555 1_555
C4 O1 1_555 1_555
C5 C2 1_555 1_555
C6 C4 1_555 1_555
C7 C4 1_555 1_555
C8 C7 1_555 1_555
C9 C8 1_555 1_555
C10 C9 1_555 1_555
C11 C10 1_555 1_555
C12 C7 1_555 1_555
H1 C2 1_555 1_555
H2 C3 1_555 1_555
H3 C3 1_555 1_555
H4 C5 1_555 1_555
H5 C5 1_555 1_555
H6 C5 1_555 1_555
H7 C6 1_555 1_555
H8 C6 1_555 1_555
H9 C6 1_555 1_555
H10 C8 1_555 1_555
H11 C9 1_555 1_555
H12 C11 1_555 1_555
H13 C12 1_555 1_555
C11 C12 1_555 1_555

#END
