
#######################################################################
#
#                 Cambridge Crystallographic Data Centre
#                                CCDC 
#
#######################################################################
#
# If this CIF has been generated from an entry in the Cambridge 
# Structural Database, then it will include bibliographic, chemical, 
# crystal, experimental, refinement or atomic coordinate data resulting 
# from the CCDC's data processing and validation procedures.
#
#######################################################################

data_WIZYIO
_chemical_formula_moiety         'C30 H26 N4 O4'
_chemical_name_systematic        
1,2-bis((2-Hydroxy-3-methoxybenzylidene)hydrazono)-1,2-diphenylethane
_symmetry_cell_setting           monoclinic
_symmetry_space_group_name_H-M   'P 21/c'
_symmetry_Int_Tables_number      14
_space_group_name_Hall           '-P 2ybc'
loop_
_symmetry_equiv_pos_site_id
_symmetry_equiv_pos_as_xyz
1 x,y,z
2 -x,1/2+y,1/2-z
3 -x,-y,-z
4 x,1/2-y,1/2+z
_cell_length_a                   8.3732(11)
_cell_length_b                   12.7267(16)
_cell_length_c                   12.4229(16)
_cell_angle_alpha                90
_cell_angle_beta                 98.188(2)
_cell_angle_gamma                90
_cell_volume                     1310.33
_exptl_crystal_colour            yellow
_exptl_crystal_description       block
_cell_formula_units_Z            2
loop_
_atom_site_label
_atom_site_type_symbol
_atom_site_fract_x
_atom_site_fract_y
_atom_site_fract_z
O1 O 0.47861(17) 0.23761(11) 0.56864(11)
O2 O 0.30818(16) 0.17749(10) 0.71864(11)
H1 H 0.2592 0.1502 0.7640
N1 N 0.24208(19) 0.03065(11) 0.85518(12)
N2 N 0.15856(19) -0.02470(11) 0.92719(12)
C1 C 0.4277(2) 0.11223(14) 0.69686(15)
C2 C 0.5195(2) 0.14299(15) 0.61656(15)
C3 C 0.6395(2) 0.07799(17) 0.59099(17)
H2 H 0.6997 0.0977 0.5369
C4 C 0.6719(2) -0.01642(16) 0.64473(18)
H3 H 0.7542 -0.0592 0.6268
C5 C 0.5847(2) -0.04748(15) 0.72363(17)
H4 H 0.6082 -0.1108 0.7597
C6 C 0.4592(2) 0.01623(13) 0.75048(14)
C7 C 0.5529(3) 0.26528(19) 0.47601(16)
H5 H 0.6672 0.2722 0.4972
H6 H 0.5094 0.3308 0.4468
H7 H 0.5320 0.2114 0.4217
C8 C 0.3612(2) -0.02192(14) 0.82838(15)
H8 H 0.3851 -0.0871 0.8605
C9 C 0.0459(2) 0.02843(13) 0.96279(14)
C10 C 0.0056(2) 0.14018(13) 0.93434(15)
C11 C -0.0776(3) 0.16613(16) 0.83395(17)
H9 H -0.1114 0.1133 0.7842
C12 C -0.1110(3) 0.26938(19) 0.8066(2)
H10 H -0.1656 0.2859 0.7381
C13 C -0.0644(3) 0.34772(17) 0.8795(2)
H11 H -0.0891 0.4174 0.8616
C14 C 0.0186(3) 0.32303(16) 0.97909(19)
H12 H 0.0514 0.3763 1.0286
C15 C 0.0545(2) 0.21959(15) 1.00694(16)
H13 H 0.1117 0.2036 1.0747
O1B O -0.47861(17) -0.23761(11) 1.43136(11)
O2B O -0.30818(16) -0.17749(10) 1.28136(11)
H1B H -0.2592 -0.1502 1.2360
N1B N -0.24208(19) -0.03065(11) 1.14482(12)
N2B N -0.15856(19) 0.02470(11) 1.07281(12)
C1B C -0.4277(2) -0.11223(14) 1.30314(15)
C2B C -0.5195(2) -0.14299(15) 1.38344(15)
C3B C -0.6395(2) -0.07799(17) 1.40901(17)
H2B H -0.6997 -0.0977 1.4631
C4B C -0.6719(2) 0.01642(16) 1.35527(18)
H3B H -0.7542 0.0592 1.3732
C5B C -0.5847(2) 0.04748(15) 1.27637(17)
H4B H -0.6082 0.1108 1.2403
C6B C -0.4592(2) -0.01623(13) 1.24952(14)
C7B C -0.5529(3) -0.26528(19) 1.52399(16)
H5B H -0.6672 -0.2722 1.5028
H6B H -0.5094 -0.3308 1.5532
H7B H -0.5320 -0.2114 1.5783
C8B C -0.3612(2) 0.02192(14) 1.17162(15)
H8B H -0.3851 0.0871 1.1395
C9B C -0.0459(2) -0.02843(13) 1.03721(14)
C10B C -0.0056(2) -0.14018(13) 1.06566(15)
C11B C 0.0776(3) -0.16613(16) 1.16605(17)
H9B H 0.1114 -0.1133 1.2158
C12B C 0.1110(3) -0.26938(19) 1.1934(2)
H10B H 0.1656 -0.2859 1.2619
C13B C 0.0644(3) -0.34772(17) 1.1205(2)
H11B H 0.0891 -0.4174 1.1384
C14B C -0.0186(3) -0.32303(16) 1.02091(19)
H12B H -0.0514 -0.3763 0.9714
C15B C -0.0545(2) -0.21959(15) 0.99306(16)
H13B H -0.1117 -0.2036 0.9253
loop_
_geom_bond_atom_site_label_1
_geom_bond_atom_site_label_2
_geom_bond_site_symmetry_1
_geom_bond_site_symmetry_2
O1 C2 1_555 1_555
O2 H1 1_555 1_555
N1 N2 1_555 1_555
N2 C9 1_555 1_555
C1 O2 1_555 1_555
C2 C1 1_555 1_555
C3 C2 1_555 1_555
H2 C3 1_555 1_555
C4 C3 1_555 1_555
H3 C4 1_555 1_555
C5 C4 1_555 1_555
H4 C5 1_555 1_555
C6 C1 1_555 1_555
C7 O1 1_555 1_555
H5 C7 1_555 1_555
H6 C7 1_555 1_555
H7 C7 1_555 1_555
C8 N1 1_555 1_555
H8 C8 1_555 1_555
C9 C10 1_555 1_555
C10 C11 1_555 1_555
C11 H9 1_555 1_555
C12 C11 1_555 1_555
H10 C12 1_555 1_555
C13 C12 1_555 1_555
H11 C13 1_555 1_555
C14 C13 1_555 1_555
H12 C14 1_555 1_555
C15 C10 1_555 1_555
H13 C15 1_555 1_555
O1B C2B 1_555 1_555
O2B H1B 1_555 1_555
N1B N2B 1_555 1_555
N2B C9B 1_555 1_555
C1B O2B 1_555 1_555
C2B C1B 1_555 1_555
C3B C2B 1_555 1_555
H2B C3B 1_555 1_555
C4B C3B 1_555 1_555
H3B C4B 1_555 1_555
C5B C4B 1_555 1_555
H4B C5B 1_555 1_555
C6B C1B 1_555 1_555
C7B O1B 1_555 1_555
H5B C7B 1_555 1_555
H6B C7B 1_555 1_555
H7B C7B 1_555 1_555
C8B N1B 1_555 1_555
H8B C8B 1_555 1_555
C9B C9 1_555 1_555
C10B C9B 1_555 1_555
C11B C10B 1_555 1_555
H9B C11B 1_555 1_555
C12B C11B 1_555 1_555
H10B C12B 1_555 1_555
C13B C12B 1_555 1_555
H11B C13B 1_555 1_555
C14B C13B 1_555 1_555
H12B C14B 1_555 1_555
C15B C10B 1_555 1_555
H13B C15B 1_555 1_555
C5 C6 1_555 1_555
C6 C8 1_555 1_555
C14 C15 1_555 1_555
C5B C6B 1_555 1_555
C6B C8B 1_555 1_555
C14B C15B 1_555 1_555

#END
