
#######################################################################
#
#                 Cambridge Crystallographic Data Centre
#                                CCDC 
#
#######################################################################
#
# If this CIF has been generated from an entry in the Cambridge 
# Structural Database, then it will include bibliographic, chemical, 
# crystal, experimental, refinement or atomic coordinate data resulting 
# from the CCDC's data processing and validation procedures.
#
#######################################################################

data_WOBBIZ01
_chemical_formula_moiety         'C6 H16 O1 Si1,0.5(H2 O1)'
_chemical_name_systematic        't-butyl(dimethyl)silanol hemihydrate'
_symmetry_cell_setting           monoclinic
_symmetry_space_group_name_H-M   'P 21/c'
_symmetry_Int_Tables_number      14
_space_group_name_Hall           '-P 2ybc'
loop_
_symmetry_equiv_pos_site_id
_symmetry_equiv_pos_as_xyz
1 x,y,z
2 -x,1/2+y,1/2-z
3 -x,-y,-z
4 x,1/2-y,1/2+z
_cell_length_a                   7.7122(4)
_cell_length_b                   22.1072(11)
_cell_length_c                   11.0668(6)
_cell_angle_alpha                90
_cell_angle_beta                 90.560(2)
_cell_angle_gamma                90
_cell_volume                     1886.75
_exptl_crystal_colour            colorless
_exptl_crystal_description       block
_cell_formula_units_Z            8
loop_
_atom_site_label
_atom_site_type_symbol
_atom_site_fract_x
_atom_site_fract_y
_atom_site_fract_z
Si1 Si 0.58585(7) 0.40288(2) 0.74139(5)
C1 C 0.5216(4) 0.44907(11) 0.8735(2)
H1 H 0.5893 0.4866 0.8751
H2 H 0.5438 0.4262 0.9480
H3 H 0.3979 0.4588 0.8674
O1 O 0.53995(19) 0.43946(7) 0.61505(14)
H4 H 0.4324 0.4451 0.6100
C2 C 0.8238(3) 0.39094(12) 0.7439(2)
H5 H 0.8568 0.3659 0.6748
H6 H 0.8576 0.3705 0.8191
H7 H 0.8828 0.4301 0.7391
C3 C 0.4981(4) 0.29352(10) 0.8538(2)
H8 H 0.4345 0.2552 0.8505
H9 H 0.4598 0.3170 0.9237
H10 H 0.6226 0.2853 0.8613
C4 C 0.5183(4) 0.29142(11) 0.6298(2)
H11 H 0.6419 0.2818 0.6373
H12 H 0.4977 0.3143 0.5552
H13 H 0.4509 0.2539 0.6275
C5 C 0.2679(3) 0.34238(12) 0.7282(3)
H14 H 0.2039 0.3041 0.7254
H15 H 0.2440 0.3655 0.6544
H16 H 0.2312 0.3659 0.7986
C6 C 0.4627(3) 0.32939(9) 0.73808(18)
Si2 Si -0.08389(7) 0.37813(2) 0.30728(5)
O2 O -0.0298(2) 0.43966(7) 0.38320(15)
H17 H 0.0722 0.4362 0.4096
C7 C 0.0396(3) 0.37806(8) 0.16164(19)
C8 C -0.3215(3) 0.38224(11) 0.2800(3)
H18 H -0.3815 0.3839 0.3576
H19 H -0.3596 0.3464 0.2350
H20 H -0.3489 0.4186 0.2330
C9 C -0.0276(4) 0.31016(11) 0.3981(2)
H21 H 0.0952 0.3118 0.4214
H22 H -0.0494 0.2737 0.3499
H23 H -0.0990 0.3091 0.4708
C10 C -0.0017(4) 0.43515(10) 0.0889(2)
H24 H 0.0662 0.4352 0.0145
H25 H 0.0278 0.4709 0.1371
H26 H -0.1256 0.4359 0.0684
C11 C 0.2347(3) 0.37692(11) 0.1903(2)
H27 H 0.2633 0.3399 0.2350
H28 H 0.2655 0.4123 0.2395
H29 H 0.2998 0.3779 0.1147
C12 C -0.0083(3) 0.32227(10) 0.0857(2)
H30 H 0.0568 0.3229 0.0102
H31 H -0.1329 0.3228 0.0675
H32 H 0.0205 0.2855 0.1312
O3 O 0.25008(18) 0.48334(7) 0.50514(14)
H33 H 0.193(3) 0.5077(9) 0.541(2)
H34 H 0.307(3) 0.5041(10) 0.4601(19)
loop_
_geom_bond_atom_site_label_1
_geom_bond_atom_site_label_2
_geom_bond_site_symmetry_1
_geom_bond_site_symmetry_2
Si1 C1 1_555 1_555
C1 H1 1_555 1_555
H2 C1 1_555 1_555
H3 C1 1_555 1_555
O1 Si1 1_555 1_555
H4 O1 1_555 1_555
C2 Si1 1_555 1_555
H5 C2 1_555 1_555
H6 C2 1_555 1_555
H7 C2 1_555 1_555
C3 H8 1_555 1_555
H9 C3 1_555 1_555
H10 C3 1_555 1_555
C4 H11 1_555 1_555
H12 C4 1_555 1_555
H13 C4 1_555 1_555
C5 H14 1_555 1_555
H15 C5 1_555 1_555
H16 C5 1_555 1_555
C6 Si1 1_555 1_555
Si2 O2 1_555 1_555
O2 H17 1_555 1_555
C7 Si2 1_555 1_555
C8 Si2 1_555 1_555
H18 C8 1_555 1_555
H19 C8 1_555 1_555
H20 C8 1_555 1_555
C9 Si2 1_555 1_555
H21 C9 1_555 1_555
H22 C9 1_555 1_555
H23 C9 1_555 1_555
C10 C7 1_555 1_555
H24 C10 1_555 1_555
H25 C10 1_555 1_555
H26 C10 1_555 1_555
C11 C7 1_555 1_555
H27 C11 1_555 1_555
H28 C11 1_555 1_555
H29 C11 1_555 1_555
C12 C7 1_555 1_555
H30 C12 1_555 1_555
H31 C12 1_555 1_555
H32 C12 1_555 1_555
O3 H33 1_555 1_555
H34 O3 1_555 1_555
C3 C6 1_555 1_555
C4 C6 1_555 1_555
C5 C6 1_555 1_555

#END
