
#######################################################################
#
#                 Cambridge Crystallographic Data Centre
#                                CCDC 
#
#######################################################################
#
# If this CIF has been generated from an entry in the Cambridge 
# Structural Database, then it will include bibliographic, chemical, 
# crystal, experimental, refinement or atomic coordinate data resulting 
# from the CCDC's data processing and validation procedures.
#
#######################################################################

data_WOBMEH
_chemical_formula_moiety         'C20 H19 Cl1 N2 O4'
_chemical_name_systematic        
'dimethyl amino((2-chlorophenyl)(1H-indol-3-yl)methyl)malonate'
_symmetry_cell_setting           monoclinic
_symmetry_space_group_name_H-M   'P 21'
_symmetry_Int_Tables_number      4
_space_group_name_Hall           'P 2yb'
loop_
_symmetry_equiv_pos_site_id
_symmetry_equiv_pos_as_xyz
1 x,y,z
2 -x,1/2+y,-z
_cell_length_a                   11.1925(12)
_cell_length_b                   8.1206(9)
_cell_length_c                   21.465(2)
_cell_angle_alpha                90
_cell_angle_beta                 101.402(3)
_cell_angle_gamma                90
_cell_volume                     1912.45
_exptl_crystal_colour            colorless
_exptl_crystal_description       Prism
_cell_formula_units_Z            4
loop_
_atom_site_label
_atom_site_type_symbol
_atom_site_fract_x
_atom_site_fract_y
_atom_site_fract_z
Cl1 Cl -0.01424(6) 0.12053(17) 0.12324(5)
O1 O 0.28445(16) 0.3971(2) 0.04352(11)
O2 O 0.43091(17) 0.2705(3) 0.00556(10)
O3 O 0.11303(15) 0.1412(3) -0.00094(9)
O4 O 0.2001(2) -0.1020(3) 0.00035(12)
N1 N 0.52935(19) 0.3680(3) 0.22771(11)
H1 H 0.6010 0.4109 0.2352
N2 N 0.41407(18) -0.0027(3) 0.07460(10)
H2 H 0.4553 0.0109 0.0435
H3 H 0.3867 -0.1057 0.0740
C1 C 0.4493(2) 0.3716(4) 0.26794(13)
C2 C 0.4611(3) 0.4416(5) 0.32829(15)
H4 H 0.5324 0.4941 0.3480
C3 C 0.3619(4) 0.4290(5) 0.35723(16)
H5 H 0.3665 0.4747 0.3974
C4 C 0.2557(4) 0.3502(5) 0.32815(17)
H6 H 0.1906 0.3441 0.3491
C5 C 0.2446(3) 0.2812(4) 0.26916(14)
H7 H 0.1726 0.2290 0.2501
C6 C 0.3425(2) 0.2899(3) 0.23779(12)
C7 C 0.3637(2) 0.2342(3) 0.17728(11)
C8 C 0.4773(2) 0.2847(4) 0.17315(12)
H8 H 0.5144 0.2660 0.1387
C9 C 0.26741(18) 0.1496(3) 0.12859(11)
H9 H 0.1993 0.2270 0.1179
C10 C 0.2176(2) -0.0036(3) 0.15570(11)
C11 C 0.2956(3) -0.1244(4) 0.18507(15)
H10 H 0.3791 -0.1098 0.1887
C12 C 0.2539(4) -0.2670(5) 0.20948(18)
H11 H 0.3083 -0.3465 0.2292
C13 C 0.1283(4) -0.2882(6) 0.20376(19)
H12 H 0.0984 -0.3858 0.2174
C14 C 0.0504(4) -0.1685(6) 0.17862(18)
H13 H -0.0325 -0.1800 0.1779
C15 C 0.0937(2) -0.0282(4) 0.15389(13)
C16 C 0.31102(18) 0.1108(3) 0.06520(10)
C17 C 0.3498(2) 0.2673(3) 0.03486(11)
C18 C 0.3170(4) 0.5494(5) 0.0167(3)
H14 H 0.4009 0.5745 0.0340
H15 H 0.2662 0.6365 0.0269
H16 H 0.3057 0.5387 -0.0286
C19 C 0.2015(2) 0.0361(3) 0.01748(11)
C20 C 0.0041(2) 0.0756(5) -0.04162(17)
H17 H 0.0256 0.0250 -0.0783
H18 H -0.0526 0.1634 -0.0549
H19 H -0.0325 -0.0050 -0.0186
Cl2 Cl 0.74970(8) 0.62795(15) 0.46864(5)
O5 O 0.98604(16) 0.9050(3) 0.36081(10)
O6 O 0.9761(2) 1.1741(4) 0.34028(13)
O7 O 0.9250(2) 0.9705(4) 0.47888(9)
O8 O 0.7826(3) 1.1544(6) 0.47820(15)
N3 N 0.6391(2) 0.8821(4) 0.18401(12)
H20 H 0.6011 0.9239 0.1488
N4 N 0.7377(2) 1.1891(3) 0.34966(15)
H21 H 0.7873 1.2661 0.3397
H22 H 0.6963 1.2298 0.3775
C21 C 0.75127(19) 0.7141(4) 0.25544(11)
C22 C 0.8218(2) 0.5751(4) 0.27419(13)
H23 H 0.8574 0.5596 0.3167
C23 C 0.8384(3) 0.4605(5) 0.22933(15)
H24 H 0.8865 0.3682 0.2417
C24 C 0.7837(3) 0.4815(5) 0.16526(15)
H25 H 0.7943 0.4013 0.1359
C25 C 0.7151(3) 0.6171(5) 0.14504(13)
H26 H 0.6794 0.6309 0.1024
C26 C 0.7001(2) 0.7346(4) 0.19032(12)
C27 C 0.6483(3) 0.9514(5) 0.24228(14)
H27 H 0.6130 1.0511 0.2500
C28 C 0.7162(2) 0.8550(4) 0.28787(12)
C29 C 0.74390(19) 0.8798(3) 0.35911(11)
H28 H 0.8009 0.7927 0.3773
C30 C 0.6314(2) 0.8631(4) 0.38910(12)
C31 C 0.5279(2) 0.9571(5) 0.36771(16)
H29 H 0.5263 1.0292 0.3339
C32 C 0.4260(3) 0.9454(5) 0.39600(19)
H30 H 0.3580 1.0105 0.3812
C33 C 0.4256(3) 0.8406(5) 0.44456(19)
H31 H 0.3572 0.8328 0.4629
C34 C 0.5254(3) 0.7462(4) 0.46673(15)
H32 H 0.5256 0.6742 0.5004
C35 C 0.6269(2) 0.7578(4) 0.43884(12)
C36 C 0.8095(2) 1.0485(4) 0.37784(13)
C37 C 0.9330(2) 1.0508(4) 0.35686(12)
C38 C 1.1109(3) 0.9020(8) 0.3529(2)
H33 H 1.1178 0.9616 0.3151
H34 H 1.1361 0.7901 0.3492
H35 H 1.1619 0.9525 0.3891
C39 C 0.8368(2) 1.0662(4) 0.45080(14)
C40 C 0.9528(5) 0.9787(9) 0.54817(16)
H36 H 0.9808 1.0874 0.5613
H37 H 1.0152 0.9000 0.5644
H38 H 0.8807 0.9542 0.5643
loop_
_geom_bond_atom_site_label_1
_geom_bond_atom_site_label_2
_geom_bond_site_symmetry_1
_geom_bond_site_symmetry_2
Cl1 C15 1_555 1_555
O1 C17 1_555 1_555
O2 C17 1_555 1_555
O3 C19 1_555 1_555
O4 C19 1_555 1_555
N1 H1 1_555 1_555
N2 H2 1_555 1_555
H3 N2 1_555 1_555
C1 N1 1_555 1_555
C2 C1 1_555 1_555
H4 C2 1_555 1_555
C3 C2 1_555 1_555
H5 C3 1_555 1_555
C4 C3 1_555 1_555
H6 C4 1_555 1_555
C5 C4 1_555 1_555
H7 C5 1_555 1_555
C6 C1 1_555 1_555
C7 C6 1_555 1_555
C8 N1 1_555 1_555
H8 C8 1_555 1_555
C9 C7 1_555 1_555
H9 C9 1_555 1_555
C10 C9 1_555 1_555
C11 C10 1_555 1_555
H10 C11 1_555 1_555
C12 C11 1_555 1_555
H11 C12 1_555 1_555
C13 C12 1_555 1_555
H12 C13 1_555 1_555
C14 C13 1_555 1_555
H13 C14 1_555 1_555
C15 C10 1_555 1_555
C16 N2 1_555 1_555
C17 C16 1_555 1_555
C18 O1 1_555 1_555
H14 C18 1_555 1_555
H15 C18 1_555 1_555
H16 C18 1_555 1_555
C19 C16 1_555 1_555
C20 O3 1_555 1_555
H17 C20 1_555 1_555
H18 C20 1_555 1_555
H19 C20 1_555 1_555
Cl2 C35 1_555 1_555
O5 C37 1_555 1_555
O6 C37 1_555 1_555
O7 C39 1_555 1_555
O8 C39 1_555 1_555
N3 H20 1_555 1_555
N4 H21 1_555 1_555
H22 N4 1_555 1_555
C21 C22 1_555 1_555
C22 H23 1_555 1_555
C23 C22 1_555 1_555
H24 C23 1_555 1_555
C24 C23 1_555 1_555
H25 C24 1_555 1_555
C25 C24 1_555 1_555
H26 C25 1_555 1_555
C26 N3 1_555 1_555
C27 N3 1_555 1_555
H27 C27 1_555 1_555
C28 C21 1_555 1_555
C29 C28 1_555 1_555
H28 C29 1_555 1_555
C30 C29 1_555 1_555
C31 C30 1_555 1_555
H29 C31 1_555 1_555
C32 C31 1_555 1_555
H30 C32 1_555 1_555
C33 C32 1_555 1_555
H31 C33 1_555 1_555
C34 C33 1_555 1_555
H32 C34 1_555 1_555
C35 C30 1_555 1_555
C36 N4 1_555 1_555
C37 C36 1_555 1_555
C38 O5 1_555 1_555
H33 C38 1_555 1_555
H34 C38 1_555 1_555
H35 C38 1_555 1_555
C39 C36 1_555 1_555
C40 O7 1_555 1_555
H36 C40 1_555 1_555
H37 C40 1_555 1_555
H38 C40 1_555 1_555
C5 C6 1_555 1_555
C7 C8 1_555 1_555
C9 C16 1_555 1_555
C14 C15 1_555 1_555
C21 C26 1_555 1_555
C25 C26 1_555 1_555
C27 C28 1_555 1_555
C29 C36 1_555 1_555
C34 C35 1_555 1_555

#END
