
#######################################################################
#
#                 Cambridge Crystallographic Data Centre
#                                CCDC 
#
#######################################################################
#
# If this CIF has been generated from an entry in the Cambridge 
# Structural Database, then it will include bibliographic, chemical, 
# crystal, experimental, refinement or atomic coordinate data resulting 
# from the CCDC's data processing and validation procedures.
#
#######################################################################

data_WOBPEJ
_chemical_compound_source        'Solanum torvum'
_chemical_formula_moiety         'C33 H52 O8,C1 H4 O1,H2 O1'
_chemical_name_systematic        
'(5S,6S,8S,9S,10R,13S,14S,16S,17R,20S,22R,25S,28R,29R,30S,31S,32R)-Solagenin 6-O-(\b-D-quinovopyranoside) methanol solvate monohydrate'
_symmetry_cell_setting           orthorhombic
_symmetry_space_group_name_H-M   'P 21 21 21'
_symmetry_Int_Tables_number      19
_space_group_name_Hall           'P 2ac 2ab'
loop_
_symmetry_equiv_pos_site_id
_symmetry_equiv_pos_as_xyz
1 x,y,z
2 1/2-x,-y,1/2+z
3 -x,1/2+y,1/2-z
4 1/2+x,1/2-y,-z
_cell_length_a                   7.5592(14)
_cell_length_b                   8.5213(18)
_cell_length_c                   53.122(3)
_cell_angle_alpha                90
_cell_angle_beta                 90
_cell_angle_gamma                90
_cell_volume                     3421.81
_exptl_crystal_colour            colorless
_exptl_crystal_description       prism
_chemical_melting_point          '448-449 K'
_cell_formula_units_Z            4
_exptl_crystal_recrystallization_method methanol
loop_
_atom_site_label
_atom_site_type_symbol
_atom_site_fract_x
_atom_site_fract_y
_atom_site_fract_z
O1 O -0.5460(7) 0.6874(5) -0.16118(8)
O2 O -0.9610(4) 0.2878(4) -0.17793(5)
O3 O -1.1193(4) -0.3895(4) -0.07779(6)
O4 O -1.2219(5) -0.3889(4) -0.03634(6)
O5 O -1.1931(4) 0.1549(4) -0.19475(5)
O6 O -0.8404(4) 0.3702(4) -0.22699(5)
H1 H -0.7960 0.3032 -0.2361
O7 O -1.1347(4) 0.3895(4) -0.26146(5)
H2 H -1.1418 0.3544 -0.2758
O8 O -1.3624(4) 0.1206(4) -0.25974(6)
H3 H -1.2966 0.0515 -0.2650
C1 C -0.4827(7) 0.3848(7) -0.11884(9)
H4 H -0.5625 0.4475 -0.1087
H5 H -0.3941 0.3405 -0.1077
C2 C -0.3913(7) 0.4910(7) -0.13798(10)
H6 H -0.3398 0.5803 -0.1293
H7 H -0.2964 0.4336 -0.1461
C3 C -0.5195(8) 0.5482(8) -0.15758(11)
C4 C -0.6237(7) 0.4213(7) -0.16992(9)
H8 H -0.5457 0.3548 -0.1797
H9 H -0.7105 0.4669 -0.1812
C5 C -0.7178(6) 0.3229(6) -0.14962(8)
H10 H -0.7909 0.3961 -0.1399
C6 C -0.8446(6) 0.2046(6) -0.16148(8)
H11 H -0.7771 0.1271 -0.1712
C7 C -0.9488(6) 0.1221(6) -0.14101(8)
H12 H -1.0242 0.0432 -0.1486
H13 H -1.0243 0.1978 -0.1326
C8 C -0.8278(6) 0.0434(5) -0.12146(8)
H14 H -0.7582 -0.0380 -0.1299
C9 C -0.6999(6) 0.1659(6) -0.11042(8)
H15 H -0.7746 0.2474 -0.1029
C10 C -0.5878(6) 0.2503(6) -0.13108(8)
C11 C -0.5895(7) 0.0985(7) -0.08873(9)
H16 H -0.5062 0.0230 -0.0955
H17 H -0.5219 0.1828 -0.0811
C12 C -0.6997(7) 0.0190(7) -0.06845(9)
H18 H -0.7729 0.0967 -0.0601
H19 H -0.6219 -0.0270 -0.0560
C13 C -0.8177(6) -0.1089(6) -0.07968(8)
C14 C -0.9340(6) -0.0335(6) -0.10013(8)
H20 H -0.9996 0.0513 -0.0919
C15 C -1.0692(6) -0.1619(6) -0.10609(9)
H21 H -1.0180 -0.2441 -0.1164
H22 H -1.1726 -0.1194 -0.1145
C16 C -1.1145(6) -0.2219(6) -0.07947(9)
H23 H -1.2270 -0.1771 -0.0738
C17 C -0.9611(6) -0.1692(6) -0.06174(8)
H24 H -1.0020 -0.0828 -0.0511
C18 C -0.9268(7) -0.3157(6) -0.04524(9)
H25 H -0.8160 -0.3634 -0.0510
C19 C -1.0760(7) -0.4262(6) -0.05226(9)
C20 C -1.0308(7) -0.5980(6) -0.05074(9)
H26 H -0.9696 -0.6174 -0.0350
H27 H -0.9500 -0.6235 -0.0643
C21 C -1.1888(8) -0.7059(7) -0.05230(10)
H28 H -1.1531 -0.8112 -0.0476
H29 H -1.2306 -0.7095 -0.0696
C22 C -1.3383(8) -0.6533(7) -0.03538(10)
H30 H -1.4442 -0.7142 -0.0396
C23 C -1.3741(7) -0.4841(7) -0.04093(11)
H31 H -1.4094 -0.4732 -0.0584
H32 H -1.4711 -0.4479 -0.0305
C24 C -0.4616(6) 0.1334(7) -0.14319(9)
H33 H -0.3993 0.1835 -0.1567
H34 H -0.5276 0.0459 -0.1496
H35 H -0.3784 0.0970 -0.1309
C25 C -0.7043(7) -0.2413(7) -0.09013(9)
H36 H -0.7789 -0.3273 -0.0950
H37 H -0.6227 -0.2758 -0.0774
H38 H -0.6399 -0.2044 -0.1045
C26 C -0.9071(9) -0.2804(8) -0.01753(9)
H39 H -0.8894 -0.3766 -0.0085
H40 H -1.0122 -0.2296 -0.0115
H41 H -0.8071 -0.2127 -0.0150
C27 C -1.2951(9) -0.6799(8) -0.00733(11)
H42 H -1.3875 -0.6359 0.0029
H43 H -1.1848 -0.6300 -0.0033
H44 H -1.2860 -0.7905 -0.0041
C28 C -1.0199(6) 0.2118(6) -0.19965(7)
H45 H -0.9413 0.1236 -0.2035
C29 C -1.0186(5) 0.3267(6) -0.22109(8)
H46 H -1.0815 0.4213 -0.2156
C30 C -1.1119(5) 0.2630(5) -0.24406(8)
H47 H -1.0363 0.1833 -0.2519
C31 C -1.2875(5) 0.1887(6) -0.23752(8)
H48 H -1.3672 0.2720 -0.2317
C32 C -1.2652(6) 0.0718(6) -0.21613(8)
H49 H -1.1813 -0.0097 -0.2213
C33 C -1.4338(7) -0.0041(7) -0.20821(11)
H50 H -1.5181 0.0752 -0.2036
H51 H -1.4120 -0.0711 -0.1940
H52 H -1.4800 -0.0654 -0.2219
O9 O -0.1625(7) -0.6952(5) -0.31068(7)
H53 H -0.2480 -0.7281 -0.3186
C34 C -0.0007(11) -0.7724(9) -0.31980(12)
H54 H 0.0401 -0.7206 -0.3348
H55 H -0.0256 -0.8804 -0.3235
H56 H 0.0892 -0.7667 -0.3071
O10 O -0.2825(4) -0.3477(4) -0.23985(7)
H57 H -0.2371 -0.4289 -0.2465
H58 H -0.3944 -0.3578 -0.2400
loop_
_geom_bond_atom_site_label_1
_geom_bond_atom_site_label_2
_geom_bond_site_symmetry_1
_geom_bond_site_symmetry_2
O1 C3 1_555 1_555
O2 C6 1_555 1_555
O3 C16 1_555 1_555
O4 C19 1_555 1_555
O5 C28 1_555 1_555
O6 H1 1_555 1_555
O7 H2 1_555 1_555
O8 H3 1_555 1_555
C1 H4 1_555 1_555
H5 C1 1_555 1_555
C2 C1 1_555 1_555
H6 C2 1_555 1_555
H7 C2 1_555 1_555
C3 C2 1_555 1_555
C4 C3 1_555 1_555
H8 C4 1_555 1_555
H9 C4 1_555 1_555
C5 C4 1_555 1_555
H10 C5 1_555 1_555
C6 C5 1_555 1_555
H11 C6 1_555 1_555
C7 C6 1_555 1_555
H12 C7 1_555 1_555
H13 C7 1_555 1_555
C8 C7 1_555 1_555
H14 C8 1_555 1_555
C9 C8 1_555 1_555
H15 C9 1_555 1_555
C10 C1 1_555 1_555
C11 C9 1_555 1_555
H16 C11 1_555 1_555
H17 C11 1_555 1_555
C12 C11 1_555 1_555
H18 C12 1_555 1_555
H19 C12 1_555 1_555
C13 C12 1_555 1_555
C14 C8 1_555 1_555
H20 C14 1_555 1_555
C15 C14 1_555 1_555
H21 C15 1_555 1_555
H22 C15 1_555 1_555
C16 C15 1_555 1_555
H23 C16 1_555 1_555
C17 C13 1_555 1_555
H24 C17 1_555 1_555
C18 C17 1_555 1_555
H25 C18 1_555 1_555
C19 O3 1_555 1_555
C20 C19 1_555 1_555
H26 C20 1_555 1_555
H27 C20 1_555 1_555
C21 C20 1_555 1_555
H28 C21 1_555 1_555
H29 C21 1_555 1_555
C22 C21 1_555 1_555
H30 C22 1_555 1_555
C23 O4 1_555 1_555
H31 C23 1_555 1_555
H32 C23 1_555 1_555
C24 C10 1_555 1_555
H33 C24 1_555 1_555
H34 C24 1_555 1_555
H35 C24 1_555 1_555
C25 C13 1_555 1_555
H36 C25 1_555 1_555
H37 C25 1_555 1_555
H38 C25 1_555 1_555
C26 C18 1_555 1_555
H39 C26 1_555 1_555
H40 C26 1_555 1_555
H41 C26 1_555 1_555
C27 C22 1_555 1_555
H42 C27 1_555 1_555
H43 C27 1_555 1_555
H44 C27 1_555 1_555
C28 O2 1_555 1_555
H45 C28 1_555 1_555
C29 O6 1_555 1_555
H46 C29 1_555 1_555
C30 O7 1_555 1_555
H47 C30 1_555 1_555
C31 O8 1_555 1_555
H48 C31 1_555 1_555
C32 O5 1_555 1_555
H49 C32 1_555 1_555
C33 C32 1_555 1_555
H50 C33 1_555 1_555
H51 C33 1_555 1_555
H52 C33 1_555 1_555
O9 H53 1_555 1_555
C34 O9 1_555 1_555
H54 C34 1_555 1_555
H55 C34 1_555 1_555
H56 C34 1_555 1_555
O10 H57 1_555 1_555
H58 O10 1_555 1_555
C5 C10 1_555 1_555
C9 C10 1_555 1_555
C13 C14 1_555 1_555
C16 C17 1_555 1_555
C18 C19 1_555 1_555
C22 C23 1_555 1_555
C28 C29 1_555 1_555
C29 C30 1_555 1_555
C30 C31 1_555 1_555
C31 C32 1_555 1_555

#END
