
#######################################################################
#
#                 Cambridge Crystallographic Data Centre
#                                CCDC 
#
#######################################################################
#
# If this CIF has been generated from an entry in the Cambridge 
# Structural Database, then it will include bibliographic, chemical, 
# crystal, experimental, refinement or atomic coordinate data resulting 
# from the CCDC's data processing and validation procedures.
#
#######################################################################

data_WOBRUB
_chemical_formula_moiety         'C25 H22 O2'
_chemical_name_systematic        
9-(4-Methoxyphenyl)-7-phenyl-5,6,9,10-tetrahydro-5,9-epoxybenzo[8]annulene
_symmetry_cell_setting           orthorhombic
_symmetry_space_group_name_H-M   'P 21 21 21'
_symmetry_Int_Tables_number      19
_space_group_name_Hall           'P 2ac 2ab'
loop_
_symmetry_equiv_pos_site_id
_symmetry_equiv_pos_as_xyz
1 x,y,z
2 1/2-x,-y,1/2+z
3 -x,1/2+y,1/2-z
4 1/2+x,1/2-y,-z
_cell_length_a                   6.2225(14)
_cell_length_b                   14.026(3)
_cell_length_c                   21.046(5)
_cell_angle_alpha                90
_cell_angle_beta                 90
_cell_angle_gamma                90
_cell_volume                     1836.83
_exptl_crystal_colour            colorless
_chemical_melting_point          170.2-170.6deg.C
_cell_formula_units_Z            4
loop_
_atom_site_label
_atom_site_type_symbol
_atom_site_fract_x
_atom_site_fract_y
_atom_site_fract_z
C1 C 0.9713(4) 0.41097(13) 0.99102(9)
C2 C 1.1177(4) 0.34129(13) 0.95616(9)
H1 H 1.2655 0.3627 0.9597
H2 H 1.1074 0.2790 0.9760
C3 C 1.0578(4) 0.33314(14) 0.88662(10)
C4 C 1.1978(4) 0.29315(13) 0.84225(10)
H3 H 1.3301 0.2697 0.8555
C5 C 1.1421(5) 0.28805(15) 0.77892(11)
H4 H 1.2363 0.2605 0.7500
C6 C 0.9484(5) 0.32339(17) 0.75835(11)
H5 H 0.9134 0.3216 0.7154
C7 C 0.8055(4) 0.36161(14) 0.80174(10)
H6 H 0.6730 0.3842 0.7880
C8 C 0.8591(4) 0.36647(13) 0.86614(10)
C9 C 0.6990(4) 0.40595(14) 0.91319(9)
H7 H 0.5594 0.3768 0.9039
C10 C 0.6713(4) 0.51377(14) 0.90828(9)
H8 H 0.6520 0.5317 0.8641
H9 H 0.5443 0.5332 0.9316
C11 C 0.8661(4) 0.56371(14) 0.93494(9)
C12 C 1.0048(3) 0.51363(13) 0.96997(8)
H10 H 1.1312 0.5437 0.9824
C13 C 0.9981(4) 0.40859(13) 1.06269(9)
C14 C 0.8368(4) 0.44417(13) 1.10113(10)
H11 H 0.7069 0.4626 1.0830
C15 C 0.8652(4) 0.45297(15) 1.16640(10)
H12 H 0.7547 0.4770 1.1915
C16 C 1.0568(4) 0.42620(15) 1.19398(10)
C17 C 1.2178(4) 0.38889(13) 1.15710(10)
H13 H 1.3464 0.3694 1.1755
C18 C 1.1868(4) 0.38040(13) 1.09167(10)
H14 H 1.2965 0.3550 1.0669
C19 C 1.2735(4) 0.43044(17) 1.28777(11)
H15 H 1.3727 0.4735 1.2679
H16 H 1.3247 0.3662 1.2832
H17 H 1.2615 0.4457 1.3321
C20 C 0.8860(4) 0.66807(15) 0.92269(9)
C21 C 0.7156(4) 0.71902(16) 0.89667(10)
H18 H 0.5923 0.6866 0.8842
C22 C 0.7256(5) 0.81726(17) 0.88899(11)
H19 H 0.6092 0.8500 0.8719
C23 C 0.9064(5) 0.86568(16) 0.90654(11)
H20 H 0.9128 0.9315 0.9016
C24 C 1.0793(5) 0.81727(17) 0.93156(10)
H21 H 1.2035 0.8501 0.9429
C25 C 1.0673(4) 0.71949(15) 0.93977(9)
H22 H 1.1841 0.6874 0.9572
O1 O 0.7536(2) 0.38204(8) 0.97732(6)
O2 O 1.0694(3) 0.43903(11) 1.25852(7)
loop_
_geom_bond_atom_site_label_1
_geom_bond_atom_site_label_2
_geom_bond_site_symmetry_1
_geom_bond_site_symmetry_2
C1 C2 1_555 1_555
C2 H1 1_555 1_555
H2 C2 1_555 1_555
C3 C2 1_555 1_555
C4 C3 1_555 1_555
H3 C4 1_555 1_555
C5 C4 1_555 1_555
H4 C5 1_555 1_555
C6 C5 1_555 1_555
H5 C6 1_555 1_555
C7 C6 1_555 1_555
H6 C7 1_555 1_555
C8 C3 1_555 1_555
C9 C8 1_555 1_555
H7 C9 1_555 1_555
C10 C9 1_555 1_555
H8 C10 1_555 1_555
H9 C10 1_555 1_555
C11 C10 1_555 1_555
C12 C1 1_555 1_555
H10 C12 1_555 1_555
C13 C1 1_555 1_555
C14 C13 1_555 1_555
H11 C14 1_555 1_555
C15 C14 1_555 1_555
H12 C15 1_555 1_555
C16 C15 1_555 1_555
C17 C16 1_555 1_555
H13 C17 1_555 1_555
C18 C13 1_555 1_555
H14 C18 1_555 1_555
C19 H15 1_555 1_555
H16 C19 1_555 1_555
H17 C19 1_555 1_555
C20 C11 1_555 1_555
C21 C20 1_555 1_555
H18 C21 1_555 1_555
C22 C21 1_555 1_555
H19 C22 1_555 1_555
C23 C22 1_555 1_555
H20 C23 1_555 1_555
C24 C23 1_555 1_555
H21 C24 1_555 1_555
C25 C20 1_555 1_555
H22 C25 1_555 1_555
O1 C1 1_555 1_555
O2 C16 1_555 1_555
C7 C8 1_555 1_555
C9 O1 1_555 1_555
C11 C12 1_555 1_555
C17 C18 1_555 1_555
C19 O2 1_555 1_555
C24 C25 1_555 1_555

#END
