
#######################################################################
#
#                 Cambridge Crystallographic Data Centre
#                                CCDC 
#
#######################################################################
#
# If this CIF has been generated from an entry in the Cambridge 
# Structural Database, then it will include bibliographic, chemical, 
# crystal, experimental, refinement or atomic coordinate data resulting 
# from the CCDC's data processing and validation procedures.
#
#######################################################################

data_WOBXOA
_chemical_formula_moiety         'C26 H20 N2 S2'
_chemical_name_systematic        1,2-bis(8-Quinolylthiomethyl)benzene
_symmetry_cell_setting           triclinic
_symmetry_space_group_name_H-M   'P -1'
_symmetry_Int_Tables_number      2
_space_group_name_Hall           '-P 1'
loop_
_symmetry_equiv_pos_site_id
_symmetry_equiv_pos_as_xyz
1 x,y,z
2 -x,-y,-z
_cell_length_a                   9.230(8)
_cell_length_b                   10.907(6)
_cell_length_c                   12.056(12)
_cell_angle_alpha                112.68(6)
_cell_angle_beta                 95.20(7)
_cell_angle_gamma                106.05(6)
_cell_volume                     1049.23
_exptl_crystal_colour            colorless
_exptl_crystal_description       block
_cell_formula_units_Z            2
_exptl_crystal_recrystallization_method acetonitrile/chloroform
loop_
_atom_site_label
_atom_site_type_symbol
_atom_site_fract_x
_atom_site_fract_y
_atom_site_fract_z
S1 S -0.10278(9) 0.91292(7) 0.76344(7)
S2 S 0.02814(9) 0.66576(7) 0.35767(6)
N1 N -0.3535(3) 0.7449(2) 0.5271(2)
N2 N -0.0544(2) 0.4118(2) 0.13568(19)
C1 C -0.4562(4) 0.6779(3) 0.4217(3)
H1 H -0.4222 0.6834 0.3503
C2 C -0.6117(4) 0.6011(3) 0.4061(3)
H2 H -0.6806 0.5548 0.3263
C3 C -0.6609(4) 0.5918(3) 0.5063(3)
H3 H -0.7670 0.5409 0.4992
C4 C -0.5570(3) 0.6588(3) 0.6214(3)
C5 C -0.4027(3) 0.7364(3) 0.6289(3)
C6 C -0.6011(4) 0.6529(3) 0.7290(3)
H4 H -0.7057 0.6004 0.7242
C7 C -0.4978(4) 0.7206(4) 0.8381(3)
H5 H -0.5291 0.7166 0.9108
C8 C -0.3443(4) 0.7972(3) 0.8463(3)
H6 H -0.2723 0.8450 0.9247
C9 C -0.2954(3) 0.8059(3) 0.7444(3)
C10 C -0.0182(3) 0.7842(3) 0.6765(2)
H7 H -0.0805 0.7270 0.5944
H8 H -0.0115 0.7237 0.7158
C11 C 0.1406(3) 0.8656(2) 0.6724(2)
C12 C 0.2627(3) 0.9180(3) 0.7736(2)
H9 H 0.2438 0.8995 0.8436
C13 C 0.4093(3) 0.9954(3) 0.7746(3)
H10 H 0.4917 1.0300 0.8452
C14 C 0.4368(3) 1.0232(3) 0.6750(3)
H11 H 0.5393 1.0755 0.6751
C15 C 0.3171(3) 0.9740(3) 0.5745(3)
H12 H 0.3353 0.9951 0.5057
C16 C 0.1682(3) 0.8961(2) 0.5722(2)
C17 C 0.0417(3) 0.8442(3) 0.4598(2)
H13 H -0.0543 0.8427 0.4850
H14 H 0.0629 0.9051 0.4189
C18 C -0.1026(3) 0.6303(2) 0.2248(2)
C19 C -0.1772(3) 0.7182(3) 0.2125(2)
H15 H -0.1612 0.8062 0.2818
C20 C -0.2750(3) 0.6826(3) 0.1010(3)
H16 H -0.3263 0.7462 0.0955
C21 C -0.2993(3) 0.5599(3) 0.0010(3)
H17 H -0.3663 0.5373 -0.0750
C22 C -0.2260(3) 0.4652(3) 0.0091(2)
C23 C -0.1278(3) 0.4990(2) 0.1215(2)
C24 C -0.2437(3) 0.3364(3) -0.0913(2)
H18 H -0.3081 0.3097 -0.1697
C25 C -0.1700(3) 0.2509(3) -0.0764(3)
H19 H -0.1814 0.1625 -0.1435
C26 C -0.0770(3) 0.2927(3) 0.0387(3)
H20 H -0.0246 0.2313 0.0479
loop_
_geom_bond_atom_site_label_1
_geom_bond_atom_site_label_2
_geom_bond_site_symmetry_1
_geom_bond_site_symmetry_2
S1 C9 1_555 1_555
S2 C17 1_555 1_555
N1 C1 1_555 1_555
N2 C23 1_555 1_555
C1 H1 1_555 1_555
C2 C1 1_555 1_555
H2 C2 1_555 1_555
C3 C2 1_555 1_555
H3 C3 1_555 1_555
C4 C3 1_555 1_555
C5 N1 1_555 1_555
C6 C4 1_555 1_555
H4 C6 1_555 1_555
C7 C6 1_555 1_555
H5 C7 1_555 1_555
C8 C7 1_555 1_555
H6 C8 1_555 1_555
C9 C5 1_555 1_555
C10 S1 1_555 1_555
H7 C10 1_555 1_555
H8 C10 1_555 1_555
C11 C10 1_555 1_555
C12 C11 1_555 1_555
H9 C12 1_555 1_555
C13 C12 1_555 1_555
H10 C13 1_555 1_555
C14 C13 1_555 1_555
H11 C14 1_555 1_555
C15 C14 1_555 1_555
H12 C15 1_555 1_555
C16 C11 1_555 1_555
C17 C16 1_555 1_555
H13 C17 1_555 1_555
H14 C17 1_555 1_555
C18 S2 1_555 1_555
C19 C18 1_555 1_555
H15 C19 1_555 1_555
C20 C19 1_555 1_555
H16 C20 1_555 1_555
C21 C20 1_555 1_555
H17 C21 1_555 1_555
C22 C21 1_555 1_555
C23 C18 1_555 1_555
C24 C22 1_555 1_555
H18 C24 1_555 1_555
C25 C24 1_555 1_555
H19 C25 1_555 1_555
C26 N2 1_555 1_555
H20 C26 1_555 1_555
C4 C5 1_555 1_555
C8 C9 1_555 1_555
C15 C16 1_555 1_555
C22 C23 1_555 1_555
C25 C26 1_555 1_555

#END
