
#######################################################################
#
#                 Cambridge Crystallographic Data Centre
#                                CCDC 
#
#######################################################################
#
# If this CIF has been generated from an entry in the Cambridge 
# Structural Database, then it will include bibliographic, chemical, 
# crystal, experimental, refinement or atomic coordinate data resulting 
# from the CCDC's data processing and validation procedures.
#
#######################################################################

data_WOBXUG
_chemical_formula_moiety         'C17 H13 N1 O4'
_chemical_name_systematic        7-Methoxy-3-(salicylideneamino)coumarin
_symmetry_cell_setting           monoclinic
_symmetry_space_group_name_H-M   'P 21/n'
_symmetry_Int_Tables_number      14
_space_group_name_Hall           '-P 2yn'
loop_
_symmetry_equiv_pos_site_id
_symmetry_equiv_pos_as_xyz
1 x,y,z
2 1/2+x,1/2-y,1/2+z
3 -x,-y,-z
4 1/2-x,1/2+y,1/2-z
_cell_length_a                   6.6600(10)
_cell_length_b                   31.984(8)
_cell_length_c                   7.123(2)
_cell_angle_alpha                90
_cell_angle_beta                 114.93(2)
_cell_angle_gamma                90
_cell_volume                     1375.92
_exptl_crystal_colour            yellow
_exptl_crystal_description       plate
_chemical_melting_point          410-411K
_cell_formula_units_Z            4
_exptl_crystal_recrystallization_method benzene
loop_
_atom_site_label
_atom_site_type_symbol
_atom_site_fract_x
_atom_site_fract_y
_atom_site_fract_z
O1 O 1.1196(3) 0.21420(10) 0.7412(4)
O2 O 1.2663(4) 0.27570(10) 0.7495(5)
O3 O 0.8488(4) 0.07680(10) 0.7442(4)
O4 O 0.6349(5) 0.37850(10) 0.8008(5)
N1 N 0.8780(4) 0.31800(10) 0.7586(4)
C1 C 0.9576(5) 0.39000(10) 0.7389(5)
C2 C 0.7764(6) 0.40490(10) 0.7712(5)
C3 C 0.7418(7) 0.44730(10) 0.7733(6)
C4 C 0.8810(7) 0.47530(10) 0.7440(6)
C5 C 1.0596(6) 0.46150(10) 0.7103(6)
C6 C 1.0964(6) 0.41930(10) 0.7081(5)
C7 C 1.0050(5) 0.34620(10) 0.7364(5)
C8 C 1.1100(5) 0.25700(10) 0.7495(5)
C9 C 0.9126(5) 0.27510(10) 0.7584(4)
C10 C 0.7575(5) 0.24940(10) 0.7712(5)
C11 C 0.7766(5) 0.20500(10) 0.7683(5)
C12 C 0.9594(5) 0.18820(10) 0.7502(5)
C13 C 0.9919(5) 0.14610(10) 0.7396(5)
C14 C 0.8375(5) 0.11900(10) 0.7512(5)
C15 C 0.6499(6) 0.13470(10) 0.7704(5)
C16 C 0.6213(5) 0.17660(10) 0.7782(5)
C17 C 1.0282(6) 0.05970(10) 0.7112(7)
H1 H 0.6217 0.4570 0.7950
H2 H 0.6690 0.3543 0.7891
H3 H 0.8552 0.5038 0.7468
H4 H 1.1537 0.4806 0.6893
H5 H 1.2167 0.4099 0.6856
H6 H 1.1297 0.3380 0.7184
H7 H 0.6349 0.2609 0.7823
H8 H 1.1156 0.1360 0.7248
H9 H 0.5451 0.1164 0.7777
H10 H 0.4961 0.1866 0.7903
H11 H 1.0332 0.0724 0.5911
H12 H 1.0081 0.0301 0.6904
H13 H 1.1644 0.0652 0.8299
loop_
_geom_bond_atom_site_label_1
_geom_bond_atom_site_label_2
_geom_bond_site_symmetry_1
_geom_bond_site_symmetry_2
O1 C8 1_555 1_555
O2 C8 1_555 1_555
O3 C14 1_555 1_555
O4 C2 1_555 1_555
N1 C7 1_555 1_555
C1 C2 1_555 1_555
C2 C3 1_555 1_555
C3 C4 1_555 1_555
C4 C5 1_555 1_555
C5 C6 1_555 1_555
C6 C1 1_555 1_555
C7 C1 1_555 1_555
C8 C9 1_555 1_555
C9 N1 1_555 1_555
C10 C9 1_555 1_555
C11 C10 1_555 1_555
C12 O1 1_555 1_555
C13 C12 1_555 1_555
C14 C13 1_555 1_555
C15 C14 1_555 1_555
C16 C11 1_555 1_555
C17 O3 1_555 1_555
H1 C3 1_555 1_555
H2 O4 1_555 1_555
H3 C4 1_555 1_555
H4 C5 1_555 1_555
H5 C6 1_555 1_555
H6 C7 1_555 1_555
H7 C10 1_555 1_555
H8 C13 1_555 1_555
H9 C15 1_555 1_555
H10 C16 1_555 1_555
H11 C17 1_555 1_555
H12 C17 1_555 1_555
H13 C17 1_555 1_555
C11 C12 1_555 1_555
C15 C16 1_555 1_555

#END
