
#######################################################################
#
#                 Cambridge Crystallographic Data Centre
#                                CCDC 
#
#######################################################################
#
# If this CIF has been generated from an entry in the Cambridge 
# Structural Database, then it will include bibliographic, chemical, 
# crystal, experimental, refinement or atomic coordinate data resulting 
# from the CCDC's data processing and validation procedures.
#
#######################################################################

data_WOCBOH
_chemical_formula_moiety         'C18 H14 O3'
_chemical_name_systematic        
'(3-(4-methylbenzylidene)-2-benzofuran-1(3H)-ylidene)acetic acid'
_symmetry_cell_setting           triclinic
_symmetry_space_group_name_H-M   'P -1'
_symmetry_Int_Tables_number      2
_space_group_name_Hall           '-P 1'
loop_
_symmetry_equiv_pos_site_id
_symmetry_equiv_pos_as_xyz
1 x,y,z
2 -x,-y,-z
_cell_length_a                   8.0584(10)
_cell_length_b                   13.7851(14)
_cell_length_c                   14.5897(16)
_cell_angle_alpha                107.134(7)
_cell_angle_beta                 105.844(8)
_cell_angle_gamma                103.626(8)
_cell_volume                     1399.14
_exptl_crystal_colour            white
_exptl_crystal_description       block
_cell_formula_units_Z            4
loop_
_atom_site_label
_atom_site_type_symbol
_atom_site_fract_x
_atom_site_fract_y
_atom_site_fract_z
O1 O 0.5449(2) 0.64243(11) 0.47883(10)
O2 O 0.6547(2) 0.56160(13) 0.32110(11)
H1 H 0.5953 0.5910 0.3500
O3 O 0.8550(2) 0.47813(13) 0.35321(11)
C1 C 0.6864(3) 0.61910(17) 0.53486(15)
C2 C 0.2173(3) 0.69837(18) 0.39561(17)
C3 C 0.4569(3) 0.68742(17) 0.54180(16)
C4 C 0.6928(3) 0.65256(17) 0.64021(16)
C5 C 0.5540(3) 0.69500(16) 0.64503(15)
C6 C 0.3109(3) 0.71316(18) 0.50240(17)
H2 H 0.2622 0.7448 0.5494
C7 C 0.7882(3) 0.57178(17) 0.49165(16)
H3 H 0.8836 0.5605 0.5350
C8 C 0.7633(3) 0.53651(17) 0.38339(17)
C9 C 0.8089(3) 0.64694(19) 0.72730(18)
H4 H 0.9016 0.6182 0.7240
C10 C 0.1465(3) 0.6192(2) 0.21232(19)
H5 H 0.1631 0.5725 0.1576
C11 C 0.2404(3) 0.63094(19) 0.31205(17)
H6 H 0.3202 0.5930 0.3232
C12 C 0.0938(3) 0.7514(2) 0.3745(2)
H7 H 0.0720 0.7953 0.4286
C13 C 0.5270(4) 0.73317(18) 0.73733(17)
H8 H 0.4337 0.7613 0.7408
C14 C 0.0290(3) 0.6751(2) 0.1923(2)
C15 C 0.0027(4) 0.7406(2) 0.2751(2)
H9 H -0.0777 0.7781 0.2637
C16 C 0.7821(4) 0.6850(2) 0.81784(19)
H10 H 0.8582 0.6822 0.8770
C17 C 0.6428(4) 0.7281(2) 0.82355(18)
H11 H 0.6280 0.7536 0.8863
C18 C -0.0657(4) 0.6647(3) 0.0834(2)
H12 H -0.0298 0.6161 0.0370
H13 H -0.0311 0.7344 0.0793
H14 H -0.1964 0.6370 0.0647
O4 O 0.6589(2) 0.19558(11) -0.00774(10)
O5 O 0.7566(2) 0.38243(13) 0.15311(11)
H15 H 0.7745 0.4190 0.2128
O6 O 0.5908(2) 0.48667(13) 0.12463(12)
C19 C 0.7979(3) 0.04006(17) 0.06887(16)
C20 C 0.6515(3) 0.09675(17) -0.07404(15)
C21 C 0.5691(3) 0.09006(18) -0.17862(15)
C22 C 0.7153(3) 0.02952(17) -0.03724(16)
H16 H 0.7055 -0.0340 -0.0872
C23 C 0.5869(3) 0.25041(19) -0.06375(16)
C24 C 0.8013(3) 0.12084(19) 0.15455(17)
H17 H 0.7457 0.1709 0.1451
C25 C 0.4478(3) 0.2005(2) -0.26100(18)
H18 H 0.4197 0.2629 -0.2573
C26 C 0.6479(3) 0.40826(19) 0.09229(17)
C27 C 0.9729(3) 0.0556(2) 0.27145(17)
C28 C 0.9705(4) -0.0242(2) 0.18686(18)
H19 H 1.0280 -0.0734 0.1968
C29 C 0.5798(3) 0.34792(19) -0.01755(17)
H20 H 0.5263 0.3797 -0.0600
C30 C 0.5266(3) 0.18317(18) -0.17257(16)
C31 C 0.5342(3) 0.0110(2) -0.27417(17)
H21 H 0.5631 -0.0513 -0.2787
C32 C 0.8867(3) 0.1272(2) 0.25349(17)
H22 H 0.8858 0.1811 0.3093
C33 C 0.8839(3) -0.03214(19) 0.08765(17)
H23 H 0.8833 -0.0872 0.0322
C34 C 1.0694(4) 0.0667(2) 0.38052(19)
H24 H 1.0555 0.1263 0.4282
H25 H 1.1976 0.0794 0.3936
H26 H 1.0165 0.0014 0.3890
C35 C 0.4559(4) 0.0287(2) -0.36085(18)
H27 H 0.4310 -0.0227 -0.4253
C36 C 0.4129(4) 0.1210(2) -0.35485(19)
H28 H 0.3592 0.1300 -0.4154
loop_
_geom_bond_atom_site_label_1
_geom_bond_atom_site_label_2
_geom_bond_site_symmetry_1
_geom_bond_site_symmetry_2
O1 C1 1_555 1_555
O2 H1 1_555 1_555
O3 C8 1_555 1_555
C1 C4 1_555 1_555
C2 C6 1_555 1_555
C3 O1 1_555 1_555
C4 C5 1_555 1_555
C5 C3 1_555 1_555
C6 C3 1_555 1_555
H2 C6 1_555 1_555
C7 C1 1_555 1_555
H3 C7 1_555 1_555
C8 O2 1_555 1_555
C9 C4 1_555 1_555
H4 C9 1_555 1_555
C10 H5 1_555 1_555
C11 C2 1_555 1_555
H6 C11 1_555 1_555
C12 C2 1_555 1_555
H7 C12 1_555 1_555
C13 C5 1_555 1_555
H8 C13 1_555 1_555
C14 C10 1_555 1_555
C15 C12 1_555 1_555
H9 C15 1_555 1_555
C16 C9 1_555 1_555
H10 C16 1_555 1_555
C17 C13 1_555 1_555
H11 C17 1_555 1_555
C18 C14 1_555 1_555
H12 C18 1_555 1_555
H13 C18 1_555 1_555
H14 C18 1_555 1_555
O4 C20 1_555 1_555
O5 H15 1_555 1_555
O6 C26 1_555 1_555
C19 C22 1_555 1_555
C20 C21 1_555 1_555
C21 C30 1_555 1_555
C22 C20 1_555 1_555
H16 C22 1_555 1_555
C23 O4 1_555 1_555
C24 C19 1_555 1_555
H17 C24 1_555 1_555
C25 H18 1_555 1_555
C26 O5 1_555 1_555
C27 C28 1_555 1_555
C28 H19 1_555 1_555
C29 C23 1_555 1_555
H20 C29 1_555 1_555
C30 C23 1_555 1_555
C31 C21 1_555 1_555
H21 C31 1_555 1_555
C32 C24 1_555 1_555
H22 C32 1_555 1_555
C33 C19 1_555 1_555
H23 C33 1_555 1_555
C34 C27 1_555 1_555
H24 C34 1_555 1_555
H25 C34 1_555 1_555
H26 C34 1_555 1_555
C35 C31 1_555 1_555
H27 C35 1_555 1_555
C36 C25 1_555 1_555
H28 C36 1_555 1_555
C7 C8 1_555 1_555
C10 C11 1_555 1_555
C14 C15 1_555 1_555
C16 C17 1_555 1_555
C25 C30 1_555 1_555
C26 C29 1_555 1_555
C27 C32 1_555 1_555
C28 C33 1_555 1_555
C35 C36 1_555 1_555

#END
