
#######################################################################
#
#                 Cambridge Crystallographic Data Centre
#                                CCDC 
#
#######################################################################
#
# If this CIF has been generated from an entry in the Cambridge 
# Structural Database, then it will include bibliographic, chemical, 
# crystal, experimental, refinement or atomic coordinate data resulting 
# from the CCDC's data processing and validation procedures.
#
#######################################################################

data_WOCHED01
_chemical_name_common            
'theopylline 2,6-dihydroxybenzoic acid monohydrate'
_chemical_formula_moiety         'C7 H9 N4 O2 1+,C7 H5 O4 1-,H2 O1'
_chemical_name_systematic        
'1,3-dimethyl-2,6-dioxo-2,3,6,9-tetrahydro-1H-purin-7-ium 2,6-dihydroxybenzoate monohydrate'
_symmetry_cell_setting           monoclinic
_symmetry_space_group_name_H-M   'P 21/c'
_symmetry_Int_Tables_number      14
_space_group_name_Hall           '-P 2ybc'
loop_
_symmetry_equiv_pos_site_id
_symmetry_equiv_pos_as_xyz
1 x,y,z
2 -x,1/2+y,1/2-z
3 -x,-y,-z
4 x,1/2-y,1/2+z
_cell_length_a                   14.6593(19)
_cell_length_b                   6.5583(8)
_cell_length_c                   15.727(2)
_cell_angle_alpha                90
_cell_angle_beta                 94.0430(10)
_cell_angle_gamma                90
_cell_volume                     1508.23
_exptl_crystal_colour            colorless
_exptl_crystal_description       rod
_cell_formula_units_Z            4
loop_
_atom_site_label
_atom_site_type_symbol
_atom_site_fract_x
_atom_site_fract_y
_atom_site_fract_z
O1 O 0.69269(10) 0.0614(2) 0.00927(10)
O2 O 0.97523(10) 0.0394(2) 0.15255(10)
N1 N 0.61590(12) 0.0437(3) 0.18490(12)
H1 H 0.562(2) 0.054(4) 0.1496(19)
N2 N 0.83380(12) 0.0550(3) 0.08213(11)
N3 N 0.85318(12) 0.0329(3) 0.23273(11)
N4 N 0.70770(12) 0.0262(3) 0.30053(12)
H2 H 0.733(2) 0.001(5) 0.369(2)
C1 C 0.62010(15) 0.0321(3) 0.26890(14)
H3 H 0.5696 0.0286 0.3015
C2 C 0.70400(14) 0.0454(3) 0.16018(14)
C3 C 0.73808(14) 0.0544(3) 0.07732(14)
C4 C 0.87824(15) 0.0696(4) 0.00138(15)
H4 H 0.8938 -0.0646 -0.0172
H5 H 0.9328 0.1504 0.0097
H6 H 0.8371 0.1325 -0.0410
C5 C 0.89267(14) 0.0425(3) 0.15550(14)
C6 C 0.91313(15) 0.0253(4) 0.31098(14)
H7 H 0.8767 0.0164 0.3593
H8 H 0.9498 0.1466 0.3154
H9 H 0.9522 -0.0919 0.3097
C7 C 0.76058(14) 0.0345(3) 0.23239(14)
O3 O 0.61338(10) -0.0466(2) 0.47797(10)
O4 O 0.76175(11) -0.0421(2) 0.45888(10)
O5 O 0.88013(10) -0.0481(2) 0.58563(11)
H10 H 0.853(2) -0.043(5) 0.528(2)
O6 O 0.55818(11) -0.0383(3) 0.62776(11)
H11 H 0.556(2) -0.043(5) 0.569(2)
C8 C 0.69510(15) -0.0443(3) 0.50721(14)
C9 C 0.71753(14) -0.0429(3) 0.60059(13)
C10 C 0.80917(15) -0.0432(3) 0.63580(14)
C11 C 0.82825(15) -0.0395(3) 0.72384(15)
H12 H 0.8885 -0.0392 0.7469
C12 C 0.75689(16) -0.0363(3) 0.77646(15)
H13 H 0.7698 -0.0340 0.8352
C13 C 0.66655(16) -0.0362(3) 0.74417(15)
H14 H 0.6194 -0.0344 0.7808
C14 C 0.64718(14) -0.0391(3) 0.65681(14)
O7 O 0.46272(11) 0.0906(3) 0.08647(11)
H15 H 0.446(2) 0.2175(19) 0.074(2)
H16 H 0.4250(18) 0.011(3) 0.0542(17)
loop_
_geom_bond_atom_site_label_1
_geom_bond_atom_site_label_2
_geom_bond_site_symmetry_1
_geom_bond_site_symmetry_2
O1 C3 1_555 1_555
O2 C5 1_555 1_555
N1 H1 1_555 1_555
N2 C3 1_555 1_555
N3 C5 1_555 1_555
N4 H2 1_555 1_555
C1 N1 1_555 1_555
H3 C1 1_555 1_555
C2 N1 1_555 1_555
C3 C2 1_555 1_555
C4 N2 1_555 1_555
H4 C4 1_555 1_555
H5 C4 1_555 1_555
H6 C4 1_555 1_555
C5 N2 1_555 1_555
C6 N3 1_555 1_555
H7 C6 1_555 1_555
H8 C6 1_555 1_555
H9 C6 1_555 1_555
C7 N3 1_555 1_555
O3 C8 1_555 1_555
O4 C8 1_555 1_555
O5 H10 1_555 1_555
O6 H11 1_555 1_555
C8 C9 1_555 1_555
C9 C10 1_555 1_555
C10 O5 1_555 1_555
C11 C10 1_555 1_555
H12 C11 1_555 1_555
C12 C11 1_555 1_555
H13 C12 1_555 1_555
C13 C12 1_555 1_555
H14 C13 1_555 1_555
C14 O6 1_555 1_555
O7 H15 1_555 1_555
H16 O7 1_555 1_555
N4 C1 1_555 1_555
N4 C7 1_555 1_555
C2 C7 1_555 1_555
C9 C14 1_555 1_555
C13 C14 1_555 1_555

#END
