
#######################################################################
#
#                 Cambridge Crystallographic Data Centre
#                                CCDC 
#
#######################################################################
#
# If this CIF has been generated from an entry in the Cambridge 
# Structural Database, then it will include bibliographic, chemical, 
# crystal, experimental, refinement or atomic coordinate data resulting 
# from the CCDC's data processing and validation procedures.
#
#######################################################################

data_WOCHIH01
_chemical_name_common            'theophylline 3,5-dihydroxybenzoic acid'
_chemical_formula_moiety         'C7 H8 N4 O2,C7 H6 O4'
_chemical_name_systematic        
'1,3-dimethyl-3,7-dihydro-1H-purine-2,6-dione 3,5-dihydroxybenzoic acid'
_symmetry_cell_setting           triclinic
_symmetry_space_group_name_H-M   'P -1'
_symmetry_Int_Tables_number      2
_space_group_name_Hall           '-P 1'
loop_
_symmetry_equiv_pos_site_id
_symmetry_equiv_pos_as_xyz
1 x,y,z
2 -x,-y,-z
_cell_length_a                   7.2253(17)
_cell_length_b                   7.9998(19)
_cell_length_c                   12.650(3)
_cell_angle_alpha                81.240(4)
_cell_angle_beta                 85.071(4)
_cell_angle_gamma                82.509(4)
_cell_volume                     714.855
_exptl_crystal_colour            colorless
_exptl_crystal_description       plate
_cell_formula_units_Z            2
loop_
_atom_site_label
_atom_site_type_symbol
_atom_site_fract_x
_atom_site_fract_y
_atom_site_fract_z
O1 O 0.98546(17) -0.15201(15) 0.38435(9)
O2 O 0.78335(17) 0.02000(15) 0.04711(9)
N1 N 0.8465(2) 0.21220(18) 0.42610(11)
H1 H 0.8897 0.1686 0.4868
N2 N 0.88256(18) -0.06369(16) 0.21594(10)
N3 N 0.74092(19) 0.21675(16) 0.16055(10)
N4 N 0.7140(2) 0.40274(18) 0.29880(12)
C1 C 0.7679(3) 0.3728(2) 0.39866(14)
H2 H 0.7527 0.4547 0.4446
C2 C 0.8445(2) 0.1317(2) 0.33836(12)
C3 C 0.9107(2) -0.0371(2) 0.31998(12)
C4 C 0.9565(3) -0.2309(2) 0.18471(14)
H3 H 0.8550 -0.2872 0.1687
H4 H 1.0209 -0.2991 0.2426
H5 H 1.0418 -0.2154 0.1225
C5 C 0.8010(2) 0.0562(2) 0.13641(12)
C6 C 0.6703(3) 0.3508(2) 0.07672(13)
H6 H 0.5752 0.4277 0.1077
H7 H 0.6182 0.3005 0.0235
H8 H 0.7710 0.4120 0.0439
C7 C 0.7635(2) 0.2519(2) 0.26140(13)
O3 O 0.54903(19) 0.74819(16) 0.40431(10)
O4 O 0.49213(19) 0.69760(16) 0.24207(10)
H9 H 0.557(4) 0.599(4) 0.269(2)
O5 O 0.2683(2) 1.36405(16) 0.40735(10)
H10 H 0.3086 1.3175 0.4645
O6 O 0.18743(18) 1.25523(16) 0.05997(9)
H11 H 0.2057 1.1794 0.0220
C8 C 0.4836(2) 0.7956(2) 0.31771(13)
C9 C 0.3912(2) 0.97312(19) 0.28674(12)
C10 C 0.3689(2) 1.0828(2) 0.36366(13)
H12 H 0.4059 1.0445 0.4327
C11 C 0.2906(2) 1.2506(2) 0.33594(13)
C12 C 0.2320(2) 1.3066(2) 0.23352(13)
H13 H 0.1801 1.4189 0.2152
C13 C 0.2508(2) 1.1946(2) 0.15835(13)
C14 C 0.3330(2) 1.02669(19) 0.18397(12)
H14 H 0.3483 0.9524 0.1332
loop_
_geom_bond_atom_site_label_1
_geom_bond_atom_site_label_2
_geom_bond_site_symmetry_1
_geom_bond_site_symmetry_2
O1 C3 1_555 1_555
O2 C5 1_555 1_555
N1 H1 1_555 1_555
N2 C3 1_555 1_555
N3 C5 1_555 1_555
N4 C1 1_555 1_555
C1 N1 1_555 1_555
H2 C1 1_555 1_555
C2 N1 1_555 1_555
C3 C2 1_555 1_555
C4 N2 1_555 1_555
H3 C4 1_555 1_555
H4 C4 1_555 1_555
H5 C4 1_555 1_555
C5 N2 1_555 1_555
C6 N3 1_555 1_555
H6 C6 1_555 1_555
H7 C6 1_555 1_555
H8 C6 1_555 1_555
C7 N3 1_555 1_555
O3 C8 1_555 1_555
O4 H9 1_555 1_555
O5 H10 1_555 1_555
O6 H11 1_555 1_555
C8 O4 1_555 1_555
C9 C8 1_555 1_555
C10 C9 1_555 1_555
H12 C10 1_555 1_555
C11 O5 1_555 1_555
C12 C11 1_555 1_555
H13 C12 1_555 1_555
C13 O6 1_555 1_555
C14 C9 1_555 1_555
H14 C14 1_555 1_555
N4 C7 1_555 1_555
C2 C7 1_555 1_555
C10 C11 1_555 1_555
C12 C13 1_555 1_555
C13 C14 1_555 1_555

#END
