
#######################################################################
#
#                 Cambridge Crystallographic Data Centre
#                                CCDC 
#
#######################################################################
#
# If this CIF has been generated from an entry in the Cambridge 
# Structural Database, then it will include bibliographic, chemical, 
# crystal, experimental, refinement or atomic coordinate data resulting 
# from the CCDC's data processing and validation procedures.
#
#######################################################################

data_WOCQOU01
_chemical_formula_moiety         'C18 H13 N1 O3'
_chemical_name_systematic        
1-(((3-carboxyphenyl)iminio)methyl)naphthalen-2-olate
_symmetry_cell_setting           monoclinic
_symmetry_space_group_name_H-M   'P 21/c'
_symmetry_Int_Tables_number      14
_space_group_name_Hall           '-P 2ybc'
loop_
_symmetry_equiv_pos_site_id
_symmetry_equiv_pos_as_xyz
1 x,y,z
2 -x,1/2+y,1/2-z
3 -x,-y,-z
4 x,1/2-y,1/2+z
_cell_length_a                   11.5668(12)
_cell_length_b                   7.4039(7)
_cell_length_c                   16.1889(16)
_cell_angle_alpha                90
_cell_angle_beta                 106.389(10)
_cell_angle_gamma                90
_cell_volume                     1330.08
_exptl_crystal_colour            yellow
_exptl_crystal_description       block
_cell_formula_units_Z            4
loop_
_atom_site_label
_atom_site_type_symbol
_atom_site_fract_x
_atom_site_fract_y
_atom_site_fract_z
N1 N 0.09963(12) 0.82358(19) -0.00318(9)
H1 H 0.1439 0.8585 -0.0348
O1 O 0.29040(12) 0.9569(2) -0.02219(8)
O2 O -0.07605(12) 0.6398(2) -0.31209(9)
O3 O -0.25795(12) 0.54123(19) -0.31597(8)
H2 H -0.2636 0.5283 -0.3673
C1 C 0.45455(17) 1.1024(3) 0.32566(13)
H3 H 0.5276 1.1626 0.3461
C2 C 0.39204(19) 1.0541(3) 0.38145(13)
H4 H 0.4219 1.0803 0.4398
C3 C 0.28361(18) 0.9656(3) 0.35045(13)
H5 H 0.2406 0.9313 0.3886
C4 C 0.23810(17) 0.9273(3) 0.26516(12)
H6 H 0.1641 0.8692 0.2462
C5 C 0.29995(14) 0.9734(2) 0.20557(11)
C6 C 0.25551(14) 0.9367(2) 0.11437(11)
C7 C 0.32564(15) 0.9887(2) 0.05853(12)
C8 C 0.43735(16) 1.0780(2) 0.09498(13)
H7 H 0.4839 1.1132 0.0594
C9 C 0.47670(16) 1.1125(2) 0.17961(13)
H8 H 0.5502 1.1712 0.2009
C10 C 0.41101(15) 1.0631(2) 0.23775(12)
C11 C 0.14353(15) 0.8555(2) 0.07918(11)
H9 H 0.0981 0.8226 0.1159
C12 C -0.00933(14) 0.7406(2) -0.04747(11)
C13 C -0.02902(15) 0.7136(2) -0.13433(11)
H10 H 0.0288 0.7504 -0.1607
C14 C -0.13360(15) 0.6325(2) -0.18302(11)
C15 C -0.21963(16) 0.5813(2) -0.14352(12)
H11 H -0.2911 0.5282 -0.1755
C16 C -0.19924(16) 0.6093(2) -0.05685(12)
H12 H -0.2574 0.5736 -0.0305
C17 C -0.09481(15) 0.6887(2) -0.00788(11)
H13 H -0.0822 0.7070 0.0508
C18 C -0.15095(16) 0.6062(2) -0.27627(12)
loop_
_geom_bond_atom_site_label_1
_geom_bond_atom_site_label_2
_geom_bond_site_symmetry_1
_geom_bond_site_symmetry_2
N1 H1 1_555 1_555
O1 C7 1_555 1_555
O2 C18 1_555 1_555
O3 H2 1_555 1_555
C1 H3 1_555 1_555
C2 C1 1_555 1_555
H4 C2 1_555 1_555
C3 C2 1_555 1_555
H5 C3 1_555 1_555
C4 C3 1_555 1_555
H6 C4 1_555 1_555
C5 C4 1_555 1_555
C6 C5 1_555 1_555
C7 C6 1_555 1_555
C8 C7 1_555 1_555
H7 C8 1_555 1_555
C9 C8 1_555 1_555
H8 C9 1_555 1_555
C10 C1 1_555 1_555
C11 N1 1_555 1_555
H9 C11 1_555 1_555
C12 N1 1_555 1_555
C13 C12 1_555 1_555
H10 C13 1_555 1_555
C14 C13 1_555 1_555
C15 C14 1_555 1_555
H11 C15 1_555 1_555
C16 C15 1_555 1_555
H12 C16 1_555 1_555
C17 C12 1_555 1_555
H13 C17 1_555 1_555
C18 O3 1_555 1_555
C5 C10 1_555 1_555
C6 C11 1_555 1_555
C9 C10 1_555 1_555
C14 C18 1_555 1_555
C16 C17 1_555 1_555

#END
