
#######################################################################
#
#                 Cambridge Crystallographic Data Centre
#                                CCDC 
#
#######################################################################
#
# If this CIF has been generated from an entry in the Cambridge 
# Structural Database, then it will include bibliographic, chemical, 
# crystal, experimental, refinement or atomic coordinate data resulting 
# from the CCDC's data processing and validation procedures.
#
#######################################################################

data_WODKUX01
_chemical_name_common            
25-chloro-26-fluoro-2,8,14,20-tetra(methylaza)calix[4]pyrimidine
_chemical_formula_moiety         'C20 H18 Cl1 F1 N12'
_chemical_name_systematic        
25-Chloro-26-fluoro-2,8,14,20-tetramethyl-2,4,6,8,10,12,14,16,18,20,22,24-dodecaazapentacyclo[19.3.1.1^3,7^.1^9,13^.1^15,19^]octacosa-1(25),3(28),4,6,9(27),10,12,15(26),16,18,21,23-dodecaene
_symmetry_cell_setting           tetragonal
_symmetry_space_group_name_H-M   'P 41'
_symmetry_Int_Tables_number      76
_space_group_name_Hall           'P 4w'
loop_
_symmetry_equiv_pos_site_id
_symmetry_equiv_pos_as_xyz
1 x,y,z
2 -x,-y,1/2+z
3 -y,x,1/4+z
4 y,-x,3/4+z
_cell_length_a                   21.1267(13)
_cell_length_b                   21.1267(13)
_cell_length_c                   4.6047(3)
_cell_angle_alpha                90
_cell_angle_beta                 90
_cell_angle_gamma                90
_cell_volume                     2055.25
_exptl_crystal_colour            colorless
_exptl_crystal_description       rod
_cell_formula_units_Z            4
loop_
_atom_site_label
_atom_site_type_symbol
_atom_site_fract_x
_atom_site_fract_y
_atom_site_fract_z
Cl1 Cl 0.77869(6) 0.77388(6) 0.7893(3)
F1 F 0.85526(14) 0.72384(14) 0.2476(7)
N1 N 0.8462(2) 0.89612(19) 0.2183(9)
N2 N 0.7332(2) 0.8974(2) 0.1748(10)
N3 N 0.66792(19) 0.83154(18) 0.4435(11)
N4 N 0.60176(19) 0.7643(2) 0.7051(10)
N5 N 0.6040(2) 0.6521(2) 0.6402(11)
N6 N 0.66976(19) 0.60249(19) 0.3086(11)
N7 N 0.7353(2) 0.54472(19) 0.0074(10)
N8 N 0.8484(2) 0.5451(2) 0.0557(12)
N9 N 0.9011(2) 0.6020(2) 0.4067(11)
N10 N 0.95876(19) 0.65134(19) 0.7714(10)
N11 N 0.95966(19) 0.7643(2) 0.8329(9)
N12 N 0.89918(18) 0.83180(18) 0.5487(10)
C1 C 0.8421(2) 0.8488(2) 0.4150(11)
C2 C 0.7918(3) 0.9175(2) 0.1162(12)
H1 H 0.7947 0.9518 -0.0166
C3 C 0.7283(2) 0.8497(2) 0.3655(10)
C4 C 0.7832(2) 0.8247(2) 0.4989(11)
C5 C 0.6168(3) 0.8785(3) 0.414(2)
H2 H 0.6123 0.8903 0.2091
H3 H 0.6272 0.9162 0.5283
H4 H 0.5771 0.8603 0.4843
C6 C 0.6507(2) 0.7695(2) 0.5143(12)
C7 C 0.5835(2) 0.7058(3) 0.7539(13)
H5 H 0.5505 0.7014 0.8924
C8 C 0.6520(2) 0.6586(2) 0.4503(11)
C9 C 0.6777(2) 0.7175(2) 0.3811(11)
H6 H 0.7119 0.7216 0.2489
C10 C 0.6189(2) 0.5569(3) 0.2446(16)
H7 H 0.5777 0.5773 0.2730
H8 H 0.6225 0.5205 0.3752
H9 H 0.6226 0.5426 0.0428
C11 C 0.7314(2) 0.5885(2) 0.2164(12)
C12 C 0.7941(2) 0.5263(2) -0.0615(13)
H10 H 0.7974 0.4960 -0.2131
C13 C 0.8437(2) 0.5892(2) 0.2658(12)
C14 C 0.7852(2) 0.6134(2) 0.3558(11)
H11 H 0.7821 0.6448 0.5027
C15 C 0.9498(3) 0.5520(3) 0.4066(17)
H12 H 0.9441 0.5248 0.2362
H13 H 0.9459 0.5265 0.5836
H14 H 0.9919 0.5714 0.3999
C16 C 0.9150(2) 0.6568(2) 0.5577(12)
C17 C 0.9780(2) 0.7049(2) 0.8915(12)
H15 H 1.0091 0.7007 1.0394
C18 C 0.9161(2) 0.7704(2) 0.6244(11)
C19 C 0.8930(2) 0.7165(2) 0.4803(10)
C20 C 0.9443(3) 0.8821(3) 0.6075(16)
H16 H 0.9215 0.9204 0.6667
H17 H 0.9689 0.8910 0.4317
H18 H 0.9729 0.8690 0.7637
loop_
_geom_bond_atom_site_label_1
_geom_bond_atom_site_label_2
_geom_bond_site_symmetry_1
_geom_bond_site_symmetry_2
Cl1 C4 1_555 1_555
F1 C19 1_555 1_555
N1 C1 1_555 1_555
N2 C2 1_555 1_555
N3 C3 1_555 1_555
N4 C6 1_555 1_555
N5 C7 1_555 1_555
N6 C8 1_555 1_555
N7 C11 1_555 1_555
N8 C12 1_555 1_555
N9 C13 1_555 1_555
N10 C16 1_555 1_555
N11 C17 1_555 1_555
N12 C1 1_555 1_555
C1 C4 1_555 1_555
C2 N1 1_555 1_555
H1 C2 1_555 1_555
C3 N2 1_555 1_555
C4 C3 1_555 1_555
C5 N3 1_555 1_555
H2 C5 1_555 1_555
H3 C5 1_555 1_555
H4 C5 1_555 1_555
C6 N3 1_555 1_555
C7 N4 1_555 1_555
H5 C7 1_555 1_555
C8 N5 1_555 1_555
C9 C6 1_555 1_555
H6 C9 1_555 1_555
C10 N6 1_555 1_555
H7 C10 1_555 1_555
H8 C10 1_555 1_555
H9 C10 1_555 1_555
C11 N6 1_555 1_555
C12 N7 1_555 1_555
H10 C12 1_555 1_555
C13 N8 1_555 1_555
C14 C11 1_555 1_555
H11 C14 1_555 1_555
C15 N9 1_555 1_555
H12 C15 1_555 1_555
H13 C15 1_555 1_555
H14 C15 1_555 1_555
C16 N9 1_555 1_555
C17 N10 1_555 1_555
H15 C17 1_555 1_555
C18 N11 1_555 1_555
C19 C16 1_555 1_555
C20 N12 1_555 1_555
H16 C20 1_555 1_555
H17 C20 1_555 1_555
H18 C20 1_555 1_555
N12 C18 1_555 1_555
C8 C9 1_555 1_555
C13 C14 1_555 1_555
C18 C19 1_555 1_555

#END
