
#######################################################################
#
#                 Cambridge Crystallographic Data Centre
#                                CCDC 
#
#######################################################################
#
# If this CIF has been generated from an entry in the Cambridge 
# Structural Database, then it will include bibliographic, chemical, 
# crystal, experimental, refinement or atomic coordinate data resulting 
# from the CCDC's data processing and validation procedures.
#
#######################################################################

data_WODKUX
_chemical_name_common            
25-chloro-26-fluoro-2,8,14,20-tetra(methylaza)calix[4]pyrimidine
_chemical_formula_moiety         'C20 H18 Cl1 F1 N12'
_chemical_name_systematic        
25-chloro-26-fluoro-2,8,14,20-tetramethyl-2,4,6,8,10,12,14,16,18,20,22,24-dodecaazapentacyclo[19.3.1.1^3,7^.1^9,13^.1^15,19^]octacosa-1(25),3(28),4,6,9(27),10,12,15(26),16,18,21,23-dodecaene
_symmetry_cell_setting           tetragonal
_symmetry_space_group_name_H-M   'P 43'
_symmetry_Int_Tables_number      78
_space_group_name_Hall           'P 4cw'
loop_
_symmetry_equiv_pos_site_id
_symmetry_equiv_pos_as_xyz
1 x,y,z
2 -x,-y,1/2+z
3 -y,x,3/4+z
4 y,-x,1/4+z
_cell_length_a                   21.074(3)
_cell_length_b                   21.074(3)
_cell_length_c                   4.5777(9)
_cell_angle_alpha                90
_cell_angle_beta                 90
_cell_angle_gamma                90
_cell_volume                     2033.02
_exptl_crystal_colour            colorless
_exptl_crystal_description       rod
_cell_formula_units_Z            4
loop_
_atom_site_label
_atom_site_type_symbol
_atom_site_fract_x
_atom_site_fract_y
_atom_site_fract_z
F1 F 0.22386(14) 0.35604(14) 0.3606(7)
N1 N 0.39774(18) 0.23424(19) 0.2861(9)
N2 N 0.39591(18) 0.34716(18) 0.3331(8)
N3 N 0.33162(17) 0.39937(17) 0.6649(9)
N4 N 0.26394(18) 0.46023(18) 0.9495(8)
N5 N 0.15167(18) 0.45948(17) 0.8906(9)
N6 N 0.10183(18) 0.40135(18) 0.5257(10)
N7 N 0.04475(18) 0.34902(18) 0.1693(10)
N8 N 0.04407(19) 0.23578(19) 0.1207(9)
N9 N 0.10270(18) 0.17023(18) 0.4255(9)
N10 N 0.15205(19) 0.10414(19) 0.7578(9)
N11 N 0.26492(19) 0.10221(18) 0.8163(9)
N12 N 0.33149(18) 0.16816(18) 0.5502(9)
C1 C 0.4179(2) 0.2931(2) 0.2271(10)
H1 H 0.4520 0.2964 0.0928
C2 C 0.3488(2) 0.3428(2) 0.5281(10)
C3 C 0.3250(2) 0.2834(2) 0.6100(10)
C4 C 0.3497(2) 0.2289(2) 0.4746(10)
C5 C 0.3782(2) 0.1169(3) 0.5014(14)
H2 H 0.3810 0.1077 0.2920
H3 H 0.3647 0.0787 0.6061
H4 H 0.4198 0.1304 0.5738
C6 C 0.2698(2) 0.1511(2) 0.6242(11)
C7 C 0.2172(2) 0.1777(2) 0.4925(10)
H5 H 0.2210 0.2119 0.3587
C8 C 0.1587(2) 0.1522(2) 0.5649(10)
C9 C 0.2066(2) 0.0833(2) 0.8707(11)
H6 H 0.2028 0.0500 1.0098
C10 C 0.0555(2) 0.1195(2) 0.3651(13)
H7 H 0.0508 0.1141 0.1535
H8 H 0.0145 0.1313 0.4502
H9 H 0.0701 0.0795 0.4518
C11 C 0.0878(2) 0.2314(2) 0.3353(10)
C12 C 0.1129(2) 0.2856(2) 0.4707(10)
H10 H 0.1454 0.2825 0.6138
C13 C 0.0882(2) 0.3441(2) 0.3858(11)
C14 C 0.0255(2) 0.2943(2) 0.0520(11)
H11 H -0.0052 0.2975 -0.0993
C15 C 0.0522(2) 0.4505(2) 0.5199(13)
H12 H 0.0334 0.4546 0.7148
H13 H 0.0192 0.4384 0.3795
H14 H 0.0709 0.4911 0.4615
C16 C 0.1572(2) 0.4153(2) 0.6764(11)
C17 C 0.2164(2) 0.3936(2) 0.5981(10)
C18 C 0.2696(2) 0.4159(2) 0.7408(10)
C19 C 0.2053(2) 0.4789(2) 1.0070(10)
H15 H 0.2015 0.5107 1.1528
C20 C 0.3833(2) 0.4448(2) 0.7249(12)
H16 H 0.4238 0.4267 0.6596
H17 H 0.3853 0.4533 0.9352
H18 H 0.3753 0.4845 0.6198
Cl1 Cl 0.27389(6) 0.27889(6) 0.9035(3)
Cl2? Cl 0.2188(5) 0.2247(5) 0.188(2)
F2? F 0.1443(8) 0.2765(8) 0.759(4)
H19? H 0.2927 0.2800 0.7543
H20? H 0.2206 0.3632 0.4461
loop_
_geom_bond_atom_site_label_1
_geom_bond_atom_site_label_2
_geom_bond_site_symmetry_1
_geom_bond_site_symmetry_2
F1 C17 1_555 1_555
N1 C1 1_555 1_555
N2 C1 1_555 1_555
N3 C2 1_555 1_555
N4 C18 1_555 1_555
N5 C16 1_555 1_555
N6 C13 1_555 1_555
N7 C13 1_555 1_555
N8 C11 1_555 1_555
N9 C8 1_555 1_555
N10 C8 1_555 1_555
N11 C6 1_555 1_555
N12 C4 1_555 1_555
C1 H1 1_555 1_555
C2 N2 1_555 1_555
C3 C2 1_555 1_555
C4 N1 1_555 1_555
C5 N12 1_555 1_555
H2 C5 1_555 1_555
H3 C5 1_555 1_555
H4 C5 1_555 1_555
C6 N12 1_555 1_555
C7 C6 1_555 1_555
H5 C7 1_555 1_555
C8 C7 1_555 1_555
C9 N10 1_555 1_555
H6 C9 1_555 1_555
C10 N9 1_555 1_555
H7 C10 1_555 1_555
H8 C10 1_555 1_555
H9 C10 1_555 1_555
C11 N9 1_555 1_555
C12 C11 1_555 1_555
H10 C12 1_555 1_555
C13 C12 1_555 1_555
C14 N7 1_555 1_555
H11 C14 1_555 1_555
C15 N6 1_555 1_555
H12 C15 1_555 1_555
H13 C15 1_555 1_555
H14 C15 1_555 1_555
C16 N6 1_555 1_555
C17 C16 1_555 1_555
C18 N3 1_555 1_555
C19 N4 1_555 1_555
H15 C19 1_555 1_555
C20 N3 1_555 1_555
H16 C20 1_555 1_555
H17 C20 1_555 1_555
H18 C20 1_555 1_555
Cl1 C3 1_555 1_555
N5 C19 1_555 1_555
N8 C14 1_555 1_555
N11 C9 1_555 1_555
C3 C4 1_555 1_555
C17 C18 1_555 1_555

#END
