
#######################################################################
#
#                 Cambridge Crystallographic Data Centre
#                                CCDC 
#
#######################################################################
#
# If this CIF has been generated from an entry in the Cambridge 
# Structural Database, then it will include bibliographic, chemical, 
# crystal, experimental, refinement or atomic coordinate data resulting 
# from the CCDC's data processing and validation procedures.
#
#######################################################################

data_WODKOR
_chemical_name_common            
25,26,27,28-tetrachloro-2,8,14,20-tetra(methylaza)calix[4]pyrimidine
_chemical_formula_moiety         'C20 H16 Cl4 N12'
_chemical_name_systematic        
25,26,27,28-Tetrachloro-2,8,14,20-tetramethyl-2,4,6,8,10,12,14,16,18,20,22,24-dodecaazapentacyclo[19.3.1.1^3,7^.1^9,13^.1^15,19^]octacosa-1(25),3(28),4,6,9(27),10,12,15(26),16,18,21,23-dodecaene
_symmetry_cell_setting           tetragonal
_symmetry_space_group_name_H-M   'P 42/n b c'
_symmetry_Int_Tables_number      133
_space_group_name_Hall           '-P 4ac 2b'
loop_
_symmetry_equiv_pos_site_id
_symmetry_equiv_pos_as_xyz
1 x,y,z
2 1/2-x,1/2-y,z
3 1/2-y,x,1/2+z
4 y,1/2-x,1/2+z
5 1/2-x,y,-z
6 x,1/2-y,-z
7 y,x,1/2-z
8 1/2-y,1/2-x,1/2-z
9 -x,-y,-z
10 1/2+x,1/2+y,-z
11 1/2+y,-x,1/2-z
12 -y,1/2+x,1/2-z
13 1/2+x,-y,z
14 -x,1/2+y,z
15 -y,-x,1/2+z
16 1/2+y,1/2+x,1/2+z
_cell_length_a                   13.0408(18)
_cell_length_b                   13.0408(18)
_cell_length_c                   13.176(3)
_cell_angle_alpha                90
_cell_angle_beta                 90
_cell_angle_gamma                90
_cell_volume                     2240.74
_exptl_crystal_colour            colorless
_exptl_crystal_description       plate
_cell_formula_units_Z            4
loop_
_atom_site_label
_atom_site_type_symbol
_atom_site_fract_x
_atom_site_fract_y
_atom_site_fract_z
Cl1 Cl 0.14763(4) 0.83863(4) 0.38027(3)
N1 N 0.04306(13) 0.56848(13) 0.38705(12)
N2 N -0.00690(12) 0.70092(12) 0.28238(12)
N3 N -0.03488(13) 0.80910(13) 0.14288(13)
C1 C 0.10659(16) 0.49112(15) 0.40718(15)
H1 H 0.0895 0.4497 0.4641
C2 C 0.06116(14) 0.62398(14) 0.30312(14)
C3 C -0.09695(15) 0.71372(15) 0.34885(16)
H2 H -0.1319 0.6477 0.3566
H3 H -0.1441 0.7636 0.3186
H4 H -0.0746 0.7384 0.4155
C4 C 0.02094(14) 0.78985(14) 0.22595(14)
C5 C 0.09711(14) 0.85526(14) 0.26012(14)
Cl1J Cl 0.33863(4) 0.85237(4) 0.11973(3)
N1J N 0.06848(13) 0.95694(13) 0.11295(12)
N2J N 0.20092(12) 1.00690(12) 0.21762(12)
N3J N 0.30910(13) 1.03488(13) 0.35712(13)
C1J C -0.00888(15) 0.89341(16) 0.09282(15)
H1J H -0.0503 0.9105 0.0359
C2J C 0.12398(14) 0.93884(14) 0.19688(14)
C3J C 0.21372(15) 1.09695(15) 0.15115(16)
H2J H 0.1477 1.1319 0.1434
H3J H 0.2636 1.1441 0.1814
H4J H 0.2384 1.0746 0.0845
C4J C 0.28985(14) 0.97906(14) 0.27405(14)
C5J C 0.35526(14) 0.90289(14) 0.23988(14)
Cl1K Cl 0.16137(4) 0.64763(4) 0.11973(3)
N1K N 0.43152(13) 0.54306(13) 0.11295(12)
N2K N 0.29908(12) 0.49310(12) 0.21762(12)
N3K N 0.19090(13) 0.46512(13) 0.35712(13)
C1K C 0.50888(15) 0.60659(16) 0.09282(15)
H1K H 0.5503 0.5895 0.0359
C2K C 0.37602(14) 0.56116(14) 0.19688(14)
C3K C 0.28628(15) 0.40305(15) 0.15115(16)
H2K H 0.3523 0.3681 0.1434
H3K H 0.2364 0.3559 0.1814
H4K H 0.2616 0.4254 0.0845
C4K C 0.21015(14) 0.52094(14) 0.27405(14)
C5K C 0.14474(14) 0.59711(14) 0.23988(14)
Cl1A Cl 0.35237(4) 0.66137(4) 0.38027(3)
N1A N 0.45694(13) 0.93152(13) 0.38705(12)
N2A N 0.50690(12) 0.79908(12) 0.28238(12)
N3A N 0.53488(13) 0.69090(13) 0.14288(13)
C1A C 0.39341(16) 1.00888(15) 0.40718(15)
H1A H 0.4105 1.0503 0.4641
C2A C 0.43884(14) 0.87602(14) 0.30312(14)
C3A C 0.59695(15) 0.78628(15) 0.34885(16)
H2A H 0.6319 0.8523 0.3566
H3A H 0.6441 0.7364 0.3186
H4A H 0.5746 0.7616 0.4155
C4A C 0.47906(14) 0.71015(14) 0.22595(14)
C5A C 0.40289(14) 0.64474(14) 0.26012(14)
loop_
_geom_bond_atom_site_label_1
_geom_bond_atom_site_label_2
_geom_bond_site_symmetry_1
_geom_bond_site_symmetry_2
Cl1 C5 1_555 1_555
N1 C1 1_555 1_555
N2 C2 1_555 1_555
N3 C4 1_555 1_555
C1 H1 1_555 1_555
C2 N1 1_555 1_555
C3 N2 1_555 1_555
H2 C3 1_555 1_555
H3 C3 1_555 1_555
H4 C3 1_555 1_555
C4 N2 1_555 1_555
C5 C4 1_555 1_555
Cl1J C5J 1_555 1_555
N1J C1J 1_555 1_555
N2J C2J 1_555 1_555
N3J C4J 1_555 1_555
C1J N3 1_555 1_555
H1J C1J 1_555 1_555
C2J C5 1_555 1_555
C3J N2J 1_555 1_555
H2J C3J 1_555 1_555
H3J C3J 1_555 1_555
H4J C3J 1_555 1_555
C4J N2J 1_555 1_555
C5J C4J 1_555 1_555
Cl1K C5K 1_555 1_555
N1K C1K 1_555 1_555
N2K C2K 1_555 1_555
N3K C1 1_555 1_555
C1K H1K 1_555 1_555
C2K N1K 1_555 1_555
C3K N2K 1_555 1_555
H2K C3K 1_555 1_555
H3K C3K 1_555 1_555
H4K C3K 1_555 1_555
C4K N2K 1_555 1_555
C5K C2 1_555 1_555
Cl1A C5A 1_555 1_555
N1A C1A 1_555 1_555
N2A C2A 1_555 1_555
N3A C1K 1_555 1_555
C1A N3J 1_555 1_555
H1A C1A 1_555 1_555
C2A C5J 1_555 1_555
C3A N2A 1_555 1_555
H2A C3A 1_555 1_555
H3A C3A 1_555 1_555
H4A C3A 1_555 1_555
C4A N2A 1_555 1_555
C5A C2K 1_555 1_555
N1J C2J 1_555 1_555
N3K C4K 1_555 1_555
C4K C5K 1_555 1_555
N1A C2A 1_555 1_555
N3A C4A 1_555 1_555
C4A C5A 1_555 1_555

#END
