
#######################################################################
#
#                 Cambridge Crystallographic Data Centre
#                                CCDC 
#
#######################################################################
#
# If this CIF has been generated from an entry in the Cambridge 
# Structural Database, then it will include bibliographic, chemical, 
# crystal, experimental, refinement or atomic coordinate data resulting 
# from the CCDC's data processing and validation procedures.
#
#######################################################################

data_WODYEU
_chemical_formula_moiety         'C31 H21 N1 O1'
_chemical_name_systematic        2-(4-(Diphenylamino)phenyl)fluorenone
_symmetry_cell_setting           monoclinic
_symmetry_space_group_name_H-M   'P 21/c'
_symmetry_Int_Tables_number      14
_space_group_name_Hall           '-P 2ybc'
loop_
_symmetry_equiv_pos_site_id
_symmetry_equiv_pos_as_xyz
1 x,y,z
2 -x,1/2+y,1/2-z
3 -x,-y,-z
4 x,1/2-y,1/2+z
_cell_length_a                   18.807(5)
_cell_length_b                   8.584(5)
_cell_length_c                   16.555(5)
_cell_angle_alpha                90
_cell_angle_beta                 115.041(5)
_cell_angle_gamma                90
_cell_volume                     2421.41
_exptl_crystal_colour            purple
_exptl_crystal_description       plate
_chemical_melting_point          '186 deg.C'
_cell_formula_units_Z            4
loop_
_atom_site_label
_atom_site_type_symbol
_atom_site_fract_x
_atom_site_fract_y
_atom_site_fract_z
C1 C 0.6603(4) 1.7361(7) 1.0467(4)
H1 H 0.6997 1.7907 1.0924
C2 C 0.6059(4) 1.8167(7) 0.9758(5)
H2 H 0.6090 1.9247 0.9745
C3 C 0.5460(3) 1.7395(7) 0.9056(4)
H3 H 0.5102 1.7940 0.8568
C4 C 0.5416(3) 1.5782(6) 0.9111(3)
C5 C 0.5973(3) 1.4972(7) 0.9830(4)
C6 C 0.6579(3) 1.5753(8) 1.0517(4)
H4 H 0.6954 1.5211 1.0994
C7 C 0.5804(3) 1.3310(7) 0.9712(4)
C8 C 0.5069(3) 1.3148(6) 0.8869(3)
C9 C 0.4851(3) 1.4641(6) 0.8502(4)
C10 C 0.4189(3) 1.4808(7) 0.7708(4)
H5 H 0.4049 1.5779 0.7436
C11 C 0.3735(3) 1.3497(7) 0.7321(4)
H6 H 0.3289 1.3612 0.6788
C12 C 0.3926(3) 1.2019(7) 0.7703(3)
C13 C 0.4630(3) 1.1859(7) 0.8488(4)
H7 H 0.4791 1.0882 0.8743
C14 C 0.3420(3) 1.0660(7) 0.7327(4)
C15 C 0.2913(3) 1.0497(7) 0.6425(4)
H8 H 0.2903 1.1276 0.6029
C16 C 0.2428(3) 0.9222(7) 0.6099(4)
H9 H 0.2098 0.9163 0.5494
C17 C 0.2428(3) 0.8040(8) 0.6658(4)
C18 C 0.2937(3) 0.8158(7) 0.7569(4)
H10 H 0.2959 0.7353 0.7955
C19 C 0.3390(3) 0.9420(7) 0.7886(4)
H11 H 0.3699 0.9489 0.8496
C20 C 0.1697(3) 0.5805(8) 0.6888(4)
C21 C 0.1429(4) 0.6524(9) 0.7456(4)
H12 H 0.1396 0.7604 0.7467
C22 C 0.1212(4) 0.5632(12) 0.7999(5)
H13 H 0.1043 0.6116 0.8390
C23 C 0.1240(6) 0.4055(14) 0.7978(6)
H14 H 0.1091 0.3468 0.8353
C24 C 0.1489(5) 0.3311(11) 0.7398(6)
H15 H 0.1502 0.2230 0.7376
C25 C 0.1712(4) 0.4182(9) 0.6868(5)
H16 H 0.1879 0.3688 0.6479
C26 C 0.1694(3) 0.6206(7) 0.5438(4)
C27 C 0.0902(4) 0.5840(9) 0.4928(4)
H17 H 0.0543 0.5943 0.5174
C28 C 0.0656(5) 0.5331(10) 0.4067(5)
H18 H 0.0133 0.5063 0.3738
C29 C 0.1163(5) 0.5216(9) 0.3693(5)
H19 H 0.0985 0.4887 0.3105
C30 C 0.1956(5) 0.5584(8) 0.4179(5)
H20 H 0.2304 0.5511 0.3915
C31 C 0.2214(3) 0.6054(8) 0.5047(4)
H21 H 0.2743 0.6274 0.5379
N1 N 0.1941(3) 0.6689(6) 0.6329(3)
O1 O 0.6172(2) 1.2219(5) 1.0206(3)
loop_
_geom_bond_atom_site_label_1
_geom_bond_atom_site_label_2
_geom_bond_site_symmetry_1
_geom_bond_site_symmetry_2
C1 H1 1_555 1_555
C2 C1 1_555 1_555
H2 C2 1_555 1_555
C3 C2 1_555 1_555
H3 C3 1_555 1_555
C4 C3 1_555 1_555
C5 C4 1_555 1_555
C6 C1 1_555 1_555
H4 C6 1_555 1_555
C7 C5 1_555 1_555
C8 C7 1_555 1_555
C9 C4 1_555 1_555
C10 C9 1_555 1_555
H5 C10 1_555 1_555
C11 C10 1_555 1_555
H6 C11 1_555 1_555
C12 C11 1_555 1_555
C13 C8 1_555 1_555
H7 C13 1_555 1_555
C14 C12 1_555 1_555
C15 C14 1_555 1_555
H8 C15 1_555 1_555
C16 C15 1_555 1_555
H9 C16 1_555 1_555
C17 C16 1_555 1_555
C18 C17 1_555 1_555
H10 C18 1_555 1_555
C19 C14 1_555 1_555
H11 C19 1_555 1_555
C20 C21 1_555 1_555
C21 H12 1_555 1_555
C22 C21 1_555 1_555
H13 C22 1_555 1_555
C23 C22 1_555 1_555
H14 C23 1_555 1_555
C24 C23 1_555 1_555
H15 C24 1_555 1_555
C25 C20 1_555 1_555
H16 C25 1_555 1_555
C26 C27 1_555 1_555
C27 H17 1_555 1_555
C28 C27 1_555 1_555
H18 C28 1_555 1_555
C29 C28 1_555 1_555
H19 C29 1_555 1_555
C30 C29 1_555 1_555
H20 C30 1_555 1_555
C31 C26 1_555 1_555
H21 C31 1_555 1_555
N1 C17 1_555 1_555
O1 C7 1_555 1_555
C5 C6 1_555 1_555
C8 C9 1_555 1_555
C12 C13 1_555 1_555
C18 C19 1_555 1_555
C20 N1 1_555 1_555
C24 C25 1_555 1_555
C26 N1 1_555 1_555
C30 C31 1_555 1_555

#END
