
#######################################################################
#
#                 Cambridge Crystallographic Data Centre
#                                CCDC 
#
#######################################################################
#
# If this CIF has been generated from an entry in the Cambridge 
# Structural Database, then it will include bibliographic, chemical, 
# crystal, experimental, refinement or atomic coordinate data resulting 
# from the CCDC's data processing and validation procedures.
#
#######################################################################

data_WOFBID
_chemical_formula_moiety         'C24 H20 N4 O8,H2 O1'
_chemical_name_systematic        
'Ethyl 4-(4-nitrobenzamido)-3-(N-methyl-4-nitrobenzamido)benzoate monohydrate'
_symmetry_cell_setting           triclinic
_symmetry_space_group_name_H-M   'P -1'
_symmetry_Int_Tables_number      2
_space_group_name_Hall           '-P 1'
loop_
_symmetry_equiv_pos_site_id
_symmetry_equiv_pos_as_xyz
1 x,y,z
2 -x,-y,-z
_cell_length_a                   7.394(6)
_cell_length_b                   11.418(8)
_cell_length_c                   14.293(11)
_cell_angle_alpha                84.132(13)
_cell_angle_beta                 81.034(13)
_cell_angle_gamma                89.451(13)
_cell_volume                     1185.67
_exptl_crystal_colour            yellow
_exptl_crystal_description       plate
_cell_formula_units_Z            2
_exptl_crystal_recrystallization_method 'glacial acetic acid'
loop_
_atom_site_label
_atom_site_type_symbol
_atom_site_fract_x
_atom_site_fract_y
_atom_site_fract_z
O1 O 0.1438(6) 0.4552(4) 0.3873(3)
H21 H 0.164(8) 0.519(6) 0.422(4)
H22 H 0.156(8) 0.392(5) 0.421(4)
O2 O 0.2612(5) 1.2343(3) 0.4857(3)
O3 O 0.0643(5) 1.2135(3) 0.6133(3)
O4 O 0.2783(4) 0.6360(2) 0.4779(2)
O5 O -0.1878(4) 0.5639(3) 0.9380(2)
O6 O -0.5824(6) 0.0972(4) 0.7408(3)
O7 O -0.8039(6) 0.1809(4) 0.8223(3)
O8 O 0.7381(5) 0.8439(4) 0.7560(3)
N1 N 0.1679(5) 1.1736(3) 0.5503(3)
N2 N 0.2624(4) 0.6060(3) 0.6368(2)
N3 N -0.0102(4) 0.5590(3) 0.7934(2)
H1 H -0.0118 0.5375 0.7376
N4 N -0.6435(7) 0.1742(4) 0.7885(3)
C1 C 0.1133(5) 0.8552(4) 0.6303(3)
H2 H 0.0497 0.8069 0.6808
C2 C 0.0935(5) 0.9754(4) 0.6272(3)
H3 H 0.0182 1.0088 0.6756
C3 C 0.1858(5) 1.0447(3) 0.5519(3)
C4 C 0.2933(5) 0.9990(4) 0.4776(3)
H4 H 0.3520 1.0481 0.4261
C5 C 0.3122(5) 0.8793(4) 0.4810(3)
H5 H 0.3829 0.8468 0.4305
C6 C 0.2283(5) 0.8055(3) 0.5581(3)
C7 C 0.2579(5) 0.6764(3) 0.5557(3)
C8 C 0.2799(5) 0.6488(3) 0.7259(3)
C9 C 0.4331(5) 0.7113(3) 0.7345(3)
H6 H 0.5242 0.7258 0.6819
C10 C 0.4552(5) 0.7531(4) 0.8192(3)
C11 C 0.3191(6) 0.7283(4) 0.8971(3)
H7 H 0.3320 0.7555 0.9549
C12 C 0.1659(6) 0.6646(4) 0.8909(3)
H8 H 0.0773 0.6482 0.9444
C13 C 0.1424(5) 0.6244(3) 0.8048(3)
C14 C -0.1572(5) 0.5256(4) 0.8613(3)
C15 C -0.2824(5) 0.4352(4) 0.8366(3)
C16 C -0.4643(6) 0.4339(4) 0.8789(3)
H9 H -0.5066 0.4917 0.9182
C17 C -0.5822(6) 0.3490(4) 0.8638(3)
H10 H -0.7043 0.3487 0.8922
C18 C -0.5175(6) 0.2648(4) 0.8064(3)
C19 C -0.3388(6) 0.2638(4) 0.7626(3)
H11 H -0.2983 0.2061 0.7229
C20 C -0.2207(6) 0.3492(4) 0.7782(3)
H12 H -0.0988 0.3491 0.7495
C21 C 0.6228(6) 0.8202(4) 0.8230(4)
O9 O 0.6307(4) 0.8522(3) 0.9089(3)
C22 C 0.7994(9) 0.9106(7) 0.9210(5)
H13 H 0.8491 0.8699 0.9742
H14 H 0.8895 0.9080 0.8641
C23 C 0.7666(10) 1.0180(7) 0.9363(9)
H15 H 0.8779 1.0559 0.9441
H16 H 0.6787 1.0203 0.9931
H17 H 0.7185 1.0583 0.8833
C24 C 0.2973(6) 0.4802(3) 0.6301(3)
H18 H 0.2814 0.4609 0.5681
H19 H 0.2131 0.4347 0.6777
H20 H 0.4205 0.4626 0.6403
loop_
_geom_bond_atom_site_label_1
_geom_bond_atom_site_label_2
_geom_bond_site_symmetry_1
_geom_bond_site_symmetry_2
O1 H21 1_555 1_555
O2 N1 1_555 1_555
O3 N1 1_555 1_555
O4 C7 1_555 1_555
O5 C14 1_555 1_555
O6 N4 1_555 1_555
O7 N4 1_555 1_555
O8 C21 1_555 1_555
N1 C3 1_555 1_555
N2 C7 1_555 1_555
N3 H1 1_555 1_555
N4 C18 1_555 1_555
C1 H2 1_555 1_555
C2 C1 1_555 1_555
H3 C2 1_555 1_555
C3 C2 1_555 1_555
C4 C3 1_555 1_555
H4 C4 1_555 1_555
C5 C4 1_555 1_555
H5 C5 1_555 1_555
C6 C1 1_555 1_555
C7 C6 1_555 1_555
C8 N2 1_555 1_555
C9 C8 1_555 1_555
H6 C9 1_555 1_555
C10 C9 1_555 1_555
C11 C10 1_555 1_555
H7 C11 1_555 1_555
C12 C11 1_555 1_555
H8 C12 1_555 1_555
C13 N3 1_555 1_555
C14 N3 1_555 1_555
C15 C14 1_555 1_555
C16 C15 1_555 1_555
H9 C16 1_555 1_555
C17 C16 1_555 1_555
H10 C17 1_555 1_555
C18 C17 1_555 1_555
C19 C18 1_555 1_555
H11 C19 1_555 1_555
C20 C15 1_555 1_555
H12 C20 1_555 1_555
C21 C10 1_555 1_555
O9 C21 1_555 1_555
C22 O9 1_555 1_555
H13 C22 1_555 1_555
H14 C22 1_555 1_555
C23 C22 1_555 1_555
H15 C23 1_555 1_555
H16 C23 1_555 1_555
H17 C23 1_555 1_555
C24 N2 1_555 1_555
H18 C24 1_555 1_555
H19 C24 1_555 1_555
H20 C24 1_555 1_555
H22 O1 1_555 1_555
C5 C6 1_555 1_555
C8 C13 1_555 1_555
C12 C13 1_555 1_555
C19 C20 1_555 1_555

#END
