
#######################################################################
#
#                 Cambridge Crystallographic Data Centre
#                                CCDC 
#
#######################################################################
#
# If this CIF has been generated from an entry in the Cambridge 
# Structural Database, then it will include bibliographic, chemical, 
# crystal, experimental, refinement or atomic coordinate data resulting 
# from the CCDC's data processing and validation procedures.
#
#######################################################################

data_WOFBIE
_chemical_formula_moiety         'C13 H14 B1 Cl1 F2 N2'
_chemical_name_systematic        
{2-[chloro(3,5-dimethyl-2H-pyrrol-2-ylidene)methyl]-3,5-dimethyl-1H-pyrrolato}(difluoro)boron
_symmetry_cell_setting           monoclinic
_symmetry_space_group_name_H-M   'P 21/c'
_symmetry_Int_Tables_number      14
_space_group_name_Hall           '-P 2ybc'
loop_
_symmetry_equiv_pos_site_id
_symmetry_equiv_pos_as_xyz
1 x,y,z
2 -x,1/2+y,1/2-z
3 -x,-y,-z
4 x,1/2-y,1/2+z
_cell_length_a                   8.6711(17)
_cell_length_b                   12.274(3)
_cell_length_c                   11.850(2)
_cell_angle_alpha                90
_cell_angle_beta                 97.570(8)
_cell_angle_gamma                90
_cell_volume                     1250.19
_exptl_crystal_colour            orange
_exptl_crystal_description       needle
_cell_formula_units_Z            4
loop_
_atom_site_label
_atom_site_type_symbol
_atom_site_fract_x
_atom_site_fract_y
_atom_site_fract_z
Cl1 Cl 0.25919(3) 0.124710(19) 0.59385(2)
F1 F 0.88783(8) 0.20853(5) 0.69686(6)
F2 F 0.90227(8) 0.12070(5) 0.53054(6)
N1 N 0.67718(9) 0.23329(7) 0.54365(7)
N2 N 0.71278(9) 0.05766(7) 0.64769(7)
C1 C 0.70531(12) 0.32416(8) 0.48572(8)
C2 C 0.56329(13) 0.37483(8) 0.44546(9)
H1 H 0.5515 0.4401 0.4022
C3 C 0.44317(12) 0.31343(8) 0.47959(8)
C4 C 0.51598(11) 0.22342(7) 0.54199(8)
C5 C 0.45699(11) 0.13325(7) 0.59378(8)
C6 C 0.55128(11) 0.04971(7) 0.64530(8)
C7 C 0.51746(11) -0.05149(8) 0.69619(8)
C8 C 0.66063(12) -0.10149(8) 0.72792(8)
H2 H 0.6762 -0.1703 0.7643
C9 C 0.77844(11) -0.03308(8) 0.69716(8)
C10 C 0.86479(13) 0.35975(9) 0.46860(9)
H3 H 0.9347 0.3521 0.5402
H4 H 0.8620 0.4361 0.4444
H5 H 0.9026 0.3144 0.4100
C11 C 0.27394(12) 0.33998(9) 0.45205(10)
H6 H 0.2617 0.4058 0.4049
H7 H 0.2294 0.3524 0.5228
H8 H 0.2200 0.2791 0.4104
C12 C 0.36411(12) -0.09845(9) 0.71521(9)
H9 H 0.3783 -0.1743 0.7403
H10 H 0.2925 -0.0958 0.6440
H11 H 0.3209 -0.0561 0.7737
C13 C 0.94951(12) -0.05293(9) 0.71202(9)
H12 H 0.9853 -0.0583 0.6372
H13 H 0.9726 -0.1211 0.7540
H14 H 1.0030 0.0076 0.7547
B1 B 0.80177(12) 0.15541(9) 0.60525(9)
loop_
_geom_bond_atom_site_label_1
_geom_bond_atom_site_label_2
_geom_bond_site_symmetry_1
_geom_bond_site_symmetry_2
Cl1 C5 1_555 1_555
F1 B1 1_555 1_555
F2 B1 1_555 1_555
N1 C1 1_555 1_555
N2 C6 1_555 1_555
C1 C2 1_555 1_555
C2 H1 1_555 1_555
C3 C2 1_555 1_555
C4 N1 1_555 1_555
C5 C4 1_555 1_555
C6 C5 1_555 1_555
C7 C6 1_555 1_555
C8 C7 1_555 1_555
H2 C8 1_555 1_555
C9 N2 1_555 1_555
C10 C1 1_555 1_555
H3 C10 1_555 1_555
H4 C10 1_555 1_555
H5 C10 1_555 1_555
C11 C3 1_555 1_555
H6 C11 1_555 1_555
H7 C11 1_555 1_555
H8 C11 1_555 1_555
C12 C7 1_555 1_555
H9 C12 1_555 1_555
H10 C12 1_555 1_555
H11 C12 1_555 1_555
C13 C9 1_555 1_555
H12 C13 1_555 1_555
H13 C13 1_555 1_555
H14 C13 1_555 1_555
B1 N1 1_555 1_555
N2 B1 1_555 1_555
C3 C4 1_555 1_555
C8 C9 1_555 1_555

#END
