
#######################################################################
#
#                 Cambridge Crystallographic Data Centre
#                                CCDC 
#
#######################################################################
#
# If this CIF has been generated from an entry in the Cambridge 
# Structural Database, then it will include bibliographic, chemical, 
# crystal, experimental, refinement or atomic coordinate data resulting 
# from the CCDC's data processing and validation procedures.
#
#######################################################################

data_WOFBIE01
_chemical_formula_moiety         'C13 H14 B1 Cl1 F2 N2'
_chemical_name_systematic        
(2-(chloro(3,5-dimethyl-2H-pyrrol-2-ylidene)methyl)-3,5-dimethylpyrrolyl)-difluoro-boron
_symmetry_cell_setting           monoclinic
_symmetry_space_group_name_H-M   'P 21/c'
_symmetry_Int_Tables_number      14
_space_group_name_Hall           '-P 2ybc'
loop_
_symmetry_equiv_pos_site_id
_symmetry_equiv_pos_as_xyz
1 x,y,z
2 -x,1/2+y,1/2-z
3 -x,-y,-z
4 x,1/2-y,1/2+z
_cell_length_a                   8.6497(6)
_cell_length_b                   12.2669(8)
_cell_length_c                   11.9030(8)
_cell_angle_alpha                90
_cell_angle_beta                 97.9680(10)
_cell_angle_gamma                90
_cell_volume                     1250.77
_exptl_crystal_colour            red
_exptl_crystal_description       Block
_cell_formula_units_Z            4
loop_
_atom_site_label
_atom_site_type_symbol
_atom_site_fract_x
_atom_site_fract_y
_atom_site_fract_z
B1 B 0.3023(3) 0.1551(2) 0.1049(2)
F1 F 0.40104(16) 0.11976(11) 0.03076(12)
F2 F 0.38839(17) 0.20776(11) 0.19520(12)
N1 N 0.1778(2) 0.23227(15) 0.04348(15)
N2 N 0.2139(2) 0.05784(14) 0.14734(15)
C1 C 0.2053(3) 0.32266(18) -0.01403(19)
C2 C 0.0641(3) 0.37269(19) -0.0540(2)
H1 H 0.0520 0.4379 -0.0974
C3 C -0.0546(3) 0.31264(19) -0.0204(2)
C4 C 0.0174(3) 0.22321(18) 0.04179(18)
C5 C -0.0409(3) 0.13354(17) 0.09400(19)
Cl1 Cl -0.23829(6) 0.12539(5) 0.09394(5)
C6 C 0.0524(3) 0.05036(18) 0.14536(18)
C7 C 0.0190(3) -0.04990(18) 0.19638(18)
C8 C 0.1608(3) -0.09927(19) 0.22734(19)
H2 H 0.1762 -0.1680 0.2640
C9 C 0.2794(3) -0.03243(18) 0.19649(18)
C10 C 0.3650(3) 0.3584(2) -0.0309(2)
H3 H 0.4371 0.3460 0.0390
H4 H 0.3633 0.4361 -0.0499
H5 H 0.3996 0.3164 -0.0929
C11 C -0.2238(3) 0.3394(2) -0.0481(2)
H6 H -0.2362 0.4048 -0.0959
H7 H -0.2678 0.3529 0.0222
H8 H -0.2786 0.2782 -0.0889
C12 C -0.1337(3) -0.0962(2) 0.2159(2)
H9 H -0.1189 -0.1714 0.2430
H10 H -0.2057 -0.0954 0.1446
H11 H -0.1772 -0.0524 0.2728
C13 C 0.4489(3) -0.0526(2) 0.2118(2)
H12 H 0.4847 -0.0581 0.1375
H13 H 0.4717 -0.1208 0.2536
H14 H 0.5030 0.0078 0.2546
loop_
_geom_bond_atom_site_label_1
_geom_bond_atom_site_label_2
_geom_bond_site_symmetry_1
_geom_bond_site_symmetry_2
B1 F1 1_555 1_555
F2 B1 1_555 1_555
N1 B1 1_555 1_555
N2 B1 1_555 1_555
C1 N1 1_555 1_555
C2 C1 1_555 1_555
H1 C2 1_555 1_555
C3 C2 1_555 1_555
C4 N1 1_555 1_555
C5 C4 1_555 1_555
Cl1 C5 1_555 1_555
C6 N2 1_555 1_555
C7 C6 1_555 1_555
C8 C7 1_555 1_555
H2 C8 1_555 1_555
C9 N2 1_555 1_555
C10 C1 1_555 1_555
H3 C10 1_555 1_555
H4 C10 1_555 1_555
H5 C10 1_555 1_555
C11 C3 1_555 1_555
H6 C11 1_555 1_555
H7 C11 1_555 1_555
H8 C11 1_555 1_555
C12 C7 1_555 1_555
H9 C12 1_555 1_555
H10 C12 1_555 1_555
H11 C12 1_555 1_555
C13 C9 1_555 1_555
H12 C13 1_555 1_555
H13 C13 1_555 1_555
H14 C13 1_555 1_555
C3 C4 1_555 1_555
C5 C6 1_555 1_555
C8 C9 1_555 1_555

#END
