
#######################################################################
#
#                 Cambridge Crystallographic Data Centre
#                                CCDC 
#
#######################################################################
#
# If this CIF has been generated from an entry in the Cambridge 
# Structural Database, then it will include bibliographic, chemical, 
# crystal, experimental, refinement or atomic coordinate data resulting 
# from the CCDC's data processing and validation procedures.
#
#######################################################################

data_WOFQIS
_chemical_formula_moiety         'C7 H5 N1 O4'
_chemical_name_systematic        3,4-methylenedioxy-nitrobenzene
_symmetry_cell_setting           monoclinic
_symmetry_space_group_name_H-M   'P 21/c'
_symmetry_Int_Tables_number      14
_space_group_name_Hall           '-P 2ybc'
loop_
_symmetry_equiv_pos_site_id
_symmetry_equiv_pos_as_xyz
1 x,y,z
2 -x,1/2+y,1/2-z
3 -x,-y,-z
4 x,1/2-y,1/2+z
_cell_length_a                   3.7800(8)
_cell_length_b                   10.003(2)
_cell_length_c                   18.224(4)
_cell_angle_alpha                90
_cell_angle_beta                 97.33
_cell_angle_gamma                90
_cell_volume                     683.443
_exptl_crystal_colour            yellow
_exptl_crystal_description       block
_chemical_melting_point          '146-148 deg.C'
_cell_formula_units_Z            4
_exptl_crystal_recrystallization_method ethanol
loop_
_atom_site_label
_atom_site_type_symbol
_atom_site_fract_x
_atom_site_fract_y
_atom_site_fract_z
O1 O -0.2648(7) -0.1878(2) -0.5074(1)
O2 O 0.0452(7) -0.3735(2) -0.4590(1)
O3 O 0.2881(9) -0.0670(3) -0.1785(1)
O4 O 0.4860(8) -0.2655(3) -0.1906(2)
N1 N 0.3238(8) -0.1663(3) -0.2160(2)
C1 C -0.1320(8) -0.1648(3) -0.4357(2)
C2 C -0.1617(9) -0.0515(3) -0.3949(2)
C3 C -0.0076(8) -0.0537(3) -0.3221(2)
C4 C 0.1672(8) -0.1671(3) -0.2931(2)
C5 C 0.2034(8) -0.2829(3) -0.3349(2)
C6 C 0.0487(9) -0.2767(3) -0.4063(2)
C7 C -0.1473(11) -0.3198(3) -0.5247(2)
loop_
_geom_bond_atom_site_label_1
_geom_bond_atom_site_label_2
_geom_bond_site_symmetry_1
_geom_bond_site_symmetry_2
O1 C1 1_555 1_555
O2 C6 1_555 1_555
O3 N1 1_555 1_555
O4 N1 1_555 1_555
N1 C4 1_555 1_555
C1 C2 1_555 1_555
C2 C3 1_555 1_555
C3 C4 1_555 1_555
C4 C5 1_555 1_555
C5 C6 1_555 1_555
C6 C1 1_555 1_555
C7 O1 1_555 1_555
O2 C7 1_555 1_555

#END
