
#######################################################################
#
#                 Cambridge Crystallographic Data Centre
#                                CCDC 
#
#######################################################################
#
# If this CIF has been generated from an entry in the Cambridge 
# Structural Database, then it will include bibliographic, chemical, 
# crystal, experimental, refinement or atomic coordinate data resulting 
# from the CCDC's data processing and validation procedures.
#
#######################################################################

data_WOFTIW
_chemical_name_common            'hirsutanine A'
_chemical_formula_moiety         'C11 H15 N1 O3'
_chemical_name_systematic        
6-methoxy-5-vinyl-3,4,4a,5,6,7-hexahydro-1H-pyrano[3,4-c]pyridin-1-one
_symmetry_cell_setting           orthorhombic
_symmetry_space_group_name_H-M   'P 21 21 21'
_symmetry_Int_Tables_number      19
_space_group_name_Hall           'P 2ac 2ab'
loop_
_symmetry_equiv_pos_site_id
_symmetry_equiv_pos_as_xyz
1 x,y,z
2 1/2-x,-y,1/2+z
3 -x,1/2+y,1/2-z
4 1/2+x,1/2-y,-z
_cell_length_a                   8.2646(2)
_cell_length_b                   11.2177(3)
_cell_length_c                   11.7920(3)
_cell_angle_alpha                90
_cell_angle_beta                 90
_cell_angle_gamma                90
_cell_volume                     1093.23
_cell_formula_units_Z            4
loop_
_atom_site_label
_atom_site_type_symbol
_atom_site_fract_x
_atom_site_fract_y
_atom_site_fract_z
N1 N 0.80896(15) 0.84499(10) 0.33377(9)
H1 H 0.7613 0.8676 0.3949
O1 O 0.81013(12) 0.63634(8) 0.30153(8)
O2 O 0.92941(13) 0.94345(9) -0.05219(8)
O3 O 0.77023(15) 1.05731(9) 0.04895(9)
C1 C 0.90441(17) 0.73660(12) 0.33419(11)
H2 H 0.9483 0.7234 0.4104
C2 C 0.79405(17) 0.91031(12) 0.23920(11)
H3 H 0.7305 0.9787 0.2423
C3 C 0.86610(16) 0.88263(12) 0.13924(11)
C4 C 0.97191(16) 0.77326(12) 0.13178(11)
H4 H 0.9040 0.7056 0.1094
C5 C 1.09900(18) 0.79232(14) 0.04018(12)
H5 H 1.1764 0.8518 0.0650
H6 H 1.1569 0.7185 0.0266
C6 C 1.01861(19) 0.83304(15) -0.06756(13)
H7 H 1.1003 0.8445 -0.1256
H8 H 0.9450 0.7715 -0.0936
C7 C 1.16374(18) 0.83940(13) 0.28664(12)
H9 H 1.1311 0.9187 0.2852
C8 C 1.04347(17) 0.74673(12) 0.24971(11)
H10 H 1.0989 0.6696 0.2463
C9 C 1.31129(19) 0.81624(16) 0.32071(13)
H11 H 1.3479 0.7379 0.3232
H12 H 1.3794 0.8781 0.3424
C10 C 0.85018(18) 0.96525(13) 0.04673(11)
C11 C 0.6890(2) 0.60530(16) 0.38191(14)
H13 H 0.7393 0.5843 0.4525
H14 H 0.6279 0.5387 0.3541
H15 H 0.6180 0.6720 0.3934
loop_
_geom_bond_atom_site_label_1
_geom_bond_atom_site_label_2
_geom_bond_site_symmetry_1
_geom_bond_site_symmetry_2
N1 H1 1_555 1_555
O1 C1 1_555 1_555
O2 C6 1_555 1_555
O3 C10 1_555 1_555
C1 N1 1_555 1_555
H2 C1 1_555 1_555
C2 N1 1_555 1_555
H3 C2 1_555 1_555
C3 C2 1_555 1_555
C4 C3 1_555 1_555
H4 C4 1_555 1_555
C5 C4 1_555 1_555
H5 C5 1_555 1_555
H6 C5 1_555 1_555
C6 C5 1_555 1_555
H7 C6 1_555 1_555
H8 C6 1_555 1_555
C7 H9 1_555 1_555
C8 C1 1_555 1_555
H10 C8 1_555 1_555
C9 C7 1_555 1_555
H11 C9 1_555 1_555
H12 C9 1_555 1_555
C10 O2 1_555 1_555
C11 O1 1_555 1_555
H13 C11 1_555 1_555
H14 C11 1_555 1_555
H15 C11 1_555 1_555
C3 C10 1_555 1_555
C4 C8 1_555 1_555
C7 C8 1_555 1_555

#END
