
#######################################################################
#
#                 Cambridge Crystallographic Data Centre
#                                CCDC 
#
#######################################################################
#
# If this CIF has been generated from an entry in the Cambridge 
# Structural Database, then it will include bibliographic, chemical, 
# crystal, experimental, refinement or atomic coordinate data resulting 
# from the CCDC's data processing and validation procedures.
#
#######################################################################

data_WOGBOJ
_chemical_formula_moiety         'C36 H60 N8 6+,6(Cl1 O4 1-),3(H2 O1)'
_chemical_name_systematic        
'6,16,25(1,3)-Tribenzena-1,11-diaza-4,8,14,18,23,27-hexa-azoniabicyclo[9.9.9]nonacosaphane perchlorate clathrate pentaperchlorate trihydrate'
_symmetry_cell_setting           cubic
_symmetry_space_group_name_H-M   'P 21 3'
_symmetry_Int_Tables_number      198
_space_group_name_Hall           'P 2ac 2ab 3'
loop_
_symmetry_equiv_pos_site_id
_symmetry_equiv_pos_as_xyz
1 x,y,z
2 1/2-x,-y,1/2+z
3 -x,1/2+y,1/2-z
4 1/2+x,1/2-y,-z
5 z,x,y
6 1/2+z,1/2-x,-y
7 1/2-z,-x,1/2+y
8 -z,1/2+x,1/2-y
9 y,z,x
10 -y,1/2+z,1/2-x
11 1/2+y,1/2-z,-x
12 1/2-y,-z,1/2+x
_cell_length_a                   17.443(2)
_cell_length_b                   17.443(2)
_cell_length_c                   17.443(2)
_cell_angle_alpha                90
_cell_angle_beta                 90
_cell_angle_gamma                90
_cell_volume                     5307.18
_exptl_crystal_colour            colorless
_exptl_crystal_description       'trigonal prism'
_cell_formula_units_Z            4
_exptl_crystal_recrystallization_method 'methanol/water 5:1'
loop_
_atom_site_label
_atom_site_type_symbol
_atom_site_fract_x
_atom_site_fract_y
_atom_site_fract_z
N1 N 0.6320(2) 0.8680(2) 0.1320(2)
C1 C 0.6090(3) 0.7868(3) 0.1246(3)
H1 H 0.6380 0.7565 0.1629
H2 H 0.6244 0.7685 0.0732
C2 C 0.5247(3) 0.7702(3) 0.1352(3)
H3 H 0.5169 0.7140 0.1363
H4 H 0.5079 0.7910 0.1852
N2 N 0.4764(2) 0.8037(2) 0.0735(2)
H5 H 0.4986 0.7938 0.0267
H6 H 0.4742 0.8561 0.0796
C3 C 0.3961(3) 0.7716(3) 0.0743(3)
H7 H 0.3984 0.7150 0.0716
H8 H 0.3706 0.7858 0.1230
C4 C 0.3494(3) 0.8015(3) 0.0079(3)
C5 C 0.3650(3) 0.7769(3) -0.0650(3)
H9 H 0.4053 0.7413 -0.0737
C6 C 0.3226(3) 0.8035(3) -0.1253(3)
H10 H 0.3341 0.7868 -0.1758
C7 C 0.2633(3) 0.8543(3) -0.1137(3)
H11 H 0.2343 0.8723 -0.1562
C8 C 0.2454(3) 0.8795(3) -0.0403(3)
C9 C 0.2892(3) 0.8527(3) 0.0212(3)
H12 H 0.2780 0.8692 0.0719
C10 C 0.1840(3) 0.9387(3) -0.0290(4)
H13 H 0.1558 0.9280 0.0190
H14 H 0.1471 0.9362 -0.0721
N3 N 0.2189(2) 1.0185(2) -0.0251(2)
H15 H 0.1802 1.0543 -0.0281
H16 H 0.2428 1.0245 0.0215
C11 C 0.2747(3) 1.0332(3) -0.0868(3)
H17 H 0.2524 1.0172 -0.1365
H18 H 0.3213 1.0022 -0.0777
C12 C 0.2965(3) 1.1177(3) -0.0909(3)
H19 H 0.2601 1.1456 -0.1243
H20 H 0.2947 1.1409 -0.0391
N4 N 0.3768(2) 1.1232(2) -0.1232(2)
C12K C 0.3823(3) 1.0909(3) -0.2035(3)
C11K C 0.4668(3) 1.0868(3) -0.2253(3)
N3K N 0.4815(2) 1.0251(2) -0.2811(2)
C10K C 0.5613(3) 1.0290(4) -0.3160(3)
C8K C 0.6205(3) 1.0403(3) -0.2546(3)
C7K C 0.6457(3) 1.1137(3) -0.2367(3)
C6K C 0.6965(3) 1.1253(3) -0.1774(3)
C5K C 0.7231(3) 1.0650(3) -0.1350(3)
C4K C 0.6985(3) 0.9921(3) -0.1506(3)
C3K C 0.7284(3) 0.9257(3) -0.1039(3)
N2K N 0.6963(2) 0.9265(2) -0.0236(2)
C2K C 0.7298(3) 0.8648(3) 0.0247(3)
C1K C 0.7132(3) 0.8754(3) 0.1090(3)
C1E C 0.6246(3) 0.8910(3) 0.2132(3)
H1E H 0.6629 0.8620 0.2435
H2E H 0.5732 0.8756 0.2315
C2E C 0.6352(3) 0.9753(3) 0.2298(3)
H3E H 0.6363 0.9831 0.2860
H4E H 0.6852 0.9921 0.2090
N2E N 0.5735(2) 1.0236(2) 0.1963(2)
H5E H 0.5267 1.0014 0.2062
H6E H 0.5796 1.0258 0.1439
C3E C 0.5743(3) 1.1039(3) 0.2284(3)
H7E H 0.5716 1.1016 0.2850
H8E H 0.6230 1.1294 0.2142
C4E C 0.5079(3) 1.1506(3) 0.1985(3)
C5E C 0.4350(3) 1.1350(3) 0.2231(3)
H9E H 0.4263 1.0947 0.2587
C6E C 0.3747(3) 1.1774(3) 0.1965(3)
H10E H 0.3242 1.1659 0.2132
C7E C 0.3863(3) 1.2367(3) 0.1457(3)
H11E H 0.3438 1.2657 0.1277
C8E C 0.4597(3) 1.2546(3) 0.1205(3)
C9E C 0.5212(3) 1.2108(3) 0.1473(3)
H12E H 0.5719 1.2220 0.1308
C10E C 0.4710(4) 1.3160(3) 0.0613(3)
H13E H 0.5190 1.3442 0.0720
H14E H 0.4279 1.3529 0.0638
N3E N 0.4749(2) 1.2811(2) -0.0185(2)
H15E H 0.4719 1.3198 -0.0543
H16E H 0.5215 1.2572 -0.0245
C11E C 0.4132(3) 1.2253(3) -0.0332(3)
H17E H 0.3635 1.2476 -0.0172
H18E H 0.4223 1.1787 -0.0022
C12E C 0.4091(3) 1.2035(3) -0.1177(3)
H19E H 0.3757 1.2399 -0.1456
H20E H 0.4609 1.2053 -0.1409
H1K H 0.7435 0.8371 0.1380
H2K H 0.7315 0.9268 0.1244
H3K H 0.7860 0.8637 0.0169
H4K H 0.7090 0.8148 0.0079
H5K H 0.7062 0.9733 -0.0014
H6K H 0.6439 0.9204 -0.0258
H7K H 0.7850 0.9284 -0.1016
H8K H 0.7142 0.8770 -0.1294
C9K C 0.6473(3) 0.9788(3) -0.2108(3)
H12K H 0.6308 0.9281 -0.2220
H9K H 0.7587 1.0737 -0.0947
H10K H 0.7132 1.1758 -0.1659
H11K H 0.6277 1.1562 -0.2657
H13K H 0.5720 0.9810 -0.3442
H14K H 0.5638 1.0721 -0.3529
H15K H 0.4457 1.0281 -0.3198
H16K H 0.4755 0.9785 -0.2572
H17K H 0.4828 1.1365 -0.2476
H18K H 0.4978 1.0777 -0.1787
H19K H 0.3544 1.1243 -0.2399
H20K H 0.3591 1.0391 -0.2053
Cl1 Cl 0.50929(6) 0.99071(6) 0.00929(6)
O1 O 0.4615(2) 1.0385(2) -0.0385(2)
O2 O 0.46436(19) 0.96324(19) 0.07552(19)
O2E O 0.57552(19) 1.03564(19) 0.03676(19)
O2K O 0.53676(19) 0.92448(19) -0.03564(19)
Cl2 Cl 0.45951(7) 0.54049(7) 0.04049(7)
O3 O 0.5061(3) 0.5827(3) 0.0936(3)
O4 O 0.5070(2) 0.4930(2) -0.0070(2)
O3F O 0.4064(3) 0.4939(3) 0.0827(3)
O3I O 0.4173(3) 0.5936(3) -0.0061(3)
Cl3 Cl 0.12948(8) 1.12948(8) 0.12948(8)
O5 O 0.1756(3) 1.1756(3) 0.1756(3)
O6 O 0.1395(2) 1.1491(2) 0.0506(2)
O6D O 0.0506(2) 1.1395(2) 0.1491(2)
O6H O 0.1491(2) 1.0506(2) 0.1395(2)
Cl4 Cl 0.08676(8) 0.77652(8) 0.12597(8)
O7 O 0.0981(3) 0.8563(2) 0.1238(2)
O8 O 0.0755(4) 0.7484(4) 0.0535(3)
O9 O 0.0214(3) 0.7593(3) 0.1729(3)
O10 O 0.1516(5) 0.7459(4) 0.1600(6)
O11 O 0.3203(2) 1.0296(2) 0.0922(2)
H21 H 0.3773 1.0070 0.0988
H22 H 0.3057 1.0322 0.1431
loop_
_geom_bond_atom_site_label_1
_geom_bond_atom_site_label_2
_geom_bond_site_symmetry_1
_geom_bond_site_symmetry_2
N1 C1 1_555 1_555
C1 H1 1_555 1_555
H2 C1 1_555 1_555
C2 C1 1_555 1_555
H3 C2 1_555 1_555
H4 C2 1_555 1_555
N2 C2 1_555 1_555
H5 N2 1_555 1_555
H6 N2 1_555 1_555
C3 N2 1_555 1_555
H7 C3 1_555 1_555
H8 C3 1_555 1_555
C4 C3 1_555 1_555
C5 C4 1_555 1_555
H9 C5 1_555 1_555
C6 C5 1_555 1_555
H10 C6 1_555 1_555
C7 C6 1_555 1_555
H11 C7 1_555 1_555
C8 C7 1_555 1_555
C9 C4 1_555 1_555
H12 C9 1_555 1_555
C10 C8 1_555 1_555
H13 C10 1_555 1_555
H14 C10 1_555 1_555
N3 C10 1_555 1_555
H15 N3 1_555 1_555
H16 N3 1_555 1_555
C11 N3 1_555 1_555
H17 C11 1_555 1_555
H18 C11 1_555 1_555
C12 C11 1_555 1_555
H19 C12 1_555 1_555
H20 C12 1_555 1_555
N4 C12 1_555 1_555
Cl1 O1 1_555 1_555
O2 Cl1 1_555 1_555
Cl2 O3 1_555 1_555
O4 Cl2 1_555 1_555
Cl3 O5 1_555 1_555
O6 Cl3 1_555 1_555
Cl4 O7 1_555 1_555
O8 Cl4 1_555 1_555
O9 Cl4 1_555 1_555
O10 Cl4 1_555 1_555
O11 H21 1_555 1_555
H22 O11 1_555 1_555
C12K N4 1_555 1_555
C11K C12K 1_555 1_555
N3K C11K 1_555 1_555
C10K N3K 1_555 1_555
C8K C10K 1_555 1_555
C7K C8K 1_555 1_555
C6K C7K 1_555 1_555
C5K C6K 1_555 1_555
C4K C5K 1_555 1_555
C3K C4K 1_555 1_555
N2K C3K 1_555 1_555
C2K N2K 1_555 1_555
C1K N1 1_555 1_555
C1E N1 1_555 1_555
H1E C1E 1_555 1_555
H2E C1E 1_555 1_555
C2E C1E 1_555 1_555
H3E C2E 1_555 1_555
H4E C2E 1_555 1_555
N2E C2E 1_555 1_555
H5E N2E 1_555 1_555
H6E N2E 1_555 1_555
C3E N2E 1_555 1_555
H7E C3E 1_555 1_555
H8E C3E 1_555 1_555
C4E C3E 1_555 1_555
C5E C4E 1_555 1_555
H9E C5E 1_555 1_555
C6E C5E 1_555 1_555
H10E C6E 1_555 1_555
C7E C6E 1_555 1_555
H11E C7E 1_555 1_555
C8E C7E 1_555 1_555
C9E C4E 1_555 1_555
H12E C9E 1_555 1_555
C10E C8E 1_555 1_555
H13E C10E 1_555 1_555
H14E C10E 1_555 1_555
N3E C10E 1_555 1_555
H15E N3E 1_555 1_555
H16E N3E 1_555 1_555
C11E N3E 1_555 1_555
H17E C11E 1_555 1_555
H18E C11E 1_555 1_555
C12E N4 1_555 1_555
H19E C12E 1_555 1_555
H20E C12E 1_555 1_555
H1K C1K 1_555 1_555
H2K C1K 1_555 1_555
H3K C2K 1_555 1_555
H4K C2K 1_555 1_555
H5K N2K 1_555 1_555
H6K N2K 1_555 1_555
H7K C3K 1_555 1_555
H8K C3K 1_555 1_555
C9K C8K 1_555 1_555
H12K C9K 1_555 1_555
H9K C5K 1_555 1_555
H10K C6K 1_555 1_555
H11K C7K 1_555 1_555
H13K C10K 1_555 1_555
H14K C10K 1_555 1_555
H15K N3K 1_555 1_555
H16K N3K 1_555 1_555
H17K C11K 1_555 1_555
H18K C11K 1_555 1_555
H19K C12K 1_555 1_555
H20K C12K 1_555 1_555
O2E Cl1 1_555 1_555
O2K Cl1 1_555 1_555
O3F Cl2 1_555 1_555
O3I Cl2 1_555 1_555
O6D Cl3 1_555 1_555
O6H Cl3 1_555 1_555
C8 C9 1_555 1_555
C4K C9K 1_555 1_555
C2K C1K 1_555 1_555
C8E C9E 1_555 1_555
C11E C12E 1_555 1_555

#END
