
#######################################################################
#
#                 Cambridge Crystallographic Data Centre
#                                CCDC 
#
#######################################################################
#
# If this CIF has been generated from an entry in the Cambridge 
# Structural Database, then it will include bibliographic, chemical, 
# crystal, experimental, refinement or atomic coordinate data resulting 
# from the CCDC's data processing and validation procedures.
#
#######################################################################

data_WOGDED
_chemical_name_common            
'(R)-(+)-N-Benzyl-1-phenylethylammonium (R)-2-chloromandelate'
_chemical_formula_moiety         'C15 H18 N1 1+,C8 H6 Cl1 O3 1-'
_chemical_name_systematic        
'(R)-N-Benzyl-1-phenylethanaminium (R)-(2-chlorophenyl)(hydroxy)acetate'
_symmetry_cell_setting           monoclinic
_symmetry_space_group_name_H-M   'P 21'
_symmetry_Int_Tables_number      4
_space_group_name_Hall           'P 2yb'
loop_
_symmetry_equiv_pos_site_id
_symmetry_equiv_pos_as_xyz
1 x,y,z
2 -x,1/2+y,-z
_cell_length_a                   9.8077(10)
_cell_length_b                   24.959(2)
_cell_length_c                   10.1277(10)
_cell_angle_alpha                90
_cell_angle_beta                 118.358(5)
_cell_angle_gamma                90
_cell_volume                     2181.66
_exptl_crystal_colour            colorless
_exptl_crystal_description       needle
_cell_formula_units_Z            4
loop_
_atom_site_label
_atom_site_type_symbol
_atom_site_fract_x
_atom_site_fract_y
_atom_site_fract_z
Cl1 Cl 0.1661(9) 0.13684(19) 0.7134(8)
C1 C 0.120(2) 0.1684(6) 0.539(2)
C2 C 0.062(3) 0.1349(10) 0.412(4)
H1 H 0.0504 0.0982 0.4203
C3 C 0.024(4) 0.1589(12) 0.274(4)
H2 H -0.0152 0.1383 0.1873
C4 C 0.043(5) 0.2103(14) 0.267(3)
H3 H 0.0169 0.2265 0.1752
C5 C 0.103(3) 0.2406(9) 0.396(2)
H4 H 0.1177 0.2769 0.3869
C6 C 0.142(2) 0.2222(6) 0.5320(17)
C7 C 0.192(2) 0.2587(5) 0.6653(18)
H5 H 0.2670 0.2395 0.7548
O1 O 0.2642(17) 0.3060(5) 0.6495(14)
H6 H 0.3472 0.2982 0.6532
C8 C 0.0525(19) 0.2737(6) 0.6879(17)
O2 O 0.0531(13) 0.3177(4) 0.7488(13)
O3 O -0.056(2) 0.2414(4) 0.6483(17)
N1 N 0.3037(14) 0.3791(4) 0.9153(13)
H7 H 0.2408 0.3548 0.8484
H8 H 0.3887 0.3822 0.9034
C9 C 0.183(3) 0.4458(6) 0.717(2)
H9 H 0.1232 0.4170 0.6517
H10 H 0.2768 0.4502 0.7109
H11 H 0.1234 0.4783 0.6857
C10 C 0.222(3) 0.4324(6) 0.8812(18)
H12 H 0.1252 0.4285 0.8866
C11 C 0.321(2) 0.4783(5) 0.9899(18)
C12 C 0.271(3) 0.4958(8) 1.086(2)
H13 H 0.1886 0.4802 1.0917
C13 C 0.357(3) 0.5410(8) 1.179(3)
H14 H 0.3196 0.5582 1.2367
C14 C 0.480(3) 0.5575(7) 1.183(2)
H15 H 0.5358 0.5849 1.2488
C15 C 0.535(2) 0.5353(7) 1.090(3)
H16 H 0.6241 0.5489 1.0912
C16 C 0.456(2) 0.4930(6) 0.995(2)
H17 H 0.4948 0.4756 0.9386
C17 C 0.351(3) 0.3591(6) 1.0684(17)
H18 H 0.2652 0.3635 1.0903
H19 H 0.4370 0.3803 1.1404
C18 C 0.398(3) 0.2998(6) 1.0856(16)
C19 C 0.545(4) 0.2881(8) 1.108(2)
H20 H 0.6162 0.3145 1.1167
C20 C 0.581(4) 0.2296(12) 1.117(3)
H21 H 0.6742 0.2176 1.1242
C21 C 0.473(6) 0.1943(11) 1.114(3)
H22 H 0.4974 0.1580 1.1268
C22 C 0.341(6) 0.2094(9) 1.093(3)
H23 H 0.2702 0.1834 1.0879
C23 C 0.296(3) 0.2627(8) 1.079(2)
H24 H 0.1982 0.2724 1.0642
Cl2 Cl 0.7921(9) 0.49419(18) 0.8770(6)
C24 C 0.882(2) 0.4566(6) 1.0380(19)
C25 C 0.958(3) 0.4822(8) 1.176(2)
H25 H 0.9599 0.5195 1.1796
C26 C 1.029(3) 0.4542(9) 1.303(2)
H26 H 1.0754 0.4724 1.3937
C27 C 1.036(3) 0.4001(10) 1.303(2)
H27 H 1.0876 0.3812 1.3919
C28 C 0.963(3) 0.3736(7) 1.1664(17)
H28 H 0.9676 0.3364 1.1648
C29 C 0.8825(13) 0.4020(5) 1.0289(17)
C30 C 0.7962(17) 0.3699(5) 0.8863(14)
H29 H 0.7900 0.3919 0.8034
O4 O 0.8768(18) 0.3218(5) 0.8900(15)
H30 H 0.9446 0.3285 0.8670
C31 C 0.633(2) 0.3581(6) 0.8552(15)
O5 O 0.5784(16) 0.3114(4) 0.8011(12)
O6 O 0.5622(15) 0.3939(5) 0.8845(15)
N2 N 0.6680(17) 0.2523(4) 0.6348(12)
H31 H 0.6723 0.2761 0.7035
H32 H 0.7624 0.2511 0.6408
C32 C 0.757(3) 0.1877(7) 0.8383(18)
H33 H 0.7626 0.2176 0.8999
H34 H 0.8562 0.1828 0.8418
H35 H 0.7311 0.1559 0.8749
C33 C 0.633(2) 0.1982(5) 0.6754(16)
H36 H 0.5342 0.2016 0.6770
C34 C 0.6121(19) 0.1540(6) 0.5670(15)
C35 C 0.461(2) 0.1330(6) 0.486(2)
H37 H 0.3788 0.1467 0.4976
C36 C 0.439(3) 0.0892(8) 0.384(2)
H38 H 0.3423 0.0730 0.3298
C37 C 0.562(4) 0.0726(8) 0.371(2)
H39 H 0.5481 0.0456 0.3031
C38 C 0.703(3) 0.0933(8) 0.452(3)
H40 H 0.7857 0.0791 0.4437
C39 C 0.728(3) 0.1372(8) 0.553(2)
H41 H 0.8248 0.1529 0.6062
C40 C 0.555(3) 0.2724(5) 0.4829(16)
H42 H 0.4505 0.2658 0.4658
H43 H 0.5691 0.2528 0.4073
C41 C 0.577(2) 0.3320(6) 0.4673(15)
C42 C 0.699(2) 0.3484(8) 0.449(2)
H44 H 0.7658 0.3241 0.4400
C43 C 0.717(3) 0.4024(12) 0.444(3)
H45 H 0.8032 0.4148 0.4369
C44 C 0.618(4) 0.4390(8) 0.449(3)
H46 H 0.6352 0.4754 0.4437
C45 C 0.492(3) 0.4223(8) 0.461(2)
H47 H 0.4196 0.4461 0.4615
C46 C 0.480(3) 0.3674(7) 0.472(2)
H48 H 0.3977 0.3547 0.4843
loop_
_geom_bond_atom_site_label_1
_geom_bond_atom_site_label_2
_geom_bond_site_symmetry_1
_geom_bond_site_symmetry_2
Cl1 C1 1_555 1_555
C1 C2 1_555 1_555
C2 H1 1_555 1_555
C3 C2 1_555 1_555
H2 C3 1_555 1_555
C4 C3 1_555 1_555
H3 C4 1_555 1_555
C5 C4 1_555 1_555
H4 C5 1_555 1_555
C6 C1 1_555 1_555
C7 C6 1_555 1_555
H5 C7 1_555 1_555
O1 C7 1_555 1_555
H6 O1 1_555 1_555
C8 C7 1_555 1_555
O2 C8 1_555 1_555
O3 C8 1_555 1_555
N1 H7 1_555 1_555
H8 N1 1_555 1_555
C9 H9 1_555 1_555
H10 C9 1_555 1_555
H11 C9 1_555 1_555
C10 N1 1_555 1_555
H12 C10 1_555 1_555
C11 C10 1_555 1_555
C12 C11 1_555 1_555
H13 C12 1_555 1_555
C13 C12 1_555 1_555
H14 C13 1_555 1_555
C14 C13 1_555 1_555
H15 C14 1_555 1_555
C15 C14 1_555 1_555
H16 C15 1_555 1_555
C16 C11 1_555 1_555
H17 C16 1_555 1_555
C17 N1 1_555 1_555
H18 C17 1_555 1_555
H19 C17 1_555 1_555
C18 C17 1_555 1_555
C19 C18 1_555 1_555
H20 C19 1_555 1_555
C20 C19 1_555 1_555
H21 C20 1_555 1_555
C21 C20 1_555 1_555
H22 C21 1_555 1_555
C22 C21 1_555 1_555
H23 C22 1_555 1_555
C23 C18 1_555 1_555
H24 C23 1_555 1_555
Cl2 C24 1_555 1_555
C24 C25 1_555 1_555
C25 H25 1_555 1_555
C26 C25 1_555 1_555
H26 C26 1_555 1_555
C27 C26 1_555 1_555
H27 C27 1_555 1_555
C28 C27 1_555 1_555
H28 C28 1_555 1_555
C29 C24 1_555 1_555
C30 C29 1_555 1_555
H29 C30 1_555 1_555
O4 C30 1_555 1_555
H30 O4 1_555 1_555
C31 C30 1_555 1_555
O5 C31 1_555 1_555
O6 C31 1_555 1_555
N2 H31 1_555 1_555
H32 N2 1_555 1_555
C32 H33 1_555 1_555
H34 C32 1_555 1_555
H35 C32 1_555 1_555
C33 N2 1_555 1_555
H36 C33 1_555 1_555
C34 C33 1_555 1_555
C35 C34 1_555 1_555
H37 C35 1_555 1_555
C36 C35 1_555 1_555
H38 C36 1_555 1_555
C37 C36 1_555 1_555
H39 C37 1_555 1_555
C38 C37 1_555 1_555
H40 C38 1_555 1_555
C39 C34 1_555 1_555
H41 C39 1_555 1_555
C40 N2 1_555 1_555
H42 C40 1_555 1_555
H43 C40 1_555 1_555
C41 C40 1_555 1_555
C42 C41 1_555 1_555
H44 C42 1_555 1_555
C43 C42 1_555 1_555
H45 C43 1_555 1_555
C44 C43 1_555 1_555
H46 C44 1_555 1_555
C45 C44 1_555 1_555
H47 C45 1_555 1_555
C46 C41 1_555 1_555
H48 C46 1_555 1_555
C5 C6 1_555 1_555
C9 C10 1_555 1_555
C15 C16 1_555 1_555
C22 C23 1_555 1_555
C28 C29 1_555 1_555
C32 C33 1_555 1_555
C38 C39 1_555 1_555
C45 C46 1_555 1_555

#END
