
#######################################################################
#
#                 Cambridge Crystallographic Data Centre
#                                CCDC 
#
#######################################################################
#
# If this CIF has been generated from an entry in the Cambridge 
# Structural Database, then it will include bibliographic, chemical, 
# crystal, experimental, refinement or atomic coordinate data resulting 
# from the CCDC's data processing and validation procedures.
#
#######################################################################

data_WOGHEF
_chemical_formula_moiety         'C14 H16 N2 O4 S2'
_chemical_name_systematic        
5-(4-Diallylamino-5H-1,2,3-dithiazol-5-ylidene)-2,2-dimethyl-1,3-dioxane-4,6-dione
_symmetry_cell_setting           triclinic
_symmetry_space_group_name_H-M   'P -1'
_symmetry_Int_Tables_number      2
_space_group_name_Hall           '-P 1'
loop_
_symmetry_equiv_pos_site_id
_symmetry_equiv_pos_as_xyz
1 x,y,z
2 -x,-y,-z
_cell_length_a                   7.389(2)
_cell_length_b                   10.165(2)
_cell_length_c                   12.128(3)
_cell_angle_alpha                109.600(10)
_cell_angle_beta                 107.55(2)
_cell_angle_gamma                94.24(2)
_cell_volume                     802.505
_cell_formula_units_Z            2
_exptl_crystal_recrystallization_method n-hexane/dichloromethane
loop_
_atom_site_label
_atom_site_type_symbol
_atom_site_fract_x
_atom_site_fract_y
_atom_site_fract_z
S1 S 0.33479(16) 0.35857(14) 0.35401(12)
S2 S 0.36262(17) 0.47471(16) 0.24932(13)
N1 N 0.1335(6) 0.4666(5) 0.1802(4)
N2 N -0.1836(5) 0.3759(5) 0.1453(4)
O1 O 0.2538(5) 0.2099(4) 0.4694(4)
O2 O -0.0050(4) 0.1765(4) 0.5163(3)
O3 O -0.2555(4) 0.2976(3) 0.4674(3)
O4 O -0.2484(4) 0.4441(4) 0.3706(3)
C1 C -0.1780(6) 0.3515(5) 0.3987(4)
C2 C -0.2119(6) 0.1667(5) 0.4793(5)
C3 C -0.2669(7) 0.1560(6) 0.5836(5)
H1 H -0.2402 0.0691 0.5940
H2 H -0.4025 0.1565 0.5658
H3 H -0.1937 0.2356 0.6588
C4 C -0.3130(8) 0.0416(6) 0.3590(6)
H4 H -0.2820 -0.0444 0.3698
H5 H -0.2712 0.0530 0.2945
H6 H -0.4503 0.0364 0.3359
C5 C 0.0887(7) 0.2273(5) 0.4558(5)
C6 C -0.0108(6) 0.2992(5) 0.3773(4)
C7 C 0.0890(6) 0.3470(5) 0.3121(4)
C8 C 0.0124(6) 0.3984(5) 0.2107(4)
C9 C -0.3015(7) 0.2347(6) 0.0991(5)
H7 H -0.4354 0.2430 0.0868
H8 H -0.2601 0.1926 0.1612
C10 C -0.2881(11) 0.1386(8) -0.0208(8)
H9 H -0.3202 0.1730 -0.0848
C11 C -0.2411(14) 0.0200(12) -0.0492(12)
H10 H -0.2070 -0.0218 0.0097
H11 H -0.2401 -0.0268 -0.1293
C12 C -0.2441(8) 0.4641(6) 0.0715(5)
H12 H -0.3792 0.4283 0.0191
H13 H -0.1687 0.4568 0.0174
C13 C -0.2181(8) 0.6169(7) 0.1527(6)
H14 H -0.2422 0.6366 0.2270
C14 C -0.1653(11) 0.7221(8) 0.1271(7)
H15 H -0.1400 0.7063 0.0536
H16 H -0.1520 0.8147 0.1821
loop_
_geom_bond_atom_site_label_1
_geom_bond_atom_site_label_2
_geom_bond_site_symmetry_1
_geom_bond_site_symmetry_2
S1 S2 1_555 1_555
S2 N1 1_555 1_555
N1 C8 1_555 1_555
N2 C8 1_555 1_555
O1 C5 1_555 1_555
O2 C2 1_555 1_555
O3 C1 1_555 1_555
O4 C1 1_555 1_555
C1 C6 1_555 1_555
C2 O3 1_555 1_555
C3 C2 1_555 1_555
H1 C3 1_555 1_555
H2 C3 1_555 1_555
H3 C3 1_555 1_555
C4 C2 1_555 1_555
H4 C4 1_555 1_555
H5 C4 1_555 1_555
H6 C4 1_555 1_555
C5 O2 1_555 1_555
C6 C5 1_555 1_555
C7 S1 1_555 1_555
C8 C7 1_555 1_555
C9 N2 1_555 1_555
H7 C9 1_555 1_555
H8 C9 1_555 1_555
C10 C9 1_555 1_555
H9 C10 1_555 1_555
C11 C10 1_555 1_555
H10 C11 1_555 1_555
H11 C11 1_555 1_555
C12 N2 1_555 1_555
H12 C12 1_555 1_555
H13 C12 1_555 1_555
C13 C12 1_555 1_555
H14 C13 1_555 1_555
C14 C13 1_555 1_555
H15 C14 1_555 1_555
H16 C14 1_555 1_555
C6 C7 1_555 1_555

#END
