
#######################################################################
#
#                 Cambridge Crystallographic Data Centre
#                                CCDC 
#
#######################################################################
#
# If this CIF has been generated from an entry in the Cambridge 
# Structural Database, then it will include bibliographic, chemical, 
# crystal, experimental, refinement or atomic coordinate data resulting 
# from the CCDC's data processing and validation procedures.
#
#######################################################################

data_WOGVAQ
_chemical_formula_moiety         'C15 H13 Br1 Cl1 N1 O1'
_chemical_name_systematic        
2-Bromo-4-chloro-6-((1-phenylethyl)iminomethyl)phenol
_symmetry_cell_setting           monoclinic
_symmetry_space_group_name_H-M   'C 2/c'
_symmetry_Int_Tables_number      15
_space_group_name_Hall           '-C 2yn'
loop_
_symmetry_equiv_pos_site_id
_symmetry_equiv_pos_as_xyz
1 x,y,z
2 1/2+x,1/2+y,z
3 -x,y,1/2-z
4 1/2-x,1/2+y,1/2-z
5 -x,-y,-z
6 1/2-x,1/2-y,-z
7 x,-y,1/2+z
8 1/2+x,1/2-y,1/2+z
_cell_length_a                   21.764(2)
_cell_length_b                   9.5088(13)
_cell_length_c                   15.3591(16)
_cell_angle_alpha                90
_cell_angle_beta                 113.426(2)
_cell_angle_gamma                90
_cell_volume                     2916.56
_exptl_crystal_colour            yellow
_exptl_crystal_description       block
_cell_formula_units_Z            8
loop_
_atom_site_label
_atom_site_type_symbol
_atom_site_fract_x
_atom_site_fract_y
_atom_site_fract_z
Br1 Br 1.16005(2) 0.40337(6) 0.56363(4)
Cl1 Cl 1.03028(8) 0.89286(15) 0.39942(12)
N1 N 0.91088(17) 0.2822(5) 0.2946(2)
O1 O 1.03226(14) 0.2790(3) 0.4226(2)
H1 H 0.9971 0.2461 0.3842
C1 C 0.9157(2) 0.4134(6) 0.2895(3)
H2 H 0.8799 0.4629 0.2457
C2 C 0.9755(2) 0.4910(5) 0.3496(3)
C3 C 1.0310(2) 0.4192(5) 0.4141(3)
C4 C 1.08586(19) 0.4972(5) 0.4726(3)
C5 C 1.0864(2) 0.6413(5) 0.4677(3)
H3 H 1.1236 0.6919 0.5071
C6 C 1.0313(2) 0.7100(5) 0.4038(3)
C7 C 0.9767(2) 0.6361(5) 0.3458(3)
H4 H 0.9397 0.6840 0.3031
C8 C 0.8465(2) 0.2157(5) 0.2340(3)
H5 H 0.8179 0.2867 0.1903
C9 C 0.8613(3) 0.1015(6) 0.1769(4)
H6 H 0.8795 0.1429 0.1352
H7 H 0.8208 0.0522 0.1401
H8 H 0.8932 0.0369 0.2191
C10 C 0.8132(2) 0.1667(5) 0.2970(3)
C11 C 0.7589(3) 0.2392(6) 0.2985(3)
H9 H 0.7422 0.3159 0.2585
C12 C 0.7289(3) 0.1996(8) 0.3585(5)
H10 H 0.6926 0.2505 0.3592
C13 C 0.7519(4) 0.0872(8) 0.4165(4)
H11 H 0.7311 0.0603 0.4562
C14 C 0.8051(4) 0.0142(6) 0.4165(4)
H12 H 0.8213 -0.0624 0.4569
C15 C 0.8358(3) 0.0533(6) 0.3563(4)
H13 H 0.8721 0.0019 0.3562
loop_
_geom_bond_atom_site_label_1
_geom_bond_atom_site_label_2
_geom_bond_site_symmetry_1
_geom_bond_site_symmetry_2
Br1 C4 1_555 1_555
Cl1 C6 1_555 1_555
N1 C1 1_555 1_555
O1 H1 1_555 1_555
C1 H2 1_555 1_555
C2 C1 1_555 1_555
C3 O1 1_555 1_555
C4 C3 1_555 1_555
C5 C4 1_555 1_555
H3 C5 1_555 1_555
C6 C5 1_555 1_555
C7 C2 1_555 1_555
H4 C7 1_555 1_555
C8 N1 1_555 1_555
H5 C8 1_555 1_555
C9 C8 1_555 1_555
H6 C9 1_555 1_555
H7 C9 1_555 1_555
H8 C9 1_555 1_555
C10 C8 1_555 1_555
C11 C10 1_555 1_555
H9 C11 1_555 1_555
C12 C11 1_555 1_555
H10 C12 1_555 1_555
C13 C12 1_555 1_555
H11 C13 1_555 1_555
C14 C13 1_555 1_555
H12 C14 1_555 1_555
C15 C10 1_555 1_555
H13 C15 1_555 1_555
C2 C3 1_555 1_555
C6 C7 1_555 1_555
C14 C15 1_555 1_555

#END
