
#######################################################################
#
#                 Cambridge Crystallographic Data Centre
#                                CCDC 
#
#######################################################################
#
# If this CIF has been generated from an entry in the Cambridge 
# Structural Database, then it will include bibliographic, chemical, 
# crystal, experimental, refinement or atomic coordinate data resulting 
# from the CCDC's data processing and validation procedures.
#
#######################################################################

data_WOGXOG
_chemical_formula_moiety         'C16 H13 F3 N2 O1,H2 O1'
_chemical_name_systematic        
'1-Phenyl-5-(4-(trifluoromethyl)phenyl)pyrazolidin-3-one monohydrate'
_symmetry_cell_setting           triclinic
_symmetry_space_group_name_H-M   'P -1'
_symmetry_Int_Tables_number      2
_space_group_name_Hall           '-P 1'
loop_
_symmetry_equiv_pos_site_id
_symmetry_equiv_pos_as_xyz
1 x,y,z
2 -x,-y,-z
_cell_length_a                   7.4960(15)
_cell_length_b                   9.794(2)
_cell_length_c                   13.319(3)
_cell_angle_alpha                97.70(3)
_cell_angle_beta                 101.58(3)
_cell_angle_gamma                107.97(3)
_cell_volume                     890.827
_exptl_crystal_colour            colorless
_exptl_crystal_description       needle
_cell_formula_units_Z            2
_exptl_crystal_recrystallization_method 'ethyl acetate'
loop_
_atom_site_label
_atom_site_type_symbol
_atom_site_fract_x
_atom_site_fract_y
_atom_site_fract_z
O1 O 0.464(3) 1.4138(15) 1.0235(11)
H1 H 0.5305 1.3813 1.0675
H2 H 0.4367 1.4891 1.0439
O2 O 0.805(3) 1.5022(19) 1.0058(13)
H3 H 0.8673 1.5642 0.9752
H4 H 0.7436 1.5280 1.0477
O3 O 0.7711(4) 1.0639(3) 1.0297(2)
N1 N 0.5378(4) 0.9682(3) 0.8750(2)
H5 H 0.4422 0.9388 0.9027
N2 N 0.5122(4) 0.9482(3) 0.7661(2)
F1 F 0.8128(5) 0.3357(4) 0.6898(3)
F2 F 0.7729(6) 0.3635(4) 0.5389(3)
F3 F 1.0292(5) 0.4452(4) 0.6316(3)
C1 C 0.8642(9) 0.4424(7) 0.6409(5)
C2 C 0.8153(7) 0.5692(4) 0.6625(3)
C3 C 0.6372(7) 0.5629(5) 0.6753(4)
H6 H 0.5419 0.4721 0.6676
C4 C 0.5972(6) 0.6888(5) 0.6994(4)
H7 H 0.4717 0.6827 0.7014
C5 C 0.7395(5) 0.8228(4) 0.7207(3)
C6 C 0.9191(5) 0.8233(4) 0.7059(3)
H8 H 1.0176 0.9128 0.7150
C7 C 0.9539(6) 0.6985(5) 0.6791(3)
H9 H 1.0764 0.7030 0.6721
C8 C 0.7150(4) 0.9668(4) 0.7541(2)
H10 H 0.7384 1.0243 0.7003
C9 C 0.8485(5) 1.0570(4) 0.8573(2)
H11 H 0.9001 1.1596 0.8538
H12 H 0.9556 1.0222 0.8777
C10 C 0.7225(5) 1.0368(4) 0.9337(3)
C11 C 0.4190(4) 1.0326(4) 0.7171(3)
C12 C 0.3624(5) 1.0040(4) 0.6080(3)
H13 H 0.3921 0.9310 0.5698
C13 C 0.2660(6) 1.0793(5) 0.5571(3)
H14 H 0.2318 1.0592 0.4842
C14 C 0.2170(6) 1.1866(5) 0.6116(4)
H15 H 0.1510 1.2393 0.5760
C15 C 0.2666(6) 1.2142(4) 0.7181(4)
H16 H 0.2292 1.2840 0.7545
C16 C 0.3695(5) 1.1430(4) 0.7737(3)
H17 H 0.4060 1.1662 0.8466
loop_
_geom_bond_atom_site_label_1
_geom_bond_atom_site_label_2
_geom_bond_site_symmetry_1
_geom_bond_site_symmetry_2
O1 H1 1_555 1_555
H2 O1 1_555 1_555
O2 H3 1_555 1_555
H4 O2 1_555 1_555
O3 C10 1_555 1_555
N1 H5 1_555 1_555
N2 N1 1_555 1_555
F1 C1 1_555 1_555
F2 C1 1_555 1_555
F3 C1 1_555 1_555
C1 C2 1_555 1_555
C2 C3 1_555 1_555
C3 H6 1_555 1_555
C4 C3 1_555 1_555
H7 C4 1_555 1_555
C5 C4 1_555 1_555
C6 C5 1_555 1_555
H8 C6 1_555 1_555
C7 C2 1_555 1_555
H9 C7 1_555 1_555
C8 N2 1_555 1_555
H10 C8 1_555 1_555
C9 C8 1_555 1_555
H11 C9 1_555 1_555
H12 C9 1_555 1_555
C10 N1 1_555 1_555
C11 N2 1_555 1_555
C12 C11 1_555 1_555
H13 C12 1_555 1_555
C13 C12 1_555 1_555
H14 C13 1_555 1_555
C14 C13 1_555 1_555
H15 C14 1_555 1_555
C15 C14 1_555 1_555
H16 C15 1_555 1_555
C16 C11 1_555 1_555
H17 C16 1_555 1_555
C5 C8 1_555 1_555
C6 C7 1_555 1_555
C9 C10 1_555 1_555
C15 C16 1_555 1_555

#END
