
#######################################################################
#
#                 Cambridge Crystallographic Data Centre
#                                CCDC 
#
#######################################################################
#
# If this CIF has been generated from an entry in the Cambridge 
# Structural Database, then it will include bibliographic, chemical, 
# crystal, experimental, refinement or atomic coordinate data resulting 
# from the CCDC's data processing and validation procedures.
#
#######################################################################

data_WOGYAT
_chemical_formula_moiety         'C15 H8 Cl3 N1 O1'
_chemical_name_systematic        
(E)-5-Chloro-3-(2,6-dichlorobenzylidene)indolin-2-one
_symmetry_cell_setting           triclinic
_symmetry_space_group_name_H-M   'P -1'
_symmetry_Int_Tables_number      2
_space_group_name_Hall           '-P 1'
loop_
_symmetry_equiv_pos_site_id
_symmetry_equiv_pos_as_xyz
1 x,y,z
2 -x,-y,-z
_cell_length_a                   8.0809(6)
_cell_length_b                   13.4944(11)
_cell_length_c                   14.3698(16)
_cell_angle_alpha                63.1160(10)
_cell_angle_beta                 82.973(2)
_cell_angle_gamma                80.1620(10)
_cell_volume                     1375.26
_exptl_crystal_colour            orange
_exptl_crystal_description       rod
_cell_formula_units_Z            4
_exptl_crystal_recrystallization_method ethanol
loop_
_atom_site_label
_atom_site_type_symbol
_atom_site_fract_x
_atom_site_fract_y
_atom_site_fract_z
N1 N 0.8654(3) 0.07885(18) 0.38440(16)
H1 H 0.8834 0.0942 0.4340
C1 C 0.9186(3) -0.0212(2) 0.38197(19)
O1 O 1.0019(3) -0.10122(17) 0.44698(16)
C2 C 0.8546(3) -0.0123(2) 0.28386(18)
C3 C 0.6911(3) 0.1609(2) 0.13832(19)
H2 H 0.6838 0.1275 0.0950
C4 C 0.6255(4) 0.2711(2) 0.1105(2)
Cl1 Cl 0.53114(14) 0.34756(7) -0.00817(7)
C5 C 0.6336(4) 0.3220(2) 0.1745(2)
H3 H 0.5871 0.3964 0.1540
C6 C 0.7100(4) 0.2633(2) 0.2680(2)
H4 H 0.7157 0.2968 0.3114
C7 C 0.7778(3) 0.1536(2) 0.29584(19)
C8 C 0.7679(3) 0.10133(19) 0.23239(18)
C9 C 0.8876(3) -0.0984(2) 0.26019(19)
H5 H 0.9537 -0.1608 0.3067
C10 C 0.8348(3) -0.10953(18) 0.17102(18)
C11 C 0.6685(3) -0.1043(2) 0.15124(19)
Cl2 Cl 0.50744(9) -0.07520(7) 0.23006(6)
C12 C 0.6254(4) -0.1275(3) 0.0740(2)
H6 H 0.5128 -0.1237 0.0632
C13 C 0.7491(4) -0.1563(3) 0.0131(2)
H7 H 0.7202 -0.1718 -0.0393
C14 C 0.9149(4) -0.1623(3) 0.0288(2)
H8 H 0.9991 -0.1817 -0.0124
C15 C 0.9551(3) -0.1393(2) 0.1065(2)
Cl3 Cl 1.16558(10) -0.14706(9) 0.12559(7)
N2 N 0.3669(3) 0.12638(17) 0.40122(17)
H9 H 0.3913 0.0600 0.4054
C16 C 0.4168(4) 0.1590(2) 0.4684(2)
O2 O 0.5053(3) 0.10166(16) 0.54222(16)
C17 C 0.3436(3) 0.28014(19) 0.43404(19)
C18 C 0.1590(4) 0.4078(2) 0.2758(2)
H10 H 0.1457 0.4719 0.2863
C19 C 0.0844(4) 0.4072(2) 0.1947(2)
Cl4 Cl -0.04299(14) 0.52723(8) 0.11626(7)
C20 C 0.1041(4) 0.3135(3) 0.1766(2)
H11 H 0.0546 0.3164 0.1201
C21 C 0.1976(4) 0.2155(2) 0.2423(2)
H12 H 0.2107 0.1517 0.2313
C22 C 0.2706(3) 0.2145(2) 0.32410(19)
C23 C 0.2540(3) 0.3105(2) 0.34098(19)
C24 C 0.3666(3) 0.3334(2) 0.48909(19)
H13 H 0.4207 0.2894 0.5511
C25 C 0.3183(3) 0.4519(2) 0.46532(19)
C26 C 0.3765(4) 0.5398(2) 0.3753(2)
Cl5 Cl 0.50911(12) 0.51303(6) 0.28279(6)
C27 C 0.3398(4) 0.6498(2) 0.3583(2)
H14 H 0.3818 0.7061 0.2979
C28 C 0.2410(4) 0.6762(2) 0.4306(3)
H15 H 0.2143 0.7507 0.4185
C29 C 0.1809(4) 0.5927(2) 0.5213(3)
H16 H 0.1142 0.6102 0.5707
C30 C 0.2217(4) 0.4827(2) 0.5371(2)
Cl6 Cl 0.14997(12) 0.37906(7) 0.65309(6)
loop_
_geom_bond_atom_site_label_1
_geom_bond_atom_site_label_2
_geom_bond_site_symmetry_1
_geom_bond_site_symmetry_2
N1 H1 1_555 1_555
C1 N1 1_555 1_555
O1 C1 1_555 1_555
C2 C1 1_555 1_555
C3 H2 1_555 1_555
C4 C3 1_555 1_555
Cl1 C4 1_555 1_555
C5 C4 1_555 1_555
H3 C5 1_555 1_555
C6 C5 1_555 1_555
H4 C6 1_555 1_555
C7 N1 1_555 1_555
C8 C2 1_555 1_555
C9 C2 1_555 1_555
H5 C9 1_555 1_555
C10 C9 1_555 1_555
C11 C10 1_555 1_555
Cl2 C11 1_555 1_555
C12 C11 1_555 1_555
H6 C12 1_555 1_555
C13 C12 1_555 1_555
H7 C13 1_555 1_555
C14 C13 1_555 1_555
H8 C14 1_555 1_555
C15 C10 1_555 1_555
Cl3 C15 1_555 1_555
N2 H9 1_555 1_555
C16 N2 1_555 1_555
O2 C16 1_555 1_555
C17 C16 1_555 1_555
C18 H10 1_555 1_555
C19 C18 1_555 1_555
Cl4 C19 1_555 1_555
C20 C19 1_555 1_555
H11 C20 1_555 1_555
C21 C20 1_555 1_555
H12 C21 1_555 1_555
C22 N2 1_555 1_555
C23 C17 1_555 1_555
C24 C17 1_555 1_555
H13 C24 1_555 1_555
C25 C24 1_555 1_555
C26 C25 1_555 1_555
Cl5 C26 1_555 1_555
C27 C26 1_555 1_555
H14 C27 1_555 1_555
C28 C27 1_555 1_555
H15 C28 1_555 1_555
C29 C28 1_555 1_555
H16 C29 1_555 1_555
C30 C25 1_555 1_555
Cl6 C30 1_555 1_555
C3 C8 1_555 1_555
C6 C7 1_555 1_555
C7 C8 1_555 1_555
C14 C15 1_555 1_555
C18 C23 1_555 1_555
C21 C22 1_555 1_555
C22 C23 1_555 1_555
C29 C30 1_555 1_555

#END
