
#######################################################################
#
#                 Cambridge Crystallographic Data Centre
#                                CCDC 
#
#######################################################################
#
# If this CIF has been generated from an entry in the Cambridge 
# Structural Database, then it will include bibliographic, chemical, 
# crystal, experimental, refinement or atomic coordinate data resulting 
# from the CCDC's data processing and validation procedures.
#
#######################################################################

data_WOGZOJ
_chemical_formula_moiety         'C30 H33 O3 P1'
_chemical_name_systematic        
'3-Hydroxyestra-1(10),2,4-trien-17-yl diphenylphosphinate'
_symmetry_cell_setting           orthorhombic
_symmetry_space_group_name_H-M   'P 21 21 21'
_symmetry_Int_Tables_number      19
_space_group_name_Hall           'P 2ac 2ab'
loop_
_symmetry_equiv_pos_site_id
_symmetry_equiv_pos_as_xyz
1 x,y,z
2 1/2-x,-y,1/2+z
3 -x,1/2+y,1/2-z
4 1/2+x,1/2-y,-z
_cell_length_a                   11.786(3)
_cell_length_b                   14.087(4)
_cell_length_c                   15.181(4)
_cell_angle_alpha                90
_cell_angle_beta                 90
_cell_angle_gamma                90
_cell_volume                     2520.49
_exptl_crystal_colour            colorless
_exptl_crystal_description       Prism
_cell_formula_units_Z            4
loop_
_atom_site_label
_atom_site_type_symbol
_atom_site_fract_x
_atom_site_fract_y
_atom_site_fract_z
P1 P 0.64950(5) 0.18064(4) 0.06611(4)
O1 O 0.53802(12) 0.14102(10) 0.09201(10)
O2 O 0.69466(12) 0.26739(9) 0.12406(9)
O3 O 0.38129(13) 0.99691(10) 0.05402(11)
H1 H 0.4321 1.0328 0.0740
C1 C 0.76426(17) 0.09915(14) 0.08159(13)
C2 C 0.73745(19) 0.00676(15) 0.10576(14)
H2 H 0.6603 -0.0106 0.1141
C3 C 0.82187(19) -0.06015(15) 0.11785(15)
H3 H 0.8026 -0.1233 0.1341
C4 C 0.93464(19) -0.03498(16) 0.10626(15)
H4 H 0.9928 -0.0807 0.1150
C5 C 0.96243(19) 0.05728(16) 0.08184(15)
H5 H 1.0396 0.0747 0.0735
C6 C 0.87754(18) 0.12349(15) 0.06972(15)
H6 H 0.8967 0.1865 0.0531
C7 C 0.65032(18) 0.22110(14) -0.04597(13)
C8 C 0.57160(19) 0.18150(17) -0.10414(15)
H7 H 0.5188 0.1356 -0.0836
C9 C 0.5705(2) 0.20930(19) -0.19217(16)
H8 H 0.5166 0.1828 -0.2316
C10 C 0.6481(2) 0.27544(18) -0.22202(15)
H9 H 0.6471 0.2941 -0.2822
C11 C 0.7268(2) 0.31474(17) -0.16568(15)
H10 H 0.7795 0.3604 -0.1868
C12 C 0.72884(19) 0.28724(15) -0.07770(14)
H11 H 0.7838 0.3135 -0.0390
C13 C 0.64478(19) 0.35855(13) 0.12860(12)
C14 C 0.71965(18) 0.43347(15) 0.12723(14)
H12 H 0.7988 0.4229 0.1208
C15 C 0.67735(17) 0.52410(14) 0.13546(14)
H13 H 0.7286 0.5761 0.1348
C16 C 0.56080(17) 0.54218(14) 0.14487(13)
C17 C 0.51759(16) 0.64345(14) 0.15373(13)
H14 H 0.5238 0.6610 0.2174
C18 C 0.59040(17) 0.71485(14) 0.10181(14)
H15 H 0.6690 0.7126 0.1246
H16 H 0.5925 0.6951 0.0392
C19 C 0.54719(17) 0.81761(15) 0.10701(14)
H17 H 0.5604 0.8424 0.1671
H18 H 0.5910 0.8574 0.0654
C20 C 0.42132(17) 0.82537(14) 0.08521(12)
C21 C 0.36467(18) 0.91894(14) 0.11302(14)
H19 H 0.3921 0.9371 0.1730
C22 C 0.23746(19) 0.89367(15) 0.11784(15)
H20 H 0.1989 0.9111 0.0622
H21 H 0.2006 0.9281 0.1670
C23 C 0.23088(18) 0.78479(15) 0.13313(15)
H22 H 0.1868 0.7699 0.1869
H23 H 0.1954 0.7525 0.0822
C24 C 0.35582(18) 0.75489(14) 0.14361(13)
H24 H 0.3772 0.7701 0.2058
C25 C 0.39135(17) 0.65223(14) 0.12823(13)
H25 H 0.3832 0.6374 0.0641
C26 C 0.32483(18) 0.57907(15) 0.18088(14)
H26 H 0.2426 0.5880 0.1704
H27 H 0.3394 0.5883 0.2445
C27 C 0.35918(18) 0.47839(14) 0.15428(14)
H28 H 0.3291 0.4332 0.1984
H29 H 0.3237 0.4630 0.0969
C28 C 0.48639(18) 0.46447(14) 0.14663(13)
C29 C 0.52989(17) 0.37251(14) 0.13871(13)
H30 H 0.4801 0.3195 0.1403
C30 C 0.40269(19) 0.80891(16) -0.01396(13)
H31 H 0.4335 0.8627 -0.0471
H32 H 0.3213 0.8030 -0.0259
H33 H 0.4414 0.7505 -0.0320
loop_
_geom_bond_atom_site_label_1
_geom_bond_atom_site_label_2
_geom_bond_site_symmetry_1
_geom_bond_site_symmetry_2
P1 O1 1_555 1_555
O2 P1 1_555 1_555
O3 H1 1_555 1_555
C1 P1 1_555 1_555
C2 C1 1_555 1_555
H2 C2 1_555 1_555
C3 C2 1_555 1_555
H3 C3 1_555 1_555
C4 C3 1_555 1_555
H4 C4 1_555 1_555
C5 C4 1_555 1_555
H5 C5 1_555 1_555
C6 C1 1_555 1_555
H6 C6 1_555 1_555
C7 P1 1_555 1_555
C8 C7 1_555 1_555
H7 C8 1_555 1_555
C9 C8 1_555 1_555
H8 C9 1_555 1_555
C10 C9 1_555 1_555
H9 C10 1_555 1_555
C11 C10 1_555 1_555
H10 C11 1_555 1_555
C12 C7 1_555 1_555
H11 C12 1_555 1_555
C13 O2 1_555 1_555
C14 C13 1_555 1_555
H12 C14 1_555 1_555
C15 C14 1_555 1_555
H13 C15 1_555 1_555
C16 C15 1_555 1_555
C17 C16 1_555 1_555
H14 C17 1_555 1_555
C18 C17 1_555 1_555
H15 C18 1_555 1_555
H16 C18 1_555 1_555
C19 C18 1_555 1_555
H17 C19 1_555 1_555
H18 C19 1_555 1_555
C20 C19 1_555 1_555
C21 O3 1_555 1_555
H19 C21 1_555 1_555
C22 C21 1_555 1_555
H20 C22 1_555 1_555
H21 C22 1_555 1_555
C23 C22 1_555 1_555
H22 C23 1_555 1_555
H23 C23 1_555 1_555
C24 C20 1_555 1_555
H24 C24 1_555 1_555
C25 C17 1_555 1_555
H25 C25 1_555 1_555
C26 C25 1_555 1_555
H26 C26 1_555 1_555
H27 C26 1_555 1_555
C27 C26 1_555 1_555
H28 C27 1_555 1_555
H29 C27 1_555 1_555
C28 C16 1_555 1_555
C29 C13 1_555 1_555
H30 C29 1_555 1_555
C30 C20 1_555 1_555
H31 C30 1_555 1_555
H32 C30 1_555 1_555
H33 C30 1_555 1_555
C5 C6 1_555 1_555
C11 C12 1_555 1_555
C20 C21 1_555 1_555
C23 C24 1_555 1_555
C24 C25 1_555 1_555
C27 C28 1_555 1_555
C28 C29 1_555 1_555

#END
