
#######################################################################
#
#                 Cambridge Crystallographic Data Centre
#                                CCDC 
#
#######################################################################
#
# If this CIF has been generated from an entry in the Cambridge 
# Structural Database, then it will include bibliographic, chemical, 
# crystal, experimental, refinement or atomic coordinate data resulting 
# from the CCDC's data processing and validation procedures.
#
#######################################################################

data_WOHFOQ
_chemical_name_common            
'5,11,17,23-tetra-t-butyl-25,27-dihydroxy-26,28-bis(2-(((5-(dimethylamino)naphthalen-1-yl)sulfonyl)amino)ethoxy)calix(4)arene acetonitrile solvate'
_chemical_formula_moiety         'C72 H88 N4 O8 S2,4(C2 H3 N1)'
_chemical_name_systematic        
"N,N'-((5,11,17,23-tetra-t-butyl-26,28-dihydroxypentacyclo[19.3.1.1^3,7^.1^9,13^.1^15,19^]octacosa-1(25),3(28),4,6,9(27),10,12,15(26),16,18,21,23-dodecaene-25,27-diyl)bis(oxyethane-2,1-diyl))bis(5-(dimethylamino)naphthalene-1-sulfonamide) acetonitrile solvate"
_symmetry_cell_setting           triclinic
_symmetry_space_group_name_H-M   'P -1'
_symmetry_Int_Tables_number      2
_space_group_name_Hall           '-P 1'
loop_
_symmetry_equiv_pos_site_id
_symmetry_equiv_pos_as_xyz
1 x,y,z
2 -x,-y,-z
_cell_length_a                   12.1816(3)
_cell_length_b                   24.5969(7)
_cell_length_c                   26.7522(7)
_cell_angle_alpha                102.923(10)
_cell_angle_beta                 95.542(10)
_cell_angle_gamma                98.546(10)
_cell_volume                     7655.59
_exptl_crystal_colour            colorless
_exptl_crystal_description       prism
_cell_formula_units_Z            4
loop_
_atom_site_label
_atom_site_type_symbol
_atom_site_fract_x
_atom_site_fract_y
_atom_site_fract_z
S1 S 0.53554(6) 0.96814(3) 0.63214(2)
S2 S 0.02056(5) 0.85885(3) 0.63021(2)
O1 O 0.47111(15) 0.81454(7) 0.57227(7)
O2 O 0.25465(13) 0.76923(7) 0.54442(6)
O3 O 0.26999(16) 0.76989(7) 0.65514(7)
O4 O 0.48289(13) 0.82795(7) 0.68648(6)
O5 O 0.64921(16) 0.95818(8) 0.64029(7)
O6 O 0.51515(17) 1.02224(8) 0.65842(7)
O7 O -0.02794(15) 0.82142(8) 0.65944(7)
O8 O -0.04989(15) 0.87243(8) 0.59023(7)
N1 N 0.44628(19) 0.91973(9) 0.64729(8)
N2 N 0.11752(18) 0.83005(9) 0.60347(8)
N3 N 0.2248(2) 0.93527(10) 0.41121(9)
N4 N 0.34228(18) 1.04131(9) 0.82251(8)
C1 C 0.6799(2) 0.82239(10) 0.63184(9)
H1 H 0.7613 0.8374 0.6381
H2 H 0.6398 0.8550 0.6363
C2 C 0.6482(2) 0.78602(10) 0.57693(9)
C3 C 0.5431(2) 0.78249(10) 0.54880(9)
C4 C 0.5148(2) 0.74773(10) 0.49867(10)
C5 C 0.5907(2) 0.71477(11) 0.47813(10)
H3 H 0.5713 0.6910 0.4442
C6 C 0.6938(2) 0.71543(11) 0.50554(10)
C7 C 0.7216(2) 0.75231(10) 0.55450(10)
H4 H 0.7931 0.7546 0.5733
C8 C 0.7750(2) 0.67646(12) 0.48480(12)
C9 C 0.7942(3) 0.63905(15) 0.52255(17)
H5 H 0.7219 0.6186 0.5271
H6 H 0.8316 0.6629 0.5560
H7 H 0.8413 0.6118 0.5086
C10 C 0.7302(3) 0.63824(17) 0.43174(15)
H8 H 0.7837 0.6134 0.4208
H9 H 0.7195 0.6615 0.4069
H10 H 0.6583 0.6152 0.4333
C11 C 0.8884(2) 0.71162(14) 0.48303(13)
H11 H 0.9413 0.6863 0.4723
H12 H 0.9172 0.7361 0.5175
H13 H 0.8796 0.7350 0.4582
C12 C 0.4001(2) 0.74229(11) 0.46790(9)
H14 H 0.3745 0.7793 0.4755
H15 H 0.4055 0.7314 0.4304
C13 C 0.3156(2) 0.69790(10) 0.48182(9)
C14 C 0.2476(2) 0.71211(10) 0.51980(9)
C15 C 0.1788(2) 0.67085(10) 0.53639(9)
C16 C 0.1768(2) 0.61415(10) 0.51162(10)
H16 H 0.1293 0.5855 0.5219
C17 C 0.2416(2) 0.59796(10) 0.47261(10)
C18 C 0.3106(2) 0.64071(10) 0.45873(10)
H17 H 0.3563 0.6306 0.4325
C19 C 0.2426(2) 0.53527(11) 0.44856(11)
C20 C 0.3211(6) 0.5163(3) 0.4887(3)
H18 H 0.3270 0.4765 0.4754
H19 H 0.2899 0.5207 0.5215
H20 H 0.3956 0.5399 0.4944
C21 C 0.2951(6) 0.5272(3) 0.3975(3)
H21 H 0.2957 0.4868 0.3837
H22 H 0.3720 0.5483 0.4043
H23 H 0.2507 0.5413 0.3722
C22 C 0.1308(5) 0.5013(3) 0.4388(3)
H24 H 0.0812 0.5171 0.4170
H25 H 0.1018 0.5016 0.4718
H26 H 0.1342 0.4622 0.4211
C23 C 0.1138(2) 0.68461(10) 0.58201(9)
H27 H 0.1041 0.7247 0.5883
H28 H 0.0384 0.6607 0.5737
C24 C 0.1744(2) 0.67446(10) 0.63061(9)
C25 C 0.2551(2) 0.71653(10) 0.66477(9)
C26 C 0.3164(2) 0.70460(10) 0.70638(9)
C27 C 0.2953(2) 0.64966(11) 0.71395(10)
H29 H 0.3383 0.6410 0.7418
C28 C 0.2136(2) 0.60734(11) 0.68211(10)
C29 C 0.1542(2) 0.62136(11) 0.64100(10)
H30 H 0.0972 0.5932 0.6191
C30 C 0.1848(3) 0.54800(11) 0.69145(11)
C31 C 0.1929(3) 0.50296(12) 0.64263(12)
H31 H 0.1746 0.4652 0.6491
H32 H 0.2693 0.5086 0.6338
H33 H 0.1401 0.5063 0.6139
C32 C 0.2642(3) 0.53985(13) 0.73605(13)
H34 H 0.2433 0.5015 0.7409
H35 H 0.2589 0.5677 0.7679
H36 H 0.3412 0.5452 0.7279
C33 C 0.0646(3) 0.53959(13) 0.70511(13)
H37 H 0.0121 0.5422 0.6759
H38 H 0.0590 0.5690 0.7357
H39 H 0.0462 0.5022 0.7124
C34 C 0.4068(2) 0.74835(10) 0.74367(9)
H40 H 0.3841 0.7860 0.7489
H41 H 0.4140 0.7385 0.7776
C35 C 0.5195(2) 0.75133(10) 0.72356(9)
C36 C 0.5528(2) 0.78941(10) 0.69418(9)
C37 C 0.6501(2) 0.78820(10) 0.67069(9)
C38 C 0.7193(2) 0.75071(11) 0.68175(10)
H42 H 0.7877 0.7506 0.6675
C39 C 0.6921(2) 0.71362(11) 0.71272(10)
C40 C 0.5902(2) 0.71373(11) 0.73233(10)
H43 H 0.5683 0.6875 0.7522
C41 C 0.7752(3) 0.67566(14) 0.72478(12)
C42 C 0.8827(3) 0.71401(18) 0.75567(15)
H44 H 0.9385 0.6907 0.7622
H45 H 0.8657 0.7353 0.7887
H46 H 0.9125 0.7405 0.7358
C43 C 0.8053(3) 0.64182(15) 0.67432(14)
H47 H 0.8570 0.6169 0.6821
H48 H 0.8412 0.6679 0.6555
H49 H 0.7371 0.6189 0.6530
C44 C 0.7287(4) 0.6348(2) 0.75569(19)
H50 H 0.6608 0.6100 0.7358
H51 H 0.7105 0.6562 0.7884
H52 H 0.7848 0.6118 0.7628
C45 C 0.5172(2) 0.88362(10) 0.72106(9)
H53 H 0.5970 0.8982 0.7202
H54 H 0.5068 0.8822 0.7570
C46 C 0.4438(2) 0.92106(11) 0.70205(10)
H55 H 0.3657 0.9087 0.7076
H56 H 0.4688 0.9605 0.7227
C47 C 0.4916(2) 0.95099(10) 0.56461(10)
C48 C 0.5612(2) 0.92494(11) 0.53398(10)
H57 H 0.6290 0.9171 0.5491
C49 C 0.5323(2) 0.90980(11) 0.48009(10)
H58 H 0.5817 0.8926 0.4587
C50 C 0.4333(2) 0.91960(11) 0.45814(10)
H59 H 0.4155 0.9098 0.4215
C51 C 0.2526(2) 0.95374(12) 0.46530(11)
C52 C 0.1867(2) 0.98354(12) 0.49651(12)
H60 H 0.1188 0.9913 0.4814
C53 C 0.2185(2) 1.00252(12) 0.55025(12)
H61 H 0.1721 1.0236 0.5705
C54 C 0.3143(2) 0.99156(11) 0.57437(11)
H62 H 0.3325 1.0033 0.6109
C55 C 0.3869(2) 0.96189(10) 0.54330(10)
C56 C 0.3565(2) 0.94419(11) 0.48915(10)
C57 C 0.2022(3) 0.87383(13) 0.38997(12)
H63 H 0.1240 0.8589 0.3921
H64 H 0.2519 0.8561 0.4099
H65 H 0.2154 0.8653 0.3537
C58 C 0.1433(3) 0.96210(14) 0.38756(12)
H66 H 0.1414 0.9517 0.3499
H67 H 0.1639 1.0033 0.4002
H68 H 0.0692 0.9495 0.3965
C59 C 0.1808(2) 0.79981(10) 0.52052(10)
H69 H 0.1068 0.7756 0.5070
H70 H 0.2130 0.8123 0.4915
C60 C 0.1695(2) 0.85020(10) 0.56236(10)
H71 H 0.2442 0.8734 0.5765
H72 H 0.1227 0.8741 0.5479
C61 C 0.0870(2) 0.92426(10) 0.67304(9)
C62 C 0.0738(2) 0.97212(11) 0.65657(10)
H73 H 0.0290 0.9691 0.6246
C63 C 0.1263(2) 1.02552(11) 0.68691(10)
H74 H 0.1149 1.0587 0.6761
C64 C 0.1937(2) 1.02994(10) 0.73189(10)
H75 H 0.2296 1.0663 0.7518
C65 C 0.2829(2) 0.98628(10) 0.79671(10)
C66 C 0.2902(2) 0.93886(11) 0.81528(10)
H76 H 0.3347 0.9422 0.8473
C67 C 0.2316(2) 0.88548(11) 0.78681(10)
H77 H 0.2375 0.8532 0.8002
C68 C 0.1668(2) 0.87866(10) 0.74067(10)
H78 H 0.1300 0.8419 0.7219
C69 C 0.1542(2) 0.92677(10) 0.72050(9)
C70 C 0.2111(2) 0.98139(10) 0.74948(9)
C71 C 0.4354(2) 1.06102(12) 0.79612(12)
H79 H 0.4973 1.0408 0.8016
H80 H 0.4611 1.1018 0.8102
H81 H 0.4099 1.0536 0.7590
C72 C 0.3806(3) 1.04905(12) 0.87759(11)
H82 H 0.3179 1.0360 0.8948
H83 H 0.4094 1.0893 0.8932
H84 H 0.4403 1.0270 0.8816
H85 H 0.403(3) 0.7995(15) 0.5627(13)
H86 H 0.330(3) 0.7879(14) 0.6664(12)
H87 H 0.461(3) 0.8882(15) 0.6277(13)
H88 H 0.160(3) 0.8163(13) 0.6261(12)
S3 S 0.84477(6) 0.88339(3) 0.00284(3)
S4 S 1.31718(5) 0.82820(3) 0.08752(3)
O9 O 0.82031(15) 0.74506(7) 0.05614(7)
O10 O 0.89140(14) 0.83568(7) 0.15277(6)
O11 O 1.07142(16) 0.78602(7) 0.16540(7)
O12 O 1.00585(14) 0.70075(7) 0.06711(6)
O13 O 0.74266(16) 0.84806(8) -0.02479(7)
O14 O 0.84942(17) 0.94335(8) 0.01882(7)
O15 O 1.38640(16) 0.82342(9) 0.13182(8)
O16 O 1.35793(16) 0.81732(8) 0.03843(8)
N5 N 0.87175(19) 0.86143(9) 0.05408(8)
N6 N 1.20169(19) 0.78450(10) 0.08154(9)
N7 N 1.1854(2) 0.75348(11) -0.13318(9)
N8 N 1.1463(2) 1.06057(10) 0.19802(9)
C76 C 0.8053(2) 0.62405(10) 0.01398(9)
H98 H 0.7706 0.5894 -0.0128
H99 H 0.8450 0.6510 -0.0035
C77 C 0.7134(2) 0.65040(10) 0.04024(9)
C78 C 0.72607(19) 0.70882(10) 0.06082(9)
C79 C 0.6418(2) 0.73266(10) 0.08525(9)
C80 C 0.5448(2) 0.69673(11) 0.08803(10)
H100 H 0.4868 0.7126 0.1041
C81 C 0.5285(2) 0.63781(11) 0.06818(10)
C82 C 0.6148(2) 0.61605(10) 0.04443(10)
H101 H 0.6060 0.5763 0.0306
C83 C 0.4193(2) 0.60113(12) 0.07400(11)
C84 C 0.4117(3) 0.53896(12) 0.04664(14)
H102 H 0.4733 0.5239 0.0620
H103 H 0.4168 0.5357 0.0098
H104 H 0.3400 0.5174 0.0506
C85 C 0.4120(2) 0.60549(13) 0.13175(12)
H105 H 0.3430 0.5815 0.1356
H106 H 0.4115 0.6449 0.1493
H107 H 0.4769 0.5928 0.1472
C86 C 0.3187(2) 0.62261(13) 0.05065(13)
H108 H 0.3228 0.6202 0.0138
H109 H 0.3201 0.6621 0.0687
H110 H 0.2490 0.5992 0.0545
C87 C 0.6564(2) 0.79541(10) 0.11077(9)
H111 H 0.7087 0.8171 0.0932
H112 H 0.5833 0.8082 0.1072
C88 C 0.7018(2) 0.80705(10) 0.16760(9)
C89 C 0.8146(2) 0.82414(10) 0.18661(9)
C90 C 0.8556(2) 0.82778(10) 0.23806(9)
C91 C 0.7787(2) 0.81672(11) 0.27124(10)
H113 H 0.8055 0.8193 0.3064
C92 C 0.6636(2) 0.80193(11) 0.25488(10)
C93 C 0.6277(2) 0.79704(11) 0.20294(10)
H114 H 0.5498 0.7865 0.1908
C94 C 0.5816(3) 0.79164(14) 0.29332(12)
C95 C 0.4618(4) 0.7730(2) 0.26833(18)
H115 H 0.4550 0.7375 0.2419
H116 H 0.4388 0.8023 0.2522
H117 H 0.4137 0.7671 0.2947
C96 C 0.5910(3) 0.84714(17) 0.33500(15)
H118 H 0.5683 0.8765 0.3189
H119 H 0.6687 0.8594 0.3518
H120 H 0.5421 0.8409 0.3609
C97 C 0.6192(4) 0.7467(2) 0.32085(19)
H121 H 0.5708 0.7416 0.3473
H122 H 0.6970 0.7597 0.3373
H123 H 0.6134 0.7106 0.2954
C98 C 0.9807(2) 0.83980(10) 0.25740(9)
H124 H 1.0203 0.8641 0.2375
H125 H 0.9936 0.8606 0.2943
C99 C 1.0281(2) 0.78531(10) 0.25165(9)
C100 C 1.0688(2) 0.76041(10) 0.20632(9)
C101 C 1.1100(2) 0.70995(10) 0.20185(9)
C102 C 1.1101(2) 0.68446(10) 0.24332(10)
H126 H 1.1399 0.6505 0.2406
C103 C 1.0681(2) 0.70686(11) 0.28866(10)
C104 C 1.0270(2) 0.75758(11) 0.29149(9)
H127 H 0.9973 0.7736 0.3219
C105 C 1.0613(3) 0.67725(12) 0.33328(11)
C106 C 0.9351(3) 0.65615(17) 0.33570(14)
H128 H 0.9016 0.6294 0.3029
H129 H 0.8958 0.6886 0.3416
H130 H 0.9285 0.6372 0.3641
C107 C 1.1074(3) 0.71826(14) 0.38471(11)
H131 H 1.0643 0.7492 0.3905
H132 H 1.1862 0.7338 0.3844
H133 H 1.1017 0.6984 0.4125
C108 C 1.1172(4) 0.62585(16) 0.32574(14)
H134 H 1.1083 0.6081 0.3548
H135 H 1.1971 0.6373 0.3241
H136 H 1.0825 0.5987 0.2934
C109 C 1.1481(2) 0.68032(10) 0.15193(9)
H137 H 1.1740 0.7088 0.1327
H138 H 1.2120 0.6619 0.1603
C110 C 1.0541(2) 0.63601(10) 0.11792(9)
C111 C 0.9837(2) 0.64764(10) 0.07901(9)
C112 C 0.8894(2) 0.60895(10) 0.05205(9)
C113 C 0.8703(2) 0.55615(10) 0.06342(10)
H139 H 0.8069 0.5292 0.0452
C114 C 0.9405(2) 0.54121(10) 0.10057(10)
C115 C 1.0307(2) 0.58229(10) 0.12763(10)
H140 H 1.0783 0.5734 0.1538
C116 C 0.9196(3) 0.48147(11) 0.10977(11)
C117 C 0.9479(4) 0.44025(14) 0.06399(14)
H141 H 0.9254 0.4014 0.0674
H142 H 1.0288 0.4477 0.0628
H143 H 0.9080 0.4449 0.0320
C118 C 0.7932(4) 0.46430(16) 0.11454(18)
H144 H 0.7476 0.4633 0.0820
H145 H 0.7721 0.4921 0.1427
H146 H 0.7804 0.4268 0.1219
C119 C 0.9849(4) 0.47788(14) 0.15949(14)
H147 H 0.9678 0.5062 0.1884
H148 H 1.0653 0.4852 0.1571
H149 H 0.9640 0.4399 0.1652
C120 C 0.9100(2) 0.89354(10) 0.14790(10)
H150 H 0.9644 0.9178 0.1771
H151 H 0.8389 0.9085 0.1480
C121 C 0.9553(2) 0.89316(11) 0.09738(10)
H152 H 0.9762 0.9326 0.0941
H153 H 1.0235 0.8757 0.0968
C122 C 0.9537(2) 0.87181(11) -0.03554(10)
C123 C 1.0267(2) 0.91897(12) -0.03792(11)
H154 H 1.0158 0.9555 -0.0204
C124 C 1.1176(3) 0.91373(12) -0.06616(11)
H155 H 1.1662 0.9467 -0.0687
C125 C 1.1358(2) 0.86157(12) -0.08978(11)
H156 H 1.1981 0.8585 -0.1084
C126 C 1.0843(2) 0.75630(12) -0.11157(10)
C127 C 1.0053(2) 0.70944(12) -0.11441(10)
H157 H 1.0166 0.6732 -0.1325
C128 C 0.9075(2) 0.71426(11) -0.09077(10)
H158 H 0.8530 0.6814 -0.0937
C129 C 0.8899(2) 0.76559(11) -0.06370(10)
H159 H 0.8259 0.7678 -0.0462
C130 C 0.9670(2) 0.81580(11) -0.06155(9)
C131 C 1.0639(2) 0.81138(11) -0.08732(9)
C132 C 1.1892(3) 0.70083(15) -0.17031(13)
H160 H 1.1858 0.6698 -0.1527
H161 H 1.2590 0.7045 -0.1856
H162 H 1.1252 0.6926 -0.1977
C133 C 1.2868(3) 0.76924(16) -0.09445(12)
H163 H 1.2805 0.8029 -0.0680
H164 H 1.3528 0.7774 -0.1115
H165 H 1.2943 0.7378 -0.0781
C134 C 1.0760(2) 0.70300(11) 0.02714(10)
H166 H 1.0311 0.6874 -0.0074
H167 H 1.1359 0.6804 0.0306
C135 C 1.1263(2) 0.76427(11) 0.03306(10)
H168 H 1.1681 0.7681 0.0037
H169 H 1.0662 0.7872 0.0330
C136 C 1.2822(2) 0.89745(11) 0.09825(10)
C137 C 1.2788(2) 0.92113(12) 0.05704(11)
H170 H 1.2953 0.9010 0.0248
C138 C 1.2508(3) 0.97583(12) 0.06193(12)
H171 H 1.2519 0.9928 0.0333
C139 C 1.2226(2) 1.00400(13) 0.10676(11)
H172 H 1.2038 1.0406 0.1094
C140 C 1.1871(2) 1.00921(12) 0.19757(11)
C141 C 1.2027(3) 0.98837(13) 0.24058(11)
H173 H 1.1864 1.0089 0.2727
C142 C 1.2425(3) 0.93686(14) 0.23811(11)
H174 H 1.2546 0.9241 0.2688
C143 C 1.2639(2) 0.90523(13) 0.19270(11)
H175 H 1.2841 0.8691 0.1913
C144 C 1.2559(2) 0.92646(11) 0.14667(10)
C145 C 1.2206(2) 0.97956(12) 0.15044(11)
C146 C 1.0349(3) 1.05222(14) 0.16749(13)
H176 H 1.0353 1.0283 0.1329
H177 H 1.0173 1.0890 0.1644
H178 H 0.9783 1.0338 0.1849
C147 C 1.1435(3) 1.09646(14) 0.24894(12)
H179 H 1.0889 1.0772 0.2667
H180 H 1.1220 1.1323 0.2452
H181 H 1.2179 1.1040 0.2693
H182 H 0.876(3) 0.7304(14) 0.0575(13)
H183 H 1.012(3) 0.8028(14) 0.1625(12)
H184 H 0.855(3) 0.8247(14) 0.0488(12)
H185 H 1.167(3) 0.7915(15) 0.1099(14)
N9 N 0.6141(2) 0.04496(13) 0.05163(12)
C151 C 0.5462(2) 0.06691(13) 0.03663(12)
C152 C 0.4631(3) 0.09430(14) 0.01718(13)
H195 H 0.4036 0.0659 -0.0056
H196 H 0.4969 0.1202 -0.0024
H197 H 0.4315 0.1158 0.0461
N10 N 0.4983(4) 0.3148(2) 0.14600(17)
C153 C 0.4750(4) 0.2973(2) 0.10212(19)
C154 C 0.4497(4) 0.2752(2) 0.04639(18)
H198 H 0.4109 0.3011 0.0313
H199 H 0.4015 0.2379 0.0387
H200 H 0.5195 0.2716 0.0315
N11 N 0.6734(3) 0.58280(16) 0.21067(17)
C155 C 0.7259(3) 0.61969(14) 0.20006(13)
C156 C 0.7912(3) 0.66648(13) 0.18615(13)
H201 H 0.8098 0.6540 0.1510
H202 H 0.8604 0.6801 0.2105
H203 H 0.7478 0.6972 0.1874
N12 N 0.4424(5) 0.6375(2) 0.3465(2)
C157 C 0.4707(5) 0.5971(2) 0.3253(2)
C158 C 0.5259(10) 0.5515(4) 0.3066(5)
H204 H 0.4788 0.5252 0.2766
H205 H 0.5396 0.5316 0.3339
H206 H 0.5975 0.5660 0.2963
N14 N 0.9080(3) 0.84529(19) 0.40486(14)
C161 C 0.8576(3) 0.84942(15) 0.43878(13)
C162 C 0.7944(3) 0.85394(14) 0.48175(12)
H210 H 0.7262 0.8251 0.4725
H211 H 0.7740 0.8917 0.4903
H212 H 0.8399 0.8481 0.5117
N15 N 0.4842(4) 0.14853(18) 0.14791(14)
C163 C 0.3956(4) 0.16055(17) 0.15229(13)
C164 C 0.2865(3) 0.17443(17) 0.15834(15)
H213 H 0.2941 0.2122 0.1815
H214 H 0.2435 0.1465 0.1732
H215 H 0.2473 0.1741 0.1245
N16 N 0.7039(5) 0.5882(4) 0.8894(3)
C165 C 0.6250(3) 0.56308(19) 0.86123(16)
C166 C 0.5065(4) 0.5485(4) 0.8443(4)
H216 H 0.4660 0.5572 0.8743
H217 H 0.4867 0.5080 0.8276
H218 H 0.4858 0.5705 0.8196
N18 N 0.4934(3) 0.56070(17) 0.63170(16)
C168 C 0.4835(3) 0.59861(16) 0.61514(15)
C169 C 0.4710(3) 0.64700(14) 0.59461(13)
H222 H 0.4997 0.6425 0.5612
H223 H 0.5131 0.6814 0.6188
H224 H 0.3915 0.6501 0.5898
C73? C 0.3459(6) 0.5176(3) 0.4705(3)
H89? H 0.3474 0.4782 0.4531
H90? H 0.3454 0.5208 0.5076
H91? H 0.4125 0.5421 0.4650
C74? C 0.2379(6) 0.5246(3) 0.3890(3)
H92? H 0.3045 0.5467 0.3807
H93? H 0.1705 0.5361 0.3746
H94? H 0.2358 0.4842 0.3741
C75? C 0.1359(5) 0.4946(3) 0.4578(3)
H95? H 0.0675 0.5066 0.4452
H96? H 0.1380 0.4965 0.4949
H97? H 0.1365 0.4555 0.4391
C148? C 0.4842(18) 0.7395(9) 0.2680(8)
H186? H 0.5143 0.7041 0.2640
H187? H 0.4531 0.7431 0.2339
H188? H 0.4251 0.7389 0.2903
C149? C 0.478(3) 0.8274(13) 0.2867(12)
H189? H 0.5067 0.8681 0.3000
H190? H 0.4187 0.8155 0.3061
H191? H 0.4484 0.8198 0.2500
C150? C 0.616(3) 0.7918(17) 0.3435(14)
H192? H 0.6778 0.7704 0.3446
H193? H 0.5538 0.7743 0.3583
H194? H 0.6424 0.8310 0.3635
N13? N 0.2998(12) 0.5657(6) 0.2411(6)
C159? C 0.3803(12) 0.5678(5) 0.2687(6)
C160? C 0.4698(12) 0.5480(7) 0.2938(6)
H207? H 0.5174 0.5799 0.3191
H208? H 0.5144 0.5309 0.2680
H209? H 0.4389 0.5196 0.3116
N17? N 0.7192(4) 0.5658(4) 0.8763(3)
C167? C 0.5280(6) 0.5441(4) 0.8227(3)
H219? H 0.5517 0.5327 0.7885
H220? H 0.4852 0.5749 0.8233
H221? H 0.4810 0.5116 0.8301
loop_
_geom_bond_atom_site_label_1
_geom_bond_atom_site_label_2
_geom_bond_site_symmetry_1
_geom_bond_site_symmetry_2
S1 O5 1_555 1_555
S2 O7 1_555 1_555
O1 C3 1_555 1_555
O2 C14 1_555 1_555
O3 C25 1_555 1_555
O4 C36 1_555 1_555
O6 S1 1_555 1_555
O8 S2 1_555 1_555
N1 S1 1_555 1_555
N2 S2 1_555 1_555
N3 C51 1_555 1_555
N4 C65 1_555 1_555
C1 H1 1_555 1_555
H2 C1 1_555 1_555
C2 C1 1_555 1_555
C3 C2 1_555 1_555
C4 C3 1_555 1_555
C5 C4 1_555 1_555
H3 C5 1_555 1_555
C6 C5 1_555 1_555
C7 C2 1_555 1_555
H4 C7 1_555 1_555
C8 C6 1_555 1_555
C9 C8 1_555 1_555
H5 C9 1_555 1_555
H6 C9 1_555 1_555
H7 C9 1_555 1_555
C10 C8 1_555 1_555
H8 C10 1_555 1_555
H9 C10 1_555 1_555
H10 C10 1_555 1_555
C11 C8 1_555 1_555
H11 C11 1_555 1_555
H12 C11 1_555 1_555
H13 C11 1_555 1_555
C12 C4 1_555 1_555
H14 C12 1_555 1_555
H15 C12 1_555 1_555
C13 C12 1_555 1_555
C14 C13 1_555 1_555
C15 C14 1_555 1_555
C16 C15 1_555 1_555
H16 C16 1_555 1_555
C17 C16 1_555 1_555
C18 C13 1_555 1_555
H17 C18 1_555 1_555
C19 C17 1_555 1_555
C20 C19 1_555 1_555
H18 C20 1_555 1_555
H19 C20 1_555 1_555
H20 C20 1_555 1_555
C21 C19 1_555 1_555
H21 C21 1_555 1_555
H22 C21 1_555 1_555
H23 C21 1_555 1_555
C22 C19 1_555 1_555
H24 C22 1_555 1_555
H25 C22 1_555 1_555
H26 C22 1_555 1_555
C23 C15 1_555 1_555
H27 C23 1_555 1_555
H28 C23 1_555 1_555
C24 C23 1_555 1_555
C25 C24 1_555 1_555
C26 C25 1_555 1_555
C27 C26 1_555 1_555
H29 C27 1_555 1_555
C28 C27 1_555 1_555
C29 C24 1_555 1_555
H30 C29 1_555 1_555
C30 C28 1_555 1_555
C31 C30 1_555 1_555
H31 C31 1_555 1_555
H32 C31 1_555 1_555
H33 C31 1_555 1_555
C32 C30 1_555 1_555
H34 C32 1_555 1_555
H35 C32 1_555 1_555
H36 C32 1_555 1_555
C33 C30 1_555 1_555
H37 C33 1_555 1_555
H38 C33 1_555 1_555
H39 C33 1_555 1_555
C34 C26 1_555 1_555
H40 C34 1_555 1_555
H41 C34 1_555 1_555
C35 C34 1_555 1_555
C36 C35 1_555 1_555
C37 C1 1_555 1_555
C38 C37 1_555 1_555
H42 C38 1_555 1_555
C39 C38 1_555 1_555
C40 C35 1_555 1_555
H43 C40 1_555 1_555
C41 C39 1_555 1_555
C42 C41 1_555 1_555
H44 C42 1_555 1_555
H45 C42 1_555 1_555
H46 C42 1_555 1_555
C43 C41 1_555 1_555
H47 C43 1_555 1_555
H48 C43 1_555 1_555
H49 C43 1_555 1_555
C44 C41 1_555 1_555
H50 C44 1_555 1_555
H51 C44 1_555 1_555
H52 C44 1_555 1_555
C45 O4 1_555 1_555
H53 C45 1_555 1_555
H54 C45 1_555 1_555
C46 N1 1_555 1_555
H55 C46 1_555 1_555
H56 C46 1_555 1_555
C47 S1 1_555 1_555
C48 C47 1_555 1_555
H57 C48 1_555 1_555
C49 C48 1_555 1_555
H58 C49 1_555 1_555
C50 C49 1_555 1_555
H59 C50 1_555 1_555
C51 C52 1_555 1_555
C52 H60 1_555 1_555
C53 C52 1_555 1_555
H61 C53 1_555 1_555
C54 C53 1_555 1_555
H62 C54 1_555 1_555
C55 C47 1_555 1_555
C56 C50 1_555 1_555
C57 N3 1_555 1_555
H63 C57 1_555 1_555
H64 C57 1_555 1_555
H65 C57 1_555 1_555
C58 N3 1_555 1_555
H66 C58 1_555 1_555
H67 C58 1_555 1_555
H68 C58 1_555 1_555
C59 O2 1_555 1_555
H69 C59 1_555 1_555
H70 C59 1_555 1_555
C60 N2 1_555 1_555
H71 C60 1_555 1_555
H72 C60 1_555 1_555
C61 S2 1_555 1_555
C62 C61 1_555 1_555
H73 C62 1_555 1_555
C63 C62 1_555 1_555
H74 C63 1_555 1_555
C64 C63 1_555 1_555
H75 C64 1_555 1_555
C65 C66 1_555 1_555
C66 H76 1_555 1_555
C67 C66 1_555 1_555
H77 C67 1_555 1_555
C68 C67 1_555 1_555
H78 C68 1_555 1_555
C69 C61 1_555 1_555
C70 C64 1_555 1_555
C71 N4 1_555 1_555
H79 C71 1_555 1_555
H80 C71 1_555 1_555
H81 C71 1_555 1_555
C72 N4 1_555 1_555
H82 C72 1_555 1_555
H83 C72 1_555 1_555
H84 C72 1_555 1_555
H85 O1 1_555 1_555
H86 O3 1_555 1_555
H87 N1 1_555 1_555
H88 N2 1_555 1_555
S3 O13 1_555 1_555
S4 O15 1_555 1_555
O9 C78 1_555 1_555
O10 C89 1_555 1_555
O11 C100 1_555 1_555
O12 C111 1_555 1_555
O14 S3 1_555 1_555
O16 S4 1_555 1_555
N5 S3 1_555 1_555
N6 S4 1_555 1_555
N7 C126 1_555 1_555
N8 C140 1_555 1_555
C76 H98 1_555 1_555
H99 C76 1_555 1_555
C77 C76 1_555 1_555
C78 C77 1_555 1_555
C79 C78 1_555 1_555
C80 C79 1_555 1_555
H100 C80 1_555 1_555
C81 C80 1_555 1_555
C82 C77 1_555 1_555
H101 C82 1_555 1_555
C83 C81 1_555 1_555
C84 C83 1_555 1_555
H102 C84 1_555 1_555
H103 C84 1_555 1_555
H104 C84 1_555 1_555
C85 C83 1_555 1_555
H105 C85 1_555 1_555
H106 C85 1_555 1_555
H107 C85 1_555 1_555
C86 C83 1_555 1_555
H108 C86 1_555 1_555
H109 C86 1_555 1_555
H110 C86 1_555 1_555
C87 C79 1_555 1_555
H111 C87 1_555 1_555
H112 C87 1_555 1_555
C88 C87 1_555 1_555
C89 C88 1_555 1_555
C90 C89 1_555 1_555
C91 C90 1_555 1_555
H113 C91 1_555 1_555
C92 C91 1_555 1_555
C93 C88 1_555 1_555
H114 C93 1_555 1_555
C94 C92 1_555 1_555
C95 C94 1_555 1_555
H115 C95 1_555 1_555
H116 C95 1_555 1_555
H117 C95 1_555 1_555
C96 C94 1_555 1_555
H118 C96 1_555 1_555
H119 C96 1_555 1_555
H120 C96 1_555 1_555
C97 C94 1_555 1_555
H121 C97 1_555 1_555
H122 C97 1_555 1_555
H123 C97 1_555 1_555
C98 C90 1_555 1_555
H124 C98 1_555 1_555
H125 C98 1_555 1_555
C99 C98 1_555 1_555
C100 C99 1_555 1_555
C101 C100 1_555 1_555
C102 C101 1_555 1_555
H126 C102 1_555 1_555
C103 C102 1_555 1_555
C104 C99 1_555 1_555
H127 C104 1_555 1_555
C105 C103 1_555 1_555
C106 C105 1_555 1_555
H128 C106 1_555 1_555
H129 C106 1_555 1_555
H130 C106 1_555 1_555
C107 C105 1_555 1_555
H131 C107 1_555 1_555
H132 C107 1_555 1_555
H133 C107 1_555 1_555
C108 C105 1_555 1_555
H134 C108 1_555 1_555
H135 C108 1_555 1_555
H136 C108 1_555 1_555
C109 C101 1_555 1_555
H137 C109 1_555 1_555
H138 C109 1_555 1_555
C110 C109 1_555 1_555
C111 C110 1_555 1_555
C112 C76 1_555 1_555
C113 C112 1_555 1_555
H139 C113 1_555 1_555
C114 C113 1_555 1_555
C115 C110 1_555 1_555
H140 C115 1_555 1_555
C116 C114 1_555 1_555
C117 C116 1_555 1_555
H141 C117 1_555 1_555
H142 C117 1_555 1_555
H143 C117 1_555 1_555
C118 C116 1_555 1_555
H144 C118 1_555 1_555
H145 C118 1_555 1_555
H146 C118 1_555 1_555
C119 C116 1_555 1_555
H147 C119 1_555 1_555
H148 C119 1_555 1_555
H149 C119 1_555 1_555
C120 O10 1_555 1_555
H150 C120 1_555 1_555
H151 C120 1_555 1_555
C121 N5 1_555 1_555
H152 C121 1_555 1_555
H153 C121 1_555 1_555
C122 S3 1_555 1_555
C123 C122 1_555 1_555
H154 C123 1_555 1_555
C124 C123 1_555 1_555
H155 C124 1_555 1_555
C125 C124 1_555 1_555
H156 C125 1_555 1_555
C126 C127 1_555 1_555
C127 H157 1_555 1_555
C128 C127 1_555 1_555
H158 C128 1_555 1_555
C129 C128 1_555 1_555
H159 C129 1_555 1_555
C130 C122 1_555 1_555
C131 C125 1_555 1_555
C132 N7 1_555 1_555
H160 C132 1_555 1_555
H161 C132 1_555 1_555
H162 C132 1_555 1_555
C133 N7 1_555 1_555
H163 C133 1_555 1_555
H164 C133 1_555 1_555
H165 C133 1_555 1_555
C134 O12 1_555 1_555
H166 C134 1_555 1_555
H167 C134 1_555 1_555
C135 N6 1_555 1_555
H168 C135 1_555 1_555
H169 C135 1_555 1_555
C136 S4 1_555 1_555
C137 C136 1_555 1_555
H170 C137 1_555 1_555
C138 C137 1_555 1_555
H171 C138 1_555 1_555
C139 C138 1_555 1_555
H172 C139 1_555 1_555
C140 C141 1_555 1_555
C141 H173 1_555 1_555
C142 C141 1_555 1_555
H174 C142 1_555 1_555
C143 C142 1_555 1_555
H175 C143 1_555 1_555
C144 C136 1_555 1_555
C145 C139 1_555 1_555
C146 N8 1_555 1_555
H176 C146 1_555 1_555
H177 C146 1_555 1_555
H178 C146 1_555 1_555
C147 N8 1_555 1_555
H179 C147 1_555 1_555
H180 C147 1_555 1_555
H181 C147 1_555 1_555
H182 O9 1_555 1_555
H183 O11 1_555 1_555
H184 N5 1_555 1_555
H185 N6 1_555 1_555
N9 C151 1_555 1_555
C151 C152 1_555 1_555
C152 H195 1_555 1_555
H196 C152 1_555 1_555
H197 C152 1_555 1_555
N10 C153 1_555 1_555
C153 C154 1_555 1_555
C154 H198 1_555 1_555
H199 C154 1_555 1_555
H200 C154 1_555 1_555
N11 C155 1_555 1_555
C155 C156 1_555 1_555
C156 H201 1_555 1_555
H202 C156 1_555 1_555
H203 C156 1_555 1_555
N12 C157 1_555 1_555
C157 C158 1_555 1_555
C158 H204 1_555 1_555
H205 C158 1_555 1_555
H206 C158 1_555 1_555
N14 C161 1_555 1_555
C161 C162 1_555 1_555
C162 H210 1_555 1_555
H211 C162 1_555 1_555
H212 C162 1_555 1_555
N15 C163 1_555 1_555
C163 C164 1_555 1_555
C164 H213 1_555 1_555
H214 C164 1_555 1_555
H215 C164 1_555 1_555
N16 C165 1_555 1_555
C165 C166 1_555 1_555
C166 H216 1_555 1_555
H217 C166 1_555 1_555
H218 C166 1_555 1_555
N18 C168 1_555 1_555
C168 C169 1_555 1_555
C169 H222 1_555 1_555
H223 C169 1_555 1_555
H224 C169 1_555 1_555
C6 C7 1_555 1_555
C17 C18 1_555 1_555
C28 C29 1_555 1_555
C36 C37 1_555 1_555
C39 C40 1_555 1_555
C45 C46 1_555 1_555
C51 C56 1_555 1_555
C54 C55 1_555 1_555
C55 C56 1_555 1_555
C59 C60 1_555 1_555
C65 C70 1_555 1_555
C68 C69 1_555 1_555
C69 C70 1_555 1_555
C81 C82 1_555 1_555
C92 C93 1_555 1_555
C103 C104 1_555 1_555
C111 C112 1_555 1_555
C114 C115 1_555 1_555
C120 C121 1_555 1_555
C126 C131 1_555 1_555
C129 C130 1_555 1_555
C130 C131 1_555 1_555
C134 C135 1_555 1_555
C140 C145 1_555 1_555
C143 C144 1_555 1_555
C144 C145 1_555 1_555

#END
