
#######################################################################
#
#                 Cambridge Crystallographic Data Centre
#                                CCDC 
#
#######################################################################
#
# If this CIF has been generated from an entry in the Cambridge 
# Structural Database, then it will include bibliographic, chemical, 
# crystal, experimental, refinement or atomic coordinate data resulting 
# from the CCDC's data processing and validation procedures.
#
#######################################################################

data_WOHFIK
_chemical_name_common            
'5,11,17,23-tetra-t-butyl-25,27-dihydroxy-26,28-bis(2-(((3-(methylsulfanyl)phenyl)carbamoyl)amino)ethoxy)calix(4)arene acetone methanol solvate'
_chemical_formula_moiety         'C64 H80 N4 O6 S2,1.5(C3 H6 O1),0.5(C1 H4 O1)'
_chemical_name_systematic        
"1,1'-((5,11,17,23-tetra-t-butyl-26,28-dihydroxypentacyclo[19.3.1.1^3,7^.1^9,13^.1^15,19^]octacosa-1(25),3(28),4,6,9(27),10,12,15(26),16,18,21,23-dodecaene-25,27-diyl)bis(oxyethane-2,1-diyl))bis(3-(3-(methylsulfanyl)phenyl)urea) acetone methanol solvate"
_symmetry_cell_setting           monoclinic
_symmetry_space_group_name_H-M   'P 21/c'
_symmetry_Int_Tables_number      14
_space_group_name_Hall           '-P 2ybc'
loop_
_symmetry_equiv_pos_site_id
_symmetry_equiv_pos_as_xyz
1 x,y,z
2 -x,1/2+y,1/2-z
3 -x,-y,-z
4 x,1/2-y,1/2+z
_cell_length_a                   19.5803(5)
_cell_length_b                   20.1679(5)
_cell_length_c                   18.2981(5)
_cell_angle_alpha                90
_cell_angle_beta                 111.82(3)
_cell_angle_gamma                90
_cell_volume                     6708.12
_exptl_crystal_colour            'light colorless'
_exptl_crystal_description       plate
_cell_formula_units_Z            4
loop_
_atom_site_label
_atom_site_type_symbol
_atom_site_fract_x
_atom_site_fract_y
_atom_site_fract_z
S1 S -0.29705(8) 0.09417(8) -0.30572(9)
S2 S -0.08488(8) -0.05754(6) -0.13362(7)
O1 O 0.11021(18) 0.47152(16) 0.00886(19)
O2 O 0.15994(16) 0.38049(14) -0.06955(16)
O3 O 0.12909(18) 0.30577(16) 0.05491(18)
O4 O 0.05012(16) 0.38692(14) 0.11323(16)
O5 O -0.03962(18) 0.31965(17) -0.31710(17)
O6 O -0.04788(18) 0.26953(15) -0.06888(17)
N1 N 0.0135(2) 0.33308(19) -0.1842(2)
N2 N -0.0841(2) 0.2620(2) -0.2368(3)
N3 N -0.0496(2) 0.27282(19) 0.0544(2)
N4 N -0.0347(2) 0.1739(2) 0.0020(3)
C1 C 0.0872(2) 0.5288(2) 0.1346(3)
H1 H 0.0684 0.5665 0.1564
H2 H 0.0458 0.5101 0.0897
C2 C 0.1472(2) 0.5526(2) 0.1070(3)
C3 C 0.1587(2) 0.5205(2) 0.0450(2)
C4 C 0.2154(3) 0.5406(2) 0.0216(3)
C5 C 0.2610(2) 0.5927(2) 0.0616(3)
H3 H 0.3006 0.6054 0.0465
C6 C 0.2505(3) 0.6270(2) 0.1230(3)
C7 C 0.1922(2) 0.6053(2) 0.1438(3)
H4 H 0.1831 0.6278 0.1849
C8 C 0.2983(3) 0.6863(3) 0.1645(3)
C9 C 0.2531(4) 0.7496(3) 0.1363(4)
H5 H 0.2382 0.7535 0.0791
H6 H 0.2830 0.7881 0.1618
H7 H 0.2093 0.7477 0.1500
C10 C 0.3677(3) 0.6917(3) 0.1454(4)
H8 H 0.3955 0.6502 0.1595
H9 H 0.3982 0.7283 0.1756
H10 H 0.3539 0.7002 0.0890
C11 C 0.3205(3) 0.6805(3) 0.2544(3)
H11 H 0.2763 0.6813 0.2674
H12 H 0.3526 0.7177 0.2803
H13 H 0.3469 0.6387 0.2727
C12 C 0.2290(3) 0.5073(2) -0.0459(3)
H14 H 0.2568 0.5379 -0.0670
H15 H 0.1812 0.4978 -0.0887
C13 C 0.2720(2) 0.4431(2) -0.0202(2)
C14 C 0.2364(2) 0.3819(2) -0.0289(2)
C15 C 0.2738(2) 0.3243(2) 0.0022(2)
C16 C 0.3502(2) 0.3278(2) 0.0402(2)
H16 H 0.3767 0.2883 0.0609
C17 C 0.3889(2) 0.3871(2) 0.0489(2)
C18 C 0.3481(3) 0.4440(2) 0.0184(3)
H17 H 0.3731 0.4852 0.0242
C19 C 0.4731(3) 0.3900(3) 0.0877(3)
C20 C 0.4983(3) 0.4545(3) 0.1363(4)
H18 H 0.4778 0.4560 0.1776
H19 H 0.4809 0.4930 0.1015
H20 H 0.5521 0.4554 0.1604
C21 C 0.5039(3) 0.3914(4) 0.0238(4)
H21 H 0.5569 0.3999 0.0470
H22 H 0.4797 0.4265 -0.0139
H23 H 0.4951 0.3485 -0.0033
C22 C 0.5039(3) 0.3319(3) 0.1431(4)
H24 H 0.4798 0.3298 0.1814
H25 H 0.5570 0.3377 0.1709
H26 H 0.4946 0.2906 0.1127
C23 C 0.2341(3) 0.2595(2) -0.0003(3)
H27 H 0.2581 0.2237 -0.0192
H28 H 0.1825 0.2633 -0.0377
C24 C 0.2354(2) 0.2420(2) 0.0814(3)
C25 C 0.1835(2) 0.2686(2) 0.1084(3)
C26 C 0.1886(2) 0.2578(2) 0.1862(3)
C27 C 0.2458(3) 0.2172(2) 0.2338(3)
H29 H 0.2498 0.2093 0.2864
C28 C 0.2972(2) 0.1879(2) 0.2081(3)
C29 C 0.2910(2) 0.2015(2) 0.1313(3)
H30 H 0.3256 0.1825 0.1122
C30 C 0.3595(3) 0.1441(3) 0.2627(3)
C31 C 0.4252(7) 0.1781(6) 0.3013(7)
H31 H 0.4165 0.2140 0.3329
H32 H 0.4432 0.1968 0.2624
H33 H 0.4620 0.1475 0.3357
C32 C 0.3753(6) 0.0856(5) 0.2096(6)
H34 H 0.4141 0.0563 0.2435
H35 H 0.3911 0.1055 0.1696
H36 H 0.3303 0.0600 0.1838
C33 C 0.3349(3) 0.1039(3) 0.3187(3)
H37 H 0.2889 0.0808 0.2888
H38 H 0.3269 0.1336 0.3572
H39 H 0.3729 0.0714 0.3463
C34 C 0.1341(3) 0.2874(2) 0.2178(3)
H40 H 0.1376 0.2629 0.2659
H41 H 0.0838 0.2807 0.1783
C35 C 0.1451(2) 0.3607(2) 0.2373(3)
C36 C 0.1050(2) 0.4086(2) 0.1837(2)
C37 C 0.1187(2) 0.4762(2) 0.1975(3)
C38 C 0.1678(3) 0.4949(2) 0.2711(3)
H42 H 0.1769 0.5408 0.2818
C39 C 0.2040(3) 0.4506(3) 0.3292(3)
C40 C 0.1949(3) 0.3831(3) 0.3108(3)
H43 H 0.2228 0.3516 0.3488
C41 C 0.2532(3) 0.4771(3) 0.4116(3)
C42 C 0.2080(4) 0.5288(3) 0.4395(4)
H44 H 0.1625 0.5081 0.4390
H45 H 0.1960 0.5670 0.4040
H46 H 0.2375 0.5435 0.4931
C43 C 0.3189(3) 0.5134(3) 0.4067(3)
H47 H 0.3479 0.5324 0.4582
H48 H 0.3019 0.5489 0.3675
H49 H 0.3495 0.4823 0.3911
C44 C 0.2749(4) 0.4248(3) 0.4729(3)
H50 H 0.2308 0.4032 0.4747
H51 H 0.3027 0.4448 0.5242
H52 H 0.3057 0.3919 0.4603
C45 C 0.1397(2) 0.3768(2) -0.1534(2)
H53 H 0.1530 0.3329 -0.1682
H54 H 0.1661 0.4113 -0.1711
C46 C 0.0578(2) 0.3874(2) -0.1916(3)
H55 H 0.0447 0.4274 -0.1682
H56 H 0.0454 0.3965 -0.2483
C47 C -0.0373(2) 0.3058(2) -0.2503(3)
C48 C -0.1504(2) 0.2379(2) -0.2938(3)
C49 C -0.1798(3) 0.1826(3) -0.2752(3)
H57 H -0.1536 0.1592 -0.2280
C50 C -0.2500(3) 0.1597(3) -0.3264(3)
C51 C -0.2858(3) 0.1942(3) -0.3958(3)
H58 H -0.3327 0.1793 -0.4305
C52 C -0.2555(3) 0.2487(3) -0.4153(3)
H59 H -0.2808 0.2709 -0.4636
C53 C -0.1871(3) 0.2722(3) -0.3644(3)
H60 H -0.1660 0.3106 -0.3773
C54 C -0.2426(6) 0.0676(7) -0.2087(5)
H61 H -0.2653 0.0285 -0.1953
H62 H -0.2394 0.1034 -0.1714
H63 H -0.1931 0.0562 -0.2062
C55 C -0.0213(2) 0.3811(2) 0.1189(3)
H64 H -0.0422 0.4258 0.1189
H65 H -0.0162 0.3589 0.1689
C56 C -0.0717(3) 0.3417(2) 0.0509(3)
H66 H -0.1223 0.3441 0.0507
H67 H -0.0723 0.3615 0.0012
C57 C -0.0440(2) 0.2412(2) -0.0080(2)
C58 C -0.0242(2) 0.1304(2) -0.0534(3)
C59 C -0.0567(2) 0.0681(2) -0.0627(3)
H68 H -0.0861 0.0564 -0.0335
C60 C -0.0461(3) 0.0227(2) -0.1153(3)
C61 C -0.0025(3) 0.0405(3) -0.1576(3)
H69 H 0.0050 0.0100 -0.1935
C62 C 0.0294(3) 0.1018(3) -0.1473(3)
H70 H 0.0591 0.1135 -0.1762
C63 C 0.0190(3) 0.1471(2) -0.0953(3)
H71 H 0.0416 0.1896 -0.0886
C64 C -0.1396(3) -0.0633(2) -0.0745(3)
H72 H -0.1083 -0.0570 -0.0190
H73 H -0.1628 -0.1072 -0.0815
H74 H -0.1778 -0.0290 -0.0907
H75 H 0.009(2) 0.328(2) -0.147(3)
H76 H 0.136(4) 0.447(3) -0.006(4)
H77 H -0.078(2) 0.249(2) -0.196(3)
H78 H -0.054(3) 0.253(3) 0.090(3)
H79 H 0.094(3) 0.312(3) 0.076(3)
H80 H -0.035(3) 0.158(3) 0.038(3)
O7 O 0.4334(6) 0.3191(6) 0.5306(7)
C68 C 0.4871(7) 0.3499(6) 0.5346(7)
C69 C 0.5441(7) 0.3183(6) 0.5123(8)
H90 H 0.5899 0.3152 0.5585
H91 H 0.5525 0.3449 0.4716
H92 H 0.5279 0.2738 0.4918
C70 C 0.4947(7) 0.4162(6) 0.5610(8)
H93 H 0.4466 0.4333 0.5574
H94 H 0.5135 0.4433 0.5281
H95 H 0.5291 0.4182 0.6159
C71 C 0.3748(4) 0.4264(3) 0.2550(4)
O8 O 0.4258(4) 0.4633(4) 0.2859(4)
C72 C 0.3047(5) 0.4423(5) 0.1931(5)
H96 H 0.2941 0.4099 0.1503
H97 H 0.3071 0.4868 0.1727
H98 H 0.2657 0.4409 0.2144
C73 C 0.3777(6) 0.3544(5) 0.2791(6)
H99 H 0.3433 0.3470 0.3059
H100 H 0.4277 0.3433 0.3149
H101 H 0.3640 0.3262 0.2323
O10 O 0.5691(5) 0.4403(4) 0.3930(5)
C76 C 0.6093(6) 0.4043(5) 0.3640(6)
H108 H 0.6486 0.3822 0.4070
H109 H 0.6310 0.4330 0.3351
H110 H 0.5782 0.3708 0.3281
H111 H 0.5264 0.4359 0.3683
C65? C 0.4209(8) 0.1988(7) 0.3250(9)
H81? H 0.3968 0.2233 0.3550
H82? H 0.4378 0.2299 0.2942
H83? H 0.4631 0.1743 0.3614
C66? C 0.4042(7) 0.1096(7) 0.2238(8)
H84? H 0.4445 0.0855 0.2634
H85? H 0.4244 0.1423 0.1977
H86? H 0.3730 0.0783 0.1847
C67? C -0.2288(9) 0.0574(10) -0.2245(9)
H87? H -0.2147 0.0879 -0.1797
H88? H -0.1858 0.0474 -0.2377
H89? H -0.2479 0.0163 -0.2108
O9? O 0.4312(11) 0.4080(11) 0.3060(12)
C74? C 0.3698(12) 0.5015(10) 0.2307(13)
H102? H 0.3649 0.5050 0.1756
H103? H 0.4145 0.5246 0.2642
H104? H 0.3268 0.5217 0.2371
C75? C 0.3138(10) 0.3914(9) 0.2024(11)
H105? H 0.3195 0.3440 0.2150
H106? H 0.3109 0.3983 0.1483
H107? H 0.2686 0.4077 0.2075
loop_
_geom_bond_atom_site_label_1
_geom_bond_atom_site_label_2
_geom_bond_site_symmetry_1
_geom_bond_site_symmetry_2
S1 C50 1_555 1_555
S2 C60 1_555 1_555
O1 C3 1_555 1_555
O2 C14 1_555 1_555
O3 C25 1_555 1_555
O4 C36 1_555 1_555
O5 C47 1_555 1_555
O6 C57 1_555 1_555
N1 C46 1_555 1_555
N2 C47 1_555 1_555
N3 C56 1_555 1_555
N4 C57 1_555 1_555
C1 H1 1_555 1_555
H2 C1 1_555 1_555
C2 C1 1_555 1_555
C3 C2 1_555 1_555
C4 C3 1_555 1_555
C5 C4 1_555 1_555
H3 C5 1_555 1_555
C6 C5 1_555 1_555
C7 C2 1_555 1_555
H4 C7 1_555 1_555
C8 C6 1_555 1_555
C9 C8 1_555 1_555
H5 C9 1_555 1_555
H6 C9 1_555 1_555
H7 C9 1_555 1_555
C10 C8 1_555 1_555
H8 C10 1_555 1_555
H9 C10 1_555 1_555
H10 C10 1_555 1_555
C11 C8 1_555 1_555
H11 C11 1_555 1_555
H12 C11 1_555 1_555
H13 C11 1_555 1_555
C12 C4 1_555 1_555
H14 C12 1_555 1_555
H15 C12 1_555 1_555
C13 C12 1_555 1_555
C14 C13 1_555 1_555
C15 C14 1_555 1_555
C16 C15 1_555 1_555
H16 C16 1_555 1_555
C17 C16 1_555 1_555
C18 C13 1_555 1_555
H17 C18 1_555 1_555
C19 C17 1_555 1_555
C20 C19 1_555 1_555
H18 C20 1_555 1_555
H19 C20 1_555 1_555
H20 C20 1_555 1_555
C21 C19 1_555 1_555
H21 C21 1_555 1_555
H22 C21 1_555 1_555
H23 C21 1_555 1_555
C22 C19 1_555 1_555
H24 C22 1_555 1_555
H25 C22 1_555 1_555
H26 C22 1_555 1_555
C23 C15 1_555 1_555
H27 C23 1_555 1_555
H28 C23 1_555 1_555
C24 C23 1_555 1_555
C25 C24 1_555 1_555
C26 C25 1_555 1_555
C27 C26 1_555 1_555
H29 C27 1_555 1_555
C28 C27 1_555 1_555
C29 C24 1_555 1_555
H30 C29 1_555 1_555
C30 C28 1_555 1_555
C31 C30 1_555 1_555
H31 C31 1_555 1_555
H32 C31 1_555 1_555
H33 C31 1_555 1_555
C32 C30 1_555 1_555
H34 C32 1_555 1_555
H35 C32 1_555 1_555
H36 C32 1_555 1_555
C33 C30 1_555 1_555
H37 C33 1_555 1_555
H38 C33 1_555 1_555
H39 C33 1_555 1_555
C34 C26 1_555 1_555
H40 C34 1_555 1_555
H41 C34 1_555 1_555
C35 C34 1_555 1_555
C36 C35 1_555 1_555
C37 C1 1_555 1_555
C38 C37 1_555 1_555
H42 C38 1_555 1_555
C39 C38 1_555 1_555
C40 C35 1_555 1_555
H43 C40 1_555 1_555
C41 C39 1_555 1_555
C42 C41 1_555 1_555
H44 C42 1_555 1_555
H45 C42 1_555 1_555
H46 C42 1_555 1_555
C43 C41 1_555 1_555
H47 C43 1_555 1_555
H48 C43 1_555 1_555
H49 C43 1_555 1_555
C44 C41 1_555 1_555
H50 C44 1_555 1_555
H51 C44 1_555 1_555
H52 C44 1_555 1_555
C45 O2 1_555 1_555
H53 C45 1_555 1_555
H54 C45 1_555 1_555
C46 C45 1_555 1_555
H55 C46 1_555 1_555
H56 C46 1_555 1_555
C47 N1 1_555 1_555
C48 N2 1_555 1_555
C49 C48 1_555 1_555
H57 C49 1_555 1_555
C50 C49 1_555 1_555
C51 C50 1_555 1_555
H58 C51 1_555 1_555
C52 C51 1_555 1_555
H59 C52 1_555 1_555
C53 C48 1_555 1_555
H60 C53 1_555 1_555
C54 S1 1_555 1_555
H61 C54 1_555 1_555
H62 C54 1_555 1_555
H63 C54 1_555 1_555
C55 O4 1_555 1_555
H64 C55 1_555 1_555
H65 C55 1_555 1_555
C56 C55 1_555 1_555
H66 C56 1_555 1_555
H67 C56 1_555 1_555
C57 N3 1_555 1_555
C58 N4 1_555 1_555
C59 C58 1_555 1_555
H68 C59 1_555 1_555
C60 C59 1_555 1_555
C61 C60 1_555 1_555
H69 C61 1_555 1_555
C62 C61 1_555 1_555
H70 C62 1_555 1_555
C63 C58 1_555 1_555
H71 C63 1_555 1_555
C64 S2 1_555 1_555
H72 C64 1_555 1_555
H73 C64 1_555 1_555
H74 C64 1_555 1_555
H75 N1 1_555 1_555
H76 O1 1_555 1_555
H77 N2 1_555 1_555
H78 N3 1_555 1_555
H79 O3 1_555 1_555
H80 N4 1_555 1_555
O7 C68 1_555 1_555
C68 C69 1_555 1_555
C69 H90 1_555 1_555
H91 C69 1_555 1_555
H92 C69 1_555 1_555
C70 C68 1_555 1_555
H93 C70 1_555 1_555
H94 C70 1_555 1_555
H95 C70 1_555 1_555
C71 O8 1_555 1_555
C72 C71 1_555 1_555
H96 C72 1_555 1_555
H97 C72 1_555 1_555
H98 C72 1_555 1_555
C73 C71 1_555 1_555
H99 C73 1_555 1_555
H100 C73 1_555 1_555
H101 C73 1_555 1_555
O10 C76 1_555 1_555
C76 H108 1_555 1_555
H109 C76 1_555 1_555
H110 C76 1_555 1_555
H111 O10 1_555 1_555
C6 C7 1_555 1_555
C17 C18 1_555 1_555
C28 C29 1_555 1_555
C36 C37 1_555 1_555
C39 C40 1_555 1_555
C52 C53 1_555 1_555
C62 C63 1_555 1_555

#END
