
#######################################################################
#
#                 Cambridge Crystallographic Data Centre
#                                CCDC 
#
#######################################################################
#
# If this CIF has been generated from an entry in the Cambridge 
# Structural Database, then it will include bibliographic, chemical, 
# crystal, experimental, refinement or atomic coordinate data resulting 
# from the CCDC's data processing and validation procedures.
#
#######################################################################

data_WOHFAC
_chemical_name_common            
'5,11,17,23-tetra-t-butyl-25,27-dihydroxy-26,28-bis(2-(((3-methylphenyl)carbamothioyl)amino)ethoxy)calix(4)arene chloroform ethanol solvate'
_chemical_formula_moiety         'C64 H80 N4 O4 S2,3(C2 H6 O1),0.5(C1 H1 Cl3)'
_chemical_name_systematic        
"1,1'-((5,11,17,23-tetra-t-butyl-26,28-dihydroxypentacyclo[19.3.1.1^3,7^.1^9,13^.1^15,19^]octacosa-1(25),3(28),4,6,9(27),10,12,15(26),16,18,21,23-dodecaene-25,27-diyl)bis(oxyethane-2,1-diyl))bis(3-(3-methylphenyl)(thiourea)) chloroform ethanol solvate"
_symmetry_cell_setting           monoclinic
_symmetry_space_group_name_H-M   'C 2/c'
_symmetry_Int_Tables_number      15
_space_group_name_Hall           '-C 2yn'
loop_
_symmetry_equiv_pos_site_id
_symmetry_equiv_pos_as_xyz
1 x,y,z
2 -x,y,1/2-z
3 1/2+x,1/2+y,z
4 1/2-x,1/2+y,1/2-z
5 -x,-y,-z
6 x,-y,1/2+z
7 1/2-x,1/2-y,-z
8 1/2+x,1/2-y,1/2+z
_cell_length_a                   28.3148(6)
_cell_length_b                   15.8506(3)
_cell_length_c                   18.2260(4)
_cell_angle_alpha                90
_cell_angle_beta                 118.09(1)
_cell_angle_gamma                90
_cell_volume                     7216.42
_exptl_crystal_colour            colorless
_exptl_crystal_description       block
_cell_formula_units_Z            4
loop_
_atom_site_label
_atom_site_type_symbol
_atom_site_fract_x
_atom_site_fract_y
_atom_site_fract_z
S1 S 0.64162(3) 1.18987(6) 0.49993(5)
O1 O 0.43430(8) 0.94662(12) 0.24394(12)
O2 O 0.52980(7) 0.95602(11) 0.37774(10)
N1 N 0.57982(9) 1.10735(15) 0.35858(14)
N2 N 0.66599(10) 1.13400(18) 0.38511(16)
C1 C 0.36621(10) 0.88671(17) 0.08356(15)
H1 H 0.3294 0.8812 0.0371
H2 H 0.3747 0.9476 0.0937
C2 C 0.36925(10) 0.84627(17) 0.16130(16)
C3 C 0.40572(10) 0.87531(16) 0.24017(16)
C4 C 0.41120(10) 0.83412(16) 0.31189(16)
C5 C 0.37903(11) 0.76439(17) 0.30277(17)
H3 H 0.3830 0.7360 0.3512
C6 C 0.34120(11) 0.73473(17) 0.22498(18)
C7 C 0.33714(10) 0.77689(18) 0.15550(17)
H4 H 0.3116 0.7579 0.1019
C8 C 0.30413(13) 0.6611(2) 0.2191(2)
C9 C 0.2493(8) 0.6982(13) 0.2002(14)
H5 H 0.2378 0.7384 0.1541
H6 H 0.2522 0.7271 0.2496
H7 H 0.2230 0.6526 0.1847
C10 C 0.2906(6) 0.6063(9) 0.1433(9)
H8 H 0.2662 0.5611 0.1406
H9 H 0.3235 0.5815 0.1476
H10 H 0.2734 0.6409 0.0929
C11 C 0.3259(5) 0.6068(8) 0.2930(8)
H11 H 0.3027 0.5574 0.2823
H12 H 0.3276 0.6384 0.3404
H13 H 0.3619 0.5881 0.3057
C12 C 0.44930(10) 0.86605(17) 0.39853(16)
H14 H 0.4356 0.8488 0.4372
H15 H 0.4499 0.9285 0.3975
C13 C 0.50617(10) 0.83345(17) 0.43133(15)
C14 C 0.54415(10) 0.87814(16) 0.41856(14)
C15 C 0.59470(10) 0.84491(17) 0.44001(15)
C16 C 0.60724(11) 0.76623(18) 0.47962(17)
H16 H 0.6416 0.7429 0.4955
C17 C 0.57178(12) 0.72097(18) 0.49659(18)
C18 C 0.52083(12) 0.75563(18) 0.47131(17)
H17 H 0.4957 0.7252 0.4817
C19 C 0.58844(15) 0.6358(2) 0.5425(2)
C20 C 0.5474(8) 0.6037(13) 0.5668(13)
H18 H 0.5157 0.5839 0.5171
H19 H 0.5373 0.6495 0.5928
H20 H 0.5628 0.5570 0.6063
C21 C 0.6352(5) 0.6494(7) 0.6283(7)
H21 H 0.6277 0.6978 0.6547
H22 H 0.6677 0.6603 0.6235
H23 H 0.6403 0.5988 0.6622
C22 C 0.6124(6) 0.5798(10) 0.4998(10)
H24 H 0.6301 0.5310 0.5352
H25 H 0.6385 0.6123 0.4905
H26 H 0.5838 0.5602 0.4462
C23 C 0.53858(10) 1.02852(16) 0.43041(16)
H27 H 0.5740 1.0248 0.4805
H28 H 0.5106 1.0319 0.4483
C24 C 0.53609(10) 1.10524(17) 0.37893(16)
H29 H 0.5017 1.1050 0.3268
H30 H 0.5372 1.1569 0.4102
C25 C 0.62811(11) 1.14119(18) 0.40928(17)
C26 C 0.65847(11) 1.09962(18) 0.30785(17)
C27 C 0.68947(11) 1.03240(19) 0.30835(18)
H31 H 0.7146 1.0084 0.3599
C28 C 0.68449(11) 0.99904(19) 0.23417(19)
C29 C 0.64752(12) 1.0362(2) 0.15942(19)
H32 H 0.6436 1.0144 0.1083
C30 C 0.61658(12) 1.1037(2) 0.15852(19)
H33 H 0.5916 1.1278 0.1070
C31 C 0.62182(12) 1.13692(19) 0.23297(18)
H34 H 0.6009 1.1839 0.2328
C32 C 0.71794(14) 0.9254(2) 0.2344(2)
H35 H 0.7021 0.9002 0.1788
H36 H 0.7192 0.8832 0.2746
H37 H 0.7543 0.9448 0.2500
H38 H 0.5785(16) 1.071(3) 0.322(3)
H39 H 0.6940(16) 1.149(2) 0.419(2)
H40 H 0.4620(18) 0.953(3) 0.284(3)
S1A S 0.35838(3) 1.18987(6) 0.00007(5)
O1A O 0.56570(8) 0.94662(12) 0.25606(12)
O2A O 0.47020(7) 0.95602(11) 0.12226(10)
N1A N 0.42018(9) 1.10735(15) 0.14142(14)
N2A N 0.33401(10) 1.13400(18) 0.11489(16)
C1A C 0.63379(10) 0.88671(17) 0.41644(15)
H1A H 0.6706 0.8812 0.4629
H2A H 0.6253 0.9476 0.4063
C2A C 0.63075(10) 0.84627(17) 0.33870(16)
C3A C 0.59428(10) 0.87531(16) 0.25983(16)
C4A C 0.58880(10) 0.83412(16) 0.18811(16)
C5A C 0.62097(11) 0.76439(17) 0.19723(17)
H3A H 0.6170 0.7360 0.1488
C6A C 0.65880(11) 0.73473(17) 0.27502(18)
C7A C 0.66286(10) 0.77689(18) 0.34450(17)
H4A H 0.6884 0.7579 0.3981
C8A C 0.69587(13) 0.6611(2) 0.2809(2)
C9A C 0.7507(8) 0.6982(13) 0.2998(14)
H5A H 0.7622 0.7384 0.3459
H6A H 0.7478 0.7271 0.2504
H7A H 0.7770 0.6526 0.3153
C10A C 0.7094(6) 0.6063(9) 0.3567(9)
H8A H 0.7338 0.5611 0.3594
H9A H 0.6765 0.5815 0.3524
H10A H 0.7266 0.6409 0.4071
C11A C 0.6741(5) 0.6068(8) 0.2070(8)
H11A H 0.6973 0.5574 0.2177
H12A H 0.6724 0.6384 0.1596
H13A H 0.6381 0.5881 0.1943
C12A C 0.55070(10) 0.86605(17) 0.10147(16)
H14A H 0.5644 0.8488 0.0628
H15A H 0.5501 0.9285 0.1025
C13A C 0.49383(10) 0.83345(17) 0.06867(15)
C14A C 0.45585(10) 0.87814(16) 0.08144(14)
C15A C 0.40530(10) 0.84491(17) 0.05999(15)
C16A C 0.39276(11) 0.76623(18) 0.02038(17)
H16A H 0.3584 0.7429 0.0045
C17A C 0.42822(12) 0.72097(18) 0.00341(18)
C18A C 0.47917(12) 0.75563(18) 0.02869(17)
H17A H 0.5043 0.7252 0.0183
C19A C 0.41156(15) 0.6358(2) -0.0425(2)
C20A C 0.4526(8) 0.6037(13) -0.0668(13)
H18A H 0.4843 0.5839 -0.0171
H19A H 0.4627 0.6495 -0.0928
H20A H 0.4372 0.5570 -0.1063
C21A C 0.3648(5) 0.6494(7) -0.1283(7)
H21A H 0.3723 0.6978 -0.1547
H22A H 0.3323 0.6603 -0.1235
H23A H 0.3597 0.5988 -0.1622
C22A C 0.3876(6) 0.5798(10) 0.0002(10)
H24A H 0.3699 0.5310 -0.0352
H25A H 0.3615 0.6123 0.0095
H26A H 0.4162 0.5602 0.0538
C23A C 0.46142(10) 1.02852(16) 0.06959(16)
H27A H 0.4260 1.0248 0.0195
H28A H 0.4894 1.0319 0.0517
C24A C 0.46391(10) 1.10524(17) 0.12107(16)
H29A H 0.4983 1.1050 0.1732
H30A H 0.4628 1.1569 0.0898
C25A C 0.37189(11) 1.14119(18) 0.09072(17)
C26A C 0.34153(11) 1.09962(18) 0.19215(17)
C27A C 0.31053(11) 1.03240(19) 0.19165(18)
H31A H 0.2854 1.0084 0.1401
C28A C 0.31551(11) 0.99904(19) 0.26583(19)
C29A C 0.35248(12) 1.0362(2) 0.34058(19)
H32A H 0.3564 1.0144 0.3917
C30A C 0.38342(12) 1.1037(2) 0.34148(19)
H33A H 0.4084 1.1278 0.3930
C31A C 0.37818(12) 1.13692(19) 0.26703(18)
H34A H 0.3991 1.1839 0.2672
C32A C 0.28206(14) 0.9254(2) 0.2656(2)
H35A H 0.2979 0.9002 0.3212
H36A H 0.2808 0.8832 0.2254
H37A H 0.2457 0.9448 0.2500
H38A H 0.4215(16) 1.071(3) 0.178(3)
H39A H 0.3060(16) 1.149(2) 0.081(2)
H40A H 0.5380(18) 0.953(3) 0.216(3)
O3 O 0.72404(11) 1.3428(2) 0.51762(18)
C33 C 0.6962(2) 1.3968(4) 0.4494(4)
H41 H 0.7159 1.4508 0.4598
H42 H 0.6605 1.4090 0.4441
C34 C 0.6897(3) 1.3607(4) 0.3713(4)
H43 H 0.6728 1.4023 0.3267
H44 H 0.6670 1.3103 0.3577
H45 H 0.7248 1.3451 0.3773
H46 H 0.706(2) 1.303(3) 0.519(3)
Cl1 Cl 0.55032(17) 0.5432(3) 0.7497(3)
Cl2 Cl 0.5380(3) 0.6640(4) 0.8052(4)
H47 H 0.4696 0.5960 0.7453
Cl3A Cl 0.45031(18) 0.6650(3) 0.6359(3)
C35A C 0.4920(6) 0.5971(9) 0.7248(8)
Cl3 Cl 0.54969(18) 0.6650(3) 0.8641(3)
C35 C 0.5080(6) 0.5971(9) 0.7752(8)
Cl1A Cl 0.44968(17) 0.5432(3) 0.7503(3)
Cl2A Cl 0.4620(3) 0.6640(4) 0.6948(4)
H47A H 0.5304 0.5960 0.7547
C36? C 0.2696(3) 0.6899(4) 0.2600(5)
H48? H 0.2458 0.6438 0.2576
H49? H 0.2480 0.7390 0.2301
H50? H 0.2930 0.7051 0.3182
C37? C 0.2668(2) 0.6357(4) 0.1313(4)
H51? H 0.2877 0.6198 0.1031
H52? H 0.2433 0.6831 0.1020
H53? H 0.2452 0.5875 0.1315
C38? C 0.3394(3) 0.5855(5) 0.2667(5)
H54? H 0.3165 0.5372 0.2621
H55? H 0.3611 0.6005 0.3254
H56? H 0.3629 0.5706 0.2430
C39? C 0.5447(4) 0.5737(6) 0.5107(6)
H57? H 0.5562 0.5228 0.5453
H58? H 0.5354 0.5591 0.4532
H59? H 0.5134 0.5978 0.5123
C40? C 0.6062(4) 0.6525(7) 0.6346(6)
H60? H 0.5758 0.6741 0.6407
H61? H 0.6351 0.6943 0.6559
H62? H 0.6190 0.5999 0.6660
C41? C 0.6416(4) 0.6006(6) 0.5463(6)
H63? H 0.6503 0.5458 0.5745
H64? H 0.6710 0.6402 0.5771
H65? H 0.6367 0.5940 0.4897
C42? C 0.5409(6) 0.4151(10) 0.7134(11)
O4? O 0.5758(10) 0.4216(17) 0.8351(16)
H66? H 0.5039 0.4324 0.6765
H67? H 0.5559 0.3878 0.6807
H68? H 0.5624 0.4648 0.7416
O5? O 0.5000 0.3066(5) 0.7500
C43? C 0.5274(5) 0.4078(8) 0.6721(9)
H69? H 0.5154 0.3635 0.6295
H70? H 0.5596 0.4347 0.6760
H71? H 0.4990 0.4500 0.6568
C44? C 0.5415(4) 0.3636(6) 0.7670(6)
loop_
_geom_bond_atom_site_label_1
_geom_bond_atom_site_label_2
_geom_bond_site_symmetry_1
_geom_bond_site_symmetry_2
S1 C25 1_555 1_555
O1 C3 1_555 1_555
O2 C14 1_555 1_555
N1 C24 1_555 1_555
N2 C25 1_555 1_555
C1 H1 1_555 1_555
H2 C1 1_555 1_555
C2 C1 1_555 1_555
C3 C2 1_555 1_555
C4 C3 1_555 1_555
C5 C4 1_555 1_555
H3 C5 1_555 1_555
C6 C5 1_555 1_555
C7 C2 1_555 1_555
H4 C7 1_555 1_555
C8 C6 1_555 1_555
C9 C8 1_555 1_555
H5 C9 1_555 1_555
H6 C9 1_555 1_555
H7 C9 1_555 1_555
C10 C8 1_555 1_555
H8 C10 1_555 1_555
H9 C10 1_555 1_555
H10 C10 1_555 1_555
C11 C8 1_555 1_555
H11 C11 1_555 1_555
H12 C11 1_555 1_555
H13 C11 1_555 1_555
C12 C4 1_555 1_555
H14 C12 1_555 1_555
H15 C12 1_555 1_555
C13 C12 1_555 1_555
C14 C13 1_555 1_555
C15 C14 1_555 1_555
C16 C15 1_555 1_555
H16 C16 1_555 1_555
C17 C16 1_555 1_555
C18 C13 1_555 1_555
H17 C18 1_555 1_555
C19 C17 1_555 1_555
C20 C19 1_555 1_555
H18 C20 1_555 1_555
H19 C20 1_555 1_555
H20 C20 1_555 1_555
C21 C19 1_555 1_555
H21 C21 1_555 1_555
H22 C21 1_555 1_555
H23 C21 1_555 1_555
C22 C19 1_555 1_555
H24 C22 1_555 1_555
H25 C22 1_555 1_555
H26 C22 1_555 1_555
C23 O2 1_555 1_555
H27 C23 1_555 1_555
H28 C23 1_555 1_555
C24 C23 1_555 1_555
H29 C24 1_555 1_555
H30 C24 1_555 1_555
C25 N1 1_555 1_555
C26 N2 1_555 1_555
C27 C26 1_555 1_555
H31 C27 1_555 1_555
C28 C27 1_555 1_555
C29 C28 1_555 1_555
H32 C29 1_555 1_555
C30 C29 1_555 1_555
H33 C30 1_555 1_555
C31 C26 1_555 1_555
H34 C31 1_555 1_555
C32 C28 1_555 1_555
H35 C32 1_555 1_555
H36 C32 1_555 1_555
H37 C32 1_555 1_555
H38 N1 1_555 1_555
H39 N2 1_555 1_555
H40 O1 1_555 1_555
O3 C33 1_555 1_555
C33 H41 1_555 1_555
H42 C33 1_555 1_555
C34 C33 1_555 1_555
H43 C34 1_555 1_555
H44 C34 1_555 1_555
H45 C34 1_555 1_555
H46 O3 1_555 1_555
Cl1 C35A 1_555 1_555
Cl2 C35A 1_555 1_555
H47 C35A 1_555 1_555
Cl3 C35 1_555 1_555
C35 Cl1A 1_555 1_555
S1A C25A 1_555 1_555
O1A C3A 1_555 1_555
O2A C14A 1_555 1_555
N1A C24A 1_555 1_555
N2A C25A 1_555 1_555
C1A C15 1_555 1_555
H1A C1A 1_555 1_555
H2A C1A 1_555 1_555
C2A C1A 1_555 1_555
C3A C2A 1_555 1_555
C4A C3A 1_555 1_555
C5A C4A 1_555 1_555
H3A C5A 1_555 1_555
C6A C5A 1_555 1_555
C7A C2A 1_555 1_555
H4A C7A 1_555 1_555
C8A C6A 1_555 1_555
C9A C8A 1_555 1_555
H5A C9A 1_555 1_555
H6A C9A 1_555 1_555
H7A C9A 1_555 1_555
C10A C8A 1_555 1_555
H8A C10A 1_555 1_555
H9A C10A 1_555 1_555
H10A C10A 1_555 1_555
C11A C8A 1_555 1_555
H11A C11A 1_555 1_555
H12A C11A 1_555 1_555
H13A C11A 1_555 1_555
C12A C4A 1_555 1_555
H14A C12A 1_555 1_555
H15A C12A 1_555 1_555
C13A C12A 1_555 1_555
C14A C13A 1_555 1_555
C15A C1 1_555 1_555
C16A C15A 1_555 1_555
H16A C16A 1_555 1_555
C17A C16A 1_555 1_555
C18A C13A 1_555 1_555
H17A C18A 1_555 1_555
C19A C17A 1_555 1_555
C20A C19A 1_555 1_555
H18A C20A 1_555 1_555
H19A C20A 1_555 1_555
H20A C20A 1_555 1_555
C21A C19A 1_555 1_555
H21A C21A 1_555 1_555
H22A C21A 1_555 1_555
H23A C21A 1_555 1_555
C22A C19A 1_555 1_555
H24A C22A 1_555 1_555
H25A C22A 1_555 1_555
H26A C22A 1_555 1_555
C23A O2A 1_555 1_555
H27A C23A 1_555 1_555
H28A C23A 1_555 1_555
C24A C23A 1_555 1_555
H29A C24A 1_555 1_555
H30A C24A 1_555 1_555
C25A N1A 1_555 1_555
C26A N2A 1_555 1_555
C27A C26A 1_555 1_555
H31A C27A 1_555 1_555
C28A C27A 1_555 1_555
C29A C28A 1_555 1_555
H32A C29A 1_555 1_555
C30A C29A 1_555 1_555
H33A C30A 1_555 1_555
C31A C26A 1_555 1_555
H34A C31A 1_555 1_555
C32A C28A 1_555 1_555
H35A C32A 1_555 1_555
H36A C32A 1_555 1_555
H37A C32A 1_555 1_555
H38A N1A 1_555 1_555
H39A N2A 1_555 1_555
H40A O1A 1_555 1_555
Cl3A C35A 1_555 1_555
Cl2A C35 1_555 1_555
H47A C35 1_555 1_555
C6 C7 1_555 1_555
C17 C18 1_555 1_555
C30 C31 1_555 1_555
C6A C7A 1_555 1_555
C14A C15A 1_555 1_555
C17A C18A 1_555 1_555
C30A C31A 1_555 1_555

#END
