
#######################################################################
#
#                 Cambridge Crystallographic Data Centre
#                                CCDC 
#
#######################################################################
#
# If this CIF has been generated from an entry in the Cambridge 
# Structural Database, then it will include bibliographic, chemical, 
# crystal, experimental, refinement or atomic coordinate data resulting 
# from the CCDC's data processing and validation procedures.
#
#######################################################################

data_WOHHOR
_chemical_formula_moiety         'C25 H26 O2 S2'
_chemical_name_systematic        
2,6-Dioxa-9,13-dithia-1,7(1,2),11(1,3)-tribenzenacyclotetradecaphane
_symmetry_cell_setting           triclinic
_symmetry_space_group_name_H-M   'P -1'
_symmetry_Int_Tables_number      2
_space_group_name_Hall           '-P 1'
loop_
_symmetry_equiv_pos_site_id
_symmetry_equiv_pos_as_xyz
1 x,y,z
2 -x,-y,-z
_cell_length_a                   8.1852(8)
_cell_length_b                   10.1526(9)
_cell_length_c                   13.3760(12)
_cell_angle_alpha                93.562(2)
_cell_angle_beta                 90.205(2)
_cell_angle_gamma                96.644(2)
_cell_volume                     1101.9
_exptl_crystal_colour            colorless
_exptl_crystal_description       block
_chemical_melting_point          '120-123 deg.C(dec.)'
_cell_formula_units_Z            2
_exptl_crystal_recrystallization_method dichloromethane
loop_
_atom_site_label
_atom_site_type_symbol
_atom_site_fract_x
_atom_site_fract_y
_atom_site_fract_z
S1 S 0.20987(11) 0.69905(8) 0.12076(6)
S2 S 0.35237(11) 0.25953(8) 0.42634(6)
O1 O 0.3461(3) 0.9258(2) 0.28293(15)
O2 O 0.1742(3) 0.6582(2) 0.48774(15)
C1 C 0.3326(4) 0.8761(4) 0.3808(2)
H1 H 0.3932 0.9403 0.4304
H2 H 0.3803 0.7909 0.3815
C2 C 0.1539(4) 0.8558(3) 0.4069(2)
H3 H 0.0924 0.8008 0.3524
H4 H 0.1105 0.9430 0.4128
C3 C 0.1262(4) 0.7886(3) 0.5042(2)
H5 H 0.1933 0.8388 0.5588
H6 H 0.0089 0.7837 0.5231
C4 C 0.1737(4) 0.5799(3) 0.5672(2)
C5 C 0.1113(4) 0.6122(3) 0.6612(2)
H7 H 0.0640 0.6929 0.6729
C6 C 0.1180(4) 0.5273(4) 0.7371(2)
H8 H 0.0749 0.5496 0.8010
C7 C 0.1869(4) 0.4098(4) 0.7212(2)
H9 H 0.1925 0.3518 0.7739
C8 C 0.2478(4) 0.3778(3) 0.6273(2)
H10 H 0.2952 0.2971 0.6164
C9 C 0.2414(4) 0.4599(3) 0.5491(2)
C10 C 0.3054(4) 0.4295(3) 0.4444(2)
H11 H 0.4059 0.4907 0.4332
H12 H 0.2217 0.4452 0.3942
C11 C 0.4512(4) 0.2686(3) 0.3051(2)
H13 H 0.5472 0.3377 0.3111
H14 H 0.4930 0.1826 0.2875
C12 C 0.3420(4) 0.2998(3) 0.2209(2)
C13 C 0.2062(4) 0.2120(3) 0.1883(2)
H15 H 0.1792 0.1316 0.2205
C14 C 0.1107(4) 0.2417(3) 0.1092(3)
H16 H 0.0178 0.1816 0.0875
C15 C 0.1492(4) 0.3585(3) 0.0611(2)
H17 H 0.0841 0.3770 0.0058
C16 C 0.2830(4) 0.4483(3) 0.0936(2)
C17 C 0.3778(4) 0.4170(3) 0.1735(2)
H18 H 0.4695 0.4776 0.1960
C18 C 0.3203(5) 0.5802(3) 0.0484(2)
H19 H 0.2838 0.5734 -0.0226
H20 H 0.4401 0.6090 0.0513
C19 C 0.3172(4) 0.8548(3) 0.0818(2)
H21 H 0.3310 0.8482 0.0082
H22 H 0.2492 0.9276 0.0983
C20 C 0.4823(4) 0.8883(3) 0.1310(2)
C21 C 0.6278(4) 0.8846(3) 0.0788(3)
H23 H 0.6232 0.8640 0.0085
C22 C 0.7791(5) 0.9101(4) 0.1264(3)
H24 H 0.8770 0.9061 0.0889
C23 C 0.7882(5) 0.9413(3) 0.2282(3)
H25 H 0.8922 0.9605 0.2609
C24 C 0.6439(4) 0.9444(3) 0.2829(3)
H26 H 0.6495 0.9640 0.3533
C25 C 0.4929(4) 0.9193(3) 0.2349(2)
loop_
_geom_bond_atom_site_label_1
_geom_bond_atom_site_label_2
_geom_bond_site_symmetry_1
_geom_bond_site_symmetry_2
S1 C18 1_555 1_555
S2 C10 1_555 1_555
O1 C1 1_555 1_555
O2 C3 1_555 1_555
C1 H1 1_555 1_555
H2 C1 1_555 1_555
C2 C1 1_555 1_555
H3 C2 1_555 1_555
H4 C2 1_555 1_555
C3 C2 1_555 1_555
H5 C3 1_555 1_555
H6 C3 1_555 1_555
C4 O2 1_555 1_555
C5 C4 1_555 1_555
H7 C5 1_555 1_555
C6 C5 1_555 1_555
H8 C6 1_555 1_555
C7 C6 1_555 1_555
H9 C7 1_555 1_555
C8 C7 1_555 1_555
H10 C8 1_555 1_555
C9 C4 1_555 1_555
C10 C9 1_555 1_555
H11 C10 1_555 1_555
H12 C10 1_555 1_555
C11 S2 1_555 1_555
H13 C11 1_555 1_555
H14 C11 1_555 1_555
C12 C11 1_555 1_555
C13 C12 1_555 1_555
H15 C13 1_555 1_555
C14 C13 1_555 1_555
H16 C14 1_555 1_555
C15 C14 1_555 1_555
H17 C15 1_555 1_555
C16 C15 1_555 1_555
C17 C12 1_555 1_555
H18 C17 1_555 1_555
C18 C16 1_555 1_555
H19 C18 1_555 1_555
H20 C18 1_555 1_555
C19 S1 1_555 1_555
H21 C19 1_555 1_555
H22 C19 1_555 1_555
C20 C19 1_555 1_555
C21 C20 1_555 1_555
H23 C21 1_555 1_555
C22 C21 1_555 1_555
H24 C22 1_555 1_555
C23 C22 1_555 1_555
H25 C23 1_555 1_555
C24 C23 1_555 1_555
H26 C24 1_555 1_555
C25 O1 1_555 1_555
C8 C9 1_555 1_555
C16 C17 1_555 1_555
C20 C25 1_555 1_555
C24 C25 1_555 1_555

#END
