
#######################################################################
#
#                 Cambridge Crystallographic Data Centre
#                                CCDC 
#
#######################################################################
#
# If this CIF has been generated from an entry in the Cambridge 
# Structural Database, then it will include bibliographic, chemical, 
# crystal, experimental, refinement or atomic coordinate data resulting 
# from the CCDC's data processing and validation procedures.
#
#######################################################################

data_WOHHUY
_chemical_name_common            '3-(4-bromophenyl)-1,2-benzothiazole 1-oxide'
_chemical_formula_moiety         'C13 H8 Br1 N1 O1 S1'
_chemical_name_systematic        
'(S)-3-(4-Bromophenyl)benzo[d]isothiazole 1-oxide'
_symmetry_cell_setting           monoclinic
_symmetry_space_group_name_H-M   'P 21'
_symmetry_Int_Tables_number      4
_space_group_name_Hall           'P 2yb'
loop_
_symmetry_equiv_pos_site_id
_symmetry_equiv_pos_as_xyz
1 x,y,z
2 -x,1/2+y,-z
_cell_length_a                   7.5255(18)
_cell_length_b                   3.9957(10)
_cell_length_c                   19.305(5)
_cell_angle_alpha                90
_cell_angle_beta                 95.045(4)
_cell_angle_gamma                90
_cell_volume                     578.246
_exptl_crystal_colour            colorless
_exptl_crystal_description       prismatic
_cell_formula_units_Z            2
loop_
_atom_site_label
_atom_site_type_symbol
_atom_site_fract_x
_atom_site_fract_y
_atom_site_fract_z
Br1 Br 0.17222(4) 0.62858(11) 0.544905(14)
S1 S 1.04377(9) -0.0499(2) 0.81885(4)
N1 N 0.9021(3) 0.1547(9) 0.75882(12)
O1 O 1.1605(3) 0.1960(5) 0.85917(11)
C1 C 0.8664(4) -0.1757(8) 0.86806(15)
C2 C 0.8814(4) -0.3391(10) 0.93169(14)
H1 H 0.9944 -0.3831 0.9558
C3 C 0.7226(4) -0.4365(8) 0.95885(15)
H2 H 0.7263 -0.5364 1.0036
C4 C 0.5598(4) -0.3871(11) 0.92040(14)
H3 H 0.4540 -0.4660 0.9384
C5 C 0.5474(4) -0.2259(9) 0.85653(15)
H4 H 0.4349 -0.1945 0.8309
C6 C 0.7045(4) -0.1103(8) 0.83060(15)
C7 C 0.7357(4) 0.0818(8) 0.76606(14)
C8 C 0.5973(4) 0.1992(7) 0.71337(15)
C9 C 0.6421(4) 0.2640(9) 0.64544(15)
H5 H 0.7599 0.2201 0.6338
C10 C 0.5177(4) 0.3904(9) 0.59548(16)
H6 H 0.5497 0.4346 0.5499
C11 C 0.3447(4) 0.4526(9) 0.61251(15)
C12 C 0.2960(4) 0.3943(8) 0.67914(15)
H7 H 0.1781 0.4402 0.6905
C13 C 0.4220(4) 0.2683(9) 0.72872(15)
H8 H 0.3893 0.2273 0.7744
loop_
_geom_bond_atom_site_label_1
_geom_bond_atom_site_label_2
_geom_bond_site_symmetry_1
_geom_bond_site_symmetry_2
Br1 C11 1_555 1_555
S1 N1 1_555 1_555
N1 C7 1_555 1_555
O1 S1 1_555 1_555
C1 S1 1_555 1_555
C2 C1 1_555 1_555
H1 C2 1_555 1_555
C3 C2 1_555 1_555
H2 C3 1_555 1_555
C4 C3 1_555 1_555
H3 C4 1_555 1_555
C5 C4 1_555 1_555
H4 C5 1_555 1_555
C6 C1 1_555 1_555
C7 C6 1_555 1_555
C8 C7 1_555 1_555
C9 C8 1_555 1_555
H5 C9 1_555 1_555
C10 C9 1_555 1_555
H6 C10 1_555 1_555
C11 C10 1_555 1_555
C12 C11 1_555 1_555
H7 C12 1_555 1_555
C13 C8 1_555 1_555
H8 C13 1_555 1_555
C5 C6 1_555 1_555
C12 C13 1_555 1_555

#END
