
#######################################################################
#
#                 Cambridge Crystallographic Data Centre
#                                CCDC 
#
#######################################################################
#
# If this CIF has been generated from an entry in the Cambridge 
# Structural Database, then it will include bibliographic, chemical, 
# crystal, experimental, refinement or atomic coordinate data resulting 
# from the CCDC's data processing and validation procedures.
#
#######################################################################

data_WOHHIM
_chemical_formula_moiety         'C11 H10 N4'
_chemical_name_systematic        
2-azido-1,2,3,4-tetrahydronaphthalene-1-carbonitrile
_symmetry_cell_setting           monoclinic
_symmetry_space_group_name_H-M   'P 21/c'
_symmetry_Int_Tables_number      14
_space_group_name_Hall           '-P 2ybc'
loop_
_symmetry_equiv_pos_site_id
_symmetry_equiv_pos_as_xyz
1 x,y,z
2 -x,1/2+y,1/2-z
3 -x,-y,-z
4 x,1/2-y,1/2+z
_cell_length_a                   9.1608(8)
_cell_length_b                   7.6873(5)
_cell_length_c                   14.6054(11)
_cell_angle_alpha                90
_cell_angle_beta                 103.050(7)
_cell_angle_gamma                90
_cell_volume                     1001.98
_exptl_crystal_colour            'light colorless'
_exptl_crystal_description       block
_cell_formula_units_Z            4
loop_
_atom_site_label
_atom_site_type_symbol
_atom_site_fract_x
_atom_site_fract_y
_atom_site_fract_z
N1 N 0.0214(2) -0.1818(3) 0.90514(18)
N2 N -0.0408(2) 0.2776(3) 0.84787(13)
N3 N -0.1004(2) 0.3838(2) 0.88999(13)
N4 N -0.1721(2) 0.4777(3) 0.91940(17)
C1 C 0.1538(2) 0.0744(2) 0.84018(13)
H1 H 0.1101 0.0849 0.7727
C2 C 0.1218(2) 0.2437(3) 0.88668(14)
H2 H 0.1404 0.2276 0.9549
C3 C 0.2211(3) 0.3858(3) 0.86441(16)
H3 H 0.1938 0.4960 0.8882
H4 H 0.2085 0.3959 0.7969
C4 C 0.3825(3) 0.3431(3) 0.90948(18)
H5 H 0.4471 0.4270 0.8886
H6 H 0.3976 0.3542 0.9771
C5 C 0.4276(2) 0.1625(3) 0.88649(14)
C6 C 0.5783(3) 0.1179(4) 0.89755(17)
H7 H 0.6513 0.2000 0.9218
C7 C 0.6217(3) -0.0431(4) 0.87369(17)
H8 H 0.7229 -0.0694 0.8821
C8 C 0.5151(3) -0.1662(4) 0.83719(16)
H9 H 0.5439 -0.2747 0.8192
C9 C 0.3648(2) -0.1272(3) 0.82748(15)
H10 H 0.2927 -0.2110 0.8042
C10 C 0.3204(2) 0.0355(3) 0.85212(13)
C11 C 0.0785(2) -0.0707(3) 0.87580(16)
loop_
_geom_bond_atom_site_label_1
_geom_bond_atom_site_label_2
_geom_bond_site_symmetry_1
_geom_bond_site_symmetry_2
N1 C11 1_555 1_555
N2 N3 1_555 1_555
N3 N4 1_555 1_555
C1 H1 1_555 1_555
C2 N2 1_555 1_555
H2 C2 1_555 1_555
C3 C2 1_555 1_555
H3 C3 1_555 1_555
H4 C3 1_555 1_555
C4 C3 1_555 1_555
H5 C4 1_555 1_555
H6 C4 1_555 1_555
C5 C4 1_555 1_555
C6 C5 1_555 1_555
H7 C6 1_555 1_555
C7 C6 1_555 1_555
H8 C7 1_555 1_555
C8 C7 1_555 1_555
H9 C8 1_555 1_555
C9 C8 1_555 1_555
H10 C9 1_555 1_555
C10 C1 1_555 1_555
C11 C1 1_555 1_555
C1 C2 1_555 1_555
C5 C10 1_555 1_555
C9 C10 1_555 1_555

#END
