
#######################################################################
#
#                 Cambridge Crystallographic Data Centre
#                                CCDC 
#
#######################################################################
#
# If this CIF has been generated from an entry in the Cambridge 
# Structural Database, then it will include bibliographic, chemical, 
# crystal, experimental, refinement or atomic coordinate data resulting 
# from the CCDC's data processing and validation procedures.
#
#######################################################################

data_WOHHOS
_chemical_formula_moiety         'C18 H18 Br1 F2 N1 O3 S2'
_chemical_name_systematic        
(R,E)-N-[1-(4-Bromophenyl)-2,2-difluoro-2-(phenylsulfonyl)ethylidene]-2-methylpropane-2-sulfinamide
_symmetry_cell_setting           orthorhombic
_symmetry_space_group_name_H-M   'P 21 21 21'
_symmetry_Int_Tables_number      19
_space_group_name_Hall           'P 2ac 2ab'
loop_
_symmetry_equiv_pos_site_id
_symmetry_equiv_pos_as_xyz
1 x,y,z
2 1/2-x,-y,1/2+z
3 -x,1/2+y,1/2-z
4 1/2+x,1/2-y,-z
_cell_length_a                   18.0666(13)
_cell_length_b                   21.1169(15)
_cell_length_c                   22.2584(15)
_cell_angle_alpha                90
_cell_angle_beta                 90
_cell_angle_gamma                90
_cell_volume                     8491.82
_exptl_crystal_colour            yellow
_exptl_crystal_description       prismatic
_cell_formula_units_Z            16
loop_
_atom_site_label
_atom_site_type_symbol
_atom_site_fract_x
_atom_site_fract_y
_atom_site_fract_z
Br1 Br 0.66345(8) 0.38657(7) 0.45631(5)
S1 S 0.73093(15) 0.48732(13) 0.11896(13)
S2 S 0.48510(16) 0.48564(16) 0.18016(13)
F1 F 0.6709(3) 0.3781(3) 0.1061(3)
F2 F 0.7370(3) 0.3879(2) 0.1862(3)
O1 O 0.6880(4) 0.5069(4) 0.0693(3)
O2 O 0.7420(4) 0.5280(3) 0.1700(3)
O3 O 0.4633(4) 0.4563(5) 0.2369(3)
N1 N 0.5676(4) 0.4579(4) 0.1543(3)
C1 C 0.6877(6) 0.4177(5) 0.1503(4)
C2 C 0.6169(6) 0.4342(4) 0.1868(4)
C3 C 0.6231(5) 0.4262(5) 0.2535(4)
C4 C 0.6078(6) 0.3685(6) 0.2763(5)
H1 H 0.5907 0.3369 0.2508
C5 C 0.6170(6) 0.3547(5) 0.3379(6)
H2 H 0.6070 0.3146 0.3531
C6 C 0.6407(5) 0.4015(6) 0.3738(4)
C7 C 0.6565(6) 0.4594(5) 0.3524(4)
H3 H 0.6738 0.4909 0.3780
C8 C 0.6466(5) 0.4718(4) 0.2915(5)
H4 H 0.6563 0.5121 0.2767
C9 C 0.8171(5) 0.4589(4) 0.0947(4)
C10 C 0.8750(5) 0.4570(4) 0.1349(4)
H5 H 0.8692 0.4687 0.1749
C11 C 0.9445(5) 0.4360(4) 0.1113(5)
H6 H 0.9854 0.4335 0.1367
C12 C 0.9518(6) 0.4198(5) 0.0531(5)
H7 H 0.9979 0.4072 0.0389
C13 C 0.8932(7) 0.4213(6) 0.0147(5)
H8 H 0.8986 0.4091 -0.0252
C14 C 0.8258(6) 0.4414(4) 0.0361(4)
H9 H 0.7854 0.4431 0.0103
C15 C 0.4291(6) 0.4490(6) 0.1196(5)
C16 C 0.4453(6) 0.3777(5) 0.1236(5)
H10 H 0.4485 0.3654 0.1650
H11 H 0.4914 0.3686 0.1039
H12 H 0.4062 0.3545 0.1044
C17 C 0.3495(6) 0.4633(6) 0.1408(5)
H13 H 0.3403 0.5080 0.1382
H14 H 0.3437 0.4496 0.1817
H15 H 0.3149 0.4411 0.1158
C18 C 0.4507(7) 0.4737(6) 0.0617(4)
H16 H 0.4135 0.4635 0.0325
H17 H 0.4970 0.4552 0.0498
H18 H 0.4561 0.5189 0.0642
Br2 Br 0.16818(8) 0.72016(6) 0.47723(4)
S3 S 0.24075(14) 0.64709(12) 0.14085(12)
S4 S -0.00542(14) 0.72864(12) 0.18734(11)
F3 F 0.2118(3) 0.7658(2) 0.1243(2)
F4 F 0.2679(3) 0.7445(2) 0.2071(2)
O4 O 0.1871(4) 0.6303(3) 0.0963(2)
O5 O 0.2506(4) 0.6075(2) 0.1907(3)
O6 O -0.0205(3) 0.7137(4) 0.2500(3)
N2 N 0.0855(4) 0.7247(3) 0.1672(3)
C19 C 0.2146(5) 0.7229(4) 0.1698(4)
C20 C 0.1385(5) 0.7224(3) 0.2039(4)
C21 C 0.1411(5) 0.7208(5) 0.2704(4)
C22 C 0.1354(5) 0.7764(4) 0.3009(4)
H19 H 0.1259 0.8142 0.2809
C23 C 0.1442(7) 0.7749(5) 0.3630(4)
H20 H 0.1415 0.8124 0.3848
C24 C 0.1565(5) 0.7208(6) 0.3917(4)
C25 C 0.1614(6) 0.6653(5) 0.3623(5)
H21 H 0.1698 0.6277 0.3829
C26 C 0.1536(6) 0.6658(4) 0.3000(4)
H22 H 0.1570 0.6281 0.2786
C27 C 0.3259(5) 0.6604(4) 0.1060(4)
C28 C 0.3291(6) 0.6696(4) 0.0433(4)
H23 H 0.2862 0.6704 0.0203
C29 C 0.3953(7) 0.6772(6) 0.0178(5)
H24 H 0.3972 0.6801 -0.0238
C30 C 0.4600(7) 0.6811(6) 0.0484(6)
H25 H 0.5049 0.6894 0.0296
C31 C 0.4539(7) 0.6715(5) 0.1112(6)
H26 H 0.4970 0.6722 0.1340
C32 C 0.3905(6) 0.6615(5) 0.1394(5)
H27 H 0.3893 0.6554 0.1807
C33 C -0.0375(5) 0.6619(5) 0.1446(4)
C34 C -0.1214(5) 0.6594(5) 0.1554(5)
H28 H -0.1440 0.6969 0.1392
H29 H -0.1310 0.6571 0.1977
H30 H -0.1417 0.6228 0.1359
C35 C -0.0201(6) 0.6727(6) 0.0792(4)
H31 H 0.0315 0.6647 0.0722
H32 H -0.0314 0.7158 0.0688
H33 H -0.0493 0.6446 0.0550
C36 C 0.0020(6) 0.6026(4) 0.1696(6)
H34 H -0.0087 0.5669 0.1445
H35 H -0.0151 0.5944 0.2097
H36 H 0.0545 0.6098 0.1702
Br3 Br 0.15978(8) 0.76213(6) 0.98154(4)
S5 S 0.24690(14) 0.85643(11) 0.64727(11)
S6 S -0.00130(17) 0.8250(2) 0.71571(13)
F5 F 0.1917(3) 0.7465(2) 0.6237(2)
F6 F 0.2558(3) 0.7509(2) 0.7052(2)
O7 O 0.1962(4) 0.8843(3) 0.6047(3)
O8 O 0.2664(3) 0.8891(2) 0.7022(2)
O9 O -0.0358(7) 0.7603(5) 0.7326(5)
N3 N 0.0815(4) 0.8072(4) 0.6768(3)
C37 C 0.2051(5) 0.7802(4) 0.6720(4)
C38 C 0.1344(6) 0.7929(4) 0.7085(4)
C39 C 0.1395(5) 0.7847(4) 0.7752(4)
C40 C 0.1204(6) 0.7309(5) 0.8026(5)
H37 H 0.1032 0.6975 0.7792
C41 C 0.1250(7) 0.7220(5) 0.8651(5)
H38 H 0.1125 0.6838 0.8833
C42 C 0.1495(6) 0.7740(6) 0.8980(4)
C43 C 0.1715(6) 0.8272(5) 0.8706(4)
H39 H 0.1906 0.8603 0.8934
C44 C 0.1663(6) 0.8336(5) 0.8096(4)
H40 H 0.1810 0.8712 0.7913
C45 C 0.3255(5) 0.8329(4) 0.6076(4)
C46 C 0.3253(6) 0.8249(4) 0.5478(4)
H41 H 0.2813 0.8296 0.5266
C47 C 0.3881(7) 0.8102(5) 0.5178(5)
H42 H 0.3881 0.8067 0.4762
C48 C 0.4506(7) 0.8006(5) 0.5496(5)
H43 H 0.4933 0.7888 0.5290
C49 C 0.4540(6) 0.8071(5) 0.6091(5)
H44 H 0.4979 0.7999 0.6298
C50 C 0.3907(6) 0.8249(4) 0.6389(4)
H45 H 0.3918 0.8316 0.6802
C51 C -0.0555(6) 0.8404(5) 0.6510(4)
C52 C -0.1297(5) 0.8621(5) 0.6709(4)
H46 H -0.1581 0.8748 0.6365
H47 H -0.1244 0.8973 0.6978
H48 H -0.1546 0.8280 0.6911
C53 C -0.0503(10) 0.7954(7) 0.6038(7)
H49 H -0.0649 0.7545 0.6184
H50 H -0.0001 0.7935 0.5896
H51 H -0.0823 0.8078 0.5714
C54 C -0.0146(8) 0.8970(6) 0.6281(6)
H52 H 0.0330 0.8993 0.6472
H53 H -0.0423 0.9346 0.6370
H54 H -0.0081 0.8933 0.5854
Br4 Br 0.33007(7) 0.59305(6) 0.53040(4)
S7 S 0.28249(16) 0.53324(13) 0.87240(14)
S8 S 0.52873(14) 0.59866(13) 0.81072(12)
F7 F 0.3150(3) 0.6525(2) 0.8777(2)
F8 F 0.2564(3) 0.6240(2) 0.7980(2)
O10 O 0.3293(4) 0.5256(4) 0.9240(3)
O11 O 0.2818(4) 0.4873(3) 0.8262(3)
O12 O 0.5373(4) 0.5635(4) 0.7545(3)
N4 N 0.4395(4) 0.6021(3) 0.8360(3)
C55 C 0.3108(6) 0.6066(4) 0.8355(4)
C56 C 0.3854(5) 0.5996(4) 0.7998(4)
C57 C 0.3777(4) 0.5937(5) 0.7349(4)
C58 C 0.3903(5) 0.6478(4) 0.7011(4)
H55 H 0.4092 0.6840 0.7193
C59 C 0.3751(6) 0.6477(4) 0.6416(4)
H56 H 0.3791 0.6849 0.6194
C60 C 0.3540(5) 0.5932(5) 0.6144(4)
C61 C 0.3453(5) 0.5376(4) 0.6451(4)
H57 H 0.3326 0.5003 0.6254
C62 C 0.3563(5) 0.5387(4) 0.7075(5)
H58 H 0.3491 0.5022 0.7302
C63 C 0.1902(5) 0.5484(4) 0.8964(4)
C64 C 0.1797(6) 0.5635(4) 0.9566(4)
H59 H 0.2197 0.5676 0.9826
C65 C 0.1105(6) 0.5720(5) 0.9758(4)
H60 H 0.1019 0.5799 1.0163
C66 C 0.0519(6) 0.5693(5) 0.9367(5)
H61 H 0.0041 0.5761 0.9508
C67 C 0.0630(6) 0.5567(5) 0.8779(5)
H62 H 0.0229 0.5549 0.8517
C68 C 0.1332(6) 0.5466(4) 0.8568(4)
H63 H 0.1415 0.5387 0.8162
C69 C 0.5630(6) 0.5449(5) 0.8703(4)
C70 C 0.6438(6) 0.5357(5) 0.8542(5)
H64 H 0.6685 0.5759 0.8542
H65 H 0.6474 0.5169 0.8150
H66 H 0.6667 0.5083 0.8831
C71 C 0.5513(7) 0.5774(6) 0.9286(4)
H67 H 0.5813 0.5577 0.9589
H68 H 0.5001 0.5745 0.9398
H69 H 0.5650 0.6212 0.9249
C72 C 0.5215(6) 0.4854(5) 0.8686(5)
H70 H 0.5363 0.4592 0.9017
H71 H 0.5315 0.4639 0.8315
H72 H 0.4695 0.4942 0.8715
loop_
_geom_bond_atom_site_label_1
_geom_bond_atom_site_label_2
_geom_bond_site_symmetry_1
_geom_bond_site_symmetry_2
Br1 C6 1_555 1_555
S1 O1 1_555 1_555
S2 O3 1_555 1_555
F1 C1 1_555 1_555
F2 C1 1_555 1_555
O2 S1 1_555 1_555
N1 S2 1_555 1_555
C1 S1 1_555 1_555
C2 N1 1_555 1_555
C3 C2 1_555 1_555
C4 C3 1_555 1_555
H1 C4 1_555 1_555
C5 C4 1_555 1_555
H2 C5 1_555 1_555
C6 C5 1_555 1_555
C7 C6 1_555 1_555
H3 C7 1_555 1_555
C8 C3 1_555 1_555
H4 C8 1_555 1_555
C9 S1 1_555 1_555
C10 C9 1_555 1_555
H5 C10 1_555 1_555
C11 C10 1_555 1_555
H6 C11 1_555 1_555
C12 C11 1_555 1_555
H7 C12 1_555 1_555
C13 C12 1_555 1_555
H8 C13 1_555 1_555
C14 C9 1_555 1_555
H9 C14 1_555 1_555
C15 S2 1_555 1_555
C16 C15 1_555 1_555
H10 C16 1_555 1_555
H11 C16 1_555 1_555
H12 C16 1_555 1_555
C17 C15 1_555 1_555
H13 C17 1_555 1_555
H14 C17 1_555 1_555
H15 C17 1_555 1_555
C18 C15 1_555 1_555
H16 C18 1_555 1_555
H17 C18 1_555 1_555
H18 C18 1_555 1_555
Br2 C24 1_555 1_555
S3 O4 1_555 1_555
S4 O6 1_555 1_555
F3 C19 1_555 1_555
F4 C19 1_555 1_555
O5 S3 1_555 1_555
N2 S4 1_555 1_555
C19 S3 1_555 1_555
C20 N2 1_555 1_555
C21 C20 1_555 1_555
C22 C21 1_555 1_555
H19 C22 1_555 1_555
C23 C22 1_555 1_555
H20 C23 1_555 1_555
C24 C23 1_555 1_555
C25 C24 1_555 1_555
H21 C25 1_555 1_555
C26 C21 1_555 1_555
H22 C26 1_555 1_555
C27 S3 1_555 1_555
C28 C27 1_555 1_555
H23 C28 1_555 1_555
C29 C28 1_555 1_555
H24 C29 1_555 1_555
C30 C29 1_555 1_555
H25 C30 1_555 1_555
C31 C30 1_555 1_555
H26 C31 1_555 1_555
C32 C27 1_555 1_555
H27 C32 1_555 1_555
C33 S4 1_555 1_555
C34 C33 1_555 1_555
H28 C34 1_555 1_555
H29 C34 1_555 1_555
H30 C34 1_555 1_555
C35 C33 1_555 1_555
H31 C35 1_555 1_555
H32 C35 1_555 1_555
H33 C35 1_555 1_555
C36 C33 1_555 1_555
H34 C36 1_555 1_555
H35 C36 1_555 1_555
H36 C36 1_555 1_555
Br3 C42 1_555 1_555
S5 O7 1_555 1_555
S6 O9 1_555 1_555
F5 C37 1_555 1_555
F6 C37 1_555 1_555
O8 S5 1_555 1_555
N3 S6 1_555 1_555
C37 S5 1_555 1_555
C38 N3 1_555 1_555
C39 C38 1_555 1_555
C40 C39 1_555 1_555
H37 C40 1_555 1_555
C41 C40 1_555 1_555
H38 C41 1_555 1_555
C42 C41 1_555 1_555
C43 C42 1_555 1_555
H39 C43 1_555 1_555
C44 C39 1_555 1_555
H40 C44 1_555 1_555
C45 S5 1_555 1_555
C46 C45 1_555 1_555
H41 C46 1_555 1_555
C47 C46 1_555 1_555
H42 C47 1_555 1_555
C48 C47 1_555 1_555
H43 C48 1_555 1_555
C49 C48 1_555 1_555
H44 C49 1_555 1_555
C50 C45 1_555 1_555
H45 C50 1_555 1_555
C51 S6 1_555 1_555
C52 C51 1_555 1_555
H46 C52 1_555 1_555
H47 C52 1_555 1_555
H48 C52 1_555 1_555
C53 C51 1_555 1_555
H49 C53 1_555 1_555
H50 C53 1_555 1_555
H51 C53 1_555 1_555
C54 C51 1_555 1_555
H52 C54 1_555 1_555
H53 C54 1_555 1_555
H54 C54 1_555 1_555
Br4 C60 1_555 1_555
S7 O10 1_555 1_555
S8 O12 1_555 1_555
F7 C55 1_555 1_555
F8 C55 1_555 1_555
O11 S7 1_555 1_555
N4 S8 1_555 1_555
C55 S7 1_555 1_555
C56 N4 1_555 1_555
C57 C56 1_555 1_555
C58 C57 1_555 1_555
H55 C58 1_555 1_555
C59 C58 1_555 1_555
H56 C59 1_555 1_555
C60 C59 1_555 1_555
C61 C60 1_555 1_555
H57 C61 1_555 1_555
C62 C57 1_555 1_555
H58 C62 1_555 1_555
C63 S7 1_555 1_555
C64 C63 1_555 1_555
H59 C64 1_555 1_555
C65 C64 1_555 1_555
H60 C65 1_555 1_555
C66 C65 1_555 1_555
H61 C66 1_555 1_555
C67 C66 1_555 1_555
H62 C67 1_555 1_555
C68 C63 1_555 1_555
H63 C68 1_555 1_555
C69 S8 1_555 1_555
C70 C69 1_555 1_555
H64 C70 1_555 1_555
H65 C70 1_555 1_555
H66 C70 1_555 1_555
C71 C69 1_555 1_555
H67 C71 1_555 1_555
H68 C71 1_555 1_555
H69 C71 1_555 1_555
C72 C69 1_555 1_555
H70 C72 1_555 1_555
H71 C72 1_555 1_555
H72 C72 1_555 1_555
C1 C2 1_555 1_555
C7 C8 1_555 1_555
C13 C14 1_555 1_555
C19 C20 1_555 1_555
C25 C26 1_555 1_555
C31 C32 1_555 1_555
C37 C38 1_555 1_555
C43 C44 1_555 1_555
C49 C50 1_555 1_555
C55 C56 1_555 1_555
C61 C62 1_555 1_555
C67 C68 1_555 1_555

#END
