
#######################################################################
#
#                 Cambridge Crystallographic Data Centre
#                                CCDC 
#
#######################################################################
#
# If this CIF has been generated from an entry in the Cambridge 
# Structural Database, then it will include bibliographic, chemical, 
# crystal, experimental, refinement or atomic coordinate data resulting 
# from the CCDC's data processing and validation procedures.
#
#######################################################################

data_WOHJIO
_chemical_name_common            
1-(4-bromophenyl)-2-(1,1-dioxido-3-phenyl-2,3-dihydro-1,2-benzothiazol-3-yl)ethanone
_chemical_formula_moiety         'C21 H16 Br1 N1 O3 S1'
_chemical_name_systematic        
(S)-1-(4-Bromophenyl)-2-(1,1-dioxido-3-phenyl-2,3-dihydrobenzo[d]isothiazol-3-yl)ethanon
_symmetry_cell_setting           monoclinic
_symmetry_space_group_name_H-M   'P 21/n'
_symmetry_Int_Tables_number      14
_space_group_name_Hall           '-P 2yn'
loop_
_symmetry_equiv_pos_site_id
_symmetry_equiv_pos_as_xyz
1 x,y,z
2 1/2-x,1/2+y,1/2-z
3 -x,-y,-z
4 1/2+x,1/2-y,1/2+z
_cell_length_a                   9.876(2)
_cell_length_b                   11.292(2)
_cell_length_c                   16.818(3)
_cell_angle_alpha                90
_cell_angle_beta                 92.78(3)
_cell_angle_gamma                90
_cell_volume                     1873.33
_exptl_crystal_colour            colorless
_exptl_crystal_description       column
_cell_formula_units_Z            4
loop_
_atom_site_label
_atom_site_type_symbol
_atom_site_fract_x
_atom_site_fract_y
_atom_site_fract_z
Br1 Br 0.28725(4) 0.22821(3) 0.09520(3)
S1 S 0.66955(6) -0.57872(6) 0.05531(4)
O1 O 0.6505(3) -0.7016(2) 0.04312(18)
O2 O 0.6539(2) -0.5063(2) -0.01537(11)
O3 O 0.38331(18) -0.35740(17) 0.18533(13)
N1 N 0.5797(2) -0.5300(2) 0.12679(12)
H1 H 0.4975 -0.5523 0.1326
C1 C 0.8229(2) -0.5409(2) 0.10456(15)
C2 C 0.8000(2) -0.4656(2) 0.16677(14)
C3 C 0.9102(3) -0.4160(3) 0.20871(16)
H2 H 0.8975 -0.3662 0.2518
C4 C 1.0395(3) -0.4418(3) 0.18536(18)
H3 H 1.1139 -0.4066 0.2119
C5 C 1.0598(3) -0.5186(3) 0.12346(19)
H4 H 1.1476 -0.5356 0.1094
C6 C 0.9518(3) -0.5707(3) 0.08207(17)
H5 H 0.9648 -0.6237 0.0408
C7 C 0.6499(2) -0.4444(2) 0.18119(14)
C8 C 0.6128(2) -0.3172(2) 0.15686(16)
H6 H 0.6682 -0.2632 0.1893
H7 H 0.6354 -0.3056 0.1019
C9 C 0.4645(2) -0.2846(2) 0.16480(15)
C10 C 0.4236(2) -0.1600(2) 0.14606(14)
C11 C 0.5115(3) -0.0788(2) 0.11393(16)
H8 H 0.5991 -0.1021 0.1032
C12 C 0.4707(3) 0.0361(3) 0.09770(17)
H9 H 0.5296 0.0899 0.0757
C13 C 0.3411(3) 0.0691(2) 0.11473(18)
C14 C 0.2514(3) -0.0089(3) 0.14657(19)
H10 H 0.1643 0.0153 0.1576
C15 C 0.2929(3) -0.1235(3) 0.16175(17)
H11 H 0.2328 -0.1772 0.1828
C16 C 0.6253(2) -0.4753(2) 0.26796(14)
C17 C 0.6475(3) -0.3928(3) 0.32824(17)
H12 H 0.6673 -0.3147 0.3154
C18 C 0.6406(3) -0.4255(3) 0.40753(17)
H13 H 0.6561 -0.3694 0.4474
C19 C 0.6114(3) -0.5395(3) 0.42727(17)
H14 H 0.6081 -0.5613 0.4805
C20 C 0.5868(3) -0.6216(3) 0.36851(17)
H15 H 0.5652 -0.6990 0.3819
C21 C 0.5939(3) -0.5901(2) 0.28905(15)
H16 H 0.5774 -0.6468 0.2496
loop_
_geom_bond_atom_site_label_1
_geom_bond_atom_site_label_2
_geom_bond_site_symmetry_1
_geom_bond_site_symmetry_2
Br1 C13 1_555 1_555
S1 O1 1_555 1_555
O2 S1 1_555 1_555
O3 C9 1_555 1_555
N1 S1 1_555 1_555
H1 N1 1_555 1_555
C1 S1 1_555 1_555
C2 C1 1_555 1_555
C3 C2 1_555 1_555
H2 C3 1_555 1_555
C4 C3 1_555 1_555
H3 C4 1_555 1_555
C5 C4 1_555 1_555
H4 C5 1_555 1_555
C6 C1 1_555 1_555
H5 C6 1_555 1_555
C7 N1 1_555 1_555
C8 C7 1_555 1_555
H6 C8 1_555 1_555
H7 C8 1_555 1_555
C9 C8 1_555 1_555
C10 C9 1_555 1_555
C11 C10 1_555 1_555
H8 C11 1_555 1_555
C12 C11 1_555 1_555
H9 C12 1_555 1_555
C13 C12 1_555 1_555
C14 C13 1_555 1_555
H10 C14 1_555 1_555
C15 C10 1_555 1_555
H11 C15 1_555 1_555
C16 C7 1_555 1_555
C17 C16 1_555 1_555
H12 C17 1_555 1_555
C18 C17 1_555 1_555
H13 C18 1_555 1_555
C19 C18 1_555 1_555
H14 C19 1_555 1_555
C20 C19 1_555 1_555
H15 C20 1_555 1_555
C21 C16 1_555 1_555
H16 C21 1_555 1_555
C2 C7 1_555 1_555
C5 C6 1_555 1_555
C14 C15 1_555 1_555
C20 C21 1_555 1_555

#END
