
#######################################################################
#
#                 Cambridge Crystallographic Data Centre
#                                CCDC 
#
#######################################################################
#
# If this CIF has been generated from an entry in the Cambridge 
# Structural Database, then it will include bibliographic, chemical, 
# crystal, experimental, refinement or atomic coordinate data resulting 
# from the CCDC's data processing and validation procedures.
#
#######################################################################

data_WOHJUA
_chemical_formula_moiety         'C24 H24 F2 N1 O3 S2'
_chemical_name_systematic        
'1-t-butyl-3-(difluoro(phenylsulfonyl)methyl)-3-phenyl-2,3-dihydro-1H-1,2-benzothiazole 1-oxide'
_symmetry_cell_setting           orthorhombic
_symmetry_space_group_name_H-M   'P 21 21 21'
_symmetry_Int_Tables_number      19
_space_group_name_Hall           'P 2ac 2ab'
loop_
_symmetry_equiv_pos_site_id
_symmetry_equiv_pos_as_xyz
1 x,y,z
2 1/2-x,-y,1/2+z
3 -x,1/2+y,1/2-z
4 1/2+x,1/2-y,-z
_cell_length_a                   10.0872(9)
_cell_length_b                   14.0488(12)
_cell_length_c                   16.2483(14)
_cell_angle_alpha                90
_cell_angle_beta                 90
_cell_angle_gamma                90
_cell_volume                     2302.6
_exptl_crystal_colour            colorless
_exptl_crystal_description       prismatic
_cell_formula_units_Z            4
loop_
_atom_site_label
_atom_site_type_symbol
_atom_site_fract_x
_atom_site_fract_y
_atom_site_fract_z
S1 S 0.00710(7) 0.92662(4) 0.69222(4)
S2 S -0.06954(5) 0.90308(3) 0.96622(3)
F1 F -0.17406(14) 1.00687(10) 0.77517(8)
F2 F -0.02048(17) 1.10281(9) 0.73637(8)
O1 O -0.0664(2) 0.84225(13) 0.70988(12)
O2 O -0.0141(2) 0.97529(15) 0.61655(10)
O3 O 0.00493(16) 0.87283(10) 1.03750(9)
N1 N 0.00058(18) 0.91184(11) 0.88281(10)
C1 C -0.0405(2) 1.01716(15) 0.77131(14)
C2 C 0.0207(2) 1.01095(13) 0.85785(12)
C3 C 0.1668(2) 1.04053(14) 0.86221(13)
C4 C 0.2188(3) 1.11956(19) 0.82350(18)
H1 H 0.1645 1.1574 0.7908
C5 C 0.3512(4) 1.1430(2) 0.8330(2)
H2 H 0.3850 1.1954 0.8051
C6 C 0.4333(3) 1.0908(2) 0.8823(2)
H3 H 0.5224 1.1068 0.8878
C7 C 0.3823(3) 1.0158(2) 0.9228(2)
H4 H 0.4356 0.9810 0.9585
C8 C 0.2517(3) 0.9901(2) 0.91193(17)
H5 H 0.2197 0.9366 0.9392
C9 C 0.1764(2) 0.90382(17) 0.70249(13)
C10 C 0.2632(3) 0.9617(2) 0.66155(19)
H6 H 0.2320 1.0124 0.6302
C11 C 0.3976(4) 0.9442(2) 0.6671(2)
H7 H 0.4575 0.9834 0.6398
C12 C 0.4422(3) 0.8695(2) 0.7128(2)
H8 H 0.5328 0.8581 0.7169
C13 C 0.3555(4) 0.8116(2) 0.75230(19)
H9 H 0.3871 0.7600 0.7823
C14 C 0.2207(3) 0.82848(18) 0.74853(15)
H10 H 0.1614 0.7896 0.7766
C15 C -0.0623(2) 1.07303(14) 0.91540(13)
C16 C -0.0795(3) 1.17089(15) 0.91434(16)
H11 H -0.0371 1.2079 0.8748
C17 C -0.1592(3) 1.21233(17) 0.97180(18)
H12 H -0.1718 1.2779 0.9703
C18 C -0.2218(3) 1.15959(18) 1.03229(18)
H13 H -0.2775 1.1893 1.0699
C19 C -0.2012(3) 1.06294(16) 1.03648(16)
H14 H -0.2383 1.0267 1.0785
C20 C -0.1242(2) 1.02166(14) 0.97690(14)
C21 C -0.2085(2) 0.82004(15) 0.95759(16)
C22 C -0.2743(3) 0.8126(2) 1.04064(18)
H15 H -0.3193 0.8712 1.0528
H16 H -0.2084 0.8006 1.0820
H17 H -0.3372 0.7613 1.0400
C23 C -0.1466(3) 0.72534(17) 0.9330(2)
H18 H -0.2147 0.6779 0.9283
H19 H -0.0837 0.7062 0.9742
H20 H -0.1023 0.7322 0.8811
C24 C -0.3027(3) 0.8541(2) 0.89204(19)
H21 H -0.3786 0.8128 0.8902
H22 H -0.2589 0.8533 0.8396
H23 H -0.3309 0.9177 0.9045
loop_
_geom_bond_atom_site_label_1
_geom_bond_atom_site_label_2
_geom_bond_site_symmetry_1
_geom_bond_site_symmetry_2
S1 O1 1_555 1_555
S2 O3 1_555 1_555
F1 C1 1_555 1_555
F2 C1 1_555 1_555
O2 S1 1_555 1_555
N1 S2 1_555 1_555
C1 S1 1_555 1_555
C2 N1 1_555 1_555
C3 C2 1_555 1_555
C4 C3 1_555 1_555
H1 C4 1_555 1_555
C5 C4 1_555 1_555
H2 C5 1_555 1_555
C6 C5 1_555 1_555
H3 C6 1_555 1_555
C7 C6 1_555 1_555
H4 C7 1_555 1_555
C8 C3 1_555 1_555
H5 C8 1_555 1_555
C9 S1 1_555 1_555
C10 C9 1_555 1_555
H6 C10 1_555 1_555
C11 C10 1_555 1_555
H7 C11 1_555 1_555
C12 C11 1_555 1_555
H8 C12 1_555 1_555
C13 C12 1_555 1_555
H9 C13 1_555 1_555
C14 C9 1_555 1_555
H10 C14 1_555 1_555
C15 C2 1_555 1_555
C16 C15 1_555 1_555
H11 C16 1_555 1_555
C17 C16 1_555 1_555
H12 C17 1_555 1_555
C18 C17 1_555 1_555
H13 C18 1_555 1_555
C19 C18 1_555 1_555
H14 C19 1_555 1_555
C20 S2 1_555 1_555
C21 S2 1_555 1_555
C22 C21 1_555 1_555
H15 C22 1_555 1_555
H16 C22 1_555 1_555
H17 C22 1_555 1_555
C23 C21 1_555 1_555
H18 C23 1_555 1_555
H19 C23 1_555 1_555
H20 C23 1_555 1_555
C24 C21 1_555 1_555
H21 C24 1_555 1_555
H22 C24 1_555 1_555
H23 C24 1_555 1_555
C1 C2 1_555 1_555
C7 C8 1_555 1_555
C13 C14 1_555 1_555
C15 C20 1_555 1_555
C19 C20 1_555 1_555

#END
