
#######################################################################
#
#                 Cambridge Crystallographic Data Centre
#                                CCDC 
#
#######################################################################
#
# If this CIF has been generated from an entry in the Cambridge 
# Structural Database, then it will include bibliographic, chemical, 
# crystal, experimental, refinement or atomic coordinate data resulting 
# from the CCDC's data processing and validation procedures.
#
#######################################################################

data_WOHRAN
_chemical_formula_moiety         'C36 H51 N1 O4'
_chemical_name_systematic        
"(-)-8-Phenylmenthyl (2R,4Z)-2-(5'-t-butoxycarbonyl-2'-methylphenyl)-2-dimethylaminohex-4-enoate"
_symmetry_cell_setting           orthorhombic
_symmetry_space_group_name_H-M   'P 21 21 21'
_symmetry_Int_Tables_number      19
_space_group_name_Hall           'P 2ac 2ab'
loop_
_symmetry_equiv_pos_site_id
_symmetry_equiv_pos_as_xyz
1 x,y,z
2 1/2-x,-y,1/2+z
3 1/2+x,1/2-y,-z
4 -x,1/2+y,1/2-z
_cell_length_a                   9.2925(1)
_cell_length_b                   12.9908(2)
_cell_length_c                   28.1110(4)
_cell_angle_alpha                90
_cell_angle_beta                 90
_cell_angle_gamma                90
_cell_volume                     3393.48
_exptl_crystal_colour            colorless
_exptl_crystal_description       prism
_chemical_melting_point          '147-149 deg.C'
_cell_formula_units_Z            4
loop_
_atom_site_label
_atom_site_type_symbol
_atom_site_fract_x
_atom_site_fract_y
_atom_site_fract_z
O1 O 0.2200(2) 0.8314(1) 0.13420(6)
O2 O 0.3871(2) 0.7679(2) 0.08489(8)
O3 O 0.1667(2) 0.3367(1) -0.05872(6)
O4 O 0.1714(2) 0.3124(1) 0.02052(7)
N1 N 0.2116(2) 0.5910(1) 0.12728(7)
C1 C 0.1665(3) 0.6726(1) 0.09368(8)
C2 C 0.1745(4) 0.6082(2) 0.17721(9)
C3 C 0.3625(3) 0.5591(2) 0.1237(1)
C4 C 0.0084(3) 0.7019(2) 0.10270(9)
C5 C -0.0929(3) 0.6122(2) 0.10278(10)
C6 C -0.2011(3) 0.5976(2) 0.1318(1)
C7 C -0.2457(4) 0.6684(3) 0.1700(1)
C8 C 0.2688(3) 0.7630(2) 0.10197(9)
C9 C 0.1782(3) 0.6323(2) 0.04229(8)
C10 C 0.1767(3) 0.6966(2) 0.00221(9)
C11 C 0.1786(3) 0.6520(2) -0.04251(9)
C12 C 0.1777(3) 0.5471(2) -0.04938(9)
C13 C 0.1744(3) 0.4824(2) -0.01030(8)
C14 C 0.1761(3) 0.5257(2) 0.03505(8)
C15 C 0.1691(4) 0.8127(2) 0.0042(1)
C16 C 0.1706(3) 0.3683(2) -0.01370(9)
C17 C 0.1668(3) 0.2264(2) -0.07066(10)
C18 C 0.3014(4) 0.1760(2) -0.0521(1)
C19 C 0.0341(4) 0.1761(3) -0.0515(2)
C20 C 0.1675(5) 0.2285(3) -0.1242(1)
C21 C 0.3236(3) 0.9082(2) 0.15152(10)
C22 C 0.2442(3) 1.0032(2) 0.17055(9)
C23 C 0.3626(4) 1.0752(2) 0.1887(1)
C24 C 0.4584(4) 1.0283(3) 0.2263(2)
C25 C 0.5298(4) 0.9273(3) 0.2097(2)
C26 C 0.4134(4) 0.8573(2) 0.1901(1)
C27 C 0.6113(6) 0.8755(4) 0.2502(2)
C28 C 0.1370(3) 1.0576(2) 0.1362(1)
C29 C 0.2065(6) 1.0742(2) 0.0875(1)
C30 C -0.0011(4) 0.9943(2) 0.1301(2)
C31 C 0.0903(3) 1.1610(2) 0.15868(10)
C32 C 0.1155(3) 1.2552(2) 0.13726(9)
C33 C 0.0707(4) 1.3461(2) 0.1576(1)
C34 C -0.0013(4) 1.3465(2) 0.1995(1)
C35 C -0.0273(4) 1.2545(2) 0.2221(1)
C36 C 0.0181(4) 1.1628(2) 0.2017(1)
H1 H 0.2354 0.6624 0.1897
H2 H 0.0778 0.6294 0.1799
H3 H 0.1907 0.5480 0.1953
H4 H 0.3777 0.4976 0.1425
H5 H 0.3884 0.5460 0.0922
H6 H 0.4235 0.6118 0.1367
H7 H 0.0019 0.7344 0.1336
H8 H -0.0220 0.7507 0.0795
H9 H -0.0769 0.5619 0.0781
H10 H -0.2558 0.5329 0.1289
H11 H -0.1880 0.7265 0.1701
H12 H -0.3453 0.6878 0.1654
H13 H -0.2405 0.6343 0.2006
H14 H 0.1781 0.6958 -0.0701
H15 H 0.1804 0.5183 -0.0813
H16 H 0.1732 0.4808 0.0626
H17 H 0.1682 0.8380 0.0361
H18 H 0.2488 0.8437 -0.0122
H19 H 0.0821 0.8373 -0.0112
H20 H 0.3030 0.1042 -0.0585
H21 H 0.3845 0.2073 -0.0657
H22 H 0.3085 0.1846 -0.0177
H23 H 0.0330 0.1837 -0.0171
H24 H -0.0477 0.2056 -0.0644
H25 H 0.0375 0.1038 -0.0581
H26 H 0.2543 0.2656 -0.1357
H27 H 0.1707 0.1624 -0.1384
H28 H 0.0874 0.2658 -0.1371
H29 H 0.3862 0.9299 0.1256
H30 H 0.1926 0.9806 0.1990
H31 H 0.4212 1.0921 0.1614
H32 H 0.3181 1.1370 0.1995
H33 H 0.5271 1.0759 0.2372
H34 H 0.3966 1.0112 0.2542
H35 H 0.5949 0.9431 0.1833
H36 H 0.3504 0.8408 0.2175
H37 H 0.4545 0.7944 0.1800
H38 H 0.5429 0.8556 0.2753
H39 H 0.6505 0.8079 0.2394
H40 H 0.6840 0.9133 0.2628
H41 H 0.2351 1.0137 0.0723
H42 H 0.1457 1.1138 0.0664
H43 H 0.2949 1.1175 0.0911
H44 H -0.0432 0.9835 0.1596
H45 H -0.0638 1.0296 0.1091
H46 H 0.0247 0.9294 0.1158
H47 H 0.1670 1.2560 0.1079
H48 H 0.0873 1.4097 0.1418
H49 H -0.0345 1.4101 0.2133
H50 H -0.0774 1.2503 0.2517
H51 H 0.0024 1.0997 0.2183
loop_
_geom_bond_atom_site_label_1
_geom_bond_atom_site_label_2
_geom_bond_site_symmetry_1
_geom_bond_site_symmetry_2
O1 C8 1_555 1_555
O2 C8 1_555 1_555
O3 C16 1_555 1_555
O4 C16 1_555 1_555
N1 C1 1_555 1_555
C1 C4 1_555 1_555
C2 N1 1_555 1_555
C3 N1 1_555 1_555
C4 C5 1_555 1_555
C5 C6 1_555 1_555
C6 C7 1_555 1_555
C7 H11 1_555 1_555
C8 C1 1_555 1_555
C9 C1 1_555 1_555
C10 C9 1_555 1_555
C11 C10 1_555 1_555
C12 C11 1_555 1_555
C13 C12 1_555 1_555
C14 C9 1_555 1_555
C15 C10 1_555 1_555
C16 C13 1_555 1_555
C17 O3 1_555 1_555
C18 C17 1_555 1_555
C19 C17 1_555 1_555
C20 C17 1_555 1_555
C21 O1 1_555 1_555
C22 C21 1_555 1_555
C23 C22 1_555 1_555
C24 C23 1_555 1_555
C25 C24 1_555 1_555
C26 C21 1_555 1_555
C27 C25 1_555 1_555
C28 C22 1_555 1_555
C29 C28 1_555 1_555
C30 C28 1_555 1_555
C31 C28 1_555 1_555
C32 C31 1_555 1_555
C33 C32 1_555 1_555
C34 C33 1_555 1_555
C35 C34 1_555 1_555
C36 C31 1_555 1_555
H1 C2 1_555 1_555
H2 C2 1_555 1_555
H3 C2 1_555 1_555
H4 C3 1_555 1_555
H5 C3 1_555 1_555
H6 C3 1_555 1_555
H7 C4 1_555 1_555
H8 C4 1_555 1_555
H9 C5 1_555 1_555
H10 C6 1_555 1_555
H12 C7 1_555 1_555
H13 C7 1_555 1_555
H14 C11 1_555 1_555
H15 C12 1_555 1_555
H16 C14 1_555 1_555
H17 C15 1_555 1_555
H18 C15 1_555 1_555
H19 C15 1_555 1_555
H20 C18 1_555 1_555
H21 C18 1_555 1_555
H22 C18 1_555 1_555
H23 C19 1_555 1_555
H24 C19 1_555 1_555
H25 C19 1_555 1_555
H26 C20 1_555 1_555
H27 C20 1_555 1_555
H28 C20 1_555 1_555
H29 C21 1_555 1_555
H30 C22 1_555 1_555
H31 C23 1_555 1_555
H32 C23 1_555 1_555
H33 C24 1_555 1_555
H34 C24 1_555 1_555
H35 C25 1_555 1_555
H36 C26 1_555 1_555
H37 C26 1_555 1_555
H38 C27 1_555 1_555
H39 C27 1_555 1_555
H40 C27 1_555 1_555
H41 C29 1_555 1_555
H42 C29 1_555 1_555
H43 C29 1_555 1_555
H44 C30 1_555 1_555
H45 C30 1_555 1_555
H46 C30 1_555 1_555
H47 C32 1_555 1_555
H48 C33 1_555 1_555
H49 C34 1_555 1_555
H50 C35 1_555 1_555
H51 C36 1_555 1_555
C13 C14 1_555 1_555
C25 C26 1_555 1_555
C35 C36 1_555 1_555

#END
