
#######################################################################
#
#                 Cambridge Crystallographic Data Centre
#                                CCDC 
#
#######################################################################
#
# If this CIF has been generated from an entry in the Cambridge 
# Structural Database, then it will include bibliographic, chemical, 
# crystal, experimental, refinement or atomic coordinate data resulting 
# from the CCDC's data processing and validation procedures.
#
#######################################################################

data_WOHTEU
_chemical_formula_moiety         'C17 H16 N2 O2'
_chemical_name_systematic        
2-(4-aminophenyl)-3-(4-(2-hydroxyethoxy)phenyl)acrylonitrile
_symmetry_cell_setting           triclinic
_symmetry_space_group_name_H-M   'P -1'
_symmetry_Int_Tables_number      2
_space_group_name_Hall           '-P 1'
loop_
_symmetry_equiv_pos_site_id
_symmetry_equiv_pos_as_xyz
1 x,y,z
2 -x,-y,-z
_cell_length_a                   9.4855(14)
_cell_length_b                   12.7224(18)
_cell_length_c                   13.0129(19)
_cell_angle_alpha                84.374(2)
_cell_angle_beta                 73.011(2)
_cell_angle_gamma                69.034(2)
_cell_volume                     1402.38
_cell_formula_units_Z            4
loop_
_atom_site_label
_atom_site_type_symbol
_atom_site_fract_x
_atom_site_fract_y
_atom_site_fract_z
C1 C 0.7431(3) 0.11415(19) 0.28853(18)
H1 H 0.6984 0.1078 0.2357
C2 C 0.2538(3) 0.4477(2) 0.85079(18)
H2 H 0.2419 0.4213 0.9209
C3 C 0.9674(3) 0.07192(19) 0.35398(18)
H3 H 1.0748 0.0379 0.3454
C4 C 0.6495(3) 0.17808(19) 0.37896(18)
H4 H 0.5428 0.2145 0.3860
C5 C 0.8734(3) 0.13446(19) 0.44481(18)
H5 H 0.9185 0.1406 0.4975
C6 C 0.1886(3) 0.5972(2) 0.72740(18)
H6 H 0.1343 0.6714 0.7132
C7 C 0.2877(3) 0.5241(2) 0.64449(18)
H7 H 0.2973 0.5501 0.5743
C8 C 0.3528(3) 0.3768(2) 0.76743(18)
H8 H 0.4072 0.3026 0.7819
C9 C 0.6142(3) 0.25424(19) 0.55961(18)
C10 C 0.9031(3) 0.05897(19) 0.27451(18)
C11 C 0.7124(3) 0.18901(18) 0.46033(17)
C12 C 0.1704(3) 0.5592(2) 0.83190(18)
C13 C 0.4809(3) 0.34294(19) 0.56794(18)
H9 H 0.4519 0.3630 0.5044
C14 C 0.3743(3) 0.41290(19) 0.66130(18)
C15 C 0.6740(3) 0.2166(2) 0.65172(19)
C16 C -0.0972(5) 0.7912(3) 1.0133(3)
H10 H -0.2013 0.7861 1.0319
H11 H -0.0466 0.7497 1.0671
C17 C -0.0074(5) 0.7347(3) 0.9084(2)
H12 H -0.0790 0.7412 0.8661
H13 H 0.0656 0.7720 0.8698
O1 O 0.0746(2) 0.62268(14) 0.92067(13)
O2 O -0.1129(6) 0.8972(3) 1.0197(2)
H14 H -0.1116 0.9265 0.9606
N1 N 0.9975(2) -0.00620(17) 0.18294(16)
H15 H 0.9569 -0.0127 0.1339
H16 H 1.0964 -0.0398 0.1755
N2 N 0.7277(3) 0.18232(19) 0.72136(18)
C18 C 0.2709(3) 0.5277(2) 0.33460(19)
H17 H 0.3085 0.5333 0.3916
C19 C -0.2182(3) 0.7565(2) 0.64906(19)
H18 H -0.1561 0.6816 0.6534
C20 C -0.3124(3) 0.91776(19) 0.54607(19)
H19 H -0.3142 0.9527 0.4800
C21 C 0.1618(3) 0.5076(2) 0.16758(19)
H20 H 0.1244 0.5007 0.1109
C22 C 0.3748(3) 0.4645(2) 0.24584(19)
H21 H 0.4804 0.4293 0.2428
C23 C -0.4034(3) 0.9780(2) 0.6386(2)
H22 H -0.4655 1.0529 0.6339
C24 C -0.3096(3) 0.8169(2) 0.7425(2)
H23 H -0.3077 0.7821 0.8086
C25 C 0.0604(3) 0.5707(2) 0.2560(2)
H24 H -0.0451 0.6057 0.2586
C26 C -0.2175(3) 0.80550(19) 0.54876(18)
C27 C -0.1212(3) 0.74245(19) 0.44771(18)
C28 C 0.3196(3) 0.4540(2) 0.16158(18)
C29 C 0.1124(3) 0.58355(19) 0.34250(18)
C30 C 0.0108(3) 0.6519(2) 0.43746(19)
H25 H 0.0417 0.6297 0.5001
C31 C -0.4047(3) 0.9292(2) 0.73918(19)
C32 C -0.1750(3) 0.7884(2) 0.3543(2)
C33 C 0.5677(3) 0.3270(3) 0.0626(2)
H26 H 0.5753 0.2788 0.1247
H27 H 0.6269 0.3761 0.0596
C34 C 0.6321(4) 0.2575(3) -0.0373(2)
H28 H 0.6139 0.3055 -0.0983
H29 H 0.7445 0.2198 -0.0500
O3 O 0.4081(2) 0.39194(15) 0.07073(13)
O4 O 0.5571(3) 0.1762(2) -0.02621(17)
H30 H 0.5921 0.1382 -0.0813
N3 N -0.4973(3) 0.9903(2) 0.83252(18)
H31 H -0.5553 1.0595 0.8288
H32 H -0.4969 0.9590 0.8941
N4 N -0.2233(3) 0.82910(19) 0.28395(18)
loop_
_geom_bond_atom_site_label_1
_geom_bond_atom_site_label_2
_geom_bond_site_symmetry_1
_geom_bond_site_symmetry_2
C1 H1 1_555 1_555
C2 H2 1_555 1_555
C3 H3 1_555 1_555
C4 C1 1_555 1_555
H4 C4 1_555 1_555
C5 C3 1_555 1_555
H5 C5 1_555 1_555
C6 H6 1_555 1_555
C7 C6 1_555 1_555
H7 C7 1_555 1_555
C8 C2 1_555 1_555
H8 C8 1_555 1_555
C9 C11 1_555 1_555
C10 C1 1_555 1_555
C11 C4 1_555 1_555
C12 C2 1_555 1_555
C13 C9 1_555 1_555
H9 C13 1_555 1_555
C14 C7 1_555 1_555
C15 C9 1_555 1_555
C16 H10 1_555 1_555
H11 C16 1_555 1_555
C17 C16 1_555 1_555
H12 C17 1_555 1_555
H13 C17 1_555 1_555
O1 C12 1_555 1_555
O2 C16 1_555 1_555
H14 O2 1_555 1_555
N1 C10 1_555 1_555
H15 N1 1_555 1_555
H16 N1 1_555 1_555
N2 C15 1_555 1_555
C18 H17 1_555 1_555
C19 H18 1_555 1_555
C20 H19 1_555 1_555
C21 H20 1_555 1_555
C22 C18 1_555 1_555
H21 C22 1_555 1_555
C23 C20 1_555 1_555
H22 C23 1_555 1_555
C24 C19 1_555 1_555
H23 C24 1_555 1_555
C25 C21 1_555 1_555
H24 C25 1_555 1_555
C26 C19 1_555 1_555
C27 C26 1_555 1_555
C28 C21 1_555 1_555
C29 C18 1_555 1_555
C30 C27 1_555 1_555
H25 C30 1_555 1_555
C31 C23 1_555 1_555
C32 C27 1_555 1_555
C33 H26 1_555 1_555
H27 C33 1_555 1_555
C34 C33 1_555 1_555
H28 C34 1_555 1_555
H29 C34 1_555 1_555
O3 C28 1_555 1_555
O4 C34 1_555 1_555
H30 O4 1_555 1_555
N3 C31 1_555 1_555
H31 N3 1_555 1_555
H32 N3 1_555 1_555
N4 C32 1_555 1_555
C3 C10 1_555 1_555
C5 C11 1_555 1_555
C6 C12 1_555 1_555
C8 C14 1_555 1_555
C13 C14 1_555 1_555
C17 O1 1_555 1_555
C20 C26 1_555 1_555
C22 C28 1_555 1_555
C24 C31 1_555 1_555
C25 C29 1_555 1_555
C29 C30 1_555 1_555
C33 O3 1_555 1_555

#END
