
#######################################################################
#
#                 Cambridge Crystallographic Data Centre
#                                CCDC 
#
#######################################################################
#
# If this CIF has been generated from an entry in the Cambridge 
# Structural Database, then it will include bibliographic, chemical, 
# crystal, experimental, refinement or atomic coordinate data resulting 
# from the CCDC's data processing and validation procedures.
#
#######################################################################

data_WOHTOE
_chemical_formula_moiety         'C23 H29 N2 O1 1+,C6 H2 N3 O7 1-'
_chemical_name_systematic        
'4-(2-(4-butoxyphenyl)-1-cyanovinyl)-N-butylanilinium 2,4,6-trinitrophenolate'
_symmetry_cell_setting           triclinic
_symmetry_space_group_name_H-M   'P -1'
_symmetry_Int_Tables_number      2
_space_group_name_Hall           '-P 1'
loop_
_symmetry_equiv_pos_site_id
_symmetry_equiv_pos_as_xyz
1 x,y,z
2 -x,-y,-z
_cell_length_a                   8.136(5)
_cell_length_b                   12.749(5)
_cell_length_c                   14.805(5)
_cell_angle_alpha                72.781(5)
_cell_angle_beta                 77.036(5)
_cell_angle_gamma                85.455(5)
_cell_volume                     1429.31
_exptl_crystal_colour            white
_exptl_crystal_description       Needle
_cell_formula_units_Z            2
loop_
_atom_site_label
_atom_site_type_symbol
_atom_site_fract_x
_atom_site_fract_y
_atom_site_fract_z
N1 N 1.2121(2) 0.10183(14) 0.53714(12)
H1 H 1.1820 0.1031 0.4819
H2 H 1.2406 0.0321 0.5656
C1 C 0.7966(2) 0.20165(16) 0.72547(14)
O1 O 0.2271(2) 0.42224(17) 1.15365(13)
C2 C 0.6508(3) 0.23725(17) 0.79084(15)
C3 C 1.0666(3) 0.13577(16) 0.60140(14)
C4 C 0.7877(3) 0.20682(18) 0.63113(15)
H3 H 0.6890 0.2325 0.6096
C5 C 1.0790(3) 0.12916(17) 0.69448(15)
H4 H 1.1774 0.1024 0.7158
C6 C 0.9457(3) 0.16221(17) 0.75513(14)
H5 H 0.9552 0.1582 0.8175
C7 C 0.9212(3) 0.17486(19) 0.56930(15)
H6 H 0.9133 0.1796 0.5065
C8 C 0.5365(3) 0.29694(19) 0.94394(15)
C9 C 0.3217(3) 0.3827(2) 1.08268(17)
C10 C 0.6589(3) 0.25464(19) 0.87507(15)
H7 H 0.7627 0.2360 0.8925
C11 C 0.3823(3) 0.3462(2) 0.92884(18)
H8 H 0.3495 0.3508 0.8715
C12 C 1.3634(3) 0.17275(19) 0.51277(16)
H9 H 1.4603 0.1389 0.4801
H10 H 1.3886 0.1796 0.5718
C13 C 0.5769(3) 0.2926(2) 1.03117(17)
H11 H 0.6792 0.2604 1.0438
C14 C 0.4954(3) 0.2536(2) 0.75719(17)
C15 C 0.4730(3) 0.3335(2) 1.09937(18)
H12 H 0.5046 0.3282 1.1572
C16 C 0.2775(3) 0.3883(2) 0.99678(19)
H13 H 0.1753 0.4209 0.9846
N2 N 0.3761(3) 0.2652(2) 0.72673(18)
C17 C 0.0789(4) 0.4848(3) 1.1358(2)
H14 H -0.0060 0.4383 1.1315
H15 H 0.1045 0.5430 1.0755
C18 C 1.3305(3) 0.2858(2) 0.4480(2)
H16 H 1.3095 0.2782 0.3882
H17 H 1.2297 0.3172 0.4797
C19 C 1.4712(4) 0.3616(3) 0.4247(3)
H18 H 1.5740 0.3281 0.3973
H19 H 1.4865 0.3741 0.4838
C20 C 0.0144(4) 0.5335(3) 1.2207(2)
H20 H 0.1059 0.5710 1.2297
H21 H -0.0738 0.5873 1.2052
C21 C -0.0519(4) 0.4496(3) 1.3109(3)
H22 H 0.0332 0.3928 1.3245
H23 H -0.1495 0.4159 1.3041
C22 C -0.1021(5) 0.5011(4) 1.3949(3)
H24 H -0.0044 0.5320 1.4030
H25 H -0.1479 0.4456 1.4533
H26 H -0.1853 0.5578 1.3809
C23 C 1.4414(5) 0.4698(3) 0.3545(3)
H27 H 1.4276 0.4579 0.2956
H28 H 1.5363 0.5164 0.3410
H29 H 1.3414 0.5042 0.3820
O2 O 0.9008(2) 0.87638(15) 0.62608(11)
N3 N 0.5777(2) 0.95768(15) 0.71476(14)
C24 C 0.8749(3) 0.88694(17) 0.70863(14)
C25 C 0.7205(3) 0.92503(17) 0.76065(14)
N4 N 1.1657(2) 0.81818(17) 0.72432(15)
O3 O 0.5965(2) 0.97438(16) 0.62757(13)
O4 O 1.2298(2) 0.86200(15) 0.63886(13)
C26 C 0.6991(3) 0.93300(18) 0.85309(15)
H30 H 0.5974 0.9587 0.8829
C27 C 1.0020(3) 0.85730(18) 0.76646(15)
C28 C 0.8293(3) 0.9026(2) 0.90128(15)
O5 O 1.2340(2) 0.74284(17) 0.77653(15)
N5 N 0.8095(3) 0.9142(2) 0.99791(15)
C29 C 0.9797(3) 0.86329(19) 0.85902(16)
H31 H 1.0656 0.8410 0.8931
O6 O 0.4405(3) 0.9679(2) 0.76484(16)
O7 O 0.9209(3) 0.8757(2) 1.04201(14)
O8 O 0.6857(3) 0.9602(3) 1.03037(16)
loop_
_geom_bond_atom_site_label_1
_geom_bond_atom_site_label_2
_geom_bond_site_symmetry_1
_geom_bond_site_symmetry_2
N1 H1 1_555 1_555
H2 N1 1_555 1_555
C1 C2 1_555 1_555
O1 C9 1_555 1_555
C2 C10 1_555 1_555
C3 N1 1_555 1_555
C4 C1 1_555 1_555
H3 C4 1_555 1_555
C5 C3 1_555 1_555
H4 C5 1_555 1_555
C6 C1 1_555 1_555
H5 C6 1_555 1_555
C7 C3 1_555 1_555
H6 C7 1_555 1_555
C8 C10 1_555 1_555
C9 C15 1_555 1_555
C10 H7 1_555 1_555
C11 C8 1_555 1_555
H8 C11 1_555 1_555
C12 N1 1_555 1_555
H9 C12 1_555 1_555
H10 C12 1_555 1_555
C13 C8 1_555 1_555
H11 C13 1_555 1_555
C14 C2 1_555 1_555
C15 C13 1_555 1_555
H12 C15 1_555 1_555
C16 C9 1_555 1_555
H13 C16 1_555 1_555
N2 C14 1_555 1_555
C17 O1 1_555 1_555
H14 C17 1_555 1_555
H15 C17 1_555 1_555
C18 C12 1_555 1_555
H16 C18 1_555 1_555
H17 C18 1_555 1_555
C19 C18 1_555 1_555
H18 C19 1_555 1_555
H19 C19 1_555 1_555
C20 C17 1_555 1_555
H20 C20 1_555 1_555
H21 C20 1_555 1_555
C21 C20 1_555 1_555
H22 C21 1_555 1_555
H23 C21 1_555 1_555
C22 C21 1_555 1_555
H24 C22 1_555 1_555
H25 C22 1_555 1_555
H26 C22 1_555 1_555
C23 C19 1_555 1_555
H27 C23 1_555 1_555
H28 C23 1_555 1_555
H29 C23 1_555 1_555
O2 C24 1_555 1_555
N3 C25 1_555 1_555
C24 C25 1_555 1_555
C25 C26 1_555 1_555
N4 O4 1_555 1_555
O3 N3 1_555 1_555
C26 H30 1_555 1_555
C27 C24 1_555 1_555
C28 C26 1_555 1_555
O5 N4 1_555 1_555
N5 C28 1_555 1_555
C29 C27 1_555 1_555
H31 C29 1_555 1_555
O6 N3 1_555 1_555
O7 N5 1_555 1_555
O8 N5 1_555 1_555
C4 C7 1_555 1_555
C5 C6 1_555 1_555
C11 C16 1_555 1_555
N4 C27 1_555 1_555
C28 C29 1_555 1_555

#END
