
#######################################################################
#
#                 Cambridge Crystallographic Data Centre
#                                CCDC 
#
#######################################################################
#
# If this CIF has been generated from an entry in the Cambridge 
# Structural Database, then it will include bibliographic, chemical, 
# crystal, experimental, refinement or atomic coordinate data resulting 
# from the CCDC's data processing and validation procedures.
#
#######################################################################

data_WOHTAQ
_chemical_formula_moiety         'C23 H28 N2 O1'
_chemical_name_systematic        
3-(4-butoxyphenyl)-2-(4-(butylamino)phenyl)acrylonitrile
_symmetry_cell_setting           monoclinic
_symmetry_space_group_name_H-M   'P 21/n'
_symmetry_Int_Tables_number      14
_space_group_name_Hall           '-P 2yn'
loop_
_symmetry_equiv_pos_site_id
_symmetry_equiv_pos_as_xyz
1 x,y,z
2 1/2-x,1/2+y,1/2-z
3 -x,-y,-z
4 1/2+x,1/2-y,1/2+z
_cell_length_a                   11.076(5)
_cell_length_b                   16.401(5)
_cell_length_c                   11.076(5)
_cell_angle_alpha                90
_cell_angle_beta                 98.022(5)
_cell_angle_gamma                90
_cell_volume                     1992.35
_cell_formula_units_Z            4
loop_
_atom_site_label
_atom_site_type_symbol
_atom_site_fract_x
_atom_site_fract_y
_atom_site_fract_z
O1 O 0.4512(4) 0.2169(2) -0.0713(4)
C1 C 0.5684(6) 0.0943(3) 0.1948(5)
H1 H 0.5915 0.0408 0.2141
C2 C 0.6470(5) 0.1612(3) 0.5146(5)
C3 C 0.5391(6) 0.2312(3) 0.2515(5)
H2 H 0.5434 0.2719 0.3104
C4 C 0.5295(6) 0.1140(3) 0.0746(5)
H3 H 0.5284 0.0741 0.0147
C5 C 0.4923(6) 0.1917(3) 0.0427(5)
C6 C 0.4263(6) 0.1585(3) -0.1632(5)
H4 H 0.3683 0.1192 -0.1402
H5 H 0.5007 0.1297 -0.1734
C7 C 0.6829(5) 0.1210(3) 0.6311(5)
C8 C 0.6512(5) 0.2496(3) 0.5160(5)
C9 C 0.3338(6) 0.1348(4) -0.3789(5)
H6 H 0.4015 0.0992 -0.3895
H7 H 0.2697 0.1015 -0.3532
C10 C 0.5744(5) 0.1501(3) 0.2861(5)
N1 N 0.7973(5) 0.0094(3) 0.9685(4)
H8 H 0.7807 -0.0414 0.9762
C11 C 0.8632(8) 0.0497(5) 1.0688(6)
H9 H 0.8146 0.0945 1.0928
H10 H 0.9369 0.0726 1.0444
C12 C 0.7032(5) 0.0015(3) 0.7596(5)
H11 H 0.6914 -0.0543 0.7679
C13 C 0.6153(5) 0.1232(3) 0.4091(5)
H12 H 0.6208 0.0667 0.4159
C14 C 0.3763(6) 0.1975(3) -0.2785(5)
H13 H 0.4381 0.2324 -0.3055
H14 H 0.3079 0.2317 -0.2652
C15 C 0.6673(5) 0.0382(3) 0.6512(5)
H15 H 0.6303 0.0064 0.5869
C16 C 0.7579(5) 0.0466(3) 0.8589(5)
C17 C 0.2875(7) 0.1738(4) -0.4985(6)
H16 H 0.2475 0.2242 -0.4845
H17 H 0.2306 0.1378 -0.5453
H18 H 0.3546 0.1844 -0.5426
C18 C 0.4990(5) 0.2498(4) 0.1319(5)
H19 H 0.4759 0.3030 0.1110
C19 C 0.7368(6) 0.1641(3) 0.7323(5)
H20 H 0.7494 0.2198 0.7246
C20 C 0.7716(5) 0.1289(3) 0.8407(5)
H21 H 0.8060 0.1611 0.9057
C21 C 0.8964(8) -0.0035(5) 1.1734(7)
H22 H 0.9325 -0.0526 1.1451
H23 H 0.8221 -0.0195 1.2042
C22 C 0.9833(9) 0.0305(6) 1.2785(7)
H24 H 1.0267 -0.0142 1.3225
H25 H 1.0430 0.0646 1.2465
N2 N 0.6540(6) 0.3178(3) 0.5265(5)
C23 C 0.9255(9) 0.0757(6) 1.3586(8)
H26 H 0.8393 0.0763 1.3313
H27 H 0.9562 0.1305 1.3619
H28 H 0.9407 0.0517 1.4383
loop_
_geom_bond_atom_site_label_1
_geom_bond_atom_site_label_2
_geom_bond_site_symmetry_1
_geom_bond_site_symmetry_2
O1 C5 1_555 1_555
C1 H1 1_555 1_555
C2 C7 1_555 1_555
C3 H2 1_555 1_555
C4 C1 1_555 1_555
H3 C4 1_555 1_555
C5 C4 1_555 1_555
C6 O1 1_555 1_555
H4 C6 1_555 1_555
H5 C6 1_555 1_555
C7 C15 1_555 1_555
C8 C2 1_555 1_555
C9 H6 1_555 1_555
H7 C9 1_555 1_555
C10 C1 1_555 1_555
N1 H8 1_555 1_555
C11 N1 1_555 1_555
H9 C11 1_555 1_555
H10 C11 1_555 1_555
C12 H11 1_555 1_555
C13 C2 1_555 1_555
H12 C13 1_555 1_555
C14 C6 1_555 1_555
H13 C14 1_555 1_555
H14 C14 1_555 1_555
C15 C12 1_555 1_555
H15 C15 1_555 1_555
C16 N1 1_555 1_555
C17 C9 1_555 1_555
H16 C17 1_555 1_555
H17 C17 1_555 1_555
H18 C17 1_555 1_555
C18 C3 1_555 1_555
H19 C18 1_555 1_555
C19 C7 1_555 1_555
H20 C19 1_555 1_555
C20 C16 1_555 1_555
H21 C20 1_555 1_555
C21 C11 1_555 1_555
H22 C21 1_555 1_555
H23 C21 1_555 1_555
C22 C21 1_555 1_555
H24 C22 1_555 1_555
H25 C22 1_555 1_555
N2 C8 1_555 1_555
C23 C22 1_555 1_555
H26 C23 1_555 1_555
H27 C23 1_555 1_555
H28 C23 1_555 1_555
C3 C10 1_555 1_555
C5 C18 1_555 1_555
C9 C14 1_555 1_555
C10 C13 1_555 1_555
C12 C16 1_555 1_555
C19 C20 1_555 1_555

#END
