
#######################################################################
#
#                 Cambridge Crystallographic Data Centre
#                                CCDC 
#
#######################################################################
#
# If this CIF has been generated from an entry in the Cambridge 
# Structural Database, then it will include bibliographic, chemical, 
# crystal, experimental, refinement or atomic coordinate data resulting 
# from the CCDC's data processing and validation procedures.
#
#######################################################################

data_WOHZEZ
_chemical_formula_moiety         'C24 H32 N2 O3 S1 Si2'
_chemical_name_systematic        
2-(bis(Trimethylsilyl)methyl)-8-(phenylsulfonyl)-1,2,3b,8-tetrahydropyrrolo[4',3':1,3]cyclopropa[1,2-b]indol-3(3aH)-one
_symmetry_cell_setting           monoclinic
_symmetry_space_group_name_H-M   'P 21/c'
_symmetry_Int_Tables_number      14
_space_group_name_Hall           '-P 2ybc'
loop_
_symmetry_equiv_pos_site_id
_symmetry_equiv_pos_as_xyz
1 x,y,z
2 -x,1/2+y,1/2-z
3 -x,-y,-z
4 x,1/2-y,1/2+z
_cell_length_a                   16.8073(4)
_cell_length_b                   9.1044(2)
_cell_length_c                   23.0328(5)
_cell_angle_alpha                90
_cell_angle_beta                 131.7160(10)
_cell_angle_gamma                90
_cell_volume                     2630.86
_exptl_crystal_colour            colorless
_chemical_melting_point          179-181deg.C
_cell_formula_units_Z            4
loop_
_atom_site_label
_atom_site_type_symbol
_atom_site_fract_x
_atom_site_fract_y
_atom_site_fract_z
S1 S 0.33054(4) 0.22235(5) -0.04369(3)
Si1 Si 0.80713(5) 0.29191(7) 0.20223(3)
Si2 Si 0.81825(5) 0.53674(6) 0.31155(3)
O1 O 0.66096(11) 0.28543(14) 0.27371(7)
O2 O 0.22237(12) 0.2153(2) -0.11485(9)
O3 O 0.41445(11) 0.22854(15) -0.04460(8)
N1 N 0.62993(11) 0.40825(16) 0.17357(8)
N2 N 0.34173(11) 0.37448(17) 0.00181(8)
C1 C 0.59965(14) 0.33531(19) 0.20704(10)
C2 C 0.48101(14) 0.32724(19) 0.15153(10)
H1 H 0.4442 0.2364 0.1475
C3 C 0.44513(13) 0.40420(18) 0.07931(10)
C4 C 0.54219(13) 0.4480(2) 0.09177(10)
H2 H 0.5464 0.3928 0.0569
H3 H 0.5422 0.5546 0.0833
C5 C 0.42590(14) 0.47591(19) 0.12745(10)
H4 H 0.4674 0.5653 0.1587
C6 C 0.30814(14) 0.4750(2) 0.07656(11)
C7 C 0.24566(16) 0.5336(2) 0.09011(14)
H5 H 0.2773 0.5769 0.1388
C8 C 0.13545(18) 0.5274(3) 0.03061(16)
H6 H 0.0911 0.5664 0.0388
C9 C 0.08987(17) 0.4652(3) -0.04015(15)
H7 H 0.0144 0.4616 -0.0798
C10 C 0.15117(16) 0.4078(3) -0.05503(13)
H8 H 0.1193 0.3664 -0.1041
C11 C 0.26117(15) 0.4135(2) 0.00488(12)
C12 C 0.74136(13) 0.4466(2) 0.21240(10)
H9 H 0.7335 0.5269 0.1793
C13 C 0.7327(2) 0.2606(3) 0.09731(14)
H10 H 0.7712 0.1892 0.0921
H11 H 0.7262 0.3535 0.0730
H12 H 0.6615 0.2226 0.0716
C14 C 0.8065(2) 0.1181(3) 0.24437(16)
H13 H 0.8389 0.0396 0.2370
H14 H 0.7329 0.0915 0.2183
H15 H 0.8474 0.1317 0.3001
C15 C 0.94573(19) 0.3482(4) 0.25065(17)
H16 H 0.9792 0.2715 0.2433
H17 H 0.9870 0.3625 0.3064
H18 H 0.9438 0.4403 0.2277
C16 C 0.89855(19) 0.4058(3) 0.39498(12)
H19 H 0.9275 0.4571 0.4430
H20 H 0.9573 0.3670 0.4000
H21 H 0.8530 0.3246 0.3858
C17 C 0.9125(2) 0.6711(3) 0.32320(16)
H22 H 0.9495 0.7263 0.3716
H23 H 0.8725 0.7392 0.2791
H24 H 0.9648 0.6180 0.3250
C18 C 0.7228(2) 0.6440(3) 0.31083(14)
H25 H 0.7621 0.6957 0.3605
H26 H 0.6710 0.5770 0.3034
H27 H 0.6853 0.7155 0.2683
C19 C 0.3676(11) 0.0809(10) 0.0221(7)
C20 C 0.2961(12) 0.0328(9) 0.0286(8)
H28 H 0.2248 0.0681 -0.0062
C21 C 0.3280(15) -0.0666(9) 0.0859(8)
H29 H 0.2788 -0.0997 0.0904
C22 C 0.4315(16) -0.1179(10) 0.1366(7)
H30 H 0.4535 -0.1863 0.1760
C23 C 0.5031(14) -0.0697(11) 0.1300(7)
H31 H 0.5743 -0.1050 0.1649
C24 C 0.4711(12) 0.0296(12) 0.0727(7)
H32 H 0.5204 0.0628 0.0682
loop_
_geom_bond_atom_site_label_1
_geom_bond_atom_site_label_2
_geom_bond_site_symmetry_1
_geom_bond_site_symmetry_2
S1 O2 1_555 1_555
Si1 C12 1_555 1_555
Si2 C12 1_555 1_555
O1 C1 1_555 1_555
O3 S1 1_555 1_555
N1 C1 1_555 1_555
N2 S1 1_555 1_555
C1 C2 1_555 1_555
C2 H1 1_555 1_555
C3 N2 1_555 1_555
C4 N1 1_555 1_555
H2 C4 1_555 1_555
H3 C4 1_555 1_555
C5 C2 1_555 1_555
H4 C5 1_555 1_555
C6 C5 1_555 1_555
C7 C6 1_555 1_555
H5 C7 1_555 1_555
C8 C7 1_555 1_555
H6 C8 1_555 1_555
C9 C8 1_555 1_555
H7 C9 1_555 1_555
C10 C9 1_555 1_555
H8 C10 1_555 1_555
C11 N2 1_555 1_555
C12 N1 1_555 1_555
H9 C12 1_555 1_555
C13 Si1 1_555 1_555
H10 C13 1_555 1_555
H11 C13 1_555 1_555
H12 C13 1_555 1_555
C14 Si1 1_555 1_555
H13 C14 1_555 1_555
H14 C14 1_555 1_555
H15 C14 1_555 1_555
C15 Si1 1_555 1_555
H16 C15 1_555 1_555
H17 C15 1_555 1_555
H18 C15 1_555 1_555
C16 Si2 1_555 1_555
H19 C16 1_555 1_555
H20 C16 1_555 1_555
H21 C16 1_555 1_555
C17 Si2 1_555 1_555
H22 C17 1_555 1_555
H23 C17 1_555 1_555
H24 C17 1_555 1_555
C18 Si2 1_555 1_555
H25 C18 1_555 1_555
H26 C18 1_555 1_555
H27 C18 1_555 1_555
C19 S1 1_555 1_555
C20 C19 1_555 1_555
H28 C20 1_555 1_555
C21 C20 1_555 1_555
H29 C21 1_555 1_555
C22 C21 1_555 1_555
H30 C22 1_555 1_555
C23 C22 1_555 1_555
H31 C23 1_555 1_555
C24 C19 1_555 1_555
H32 C24 1_555 1_555
C2 C3 1_555 1_555
C3 C4 1_555 1_555
C3 C5 1_555 1_555
C6 C11 1_555 1_555
C10 C11 1_555 1_555
C23 C24 1_555 1_555

#END
