
#######################################################################
#
#                 Cambridge Crystallographic Data Centre
#                                CCDC 
#
#######################################################################
#
# If this CIF has been generated from an entry in the Cambridge 
# Structural Database, then it will include bibliographic, chemical, 
# crystal, experimental, refinement or atomic coordinate data resulting 
# from the CCDC's data processing and validation procedures.
#
#######################################################################

data_WOHZEA
_chemical_formula_moiety         'C7 H4 Cl3 N1 O3'
_chemical_name_systematic        '((3,5,6-Trichloropyridin-2-yl)oxy)acetic acid'
_symmetry_cell_setting           monoclinic
_symmetry_space_group_name_H-M   'P 21/c'
_symmetry_Int_Tables_number      14
_space_group_name_Hall           '-P 2ybc'
loop_
_symmetry_equiv_pos_site_id
_symmetry_equiv_pos_as_xyz
1 x,y,z
2 -x,1/2+y,1/2-z
3 -x,-y,-z
4 x,1/2-y,1/2+z
_cell_length_a                   7.5771(9)
_cell_length_b                   25.409(3)
_cell_length_c                   10.1668(12)
_cell_angle_alpha                90
_cell_angle_beta                 106.261(8)
_cell_angle_gamma                90
_cell_volume                     1879.08
_exptl_crystal_colour            colorless
_exptl_crystal_description       needle
_cell_formula_units_Z            8
loop_
_atom_site_label
_atom_site_type_symbol
_atom_site_fract_x
_atom_site_fract_y
_atom_site_fract_z
Cl1 Cl 0.66278(13) 0.53311(3) 0.94222(8)
Cl2 Cl 0.86627(14) 0.62564(3) 1.13208(9)
Cl3 Cl 0.67175(14) 0.75251(3) 0.69082(10)
O1 O 0.4722(3) 0.65825(8) 0.5624(2)
O2 O 0.6886(3) 0.58941(10) 0.4787(3)
O3 O 0.4491(3) 0.53970(9) 0.3695(3)
H1 H 0.5290 0.5231 0.3434
N1 N 0.5733(4) 0.60258(10) 0.7479(3)
C1 C 0.6641(4) 0.59584(11) 0.8776(3)
C2 C 0.7565(5) 0.63593(12) 0.9613(3)
C3 C 0.7598(5) 0.68502(11) 0.9024(3)
H2 H 0.8254 0.7133 0.9552
C4 C 0.6673(5) 0.69213(11) 0.7674(3)
C5 C 0.5714(4) 0.64974(12) 0.6938(3)
C6 C 0.3859(5) 0.61313(13) 0.4863(3)
H3 H 0.2905 0.6247 0.4032
H4 H 0.3251 0.5920 0.5430
C7 C 0.5265(5) 0.57983(12) 0.4455(3)
Cl4 Cl 1.00995(14) 0.31553(3) 0.50221(9)
Cl5 Cl 0.79593(15) 0.23214(3) 0.28102(10)
Cl6 Cl 0.66657(14) 0.38875(3) -0.09150(8)
O4 O 0.9075(3) 0.44645(8) 0.1341(2)
O5 O 0.9552(3) 0.54570(9) 0.3905(2)
H5 H 0.8784 0.5599 0.4250
O6 O 0.7219(3) 0.49064(9) 0.2971(3)
N2 N 0.9432(4) 0.38215(10) 0.3000(3)
C8 C 0.9176(5) 0.33276(12) 0.3324(3)
C9 C 0.8219(5) 0.29661(12) 0.2378(3)
C10 C 0.7423(5) 0.31367(12) 0.1045(3)
H6 H 0.6717 0.2901 0.0376
C11 C 0.7668(5) 0.36496(12) 0.0706(3)
C12 C 0.8738(4) 0.39780(11) 0.1722(3)
C13 C 1.0054(5) 0.48192(12) 0.2385(3)
H7 H 1.0624 0.5100 0.1967
H8 H 1.1048 0.4627 0.3053
C14 C 0.8768(5) 0.50619(12) 0.3117(3)
loop_
_geom_bond_atom_site_label_1
_geom_bond_atom_site_label_2
_geom_bond_site_symmetry_1
_geom_bond_site_symmetry_2
Cl1 C1 1_555 1_555
Cl2 C2 1_555 1_555
Cl3 C4 1_555 1_555
O1 C5 1_555 1_555
O2 C7 1_555 1_555
O3 H1 1_555 1_555
N1 C1 1_555 1_555
C1 C2 1_555 1_555
C2 C3 1_555 1_555
C3 H2 1_555 1_555
C4 C3 1_555 1_555
C5 N1 1_555 1_555
C6 O1 1_555 1_555
H3 C6 1_555 1_555
H4 C6 1_555 1_555
C7 O3 1_555 1_555
Cl4 C8 1_555 1_555
Cl5 C9 1_555 1_555
Cl6 C11 1_555 1_555
O4 C12 1_555 1_555
O5 H5 1_555 1_555
O6 C14 1_555 1_555
N2 C8 1_555 1_555
C8 C9 1_555 1_555
C9 C10 1_555 1_555
C10 H6 1_555 1_555
C11 C10 1_555 1_555
C12 N2 1_555 1_555
C13 O4 1_555 1_555
H7 C13 1_555 1_555
H8 C13 1_555 1_555
C14 O5 1_555 1_555
C4 C5 1_555 1_555
C6 C7 1_555 1_555
C11 C12 1_555 1_555
C13 C14 1_555 1_555

#END
