
#######################################################################
#
#                 Cambridge Crystallographic Data Centre
#                                CCDC 
#
#######################################################################
#
# If this CIF has been generated from an entry in the Cambridge 
# Structural Database, then it will include bibliographic, chemical, 
# crystal, experimental, refinement or atomic coordinate data resulting 
# from the CCDC's data processing and validation procedures.
#
#######################################################################

data_WOJFEH
_chemical_formula_moiety         'C24 H20 Br3 N3 O3,0.25(C1 H2 Cl2)'
_chemical_name_systematic        
'1,3-bis(4-Bromophenyl)-2-ethoxycarbonyl-5-(4-bromophenylamino)imidazolidin-4-one dichloromethane solvate'
_symmetry_cell_setting           triclinic
_symmetry_space_group_name_H-M   'P -1'
_symmetry_Int_Tables_number      2
_space_group_name_Hall           '-P 1'
loop_
_symmetry_equiv_pos_site_id
_symmetry_equiv_pos_as_xyz
1 x,y,z
2 -x,-y,-z
_cell_length_a                   13.9165(14)
_cell_length_b                   19.129(2)
_cell_length_c                   19.595(2)
_cell_angle_alpha                90.901(3)
_cell_angle_beta                 98.503(2)
_cell_angle_gamma                90.942(2)
_cell_volume                     5157.46
_exptl_crystal_colour            colorless
_exptl_crystal_description       prismatic
_chemical_melting_point          104-105deg.C
_cell_formula_units_Z            8
loop_
_atom_site_label
_atom_site_type_symbol
_atom_site_fract_x
_atom_site_fract_y
_atom_site_fract_z
Br1 Br 1.37547(10) 0.55926(8) 0.12361(8)
Br2 Br 1.29062(10) 1.03828(7) 0.08644(8)
Br3 Br 0.36667(9) 0.77226(8) 0.03276(9)
O1 O 0.8478(5) 0.6709(4) 0.0687(4)
O2 O 0.8318(7) 0.8347(5) 0.2215(5)
O3 O 0.8390(6) 0.9428(5) 0.1828(4)
N1 N 1.0255(6) 0.7287(5) 0.1635(4)
H1 H 1.0100 0.7378 0.2036
N2 N 0.9605(7) 0.8336(5) 0.1117(4)
N3 N 0.8086(6) 0.7845(5) 0.0853(4)
C1 C 0.8691(8) 0.7317(7) 0.0832(5)
C2 C 0.9709(8) 0.7595(6) 0.1028(6)
H5 H 1.0063 0.7515 0.0638
C3 C 0.8605(8) 0.8498(6) 0.1062(6)
H6 H 0.8442 0.8849 0.0707
C4 C 1.0998(8) 0.6864(5) 0.1578(6)
C5 C 1.0992(9) 0.6371(7) 0.1049(6)
H7 H 1.0419 0.6293 0.0746
C6 C 1.1805(11) 0.5988(6) 0.0951(6)
H8 H 1.1770 0.5671 0.0582
C7 C 1.2641(9) 0.6075(7) 0.1390(7)
C8 C 1.2695(8) 0.6513(7) 0.1951(7)
H9 H 1.3259 0.6552 0.2272
C9 C 1.1885(10) 0.6896(6) 0.2028(6)
H10 H 1.1929 0.7200 0.2407
C10 C 1.0373(8) 0.8805(6) 0.1032(5)
C11 C 1.1271(8) 0.8584(6) 0.1032(5)
H11 H 1.1393 0.8108 0.1066
C12 C 1.2036(8) 0.9051(7) 0.0980(6)
H12 H 1.2666 0.8897 0.0978
C13 C 1.1812(9) 0.9770(7) 0.0929(6)
C14 C 1.0906(10) 0.9995(6) 0.0906(6)
H13 H 1.0776 1.0468 0.0846
C15 C 1.0156(7) 0.9520(6) 0.0970(5)
H14 H 0.9525 0.9672 0.0972
C16 C 0.7036(8) 0.7837(6) 0.0728(5)
C17 C 0.6506(10) 0.7206(6) 0.0728(6)
H15 H 0.6848 0.6796 0.0816
C18 C 0.5545(10) 0.7165(8) 0.0610(8)
H16 H 0.5218 0.6738 0.0615
C19 C 0.5050(9) 0.7770(8) 0.0480(6)
C20 C 0.5497(9) 0.8405(7) 0.0462(6)
H17 H 0.5143 0.8809 0.0367
C21 C 0.6485(9) 0.8422(6) 0.0592(6)
H18 H 0.6805 0.8853 0.0588
C22 C 0.8372(8) 0.8774(8) 0.1758(7)
C23 C 0.8314(10) 0.9753(7) 0.2492(6)
H19 H 0.7676 0.9954 0.2480
H20 H 0.8392 0.9403 0.2847
C24 C 0.9054(11) 1.0294(7) 0.2652(7)
H21 H 0.9684 1.0095 0.2658
H22 H 0.9009 1.0498 0.3097
H23 H 0.8961 1.0648 0.2309
Br4 Br -0.46869(12) 0.53670(12) 0.30127(10)
Br5 Br -0.33229(10) 1.02331(8) 0.43586(9)
Br6 Br 0.55536(11) 0.72893(11) 0.43721(10)
O4 O 0.0695(6) 0.6382(5) 0.4295(5)
O5 O 0.0616(6) 0.8208(4) 0.2935(4)
O6 O 0.1384(6) 0.9095(5) 0.3526(4)
N4 N -0.0996(7) 0.7123(5) 0.3400(5)
H2 H -0.0779 0.7277 0.3041
N5 N -0.0270(7) 0.8061(5) 0.4171(4)
N6 N 0.1189(8) 0.7535(5) 0.4242(4)
C25 C 0.0567(10) 0.6996(8) 0.4235(6)
C26 C -0.0476(9) 0.7309(6) 0.4068(6)
H24 H -0.0862 0.7154 0.4419
C27 C 0.0737(8) 0.8202(6) 0.4157(6)
H25 H 0.1003 0.8525 0.4533
C28 C -0.1818(8) 0.6713(6) 0.3306(7)
C29 C -0.2022(9) 0.6233(7) 0.3778(6)
H26 H -0.1580 0.6183 0.4179
C30 C -0.2839(10) 0.5828(6) 0.3686(6)
H27 H -0.2941 0.5506 0.4020
C31 C -0.3511(9) 0.5885(9) 0.3114(8)
C32 C -0.3329(10) 0.6332(8) 0.2620(8)
H28 H -0.3755 0.6346 0.2208
C33 C -0.2515(10) 0.6773(7) 0.2718(7)
H29 H -0.2433 0.7109 0.2393
C34 C -0.0968(8) 0.8561(6) 0.4209(5)
C35 C -0.1950(9) 0.8371(7) 0.4173(5)
H30 H -0.2146 0.7904 0.4110
C36 C -0.2648(9) 0.8898(9) 0.4234(6)
H31 H -0.3298 0.8770 0.4220
C37 C -0.2387(9) 0.9560(7) 0.4310(6)
C38 C -0.1415(11) 0.9772(7) 0.4351(6)
H32 H -0.1240 1.0243 0.4410
C39 C -0.0703(9) 0.9272(7) 0.4303(5)
H33 H -0.0055 0.9410 0.4334
C40 C 0.2240(11) 0.7479(8) 0.4276(6)
C41 C 0.2609(12) 0.6922(8) 0.3945(6)
H34 H 0.2215 0.6578 0.3699
C42 C 0.3615(12) 0.6917(8) 0.4011(7)
H35 H 0.3889 0.6545 0.3804
C43 C 0.4215(10) 0.7388(11) 0.4338(8)
C44 C 0.3835(12) 0.7988(9) 0.4651(7)
H36 H 0.4236 0.8344 0.4869
C45 C 0.2876(10) 0.8000(7) 0.4609(6)
H37 H 0.2606 0.8377 0.4813
C46 C 0.0898(8) 0.8504(7) 0.3439(7)
C47 C 0.1686(12) 0.9395(9) 0.2869(9)
H38 H 0.1208 0.9276 0.2471
H39 H 0.1760 0.9900 0.2907
C48 C 0.2652(13) 0.9059(11) 0.2811(8)
H40 H 0.3075 0.9111 0.3243
H41 H 0.2944 0.9281 0.2455
H42 H 0.2546 0.8570 0.2699
Br7 Br -0.41649(10) 0.03601(8) 0.11109(9)
Br8 Br -0.36550(9) 0.52965(7) 0.06274(8)
Br9 Br 0.56715(10) 0.29622(10) 0.15596(10)
O7 O 0.0893(6) 0.1794(5) 0.0660(4)
O8 O 0.0973(6) 0.3439(5) 0.2249(5)
O9 O 0.1422(6) 0.4433(5) 0.1862(4)
N7 N -0.0694(6) 0.2331(4) 0.1456(5)
H3 H -0.0440 0.2478 0.1861
N8 N -0.0239(7) 0.3368(5) 0.0888(4)
N9 N 0.1300(7) 0.2942(4) 0.0906(4)
C49 C 0.0698(9) 0.2388(8) 0.0799(6)
C50 C -0.0311(8) 0.2602(5) 0.0853(5)
H43 H -0.0743 0.2455 0.0433
C51 C 0.0788(7) 0.3567(6) 0.1030(6)
H44 H 0.0936 0.3936 0.0718
C52 C -0.1455(8) 0.1843(6) 0.1393(6)
C53 C -0.1568(7) 0.1339(6) 0.0889(6)
H45 H -0.1112 0.1297 0.0589
C54 C -0.2370(10) 0.0885(6) 0.0824(7)
H46 H -0.2420 0.0529 0.0492
C55 C -0.3089(9) 0.0943(7) 0.1230(8)
C56 C -0.2944(8) 0.1435(7) 0.1758(7)
H47 H -0.3385 0.1457 0.2071
C57 C -0.2148(9) 0.1904(6) 0.1834(6)
H48 H -0.2085 0.2251 0.2175
C58 C -0.1017(9) 0.3824(6) 0.0836(5)
C59 C -0.1948(9) 0.3558(6) 0.0745(5)
H49 H -0.2060 0.3077 0.0729
C60 C -0.2707(8) 0.4004(7) 0.0677(5)
H50 H -0.3332 0.3812 0.0622
C61 C -0.2610(8) 0.4693(7) 0.0684(6)
C62 C -0.1649(10) 0.4963(6) 0.0784(5)
H51 H -0.1550 0.5445 0.0805
C63 C -0.0862(8) 0.4543(6) 0.0852(5)
H52 H -0.0235 0.4733 0.0907
C64 C 0.2322(9) 0.2923(7) 0.1005(6)
C65 C 0.2799(11) 0.2332(8) 0.1167(6)
H53 H 0.2452 0.1917 0.1196
C66 C 0.3781(13) 0.2337(7) 0.1289(7)
H54 H 0.4106 0.1919 0.1364
C67 C 0.4293(8) 0.2944(10) 0.1302(6)
C68 C 0.3820(11) 0.3563(8) 0.1132(7)
H55 H 0.4168 0.3981 0.1119
C69 C 0.2821(10) 0.3545(7) 0.0982(7)
H56 H 0.2485 0.3953 0.0866
C70 C 0.1085(8) 0.3807(8) 0.1791(7)
C71 C 0.1714(10) 0.4763(9) 0.2557(7)
H57 H 0.1332 0.4579 0.2892
H58 H 0.1657 0.5268 0.2542
C72 C 0.2752(13) 0.4552(11) 0.2711(10)
H59 H 0.2792 0.4055 0.2647
H60 H 0.3006 0.4679 0.3179
H61 H 0.3124 0.4785 0.2404
Br10 Br 1.42272(11) 0.05835(10) 0.32879(13)
Br11 Br 1.36345(10) 0.50952(8) 0.46870(8)
Br12 Br 0.42065(10) 0.28218(12) 0.33617(10)
O10 O 0.8889(6) 0.1543(4) 0.4145(4)
O11 O 0.8965(6) 0.3309(5) 0.2738(4)
O12 O 0.8661(6) 0.4301(5) 0.3273(4)
N10 N 1.0530(6) 0.2140(5) 0.3402(5)
H4 H 1.0204 0.2255 0.3014
N11 N 1.0151(7) 0.3115(5) 0.4098(4)
N12 N 0.8589(6) 0.2692(5) 0.4013(4)
C73 C 0.9165(8) 0.2132(7) 0.4074(6)
C74 C 1.0197(8) 0.2385(6) 0.4021(6)
H62 H 1.0633 0.2208 0.4417
C75 C 0.9178(8) 0.3340(6) 0.3971(6)
H63 H 0.9056 0.3681 0.4325
C76 C 1.1321(8) 0.1741(6) 0.3384(7)
C77 C 1.1744(10) 0.1322(7) 0.3914(6)
H64 H 1.1455 0.1283 0.4310
C78 C 1.2574(12) 0.0967(7) 0.3865(8)
H65 H 1.2829 0.0678 0.4222
C79 C 1.3044(8) 0.1029(7) 0.3289(10)
C80 C 1.2588(12) 0.1393(9) 0.2770(7)
H66 H 1.2846 0.1408 0.2358
C81 C 1.1753(10) 0.1748(7) 0.2818(7)
H67 H 1.1475 0.2005 0.2442
C82 C 1.0952(8) 0.3601(6) 0.4230(5)
C83 C 1.1888(8) 0.3340(6) 0.4278(5)
H68 H 1.1992 0.2866 0.4211
C84 C 1.2655(8) 0.3810(7) 0.4427(5)
H69 H 1.3282 0.3639 0.4467
C85 C 1.2548(9) 0.4515(7) 0.4521(5)
C86 C 1.1600(10) 0.4753(6) 0.4438(6)
H70 H 1.1501 0.5231 0.4472
C87 C 1.0793(8) 0.4306(6) 0.4308(5)
H71 H 1.0167 0.4477 0.4274
C88 C 0.7559(8) 0.2753(7) 0.3882(5)
C89 C 0.7028(10) 0.2162(7) 0.3572(6)
H72 H 0.7357 0.1766 0.3462
C90 C 0.6043(12) 0.2169(9) 0.3434(7)
H73 H 0.5688 0.1779 0.3245
C91 C 0.5588(9) 0.2772(10) 0.3584(6)
C92 C 0.6101(11) 0.3335(7) 0.3916(7)
H74 H 0.5778 0.3728 0.4039
C93 C 0.7066(8) 0.3306(7) 0.4058(6)
H75 H 0.7409 0.3683 0.4287
C94 C 0.8881(9) 0.3652(7) 0.3213(8)
C95 C 0.8303(10) 0.4669(8) 0.2618(8)
H76 H 0.7707 0.4916 0.2648
H77 H 0.8203 0.4349 0.2224
C96 C 0.9190(14) 0.5194(13) 0.2585(12)
H78 H 0.9396 0.5401 0.3033
H79 H 0.8992 0.5555 0.2261
H80 H 0.9720 0.4944 0.2439
Cl1 Cl 0.5566(5) 0.9035(4) 0.2599(4)
Cl2 Cl 0.4643(5) 0.7780(4) 0.2363(4)
C97 C 0.5824(11) 0.8159(8) 0.2505(9)
H81 H 0.6205 0.7982 0.2919
H82 H 0.6165 0.8078 0.2115
loop_
_geom_bond_atom_site_label_1
_geom_bond_atom_site_label_2
_geom_bond_site_symmetry_1
_geom_bond_site_symmetry_2
Br1 C7 1_555 1_555
Br2 C13 1_555 1_555
Br3 C19 1_555 1_555
Br4 C31 1_555 1_555
Br5 C37 1_555 1_555
Br6 C43 1_555 1_555
Br7 C55 1_555 1_555
Br8 C61 1_555 1_555
Br9 C67 1_555 1_555
Br10 C79 1_555 1_555
Br11 C85 1_555 1_555
Br12 C91 1_555 1_555
O1 C1 1_555 1_555
O2 C22 1_555 1_555
O3 C22 1_555 1_555
O4 C25 1_555 1_555
O5 C46 1_555 1_555
O6 C46 1_555 1_555
O7 C49 1_555 1_555
O8 C70 1_555 1_555
O9 C70 1_555 1_555
O10 C73 1_555 1_555
O11 C94 1_555 1_555
O12 C94 1_555 1_555
N1 H1 1_555 1_555
N2 C2 1_555 1_555
N3 C1 1_555 1_555
N4 H2 1_555 1_555
N5 C26 1_555 1_555
N6 C25 1_555 1_555
N7 H3 1_555 1_555
N8 C50 1_555 1_555
N9 C49 1_555 1_555
N10 H4 1_555 1_555
N11 C74 1_555 1_555
N12 C73 1_555 1_555
Cl1 C97 1_555 1_555
Cl2 C97 1_555 1_555
C1 C2 1_555 1_555
C2 N1 1_555 1_555
H5 C2 1_555 1_555
C3 N2 1_555 1_555
H6 C3 1_555 1_555
C4 N1 1_555 1_555
C5 C4 1_555 1_555
H7 C5 1_555 1_555
C6 C5 1_555 1_555
H8 C6 1_555 1_555
C7 C6 1_555 1_555
C8 C7 1_555 1_555
H9 C8 1_555 1_555
C9 C4 1_555 1_555
H10 C9 1_555 1_555
C10 N2 1_555 1_555
C11 C10 1_555 1_555
H11 C11 1_555 1_555
C12 C11 1_555 1_555
H12 C12 1_555 1_555
C13 C12 1_555 1_555
C14 C13 1_555 1_555
H13 C14 1_555 1_555
C15 C10 1_555 1_555
H14 C15 1_555 1_555
C16 N3 1_555 1_555
C17 C16 1_555 1_555
H15 C17 1_555 1_555
C18 C17 1_555 1_555
H16 C18 1_555 1_555
C19 C18 1_555 1_555
C20 C19 1_555 1_555
H17 C20 1_555 1_555
C21 C16 1_555 1_555
H18 C21 1_555 1_555
C22 C3 1_555 1_555
C23 O3 1_555 1_555
H19 C23 1_555 1_555
H20 C23 1_555 1_555
C24 C23 1_555 1_555
H21 C24 1_555 1_555
H22 C24 1_555 1_555
H23 C24 1_555 1_555
C25 C26 1_555 1_555
C26 N4 1_555 1_555
H24 C26 1_555 1_555
C27 N5 1_555 1_555
H25 C27 1_555 1_555
C28 N4 1_555 1_555
C29 C28 1_555 1_555
H26 C29 1_555 1_555
C30 C29 1_555 1_555
H27 C30 1_555 1_555
C31 C30 1_555 1_555
C32 C31 1_555 1_555
H28 C32 1_555 1_555
C33 C28 1_555 1_555
H29 C33 1_555 1_555
C34 N5 1_555 1_555
C35 C34 1_555 1_555
H30 C35 1_555 1_555
C36 C35 1_555 1_555
H31 C36 1_555 1_555
C37 C36 1_555 1_555
C38 C37 1_555 1_555
H32 C38 1_555 1_555
C39 C34 1_555 1_555
H33 C39 1_555 1_555
C40 N6 1_555 1_555
C41 C40 1_555 1_555
H34 C41 1_555 1_555
C42 C41 1_555 1_555
H35 C42 1_555 1_555
C43 C42 1_555 1_555
C44 C43 1_555 1_555
H36 C44 1_555 1_555
C45 C40 1_555 1_555
H37 C45 1_555 1_555
C46 C27 1_555 1_555
C47 O6 1_555 1_555
H38 C47 1_555 1_555
H39 C47 1_555 1_555
C48 C47 1_555 1_555
H40 C48 1_555 1_555
H41 C48 1_555 1_555
H42 C48 1_555 1_555
C49 C50 1_555 1_555
C50 N7 1_555 1_555
H43 C50 1_555 1_555
C51 N8 1_555 1_555
H44 C51 1_555 1_555
C52 N7 1_555 1_555
C53 C52 1_555 1_555
H45 C53 1_555 1_555
C54 C53 1_555 1_555
H46 C54 1_555 1_555
C55 C54 1_555 1_555
C56 C55 1_555 1_555
H47 C56 1_555 1_555
C57 C52 1_555 1_555
H48 C57 1_555 1_555
C58 N8 1_555 1_555
C59 C58 1_555 1_555
H49 C59 1_555 1_555
C60 C59 1_555 1_555
H50 C60 1_555 1_555
C61 C60 1_555 1_555
C62 C61 1_555 1_555
H51 C62 1_555 1_555
C63 C58 1_555 1_555
H52 C63 1_555 1_555
C64 N9 1_555 1_555
C65 C64 1_555 1_555
H53 C65 1_555 1_555
C66 C65 1_555 1_555
H54 C66 1_555 1_555
C67 C66 1_555 1_555
C68 C67 1_555 1_555
H55 C68 1_555 1_555
C69 C64 1_555 1_555
H56 C69 1_555 1_555
C70 C51 1_555 1_555
C71 O9 1_555 1_555
H57 C71 1_555 1_555
H58 C71 1_555 1_555
C72 C71 1_555 1_555
H59 C72 1_555 1_555
H60 C72 1_555 1_555
H61 C72 1_555 1_555
C73 C74 1_555 1_555
C74 N10 1_555 1_555
H62 C74 1_555 1_555
C75 N11 1_555 1_555
H63 C75 1_555 1_555
C76 N10 1_555 1_555
C77 C76 1_555 1_555
H64 C77 1_555 1_555
C78 C77 1_555 1_555
H65 C78 1_555 1_555
C79 C78 1_555 1_555
C80 C79 1_555 1_555
H66 C80 1_555 1_555
C81 C76 1_555 1_555
H67 C81 1_555 1_555
C82 N11 1_555 1_555
C83 C82 1_555 1_555
H68 C83 1_555 1_555
C84 C83 1_555 1_555
H69 C84 1_555 1_555
C85 C84 1_555 1_555
C86 C85 1_555 1_555
H70 C86 1_555 1_555
C87 C82 1_555 1_555
H71 C87 1_555 1_555
C88 N12 1_555 1_555
C89 C88 1_555 1_555
H72 C89 1_555 1_555
C90 C89 1_555 1_555
H73 C90 1_555 1_555
C91 C90 1_555 1_555
C92 C91 1_555 1_555
H74 C92 1_555 1_555
C93 C88 1_555 1_555
H75 C93 1_555 1_555
C94 C75 1_555 1_555
C95 O12 1_555 1_555
H76 C95 1_555 1_555
H77 C95 1_555 1_555
C96 C95 1_555 1_555
H78 C96 1_555 1_555
H79 C96 1_555 1_555
H80 C96 1_555 1_555
C97 H81 1_555 1_555
H82 C97 1_555 1_555
N3 C3 1_555 1_555
N6 C27 1_555 1_555
N9 C51 1_555 1_555
N12 C75 1_555 1_555
C8 C9 1_555 1_555
C14 C15 1_555 1_555
C20 C21 1_555 1_555
C32 C33 1_555 1_555
C38 C39 1_555 1_555
C44 C45 1_555 1_555
C56 C57 1_555 1_555
C62 C63 1_555 1_555
C68 C69 1_555 1_555
C80 C81 1_555 1_555
C86 C87 1_555 1_555
C92 C93 1_555 1_555

#END
