
#######################################################################
#
#                 Cambridge Crystallographic Data Centre
#                                CCDC 
#
#######################################################################
#
# If this CIF has been generated from an entry in the Cambridge 
# Structural Database, then it will include bibliographic, chemical, 
# crystal, experimental, refinement or atomic coordinate data resulting 
# from the CCDC's data processing and validation procedures.
#
#######################################################################

data_WOJHUZ
_chemical_formula_moiety         'C17 H23 N1 O2'
_chemical_name_systematic        
'Ethyl 2-isobutyl-5,7-dimethyl-1H-indole-3-carboxylate'
_symmetry_cell_setting           monoclinic
_symmetry_space_group_name_H-M   'P 21/n'
_symmetry_Int_Tables_number      14
_space_group_name_Hall           '-P 2yn'
loop_
_symmetry_equiv_pos_site_id
_symmetry_equiv_pos_as_xyz
1 x,y,z
2 1/2-x,1/2+y,1/2-z
3 -x,-y,-z
4 1/2+x,1/2-y,1/2+z
_cell_length_a                   10.1372(7)
_cell_length_b                   15.7721(12)
_cell_length_c                   10.5998(6)
_cell_angle_alpha                90
_cell_angle_beta                 102.4447(15)
_cell_angle_gamma                90
_cell_volume                     1654.93
_exptl_crystal_colour            colorless
_exptl_crystal_description       platelet
_chemical_melting_point          '110-113 deg.C'
_cell_formula_units_Z            4
loop_
_atom_site_label
_atom_site_type_symbol
_atom_site_fract_x
_atom_site_fract_y
_atom_site_fract_z
O1 O 0.33334(19) 0.35798(12) 0.40107(17)
O2 O 0.41802(19) 0.41538(12) 0.59327(17)
N1 N 0.6373(2) 0.19061(14) 0.67089(17)
C1 C 0.6060(2) 0.15517(18) 0.5481(2)
C2 C 0.6479(2) 0.0789(2) 0.5058(2)
C3 C 0.5973(2) 0.0606(2) 0.3763(2)
C4 C 0.5110(2) 0.1149(2) 0.2930(2)
C5 C 0.4716(2) 0.1901(2) 0.3382(2)
C6 C 0.5183(2) 0.21122(18) 0.4697(2)
C7 C 0.4978(2) 0.28181(18) 0.5498(2)
C8 C 0.5731(2) 0.26605(19) 0.6725(2)
C9 C 0.7408(3) 0.01969(19) 0.5937(2)
C10 C 0.4603(3) 0.0903(2) 0.1532(2)
C11 C 0.4097(2) 0.3528(2) 0.5065(2)
C12 C 0.3289(2) 0.4871(2) 0.5587(2)
C13 C 0.3565(3) 0.5464(2) 0.6719(3)
C14 C 0.5903(2) 0.31188(18) 0.7987(2)
C15 C 0.5122(3) 0.2733(2) 0.8928(2)
C16 C 0.5451(4) 0.3229(2) 1.0192(2)
C17 C 0.3684(4) 0.2661(2) 0.8428(3)
H1 H 0.6901 0.1679 0.7367
H2 H 0.6221 0.0097 0.3436
H3 H 0.4147 0.2268 0.2829
H4 H 0.5469 0.2157 0.9121
H5 H 0.7517 -0.0314 0.5478
H6 H 0.8271 0.0463 0.6228
H7 H 0.7029 0.0062 0.6668
H8 H 0.4317 0.0321 0.1483
H9 H 0.5316 0.0972 0.1073
H10 H 0.3854 0.1258 0.1151
H11 H 0.2355 0.4686 0.5414
H12 H 0.3473 0.5150 0.4828
H13 H 0.3325 0.5194 0.7450
H14 H 0.3039 0.5970 0.6507
H15 H 0.4508 0.5607 0.6925
H16 H 0.5599 0.3698 0.7811
H17 H 0.6856 0.3117 0.8397
H18 H 0.3259 0.2459 0.9097
H19 H 0.3322 0.3207 0.8137
H20 H 0.3516 0.2270 0.7718
H21 H 0.6388 0.3157 1.0590
H22 H 0.4905 0.3023 1.0762
H23 H 0.5265 0.3820 1.0018
loop_
_geom_bond_atom_site_label_1
_geom_bond_atom_site_label_2
_geom_bond_site_symmetry_1
_geom_bond_site_symmetry_2
O1 C11 1_555 1_555
O2 C11 1_555 1_555
N1 C1 1_555 1_555
C1 C2 1_555 1_555
C2 C3 1_555 1_555
C3 C4 1_555 1_555
C4 C5 1_555 1_555
C5 C6 1_555 1_555
C6 C1 1_555 1_555
C7 C6 1_555 1_555
C8 N1 1_555 1_555
C9 C2 1_555 1_555
C10 C4 1_555 1_555
C11 C7 1_555 1_555
C12 O2 1_555 1_555
C13 C12 1_555 1_555
C14 C8 1_555 1_555
C15 C14 1_555 1_555
C16 C15 1_555 1_555
C17 C15 1_555 1_555
H1 N1 1_555 1_555
H2 C3 1_555 1_555
H3 C5 1_555 1_555
H4 C15 1_555 1_555
H5 C9 1_555 1_555
H6 C9 1_555 1_555
H7 C9 1_555 1_555
H8 C10 1_555 1_555
H9 C10 1_555 1_555
H10 C10 1_555 1_555
H11 C12 1_555 1_555
H12 C12 1_555 1_555
H13 C13 1_555 1_555
H14 C13 1_555 1_555
H15 C13 1_555 1_555
H16 C14 1_555 1_555
H17 C14 1_555 1_555
H18 C17 1_555 1_555
H19 C17 1_555 1_555
H20 C17 1_555 1_555
H21 C16 1_555 1_555
H22 C16 1_555 1_555
H23 C16 1_555 1_555
C7 C8 1_555 1_555

#END
