
#######################################################################
#
#                 Cambridge Crystallographic Data Centre
#                                CCDC 
#
#######################################################################
#
# If this CIF has been generated from an entry in the Cambridge 
# Structural Database, then it will include bibliographic, chemical, 
# crystal, experimental, refinement or atomic coordinate data resulting 
# from the CCDC's data processing and validation procedures.
#
#######################################################################

data_WOJLOX
_chemical_compound_source        
'bark, twigs and leaves of Itoa orientalis Hemsl. Flacourtiaceae'
_chemical_name_common            'Itoside L'
_chemical_formula_moiety         'C12 H20 O8'
_chemical_name_systematic        
1\b,4\a,6\b-Trihydroxycyclohex-2-enoic-1-O-\b-D-glycopyranoside
_chemical_properties_biological  
'significant anti-COX-2 (anti-inflammatory) activity'
_symmetry_cell_setting           monoclinic
_symmetry_space_group_name_H-M   'P 21'
_symmetry_Int_Tables_number      4
_space_group_name_Hall           'P 2yb'
loop_
_symmetry_equiv_pos_site_id
_symmetry_equiv_pos_as_xyz
1 x,y,z
2 -x,1/2+y,-z
_cell_length_a                   4.899(1)
_cell_length_b                   14.244(1)
_cell_length_c                   10.241(1)
_cell_angle_alpha                90
_cell_angle_beta                 92.81(1)
_cell_angle_gamma                90
_cell_volume                     713.772
_exptl_crystal_colour            colorless
_exptl_crystal_description       prism
_chemical_melting_point          '210-212 deg.C'
_cell_formula_units_Z            2
loop_
_atom_site_label
_atom_site_type_symbol
_atom_site_fract_x
_atom_site_fract_y
_atom_site_fract_z
O1 O 0.7171(4) 0.11446(14) 0.77281(18)
O2 O 0.9039(5) -0.2005(2) 1.0797(2)
H1 H 0.7439 -0.2064 1.0982
O3 O 0.9384(5) -0.06146(14) 0.72172(18)
H2 H 0.9360 -0.0250 0.6597
C1 C 0.6566(6) 0.0360(2) 0.8564(2)
H3 H 0.4686 0.0421 0.8840
C2 C 0.8493(9) 0.0411(3) 0.9752(3)
H4 H 0.8900 0.0996 1.0116
C3 C 0.9634(9) -0.0348(3) 1.0301(3)
H5 H 1.0753 -0.0270 1.1053
C4 C 0.9221(6) -0.1316(2) 0.9777(3)
H6 H 1.0847 -0.1471 0.9300
C5 C 0.6797(6) -0.1374(2) 0.8803(3)
H7 H 0.5117 -0.1354 0.9266
H8 H 0.6849 -0.1965 0.8335
C6 C 0.6835(6) -0.0566(2) 0.7836(2)
H9 H 0.5322 -0.0633 0.7180
O4 O 0.4509(4) 0.10138(11) 0.58380(17)
O5 O 0.5861(4) 0.30724(15) 0.79131(19)
H10 H 0.7414 0.3004 0.8234
O6 O 0.3972(4) 0.38954(13) 0.5498(2)
H11 H 0.2613 0.4232 0.5477
O7 O 0.0045(4) 0.26559(13) 0.40458(19)
H12 H 0.0252 0.3171 0.3706
O8 O 0.0994(4) -0.02300(13) 0.4361(2)
H13 H 0.2397 -0.0520 0.4567
C7 C 0.4919(5) 0.15236(17) 0.7026(2)
H14 H 0.3288 0.1484 0.7540
C8 C 0.5566(5) 0.25489(16) 0.6724(2)
H15 H 0.7261 0.2584 0.6257
C9 C 0.3244(5) 0.29673(16) 0.5891(2)
H16 H 0.1625 0.3006 0.6414
C10 C 0.2555(5) 0.23644(17) 0.4688(2)
H17 H 0.4038 0.2401 0.4082
C11 C 0.2126(5) 0.13416(16) 0.5101(2)
H18 H 0.0542 0.1306 0.5647
C12 C 0.1683(6) 0.06948(19) 0.3942(3)
H19 H 0.0221 0.0938 0.3365
H20 H 0.3333 0.0670 0.3457
loop_
_geom_bond_atom_site_label_1
_geom_bond_atom_site_label_2
_geom_bond_site_symmetry_1
_geom_bond_site_symmetry_2
O1 C1 1_555 1_555
O2 H1 1_555 1_555
O3 H2 1_555 1_555
C1 H3 1_555 1_555
C2 C1 1_555 1_555
H4 C2 1_555 1_555
C3 C2 1_555 1_555
H5 C3 1_555 1_555
C4 O2 1_555 1_555
H6 C4 1_555 1_555
C5 C4 1_555 1_555
H7 C5 1_555 1_555
H8 C5 1_555 1_555
C6 O3 1_555 1_555
H9 C6 1_555 1_555
O4 C7 1_555 1_555
O5 H10 1_555 1_555
O6 H11 1_555 1_555
O7 H12 1_555 1_555
O8 H13 1_555 1_555
C7 O1 1_555 1_555
H14 C7 1_555 1_555
C8 O5 1_555 1_555
H15 C8 1_555 1_555
C9 O6 1_555 1_555
H16 C9 1_555 1_555
C10 O7 1_555 1_555
H17 C10 1_555 1_555
C11 O4 1_555 1_555
H18 C11 1_555 1_555
C12 O8 1_555 1_555
H19 C12 1_555 1_555
H20 C12 1_555 1_555
C1 C6 1_555 1_555
C3 C4 1_555 1_555
C5 C6 1_555 1_555
C7 C8 1_555 1_555
C8 C9 1_555 1_555
C9 C10 1_555 1_555
C10 C11 1_555 1_555
C11 C12 1_555 1_555

#END
