
#######################################################################
#
#                 Cambridge Crystallographic Data Centre
#                                CCDC 
#
#######################################################################
#
# If this CIF has been generated from an entry in the Cambridge 
# Structural Database, then it will include bibliographic, chemical, 
# crystal, experimental, refinement or atomic coordinate data resulting 
# from the CCDC's data processing and validation procedures.
#
#######################################################################

data_WOJLIQ
_chemical_formula_moiety         'C23 H24 F2 N2 O6'
_chemical_name_systematic        
'3-(((1S)-3-Oxo-4,7,7-trimethyl-2-oxabicyclo[2.2.1]heptyl)carbonyl)-4(R)-4-(3,4-difluorophenyl)-6-methyl-2-oxo-1,2,3,4-tetrahydropyrimidine-5-carboxylic acid methyl ester'
_chemical_properties_biological  
'inhibits thrombin receptor stimulated secretion and aggregation of platelets'
_symmetry_cell_setting           monoclinic
_symmetry_space_group_name_H-M   'C 2'
_symmetry_Int_Tables_number      5
_space_group_name_Hall           'C 2y'
loop_
_symmetry_equiv_pos_site_id
_symmetry_equiv_pos_as_xyz
1 x,y,z
2 -x,y,-z
3 1/2+x,1/2+y,z
4 1/2-x,1/2+y,-z
_cell_length_a                   27.420(4)
_cell_length_b                   7.362(2)
_cell_length_c                   12.323(3)
_cell_angle_alpha                90
_cell_angle_beta                 114.30(1)
_cell_angle_gamma                90
_cell_volume                     2267.2
_exptl_crystal_colour            colorless
_cell_formula_units_Z            4
_exptl_crystal_recrystallization_method hexane/ethanol
loop_
_atom_site_label
_atom_site_type_symbol
_atom_site_fract_x
_atom_site_fract_y
_atom_site_fract_z
F1 F 0.06831(11) 0.5146(6) 1.2235(2)
F2 F 0.0685(2) 0.7943(6) 1.0864(4)
O1 O 0.11685(10) -0.0664(4) 0.8036(3)
O2 O 0.18062(10) 0.4260(5) 0.8629(3)
O3 O 0.16839(8) 0.0660(3) 0.6687(2)
O4 O 0.18939(13) -0.0636(6) 0.5301(3)
O5 O 0.00601(10) 0.6836(3) 0.6645(2)
O6 O -0.05735(10) 0.5064(3) 0.5373(2)
N1 N 0.03479(11) 0.0556(4) 0.7082(3)
H1 H 0.02073(11) -0.0498(4) 0.7048(3)
N2 N 0.10907(10) 0.2441(4) 0.7752(2)
C1 C 0.08923(12) 0.0668(4) 0.7646(3)
C2 C 0.07480(12) 0.3963(4) 0.7785(3)
H2 H 0.08917(12) 0.5074(4) 0.7590(3)
C3 C 0.01895(12) 0.3676(4) 0.6822(3)
C4 C 0.00009(13) 0.1983(5) 0.6558(3)
C5 C 0.07462(12) 0.4225(5) 0.9012(3)
C6 C 0.07277(15) 0.5980(6) 0.9396(3)
H3 H 0.07317(15) 0.6966(6) 0.8928(3)
C7 C 0.0703(2) 0.6251(8) 1.0479(4)
C8 C 0.0698(2) 0.4825(9) 1.1182(4)
C9 C 0.0723(2) 0.3115(9) 1.0822(4)
H4 H 0.0725(2) 0.2141(9) 1.1304(4)
C10 C 0.0746(2) 0.2799(7) 0.9732(4)
H5 H 0.0762(2) 0.1613(7) 0.9488(4)
C11 C 0.16353(12) 0.2848(5) 0.8124(3)
C12 C 0.19997(12) 0.1611(5) 0.7799(2)
C13 C 0.23262(14) 0.0177(7) 0.8696(3)
H6 H 0.21037(14) -0.0827(7) 0.8729(3)
H7 H 0.25100(14) 0.0690(7) 0.9486(3)
C14 C 0.2728(2) -0.0423(7) 0.8166(4)
H8 H 0.3095(2) -0.0230(7) 0.8733(4)
H9 H 0.2680(2) -0.1694(7) 0.7940(4)
C15 C 0.25852(12) 0.0810(5) 0.7065(3)
C16 C 0.20393(15) 0.0167(6) 0.6216(3)
C17 C 0.24253(12) 0.2619(5) 0.7486(3)
C18 C 0.2187(2) 0.3997(6) 0.6485(4)
H10 H 0.1891(9) 0.3457(16) 0.5836(12)
H11 H 0.2455(4) 0.4363(34) 0.6216(21)
H12 H 0.2065(12) 0.5039(21) 0.6771(9)
C19 C 0.28833(15) 0.3502(7) 0.8517(4)
H13 H 0.3038(9) 0.2638(16) 0.9150(13)
H14 H 0.2751(3) 0.4525(30) 0.8798(21)
H15 H 0.3150(7) 0.3904(46) 0.8255(9)
C20 C 0.2992(2) 0.0868(8) 0.6526(4)
H16 H 0.3319(5) 0.1385(46) 0.7090(13)
H17 H 0.2855(7) 0.1598(41) 0.5818(19)
H18 H 0.3057(11) -0.0342(9) 0.6329(29)
C21 C -0.0558(2) 0.1363(5) 0.5776(4)
H19 H -0.0644(6) 0.0306(30) 0.6119(18)
H20 H -0.0580(4) 0.1072(48) 0.4998(11)
H21 H -0.0808(2) 0.2316(19) 0.5713(27)
C22 C -0.01071(13) 0.5328(4) 0.6293(3)
C23 C -0.0889(2) 0.6647(6) 0.4856(4)
H22 H -0.1194(7) 0.6308(9) 0.4150(17)
H23 H -0.0677(4) 0.7510(20) 0.4656(27)
H24 H -0.1007(11) 0.7182(26) 0.5418(12)
loop_
_geom_bond_atom_site_label_1
_geom_bond_atom_site_label_2
_geom_bond_site_symmetry_1
_geom_bond_site_symmetry_2
F1 C8 1_555 1_555
F2 C7 1_555 1_555
O1 C1 1_555 1_555
O2 C11 1_555 1_555
O3 C12 1_555 1_555
O4 C16 1_555 1_555
O5 C22 1_555 1_555
O6 C22 1_555 1_555
N1 H1 1_555 1_555
N2 C1 1_555 1_555
C1 N1 1_555 1_555
C2 N2 1_555 1_555
H2 C2 1_555 1_555
C3 C2 1_555 1_555
C4 N1 1_555 1_555
C5 C2 1_555 1_555
C6 C5 1_555 1_555
H3 C6 1_555 1_555
C7 C6 1_555 1_555
C8 C7 1_555 1_555
C9 C8 1_555 1_555
H4 C9 1_555 1_555
C10 C5 1_555 1_555
H5 C10 1_555 1_555
C11 N2 1_555 1_555
C12 C11 1_555 1_555
C13 C12 1_555 1_555
H6 C13 1_555 1_555
H7 C13 1_555 1_555
C14 C13 1_555 1_555
H8 C14 1_555 1_555
H9 C14 1_555 1_555
C15 C14 1_555 1_555
C16 O3 1_555 1_555
C17 C12 1_555 1_555
C18 C17 1_555 1_555
H10 C18 1_555 1_555
H11 C18 1_555 1_555
H12 C18 1_555 1_555
C19 C17 1_555 1_555
H13 C19 1_555 1_555
H14 C19 1_555 1_555
H15 C19 1_555 1_555
C20 C15 1_555 1_555
H16 C20 1_555 1_555
H17 C20 1_555 1_555
H18 C20 1_555 1_555
C21 C4 1_555 1_555
H19 C21 1_555 1_555
H20 C21 1_555 1_555
H21 C21 1_555 1_555
C22 C3 1_555 1_555
C23 O6 1_555 1_555
H22 C23 1_555 1_555
H23 C23 1_555 1_555
H24 C23 1_555 1_555
C3 C4 1_555 1_555
C9 C10 1_555 1_555
C15 C16 1_555 1_555
C15 C17 1_555 1_555

#END
