
#######################################################################
#
#                 Cambridge Crystallographic Data Centre
#                                CCDC 
#
#######################################################################
#
# If this CIF has been generated from an entry in the Cambridge 
# Structural Database, then it will include bibliographic, chemical, 
# crystal, experimental, refinement or atomic coordinate data resulting 
# from the CCDC's data processing and validation procedures.
#
#######################################################################

data_WOJLOY
_chemical_formula_moiety         'C9 H5 Cl3 N4'
_chemical_name_systematic        
4,6-Dichloro-N-(2-chlorophenyl)-1,3,5-triazin-2-amine
_symmetry_cell_setting           triclinic
_symmetry_space_group_name_H-M   'P -1'
_symmetry_Int_Tables_number      2
_space_group_name_Hall           '-P 1'
loop_
_symmetry_equiv_pos_site_id
_symmetry_equiv_pos_as_xyz
1 x,y,z
2 -x,-y,-z
_cell_length_a                   7.2491(9)
_cell_length_b                   7.9910(9)
_cell_length_c                   10.5039(13)
_cell_angle_alpha                111.954(6)
_cell_angle_beta                 106.411(6)
_cell_angle_gamma                90.111(6)
_cell_volume                     537.38
_exptl_crystal_colour            colorless
_exptl_crystal_description       Plate
_cell_formula_units_Z            2
loop_
_atom_site_label
_atom_site_type_symbol
_atom_site_fract_x
_atom_site_fract_y
_atom_site_fract_z
Cl1 Cl 0.47189(10) 0.95710(7) 0.24807(6)
Cl2 Cl 0.39173(9) 0.25864(7) 0.08297(5)
Cl3 Cl 1.07091(9) 0.84421(8) 0.85361(6)
N1 N 0.4406(2) 0.6089(2) 0.17713(17)
N2 N 0.6364(3) 0.7946(2) 0.41465(18)
N3 N 0.5964(2) 0.4720(2) 0.33916(17)
N4 N 0.7900(3) 0.6655(2) 0.56838(18)
H1 H 0.8274 0.7803 0.6264
C1 C 0.5218(3) 0.7666(3) 0.2854(2)
C2 C 0.6700(3) 0.6401(3) 0.4365(2)
C3 C 0.4865(3) 0.4707(3) 0.2148(2)
C4 C 0.8659(3) 0.5413(3) 0.6295(2)
C5 C 1.0003(3) 0.6117(3) 0.7676(2)
C6 C 1.0775(3) 0.5011(3) 0.8385(2)
H2 H 1.1661 0.5521 0.9332
C7 C 1.0244(3) 0.3153(3) 0.7702(3)
H3 H 1.0767 0.2380 0.8181
C8 C 0.8961(3) 0.2422(3) 0.6332(2)
H4 H 0.8619 0.1143 0.5862
C9 C 0.8157(3) 0.3542(3) 0.5627(2)
H5 H 0.7260 0.3023 0.4684
loop_
_geom_bond_atom_site_label_1
_geom_bond_atom_site_label_2
_geom_bond_site_symmetry_1
_geom_bond_site_symmetry_2
Cl1 C1 1_555 1_555
Cl2 C3 1_555 1_555
Cl3 C5 1_555 1_555
N1 C1 1_555 1_555
N2 C1 1_555 1_555
N3 C2 1_555 1_555
N4 H1 1_555 1_555
C2 N2 1_555 1_555
C3 N1 1_555 1_555
C4 N4 1_555 1_555
C5 C4 1_555 1_555
C6 C5 1_555 1_555
H2 C6 1_555 1_555
C7 C6 1_555 1_555
H3 C7 1_555 1_555
C8 C7 1_555 1_555
H4 C8 1_555 1_555
C9 C4 1_555 1_555
H5 C9 1_555 1_555
N3 C3 1_555 1_555
N4 C2 1_555 1_555
C8 C9 1_555 1_555

#END
