
#######################################################################
#
#                 Cambridge Crystallographic Data Centre
#                                CCDC 
#
#######################################################################
#
# If this CIF has been generated from an entry in the Cambridge 
# Structural Database, then it will include bibliographic, chemical, 
# crystal, experimental, refinement or atomic coordinate data resulting 
# from the CCDC's data processing and validation procedures.
#
#######################################################################

data_WOJQUJ
_chemical_formula_moiety         'C14 H12 N2 O3,H2 O1'
_chemical_name_systematic        
"4-Hydroxy-N'-(3-hydroxybenzylidene)benzohydrazide monohydrate"
_symmetry_cell_setting           triclinic
_symmetry_space_group_name_H-M   'P -1'
_symmetry_Int_Tables_number      2
_space_group_name_Hall           '-P 1'
loop_
_symmetry_equiv_pos_site_id
_symmetry_equiv_pos_as_xyz
1 x,y,z
2 -x,-y,-z
_cell_length_a                   7.1826(5)
_cell_length_b                   9.2043(6)
_cell_length_c                   10.7568(7)
_cell_angle_alpha                91.847(7)
_cell_angle_beta                 102.433(7)
_cell_angle_gamma                110.191(8)
_cell_volume                     647.368
_exptl_crystal_colour            colorless
_cell_formula_units_Z            2
loop_
_atom_site_label
_atom_site_type_symbol
_atom_site_fract_x
_atom_site_fract_y
_atom_site_fract_z
C1 C 0.2487(2) 0.51249(18) 0.02953(16)
H1 H 0.2596 0.6145 0.0499
C2 C 0.2488(2) 0.46303(18) -0.09366(16)
H2 H 0.2560 0.5306 -0.1564
C3 C 0.2379(2) 0.31187(19) -0.12226(15)
C4 C 0.2225(2) 0.20863(19) -0.02998(16)
H3 H 0.2163 0.1077 -0.0499
C5 C 0.2167(2) 0.25738(18) 0.09144(16)
H4 H 0.2022 0.1879 0.1527
C6 C 0.2325(2) 0.41045(18) 0.12303(15)
C7 C 0.2265(3) 0.45636(18) 0.25514(16)
C8 C 0.5163(3) 0.77584(19) 0.48276(16)
H5 H 0.6243 0.8109 0.4432
C9 C 0.5316(3) 0.85792(18) 0.60520(16)
C10 C 0.3753(3) 0.80721(18) 0.66983(16)
H6 H 0.2637 0.7159 0.6379
C11 C 0.3865(3) 0.89243(18) 0.78093(16)
C12 C 0.5575(3) 1.02744(18) 0.83137(16)
H7 H 0.5659 1.0846 0.9066
C13 C 0.7134(3) 1.07503(18) 0.76867(16)
H8 H 0.8278 1.1638 0.8029
C14 C 0.7017(3) 0.99231(18) 0.65541(16)
H9 H 0.8066 1.0262 0.6132
N1 N 0.3623(2) 0.59830(16) 0.30909(13)
H10 H 0.469(3) 0.647(2) 0.2723(17)
N2 N 0.3584(2) 0.65697(15) 0.42830(13)
O1 O 0.24457(19) 0.25851(13) -0.24143(11)
H11 H 0.195(3) 0.309(2) -0.3059(19)
O2 O 0.10482(18) 0.37043(13) 0.31151(11)
O3 O 0.23698(19) 0.84893(14) 0.84718(12)
H12 H 0.125(3) 0.776(2) 0.7930(18)
O4 O -0.0770(2) 0.61780(16) 0.42664(13)
H13 H 0.047(3) 0.624(2) 0.4329(19)
H14 H -0.101(3) 0.615(2) 0.505(2)
loop_
_geom_bond_atom_site_label_1
_geom_bond_atom_site_label_2
_geom_bond_site_symmetry_1
_geom_bond_site_symmetry_2
C1 H1 1_555 1_555
C2 C1 1_555 1_555
H2 C2 1_555 1_555
C3 C2 1_555 1_555
C4 C3 1_555 1_555
H3 C4 1_555 1_555
C5 C4 1_555 1_555
H4 C5 1_555 1_555
C6 C1 1_555 1_555
C7 C6 1_555 1_555
C8 H5 1_555 1_555
C9 C8 1_555 1_555
C10 C9 1_555 1_555
H6 C10 1_555 1_555
C11 C10 1_555 1_555
C12 C11 1_555 1_555
H7 C12 1_555 1_555
C13 C12 1_555 1_555
H8 C13 1_555 1_555
C14 C9 1_555 1_555
H9 C14 1_555 1_555
N1 C7 1_555 1_555
H10 N1 1_555 1_555
N2 C8 1_555 1_555
O1 C3 1_555 1_555
H11 O1 1_555 1_555
O2 C7 1_555 1_555
O3 C11 1_555 1_555
H12 O3 1_555 1_555
O4 H13 1_555 1_555
H14 O4 1_555 1_555
C5 C6 1_555 1_555
C13 C14 1_555 1_555
N1 N2 1_555 1_555

#END
