
#######################################################################
#
#                 Cambridge Crystallographic Data Centre
#                                CCDC 
#
#######################################################################
#
# If this CIF has been generated from an entry in the Cambridge 
# Structural Database, then it will include bibliographic, chemical, 
# crystal, experimental, refinement or atomic coordinate data resulting 
# from the CCDC's data processing and validation procedures.
#
#######################################################################

data_WOJROC
_chemical_formula_moiety         'C14 H14 Cl1 N1 O2 S1'
_chemical_name_systematic        
(R)-N-(\a-Methylbenzyl)-4-chlorobenzenesulfonamide
_symmetry_cell_setting           monoclinic
_symmetry_space_group_name_H-M   'P 21'
_symmetry_Int_Tables_number      4
_space_group_name_Hall           'P 2yb'
loop_
_symmetry_equiv_pos_site_id
_symmetry_equiv_pos_as_xyz
1 x,y,z
2 -x,1/2+y,-z
_cell_length_a                   8.2640(15)
_cell_length_b                   10.033(2)
_cell_length_c                   9.0655(15)
_cell_angle_alpha                90
_cell_angle_beta                 106.793(9)
_cell_angle_gamma                90
_cell_volume                     719.591
_exptl_crystal_colour            colorless
_exptl_crystal_description       rods
_cell_formula_units_Z            2
_exptl_crystal_recrystallization_method dichloromethane
loop_
_atom_site_label
_atom_site_type_symbol
_atom_site_fract_x
_atom_site_fract_y
_atom_site_fract_z
Cl1 Cl 0.00197(19) 0.6411(2) 0.32596(14)
S1 S 0.44515(14) 0.70949(12) 1.00549(10)
N1 N 0.5980(5) 0.8047(4) 0.9946(4)
H1 H 0.562(5) 0.877(5) 0.952(5)
O1 O 0.5182(4) 0.5843(3) 1.0627(3)
O2 O 0.3504(4) 0.7821(4) 1.0871(3)
C1 C 0.3108(5) 0.6838(4) 0.8157(4)
C2 C 0.3291(5) 0.5715(5) 0.7345(4)
H2 H 0.4059 0.5054 0.7809
C3 C 0.2316(6) 0.5583(5) 0.5831(5)
H3 H 0.2416 0.4832 0.5261
C4 C 0.1201(5) 0.6577(6) 0.5185(4)
C5 C 0.0994(6) 0.7686(6) 0.5994(6)
H4 H 0.0201 0.8333 0.5538
C6 C 0.1982(5) 0.7823(5) 0.7489(5)
H5 H 0.1888 0.8582 0.8049
C7 C 0.7458(5) 0.7569(5) 0.9509(4)
H6 H 0.7939 0.6814 1.0177
C8 C 0.8742(6) 0.8692(7) 0.9871(6)
H7 H 0.8955 0.8952 1.0929
H8 H 0.8307 0.9440 0.9216
H9 H 0.9775 0.8394 0.9697
C9 C 0.7060(5) 0.7101(5) 0.7849(4)
C10 C 0.7572(6) 0.5846(5) 0.7550(6)
H10 H 0.8139 0.5295 0.8360
C11 C 0.7243(8) 0.5408(7) 0.6052(8)
H11 H 0.7615 0.4569 0.5859
C12 C 0.6384(8) 0.6185(7) 0.4849(6)
H12 H 0.6163 0.5876 0.3843
C13 C 0.5852(6) 0.7415(6) 0.5129(5)
H13 H 0.5250 0.7945 0.4313
C14 C 0.6201(6) 0.7882(5) 0.6625(5)
H14 H 0.5852 0.8732 0.6804
loop_
_geom_bond_atom_site_label_1
_geom_bond_atom_site_label_2
_geom_bond_site_symmetry_1
_geom_bond_site_symmetry_2
Cl1 C4 1_555 1_555
S1 N1 1_555 1_555
N1 H1 1_555 1_555
O1 S1 1_555 1_555
O2 S1 1_555 1_555
C1 S1 1_555 1_555
C2 C1 1_555 1_555
H2 C2 1_555 1_555
C3 C2 1_555 1_555
H3 C3 1_555 1_555
C4 C3 1_555 1_555
C5 C4 1_555 1_555
H4 C5 1_555 1_555
C6 C1 1_555 1_555
H5 C6 1_555 1_555
C7 N1 1_555 1_555
H6 C7 1_555 1_555
C8 C7 1_555 1_555
H7 C8 1_555 1_555
H8 C8 1_555 1_555
H9 C8 1_555 1_555
C9 C7 1_555 1_555
C10 C9 1_555 1_555
H10 C10 1_555 1_555
C11 C10 1_555 1_555
H11 C11 1_555 1_555
C12 C11 1_555 1_555
H12 C12 1_555 1_555
C13 C12 1_555 1_555
H13 C13 1_555 1_555
C14 C9 1_555 1_555
H14 C14 1_555 1_555
C5 C6 1_555 1_555
C13 C14 1_555 1_555

#END
