
#######################################################################
#
#                 Cambridge Crystallographic Data Centre
#                                CCDC 
#
#######################################################################
#
# If this CIF has been generated from an entry in the Cambridge 
# Structural Database, then it will include bibliographic, chemical, 
# crystal, experimental, refinement or atomic coordinate data resulting 
# from the CCDC's data processing and validation procedures.
#
#######################################################################

data_WOJYAX
_chemical_formula_moiety         
'C4 H4 N1 O4 S1 1-,C4 H5 F1 N3 O1 1+,C4 H4 F1 N3 O1'
_chemical_name_systematic        
'5-fluoro-2-oxo-2,3-dihydropyrimidin-4(1H)-iminium 6-methyl-4-oxo-4H-1,2,3-oxathiazin-3-ide 2,2-dioxide 4-amino-5-fluoropyrimidin-2(1H)-one'
_symmetry_cell_setting           triclinic
_symmetry_space_group_name_H-M   'P -1'
_symmetry_Int_Tables_number      2
_space_group_name_Hall           '-P 1'
loop_
_symmetry_equiv_pos_site_id
_symmetry_equiv_pos_as_xyz
1 x,y,z
2 -x,-y,-z
_cell_length_a                   7.2613(2)
_cell_length_b                   10.5289(3)
_cell_length_c                   11.6662(4)
_cell_angle_alpha                66.8180(11)
_cell_angle_beta                 82.0220(12)
_cell_angle_gamma                78.5670(12)
_cell_volume                     801.808
_exptl_crystal_colour            colorless
_exptl_crystal_description       block
_cell_formula_units_Z            2
loop_
_atom_site_label
_atom_site_type_symbol
_atom_site_fract_x
_atom_site_fract_y
_atom_site_fract_z
S1 S 0.67223(5) 0.18926(3) 0.57615(3)
O1 O 0.51432(14) 0.08990(10) 0.60165(9)
O2 O 0.59298(14) 0.19222(10) 0.89245(9)
O3 O 0.85072(15) 0.10256(11) 0.57391(10)
O4 O 0.62351(16) 0.30056(11) 0.46060(9)
N1 N 0.64352(17) 0.24393(12) 0.68509(11)
C1 C 0.59020(18) 0.15839(13) 0.80170(12)
C2 C 0.51492(18) 0.03163(13) 0.82011(12)
H1 H 0.4954 -0.0339 0.9027
C3 C 0.47323(18) 0.00580(13) 0.72454(12)
C4 C 0.3698(2) -0.10541(15) 0.73081(14)
H2 H 0.3421 -0.1637 0.8185
H3 H 0.4473 -0.1636 0.6885
H4 H 0.2516 -0.0623 0.6897
F1 F 0.81797(14) 0.73340(9) 0.55540(7)
O5 O 0.70149(15) 0.40797(10) 1.03439(9)
N2 N 0.69574(16) 0.44404(12) 0.82950(10)
H5 H 0.660(2) 0.3591(18) 0.8515(15)
N3 N 0.79261(16) 0.60710(11) 0.88737(10)
H6 H 0.810(2) 0.6321(17) 0.9471(16)
N4 N 0.89379(17) 0.80741(11) 0.74135(11)
H7 H 0.9162 0.8309 0.8020
H8 H 0.9160 0.8619 0.6629
C5 C 0.72730(18) 0.48073(13) 0.92400(12)
C6 C 0.82746(18) 0.69172(13) 0.76766(12)
C7 C 0.78800(19) 0.64746(14) 0.67454(12)
C8 C 0.72368(19) 0.52627(14) 0.70667(12)
H9 H 0.6975 0.4977 0.6437
F2 F 0.82126(13) 0.56825(9) 0.41381(7)
O6 O 0.94487(14) 0.88695(9) -0.06567(8)
N5 N 0.85485(15) 0.68625(11) 0.07872(10)
N6 N 0.94782(16) 0.85181(12) 0.13833(10)
H10 H 0.984(2) 0.9333(19) 0.1133(15)
N7 N 0.75923(17) 0.48769(12) 0.23033(11)
H11 H 0.734(2) 0.4412(18) 0.3013(17)
H12 H 0.737(2) 0.4638(18) 0.1734(17)
C9 C 0.91597(18) 0.81033(13) 0.04648(12)
C10 C 0.81965(18) 0.60798(13) 0.19929(12)
C11 C 0.85211(19) 0.65308(14) 0.29403(12)
C12 C 0.91699(19) 0.77388(14) 0.26198(12)
H13 H 0.9410 0.8046 0.3241
loop_
_geom_bond_atom_site_label_1
_geom_bond_atom_site_label_2
_geom_bond_site_symmetry_1
_geom_bond_site_symmetry_2
S1 O1 1_555 1_555
O1 C3 1_555 1_555
O2 C1 1_555 1_555
O3 S1 1_555 1_555
O4 S1 1_555 1_555
N1 S1 1_555 1_555
C1 N1 1_555 1_555
C2 C1 1_555 1_555
H1 C2 1_555 1_555
C3 C2 1_555 1_555
C4 C3 1_555 1_555
H2 C4 1_555 1_555
H3 C4 1_555 1_555
H4 C4 1_555 1_555
F1 C7 1_555 1_555
O5 C5 1_555 1_555
N2 H5 1_555 1_555
N3 H6 1_555 1_555
N4 H7 1_555 1_555
H8 N4 1_555 1_555
C5 N2 1_555 1_555
C6 N3 1_555 1_555
C7 C6 1_555 1_555
C8 N2 1_555 1_555
H9 C8 1_555 1_555
F2 C11 1_555 1_555
O6 C9 1_555 1_555
N5 C9 1_555 1_555
N6 H10 1_555 1_555
N7 H11 1_555 1_555
H12 N7 1_555 1_555
C9 N6 1_555 1_555
C10 N5 1_555 1_555
C11 C10 1_555 1_555
C12 N6 1_555 1_555
H13 C12 1_555 1_555
N3 C5 1_555 1_555
N4 C6 1_555 1_555
C7 C8 1_555 1_555
N7 C10 1_555 1_555
C11 C12 1_555 1_555

#END
