
#######################################################################
#
#                 Cambridge Crystallographic Data Centre
#                                CCDC 
#
#######################################################################
#
# If this CIF has been generated from an entry in the Cambridge 
# Structural Database, then it will include bibliographic, chemical, 
# crystal, experimental, refinement or atomic coordinate data resulting 
# from the CCDC's data processing and validation procedures.
#
#######################################################################

data_WOJZUR
_chemical_formula_moiety         '0.5(C10 H10 N2 2+),C8 H12 N1 O6 P2 1-'
_chemical_name_systematic        
"4,4'-bipyridinium hydrogen (1-ammonio-2-phenyl-1-phosphonatoethyl)phosphonate"
_symmetry_cell_setting           triclinic
_symmetry_space_group_name_H-M   'P -1'
_symmetry_Int_Tables_number      2
_space_group_name_Hall           '-P 1'
loop_
_symmetry_equiv_pos_site_id
_symmetry_equiv_pos_as_xyz
1 x,y,z
2 -x,-y,-z
_cell_length_a                   7.9838(6)
_cell_length_b                   9.6318(7)
_cell_length_c                   10.6189(8)
_cell_angle_alpha                90.6150(10)
_cell_angle_beta                 90.5860(10)
_cell_angle_gamma                111.1740(10)
_cell_volume                     761.316
_exptl_crystal_colour            yellow
_exptl_crystal_description       block
_cell_formula_units_Z            2
_exptl_crystal_preparation       luminescent
loop_
_atom_site_label
_atom_site_type_symbol
_atom_site_fract_x
_atom_site_fract_y
_atom_site_fract_z
C1 C 0.6596(2) 0.30831(16) 0.44496(14)
C2 C 0.7510(2) 0.20847(18) 0.38123(15)
H1 H 0.8665 0.2279 0.4223
H2 H 0.6778 0.1051 0.3955
C3 C 0.7803(2) 0.22964(18) 0.24099(16)
C4 C 0.6470(3) 0.1599(2) 0.15135(17)
H3 H 0.5344 0.0969 0.1770
C5 C 0.6812(3) 0.1839(3) 0.02388(19)
H4 H 0.5908 0.1373 -0.0351
C6 C 0.8477(3) 0.2760(2) -0.0164(2)
H5 H 0.8695 0.2921 -0.1018
C7 C 0.9816(3) 0.3442(2) 0.0717(2)
H6 H 1.0946 0.4057 0.0454
C8 C 0.9484(3) 0.3214(2) 0.19893(19)
H7 H 1.0396 0.3680 0.2573
N1 N 0.74218(18) 0.46451(14) 0.39603(13)
H12 H 0.8611 0.4958 0.4047
H13 H 0.7011 0.5247 0.4395
H14 H 0.7130 0.4652 0.3150
O1 O 0.39972(17) 0.32285(14) 0.28574(11)
O2 O 0.34641(17) 0.07750(13) 0.38950(13)
O3 O 0.32321(16) 0.29637(13) 0.51375(11)
O4 O 0.59925(17) 0.16433(14) 0.66672(12)
O5 O 0.64281(19) 0.42981(14) 0.67896(12)
O6 O 0.91176(17) 0.35575(15) 0.62784(12)
P1 P 0.71478(5) 0.32304(4) 0.61734(4)
P2 P 0.41373(5) 0.24126(4) 0.41123(4)
H15 H 0.625(4) 0.101(3) 0.644(3)
H17 H 0.378(4) 0.394(3) 0.302(3)
C9 C 0.0461(3) 0.0708(3) 0.71912(18)
H8 H -0.0124 0.0479 0.6412
C10 C -0.0400(3) -0.0002(2) 0.82528(18)
H9 H -0.1549 -0.0722 0.8187
C11 C 0.0456(2) 0.03635(19) 0.94173(15)
C12 C 0.2182(3) 0.1438(2) 0.94630(19)
H10 H 0.2790 0.1713 1.0231
C13 C 0.2986(3) 0.2088(2) 0.8373(2)
H11 H 0.4145 0.2794 0.8403
N2 N 0.2110(2) 0.17124(19) 0.72708(15)
H16 H 0.269(4) 0.224(3) 0.651(3)
C11A C -0.0456(2) -0.03635(19) 1.05827(15)
C10A C 0.0400(3) 0.0002(2) 1.17472(18)
C9A C -0.0461(3) -0.0708(3) 1.28088(18)
H8A H 0.0124 -0.0479 1.3588
N2A N -0.2110(2) -0.17124(19) 1.27292(15)
C13A C -0.2986(3) -0.2088(2) 1.1627(2)
C12A C -0.2182(3) -0.1438(2) 1.05370(19)
H10A H -0.2790 -0.1713 0.9769
H11A H -0.4145 -0.2794 1.1597
H16A H -0.269(4) -0.224(3) 1.349(3)
H9A H 0.1549 0.0722 1.1813
loop_
_geom_bond_atom_site_label_1
_geom_bond_atom_site_label_2
_geom_bond_site_symmetry_1
_geom_bond_site_symmetry_2
C1 C2 1_555 1_555
C2 H1 1_555 1_555
H2 C2 1_555 1_555
C3 C2 1_555 1_555
C4 C3 1_555 1_555
H3 C4 1_555 1_555
C5 C4 1_555 1_555
H4 C5 1_555 1_555
C6 C5 1_555 1_555
H5 C6 1_555 1_555
C7 C6 1_555 1_555
H6 C7 1_555 1_555
C8 C3 1_555 1_555
H7 C8 1_555 1_555
C9 H8 1_555 1_555
C10 C9 1_555 1_555
H9 C10 1_555 1_555
C11 C10 1_555 1_555
C12 C11 1_555 1_555
H10 C12 1_555 1_555
C13 C12 1_555 1_555
H11 C13 1_555 1_555
N1 C1 1_555 1_555
H12 N1 1_555 1_555
H13 N1 1_555 1_555
H14 N1 1_555 1_555
N2 C9 1_555 1_555
O1 P2 1_555 1_555
O2 P2 1_555 1_555
O3 P2 1_555 1_555
O4 P1 1_555 1_555
O5 P1 1_555 1_555
O6 P1 1_555 1_555
P1 C1 1_555 1_555
P2 C1 1_555 1_555
H15 O4 1_555 1_555
H16 N2 1_555 1_555
H17 O1 1_555 1_555
C11A C11 1_555 1_555
C10A C11A 1_555 1_555
C9A C10A 1_555 1_555
H8A C9A 1_555 1_555
N2A C9A 1_555 1_555
C13A N2A 1_555 1_555
C12A C11A 1_555 1_555
H10A C12A 1_555 1_555
H11A C13A 1_555 1_555
H16A N2A 1_555 1_555
H9A C10A 1_555 1_555
C7 C8 1_555 1_555
C13 N2 1_555 1_555
C13A C12A 1_555 1_555

#END
