
#######################################################################
#
#                 Cambridge Crystallographic Data Centre
#                                CCDC 
#
#######################################################################
#
# If this CIF has been generated from an entry in the Cambridge 
# Structural Database, then it will include bibliographic, chemical, 
# crystal, experimental, refinement or atomic coordinate data resulting 
# from the CCDC's data processing and validation procedures.
#
#######################################################################

data_WOKGOT
_chemical_formula_moiety         'C20 H20 N2 O1'
_chemical_name_systematic        
(R)-2-(pyrrol-2-ylmethyleneamino)-2'-methoxy-6,6'-dimethyl-1,1'-biphenyl
_symmetry_cell_setting           monoclinic
_symmetry_space_group_name_H-M   'P 21'
_symmetry_Int_Tables_number      4
_space_group_name_Hall           'P 2yb'
loop_
_symmetry_equiv_pos_site_id
_symmetry_equiv_pos_as_xyz
1 x,y,z
2 -x,1/2+y,-z
_cell_length_a                   7.9931(8)
_cell_length_b                   18.730(2)
_cell_length_c                   11.5194(13)
_cell_angle_alpha                90
_cell_angle_beta                 99.603(2)
_cell_angle_gamma                90
_cell_volume                     1700.41
_exptl_crystal_colour            colorless
_exptl_crystal_description       prism
_chemical_melting_point          '98-100 deg.C'
_cell_formula_units_Z            4
_exptl_crystal_recrystallization_method n-hexane
loop_
_atom_site_label
_atom_site_type_symbol
_atom_site_fract_x
_atom_site_fract_y
_atom_site_fract_z
O1 O 0.9478(2) 0.13241(8) 0.52725(15)
N1 N 0.6424(2) 0.28385(10) 0.40807(14)
N2 N 0.5070(2) 0.28160(11) 0.15568(14)
H1 H 0.488(3) 0.3236(16) 0.185(2)
C1 C 0.9997(3) 0.25323(11) 0.50000(19)
C2 C 1.0338(3) 0.18230(11) 0.4727(2)
C3 C 1.1443(3) 0.16588(13) 0.3956(2)
H3 H 1.1650 0.1176 0.3772
C4 C 1.2235(3) 0.22070(15) 0.3463(3)
H4 H 1.2974 0.2100 0.2920
C5 C 1.1969(3) 0.29077(14) 0.3747(2)
H5 H 1.2548 0.3278 0.3412
C6 C 1.0864(3) 0.30798(12) 0.4516(2)
C7 C 1.0598(4) 0.38417(12) 0.4835(2)
H6 H 1.1282 0.4153 0.4416
H7 H 1.0943 0.3905 0.5686
H8 H 0.9396 0.3965 0.4612
C8 C 0.8737(3) 0.26739(11) 0.57881(18)
C9 C 0.7017(3) 0.27719(12) 0.53221(16)
C10 C 0.5813(3) 0.28475(15) 0.6059(2)
H9 H 0.4649 0.2908 0.5732
C11 C 0.6310(4) 0.28337(15) 0.7268(2)
H10 H 0.5489 0.2874 0.7773
C12 C 0.8007(4) 0.27613(15) 0.77370(19)
H11 H 0.8345 0.2767 0.8568
C13 C 0.9234(3) 0.26803(12) 0.70184(19)
C14 C 1.1084(4) 0.25949(15) 0.7548(2)
H12 H 1.1203 0.2587 0.8408
H13 H 1.1733 0.2996 0.7306
H14 H 1.1515 0.2147 0.7272
C15 C 0.9777(4) 0.05939(12) 0.5040(3)
H15 H 0.9409 0.0496 0.4200
H16 H 0.9138 0.0292 0.5505
H17 H 1.0992 0.0490 0.5254
C16 C 0.6529(2) 0.22893(12) 0.34359(17)
H18 H 0.7064 0.1874 0.3799
C17 C 0.5885(3) 0.22630(12) 0.21963(17)
C18 C 0.5839(3) 0.16798(13) 0.1451(2)
H19 H 0.6314 0.1222 0.1652
C19 C 0.4959(4) 0.18909(14) 0.0342(2)
H20 H 0.4729 0.1602 -0.0344
C20 C 0.4497(3) 0.25923(13) 0.04363(18)
H21 H 0.3881 0.2874 -0.0177
O2 O 0.0458(2) 0.33878(8) 0.07441(13)
N3 N 0.4130(2) 0.43719(10) 0.16976(14)
N4 N 0.5242(2) 0.43793(11) 0.42810(15)
H2 H 0.542(3) 0.3922(16) 0.407(2)
C21 C 0.0596(2) 0.46373(11) 0.07193(16)
C22 C -0.0089(3) 0.40196(12) 0.11464(17)
C23 C -0.1238(3) 0.40694(14) 0.19293(18)
H22 H -0.1695 0.3650 0.2220
C24 C -0.1704(3) 0.47334(16) 0.2275(2)
H23 H -0.2460 0.4770 0.2827
C25 C -0.1096(3) 0.53412(15) 0.1837(2)
H24 H -0.1455 0.5794 0.2075
C26 C 0.0052(3) 0.53045(12) 0.10408(19)
C27 C 0.0670(4) 0.59835(13) 0.0566(2)
H25 H -0.0227 0.6184 -0.0029
H26 H 0.1673 0.5883 0.0207
H27 H 0.0966 0.6327 0.1209
C28 C 0.1915(2) 0.45664(10) -0.00524(16)
C29 C 0.3623(3) 0.44623(11) 0.04561(16)
C30 C 0.4878(3) 0.44157(13) -0.02519(18)
H28 H 0.6027 0.4339 0.0096
C31 C 0.4441(3) 0.44822(12) -0.14601(19)
H29 H 0.5296 0.4464 -0.1942
C32 C 0.2755(3) 0.45752(12) -0.19704(17)
H30 H 0.2467 0.4615 -0.2802
C33 C 0.1486(3) 0.46112(11) -0.12863(17)
C34 C -0.0347(3) 0.46923(15) -0.18507(18)
H31 H -0.0445 0.4644 -0.2707
H32 H -0.0759 0.5164 -0.1661
H33 H -0.1028 0.4321 -0.1551
C35 C -0.0451(4) 0.27608(14) 0.0977(2)
H34 H -0.0397 0.2707 0.1829
H35 H 0.0060 0.2342 0.0665
H36 H -0.1638 0.2804 0.0597
C36 C 0.3990(2) 0.49159(12) 0.23462(17)
H37 H 0.3516 0.5338 0.1970
C37 C 0.4501(3) 0.49341(12) 0.36055(17)
C38 C 0.4426(3) 0.55143(13) 0.43448(19)
H38 H 0.3986 0.5974 0.4118
C39 C 0.5122(3) 0.52949(14) 0.54941(19)
H39 H 0.5228 0.5577 0.6188
C40 C 0.5616(3) 0.45987(14) 0.54240(17)
H40 H 0.6135 0.4314 0.6067
loop_
_geom_bond_atom_site_label_1
_geom_bond_atom_site_label_2
_geom_bond_site_symmetry_1
_geom_bond_site_symmetry_2
O1 C2 1_555 1_555
O2 C22 1_555 1_555
N1 C9 1_555 1_555
N2 H1 1_555 1_555
N3 C29 1_555 1_555
N4 H2 1_555 1_555
C1 C2 1_555 1_555
C2 C3 1_555 1_555
C3 H3 1_555 1_555
C4 C3 1_555 1_555
H4 C4 1_555 1_555
C5 C4 1_555 1_555
H5 C5 1_555 1_555
C6 C1 1_555 1_555
C7 C6 1_555 1_555
H6 C7 1_555 1_555
H7 C7 1_555 1_555
H8 C7 1_555 1_555
C8 C1 1_555 1_555
C9 C8 1_555 1_555
C10 C9 1_555 1_555
H9 C10 1_555 1_555
C11 C10 1_555 1_555
H10 C11 1_555 1_555
C12 C11 1_555 1_555
H11 C12 1_555 1_555
C13 C8 1_555 1_555
C14 C13 1_555 1_555
H12 C14 1_555 1_555
H13 C14 1_555 1_555
H14 C14 1_555 1_555
C15 O1 1_555 1_555
H15 C15 1_555 1_555
H16 C15 1_555 1_555
H17 C15 1_555 1_555
C16 N1 1_555 1_555
H18 C16 1_555 1_555
C17 N2 1_555 1_555
C18 C17 1_555 1_555
H19 C18 1_555 1_555
C19 C18 1_555 1_555
H20 C19 1_555 1_555
C20 N2 1_555 1_555
H21 C20 1_555 1_555
C21 C22 1_555 1_555
C22 C23 1_555 1_555
C23 H22 1_555 1_555
C24 C23 1_555 1_555
H23 C24 1_555 1_555
C25 C24 1_555 1_555
H24 C25 1_555 1_555
C26 C21 1_555 1_555
C27 C26 1_555 1_555
H25 C27 1_555 1_555
H26 C27 1_555 1_555
H27 C27 1_555 1_555
C28 C21 1_555 1_555
C29 C28 1_555 1_555
C30 C29 1_555 1_555
H28 C30 1_555 1_555
C31 C30 1_555 1_555
H29 C31 1_555 1_555
C32 C31 1_555 1_555
H30 C32 1_555 1_555
C33 C28 1_555 1_555
C34 C33 1_555 1_555
H31 C34 1_555 1_555
H32 C34 1_555 1_555
H33 C34 1_555 1_555
C35 O2 1_555 1_555
H34 C35 1_555 1_555
H35 C35 1_555 1_555
H36 C35 1_555 1_555
C36 N3 1_555 1_555
H37 C36 1_555 1_555
C37 N4 1_555 1_555
C38 C37 1_555 1_555
H38 C38 1_555 1_555
C39 C38 1_555 1_555
H39 C39 1_555 1_555
C40 N4 1_555 1_555
H40 C40 1_555 1_555
C5 C6 1_555 1_555
C12 C13 1_555 1_555
C16 C17 1_555 1_555
C19 C20 1_555 1_555
C25 C26 1_555 1_555
C32 C33 1_555 1_555
C36 C37 1_555 1_555
C39 C40 1_555 1_555

#END
