
#######################################################################
#
#                 Cambridge Crystallographic Data Centre
#                                CCDC 
#
#######################################################################
#
# If this CIF has been generated from an entry in the Cambridge 
# Structural Database, then it will include bibliographic, chemical, 
# crystal, experimental, refinement or atomic coordinate data resulting 
# from the CCDC's data processing and validation procedures.
#
#######################################################################

data_WOKNUH
_chemical_formula_moiety         'C16 H12 F3 N3 O2 S2'
_chemical_name_systematic        
N'-(3-(3-(Trifluoromethyl)phenyl)-1,3-thiazol-2(3H)-ylidene)benzenesulfonohydrazide
_symmetry_cell_setting           monoclinic
_symmetry_space_group_name_H-M   'P 21/a'
_symmetry_Int_Tables_number      14
_space_group_name_Hall           '-P 2yab'
loop_
_symmetry_equiv_pos_site_id
_symmetry_equiv_pos_as_xyz
1 x,y,z
2 1/2-x,1/2+y,-z
3 -x,-y,-z
4 1/2+x,1/2-y,z
_cell_length_a                   7.4757(4)
_cell_length_b                   13.5850(7)
_cell_length_c                   16.5455(10)
_cell_angle_alpha                90
_cell_angle_beta                 99.698(2)
_cell_angle_gamma                90
_cell_volume                     1656.3
_exptl_crystal_colour            colorless
_exptl_crystal_description       prism
_cell_formula_units_Z            4
loop_
_atom_site_label
_atom_site_type_symbol
_atom_site_fract_x
_atom_site_fract_y
_atom_site_fract_z
S1 S 0.74427(6) 0.01100(3) 0.50650(2)
S2 S 0.48410(6) -0.13795(3) 0.30963(2)
O1 O 0.42625(16) -0.22882(9) 0.34174(7)
O2 O 0.37040(16) -0.05297(9) 0.30649(7)
N1 N 0.8758(2) 0.12580(10) 0.40678(8)
N2 N 0.7609(2) -0.02379(10) 0.34572(8)
N3 N 0.6751(2) -0.11165(11) 0.37083(8)
C1 C 1.0319(3) 0.10440(15) 0.12988(11)
F1 F 1.14737(19) 0.14522(10) 0.08638(7)
F2 F 0.87834(18) 0.09440(10) 0.07577(7)
F3 F 1.0902(2) 0.01456(10) 0.14877(8)
C2 C 1.0046(2) 0.16453(13) 0.20207(10)
C3 C 1.0111(3) 0.26609(14) 0.19837(11)
H1 H 1.0413 0.2981 0.1514
C4 C 0.9731(3) 0.32043(14) 0.26412(11)
H2 H 0.9787 0.3903 0.2625
C5 C 0.9271(2) 0.27412(13) 0.33224(11)
H3 H 0.8983 0.3121 0.3765
C6 C 0.9232(2) 0.17170(13) 0.33581(10)
C7 C 0.9631(2) 0.11601(13) 0.27062(10)
H4 H 0.9621 0.0461 0.2728
C8 C 0.7940(2) 0.03481(12) 0.40847(10)
C9 C 0.8429(2) 0.12189(13) 0.54222(10)
H5 H 0.8517 0.1440 0.5972
C10 C 0.9049(2) 0.17238(13) 0.48377(10)
H6 H 0.9635 0.2344 0.4932
C11 C 0.5330(2) -0.16211(12) 0.21110(10)
C12 C 0.5466(2) -0.25878(13) 0.18624(10)
H7 H 0.5285 -0.3115 0.2217
C13 C 0.5869(3) -0.27776(14) 0.10897(11)
H8 H 0.5962 -0.3437 0.0911
C14 C 0.6136(3) -0.20050(15) 0.05798(11)
H9 H 0.6405 -0.2137 0.0050
C15 C 0.6014(3) -0.10456(15) 0.08324(11)
H10 H 0.6211 -0.0520 0.0479
C16 C 0.5606(3) -0.08450(14) 0.16005(11)
H11 H 0.5516 -0.0184 0.1777
H12 H 0.750(2) -0.1630(10) 0.3721(11)
loop_
_geom_bond_atom_site_label_1
_geom_bond_atom_site_label_2
_geom_bond_site_symmetry_1
_geom_bond_site_symmetry_2
S1 C8 1_555 1_555
S2 O1 1_555 1_555
O2 S2 1_555 1_555
N1 C6 1_555 1_555
N2 N3 1_555 1_555
N3 S2 1_555 1_555
C1 F1 1_555 1_555
F2 C1 1_555 1_555
F3 C1 1_555 1_555
C2 C1 1_555 1_555
C3 C2 1_555 1_555
H1 C3 1_555 1_555
C4 C3 1_555 1_555
H2 C4 1_555 1_555
C5 C4 1_555 1_555
H3 C5 1_555 1_555
C6 C5 1_555 1_555
C7 C2 1_555 1_555
H4 C7 1_555 1_555
C8 N1 1_555 1_555
C9 S1 1_555 1_555
H5 C9 1_555 1_555
C10 N1 1_555 1_555
H6 C10 1_555 1_555
C11 S2 1_555 1_555
C12 C11 1_555 1_555
H7 C12 1_555 1_555
C13 C12 1_555 1_555
H8 C13 1_555 1_555
C14 C13 1_555 1_555
H9 C14 1_555 1_555
C15 C14 1_555 1_555
H10 C15 1_555 1_555
C16 C11 1_555 1_555
H11 C16 1_555 1_555
H12 N3 1_555 1_555
N2 C8 1_555 1_555
C6 C7 1_555 1_555
C9 C10 1_555 1_555
C15 C16 1_555 1_555

#END
