
#######################################################################
#
#                 Cambridge Crystallographic Data Centre
#                                CCDC 
#
#######################################################################
#
# If this CIF has been generated from an entry in the Cambridge 
# Structural Database, then it will include bibliographic, chemical, 
# crystal, experimental, refinement or atomic coordinate data resulting 
# from the CCDC's data processing and validation procedures.
#
#######################################################################

data_WOKNUG01
_chemical_name_common            8-acetyl-7-hydroxy-4-methylcoumarin
_chemical_formula_moiety         'C12 H10 O4'
_chemical_name_systematic        8-Acetyl-7-hydroxy-4-methyl-2H-chromen-2-one
_symmetry_cell_setting           triclinic
_symmetry_space_group_name_H-M   'P -1'
_symmetry_Int_Tables_number      2
_space_group_name_Hall           '-P 1'
loop_
_symmetry_equiv_pos_site_id
_symmetry_equiv_pos_as_xyz
1 x,y,z
2 -x,-y,-z
_cell_length_a                   7.514(12)
_cell_length_b                   8.352(14)
_cell_length_c                   9.080(15)
_cell_angle_alpha                69.070(14)
_cell_angle_beta                 72.274(14)
_cell_angle_gamma                89.133(15)
_cell_volume                     504.15
_exptl_crystal_colour            colorless
_exptl_crystal_description       block
_cell_formula_units_Z            2
loop_
_atom_site_label
_atom_site_type_symbol
_atom_site_fract_x
_atom_site_fract_y
_atom_site_fract_z
C1 C -0.1220(4) 0.6973(4) 0.3494(3)
C2 C -0.2346(4) 0.5405(4) 0.4666(3)
H1 H -0.3322 0.5448 0.5568
C3 C -0.2048(4) 0.3880(3) 0.4512(3)
C4 C -0.0535(3) 0.3802(3) 0.3116(3)
C5 C 0.0563(3) 0.5314(3) 0.1961(3)
C6 C 0.2028(3) 0.5385(3) 0.0525(3)
C7 C 0.2323(4) 0.3794(4) 0.0316(3)
C8 C 0.1282(4) 0.2280(4) 0.1469(4)
H2 H 0.1533 0.1248 0.1312
C9 C -0.0112(4) 0.2284(3) 0.2835(4)
H3 H -0.0801 0.1249 0.3602
C10 C -0.3271(4) 0.2263(4) 0.5752(3)
H4 H -0.4174 0.2525 0.6620
H5 H -0.2507 0.1432 0.6225
H6 H -0.3916 0.1799 0.5205
C11 C 0.3222(4) 0.6960(4) -0.0742(3)
C12 C 0.3146(5) 0.8661(4) -0.0576(4)
H7 H 0.4125 0.9468 -0.1480
H8 H 0.3316 0.8555 0.0460
H9 H 0.1948 0.9064 -0.0599
O1 O 0.0209(2) 0.6840(2) 0.2169(2)
O2 O 0.3648(3) 0.3699(3) -0.1022(3)
H10 H 0.4149 0.4670 -0.1650
O3 O 0.4366(3) 0.6865(3) -0.2002(2)
O4 O -0.1370(3) 0.8389(3) 0.3539(3)
loop_
_geom_bond_atom_site_label_1
_geom_bond_atom_site_label_2
_geom_bond_site_symmetry_1
_geom_bond_site_symmetry_2
C1 C2 1_555 1_555
C2 H1 1_555 1_555
C3 C2 1_555 1_555
C4 C3 1_555 1_555
C5 C4 1_555 1_555
C6 C5 1_555 1_555
C7 C6 1_555 1_555
C8 C7 1_555 1_555
H2 C8 1_555 1_555
C9 C4 1_555 1_555
H3 C9 1_555 1_555
C10 C3 1_555 1_555
H4 C10 1_555 1_555
H5 C10 1_555 1_555
H6 C10 1_555 1_555
C11 C6 1_555 1_555
C12 C11 1_555 1_555
H7 C12 1_555 1_555
H8 C12 1_555 1_555
H9 C12 1_555 1_555
O1 C1 1_555 1_555
O2 C7 1_555 1_555
H10 O2 1_555 1_555
O3 C11 1_555 1_555
O4 C1 1_555 1_555
C5 O1 1_555 1_555
C8 C9 1_555 1_555

#END
