
#######################################################################
#
#                 Cambridge Crystallographic Data Centre
#                                CCDC 
#
#######################################################################
#
# If this CIF has been generated from an entry in the Cambridge 
# Structural Database, then it will include bibliographic, chemical, 
# crystal, experimental, refinement or atomic coordinate data resulting 
# from the CCDC's data processing and validation procedures.
#
#######################################################################

data_WOKQUK
_chemical_formula_moiety         'C19 H15 Br1 O3'
_chemical_name_systematic        
'(R)-methyl 2-(4-bromophenyl)-5-methylene-4-phenyl-4,5-dihydrofuran-3-carboxylate'
_symmetry_cell_setting           monoclinic
_symmetry_space_group_name_H-M   'P 21'
_symmetry_Int_Tables_number      4
_space_group_name_Hall           'P 2yb'
loop_
_symmetry_equiv_pos_site_id
_symmetry_equiv_pos_as_xyz
1 x,y,z
2 -x,1/2+y,-z
_cell_length_a                   9.6596(19)
_cell_length_b                   5.2922(11)
_cell_length_c                   16.148(3)
_cell_angle_alpha                90
_cell_angle_beta                 103.56(3)
_cell_angle_gamma                90
_cell_volume                     802.484
_exptl_crystal_colour            colorless
_exptl_crystal_description       rod
_cell_formula_units_Z            2
_exptl_crystal_recrystallization_method isopropanol
loop_
_atom_site_label
_atom_site_type_symbol
_atom_site_fract_x
_atom_site_fract_y
_atom_site_fract_z
Br1 Br 0.91729(4) 1.32089(9) 0.92809(2)
O1 O 0.4218(3) 0.3474(9) 0.90875(16)
O2 O 0.3089(3) 0.0335(5) 0.82713(16)
O3 O 0.5038(3) 0.5155(5) 0.65549(16)
C1 C 0.7924(4) 1.0646(7) 0.8718(2)
C2 C 0.7058(5) 0.9387(8) 0.9153(2)
H1 H 0.7095 0.9786 0.9732
C3 C 0.6142(4) 0.7555(7) 0.8741(2)
H2 H 0.5555 0.6681 0.9043
C4 C 0.6057(4) 0.6958(7) 0.7898(2)
C5 C 0.6944(4) 0.8290(12) 0.7474(2)
H3 H 0.6902 0.7923 0.6893
C6 C 0.7874(5) 1.0117(9) 0.7882(2)
H4 H 0.8471 1.0996 0.7588
C7 C 0.5068(4) 0.5064(7) 0.7418(2)
C8 C 0.4177(3) 0.3244(11) 0.75873(18)
C9 C 0.3418(4) 0.2009(7) 0.6772(2)
H5 H 0.3664 0.0171 0.6794
C10 C 0.4107(4) 0.3318(11) 0.6128(2)
C11 C 0.3916(4) 0.2990(11) 0.5306(2)
H6 H 0.4417 0.4015 0.4991
H7 H 0.3277 0.1728 0.5024
C12 C 0.3869(4) 0.2462(7) 0.8402(2)
C13 C 0.2642(5) -0.0612(9) 0.9006(3)
H8 H 0.2193 -0.2270 0.8873
H9 H 0.1957 0.0564 0.9156
H10 H 0.3472 -0.0774 0.9486
C14 C 0.1803(4) 0.2300(7) 0.6539(2)
C15 C 0.1141(5) 0.4352(9) 0.6825(3)
H11 H 0.1692 0.5592 0.7183
C16 C -0.0339(5) 0.4570(10) 0.6582(3)
H12 H -0.0796 0.5952 0.6784
C17 C -0.1135(5) 0.2823(12) 0.6060(3)
H13 H -0.2142 0.2994 0.5900
C18 C -0.0487(5) 0.0799(11) 0.5759(3)
H14 H -0.1040 -0.0405 0.5386
C19 C 0.0975(5) 0.0555(9) 0.6007(3)
H15 H 0.1421 -0.0844 0.5808
loop_
_geom_bond_atom_site_label_1
_geom_bond_atom_site_label_2
_geom_bond_site_symmetry_1
_geom_bond_site_symmetry_2
Br1 C1 1_555 1_555
O1 C12 1_555 1_555
O2 C12 1_555 1_555
O3 C7 1_555 1_555
C1 C2 1_555 1_555
C2 H1 1_555 1_555
C3 C2 1_555 1_555
H2 C3 1_555 1_555
C4 C3 1_555 1_555
C5 C4 1_555 1_555
H3 C5 1_555 1_555
C6 C1 1_555 1_555
H4 C6 1_555 1_555
C7 C4 1_555 1_555
C8 C7 1_555 1_555
C9 C8 1_555 1_555
H5 C9 1_555 1_555
C10 O3 1_555 1_555
C11 C10 1_555 1_555
H6 C11 1_555 1_555
H7 C11 1_555 1_555
C12 C8 1_555 1_555
C13 O2 1_555 1_555
H8 C13 1_555 1_555
H9 C13 1_555 1_555
H10 C13 1_555 1_555
C14 C9 1_555 1_555
C15 C14 1_555 1_555
H11 C15 1_555 1_555
C16 C15 1_555 1_555
H12 C16 1_555 1_555
C17 C16 1_555 1_555
H13 C17 1_555 1_555
C18 C17 1_555 1_555
H14 C18 1_555 1_555
C19 C14 1_555 1_555
H15 C19 1_555 1_555
C5 C6 1_555 1_555
C9 C10 1_555 1_555
C18 C19 1_555 1_555

#END
