
#######################################################################
#
#                 Cambridge Crystallographic Data Centre
#                                CCDC 
#
#######################################################################
#
# If this CIF has been generated from an entry in the Cambridge 
# Structural Database, then it will include bibliographic, chemical, 
# crystal, experimental, refinement or atomic coordinate data resulting 
# from the CCDC's data processing and validation procedures.
#
#######################################################################

data_WOKXAV
_chemical_name_common            
'(mu!2$-Trisiamyl)-di-potassium benzene solvate'
_chemical_formula_moiety         'C20 H52 K2 Si6,4(C6 H6)'
_chemical_name_systematic        
'(\m~2~-2,2,5,5-Tetramethyl-1,1,6,6-tetrakis(trimethylsilyl)-2,5-disilahexane-1,6-diyl)-di-potassium benzene solvate'
_symmetry_cell_setting           triclinic
_symmetry_space_group_name_H-M   'P -1'
_symmetry_Int_Tables_number      2
_space_group_name_Hall           '-P 1'
loop_
_symmetry_equiv_pos_site_id
_symmetry_equiv_pos_as_xyz
1 x,y,z
2 -x,-y,-z
_cell_length_a                   9.343(2)
_cell_length_b                   11.305(3)
_cell_length_c                   13.417(4)
_cell_angle_alpha                102.54(2)
_cell_angle_beta                 98.39(2)
_cell_angle_gamma                107.02(2)
_cell_volume                     1289.01
_exptl_crystal_colour            colorless
_cell_formula_units_Z            1
_chemical_properties_physical    'air- and moisture-sensitive'
_exptl_crystal_recrystallization_method benzene
loop_
_atom_site_label
_atom_site_type_symbol
_atom_site_fract_x
_atom_site_fract_y
_atom_site_fract_z
K1 K 0.0297(1) 0.1356(1) -0.2633(1)
Si1 Si -0.0901(1) -0.1518(1) -0.1655(1)
Si2 Si 0.1584(1) -0.1481(1) -0.2935(1)
Si3 Si -0.1787(1) -0.2317(1) -0.4077(1)
C1 C -0.0330(4) -0.1421(3) -0.2883(2)
C2 C 0.0093(4) 0.0024(3) -0.0561(2)
C3 C -0.2999(4) -0.1776(4) -0.1704(3)
C4 C -0.0590(4) -0.2887(3) -0.1157(3)
C5 C 0.2620(4) -0.0459(4) -0.3722(3)
C6 C 0.1686(5) -0.3128(4) -0.3516(3)
C7 C 0.3009(4) -0.0867(4) -0.1623(3)
C8 C -0.2631(5) -0.4105(4) -0.4263(3)
C9 C -0.3510(4) -0.1779(4) -0.4293(3)
C10 C -0.1047(5) -0.2169(5) -0.5301(3)
H1 H 0.1204(4) 0.0298(3) -0.0552(2)
H2 H -0.0294(4) 0.0698(3) -0.0735(2)
H3 H -0.3210(4) -0.1817(4) -0.1016(3)
H4 H -0.3622(4) -0.2585(4) -0.2230(3)
H5 H -0.3255(4) -0.1061(4) -0.1893(3)
H6 H -0.0925(4) -0.2872(3) -0.0496(3)
H7 H 0.0503(4) -0.2791(3) -0.1040(3)
H8 H -0.1187(4) -0.3708(3) -0.1676(3)
H9 H 0.3636(4) -0.0544(4) -0.3711(3)
H10 H 0.2737(4) 0.0444(4) -0.3416(3)
H11 H 0.2024(4) -0.0745(4) -0.4447(3)
H12 H 0.2757(5) -0.3060(4) -0.3509(3)
H13 H 0.1079(5) -0.3471(4) -0.4239(3)
H14 H 0.1273(5) -0.3707(4) -0.3100(3)
H15 H 0.4002(4) -0.0936(4) -0.1726(3)
H16 H 0.2628(4) -0.1384(4) -0.1157(3)
H17 H 0.3134(4) 0.0034(4) -0.1309(3)
H18 H -0.3401(5) -0.4499(4) -0.4926(3)
H19 H -0.3117(5) -0.4261(4) -0.3682(3)
H20 H -0.1813(5) -0.4484(4) -0.4276(3)
H21 H -0.4217(4) -0.2325(4) -0.4956(3)
H22 H -0.3173(4) -0.0883(4) -0.4319(3)
H23 H -0.4033(4) -0.1852(4) -0.3716(3)
H24 H -0.0249(44) -0.2575(36) -0.5422(29)
H25 H -0.0657(46) -0.1308(42) -0.5274(31)
H26 H -0.1924(46) -0.2636(38) -0.5883(32)
C2A C -0.0093(4) -0.0024(3) 0.0561(2)
Si1A Si 0.0901(1) 0.1518(1) 0.1655(1)
C1A C 0.0330(4) 0.1421(3) 0.2883(2)
K1A K -0.0297(1) -0.1356(1) 0.2633(1)
Si2A Si -0.1584(1) 0.1481(1) 0.2935(1)
C5A C -0.2620(4) 0.0459(4) 0.3722(3)
H9A H -0.3636(4) 0.0544(4) 0.3711(3)
H10A H -0.2737(4) -0.0444(4) 0.3416(3)
H11A H -0.2024(4) 0.0745(4) 0.4447(3)
C6A C -0.1686(5) 0.3128(4) 0.3516(3)
H12A H -0.2757(5) 0.3060(4) 0.3509(3)
H13A H -0.1079(5) 0.3471(4) 0.4239(3)
H14A H -0.1273(5) 0.3707(4) 0.3100(3)
C7A C -0.3009(4) 0.0867(4) 0.1623(3)
H15A H -0.4002(4) 0.0936(4) 0.1726(3)
H16A H -0.2628(4) 0.1384(4) 0.1157(3)
H17A H -0.3134(4) -0.0034(4) 0.1309(3)
Si3A Si 0.1787(1) 0.2317(1) 0.4077(1)
C8A C 0.2631(5) 0.4105(4) 0.4263(3)
H18A H 0.3401(5) 0.4499(4) 0.4926(3)
H19A H 0.3117(5) 0.4261(4) 0.3682(3)
H20A H 0.1813(5) 0.4484(4) 0.4276(3)
C9A C 0.3510(4) 0.1779(4) 0.4293(3)
H21A H 0.4217(4) 0.2325(4) 0.4956(3)
H22A H 0.3173(4) 0.0883(4) 0.4319(3)
H23A H 0.4033(4) 0.1852(4) 0.3716(3)
C10A C 0.1047(5) 0.2169(5) 0.5301(3)
H24A H 0.0249(44) 0.2575(36) 0.5422(29)
H25A H 0.0657(46) 0.1308(42) 0.5274(31)
H26A H 0.1924(46) 0.2636(38) 0.5883(32)
C3A C 0.2999(4) 0.1776(4) 0.1704(3)
H3A H 0.3210(4) 0.1817(4) 0.1016(3)
H4A H 0.3622(4) 0.2585(4) 0.2230(3)
H5A H 0.3255(4) 0.1061(4) 0.1893(3)
C4A C 0.0590(4) 0.2887(3) 0.1157(3)
H6A H 0.0925(4) 0.2872(3) 0.0496(3)
H7A H -0.0503(4) 0.2791(3) 0.1040(3)
H8A H 0.1187(4) 0.3708(3) 0.1676(3)
H1A H -0.1204(4) -0.0298(3) 0.0552(2)
H2A H 0.0294(4) -0.0698(3) 0.0735(2)
C11 C -0.3268(5) 0.1457(4) -0.2413(3)
C12 C -0.3252(5) 0.1737(4) -0.3359(3)
C13 C -0.2251(5) 0.2848(4) -0.3420(4)
C14 C -0.1238(5) 0.3702(4) -0.2534(4)
C15 C -0.1250(5) 0.3432(5) -0.1574(4)
C16 C -0.2267(5) 0.2310(5) -0.1512(3)
H27 H -0.3971(5) 0.0674(4) -0.2380(3)
H28 H -0.3950(5) 0.1147(4) -0.3975(3)
H29 H -0.2250(5) 0.3034(4) -0.4077(4)
H30 H -0.0531(5) 0.4478(4) -0.2577(4)
H31 H -0.0553(5) 0.4025(5) -0.0958(4)
H32 H -0.2281(5) 0.2123(5) -0.0856(3)
C17 C 0.3883(6) 0.4772(5) -0.2218(4)
C18 C 0.4339(5) 0.3733(5) -0.2210(4)
C19 C 0.4074(5) 0.3111(5) -0.1457(4)
C20 C 0.3365(5) 0.3520(5) -0.0707(4)
C21 C 0.2918(5) 0.4570(5) -0.0694(4)
C22 C 0.3184(6) 0.5195(5) -0.1452(4)
H33 H 0.4047(6) 0.5198(5) -0.2750(4)
H34 H 0.4843(5) 0.3443(5) -0.2729(4)
H35 H 0.4388(5) 0.2384(5) -0.1458(4)
H36 H 0.3179(5) 0.3076(5) -0.0188(4)
H37 H 0.2428(5) 0.4863(5) -0.0166(4)
H38 H 0.2881(6) 0.5929(5) -0.1446(4)
loop_
_geom_bond_atom_site_label_1
_geom_bond_atom_site_label_2
_geom_bond_site_symmetry_1
_geom_bond_site_symmetry_2
K1 C1 1_555 1_555
Si1 C1 1_555 1_555
Si2 C1 1_555 1_555
Si3 C1 1_555 1_555
C2 Si1 1_555 1_555
C3 Si1 1_555 1_555
C4 Si1 1_555 1_555
C5 Si2 1_555 1_555
C6 Si2 1_555 1_555
C7 Si2 1_555 1_555
C8 Si3 1_555 1_555
C9 Si3 1_555 1_555
C10 Si3 1_555 1_555
C11 C12 1_555 1_555
C12 C13 1_555 1_555
C13 C14 1_555 1_555
C14 C15 1_555 1_555
C15 C16 1_555 1_555
C16 C11 1_555 1_555
C17 C18 1_555 1_555
C18 C19 1_555 1_555
C19 C20 1_555 1_555
C20 C21 1_555 1_555
C21 C22 1_555 1_555
C22 C17 1_555 1_555
H1 C2 1_555 1_555
H2 C2 1_555 1_555
H3 C3 1_555 1_555
H4 C3 1_555 1_555
H5 C3 1_555 1_555
H6 C4 1_555 1_555
H7 C4 1_555 1_555
H8 C4 1_555 1_555
H9 C5 1_555 1_555
H10 C5 1_555 1_555
H11 C5 1_555 1_555
H12 C6 1_555 1_555
H13 C6 1_555 1_555
H14 C6 1_555 1_555
H15 C7 1_555 1_555
H16 C7 1_555 1_555
H17 C7 1_555 1_555
H18 C8 1_555 1_555
H19 C8 1_555 1_555
H20 C8 1_555 1_555
H21 C9 1_555 1_555
H22 C9 1_555 1_555
H23 C9 1_555 1_555
H24 C10 1_555 1_555
H25 C10 1_555 1_555
H26 C10 1_555 1_555
H27 C11 1_555 1_555
H28 C12 1_555 1_555
H29 C13 1_555 1_555
H30 C14 1_555 1_555
H31 C15 1_555 1_555
H32 C16 1_555 1_555
H33 C17 1_555 1_555
H34 C18 1_555 1_555
H35 C19 1_555 1_555
H36 C20 1_555 1_555
H37 C21 1_555 1_555
H38 C22 1_555 1_555
C2A C2 1_555 1_555
Si1A C2A 1_555 1_555
C1A Si1A 1_555 1_555
K1A C1A 1_555 1_555
Si2A C1A 1_555 1_555
C5A Si2A 1_555 1_555
H9A C5A 1_555 1_555
H10A C5A 1_555 1_555
H11A C5A 1_555 1_555
C6A Si2A 1_555 1_555
H12A C6A 1_555 1_555
H13A C6A 1_555 1_555
H14A C6A 1_555 1_555
C7A Si2A 1_555 1_555
H15A C7A 1_555 1_555
H16A C7A 1_555 1_555
H17A C7A 1_555 1_555
Si3A C1A 1_555 1_555
C8A Si3A 1_555 1_555
H18A C8A 1_555 1_555
H19A C8A 1_555 1_555
H20A C8A 1_555 1_555
C9A Si3A 1_555 1_555
H21A C9A 1_555 1_555
H22A C9A 1_555 1_555
H23A C9A 1_555 1_555
C10A Si3A 1_555 1_555
H24A C10A 1_555 1_555
H25A C10A 1_555 1_555
H26A C10A 1_555 1_555
C3A Si1A 1_555 1_555
H3A C3A 1_555 1_555
H4A C3A 1_555 1_555
H5A C3A 1_555 1_555
C4A Si1A 1_555 1_555
H6A C4A 1_555 1_555
H7A C4A 1_555 1_555
H8A C4A 1_555 1_555
H1A C2A 1_555 1_555
H2A C2A 1_555 1_555

#END
