
#######################################################################
#
#                 Cambridge Crystallographic Data Centre
#                                CCDC 
#
#######################################################################
#
# If this CIF has been generated from an entry in the Cambridge 
# Structural Database, then it will include bibliographic, chemical, 
# crystal, experimental, refinement or atomic coordinate data resulting 
# from the CCDC's data processing and validation procedures.
#
#######################################################################

data_WOLCUV
_chemical_formula_moiety         'C21 H24'
_chemical_name_systematic        cis,cis-1,6-Diphenylspiro(4.4)nonane
_symmetry_cell_setting           monoclinic
_symmetry_space_group_name_H-M   'P 21/c'
_symmetry_Int_Tables_number      14
_space_group_name_Hall           '-P 2ybc'
loop_
_symmetry_equiv_pos_site_id
_symmetry_equiv_pos_as_xyz
1 x,y,z
2 -x,1/2+y,1/2-z
3 -x,-y,-z
4 x,1/2-y,1/2+z
_cell_length_a                   10.2945(2)
_cell_length_b                   12.9396(2)
_cell_length_c                   11.9983(2)
_cell_angle_alpha                90
_cell_angle_beta                 103.46(1)
_cell_angle_gamma                90
_cell_volume                     1554.35
_exptl_crystal_colour            white
_chemical_melting_point          77deg.C
_cell_formula_units_Z            4
_exptl_crystal_recrystallization_method 'diethyl ether/ethanol'
loop_
_atom_site_label
_atom_site_type_symbol
_atom_site_fract_x
_atom_site_fract_y
_atom_site_fract_z
C1 C 0.1538(1) 0.1620(1) 0.1879(1)
C2 C 0.0802(1) 0.1628(1) 0.0599(1)
C3 C -0.0639(1) 0.1972(1) 0.0589(1)
C4 C -0.0555(1) 0.2522(1) 0.1751(1)
C5 C 0.0948(1) 0.2582(1) 0.2362(1)
C6 C 0.3077(1) 0.1544(1) 0.2023(1)
C7 C 0.3252(1) 0.0397(1) 0.1714(1)
C8 C 0.2158(1) -0.0214(1) 0.2132(1)
C9 C 0.1185(1) 0.0601(1) 0.2418(1)
C10 C 0.1565(1) 0.3619(1) 0.2171(1)
C11 C 0.1320(1) 0.4108(1) 0.1099(1)
C12 C 0.1894(1) 0.5064(1) 0.0963(1)
C13 C 0.2709(1) 0.5559(1) 0.1896(1)
C14 C 0.2938(1) 0.5095(1) 0.2972(1)
C15 C 0.2367(1) 0.4136(1) 0.3102(1)
C16 C 0.3944(1) 0.1814(1) 0.3196(1)
C17 C 0.3983(1) 0.1217(1) 0.4182(1)
C18 C 0.4843(1) 0.1460(1) 0.5229(1)
C19 C 0.5696(1) 0.2306(1) 0.5326(1)
C20 C 0.5679(1) 0.2901(1) 0.4359(1)
C21 C 0.4817(1) 0.2658(1) 0.3314(1)
H1 H 0.0836(13) 0.0951(10) 0.0213(11)
H2 H 0.1267(12) 0.2133(10) 0.0185(11)
H3 H -0.1268(13) 0.1366(11) 0.0513(11)
H4 H -0.1007(16) 0.2408(12) -0.0084(13)
H5 H -0.0989(13) 0.3227(10) 0.1641(12)
H6 H -0.1035(13) 0.2113(10) 0.2222(11)
H7 H 0.1084(12) 0.2512(9) 0.3226(11)
H8 H 0.3351(11) 0.1997(9) 0.1446(10)
H9 H 0.4186(12) 0.0144(10) 0.2079(11)
H10 H 0.3128(12) 0.0319(10) 0.0890(12)
H11 H 0.1656(14) -0.0688(12) 0.1500(13)
H12 H 0.2591(13) -0.0643(12) 0.2836(12)
H13 H 0.0215(12) 0.0387(10) 0.2095(11)
H14 H 0.1327(12) 0.0694(10) 0.3272(12)
H15 H 0.0716(13) 0.3782(11) 0.0409(12)
H16 H 0.1678(14) 0.5382(11) 0.0175(13)
H17 H 0.3107(14) 0.6218(12) 0.1797(12)
H18 H 0.3459(14) 0.5427(12) 0.3636(13)
H19 H 0.2557(13) 0.3806(10) 0.3868(12)
H20 H 0.3379(13) 0.0603(11) 0.4141(12)
H21 H 0.4817(14) 0.1026(12) 0.5883(13)
H22 H 0.6289(15) 0.2474(12) 0.6087(13)
H23 H 0.6319(14) 0.3476(12) 0.4416(13)
H24 H 0.4813(12) 0.3073(10) 0.2639(12)
loop_
_geom_bond_atom_site_label_1
_geom_bond_atom_site_label_2
_geom_bond_site_symmetry_1
_geom_bond_site_symmetry_2
C1 C2 1_555 1_555
C2 C3 1_555 1_555
C3 C4 1_555 1_555
C4 C5 1_555 1_555
C5 C1 1_555 1_555
C6 C1 1_555 1_555
C7 C6 1_555 1_555
C8 C7 1_555 1_555
C9 C1 1_555 1_555
C10 C5 1_555 1_555
C11 C10 1_555 1_555
C12 C11 1_555 1_555
C13 C12 1_555 1_555
C14 C13 1_555 1_555
C15 C10 1_555 1_555
C16 C6 1_555 1_555
C17 C16 1_555 1_555
C18 C17 1_555 1_555
C19 C18 1_555 1_555
C20 C19 1_555 1_555
C21 C16 1_555 1_555
H1 C2 1_555 1_555
H2 C2 1_555 1_555
H3 C3 1_555 1_555
H4 C3 1_555 1_555
H5 C4 1_555 1_555
H6 C4 1_555 1_555
H7 C5 1_555 1_555
H8 C6 1_555 1_555
H9 C7 1_555 1_555
H10 C7 1_555 1_555
H11 C8 1_555 1_555
H12 C8 1_555 1_555
H13 C9 1_555 1_555
H14 C9 1_555 1_555
H15 C11 1_555 1_555
H16 C12 1_555 1_555
H17 C13 1_555 1_555
H18 C14 1_555 1_555
H19 C15 1_555 1_555
H20 C17 1_555 1_555
H21 C18 1_555 1_555
H22 C19 1_555 1_555
H23 C20 1_555 1_555
H24 C21 1_555 1_555
C8 C9 1_555 1_555
C14 C15 1_555 1_555
C20 C21 1_555 1_555

#END
