
#######################################################################
#
#                 Cambridge Crystallographic Data Centre
#                                CCDC 
#
#######################################################################
#
# If this CIF has been generated from an entry in the Cambridge 
# Structural Database, then it will include bibliographic, chemical, 
# crystal, experimental, refinement or atomic coordinate data resulting 
# from the CCDC's data processing and validation procedures.
#
#######################################################################

data_WOLDEG
_chemical_formula_moiety         'C20 H19 N1 O4 S1'
_chemical_name_systematic        
'cis-6-(2-Thienyl)spiro(4.4)nona-6-en-1-yl p-nitrobenzoate'
_symmetry_cell_setting           monoclinic
_symmetry_space_group_name_H-M   'P 21/c'
_symmetry_Int_Tables_number      14
_space_group_name_Hall           '-P 2ybc'
loop_
_symmetry_equiv_pos_site_id
_symmetry_equiv_pos_as_xyz
1 x,y,z
2 -x,1/2+y,1/2-z
3 -x,-y,-z
4 x,1/2-y,1/2+z
_cell_length_a                   13.078(1)
_cell_length_b                   9.538(1)
_cell_length_c                   14.432(1)
_cell_angle_alpha                90
_cell_angle_beta                 101.18(1)
_cell_angle_gamma                90
_cell_volume                     1766.06
_exptl_crystal_colour            white
_chemical_melting_point          140deg.C
_cell_formula_units_Z            4
_exptl_crystal_recrystallization_method 'diethyl ether'
loop_
_atom_site_label
_atom_site_type_symbol
_atom_site_fract_x
_atom_site_fract_y
_atom_site_fract_z
S1 S 0.5954(1) 0.8587(1) 0.0298(1)
O1 O 0.7446(1) 0.4991(2) 0.1084(1)
O2 O 0.7820(2) 0.3134(2) 0.0243(1)
O3 O 1.0122(2) 0.7919(3) -0.2357(2)
O4 O 1.0086(2) 0.9479(3) -0.1295(2)
N1 N 0.9922(2) 0.8294(3) -0.1606(2)
C1 C 0.6147(2) 0.5141(2) 0.2063(1)
C2 C 0.5711(2) 0.6410(2) 0.1468(1)
C3 C 0.4699(2) 0.6213(2) 0.1076(2)
C4 C 0.4291(2) 0.4839(3) 0.1347(2)
C5 C 0.5135(2) 0.4396(3) 0.2193(2)
C6 C 0.7000(10) 0.5395(15) 0.2968(11)
C7 C 0.7343(6) 0.3930(7) 0.3281(6)
C8 C 0.7435(2) 0.3266(3) 0.2355(2)
C9 C 0.6781(2) 0.4128(2) 0.1561(2)
C10 C 0.6302(2) 0.7665(2) 0.1318(1)
C11 C 0.7150(2) 0.8414(3) 0.1906(2)
C12 C 0.7431(2) 0.9612(3) 0.1498(2)
C13 C 0.6852(3) 0.9856(3) 0.0642(2)
C14 C 0.7887(2) 0.4371(2) 0.0427(1)
C15 C 0.8458(1) 0.5401(2) -0.0069(1)
C16 C 0.8849(2) 0.4949(2) -0.0851(1)
C17 C 0.9443(2) 0.7267(2) -0.1052(2)
C18 C 0.9335 0.5888 -0.1339
C19 C 0.9087(2) 0.7744(2) -0.0262(2)
C20 C 0.8581(2) 0.6795(2) 0.0226(2)
H1 H 0.4279(24) 0.6893(33) 0.0696(21)
H2 H 0.4144(31) 0.4275(44) 0.0823(28)
H3 H 0.3564(33) 0.4944(43) 0.1510(29)
H4 H 0.5225(30) 0.3384(43) 0.2272(27)
H5 H 0.4923(31) 0.4650(44) 0.2752(29)
H6 H 0.8039(33) 1.0160(44) 0.1836(30)
H7 H 0.6899(38) 1.0513(55) 0.0260(36)
H8 H 0.8762(25) 0.3984(37) -0.1053(23)
H9 H 0.9583(29) 0.5601(40) -0.1912(26)
H10 H 0.9163(29) 0.8679(40) -0.0072(26)
H11 H 0.8371(27) 0.7093(37) 0.0798(24)
H12 H 0.7308(20) 0.8156(27) 0.2135(18)
H13 H 0.6403(26) 0.3596(36) 0.1115(23)
H14 H 0.6628(36) 0.5997(52) 0.3404(34)
H15 H 0.8032(41) 0.4024(57) 0.3635(39)
H16 H 0.8085(37) 0.3095(47) 0.2218(31)
H17 H 0.7562(39) 0.6115(52) 0.2898(33)
H18 H 0.7013(41) 0.3513(56) 0.3514(37)
H19 H 0.7147(36) 0.2207(49) 0.2335(32)
C21? C 0.7617(11) 0.4338(17) 0.3194(8)
C22? C 0.6763(12) 0.5382(20) 0.3064(12)
loop_
_geom_bond_atom_site_label_1
_geom_bond_atom_site_label_2
_geom_bond_site_symmetry_1
_geom_bond_site_symmetry_2
S1 C10 1_555 1_555
O1 C9 1_555 1_555
O2 C14 1_555 1_555
O3 N1 1_555 1_555
O4 N1 1_555 1_555
N1 C17 1_555 1_555
C1 C2 1_555 1_555
C2 C3 1_555 1_555
C3 C4 1_555 1_555
C4 C5 1_555 1_555
C5 C1 1_555 1_555
C6 C1 1_555 1_555
C7 C6 1_555 1_555
C8 C7 1_555 1_555
C9 C1 1_555 1_555
C10 C2 1_555 1_555
C11 C10 1_555 1_555
C12 C11 1_555 1_555
C13 S1 1_555 1_555
C14 O1 1_555 1_555
C15 C14 1_555 1_555
C16 C15 1_555 1_555
C17 C18 1_555 1_555
C18 C16 1_555 1_555
C19 C17 1_555 1_555
C20 C15 1_555 1_555
H1 C3 1_555 1_555
H2 C4 1_555 1_555
H3 C4 1_555 1_555
H4 C5 1_555 1_555
H5 C5 1_555 1_555
H6 C12 1_555 1_555
H7 C13 1_555 1_555
H8 C16 1_555 1_555
H9 C18 1_555 1_555
H10 C19 1_555 1_555
H11 C20 1_555 1_555
H12 C11 1_555 1_555
H13 C9 1_555 1_555
H14 C6 1_555 1_555
H15 C7 1_555 1_555
H16 C8 1_555 1_555
H17 C6 1_555 1_555
H18 C7 1_555 1_555
H19 C8 1_555 1_555
C8 C9 1_555 1_555
C12 C13 1_555 1_555
C19 C20 1_555 1_555

#END
