
#######################################################################
#
#                 Cambridge Crystallographic Data Centre
#                                CCDC 
#
#######################################################################
#
# If this CIF has been generated from an entry in the Cambridge 
# Structural Database, then it will include bibliographic, chemical, 
# crystal, experimental, refinement or atomic coordinate data resulting 
# from the CCDC's data processing and validation procedures.
#
#######################################################################

data_WOLFOU02
_chemical_formula_moiety         'C22 H25 B1 F2 N2'
_chemical_name_systematic        
5,5-difluoro-1,3,7,9-tetramethyl-10-(2,4,6-trimethylphenyl)-5H-dipyrrolo[1,2-c:2',1'-f][1,3,2]diazaborinine
_symmetry_cell_setting           orthorhombic
_symmetry_space_group_name_H-M   'P 21 21 21'
_symmetry_Int_Tables_number      19
_space_group_name_Hall           'P 2ac 2ab'
loop_
_symmetry_equiv_pos_site_id
_symmetry_equiv_pos_as_xyz
1 x,y,z
2 1/2-x,-y,1/2+z
3 -x,1/2+y,1/2-z
4 1/2+x,1/2-y,-z
_cell_length_a                   7.8705(3)
_cell_length_b                   13.5120(6)
_cell_length_c                   19.4137(10)
_cell_angle_alpha                90
_cell_angle_beta                 90
_cell_angle_gamma                90
_cell_volume                     2064.57
_exptl_crystal_colour            red
_exptl_crystal_description       prismatic
_cell_formula_units_Z            4
loop_
_atom_site_label
_atom_site_type_symbol
_atom_site_fract_x
_atom_site_fract_y
_atom_site_fract_z
F1 F 0.2896(2) 0.42221(11) 0.81272(7)
F2 F 0.06429(19) 0.49385(12) 0.76086(9)
N1 N 0.3423(3) 0.55250(14) 0.73154(10)
N2 N 0.2436(3) 0.38757(15) 0.69276(10)
B1 B 0.2308(4) 0.4636(2) 0.75165(14)
C1 C 0.4229(3) 0.56484(18) 0.66808(13)
C2 C 0.4981(4) 0.66091(19) 0.66735(15)
C3 C 0.4631(4) 0.7021(2) 0.73019(15)
H1 H 0.4965 0.7648 0.7445
C4 C 0.3689(4) 0.63470(19) 0.76943(14)
C5 C 0.3068(5) 0.6466(2) 0.84139(14)
H2 H 0.1918 0.6233 0.8445
H3 H 0.3112 0.7152 0.8541
H4 H 0.3774 0.6089 0.8720
C6 C 0.5946(5) 0.7100(2) 0.61069(17)
H5 H 0.6287 0.7750 0.6252
H6 H 0.5237 0.7151 0.5706
H7 H 0.6935 0.6715 0.5999
C7 C 0.4234(3) 0.48881(18) 0.61961(12)
C8 C 0.3359(3) 0.40047(17) 0.63195(12)
C9 C 0.3147(4) 0.31365(18) 0.59155(13)
C10 C 0.2110(4) 0.2519(2) 0.62886(14)
H8 H 0.1752 0.1894 0.6151
C11 C 0.1682(4) 0.29797(19) 0.69065(13)
C12 C 0.0609(4) 0.2590(2) 0.74753(17)
H9 H 0.1149 0.2725 0.7909
H10 H 0.0470 0.1889 0.7421
H11 H -0.0483 0.2905 0.7463
C13 C 0.3889(5) 0.2900(2) 0.52209(15)
H12 H 0.3639 0.2225 0.5104
H13 H 0.5098 0.2993 0.5234
H14 H 0.3404 0.3331 0.4881
C14 C 0.5184(3) 0.50246(17) 0.55387(12)
C15 C 0.6919(3) 0.47993(18) 0.55043(14)
C16 C 0.7748(4) 0.4941(2) 0.48856(14)
H15 H 0.8898 0.4787 0.4860
C17 C 0.6953(4) 0.5299(2) 0.43050(14)
C18 C 0.5239(4) 0.5526(2) 0.43554(14)
H16 H 0.4677 0.5773 0.3971
C19 C 0.4340(3) 0.5395(2) 0.49612(13)
C20 C 0.2479(4) 0.5650(3) 0.49910(16)
H17 H 0.1865 0.5114 0.5200
H18 H 0.2060 0.5758 0.4533
H19 H 0.2325 0.6239 0.5259
C21 C 0.7872(4) 0.4424(3) 0.61281(16)
H20 H 0.8954 0.4166 0.5987
H21 H 0.7226 0.3909 0.6346
H22 H 0.8042 0.4958 0.6447
C22 C 0.7896(4) 0.5444(3) 0.36357(17)
H23 H 0.9097 0.5447 0.3722
H24 H 0.7568 0.6064 0.3433
H25 H 0.7623 0.4914 0.3326
loop_
_geom_bond_atom_site_label_1
_geom_bond_atom_site_label_2
_geom_bond_site_symmetry_1
_geom_bond_site_symmetry_2
F1 B1 1_555 1_555
F2 B1 1_555 1_555
N1 B1 1_555 1_555
N2 B1 1_555 1_555
C1 N1 1_555 1_555
C2 C1 1_555 1_555
C3 C2 1_555 1_555
H1 C3 1_555 1_555
C4 N1 1_555 1_555
C5 C4 1_555 1_555
H2 C5 1_555 1_555
H3 C5 1_555 1_555
H4 C5 1_555 1_555
C6 C2 1_555 1_555
H5 C6 1_555 1_555
H6 C6 1_555 1_555
H7 C6 1_555 1_555
C7 C1 1_555 1_555
C8 N2 1_555 1_555
C9 C8 1_555 1_555
C10 C9 1_555 1_555
H8 C10 1_555 1_555
C11 N2 1_555 1_555
C12 C11 1_555 1_555
H9 C12 1_555 1_555
H10 C12 1_555 1_555
H11 C12 1_555 1_555
C13 C9 1_555 1_555
H12 C13 1_555 1_555
H13 C13 1_555 1_555
H14 C13 1_555 1_555
C14 C7 1_555 1_555
C15 C14 1_555 1_555
C16 C15 1_555 1_555
H15 C16 1_555 1_555
C17 C16 1_555 1_555
C18 C17 1_555 1_555
H16 C18 1_555 1_555
C19 C14 1_555 1_555
C20 C19 1_555 1_555
H17 C20 1_555 1_555
H18 C20 1_555 1_555
H19 C20 1_555 1_555
C21 C15 1_555 1_555
H20 C21 1_555 1_555
H21 C21 1_555 1_555
H22 C21 1_555 1_555
C22 C17 1_555 1_555
H23 C22 1_555 1_555
H24 C22 1_555 1_555
H25 C22 1_555 1_555
C3 C4 1_555 1_555
C7 C8 1_555 1_555
C10 C11 1_555 1_555
C18 C19 1_555 1_555

#END
