
#######################################################################
#
#                 Cambridge Crystallographic Data Centre
#                                CCDC 
#
#######################################################################
#
# If this CIF has been generated from an entry in the Cambridge 
# Structural Database, then it will include bibliographic, chemical, 
# crystal, experimental, refinement or atomic coordinate data resulting 
# from the CCDC's data processing and validation procedures.
#
#######################################################################

data_WOLHIO
_chemical_formula_moiety         'C29 H30 O7'
_chemical_name_systematic        
16-Acetoxy-2-(benzoyloxy)-11-hydroxy-6,10-dimethyl-7-(propen-2-yl)-14-oxatetracyclo(8.6.0.0^4,9^.0^13,16^)hexadeca-4,6,8-trien-3-one
_symmetry_cell_setting           orthorhombic
_symmetry_space_group_name_H-M   'P 21 21 21'
_symmetry_Int_Tables_number      19
_space_group_name_Hall           'P 2ac 2ab'
loop_
_symmetry_equiv_pos_site_id
_symmetry_equiv_pos_as_xyz
1 x,y,z
2 1/2-x,-y,1/2+z
3 1/2+x,1/2-y,-z
4 -x,1/2+y,1/2-z
_cell_length_a                   9.0905(19)
_cell_length_b                   12.189(3)
_cell_length_c                   22.597(5)
_cell_angle_alpha                90
_cell_angle_beta                 90
_cell_angle_gamma                90
_cell_volume                     2503.84
_cell_formula_units_Z            4
_exptl_crystal_recrystallization_method 'ethyl acetate'
loop_
_atom_site_label
_atom_site_type_symbol
_atom_site_fract_x
_atom_site_fract_y
_atom_site_fract_z
O1 O -0.8326(3) -0.0498(3) -0.0824(2)
O2 O -0.1268(3) -0.0025(3) -0.0667(2)
O3 O -0.2443(3) -0.3374(3) -0.0503(1)
O4 O -0.4638(3) -0.3385(2) -0.1614(1)
O5 O -0.3299(4) -0.2436(3) -0.2274(1)
O6 O -0.7153(3) -0.2470(2) -0.1131(1)
O7 O -0.7151(3) -0.1448(2) -0.1960(1)
C1 C -0.6985(4) -0.0541(3) -0.0852(2)
C2 C -0.6231(4) -0.1643(3) -0.0851(2)
C3 C -0.4651(4) -0.1614(3) -0.1102(2)
C4 C -0.4003(4) -0.2768(3) -0.1127(2)
C5 C -0.2315(4) -0.2867(3) -0.1092(2)
C6 C -0.1398(4) -0.1843(3) -0.1085(2)
C7 C -0.2168(4) -0.0730(3) -0.1021(2)
C8 C -0.3740(4) -0.0754(3) -0.0747(2)
C9 C -0.4499(4) 0.0367(3) -0.0838(2)
C10 C -0.3735(4) 0.1355(3) -0.0878(2)
C11 C -0.4414(4) 0.2368(3) -0.0960(2)
C12 C -0.5968(5) 0.2423(4) -0.0970(2)
C13 C -0.6726(4) 0.1465(3) -0.0923(2)
C14 C -0.6052(4) 0.0440(3) -0.0868(2)
C15 C -0.3468(5) 0.3344(3) -0.1052(2)
C16 C -0.3513(6) 0.3914(4) -0.1561(2)
C17 C -0.2464(8) 0.3648(5) -0.0570(3)
C18 C -0.6781(6) 0.3505(4) -0.1024(3)
C19 C -0.3662(4) -0.0953(3) -0.0070(2)
C20 C -0.4022(4) -0.3480(4) -0.0573(2)
C21 C -0.4149(5) -0.3155(4) -0.2168(2)
C22 C -0.4820(6) -0.3936(4) -0.2609(2)
C23 C -0.7515(4) -0.2267(3) -0.1697(2)
C24 C -0.8429(4) -0.3165(3) -0.1960(2)
C25 C -0.8726(5) -0.4128(4) -0.1660(2)
C26 C -0.9565(6) -0.4930(4) -0.1940(2)
C27 C -1.0095(6) -0.4767(4) -0.2503(3)
C28 C -0.9787(6) -0.3818(4) -0.2798(2)
C29 C -0.8962(5) -0.3007(4) -0.2533(2)
loop_
_geom_bond_atom_site_label_1
_geom_bond_atom_site_label_2
_geom_bond_site_symmetry_1
_geom_bond_site_symmetry_2
O1 C1 1_555 1_555
O2 C7 1_555 1_555
O3 C5 1_555 1_555
O4 C4 1_555 1_555
O5 C21 1_555 1_555
O6 C2 1_555 1_555
O7 C23 1_555 1_555
C1 C2 1_555 1_555
C2 C3 1_555 1_555
C3 C4 1_555 1_555
C4 C5 1_555 1_555
C5 C6 1_555 1_555
C6 C7 1_555 1_555
C7 C8 1_555 1_555
C8 C3 1_555 1_555
C9 C8 1_555 1_555
C10 C9 1_555 1_555
C11 C10 1_555 1_555
C12 C11 1_555 1_555
C13 C12 1_555 1_555
C14 C1 1_555 1_555
C15 C11 1_555 1_555
C16 C15 1_555 1_555
C17 C15 1_555 1_555
C18 C12 1_555 1_555
C19 C8 1_555 1_555
C20 O3 1_555 1_555
C21 O4 1_555 1_555
C22 C21 1_555 1_555
C23 O6 1_555 1_555
C24 C23 1_555 1_555
C25 C24 1_555 1_555
C26 C25 1_555 1_555
C27 C26 1_555 1_555
C28 C27 1_555 1_555
C29 C24 1_555 1_555
C4 C20 1_555 1_555
C9 C14 1_555 1_555
C13 C14 1_555 1_555
C28 C29 1_555 1_555

#END
