
#######################################################################
#
#                 Cambridge Crystallographic Data Centre
#                                CCDC 
#
#######################################################################
#
# If this CIF has been generated from an entry in the Cambridge 
# Structural Database, then it will include bibliographic, chemical, 
# crystal, experimental, refinement or atomic coordinate data resulting 
# from the CCDC's data processing and validation procedures.
#
#######################################################################

data_WOLQIZ
_chemical_formula_moiety         'C21 H20 Br1 N3 O5 S1'
_chemical_name_systematic        
2-Bromo-3,4,5-trimethoxy-N-(5-(2-(4-methoxyphenyl)vinyl)-1,3,4-thiadiazol-2-yl)benzamide
_symmetry_cell_setting           monoclinic
_symmetry_space_group_name_H-M   'P 21/c'
_symmetry_Int_Tables_number      14
_space_group_name_Hall           '-P 2ybc'
loop_
_symmetry_equiv_pos_site_id
_symmetry_equiv_pos_as_xyz
1 x,y,z
2 -x,1/2+y,1/2-z
3 -x,-y,-z
4 x,1/2-y,1/2+z
_cell_length_a                   11.0460(11)
_cell_length_b                   11.0650(12)
_cell_length_c                   18.0719(18)
_cell_angle_alpha                90
_cell_angle_beta                 98.172(3)
_cell_angle_gamma                90
_cell_volume                     2186.39
_cell_formula_units_Z            4
loop_
_atom_site_label
_atom_site_type_symbol
_atom_site_fract_x
_atom_site_fract_y
_atom_site_fract_z
Br1 Br -0.13051(5) 0.60755(5) 0.22403(3)
S1 S 0.27009(9) 0.53795(11) 0.39218(6)
N1 N 0.0361(3) 0.4628(3) 0.3993(2)
N2 N 0.1504(3) 0.5536(3) 0.5025(2)
N3 N 0.2615(3) 0.6064(3) 0.5266(2)
C1 C 0.3324(4) 0.6055(4) 0.4754(2)
C2 C 0.5352(4) 0.6555(4) 0.4405(2)
H1 H 0.5098 0.6194 0.3944
C3 C 0.8470(4) 0.7440(4) 0.4023(3)
H2 H 0.8925 0.7374 0.3629
C4 C 0.0198(4) 0.4211(4) 0.3283(3)
C5 C -0.1084(4) 0.3820(4) 0.3006(2)
O1 O 0.1026(3) 0.4163(4) 0.2915(2)
C6 C 0.1414(4) 0.5150(4) 0.4346(2)
O2 O 1.0103(3) 0.8483(3) 0.4796(2)
C7 C 0.7296(4) 0.6973(4) 0.3954(2)
H3 H 0.6976 0.6595 0.3509
C8 C 0.4556(4) 0.6565(4) 0.4883(3)
H4 H 0.4800 0.6930 0.5344
C9 C 0.8955(4) 0.7996(4) 0.4670(2)
C10 C 0.7109(4) 0.7621(4) 0.5170(2)
H5 H 0.6661 0.7694 0.5567
O3 O -0.3823(3) 0.5020(3) 0.1880(2)
C11 C 0.6587(3) 0.7049(4) 0.4519(2)
O4 O -0.4677(3) 0.2814(3) 0.23187(19)
O5 O -0.3216(3) 0.1332(3) 0.3202(2)
C12 C -0.2700(4) 0.2375(4) 0.2997(3)
C13 C -0.1845(4) 0.4553(4) 0.2535(2)
C14 C -0.1513(4) 0.2725(4) 0.3234(3)
H6 H -0.0995 0.2223 0.3548
C15 C -0.3480(4) 0.3144(4) 0.2535(3)
C16 C -0.3050(4) 0.4224(4) 0.2296(3)
C17 C 0.8264(4) 0.8077(4) 0.5240(3)
H7 H 0.8590 0.8452 0.5685
C18 C 1.0786(5) 0.8534(5) 0.4199(3)
H8 H 1.0997 0.7730 0.4065
H9 H 1.1519 0.8992 0.4346
H10 H 1.0309 0.8916 0.3778
C19 C -0.2424(5) 0.0494(6) 0.3625(4)
H11 H -0.1757 0.0302 0.3359
H12 H -0.2869 -0.0229 0.3702
H13 H -0.2112 0.0845 0.4100
C20 C -0.5497(5) 0.3226(7) 0.2795(3)
H14 H -0.5301 0.2854 0.3277
H15 H -0.6318 0.3015 0.2585
H16 H -0.5431 0.4088 0.2846
C21 C -0.4251(5) 0.4676(6) 0.1144(3)
H17 H -0.3570 0.4565 0.0874
H18 H -0.4779 0.5295 0.0906
H19 H -0.4699 0.3932 0.1146
H20 H -0.015(4) 0.458(4) 0.424(2)
loop_
_geom_bond_atom_site_label_1
_geom_bond_atom_site_label_2
_geom_bond_site_symmetry_1
_geom_bond_site_symmetry_2
Br1 C13 1_555 1_555
S1 C1 1_555 1_555
N1 C4 1_555 1_555
N2 N3 1_555 1_555
N3 C1 1_555 1_555
C1 C8 1_555 1_555
C2 H1 1_555 1_555
C3 H2 1_555 1_555
C4 C5 1_555 1_555
C5 C13 1_555 1_555
O1 C4 1_555 1_555
C6 S1 1_555 1_555
O2 C9 1_555 1_555
C7 C3 1_555 1_555
H3 C7 1_555 1_555
C8 C2 1_555 1_555
H4 C8 1_555 1_555
C9 C3 1_555 1_555
C10 H5 1_555 1_555
O3 C16 1_555 1_555
C11 C2 1_555 1_555
O4 C15 1_555 1_555
O5 C12 1_555 1_555
C12 C14 1_555 1_555
C13 C16 1_555 1_555
C14 C5 1_555 1_555
H6 C14 1_555 1_555
C15 C12 1_555 1_555
C16 C15 1_555 1_555
C17 C9 1_555 1_555
H7 C17 1_555 1_555
C18 O2 1_555 1_555
H8 C18 1_555 1_555
H9 C18 1_555 1_555
H10 C18 1_555 1_555
C19 O5 1_555 1_555
H11 C19 1_555 1_555
H12 C19 1_555 1_555
H13 C19 1_555 1_555
C20 O4 1_555 1_555
H14 C20 1_555 1_555
H15 C20 1_555 1_555
H16 C20 1_555 1_555
C21 O3 1_555 1_555
H17 C21 1_555 1_555
H18 C21 1_555 1_555
H19 C21 1_555 1_555
H20 N1 1_555 1_555
N1 C6 1_555 1_555
N2 C6 1_555 1_555
C7 C11 1_555 1_555
C10 C11 1_555 1_555
C10 C17 1_555 1_555

#END
