
#######################################################################
#
#                 Cambridge Crystallographic Data Centre
#                                CCDC 
#
#######################################################################
#
# If this CIF has been generated from an entry in the Cambridge 
# Structural Database, then it will include bibliographic, chemical, 
# crystal, experimental, refinement or atomic coordinate data resulting 
# from the CCDC's data processing and validation procedures.
#
#######################################################################

data_WOLQOF
_chemical_formula_moiety         'C15 H24 N2 O2 S1'
_chemical_name_systematic        
N-((1S,3R)-3-Amino-2,2,3-trimethylcyclopentyl)-4-methylbenzenesulfonamide
_symmetry_cell_setting           monoclinic
_symmetry_space_group_name_H-M   'P 21'
_symmetry_Int_Tables_number      4
_space_group_name_Hall           'P 2yb'
loop_
_symmetry_equiv_pos_site_id
_symmetry_equiv_pos_as_xyz
1 x,y,z
2 -x,1/2+y,-z
_cell_length_a                   7.922(4)
_cell_length_b                   6.273(3)
_cell_length_c                   16.992(8)
_cell_angle_alpha                90
_cell_angle_beta                 103.479(4)
_cell_angle_gamma                90
_cell_volume                     821.153
_exptl_crystal_colour            colorless
_exptl_crystal_description       block
_cell_formula_units_Z            2
loop_
_atom_site_label
_atom_site_type_symbol
_atom_site_fract_x
_atom_site_fract_y
_atom_site_fract_z
S1 S -0.20801(9) 0.65744(13) 0.72167(4)
O1 O -0.2026(3) 0.8843(5) 0.71539(17)
C1 C -0.1851(4) 0.6619(7) 0.5638(2)
H1 H -0.1352 0.7960 0.5749
C2 C -0.2407(4) 0.5514(6) 0.62314(19)
N1 N 0.3460(4) 0.5939(5) 0.83319(19)
N2 N -0.0207(3) 0.5835(5) 0.77249(16)
O2 O -0.3338(3) 0.5597(5) 0.75737(16)
C3 C 0.1166(4) 0.2619(7) 0.72610(19)
H2 H 0.0714 0.1211 0.7094
H3 H 0.1000 0.3522 0.6786
C4 C -0.3134(4) 0.3511(6) 0.6065(2)
H4 H -0.3507 0.2751 0.6463
C5 C -0.3301(4) 0.2645(7) 0.5297(2)
H5 H -0.3791 0.1300 0.5184
C6 C 0.3317(4) 0.3638(6) 0.8495(2)
C7 C 0.0232(4) 0.3566(5) 0.78776(17)
H6 H -0.0827 0.2750 0.7870
C8 C -0.2750(4) 0.3750(7) 0.4698(2)
C9 C 0.1543(4) 0.3260(5) 0.87075(18)
C10 C 0.3094(4) 0.2489(7) 0.7684(2)
H7 H 0.3454 0.1013 0.7769
H8 H 0.3792 0.3170 0.7357
C11 C 0.4900(5) 0.2836(8) 0.9126(3)
H9 H 0.5940 0.3200 0.8959
H10 H 0.4830 0.1316 0.9176
H11 H 0.4920 0.3489 0.9639
C12 C -0.2034(5) 0.5736(8) 0.4880(2)
H12 H -0.1665 0.6503 0.4482
C13 C 0.1366(6) 0.0919(7) 0.8958(2)
H13 H 0.2205 0.0628 0.9453
H14 H 0.1564 -0.0012 0.8540
H15 H 0.0219 0.0685 0.9037
C14 C -0.2976(6) 0.2798(11) 0.3863(3)
H16 H -0.4048 0.3289 0.3523
H17 H -0.2997 0.1271 0.3900
H18 H -0.2028 0.3228 0.3636
C15 C 0.1176(5) 0.4701(8) 0.9367(2)
H19 H 0.1984 0.4393 0.9870
H20 H 0.0014 0.4458 0.9425
H21 H 0.1297 0.6164 0.9223
H22 H 0.445(5) 0.619(7) 0.811(2)
H23 H 0.059(4) 0.660(6) 0.7660(19)
H24 H 0.367(5) 0.659(9) 0.881(3)
loop_
_geom_bond_atom_site_label_1
_geom_bond_atom_site_label_2
_geom_bond_site_symmetry_1
_geom_bond_site_symmetry_2
S1 O1 1_555 1_555
C1 H1 1_555 1_555
C2 S1 1_555 1_555
N1 C6 1_555 1_555
N2 S1 1_555 1_555
O2 S1 1_555 1_555
C3 H2 1_555 1_555
H3 C3 1_555 1_555
C4 C2 1_555 1_555
H4 C4 1_555 1_555
C5 C4 1_555 1_555
H5 C5 1_555 1_555
C6 C9 1_555 1_555
C7 N2 1_555 1_555
H6 C7 1_555 1_555
C8 C5 1_555 1_555
C9 C7 1_555 1_555
C10 C3 1_555 1_555
H7 C10 1_555 1_555
H8 C10 1_555 1_555
C11 C6 1_555 1_555
H9 C11 1_555 1_555
H10 C11 1_555 1_555
H11 C11 1_555 1_555
C12 C1 1_555 1_555
H12 C12 1_555 1_555
C13 C9 1_555 1_555
H13 C13 1_555 1_555
H14 C13 1_555 1_555
H15 C13 1_555 1_555
C14 C8 1_555 1_555
H16 C14 1_555 1_555
H17 C14 1_555 1_555
H18 C14 1_555 1_555
C15 C9 1_555 1_555
H19 C15 1_555 1_555
H20 C15 1_555 1_555
H21 C15 1_555 1_555
H22 N1 1_555 1_555
H23 N2 1_555 1_555
H24 N1 1_555 1_555
C1 C2 1_555 1_555
C3 C7 1_555 1_555
C6 C10 1_555 1_555
C8 C12 1_555 1_555

#END
