
#######################################################################
#
#                 Cambridge Crystallographic Data Centre
#                                CCDC 
#
#######################################################################
#
# If this CIF has been generated from an entry in the Cambridge 
# Structural Database, then it will include bibliographic, chemical, 
# crystal, experimental, refinement or atomic coordinate data resulting 
# from the CCDC's data processing and validation procedures.
#
#######################################################################

data_WOLVIC
_chemical_formula_moiety         'C25 H21 B3 N2 O3'
_chemical_name_systematic        2-(7-Azaindol-7-yl)-2,4,6-triphenylboroxine
_symmetry_cell_setting           monoclinic
_symmetry_space_group_name_H-M   'P 21/n'
_symmetry_Int_Tables_number      14
_space_group_name_Hall           '-P 2yn'
loop_
_symmetry_equiv_pos_site_id
_symmetry_equiv_pos_as_xyz
1 x,y,z
2 1/2-x,1/2+y,1/2-z
3 -x,-y,-z
4 1/2+x,1/2-y,1/2+z
_cell_length_a                   11.8267(11)
_cell_length_b                   14.243(2)
_cell_length_c                   13.7878(12)
_cell_angle_alpha                90
_cell_angle_beta                 100.272(4)
_cell_angle_gamma                90
_cell_volume                     2285.3
_cell_formula_units_Z            4
_exptl_crystal_recrystallization_method toluene
loop_
_atom_site_label
_atom_site_type_symbol
_atom_site_fract_x
_atom_site_fract_y
_atom_site_fract_z
O1 O 0.8601(3) 0.3789(2) 0.6520(2)
O2 O 0.8296(2) 0.3294(2) 0.8086(2)
O3 O 0.7054(3) 0.4462(2) 0.7138(2)
N1 N 0.8674(3) 0.3643(3) 1.0111(3)
N2 N 0.7778(3) 0.4756(3) 0.8893(3)
C1 C 1.0217(4) 0.1907(3) 0.8139(3)
C2 C 0.6225(4) 0.3445(4) 0.8358(3)
C3 C 0.9825(3) 0.2462(3) 0.7333(3)
C4 C 0.8363(4) 0.4520(4) 0.9792(3)
C5 C 0.7448(4) 0.5045(3) 0.5508(3)
C6 C 0.6214(5) 0.6131(4) 0.4467(4)
B1 B 0.7701(5) 0.4409(4) 0.6431(4)
B2 B 0.8870(4) 0.3204(4) 0.7329(4)
C7 C 0.8713(4) 0.5170(4) 1.0550(4)
C8 C 0.6437(4) 0.5554(3) 0.5287(3)
C9 C 1.1535(4) 0.1113(4) 0.7319(4)
B3 B 0.7309(5) 0.3936(4) 0.8057(4)
C10 C 1.1067(4) 0.1245(4) 0.8145(4)
C11 C 0.8221(4) 0.5134(3) 0.4872(3)
C12 C 1.1155(5) 0.1641(4) 0.6498(4)
C13 C 1.0315(4) 0.2310(3) 0.6506(3)
C14 C 0.7527(4) 0.5675(4) 0.8740(4)
C15 C 0.6134(5) 0.2479(4) 0.8453(3)
C16 C 0.9280(4) 0.4639(4) 1.1365(4)
C17 C 0.9245(4) 0.3739(4) 1.1076(3)
C18 C 0.8437(5) 0.6099(5) 1.0369(4)
C19 C 0.4317(5) 0.3554(6) 0.8737(5)
C20 C 0.5285(5) 0.3963(4) 0.8512(4)
C21 C 0.7017(7) 0.6213(4) 0.3858(4)
C22 C 0.7842(5) 0.6345(4) 0.9455(5)
C23 C 0.4237(5) 0.2590(6) 0.8802(4)
C24 C 0.5153(6) 0.2061(5) 0.8665(4)
C25 C 0.8018(6) 0.5716(4) 0.4064(4)
H1 H 0.9896(4) 0.1982(3) 0.8703(3)
H2 H 0.5526(5) 0.6462(4) 0.4327(4)
H3 H 0.5896(4) 0.5507(3) 0.5699(3)
H4 H 1.2109(4) 0.0667(4) 0.7315(4)
H5 H 1.1320(4) 0.0890(4) 0.8708(4)
H6 H 0.8899(4) 0.4790(3) 0.4994(3)
H7 H 1.1465(5) 0.1549(4) 0.5931(4)
H8 H 1.0072(4) 0.2667(3) 0.5943(3)
H9 H 0.7127(4) 0.5861(4) 0.8128(4)
H10 H 0.6752(5) 0.2103(4) 0.8371(3)
H11 H 0.9611(4) 0.4871(4) 1.1981(4)
H12 H 0.9563(4) 0.3243(4) 1.1471(3)
H13 H 0.8647(5) 0.6550(5) 1.0854(4)
H14 H 0.3708(5) 0.3928(6) 0.8848(5)
H15 H 0.5311(5) 0.4613(4) 0.8461(4)
H16 H 0.6876(7) 0.6606(4) 0.3311(4)
H17 H 0.7650(5) 0.6971(4) 0.9320(5)
H18 H 0.3572(5) 0.2309(6) 0.8935(4)
H19 H 0.5119(6) 0.1411(5) 0.8716(4)
H20 H 0.8563(6) 0.5771(4) 0.3657(4)
H21 H 0.8813(6) 0.3125(4) 0.9558(4)
loop_
_geom_bond_atom_site_label_1
_geom_bond_atom_site_label_2
_geom_bond_site_symmetry_1
_geom_bond_site_symmetry_2
O1 B1 1_555 1_555
O2 B2 1_555 1_555
O3 B1 1_555 1_555
N1 C4 1_555 1_555
N2 C4 1_555 1_555
C1 C3 1_555 1_555
C2 B3 1_555 1_555
C3 B2 1_555 1_555
C4 C7 1_555 1_555
C5 B1 1_555 1_555
C6 C8 1_555 1_555
B2 O1 1_555 1_555
C7 C16 1_555 1_555
C8 C5 1_555 1_555
C9 C10 1_555 1_555
B3 O2 1_555 1_555
C10 C1 1_555 1_555
C11 C5 1_555 1_555
C12 C9 1_555 1_555
C13 C3 1_555 1_555
C14 N2 1_555 1_555
C15 C2 1_555 1_555
C16 C17 1_555 1_555
C17 N1 1_555 1_555
C18 C7 1_555 1_555
C19 C20 1_555 1_555
C20 C2 1_555 1_555
C21 C6 1_555 1_555
C22 C14 1_555 1_555
C23 C19 1_555 1_555
C24 C15 1_555 1_555
C25 C11 1_555 1_555
H1 C1 1_555 1_555
H2 C6 1_555 1_555
H3 C8 1_555 1_555
H4 C9 1_555 1_555
H5 C10 1_555 1_555
H6 C11 1_555 1_555
H7 C12 1_555 1_555
H8 C13 1_555 1_555
H9 C14 1_555 1_555
H10 C15 1_555 1_555
H11 C16 1_555 1_555
H12 C17 1_555 1_555
H13 C18 1_555 1_555
H14 C19 1_555 1_555
H15 C20 1_555 1_555
H16 C21 1_555 1_555
H17 C22 1_555 1_555
H18 C23 1_555 1_555
H19 C24 1_555 1_555
H20 C25 1_555 1_555
H21 N1 1_555 1_555
O3 B3 1_555 1_555
N2 B3 1_555 1_555
C12 C13 1_555 1_555
C18 C22 1_555 1_555
C21 C25 1_555 1_555
C23 C24 1_555 1_555

#END
