
#######################################################################
#
#                 Cambridge Crystallographic Data Centre
#                                CCDC 
#
#######################################################################
#
# If this CIF has been generated from an entry in the Cambridge 
# Structural Database, then it will include bibliographic, chemical, 
# crystal, experimental, refinement or atomic coordinate data resulting 
# from the CCDC's data processing and validation procedures.
#
#######################################################################

data_WOLVUP
_chemical_formula_moiety         'C8 H9 N3 S1'
_chemical_name_systematic        
2-Ethyl(1,2,4)triazolo(4,3-a)pyridine-3(2H)-thione
_symmetry_cell_setting           monoclinic
_symmetry_space_group_name_H-M   'P 21/a'
_symmetry_Int_Tables_number      14
_space_group_name_Hall           '-P 2yab'
loop_
_symmetry_equiv_pos_site_id
_symmetry_equiv_pos_as_xyz
1 x,y,z
2 1/2-x,1/2+y,-z
3 -x,-y,-z
4 1/2+x,1/2-y,z
_cell_length_a                   6.706(3)
_cell_length_b                   20.431(9)
_cell_length_c                   6.9139(19)
_cell_angle_alpha                90
_cell_angle_beta                 111.03(3)
_cell_angle_gamma                90
_cell_volume                     884.18
_exptl_crystal_colour            colorless
_exptl_crystal_description       acerate
_chemical_melting_point          59-60deg.C
_cell_formula_units_Z            4
_exptl_crystal_recrystallization_method hexane
loop_
_atom_site_label
_atom_site_type_symbol
_atom_site_fract_x
_atom_site_fract_y
_atom_site_fract_z
S1 S 0.54873(13) 0.09071(4) 0.70604(11)
N1 N 0.6271(3) 0.21205(9) 0.8877(3)
N2 N 0.7394(3) 0.19015(9) 1.2253(3)
N3 N 0.6922(3) 0.13412(9) 1.1076(3)
C1 C 0.6244(4) 0.14441(12) 0.9018(4)
C2 C 0.5687(4) 0.25148(16) 0.7147(4)
C3 C 0.5799(4) 0.31641(15) 0.7410(5)
C4 C 0.6508(4) 0.34377(15) 0.9413(5)
C5 C 0.7097(4) 0.30626(13) 1.1130(5)
C6 C 0.6977(4) 0.23731(11) 1.0875(3)
C7 C 0.7138(6) 0.07023(14) 1.2104(5)
C8 C 0.9242(9) 0.0391(2) 1.2402(7)
H1 H 0.528(4) 0.2277(10) 0.599(3)
H2 H 0.531(4) 0.3413(12) 0.614(4)
H3 H 0.664(5) 0.3880(16) 0.969(4)
H4 H 0.763(4) 0.3234(11) 1.250(4)
H5 H 0.710(5) 0.0774(13) 1.341(5)
H6 H 0.588(5) 0.0434(13) 1.124(4)
H7 H 0.933(6) 0.0351(17) 1.104(6)
H8 H 0.922(5) 0.0018(18) 1.293(5)
H9 H 1.054(8) 0.072(2) 1.316(7)
loop_
_geom_bond_atom_site_label_1
_geom_bond_atom_site_label_2
_geom_bond_site_symmetry_1
_geom_bond_site_symmetry_2
S1 C1 1_555 1_555
N1 C1 1_555 1_555
N2 N3 1_555 1_555
N3 C1 1_555 1_555
C2 N1 1_555 1_555
C3 C2 1_555 1_555
C4 C3 1_555 1_555
C5 C4 1_555 1_555
C6 N1 1_555 1_555
C7 N3 1_555 1_555
C8 C7 1_555 1_555
H1 C2 1_555 1_555
H2 C3 1_555 1_555
H3 C4 1_555 1_555
H4 C5 1_555 1_555
H5 C7 1_555 1_555
H6 C7 1_555 1_555
H7 C8 1_555 1_555
H8 C8 1_555 1_555
H9 C8 1_555 1_555
N2 C6 1_555 1_555
C5 C6 1_555 1_555

#END
