
#######################################################################
#
#                 Cambridge Crystallographic Data Centre
#                                CCDC 
#
#######################################################################
#
# If this CIF has been generated from an entry in the Cambridge 
# Structural Database, then it will include bibliographic, chemical, 
# crystal, experimental, refinement or atomic coordinate data resulting 
# from the CCDC's data processing and validation procedures.
#
#######################################################################

data_WOMBIL
_chemical_formula_moiety         'C36 H26 F12'
_chemical_name_systematic        
1,2,3,4,5,7,8,9,10,11,12,14-dodecafluoro-6,13-dihexylnaphtho[2',3':4,5]pentaleno[1,2-b]naphthalene
_symmetry_cell_setting           monoclinic
_symmetry_space_group_name_H-M   'P 21/c'
_symmetry_Int_Tables_number      14
_space_group_name_Hall           '-P 2ybc'
loop_
_symmetry_equiv_pos_site_id
_symmetry_equiv_pos_as_xyz
1 x,y,z
2 -x,1/2+y,1/2-z
3 -x,-y,-z
4 x,1/2-y,1/2+z
_cell_length_a                   4.97877(17)
_cell_length_b                   28.1389(12)
_cell_length_c                   10.4476(4)
_cell_angle_alpha                90
_cell_angle_beta                 102.096(3)
_cell_angle_gamma                90
_cell_volume                     1431.18
_exptl_crystal_colour            red
_exptl_crystal_description       needle
_cell_formula_units_Z            2
loop_
_atom_site_label
_atom_site_type_symbol
_atom_site_fract_x
_atom_site_fract_y
_atom_site_fract_z
C1 C 0.849(3) 0.7589(6) 1.0286(14)
H1 H 0.7911 0.7902 1.0537
H2 H 0.8653 0.7370 1.1028
H3 H 1.0278 0.7618 1.0038
C2 C 0.637(3) 0.7399(4) 0.9127(12)
H4 H 0.4562 0.7375 0.9375
H5 H 0.6189 0.7623 0.8384
C3 C 0.719(2) 0.6911(4) 0.8702(10)
H6 H 0.8984 0.6939 0.8440
H7 H 0.7438 0.6693 0.9460
C4 C 0.512(3) 0.6696(4) 0.7573(14)
H8 H 0.4655 0.6932 0.6859
H9 H 0.3410 0.6619 0.7875
C5 C 0.6209(12) 0.6244(2) 0.7041(5)
H10 H 0.6613 0.6001 0.7739
H11 H 0.7930 0.6316 0.6747
C6 C 0.4036(9) 0.60558(16) 0.5887(5)
H12 H 0.2343 0.5979 0.6201
H13 H 0.3579 0.6309 0.5220
C7 C 0.4948(5) 0.56215(12) 0.5259(3)
C8 C 0.6740(6) 0.56293(18) 0.4299(3)
C9 C 0.7927(8) 0.59972(18) 0.3777(4)
F1 F 0.7486(4) 0.64472(13) 0.4130(2)
C10 C 0.9599(14) 0.5935(2) 0.2840(7)
C11 C 1.094(2) 0.6312(3) 0.2340(11)
F2 F 1.0724(13) 0.67554(17) 0.2755(6)
C12 C 1.251(3) 0.6214(4) 0.1411(13)
F3 F 1.379(4) 0.6588(5) 0.0997(17)
C13 C 1.290(3) 0.5751(3) 0.1003(12)
F4 F 1.451(3) 0.5706(6) 0.0145(14)
C14 C 1.169(3) 0.5393(3) 0.1510(10)
F5 F 1.2211(11) 0.49575(19) 0.1095(4)
C15 C 0.9972(12) 0.5463(2) 0.2409(6)
C16 C 0.8665(9) 0.50809(16) 0.2953(4)
F6 F 0.9018(5) 0.46381(10) 0.2522(3)
C17 C 0.7169(6) 0.51543(17) 0.3871(4)
C18 C 0.5638(7) 0.48439(13) 0.4592(3)
C1B C 0.151(3) 0.2411(6) -0.0286(14)
H1B H 0.2089 0.2098 -0.0537
H2B H 0.1347 0.2630 -0.1028
H3B H -0.0278 0.2382 -0.0038
C2B C 0.363(3) 0.2601(4) 0.0873(12)
H4B H 0.5438 0.2625 0.0625
H5B H 0.3811 0.2377 0.1616
C3B C 0.281(2) 0.3089(4) 0.1298(10)
H6B H 0.1016 0.3061 0.1560
H7B H 0.2562 0.3307 0.0540
C4B C 0.488(3) 0.3304(4) 0.2427(14)
H8B H 0.5345 0.3068 0.3141
H9B H 0.6590 0.3381 0.2125
C5B C 0.3791(12) 0.3756(2) 0.2959(5)
H10B H 0.3387 0.3999 0.2261
H11B H 0.2070 0.3684 0.3253
C6B C 0.5964(9) 0.39442(16) 0.4113(5)
H12B H 0.7657 0.4021 0.3799
H13B H 0.6421 0.3691 0.4780
C7B C 0.5052(5) 0.43785(12) 0.4741(3)
C8B C 0.3260(6) 0.43707(18) 0.5701(3)
C9B C 0.2073(8) 0.40028(18) 0.6223(4)
F1B F 0.2514(4) 0.35528(13) 0.5870(2)
C10B C 0.0401(14) 0.4065(2) 0.7160(7)
C11B C -0.094(2) 0.3688(3) 0.7660(11)
F2B F -0.0724(13) 0.32446(17) 0.7245(6)
C12B C -0.251(3) 0.3786(4) 0.8589(13)
F3B F -0.379(4) 0.3412(5) 0.9003(17)
C13B C -0.290(3) 0.4249(3) 0.8997(12)
F4B F -0.451(3) 0.4294(6) 0.9855(14)
C14B C -0.169(3) 0.4607(3) 0.8490(10)
F5B F -0.2211(11) 0.50425(19) 0.8905(4)
C15B C 0.0028(12) 0.4537(2) 0.7591(6)
C16B C 0.1335(9) 0.49191(16) 0.7047(4)
F6B F 0.0982(5) 0.53619(10) 0.7478(3)
C17B C 0.2831(6) 0.48457(17) 0.6129(4)
C18B C 0.4362(7) 0.51561(13) 0.5408(3)
C19? C 0.903(5) 0.7565(8) 1.037(2)
H14? H 0.8436 0.7870 1.0674
H15? H 0.9435 0.7343 1.1114
H16? H 1.0684 0.7613 1.0021
C20? C 0.674(4) 0.7361(5) 0.9308(17)
H17? H 0.5064 0.7320 0.9666
H18? H 0.6312 0.7589 0.8574
C21? C 0.751(4) 0.6883(6) 0.8788(17)
H19? H 0.9108 0.6926 0.8376
H20? H 0.8045 0.6659 0.9528
C22? C 0.514(4) 0.6670(6) 0.779(2)
H21? H 0.4708 0.6885 0.7024
H22? H 0.3494 0.6657 0.8182
C23? C 0.5658(18) 0.6173(4) 0.7305(7)
H23? H 0.5855 0.5950 0.8052
H24? H 0.7428 0.6177 0.7016
C24? C 0.3434(16) 0.5979(2) 0.6179(7)
H25? H 0.1616 0.6025 0.6403
H26? H 0.3459 0.6167 0.5381
C25? C 0.3755(8) 0.54621(17) 0.5877(4)
C26? C 0.2556(10) 0.5062(2) 0.6481(5)
C27? C 0.0978(10) 0.5056(3) 0.7396(6)
F7? F 0.0461(6) 0.54651(14) 0.7996(4)
C28? C -0.0159(18) 0.4635(4) 0.7811(8)
C29? C -0.184(4) 0.4612(5) 0.8742(16)
F8? F -0.2604(16) 0.5013(3) 0.9258(7)
C30? C -0.288(3) 0.4171(5) 0.9044(16)
F9? F -0.458(4) 0.4200(9) 0.989(2)
C31? C -0.232(5) 0.3746(6) 0.845(2)
F10? F -0.353(6) 0.3366(8) 0.883(3)
C32? C -0.062(3) 0.3774(4) 0.7624(17)
F11? F -0.019(2) 0.3353(3) 0.7097(9)
C33? C 0.047(2) 0.4197(3) 0.7245(10)
C34? C 0.2216(13) 0.4206(3) 0.6305(6)
F12? F 0.2822(7) 0.3793(2) 0.5790(3)
C35? C 0.3162(9) 0.4619(3) 0.5919(5)
C36? C 0.4891(10) 0.4743(2) 0.4987(5)
loop_
_geom_bond_atom_site_label_1
_geom_bond_atom_site_label_2
_geom_bond_site_symmetry_1
_geom_bond_site_symmetry_2
C1 H1 1_555 1_555
H2 C1 1_555 1_555
H3 C1 1_555 1_555
C2 C1 1_555 1_555
H4 C2 1_555 1_555
H5 C2 1_555 1_555
C3 C2 1_555 1_555
H6 C3 1_555 1_555
H7 C3 1_555 1_555
C4 C3 1_555 1_555
H8 C4 1_555 1_555
H9 C4 1_555 1_555
C5 C4 1_555 1_555
H10 C5 1_555 1_555
H11 C5 1_555 1_555
C6 C5 1_555 1_555
H12 C6 1_555 1_555
H13 C6 1_555 1_555
C7 C6 1_555 1_555
C8 C7 1_555 1_555
C9 C8 1_555 1_555
F1 C9 1_555 1_555
C10 C9 1_555 1_555
C11 C10 1_555 1_555
F2 C11 1_555 1_555
C12 C11 1_555 1_555
F3 C12 1_555 1_555
C13 C12 1_555 1_555
F4 C13 1_555 1_555
C14 C13 1_555 1_555
F5 C14 1_555 1_555
C15 C10 1_555 1_555
C16 C15 1_555 1_555
F6 C16 1_555 1_555
C17 C8 1_555 1_555
C18 C17 1_555 1_555
C1B H1B 1_555 1_555
H2B C1B 1_555 1_555
H3B C1B 1_555 1_555
C2B C1B 1_555 1_555
H4B C2B 1_555 1_555
H5B C2B 1_555 1_555
C3B C2B 1_555 1_555
H6B C3B 1_555 1_555
H7B C3B 1_555 1_555
C4B C3B 1_555 1_555
H8B C4B 1_555 1_555
H9B C4B 1_555 1_555
C5B C4B 1_555 1_555
H10B C5B 1_555 1_555
H11B C5B 1_555 1_555
C6B C5B 1_555 1_555
H12B C6B 1_555 1_555
H13B C6B 1_555 1_555
C7B C18 1_555 1_555
C8B C7B 1_555 1_555
C9B C8B 1_555 1_555
F1B C9B 1_555 1_555
C10B C9B 1_555 1_555
C11B C10B 1_555 1_555
F2B C11B 1_555 1_555
C12B C11B 1_555 1_555
F3B C12B 1_555 1_555
C13B C12B 1_555 1_555
F4B C13B 1_555 1_555
C14B C13B 1_555 1_555
F5B C14B 1_555 1_555
C15B C10B 1_555 1_555
C16B C15B 1_555 1_555
F6B C16B 1_555 1_555
C17B C8B 1_555 1_555
C18B C7 1_555 1_555
C14 C15 1_555 1_555
C16 C17 1_555 1_555
C18 C18B 1_555 1_555
C6B C7B 1_555 1_555
C14B C15B 1_555 1_555
C16B C17B 1_555 1_555
C17B C18B 1_555 1_555

#END
