
#######################################################################
#
#                 Cambridge Crystallographic Data Centre
#                                CCDC 
#
#######################################################################
#
# If this CIF has been generated from an entry in the Cambridge 
# Structural Database, then it will include bibliographic, chemical, 
# crystal, experimental, refinement or atomic coordinate data resulting 
# from the CCDC's data processing and validation procedures.
#
#######################################################################

data_WOMCIL
_chemical_name_common            'C.I. Disperse Red 73 toluene solvate'
_chemical_formula_moiety         'C18 H16 N6 O2,C7 H8'
_chemical_name_systematic        
'2-((4-((2-Cyanoethyl)(ethyl)amino)phenyl)diazenyl)-5-nitrobenzonitrile toluene solvate'
_symmetry_cell_setting           monoclinic
_symmetry_space_group_name_H-M   'C 2/c'
_symmetry_Int_Tables_number      15
_space_group_name_Hall           '-C 2yn'
loop_
_symmetry_equiv_pos_site_id
_symmetry_equiv_pos_as_xyz
1 x,y,z
2 1/2+x,1/2+y,z
3 -x,y,1/2-z
4 1/2-x,1/2+y,1/2-z
5 -x,-y,-z
6 1/2-x,1/2-y,-z
7 x,-y,1/2+z
8 1/2+x,1/2-y,1/2+z
_cell_length_a                   35.363(4)
_cell_length_b                   6.9778(8)
_cell_length_c                   20.250(2)
_cell_angle_alpha                90
_cell_angle_beta                 114.078(2)
_cell_angle_gamma                90
_cell_volume                     4562.04
_exptl_crystal_colour            red
_exptl_crystal_description       block
_cell_formula_units_Z            8
_exptl_crystal_recrystallization_method acetonitrile/toluene
_exptl_crystal_preparation       dye
loop_
_atom_site_label
_atom_site_type_symbol
_atom_site_fract_x
_atom_site_fract_y
_atom_site_fract_z
C21 C 0.4260(3) -0.1954(16) 0.6122(5)
H21 H 0.4190 -0.0638 0.5992
H22 H 0.4032 -0.2585 0.6173
H23 H 0.4318 -0.2577 0.5751
C22 C 0.46467(13) -0.2054(8) 0.6846(2)
C23 C 0.48268(12) -0.3753(7) 0.7179(2)
H24 H 0.4712 -0.4914 0.6966
C24 C 0.48280(13) -0.0364(8) 0.7178(2)
H25 H 0.4715 0.0797 0.6961
C21B C 0.5740(3) -0.1954(16) 0.8878(5)
H21B H 0.5810 -0.0638 0.9008
H22B H 0.5968 -0.2585 0.8827
H23B H 0.5682 -0.2577 0.9249
C22B C 0.53533(13) -0.2054(8) 0.8154(2)
C23B C 0.51732(12) -0.3753(7) 0.7821(2)
H24B H 0.5288 -0.4914 0.8034
C24B C 0.51720(13) -0.0364(8) 0.7822(2)
H25B H 0.5285 0.0797 0.8039
O1 O 0.67034(8) 1.7209(5) 0.72964(15)
O2 O 0.62824(10) 1.7547(5) 0.78070(15)
N1 N 0.63549(10) 1.7378(5) 0.72725(17)
N2 N 0.58902(11) 1.6760(8) 0.41419(19)
N3 N 0.50194(8) 1.7349(4) 0.45269(15)
N4 N 0.46645(9) 1.7570(4) 0.45356(16)
N5 N 0.32415(9) 1.7687(6) 0.19666(18)
N6 N 0.3114(3) 1.830(4) -0.0471(5)
C1 C 0.60848(10) 1.7140(6) 0.59533(19)
H1 H 0.6354 1.6991 0.5988
C2 C 0.60044(11) 1.7363(5) 0.65582(18)
C3 C 0.56091(11) 1.7596(6) 0.65315(19)
H2 H 0.5568 1.7744 0.6953
C4 C 0.52790(11) 1.7602(6) 0.5864(2)
H3 H 0.5012 1.7762 0.5836
C5 C 0.53394(10) 1.7371(5) 0.52314(18)
C6 C 0.57445(10) 1.7146(6) 0.52825(18)
C7 C 0.58175(11) 1.6927(7) 0.4631(2)
C8 C 0.43283(10) 1.7556(5) 0.38700(19)
C9 C 0.39405(11) 1.7863(6) 0.3887(2)
H4 H 0.3925 1.8035 0.4330
C10 C 0.35838(10) 1.7916(6) 0.3264(2)
H5 H 0.3332 1.8145 0.3292
C11 C 0.35937(10) 1.7630(6) 0.2582(2)
C12 C 0.39885(11) 1.7300(6) 0.2570(2)
H6 H 0.4006 1.7091 0.2129
C13 C 0.43428(10) 1.7285(5) 0.31933(19)
H7 H 0.4597 1.7093 0.3169
C14 C 0.28443(12) 1.8207(8) 0.1982(2)
H8 H 0.2666 1.8745 0.1517
H9 H 0.2891 1.9192 0.2345
C15 C 0.26253(14) 1.6548(9) 0.2146(3)
H10 H 0.2370 1.6984 0.2154
H11 H 0.2798 1.6017 0.2609
H12 H 0.2569 1.5584 0.1780
C16 C 0.32323(14) 1.7285(10) 0.1261(3)
H13 H 0.2970 1.6689 0.0963
H14 H 0.3451 1.6385 0.1310
C17 C 0.3286(3) 1.9049(16) 0.0895(5)
H17 H 0.3101 2.0040 0.0924
H18 H 0.3568 1.9511 0.1139
C18 C 0.3196(4) 1.866(4) 0.0127(7)
N7? N 0.3085(6) 1.566(6) -0.0458(10)
H15? H 0.3010 1.6353 0.1085
H16? H 0.3482 1.6526 0.1394
C19? C 0.3202(16) 1.813(4) 0.0560(12)
H19? H 0.3454 1.8802 0.0623
H20? H 0.2970 1.9001 0.0362
C20? C 0.3138(8) 1.636(6) 0.0074(12)
C25? C 0.2027(12) 1.211(4) 0.061(2)
C26? C 0.2313(6) 1.236(3) 0.0237(15)
C27? C 0.2731(7) 1.268(2) 0.0656(9)
C28? C 0.3004(5) 1.292(3) 0.0326(17)
C29? C 0.2859(11) 1.283(3) -0.0423(18)
C30? C 0.2441(13) 1.251(4) -0.0842(9)
C31? C 0.2168(7) 1.227(4) -0.0512(14)
loop_
_geom_bond_atom_site_label_1
_geom_bond_atom_site_label_2
_geom_bond_site_symmetry_1
_geom_bond_site_symmetry_2
O1 N1 1_555 1_555
O2 N1 1_555 1_555
N1 C2 1_555 1_555
N2 C7 1_555 1_555
N3 N4 1_555 1_555
N4 C8 1_555 1_555
N5 C11 1_555 1_555
N6 C18 1_555 1_555
C1 H1 1_555 1_555
C2 C1 1_555 1_555
C3 C2 1_555 1_555
H2 C3 1_555 1_555
C4 C3 1_555 1_555
H3 C4 1_555 1_555
C5 N3 1_555 1_555
C6 C1 1_555 1_555
C7 C6 1_555 1_555
C8 C9 1_555 1_555
C9 H4 1_555 1_555
C10 C9 1_555 1_555
H5 C10 1_555 1_555
C11 C10 1_555 1_555
C12 C11 1_555 1_555
H6 C12 1_555 1_555
C13 C8 1_555 1_555
H7 C13 1_555 1_555
C14 N5 1_555 1_555
H8 C14 1_555 1_555
H9 C14 1_555 1_555
C15 C14 1_555 1_555
H10 C15 1_555 1_555
H11 C15 1_555 1_555
H12 C15 1_555 1_555
C16 N5 1_555 1_555
H13 C16 1_555 1_555
H14 C16 1_555 1_555
C17 C16 1_555 1_555
H17 C17 1_555 1_555
H18 C17 1_555 1_555
C18 C17 1_555 1_555
C21 H21 1_555 1_555
H22 C21 1_555 1_555
H23 C21 1_555 1_555
C22 C21 1_555 1_555
C23 C22 1_555 1_555
H24 C23 1_555 1_555
C24 C22 1_555 1_555
H25 C24 1_555 1_555
C21B H21B 1_555 1_555
H22B C21B 1_555 1_555
H23B C21B 1_555 1_555
C22B C21B 1_555 1_555
C23B C23 1_555 1_555
H24B C23B 1_555 1_555
C24B C24 1_555 1_555
H25B C24B 1_555 1_555
C4 C5 1_555 1_555
C5 C6 1_555 1_555
C12 C13 1_555 1_555
C22B C23B 1_555 1_555
C22B C24B 1_555 1_555

#END
