
#######################################################################
#
#                 Cambridge Crystallographic Data Centre
#                                CCDC 
#
#######################################################################
#
# If this CIF has been generated from an entry in the Cambridge 
# Structural Database, then it will include bibliographic, chemical, 
# crystal, experimental, refinement or atomic coordinate data resulting 
# from the CCDC's data processing and validation procedures.
#
#######################################################################

data_WOMDIM
_chemical_formula_moiety         'C24 H19 N3 O3'
_chemical_name_systematic        
'Benzoic acid 5-(4-methoxyphenylazo)-2-methylquinolin-8-yl ester'
_symmetry_cell_setting           triclinic
_symmetry_space_group_name_H-M   'P -1'
_symmetry_Int_Tables_number      2
_space_group_name_Hall           '-P 1'
loop_
_symmetry_equiv_pos_site_id
_symmetry_equiv_pos_as_xyz
1 x,y,z
2 -x,-y,-z
_cell_length_a                   8.1335(15)
_cell_length_b                   9.8019(18)
_cell_length_c                   13.627(3)
_cell_angle_alpha                93.820(2)
_cell_angle_beta                 100.250(2)
_cell_angle_gamma                112.848(2)
_cell_volume                     974.082
_cell_formula_units_Z            2
_exptl_crystal_preparation       dye
loop_
_atom_site_label
_atom_site_type_symbol
_atom_site_fract_x
_atom_site_fract_y
_atom_site_fract_z
N1 N -0.06766(17) 0.01989(15) 0.29715(9)
N2 N 0.42388(18) 0.18530(15) 0.59670(9)
N3 N 0.54962(18) 0.29473(16) 0.65494(10)
O1 O -0.06100(15) 0.30119(13) 0.30429(8)
O2 O -0.24790(18) 0.27253(16) 0.41093(9)
O3 O 0.91812(15) 0.19151(13) 1.00541(8)
C1 C -0.5134(2) 0.30333(18) 0.26016(13)
H1 H -0.5406 0.2893 0.3232
C2 C -0.6377(2) 0.3176(2) 0.18426(14)
H2 H -0.7490 0.3129 0.1957
C3 C -0.5983(2) 0.33883(19) 0.09076(14)
H3 H -0.6825 0.3495 0.0394
C4 C -0.4343(2) 0.34428(19) 0.07331(13)
H4 H -0.4083 0.3578 0.0100
C5 C -0.3086(2) 0.32966(17) 0.14970(12)
H5 H -0.1980 0.3332 0.1378
C6 C -0.3470(2) 0.30968(15) 0.24413(11)
C7 C -0.2194(2) 0.29214(17) 0.32895(12)
C8 C 0.0628(2) 0.27497(18) 0.37774(12)
C9 C 0.1860(2) 0.38848(19) 0.44966(13)
H6 H 0.1870 0.4838 0.4507
C10 C 0.3112(2) 0.36299(19) 0.52204(12)
H7 H 0.3933 0.4409 0.5720
C11 C 0.3139(2) 0.22377(18) 0.52009(11)
C12 C 0.1887(2) 0.10447(17) 0.44421(11)
C13 C 0.0600(2) 0.12928(17) 0.37159(11)
C14 C -0.0689(2) -0.11556(19) 0.29451(12)
C15 C 0.0537(2) -0.14956(19) 0.36410(12)
H8 H 0.0468 -0.2468 0.3597
C16 C 0.1816(2) -0.04240(18) 0.43759(12)
H9 H 0.2637 -0.0650 0.4831
C17 C -0.2094(2) -0.2348(2) 0.21243(13)
H10 H -0.2813 -0.1927 0.1718
H11 H -0.2876 -0.3142 0.2420
H12 H -0.1490 -0.2738 0.1710
C18 C 0.6414(2) 0.25512(18) 0.73964(11)
C19 C 0.5782(2) 0.11544(18) 0.77014(12)
H13 H 0.4741 0.0381 0.7308
C20 C 0.6668(2) 0.08940(18) 0.85740(12)
H14 H 0.6230 -0.0050 0.8770
C21 C 0.8219(2) 0.20424(18) 0.91643(11)
C22 C 0.8879(2) 0.34346(18) 0.88544(12)
H15 H 0.9942 0.4200 0.9236
C23 C 0.7970(2) 0.36870(18) 0.79862(12)
H16 H 0.8404 0.4632 0.7792
C24 C 0.8408(3) 0.0578(2) 1.04757(14)
H17 H 0.9210 0.0631 1.1100
H18 H 0.8253 -0.0268 1.0013
H19 H 0.7241 0.0472 1.0598
loop_
_geom_bond_atom_site_label_1
_geom_bond_atom_site_label_2
_geom_bond_site_symmetry_1
_geom_bond_site_symmetry_2
N1 C13 1_555 1_555
N2 N3 1_555 1_555
N3 C18 1_555 1_555
O1 C7 1_555 1_555
O2 C7 1_555 1_555
O3 C21 1_555 1_555
C1 H1 1_555 1_555
C2 C1 1_555 1_555
H2 C2 1_555 1_555
C3 C2 1_555 1_555
H3 C3 1_555 1_555
C4 C3 1_555 1_555
H4 C4 1_555 1_555
C5 C4 1_555 1_555
H5 C5 1_555 1_555
C6 C1 1_555 1_555
C7 C6 1_555 1_555
C8 O1 1_555 1_555
C9 C8 1_555 1_555
H6 C9 1_555 1_555
C10 C9 1_555 1_555
H7 C10 1_555 1_555
C11 N2 1_555 1_555
C12 C11 1_555 1_555
C13 C8 1_555 1_555
C14 N1 1_555 1_555
C15 C14 1_555 1_555
H8 C15 1_555 1_555
C16 C12 1_555 1_555
H9 C16 1_555 1_555
C17 C14 1_555 1_555
H10 C17 1_555 1_555
H11 C17 1_555 1_555
H12 C17 1_555 1_555
C18 C19 1_555 1_555
C19 H13 1_555 1_555
C20 C19 1_555 1_555
H14 C20 1_555 1_555
C21 C20 1_555 1_555
C22 C21 1_555 1_555
H15 C22 1_555 1_555
C23 C18 1_555 1_555
H16 C23 1_555 1_555
C24 O3 1_555 1_555
H17 C24 1_555 1_555
H18 C24 1_555 1_555
H19 C24 1_555 1_555
C5 C6 1_555 1_555
C10 C11 1_555 1_555
C12 C13 1_555 1_555
C15 C16 1_555 1_555
C22 C23 1_555 1_555

#END
