
#######################################################################
#
#                 Cambridge Crystallographic Data Centre
#                                CCDC 
#
#######################################################################
#
# If this CIF has been generated from an entry in the Cambridge 
# Structural Database, then it will include bibliographic, chemical, 
# crystal, experimental, refinement or atomic coordinate data resulting 
# from the CCDC's data processing and validation procedures.
#
#######################################################################

data_WOMFEL
_chemical_formula_moiety         'C21 H26 N6 O2 Si1'
_chemical_name_systematic        
((2,3-diazidotetrahydro-2H-pyran-2-yl)(diphenyl)methoxy)(trimethyl)silane
_symmetry_cell_setting           monoclinic
_symmetry_space_group_name_H-M   'P 21/c'
_symmetry_Int_Tables_number      14
_space_group_name_Hall           '-P 2ybc'
loop_
_symmetry_equiv_pos_site_id
_symmetry_equiv_pos_as_xyz
1 x,y,z
2 -x,1/2+y,1/2-z
3 -x,-y,-z
4 x,1/2-y,1/2+z
_cell_length_a                   8.7189(3)
_cell_length_b                   9.0660(4)
_cell_length_c                   27.8157(13)
_cell_angle_alpha                90
_cell_angle_beta                 91.003(4)
_cell_angle_gamma                90
_cell_volume                     2198.37
_exptl_crystal_colour            'light colorless'
_exptl_crystal_description       needle
_cell_formula_units_Z            4
loop_
_atom_site_label
_atom_site_type_symbol
_atom_site_fract_x
_atom_site_fract_y
_atom_site_fract_z
Si1 Si -0.12466(7) 0.24764(7) 0.65750(2)
O1 O 0.00196(14) 0.20484(15) 0.61647(5)
O2 O 0.04358(15) -0.08503(15) 0.63774(5)
N1 N 0.02965(19) -0.0332(2) 0.55325(6)
N2 N -0.1061(2) 0.0037(2) 0.55438(7)
N3 N 0.4807(2) -0.1936(2) 0.62572(7)
N4 N 0.3817(2) -0.1010(2) 0.62261(7)
N5 N 0.5788(3) -0.2711(3) 0.63308(10)
C1 C 0.1517(2) 0.1430(2) 0.61100(7)
C2 C 0.1223(2) -0.0254(2) 0.59881(7)
C3 C 0.2210(2) 0.2168(2) 0.56664(7)
C4 C 0.2464(2) 0.1800(2) 0.65681(7)
C5 C -0.2525(3) 0.3744(3) 0.62371(10)
H1 H -0.1985 0.4640 0.6169
H2 H -0.3408 0.3964 0.6426
H3 H -0.2848 0.3287 0.5941
N6 N -0.2318(2) 0.0297(3) 0.54944(9)
C6 C 0.1313(3) 0.3014(2) 0.53586(8)
H4 H 0.0271 0.3117 0.5416
C7 C 0.3761(2) 0.2020(2) 0.55658(8)
H5 H 0.4386 0.1451 0.5767
C8 C 0.2531(3) 0.0931(3) 0.69772(8)
H6 H 0.2085 -0.0001 0.6972
C9 C 0.2626(2) -0.1198(2) 0.58485(8)
H7 H 0.3023 -0.0831 0.5544
C10 C 0.3484(3) 0.3567(3) 0.48736(9)
H8 H 0.3912 0.4047 0.4613
C11 C 0.3150(2) 0.3183(2) 0.65923(8)
H9 H 0.3129 0.3787 0.6322
C12 C 0.4383(3) 0.2707(3) 0.51715(9)
H10 H 0.5419 0.2587 0.5107
C13 C 0.1946(3) 0.3711(3) 0.49644(8)
H11 H 0.1327 0.4279 0.4761
C14 C 0.3255(3) 0.1433(3) 0.73940(8)
H12 H 0.3289 0.0833 0.7665
C15 C -0.2359(4) 0.0865(3) 0.67831(13)
H13 H -0.2739 0.0321 0.6510
H14 H -0.3205 0.1199 0.6971
H15 H -0.1708 0.0241 0.6977
C16 C 0.3862(3) 0.3679(3) 0.70107(9)
H16 H 0.4303 0.4613 0.7019
C17 C 0.3923(3) 0.2805(3) 0.74120(9)
H17 H 0.4409 0.3135 0.7692
C18 C -0.0056(3) -0.2363(2) 0.63222(10)
H18 H -0.0806 -0.2428 0.6061
H19 H -0.0544 -0.2687 0.6615
C19 C 0.1283(3) -0.3368(3) 0.62170(10)
H20 H 0.0911 -0.4359 0.6154
H21 H 0.1972 -0.3405 0.6494
C20 C -0.0433(3) 0.3463(4) 0.71052(10)
H22 H 0.0115 0.2778 0.7308
H23 H -0.1248 0.3904 0.7283
H24 H 0.0256 0.4218 0.7000
C21 C 0.2141(3) -0.2804(2) 0.57826(9)
H25 H 0.1487 -0.2889 0.5498
H26 H 0.3043 -0.3408 0.5734
loop_
_geom_bond_atom_site_label_1
_geom_bond_atom_site_label_2
_geom_bond_site_symmetry_1
_geom_bond_site_symmetry_2
Si1 O1 1_555 1_555
O1 C1 1_555 1_555
O2 C2 1_555 1_555
N1 N2 1_555 1_555
N2 N6 1_555 1_555
N3 N4 1_555 1_555
N4 C9 1_555 1_555
N5 N3 1_555 1_555
C1 C2 1_555 1_555
C2 N1 1_555 1_555
C3 C1 1_555 1_555
C4 C1 1_555 1_555
C5 Si1 1_555 1_555
H1 C5 1_555 1_555
H2 C5 1_555 1_555
H3 C5 1_555 1_555
C6 C3 1_555 1_555
H4 C6 1_555 1_555
C7 C3 1_555 1_555
H5 C7 1_555 1_555
C8 C4 1_555 1_555
H6 C8 1_555 1_555
C9 C2 1_555 1_555
H7 C9 1_555 1_555
C10 H8 1_555 1_555
C11 C4 1_555 1_555
H9 C11 1_555 1_555
C12 C7 1_555 1_555
H10 C12 1_555 1_555
C13 C6 1_555 1_555
H11 C13 1_555 1_555
C14 C8 1_555 1_555
H12 C14 1_555 1_555
C15 Si1 1_555 1_555
H13 C15 1_555 1_555
H14 C15 1_555 1_555
H15 C15 1_555 1_555
C16 C11 1_555 1_555
H16 C16 1_555 1_555
C17 C14 1_555 1_555
H17 C17 1_555 1_555
C18 O2 1_555 1_555
H18 C18 1_555 1_555
H19 C18 1_555 1_555
C19 C18 1_555 1_555
H20 C19 1_555 1_555
H21 C19 1_555 1_555
C20 Si1 1_555 1_555
H22 C20 1_555 1_555
H23 C20 1_555 1_555
H24 C20 1_555 1_555
C21 C9 1_555 1_555
H25 C21 1_555 1_555
H26 C21 1_555 1_555
C10 C12 1_555 1_555
C10 C13 1_555 1_555
C16 C17 1_555 1_555
C19 C21 1_555 1_555

#END
