
#######################################################################
#
#                 Cambridge Crystallographic Data Centre
#                                CCDC 
#
#######################################################################
#
# If this CIF has been generated from an entry in the Cambridge 
# Structural Database, then it will include bibliographic, chemical, 
# crystal, experimental, refinement or atomic coordinate data resulting 
# from the CCDC's data processing and validation procedures.
#
#######################################################################

data_WOMFAH
_chemical_formula_moiety         'C19 H19 N3 O1'
_chemical_name_systematic        (2-azido-1-phenylcyclohexyl)(phenyl)methanone
_symmetry_cell_setting           monoclinic
_symmetry_space_group_name_H-M   'P 21/c'
_symmetry_Int_Tables_number      14
_space_group_name_Hall           '-P 2ybc'
loop_
_symmetry_equiv_pos_site_id
_symmetry_equiv_pos_as_xyz
1 x,y,z
2 -x,1/2+y,1/2-z
3 -x,-y,-z
4 x,1/2-y,1/2+z
_cell_length_a                   15.709(3)
_cell_length_b                   8.4319(16)
_cell_length_c                   12.274(2)
_cell_angle_alpha                90
_cell_angle_beta                 96.34(2)
_cell_angle_gamma                90
_cell_volume                     1615.83
_exptl_crystal_colour            'light colorless'
_exptl_crystal_description       block
_cell_formula_units_Z            4
loop_
_atom_site_label
_atom_site_type_symbol
_atom_site_fract_x
_atom_site_fract_y
_atom_site_fract_z
O1 O 0.72107(11) 0.1566(2) 0.14674(13)
N1 N 0.83203(14) 0.4139(2) 0.31102(17)
N2 N 0.86975(13) 0.5356(3) 0.34226(18)
N3 N 0.90424(17) 0.6523(3) 0.3599(2)
C1 C 0.83048(15) 0.2847(3) 0.39500(19)
H1 H 0.7889 0.3126 0.4458
C2 C 0.91922(15) 0.2643(3) 0.4601(2)
H2 H 0.9384 0.3662 0.4902
H3 H 0.9142 0.1929 0.5210
C3 C 0.98632(16) 0.1995(3) 0.3916(2)
H4 H 1.0391 0.1786 0.4382
H5 H 0.9982 0.2770 0.3369
C4 C 0.95342(16) 0.0469(3) 0.3356(2)
H6 H 0.9961 0.0054 0.2917
H7 H 0.9438 -0.0318 0.3906
C5 C 0.87026(15) 0.0770(3) 0.2625(2)
H8 H 0.8520 -0.0208 0.2254
H9 H 0.8807 0.1543 0.2070
C6 C 0.79707(14) 0.1385(3) 0.32667(17)
C7 C 0.76438(13) 0.0010(3) 0.39432(18)
C8 C 0.72410(15) -0.1268(3) 0.3376(2)
H10 H 0.7176 -0.1256 0.2614
C9 C 0.69359(17) -0.2550(3) 0.3917(2)
H11 H 0.6664 -0.3378 0.3518
C10 C 0.70329(19) -0.2606(3) 0.5039(3)
H12 H 0.6842 -0.3482 0.5403
C11 C 0.74160(18) -0.1353(4) 0.5623(2)
H13 H 0.7476 -0.1379 0.6385
C12 C 0.77155(15) -0.0045(3) 0.50826(19)
H14 H 0.7966 0.0798 0.5488
C13 C 0.72065(15) 0.1907(3) 0.24349(18)
C14 C 0.64480(15) 0.2772(3) 0.27784(19)
C15 C 0.59380(16) 0.3617(3) 0.1976(2)
H15 H 0.6092 0.3657 0.1266
C16 C 0.52123(18) 0.4393(4) 0.2217(3)
H16 H 0.4884 0.4958 0.1672
C17 C 0.49690(18) 0.4338(4) 0.3254(3)
H17 H 0.4473 0.4853 0.3411
C18 C 0.54613(17) 0.3516(3) 0.4065(2)
H18 H 0.5296 0.3478 0.4769
C19 C 0.61997(15) 0.2748(3) 0.3840(2)
H19 H 0.6533 0.2214 0.4396
loop_
_geom_bond_atom_site_label_1
_geom_bond_atom_site_label_2
_geom_bond_site_symmetry_1
_geom_bond_site_symmetry_2
O1 C13 1_555 1_555
N1 N2 1_555 1_555
N2 N3 1_555 1_555
C1 N1 1_555 1_555
H1 C1 1_555 1_555
C2 C1 1_555 1_555
H2 C2 1_555 1_555
H3 C2 1_555 1_555
C3 C2 1_555 1_555
H4 C3 1_555 1_555
H5 C3 1_555 1_555
C4 C3 1_555 1_555
H6 C4 1_555 1_555
H7 C4 1_555 1_555
C5 C4 1_555 1_555
H8 C5 1_555 1_555
H9 C5 1_555 1_555
C6 C1 1_555 1_555
C7 C6 1_555 1_555
C8 C7 1_555 1_555
H10 C8 1_555 1_555
C9 C8 1_555 1_555
H11 C9 1_555 1_555
C10 C9 1_555 1_555
H12 C10 1_555 1_555
C11 C10 1_555 1_555
H13 C11 1_555 1_555
C12 C7 1_555 1_555
H14 C12 1_555 1_555
C13 C6 1_555 1_555
C14 C13 1_555 1_555
C15 C14 1_555 1_555
H15 C15 1_555 1_555
C16 C15 1_555 1_555
H16 C16 1_555 1_555
C17 C16 1_555 1_555
H17 C17 1_555 1_555
C18 C17 1_555 1_555
H18 C18 1_555 1_555
C19 C14 1_555 1_555
H19 C19 1_555 1_555
C5 C6 1_555 1_555
C11 C12 1_555 1_555
C18 C19 1_555 1_555

#END
