
#######################################################################
#
#                 Cambridge Crystallographic Data Centre
#                                CCDC 
#
#######################################################################
#
# If this CIF has been generated from an entry in the Cambridge 
# Structural Database, then it will include bibliographic, chemical, 
# crystal, experimental, refinement or atomic coordinate data resulting 
# from the CCDC's data processing and validation procedures.
#
#######################################################################

data_WOMGEM
_chemical_formula_moiety         'C28 H22 F8'
_chemical_name_systematic        
5,10-dicyclohexyl-1,2,3,4,6,7,8,9-octafluoroindeno[2,1-a]indene
_symmetry_cell_setting           triclinic
_symmetry_space_group_name_H-M   'P -1'
_symmetry_Int_Tables_number      2
_space_group_name_Hall           '-P 1'
loop_
_symmetry_equiv_pos_site_id
_symmetry_equiv_pos_as_xyz
1 x,y,z
2 -x,-y,-z
_cell_length_a                   6.5687(5)
_cell_length_b                   7.0876(5)
_cell_length_c                   12.9383(10)
_cell_angle_alpha                100.531(6)
_cell_angle_beta                 97.595(6)
_cell_angle_gamma                109.752(7)
_cell_volume                     544.991
_exptl_crystal_colour            red
_exptl_crystal_description       block
_cell_formula_units_Z            1
loop_
_atom_site_label
_atom_site_type_symbol
_atom_site_fract_x
_atom_site_fract_y
_atom_site_fract_z
F1 F 0.19463(19) -0.04120(15) 0.32381(8)
F2 F 0.06717(19) -0.32767(15) 0.43534(9)
F3 F 0.14907(19) -0.22133(15) 0.65257(9)
F4 F 0.37491(19) 0.16510(15) 0.76258(8)
C1 C 0.5442(3) 0.5081(3) 0.63909(15)
C2 C 0.4453(3) 0.4191(3) 0.45083(15)
C3 C 0.3560(3) 0.2254(3) 0.48573(15)
C4 C 0.2448(3) 0.0217(3) 0.43212(15)
C5 C 0.1782(3) -0.1295(3) 0.48858(15)
C6 C 0.2219(3) -0.0758(3) 0.59840(15)
C7 C 0.3393(3) 0.1283(3) 0.65485(15)
C8 C 0.4123(3) 0.2814(3) 0.60089(15)
C9 C 0.6563(3) 0.6255(3) 0.75288(15)
H1 H 0.7455 0.7687 0.7492
C10 C 0.8224(3) 0.5412(3) 0.80296(15)
H2 H 0.7424 0.4004 0.8110
H3 H 0.9262 0.5323 0.7551
C11 C 0.9514(3) 0.6831(3) 0.91285(15)
H4 H 1.0409 0.8205 0.9039
H5 H 1.0536 0.6248 0.9458
C12 C 0.7939(3) 0.7071(3) 0.98703(15)
H6 H 0.7149 0.5716 1.0014
H7 H 0.8807 0.8042 1.0565
C13 C 0.6257(3) 0.7874(3) 0.93756(16)
H8 H 0.7037 0.9293 0.9305
H9 H 0.5219 0.7935 0.9858
C14 C 0.4948(3) 0.6485(3) 0.82655(15)
H10 H 0.3954 0.7101 0.7941
H11 H 0.4027 0.5108 0.8341
F1A F 0.80537(19) 1.04120(15) 0.67619(8)
F2A F 0.93283(19) 1.32767(15) 0.56466(9)
F3A F 0.85093(19) 1.22133(15) 0.34743(9)
F4A F 0.62509(19) 0.83490(15) 0.23742(8)
C1A C 0.4558(3) 0.4919(3) 0.36091(15)
C2A C 0.5547(3) 0.5809(3) 0.54917(15)
C3A C 0.6440(3) 0.7746(3) 0.51427(15)
C4A C 0.7552(3) 0.9783(3) 0.56788(15)
C5A C 0.8218(3) 1.1295(3) 0.51142(15)
C6A C 0.7781(3) 1.0758(3) 0.40160(15)
C7A C 0.6607(3) 0.8717(3) 0.34515(15)
C8A C 0.5877(3) 0.7186(3) 0.39911(15)
C9A C 0.3437(3) 0.3745(3) 0.24712(15)
H1A H 0.2545 0.2313 0.2508
C10A C 0.1776(3) 0.4588(3) 0.19704(15)
H2A H 0.2576 0.5996 0.1890
H3A H 0.0738 0.4677 0.2449
C11A C 0.0486(3) 0.3169(3) 0.08715(15)
H4A H -0.0409 0.1795 0.0961
H5A H -0.0536 0.3752 0.0542
C12A C 0.2061(3) 0.2929(3) 0.01297(15)
H6A H 0.2851 0.4284 -0.0014
H7A H 0.1193 0.1958 -0.0565
C13A C 0.3743(3) 0.2126(3) 0.06244(16)
H8A H 0.2963 0.0707 0.0695
H9A H 0.4781 0.2065 0.0142
C14A C 0.5052(3) 0.3515(3) 0.17345(15)
H10A H 0.6046 0.2899 0.2059
H11A H 0.5973 0.4892 0.1659
loop_
_geom_bond_atom_site_label_1
_geom_bond_atom_site_label_2
_geom_bond_site_symmetry_1
_geom_bond_site_symmetry_2
F1 C4 1_555 1_555
F2 C5 1_555 1_555
F3 C6 1_555 1_555
F4 C7 1_555 1_555
C1 C8 1_555 1_555
C2 C3 1_555 1_555
C3 C4 1_555 1_555
C4 C5 1_555 1_555
C5 C6 1_555 1_555
C6 C7 1_555 1_555
C7 C8 1_555 1_555
C8 C3 1_555 1_555
C9 C1 1_555 1_555
H1 C9 1_555 1_555
C10 C9 1_555 1_555
H2 C10 1_555 1_555
H3 C10 1_555 1_555
C11 C10 1_555 1_555
H4 C11 1_555 1_555
H5 C11 1_555 1_555
C12 C11 1_555 1_555
H6 C12 1_555 1_555
H7 C12 1_555 1_555
C13 C12 1_555 1_555
H8 C13 1_555 1_555
H9 C13 1_555 1_555
C14 C9 1_555 1_555
H10 C14 1_555 1_555
H11 C14 1_555 1_555
F1A C4A 1_555 1_555
F2A C5A 1_555 1_555
F3A C6A 1_555 1_555
F4A C7A 1_555 1_555
C1A C2 1_555 1_555
C2A C1 1_555 1_555
C3A C2A 1_555 1_555
C4A C3A 1_555 1_555
C5A C4A 1_555 1_555
C6A C5A 1_555 1_555
C7A C6A 1_555 1_555
C8A C1A 1_555 1_555
C9A C1A 1_555 1_555
H1A C9A 1_555 1_555
C10A C9A 1_555 1_555
H2A C10A 1_555 1_555
H3A C10A 1_555 1_555
C11A C10A 1_555 1_555
H4A C11A 1_555 1_555
H5A C11A 1_555 1_555
C12A C11A 1_555 1_555
H6A C12A 1_555 1_555
H7A C12A 1_555 1_555
C13A C12A 1_555 1_555
H8A C13A 1_555 1_555
H9A C13A 1_555 1_555
C14A C9A 1_555 1_555
H10A C14A 1_555 1_555
H11A C14A 1_555 1_555
C2 C2A 1_555 1_555
C13 C14 1_555 1_555
C3A C8A 1_555 1_555
C7A C8A 1_555 1_555
C13A C14A 1_555 1_555

#END
