
#######################################################################
#
#                 Cambridge Crystallographic Data Centre
#                                CCDC 
#
#######################################################################
#
# If this CIF has been generated from an entry in the Cambridge 
# Structural Database, then it will include bibliographic, chemical, 
# crystal, experimental, refinement or atomic coordinate data resulting 
# from the CCDC's data processing and validation procedures.
#
#######################################################################

data_WOMGOW
_chemical_formula_moiety         'C28 H11 F9'
_chemical_name_systematic        
1-benzylidene-4,5,6,7-tetrafluoro-2-(pentafluorophenyl)-3-phenyl-1H-indene
_symmetry_cell_setting           monoclinic
_symmetry_space_group_name_H-M   'C c'
_symmetry_Int_Tables_number      9
_space_group_name_Hall           'C -2yc'
loop_
_symmetry_equiv_pos_site_id
_symmetry_equiv_pos_as_xyz
1 x,y,z
2 x,-y,1/2+z
3 1/2+x,1/2+y,z
4 1/2+x,1/2-y,1/2+z
_cell_length_a                   21.2019(8)
_cell_length_b                   14.2218(5)
_cell_length_c                   7.1356(2)
_cell_angle_alpha                90
_cell_angle_beta                 100.050(3)
_cell_angle_gamma                90
_cell_volume                     2118.58
_exptl_crystal_colour            yellow
_exptl_crystal_description       block
_cell_formula_units_Z            4
loop_
_atom_site_label
_atom_site_type_symbol
_atom_site_fract_x
_atom_site_fract_y
_atom_site_fract_z
F1 F 0.17651(8) 1.13314(12) 0.5719(2)
F2 F 0.28919(9) 1.19837(14) 0.5002(3)
F3 F 0.38166(8) 1.07960(14) 0.4336(3)
F4 F 0.36379(8) 0.89196(13) 0.4321(3)
F5 F 0.05883(9) 0.80262(13) 0.2523(3)
F6 F -0.02003(9) 0.65349(15) 0.2302(3)
F7 F 0.01035(11) 0.50479(14) 0.4712(4)
F8 F 0.11789(12) 0.51098(16) 0.7398(4)
F9 F 0.19310(10) 0.66402(15) 0.7760(3)
C1 C 0.09698(15) 0.9550(2) 0.5947(4)
H1 H 0.0932 1.0215 0.5969
C2 C 0.15266(15) 0.9198(2) 0.5589(4)
C3 C 0.17125(15) 0.8211(2) 0.5291(4)
C4 C 0.23281(15) 0.8165(2) 0.4986(4)
C5 C 0.25861(15) 0.9126(2) 0.5038(4)
C6 C 0.20991(15) 0.9753(2) 0.5364(4)
C7 C 0.22098(14) 1.0703(2) 0.5389(4)
C8 C 0.27902(15) 1.1054(2) 0.5029(4)
C9 C 0.32646(15) 1.0442(2) 0.4691(4)
C10 C 0.31644(15) 0.9478(2) 0.4705(4)
C11 C 0.04131(15) 0.8998(2) 0.6309(4)
C12 C -0.01948(16) 0.9179(2) 0.5256(5)
H2 H -0.0255 0.9682 0.4366
C13 C -0.07124(16) 0.8620(2) 0.5513(5)
H3 H -0.1122 0.8734 0.4767
C14 C -0.06369(16) 0.7904(3) 0.6842(5)
H4 H -0.0991 0.7520 0.6992
C15 C -0.00435(16) 0.7747(2) 0.7951(5)
H5 H 0.0008 0.7269 0.8896
C16 C 0.04758(15) 0.8290(2) 0.7678(4)
H6 H 0.0883 0.8177 0.8440
C17 C 0.12829(15) 0.7388(2) 0.5161(4)
C18 C 0.07335(16) 0.7323(2) 0.3796(4)
C19 C 0.03260(16) 0.6564(2) 0.3651(5)
C20 C 0.04742(17) 0.5819(2) 0.4882(5)
C21 C 0.10237(18) 0.5849(3) 0.6253(6)
C22 C 0.14132(16) 0.6625(2) 0.6375(5)
C23 C 0.26677(15) 0.7304(2) 0.4544(4)
C24 C 0.23879(17) 0.6723(2) 0.3042(5)
H7 H 0.1986 0.6887 0.2301
C25 C 0.2699(2) 0.5908(2) 0.2638(6)
H8 H 0.2510 0.5514 0.1617
C26 C 0.32852(19) 0.5669(3) 0.3724(5)
H9 H 0.3497 0.5110 0.3446
C27 C 0.35610(18) 0.6239(3) 0.5206(5)
H10 H 0.3962 0.6070 0.5945
C28 C 0.32581(17) 0.7059(3) 0.5629(5)
H11 H 0.3451 0.7449 0.6648
loop_
_geom_bond_atom_site_label_1
_geom_bond_atom_site_label_2
_geom_bond_site_symmetry_1
_geom_bond_site_symmetry_2
F1 C7 1_555 1_555
F2 C8 1_555 1_555
F3 C9 1_555 1_555
F4 C10 1_555 1_555
F5 C18 1_555 1_555
F6 C19 1_555 1_555
F7 C20 1_555 1_555
F8 C21 1_555 1_555
F9 C22 1_555 1_555
C1 H1 1_555 1_555
C2 C1 1_555 1_555
C3 C2 1_555 1_555
C4 C3 1_555 1_555
C5 C4 1_555 1_555
C6 C2 1_555 1_555
C7 C6 1_555 1_555
C8 C7 1_555 1_555
C9 C8 1_555 1_555
C10 C5 1_555 1_555
C11 C1 1_555 1_555
C12 C11 1_555 1_555
H2 C12 1_555 1_555
C13 C12 1_555 1_555
H3 C13 1_555 1_555
C14 C13 1_555 1_555
H4 C14 1_555 1_555
C15 C14 1_555 1_555
H5 C15 1_555 1_555
C16 C11 1_555 1_555
H6 C16 1_555 1_555
C17 C3 1_555 1_555
C18 C17 1_555 1_555
C19 C18 1_555 1_555
C20 C19 1_555 1_555
C21 C20 1_555 1_555
C22 C17 1_555 1_555
C23 C4 1_555 1_555
C24 C23 1_555 1_555
H7 C24 1_555 1_555
C25 C24 1_555 1_555
H8 C25 1_555 1_555
C26 C25 1_555 1_555
H9 C26 1_555 1_555
C27 C26 1_555 1_555
H10 C27 1_555 1_555
C28 C23 1_555 1_555
H11 C28 1_555 1_555
C5 C6 1_555 1_555
C9 C10 1_555 1_555
C15 C16 1_555 1_555
C21 C22 1_555 1_555
C27 C28 1_555 1_555

#END
