
#######################################################################
#
#                 Cambridge Crystallographic Data Centre
#                                CCDC 
#
#######################################################################
#
# If this CIF has been generated from an entry in the Cambridge 
# Structural Database, then it will include bibliographic, chemical, 
# crystal, experimental, refinement or atomic coordinate data resulting 
# from the CCDC's data processing and validation procedures.
#
#######################################################################

data_WOMHAJ
_chemical_formula_moiety         'C12 H9 F2 N3 O1'
_chemical_name_systematic        1-(2,4-difluorophenyl)-3-pyridin-2-ylurea
_symmetry_cell_setting           monoclinic
_symmetry_space_group_name_H-M   'P 21/n'
_symmetry_Int_Tables_number      14
_space_group_name_Hall           '-P 2yn'
loop_
_symmetry_equiv_pos_site_id
_symmetry_equiv_pos_as_xyz
1 x,y,z
2 1/2-x,1/2+y,1/2-z
3 -x,-y,-z
4 1/2+x,1/2-y,1/2+z
_cell_length_a                   10.484(2)
_cell_length_b                   5.4019(11)
_cell_length_c                   19.491(4)
_cell_angle_alpha                90
_cell_angle_beta                 104.37(3)
_cell_angle_gamma                90
_cell_volume                     1069.31
_cell_formula_units_Z            4
loop_
_atom_site_label
_atom_site_type_symbol
_atom_site_fract_x
_atom_site_fract_y
_atom_site_fract_z
F1 F 1.22958(11) 0.5922(2) 1.20051(6)
F2 F 0.89228(10) 0.8208(2) 1.00313(5)
O1 O 0.66064(12) 0.0878(2) 1.05635(6)
N1 N 0.59388(14) 0.6173(3) 0.89394(7)
N2 N 0.54448(13) 0.2652(3) 0.95489(7)
H1 H 0.4828 0.1260 0.9530
N3 N 0.74421(13) 0.4355(3) 1.01512(7)
H2 H 0.7234 0.5468 0.9810
C1 C 0.56177(17) 0.7641(3) 0.83666(9)
H3 H 0.6165 0.8975 0.8341
C2 C 0.45212(17) 0.7281(4) 0.78140(9)
H4 H 0.4339 0.8333 0.7424
C3 C 0.36927(17) 0.5296(4) 0.78566(9)
H5 H 0.2941 0.5015 0.7495
C4 C 0.39965(16) 0.3751(3) 0.84399(8)
H6 H 0.3458 0.2419 0.8480
C5 C 0.51443(15) 0.4256(3) 0.89707(8)
C6 C 0.65300(14) 0.2543(3) 1.01195(7)
C7 C 0.86524(15) 0.4588(3) 1.06525(8)
C8 C 0.91758(16) 0.2950(3) 1.12038(8)
H7 H 0.8696 0.1561 1.1270
C9 C 1.04149(16) 0.3378(3) 1.16564(9)
H8 H 1.0765 0.2280 1.2022
C10 C 1.11124(16) 0.5451(3) 1.15537(9)
C11 C 1.06445(16) 0.7118(3) 1.10122(9)
H9 H 1.1132 0.8496 1.0946
C12 C 0.94165(15) 0.6639(3) 1.05730(8)
loop_
_geom_bond_atom_site_label_1
_geom_bond_atom_site_label_2
_geom_bond_site_symmetry_1
_geom_bond_site_symmetry_2
F1 C10 1_555 1_555
F2 C12 1_555 1_555
O1 C6 1_555 1_555
N1 C1 1_555 1_555
N2 H1 1_555 1_555
N3 H2 1_555 1_555
C1 H3 1_555 1_555
C2 C1 1_555 1_555
H4 C2 1_555 1_555
C3 C2 1_555 1_555
H5 C3 1_555 1_555
C4 C3 1_555 1_555
H6 C4 1_555 1_555
C5 N1 1_555 1_555
C6 N2 1_555 1_555
C7 N3 1_555 1_555
C8 C7 1_555 1_555
H7 C8 1_555 1_555
C9 C8 1_555 1_555
H8 C9 1_555 1_555
C10 C9 1_555 1_555
C11 C10 1_555 1_555
H9 C11 1_555 1_555
C12 C7 1_555 1_555
N2 C5 1_555 1_555
N3 C6 1_555 1_555
C4 C5 1_555 1_555
C11 C12 1_555 1_555

#END
