
#######################################################################
#
#                 Cambridge Crystallographic Data Centre
#                                CCDC 
#
#######################################################################
#
# If this CIF has been generated from an entry in the Cambridge 
# Structural Database, then it will include bibliographic, chemical, 
# crystal, experimental, refinement or atomic coordinate data resulting 
# from the CCDC's data processing and validation procedures.
#
#######################################################################

data_WOMJAL
_chemical_formula_moiety         'C12 H9 F2 N3 O1,H2 O1'
_chemical_name_systematic        
'1-(2,4-difluorophenyl)-3-pyridin-4-ylurea monohydrate'
_symmetry_cell_setting           triclinic
_symmetry_space_group_name_H-M   'P -1'
_symmetry_Int_Tables_number      2
_space_group_name_Hall           '-P 1'
loop_
_symmetry_equiv_pos_site_id
_symmetry_equiv_pos_as_xyz
1 x,y,z
2 -x,-y,-z
_cell_length_a                   8.9104(3)
_cell_length_b                   9.9683(3)
_cell_length_c                   13.1855(4)
_cell_angle_alpha                91.865(2)
_cell_angle_beta                 92.788(2)
_cell_angle_gamma                91.591(2)
_cell_volume                     1168.65
_exptl_crystal_colour            colorless
_exptl_crystal_description       needle
_cell_formula_units_Z            4
loop_
_atom_site_label
_atom_site_type_symbol
_atom_site_fract_x
_atom_site_fract_y
_atom_site_fract_z
F1 F 0.26294(15) -0.04371(13) 0.71866(9)
F2 F 0.59708(16) -0.34679(14) 0.57940(10)
O1 O 0.14791(17) 0.08256(15) 0.37144(10)
N1 N 0.0385(2) 0.22104(19) 0.48672(15)
N2 N 0.1897(2) 0.05655(19) 0.54183(14)
N3 N -0.2015(2) 0.4894(2) 0.30639(15)
C1 C 0.1271(2) 0.1177(2) 0.45944(15)
C2 C 0.2908(2) -0.0485(2) 0.54252(15)
C3 C -0.0400(2) 0.3065(2) 0.42270(16)
C4 C 0.3583(2) -0.1045(2) 0.45821(17)
C5 C 0.4611(2) -0.2048(2) 0.47071(17)
C6 C 0.3313(2) -0.0990(2) 0.63686(15)
C7 C -0.1359(2) 0.3969(2) 0.46725(17)
C8 C 0.4332(3) -0.1974(2) 0.65166(18)
C9 C 0.4965(2) -0.2488(2) 0.56626(17)
C10 C -0.0262(3) 0.3099(2) 0.31805(18)
C11 C -0.2131(3) 0.4846(2) 0.40674(19)
C12 C -0.1093(3) 0.4013(3) 0.2650(2)
H1 H -0.275(3) 0.547(2) 0.4374(17)
H2 H -0.145(2) 0.398(2) 0.5483(18)
H3 H 0.023(2) 0.228(2) 0.5420(17)
H4 H 0.165(3) 0.085(3) 0.595(2)
H5 H 0.041(3) 0.253(2) 0.2884(17)
H6 H -0.098(3) 0.405(3) 0.195(2)
H7 H 0.459(3) -0.231(2) 0.7191(19)
H8 H 0.510(3) -0.240(2) 0.4135(18)
H9 H 0.338(2) -0.073(2) 0.3930(17)
F3 F 0.91751(15) -0.20676(13) -0.07317(10)
F4 F 0.55655(15) 0.07468(14) -0.21727(9)
O2 O 0.57175(16) 0.29919(15) 0.11679(10)
N4 N 0.3776(2) 0.37449(18) 0.01557(14)
N5 N 0.5270(2) 0.21153(18) -0.04442(14)
N6 N 0.1727(2) 0.65578(18) 0.20313(14)
C13 C 0.6315(2) 0.1093(2) -0.04539(15)
C14 C 0.8187(3) -0.0341(2) 0.02743(17)
C15 C 0.8237(2) -0.1026(2) -0.06352(17)
C16 C 0.3149(2) 0.4668(2) 0.08147(15)
C17 C 0.7232(2) 0.0726(2) 0.03711(17)
C18 C 0.1939(3) 0.5382(2) 0.04396(17)
C19 C 0.4987(2) 0.2951(2) 0.03639(15)
C20 C 0.7368(2) -0.0692(2) -0.14750(17)
C21 C 0.6438(2) 0.0367(2) -0.13618(15)
C22 C 0.3648(3) 0.4934(2) 0.18202(16)
C23 C 0.2892(3) 0.5870(2) 0.23786(18)
C24 C 0.1283(3) 0.6300(2) 0.10640(18)
H10 H 0.336(3) 0.363(3) -0.040(2)
H11 H 0.472(3) 0.220(2) -0.0952(19)
H12 H 0.317(3) 0.603(2) 0.3031(19)
H13 H 0.446(2) 0.452(2) 0.2103(16)
H14 H 0.158(2) 0.5210(19) -0.0277(16)
H15 H 0.052(3) 0.676(2) 0.0804(18)
H16 H 0.740(3) -0.120(2) -0.214(2)
H17 H 0.878(3) -0.053(2) 0.0822(19)
H18 H 0.722(2) 0.115(2) 0.1001(17)
O3 O 0.00348(19) 0.16597(19) 0.70346(12)
H19 H -0.076(3) 0.235(3) 0.729(2)
H20 H -0.039(3) 0.094(3) 0.696(2)
O4 O 0.7206(2) 0.70512(17) 0.18962(12)
H21 H 0.739(3) 0.6273(17) 0.2219(17)
H22 H 0.786(3) 0.766(3) 0.210(2)
loop_
_geom_bond_atom_site_label_1
_geom_bond_atom_site_label_2
_geom_bond_site_symmetry_1
_geom_bond_site_symmetry_2
F1 C6 1_555 1_555
F2 C9 1_555 1_555
O1 C1 1_555 1_555
N1 C1 1_555 1_555
N2 C1 1_555 1_555
N3 C11 1_555 1_555
C2 N2 1_555 1_555
C3 N1 1_555 1_555
C4 C2 1_555 1_555
C5 C4 1_555 1_555
C6 C2 1_555 1_555
C7 C3 1_555 1_555
C8 C6 1_555 1_555
C9 C5 1_555 1_555
C10 C3 1_555 1_555
C11 C7 1_555 1_555
C12 N3 1_555 1_555
H1 C11 1_555 1_555
H2 C7 1_555 1_555
H3 N1 1_555 1_555
H4 N2 1_555 1_555
H5 C10 1_555 1_555
H6 C12 1_555 1_555
H7 C8 1_555 1_555
H8 C5 1_555 1_555
H9 C4 1_555 1_555
F3 C15 1_555 1_555
F4 C21 1_555 1_555
O2 C19 1_555 1_555
N4 C16 1_555 1_555
N5 C13 1_555 1_555
N6 C23 1_555 1_555
C13 C17 1_555 1_555
C14 C15 1_555 1_555
C15 C20 1_555 1_555
C16 C18 1_555 1_555
C17 C14 1_555 1_555
C18 C24 1_555 1_555
C19 N4 1_555 1_555
C20 C21 1_555 1_555
C21 C13 1_555 1_555
C22 C16 1_555 1_555
C23 C22 1_555 1_555
C24 N6 1_555 1_555
H10 N4 1_555 1_555
H11 N5 1_555 1_555
H12 C23 1_555 1_555
H13 C22 1_555 1_555
H14 C18 1_555 1_555
H15 C24 1_555 1_555
H16 C20 1_555 1_555
H17 C14 1_555 1_555
H18 C17 1_555 1_555
O3 H19 1_555 1_555
H20 O3 1_555 1_555
O4 H21 1_555 1_555
H22 O4 1_555 1_555
C8 C9 1_555 1_555
C10 C12 1_555 1_555
N5 C19 1_555 1_555

#END
