
#######################################################################
#
#                 Cambridge Crystallographic Data Centre
#                                CCDC 
#
#######################################################################
#
# If this CIF has been generated from an entry in the Cambridge 
# Structural Database, then it will include bibliographic, chemical, 
# crystal, experimental, refinement or atomic coordinate data resulting 
# from the CCDC's data processing and validation procedures.
#
#######################################################################

data_WOMREV
_chemical_formula_moiety         'C17 H21 N1 O6'
_chemical_name_systematic        
'(E)-t-Butyl 6-hydroxy-2-(4-nitrobenzylidene)-3-oxohexanoate'
_symmetry_cell_setting           monoclinic
_symmetry_space_group_name_H-M   'P 21/c'
_symmetry_Int_Tables_number      14
_space_group_name_Hall           '-P 2ybc'
loop_
_symmetry_equiv_pos_site_id
_symmetry_equiv_pos_as_xyz
1 x,y,z
2 x,1/2-y,1/2+z
3 -x,-y,-z
4 -x,1/2+y,1/2-z
_cell_length_a                   6.4430(2)
_cell_length_b                   30.3339(12)
_cell_length_c                   8.6077(3)
_cell_angle_alpha                90
_cell_angle_beta                 97.3840(10)
_cell_angle_gamma                90
_cell_volume                     1668.35
_exptl_crystal_colour            'pale yellow'
_exptl_crystal_description       needle
_cell_formula_units_Z            4
loop_
_atom_site_label
_atom_site_type_symbol
_atom_site_fract_x
_atom_site_fract_y
_atom_site_fract_z
O1 O -0.34639(18) 0.19189(4) 0.52647(11)
H1 H -0.466(4) 0.1778(8) 0.485(2)
O2 O 0.25354(14) 0.15425(3) 0.37616(10)
O3 O 0.25829(14) 0.15678(3) 0.71837(9)
O4 O 0.37625(15) 0.09256(3) 0.83520(9)
O5 O 0.15035(16) -0.08674(3) -0.01892(11)
O6 O 0.23751(15) -0.02992(3) -0.14951(10)
N1 N 0.20288(16) -0.04808(3) -0.02725(12)
C1 C -0.2210(2) 0.20034(4) 0.40438(15)
H2 H -0.0820 0.2112 0.4513
H3 H -0.2878 0.2239 0.3355
C2 C -0.1921(2) 0.15978(4) 0.30649(13)
H4 H -0.1100 0.1679 0.2212
H5 H -0.3310 0.1494 0.2578
C3 C -0.0814(2) 0.12232(4) 0.40110(13)
H6 H -0.1411 0.1198 0.5011
H7 H -0.1120 0.0945 0.3427
C4 C 0.15260(19) 0.12706(4) 0.43759(12)
C5 C 0.25390(18) 0.09535(4) 0.55990(12)
C6 C 0.30462(19) 0.11393(4) 0.72222(13)
C7 C 0.3070(2) 0.18554(4) 0.85842(12)
C8 C 0.2417(2) 0.23061(4) 0.79214(15)
H8 H 0.3197 0.2374 0.7046
H9 H 0.2719 0.2530 0.8740
H10 H 0.0914 0.2305 0.7551
C9 C 0.1739(3) 0.17130(5) 0.98290(15)
H11 H 0.0261 0.1711 0.9382
H12 H 0.1941 0.1920 1.0710
H13 H 0.2156 0.1416 1.0197
C10 C 0.5400(2) 0.18417(4) 0.91307(14)
H14 H 0.5777 0.1552 0.9584
H15 H 0.5760 0.2070 0.9924
H16 H 0.6170 0.1894 0.8238
C11 C 0.29033(18) 0.05252(4) 0.53806(13)
H17 H 0.3392 0.0360 0.6292
C12 C 0.26340(18) 0.02800(4) 0.38902(13)
C13 C 0.29614(19) 0.04728(4) 0.24640(13)
H18 H 0.3318 0.0776 0.2433
C14 C 0.27703(19) 0.02255(4) 0.10909(13)
H19 H 0.3000 0.0355 0.0123
C15 C 0.22348(18) -0.02156(4) 0.11755(13)
C16 C 0.1906(2) -0.04191(4) 0.25637(14)
H20 H 0.1536 -0.0722 0.2583
C17 C 0.21292(19) -0.01698(4) 0.39204(13)
H21 H 0.1938 -0.0305 0.4887
loop_
_geom_bond_atom_site_label_1
_geom_bond_atom_site_label_2
_geom_bond_site_symmetry_1
_geom_bond_site_symmetry_2
O1 H1 1_555 1_555
O2 C4 1_555 1_555
O3 C6 1_555 1_555
O4 C6 1_555 1_555
O5 N1 1_555 1_555
O6 N1 1_555 1_555
N1 C15 1_555 1_555
C1 O1 1_555 1_555
H2 C1 1_555 1_555
H3 C1 1_555 1_555
C2 C1 1_555 1_555
H4 C2 1_555 1_555
H5 C2 1_555 1_555
C3 C2 1_555 1_555
H6 C3 1_555 1_555
H7 C3 1_555 1_555
C4 C3 1_555 1_555
C5 C4 1_555 1_555
C6 C5 1_555 1_555
C7 O3 1_555 1_555
C8 C7 1_555 1_555
H8 C8 1_555 1_555
H9 C8 1_555 1_555
H10 C8 1_555 1_555
C9 C7 1_555 1_555
H11 C9 1_555 1_555
H12 C9 1_555 1_555
H13 C9 1_555 1_555
C10 C7 1_555 1_555
H14 C10 1_555 1_555
H15 C10 1_555 1_555
H16 C10 1_555 1_555
C11 C5 1_555 1_555
H17 C11 1_555 1_555
C12 C11 1_555 1_555
C13 C12 1_555 1_555
H18 C13 1_555 1_555
C14 C13 1_555 1_555
H19 C14 1_555 1_555
C15 C14 1_555 1_555
C16 C15 1_555 1_555
H20 C16 1_555 1_555
C17 C12 1_555 1_555
H21 C17 1_555 1_555
C16 C17 1_555 1_555

#END
