
#######################################################################
#
#                 Cambridge Crystallographic Data Centre
#                                CCDC 
#
#######################################################################
#
# If this CIF has been generated from an entry in the Cambridge 
# Structural Database, then it will include bibliographic, chemical, 
# crystal, experimental, refinement or atomic coordinate data resulting 
# from the CCDC's data processing and validation procedures.
#
#######################################################################

data_WOMVAX
_chemical_formula_moiety         'C21 H16 Cl2 N4 O1 S1'
_chemical_name_systematic        
2-((5-chloro-2-((5-chloro-2-hydroxybenzylidene)amino)phenyl)(phenyl)methylene)hydrazinecarbothioamide
_symmetry_cell_setting           monoclinic
_symmetry_space_group_name_H-M   'P 21/n'
_symmetry_Int_Tables_number      14
_space_group_name_Hall           '-P 2yn'
loop_
_symmetry_equiv_pos_site_id
_symmetry_equiv_pos_as_xyz
1 x,y,z
2 1/2-x,1/2+y,1/2-z
3 -x,-y,-z
4 1/2+x,1/2-y,1/2+z
_cell_length_a                   12.32585(18)
_cell_length_b                   10.33238(15)
_cell_length_c                   15.6696(3)
_cell_angle_alpha                90
_cell_angle_beta                 96.8006(14)
_cell_angle_gamma                90
_cell_volume                     1981.57
_exptl_crystal_colour            'pale yellow'
_exptl_crystal_description       prism
_cell_formula_units_Z            4
loop_
_atom_site_label
_atom_site_type_symbol
_atom_site_fract_x
_atom_site_fract_y
_atom_site_fract_z
Cl1 Cl 0.79916(2) 0.79069(2) 0.74152(2)
Cl2 Cl 0.24440(2) -0.05598(3) 0.44525(2)
S1 S 0.63322(2) 0.76085(3) 0.29108(2)
O1 O 0.62878(6) 0.24021(8) 0.37106(5)
H1 H 0.6471 0.2954 0.4094
N1 N 0.80328(6) 0.48724(8) 0.41548(5)
N2 N 0.72820(7) 0.58370(8) 0.39446(5)
H2 H 0.6922 0.6176 0.4343
N3 N 0.75080(9) 0.55726(11) 0.25269(6)
H3 H 0.7884 0.4867 0.2674
H4 H 0.7407 0.5816 0.1985
N4 N 0.61446(6) 0.36889(7) 0.51367(5)
C1 C 0.90149(7) 0.35208(9) 0.52007(6)
C2 C 0.93702(8) 0.27091(10) 0.45723(7)
H5 H 0.9074 0.2804 0.3988
C3 C 1.01527(9) 0.17694(11) 0.48015(8)
H6 H 1.0384 0.1215 0.4374
C4 C 1.06033(9) 0.16325(11) 0.56563(8)
H7 H 1.1153 0.1002 0.5808
C5 C 1.02482(9) 0.24164(11) 0.62812(8)
H8 H 1.0550 0.2320 0.6864
C6 C 0.94485(8) 0.33482(10) 0.60576(7)
H9 H 0.9196 0.3871 0.6492
C7 C 0.82002(7) 0.45484(9) 0.49560(6)
C8 C 0.70950(8) 0.62679(10) 0.31209(6)
C9 C 0.75889(7) 0.51395(8) 0.56283(6)
C10 C 0.80356(8) 0.61366(9) 0.61554(6)
H10 H 0.8740 0.6467 0.6090
C11 C 0.74421(8) 0.66422(8) 0.67762(6)
C12 C 0.64200(8) 0.61600(9) 0.68943(6)
H11 H 0.6033 0.6499 0.7334
C13 C 0.59682(7) 0.51747(9) 0.63619(6)
H12 H 0.5263 0.4850 0.6431
C14 C 0.65462(7) 0.46582(8) 0.57257(5)
C15 C 0.53653(7) 0.29297(9) 0.52963(6)
H13 H 0.5069 0.3002 0.5827
C16 C 0.49345(7) 0.19633(8) 0.46725(6)
C17 C 0.54150(7) 0.17275(9) 0.39157(6)
C18 C 0.49819(8) 0.07647(10) 0.33495(6)
H14 H 0.5315 0.0585 0.2846
C19 C 0.40738(8) 0.00728(10) 0.35157(7)
H15 H 0.3782 -0.0577 0.3125
C20 C 0.35848(7) 0.03225(9) 0.42523(7)
C21 C 0.40126(7) 0.12456(9) 0.48373(6)
H16 H 0.3685 0.1394 0.5348
loop_
_geom_bond_atom_site_label_1
_geom_bond_atom_site_label_2
_geom_bond_site_symmetry_1
_geom_bond_site_symmetry_2
Cl1 C11 1_555 1_555
Cl2 C20 1_555 1_555
S1 C8 1_555 1_555
O1 H1 1_555 1_555
N1 N2 1_555 1_555
N2 H2 1_555 1_555
N3 H3 1_555 1_555
H4 N3 1_555 1_555
N4 C14 1_555 1_555
C1 C2 1_555 1_555
C2 H5 1_555 1_555
C3 C2 1_555 1_555
H6 C3 1_555 1_555
C4 C3 1_555 1_555
H7 C4 1_555 1_555
C5 C4 1_555 1_555
H8 C5 1_555 1_555
C6 C1 1_555 1_555
H9 C6 1_555 1_555
C7 N1 1_555 1_555
C8 N2 1_555 1_555
C9 C7 1_555 1_555
C10 C9 1_555 1_555
H10 C10 1_555 1_555
C11 C10 1_555 1_555
C12 C11 1_555 1_555
H11 C12 1_555 1_555
C13 C12 1_555 1_555
H12 C13 1_555 1_555
C14 C9 1_555 1_555
C15 N4 1_555 1_555
H13 C15 1_555 1_555
C16 C15 1_555 1_555
C17 O1 1_555 1_555
C18 C17 1_555 1_555
H14 C18 1_555 1_555
C19 C18 1_555 1_555
H15 C19 1_555 1_555
C20 C19 1_555 1_555
C21 C16 1_555 1_555
H16 C21 1_555 1_555
N3 C8 1_555 1_555
C1 C7 1_555 1_555
C5 C6 1_555 1_555
C13 C14 1_555 1_555
C16 C17 1_555 1_555
C20 C21 1_555 1_555

#END
