
#######################################################################
#
#                 Cambridge Crystallographic Data Centre
#                                CCDC 
#
#######################################################################
#
# If this CIF has been generated from an entry in the Cambridge 
# Structural Database, then it will include bibliographic, chemical, 
# crystal, experimental, refinement or atomic coordinate data resulting 
# from the CCDC's data processing and validation procedures.
#
#######################################################################

data_WOMYED
_chemical_formula_moiety         'C5 H7 Cl2 N2 1+,I1 1-'
_chemical_name_systematic        
'4,5-Dichloro-1,3-dimethyl-1H-imidazol-3-ium iodide'
_chemical_properties_biological  'no antibacterial activity'
_symmetry_cell_setting           monoclinic
_symmetry_space_group_name_H-M   'P 21'
_symmetry_Int_Tables_number      4
_space_group_name_Hall           'P 2yb'
loop_
_symmetry_equiv_pos_site_id
_symmetry_equiv_pos_as_xyz
1 x,y,z
2 -x,1/2+y,-z
_cell_length_a                   7.1338(12)
_cell_length_b                   7.4652(13)
_cell_length_c                   8.7890(15)
_cell_angle_alpha                90
_cell_angle_beta                 92.125(3)
_cell_angle_gamma                90
_cell_volume                     467.738
_exptl_crystal_colour            colorless
_exptl_crystal_description       block
_chemical_melting_point          '179-182 deg.C'
_cell_formula_units_Z            2
_exptl_crystal_recrystallization_method acetonitrile
loop_
_atom_site_label
_atom_site_type_symbol
_atom_site_fract_x
_atom_site_fract_y
_atom_site_fract_z
I1 I 0.11949(3) 0.02263(8) 0.69770(3)
Cl1 Cl 0.70512(19) 0.29550(19) 0.69610(16)
Cl2 Cl 0.5060(3) 0.46576(19) 1.02017(17)
N1 N 0.2354(6) 0.5110(9) 0.7989(5)
N2 N 0.3659(7) 0.4148(6) 0.5963(5)
C1 C 0.2091(8) 0.4848(6) 0.6503(6)
H1 H 0.0977 0.5113 0.5920
C2 C 0.4932(8) 0.3888(8) 0.7150(7)
C3 C 0.4115(9) 0.4524(8) 0.8407(7)
C4 C 0.0934(8) 0.5783(9) 0.9020(6)
H2 H -0.0248 0.5988 0.8443
H3 H 0.1370 0.6911 0.9481
H4 H 0.0736 0.4898 0.9822
C5 C 0.3836(8) 0.3466(8) 0.4394(6)
H5 H 0.3840 0.2153 0.4408
H6 H 0.5011 0.3900 0.3983
H7 H 0.2775 0.3892 0.3753
loop_
_geom_bond_atom_site_label_1
_geom_bond_atom_site_label_2
_geom_bond_site_symmetry_1
_geom_bond_site_symmetry_2
Cl1 C2 1_555 1_555
Cl2 C3 1_555 1_555
N1 C1 1_555 1_555
N2 C1 1_555 1_555
C1 H1 1_555 1_555
C2 N2 1_555 1_555
C3 N1 1_555 1_555
C4 N1 1_555 1_555
H2 C4 1_555 1_555
H3 C4 1_555 1_555
H4 C4 1_555 1_555
C5 N2 1_555 1_555
H5 C5 1_555 1_555
H6 C5 1_555 1_555
H7 C5 1_555 1_555
C2 C3 1_555 1_555

#END
