
#######################################################################
#
#                 Cambridge Crystallographic Data Centre
#                                CCDC 
#
#######################################################################
#
# If this CIF has been generated from an entry in the Cambridge 
# Structural Database, then it will include bibliographic, chemical, 
# crystal, experimental, refinement or atomic coordinate data resulting 
# from the CCDC's data processing and validation procedures.
#
#######################################################################

data_WOMZUU
_chemical_formula_moiety         'C20 H18 Br2 N2 O4'
_chemical_name_systematic        
'2-(Benzyloxycarbonylamino)-3-(2,3-dibromo-1H-indol-5-yl)propionic acid methyl ester'
_symmetry_cell_setting           orthorhombic
_symmetry_space_group_name_H-M   'P 21 21 21'
_symmetry_Int_Tables_number      19
_space_group_name_Hall           'P 2ac 2ab'
loop_
_symmetry_equiv_pos_site_id
_symmetry_equiv_pos_as_xyz
1 x,y,z
2 1/2-x,-y,1/2+z
3 -x,1/2+y,1/2-z
4 1/2+x,1/2-y,-z
_cell_length_a                   8.9372(1)
_cell_length_b                   11.1284(2)
_cell_length_c                   21.1731(3)
_cell_angle_alpha                90
_cell_angle_beta                 90
_cell_angle_gamma                90
_cell_volume                     2105.81
_exptl_crystal_colour            colorless
_exptl_crystal_description       plate
_cell_formula_units_Z            4
loop_
_atom_site_label
_atom_site_type_symbol
_atom_site_fract_x
_atom_site_fract_y
_atom_site_fract_z
Br1 Br -0.11808(7) 0.69136(7) 0.32647(3)
Br2 Br 0.05798(7) 0.39739(5) 0.33797(3)
O1 O 0.9630(3) 0.4668(3) 0.51527(16)
O2 O 0.8643(4) 0.2827(3) 0.52166(17)
O3 O 0.6205(4) 0.5091(3) 0.62996(15)
O4 O 0.4195(3) 0.3883(3) 0.62007(13)
N1 N 0.1680(5) 0.7421(4) 0.3727(2)
H1 H 0.1477 0.8176 0.3741
N2 N 0.5799(3) 0.4022(3) 0.54082(15)
H2 H 0.5273 0.3469 0.5232
C1 C 0.0751(5) 0.6549(5) 0.3534(2)
C2 C 0.1417(5) 0.5456(4) 0.3577(2)
C3 C 0.2880(5) 0.5657(4) 0.3813(2)
C4 C 0.4093(5) 0.4903(4) 0.39666(19)
H3 H 0.4014 0.4076 0.3914
C5 C 0.5379(5) 0.5393(4) 0.4193(2)
C6 C 0.5478(6) 0.6644(4) 0.4279(2)
H4 H 0.6364 0.6965 0.4436
C7 C 0.4315(6) 0.7410(4) 0.4142(2)
H5 H 0.4392 0.8234 0.4207
C8 C 0.3022(5) 0.6897(4) 0.3902(2)
C9 C 0.6708(5) 0.4601(4) 0.4354(2)
H6 H 0.7585 0.4901 0.4135
H7 H 0.6515 0.3792 0.4203
C10 C 0.7032(4) 0.4558(4) 0.5064(2)
H8 H 0.7155 0.5385 0.5214
C11 C 0.8505(4) 0.3896(4) 0.51704(18)
C12 C 1.1143(5) 0.4149(5) 0.5187(3)
H9 H 1.1872 0.4781 0.5168
H10 H 1.1290 0.3609 0.4839
H11 H 1.1253 0.3717 0.5577
C13 C 0.5471(4) 0.4368(3) 0.5986(2)
C14 C 0.3763(6) 0.4223(6) 0.6840(2)
H12 H 0.3846 0.5086 0.6894
H13 H 0.4412 0.3835 0.7146
C15 C 0.2184(5) 0.3833(5) 0.6937(2)
C16 C 0.1855(9) 0.2728(7) 0.7112(3)
H14 H 0.2609 0.2175 0.7195
C17 C 0.0307(15) 0.2393(11) 0.7173(4)
H15 H 0.0017 0.1614 0.7274
C18 C -0.0721(10) 0.3298(15) 0.7072(4)
H16 H -0.1732 0.3126 0.7123
C19 C -0.0323(10) 0.4414(12) 0.6903(5)
H17 H -0.1054 0.4992 0.6829
C20 C 0.1077(7) 0.4686(8) 0.6842(3)
H18 H 0.1345 0.5467 0.6733
Br3? Br 0.7166(5) 0.7583(4) 0.4607(2)
loop_
_geom_bond_atom_site_label_1
_geom_bond_atom_site_label_2
_geom_bond_site_symmetry_1
_geom_bond_site_symmetry_2
Br1 C1 1_555 1_555
Br2 C2 1_555 1_555
O1 C11 1_555 1_555
O2 C11 1_555 1_555
O3 C13 1_555 1_555
O4 C13 1_555 1_555
N1 H1 1_555 1_555
N2 H2 1_555 1_555
C1 N1 1_555 1_555
C2 C1 1_555 1_555
C3 C2 1_555 1_555
C4 C3 1_555 1_555
H3 C4 1_555 1_555
C5 C4 1_555 1_555
C6 C5 1_555 1_555
H4 C6 1_555 1_555
C7 C6 1_555 1_555
H5 C7 1_555 1_555
C8 N1 1_555 1_555
C9 C5 1_555 1_555
H6 C9 1_555 1_555
H7 C9 1_555 1_555
C10 N2 1_555 1_555
H8 C10 1_555 1_555
C11 C10 1_555 1_555
C12 O1 1_555 1_555
H9 C12 1_555 1_555
H10 C12 1_555 1_555
H11 C12 1_555 1_555
C13 N2 1_555 1_555
C14 O4 1_555 1_555
H12 C14 1_555 1_555
H13 C14 1_555 1_555
C15 C14 1_555 1_555
C16 C15 1_555 1_555
H14 C16 1_555 1_555
C17 C16 1_555 1_555
H15 C17 1_555 1_555
C18 C17 1_555 1_555
H16 C18 1_555 1_555
C19 C18 1_555 1_555
H17 C19 1_555 1_555
C20 C15 1_555 1_555
H18 C20 1_555 1_555
C3 C8 1_555 1_555
C7 C8 1_555 1_555
C9 C10 1_555 1_555
C19 C20 1_555 1_555

#END
