
#######################################################################
#
#                 Cambridge Crystallographic Data Centre
#                                CCDC 
#
#######################################################################
#
# If this CIF has been generated from an entry in the Cambridge 
# Structural Database, then it will include bibliographic, chemical, 
# crystal, experimental, refinement or atomic coordinate data resulting 
# from the CCDC's data processing and validation procedures.
#
#######################################################################

data_WONREY
_chemical_compound_source        'stem bark of Cinnamomum cassia'
_chemical_name_common            'Cinncassiol G'
_chemical_formula_moiety         'C20 H30 O7'
_chemical_name_systematic        
2,6,8,12-Tetrahydroxy-4-(1-hydroxypropan-2-yl)-3,7,11-trimethyl-13-oxatetracyclo[5.5.3.0^2,6^.0^8,12^]pentadec-3-en-14-one
_chemical_properties_biological  'immunosuppressive activity'
_symmetry_cell_setting           orthorhombic
_symmetry_space_group_name_H-M   'P 21 21 21'
_symmetry_Int_Tables_number      19
_space_group_name_Hall           'P 2ac 2ab'
loop_
_symmetry_equiv_pos_site_id
_symmetry_equiv_pos_as_xyz
1 x,y,z
2 1/2+x,1/2-y,-z
3 -x,1/2+y,1/2-z
4 1/2-x,-y,1/2+z
_cell_length_a                   9.5101(2)
_cell_length_b                   13.9479(3)
_cell_length_c                   14.2836(3)
_cell_angle_alpha                90
_cell_angle_beta                 90
_cell_angle_gamma                90
_cell_volume                     1894.66
_exptl_crystal_colour            colorless
_exptl_crystal_description       prism
_cell_formula_units_Z            4
loop_
_atom_site_label
_atom_site_type_symbol
_atom_site_fract_x
_atom_site_fract_y
_atom_site_fract_z
O1 O 0.17179(12) 1.09433(8) 0.22890(7)
O2 O 0.08938(11) 1.07973(7) 0.37040(7)
O3 O 0.12436(11) 0.95782(8) 0.59268(7)
H1 H 0.1883 0.9343 0.6261
O4 O 0.28504(11) 0.82731(8) 0.51408(7)
H2 H 0.2112 0.7953 0.5221
O5 O -0.13619(11) 0.93166(8) 0.51779(7)
H3 H -0.0813 0.9182 0.5620
O6 O 0.02296(11) 0.78265(8) 0.47730(7)
H4 H -0.0524 0.7516 0.4820
C1 C 0.14293(15) 1.04076(11) 0.29215(10)
C2 C 0.05200(15) 1.02515(11) 0.45300(10)
H5 H 0.0047 1.0714 0.4963
C3 C -0.05671(15) 0.94549(11) 0.43340(10)
C4 C -0.16039(15) 0.96982(11) 0.35667(10)
C5 C -0.17889(15) 0.89540(11) 0.29893(10)
C6 C -0.28062(16) 0.88828(11) 0.21815(11)
H6 H -0.3444 0.9452 0.2199
C7 C -0.20302(19) 0.88773(13) 0.12422(11)
H7 H -0.1346 0.8342 0.1238
H8 H -0.2717 0.8761 0.0734
O7 O -0.13081(13) 0.97479(10) 0.10617(9)
H9 H -0.1863 1.0143 0.0816
C8 C 0.18241(15) 0.98865(11) 0.50544(10)
C9 C 0.25756(16) 0.90436(11) 0.45009(10)
C10 C 0.40239(16) 0.94535(12) 0.42115(11)
H10 H 0.4779 0.9167 0.4598
H11 H 0.4218 0.9309 0.3545
C11 C 0.39596(16) 1.05414(12) 0.43673(11)
H12 H 0.4904 1.0806 0.4503
H13 H 0.3565 1.0873 0.3814
C12 C 0.29897(16) 1.06381(11) 0.52109(11)
H14 H 0.3542 1.0416 0.5766
C13 C 0.24987(18) 1.16537(12) 0.54368(12)
H15 H 0.3314 1.2054 0.5589
H16 H 0.1857 1.1637 0.5974
H17 H 0.2009 1.1923 0.4893
C14 C 0.16618(15) 0.86561(11) 0.36705(10)
C15 C 0.01262(16) 0.84851(11) 0.40067(10)
C16 C -0.23320(16) 1.06501(11) 0.35588(11)
H18 H -0.3099 1.0638 0.3101
H19 H -0.1658 1.1152 0.3388
H20 H -0.2715 1.0784 0.4182
C17 C -0.37042(19) 0.79724(12) 0.22620(14)
H21 H -0.3101 0.7407 0.2197
H22 H -0.4417 0.7970 0.1766
H23 H -0.4168 0.7959 0.2874
C18 C -0.08627(16) 0.81159(11) 0.32326(10)
H24 H -0.0318 0.7904 0.2679
H25 H -0.1432 0.7570 0.3462
C19 C 0.22989(16) 0.77078(11) 0.33164(11)
H26 H 0.1858 0.7530 0.2721
H27 H 0.2131 0.7202 0.3779
H28 H 0.3313 0.7788 0.3224
C20 C 0.16778(16) 0.93456(11) 0.28285(10)
H29 H 0.2605 0.9269 0.2523
H30 H 0.0968 0.9104 0.2380
loop_
_geom_bond_atom_site_label_1
_geom_bond_atom_site_label_2
_geom_bond_site_symmetry_1
_geom_bond_site_symmetry_2
O1 C1 1_555 1_555
O2 C1 1_555 1_555
O3 H1 1_555 1_555
O4 H2 1_555 1_555
O5 H3 1_555 1_555
O6 H4 1_555 1_555
C1 C20 1_555 1_555
C2 O2 1_555 1_555
H5 C2 1_555 1_555
C3 O5 1_555 1_555
C4 C3 1_555 1_555
C5 C4 1_555 1_555
C6 C5 1_555 1_555
H6 C6 1_555 1_555
C7 C6 1_555 1_555
H7 C7 1_555 1_555
H8 C7 1_555 1_555
O7 C7 1_555 1_555
H9 O7 1_555 1_555
C8 O3 1_555 1_555
C9 O4 1_555 1_555
C10 C9 1_555 1_555
H10 C10 1_555 1_555
H11 C10 1_555 1_555
C11 C10 1_555 1_555
H12 C11 1_555 1_555
H13 C11 1_555 1_555
C12 C8 1_555 1_555
H14 C12 1_555 1_555
C13 C12 1_555 1_555
H15 C13 1_555 1_555
H16 C13 1_555 1_555
H17 C13 1_555 1_555
C14 C9 1_555 1_555
C15 O6 1_555 1_555
C16 C4 1_555 1_555
H18 C16 1_555 1_555
H19 C16 1_555 1_555
H20 C16 1_555 1_555
C17 C6 1_555 1_555
H21 C17 1_555 1_555
H22 C17 1_555 1_555
H23 C17 1_555 1_555
C18 C5 1_555 1_555
H24 C18 1_555 1_555
H25 C18 1_555 1_555
C19 C14 1_555 1_555
H26 C19 1_555 1_555
H27 C19 1_555 1_555
H28 C19 1_555 1_555
C20 C14 1_555 1_555
H29 C20 1_555 1_555
H30 C20 1_555 1_555
C2 C3 1_555 1_555
C2 C8 1_555 1_555
C3 C15 1_555 1_555
C8 C9 1_555 1_555
C11 C12 1_555 1_555
C14 C15 1_555 1_555
C15 C18 1_555 1_555

#END
