
#######################################################################
#
#                 Cambridge Crystallographic Data Centre
#                                CCDC 
#
#######################################################################
#
# If this CIF has been generated from an entry in the Cambridge 
# Structural Database, then it will include bibliographic, chemical, 
# crystal, experimental, refinement or atomic coordinate data resulting 
# from the CCDC's data processing and validation procedures.
#
#######################################################################

data_WONWIH
_chemical_name_common            
3,4,6,10,13-Pentahydroxy-1-isopropyl-7,11,14-trimethyl-15,16-dioxapentacyclo[11.2.1.0$3,11!.0$4,14!.0$6,10!]hexadecan-5-one
_chemical_formula_moiety         'C20 H30 O8'
_chemical_name_systematic        'Cinncassiol F'
_symmetry_cell_setting           monoclinic
_symmetry_space_group_name_H-M   'P 21'
_symmetry_Int_Tables_number      4
_space_group_name_Hall           'P 2yb'
loop_
_symmetry_equiv_pos_site_id
_symmetry_equiv_pos_as_xyz
1 x,y,z
2 -x,1/2+y,-z
_cell_length_a                   8.63520(10)
_cell_length_b                   9.55470(10)
_cell_length_c                   22.1075(3)
_cell_angle_alpha                90
_cell_angle_beta                 96.19
_cell_angle_gamma                90
_cell_volume                     1813.38
_exptl_crystal_colour            colorless
_exptl_crystal_description       prism
_cell_formula_units_Z            4
loop_
_atom_site_label
_atom_site_type_symbol
_atom_site_fract_x
_atom_site_fract_y
_atom_site_fract_z
O1 O 0.83072(11) 0.84882(11) 0.17891(4)
H1 H 0.8245 0.8025 0.2109
O2 O 0.60140(12) 0.96073(12) 0.24525(4)
H2 H 0.5452 0.8918 0.2519
O3 O 0.38103(11) 0.81256(10) 0.07656(4)
O4 O 0.35659(11) 0.85051(10) 0.17561(4)
O5 O 0.63198(12) 1.22710(11) 0.20736(4)
O6 O 0.93963(12) 1.12796(12) 0.19216(5)
H3 H 0.9412 1.0444 0.2041
O7 O 0.27415(11) 1.02889(11) 0.05315(4)
H4 H 0.1929 1.0087 0.0690
O8 O 0.98166(11) 0.96532(11) 0.09819(4)
H5 H 0.9807 0.9072 0.1266
C1 C 0.59228(16) 0.98561(15) 0.18173(6)
C2 C 0.41164(17) 0.74972(15) 0.13507(6)
C3 C 0.6964(2) 1.37610(17) 0.09355(8)
H6 H 0.7267 1.4643 0.0755
H7 H 0.6373 1.3961 0.1280
H8 H 0.6315 1.3217 0.0629
C4 C 0.54623(16) 1.01025(15) 0.05811(6)
H9 H 0.5612 1.1111 0.0673
H10 H 0.5307 0.9997 0.0133
C5 C 0.83459(16) 1.03622(15) 0.08945(6)
C6 C 0.35973(18) 0.52520(16) 0.19243(7)
H11 H 0.3438 0.5805 0.2286
H12 H 0.4691 0.4965 0.1944
H13 H 0.2931 0.4419 0.1908
C7 C 0.85272(16) 1.12903(16) 0.03388(6)
H14 H 0.9162 1.0818 0.0052
H15 H 0.7500 1.1535 0.0122
C8 C 0.81845(16) 1.14535(16) 0.14301(6)
C9 C 0.31788(18) 0.61368(15) 0.13539(6)
H16 H 0.3432 0.5568 0.0998
C10 C 0.32169(17) 1.10055(15) 0.17634(7)
H17 H 0.2105 1.0786 0.1683
H18 H 0.3444 1.1861 0.1545
H19 H 0.3488 1.1146 0.2201
C11 C 0.69654(16) 0.92978(15) 0.08312(6)
C12 C 0.14298(17) 0.64285(16) 0.12664(7)
H20 H 0.0864 0.5549 0.1180
H21 H 0.1194 0.7076 0.0925
H22 H 0.1109 0.6847 0.1638
C13 C 0.93569(18) 1.25898(16) 0.06177(7)
H23 H 0.9301 1.3374 0.0324
H24 H 1.0463 1.2389 0.0757
C14 C 0.40101(16) 0.96054(15) 0.08427(6)
C15 C 0.58740(16) 0.73249(15) 0.15066(6)
H25 H 0.6269 0.6657 0.1217
H26 H 0.6081 0.6922 0.1920
C16 C 0.67132(17) 1.13042(15) 0.17704(6)
C17 C 0.67639(16) 0.87146(15) 0.14828(6)
C18 C 0.72954(17) 0.81341(15) 0.03849(6)
H27 H 0.6352 0.7573 0.0286
H28 H 0.8135 0.7534 0.0572
H29 H 0.7610 0.8552 0.0012
C19 C 0.41625(16) 0.98086(15) 0.15497(6)
C20 C 0.84300(19) 1.29194(16) 0.11580(7)
H30 H 0.9097 1.3491 0.1463
O9 O 1.13026(12) 0.43937(11) 0.30751(4)
O10 O 0.66220(11) 0.41686(11) 0.31197(4)
H31 H 0.6658 0.3646 0.2816
O11 O 1.22426(11) 0.57698(11) 0.43973(4)
H32 H 1.3060 0.5565 0.4242
O12 O 0.51755(12) 0.50779(11) 0.40238(5)
H33 H 0.5178 0.4544 0.3722
O13 O 0.87650(12) 0.56105(12) 0.24988(4)
H34 H 0.9458 0.5097 0.2377
C21 C 0.55917(18) 0.78609(16) 0.45442(7)
H35 H 0.5673 0.8564 0.4875
H36 H 0.4481 0.7629 0.4431
C22 C 0.63557(18) 0.83938(16) 0.39913(7)
H37 H 0.5572 0.8953 0.3727
C23 C 1.14160(19) 0.06646(17) 0.36297(9)
H38 H 1.2196 -0.0065 0.3591
H39 H 1.0387 0.0322 0.3464
H40 H 1.1400 0.0904 0.4060
C24 C 1.09748(16) 0.51395(15) 0.40660(6)
O14 O 1.12402(12) 0.36628(10) 0.40419(4)
O15 O 0.85971(12) 0.81146(11) 0.30815(4)
C25 C 0.91028(17) 0.30335(15) 0.33018(6)
H41 H 0.8777 0.2273 0.3565
H42 H 0.8842 0.2742 0.2873
C26 C 1.07292(16) 0.55854(15) 0.33800(6)
C27 C 0.7750(2) 0.93321(19) 0.41948(8)
H43 H 0.7434 1.0054 0.4472
H44 H 0.8121 0.9778 0.3838
H45 H 0.8588 0.8766 0.4405
C28 C 0.81807(16) 0.43749(16) 0.34191(6)
C29 C 0.65390(17) 0.65498(16) 0.47326(6)
H46 H 0.6002 0.5966 0.5016
H47 H 0.7588 0.6798 0.4929
C30 C 0.89415(16) 0.56482(16) 0.31475(6)
C31 C 1.35634(17) 0.22715(16) 0.33907(7)
H48 H 1.3817 0.3066 0.3139
H49 H 1.4153 0.1447 0.3285
H50 H 1.3838 0.2500 0.3821
C32 C 1.16402(17) 0.68669(16) 0.32360(7)
H51 H 1.2758 0.6661 0.3302
H52 H 1.1397 0.7638 0.3502
H53 H 1.1358 0.7135 0.2810
O16 O 0.55249(12) 0.68953(11) 0.31419(4)
H54 H 0.5526 0.6073 0.3007
C33 C 0.80298(16) 0.47425(15) 0.41039(6)
C34 C 0.66407(16) 0.57878(15) 0.41247(6)
C35 C 0.67130(16) 0.70333(16) 0.36496(6)
C36 C 0.95443(16) 0.54924(15) 0.43774(6)
H55 H 0.9373 0.6516 0.4353
H56 H 0.9748 0.5240 0.4813
C37 C 1.18283(17) 0.19638(17) 0.32781(7)
H57 H 1.1580 0.1758 0.2835
C38 C 1.08614(17) 0.32315(16) 0.34258(6)
C39 C 0.81729(16) 0.70491(16) 0.33066(6)
C40 C 0.77565(17) 0.34404(16) 0.44826(7)
H58 H 0.8715 0.2885 0.4541
H59 H 0.6920 0.2876 0.4270
H60 H 0.7459 0.3727 0.4880
loop_
_geom_bond_atom_site_label_1
_geom_bond_atom_site_label_2
_geom_bond_site_symmetry_1
_geom_bond_site_symmetry_2
O1 H1 1_555 1_555
O2 H2 1_555 1_555
O3 C2 1_555 1_555
O4 C2 1_555 1_555
O5 C16 1_555 1_555
O6 H3 1_555 1_555
O7 H4 1_555 1_555
O8 H5 1_555 1_555
C1 O2 1_555 1_555
C2 C9 1_555 1_555
C3 H6 1_555 1_555
H7 C3 1_555 1_555
H8 C3 1_555 1_555
C4 H9 1_555 1_555
H10 C4 1_555 1_555
C5 O8 1_555 1_555
C6 H11 1_555 1_555
H12 C6 1_555 1_555
H13 C6 1_555 1_555
C7 C5 1_555 1_555
H14 C7 1_555 1_555
H15 C7 1_555 1_555
C8 O6 1_555 1_555
C9 C6 1_555 1_555
H16 C9 1_555 1_555
C10 H17 1_555 1_555
H18 C10 1_555 1_555
H19 C10 1_555 1_555
C11 C4 1_555 1_555
C12 C9 1_555 1_555
H20 C12 1_555 1_555
H21 C12 1_555 1_555
H22 C12 1_555 1_555
C13 C7 1_555 1_555
H23 C13 1_555 1_555
H24 C13 1_555 1_555
C14 O3 1_555 1_555
C15 C2 1_555 1_555
H25 C15 1_555 1_555
H26 C15 1_555 1_555
C16 C1 1_555 1_555
C17 O1 1_555 1_555
C18 C11 1_555 1_555
H27 C18 1_555 1_555
H28 C18 1_555 1_555
H29 C18 1_555 1_555
C19 O4 1_555 1_555
C20 C3 1_555 1_555
H30 C20 1_555 1_555
O9 C26 1_555 1_555
O10 H31 1_555 1_555
O11 H32 1_555 1_555
O12 H33 1_555 1_555
O13 H34 1_555 1_555
C21 H35 1_555 1_555
H36 C21 1_555 1_555
C22 C21 1_555 1_555
H37 C22 1_555 1_555
C23 H38 1_555 1_555
H39 C23 1_555 1_555
H40 C23 1_555 1_555
C24 O11 1_555 1_555
O14 C24 1_555 1_555
O15 C39 1_555 1_555
C25 H41 1_555 1_555
H42 C25 1_555 1_555
C26 C24 1_555 1_555
C27 C22 1_555 1_555
H43 C27 1_555 1_555
H44 C27 1_555 1_555
H45 C27 1_555 1_555
C28 O10 1_555 1_555
C29 C21 1_555 1_555
H46 C29 1_555 1_555
H47 C29 1_555 1_555
C30 O13 1_555 1_555
C31 H48 1_555 1_555
H49 C31 1_555 1_555
H50 C31 1_555 1_555
C32 C26 1_555 1_555
H51 C32 1_555 1_555
H52 C32 1_555 1_555
H53 C32 1_555 1_555
O16 H54 1_555 1_555
C33 C28 1_555 1_555
C34 O12 1_555 1_555
C35 C22 1_555 1_555
C36 C24 1_555 1_555
H55 C36 1_555 1_555
H56 C36 1_555 1_555
C37 C23 1_555 1_555
H57 C37 1_555 1_555
C38 O9 1_555 1_555
C39 C30 1_555 1_555
C40 C33 1_555 1_555
H58 C40 1_555 1_555
H59 C40 1_555 1_555
H60 C40 1_555 1_555
O7 C14 1_555 1_555
C1 C17 1_555 1_555
C1 C19 1_555 1_555
C4 C14 1_555 1_555
C5 C8 1_555 1_555
C5 C11 1_555 1_555
C8 C16 1_555 1_555
C8 C20 1_555 1_555
C10 C19 1_555 1_555
C11 C17 1_555 1_555
C13 C20 1_555 1_555
C14 C19 1_555 1_555
C15 C17 1_555 1_555
O14 C38 1_555 1_555
C25 C28 1_555 1_555
C25 C38 1_555 1_555
C26 C30 1_555 1_555
C28 C30 1_555 1_555
C29 C34 1_555 1_555
C31 C37 1_555 1_555
O16 C35 1_555 1_555
C33 C34 1_555 1_555
C33 C36 1_555 1_555
C34 C35 1_555 1_555
C35 C39 1_555 1_555
C37 C38 1_555 1_555

#END
