
#######################################################################
#
#                 Cambridge Crystallographic Data Centre
#                                CCDC 
#
#######################################################################
#
# If this CIF has been generated from an entry in the Cambridge 
# Structural Database, then it will include bibliographic, chemical, 
# crystal, experimental, refinement or atomic coordinate data resulting 
# from the CCDC's data processing and validation procedures.
#
#######################################################################

data_WONXAA
_chemical_formula_moiety         'C26 H24 Cl1 N1 O2 S1'
_chemical_name_systematic        
'Ethyl 3-(2-(4-chlorophenyl)-4-phenyl-2,3-dihydro-1,5-benzothiazepin-3-yl)propanoate'
_symmetry_cell_setting           monoclinic
_symmetry_space_group_name_H-M   'P 21/c'
_symmetry_Int_Tables_number      14
_space_group_name_Hall           '-P 2ybc'
loop_
_symmetry_equiv_pos_site_id
_symmetry_equiv_pos_as_xyz
1 x,y,z
2 -x,1/2+y,1/2-z
3 -x,-y,-z
4 x,1/2-y,1/2+z
_cell_length_a                   13.753(2)
_cell_length_b                   17.566(3)
_cell_length_c                   10.722(2)
_cell_angle_alpha                90
_cell_angle_beta                 112.076(2)
_cell_angle_gamma                90
_cell_volume                     2400.37
_exptl_crystal_colour            colorless
_exptl_crystal_description       block
_cell_formula_units_Z            4
loop_
_atom_site_label
_atom_site_type_symbol
_atom_site_fract_x
_atom_site_fract_y
_atom_site_fract_z
C1 C 0.1759(2) 0.06309(16) -0.2001(3)
C2 C 0.1520(3) 0.09505(19) -0.3270(3)
H1 H 0.0827 0.1060 -0.3810
C3 C 0.2314(3) 0.1105(2) -0.3724(4)
H2 H 0.2156 0.1333 -0.4560
C4 C 0.3322(3) 0.0927(2) -0.2966(4)
H3 H 0.3847 0.1025 -0.3293
C5 C 0.3573(3) 0.06049(19) -0.1721(3)
H4 H 0.4266 0.0477 -0.1217
C6 C 0.2802(2) 0.04675(16) -0.1204(3)
C7 C 0.2723(2) 0.03783(16) 0.0917(3)
C8 C 0.2975(3) -0.00681(17) 0.2183(3)
C9 C 0.3963(3) -0.0336(3) 0.2854(4)
H5 H 0.4483 -0.0240 0.2517
C10 C 0.4202(4) -0.0746(3) 0.4022(5)
H6 H 0.4885 -0.0916 0.4475
C11 C 0.3450(4) -0.0907(3) 0.4524(5)
H7 H 0.3612 -0.1193 0.5306
C12 C 0.2476(4) -0.0647(3) 0.3875(5)
H8 H 0.1958 -0.0751 0.4213
C13 C 0.2230(3) -0.0226(2) 0.2708(4)
H9 H 0.1549 -0.0047 0.2272
C14 C 0.2113(2) 0.11197(15) 0.0732(3)
H10 H 0.2347 0.1434 0.0143
C15 C 0.2362(2) 0.15804(17) 0.2020(3)
H11 H 0.1907 0.2023 0.1836
H12 H 0.2227 0.1272 0.2688
C16 C 0.3497(2) 0.18365(18) 0.2570(3)
H13 H 0.3941 0.1391 0.2706
H14 H 0.3616 0.2153 0.1900
C17 C 0.3825(3) 0.22682(17) 0.3856(3)
C18 C 0.5228(6) 0.2900(5) 0.5507(7)
H15 H 0.5293 0.2556 0.6242
H16 H 0.4781 0.3323 0.5528
C19 C 0.6291(5) 0.3178(5) 0.5599(8)
H17 H 0.6623 0.3449 0.6429
H18 H 0.6208 0.3511 0.4856
H19 H 0.6717 0.2750 0.5571
C20 C 0.0927(2) 0.09973(16) -0.0041(3)
H20 H 0.0659 0.0728 0.0564
C21 C 0.0313(2) 0.17261(16) -0.0455(3)
C22 C 0.0616(3) 0.22993(18) -0.1120(3)
H21 H 0.1212 0.2234 -0.1322
C23 C 0.0052(3) 0.29594(19) -0.1486(3)
H22 H 0.0260 0.3338 -0.1940
C24 C -0.0812(3) 0.30596(18) -0.1183(3)
C25 C -0.1145(3) 0.2501(2) -0.0548(4)
H23 H -0.1748 0.2569 -0.0364
C26 C -0.0577(2) 0.18371(19) -0.0184(3)
H24 H -0.0799 0.1457 0.0253
Cl1 Cl -0.14885(10) 0.39168(6) -0.15969(12)
N1 N 0.3089(2) 0.01222(14) 0.0065(2)
O1 O 0.32945(19) 0.23827(15) 0.4504(2)
O2 O 0.48077(19) 0.25046(14) 0.4215(2)
S1 S 0.07192(7) 0.03720(5) -0.14953(9)
C27? C 0.527(4) 0.3111(14) 0.514(2)
H25? H 0.4738 0.3435 0.5259
H26? H 0.5734 0.3418 0.4857
C28? C 0.587(3) 0.2667(15) 0.642(3)
H27? H 0.6133 0.3013 0.7170
H28? H 0.6455 0.2409 0.6319
H29? H 0.5418 0.2301 0.6587
loop_
_geom_bond_atom_site_label_1
_geom_bond_atom_site_label_2
_geom_bond_site_symmetry_1
_geom_bond_site_symmetry_2
C1 C2 1_555 1_555
C2 H1 1_555 1_555
C3 C2 1_555 1_555
H2 C3 1_555 1_555
C4 C3 1_555 1_555
H3 C4 1_555 1_555
C5 C4 1_555 1_555
H4 C5 1_555 1_555
C6 C1 1_555 1_555
C7 C8 1_555 1_555
C8 C9 1_555 1_555
C9 H5 1_555 1_555
C10 C9 1_555 1_555
H6 C10 1_555 1_555
C11 C10 1_555 1_555
H7 C11 1_555 1_555
C12 C11 1_555 1_555
H8 C12 1_555 1_555
C13 C8 1_555 1_555
H9 C13 1_555 1_555
C14 C7 1_555 1_555
H10 C14 1_555 1_555
C15 C14 1_555 1_555
H11 C15 1_555 1_555
H12 C15 1_555 1_555
C16 C15 1_555 1_555
H13 C16 1_555 1_555
H14 C16 1_555 1_555
C17 C16 1_555 1_555
C18 H15 1_555 1_555
H16 C18 1_555 1_555
C19 C18 1_555 1_555
H17 C19 1_555 1_555
H18 C19 1_555 1_555
H19 C19 1_555 1_555
C20 C14 1_555 1_555
H20 C20 1_555 1_555
C21 C20 1_555 1_555
C22 C21 1_555 1_555
H21 C22 1_555 1_555
C23 C22 1_555 1_555
H22 C23 1_555 1_555
C24 C23 1_555 1_555
C25 C24 1_555 1_555
H23 C25 1_555 1_555
C26 C21 1_555 1_555
H24 C26 1_555 1_555
Cl1 C24 1_555 1_555
N1 C6 1_555 1_555
O1 C17 1_555 1_555
O2 C17 1_555 1_555
S1 C1 1_555 1_555
C5 C6 1_555 1_555
C7 N1 1_555 1_555
C12 C13 1_555 1_555
C18 O2 1_555 1_555
C20 S1 1_555 1_555
C25 C26 1_555 1_555

#END
