
#######################################################################
#
#                 Cambridge Crystallographic Data Centre
#                                CCDC 
#
#######################################################################
#
# If this CIF has been generated from an entry in the Cambridge 
# Structural Database, then it will include bibliographic, chemical, 
# crystal, experimental, refinement or atomic coordinate data resulting 
# from the CCDC's data processing and validation procedures.
#
#######################################################################

data_WOPBUA
_chemical_formula_moiety         'C20 H16 N2 O8 S4'
_chemical_name_systematic        
"tetramethyl 2,2'-(1,4-phenylenedinitrilo)bis(1,3-dithiole-4,5-dicarboxylate)"
_symmetry_cell_setting           monoclinic
_symmetry_space_group_name_H-M   'P 21/n'
_symmetry_Int_Tables_number      14
_space_group_name_Hall           '-P 2yn'
loop_
_symmetry_equiv_pos_site_id
_symmetry_equiv_pos_as_xyz
1 x,y,z
2 1/2-x,1/2+y,1/2-z
3 -x,-y,-z
4 1/2+x,1/2-y,1/2+z
_cell_length_a                   6.0200(3)
_cell_length_b                   32.4414(13)
_cell_length_c                   6.0848(2)
_cell_angle_alpha                90
_cell_angle_beta                 103.2130(10)
_cell_angle_gamma                90
_cell_volume                     1156.89
_exptl_crystal_colour            yellow
_exptl_crystal_description       prism-like
_cell_formula_units_Z            2
loop_
_atom_site_label
_atom_site_type_symbol
_atom_site_fract_x
_atom_site_fract_y
_atom_site_fract_z
C1 C 0.2315(3) 0.05775(6) 0.5860(3)
C2 C 0.2243(3) 0.13725(6) 0.5105(3)
C3 C 0.3460(3) 0.12125(6) 0.3711(3)
C4 C 0.1073(3) 0.01140(6) 0.8280(3)
C5 C -0.1050(3) 0.02781(6) 0.8367(3)
H1 H -0.1774 0.0461 0.7256
C6 C -0.2080(3) 0.01702(6) 1.0089(3)
H2 H -0.3468 0.0289 1.0159
C7 C 0.1845(3) 0.18208(6) 0.5438(3)
C8 C -0.0847(5) 0.22948(8) 0.6211(6)
H3 H 0.0088 0.2385 0.7626
H4 H -0.2424 0.2305 0.6281
H5 H -0.0608 0.2473 0.5025
C9 C 0.4370(3) 0.14527(6) 0.2030(3)
C10 C 0.7335(4) 0.14840(10) 0.0098(4)
H6 H 0.6328 0.1471 -0.1373
H7 H 0.8741 0.1347 0.0068
H8 H 0.7640 0.1767 0.0520
N1 N 0.2267(3) 0.02154(5) 0.6601(3)
O1 O 0.3228(3) 0.20847(5) 0.5477(3)
O2 O -0.0241(3) 0.18751(4) 0.5760(3)
O3 O 0.3445(3) 0.17444(5) 0.1031(3)
O4 O 0.6276(2) 0.12839(6) 0.1722(3)
S1 S 0.38238(9) 0.067989(16) 0.37478(9)
S2 S 0.10817(10) 0.103085(16) 0.67348(9)
C1B C -0.2315(3) -0.05775(6) 1.4140(3)
C2B C -0.2243(3) -0.13725(6) 1.4895(3)
C3B C -0.3460(3) -0.12125(6) 1.6289(3)
C4B C -0.1073(3) -0.01140(6) 1.1720(3)
C5B C 0.1050(3) -0.02781(6) 1.1633(3)
H1B H 0.1774 -0.0461 1.2744
C6B C 0.2080(3) -0.01702(6) 0.9911(3)
H2B H 0.3468 -0.0289 0.9841
C7B C -0.1845(3) -0.18208(6) 1.4562(3)
C8B C 0.0847(5) -0.22948(8) 1.3789(6)
H3B H -0.0088 -0.2385 1.2374
H4B H 0.2424 -0.2305 1.3719
H5B H 0.0608 -0.2473 1.4975
C9B C -0.4370(3) -0.14527(6) 1.7970(3)
C10B C -0.7335(4) -0.14840(10) 1.9902(4)
H6B H -0.6328 -0.1471 2.1373
H7B H -0.8741 -0.1347 1.9932
H8B H -0.7640 -0.1767 1.9480
N1B N -0.2267(3) -0.02154(5) 1.3399(3)
O1B O -0.3228(3) -0.20847(5) 1.4523(3)
O2B O 0.0241(3) -0.18751(4) 1.4240(3)
O3B O -0.3445(3) -0.17444(5) 1.8969(3)
O4B O -0.6276(2) -0.12839(6) 1.8278(3)
S1B S -0.38238(9) -0.067989(16) 1.62522(9)
S2B S -0.10817(10) -0.103085(16) 1.32652(9)
loop_
_geom_bond_atom_site_label_1
_geom_bond_atom_site_label_2
_geom_bond_site_symmetry_1
_geom_bond_site_symmetry_2
C1 N1 1_555 1_555
C2 C3 1_555 1_555
C3 C9 1_555 1_555
C4 C5 1_555 1_555
C5 H1 1_555 1_555
C6 C5 1_555 1_555
H2 C6 1_555 1_555
C7 C2 1_555 1_555
C8 H3 1_555 1_555
H4 C8 1_555 1_555
H5 C8 1_555 1_555
C9 O3 1_555 1_555
C10 H6 1_555 1_555
H7 C10 1_555 1_555
H8 C10 1_555 1_555
N1 C4 1_555 1_555
O1 C7 1_555 1_555
O2 C7 1_555 1_555
O4 C9 1_555 1_555
S1 C1 1_555 1_555
S2 C1 1_555 1_555
C1B N1B 1_555 1_555
C2B C3B 1_555 1_555
C3B C9B 1_555 1_555
C4B C6 1_555 1_555
C5B C4B 1_555 1_555
H1B C5B 1_555 1_555
C6B C4 1_555 1_555
H2B C6B 1_555 1_555
C7B C2B 1_555 1_555
C8B H3B 1_555 1_555
H4B C8B 1_555 1_555
H5B C8B 1_555 1_555
C9B O3B 1_555 1_555
C10B H6B 1_555 1_555
H7B C10B 1_555 1_555
H8B C10B 1_555 1_555
N1B C4B 1_555 1_555
O1B C7B 1_555 1_555
O2B C7B 1_555 1_555
O4B C9B 1_555 1_555
S1B C1B 1_555 1_555
S2B C1B 1_555 1_555
C2 S2 1_555 1_555
C3 S1 1_555 1_555
C8 O2 1_555 1_555
C10 O4 1_555 1_555
C2B S2B 1_555 1_555
C3B S1B 1_555 1_555
C5B C6B 1_555 1_555
C8B O2B 1_555 1_555
C10B O4B 1_555 1_555

#END
