
#######################################################################
#
#                 Cambridge Crystallographic Data Centre
#                                CCDC 
#
#######################################################################
#
# If this CIF has been generated from an entry in the Cambridge 
# Structural Database, then it will include bibliographic, chemical, 
# crystal, experimental, refinement or atomic coordinate data resulting 
# from the CCDC's data processing and validation procedures.
#
#######################################################################

data_WOPCOU
_chemical_name_common            
'bis(Tritylammonium) bis(thiocyanate) 12-crown-4 clathrate'
_chemical_formula_moiety         '2(C19 H18 N1 1+),2(C1 N1 S1 1-),C8 H16 O4'
_chemical_name_systematic        
'bis(1,1,1-Triphenylmethanaminium) bis(thiocyanate) 1,4,7,10-tetraoxacyclododecane clathrate'
_symmetry_cell_setting           monoclinic
_symmetry_space_group_name_H-M   'P 21/c'
_symmetry_Int_Tables_number      14
_space_group_name_Hall           '-P 2ybc'
loop_
_symmetry_equiv_pos_site_id
_symmetry_equiv_pos_as_xyz
1 x,y,z
2 -x,1/2+y,1/2-z
3 -x,-y,-z
4 x,1/2-y,1/2+z
_cell_length_a                   14.7301(15)
_cell_length_b                   16.1984(16)
_cell_length_c                   9.7290(10)
_cell_angle_alpha                90
_cell_angle_beta                 103.973(2)
_cell_angle_gamma                90
_cell_volume                     2252.69
_exptl_crystal_colour            colorless
_exptl_crystal_description       'hexagonal plate'
_chemical_melting_point          '170-172 deg.C'
_cell_formula_units_Z            2
loop_
_atom_site_label
_atom_site_type_symbol
_atom_site_fract_x
_atom_site_fract_y
_atom_site_fract_z
S1 S 0.41686(8) 0.83419(7) 0.58668(14)
N2 N 0.5988(2) 0.8610(2) 0.5472(3)
C24 C 0.5196(3) 0.85726(19) 0.5568(3)
N1 N 0.6760(2) 0.98563(16) 0.3955(3)
H1 H 0.650(2) 1.0340(13) 0.411(3)
H2 H 0.651(2) 0.9728(18) 0.305(2)
H3 H 0.659(2) 0.9500(15) 0.455(3)
C5 C 0.7814(2) 0.99306(17) 0.4302(3)
C6 C 0.8154(2) 0.99111(18) 0.5921(3)
C7 C 0.7734(2) 1.0410(2) 0.6740(4)
H12 H 0.7237 1.0748 0.6308
C8 C 0.8051(3) 1.0410(3) 0.8199(4)
H13 H 0.7768 1.0749 0.8745
C9 C 0.8784(3) 0.9907(3) 0.8841(4)
H14 H 0.8990 0.9899 0.9823
C10 C 0.9211(3) 0.9417(2) 0.8034(4)
H15 H 0.9710 0.9081 0.8466
C11 C 0.8901(2) 0.94249(19) 0.6585(4)
H16 H 0.9199 0.9097 0.6042
C12 C 0.8178(2) 0.91954(18) 0.3598(3)
C13 C 0.7816(2) 0.8412(2) 0.3676(4)
H17 H 0.7350 0.8330 0.4158
C14 C 0.8150(3) 0.7746(2) 0.3032(4)
H18 H 0.7899 0.7222 0.3072
C15 C 0.8849(3) 0.7861(2) 0.2339(4)
H19 H 0.9072 0.7416 0.1913
C16 C 0.9215(3) 0.8627(2) 0.2275(4)
H20 H 0.9690 0.8703 0.1809
C17 C 0.8884(2) 0.92900(19) 0.2897(3)
H21 H 0.9141 0.9810 0.2844
C18 C 0.8040(2) 1.07587(17) 0.3682(3)
C19 C 0.7549(2) 1.1021(2) 0.2351(4)
H22 H 0.7069 1.0694 0.1828
C20 C 0.7759(3) 1.1756(2) 0.1792(4)
H23 H 0.7420 1.1925 0.0902
C21 C 0.8468(3) 1.2238(2) 0.2547(5)
H24 H 0.8608 1.2738 0.2174
C22 C 0.8972(3) 1.1985(2) 0.3853(4)
H25 H 0.9459 1.2311 0.4356
C23 C 0.8764(2) 1.12513(19) 0.4429(3)
H26 H 0.9108 1.1087 0.5319
O1 O 0.59473(16) 0.91825(13) 0.1305(2)
O2 O 0.39380(16) 0.95714(17) 0.0725(2)
C1 C 0.5218(3) 0.8611(2) 0.1317(4)
H4 H 0.5459 0.8161 0.1960
H5 H 0.4988 0.8381 0.0376
C2 C 0.4440(3) 0.9025(3) 0.1771(4)
H6 H 0.4016 0.8609 0.1973
H7 H 0.4692 0.9330 0.2637
C3 C 0.4083(3) 1.0410(3) 0.1088(4)
H8 H 0.4748 1.0530 0.1351
H9 H 0.3823 1.0539 0.1888
C4 C 0.6382(3) 0.9084(2) 0.0158(4)
H10 H 0.7034 0.9245 0.0464
H11 H 0.6359 0.8507 -0.0114
O1B O 0.40527(16) 1.08175(13) -0.1305(2)
O2B O 0.60620(16) 1.04286(17) -0.0725(2)
C1B C 0.4782(3) 1.1389(2) -0.1317(4)
H4B H 0.4541 1.1839 -0.1960
H5B H 0.5012 1.1619 -0.0376
C2B C 0.5560(3) 1.0975(3) -0.1771(4)
H6B H 0.5984 1.1391 -0.1973
H7B H 0.5308 1.0670 -0.2637
C3B C 0.5917(3) 0.9590(3) -0.1088(4)
H8B H 0.5252 0.9470 -0.1351
H9B H 0.6177 0.9461 -0.1888
C4B C 0.3618(3) 1.0916(2) -0.0158(4)
H10B H 0.2966 1.0755 -0.0464
H11B H 0.3641 1.1493 0.0114
loop_
_geom_bond_atom_site_label_1
_geom_bond_atom_site_label_2
_geom_bond_site_symmetry_1
_geom_bond_site_symmetry_2
S1 C24 1_555 1_555
N1 H1 1_555 1_555
H2 N1 1_555 1_555
H3 N1 1_555 1_555
N2 C24 1_555 1_555
O1 C1 1_555 1_555
O2 C2 1_555 1_555
C1 H4 1_555 1_555
H5 C1 1_555 1_555
C2 C1 1_555 1_555
H6 C2 1_555 1_555
H7 C2 1_555 1_555
C3 O2 1_555 1_555
H8 C3 1_555 1_555
H9 C3 1_555 1_555
C4 O1 1_555 1_555
H10 C4 1_555 1_555
H11 C4 1_555 1_555
C5 N1 1_555 1_555
C6 C5 1_555 1_555
C7 C6 1_555 1_555
H12 C7 1_555 1_555
C8 C7 1_555 1_555
H13 C8 1_555 1_555
C9 C8 1_555 1_555
H14 C9 1_555 1_555
C10 C9 1_555 1_555
H15 C10 1_555 1_555
C11 C6 1_555 1_555
H16 C11 1_555 1_555
C12 C5 1_555 1_555
C13 C12 1_555 1_555
H17 C13 1_555 1_555
C14 C13 1_555 1_555
H18 C14 1_555 1_555
C15 C14 1_555 1_555
H19 C15 1_555 1_555
C16 C15 1_555 1_555
H20 C16 1_555 1_555
C17 C12 1_555 1_555
H21 C17 1_555 1_555
C18 C5 1_555 1_555
C19 C18 1_555 1_555
H22 C19 1_555 1_555
C20 C19 1_555 1_555
H23 C20 1_555 1_555
C21 C20 1_555 1_555
H24 C21 1_555 1_555
C22 C21 1_555 1_555
H25 C22 1_555 1_555
C23 C18 1_555 1_555
H26 C23 1_555 1_555
O1B C1B 1_555 1_555
O2B C2B 1_555 1_555
C1B H4B 1_555 1_555
H5B C1B 1_555 1_555
C2B C1B 1_555 1_555
H6B C2B 1_555 1_555
H7B C2B 1_555 1_555
C3B C4 1_555 1_555
H8B C3B 1_555 1_555
H9B C3B 1_555 1_555
C4B C3 1_555 1_555
H10B C4B 1_555 1_555
H11B C4B 1_555 1_555
C10 C11 1_555 1_555
C16 C17 1_555 1_555
C22 C23 1_555 1_555
O1B C4B 1_555 1_555
O2B C3B 1_555 1_555

#END
