
#######################################################################
#
#                 Cambridge Crystallographic Data Centre
#                                CCDC 
#
#######################################################################
#
# If this CIF has been generated from an entry in the Cambridge 
# Structural Database, then it will include bibliographic, chemical, 
# crystal, experimental, refinement or atomic coordinate data resulting 
# from the CCDC's data processing and validation procedures.
#
#######################################################################

data_WOPCEK
_chemical_name_common            
'Tritylammonium triflate 2-methoxyethanol clathrate'
_chemical_formula_moiety         'C19 H18 N1 1+,C2 F3 O2 1-,C3 H8 O2'
_chemical_name_systematic        
'Triphenylmethanaminium trifluoroacetate 2-methoxyethanol clathrate'
_symmetry_cell_setting           monoclinic
_symmetry_space_group_name_H-M   'C 2/c'
_symmetry_Int_Tables_number      15
_space_group_name_Hall           '-C 2yn'
loop_
_symmetry_equiv_pos_site_id
_symmetry_equiv_pos_as_xyz
1 x,y,z
2 1/2+x,1/2+y,z
3 -x,y,1/2-z
4 1/2-x,1/2+y,1/2-z
5 -x,-y,-z
6 1/2-x,1/2-y,-z
7 x,-y,1/2+z
8 1/2+x,1/2-y,1/2+z
_cell_length_a                   17.069(4)
_cell_length_b                   10.694(3)
_cell_length_c                   26.520(7)
_cell_angle_alpha                90
_cell_angle_beta                 107.367(5)
_cell_angle_gamma                90
_cell_volume                     4620.17
_exptl_crystal_colour            colorless
_exptl_crystal_description       prism
_chemical_melting_point          '155-156 deg.C'
_cell_formula_units_Z            8
loop_
_atom_site_label
_atom_site_type_symbol
_atom_site_fract_x
_atom_site_fract_y
_atom_site_fract_z
F1 F -0.1287(3) 1.2885(5) 0.3299(3)
F2 F -0.1057(8) 1.3076(8) 0.2589(3)
F3 F -0.0089(5) 1.2989(7) 0.3283(4)
O1 O -0.0417(8) 1.0572(11) 0.3406(4)
O2 O -0.1053(7) 1.0702(9) 0.2552(3)
C20 C -0.08073(12) 1.10826(19) 0.29958(8)
C21 C -0.08054(13) 1.2502(2) 0.30375(9)
O3 O -0.0915(3) 0.6384(7) 0.3252(2)
O7 O -0.09805(7) 0.82429(13) 0.24256(4)
H1 H -0.1051(13) 0.911(2) 0.2472(9)
C22 C -0.1246(6) 0.5980(10) 0.3620(3)
H20 H -0.0830 0.5584 0.3900
H21 H -0.1674 0.5390 0.3465
H22 H -0.1470 0.6676 0.3758
C23 C -0.1432(7) 0.6360(7) 0.2750(3)
H23 H -0.1928 0.5926 0.2756
H24 H -0.1176 0.5867 0.2536
C24 C -0.1686(4) 0.7647(7) 0.2469(3)
H25 H -0.2071 0.7518 0.2121
H26 H -0.1950 0.8161 0.2673
N1 N 0.03360(7) 0.82801(13) 0.34542(5)
H2 H 0.0557(11) 0.8239(15) 0.3173(7)
H3 H -0.0076(10) 0.7677(17) 0.3412(7)
H4 H 0.0071(10) 0.9071(18) 0.3436(7)
C1 C 0.10045(8) 0.80963(12) 0.39756(5)
C2 C 0.15418(8) 0.70097(12) 0.38907(5)
C3 C 0.23876(9) 0.70816(14) 0.40220(6)
H5 H 0.2651 0.7817 0.4167
C4 C 0.28505(10) 0.60809(17) 0.39424(6)
H6 H 0.3419 0.6147 0.4037
C5 C 0.24745(12) 0.49959(17) 0.37257(7)
H7 H 0.2785 0.4324 0.3670
C6 C 0.16326(12) 0.49061(16) 0.35909(8)
H8 H 0.1374 0.4170 0.3443
C7 C 0.11727(10) 0.58918(15) 0.36734(7)
H9 H 0.0605 0.5813 0.3583
C8 C 0.05789(8) 0.78130(13) 0.43976(5)
C9 C 0.08162(10) 0.68338(16) 0.47482(6)
H10 H 0.1226 0.6290 0.4721
C10 C 0.04435(14) 0.6658(2) 0.51433(7)
H11 H 0.0615 0.6003 0.5382
C11 C -0.01697(13) 0.7431(2) 0.51865(8)
H12 H -0.0422 0.7297 0.5448
C12 C -0.04089(12) 0.84070(19) 0.48404(8)
H13 H -0.0824 0.8941 0.4869
C13 C -0.00409(10) 0.86054(15) 0.44499(6)
H14 H -0.0208 0.9275 0.4219
C14 C 0.14946(8) 0.93140(12) 0.41141(5)
C15 C 0.15123(10) 1.01966(14) 0.37383(6)
H15 H 0.1215 1.0062 0.3387
C16 C 0.19649(11) 1.12737(16) 0.38783(7)
H16 H 0.1962 1.1870 0.3622
C17 C 0.24255(11) 1.14765(17) 0.43975(8)
H17 H 0.2737 1.2201 0.4490
C18 C 0.24198(10) 1.06045(16) 0.47734(7)
H18 H 0.2731 1.0733 0.5123
C19 C 0.19541(8) 0.95365(14) 0.46362(6)
H19 H 0.1946 0.8956 0.4896
F4? F -0.0954(14) 1.2895(8) 0.3459(5)
F5? F -0.1309(5) 1.3041(9) 0.2654(5)
F6? F -0.0112(9) 1.2915(14) 0.3026(9)
O4? O -0.0529(10) 1.0486(15) 0.3405(4)
O5? O -0.1301(6) 1.0600(10) 0.2585(4)
O6? O -0.1161(4) 0.6878(6) 0.3306(2)
C25? C -0.1049(4) 0.5812(7) 0.3666(3)
H27? H -0.0910 0.6107 0.4024
H28? H -0.0615 0.5290 0.3625
H29? H -0.1549 0.5338 0.3586
C26? C -0.1583(11) 0.678(2) 0.2817(8)
H30? H -0.1398 0.6001 0.2707
H31? H -0.2136 0.6623 0.2830
C27? C -0.1684(7) 0.7460(12) 0.2433(4)
H32? H -0.2148 0.8003 0.2411
H33? H -0.1828 0.6940 0.2119
loop_
_geom_bond_atom_site_label_1
_geom_bond_atom_site_label_2
_geom_bond_site_symmetry_1
_geom_bond_site_symmetry_2
F1 C21 1_555 1_555
F2 C21 1_555 1_555
F3 C21 1_555 1_555
O1 C20 1_555 1_555
O2 C20 1_555 1_555
O3 C22 1_555 1_555
O7 H1 1_555 1_555
N1 H2 1_555 1_555
H3 N1 1_555 1_555
H4 N1 1_555 1_555
C1 N1 1_555 1_555
C2 C1 1_555 1_555
C3 C2 1_555 1_555
H5 C3 1_555 1_555
C4 C3 1_555 1_555
H6 C4 1_555 1_555
C5 C4 1_555 1_555
H7 C5 1_555 1_555
C6 C5 1_555 1_555
H8 C6 1_555 1_555
C7 C2 1_555 1_555
H9 C7 1_555 1_555
C8 C1 1_555 1_555
C9 C8 1_555 1_555
H10 C9 1_555 1_555
C10 C9 1_555 1_555
H11 C10 1_555 1_555
C11 C10 1_555 1_555
H12 C11 1_555 1_555
C12 C11 1_555 1_555
H13 C12 1_555 1_555
C13 C8 1_555 1_555
H14 C13 1_555 1_555
C14 C1 1_555 1_555
C15 C14 1_555 1_555
H15 C15 1_555 1_555
C16 C15 1_555 1_555
H16 C16 1_555 1_555
C17 C16 1_555 1_555
H17 C17 1_555 1_555
C18 C17 1_555 1_555
H18 C18 1_555 1_555
C19 C14 1_555 1_555
H19 C19 1_555 1_555
C20 C21 1_555 1_555
C22 H20 1_555 1_555
H21 C22 1_555 1_555
H22 C22 1_555 1_555
C23 O3 1_555 1_555
H23 C23 1_555 1_555
H24 C23 1_555 1_555
C24 O7 1_555 1_555
H25 C24 1_555 1_555
H26 C24 1_555 1_555
C6 C7 1_555 1_555
C12 C13 1_555 1_555
C18 C19 1_555 1_555
C23 C24 1_555 1_555

#END
