
#######################################################################
#
#                 Cambridge Crystallographic Data Centre
#                                CCDC 
#
#######################################################################
#
# If this CIF has been generated from an entry in the Cambridge 
# Structural Database, then it will include bibliographic, chemical, 
# crystal, experimental, refinement or atomic coordinate data resulting 
# from the CCDC's data processing and validation procedures.
#
#######################################################################

data_WOPJUI
_chemical_formula_moiety         'C13 H13 N5'
_chemical_name_systematic        2,6-bis(1H-pyrazol-1-ylmethyl)pyridine
_symmetry_cell_setting           monoclinic
_symmetry_space_group_name_H-M   'P 21/n'
_symmetry_Int_Tables_number      14
_space_group_name_Hall           '-P 2yn'
loop_
_symmetry_equiv_pos_site_id
_symmetry_equiv_pos_as_xyz
1 x,y,z
2 1/2-x,1/2+y,1/2-z
3 -x,-y,-z
4 1/2+x,1/2-y,1/2+z
_cell_length_a                   7.481(3)
_cell_length_b                   9.076(4)
_cell_length_c                   19.021(8)
_cell_angle_alpha                90
_cell_angle_beta                 95.471(5)
_cell_angle_gamma                90
_cell_volume                     1285.6
_exptl_crystal_colour            colorless
_exptl_crystal_description       block
_cell_formula_units_Z            4
loop_
_atom_site_label
_atom_site_type_symbol
_atom_site_fract_x
_atom_site_fract_y
_atom_site_fract_z
N1 N -0.0152(2) 0.79070(17) 0.01406(8)
C1 C -0.1286(3) 0.7141(2) -0.02875(11)
H1 H -0.2403 0.6823 -0.0172
C2 C -0.0626(3) 0.6867(2) -0.09235(11)
H2 H -0.1184 0.6351 -0.1306
C3 C 0.1019(3) 0.7512(2) -0.08738(10)
H3 H 0.1821 0.7522 -0.1218
N2 N 0.12629(18) 0.81324(15) -0.02326(8)
C4 C 0.2836(2) 0.88545(19) 0.01027(11)
H4 H 0.2458 0.9661 0.0388
H5 H 0.3512 0.9272 -0.026
C5 C 0.4057(2) 0.78510(17) 0.05647(9)
C6 C 0.3819(2) 0.63422(19) 0.05958(10)
H6 H 0.2873 0.5885 0.0327
C7 C 0.5017(2) 0.5534(2) 0.10339(10)
H7 H 0.4889 0.4517 0.1065
C8 C 0.6403(2) 0.62335(19) 0.14246(9)
H8 H 0.7221 0.5703 0.1724
C9 C 0.6554(2) 0.77450(18) 0.13620(8)
N3 N 0.53963(18) 0.85448(15) 0.09409(7)
C10 C 0.8035(3) 0.8643(2) 0.17501(11)
H9 H 0.8628 0.9211 0.1408
H10 H 0.7503 0.9334 0.2059
N4 N 0.9367(2) 0.77839(17) 0.21661(8)
N5 N 0.9129(2) 0.7377(2) 0.28293(8)
C11 C 1.0538(3) 0.6541(3) 0.30142(12)
H11 H 1.0754 0.61 0.3455
C12 C 1.1637(3) 0.6396(3) 0.24904(14)
H12 H 1.2698 0.5859 0.250
C13 C 1.0849(3) 0.7199(3) 0.19552(12)
H13 H 1.1269 0.7323 0.1514
loop_
_geom_bond_atom_site_label_1
_geom_bond_atom_site_label_2
_geom_bond_site_symmetry_1
_geom_bond_site_symmetry_2
N1 C1 1_555 1_555
C1 H1 1_555 1_555
C2 C1 1_555 1_555
H2 C2 1_555 1_555
C3 C2 1_555 1_555
H3 C3 1_555 1_555
N2 N1 1_555 1_555
C4 N2 1_555 1_555
H4 C4 1_555 1_555
H5 C4 1_555 1_555
C5 C4 1_555 1_555
C6 C5 1_555 1_555
H6 C6 1_555 1_555
C7 C6 1_555 1_555
H7 C7 1_555 1_555
C8 C7 1_555 1_555
H8 C8 1_555 1_555
C9 C8 1_555 1_555
N3 C5 1_555 1_555
C10 C9 1_555 1_555
H9 C10 1_555 1_555
H10 C10 1_555 1_555
N4 C10 1_555 1_555
N5 N4 1_555 1_555
C11 N5 1_555 1_555
H11 C11 1_555 1_555
C12 C11 1_555 1_555
H12 C12 1_555 1_555
C13 N4 1_555 1_555
H13 C13 1_555 1_555
C3 N2 1_555 1_555
C9 N3 1_555 1_555
C12 C13 1_555 1_555

#END
