
#######################################################################
#
#                 Cambridge Crystallographic Data Centre
#                                CCDC 
#
#######################################################################
#
# If this CIF has been generated from an entry in the Cambridge 
# Structural Database, then it will include bibliographic, chemical, 
# crystal, experimental, refinement or atomic coordinate data resulting 
# from the CCDC's data processing and validation procedures.
#
#######################################################################

data_WOPMOF
_chemical_formula_moiety         'C12 H20 N2 O7'
_chemical_name_systematic        
'diethyl 1-(1-ethoxy-3-hydroxy-1-oxobut-2-en-2-yl)hydrazine-1,2-dicarboxylate'
_symmetry_cell_setting           monoclinic
_symmetry_space_group_name_H-M   'C 2/c'
_symmetry_Int_Tables_number      15
_space_group_name_Hall           '-C 2yn'
loop_
_symmetry_equiv_pos_site_id
_symmetry_equiv_pos_as_xyz
1 x,y,z
2 -x,y,1/2-z
3 1/2+x,1/2+y,z
4 1/2-x,1/2+y,1/2-z
5 -x,-y,-z
6 x,-y,1/2+z
7 1/2-x,1/2-y,-z
8 1/2+x,1/2-y,1/2+z
_cell_length_a                   19.957(4)
_cell_length_b                   9.858(2)
_cell_length_c                   15.780(3)
_cell_angle_alpha                90
_cell_angle_beta                 99.02(3)
_cell_angle_gamma                90
_cell_volume                     3066.1
_exptl_crystal_colour            colorless
_exptl_crystal_description       block
_cell_formula_units_Z            8
loop_
_atom_site_label
_atom_site_type_symbol
_atom_site_fract_x
_atom_site_fract_y
_atom_site_fract_z
O1 O 0.09262(11) 0.5548(2) -0.21714(13)
H1 H 0.1102 0.6240 -0.2356
O2 O 0.13133(11) 0.8004(2) -0.23543(13)
O3 O 0.09292(12) 0.9595(2) -0.15311(13)
O4 O 0.02902(10) 0.8336(2) 0.07502(12)
O5 O 0.11097(10) 0.7038(2) 0.03220(12)
O6 O -0.10261(11) 0.6962(2) -0.06891(14)
O7 O -0.13587(10) 0.9164(2) -0.08577(13)
N1 N 0.02815(11) 0.7846(2) -0.06628(14)
N2 N -0.02827(11) 0.8673(2) -0.08784(15)
H2 H -0.0235 0.9571 -0.0856
C1 C 0.02718(17) 0.4948(3) -0.11048(19)
H3 H 0.0334 0.4069 -0.1372
H4 H -0.0214 0.5147 -0.1155
H5 H 0.0473 0.4916 -0.0497
C2 C 0.06078(14) 0.6022(3) -0.15434(17)
C3 C 0.06187(14) 0.7354(3) -0.13340(17)
C4 C 0.09816(15) 0.8326(3) -0.17891(18)
C5 C 0.1216(2) 1.0639(3) -0.2021(2)
H6 H 0.1712 1.0507 -0.1976
H7 H 0.1012 1.0577 -0.2634
C6 C 0.1075(9) 1.1956(7) -0.1684(9)
H8 H 0.0587 1.2138 -0.1811
H9 H 0.1322 1.2655 -0.1950
H10 H 0.1221 1.1966 -0.1061
C7 C 0.05486(14) 0.7795(3) 0.01947(17)
C8 C 0.14121(16) 0.6889(4) 0.12216(19)
H11 H 0.1084 0.6465 0.1551
H12 H 0.1541 0.7788 0.1476
C9 C 0.2022(2) 0.6015(4) 0.1252(2)
H13 H 0.2236 0.5894 0.1850
H14 H 0.2345 0.6447 0.0927
H15 H 0.1888 0.5130 0.0998
C10 C -0.09031(14) 0.8146(3) -0.07975(17)
C11 C -0.20573(16) 0.8738(4) -0.0904(2)
H16 H -0.2112 0.8191 -0.0394
H17 H -0.2196 0.8178 -0.1423
C12 C -0.24774(19) 0.9972(4) -0.0940(3)
H18 H -0.2955 0.9717 -0.0972
H19 H -0.2420 1.0504 -0.1448
H20 H -0.2337 1.0516 -0.0423
C13? C 0.1369(11) 1.1827(11) -0.1496(8)
H21? H 0.0968 1.2089 -0.1246
H22? H 0.1497 1.2572 -0.1849
H23? H 0.1745 1.1629 -0.1035
loop_
_geom_bond_atom_site_label_1
_geom_bond_atom_site_label_2
_geom_bond_site_symmetry_1
_geom_bond_site_symmetry_2
O1 H1 1_555 1_555
O2 C4 1_555 1_555
O3 C4 1_555 1_555
O4 C7 1_555 1_555
O5 C7 1_555 1_555
O6 C10 1_555 1_555
O7 C10 1_555 1_555
N1 N2 1_555 1_555
N2 H2 1_555 1_555
C1 H3 1_555 1_555
H4 C1 1_555 1_555
H5 C1 1_555 1_555
C2 O1 1_555 1_555
C3 N1 1_555 1_555
C4 C3 1_555 1_555
C5 O3 1_555 1_555
H6 C5 1_555 1_555
H7 C5 1_555 1_555
C6 C5 1_555 1_555
H8 C6 1_555 1_555
H9 C6 1_555 1_555
H10 C6 1_555 1_555
C7 N1 1_555 1_555
C8 O5 1_555 1_555
H11 C8 1_555 1_555
H12 C8 1_555 1_555
C9 C8 1_555 1_555
H13 C9 1_555 1_555
H14 C9 1_555 1_555
H15 C9 1_555 1_555
C10 N2 1_555 1_555
C11 O7 1_555 1_555
H16 C11 1_555 1_555
H17 C11 1_555 1_555
C12 C11 1_555 1_555
H18 C12 1_555 1_555
H19 C12 1_555 1_555
H20 C12 1_555 1_555
C1 C2 1_555 1_555
C2 C3 1_555 1_555

#END
