
#######################################################################
#
#                 Cambridge Crystallographic Data Centre
#                                CCDC 
#
#######################################################################
#
# If this CIF has been generated from an entry in the Cambridge 
# Structural Database, then it will include bibliographic, chemical, 
# crystal, experimental, refinement or atomic coordinate data resulting 
# from the CCDC's data processing and validation procedures.
#
#######################################################################

data_WOPMIZ
_chemical_formula_moiety         'C17 H11 Cl1 O4,C2 H6 O1'
_chemical_name_systematic        
'8-(3-chlorobenzoyl)-7-hydroxy-4-methyl-2H-chromen-2-one ethanol solvate'
_symmetry_cell_setting           monoclinic
_symmetry_space_group_name_H-M   'P 21/c'
_symmetry_Int_Tables_number      14
_space_group_name_Hall           '-P 2ybc'
loop_
_symmetry_equiv_pos_site_id
_symmetry_equiv_pos_as_xyz
1 x,y,z
2 -x,1/2+y,1/2-z
3 -x,-y,-z
4 x,1/2-y,1/2+z
_cell_length_a                   12.1527(14)
_cell_length_b                   10.1550(12)
_cell_length_c                   15.045(2)
_cell_angle_alpha                90
_cell_angle_beta                 112.377(2)
_cell_angle_gamma                90
_cell_volume                     1716.9
_exptl_crystal_colour            colorless
_exptl_crystal_description       block
_cell_formula_units_Z            4
loop_
_atom_site_label
_atom_site_type_symbol
_atom_site_fract_x
_atom_site_fract_y
_atom_site_fract_z
C1 C 0.4999(2) 0.6077(3) 0.38511(19)
C2 C 0.3903(2) 0.5508(3) 0.3810(2)
H1 H 0.3302 0.6065 0.3823
C3 C 0.3704(2) 0.4199(3) 0.37526(18)
C4 C 0.4636(2) 0.3336(3) 0.37340(18)
C5 C 0.4552(2) 0.1957(3) 0.36770(19)
H2 H 0.3845 0.1551 0.3627
C6 C 0.5490(2) 0.1200(3) 0.3693(2)
H3 H 0.5410 0.0289 0.3644
C7 C 0.6566(2) 0.1785(3) 0.37821(18)
C8 C 0.6688(2) 0.3151(2) 0.38398(17)
C9 C 0.5715(2) 0.3886(2) 0.38034(17)
C10 C 0.2552(2) 0.3646(3) 0.3740(2)
H4 H 0.2077 0.4345 0.3837
H5 H 0.2714 0.3008 0.4245
H6 H 0.2129 0.3233 0.3131
C11 C 0.7847(2) 0.3814(2) 0.39665(18)
C12 C 0.8071(2) 0.4155(2) 0.30905(17)
C13 C 0.9072(2) 0.4897(2) 0.31757(19)
H7 H 0.9627 0.5126 0.3778
C14 C 0.9222(2) 0.5283(3) 0.2352(2)
C15 C 0.8430(3) 0.4903(3) 0.1454(2)
H8 H 0.8553 0.5156 0.0904
C16 C 0.7463(3) 0.4153(3) 0.1379(2)
H9 H 0.6933 0.3886 0.0777
C17 C 0.7269(2) 0.3790(3) 0.21927(18)
H10 H 0.6599 0.3300 0.2136
O1 O 0.58799(14) 0.52323(16) 0.38445(12)
O2 O 0.52408(16) 0.72388(19) 0.38990(15)
O3 O 0.75268(16) 0.10911(18) 0.38204(15)
H11 H 0.7370 0.0303 0.3783
O4 O 0.85357(16) 0.4107(2) 0.47672(13)
Cl1 Cl 1.04081(7) 0.62906(9) 0.24271(7)
C18 C 0.9320(3) 0.8324(4) 0.4240(3)
H12 H 0.9186 0.9065 0.3815
H13 H 0.9857 0.7720 0.4123
H14 H 0.9659 0.8622 0.4894
C19 C 0.8195(3) 0.7666(3) 0.4070(3)
H15 H 0.7942 0.7205 0.3460
H16 H 0.8311 0.7017 0.4571
O5 O 0.73052(19) 0.8534(2) 0.4054(2)
H17 H 0.6654 0.8179 0.3794
loop_
_geom_bond_atom_site_label_1
_geom_bond_atom_site_label_2
_geom_bond_site_symmetry_1
_geom_bond_site_symmetry_2
C1 C2 1_555 1_555
C2 H1 1_555 1_555
C3 C2 1_555 1_555
C4 C3 1_555 1_555
C5 C4 1_555 1_555
H2 C5 1_555 1_555
C6 C5 1_555 1_555
H3 C6 1_555 1_555
C7 C6 1_555 1_555
C8 C7 1_555 1_555
C9 C4 1_555 1_555
C10 C3 1_555 1_555
H4 C10 1_555 1_555
H5 C10 1_555 1_555
H6 C10 1_555 1_555
C11 C8 1_555 1_555
C12 C11 1_555 1_555
C13 C12 1_555 1_555
H7 C13 1_555 1_555
C14 C13 1_555 1_555
C15 C14 1_555 1_555
H8 C15 1_555 1_555
C16 C15 1_555 1_555
H9 C16 1_555 1_555
C17 C12 1_555 1_555
H10 C17 1_555 1_555
O1 C1 1_555 1_555
O2 C1 1_555 1_555
O3 C7 1_555 1_555
H11 O3 1_555 1_555
O4 C11 1_555 1_555
Cl1 C14 1_555 1_555
C18 H12 1_555 1_555
H13 C18 1_555 1_555
H14 C18 1_555 1_555
C19 C18 1_555 1_555
H15 C19 1_555 1_555
H16 C19 1_555 1_555
O5 C19 1_555 1_555
H17 O5 1_555 1_555
C8 C9 1_555 1_555
C9 O1 1_555 1_555
C16 C17 1_555 1_555

#END
