
#######################################################################
#
#                 Cambridge Crystallographic Data Centre
#                                CCDC 
#
#######################################################################
#
# If this CIF has been generated from an entry in the Cambridge 
# Structural Database, then it will include bibliographic, chemical, 
# crystal, experimental, refinement or atomic coordinate data resulting 
# from the CCDC's data processing and validation procedures.
#
#######################################################################

data_WOPMEV
_chemical_formula_moiety         'C11 H18 N2 O6'
_chemical_name_systematic        
'diethyl 1-(2-hydroxy-4-oxopent-2-en-3-yl)hydrazine-1,2-dicarboxylate'
_symmetry_cell_setting           triclinic
_symmetry_space_group_name_H-M   'P -1'
_symmetry_Int_Tables_number      2
_space_group_name_Hall           '-P 1'
loop_
_symmetry_equiv_pos_site_id
_symmetry_equiv_pos_as_xyz
1 x,y,z
2 -x,-y,-z
_cell_length_a                   8.6838(17)
_cell_length_b                   8.8343(18)
_cell_length_c                   10.114(2)
_cell_angle_alpha                80.33(3)
_cell_angle_beta                 72.94(3)
_cell_angle_gamma                67.07(3)
_cell_volume                     681.874
_exptl_crystal_colour            colorless
_exptl_crystal_description       block
_cell_formula_units_Z            2
loop_
_atom_site_label
_atom_site_type_symbol
_atom_site_fract_x
_atom_site_fract_y
_atom_site_fract_z
O1 O -0.02245(19) -0.18486(18) 0.96971(15)
H1 H 0.0588 -0.2043 1.0067
O2 O 0.2490(2) -0.20003(19) 1.02157(14)
O3 O 0.09327(18) 0.19256(16) 0.69360(13)
O4 O 0.27945(18) 0.12295(18) 0.48384(13)
O5 O 0.23243(19) -0.2399(2) 0.46971(16)
O6 O 0.52151(18) -0.30908(19) 0.38030(14)
N1 N 0.2640(2) -0.07094(19) 0.66076(16)
N2 N 0.4037(2) -0.1889(2) 0.57888(16)
H2 H 0.5059 -0.1775 0.5556
C1 C -0.0780(3) -0.0987(3) 0.7487(2)
H3 H -0.1441 0.0199 0.7446
H4 H -0.1576 -0.1583 0.7851
H5 H -0.0095 -0.1328 0.6554
C2 C 0.0389(3) -0.1365(2) 0.8409(2)
C3 C 0.1978(2) -0.1200(2) 0.80151(18)
C4 C 0.2976(3) -0.1472(2) 0.8991(2)
C5 C 0.4607(3) -0.1112(3) 0.8574(2)
H6 H 0.5480 -0.1895 0.7904
H7 H 0.5032 -0.1216 0.9394
H8 H 0.4377 0.0011 0.8151
C6 C 0.2161(2) 0.0864(2) 0.60356(19)
C7 C 0.0306(3) 0.3608(2) 0.6347(2)
H9 H -0.0185 0.3645 0.5569
H10 H 0.1267 0.4025 0.5993
C8 C -0.1058(3) 0.4647(3) 0.7472(2)
H11 H -0.1534 0.5780 0.7093
H12 H -0.0548 0.4638 0.8220
H13 H -0.1984 0.4202 0.7836
C9 C 0.3707(3) -0.2436(2) 0.4741(2)
C10 C 0.5098(3) -0.3782(3) 0.2646(2)
H14 H 0.4231 -0.2954 0.2187
H15 H 0.4750 -0.4751 0.2973
C11 C 0.6851(3) -0.4280(3) 0.1656(3)
H16 H 0.6819 -0.4732 0.0848
H17 H 0.7692 -0.5116 0.2118
H18 H 0.7189 -0.3315 0.1356
loop_
_geom_bond_atom_site_label_1
_geom_bond_atom_site_label_2
_geom_bond_site_symmetry_1
_geom_bond_site_symmetry_2
O1 H1 1_555 1_555
O2 C4 1_555 1_555
O3 C6 1_555 1_555
O4 C6 1_555 1_555
O5 C9 1_555 1_555
O6 C9 1_555 1_555
N1 N2 1_555 1_555
N2 H2 1_555 1_555
C1 H3 1_555 1_555
H4 C1 1_555 1_555
H5 C1 1_555 1_555
C2 O1 1_555 1_555
C3 N1 1_555 1_555
C4 C3 1_555 1_555
C5 C4 1_555 1_555
H6 C5 1_555 1_555
H7 C5 1_555 1_555
H8 C5 1_555 1_555
C6 N1 1_555 1_555
C7 O3 1_555 1_555
H9 C7 1_555 1_555
H10 C7 1_555 1_555
C8 C7 1_555 1_555
H11 C8 1_555 1_555
H12 C8 1_555 1_555
H13 C8 1_555 1_555
C9 N2 1_555 1_555
C10 O6 1_555 1_555
H14 C10 1_555 1_555
H15 C10 1_555 1_555
C11 C10 1_555 1_555
H16 C11 1_555 1_555
H17 C11 1_555 1_555
H18 C11 1_555 1_555
C1 C2 1_555 1_555
C2 C3 1_555 1_555

#END
