
#######################################################################
#
#                 Cambridge Crystallographic Data Centre
#                                CCDC 
#
#######################################################################
#
# If this CIF has been generated from an entry in the Cambridge 
# Structural Database, then it will include bibliographic, chemical, 
# crystal, experimental, refinement or atomic coordinate data resulting 
# from the CCDC's data processing and validation procedures.
#
#######################################################################

data_WOPNAS
_chemical_name_common            
beta-3-(2,6-dichlorophenyl)-1,5-diphenylverdazyl
_chemical_formula_moiety         'C20 H15 Cl2 N4'
_chemical_name_systematic        
'6-(2,6-dichlorophenyl)-2,4-diphenyl-1,2,3,4-tetrahydro-1,2,4,5-tetrazin-1-yl radical'
_symmetry_cell_setting           monoclinic
_symmetry_space_group_name_H-M   'P 21/n'
_symmetry_Int_Tables_number      14
_space_group_name_Hall           '-P 2yn'
loop_
_symmetry_equiv_pos_site_id
_symmetry_equiv_pos_as_xyz
1 x,y,z
2 1/2-x,1/2+y,1/2-z
3 -x,-y,-z
4 1/2+x,1/2-y,1/2+z
_cell_length_a                   17.307(6)
_cell_length_b                   11.662(4)
_cell_length_c                   18.464(7)
_cell_angle_alpha                90
_cell_angle_beta                 95.968(7)
_cell_angle_gamma                90
_cell_volume                     3706.47
_exptl_crystal_colour            green
_cell_formula_units_Z            8
loop_
_atom_site_label
_atom_site_type_symbol
_atom_site_fract_x
_atom_site_fract_y
_atom_site_fract_z
Cl1 Cl 0.59160(7) 0.49961(11) 0.57439(6)
Cl2 Cl 0.65616(8) 0.30957(11) 0.83977(6)
N1 N 0.50255(18) 0.3263(3) 0.69959(17)
N2 N 0.60846(18) 0.2262(3) 0.65442(16)
C1 C 0.5833(2) 0.0457(3) 0.5983(2)
C2 C 0.6293(2) 0.4110(3) 0.70815(19)
N3 N 0.56140(18) 0.1341(3) 0.64386(18)
C3 C 0.2185(3) 0.2624(5) 0.6517(3)
H1 H 0.1649 0.2699 0.6421
N4 N 0.45940(19) 0.2300(3) 0.6883(2)
C4 C 0.5759(2) 0.3133(3) 0.68703(19)
C5 C 0.6704(2) 0.4161(4) 0.7774(2)
C6 C 0.3308(2) 0.1477(4) 0.6865(2)
H2 H 0.3520 0.0773 0.7016
C7 C 0.3784(2) 0.2399(3) 0.67839(19)
C8 C 0.5013(2) 0.1229(4) 0.6922(3)
H3 H 0.4668 0.0599 0.6768
H4 H 0.5240 0.1084 0.7416
C9 C 0.6404(2) 0.5000(3) 0.6609(2)
C10 C 0.7299(3) 0.5903(5) 0.7499(3)
H5 H 0.7646 0.6493 0.7634
C11 C 0.7197(3) 0.5050(5) 0.7981(3)
H6 H 0.7459 0.5069 0.8447
C12 C 0.6898(3) 0.5913(4) 0.6809(3)
H7 H 0.6957 0.6514 0.6489
C13 C 0.3448(3) 0.3440(4) 0.6583(2)
H8 H 0.3761 0.4077 0.6531
C14 C 0.6316(3) 0.0701(4) 0.5454(2)
H9 H 0.6485 0.1448 0.5389
C15 C 0.6543(3) -0.0179(5) 0.5024(2)
H10 H 0.6881 -0.0023 0.4676
C16 C 0.5797(4) -0.1500(4) 0.5617(3)
H11 H 0.5611 -0.2241 0.5667
C17 C 0.2511(3) 0.1596(5) 0.6720(3)
H12 H 0.2192 0.0963 0.6763
C18 C 0.5583(3) -0.0652(4) 0.6064(2)
H13 H 0.5265 -0.0824 0.6426
C19 C 0.6282(3) -0.1276(4) 0.5098(3)
H14 H 0.6432 -0.1860 0.4799
C20 C 0.2663(3) 0.3540(4) 0.6459(3)
H15 H 0.2446 0.4251 0.6332
Cl3 Cl -0.20103(6) 0.32248(10) 0.61148(6)
Cl4 Cl 0.07959(6) 0.52964(10) 0.62440(6)
N5 N 0.00635(18) 0.1437(3) 0.64481(15)
N6 N -0.01371(18) 0.2420(2) 0.60815(15)
C21 C -0.0194(2) 0.5250(3) 0.59585(19)
N7 N -0.0071(2) 0.3396(3) 0.72269(16)
N8 N 0.0122(2) 0.2368(3) 0.75611(16)
C22 C -0.0273(2) 0.3285(3) 0.65195(18)
C23 C 0.0923(3) -0.1334(4) 0.6020(3)
H16 H 0.0987 -0.2066 0.6217
C24 C 0.0781(2) 0.2342(3) 0.80792(17)
C25 C 0.0761(2) 0.0835(4) 0.5454(2)
H17 H 0.0721 0.1573 0.5263
C26 C -0.1302(3) 0.6157(4) 0.5341(2)
H18 H -0.1524 0.6763 0.5066
C27 C 0.0853(3) 0.1478(4) 0.8597(2)
H19 H 0.0464 0.0933 0.8615
C28 C -0.1416(2) 0.4348(3) 0.59009(18)
C29 C -0.0178(2) 0.1368(3) 0.71773(19)
H20 H -0.0741 0.1350 0.7156
H21 H 0.0027 0.0679 0.7421
C30 C -0.0628(2) 0.4313(3) 0.61320(17)
C31 C 0.2001(3) 0.3103(4) 0.8569(3)
H22 H 0.2385 0.3661 0.8567
C32 C 0.2086(3) 0.2236(5) 0.9064(3)
H23 H 0.2534 0.2187 0.9387
C33 C -0.1756(2) 0.5260(4) 0.5511(2)
H24 H -0.2287 0.5263 0.5367
C34 C -0.0523(3) 0.6181(4) 0.5569(2)
H25 H -0.0220 0.6807 0.5466
C35 C 0.1121(2) -0.0010(4) 0.5095(2)
H26 H 0.1313 0.0156 0.4655
C36 C 0.1356(3) 0.3160(4) 0.8074(2)
H27 H 0.1305 0.3751 0.7734
C37 C 0.1200(3) -0.1100(4) 0.5379(3)
H28 H 0.1442 -0.1670 0.5131
C38 C 0.0456(2) 0.0585(3) 0.61035(19)
C39 C 0.1513(3) 0.1443(5) 0.9084(2)
H29 H 0.1567 0.0866 0.9433
C40 C 0.0547(2) -0.0509(3) 0.6388(2)
H30 H 0.0356 -0.0688 0.6826
loop_
_geom_bond_atom_site_label_1
_geom_bond_atom_site_label_2
_geom_bond_site_symmetry_1
_geom_bond_site_symmetry_2
Cl1 C9 1_555 1_555
Cl2 C5 1_555 1_555
N1 N4 1_555 1_555
N2 N3 1_555 1_555
C1 N3 1_555 1_555
C2 C4 1_555 1_555
N3 C8 1_555 1_555
C3 H1 1_555 1_555
N4 C7 1_555 1_555
C4 N1 1_555 1_555
C5 C2 1_555 1_555
C6 H2 1_555 1_555
C7 C6 1_555 1_555
C8 N4 1_555 1_555
H3 C8 1_555 1_555
H4 C8 1_555 1_555
C9 C2 1_555 1_555
C10 H5 1_555 1_555
C11 C5 1_555 1_555
H6 C11 1_555 1_555
C12 C9 1_555 1_555
H7 C12 1_555 1_555
C13 C7 1_555 1_555
H8 C13 1_555 1_555
C14 C1 1_555 1_555
H9 C14 1_555 1_555
C15 C14 1_555 1_555
H10 C15 1_555 1_555
C16 H11 1_555 1_555
C17 C3 1_555 1_555
H12 C17 1_555 1_555
C18 C1 1_555 1_555
H13 C18 1_555 1_555
C19 C15 1_555 1_555
H14 C19 1_555 1_555
C20 C3 1_555 1_555
H15 C20 1_555 1_555
Cl3 C28 1_555 1_555
Cl4 C21 1_555 1_555
N5 N6 1_555 1_555
N6 C22 1_555 1_555
C21 C30 1_555 1_555
N7 N8 1_555 1_555
N8 C24 1_555 1_555
C22 N7 1_555 1_555
C23 H16 1_555 1_555
C24 C27 1_555 1_555
C25 H17 1_555 1_555
C26 H18 1_555 1_555
C27 H19 1_555 1_555
C28 C30 1_555 1_555
C29 N5 1_555 1_555
H20 C29 1_555 1_555
H21 C29 1_555 1_555
C30 C22 1_555 1_555
C31 H22 1_555 1_555
C32 C31 1_555 1_555
H23 C32 1_555 1_555
C33 C26 1_555 1_555
H24 C33 1_555 1_555
C34 C21 1_555 1_555
H25 C34 1_555 1_555
C35 C25 1_555 1_555
H26 C35 1_555 1_555
C36 C24 1_555 1_555
H27 C36 1_555 1_555
C37 C23 1_555 1_555
H28 C37 1_555 1_555
C38 N5 1_555 1_555
C39 C27 1_555 1_555
H29 C39 1_555 1_555
C40 C23 1_555 1_555
H30 C40 1_555 1_555
N2 C4 1_555 1_555
C6 C17 1_555 1_555
C10 C11 1_555 1_555
C10 C12 1_555 1_555
C13 C20 1_555 1_555
C16 C18 1_555 1_555
C16 C19 1_555 1_555
N8 C29 1_555 1_555
C25 C38 1_555 1_555
C26 C34 1_555 1_555
C28 C33 1_555 1_555
C31 C36 1_555 1_555
C32 C39 1_555 1_555
C35 C37 1_555 1_555
C38 C40 1_555 1_555

#END
