
#######################################################################
#
#                 Cambridge Crystallographic Data Centre
#                                CCDC 
#
#######################################################################
#
# If this CIF has been generated from an entry in the Cambridge 
# Structural Database, then it will include bibliographic, chemical, 
# crystal, experimental, refinement or atomic coordinate data resulting 
# from the CCDC's data processing and validation procedures.
#
#######################################################################

data_WOQCEM
_chemical_compound_source        'Isolated from Ervatamia officinalis.'
_chemical_name_common            'ervaoffine A'
_chemical_formula_moiety         'C20 H24 N2 O3'
_chemical_name_systematic        
3'-ethyl-5-methoxyspiro[indole-2,8'-[10]oxa[1]azatetracyclo[7.2.1.0^2,7^.0^5,11^]dodecan]-3(1H)-one
_symmetry_cell_setting           orthorhombic
_symmetry_space_group_name_H-M   'P 21 21 21'
_symmetry_Int_Tables_number      19
_space_group_name_Hall           'P 2ac 2ab'
loop_
_symmetry_equiv_pos_site_id
_symmetry_equiv_pos_as_xyz
1 x,y,z
2 1/2-x,-y,1/2+z
3 -x,1/2+y,1/2-z
4 1/2+x,1/2-y,-z
_cell_length_a                   12.54080(10)
_cell_length_b                   12.59410(10)
_cell_length_c                   21.8561(3)
_cell_angle_alpha                90
_cell_angle_beta                 90
_cell_angle_gamma                90
_cell_volume                     3451.95
_exptl_crystal_colour            yellow
_exptl_crystal_description       block
_cell_formula_units_Z            8
loop_
_atom_site_label
_atom_site_type_symbol
_atom_site_fract_x
_atom_site_fract_y
_atom_site_fract_z
O1 O 0.91886(12) 1.13056(11) 0.10111(7)
O2 O 1.04806(10) 0.73476(11) 0.02215(7)
O3 O 0.95672(9) 0.54130(10) -0.05367(6)
N1 N 0.77866(12) 0.77098(11) -0.01818(7)
H1 H 0.7228 0.7606 -0.0402
N2 N 0.77623(12) 0.49203(12) -0.04134(7)
C1 C 0.86316(13) 0.69224(15) -0.00688(9)
C2 C 0.88651(14) 0.45542(15) -0.03264(9)
H2 H 0.8991 0.3914 -0.0570
C3 C 0.78818(15) 0.57463(15) -0.08840(9)
H3 H 0.7276 0.6225 -0.0889
H4 H 0.7978 0.5441 -0.1288
C4 C 0.88916(15) 0.63019(15) -0.06614(9)
H5 H 0.9195 0.6765 -0.0977
C5 C 0.80302(14) 0.86412(14) 0.01214(8)
C6 C 0.73742(15) 0.95246(15) 0.02229(9)
H6 H 0.6667 0.9531 0.0094
C7 C 0.78140(16) 1.03799(15) 0.05192(9)
H7 H 0.7393 1.0976 0.0589
C8 C 0.88795(16) 1.03870(15) 0.07210(9)
C9 C 0.95214(15) 0.95194(15) 0.06327(9)
H8 H 1.0224 0.9513 0.0769
C10 C 0.90813(14) 0.86409(15) 0.03289(9)
C11 C 0.95466(14) 0.76202(15) 0.01735(9)
C12 C 0.90698(14) 0.43208(15) 0.03449(9)
H9 H 0.9722 0.3901 0.0395
C13 C 0.81062(15) 0.37242(15) 0.06036(9)
H10 H 0.8262 0.3473 0.1013
H11 H 0.7944 0.3115 0.0348
C14 C 0.82677(13) 0.61233(14) 0.04380(8)
H12 H 0.7974 0.6523 0.0784
C15 C 0.91720(14) 0.53931(15) 0.06726(9)
H13 H 0.9861 0.5709 0.0586
H14 H 0.9110 0.5296 0.1111
C16 C 0.58188(18) 0.30758(18) 0.09451(11)
H15 H 0.6391 0.2570 0.0966
H16 H 0.5175 0.2722 0.0823
H17 H 0.5719 0.3395 0.1340
C17 C 0.60913(15) 0.39312(16) 0.04805(10)
H18 H 0.5524 0.4454 0.0474
H19 H 0.6131 0.3613 0.0077
C18 C 0.71455(14) 0.44889(15) 0.06187(8)
H20 H 0.7099 0.4791 0.1031
C19 C 0.73876(14) 0.53948(14) 0.01725(8)
H21 H 0.6739 0.5810 0.0100
C20 C 1.02007(19) 1.1282(2) 0.13046(12)
H22 H 1.0209 1.0724 0.1604
H23 H 1.0329 1.1951 0.1502
H24 H 1.0747 1.1154 0.1006
O4 O -0.44233(10) 0.34894(11) 0.71641(7)
O5 O -0.02151(10) 0.26105(10) 0.76859(6)
O6 O 0.18704(10) 0.38209(10) 0.80453(6)
N3 N -0.05179(11) 0.53858(11) 0.75805(7)
H25 H -0.0354 0.6038 0.7650
N4 N 0.23345(11) 0.53963(11) 0.75198(7)
C21 C 0.02462(13) 0.44967(13) 0.75656(8)
C22 C 0.26608(14) 0.42886(15) 0.76311(10)
H26 H 0.3367 0.4274 0.7823
C23 C 0.16527(15) 0.56212(15) 0.80532(9)
H27 H 0.1181 0.6217 0.7977
H28 H 0.2074 0.5761 0.8417
C24 C 0.10330(14) 0.45788(15) 0.81084(9)
H29 H 0.0670 0.4517 0.8504
C25 C -0.15321(14) 0.50178(14) 0.74673(8)
C26 C -0.24688(14) 0.55980(15) 0.73697(9)
H30 H -0.2462 0.6336 0.7365
C27 C -0.33972(15) 0.50435(16) 0.72812(9)
H31 H -0.4026 0.5420 0.7219
C28 C -0.34361(14) 0.39214(15) 0.72812(9)
C29 C -0.25253(14) 0.33487(14) 0.73904(9)
H32 H -0.2540 0.2611 0.7406
C30 C -0.15720(14) 0.39100(14) 0.74778(8)
C31 C -0.04952(14) 0.35288(14) 0.75911(8)
C32 C 0.26910(15) 0.36893(15) 0.70289(10)
H33 H 0.3086 0.3022 0.7074
C33 C 0.32161(15) 0.43937(16) 0.65517(10)
H34 H 0.3370 0.3987 0.6185
H35 H 0.3881 0.4677 0.6709
C34 C 0.08816(13) 0.44919(14) 0.69509(8)
H36 H 0.0380 0.4589 0.6612
C35 C 0.15367(15) 0.34703(14) 0.68359(10)
H37 H 0.1246 0.2887 0.7073
H38 H 0.1510 0.3280 0.6406
C36 C 0.22849(16) 0.71911(16) 0.59863(10)
H39 H 0.1904 0.6921 0.5639
H40 H 0.2702 0.7795 0.5865
H41 H 0.1787 0.7400 0.6297
C37 C 0.30177(15) 0.63321(16) 0.62364(9)
H42 H 0.3375 0.6602 0.6598
H43 H 0.3560 0.6175 0.5933
C38 C 0.24401(14) 0.53059(14) 0.64021(9)
H44 H 0.2014 0.5090 0.6047
C39 C 0.16838(13) 0.54203(14) 0.69486(8)
H45 H 0.1300 0.6096 0.6921
C40 C -0.44415(17) 0.23896(17) 0.70121(12)
H46 H -0.3946 0.2256 0.6686
H47 H -0.5146 0.2193 0.6883
H48 H -0.4245 0.1978 0.7364
loop_
_geom_bond_atom_site_label_1
_geom_bond_atom_site_label_2
_geom_bond_site_symmetry_1
_geom_bond_site_symmetry_2
O1 C8 1_555 1_555
O2 C11 1_555 1_555
O3 C2 1_555 1_555
N1 H1 1_555 1_555
N2 C2 1_555 1_555
C1 N1 1_555 1_555
C2 H2 1_555 1_555
C3 N2 1_555 1_555
H3 C3 1_555 1_555
H4 C3 1_555 1_555
C4 O3 1_555 1_555
H5 C4 1_555 1_555
C5 N1 1_555 1_555
C6 C5 1_555 1_555
H6 C6 1_555 1_555
C7 C6 1_555 1_555
H7 C7 1_555 1_555
C8 C7 1_555 1_555
C9 C8 1_555 1_555
H8 C9 1_555 1_555
C10 C5 1_555 1_555
C11 C1 1_555 1_555
C12 C2 1_555 1_555
H9 C12 1_555 1_555
C13 C12 1_555 1_555
H10 C13 1_555 1_555
H11 C13 1_555 1_555
C14 C1 1_555 1_555
H12 C14 1_555 1_555
C15 C12 1_555 1_555
H13 C15 1_555 1_555
H14 C15 1_555 1_555
C16 H15 1_555 1_555
H16 C16 1_555 1_555
H17 C16 1_555 1_555
C17 C16 1_555 1_555
H18 C17 1_555 1_555
H19 C17 1_555 1_555
C18 C13 1_555 1_555
H20 C18 1_555 1_555
C19 N2 1_555 1_555
H21 C19 1_555 1_555
C20 O1 1_555 1_555
H22 C20 1_555 1_555
H23 C20 1_555 1_555
H24 C20 1_555 1_555
O4 C28 1_555 1_555
O5 C31 1_555 1_555
O6 C22 1_555 1_555
N3 H25 1_555 1_555
N4 C22 1_555 1_555
C21 N3 1_555 1_555
C22 H26 1_555 1_555
C23 N4 1_555 1_555
H27 C23 1_555 1_555
H28 C23 1_555 1_555
C24 O6 1_555 1_555
H29 C24 1_555 1_555
C25 N3 1_555 1_555
C26 C25 1_555 1_555
H30 C26 1_555 1_555
C27 C26 1_555 1_555
H31 C27 1_555 1_555
C28 C27 1_555 1_555
C29 C28 1_555 1_555
H32 C29 1_555 1_555
C30 C25 1_555 1_555
C31 C21 1_555 1_555
C32 C22 1_555 1_555
H33 C32 1_555 1_555
C33 C32 1_555 1_555
H34 C33 1_555 1_555
H35 C33 1_555 1_555
C34 C21 1_555 1_555
H36 C34 1_555 1_555
C35 C32 1_555 1_555
H37 C35 1_555 1_555
H38 C35 1_555 1_555
C36 H39 1_555 1_555
H40 C36 1_555 1_555
H41 C36 1_555 1_555
C37 C36 1_555 1_555
H42 C37 1_555 1_555
H43 C37 1_555 1_555
C38 C33 1_555 1_555
H44 C38 1_555 1_555
C39 N4 1_555 1_555
H45 C39 1_555 1_555
C40 O4 1_555 1_555
H46 C40 1_555 1_555
H47 C40 1_555 1_555
H48 C40 1_555 1_555
C1 C4 1_555 1_555
C3 C4 1_555 1_555
C9 C10 1_555 1_555
C10 C11 1_555 1_555
C14 C15 1_555 1_555
C14 C19 1_555 1_555
C17 C18 1_555 1_555
C18 C19 1_555 1_555
C21 C24 1_555 1_555
C23 C24 1_555 1_555
C29 C30 1_555 1_555
C30 C31 1_555 1_555
C34 C35 1_555 1_555
C34 C39 1_555 1_555
C37 C38 1_555 1_555
C38 C39 1_555 1_555

#END
