
#######################################################################
#
#                 Cambridge Crystallographic Data Centre
#                                CCDC 
#
#######################################################################
#
# If this CIF has been generated from an entry in the Cambridge 
# Structural Database, then it will include bibliographic, chemical, 
# crystal, experimental, refinement or atomic coordinate data resulting 
# from the CCDC's data processing and validation procedures.
#
#######################################################################

data_WOQFAL
_chemical_formula_moiety         'C14 H6 F8 O2'
_chemical_name_systematic        4,4-dimethoxyoctafluorobiphenyl
_symmetry_cell_setting           orthorhombic
_symmetry_space_group_name_H-M   'P b c n'
_symmetry_Int_Tables_number      60
_space_group_name_Hall           '-P 2n 2ab'
loop_
_symmetry_equiv_pos_site_id
_symmetry_equiv_pos_as_xyz
1 x,y,z
2 1/2-x,1/2-y,1/2+z
3 -x,y,1/2-z
4 1/2+x,1/2-y,-z
5 -x,-y,-z
6 1/2+x,1/2+y,1/2-z
7 x,-y,1/2+z
8 1/2-x,1/2+y,z
_cell_length_a                   13.1708(4)
_cell_length_b                   7.8476(2)
_cell_length_c                   12.6056(4)
_cell_angle_alpha                90
_cell_angle_beta                 90
_cell_angle_gamma                90
_cell_volume                     1302.9
_exptl_crystal_colour            colorless
_exptl_crystal_description       block
_cell_formula_units_Z            4
loop_
_atom_site_label
_atom_site_type_symbol
_atom_site_fract_x
_atom_site_fract_y
_atom_site_fract_z
F1 F 0.08777(9) 0.02703(18) 0.40325(11)
F2 F 0.28762(9) 0.02239(17) 0.37109(11)
F3 F 0.23654(10) -0.2806(2) 0.05090(11)
F4 F 0.03981(10) -0.26678(18) 0.08166(10)
O1 O 0.37227(11) -0.1218(3) 0.20623(13)
C1 C 0.05582(15) -0.1168(3) 0.24188(17)
C2 C 0.12307(16) -0.0467(3) 0.31513(16)
C3 C 0.22626(16) -0.0498(3) 0.29927(16)
C4 C 0.26988(16) -0.1254(3) 0.21036(16)
C5 C 0.20322(16) -0.1980(3) 0.13729(16)
C6 C 0.09973(15) -0.1919(3) 0.15394(16)
C7 C 0.42453(17) -0.1652(3) 0.1101(2)
H1 H 0.4964 -0.1350 0.1168
H2 H 0.3946 -0.1024 0.0507
H3 H 0.4183 -0.2879 0.0972
F1B F -0.08777(9) 0.02703(18) 0.09675(11)
F2B F -0.28762(9) 0.02239(17) 0.12891(11)
F3B F -0.23654(10) -0.2806(2) 0.44910(11)
F4B F -0.03981(10) -0.26678(18) 0.41834(10)
O1B O -0.37227(11) -0.1218(3) 0.29377(13)
C1B C -0.05582(15) -0.1168(3) 0.25812(17)
C2B C -0.12307(16) -0.0467(3) 0.18487(16)
C3B C -0.22626(16) -0.0498(3) 0.20073(16)
C4B C -0.26988(16) -0.1254(3) 0.28964(16)
C5B C -0.20322(16) -0.1980(3) 0.36271(16)
C6B C -0.09973(15) -0.1919(3) 0.34606(16)
C7B C -0.42453(17) -0.1652(3) 0.3899(2)
H1B H -0.4964 -0.1350 0.3832
H2B H -0.3946 -0.1024 0.4493
H3B H -0.4183 -0.2879 0.4028
loop_
_geom_bond_atom_site_label_1
_geom_bond_atom_site_label_2
_geom_bond_site_symmetry_1
_geom_bond_site_symmetry_2
F1 C2 1_555 1_555
F2 C3 1_555 1_555
F3 C5 1_555 1_555
F4 C6 1_555 1_555
O1 C4 1_555 1_555
C1 C2 1_555 1_555
C2 C3 1_555 1_555
C3 C4 1_555 1_555
C4 C5 1_555 1_555
C5 C6 1_555 1_555
C6 C1 1_555 1_555
C7 O1 1_555 1_555
H1 C7 1_555 1_555
H2 C7 1_555 1_555
H3 C7 1_555 1_555
F1B C2B 1_555 1_555
F2B C3B 1_555 1_555
F3B C5B 1_555 1_555
F4B C6B 1_555 1_555
O1B C4B 1_555 1_555
C1B C1 1_555 1_555
C2B C1B 1_555 1_555
C3B C2B 1_555 1_555
C4B C3B 1_555 1_555
C5B C4B 1_555 1_555
C6B C1B 1_555 1_555
C7B O1B 1_555 1_555
H1B C7B 1_555 1_555
H2B C7B 1_555 1_555
H3B C7B 1_555 1_555
C5B C6B 1_555 1_555

#END
