
#######################################################################
#
#                 Cambridge Crystallographic Data Centre
#                                CCDC 
#
#######################################################################
#
# If this CIF has been generated from an entry in the Cambridge 
# Structural Database, then it will include bibliographic, chemical, 
# crystal, experimental, refinement or atomic coordinate data resulting 
# from the CCDC's data processing and validation procedures.
#
#######################################################################

data_WOQJOD
_chemical_formula_moiety         'C17 H17 Br1 O4'
_chemical_name_systematic        
'isopropyl 2-(2-(4-bromophenyl)vinyl)-4-oxo-3,4-dihydro-2H-pyran-2-carboxylate'
_symmetry_cell_setting           orthorhombic
_symmetry_space_group_name_H-M   'P 21 21 21'
_symmetry_Int_Tables_number      19
_space_group_name_Hall           'P 2ac 2ab'
loop_
_symmetry_equiv_pos_site_id
_symmetry_equiv_pos_as_xyz
1 x,y,z
2 1/2-x,-y,1/2+z
3 1/2+x,1/2-y,-z
4 -x,1/2+y,1/2-z
_cell_length_a                   6.9095(4)
_cell_length_b                   11.1868(8)
_cell_length_c                   21.7942(15)
_cell_angle_alpha                90
_cell_angle_beta                 90
_cell_angle_gamma                90
_cell_volume                     1684.59
_exptl_crystal_colour            colorless
_chemical_melting_point          '368-370 K'
_cell_formula_units_Z            4
_exptl_crystal_recrystallization_method 'Dichloromethane/Petroleum ether'
loop_
_atom_site_label
_atom_site_type_symbol
_atom_site_fract_x
_atom_site_fract_y
_atom_site_fract_z
Br1 Br 1.41214(6) 0.02518(5) 0.52753(2)
O1 O 0.5054(4) 0.1455(2) 0.83754(12)
O2 O 0.3599(4) 0.3124(2) 0.70781(12)
O3 O 0.5547(4) 0.3380(3) 0.81397(13)
C1 C 0.4213(6) 0.2036(3) 0.73734(16)
O4 O -0.0239(5) 0.1176(3) 0.80991(18)
C2 C 0.2510(5) 0.1161(4) 0.7430(2)
H1 H 0.2080 0.0922 0.7025
H2 H 0.2922 0.0451 0.7650
C3 C 0.5711(7) 0.1630(4) 0.90117(17)
H3 H 0.6789 0.2199 0.9022
C4 C 0.8494(6) 0.1606(4) 0.62351(18)
C5 C 0.1911(7) 0.3572(4) 0.7292(2)
H4 H 0.1616 0.4355 0.7185
C6 C 0.0856(7) 0.1754(5) 0.7772(2)
C7 C 0.0642(7) 0.3004(4) 0.7639(2)
H5 H -0.0407 0.3420 0.7799
C8 C 0.8898(6) 0.0384(4) 0.62022(17)
H6 H 0.8044 -0.0163 0.6376
C9 C 0.5838(6) 0.1513(3) 0.70025(18)
H7 H 0.6163 0.0719 0.7077
C10 C 0.5005(5) 0.2397(4) 0.80083(17)
C11 C 0.6824(6) 0.2075(4) 0.65881(19)
H8 H 0.6444 0.2855 0.6503
C12 C 0.9752(6) 0.2379(4) 0.5951(2)
H9 H 0.9484 0.3193 0.5957
C13 C 1.1801(6) 0.0778(4) 0.56510(19)
C14 C 1.0565(6) -0.0023(4) 0.59121(18)
H10 H 1.0835 -0.0837 0.5896
C15 C 1.1404(6) 0.1984(4) 0.5657(2)
H11 H 1.2232 0.2523 0.5466
C16 C 0.4048(8) 0.2104(5) 0.9380(2)
H12 H 0.3622 0.2849 0.9209
H13 H 0.4453 0.2226 0.9797
H14 H 0.3002 0.1539 0.9371
C17 C 0.6388(8) 0.0419(5) 0.9227(2)
H15 H 0.5344 -0.0144 0.9195
H16 H 0.6802 0.0472 0.9647
H17 H 0.7450 0.0158 0.8976
loop_
_geom_bond_atom_site_label_1
_geom_bond_atom_site_label_2
_geom_bond_site_symmetry_1
_geom_bond_site_symmetry_2
Br1 C13 1_555 1_555
O1 C3 1_555 1_555
O2 C1 1_555 1_555
O3 C10 1_555 1_555
C1 C2 1_555 1_555
O4 C6 1_555 1_555
C2 H1 1_555 1_555
H2 C2 1_555 1_555
C3 H3 1_555 1_555
C4 C8 1_555 1_555
C5 O2 1_555 1_555
H4 C5 1_555 1_555
C6 C2 1_555 1_555
C7 C5 1_555 1_555
H5 C7 1_555 1_555
C8 H6 1_555 1_555
C9 C1 1_555 1_555
H7 C9 1_555 1_555
C10 O1 1_555 1_555
C11 C4 1_555 1_555
H8 C11 1_555 1_555
C12 C4 1_555 1_555
H9 C12 1_555 1_555
C13 C14 1_555 1_555
C14 C8 1_555 1_555
H10 C14 1_555 1_555
C15 C12 1_555 1_555
H11 C15 1_555 1_555
C16 C3 1_555 1_555
H12 C16 1_555 1_555
H13 C16 1_555 1_555
H14 C16 1_555 1_555
C17 C3 1_555 1_555
H15 C17 1_555 1_555
H16 C17 1_555 1_555
H17 C17 1_555 1_555
C1 C10 1_555 1_555
C6 C7 1_555 1_555
C9 C11 1_555 1_555
C13 C15 1_555 1_555

#END
