
#######################################################################
#
#                 Cambridge Crystallographic Data Centre
#                                CCDC 
#
#######################################################################
#
# If this CIF has been generated from an entry in the Cambridge 
# Structural Database, then it will include bibliographic, chemical, 
# crystal, experimental, refinement or atomic coordinate data resulting 
# from the CCDC's data processing and validation procedures.
#
#######################################################################

data_WOQKEU
_chemical_formula_moiety         'C28 H27 N1 O3 S1'
_chemical_name_systematic        
2-(2-cyclopropyl-5-methyl-1-((4-methylphenyl)sulfonyl)-1H-indol-4-yl)-1-(4-methylphenyl)ethanone
_symmetry_cell_setting           monoclinic
_symmetry_space_group_name_H-M   'P 21/n'
_symmetry_Int_Tables_number      14
_space_group_name_Hall           '-P 2yn'
loop_
_symmetry_equiv_pos_site_id
_symmetry_equiv_pos_as_xyz
1 x,y,z
2 1/2-x,1/2+y,1/2-z
3 -x,-y,-z
4 1/2+x,1/2-y,1/2+z
_cell_length_a                   12.055(5)
_cell_length_b                   8.557(4)
_cell_length_c                   23.454(10)
_cell_angle_alpha                90
_cell_angle_beta                 90.843(6)
_cell_angle_gamma                90
_cell_volume                     2419.13
_exptl_crystal_colour            colorless
_exptl_crystal_description       block
_cell_formula_units_Z            4
loop_
_atom_site_label
_atom_site_type_symbol
_atom_site_fract_x
_atom_site_fract_y
_atom_site_fract_z
S1 S -0.10934(7) 0.15420(11) 0.14716(4)
N1 N -0.0569(2) 0.3165(3) 0.11999(11)
O1 O -0.19887(18) 0.1970(3) 0.18219(11)
O2 O -0.1284(2) 0.0534(3) 0.10010(11)
O3 O 0.3591(2) 0.5445(3) 0.07644(12)
C1 C -0.0481(3) 0.4643(4) 0.14886(14)
C2 C 0.0252(3) 0.5506(4) 0.12068(13)
H1 H 0.0444 0.6529 0.1300
C3 C 0.0701(2) 0.4650(4) 0.07457(12)
C4 C 0.1477(2) 0.5026(4) 0.03333(13)
C5 C 0.1743(3) 0.3913(4) -0.00750(13)
C6 C 0.1206(3) 0.2455(5) -0.00568(14)
H2 H 0.1386 0.1711 -0.0329
C7 C 0.0432(3) 0.2075(4) 0.03410(14)
H3 H 0.0083 0.1106 0.0335
C8 C 0.0185(2) 0.3177(4) 0.07520(13)
C9 C -0.1158(3) 0.5060(5) 0.19763(17)
H4 H -0.1944 0.4783 0.1938
C10 C -0.0937(6) 0.6529(7) 0.2287(3)
H5 H -0.0304 0.7148 0.2173
H6 H -0.1568 0.7127 0.2416
C11 C -0.0721(6) 0.5025(11) 0.2555(3)
H7 H 0.0047 0.4715 0.2611
H8 H -0.1216 0.4693 0.2854
C12 C 0.2004(2) 0.6607(4) 0.03391(14)
H9 H 0.1528 0.7322 0.0544
H10 H 0.2053 0.6980 -0.0050
C13 C 0.3146(3) 0.6649(4) 0.06092(13)
C14 C 0.3722(2) 0.8165(4) 0.06798(13)
C15 C 0.3237(3) 0.9586(4) 0.05587(15)
H11 H 0.2508 0.9610 0.0423
C16 C 0.3803(3) 1.0974(5) 0.06338(16)
H12 H 0.3448 1.1917 0.0557
C17 C 0.4888(3) 1.0976(5) 0.08214(14)
C18 C 0.5385(3) 0.9548(5) 0.09362(16)
H13 H 0.6120 0.9521 0.1062
C19 C 0.4811(3) 0.8174(5) 0.08683(15)
H14 H 0.5163 0.7232 0.0951
C20 C 0.5520(3) 1.2478(5) 0.08951(19)
H15 H 0.5483 1.2811 0.1285
H16 H 0.5199 1.3266 0.0652
H17 H 0.6280 1.2317 0.0795
C21 C 0.2593(3) 0.4218(6) -0.05173(16)
H18 H 0.2419 0.5174 -0.0713
H19 H 0.2597 0.3370 -0.0786
H20 H 0.3312 0.4304 -0.0338
C22 C -0.0041(3) 0.0742(4) 0.18988(15)
C23 C 0.0841(3) -0.0041(4) 0.16566(16)
H21 H 0.0889 -0.0119 0.1262
C24 C 0.1640(3) -0.0697(5) 0.19991(19)
H22 H 0.2235 -0.1205 0.1833
C25 C 0.1586(3) -0.0627(5) 0.25847(19)
C26 C 0.0712(4) 0.0167(5) 0.28196(17)
H23 H 0.0668 0.0246 0.3214
C27 C -0.0096(3) 0.0846(5) 0.24841(16)
H24 H -0.0681 0.1375 0.2652
C28 C 0.2450(4) -0.1410(7) 0.2958(2)
H25 H 0.3040 -0.1791 0.2726
H26 H 0.2118 -0.2267 0.3157
H27 H 0.2740 -0.0669 0.3229
loop_
_geom_bond_atom_site_label_1
_geom_bond_atom_site_label_2
_geom_bond_site_symmetry_1
_geom_bond_site_symmetry_2
S1 N1 1_555 1_555
N1 C1 1_555 1_555
O1 S1 1_555 1_555
O2 S1 1_555 1_555
O3 C13 1_555 1_555
C1 C2 1_555 1_555
C2 H1 1_555 1_555
C3 C2 1_555 1_555
C4 C3 1_555 1_555
C5 C4 1_555 1_555
C6 C5 1_555 1_555
H2 C6 1_555 1_555
C7 C6 1_555 1_555
H3 C7 1_555 1_555
C8 N1 1_555 1_555
C9 C1 1_555 1_555
H4 C9 1_555 1_555
C10 C9 1_555 1_555
H5 C10 1_555 1_555
H6 C10 1_555 1_555
C11 C9 1_555 1_555
H7 C11 1_555 1_555
H8 C11 1_555 1_555
C12 C4 1_555 1_555
H9 C12 1_555 1_555
H10 C12 1_555 1_555
C13 C12 1_555 1_555
C14 C13 1_555 1_555
C15 C14 1_555 1_555
H11 C15 1_555 1_555
C16 C15 1_555 1_555
H12 C16 1_555 1_555
C17 C16 1_555 1_555
C18 C17 1_555 1_555
H13 C18 1_555 1_555
C19 C14 1_555 1_555
H14 C19 1_555 1_555
C20 C17 1_555 1_555
H15 C20 1_555 1_555
H16 C20 1_555 1_555
H17 C20 1_555 1_555
C21 C5 1_555 1_555
H18 C21 1_555 1_555
H19 C21 1_555 1_555
H20 C21 1_555 1_555
C22 S1 1_555 1_555
C23 C22 1_555 1_555
H21 C23 1_555 1_555
C24 C23 1_555 1_555
H22 C24 1_555 1_555
C25 C24 1_555 1_555
C26 C25 1_555 1_555
H23 C26 1_555 1_555
C27 C22 1_555 1_555
H24 C27 1_555 1_555
C28 C25 1_555 1_555
H25 C28 1_555 1_555
H26 C28 1_555 1_555
H27 C28 1_555 1_555
C3 C8 1_555 1_555
C7 C8 1_555 1_555
C10 C11 1_555 1_555
C18 C19 1_555 1_555
C26 C27 1_555 1_555

#END
