
#######################################################################
#
#                 Cambridge Crystallographic Data Centre
#                                CCDC 
#
#######################################################################
#
# If this CIF has been generated from an entry in the Cambridge 
# Structural Database, then it will include bibliographic, chemical, 
# crystal, experimental, refinement or atomic coordinate data resulting 
# from the CCDC's data processing and validation procedures.
#
#######################################################################

data_WOQNAT
_chemical_formula_moiety         'C30 H21 N1'
_chemical_name_systematic        1,2,4-Triphenyl-9H-carbazole
_symmetry_cell_setting           triclinic
_symmetry_space_group_name_H-M   'P -1'
_symmetry_Int_Tables_number      2
_space_group_name_Hall           '-P 1'
loop_
_symmetry_equiv_pos_site_id
_symmetry_equiv_pos_as_xyz
1 x,y,z
2 -x,-y,-z
_cell_length_a                   11.0471(14)
_cell_length_b                   12.0602(15)
_cell_length_c                   16.587(2)
_cell_angle_alpha                79.775(2)
_cell_angle_beta                 77.726(2)
_cell_angle_gamma                86.565(2)
_cell_volume                     2124.52
_exptl_crystal_colour            colorless
_exptl_crystal_description       block
_cell_formula_units_Z            4
loop_
_atom_site_label
_atom_site_type_symbol
_atom_site_fract_x
_atom_site_fract_y
_atom_site_fract_z
C1 C 0.44159(14) 0.30880(13) 0.18417(10)
N1 N 0.50706(14) 0.24449(12) 0.23872(10)
C2 C 0.42229(14) 0.42553(13) 0.17279(10)
C3 C 0.34872(15) 0.47064(14) 0.11550(10)
C4 C 0.30018(16) 0.39904(14) 0.07280(11)
H1 H 0.2527 0.4311 0.0342
C5 C 0.31904(15) 0.28317(14) 0.08497(10)
C6 C 0.39111(14) 0.23638(13) 0.14331(10)
C7 C 0.42321(15) 0.12269(14) 0.17797(10)
C8 C 0.39439(16) 0.01532(15) 0.16904(12)
H2 H 0.3467 0.0063 0.1308
C9 C 0.4371(2) -0.07732(16) 0.21720(13)
H3 H 0.4171 -0.1491 0.2118
C10 C 0.5091(2) -0.06521(17) 0.27356(13)
H4 H 0.5373 -0.1294 0.3051
C11 C 0.54033(19) 0.03864(16) 0.28432(13)
H5 H 0.5894 0.0461 0.3221
C12 C 0.49589(16) 0.13186(14) 0.23682(11)
C13 C 0.47598(15) 0.49522(13) 0.22114(11)
C14 C 0.44770(16) 0.47379(15) 0.30802(11)
H6 H 0.3952 0.4154 0.3357
C15 C 0.49655(18) 0.53806(16) 0.35378(12)
H7 H 0.4770 0.5226 0.4120
C16 C 0.57376(18) 0.62451(16) 0.31391(14)
H8 H 0.6064 0.6679 0.3449
C17 C 0.60281(17) 0.64690(15) 0.22839(14)
H9 H 0.6553 0.7057 0.2014
C18 C 0.55490(16) 0.58300(14) 0.18187(12)
H10 H 0.5756 0.5988 0.1237
C19 C 0.31324(15) 0.59248(13) 0.10184(11)
C20 C 0.24106(17) 0.64131(15) 0.16570(12)
H11 H 0.2177 0.5982 0.2186
C21 C 0.20306(18) 0.75296(16) 0.15231(13)
H12 H 0.1539 0.7842 0.1959
C22 C 0.23770(18) 0.81798(16) 0.07489(13)
H13 H 0.2114 0.8930 0.0656
C23 C 0.31142(19) 0.77142(16) 0.01135(13)
H14 H 0.3368 0.8155 -0.0410
C24 C 0.34809(17) 0.65955(15) 0.02470(11)
H15 H 0.3972 0.6288 -0.0191
C25 C 0.26048(17) 0.21506(14) 0.03797(11)
C26 C 0.13322(19) 0.21764(17) 0.04801(14)
H16 H 0.0856 0.2589 0.0862
C27 C 0.0753(2) 0.1604(2) 0.00261(17)
H17 H -0.0107 0.1626 0.0106
C28 C 0.1443(3) 0.1002(2) -0.05424(16)
H18 H 0.1057 0.0626 -0.0857
C29 C 0.2712(2) 0.09570(18) -0.06465(13)
H19 H 0.3183 0.0539 -0.1027
C30 C 0.32874(19) 0.15297(16) -0.01893(12)
H20 H 0.4147 0.1497 -0.0266
H21 H 0.5416(16) 0.2689(15) 0.2731(11)
N2 N 0.90714(15) 0.60291(14) 0.23330(10)
C31 C 0.87345(15) 0.57432(14) 0.31988(11)
C32 C 0.87894(15) 0.64100(14) 0.37967(11)
C33 C 0.83840(15) 0.59147(14) 0.46355(11)
C34 C 0.79612(15) 0.48002(14) 0.48275(11)
H22 H 0.7697 0.4486 0.5388
C35 C 0.79176(15) 0.41492(14) 0.42290(11)
C36 C 0.83098(15) 0.46348(14) 0.33934(11)
C37 C 0.83769(15) 0.42437(15) 0.26078(11)
C38 C 0.80682(16) 0.32545(16) 0.23887(12)
H23 H 0.7770 0.2647 0.2799
C39 C 0.82109(18) 0.31888(18) 0.15548(13)
H24 H 0.7997 0.2531 0.1404
C40 C 0.86654(18) 0.40787(19) 0.09345(13)
H25 H 0.8748 0.4011 0.0375
C41 C 0.89936(18) 0.50532(18) 0.11327(12)
H26 H 0.9305 0.5650 0.0717
C42 C 0.88487(16) 0.51281(16) 0.19729(12)
C43 C 0.92871(17) 0.75669(15) 0.35209(11)
C44 C 1.03412(19) 0.78553(18) 0.37523(12)
H27 H 1.0729 0.7329 0.4102
C45 C 1.0824(2) 0.8919(2) 0.34689(16)
H28 H 1.1534 0.9103 0.3630
C46 C 1.0267(3) 0.9700(2) 0.29546(16)
H29 H 1.0599 1.0412 0.2763
C47 C 0.9222(3) 0.94342(18) 0.27209(15)
H30 H 0.8837 0.9966 0.2373
C48 C 0.8738(2) 0.83709(16) 0.30038(13)
H31 H 0.8026 0.8195 0.2842
C49 C 0.83553(15) 0.65117(14) 0.53484(11)
C50 C 0.87954(15) 0.59787(15) 0.60434(11)
H32 H 0.9149 0.5259 0.6045
C51 C 0.87214(16) 0.64918(17) 0.67346(12)
H33 H 0.9021 0.6116 0.7195
C52 C 0.82081(18) 0.75516(18) 0.67428(13)
H34 H 0.8157 0.7898 0.7208
C53 C 0.7770(2) 0.80990(17) 0.60610(14)
H35 H 0.7421 0.8819 0.6066
C54 C 0.78422(17) 0.75949(15) 0.53694(12)
H36 H 0.7545 0.7981 0.4911
C55 C 0.74608(16) 0.29766(14) 0.44648(10)
C56 C 0.62173(18) 0.27686(17) 0.47225(13)
H37 H 0.5653 0.3370 0.4766
C57 C 0.5792(2) 0.16823(19) 0.49172(16)
H38 H 0.4946 0.1557 0.5089
C58 C 0.6606(2) 0.07900(18) 0.48592(14)
H39 H 0.6317 0.0058 0.4989
C59 C 0.7842(2) 0.09759(17) 0.46104(13)
H40 H 0.8401 0.0370 0.4574
C60 C 0.82652(19) 0.20592(16) 0.44127(13)
H41 H 0.9112 0.2177 0.4240
H42 H 0.940(2) 0.6695(18) 0.2079(13)
loop_
_geom_bond_atom_site_label_1
_geom_bond_atom_site_label_2
_geom_bond_site_symmetry_1
_geom_bond_site_symmetry_2
C1 N1 1_555 1_555
N1 C12 1_555 1_555
C2 C1 1_555 1_555
C3 C2 1_555 1_555
C4 C3 1_555 1_555
H1 C4 1_555 1_555
C5 C4 1_555 1_555
C6 C1 1_555 1_555
C7 C6 1_555 1_555
C8 C7 1_555 1_555
H2 C8 1_555 1_555
C9 C8 1_555 1_555
H3 C9 1_555 1_555
C10 C9 1_555 1_555
H4 C10 1_555 1_555
C11 C10 1_555 1_555
H5 C11 1_555 1_555
C12 C7 1_555 1_555
C13 C2 1_555 1_555
C14 C13 1_555 1_555
H6 C14 1_555 1_555
C15 C14 1_555 1_555
H7 C15 1_555 1_555
C16 C15 1_555 1_555
H8 C16 1_555 1_555
C17 C16 1_555 1_555
H9 C17 1_555 1_555
C18 C13 1_555 1_555
H10 C18 1_555 1_555
C19 C3 1_555 1_555
C20 C19 1_555 1_555
H11 C20 1_555 1_555
C21 C20 1_555 1_555
H12 C21 1_555 1_555
C22 C21 1_555 1_555
H13 C22 1_555 1_555
C23 C22 1_555 1_555
H14 C23 1_555 1_555
C24 C19 1_555 1_555
H15 C24 1_555 1_555
C25 C5 1_555 1_555
C26 C25 1_555 1_555
H16 C26 1_555 1_555
C27 C26 1_555 1_555
H17 C27 1_555 1_555
C28 C27 1_555 1_555
H18 C28 1_555 1_555
C29 C28 1_555 1_555
H19 C29 1_555 1_555
C30 C25 1_555 1_555
H20 C30 1_555 1_555
H21 N1 1_555 1_555
N2 C31 1_555 1_555
C31 C32 1_555 1_555
C32 C33 1_555 1_555
C33 C34 1_555 1_555
C34 H22 1_555 1_555
C35 C34 1_555 1_555
C36 C31 1_555 1_555
C37 C36 1_555 1_555
C38 C37 1_555 1_555
H23 C38 1_555 1_555
C39 C38 1_555 1_555
H24 C39 1_555 1_555
C40 C39 1_555 1_555
H25 C40 1_555 1_555
C41 C40 1_555 1_555
H26 C41 1_555 1_555
C42 N2 1_555 1_555
C43 C32 1_555 1_555
C44 C43 1_555 1_555
H27 C44 1_555 1_555
C45 C44 1_555 1_555
H28 C45 1_555 1_555
C46 C45 1_555 1_555
H29 C46 1_555 1_555
C47 C46 1_555 1_555
H30 C47 1_555 1_555
C48 C43 1_555 1_555
H31 C48 1_555 1_555
C49 C33 1_555 1_555
C50 C49 1_555 1_555
H32 C50 1_555 1_555
C51 C50 1_555 1_555
H33 C51 1_555 1_555
C52 C51 1_555 1_555
H34 C52 1_555 1_555
C53 C52 1_555 1_555
H35 C53 1_555 1_555
C54 C49 1_555 1_555
H36 C54 1_555 1_555
C55 C35 1_555 1_555
C56 C55 1_555 1_555
H37 C56 1_555 1_555
C57 C56 1_555 1_555
H38 C57 1_555 1_555
C58 C57 1_555 1_555
H39 C58 1_555 1_555
C59 C58 1_555 1_555
H40 C59 1_555 1_555
C60 C55 1_555 1_555
H41 C60 1_555 1_555
H42 N2 1_555 1_555
C5 C6 1_555 1_555
C11 C12 1_555 1_555
C17 C18 1_555 1_555
C23 C24 1_555 1_555
C29 C30 1_555 1_555
C35 C36 1_555 1_555
C37 C42 1_555 1_555
C41 C42 1_555 1_555
C47 C48 1_555 1_555
C53 C54 1_555 1_555
C59 C60 1_555 1_555

#END
