
#######################################################################
#
#                 Cambridge Crystallographic Data Centre
#                                CCDC 
#
#######################################################################
#
# If this CIF has been generated from an entry in the Cambridge 
# Structural Database, then it will include bibliographic, chemical, 
# crystal, experimental, refinement or atomic coordinate data resulting 
# from the CCDC's data processing and validation procedures.
#
#######################################################################

data_WOQNIB
_chemical_formula_moiety         'C30 H22 O2'
_chemical_name_systematic        12,13-Dimethoxy-10-phenylbenzo[g]chrysene
_symmetry_cell_setting           orthorhombic
_symmetry_space_group_name_H-M   'P n a 21'
_symmetry_Int_Tables_number      33
_space_group_name_Hall           'P 2c -2n'
loop_
_symmetry_equiv_pos_site_id
_symmetry_equiv_pos_as_xyz
1 x,y,z
2 -x,-y,1/2+z
3 1/2+x,1/2-y,z
4 1/2-x,1/2+y,1/2+z
_cell_length_a                   7.5251(5)
_cell_length_b                   13.3225(9)
_cell_length_c                   21.8161(15)
_cell_angle_alpha                90
_cell_angle_beta                 90
_cell_angle_gamma                90
_cell_volume                     2187.13
_exptl_crystal_colour            colorless
_exptl_crystal_description       block
_cell_formula_units_Z            4
loop_
_atom_site_label
_atom_site_type_symbol
_atom_site_fract_x
_atom_site_fract_y
_atom_site_fract_z
C1 C 0.6095(2) 0.21804(12) -0.10737(6)
O1 O 0.6435(2) 0.21813(10) -0.16917(5)
C2 C 0.6110(2) 0.30042(12) -0.07074(7)
H1 H 0.6385 0.3625 -0.0878
O2 O 0.54885(17) 0.04679(9) -0.12354(5)
C3 C 0.57171(19) 0.29449(11) -0.00711(6)
C4 C 0.55605(17) 0.38174(10) 0.03059(6)
C5 C 0.51174(19) 0.37077(11) 0.09089(7)
H2 H 0.4965 0.4282 0.1146
C6 C 0.48795(18) 0.27590(10) 0.11906(6)
C7 C 0.42270(19) 0.27036(11) 0.18218(6)
C8 C 0.3856(2) 0.35664(13) 0.21658(7)
H3 H 0.4103 0.4193 0.1998
C9 C 0.3141(2) 0.35148(15) 0.27430(7)
H4 H 0.2928 0.4099 0.2965
C10 C 0.2738(2) 0.25896(15) 0.29932(7)
H5 H 0.2226 0.2551 0.3381
C11 C 0.3088(2) 0.17346(14) 0.26733(7)
H6 H 0.2801 0.1117 0.2846
C12 C 0.3877(2) 0.17601(12) 0.20859(7)
C13 C 0.4453(2) 0.08575(12) 0.17684(7)
C14 C 0.4426(3) -0.00903(13) 0.20575(8)
H7 H 0.3857 -0.0157 0.2434
C15 C 0.5214(3) -0.09093(15) 0.18002(10)
H8 H 0.5131 -0.1531 0.1992
C16 C 0.6135(3) -0.08177(13) 0.12554(10)
H9 H 0.6742 -0.1366 0.1095
C17 C 0.6151(2) 0.00881(11) 0.09505(8)
H10 H 0.6787 0.0145 0.0587
C18 C 0.52295(19) 0.09267(11) 0.11765(7)
C19 C 0.51785(18) 0.18923(10) 0.08516(6)
C20 C 0.54478(18) 0.19826(10) 0.01971(6)
C21 C 0.53309(19) 0.11522(11) -0.02095(7)
H11 H 0.5043 0.0525 -0.0051
C22 C 0.5625(2) 0.12400(12) -0.08228(7)
C23 C 0.6639(4) 0.31337(19) -0.19778(9)
H12 H 0.5585 0.3526 -0.1914
H13 H 0.6829 0.3042 -0.2409
H14 H 0.7641 0.3475 -0.1803
C24 C 0.5736(2) 0.48637(11) 0.00694(7)
C25 C 0.4822(2) 0.51989(13) -0.04459(8)
H15 H 0.4116 0.4755 -0.0667
C26 C 0.4960(3) 0.61865(18) -0.06305(12)
H16 H 0.4345 0.6401 -0.0976
C27 C 0.5992(4) 0.68570(15) -0.03111(13)
H17 H 0.6084 0.7520 -0.0441
C28 C 0.6883(3) 0.65402(13) 0.01993(11)
H18 H 0.7578 0.6992 0.0419
C29 C 0.6762(2) 0.55544(11) 0.03931(8)
H19 H 0.7371 0.5351 0.0743
C30 C 0.4906(3) -0.04669(13) -0.10002(9)
H20 H 0.5690 -0.0679 -0.0678
H21 H 0.4909 -0.0958 -0.1322
H22 H 0.3723 -0.0397 -0.0841
loop_
_geom_bond_atom_site_label_1
_geom_bond_atom_site_label_2
_geom_bond_site_symmetry_1
_geom_bond_site_symmetry_2
C1 O1 1_555 1_555
O1 C23 1_555 1_555
C2 C1 1_555 1_555
H1 C2 1_555 1_555
O2 C22 1_555 1_555
C3 C2 1_555 1_555
C4 C3 1_555 1_555
C5 C4 1_555 1_555
H2 C5 1_555 1_555
C6 C5 1_555 1_555
C7 C6 1_555 1_555
C8 C7 1_555 1_555
H3 C8 1_555 1_555
C9 C8 1_555 1_555
H4 C9 1_555 1_555
C10 C9 1_555 1_555
H5 C10 1_555 1_555
C11 C10 1_555 1_555
H6 C11 1_555 1_555
C12 C7 1_555 1_555
C13 C12 1_555 1_555
C14 C13 1_555 1_555
H7 C14 1_555 1_555
C15 C14 1_555 1_555
H8 C15 1_555 1_555
C16 C15 1_555 1_555
H9 C16 1_555 1_555
C17 C16 1_555 1_555
H10 C17 1_555 1_555
C18 C13 1_555 1_555
C19 C6 1_555 1_555
C20 C3 1_555 1_555
C21 C20 1_555 1_555
H11 C21 1_555 1_555
C22 C1 1_555 1_555
C23 H12 1_555 1_555
H13 C23 1_555 1_555
H14 C23 1_555 1_555
C24 C4 1_555 1_555
C25 C24 1_555 1_555
H15 C25 1_555 1_555
C26 C25 1_555 1_555
H16 C26 1_555 1_555
C27 C26 1_555 1_555
H17 C27 1_555 1_555
C28 C27 1_555 1_555
H18 C28 1_555 1_555
C29 C24 1_555 1_555
H19 C29 1_555 1_555
C30 O2 1_555 1_555
H20 C30 1_555 1_555
H21 C30 1_555 1_555
H22 C30 1_555 1_555
C11 C12 1_555 1_555
C17 C18 1_555 1_555
C18 C19 1_555 1_555
C19 C20 1_555 1_555
C21 C22 1_555 1_555
C28 C29 1_555 1_555

#END
