
#######################################################################
#
#                 Cambridge Crystallographic Data Centre
#                                CCDC 
#
#######################################################################
#
# If this CIF has been generated from an entry in the Cambridge 
# Structural Database, then it will include bibliographic, chemical, 
# crystal, experimental, refinement or atomic coordinate data resulting 
# from the CCDC's data processing and validation procedures.
#
#######################################################################

data_WOQNEX
_chemical_formula_moiety         'C31 H23 N1 O1'
_chemical_name_systematic        1-(4-Methoxyphenyl)-2,4-diphenyl-9H-carbazole
_symmetry_cell_setting           triclinic
_symmetry_space_group_name_H-M   'P -1'
_symmetry_Int_Tables_number      2
_space_group_name_Hall           '-P 1'
loop_
_symmetry_equiv_pos_site_id
_symmetry_equiv_pos_as_xyz
1 x,y,z
2 -x,-y,-z
_cell_length_a                   10.6667(17)
_cell_length_b                   12.2374(19)
_cell_length_c                   18.702(3)
_cell_angle_alpha                73.907(2)
_cell_angle_beta                 82.088(2)
_cell_angle_gamma                76.905(2)
_cell_volume                     2277.24
_exptl_crystal_colour            colorless
_exptl_crystal_description       block
_cell_formula_units_Z            4
loop_
_atom_site_label
_atom_site_type_symbol
_atom_site_fract_x
_atom_site_fract_y
_atom_site_fract_z
C1 C 0.8566(2) 0.14843(19) 0.14167(11)
C2 C 0.8855(2) 0.0423(2) 0.19343(13)
H1 H 0.9195 0.0364 0.2379
C3 C 0.8626(3) -0.0534(2) 0.17725(14)
H2 H 0.8814 -0.1254 0.2112
C4 C 0.8116(3) -0.0452(2) 0.11086(14)
H3 H 0.7960 -0.1114 0.1014
C5 C 0.7840(2) 0.0599(2) 0.05924(13)
H4 H 0.7503 0.0646 0.0149
C6 C 0.80685(19) 0.16000(19) 0.07360(11)
C7 C 0.78511(19) 0.28241(18) 0.03577(11)
C8 C 0.73501(19) 0.35062(18) -0.03156(11)
C9 C 0.71477(19) 0.46974(19) -0.04354(11)
H5 H 0.6762 0.5158 -0.0864
C10 C 0.74904(19) 0.52575(18) 0.00533(11)
C11 C 0.80649(18) 0.45891(18) 0.07038(11)
C12 C 0.82050(19) 0.33867(19) 0.08427(11)
C13 C 0.7118(2) 0.29950(18) -0.09091(11)
C14 C 0.6010(2) 0.3399(2) -0.12853(12)
H6 H 0.5379 0.3993 -0.1160
C15 C 0.5829(2) 0.2927(2) -0.18490(13)
H7 H 0.5080 0.3210 -0.2098
C16 C 0.6740(3) 0.2053(2) -0.20415(13)
H8 H 0.6607 0.1735 -0.2416
C17 C 0.7850(3) 0.1649(2) -0.16784(12)
H9 H 0.8474 0.1054 -0.1808
C18 C 0.8048(2) 0.21182(19) -0.11218(12)
H10 H 0.8812 0.1845 -0.0886
C19 C 0.7262(2) 0.65487(19) -0.01754(11)
C20 C 0.8237(2) 0.7155(2) -0.02149(13)
H11 H 0.9049 0.6752 -0.0069
C21 C 0.8009(3) 0.8351(2) -0.04690(14)
H12 H 0.8673 0.8746 -0.0503
C22 C 0.6807(3) 0.8959(2) -0.06717(16)
H13 H 0.6654 0.9764 -0.0835
C23 C 0.5836(3) 0.8377(2) -0.06328(15)
H14 H 0.5022 0.8788 -0.0771
C24 C 0.6058(2) 0.7184(2) -0.03900(13)
H15 H 0.5391 0.6798 -0.0369
C25 C 0.85272(19) 0.50758(18) 0.12467(11)
C26 C 0.9809(2) 0.4814(2) 0.13797(12)
H16 H 1.0385 0.4339 0.1120
C27 C 1.0276(2) 0.52297(19) 0.18867(12)
H17 H 1.1152 0.5045 0.1959
C28 C 0.94331(19) 0.59164(17) 0.22805(11)
C29 C 0.8153(2) 0.6202(2) 0.21547(14)
H18 H 0.7578 0.6679 0.2414
C30 C 0.7715(2) 0.5783(2) 0.16424(14)
H19 H 0.6841 0.5985 0.1563
C31 C 1.1113(2) 0.6003(2) 0.29879(13)
H20 H 1.1313 0.5176 0.3179
H21 H 1.1237 0.6367 0.3360
H22 H 1.1672 0.6229 0.2548
N1 N 0.86596(17) 0.25626(16) 0.14686(10)
O1 O 0.97964(13) 0.63586(13) 0.28041(8)
H23 H 0.890(2) 0.2694(18) 0.1864(13)
C32 C 0.83235(19) 0.76758(17) 0.42892(11)
C33 C 0.8962(2) 0.85224(18) 0.38447(12)
H24 H 0.9472 0.8410 0.3416
C34 C 0.8816(2) 0.95389(19) 0.40588(12)
H25 H 0.9233 1.0122 0.3769
C35 C 0.8057(2) 0.97047(19) 0.46987(12)
H26 H 0.7980 1.0395 0.4834
C36 C 0.7416(2) 0.88618(18) 0.51385(12)
H27 H 0.6900 0.8989 0.5563
C37 C 0.75432(18) 0.78149(17) 0.49441(11)
C38 C 0.70924(18) 0.67370(17) 0.52690(10)
C39 C 0.63039(18) 0.63071(17) 0.59075(11)
C40 C 0.61530(18) 0.51699(17) 0.60397(11)
H28 H 0.5637 0.4877 0.6461
C41 C 0.67304(18) 0.44334(17) 0.55777(11)
C42 C 0.75074(18) 0.48426(17) 0.49372(11)
C43 C 0.76576(18) 0.59897(17) 0.48016(11)
C44 C 0.56524(19) 0.70089(18) 0.64364(11)
C45 C 0.5771(2) 0.6567(2) 0.71979(13)
H29 H 0.6278 0.5838 0.7375
C46 C 0.5143(3) 0.7199(3) 0.76945(15)
H30 H 0.5229 0.6888 0.8203
C47 C 0.4400(2) 0.8270(3) 0.74514(16)
H31 H 0.3995 0.8698 0.7789
C48 C 0.4255(2) 0.8711(2) 0.67027(16)
H32 H 0.3739 0.9437 0.6532
C49 C 0.4873(2) 0.80833(19) 0.61989(13)
H33 H 0.4760 0.8390 0.5693
C50 C 0.6527(2) 0.32133(18) 0.58188(11)
C51 C 0.7567(2) 0.22829(18) 0.58718(12)
H34 H 0.8396 0.2420 0.5719
C52 C 0.7381(2) 0.1160(2) 0.61490(13)
H35 H 0.8086 0.0545 0.6189
C53 C 0.6152(3) 0.0943(2) 0.63671(14)
H36 H 0.6030 0.0184 0.6553
C54 C 0.5114(3) 0.1849(2) 0.63100(14)
H37 H 0.4285 0.1702 0.6451
C55 C 0.5294(2) 0.2979(2) 0.60431(13)
H38 H 0.4585 0.3589 0.6013
C56 C 0.81466(19) 0.41368(17) 0.44041(10)
C57 C 0.7444(2) 0.37157(19) 0.40046(12)
H39 H 0.6548 0.3859 0.4079
C58 C 0.8047(2) 0.30904(19) 0.35001(12)
H40 H 0.7557 0.2821 0.3236
C59 C 0.9369(2) 0.28646(17) 0.33876(11)
C60 C 1.00943(19) 0.32506(17) 0.37833(11)
H41 H 1.0991 0.3084 0.3718
C61 C 0.94738(19) 0.38926(17) 0.42817(11)
H42 H 0.9967 0.4166 0.4541
C62 C 1.1241(2) 0.2022(2) 0.27076(14)
H43 H 1.1527 0.2746 0.2513
H44 H 1.1467 0.1573 0.2345
H45 H 1.1651 0.1600 0.3157
N2 N 0.83701(17) 0.65775(15) 0.42082(10)
O2 O 0.98794(14) 0.22414(13) 0.28678(8)
H46 H 0.879(2) 0.6303(19) 0.3814(13)
loop_
_geom_bond_atom_site_label_1
_geom_bond_atom_site_label_2
_geom_bond_site_symmetry_1
_geom_bond_site_symmetry_2
C1 C2 1_555 1_555
C2 H1 1_555 1_555
C3 C2 1_555 1_555
H2 C3 1_555 1_555
C4 C3 1_555 1_555
H3 C4 1_555 1_555
C5 C4 1_555 1_555
H4 C5 1_555 1_555
C6 C1 1_555 1_555
C7 C6 1_555 1_555
C8 C7 1_555 1_555
C9 C8 1_555 1_555
H5 C9 1_555 1_555
C10 C9 1_555 1_555
C11 C10 1_555 1_555
C12 C7 1_555 1_555
C13 C8 1_555 1_555
C14 C13 1_555 1_555
H6 C14 1_555 1_555
C15 C14 1_555 1_555
H7 C15 1_555 1_555
C16 C15 1_555 1_555
H8 C16 1_555 1_555
C17 C16 1_555 1_555
H9 C17 1_555 1_555
C18 C13 1_555 1_555
H10 C18 1_555 1_555
C19 C10 1_555 1_555
C20 C19 1_555 1_555
H11 C20 1_555 1_555
C21 C20 1_555 1_555
H12 C21 1_555 1_555
C22 C21 1_555 1_555
H13 C22 1_555 1_555
C23 C22 1_555 1_555
H14 C23 1_555 1_555
C24 C19 1_555 1_555
H15 C24 1_555 1_555
C25 C11 1_555 1_555
C26 C25 1_555 1_555
H16 C26 1_555 1_555
C27 C26 1_555 1_555
H17 C27 1_555 1_555
C28 C27 1_555 1_555
C29 C28 1_555 1_555
H18 C29 1_555 1_555
C30 C25 1_555 1_555
H19 C30 1_555 1_555
C31 H20 1_555 1_555
H21 C31 1_555 1_555
H22 C31 1_555 1_555
N1 C1 1_555 1_555
O1 C28 1_555 1_555
H23 N1 1_555 1_555
C32 C33 1_555 1_555
C33 H24 1_555 1_555
C34 C33 1_555 1_555
H25 C34 1_555 1_555
C35 C34 1_555 1_555
H26 C35 1_555 1_555
C36 C35 1_555 1_555
H27 C36 1_555 1_555
C37 C32 1_555 1_555
C38 C37 1_555 1_555
C39 C38 1_555 1_555
C40 C39 1_555 1_555
H28 C40 1_555 1_555
C41 C40 1_555 1_555
C42 C41 1_555 1_555
C43 C38 1_555 1_555
C44 C39 1_555 1_555
C45 C44 1_555 1_555
H29 C45 1_555 1_555
C46 C45 1_555 1_555
H30 C46 1_555 1_555
C47 C46 1_555 1_555
H31 C47 1_555 1_555
C48 C47 1_555 1_555
H32 C48 1_555 1_555
C49 C44 1_555 1_555
H33 C49 1_555 1_555
C50 C41 1_555 1_555
C51 C50 1_555 1_555
H34 C51 1_555 1_555
C52 C51 1_555 1_555
H35 C52 1_555 1_555
C53 C52 1_555 1_555
H36 C53 1_555 1_555
C54 C53 1_555 1_555
H37 C54 1_555 1_555
C55 C50 1_555 1_555
H38 C55 1_555 1_555
C56 C42 1_555 1_555
C57 C56 1_555 1_555
H39 C57 1_555 1_555
C58 C57 1_555 1_555
H40 C58 1_555 1_555
C59 C58 1_555 1_555
C60 C59 1_555 1_555
H41 C60 1_555 1_555
C61 C56 1_555 1_555
H42 C61 1_555 1_555
C62 H43 1_555 1_555
H44 C62 1_555 1_555
H45 C62 1_555 1_555
N2 C32 1_555 1_555
O2 C59 1_555 1_555
H46 N2 1_555 1_555
C5 C6 1_555 1_555
C11 C12 1_555 1_555
C12 N1 1_555 1_555
C17 C18 1_555 1_555
C23 C24 1_555 1_555
C29 C30 1_555 1_555
C31 O1 1_555 1_555
C36 C37 1_555 1_555
C42 C43 1_555 1_555
C43 N2 1_555 1_555
C48 C49 1_555 1_555
C54 C55 1_555 1_555
C60 C61 1_555 1_555
C62 O2 1_555 1_555

#END
