
#######################################################################
#
#                 Cambridge Crystallographic Data Centre
#                                CCDC 
#
#######################################################################
#
# If this CIF has been generated from an entry in the Cambridge 
# Structural Database, then it will include bibliographic, chemical, 
# crystal, experimental, refinement or atomic coordinate data resulting 
# from the CCDC's data processing and validation procedures.
#
#######################################################################

data_WOQQEA01
_chemical_formula_moiety         'C30 H28'
_chemical_name_systematic        
1,1'-[2,2-bis(2,6-dimethylphenyl)ethene-1,1-diyl]dibenzene
_symmetry_cell_setting           monoclinic
_symmetry_space_group_name_H-M   'P 21/n'
_symmetry_Int_Tables_number      14
_space_group_name_Hall           '-P 2yn'
loop_
_symmetry_equiv_pos_site_id
_symmetry_equiv_pos_as_xyz
1 x,y,z
2 1/2-x,1/2+y,1/2-z
3 -x,-y,-z
4 1/2+x,1/2-y,1/2+z
_cell_length_a                   14.1772(3)
_cell_length_b                   10.8633(2)
_cell_length_c                   14.2137(3)
_cell_angle_alpha                90
_cell_angle_beta                 95.1137(16)
_cell_angle_gamma                90
_cell_volume                     2180.36
_exptl_crystal_colour            colorless
_exptl_crystal_description       block
_cell_formula_units_Z            4
loop_
_atom_site_label
_atom_site_type_symbol
_atom_site_fract_x
_atom_site_fract_y
_atom_site_fract_z
C1 C 0.47025(7) 0.24376(9) 0.25508(8)
C2 C 0.38348(7) 0.23169(9) 0.20743(7)
C3 C 0.48175(7) 0.25195(10) 0.36095(7)
C4 C 0.53870(7) 0.16653(10) 0.41543(8)
C5 C 0.54628(8) 0.17560(11) 0.51301(8)
H1 H 0.5845 0.1180 0.5494
C6 C 0.49951(9) 0.26654(12) 0.55863(8)
H2 H 0.5047 0.2707 0.6257
C7 C 0.44536(8) 0.35087(11) 0.50562(8)
H3 H 0.4141 0.4142 0.5369
C8 C 0.43527(7) 0.34587(10) 0.40754(8)
C9 C 0.58898(8) 0.06235(11) 0.37183(9)
H4 H 0.5434 0.0143 0.3310
H5 H 0.6186 0.0093 0.4218
H6 H 0.6378 0.0954 0.3342
C10 C 0.37454(8) 0.44380(10) 0.35764(8)
H7 H 0.3863 0.4459 0.2908
H8 H 0.3901 0.5240 0.3864
H9 H 0.3076 0.4252 0.3632
C11 C 0.55937(7) 0.25038(10) 0.20490(7)
C12 C 0.62036(7) 0.35257(10) 0.21753(8)
C13 C 0.70414(8) 0.35420(12) 0.17367(9)
H10 H 0.7455 0.4228 0.1827
C14 C 0.72822(9) 0.25780(12) 0.11719(9)
H11 H 0.7856 0.2602 0.0875
C15 C 0.66844(9) 0.15820(12) 0.10427(9)
H12 H 0.6851 0.0923 0.0651
C16 C 0.58395(8) 0.15183(11) 0.14737(8)
C17 C 0.59546(8) 0.46443(11) 0.27275(8)
H13 H 0.5369 0.5009 0.2433
H14 H 0.6469 0.5247 0.2731
H15 H 0.5864 0.4404 0.3378
C18 C 0.52323(9) 0.03942(12) 0.12925(9)
H16 H 0.4851 0.0262 0.1826
H17 H 0.5637 -0.0324 0.1219
H18 H 0.4812 0.0512 0.0714
C19 C 0.29883(7) 0.20335(10) 0.25897(7)
C20 C 0.30256(8) 0.11244(10) 0.32865(8)
H19 H 0.3579 0.0633 0.3394
C21 C 0.22739(8) 0.09243(12) 0.38234(8)
H20 H 0.2315 0.0305 0.4297
C22 C 0.14609(8) 0.16287(12) 0.36693(9)
H21 H 0.0951 0.1514 0.4050
C23 C 0.13958(8) 0.24988(11) 0.29591(9)
H22 H 0.0832 0.2968 0.2842
C24 C 0.21477(8) 0.26947(11) 0.24146(8)
H23 H 0.2089 0.3284 0.1919
C25 C 0.36555(7) 0.24905(10) 0.10364(8)
C26 C 0.41006(7) 0.34282(10) 0.05652(8)
H24 H 0.4542 0.3952 0.0911
C27 C 0.39069(8) 0.36037(11) -0.03967(8)
H25 H 0.4213 0.4248 -0.0704
C28 C 0.32689(8) 0.28465(12) -0.09151(8)
H26 H 0.3143 0.2960 -0.1577
C29 C 0.28163(8) 0.19235(11) -0.04579(8)
H27 H 0.2373 0.1405 -0.0807
C30 C 0.30044(8) 0.17502(11) 0.05034(8)
H28 H 0.2685 0.1115 0.0807
loop_
_geom_bond_atom_site_label_1
_geom_bond_atom_site_label_2
_geom_bond_site_symmetry_1
_geom_bond_site_symmetry_2
C1 C2 1_555 1_555
C2 C19 1_555 1_555
C3 C1 1_555 1_555
C4 C3 1_555 1_555
C5 C4 1_555 1_555
H1 C5 1_555 1_555
C6 C5 1_555 1_555
H2 C6 1_555 1_555
C7 C6 1_555 1_555
H3 C7 1_555 1_555
C8 C3 1_555 1_555
C9 C4 1_555 1_555
H4 C9 1_555 1_555
H5 C9 1_555 1_555
H6 C9 1_555 1_555
C10 C8 1_555 1_555
H7 C10 1_555 1_555
H8 C10 1_555 1_555
H9 C10 1_555 1_555
C11 C1 1_555 1_555
C12 C11 1_555 1_555
C13 C12 1_555 1_555
H10 C13 1_555 1_555
C14 C13 1_555 1_555
H11 C14 1_555 1_555
C15 C14 1_555 1_555
H12 C15 1_555 1_555
C16 C11 1_555 1_555
C17 C12 1_555 1_555
H13 C17 1_555 1_555
H14 C17 1_555 1_555
H15 C17 1_555 1_555
C18 C16 1_555 1_555
H16 C18 1_555 1_555
H17 C18 1_555 1_555
H18 C18 1_555 1_555
C19 C20 1_555 1_555
C20 H19 1_555 1_555
C21 C20 1_555 1_555
H20 C21 1_555 1_555
C22 C21 1_555 1_555
H21 C22 1_555 1_555
C23 C22 1_555 1_555
H22 C23 1_555 1_555
C24 C19 1_555 1_555
H23 C24 1_555 1_555
C25 C2 1_555 1_555
C26 C25 1_555 1_555
H24 C26 1_555 1_555
C27 C26 1_555 1_555
H25 C27 1_555 1_555
C28 C27 1_555 1_555
H26 C28 1_555 1_555
C29 C28 1_555 1_555
H27 C29 1_555 1_555
C30 C25 1_555 1_555
H28 C30 1_555 1_555
C7 C8 1_555 1_555
C15 C16 1_555 1_555
C23 C24 1_555 1_555
C29 C30 1_555 1_555

#END
