
#######################################################################
#
#                 Cambridge Crystallographic Data Centre
#                                CCDC 
#
#######################################################################
#
# If this CIF has been generated from an entry in the Cambridge 
# Structural Database, then it will include bibliographic, chemical, 
# crystal, experimental, refinement or atomic coordinate data resulting 
# from the CCDC's data processing and validation procedures.
#
#######################################################################

data_WOQQAW
_chemical_formula_moiety         'C28 H24'
_chemical_name_systematic        
1,1'-(2,2-Diphenylethene-1,1-diyl)bis(2-methylbenzene)
_symmetry_cell_setting           triclinic
_symmetry_space_group_name_H-M   'P -1'
_symmetry_Int_Tables_number      2
_space_group_name_Hall           '-P 1'
loop_
_symmetry_equiv_pos_site_id
_symmetry_equiv_pos_as_xyz
1 x,y,z
2 -x,-y,-z
_cell_length_a                   9.036(19)
_cell_length_b                   9.48(2)
_cell_length_c                   12.90(3)
_cell_angle_alpha                111.14(3)
_cell_angle_beta                 98.54(5)
_cell_angle_gamma                98.34(3)
_cell_volume                     995.329
_cell_formula_units_Z            2
loop_
_atom_site_label
_atom_site_type_symbol
_atom_site_fract_x
_atom_site_fract_y
_atom_site_fract_z
C1 C -0.1038(2) 0.6044(2) 0.26374(17)
C2 C -0.2419(2) 0.6192(2) 0.29145(18)
H1 H -0.2681 0.7155 0.3136
C3 C -0.3415(3) 0.4945(3) 0.2870(2)
H2 H -0.4359 0.5053 0.3057
C4 C -0.3037(4) 0.3546(3) 0.2554(2)
H3 H -0.3729 0.2691 0.2515
C5 C -0.1661(4) 0.3379(3) 0.2294(2)
H4 H -0.1403 0.2415 0.2080
C6 C -0.0665(3) 0.4617(3) 0.2345(2)
H5 H 0.0289 0.4505 0.2181
C7 C 0.1616(2) 0.7565(2) 0.33173(17)
C8 C 0.2884(2) 0.7896(3) 0.2925(2)
H6 H 0.2769 0.8003 0.2231
C9 C 0.4306(3) 0.8074(4) 0.3524(3)
H7 H 0.5153 0.8314 0.3241
C10 C 0.4509(3) 0.7908(4) 0.4517(3)
H8 H 0.5491 0.8049 0.4933
C11 C 0.3273(4) 0.7535(4) 0.4906(3)
H9 H 0.3403 0.7396 0.5589
C12 C 0.1840(3) 0.7359(3) 0.4316(2)
H10 H 0.0998 0.7094 0.4597
C13 C 0.0061(2) 0.7370(2) 0.26894(16)
C14 C -0.0337(2) 0.8335(2) 0.22223(16)
C15 C -0.1888(2) 0.8124(2) 0.15517(17)
C16 C -0.2562(2) 0.6873(2) 0.05628(18)
C17 C -0.4028(3) 0.6814(3) 0.0017(2)
H11 H -0.4502 0.5970 -0.0655
C18 C -0.4784(3) 0.7950(3) 0.0436(3)
H12 H -0.5769 0.7875 0.0056
C19 C -0.4128(3) 0.9177(3) 0.1391(3)
H13 H -0.4652 0.9958 0.1678
C20 C -0.2689(2) 0.9280(3) 0.1943(2)
H14 H -0.2229 1.0151 0.2602
C21 C -0.1803(3) 0.5625(3) 0.0052(2)
H15 H -0.0713 0.5993 0.0307
H16 H -0.2075 0.5273 -0.0763
H17 H -0.2120 0.4783 0.0273
C22 C 0.0696(3) 0.9854(2) 0.2512(2)
C23 C 0.1330(3) 1.0182(3) 0.16853(19)
C24 C 0.2207(3) 1.1647(3) 0.1948(2)
H18 H 0.2631 1.1867 0.1395
C25 C 0.2450(3) 1.2783(2) 0.3038(3)
H19 H 0.3037 1.3763 0.3214
C26 C 0.1817(3) 1.2454(2) 0.3865(2)
H20 H 0.1980 1.3214 0.4594
C27 C 0.0940(3) 1.0990(3) 0.36022(19)
H21 H 0.0516 1.0770 0.4156
C28 C 0.1144(5) 0.9004(5) 0.0550(3)
H22 H 0.1687 0.9433 0.0109
H23 H 0.0075 0.8659 0.0187
H24 H 0.1546 0.8144 0.0603
C29? C 0.0661(8) 0.9566(7) 0.2161(6)
C30? C 0.1278(8) 1.0879(8) 0.3151(5)
C31? C 0.2281(8) 1.2116(7) 0.3121(6)
H25? H 0.2694 1.2995 0.3784
C32? C 0.2667(8) 1.2040(8) 0.2101(7)
H26? H 0.3338 1.2867 0.2082
C33? C 0.2050(8) 1.0726(9) 0.1111(6)
H27? H 0.2308 1.0675 0.0429
C34? C 0.1047(8) 0.9490(8) 0.1141(5)
H28? H 0.0634 0.8611 0.0479
C35? C 0.0963(13) 1.0946(12) 0.4274(8)
H29? H -0.0070 1.0407 0.4164
H30? H 0.1094 1.2007 0.4781
H31? H 0.1662 1.0466 0.4597
loop_
_geom_bond_atom_site_label_1
_geom_bond_atom_site_label_2
_geom_bond_site_symmetry_1
_geom_bond_site_symmetry_2
C1 C2 1_555 1_555
C2 H1 1_555 1_555
C3 C2 1_555 1_555
H2 C3 1_555 1_555
C4 C3 1_555 1_555
H3 C4 1_555 1_555
C5 C4 1_555 1_555
H4 C5 1_555 1_555
C6 C1 1_555 1_555
H5 C6 1_555 1_555
C7 C8 1_555 1_555
C8 H6 1_555 1_555
C9 C8 1_555 1_555
H7 C9 1_555 1_555
C10 C9 1_555 1_555
H8 C10 1_555 1_555
C11 C10 1_555 1_555
H9 C11 1_555 1_555
C12 C7 1_555 1_555
H10 C12 1_555 1_555
C13 C1 1_555 1_555
C14 C13 1_555 1_555
C15 C14 1_555 1_555
C16 C15 1_555 1_555
C17 C16 1_555 1_555
H11 C17 1_555 1_555
C18 C17 1_555 1_555
H12 C18 1_555 1_555
C19 C18 1_555 1_555
H13 C19 1_555 1_555
C20 C15 1_555 1_555
H14 C20 1_555 1_555
C21 C16 1_555 1_555
H15 C21 1_555 1_555
H16 C21 1_555 1_555
H17 C21 1_555 1_555
C22 C14 1_555 1_555
C23 C22 1_555 1_555
C24 C23 1_555 1_555
H18 C24 1_555 1_555
C25 C24 1_555 1_555
H19 C25 1_555 1_555
C26 C25 1_555 1_555
H20 C26 1_555 1_555
C27 C22 1_555 1_555
H21 C27 1_555 1_555
C28 C23 1_555 1_555
H22 C28 1_555 1_555
H23 C28 1_555 1_555
H24 C28 1_555 1_555
C5 C6 1_555 1_555
C7 C13 1_555 1_555
C11 C12 1_555 1_555
C19 C20 1_555 1_555
C26 C27 1_555 1_555

#END
