
#######################################################################
#
#                 Cambridge Crystallographic Data Centre
#                                CCDC 
#
#######################################################################
#
# If this CIF has been generated from an entry in the Cambridge 
# Structural Database, then it will include bibliographic, chemical, 
# crystal, experimental, refinement or atomic coordinate data resulting 
# from the CCDC's data processing and validation procedures.
#
#######################################################################

data_WOQRAX
_chemical_formula_moiety         'C13 H11 Br1 N1 1+,C1 H4 O1,Cl1 1-'
_chemical_name_systematic        
'4-(2-(4-Bromophenyl)ethenyl)pyridium chloride methanol solvate'
_symmetry_cell_setting           monoclinic
_symmetry_space_group_name_H-M   'P 21/m'
_symmetry_Int_Tables_number      11
_space_group_name_Hall           '-P 2yb'
loop_
_symmetry_equiv_pos_site_id
_symmetry_equiv_pos_as_xyz
1 x,y,z
2 -x,1/2+y,-z
3 -x,-y,-z
4 x,1/2-y,z
_cell_length_a                   4.8200(5)
_cell_length_b                   8.7182(9)
_cell_length_c                   17.3278(17)
_cell_angle_alpha                90
_cell_angle_beta                 90.278(2)
_cell_angle_gamma                90
_cell_volume                     728.135
_exptl_crystal_colour            yellow
_exptl_crystal_description       Bar
_cell_formula_units_Z            2
loop_
_atom_site_label
_atom_site_type_symbol
_atom_site_fract_x
_atom_site_fract_y
_atom_site_fract_z
C10 C 0.2417(14) 0.7500 0.2253(4)
O1 O -0.0276(13) 0.7500 0.2427(3)
Cl1 Cl 0.8961(2) 0.7500 0.42034(6)
Br1 Br 0.89945(9) 0.7500 1.02599(3)
N1 N -0.6901(7) 0.7500 0.55218(19)
H1 H -0.8194 0.7500 0.5178
C1 C -0.5925(7) 0.6186(4) 0.57816(18)
H2 H -0.6646 0.5269 0.5593
C2 C -0.3888(7) 0.6156(4) 0.63192(19)
H3 H -0.3210 0.5218 0.6493
C3 C -0.2798(8) 0.7500 0.6615(2)
C4 C -0.0678(12) 0.6903(7) 0.7201(3)
C5 C 0.0643(11) 0.7023(6) 0.7594(3)
C6 C 0.2719(8) 0.7500 0.8209(2)
C7 C 0.3722(6) 0.6138(4) 0.85096(17)
H4 H 0.3094 0.5213 0.8307
C8 C 0.5637(6) 0.6125(4) 0.91048(16)
H5 H 0.6300 0.5202 0.9302
C9 C 0.6546(7) 0.7500 0.9400(2)
H6 H -0.008(6) 0.596(4) 0.7401(18)
C1C C -0.5925(7) 0.8814(4) 0.57816(18)
H2C H -0.6646 0.9731 0.5593
C2C C -0.3888(7) 0.8844(4) 0.63192(19)
H3C H -0.3210 0.9782 0.6493
C4C C -0.0678(12) 0.8097(7) 0.7201(3)
C5C C 0.0643(11) 0.7977(6) 0.7594(3)
C7C C 0.3722(6) 0.8862(4) 0.85096(17)
H4C H 0.3094 0.9787 0.8307
C8C C 0.5637(6) 0.8875(4) 0.91048(16)
H5C H 0.6300 0.9798 0.9302
H6C H -0.008(6) 0.904(4) 0.7401(18)
H7? H 0.3447 0.7019 0.2662
H8? H 0.3045 0.8537 0.2190
H9? H 0.2697 0.6944 0.1782
H10? H -0.0460 0.7405 0.2895
loop_
_geom_bond_atom_site_label_1
_geom_bond_atom_site_label_2
_geom_bond_site_symmetry_1
_geom_bond_site_symmetry_2
Br1 C9 1_555 1_555
N1 H1 1_555 1_555
C1 N1 1_555 1_555
H2 C1 1_555 1_555
C2 C1 1_555 1_555
H3 C2 1_555 1_555
C3 C2 1_555 1_555
C4 C3 1_555 1_555
C5 C4 1_555 1_555
C6 C5 1_555 1_555
C7 C6 1_555 1_555
H4 C7 1_555 1_555
C8 C7 1_555 1_555
H5 C8 1_555 1_555
C9 C8 1_555 1_555
H6 C4 1_555 1_555
C10 O1 1_555 1_555
C1C N1 1_555 1_555
H2C C1C 1_555 1_555
C2C C3 1_555 1_555
H3C C2C 1_555 1_555
C4C C3 1_555 1_555
C5C C4 1_555 1_555
C7C C6 1_555 1_555
H4C C7C 1_555 1_555
C8C C9 1_555 1_555
H5C C8C 1_555 1_555
H6C C4C 1_555 1_555
C4 C4C 1_555 1_555
C5 H6 1_555 1_555
C5 C4C 1_555 1_555
C5 C5C 1_555 1_555
C6 C5C 1_555 1_555
C1C C2C 1_555 1_555
C4C C5C 1_555 1_555
C5C H6C 1_555 1_555
C7C C8C 1_555 1_555

#END
