
#######################################################################
#
#                 Cambridge Crystallographic Data Centre
#                                CCDC 
#
#######################################################################
#
# If this CIF has been generated from an entry in the Cambridge 
# Structural Database, then it will include bibliographic, chemical, 
# crystal, experimental, refinement or atomic coordinate data resulting 
# from the CCDC's data processing and validation procedures.
#
#######################################################################

data_WORBUC
_chemical_formula_moiety         'C41 H46 O1 S3'
_chemical_name_systematic        
5,5'-dioctyl-2'-(pyren-1-ylsulfanyl)-3,3'-bithiophene-2-carbaldehyde
_symmetry_cell_setting           triclinic
_symmetry_space_group_name_H-M   'P -1'
_symmetry_Int_Tables_number      2
_space_group_name_Hall           '-P 1'
loop_
_symmetry_equiv_pos_site_id
_symmetry_equiv_pos_as_xyz
1 x,y,z
2 -x,-y,-z
_cell_length_a                   9.3945(16)
_cell_length_b                   11.3837(19)
_cell_length_c                   18.540(3)
_cell_angle_alpha                83.241(4)
_cell_angle_beta                 79.382(4)
_cell_angle_gamma                67.287(3)
_cell_volume                     1795.3
_exptl_crystal_colour            colorless
_exptl_crystal_description       block
_cell_formula_units_Z            2
loop_
_atom_site_label
_atom_site_type_symbol
_atom_site_fract_x
_atom_site_fract_y
_atom_site_fract_z
O1 O 0.7401(7) 0.1800(5) 0.2307(3)
S1 S 0.7763(2) 0.21314(17) 0.06578(11)
S2 S 1.3545(2) 0.17440(17) 0.04733(11)
S3 S 1.3161(3) 0.3535(2) 0.16245(12)
C1 C 0.8688(8) 0.2512(6) 0.1257(4)
C2 C 0.8776(8) 0.2647(6) -0.0089(4)
C3 C 0.9771(8) 0.3085(6) 0.0136(5)
H1 H 1.0418 0.3413 -0.0193
C4 C 0.9753(8) 0.3010(6) 0.0885(4)
C5 C 1.0785(10) 0.3389(7) 0.1241(4)
C6 C 1.2394(10) 0.2902(6) 0.1073(4)
C7 C 1.1379(12) 0.4458(7) 0.2064(4)
C8 C 1.0266(10) 0.4267(7) 0.1790(4)
H2 H 0.9210 0.4693 0.1955
C9 C 0.8362(10) 0.2244(7) 0.2027(5)
H3 H 0.8925 0.2423 0.2334
C10 C 1.3688(8) 0.2645(6) -0.0364(4)
C11 C 1.4040(8) 0.3731(7) -0.0388(5)
H4 H 1.4168 0.3999 0.0042
C12 C 1.4200(9) 0.4409(7) -0.1039(6)
H5 H 1.4426 0.5137 -0.1043
C13 C 1.4032(8) 0.4031(7) -0.1680(5)
C14 C 1.3659(8) 0.2953(6) -0.1670(5)
C15 C 1.3492(7) 0.2235(6) -0.1006(4)
C16 C 1.3094(8) 0.1141(6) -0.1031(4)
H6 H 1.2973 0.0661 -0.0599
C17 C 1.2895(9) 0.0797(7) -0.1658(5)
H7 H 1.2661 0.0073 -0.1653
C18 C 1.3030(9) 0.1497(8) -0.2319(5)
C19 C 1.3448(9) 0.2572(7) -0.2332(5)
C20 C 1.3598(10) 0.3283(9) -0.3001(6)
C21 C 1.3355(12) 0.2886(11) -0.3631(6)
H8 H 1.3463 0.3338 -0.4075
C22 C 1.2956(12) 0.1842(12) -0.3613(6)
H9 H 1.2785 0.1612 -0.4045
C23 C 1.2803(11) 0.1122(9) -0.2969(6)
H10 H 1.2555 0.0405 -0.2967
C24 C 1.4205(11) 0.4735(8) -0.2357(6)
H11 H 1.4461 0.5449 -0.2366
C25 C 1.4004(11) 0.4382(9) -0.2970(6)
H12 H 1.4127 0.4860 -0.3403
C26 C 0.8540(9) 0.2582(7) -0.0847(4)
H13 H 0.9442 0.2635 -0.1180
H14 H 0.7642 0.3327 -0.0955
C27 C 0.8293(9) 0.1411(7) -0.1010(4)
H15 H 0.7348 0.1378 -0.0707
H16 H 0.9161 0.0654 -0.0885
C28 C 0.8158(9) 0.1417(7) -0.1813(4)
H17 H 0.7362 0.2219 -0.1945
H18 H 0.9141 0.1377 -0.2108
C29 C 0.7765(9) 0.0358(6) -0.2006(4)
H19 H 0.6753 0.0422 -0.1735
H20 H 0.8530 -0.0448 -0.1855
C30 C 0.7726(10) 0.0362(7) -0.2821(4)
H21 H 0.6988 0.1183 -0.2971
H22 H 0.8748 0.0279 -0.3087
C31 C 0.7295(11) -0.0652(8) -0.3042(5)
H23 H 0.6294 -0.0601 -0.2762
H24 H 0.8065 -0.1478 -0.2922
C32 C 0.7191(15) -0.0554(11) -0.3862(5)
H25 H 0.6473 0.0291 -0.3990
H26 H 0.8210 -0.0669 -0.4143
C33 C 0.6657(19) -0.1512(13) -0.4057(7)
H27 H 0.6586 -0.1411 -0.4573
H28 H 0.5649 -0.1402 -0.3779
H29 H 0.7386 -0.2350 -0.3948
C34 C 1.1183(12) 0.5386(7) 0.2615(5)
H30 H 1.1824 0.5875 0.2412
H31 H 1.0104 0.5976 0.2673
C35 C 1.1548(10) 0.4898(6) 0.3314(5)
H32 H 1.2636 0.4332 0.3275
H33 H 1.0914 0.4411 0.3533
C36 C 1.1244(7) 0.6001(5) 0.3809(4)
H34 H 1.1536 0.6666 0.3523
H35 H 1.0145 0.6365 0.4009
C37 C 1.2124(11) 0.5518(5) 0.4371(4)
H36 H 1.3213 0.5368 0.4190
H37 H 1.2043 0.4718 0.4575
C38 C 1.1493(9) 0.6489(9) 0.4944(4)
H38 H 1.0610 0.7206 0.4794
H39 H 1.1138 0.6116 0.5405
C39 C 1.2681(8) 0.6915(7) 0.5041(4)
H40 H 1.2808 0.7512 0.4639
H41 H 1.3666 0.6196 0.5039
C40 C 1.2240(10) 0.7560(9) 0.5766(4)
H42 H 1.1123 0.7832 0.5925
H43 H 1.2767 0.6967 0.6141
C41 C 1.2683(16) 0.8613(11) 0.5666(5)
H44 H 1.2407 0.9032 0.6120
H45 H 1.2155 0.9196 0.5296
H46 H 1.3791 0.8335 0.5514
loop_
_geom_bond_atom_site_label_1
_geom_bond_atom_site_label_2
_geom_bond_site_symmetry_1
_geom_bond_site_symmetry_2
O1 C9 1_555 1_555
S1 C1 1_555 1_555
S2 C6 1_555 1_555
S3 C6 1_555 1_555
C1 C4 1_555 1_555
C2 S1 1_555 1_555
C3 C2 1_555 1_555
H1 C3 1_555 1_555
C4 C3 1_555 1_555
C5 C4 1_555 1_555
C6 C5 1_555 1_555
C7 S3 1_555 1_555
C8 C5 1_555 1_555
H2 C8 1_555 1_555
C9 C1 1_555 1_555
H3 C9 1_555 1_555
C10 S2 1_555 1_555
C11 C10 1_555 1_555
H4 C11 1_555 1_555
C12 C11 1_555 1_555
H5 C12 1_555 1_555
C13 C12 1_555 1_555
C14 C13 1_555 1_555
C15 C10 1_555 1_555
C16 C15 1_555 1_555
H6 C16 1_555 1_555
C17 C16 1_555 1_555
H7 C17 1_555 1_555
C18 C17 1_555 1_555
C19 C14 1_555 1_555
C20 C19 1_555 1_555
C21 C20 1_555 1_555
H8 C21 1_555 1_555
C22 C21 1_555 1_555
H9 C22 1_555 1_555
C23 C18 1_555 1_555
H10 C23 1_555 1_555
C24 C13 1_555 1_555
H11 C24 1_555 1_555
C25 C20 1_555 1_555
H12 C25 1_555 1_555
C26 C2 1_555 1_555
H13 C26 1_555 1_555
H14 C26 1_555 1_555
C27 C26 1_555 1_555
H15 C27 1_555 1_555
H16 C27 1_555 1_555
C28 C27 1_555 1_555
H17 C28 1_555 1_555
H18 C28 1_555 1_555
C29 C28 1_555 1_555
H19 C29 1_555 1_555
H20 C29 1_555 1_555
C30 C29 1_555 1_555
H21 C30 1_555 1_555
H22 C30 1_555 1_555
C31 C30 1_555 1_555
H23 C31 1_555 1_555
H24 C31 1_555 1_555
C32 C31 1_555 1_555
H25 C32 1_555 1_555
H26 C32 1_555 1_555
C33 C32 1_555 1_555
H27 C33 1_555 1_555
H28 C33 1_555 1_555
H29 C33 1_555 1_555
C34 C7 1_555 1_555
H30 C34 1_555 1_555
H31 C34 1_555 1_555
C35 C34 1_555 1_555
H32 C35 1_555 1_555
H33 C35 1_555 1_555
C36 C35 1_555 1_555
H34 C36 1_555 1_555
H35 C36 1_555 1_555
C37 C36 1_555 1_555
H36 C37 1_555 1_555
H37 C37 1_555 1_555
C38 C37 1_555 1_555
H38 C38 1_555 1_555
H39 C38 1_555 1_555
C39 C38 1_555 1_555
H40 C39 1_555 1_555
H41 C39 1_555 1_555
C40 C39 1_555 1_555
H42 C40 1_555 1_555
H43 C40 1_555 1_555
C41 C40 1_555 1_555
H44 C41 1_555 1_555
H45 C41 1_555 1_555
H46 C41 1_555 1_555
C7 C8 1_555 1_555
C14 C15 1_555 1_555
C18 C19 1_555 1_555
C22 C23 1_555 1_555
C24 C25 1_555 1_555

#END
