
#######################################################################
#
#                 Cambridge Crystallographic Data Centre
#                                CCDC 
#
#######################################################################
#
# If this CIF has been generated from an entry in the Cambridge 
# Structural Database, then it will include bibliographic, chemical, 
# crystal, experimental, refinement or atomic coordinate data resulting 
# from the CCDC's data processing and validation procedures.
#
#######################################################################

data_WORCEN
_chemical_formula_moiety         'C15 H18 N2 O2'
_chemical_name_systematic        
3-(1-(t-butylamino)ethylidene)quinoline-2,4(1H,3H)-dione
_symmetry_cell_setting           orthorhombic
_symmetry_space_group_name_H-M   'P n a 21'
_symmetry_Int_Tables_number      33
_space_group_name_Hall           'P 2c -2n'
loop_
_symmetry_equiv_pos_site_id
_symmetry_equiv_pos_as_xyz
1 x,y,z
2 -x,-y,1/2+z
3 1/2+x,1/2-y,z
4 1/2-x,1/2+y,1/2+z
_cell_length_a                   13.2129(16)
_cell_length_b                   6.4558(13)
_cell_length_c                   32.797(4)
_cell_angle_alpha                90
_cell_angle_beta                 90
_cell_angle_gamma                90
_cell_volume                     2797.58
_cell_formula_units_Z            8
loop_
_atom_site_label
_atom_site_type_symbol
_atom_site_fract_x
_atom_site_fract_y
_atom_site_fract_z
O1 O 0.2921(2) 0.3367(5) 0.41676(8)
O2 O 0.32723(17) -0.0887(4) 0.29899(7)
N1 N 0.3932(2) 0.0592(5) 0.41616(8)
H1 H 0.409(3) 0.095(6) 0.4417(5)
N2 N 0.2145(2) 0.2268(5) 0.29442(10)
H2 H 0.252(3) 0.118(4) 0.2862(12)
C1 C 0.3264(2) 0.1882(6) 0.39689(10)
C2 C 0.4365(2) -0.1129(5) 0.39932(9)
C3 C 0.5008(4) -0.2366(6) 0.42205(13)
H3 H 0.5148 -0.2012 0.4490
C4 C 0.5441(3) -0.4101(7) 0.40559(13)
H4 H 0.5886 -0.4899 0.4209
C5 C 0.5209(3) -0.4663(7) 0.36554(12)
H5 H 0.5488 -0.5858 0.3544
C6 C 0.4575(3) -0.3466(6) 0.34275(12)
H6 H 0.4437 -0.3828 0.3159
C7 C 0.4131(2) -0.1688(6) 0.35970(9)
C8 C 0.3450(2) -0.0370(5) 0.33555(9)
C9 C 0.3015(2) 0.1423(5) 0.35462(9)
C10 C 0.2357(3) 0.2767(5) 0.33238(12)
C11 C 0.1882(3) 0.4642(6) 0.35099(12)
H7 H 0.1507 0.5380 0.3306
H8 H 0.2400 0.5525 0.3619
H9 H 0.1433 0.4226 0.3725
C12 C 0.1534(2) 0.3240(5) 0.26168(9)
C13 C 0.2058(17) 0.522(3) 0.2506(5)
H10 H 0.2436 0.5714 0.2736
H11 H 0.1564 0.6238 0.2429
H12 H 0.2509 0.4977 0.2282
C14 C 0.0463(7) 0.356(4) 0.2768(4)
H13 H 0.0462 0.4570 0.2982
H14 H 0.0203 0.2269 0.2871
H15 H 0.0045 0.4029 0.2547
C15 C 0.1579(15) 0.163(3) 0.2280(5)
H16 H 0.2264 0.1169 0.2246
H17 H 0.1344 0.2234 0.2029
H18 H 0.1157 0.0476 0.2350
O3 O 0.4617(2) 0.1640(5) 0.49422(8)
O4 O 0.42425(18) 0.5822(4) 0.61289(7)
N3 N 0.3610(2) 0.4412(5) 0.49512(8)
H28 H 0.345(3) 0.418(6) 0.4686(5)
N4 N 0.5342(2) 0.2667(4) 0.61796(10)
H29 H 0.496(3) 0.377(4) 0.6249(12)
C19 C 0.4272(3) 0.3116(6) 0.51392(10)
C20 C 0.3182(2) 0.6172(5) 0.51169(9)
C21 C 0.2518(3) 0.7411(5) 0.48852(13)
H30 H 0.2352 0.7057 0.4618
C22 C 0.2125(3) 0.9138(7) 0.50629(13)
H31 H 0.1702 0.9992 0.4911
C23 C 0.2339(3) 0.9657(7) 0.54621(13)
H32 H 0.2046 1.0827 0.5578
C24 C 0.2978(2) 0.8459(6) 0.56859(11)
H33 H 0.3134 0.8840 0.5952
C25 C 0.3402(2) 0.6672(5) 0.55216(9)
C26 C 0.4080(2) 0.5329(5) 0.57612(9)
C27 C 0.4521(2) 0.3558(5) 0.55656(9)
C28 C 0.5203(3) 0.2226(5) 0.57909(12)
C29 C 0.5707(3) 0.0415(6) 0.55974(11)
H34 H 0.6200 -0.0148 0.5781
H35 H 0.6035 0.0848 0.5350
H36 H 0.5210 -0.0623 0.5535
C30 C 0.5982(2) 0.1658(6) 0.64987(10)
C31 C 0.5715(4) -0.0611(7) 0.65557(15)
H37 H 0.4993 -0.0776 0.6546
H38 H 0.5962 -0.1078 0.6815
H39 H 0.6021 -0.1414 0.6342
C32 C 0.5686(4) 0.2797(8) 0.68814(14)
H40 H 0.5829 0.4246 0.6849
H41 H 0.6065 0.2262 0.7108
H42 H 0.4976 0.2610 0.6931
C33 C 0.7089(3) 0.1990(9) 0.64175(16)
H43 H 0.7273 0.1314 0.6168
H44 H 0.7478 0.1421 0.6638
H45 H 0.7224 0.3447 0.6395
C16? C 0.1658(14) 0.5613(13) 0.2557(5)
H19? H 0.1170 0.6329 0.2722
H20? H 0.1552 0.5956 0.2276
H21? H 0.2328 0.6020 0.2637
C17? C 0.0389(6) 0.281(3) 0.2677(4)
H22? H 0.0175 0.3359 0.2935
H23? H 0.0272 0.1340 0.2672
H24? H 0.0013 0.3455 0.2462
C18? C 0.1848(13) 0.220(3) 0.2207(4)
H25? H 0.2539 0.2537 0.2146
H26? H 0.1419 0.2693 0.1992
H27? H 0.1779 0.0722 0.2231
loop_
_geom_bond_atom_site_label_1
_geom_bond_atom_site_label_2
_geom_bond_site_symmetry_1
_geom_bond_site_symmetry_2
O1 C1 1_555 1_555
O2 C8 1_555 1_555
N1 H1 1_555 1_555
N2 H2 1_555 1_555
C1 N1 1_555 1_555
C2 N1 1_555 1_555
C3 C2 1_555 1_555
H3 C3 1_555 1_555
C4 C3 1_555 1_555
H4 C4 1_555 1_555
C5 C4 1_555 1_555
H5 C5 1_555 1_555
C6 C5 1_555 1_555
H6 C6 1_555 1_555
C7 C2 1_555 1_555
C8 C7 1_555 1_555
C9 C1 1_555 1_555
C10 N2 1_555 1_555
C11 C10 1_555 1_555
H7 C11 1_555 1_555
H8 C11 1_555 1_555
H9 C11 1_555 1_555
C12 N2 1_555 1_555
C13 C12 1_555 1_555
H10 C13 1_555 1_555
H11 C13 1_555 1_555
H12 C13 1_555 1_555
C14 C12 1_555 1_555
H13 C14 1_555 1_555
H14 C14 1_555 1_555
H15 C14 1_555 1_555
C15 C12 1_555 1_555
H16 C15 1_555 1_555
H17 C15 1_555 1_555
H18 C15 1_555 1_555
O3 C19 1_555 1_555
O4 C26 1_555 1_555
N3 H28 1_555 1_555
N4 H29 1_555 1_555
C19 N3 1_555 1_555
C20 N3 1_555 1_555
C21 C20 1_555 1_555
H30 C21 1_555 1_555
C22 C21 1_555 1_555
H31 C22 1_555 1_555
C23 C22 1_555 1_555
H32 C23 1_555 1_555
C24 C23 1_555 1_555
H33 C24 1_555 1_555
C25 C20 1_555 1_555
C26 C25 1_555 1_555
C27 C19 1_555 1_555
C28 N4 1_555 1_555
C29 C28 1_555 1_555
H34 C29 1_555 1_555
H35 C29 1_555 1_555
H36 C29 1_555 1_555
C30 N4 1_555 1_555
C31 C30 1_555 1_555
H37 C31 1_555 1_555
H38 C31 1_555 1_555
H39 C31 1_555 1_555
C32 C30 1_555 1_555
H40 C32 1_555 1_555
H41 C32 1_555 1_555
H42 C32 1_555 1_555
C33 C30 1_555 1_555
H43 C33 1_555 1_555
H44 C33 1_555 1_555
H45 C33 1_555 1_555
C6 C7 1_555 1_555
C8 C9 1_555 1_555
C9 C10 1_555 1_555
C24 C25 1_555 1_555
C26 C27 1_555 1_555
C27 C28 1_555 1_555

#END
