
#######################################################################
#
#                 Cambridge Crystallographic Data Centre
#                                CCDC 
#
#######################################################################
#
# If this CIF has been generated from an entry in the Cambridge 
# Structural Database, then it will include bibliographic, chemical, 
# crystal, experimental, refinement or atomic coordinate data resulting 
# from the CCDC's data processing and validation procedures.
#
#######################################################################

data_WORJUK
_chemical_formula_moiety         'C15 H16 O6'
_chemical_name_systematic        
'5-(2,4-dimethoxy benzylidene)-2,2-dimethyl-1,3-dioxane-4,6-dione'
_symmetry_cell_setting           monoclinic
_symmetry_space_group_name_H-M   'P 21/n'
_symmetry_Int_Tables_number      14
_space_group_name_Hall           '-P 2yn'
loop_
_symmetry_equiv_pos_site_id
_symmetry_equiv_pos_as_xyz
1 x,y,z
2 1/2-x,1/2+y,1/2-z
3 -x,-y,-z
4 1/2+x,1/2-y,1/2+z
_cell_length_a                   7.4889(9)
_cell_length_b                   11.3781(13)
_cell_length_c                   16.335(2)
_cell_angle_alpha                90
_cell_angle_beta                 101.187(3)
_cell_angle_gamma                90
_cell_volume                     1365.45
_exptl_crystal_colour            'light yellow'
_exptl_crystal_description       block
_chemical_melting_point          '413 K'
_cell_formula_units_Z            4
loop_
_atom_site_label
_atom_site_type_symbol
_atom_site_fract_x
_atom_site_fract_y
_atom_site_fract_z
O1 O 0.71540(9) 0.89634(7) 0.09501(4)
O2 O 0.55947(9) 0.76687(6) 0.16912(5)
O3 O 1.62730(9) 1.09982(7) 0.39957(5)
O4 O 1.01058(10) 0.92486(7) 0.13471(5)
O5 O 1.29328(10) 0.73407(6) 0.38972(5)
O6 O 0.69304(10) 0.68308(7) 0.28696(5)
C1 C 1.15832(13) 0.90209(9) 0.32267(6)
C2 C 1.32224(14) 1.08717(9) 0.33256(6)
H1 H 1.3265(17) 1.1702(12) 0.3195(8)
C3 C 0.87181(13) 0.89188(9) 0.15348(6)
C4 C 1.47660(13) 1.03079(9) 0.37775(6)
C5 C 1.47336(13) 0.91202(9) 0.39787(6)
H2 H 1.5772(18) 0.8732(12) 0.4295(8)
C6 C 1.31280(13) 0.84872(9) 0.37175(6)
C7 C 0.70082(13) 0.75619(9) 0.23446(6)
C8 C 0.99385(13) 0.83218(9) 0.30160(6)
H3 H 0.9756(17) 0.7742(12) 0.3436(8)
C9 C 1.16722(13) 1.02216(9) 0.30410(6)
H4 H 1.0629(18) 1.0600(12) 0.2717(8)
C10 C 0.85852(13) 0.83459(9) 0.23348(6)
C11 C 1.79134(14) 1.04405(10) 0.44094(7)
H5 H 1.882(2) 1.1052(13) 0.4477(9)
H6 H 1.8289(19) 0.9809(13) 0.4059(9)
H7 H 1.7797(18) 1.0118(12) 0.4966(9)
C12 C 1.44141(14) 0.67735(9) 0.44437(7)
H8 H 1.4001(18) 0.6003(13) 0.4538(8)
H9 H 1.4715(17) 0.7195(12) 0.4974(9)
H10 H 1.5449(19) 0.6707(12) 0.4168(8)
C13 C 0.40846(15) 0.84657(10) 0.04146(7)
H11 H 0.3857(19) 0.9173(13) 0.0068(9)
H12 H 0.296(2) 0.8230(14) 0.0565(9)
H13 H 0.455(2) 0.7854(14) 0.0109(9)
C14 C 0.48927(14) 0.97465(10) 0.16871(7)
H14 H 0.477(2) 1.0446(14) 0.1335(9)
H15 H 0.5788(19) 0.9901(13) 0.2186(9)
H16 H 0.373(2) 0.9565(14) 0.1845(9)
C15 C 0.54495(13) 0.87308(9) 0.12005(6)
loop_
_geom_bond_atom_site_label_1
_geom_bond_atom_site_label_2
_geom_bond_site_symmetry_1
_geom_bond_site_symmetry_2
O1 C3 1_555 1_555
O2 C7 1_555 1_555
O3 C4 1_555 1_555
O4 C3 1_555 1_555
O5 C6 1_555 1_555
O6 C7 1_555 1_555
C1 C6 1_555 1_555
C2 H1 1_555 1_555
C3 C10 1_555 1_555
C4 C2 1_555 1_555
C5 C4 1_555 1_555
H2 C5 1_555 1_555
C6 C5 1_555 1_555
C7 C10 1_555 1_555
C8 C1 1_555 1_555
H3 C8 1_555 1_555
C9 C1 1_555 1_555
H4 C9 1_555 1_555
C10 C8 1_555 1_555
C11 O3 1_555 1_555
H5 C11 1_555 1_555
H6 C11 1_555 1_555
H7 C11 1_555 1_555
C12 O5 1_555 1_555
H8 C12 1_555 1_555
H9 C12 1_555 1_555
H10 C12 1_555 1_555
C13 H11 1_555 1_555
H12 C13 1_555 1_555
H13 C13 1_555 1_555
C14 H14 1_555 1_555
H15 C14 1_555 1_555
H16 C14 1_555 1_555
C15 O1 1_555 1_555
O2 C15 1_555 1_555
C2 C9 1_555 1_555
C13 C15 1_555 1_555
C14 C15 1_555 1_555

#END
