
#######################################################################
#
#                 Cambridge Crystallographic Data Centre
#                                CCDC 
#
#######################################################################
#
# If this CIF has been generated from an entry in the Cambridge 
# Structural Database, then it will include bibliographic, chemical, 
# crystal, experimental, refinement or atomic coordinate data resulting 
# from the CCDC's data processing and validation procedures.
#
#######################################################################

data_WORJEU
_chemical_formula_moiety         'C13 H11 Cl1 O4'
_chemical_name_systematic        
5-(4-chlorobenzylidene)-2,2-dimethyl-1,3-dioxane-4,6-dione
_symmetry_cell_setting           orthorhombic
_symmetry_space_group_name_H-M   'P b c a'
_symmetry_Int_Tables_number      61
_space_group_name_Hall           '-P 2ac 2ab'
loop_
_symmetry_equiv_pos_site_id
_symmetry_equiv_pos_as_xyz
1 x,y,z
2 1/2-x,-y,1/2+z
3 -x,1/2+y,1/2-z
4 1/2+x,1/2-y,-z
5 -x,-y,-z
6 1/2+x,y,1/2-z
7 x,1/2-y,1/2+z
8 1/2-x,1/2+y,z
_cell_length_a                   15.8720(10)
_cell_length_b                   5.9767(3)
_cell_length_c                   25.2667(14)
_cell_angle_alpha                90
_cell_angle_beta                 90
_cell_angle_gamma                90
_cell_volume                     2396.85
_exptl_crystal_colour            colorless
_exptl_crystal_description       block
_chemical_melting_point          '429 K'
_cell_formula_units_Z            8
loop_
_atom_site_label
_atom_site_type_symbol
_atom_site_fract_x
_atom_site_fract_y
_atom_site_fract_z
Cl1 Cl 0.82567(3) 0.16644(8) 0.630106(17)
O1 O 0.79991(7) 0.67100(19) 0.31905(4)
O2 O 0.91491(7) 0.9141(2) 0.30797(4)
O3 O 0.75133(7) 0.58364(19) 0.39791(4)
O4 O 0.97397(8) 1.0769(2) 0.37683(5)
C1 C 0.80836(9) 0.6596(3) 0.37242(6)
C2 C 0.85122(10) 0.3281(3) 0.57514(6)
C3 C 0.89166(9) 0.5856(3) 0.48738(6)
C4 C 0.91632(10) 0.7329(3) 0.44383(6)
H1 H 0.9621(11) 0.832(3) 0.4530(7)
C5 C 0.83333(10) 0.2474(3) 0.52482(7)
H2 H 0.8075(12) 0.109(3) 0.5196(7)
C6 C 0.85358(10) 0.3765(3) 0.48114(7)
H3 H 0.8410(11) 0.319(3) 0.4464(7)
C7 C 0.84266(13) 0.7798(4) 0.23352(7)
H4 H 0.8916(14) 0.809(4) 0.2102(9)
H5 H 0.8078(13) 0.914(4) 0.2353(8)
H6 H 0.8091(13) 0.658(4) 0.2187(8)
C8 C 0.92961(10) 0.9290(3) 0.36073(6)
C9 C 0.89006(11) 0.5323(3) 0.58256(7)
H7 H 0.9023(12) 0.585(3) 0.6180(8)
C10 C 0.88639(9) 0.7594(3) 0.39437(6)
C11 C 0.93236(13) 0.5188(3) 0.28815(8)
H8 H 0.9794(13) 0.550(3) 0.2642(8)
H9 H 0.9018(14) 0.395(4) 0.2738(9)
H10 H 0.9512(13) 0.478(3) 0.3240(9)
C12 C 0.91131(10) 0.6587(3) 0.53859(7)
H11 H 0.9413(11) 0.804(3) 0.5436(7)
C13 C 0.87359(10) 0.7173(3) 0.28796(6)
loop_
_geom_bond_atom_site_label_1
_geom_bond_atom_site_label_2
_geom_bond_site_symmetry_1
_geom_bond_site_symmetry_2
Cl1 C2 1_555 1_555
O1 C1 1_555 1_555
O2 C8 1_555 1_555
O3 C1 1_555 1_555
O4 C8 1_555 1_555
C1 C10 1_555 1_555
C2 C5 1_555 1_555
C3 C4 1_555 1_555
C4 H1 1_555 1_555
C5 H2 1_555 1_555
C6 C3 1_555 1_555
H3 C6 1_555 1_555
C7 H4 1_555 1_555
H5 C7 1_555 1_555
H6 C7 1_555 1_555
C8 C10 1_555 1_555
C9 C2 1_555 1_555
H7 C9 1_555 1_555
C10 C4 1_555 1_555
C11 H8 1_555 1_555
H9 C11 1_555 1_555
H10 C11 1_555 1_555
C12 C3 1_555 1_555
H11 C12 1_555 1_555
C13 O1 1_555 1_555
O2 C13 1_555 1_555
C5 C6 1_555 1_555
C7 C13 1_555 1_555
C9 C12 1_555 1_555
C11 C13 1_555 1_555

#END
