
#######################################################################
#
#                 Cambridge Crystallographic Data Centre
#                                CCDC 
#
#######################################################################
#
# If this CIF has been generated from an entry in the Cambridge 
# Structural Database, then it will include bibliographic, chemical, 
# crystal, experimental, refinement or atomic coordinate data resulting 
# from the CCDC's data processing and validation procedures.
#
#######################################################################

data_WORPOK
_chemical_formula_moiety         'C8 H1 Cl4 O4 1-,C2 H5 N4 1+'
_chemical_name_systematic        
'2,4-dihydro-3H-1,2,4-triazol-3-iminium 2-carboxy-3,4,5,6-tetrachlorobenzoate'
_symmetry_cell_setting           orthorhombic
_symmetry_space_group_name_H-M   'P b c a'
_symmetry_Int_Tables_number      61
_space_group_name_Hall           '-P 2ac 2ab'
loop_
_symmetry_equiv_pos_site_id
_symmetry_equiv_pos_as_xyz
1 x,y,z
2 1/2-x,-y,1/2+z
3 -x,1/2+y,1/2-z
4 1/2+x,1/2-y,-z
5 -x,-y,-z
6 1/2+x,y,1/2-z
7 x,1/2-y,1/2+z
8 1/2-x,1/2+y,z
_cell_length_a                   9.4206(3)
_cell_length_b                   12.0251(3)
_cell_length_c                   24.0488(9)
_cell_angle_alpha                90
_cell_angle_beta                 90
_cell_angle_gamma                90
_cell_volume                     2724.34
_exptl_crystal_colour            'light colorless'
_exptl_crystal_description       block
_cell_formula_units_Z            8
loop_
_atom_site_label
_atom_site_type_symbol
_atom_site_fract_x
_atom_site_fract_y
_atom_site_fract_z
Cl1 Cl 0.09841(6) 0.09932(4) 0.33185(2)
Cl2 Cl -0.16960(6) -0.12574(4) 0.17012(2)
Cl3 Cl -0.33902(5) -0.25775(4) 0.25874(2)
Cl4 Cl 0.05026(6) 0.05212(4) 0.20661(2)
O1 O 0.00045(15) -0.11661(11) 0.43952(6)
O2 O -0.10407(15) 0.04779(10) 0.43441(6)
C1 C -0.1405(2) -0.10227(15) 0.23951(8)
C2 C -0.09244(19) -0.06315(14) 0.35236(8)
C3 C -0.0432(2) -0.02176(14) 0.25586(8)
C4 C -0.02094(19) -0.00155(14) 0.31191(8)
C5 C -0.06354(19) -0.04226(15) 0.41339(8)
O3 O -0.23681(16) -0.31893(10) 0.37757(6)
H1 H -0.2948 -0.3535 0.3962
C6 C -0.26514(19) -0.21190(15) 0.38028(8)
C7 C -0.21165(19) -0.16391(14) 0.27976(8)
O4 O -0.34143(15) -0.16828(12) 0.41380(6)
C8 C -0.18665(19) -0.14633(14) 0.33613(8)
N1 N 0.27850(18) -0.43803(13) 0.46691(7)
H2 H 0.3564 -0.4669 0.4787
N2 N 0.1579(2) -0.49803(15) 0.45566(8)
N3 N 0.1260(2) -0.31959(15) 0.43973(8)
H3 H 0.0843 -0.2588 0.4303
C9 C 0.2608(2) -0.33049(16) 0.45747(9)
C10 C 0.0685(2) -0.42352(19) 0.43956(10)
H4 H -0.0245 -0.4389 0.4290
N4 N 0.3566(2) -0.25153(16) 0.46328(10)
H5 H 0.4409 -0.2679 0.4743
H6 H 0.3348 -0.1836 0.4561
loop_
_geom_bond_atom_site_label_1
_geom_bond_atom_site_label_2
_geom_bond_site_symmetry_1
_geom_bond_site_symmetry_2
Cl1 C4 1_555 1_555
Cl2 C1 1_555 1_555
Cl3 C7 1_555 1_555
Cl4 C3 1_555 1_555
O1 C5 1_555 1_555
O2 C5 1_555 1_555
C1 C3 1_555 1_555
C2 C4 1_555 1_555
C3 C4 1_555 1_555
C5 C2 1_555 1_555
O3 H1 1_555 1_555
C6 O3 1_555 1_555
C7 C1 1_555 1_555
O4 C6 1_555 1_555
C8 C2 1_555 1_555
N1 H2 1_555 1_555
N2 N1 1_555 1_555
N3 H3 1_555 1_555
C9 N1 1_555 1_555
C10 N2 1_555 1_555
H4 C10 1_555 1_555
N4 C9 1_555 1_555
H5 N4 1_555 1_555
H6 N4 1_555 1_555
C6 C8 1_555 1_555
C7 C8 1_555 1_555
N3 C9 1_555 1_555
N3 C10 1_555 1_555

#END
