
#######################################################################
#
#                 Cambridge Crystallographic Data Centre
#                                CCDC 
#
#######################################################################
#
# If this CIF has been generated from an entry in the Cambridge 
# Structural Database, then it will include bibliographic, chemical, 
# crystal, experimental, refinement or atomic coordinate data resulting 
# from the CCDC's data processing and validation procedures.
#
#######################################################################

data_WORQAX
_chemical_formula_moiety         'C8 H1 Cl4 O4 1-,C4 H6 N3 1+'
_chemical_name_systematic        
'2-aminopyrimidin-1-ium 2-carboxy-3,4,5,6-tetrachlorobenzoate'
_symmetry_cell_setting           monoclinic
_symmetry_space_group_name_H-M   'P 21/c'
_symmetry_Int_Tables_number      14
_space_group_name_Hall           '-P 2ybc'
loop_
_symmetry_equiv_pos_site_id
_symmetry_equiv_pos_as_xyz
1 x,y,z
2 -x,1/2+y,1/2-z
3 -x,-y,-z
4 x,1/2-y,1/2+z
_cell_length_a                   12.614(3)
_cell_length_b                   11.255(2)
_cell_length_c                   10.900(2)
_cell_angle_alpha                90
_cell_angle_beta                 106.969(3)
_cell_angle_gamma                90
_cell_volume                     1480.11
_exptl_crystal_colour            'light colorless'
_exptl_crystal_description       block
_cell_formula_units_Z            4
loop_
_atom_site_label
_atom_site_type_symbol
_atom_site_fract_x
_atom_site_fract_y
_atom_site_fract_z
Cl1 Cl 0.00273(6) 0.32276(7) -0.05284(7)
Cl2 Cl 0.17471(6) -0.08568(7) 0.33613(8)
Cl3 Cl -0.16395(5) 0.15207(7) 0.01828(7)
Cl4 Cl -0.07718(6) -0.04875(7) 0.21763(7)
O1 O 0.3007(2) 0.3397(2) 0.1559(2)
O2 O 0.25272(17) 0.2650(2) -0.04148(18)
O3 O 0.37154(16) 0.10376(19) 0.37055(17)
H1 H 0.3276 0.1403 0.3990
O4 O 0.37748(16) 0.04171(18) 0.18151(18)
C1 C -0.0243(2) 0.1339(2) 0.0866(2)
C2 C 0.2026(2) 0.1031(2) 0.1958(2)
C3 C 0.1640(2) 0.1922(2) 0.1061(2)
C4 C 0.3255(2) 0.0802(2) 0.2499(2)
C5 C 0.0139(2) 0.0442(2) 0.1747(2)
C6 C 0.0510(2) 0.2083(2) 0.0533(2)
C7 C 0.2458(2) 0.2733(2) 0.0702(2)
C8 C 0.1276(2) 0.0290(2) 0.2296(2)
N1 N 0.6383(2) -0.0263(2) 0.0966(2)
H2 H 0.6278 -0.0239 0.0151
H3 H 0.6607 -0.0909 0.1383
N2 N 0.63623(19) 0.0616(2) 0.2858(2)
H4 H 0.6616 -0.0030 0.3259
N3 N 0.5850(2) 0.1696(2) 0.0933(2)
C9 C 0.6200(2) 0.0685(2) 0.1574(2)
C10 C 0.6131(2) 0.1548(3) 0.3514(3)
H5 H 0.6235 0.1486 0.4392
C11 C 0.5633(3) 0.2592(3) 0.1602(3)
H6 H 0.5382 0.3296 0.1165
C12 C 0.5751(3) 0.2564(3) 0.2900(3)
H7 H 0.5575 0.3215 0.3328
loop_
_geom_bond_atom_site_label_1
_geom_bond_atom_site_label_2
_geom_bond_site_symmetry_1
_geom_bond_site_symmetry_2
Cl1 C6 1_555 1_555
Cl2 C8 1_555 1_555
Cl3 C1 1_555 1_555
Cl4 C5 1_555 1_555
O1 C7 1_555 1_555
O2 C7 1_555 1_555
O3 H1 1_555 1_555
O4 C4 1_555 1_555
C1 C5 1_555 1_555
C2 C3 1_555 1_555
C3 C6 1_555 1_555
C4 O3 1_555 1_555
C5 C8 1_555 1_555
C6 C1 1_555 1_555
C7 C3 1_555 1_555
C8 C2 1_555 1_555
N1 H2 1_555 1_555
H3 N1 1_555 1_555
N2 H4 1_555 1_555
N3 C9 1_555 1_555
C9 N1 1_555 1_555
C10 N2 1_555 1_555
H5 C10 1_555 1_555
C11 N3 1_555 1_555
H6 C11 1_555 1_555
C12 C10 1_555 1_555
H7 C12 1_555 1_555
C2 C4 1_555 1_555
N2 C9 1_555 1_555
C11 C12 1_555 1_555

#END
