
#######################################################################
#
#                 Cambridge Crystallographic Data Centre
#                                CCDC 
#
#######################################################################
#
# If this CIF has been generated from an entry in the Cambridge 
# Structural Database, then it will include bibliographic, chemical, 
# crystal, experimental, refinement or atomic coordinate data resulting 
# from the CCDC's data processing and validation procedures.
#
#######################################################################

data_WORQEB
_chemical_formula_moiety         '2(C8 H1 Cl4 O4 1-),C2 H10 N2 2+'
_chemical_name_systematic        
'ethane-1,2-diaminium bis(2-carboxy-3,4,5,6-tetrachlorobenzoate)'
_symmetry_cell_setting           monoclinic
_symmetry_space_group_name_H-M   'C 2/c'
_symmetry_Int_Tables_number      15
_space_group_name_Hall           '-C 2yn'
loop_
_symmetry_equiv_pos_site_id
_symmetry_equiv_pos_as_xyz
1 x,y,z
2 -x,y,1/2-z
3 1/2+x,1/2+y,z
4 1/2-x,1/2+y,1/2-z
5 -x,-y,-z
6 x,-y,1/2+z
7 1/2-x,1/2-y,-z
8 1/2+x,1/2-y,1/2+z
_cell_length_a                   36.8502(17)
_cell_length_b                   5.5385(2)
_cell_length_c                   12.5520(6)
_cell_angle_alpha                90
_cell_angle_beta                 105.115(6)
_cell_angle_gamma                90
_cell_volume                     2473.17
_exptl_crystal_colour            'light colorless'
_exptl_crystal_description       block
_cell_formula_units_Z            4
loop_
_atom_site_label
_atom_site_type_symbol
_atom_site_fract_x
_atom_site_fract_y
_atom_site_fract_z
Cl1 Cl 0.13649(2) 0.40752(9) 0.41016(4)
Cl2 Cl 0.05199(2) 0.44130(12) 0.29979(5)
Cl3 Cl 0.07677(2) 1.15893(14) 0.03817(5)
Cl4 Cl 0.02157(2) 0.81576(18) 0.11391(7)
O1 O 0.19828(4) 0.7749(2) 0.43369(10)
O2 O 0.20971(4) 0.7791(2) 0.27013(10)
O3 O 0.17468(4) 1.2622(3) 0.18882(12)
C1 C 0.15818(5) 1.0882(3) 0.14309(14)
C2 C 0.14585(5) 0.7734(3) 0.27536(14)
C3 C 0.18754(5) 0.7721(3) 0.32965(14)
O4 O 0.15971(4) 1.0058(3) 0.04653(11)
H1 H 0.1725 1.0967 0.0198
C4 C 0.13200(5) 0.9335(3) 0.18881(14)
C5 C 0.09364(6) 0.9476(4) 0.14096(16)
C6 C 0.08254(6) 0.6328(4) 0.25890(17)
C7 C 0.12081(5) 0.6224(3) 0.30947(14)
C8 C 0.06873(6) 0.7991(4) 0.17558(18)
N1 N 0.26922(4) 1.0631(3) 0.40104(12)
H2 H 0.2821 1.1181 0.3551
H3 H 0.2521 0.9568 0.3660
H4 H 0.2849 0.9920 0.4585
C9 C 0.25007(6) 1.2680(3) 0.44041(14)
H5 H 0.2244 1.2804 0.3952
H6 H 0.2629 1.4175 0.4331
N1F N 0.23078(4) 1.4369(3) 0.59896(12)
H2F H 0.2179 1.3819 0.6449
H3F H 0.2479 1.5432 0.6340
H4F H 0.2151 1.5080 0.5415
C9F C 0.24993(6) 1.2320(3) 0.55959(14)
H5F H 0.2756 1.2196 0.6048
H6F H 0.2371 1.0825 0.5669
loop_
_geom_bond_atom_site_label_1
_geom_bond_atom_site_label_2
_geom_bond_site_symmetry_1
_geom_bond_site_symmetry_2
Cl1 C7 1_555 1_555
Cl2 C6 1_555 1_555
Cl3 C5 1_555 1_555
Cl4 C8 1_555 1_555
O1 C3 1_555 1_555
O2 C3 1_555 1_555
O3 C1 1_555 1_555
C1 O4 1_555 1_555
C2 C3 1_555 1_555
O4 H1 1_555 1_555
C4 C1 1_555 1_555
C5 C4 1_555 1_555
C6 C7 1_555 1_555
C7 C2 1_555 1_555
C8 C5 1_555 1_555
N1 H2 1_555 1_555
H3 N1 1_555 1_555
H4 N1 1_555 1_555
C9 N1 1_555 1_555
H5 C9 1_555 1_555
H6 C9 1_555 1_555
N1F H2F 1_555 1_555
H3F N1F 1_555 1_555
H4F N1F 1_555 1_555
C9F C9 1_555 1_555
H5F C9F 1_555 1_555
H6F C9F 1_555 1_555
C2 C4 1_555 1_555
C6 C8 1_555 1_555
N1F C9F 1_555 1_555

#END
