
#######################################################################
#
#                 Cambridge Crystallographic Data Centre
#                                CCDC 
#
#######################################################################
#
# If this CIF has been generated from an entry in the Cambridge 
# Structural Database, then it will include bibliographic, chemical, 
# crystal, experimental, refinement or atomic coordinate data resulting 
# from the CCDC's data processing and validation procedures.
#
#######################################################################

data_WORQOL
_chemical_formula_moiety         'C16 H20 N4 2+,C8 Cl4 O4 2-,2(H2 O1)'
_chemical_name_systematic        
"1,1'-(1,2-phenylenebis(methylene))bis(2-methyl-1H-imidazol-3-ium) 3,4,5,6-tetrachlorophthalate dihydrate"
_symmetry_cell_setting           monoclinic
_symmetry_space_group_name_H-M   'C 2/c'
_symmetry_Int_Tables_number      15
_space_group_name_Hall           '-C 2yn'
loop_
_symmetry_equiv_pos_site_id
_symmetry_equiv_pos_as_xyz
1 x,y,z
2 -x,y,1/2-z
3 1/2+x,1/2+y,z
4 1/2-x,1/2+y,1/2-z
5 -x,-y,-z
6 x,-y,1/2+z
7 1/2-x,1/2-y,-z
8 1/2+x,1/2-y,1/2+z
_cell_length_a                   12.6127(5)
_cell_length_b                   23.7989(9)
_cell_length_c                   9.5324(4)
_cell_angle_alpha                90
_cell_angle_beta                 98.590(4)
_cell_angle_gamma                90
_cell_volume                     2829.23
_exptl_crystal_colour            'light colorless'
_exptl_crystal_description       octahedral
_cell_formula_units_Z            4
loop_
_atom_site_label
_atom_site_type_symbol
_atom_site_fract_x
_atom_site_fract_y
_atom_site_fract_z
Cl1 Cl 0.29478(9) 0.43525(6) 0.02419(14)
Cl2 Cl 0.40065(14) 0.54894(5) 0.1304(3)
O1 O 0.33891(16) 0.30883(9) 0.2134(2)
O2 O 0.43140(19) 0.31157(11) 0.0351(2)
C1 C 0.4045(2) 0.33067(13) 0.1444(3)
C2 C 0.4544(2) 0.38579(12) 0.1992(3)
C3 C 0.4089(3) 0.43628(15) 0.1489(4)
C4 C 0.4549(3) 0.48658(15) 0.1987(6)
Cl1A Cl 0.70522(9) 0.43525(6) 0.47581(14)
Cl2A Cl 0.59935(14) 0.54894(5) 0.3696(3)
O1A O 0.66109(16) 0.30883(9) 0.2866(2)
O2A O 0.56860(19) 0.31157(11) 0.4649(2)
C1A C 0.5955(2) 0.33067(13) 0.3556(3)
C2A C 0.5456(2) 0.38579(12) 0.3008(3)
C3A C 0.5911(3) 0.43628(15) 0.3511(4)
C4A C 0.5451(3) 0.48658(15) 0.3013(6)
N1 N 0.19485(16) 0.32800(9) 0.6327(2)
N2 N 0.30073(18) 0.32576(10) 0.4768(3)
C5 C 0.0489(2) 0.38259(11) 0.7232(3)
C6 C 0.1995(2) 0.33239(12) 0.4946(3)
C7 C 0.0967(2) 0.32639(12) 0.6978(3)
H1 H 0.1123 0.3069 0.7879
H2 H 0.0435 0.3045 0.6372
C8 C 0.2965(2) 0.31821(13) 0.7029(3)
H3 H 0.3160 0.3135 0.8002
C9 C 0.3620(2) 0.31681(13) 0.6052(3)
H4 H 0.4357 0.3109 0.6216
C10 C 0.0957(3) 0.43316(13) 0.6980(4)
H5 H 0.1605 0.4334 0.6625
C11 C 0.1088(3) 0.34368(18) 0.3820(3)
H6 H 0.0492 0.3203 0.3957
H7 H 0.1296 0.3357 0.2912
H8 H 0.0883 0.3824 0.3855
C12 C 0.0482(3) 0.48334(16) 0.7245(5)
H9 H 0.0811 0.5171 0.7079
H10 H 0.319(3) 0.3241(14) 0.386(4)
N1A N -0.19485(16) 0.32800(9) 0.8673(2)
N2A N -0.30073(18) 0.32576(10) 1.0232(3)
C5A C -0.0489(2) 0.38259(11) 0.7768(3)
C6A C -0.1995(2) 0.33239(12) 1.0054(3)
C7A C -0.0967(2) 0.32639(12) 0.8022(3)
H1A H -0.1123 0.3069 0.7121
H2A H -0.0435 0.3045 0.8628
C8A C -0.2965(2) 0.31821(13) 0.7971(3)
H3A H -0.3160 0.3135 0.6998
C9A C -0.3620(2) 0.31681(13) 0.8948(3)
H4A H -0.4357 0.3109 0.8784
C10A C -0.0957(3) 0.43316(13) 0.8020(4)
H5A H -0.1605 0.4334 0.8375
C11A C -0.1088(3) 0.34368(18) 1.1180(3)
H6A H -0.0492 0.3203 1.1043
H7A H -0.1296 0.3357 1.2088
H8A H -0.0883 0.3824 1.1145
C12A C -0.0482(3) 0.48334(16) 0.7755(5)
H9A H -0.0811 0.5171 0.7921
H10A H -0.319(3) 0.3241(14) 1.114(4)
O3 O 0.1324(2) 0.29601(12) 1.0432(3)
H11 H 0.1963 0.2965 1.0869
H12 H 0.1150 0.2625 1.0186
loop_
_geom_bond_atom_site_label_1
_geom_bond_atom_site_label_2
_geom_bond_site_symmetry_1
_geom_bond_site_symmetry_2
Cl1 C3 1_555 1_555
Cl2 C4 1_555 1_555
O1 C1 1_555 1_555
O2 C1 1_555 1_555
C1 C2 1_555 1_555
C2 C3 1_555 1_555
C3 C4 1_555 1_555
C4 C4A 1_555 1_555
N1 C6 1_555 1_555
N2 C6 1_555 1_555
C5 C7 1_555 1_555
C6 C11 1_555 1_555
C7 N1 1_555 1_555
H1 C7 1_555 1_555
H2 C7 1_555 1_555
C8 N1 1_555 1_555
H3 C8 1_555 1_555
C9 N2 1_555 1_555
H4 C9 1_555 1_555
C10 C5 1_555 1_555
H5 C10 1_555 1_555
C11 H6 1_555 1_555
H7 C11 1_555 1_555
H8 C11 1_555 1_555
C12 C10 1_555 1_555
H9 C12 1_555 1_555
H10 N2 1_555 1_555
O3 H11 1_555 1_555
H12 O3 1_555 1_555
Cl1A C3A 1_555 1_555
Cl2A C4A 1_555 1_555
O1A C1A 1_555 1_555
O2A C1A 1_555 1_555
C1A C2A 1_555 1_555
C2A C2 1_555 1_555
C3A C2A 1_555 1_555
C4A C3A 1_555 1_555
N1A C6A 1_555 1_555
N2A C6A 1_555 1_555
C5A C5 1_555 1_555
C6A C11A 1_555 1_555
C7A N1A 1_555 1_555
H1A C7A 1_555 1_555
H2A C7A 1_555 1_555
C8A N1A 1_555 1_555
H3A C8A 1_555 1_555
C9A N2A 1_555 1_555
H4A C9A 1_555 1_555
C10A C5A 1_555 1_555
H5A C10A 1_555 1_555
C11A H6A 1_555 1_555
H7A C11A 1_555 1_555
H8A C11A 1_555 1_555
C12A C12 1_555 1_555
H9A C12A 1_555 1_555
H10A N2A 1_555 1_555
C8 C9 1_555 1_555
C5A C7A 1_555 1_555
C8A C9A 1_555 1_555
C10A C12A 1_555 1_555

#END
