
#######################################################################
#
#                 Cambridge Crystallographic Data Centre
#                                CCDC 
#
#######################################################################
#
# If this CIF has been generated from an entry in the Cambridge 
# Structural Database, then it will include bibliographic, chemical, 
# crystal, experimental, refinement or atomic coordinate data resulting 
# from the CCDC's data processing and validation procedures.
#
#######################################################################

data_WORTIG
_chemical_formula_moiety         'C23 H22 O4'
_chemical_name_systematic        
'6-Oxaheptacyclo(9.6.2.2^3,9^.1^13,16^.0^2,10^.0^4,8^.0^12,17^)docosane-14,18,20-triene-12,17-dicarboxylic acid anhydride'
_symmetry_cell_setting           monoclinic
_symmetry_space_group_name_H-M   'P 21/n'
_symmetry_Int_Tables_number      14
_space_group_name_Hall           '-P 2yn'
loop_
_symmetry_equiv_pos_site_id
_symmetry_equiv_pos_as_xyz
1 x,y,z
2 1/2-x,1/2+y,1/2-z
3 -x,-y,-z
4 1/2+x,1/2-y,1/2+z
_cell_length_a                   12.519(2)
_cell_length_b                   9.889(2)
_cell_length_c                   14.832(2)
_cell_angle_alpha                90
_cell_angle_beta                 114.11(2)
_cell_angle_gamma                90
_cell_volume                     1676.02
_exptl_crystal_colour            colorless
_exptl_crystal_description       columnar
_chemical_melting_point          230deg.C(dec.)
_cell_formula_units_Z            4
loop_
_atom_site_label
_atom_site_type_symbol
_atom_site_fract_x
_atom_site_fract_y
_atom_site_fract_z
O1 O 0.7819(2) 0.8260(2) 0.2491(2)
O2 O 0.7692(2) 0.1243(2) 0.1083(2)
O3 O 0.9604(2) 0.1259(3) 0.1425(2)
O4 O 0.5733(3) 0.1420(3) 0.0350(2)
C1 C 0.7045(3) 0.6352(3) 0.1462(2)
C2 C 0.6789(3) 0.7801(3) 0.1688(2)
C3 C 0.8780(3) 0.7699(3) 0.2352(3)
C4 C 0.8400(3) 0.6286(3) 0.1901(2)
C5 C 0.8809(2) 0.5887(3) 0.1092(2)
C6 C 0.8265(3) 0.6880(3) 0.0251(2)
C7 C 0.7114(3) 0.6916(3) -0.0126(2)
C8 C 0.6558(2) 0.5973(3) 0.0356(2)
C9 C 0.6964(2) 0.4479(2) 0.0334(2)
C10 C 0.8322(2) 0.4436(3) 0.0758(2)
C11 C 0.8710(2) 0.3740(3) -0.0003(2)
C12 C 0.8098(3) 0.4441(3) -0.0985(2)
C13 C 0.6949(3) 0.4445(3) -0.1339(2)
C14 C 0.6446(2) 0.3758(3) -0.0693(2)
C15 C 0.6899(3) 0.2273(3) -0.0511(2)
C16 C 0.6644(3) 0.1630(3) 0.0307(3)
C17 C 0.8636(3) 0.1558(3) 0.0868(2)
C18 C 0.8245(3) 0.2254(3) -0.0123(2)
C19 C 0.8485(3) 0.1240(3) -0.0846(3)
C20 C 0.7985(4) 0.1814(3) -0.1877(3)
C21 C 0.6837(4) 0.1802(3) -0.2196(2)
C22 C 0.6518(3) 0.1222(3) -0.1400(2)
C23 C 0.7526(3) 0.0187(3) -0.0966(3)
H1 H 0.6748 0.5722 0.1791
H2 H 0.6637 0.8343 0.1151
H3 H 0.6143 0.7838 0.1960
H4 H 0.9052 0.8184 0.1952
H5 H 0.9478 0.7754 0.3018
H6 H 0.8697 0.5613 0.2446
H7 H 0.9723 0.5877 0.1390
H8 H 0.8755 0.7484 0.0035
H9 H 0.6611 0.7489 -0.0695
H10 H 0.5617 0.6048 -0.0003
H11 H 0.6695 0.3951 0.0817
H12 H 0.8632 0.3860 0.1394
H13 H 0.9719 0.3729 0.0300
H14 H 0.8559 0.4843 -0.1353
H15 H 0.6442 0.4856 -0.1988
H16 H 0.5560 0.3844 -0.1001
H17 H 0.9341 0.0891 -0.0566
H18 H 0.8463 0.2251 -0.2213
H19 H 0.6305 0.2186 -0.2800
H20 H 0.5743 0.0829 -0.1555
H21 H 0.7542 -0.0220 -0.0353
H22 H 0.7538 -0.0509 -0.1462
loop_
_geom_bond_atom_site_label_1
_geom_bond_atom_site_label_2
_geom_bond_site_symmetry_1
_geom_bond_site_symmetry_2
O1 C2 1_555 1_555
O2 C16 1_555 1_555
O3 C17 1_555 1_555
O4 C16 1_555 1_555
C1 C2 1_555 1_555
C2 H2 1_555 1_555
C3 O1 1_555 1_555
C4 C1 1_555 1_555
C5 C4 1_555 1_555
C6 C5 1_555 1_555
C7 C6 1_555 1_555
C8 C1 1_555 1_555
C9 C8 1_555 1_555
C10 C5 1_555 1_555
C11 C10 1_555 1_555
C12 C11 1_555 1_555
C13 C12 1_555 1_555
C14 C9 1_555 1_555
C15 C14 1_555 1_555
C16 C15 1_555 1_555
C17 O2 1_555 1_555
C18 C11 1_555 1_555
C19 C18 1_555 1_555
C20 C19 1_555 1_555
C21 C20 1_555 1_555
C22 C15 1_555 1_555
C23 C19 1_555 1_555
H1 C1 1_555 1_555
H3 C2 1_555 1_555
H4 C3 1_555 1_555
H5 C3 1_555 1_555
H6 C4 1_555 1_555
H7 C5 1_555 1_555
H8 C6 1_555 1_555
H9 C7 1_555 1_555
H10 C8 1_555 1_555
H11 C9 1_555 1_555
H12 C10 1_555 1_555
H13 C11 1_555 1_555
H14 C12 1_555 1_555
H15 C13 1_555 1_555
H16 C14 1_555 1_555
H17 C19 1_555 1_555
H18 C20 1_555 1_555
H19 C21 1_555 1_555
H20 C22 1_555 1_555
H21 C23 1_555 1_555
H22 C23 1_555 1_555
C3 C4 1_555 1_555
C7 C8 1_555 1_555
C9 C10 1_555 1_555
C13 C14 1_555 1_555
C15 C18 1_555 1_555
C17 C18 1_555 1_555
C21 C22 1_555 1_555
C22 C23 1_555 1_555

#END
