
#######################################################################
#
#                 Cambridge Crystallographic Data Centre
#                                CCDC 
#
#######################################################################
#
# If this CIF has been generated from an entry in the Cambridge 
# Structural Database, then it will include bibliographic, chemical, 
# crystal, experimental, refinement or atomic coordinate data resulting 
# from the CCDC's data processing and validation procedures.
#
#######################################################################

data_WORYIN
_chemical_formula_moiety         'C29 H21 N1 O3 S1'
_chemical_name_systematic        
'11-Phenyl-5H-benzo[b]carbazol-6-yl 4-methylbenzenesulfonate'
_symmetry_cell_setting           monoclinic
_symmetry_space_group_name_H-M   'P n'
_symmetry_Int_Tables_number      7
_space_group_name_Hall           'P -2yac'
loop_
_symmetry_equiv_pos_site_id
_symmetry_equiv_pos_as_xyz
1 x,y,z
2 1/2+x,-y,1/2+z
_cell_length_a                   8.3436(4)
_cell_length_b                   12.2540(5)
_cell_length_c                   11.5365(5)
_cell_angle_alpha                90
_cell_angle_beta                 105.413(2)
_cell_angle_gamma                90
_cell_volume                     1137.1
_exptl_crystal_colour            yellow
_exptl_crystal_description       parallelepiped
_cell_formula_units_Z            2
loop_
_atom_site_label
_atom_site_type_symbol
_atom_site_fract_x
_atom_site_fract_y
_atom_site_fract_z
S1 S 0.23968(10) 0.52009(6) 0.58177(9)
O1 O 0.0621(3) 0.46758(16) 0.5163(2)
O2 O 0.3493(3) 0.43461(19) 0.6357(3)
O3 O 0.2824(3) 0.5891(2) 0.4951(3)
N1 N 0.1384(3) 0.3937(2) 0.2933(3)
H1 H 0.159(5) 0.468(3) 0.313(3)
C1 C 0.0557(3) 0.3569(2) 0.4801(3)
C2 C 0.0074(3) 0.2779(2) 0.5518(3)
C3 C -0.0300(4) 0.3051(3) 0.6612(3)
H2 H -0.0253 0.3775 0.6859
C4 C -0.0722(4) 0.2268(3) 0.7296(3)
H3 H -0.0959 0.2462 0.8012
C5 C -0.0812(4) 0.1169(3) 0.6952(3)
H4 H -0.1103 0.0640 0.7438
C6 C -0.0473(4) 0.0877(3) 0.5906(3)
H5 H -0.0541 0.0146 0.5682
C7 C -0.0018(3) 0.1665(2) 0.5145(2)
C8 C 0.0344(3) 0.1370(2) 0.4047(2)
C9 C 0.0754(3) 0.2183(2) 0.3344(2)
C10 C 0.1212(3) 0.2192(2) 0.2209(3)
C11 C 0.1343(4) 0.1403(3) 0.1382(3)
H6 H 0.1107 0.0678 0.1505
C12 C 0.1828(5) 0.1703(4) 0.0369(3)
H7 H 0.1902 0.1176 -0.0196
C13 C 0.2205(5) 0.2779(4) 0.0190(3)
H8 H 0.2541 0.2960 -0.0492
C14 C 0.2096(5) 0.3581(3) 0.0986(3)
H9 H 0.2355 0.4301 0.0859
C15 C 0.1586(4) 0.3284(3) 0.1992(3)
C16 C 0.0885(3) 0.3290(2) 0.3746(3)
C17 C 0.1843(4) 0.5982(2) 0.6905(3)
C18 C 0.1754(5) 0.5517(3) 0.7983(3)
H10 H 0.2047 0.4789 0.8140
C19 C 0.1240(5) 0.6117(3) 0.8815(4)
H11 H 0.1173 0.5789 0.9528
C20 C 0.0816(4) 0.7207(3) 0.8614(3)
C21 C 0.0929(4) 0.7664(3) 0.7562(3)
H12 H 0.0669 0.8399 0.7419
C22 C 0.1421(4) 0.7066(2) 0.6701(3)
H13 H 0.1467 0.7395 0.5984
C23 C 0.0285(5) 0.7860(4) 0.9534(4)
H14 H 0.1247 0.8081 1.0152
H15 H -0.0426 0.7426 0.9881
H16 H -0.0308 0.8495 0.9162
C24 C 0.0317(3) 0.0203(2) 0.3692(2)
C25 C -0.1011(5) -0.0248(3) 0.2843(3)
H17 H -0.1916 0.0183 0.2464
C26 C -0.0986(5) -0.1352(3) 0.2558(4)
H18 H -0.1862 -0.1653 0.1973
C27 C 0.0327(5) -0.1993(3) 0.3138(4)
H19 H 0.0324 -0.2733 0.2957
C28 C 0.1631(4) -0.1559(2) 0.3974(3)
H20 H 0.2520 -0.2000 0.4361
C29 C 0.1639(4) -0.0463(2) 0.4250(3)
H21 H 0.2542 -0.0168 0.4818
loop_
_geom_bond_atom_site_label_1
_geom_bond_atom_site_label_2
_geom_bond_site_symmetry_1
_geom_bond_site_symmetry_2
S1 O1 1_555 1_555
O1 C1 1_555 1_555
O2 S1 1_555 1_555
O3 S1 1_555 1_555
N1 H1 1_555 1_555
C1 C2 1_555 1_555
C2 C3 1_555 1_555
C3 H2 1_555 1_555
C4 C3 1_555 1_555
H3 C4 1_555 1_555
C5 C4 1_555 1_555
H4 C5 1_555 1_555
C6 C5 1_555 1_555
H5 C6 1_555 1_555
C7 C2 1_555 1_555
C8 C7 1_555 1_555
C9 C8 1_555 1_555
C10 C9 1_555 1_555
C11 C10 1_555 1_555
H6 C11 1_555 1_555
C12 C11 1_555 1_555
H7 C12 1_555 1_555
C13 C12 1_555 1_555
H8 C13 1_555 1_555
C14 C13 1_555 1_555
H9 C14 1_555 1_555
C15 N1 1_555 1_555
C16 N1 1_555 1_555
C17 S1 1_555 1_555
C18 C17 1_555 1_555
H10 C18 1_555 1_555
C19 C18 1_555 1_555
H11 C19 1_555 1_555
C20 C19 1_555 1_555
C21 C20 1_555 1_555
H12 C21 1_555 1_555
C22 C17 1_555 1_555
H13 C22 1_555 1_555
C23 C20 1_555 1_555
H14 C23 1_555 1_555
H15 C23 1_555 1_555
H16 C23 1_555 1_555
C24 C8 1_555 1_555
C25 C24 1_555 1_555
H17 C25 1_555 1_555
C26 C25 1_555 1_555
H18 C26 1_555 1_555
C27 C26 1_555 1_555
H19 C27 1_555 1_555
C28 C27 1_555 1_555
H20 C28 1_555 1_555
C29 C24 1_555 1_555
H21 C29 1_555 1_555
C1 C16 1_555 1_555
C6 C7 1_555 1_555
C9 C16 1_555 1_555
C10 C15 1_555 1_555
C14 C15 1_555 1_555
C21 C22 1_555 1_555
C28 C29 1_555 1_555

#END
