
#######################################################################
#
#                 Cambridge Crystallographic Data Centre
#                                CCDC 
#
#######################################################################
#
# If this CIF has been generated from an entry in the Cambridge 
# Structural Database, then it will include bibliographic, chemical, 
# crystal, experimental, refinement or atomic coordinate data resulting 
# from the CCDC's data processing and validation procedures.
#
#######################################################################

data_WORYEJ
_chemical_formula_moiety         'C29 H20 F1 N1 O3 S1'
_chemical_name_systematic        
'7-Fluoro-11-phenyl-5H-benzo[b]carbazol-6-yl 4-methylbenzenesulfonate'
_symmetry_cell_setting           monoclinic
_symmetry_space_group_name_H-M   'P 21/c'
_symmetry_Int_Tables_number      14
_space_group_name_Hall           '-P 2ybc'
loop_
_symmetry_equiv_pos_site_id
_symmetry_equiv_pos_as_xyz
1 x,y,z
2 -x,1/2+y,1/2-z
3 -x,-y,-z
4 x,1/2-y,1/2+z
_cell_length_a                   24.5066(10)
_cell_length_b                   5.9618(2)
_cell_length_c                   16.1988(7)
_cell_angle_alpha                90
_cell_angle_beta                 103.925(2)
_cell_angle_gamma                90
_cell_volume                     2297.15
_exptl_crystal_colour            orange
_exptl_crystal_description       parallelepiped
_cell_formula_units_Z            4
loop_
_atom_site_label
_atom_site_type_symbol
_atom_site_fract_x
_atom_site_fract_y
_atom_site_fract_z
S1 S 0.12301(2) 0.66899(10) 0.25419(4)
F1 F 0.17064(6) 0.9080(3) 0.10353(10)
O1 O 0.16111(5) 0.5584(2) 0.19721(9)
O2 O 0.12587(7) 0.5311(3) 0.32675(10)
O3 O 0.13674(7) 0.8988(3) 0.26741(13)
N1 N 0.22585(8) 0.2500(3) 0.32334(12)
H1 H 0.1921(11) 0.204(4) 0.3110(16)
C1 C 0.26850(9) 0.1495(3) 0.38304(13)
C2 C 0.26538(10) -0.0294(4) 0.43646(15)
H2 H 0.2318 -0.1061 0.4327
C3 C 0.31324(11) -0.0889(4) 0.49471(16)
H3 H 0.3122 -0.2090 0.5309
C4 C 0.36363(10) 0.0253(4) 0.50143(15)
H4 H 0.3952 -0.0161 0.5432
C5 C 0.36728(9) 0.1989(4) 0.44694(13)
H5 H 0.4012 0.2733 0.4511
C6 C 0.31946(8) 0.2616(3) 0.38542(13)
C7 C 0.30680(8) 0.4354(3) 0.32060(12)
C8 C 0.24733(8) 0.4264(3) 0.28686(13)
C9 C 0.22027(8) 0.5785(3) 0.22859(13)
C10 C 0.25087(8) 0.7446(3) 0.19714(13)
C11 C 0.22707(9) 0.9100(4) 0.13614(14)
C12 C 0.25719(11) 1.0691(4) 0.10794(15)
H6 H 0.2394 1.1761 0.0689
C13 C 0.31565(10) 1.0708(4) 0.13842(15)
H7 H 0.3369 1.1805 0.1198
C14 C 0.34165(9) 0.9136(3) 0.19504(14)
H8 H 0.3807 0.9149 0.2130
C15 C 0.31118(8) 0.7481(3) 0.22742(12)
C16 C 0.33900(8) 0.5891(3) 0.28911(12)
C17 C 0.40160(8) 0.5788(3) 0.31783(12)
C18 C 0.43240(10) 0.7409(4) 0.37009(17)
H9 H 0.4141 0.8657 0.3851
C19 C 0.48977(11) 0.7202(5) 0.40035(19)
H10 H 0.5096 0.8294 0.4365
C20 C 0.51794(10) 0.5408(5) 0.37786(16)
H11 H 0.5566 0.5261 0.3992
C21 C 0.48865(10) 0.3850(4) 0.32403(18)
H12 H 0.5074 0.2643 0.3071
C22 C 0.43093(9) 0.4041(4) 0.29400(16)
H13 H 0.4116 0.2961 0.2568
C23 C 0.05756(8) 0.6402(3) 0.18322(14)
C24 C 0.02776(9) 0.4424(4) 0.18320(15)
H14 H 0.0430 0.3243 0.2189
C25 C -0.02486(10) 0.4247(4) 0.12915(17)
H15 H -0.0448 0.2915 0.1281
C26 C -0.04891(9) 0.5976(5) 0.07668(15)
C27 C -0.01826(10) 0.7911(5) 0.07811(17)
H16 H -0.0338 0.9101 0.0432
C28 C 0.03511(10) 0.8131(4) 0.13027(17)
H17 H 0.0556 0.9441 0.1294
C29 C -0.10777(11) 0.5789(7) 0.0203(2)
H18 H -0.1198 0.4252 0.0178
H19 H -0.1079 0.6302 -0.0359
H20 H -0.1330 0.6693 0.0433
loop_
_geom_bond_atom_site_label_1
_geom_bond_atom_site_label_2
_geom_bond_site_symmetry_1
_geom_bond_site_symmetry_2
S1 O1 1_555 1_555
F1 C11 1_555 1_555
O1 C9 1_555 1_555
O2 S1 1_555 1_555
O3 S1 1_555 1_555
N1 H1 1_555 1_555
C1 N1 1_555 1_555
C2 C1 1_555 1_555
H2 C2 1_555 1_555
C3 C2 1_555 1_555
H3 C3 1_555 1_555
C4 C3 1_555 1_555
H4 C4 1_555 1_555
C5 C4 1_555 1_555
H5 C5 1_555 1_555
C6 C1 1_555 1_555
C7 C6 1_555 1_555
C8 N1 1_555 1_555
C9 C8 1_555 1_555
C10 C9 1_555 1_555
C11 C10 1_555 1_555
C12 C11 1_555 1_555
H6 C12 1_555 1_555
C13 C12 1_555 1_555
H7 C13 1_555 1_555
C14 C13 1_555 1_555
H8 C14 1_555 1_555
C15 C10 1_555 1_555
C16 C7 1_555 1_555
C17 C16 1_555 1_555
C18 C17 1_555 1_555
H9 C18 1_555 1_555
C19 C18 1_555 1_555
H10 C19 1_555 1_555
C20 C19 1_555 1_555
H11 C20 1_555 1_555
C21 C20 1_555 1_555
H12 C21 1_555 1_555
C22 C17 1_555 1_555
H13 C22 1_555 1_555
C23 S1 1_555 1_555
C24 C23 1_555 1_555
H14 C24 1_555 1_555
C25 C24 1_555 1_555
H15 C25 1_555 1_555
C26 C25 1_555 1_555
C27 C26 1_555 1_555
H16 C27 1_555 1_555
C28 C23 1_555 1_555
H17 C28 1_555 1_555
C29 C26 1_555 1_555
H18 C29 1_555 1_555
H19 C29 1_555 1_555
H20 C29 1_555 1_555
C5 C6 1_555 1_555
C7 C8 1_555 1_555
C14 C15 1_555 1_555
C15 C16 1_555 1_555
C21 C22 1_555 1_555
C27 C28 1_555 1_555

#END
