
#######################################################################
#
#                 Cambridge Crystallographic Data Centre
#                                CCDC 
#
#######################################################################
#
# If this CIF has been generated from an entry in the Cambridge 
# Structural Database, then it will include bibliographic, chemical, 
# crystal, experimental, refinement or atomic coordinate data resulting 
# from the CCDC's data processing and validation procedures.
#
#######################################################################

data_WORYEH
_chemical_formula_moiety         'C9 H15 N1 O3'
_chemical_name_systematic        3-(t-Butoxycarbonylamino)-2-methyleneoxetane
_symmetry_cell_setting           monoclinic
_symmetry_space_group_name_H-M   'P 21'
_symmetry_Int_Tables_number      4
_space_group_name_Hall           'P 2yb'
loop_
_symmetry_equiv_pos_site_id
_symmetry_equiv_pos_as_xyz
1 x,y,z
2 -x,1/2+y,-z
_cell_length_a                   10.7776(5)
_cell_length_b                   9.3265(3)
_cell_length_c                   11.1862(5)
_cell_angle_alpha                90
_cell_angle_beta                 115.069(2)
_cell_angle_gamma                90
_cell_volume                     1018.49
_exptl_crystal_colour            colorless
_exptl_crystal_description       block
_cell_formula_units_Z            4
loop_
_atom_site_label
_atom_site_type_symbol
_atom_site_fract_x
_atom_site_fract_y
_atom_site_fract_z
O1 O 0.1917(4) 0.1296(6) 1.0512(5)
O3 O 0.6008(4) 0.3154(5) 1.0269(5)
O5 O 0.6685(4) 0.0912(4) 1.0016(4)
N1 N 0.4658(4) 0.1220(6) 0.9982(5)
C1 C 0.1337(7) 0.1244(9) 0.8229(7)
C3 C 0.2155(6) 0.1478(7) 0.9422(6)
C5 C 0.3338(6) 0.1584(9) 1.1369(6)
C7 C 0.3602(6) 0.1968(7) 1.0174(5)
C9 C 0.5821(5) 0.1888(8) 1.0121(5)
C11 C 0.8053(5) 0.1347(8) 1.0159(6)
C13 C 0.8680(8) -0.0046(8) 1.0030(9)
C15 C 0.8856(7) 0.1991(11) 1.1472(8)
C17 C 0.7905(8) 0.2344(10) 0.9067(8)
H1 H 0.4548 0.0306 0.9770
H3 H 0.0439 0.0900 0.8018
H4 H 0.1622 0.1413 0.7546
H7 H 0.3850 0.0728 1.1853
H8 H 0.3469 0.2397 1.1980
H11 H 0.3686 0.3028 1.0097
H13 H 0.8776 -0.0679 1.0763
H14 H 0.9584 0.0135 1.0050
H15 H 0.8089 -0.0504 0.9192
H19 H 0.8435 0.2900 1.1541
H20 H 0.9796 0.2167 1.1584
H21 H 0.8870 0.1333 1.2161
H25 H 0.7500 0.3247 0.9176
H26 H 0.7308 0.1908 0.8219
H27 H 0.8808 0.2531 0.9086
O2 O 0.6734(4) 0.8863(6) 0.5059(5)
O4 O 1.0924(4) 1.0815(4) 0.5008(4)
O6 O 1.1731(4) 0.8567(5) 0.5058(4)
N2 N 0.9687(5) 0.8837(6) 0.4964(5)
C2 C 0.6453(8) 0.8867(9) 0.2854(8)
C4 C 0.7143(6) 0.9072(7) 0.4084(6)
C6 C 0.8074(6) 0.9145(9) 0.6049(6)
C8 C 0.8540(6) 0.9580(6) 0.5004(6)
C10 C 1.0794(6) 0.9547(7) 0.5020(5)
C12 C 1.3100(6) 0.8999(9) 0.5201(6)
C14 C 1.3769(7) 0.7582(8) 0.5213(8)
C16 C 1.3838(7) 0.9785(8) 0.6483(7)
C18 C 1.3008(8) 0.9900(9) 0.4080(8)
H2 H 0.9665 0.7896 0.4902
H5 H 0.5537 0.8528 0.2530
H6 H 0.6853 0.9052 0.2259
H9 H 0.8546 0.8283 0.6553
H10 H 0.8108 0.9936 0.6653
H12 H 0.8633 1.0644 0.4963
H16 H 1.3823 0.7017 0.5973
H17 H 1.4694 0.7745 0.5278
H18 H 1.3225 0.7061 0.4397
H22 H 1.3907 0.9166 0.7217
H23 H 1.3328 1.0656 0.6482
H24 H 1.4759 1.0046 0.6587
H28 H 1.2531 0.9369 0.3254
H29 H 1.3932 1.0148 0.4185
H30 H 1.2500 1.0779 0.4057
loop_
_geom_bond_atom_site_label_1
_geom_bond_atom_site_label_2
_geom_bond_site_symmetry_1
_geom_bond_site_symmetry_2
O1 C3 1_555 1_555
O2 C4 1_555 1_555
O3 C9 1_555 1_555
O4 C10 1_555 1_555
O5 C9 1_555 1_555
O6 C10 1_555 1_555
N1 C7 1_555 1_555
N2 C8 1_555 1_555
C1 C3 1_555 1_555
C2 C4 1_555 1_555
C3 C7 1_555 1_555
C4 C8 1_555 1_555
C5 O1 1_555 1_555
C6 O2 1_555 1_555
C7 C5 1_555 1_555
C8 C6 1_555 1_555
C9 N1 1_555 1_555
C10 N2 1_555 1_555
C11 O5 1_555 1_555
C12 O6 1_555 1_555
C13 C11 1_555 1_555
C14 C12 1_555 1_555
C15 C11 1_555 1_555
C16 C12 1_555 1_555
C17 C11 1_555 1_555
C18 C12 1_555 1_555
H1 N1 1_555 1_555
H2 N2 1_555 1_555
H3 C1 1_555 1_555
H4 C1 1_555 1_555
H5 C2 1_555 1_555
H6 C2 1_555 1_555
H7 C5 1_555 1_555
H8 C5 1_555 1_555
H9 C6 1_555 1_555
H10 C6 1_555 1_555
H11 C7 1_555 1_555
H12 C8 1_555 1_555
H13 C13 1_555 1_555
H14 C13 1_555 1_555
H15 C13 1_555 1_555
H16 C14 1_555 1_555
H17 C14 1_555 1_555
H18 C14 1_555 1_555
H19 C15 1_555 1_555
H20 C15 1_555 1_555
H21 C15 1_555 1_555
H22 C16 1_555 1_555
H23 C16 1_555 1_555
H24 C16 1_555 1_555
H25 C17 1_555 1_555
H26 C17 1_555 1_555
H27 C17 1_555 1_555
H28 C18 1_555 1_555
H29 C18 1_555 1_555
H30 C18 1_555 1_555

#END
