
#######################################################################
#
#                 Cambridge Crystallographic Data Centre
#                                CCDC 
#
#######################################################################
#
# If this CIF has been generated from an entry in the Cambridge 
# Structural Database, then it will include bibliographic, chemical, 
# crystal, experimental, refinement or atomic coordinate data resulting 
# from the CCDC's data processing and validation procedures.
#
#######################################################################

data_WORYAF
_chemical_formula_moiety         'C29 H20 N2 O5 S1'
_chemical_name_systematic        
5-((4-Methylphenyl)sulfonyl)-11-(4-nitrophenyl)-5H-benzo[b]carbazol-6-ol
_symmetry_cell_setting           triclinic
_symmetry_space_group_name_H-M   'P -1'
_symmetry_Int_Tables_number      2
_space_group_name_Hall           '-P 1'
loop_
_symmetry_equiv_pos_site_id
_symmetry_equiv_pos_as_xyz
1 x,y,z
2 -x,-y,-z
_cell_length_a                   10.5383(6)
_cell_length_b                   10.9316(6)
_cell_length_c                   13.2005(6)
_cell_angle_alpha                98.405(2)
_cell_angle_beta                 107.324(2)
_cell_angle_gamma                90.918(3)
_cell_volume                     1433.27
_exptl_crystal_colour            yellow
_exptl_crystal_description       parallelepiped
_cell_formula_units_Z            2
loop_
_atom_site_label
_atom_site_type_symbol
_atom_site_fract_x
_atom_site_fract_y
_atom_site_fract_z
S1 S 0.28782(8) 1.19993(6) 0.39699(6)
O1 O 0.3768(3) 1.29658(18) 0.3938(2)
O2 O 0.2369(3) 1.2112(2) 0.48692(18)
O3 O 0.2275(3) 1.0079(3) 0.5641(2)
H1 H 0.228(5) 1.073(5) 0.548(4)
O4 O 0.6089(4) 0.3324(3) 0.1000(3)
O5 O 0.4209(5) 0.3302(4) -0.0173(3)
N1 N 0.3701(2) 1.06978(18) 0.39767(18)
N2 N 0.4964(4) 0.3650(3) 0.0711(3)
C1 C 0.4337(3) 1.0414(2) 0.3152(2)
C2 C 0.4973(3) 1.1208(3) 0.2702(3)
H2 H 0.5022 1.2061 0.2917
C3 C 0.5525(3) 1.0705(3) 0.1932(3)
H3 H 0.5949 1.1226 0.1619
C4 C 0.5466(3) 0.9432(3) 0.1607(3)
H4 H 0.5843 0.9114 0.1078
C5 C 0.4859(3) 0.8646(3) 0.2059(2)
H5 H 0.4835 0.7794 0.1848
C6 C 0.4272(3) 0.9128(2) 0.2841(2)
C7 C 0.3577(3) 0.8549(2) 0.34744(19)
C8 C 0.3205(3) 0.9531(2) 0.41603(19)
C9 C 0.2618(3) 0.9269(3) 0.4904(2)
C10 C 0.2342(3) 0.7999(3) 0.4965(2)
C11 C 0.1713(3) 0.7686(3) 0.5701(3)
H6 H 0.1463 0.8312 0.6147
C12 C 0.1464(4) 0.6481(4) 0.5775(3)
H7 H 0.1045 0.6292 0.6266
C13 C 0.1837(4) 0.5527(3) 0.5112(3)
H8 H 0.1664 0.4706 0.5164
C14 C 0.2444(3) 0.5791(3) 0.4399(2)
H9 H 0.2692 0.5144 0.3970
C15 C 0.2714(3) 0.7026(2) 0.4285(2)
C16 C 0.3345(2) 0.7326(2) 0.35261(19)
C17 C 0.3738(3) 0.6315(2) 0.28083(19)
C18 C 0.4927(3) 0.5755(2) 0.3163(2)
H10 H 0.5466 0.5981 0.3869
C19 C 0.5322(3) 0.4866(3) 0.2483(3)
H11 H 0.6123 0.4495 0.2719
C20 C 0.4505(3) 0.4545(2) 0.1456(2)
C21 C 0.3292(4) 0.5016(3) 0.1095(2)
H12 H 0.2733 0.4737 0.0404
C22 C 0.2913(3) 0.5914(3) 0.1775(2)
H13 H 0.2094 0.6255 0.1537
C23 C 0.1529(3) 1.1781(2) 0.2795(2)
C24 C 0.1579(4) 1.2374(4) 0.1955(3)
H14 H 0.2320 1.2880 0.2004
C25 C 0.0497(5) 1.2196(5) 0.1039(3)
H15 H 0.0517 1.2602 0.0472
C26 C -0.0603(4) 1.1449(4) 0.0930(3)
C27 C -0.0626(4) 1.0877(4) 0.1793(3)
H16 H -0.1373 1.0379 0.1743
C28 C 0.0438(3) 1.1027(3) 0.2729(3)
H17 H 0.0416 1.0628 0.3300
C29 C -0.1784(5) 1.1249(6) -0.0085(4)
H18 H -0.1617 1.1716 -0.0599
H19 H -0.2569 1.1519 0.0085
H20 H -0.1912 1.0384 -0.0383
loop_
_geom_bond_atom_site_label_1
_geom_bond_atom_site_label_2
_geom_bond_site_symmetry_1
_geom_bond_site_symmetry_2
S1 O1 1_555 1_555
O2 S1 1_555 1_555
O3 H1 1_555 1_555
O4 N2 1_555 1_555
O5 N2 1_555 1_555
N1 S1 1_555 1_555
N2 C20 1_555 1_555
C1 N1 1_555 1_555
C2 C1 1_555 1_555
H2 C2 1_555 1_555
C3 C2 1_555 1_555
H3 C3 1_555 1_555
C4 C3 1_555 1_555
H4 C4 1_555 1_555
C5 C4 1_555 1_555
H5 C5 1_555 1_555
C6 C1 1_555 1_555
C7 C6 1_555 1_555
C8 N1 1_555 1_555
C9 O3 1_555 1_555
C10 C9 1_555 1_555
C11 C10 1_555 1_555
H6 C11 1_555 1_555
C12 C11 1_555 1_555
H7 C12 1_555 1_555
C13 C12 1_555 1_555
H8 C13 1_555 1_555
C14 C13 1_555 1_555
H9 C14 1_555 1_555
C15 C10 1_555 1_555
C16 C7 1_555 1_555
C17 C16 1_555 1_555
C18 C17 1_555 1_555
H10 C18 1_555 1_555
C19 C18 1_555 1_555
H11 C19 1_555 1_555
C20 C19 1_555 1_555
C21 C20 1_555 1_555
H12 C21 1_555 1_555
C22 C17 1_555 1_555
H13 C22 1_555 1_555
C23 S1 1_555 1_555
C24 C23 1_555 1_555
H14 C24 1_555 1_555
C25 C24 1_555 1_555
H15 C25 1_555 1_555
C26 C25 1_555 1_555
C27 C26 1_555 1_555
H16 C27 1_555 1_555
C28 C23 1_555 1_555
H17 C28 1_555 1_555
C29 C26 1_555 1_555
H18 C29 1_555 1_555
H19 C29 1_555 1_555
H20 C29 1_555 1_555
C5 C6 1_555 1_555
C7 C8 1_555 1_555
C8 C9 1_555 1_555
C14 C15 1_555 1_555
C15 C16 1_555 1_555
C21 C22 1_555 1_555
C27 C28 1_555 1_555

#END
