
#######################################################################
#
#                 Cambridge Crystallographic Data Centre
#                                CCDC 
#
#######################################################################
#
# If this CIF has been generated from an entry in the Cambridge 
# Structural Database, then it will include bibliographic, chemical, 
# crystal, experimental, refinement or atomic coordinate data resulting 
# from the CCDC's data processing and validation procedures.
#
#######################################################################

data_WORYOR
_chemical_name_common            
'exo-10,10-Diphenyl-10-methoxycamphan-2-yl alpha-benzoylformate'
_chemical_formula_moiety         'C31 H32 O4'
_chemical_name_systematic        
'exo-1-(Diphenyl(methoxy)methyl)-7,7-dimethylbicyclo(2.2.1)heptan-2-yl \a-benzoylformate'
_symmetry_cell_setting           orthorhombic
_symmetry_space_group_name_H-M   'P 21 21 21'
_symmetry_Int_Tables_number      19
_space_group_name_Hall           'P 2ac 2ab'
loop_
_symmetry_equiv_pos_site_id
_symmetry_equiv_pos_as_xyz
1 x,y,z
2 1/2-x,-y,1/2+z
3 1/2+x,1/2-y,-z
4 -x,1/2+y,1/2-z
_cell_length_a                   10.3404(1)
_cell_length_b                   14.8728(2)
_cell_length_c                   16.7626(1)
_cell_angle_alpha                90
_cell_angle_beta                 90
_cell_angle_gamma                90
_cell_volume                     2577.93
_cell_formula_units_Z            4
loop_
_atom_site_label
_atom_site_type_symbol
_atom_site_fract_x
_atom_site_fract_y
_atom_site_fract_z
O1 O 0.1763(1) 0.7133(1) 0.7292(1)
O2 O -0.0284(2) 0.6679(1) 0.7443(2)
O3 O 0.1839(2) 0.5180(1) 0.7327(1)
O4 O 0.3557(2) 0.9777(1) 0.7656(1)
C1 C 0.2489(2) 0.8651(1) 0.6869(1)
C2 C 0.1791(2) 0.9500(1) 0.6506(1)
C3 C 0.1647(3) 0.9300(2) 0.5605(1)
C4 C 0.2174(2) 0.8348(2) 0.5548(1)
C5 C 0.1203(2) 0.7730(2) 0.5970(1)
C6 C 0.1392(2) 0.7947(1) 0.6858(1)
C7 C 0.3345(2) 0.8353(1) 0.6126(1)
C8 C 0.0844(2) 0.6572(2) 0.7516(1)
C9 C 0.1450(2) 0.5704(1) 0.7827(1)
C10 C 0.1521(2) 0.5541(2) 0.8691(1)
C11 C 0.2097(2) 0.4762(2) 0.8965(2)
C12 C 0.2224(3) 0.4613(2) 0.9778(2)
C13 C 0.1784(3) 0.5238(3) 1.0309(2)
C14 C 0.1205(3) 0.6009(2) 1.0045(2)
C15 C 0.1069(3) 0.6163(2) 0.9238(1)
C16 C 0.4009(2) 0.7435(2) 0.6145(1)
C17 C 0.4367(3) 0.9047(2) 0.5872(1)
C18 C 0.3158(2) 0.8843(1) 0.7716(1)
C19 C 0.4383(2) 0.8260(1) 0.7842(1)
C20 C 0.4327(2) 0.7356(1) 0.8058(1)
C21 C 0.5427(2) 0.6839(1) 0.8130(1)
C22 C 0.6629(2) 0.7212(2) 0.7995(1)
C23 C 0.6716(2) 0.8108(2) 0.7804(1)
C24 C 0.5604(2) 0.8632(1) 0.7726(1)
C25 C 0.2207(2) 0.8769(1) 0.8426(1)
C26 C 0.2535(2) 0.8389(2) 0.9151(1)
C27 C 0.1685(3) 0.8392(2) 0.9794(1)
C28 C 0.0488(3) 0.8759(2) 0.9729(2)
C29 C 0.0156(3) 0.9161(3) 0.9031(2)
C30 C 0.1004(3) 0.9174(2) 0.8393(2)
C31 C 0.3881(3) 1.0228(2) 0.8385(1)
H1 H 0.0950(2) 0.9586(1) 0.6752(1)
H2 H 0.2305(2) 1.0037(1) 0.6590(1)
H3 H 0.0750(3) 0.9328(2) 0.5439(1)
H4 H 0.2153(3) 0.9715(2) 0.5286(1)
H5 H 0.2388(2) 0.8159(2) 0.5003(1)
H6 H 0.1392(2) 0.7103(2) 0.5862(1)
H7 H 0.0326(2) 0.7860(2) 0.5802(1)
H8 H 0.0598(2) 0.8202(1) 0.7083(1)
H9 H 0.2399(2) 0.4337(2) 0.8603(2)
H10 H 0.2610(3) 0.4087(2) 0.9961(2)
H11 H 0.1878(3) 0.5138(3) 1.0854(2)
H12 H 0.0904(3) 0.6431(2) 1.0410(2)
H13 H 0.0671(3) 0.6687(2) 0.9061(1)
H14 H 0.3396(2) 0.6984(2) 0.6302(1)
H15 H 0.4709(2) 0.7449(2) 0.6521(1)
H16 H 0.4340(2) 0.7296(2) 0.5624(1)
H17 H 0.3982(3) 0.9634(2) 0.5854(1)
H18 H 0.4695(3) 0.8894(2) 0.5354(1)
H19 H 0.5064(3) 0.9047(2) 0.6251(1)
H20 H 0.3526(2) 0.7094(1) 0.8156(1)
H21 H 0.5358(2) 0.6236(1) 0.8269(1)
H22 H 0.7370(2) 0.6861(2) 0.8034(1)
H23 H 0.7524(2) 0.8368(2) 0.7726(1)
H24 H 0.5680(2) 0.9237(1) 0.7595(1)
H25 H 0.3343(2) 0.8124(2) 0.9210(1)
H26 H 0.1941(3) 0.8139(2) 1.0275(1)
H27 H -0.0091(3) 0.8736(2) 1.0153(2)
H28 H -0.0652(3) 0.9431(3) 0.8981(2)
H29 H 0.0757(3) 0.9464(2) 0.7926(2)
H30 H 0.4128(3) 1.0837(2) 0.8272(1)
H31 H 0.4588(3) 0.9922(2) 0.8639(1)
H32 H 0.3145(3) 1.0227(2) 0.8734(1)
loop_
_geom_bond_atom_site_label_1
_geom_bond_atom_site_label_2
_geom_bond_site_symmetry_1
_geom_bond_site_symmetry_2
O1 C6 1_555 1_555
O2 C8 1_555 1_555
O3 C9 1_555 1_555
O4 C18 1_555 1_555
C1 C2 1_555 1_555
C2 C3 1_555 1_555
C3 C4 1_555 1_555
C4 C5 1_555 1_555
C5 C6 1_555 1_555
C6 C1 1_555 1_555
C7 C1 1_555 1_555
C8 O1 1_555 1_555
C9 C8 1_555 1_555
C10 C9 1_555 1_555
C11 C10 1_555 1_555
C12 C11 1_555 1_555
C13 C12 1_555 1_555
C14 C13 1_555 1_555
C15 C10 1_555 1_555
C16 C7 1_555 1_555
C17 C7 1_555 1_555
C18 C1 1_555 1_555
C19 C18 1_555 1_555
C20 C19 1_555 1_555
C21 C20 1_555 1_555
C22 C21 1_555 1_555
C23 C22 1_555 1_555
C24 C19 1_555 1_555
C25 C18 1_555 1_555
C26 C25 1_555 1_555
C27 C26 1_555 1_555
C28 C27 1_555 1_555
C29 C28 1_555 1_555
C30 C25 1_555 1_555
C31 O4 1_555 1_555
H1 C2 1_555 1_555
H2 C2 1_555 1_555
H3 C3 1_555 1_555
H4 C3 1_555 1_555
H5 C4 1_555 1_555
H6 C5 1_555 1_555
H7 C5 1_555 1_555
H8 C6 1_555 1_555
H9 C11 1_555 1_555
H10 C12 1_555 1_555
H11 C13 1_555 1_555
H12 C14 1_555 1_555
H13 C15 1_555 1_555
H14 C16 1_555 1_555
H15 C16 1_555 1_555
H16 C16 1_555 1_555
H17 C17 1_555 1_555
H18 C17 1_555 1_555
H19 C17 1_555 1_555
H20 C20 1_555 1_555
H21 C21 1_555 1_555
H22 C22 1_555 1_555
H23 C23 1_555 1_555
H24 C24 1_555 1_555
H25 C26 1_555 1_555
H26 C27 1_555 1_555
H27 C28 1_555 1_555
H28 C29 1_555 1_555
H29 C30 1_555 1_555
H30 C31 1_555 1_555
H31 C31 1_555 1_555
H32 C31 1_555 1_555
C4 C7 1_555 1_555
C14 C15 1_555 1_555
C23 C24 1_555 1_555
C29 C30 1_555 1_555

#END
