
#######################################################################
#
#                 Cambridge Crystallographic Data Centre
#                                CCDC 
#
#######################################################################
#
# If this CIF has been generated from an entry in the Cambridge 
# Structural Database, then it will include bibliographic, chemical, 
# crystal, experimental, refinement or atomic coordinate data resulting 
# from the CCDC's data processing and validation procedures.
#
#######################################################################

data_WOSBIR
_chemical_formula_moiety         'C29 H20 N4 O5'
_chemical_name_systematic        
'1-(4-cyanophenyl)-2-(1,3-dioxo-1,3-dihydro-2H-isoindol-2-yl)-3-oxo-3-(quinolin-8-ylamino)propyl acetate unknown solvate'
_symmetry_cell_setting           monoclinic
_symmetry_space_group_name_H-M   'P 21'
_symmetry_Int_Tables_number      4
_space_group_name_Hall           'P 2yb'
loop_
_symmetry_equiv_pos_site_id
_symmetry_equiv_pos_as_xyz
1 x,y,z
2 -x,1/2+y,-z
_cell_length_a                   7.3951(4)
_cell_length_b                   22.4314(10)
_cell_length_c                   17.9416(9)
_cell_angle_alpha                90
_cell_angle_beta                 95.634(5)
_cell_angle_gamma                90
_cell_volume                     2961.82
_exptl_crystal_colour            colorless
_exptl_crystal_description       platelet
_cell_formula_units_Z            4
loop_
_atom_site_label
_atom_site_type_symbol
_atom_site_fract_x
_atom_site_fract_y
_atom_site_fract_z
O1 O 1.2942(4) 0.35052(13) 0.71948(17)
O2 O 0.7087(6) 0.3397(2) 0.6222(2)
O3 O 1.0242(5) 0.46102(13) 0.65944(16)
O4 O 0.8892(3) 0.39773(10) 0.87313(13)
O5 O 1.1119(6) 0.38571(17) 0.96561(17)
N1 N 0.9841(4) 0.34741(14) 0.68900(16)
N2 N 0.9691(3) 0.49424(13) 0.77443(16)
H1 H 0.9424 0.4823 0.8176
N3 N 0.8999(4) 0.55983(17) 0.8900(2)
N4 N 0.9535(6) 0.0641(2) 0.8608(4)
C1 C 0.9852(9) 0.2977(2) 0.5779(2)
C2 C 0.9388(11) 0.2716(3) 0.5092(3)
H2 H 0.8193 0.2698 0.4877
C3 C 1.0865(14) 0.2475(3) 0.4731(3)
H3 H 1.0636 0.2285 0.4271
C4 C 1.2570(12) 0.2520(2) 0.5048(4)
H4 H 1.3504 0.2369 0.4792
C5 C 1.2988(8) 0.2772(2) 0.5713(3)
H5 H 1.4181 0.2786 0.5931
C6 C 1.1575(7) 0.30145(17) 0.6067(2)
C7 C 1.1649(6) 0.33503(16) 0.6779(2)
C8 C 0.8644(8) 0.3301(2) 0.6277(2)
C9 C 0.9303(5) 0.38864(16) 0.74442(18)
H6 H 0.7973 0.3873 0.7413
C10 C 0.9805(5) 0.45132(17) 0.7225(2)
C11 C 0.9951(4) 0.55540(17) 0.7673(2)
C12 C 1.0535(5) 0.58304(19) 0.7056(3)
H7 H 1.0804 0.5613 0.6639
C13 C 1.0717(6) 0.6468(2) 0.7078(4)
H8 H 1.1115 0.6666 0.6668
C14 C 1.0323(7) 0.6788(2) 0.7680(5)
H9 H 1.0448 0.7200 0.7676
C15 C 0.9732(6) 0.6509(2) 0.8308(4)
C16 C 0.9550(5) 0.58933(17) 0.8312(3)
C17 C 0.8645(7) 0.5917(3) 0.9479(3)
H10 H 0.8288 0.5719 0.9896
C18 C 0.8773(11) 0.6532(4) 0.9505(6)
H11 H 0.8473 0.6731 0.9930
C19 C 0.9306(9) 0.6841(3) 0.8946(6)
H12 H 0.9402 0.7254 0.8965
C20 C 0.9986(5) 0.36778(16) 0.82276(19)
H13 H 1.1259 0.3796 0.8340
C21 C 0.9588(8) 0.4020(2) 0.9457(2)
C22 C 0.8304(8) 0.4293(2) 0.9931(3)
H14 H 0.7973 0.4683 0.9743
H15 H 0.8865 0.4326 1.0435
H16 H 0.7236 0.4049 0.9925
C23 C 0.9821(5) 0.30064(16) 0.8311(2)
C24 C 1.1389(6) 0.2673(2) 0.8449(3)
H17 H 1.2516 0.2860 0.8507
C25 C 1.1269(7) 0.2068(2) 0.8502(3)
H18 H 1.2332 0.1845 0.8571
C26 C 0.9629(6) 0.17801(18) 0.8455(3)
C27 C 0.8068(6) 0.21114(19) 0.8315(3)
H19 H 0.6941 0.1924 0.8265
C28 C 0.8183(6) 0.27296(18) 0.8246(2)
H20 H 0.7127 0.2954 0.8156
C29 C 0.9551(7) 0.1149(2) 0.8535(4)
O6 O 0.6505(4) 0.33536(16) 0.36580(16)
O7 O 0.0639(4) 0.33376(13) 0.26850(16)
O8 O 0.4062(5) 0.21883(12) 0.34780(16)
O9 O 0.5176(4) 0.27059(11) 0.12849(14)
O10 O 0.7785(6) 0.29710(16) 0.0909(2)
N5 N 0.3715(4) 0.32946(11) 0.30026(14)
N6 N 0.4692(3) 0.17980(12) 0.23748(15)
H21 H 0.4910 0.1893 0.1928
N7 N 0.5682(4) 0.10701(14) 0.1342(2)
N8 N 0.5221(5) 0.60501(17) 0.1143(3)
C30 C 0.2055(5) 0.38097(14) 0.38083(19)
C31 C 0.0688(6) 0.40585(18) 0.4165(2)
H22 H -0.0512 0.4046 0.3955
C32 C 0.1155(8) 0.4330(2) 0.4853(3)
H23 H 0.0257 0.4510 0.5103
C33 C 0.2912(8) 0.4336(2) 0.5165(3)
H24 H 0.3184 0.4515 0.5630
C34 C 0.4305(7) 0.4082(2) 0.4807(2)
H25 H 0.5503 0.4086 0.5021
C35 C 0.3816(5) 0.38186(15) 0.41074(19)
C36 C 0.4926(5) 0.34725(17) 0.3597(2)
C37 C 0.1927(5) 0.34705(15) 0.3104(2)
C38 C 0.4035(5) 0.28637(14) 0.24427(19)
H26 H 0.2898 0.2834 0.2115
C39 C 0.4312(5) 0.22472(15) 0.2829(2)
C40 C 0.4768(4) 0.11819(15) 0.2556(2)
C41 C 0.4361(5) 0.09494(17) 0.3215(3)
H27 H 0.4019 0.1200 0.3589
C42 C 0.4455(6) 0.0322(2) 0.3339(3)
H28 H 0.4170 0.0166 0.3793
C43 C 0.4946(6) -0.0042(2) 0.2810(4)
H29 H 0.5017 -0.0450 0.2904
C44 C 0.5356(5) 0.01718(18) 0.2121(3)
C45 C 0.5277(4) 0.08061(16) 0.1982(2)
C46 C 0.6172(6) 0.0724(2) 0.0791(3)
H30 H 0.6463 0.0893 0.0344
C47 C 0.6245(7) 0.0079(3) 0.0897(4)
H31 H 0.6577 -0.0163 0.0512
C48 C 0.5842(7) -0.0168(2) 0.1538(4)
H32 H 0.5894 -0.0580 0.1590
C49 C 0.5461(6) 0.30627(16) 0.1948(2)
H33 H 0.6662 0.2968 0.2201
C50 C 0.6315(11) 0.2710(2) 0.0774(3)
C51 C 0.5876(11) 0.2358(3) 0.0109(3)
H34 H 0.5853 0.1944 0.0240
H35 H 0.6778 0.2423 -0.0233
H36 H 0.4706 0.2475 -0.0125
C52 C 0.5401(5) 0.37174(15) 0.17673(19)
C53 C 0.6852(5) 0.40679(17) 0.1987(2)
H37 H 0.7881 0.3900 0.2245
C54 C 0.6816(5) 0.46750(17) 0.1830(2)
H38 H 0.7815 0.4914 0.1978
C55 C 0.5278(5) 0.49173(16) 0.1454(2)
C56 C 0.3804(6) 0.45719(17) 0.1234(2)
H39 H 0.2772 0.4740 0.0979
C57 C 0.3865(6) 0.39699(17) 0.1396(2)
H40 H 0.2860 0.3732 0.1253
C58 C 0.5249(5) 0.5555(2) 0.1283(2)
loop_
_geom_bond_atom_site_label_1
_geom_bond_atom_site_label_2
_geom_bond_site_symmetry_1
_geom_bond_site_symmetry_2
O1 C7 1_555 1_555
O2 C8 1_555 1_555
O3 C10 1_555 1_555
O4 C20 1_555 1_555
O5 C21 1_555 1_555
N1 C7 1_555 1_555
N2 H1 1_555 1_555
N3 C16 1_555 1_555
N4 C29 1_555 1_555
C1 C2 1_555 1_555
C2 H2 1_555 1_555
C3 C2 1_555 1_555
H3 C3 1_555 1_555
C4 C3 1_555 1_555
H4 C4 1_555 1_555
C5 C4 1_555 1_555
H5 C5 1_555 1_555
C6 C1 1_555 1_555
C7 C6 1_555 1_555
C8 N1 1_555 1_555
C9 N1 1_555 1_555
H6 C9 1_555 1_555
C10 N2 1_555 1_555
C11 N2 1_555 1_555
C12 C11 1_555 1_555
H7 C12 1_555 1_555
C13 C12 1_555 1_555
H8 C13 1_555 1_555
C14 C13 1_555 1_555
H9 C14 1_555 1_555
C15 C14 1_555 1_555
C16 C11 1_555 1_555
C17 N3 1_555 1_555
H10 C17 1_555 1_555
C18 C17 1_555 1_555
H11 C18 1_555 1_555
C19 C15 1_555 1_555
H12 C19 1_555 1_555
C20 C9 1_555 1_555
H13 C20 1_555 1_555
C21 O4 1_555 1_555
C22 C21 1_555 1_555
H14 C22 1_555 1_555
H15 C22 1_555 1_555
H16 C22 1_555 1_555
C23 C20 1_555 1_555
C24 C23 1_555 1_555
H17 C24 1_555 1_555
C25 C24 1_555 1_555
H18 C25 1_555 1_555
C26 C25 1_555 1_555
C27 C26 1_555 1_555
H19 C27 1_555 1_555
C28 C23 1_555 1_555
H20 C28 1_555 1_555
C29 C26 1_555 1_555
O6 C36 1_555 1_555
O7 C37 1_555 1_555
O8 C39 1_555 1_555
O9 C49 1_555 1_555
O10 C50 1_555 1_555
N5 C36 1_555 1_555
N6 H21 1_555 1_555
N7 C45 1_555 1_555
N8 C58 1_555 1_555
C30 C31 1_555 1_555
C31 H22 1_555 1_555
C32 C31 1_555 1_555
H23 C32 1_555 1_555
C33 C32 1_555 1_555
H24 C33 1_555 1_555
C34 C33 1_555 1_555
H25 C34 1_555 1_555
C35 C30 1_555 1_555
C36 C35 1_555 1_555
C37 N5 1_555 1_555
C38 N5 1_555 1_555
H26 C38 1_555 1_555
C39 N6 1_555 1_555
C40 N6 1_555 1_555
C41 C40 1_555 1_555
H27 C41 1_555 1_555
C42 C41 1_555 1_555
H28 C42 1_555 1_555
C43 C42 1_555 1_555
H29 C43 1_555 1_555
C44 C43 1_555 1_555
C45 C40 1_555 1_555
C46 N7 1_555 1_555
H30 C46 1_555 1_555
C47 C46 1_555 1_555
H31 C47 1_555 1_555
C48 C44 1_555 1_555
H32 C48 1_555 1_555
C49 C38 1_555 1_555
H33 C49 1_555 1_555
C50 O9 1_555 1_555
C51 C50 1_555 1_555
H34 C51 1_555 1_555
H35 C51 1_555 1_555
H36 C51 1_555 1_555
C52 C49 1_555 1_555
C53 C52 1_555 1_555
H37 C53 1_555 1_555
C54 C53 1_555 1_555
H38 C54 1_555 1_555
C55 C54 1_555 1_555
C56 C55 1_555 1_555
H39 C56 1_555 1_555
C57 C52 1_555 1_555
H40 C57 1_555 1_555
C58 C55 1_555 1_555
C1 C8 1_555 1_555
C5 C6 1_555 1_555
C9 C10 1_555 1_555
C15 C16 1_555 1_555
C18 C19 1_555 1_555
C27 C28 1_555 1_555
C30 C37 1_555 1_555
C34 C35 1_555 1_555
C38 C39 1_555 1_555
C44 C45 1_555 1_555
C47 C48 1_555 1_555
C56 C57 1_555 1_555

#END
