
#######################################################################
#
#                 Cambridge Crystallographic Data Centre
#                                CCDC 
#
#######################################################################
#
# If this CIF has been generated from an entry in the Cambridge 
# Structural Database, then it will include bibliographic, chemical, 
# crystal, experimental, refinement or atomic coordinate data resulting 
# from the CCDC's data processing and validation procedures.
#
#######################################################################

data_WOSBOX
_chemical_formula_moiety         'C28 H21 N3 O5'
_chemical_name_systematic        
'2-(1,3-dioxo-1,3-dihydro-2H-isoindol-2-yl)-3-oxo-1-phenyl-3-(quinolin-8-ylamino)propyl acetate'
_symmetry_cell_setting           orthorhombic
_symmetry_space_group_name_H-M   'P 21 21 21'
_symmetry_Int_Tables_number      19
_space_group_name_Hall           'P 2ac 2ab'
loop_
_symmetry_equiv_pos_site_id
_symmetry_equiv_pos_as_xyz
1 x,y,z
2 1/2-x,-y,1/2+z
3 1/2+x,1/2-y,-z
4 -x,1/2+y,1/2-z
_cell_length_a                   9.5628(5)
_cell_length_b                   14.2702(6)
_cell_length_c                   17.9747(7)
_cell_angle_alpha                90
_cell_angle_beta                 90
_cell_angle_gamma                90
_cell_volume                     2452.88
_exptl_crystal_colour            yellow
_exptl_crystal_description       block
_cell_formula_units_Z            4
loop_
_atom_site_label
_atom_site_type_symbol
_atom_site_fract_x
_atom_site_fract_y
_atom_site_fract_z
O1 O 0.9439(2) 0.27424(16) 0.22177(11)
O2 O 0.4934(2) 0.33459(15) 0.29026(10)
O3 O 0.6888(3) 0.12648(14) 0.19787(10)
O4 O 0.6444(2) 0.35166(13) 0.04072(9)
O5 O 0.8249(4) 0.3993(2) -0.02823(14)
N1 N 0.7092(2) 0.30538(15) 0.23751(11)
N2 N 0.6789(3) 0.15654(15) 0.07467(11)
H1 H 0.6701 0.2018 0.0434
N3 N 0.7141(3) 0.14839(17) -0.07116(12)
C1 C 0.8478(3) 0.29688(19) 0.26055(14)
C2 C 0.8467(3) 0.32016(18) 0.34147(14)
C3 C 0.9549(4) 0.3252(2) 0.39176(16)
H2 H 1.0467 0.3132 0.3775
C4 C 0.9222(4) 0.3488(2) 0.46434(17)
H3 H 0.9931 0.3519 0.4997
C5 C 0.7870(4) 0.3678(2) 0.48508(16)
H4 H 0.7681 0.3837 0.5342
C6 C 0.6776(4) 0.3636(2) 0.43416(15)
H5 H 0.5861 0.3769 0.4482
C7 C 0.7104(3) 0.33902(18) 0.36207(13)
C8 C 0.6190(3) 0.32785(18) 0.29576(14)
C9 C 0.6616(3) 0.28666(18) 0.16214(12)
H6 H 0.5610 0.2997 0.1611
C10 C 0.6795(3) 0.18078(19) 0.14700(14)
C11 C 0.6911(3) 0.06629(18) 0.04393(15)
C12 C 0.6846(3) -0.01581(19) 0.08294(16)
H7 H 0.6719 -0.0148 0.1342
C13 C 0.6971(3) -0.1016(2) 0.04533(18)
H8 H 0.6930 -0.1570 0.0725
C14 C 0.7149(3) -0.1060(2) -0.02897(18)
H9 H 0.7229 -0.1639 -0.0523
C15 C 0.7215(3) -0.0227(2) -0.07169(16)
C16 C 0.7088(3) 0.06480(19) -0.03472(14)
C17 C 0.7305(4) 0.1450(3) -0.14402(16)
H10 H 0.7334 0.2014 -0.1700
C18 C 0.7438(4) 0.0616(3) -0.18461(17)
H11 H 0.7560 0.0635 -0.2359
C19 C 0.7388(3) -0.0214(3) -0.14899(18)
H12 H 0.7467 -0.0771 -0.1754
C20 C 0.7313(3) 0.35513(17) 0.10678(13)
H13 H 0.8261 0.3337 0.0949
C21 C 0.7362(3) 0.45381(18) 0.13761(14)
C22 C 0.8628(3) 0.4957(2) 0.15232(18)
H14 H 0.9454 0.4639 0.1418
C23 C 0.8684(5) 0.5850(3) 0.1826(2)
H15 H 0.9542 0.6130 0.1926
C24 C 0.7473(5) 0.6314(2) 0.19772(18)
H16 H 0.7507 0.6916 0.2175
C25 C 0.6207(5) 0.5904(2) 0.18410(19)
H17 H 0.5384 0.6220 0.1954
C26 C 0.6158(3) 0.5012(2) 0.15326(18)
H18 H 0.5298 0.4735 0.1432
C27 C 0.7032(5) 0.3805(2) -0.02417(16)
C28 C 0.5997(6) 0.3854(3) -0.08495(17)
H19 H 0.5268 0.4285 -0.0717
H20 H 0.5601 0.3244 -0.0930
H21 H 0.6447 0.4064 -0.1297
loop_
_geom_bond_atom_site_label_1
_geom_bond_atom_site_label_2
_geom_bond_site_symmetry_1
_geom_bond_site_symmetry_2
O1 C1 1_555 1_555
O2 C8 1_555 1_555
O3 C10 1_555 1_555
O4 C20 1_555 1_555
O5 C27 1_555 1_555
N1 C1 1_555 1_555
N2 H1 1_555 1_555
N3 C16 1_555 1_555
C1 C2 1_555 1_555
C2 C3 1_555 1_555
C3 H2 1_555 1_555
C4 C3 1_555 1_555
H3 C4 1_555 1_555
C5 C4 1_555 1_555
H4 C5 1_555 1_555
C6 C5 1_555 1_555
H5 C6 1_555 1_555
C7 C2 1_555 1_555
C8 N1 1_555 1_555
C9 N1 1_555 1_555
H6 C9 1_555 1_555
C10 N2 1_555 1_555
C11 N2 1_555 1_555
C12 C11 1_555 1_555
H7 C12 1_555 1_555
C13 C12 1_555 1_555
H8 C13 1_555 1_555
C14 C13 1_555 1_555
H9 C14 1_555 1_555
C15 C14 1_555 1_555
C16 C11 1_555 1_555
C17 N3 1_555 1_555
H10 C17 1_555 1_555
C18 C17 1_555 1_555
H11 C18 1_555 1_555
C19 C15 1_555 1_555
H12 C19 1_555 1_555
C20 C9 1_555 1_555
H13 C20 1_555 1_555
C21 C20 1_555 1_555
C22 C21 1_555 1_555
H14 C22 1_555 1_555
C23 C22 1_555 1_555
H15 C23 1_555 1_555
C24 C23 1_555 1_555
H16 C24 1_555 1_555
C25 C24 1_555 1_555
H17 C25 1_555 1_555
C26 C21 1_555 1_555
H18 C26 1_555 1_555
C27 O4 1_555 1_555
C28 C27 1_555 1_555
H19 C28 1_555 1_555
H20 C28 1_555 1_555
H21 C28 1_555 1_555
C6 C7 1_555 1_555
C7 C8 1_555 1_555
C9 C10 1_555 1_555
C15 C16 1_555 1_555
C18 C19 1_555 1_555
C25 C26 1_555 1_555

#END
