
#######################################################################
#
#                 Cambridge Crystallographic Data Centre
#                                CCDC 
#
#######################################################################
#
# If this CIF has been generated from an entry in the Cambridge 
# Structural Database, then it will include bibliographic, chemical, 
# crystal, experimental, refinement or atomic coordinate data resulting 
# from the CCDC's data processing and validation procedures.
#
#######################################################################

data_WOSBEL
_chemical_compound_source        'gum rosin'
_chemical_formula_moiety         'C20 H29 O2 1-,C6 H9 N2 1+'
_chemical_name_systematic        '2-Amino-6-methylpyridinium neobietate'
_symmetry_cell_setting           monoclinic
_symmetry_space_group_name_H-M   'P 21'
_symmetry_Int_Tables_number      4
_space_group_name_Hall           'P 2yb'
loop_
_symmetry_equiv_pos_site_id
_symmetry_equiv_pos_as_xyz
1 x,y,z
2 -x,1/2+y,-z
_cell_length_a                   7.3700(10)
_cell_length_b                   8.6920(10)
_cell_length_c                   18.365(2)
_cell_angle_alpha                90
_cell_angle_beta                 92.530(10)
_cell_angle_gamma                90
_cell_volume                     1175.32
_exptl_crystal_colour            yellow
_cell_formula_units_Z            2
_exptl_crystal_recrystallization_method ether
loop_
_atom_site_label
_atom_site_type_symbol
_atom_site_fract_x
_atom_site_fract_y
_atom_site_fract_z
O1 O 0.7462(3) 0.2646(3) 0.81688(10)
O2 O 0.9158(3) 0.1880(3) 0.91132(11)
C1 C 0.8501(4) 0.0036(4) 0.81434(14)
C2 C 0.6530(4) -0.0512(5) 0.7970(2)
C3 C 0.6445(4) -0.1881(5) 0.7461(2)
C4 C 0.7305(4) -0.1495(4) 0.6745(2)
C5 C 0.9295(4) -0.1004(3) 0.68373(14)
C6 C 0.9442(3) 0.0304(3) 0.74027(13)
C7 C 1.1415(4) 0.0833(4) 0.75154(14)
C8 C 1.2088(4) 0.1506(4) 0.68116(15)
C9 C 1.1697(4) 0.0497(4) 0.61499(14)
C10 C 0.9895(4) -0.0311(3) 0.60911(14)
C11 C 0.9878(4) -0.1502(4) 0.5474(2)
C12 C 1.0608(4) -0.0841(4) 0.47835(15)
C13 C 1.2525(4) -0.0268(4) 0.49025(15)
C14 C 1.2880(4) 0.0457(4) 0.56142(14)
C15 C 1.3747(4) -0.0283(4) 0.4380(2)
C16 C 1.3303(5) -0.0942(5) 0.3641(2)
C17 C 1.5610(5) 0.0310(6) 0.4473(2)
C18 C 0.8398(4) 0.1609(4) 0.85153(15)
C19 C 0.9486(5) -0.1077(4) 0.8664(2)
C20 C 1.0504(4) -0.2397(4) 0.7033(2)
H1 H 0.5886 -0.0629 0.8468
H2 H 0.5776 0.0437 0.7736
H3 H 0.5178 -0.2050 0.7374
H4 H 0.7044 -0.2711 0.7665
H5 H 0.6548 -0.0671 0.6500
H6 H 0.7191 -0.2339 0.6416
H7 H 0.8814 0.1198 0.7158
H8 H 1.1484 0.1603 0.7892
H9 H 1.2190 -0.0036 0.7685
H10 H 1.1434 0.2661 0.6707
H11 H 1.3404 0.1746 0.6835
H12 H 0.8961 0.0448 0.5933
H13 H 1.0637 -0.2409 0.5665
H14 H 0.8569 -0.2003 0.5366
H15 H 1.0572 -0.1642 0.4430
H16 H 0.9890 -0.0023 0.4583
H17 H 1.3951 0.0927 0.5659
H18 H 1.1999 -0.1020 0.3528
H19 H 1.3786 -0.2075 0.3524
H20 H 1.3832 -0.0466 0.3310
H21 H 1.6183 0.0404 0.4961
H22 H 1.5862 0.1346 0.4451
H23 H 1.6253 -0.0155 0.4137
H24 H 0.9566 -0.2071 0.8438
H25 H 0.8834 -0.1167 0.9103
H26 H 1.0691 -0.0701 0.8781
H27 H 1.0264 -0.3302 0.6685
H28 H 1.0427 -0.2739 0.7480
H29 H 1.1856 -0.2229 0.6951
N1 N 0.6378(3) 0.4975(3) 0.89284(11)
N2 N 0.9120(3) 0.5211(4) 0.95640(12)
C21 C 0.7366(4) 0.5628(4) 0.94806(14)
C22 C 0.6596(5) 0.6723(5) 0.9925(2)
C23 C 0.4830(6) 0.7083(5) 0.9802(2)
C24 C 0.3815(5) 0.6410(5) 0.9241(2)
C25 C 0.4618(4) 0.5360(4) 0.8811(2)
C26 C 0.3620(4) 0.4552(5) 0.8199(2)
H30 H 0.6804 0.4376 0.8496
H31 H 0.9558 0.4546 0.9275
H32 H 0.9787 0.5604 0.9911
H33 H 0.7376 0.7146 1.0308
H34 H 0.4248 0.7869 1.0061
H35 H 0.2588 0.6625 0.9181
H36 H 0.4426 0.3856 0.7964
H37 H 0.3158 0.5291 0.7848
H38 H 0.2622 0.3977 0.8382
H39? H 0.7506 0.3738 0.8096
loop_
_geom_bond_atom_site_label_1
_geom_bond_atom_site_label_2
_geom_bond_site_symmetry_1
_geom_bond_site_symmetry_2
O1 C18 1_555 1_555
O2 C18 1_555 1_555
C1 C2 1_555 1_555
C2 C3 1_555 1_555
C3 C4 1_555 1_555
C4 C5 1_555 1_555
C5 C6 1_555 1_555
C6 C1 1_555 1_555
C7 C6 1_555 1_555
C8 C7 1_555 1_555
C9 C8 1_555 1_555
C10 C5 1_555 1_555
C11 C10 1_555 1_555
C12 C11 1_555 1_555
C13 C12 1_555 1_555
C14 C9 1_555 1_555
C15 C13 1_555 1_555
C16 C15 1_555 1_555
C17 C15 1_555 1_555
C18 C1 1_555 1_555
C19 C1 1_555 1_555
C20 C5 1_555 1_555
H1 C2 1_555 1_555
H2 C2 1_555 1_555
H3 C3 1_555 1_555
H4 C3 1_555 1_555
H5 C4 1_555 1_555
H6 C4 1_555 1_555
H7 C6 1_555 1_555
H8 C7 1_555 1_555
H9 C7 1_555 1_555
H10 C8 1_555 1_555
H11 C8 1_555 1_555
H12 C10 1_555 1_555
H13 C11 1_555 1_555
H14 C11 1_555 1_555
H15 C12 1_555 1_555
H16 C12 1_555 1_555
H17 C14 1_555 1_555
H18 C16 1_555 1_555
H19 C16 1_555 1_555
H20 C16 1_555 1_555
H21 C17 1_555 1_555
H22 C17 1_555 1_555
H23 C17 1_555 1_555
H24 C19 1_555 1_555
H25 C19 1_555 1_555
H26 C19 1_555 1_555
H27 C20 1_555 1_555
H28 C20 1_555 1_555
H29 C20 1_555 1_555
N1 C21 1_555 1_555
N2 C21 1_555 1_555
C21 C22 1_555 1_555
C22 C23 1_555 1_555
C23 C24 1_555 1_555
C24 C25 1_555 1_555
C25 N1 1_555 1_555
C26 C25 1_555 1_555
H30 N1 1_555 1_555
H31 N2 1_555 1_555
H32 N2 1_555 1_555
H33 C22 1_555 1_555
H34 C23 1_555 1_555
H35 C24 1_555 1_555
H36 C26 1_555 1_555
H37 C26 1_555 1_555
H38 C26 1_555 1_555
C9 C10 1_555 1_555
C13 C14 1_555 1_555

#END
