
#######################################################################
#
#                 Cambridge Crystallographic Data Centre
#                                CCDC 
#
#######################################################################
#
# If this CIF has been generated from an entry in the Cambridge 
# Structural Database, then it will include bibliographic, chemical, 
# crystal, experimental, refinement or atomic coordinate data resulting 
# from the CCDC's data processing and validation procedures.
#
#######################################################################

data_WOSTUT
_chemical_formula_moiety         'C8 H8 F2 O2'
_chemical_name_systematic        
'(1R,3S,4S)-5,5-Difluorodispiro(2.0.2.1)heptane-1-carboxylic acid'
_symmetry_cell_setting           monoclinic
_symmetry_space_group_name_H-M   'P 21/n'
_symmetry_Int_Tables_number      14
_space_group_name_Hall           '-P 2yn'
loop_
_symmetry_equiv_pos_site_id
_symmetry_equiv_pos_as_xyz
1 x,y,z
2 1/2+x,1/2-y,1/2+z
3 -x,-y,-z
4 1/2-x,1/2+y,1/2-z
_cell_length_a                   5.7717(1)
_cell_length_b                   13.4834(3)
_cell_length_c                   10.1942(2)
_cell_angle_alpha                90
_cell_angle_beta                 94.6960(10)
_cell_angle_gamma                90
_cell_volume                     790.671
_exptl_crystal_colour            colorless
_exptl_crystal_description       block
_chemical_melting_point          '107-110.5 deg.C'
_cell_formula_units_Z            4
loop_
_atom_site_label
_atom_site_type_symbol
_atom_site_fract_x
_atom_site_fract_y
_atom_site_fract_z
O1 O 0.3015(2) 0.91303(7) 0.47764(11)
O2 O 0.6880(2) 0.89185(7) 0.51236(11)
F1 F 0.2329(2) 0.45514(6) 0.54821(9)
F2 F 0.0479(2) 0.48498(6) 0.72399(9)
C1 C 0.4594(3) 0.74993(9) 0.47235(14)
C2 C 0.2440(3) 0.70661(10) 0.39266(15)
C3 C 0.2693(2) 0.69770(9) 0.53708(14)
C4 C 0.1370(3) 0.71896(10) 0.6534(2)
C5 C 0.2662(2) 0.62249(9) 0.64009(14)
C6 C 0.2218(2) 0.51728(10) 0.65279(14)
C7 C 0.4388(3) 0.55716(10) 0.7216(2)
C8 C 0.4737(2) 0.85918(10) 0.48697(13)
H1 H 0.6864(44) 0.9604(22) 0.5183(25)
H2 H 0.6097(30) 0.7175(12) 0.4683(16)
H3 H 0.1284(32) 0.7558(14) 0.3547(18)
H4 H 0.2730(33) 0.6469(15) 0.3365(18)
H5 H 0.2046(32) 0.7651(14) 0.7186(18)
H6 H -0.0301(34) 0.7180(13) 0.6403(18)
H7 H 0.5801(33) 0.5427(14) 0.6825(18)
H8 H 0.4473(30) 0.5619(13) 0.8149(18)
loop_
_geom_bond_atom_site_label_1
_geom_bond_atom_site_label_2
_geom_bond_site_symmetry_1
_geom_bond_site_symmetry_2
O1 C8 1_555 1_555
O2 C8 1_555 1_555
F1 C6 1_555 1_555
F2 C6 1_555 1_555
C1 C2 1_555 1_555
C2 C3 1_555 1_555
C3 C1 1_555 1_555
C4 C3 1_555 1_555
C5 C3 1_555 1_555
C6 C5 1_555 1_555
C7 C5 1_555 1_555
C8 C1 1_555 1_555
H1 O2 1_555 1_555
H2 C1 1_555 1_555
H3 C2 1_555 1_555
H4 C2 1_555 1_555
H5 C4 1_555 1_555
H6 C4 1_555 1_555
H7 C7 1_555 1_555
H8 C7 1_555 1_555
C4 C5 1_555 1_555
C6 C7 1_555 1_555

#END
