
#######################################################################
#
#                 Cambridge Crystallographic Data Centre
#                                CCDC 
#
#######################################################################
#
# If this CIF has been generated from an entry in the Cambridge 
# Structural Database, then it will include bibliographic, chemical, 
# crystal, experimental, refinement or atomic coordinate data resulting 
# from the CCDC's data processing and validation procedures.
#
#######################################################################

data_WOSVAB
_chemical_formula_moiety         'C8 H8 F2 O2'
_chemical_name_systematic        
'(1R,3S,4R)-5,5-Difluorodispiro(2.0.2.1)heptane-1-carboxylic acid'
_symmetry_cell_setting           monoclinic
_symmetry_space_group_name_H-M   'P 21/n'
_symmetry_Int_Tables_number      14
_space_group_name_Hall           '-P 2yn'
loop_
_symmetry_equiv_pos_site_id
_symmetry_equiv_pos_as_xyz
1 x,y,z
2 1/2+x,1/2-y,1/2+z
3 -x,-y,-z
4 1/2-x,1/2+y,1/2-z
_cell_length_a                   17.1731(14)
_cell_length_b                   5.6224(5)
_cell_length_c                   17.4656(14)
_cell_angle_alpha                90
_cell_angle_beta                 106.595(5)
_cell_angle_gamma                90
_cell_volume                     1616.13
_exptl_crystal_colour            colorless
_exptl_crystal_description       plate
_chemical_melting_point          '111-114 deg.C'
_cell_formula_units_Z            8
loop_
_atom_site_label
_atom_site_type_symbol
_atom_site_fract_x
_atom_site_fract_y
_atom_site_fract_z
O1 O 0.43731(9) 0.7953(3) 0.51567(8)
O2 O 0.47211(9) 0.8573(3) 0.40270(9)
F1 F 0.11296(8) 0.7303(2) 0.25311(7)
F2 F 0.20351(7) 0.5107(2) 0.21882(7)
C1 C 0.37956(13) 0.5519(4) 0.40212(13)
C2 C 0.35649(14) 0.3508(4) 0.45145(14)
C3 C 0.29614(12) 0.5301(4) 0.41277(12)
C4 C 0.23611(13) 0.6898(4) 0.43336(13)
C5 C 0.21276(12) 0.5310(4) 0.36081(11)
C6 C 0.16733(13) 0.5503(4) 0.27772(12)
C7 C 0.14725(14) 0.3499(4) 0.32312(13)
C8 C 0.43207(12) 0.7439(4) 0.44586(12)
H1 H 0.4995(21) 0.9788(60) 0.4289(20)
H2 H 0.3880(12) 0.5096(36) 0.3538(12)
H3 H 0.3498(13) 0.1937(39) 0.4277(12)
H4 H 0.3791(12) 0.3611(37) 0.5095(13)
H5 H 0.2409(13) 0.8586(40) 0.4236(12)
H6 H 0.2163(13) 0.6492(40) 0.4782(13)
H7 H 0.1634(14) 0.1939(43) 0.3140(13)
H8 H 0.0973(16) 0.3605(43) 0.3379(14)
O3 O 1.01974(9) 0.2941(3) 0.43867(8)
O4 O 0.90216(9) 0.3565(3) 0.46753(9)
F3 F 0.75571(8) 0.2079(2) 0.11527(7)
F4 F 0.72047(7) -0.0057(2) 0.20515(7)
C9 C 0.90601(14) 0.0460(4) 0.37929(12)
C10 C 0.9578(2) -0.1527(4) 0.35828(13)
C11 C 0.91786(12) 0.0208(4) 0.29769(11)
C12 C 0.93894(15) 0.1749(4) 0.23664(13)
C13 C 0.86541(12) 0.0147(4) 0.21527(11)
C14 C 0.78093(13) 0.0313(4) 0.17010(12)
C15 C 0.82770(14) -0.1715(4) 0.15247(13)
C16 C 0.94818(13) 0.2416(4) 0.43084(11)
H9 H 0.9310(19) 0.4740(57) 0.5019(18)
H10 H 0.8560(13) 0.0045(35) 0.3856(11)
H11 H 0.9338(13) -0.3121(39) 0.3540(12)
H12 H 1.0165(14) -0.1395(38) 0.3829(12)
H13 H 0.9281(13) 0.3408(39) 0.2365(12)
H14 H 0.9857(14) 0.1274(42) 0.2185(13)
H15 H 0.8415(13) -0.1675(39) 0.1029(13)
H16 H 0.8169(15) -0.3202(47) 0.1710(14)
loop_
_geom_bond_atom_site_label_1
_geom_bond_atom_site_label_2
_geom_bond_site_symmetry_1
_geom_bond_site_symmetry_2
O1 C8 1_555 1_555
O2 C8 1_555 1_555
F1 C6 1_555 1_555
F2 C6 1_555 1_555
C1 C2 1_555 1_555
C2 C3 1_555 1_555
C3 C1 1_555 1_555
C4 C3 1_555 1_555
C5 C3 1_555 1_555
C6 C5 1_555 1_555
C7 C5 1_555 1_555
C8 C1 1_555 1_555
O3 C16 1_555 1_555
O4 C16 1_555 1_555
F3 C14 1_555 1_555
F4 C14 1_555 1_555
C9 C10 1_555 1_555
C10 C11 1_555 1_555
C11 C9 1_555 1_555
C12 C11 1_555 1_555
C13 C11 1_555 1_555
C14 C13 1_555 1_555
C15 C13 1_555 1_555
C16 C9 1_555 1_555
H1 O2 1_555 1_555
H2 C1 1_555 1_555
H3 C2 1_555 1_555
H4 C2 1_555 1_555
H5 C4 1_555 1_555
H6 C4 1_555 1_555
H7 C7 1_555 1_555
H8 C7 1_555 1_555
H9 O4 1_555 1_555
H10 C9 1_555 1_555
H11 C10 1_555 1_555
H12 C10 1_555 1_555
H13 C12 1_555 1_555
H14 C12 1_555 1_555
H15 C15 1_555 1_555
H16 C15 1_555 1_555
C4 C5 1_555 1_555
C6 C7 1_555 1_555
C12 C13 1_555 1_555
C14 C15 1_555 1_555

#END
