
#######################################################################
#
#                 Cambridge Crystallographic Data Centre
#                                CCDC 
#
#######################################################################
#
# If this CIF has been generated from an entry in the Cambridge 
# Structural Database, then it will include bibliographic, chemical, 
# crystal, experimental, refinement or atomic coordinate data resulting 
# from the CCDC's data processing and validation procedures.
#
#######################################################################

data_WOTCUF
_chemical_formula_moiety         'C28 H21 Br1 N4 S1'
_chemical_name_systematic        
5-amino-7-((4-bromophenyl)sulfanyl)-2-methyl-2,4-diphenyl-1,2-dihydro-1,6-naphthyridine-8-carbonitrile
_symmetry_cell_setting           triclinic
_symmetry_space_group_name_H-M   'P -1'
_symmetry_Int_Tables_number      2
_space_group_name_Hall           '-P 1'
loop_
_symmetry_equiv_pos_site_id
_symmetry_equiv_pos_as_xyz
1 x,y,z
2 -x,-y,-z
_cell_length_a                   13.324(5)
_cell_length_b                   15.724(3)
_cell_length_c                   15.911(3)
_cell_angle_alpha                117.772(2)
_cell_angle_beta                 96.406(3)
_cell_angle_gamma                96.427(3)
_cell_volume                     2879.67
_exptl_crystal_colour            colorless
_exptl_crystal_description       cuboid
_cell_formula_units_Z            4
loop_
_atom_site_label
_atom_site_type_symbol
_atom_site_fract_x
_atom_site_fract_y
_atom_site_fract_z
Br1 Br 0.36251(9) 0.13939(9) 0.08023(8)
S1 S 0.76798(17) 0.0775(2) 0.28679(18)
N1 N 0.6351(4) 0.1025(5) 0.4051(4)
N2 N 0.5055(4) 0.1165(5) 0.4879(5)
H1 H 0.4687 0.1183 0.4410
H2 H 0.4789 0.1202 0.5361
N3 N 0.8258(4) 0.0597(4) 0.6008(4)
H3 H 0.8901 0.0626 0.5980
C1 C 0.4820(7) 0.1186(7) 0.1402(6)
C2 C 0.5536(7) 0.1992(7) 0.2061(7)
H4 H 0.5426 0.2616 0.2207
C3 C 0.6411(7) 0.1875(7) 0.2501(7)
H5 H 0.6905 0.2416 0.2941
C4 C 0.6552(7) 0.0934(8) 0.2282(6)
C5 C 0.7269(5) 0.0838(5) 0.3907(5)
C6 C 0.6042(5) 0.1076(5) 0.4859(5)
C7 C 0.6696(5) 0.1028(5) 0.5589(5)
C8 C 0.6470(5) 0.1243(5) 0.6538(5)
C9 C 0.5656(5) 0.1821(5) 0.6949(5)
C10 C 0.5669(5) 0.2728(5) 0.7057(6)
H6 H 0.6190 0.3007 0.6869
C11 C 0.4907(6) 0.3244(6) 0.7448(6)
H7 H 0.4924 0.3871 0.7529
C12 C 0.4140(7) 0.2835(8) 0.7713(7)
H8 H 0.3623 0.3177 0.7959
C13 C 0.7640(5) 0.0751(5) 0.5387(5)
C14 C 0.7881(5) 0.0381(5) 0.6736(5)
C15 C 0.7453(5) -0.0694(5) 0.6330(6)
C16 C 0.7478(6) -0.1368(6) 0.5393(7)
H9 H 0.7764 -0.1171 0.4991
C17 C 0.7071(8) -0.2348(8) 0.5055(9)
H10 H 0.7094 -0.2807 0.4425
C18 C 0.6639(8) -0.2645(9) 0.5635(11)
H11 H 0.6377 -0.3304 0.5399
C19 C 0.6590(8) -0.1997(9) 0.6538(9)
H12 H 0.6287 -0.2200 0.6929
C20 C 0.6996(7) -0.1017(7) 0.6888(6)
H13 H 0.6958 -0.0567 0.7517
C21 C 0.7060(5) 0.0989(5) 0.7088(6)
H14 H 0.6961 0.1195 0.7718
C22 C 0.4881(6) 0.1415(6) 0.7249(6)
H15 H 0.4880 0.0801 0.7197
C23 C 0.4118(7) 0.1919(8) 0.7620(8)
H16 H 0.3593 0.1643 0.7807
C24 C 0.8794(6) 0.0707(7) 0.7559(6)
H17 H 0.9302 0.0309 0.7329
H18 H 0.8564 0.0639 0.8079
H19 H 0.9088 0.1380 0.7787
C25 C 0.7934(5) 0.0657(5) 0.4531(5)
C26 C 0.8881(6) 0.0340(6) 0.4270(6)
N4 N 0.9620(6) 0.0078(7) 0.4083(6)
C27 C 0.5802(8) 0.0118(7) 0.1592(7)
H20 H 0.5892 -0.0512 0.1439
C28 C 0.4956(7) 0.0259(7) 0.1156(7)
H21 H 0.4470 -0.0274 0.0691
Br2 Br 1.05642(11) 0.12875(14) 1.20055(15)
S2 S 0.67438(16) 0.26518(18) 1.0501(2)
N5 N 0.6870(4) 0.4988(4) 0.9071(4)
H22 H 0.6235 0.4999 0.9119
C29 C 0.6867(5) 0.3917(5) 0.9774(5)
N6 N 0.8291(4) 0.3128(4) 0.9781(4)
N7 N 0.9741(4) 0.3453(5) 0.9312(5)
H23 H 0.9998 0.3102 0.9534
H24 H 1.0109 0.3719 0.9056
N8 N 0.5197(5) 0.4321(6) 1.0423(6)
C30 C 0.8736(6) 0.8507(7) 1.1134(10)
H25 H 0.9006 0.9139 1.1628
C31 C 0.8234(7) 0.7837(8) 1.1335(7)
H26 H 0.8185 0.8000 1.1969
C32 C 0.7789(6) 0.6890(6) 1.0567(6)
H27 H 0.7442 0.6431 1.0698
C33 C 0.7866(5) 0.6646(5) 0.9638(6)
C34 C 0.7382(5) 0.5630(5) 0.8765(5)
C35 C 0.7339(5) 0.4366(5) 0.9289(5)
C36 C 0.7376(5) 0.3284(5) 0.9959(5)
C37 C 0.7801(6) 0.2279(6) 1.0915(7)
C38 C 0.8451(8) 0.2923(8) 1.1787(8)
H28 H 0.8324 0.3550 1.2155
C39 C 0.9285(8) 0.2636(9) 1.2107(8)
H29 H 0.9747 0.3075 1.2671
C40 C 0.9424(8) 0.1667(10) 1.1566(10)
C41 C 0.8759(5) 0.3584(5) 0.9367(5)
C42 C 0.8276(5) 0.4155(5) 0.9023(5)
C43 C 0.8839(7) 0.8247(8) 1.0209(10)
H30 H 0.9206 0.8698 1.0079
C44 C 0.8419(6) 0.7353(6) 0.9484(7)
H31 H 0.8499 0.7198 0.8858
C45 C 0.6593(6) 0.5764(6) 0.8083(6)
H32 H 0.6298 0.5139 0.7532
H33 H 0.6924 0.6185 0.7872
H34 H 0.6060 0.6051 0.8416
C46 C 0.8223(5) 0.5175(5) 0.8258(6)
H35 H 0.8447 0.5357 0.7822
C47 C 0.8667(5) 0.4516(5) 0.8406(5)
C48 C 0.9502(5) 0.4106(5) 0.7872(6)
C49 C 0.9351(6) 0.3121(6) 0.7180(6)
H36 H 0.8715 0.2722 0.7030
C50 C 1.0127(8) 0.2733(6) 0.6719(7)
H37 H 1.0018 0.2080 0.6246
C51 C 1.1093(9) 0.3339(9) 0.6972(9)
H38 H 1.1632 0.3071 0.6685
C52 C 1.1255(7) 0.4311(8) 0.7629(8)
H39 H 1.1889 0.4713 0.7781
C53 C 1.0427(6) 0.4683(7) 0.8067(7)
H40 H 1.0517 0.5347 0.8505
C54 C 0.5933(6) 0.4153(5) 1.0137(6)
C55 C 0.7971(7) 0.1339(8) 1.0409(8)
H41 H 0.7529 0.0898 0.9832
C56 C 0.8784(9) 0.1041(9) 1.0742(11)
H42 H 0.8888 0.0403 1.0392
loop_
_geom_bond_atom_site_label_1
_geom_bond_atom_site_label_2
_geom_bond_site_symmetry_1
_geom_bond_site_symmetry_2
Br1 C1 1_555 1_555
S1 C4 1_555 1_555
N1 C5 1_555 1_555
N2 H1 1_555 1_555
H2 N2 1_555 1_555
N3 H3 1_555 1_555
C1 C2 1_555 1_555
C2 H4 1_555 1_555
C3 C2 1_555 1_555
H5 C3 1_555 1_555
C4 C3 1_555 1_555
C5 S1 1_555 1_555
C6 N1 1_555 1_555
C7 C6 1_555 1_555
C8 C7 1_555 1_555
C9 C8 1_555 1_555
C10 C9 1_555 1_555
H6 C10 1_555 1_555
C11 C10 1_555 1_555
H7 C11 1_555 1_555
C12 C11 1_555 1_555
H8 C12 1_555 1_555
C13 N3 1_555 1_555
C14 N3 1_555 1_555
C15 C14 1_555 1_555
C16 C15 1_555 1_555
H9 C16 1_555 1_555
C17 C16 1_555 1_555
H10 C17 1_555 1_555
C18 C17 1_555 1_555
H11 C18 1_555 1_555
C19 C18 1_555 1_555
H12 C19 1_555 1_555
C20 C15 1_555 1_555
H13 C20 1_555 1_555
C21 C8 1_555 1_555
H14 C21 1_555 1_555
C22 C9 1_555 1_555
H15 C22 1_555 1_555
C23 C12 1_555 1_555
H16 C23 1_555 1_555
C24 C14 1_555 1_555
H17 C24 1_555 1_555
H18 C24 1_555 1_555
H19 C24 1_555 1_555
C25 C5 1_555 1_555
C26 C25 1_555 1_555
N4 C26 1_555 1_555
C27 C4 1_555 1_555
H20 C27 1_555 1_555
C28 C1 1_555 1_555
H21 C28 1_555 1_555
Br2 C40 1_555 1_555
S2 C36 1_555 1_555
N5 H22 1_555 1_555
C29 C35 1_555 1_555
N6 C36 1_555 1_555
N7 H23 1_555 1_555
H24 N7 1_555 1_555
N8 C54 1_555 1_555
C30 H25 1_555 1_555
C31 C30 1_555 1_555
H26 C31 1_555 1_555
C32 C31 1_555 1_555
H27 C32 1_555 1_555
C33 C32 1_555 1_555
C34 N5 1_555 1_555
C35 N5 1_555 1_555
C36 C29 1_555 1_555
C37 S2 1_555 1_555
C38 C37 1_555 1_555
H28 C38 1_555 1_555
C39 C38 1_555 1_555
H29 C39 1_555 1_555
C40 C39 1_555 1_555
C41 N6 1_555 1_555
C42 C35 1_555 1_555
C43 C30 1_555 1_555
H30 C43 1_555 1_555
C44 C33 1_555 1_555
H31 C44 1_555 1_555
C45 C34 1_555 1_555
H32 C45 1_555 1_555
H33 C45 1_555 1_555
H34 C45 1_555 1_555
C46 C34 1_555 1_555
H35 C46 1_555 1_555
C47 C42 1_555 1_555
C48 C47 1_555 1_555
C49 C48 1_555 1_555
H36 C49 1_555 1_555
C50 C49 1_555 1_555
H37 C50 1_555 1_555
C51 C50 1_555 1_555
H38 C51 1_555 1_555
C52 C51 1_555 1_555
H39 C52 1_555 1_555
C53 C48 1_555 1_555
H40 C53 1_555 1_555
C54 C29 1_555 1_555
C55 C37 1_555 1_555
H41 C55 1_555 1_555
C56 C40 1_555 1_555
H42 C56 1_555 1_555
N2 C6 1_555 1_555
C7 C13 1_555 1_555
C13 C25 1_555 1_555
C14 C21 1_555 1_555
C19 C20 1_555 1_555
C22 C23 1_555 1_555
C27 C28 1_555 1_555
N7 C41 1_555 1_555
C33 C34 1_555 1_555
C41 C42 1_555 1_555
C43 C44 1_555 1_555
C46 C47 1_555 1_555
C52 C53 1_555 1_555
C55 C56 1_555 1_555

#END
