
#######################################################################
#
#                 Cambridge Crystallographic Data Centre
#                                CCDC 
#
#######################################################################
#
# If this CIF has been generated from an entry in the Cambridge 
# Structural Database, then it will include bibliographic, chemical, 
# crystal, experimental, refinement or atomic coordinate data resulting 
# from the CCDC's data processing and validation procedures.
#
#######################################################################

data_WOTQIH
_chemical_name_common            
'Ethyl 5-methoxy-9-methyl-11-oxo-8-oxa-10,12-diazatricyclo[7.3.1.0$2,7!]trideca-2,4,6-triene-13-carboxylate'
_chemical_formula_moiety         'C15 H18 N2 O5'
_chemical_name_systematic        
'(2S)-ethyl-9-methoxy-2-methyl-4-oxo-3,4,5,6-tetrahydro-2H-2,6-methanobenzo[g] [1,3,5]oxadiazocine-11-carboxylate'
_symmetry_cell_setting           monoclinic
_symmetry_space_group_name_H-M   'P 21'
_symmetry_Int_Tables_number      4
_space_group_name_Hall           'P 2yb'
loop_
_symmetry_equiv_pos_site_id
_symmetry_equiv_pos_as_xyz
1 x,y,z
2 -x,1/2+y,-z
_cell_length_a                   9.6982(14)
_cell_length_b                   7.4802(12)
_cell_length_c                   10.8293(17)
_cell_angle_alpha                90
_cell_angle_beta                 111.252(5)
_cell_angle_gamma                90
_cell_volume                     732.181
_exptl_crystal_colour            colorless
_exptl_crystal_description       block
_cell_formula_units_Z            2
loop_
_atom_site_label
_atom_site_type_symbol
_atom_site_fract_x
_atom_site_fract_y
_atom_site_fract_z
C1 C 0.9053(5) 0.2379(7) 0.5750(5)
C2 C 0.8132(5) 0.0956(7) 0.5239(5)
H1 H 0.8430 -0.0198 0.5535
C3 C 0.6753(5) 0.1257(6) 0.4278(4)
C4 C 0.6293(5) 0.2978(6) 0.3837(4)
C5 C 0.7245(6) 0.4362(6) 0.4375(5)
H2 H 0.6948 0.5519 0.4085
C6 C 0.8629(6) 0.4105(7) 0.5331(5)
H3 H 0.9257 0.5066 0.5682
C7 C 0.4765(5) 0.3254(6) 0.2807(4)
H4 H 0.4353 0.4379 0.2984
C8 C 0.4926(4) 0.1772(6) 0.0871(4)
C9 C 0.4544(5) 0.0033(6) 0.2670(4)
C10 C 0.3772(4) 0.1706(6) 0.2878(4)
H5 H 0.3722 0.1671 0.3765
C11 C 0.2243(5) 0.2001(7) 0.1873(5)
C12 C 0.0178(7) 0.3958(9) 0.1308(6)
H6 H 0.0121 0.3701 0.0413
H7 H 0.0123 0.5244 0.1396
C13 C -0.1071(7) 0.3110(11) 0.1540(7)
H8 H -0.1119 0.1870 0.1299
H9 H -0.1974 0.3693 0.1011
H10 H -0.0937 0.3212 0.2460
C14 C 0.3703(5) -0.1689(6) 0.2594(5)
H11 H 0.2826 -0.1685 0.1810
H12 H 0.3432 -0.1792 0.3361
H13 H 0.4316 -0.2683 0.2564
C15 C 1.1301(7) 0.3274(10) 0.7503(6)
H14 H 1.1513 0.4157 0.6953
H15 H 1.2209 0.2756 0.8085
H16 H 1.0794 0.3828 0.8017
N1 N 0.4778(4) 0.3287(5) 0.1464(3)
H17 H 0.4690 0.4288 0.1051
N2 N 0.4908(4) 0.0226(4) 0.1509(3)
H18 H 0.5136 -0.0733 0.1187
O1 O 0.5875(3) -0.0211(4) 0.3833(3)
O2 O 0.5039(3) 0.1774(4) -0.0236(3)
O3 O 0.1709(4) 0.1240(6) 0.0862(4)
O4 O 0.1593(4) 0.3304(6) 0.2256(4)
O5 O 1.0392(4) 0.1917(6) 0.6693(4)
loop_
_geom_bond_atom_site_label_1
_geom_bond_atom_site_label_2
_geom_bond_site_symmetry_1
_geom_bond_site_symmetry_2
C1 C2 1_555 1_555
C2 H1 1_555 1_555
C3 C2 1_555 1_555
C4 C3 1_555 1_555
C5 C4 1_555 1_555
H2 C5 1_555 1_555
C6 C1 1_555 1_555
H3 C6 1_555 1_555
C7 C4 1_555 1_555
H4 C7 1_555 1_555
C8 N1 1_555 1_555
C9 C10 1_555 1_555
C10 C7 1_555 1_555
H5 C10 1_555 1_555
C11 C10 1_555 1_555
C12 H6 1_555 1_555
H7 C12 1_555 1_555
C13 C12 1_555 1_555
H8 C13 1_555 1_555
H9 C13 1_555 1_555
H10 C13 1_555 1_555
C14 C9 1_555 1_555
H11 C14 1_555 1_555
H12 C14 1_555 1_555
H13 C14 1_555 1_555
C15 H14 1_555 1_555
H15 C15 1_555 1_555
H16 C15 1_555 1_555
N1 C7 1_555 1_555
H17 N1 1_555 1_555
N2 C8 1_555 1_555
H18 N2 1_555 1_555
O1 C3 1_555 1_555
O2 C8 1_555 1_555
O3 C11 1_555 1_555
O4 C11 1_555 1_555
O5 C1 1_555 1_555
C5 C6 1_555 1_555
C9 N2 1_555 1_555
C9 O1 1_555 1_555
C12 O4 1_555 1_555
C15 O5 1_555 1_555

#END
