
#######################################################################
#
#                 Cambridge Crystallographic Data Centre
#                                CCDC 
#
#######################################################################
#
# If this CIF has been generated from an entry in the Cambridge 
# Structural Database, then it will include bibliographic, chemical, 
# crystal, experimental, refinement or atomic coordinate data resulting 
# from the CCDC's data processing and validation procedures.
#
#######################################################################

data_WOVCUF
_chemical_formula_moiety         'C14 H13 N1 S4'
_chemical_name_systematic        
4,4',5-Trimethyl-5'-(pyrid-4-yl)tetrathiafulvalene
_symmetry_cell_setting           monoclinic
_symmetry_space_group_name_H-M   'P 21/n'
_symmetry_Int_Tables_number      14
_space_group_name_Hall           '-P 2yn'
loop_
_symmetry_equiv_pos_site_id
_symmetry_equiv_pos_as_xyz
1 x,y,z
2 1/2+x,1/2-y,1/2+z
3 -x,-y,-z
4 1/2-x,1/2+y,1/2-z
_cell_length_a                   7.207(2)
_cell_length_b                   5.917(2)
_cell_length_c                   35.263(18)
_cell_angle_alpha                90
_cell_angle_beta                 94.01(1)
_cell_angle_gamma                90
_cell_volume                     1500.07
_exptl_crystal_colour            orange
_exptl_crystal_description       plate
_chemical_melting_point          '123 deg.C'
_cell_formula_units_Z            4
_exptl_crystal_recrystallization_method acetonitrile
loop_
_atom_site_label
_atom_site_type_symbol
_atom_site_fract_x
_atom_site_fract_y
_atom_site_fract_z
S1 S 0.42945(10) 0.4098(2) 0.13673(2)
S2 S 0.03342(11) 0.4941(2) 0.11437(2)
S3 S 0.54329(11) 0.8397(2) 0.08420(2)
S4 S 0.14505(12) 0.9180(2) 0.06257(2)
N1 N 0.4969(4) -0.2318(6) 0.24180(8)
C1 C 0.2660(4) 0.5791(6) 0.11027(8)
C2 C 0.2633(4) 0.2442(6) 0.15903(8)
C3 C 0.0827(4) 0.2827(6) 0.14843(8)
C4 C 0.3118(4) 0.7540(6) 0.08901(9)
C5 C 0.4862(5) 1.0736(6) 0.05464(9)
C6 C 0.3055(5) 1.1095(6) 0.04489(9)
C7 C 0.3405(4) 0.0793(6) 0.18766(8)
C8 C 0.2578(4) -0.1294(6) 0.19344(9)
H1 H 0.1553(44) -0.1834(58) 0.1762(9)
C9 C 0.3401(5) -0.2754(7) 0.22039(9)
H2 H 0.2878(46) -0.4159(68) 0.2228(9)
C10 C 0.5737(5) -0.0289(7) 0.23609(10)
H3 H 0.6790(45) -0.0060(62) 0.2498(9)
C11 C 0.5022(4) 0.1301(6) 0.21025(9)
H4 H 0.5570(41) 0.2661(61) 0.2079(8)
C12 C -0.0855(5) 0.1677(9) 0.16247(11)
H5 H -0.1834(54) 0.2683(73) 0.1597(10)
H6 H -0.0625(49) 0.1148(69) 0.1893(11)
H7 H -0.1277(61) 0.0240(87) 0.1453(13)
C13 C 0.6469(6) 1.2154(8) 0.04374(12)
H8 H 0.6973(64) 1.1769(93) 0.0216(15)
H9 H 0.7470(83) 1.195(11) 0.0605(17)
H10 H 0.6072(95) 1.378(14) 0.0440(20)
C14 C 0.2239(7) 1.2958(8) 0.02005(12)
H11 H 0.1299(73) 1.383(10) 0.0339(15)
H12 H 0.1662(74) 1.247(10) -0.0004(16)
H13 H 0.2977(84) 1.408(12) 0.0167(17)
loop_
_geom_bond_atom_site_label_1
_geom_bond_atom_site_label_2
_geom_bond_site_symmetry_1
_geom_bond_site_symmetry_2
S1 C1 1_555 1_555
S2 C1 1_555 1_555
S3 C4 1_555 1_555
S4 C4 1_555 1_555
N1 C9 1_555 1_555
C1 C4 1_555 1_555
C2 S1 1_555 1_555
C3 S2 1_555 1_555
C5 S3 1_555 1_555
C6 S4 1_555 1_555
C7 C2 1_555 1_555
C8 C7 1_555 1_555
H1 C8 1_555 1_555
C9 C8 1_555 1_555
H2 C9 1_555 1_555
C10 N1 1_555 1_555
H3 C10 1_555 1_555
C11 C7 1_555 1_555
H4 C11 1_555 1_555
C12 C3 1_555 1_555
H5 C12 1_555 1_555
H6 C12 1_555 1_555
H7 C12 1_555 1_555
C13 C5 1_555 1_555
H8 C13 1_555 1_555
H9 C13 1_555 1_555
H10 C13 1_555 1_555
C14 C6 1_555 1_555
H11 C14 1_555 1_555
H12 C14 1_555 1_555
H13 C14 1_555 1_555
C2 C3 1_555 1_555
C5 C6 1_555 1_555
C10 C11 1_555 1_555

#END
