
#######################################################################
#
#                 Cambridge Crystallographic Data Centre
#                                CCDC 
#
#######################################################################
#
# If this CIF has been generated from an entry in the Cambridge 
# Structural Database, then it will include bibliographic, chemical, 
# crystal, experimental, refinement or atomic coordinate data resulting 
# from the CCDC's data processing and validation procedures.
#
#######################################################################

data_WOVDAM
_chemical_formula_moiety         'C15 H16 N1 S4 1+,I1 1-'
_chemical_name_systematic        
"4,4',5-Trimethyl-5'-(N-methylpyridinium-4-yl)tetrathiafulvalene iodide"
_symmetry_cell_setting           monoclinic
_symmetry_space_group_name_H-M   'P 21/c'
_symmetry_Int_Tables_number      14
_space_group_name_Hall           '-P 2ybc'
loop_
_symmetry_equiv_pos_site_id
_symmetry_equiv_pos_as_xyz
1 x,y,z
2 x,1/2-y,1/2+z
3 -x,-y,-z
4 -x,1/2+y,1/2-z
_cell_length_a                   19.471(3)
_cell_length_b                   5.877(1)
_cell_length_c                   17.141(2)
_cell_angle_alpha                90
_cell_angle_beta                 116.05(1)
_cell_angle_gamma                90
_cell_volume                     1762.2
_exptl_crystal_colour            purple
_exptl_crystal_description       plate
_chemical_melting_point          'above 250 deg.C'
_cell_formula_units_Z            4
_exptl_crystal_recrystallization_method methanol
loop_
_atom_site_label
_atom_site_type_symbol
_atom_site_fract_x
_atom_site_fract_y
_atom_site_fract_z
I1 I 0.122659(12) 0.80692(3) 0.475719(14)
S1 S 0.24077(4) 0.71825(12) 0.23738(5)
S2 S 0.33992(4) 0.75390(13) 0.42492(5)
S3 S 0.32547(4) 1.14962(12) 0.20015(5)
S4 S 0.42892(4) 1.18745(12) 0.38672(5)
N1 N 0.06877(13) -0.0121(4) 0.17356(16)
C1 C 0.31587(16) 0.8643(5) 0.32077(19)
C2 C 0.22889(15) 0.5111(5) 0.30643(18)
C3 C 0.27444(15) 0.5292(5) 0.39186(19)
C4 C 0.35157(15) 1.0424(5) 0.30491(18)
C5 C 0.38920(16) 1.3826(5) 0.2325(2)
C6 C 0.43638(15) 1.3989(5) 0.31754(19)
C7 C 0.17180(15) 0.3334(5) 0.26197(19)
C8 C 0.14314(17) 0.1841(5) 0.3048(2)
H1 H 0.160(2) 0.192(7) 0.361(3)
C9 C 0.09325(16) 0.0130(5) 0.2598(2)
H2 H 0.075(2) -0.089(7) 0.288(3)
C10 C 0.09205(15) 0.1345(5) 0.1292(2)
H3 H 0.072(2) 0.119(7) 0.071(3)
C11 C 0.14309(15) 0.3050(5) 0.1713(2)
H4 H 0.159(2) 0.397(8) 0.140(3)
C12 C 0.01547(17) -0.2012(5) 0.1268(2)
H5 H 0.0185(11) -0.320(3) 0.1695(10)
H6 H 0.0300(10) -0.268(3) 0.0828(15)
H7 H -0.0378(13) -0.1416(17) 0.0972(16)
C13 C 0.27955(17) 0.3782(5) 0.4655(2)
H8 H 0.2378(14) 0.410(3) 0.4791(13)
H9 H 0.3268(15) 0.406(3) 0.5156(15)
H10 H 0.2774(16) 0.222(4) 0.4486(8)
C14 C 0.38326(19) 1.5403(5) 0.1610(2)
H11 H 0.4126(16) 1.667(4) 0.1844(7)
H12 H 0.3333(15) 1.583(4) 0.1294(15)
H13 H 0.4001(16) 1.467(3) 0.1254(15)
C15 C 0.49621(17) 1.5774(6) 0.3606(2)
H14 H 0.4861(13) 1.707(5) 0.3226(16)
H15 H 0.5460(16) 1.516(3) 0.373(2)
H16 H 0.4951(15) 1.624(5) 0.414(2)
loop_
_geom_bond_atom_site_label_1
_geom_bond_atom_site_label_2
_geom_bond_site_symmetry_1
_geom_bond_site_symmetry_2
S1 C1 1_555 1_555
S2 C1 1_555 1_555
S3 C4 1_555 1_555
S4 C4 1_555 1_555
N1 C9 1_555 1_555
C1 C4 1_555 1_555
C2 S1 1_555 1_555
C3 S2 1_555 1_555
C5 S3 1_555 1_555
C6 S4 1_555 1_555
C7 C2 1_555 1_555
C8 C7 1_555 1_555
H1 C8 1_555 1_555
C9 C8 1_555 1_555
H2 C9 1_555 1_555
C10 N1 1_555 1_555
H3 C10 1_555 1_555
C11 C7 1_555 1_555
H4 C11 1_555 1_555
C12 N1 1_555 1_555
H5 C12 1_555 1_555
H6 C12 1_555 1_555
H7 C12 1_555 1_555
C13 C3 1_555 1_555
H8 C13 1_555 1_555
H9 C13 1_555 1_555
H10 C13 1_555 1_555
C14 C5 1_555 1_555
H11 C14 1_555 1_555
H12 C14 1_555 1_555
H13 C14 1_555 1_555
C15 C6 1_555 1_555
H14 C15 1_555 1_555
H15 C15 1_555 1_555
H16 C15 1_555 1_555
C2 C3 1_555 1_555
C5 C6 1_555 1_555
C10 C11 1_555 1_555

#END
