
#######################################################################
#
#                 Cambridge Crystallographic Data Centre
#                                CCDC 
#
#######################################################################
#
# If this CIF has been generated from an entry in the Cambridge 
# Structural Database, then it will include bibliographic, chemical, 
# crystal, experimental, refinement or atomic coordinate data resulting 
# from the CCDC's data processing and validation procedures.
#
#######################################################################

data_WOVLIE
_chemical_formula_moiety         'C30 H26 N1 O2 P1'
_chemical_name_systematic        
3-((diphenylphosphoryl)methylene)-1-methyl-N-phenylindane-1-carboxamide
_symmetry_cell_setting           triclinic
_symmetry_space_group_name_H-M   'P -1'
_symmetry_Int_Tables_number      2
_space_group_name_Hall           '-P 1'
loop_
_symmetry_equiv_pos_site_id
_symmetry_equiv_pos_as_xyz
1 x,y,z
2 -x,-y,-z
_cell_length_a                   12.6239(3)
_cell_length_b                   12.67400(19)
_cell_length_c                   16.6065(3)
_cell_angle_alpha                96.2096(14)
_cell_angle_beta                 92.8343(16)
_cell_angle_gamma                109.7274(16)
_cell_volume                     2475.84
_exptl_crystal_colour            colorless
_exptl_crystal_description       prism
_cell_formula_units_Z            4
loop_
_atom_site_label
_atom_site_type_symbol
_atom_site_fract_x
_atom_site_fract_y
_atom_site_fract_z
P1 P 0.68609(3) 0.22827(3) 0.49430(2)
O1 O 0.09934(11) 0.01597(12) 0.27982(8)
O2 O 0.68614(9) 0.18958(8) 0.57618(6)
N1 N 0.14934(11) -0.12121(12) 0.33093(8)
H1 H 0.1998(16) -0.1361(15) 0.3599(11)
C1 C 0.04924(15) -0.21593(17) 0.30807(10)
C2 C 0.0517(2) -0.3201(2) 0.32587(16)
H2 H 0.1186 -0.3249 0.3515
C3 C -0.0435(3) -0.4171(3) 0.30618(19)
H3 H -0.0413 -0.4881 0.3181
C4 C -0.1404(3) -0.4103(3) 0.26958(17)
H4 H -0.2061 -0.4760 0.2576
C5 C -0.1424(2) -0.3075(3) 0.25009(16)
H5 H -0.2095 -0.3034 0.2242
C6 C -0.04764(16) -0.2101(2) 0.26797(12)
H6 H -0.0490 -0.1403 0.2530
C7 C 0.16880(13) -0.01357(14) 0.31656(9)
C8 C 0.28260(12) 0.07388(12) 0.35120(8)
C9 C 0.30095(14) 0.18251(14) 0.31196(9)
H7 H 0.3735 0.2395 0.3344
H8 H 0.2397 0.2115 0.3235
H9 H 0.3014 0.1657 0.2530
C10 C 0.38866(11) 0.03946(11) 0.34329(8)
H10 H 0.3692 -0.0430 0.3434
H11 H 0.4233 0.0605 0.2925
C11 C 0.46800(11) 0.10507(11) 0.41748(8)
C12 C 0.39536(11) 0.12555(11) 0.47981(8)
C13 C 0.28659(12) 0.10268(11) 0.44295(8)
C14 C 0.20113(13) 0.11632(12) 0.48744(9)
H12 H 0.1273 0.0997 0.4619
C15 C 0.22550(13) 0.15474(13) 0.57013(9)
H13 H 0.1681 0.1655 0.6014
C16 C 0.33314(13) 0.17750(13) 0.60748(9)
H14 H 0.3485 0.2037 0.6641
C17 C 0.41891(13) 0.16242(12) 0.56319(9)
H15 H 0.4921 0.1769 0.5892
C18 C 0.58086(12) 0.13903(11) 0.41722(8)
H16 H 0.6083 0.1121 0.3699
C19 C 0.81652(12) 0.24106(12) 0.44989(8)
C20 C 0.90310(14) 0.34374(14) 0.45066(11)
H17 H 0.8922 0.4122 0.4705
C21 C 1.00568(15) 0.34662(17) 0.42251(13)
H18 H 1.0652 0.4169 0.4237
C22 C 1.02105(14) 0.24787(17) 0.39300(11)
H19 H 1.0913 0.2504 0.3735
C23 C 0.93596(14) 0.14544(15) 0.39133(10)
H20 H 0.9473 0.0776 0.3706
C24 C 0.83373(13) 0.14135(13) 0.41987(9)
H21 H 0.7750 0.0705 0.4190
C25 C 0.67183(12) 0.36582(11) 0.50164(9)
C26 C 0.66863(14) 0.42146(13) 0.57768(10)
H22 H 0.6741 0.3872 0.6251
C27 C 0.65740(17) 0.52727(14) 0.58450(12)
H23 H 0.6548 0.5650 0.6366
C28 C 0.65008(16) 0.57755(14) 0.51618(12)
H24 H 0.6424 0.6499 0.5211
C29 C 0.65387(19) 0.52330(16) 0.44068(12)
H25 H 0.6493 0.5585 0.3936
C30 C 0.66438(17) 0.41740(14) 0.43302(11)
H26 H 0.6665 0.3800 0.3807
P2 P 0.80306(3) 0.77947(3) 0.96404(2)
O3 O 1.35105(9) 0.91922(9) 0.77168(7)
O4 O 0.80509(10) 0.84285(9) 1.04542(7)
N2 N 1.33049(11) 1.06592(10) 0.85293(8)
H27 H 1.2878(16) 1.0848(15) 0.8873(11)
C31 C 1.42816(12) 1.15487(12) 0.83823(8)
C32 C 1.49274(12) 1.14796(12) 0.77401(9)
H28 H 1.4731 1.0800 0.7372
C33 C 1.58630(13) 1.24058(13) 0.76359(9)
H29 H 1.6296 1.2355 0.7191
C34 C 1.61693(16) 1.33828(15) 0.81590(11)
H30 H 1.6803 1.4014 0.8076
C35 C 1.55467(19) 1.34461(16) 0.88131(12)
H31 H 1.5765 1.4119 0.9190
C36 C 1.46123(17) 1.25406(15) 0.89216(11)
H32 H 1.4189 1.2596 0.9371
C37 C 1.29782(12) 0.95614(12) 0.81973(8)
C38 C 1.18846(12) 0.87750(11) 0.84785(8)
C39 C 1.16117(13) 0.75736(12) 0.80311(9)
H33 H 1.0891 0.7078 0.8185
H34 H 1.2213 0.7285 0.8180
H35 H 1.1557 0.7593 0.7442
C40 C 1.08611(12) 0.91795(12) 0.83605(8)
H36 H 1.1114 1.0014 0.8402
H37 H 1.0432 0.8849 0.7824
C41 C 1.01476(12) 0.87604(11) 0.90435(8)
C42 C 1.09258(12) 0.86686(11) 0.97006(8)
C43 C 1.19542(12) 0.87287(11) 0.93930(8)
C44 C 1.28429(13) 0.86698(13) 0.98866(9)
H38 H 1.3535 0.8700 0.9672
C45 C 1.27029(14) 0.85657(14) 1.07032(10)
H39 H 1.3306 0.8529 1.1051
C46 C 1.16869(14) 0.85151(14) 1.10141(9)
H40 H 1.1605 0.8445 1.1573
C47 C 1.07913(13) 0.85659(12) 1.05221(9)
H41 H 1.0100 0.8532 1.0739
C48 C 0.90225(12) 0.84867(12) 0.89726(9)
H42 H 0.8713 0.8688 0.8505
C49 C 0.82072(14) 0.64547(13) 0.97233(10)
C50 C 0.87012(15) 0.59381(14) 0.91541(12)
H43 H 0.8959 0.6287 0.8688
C51 C 0.88223(18) 0.49086(16) 0.92606(16)
H44 H 0.9168 0.4561 0.8869
C52 C 0.8447(2) 0.43969(18) 0.99237(18)
H45 H 0.8536 0.3697 0.9996
C53 C 0.7944(3) 0.4889(2) 1.04817(17)
H46 H 0.7673 0.4523 1.0939
C54 C 0.7823(2) 0.59176(17) 1.03913(13)
H47 H 0.7477 0.6256 1.0788
C55 C 0.66945(13) 0.74841(13) 0.90512(9)
C56 C 0.61239(15) 0.64589(16) 0.85762(12)
H48 H 0.6424 0.5864 0.8558
C57 C 0.51073(18) 0.6301(2) 0.81246(15)
H49 H 0.4708 0.5595 0.7805
C58 C 0.46839(17) 0.7174(3) 0.81440(15)
H50 H 0.3993 0.7067 0.7835
C59 C 0.52550(19) 0.8200(2) 0.86070(13)
H51 H 0.4963 0.8800 0.8612
C60 C 0.62492(16) 0.83543(18) 0.90625(11)
H52 H 0.6636 0.9059 0.9387
loop_
_geom_bond_atom_site_label_1
_geom_bond_atom_site_label_2
_geom_bond_site_symmetry_1
_geom_bond_site_symmetry_2
P1 O2 1_555 1_555
O1 C7 1_555 1_555
N1 H1 1_555 1_555
C1 N1 1_555 1_555
C2 C1 1_555 1_555
H2 C2 1_555 1_555
C3 C2 1_555 1_555
H3 C3 1_555 1_555
C4 C3 1_555 1_555
H4 C4 1_555 1_555
C5 C4 1_555 1_555
H5 C5 1_555 1_555
C6 C1 1_555 1_555
H6 C6 1_555 1_555
C7 N1 1_555 1_555
C8 C7 1_555 1_555
C9 C8 1_555 1_555
H7 C9 1_555 1_555
H8 C9 1_555 1_555
H9 C9 1_555 1_555
C10 C8 1_555 1_555
H10 C10 1_555 1_555
H11 C10 1_555 1_555
C11 C10 1_555 1_555
C12 C11 1_555 1_555
C13 C8 1_555 1_555
C14 C13 1_555 1_555
H12 C14 1_555 1_555
C15 C14 1_555 1_555
H13 C15 1_555 1_555
C16 C15 1_555 1_555
H14 C16 1_555 1_555
C17 C12 1_555 1_555
H15 C17 1_555 1_555
C18 P1 1_555 1_555
H16 C18 1_555 1_555
C19 P1 1_555 1_555
C20 C19 1_555 1_555
H17 C20 1_555 1_555
C21 C20 1_555 1_555
H18 C21 1_555 1_555
C22 C21 1_555 1_555
H19 C22 1_555 1_555
C23 C22 1_555 1_555
H20 C23 1_555 1_555
C24 C19 1_555 1_555
H21 C24 1_555 1_555
C25 P1 1_555 1_555
C26 C25 1_555 1_555
H22 C26 1_555 1_555
C27 C26 1_555 1_555
H23 C27 1_555 1_555
C28 C27 1_555 1_555
H24 C28 1_555 1_555
C29 C28 1_555 1_555
H25 C29 1_555 1_555
C30 C25 1_555 1_555
H26 C30 1_555 1_555
P2 O4 1_555 1_555
O3 C37 1_555 1_555
N2 H27 1_555 1_555
C31 N2 1_555 1_555
C32 C31 1_555 1_555
H28 C32 1_555 1_555
C33 C32 1_555 1_555
H29 C33 1_555 1_555
C34 C33 1_555 1_555
H30 C34 1_555 1_555
C35 C34 1_555 1_555
H31 C35 1_555 1_555
C36 C31 1_555 1_555
H32 C36 1_555 1_555
C37 N2 1_555 1_555
C38 C37 1_555 1_555
C39 C38 1_555 1_555
H33 C39 1_555 1_555
H34 C39 1_555 1_555
H35 C39 1_555 1_555
C40 C38 1_555 1_555
H36 C40 1_555 1_555
H37 C40 1_555 1_555
C41 C40 1_555 1_555
C42 C41 1_555 1_555
C43 C38 1_555 1_555
C44 C43 1_555 1_555
H38 C44 1_555 1_555
C45 C44 1_555 1_555
H39 C45 1_555 1_555
C46 C45 1_555 1_555
H40 C46 1_555 1_555
C47 C42 1_555 1_555
H41 C47 1_555 1_555
C48 P2 1_555 1_555
H42 C48 1_555 1_555
C49 P2 1_555 1_555
C50 C49 1_555 1_555
H43 C50 1_555 1_555
C51 C50 1_555 1_555
H44 C51 1_555 1_555
C52 C51 1_555 1_555
H45 C52 1_555 1_555
C53 C52 1_555 1_555
H46 C53 1_555 1_555
C54 C49 1_555 1_555
H47 C54 1_555 1_555
C55 P2 1_555 1_555
C56 C55 1_555 1_555
H48 C56 1_555 1_555
C57 C56 1_555 1_555
H49 C57 1_555 1_555
C58 C57 1_555 1_555
H50 C58 1_555 1_555
C59 C58 1_555 1_555
H51 C59 1_555 1_555
C60 C55 1_555 1_555
H52 C60 1_555 1_555
C5 C6 1_555 1_555
C11 C18 1_555 1_555
C12 C13 1_555 1_555
C16 C17 1_555 1_555
C23 C24 1_555 1_555
C29 C30 1_555 1_555
C35 C36 1_555 1_555
C41 C48 1_555 1_555
C42 C43 1_555 1_555
C46 C47 1_555 1_555
C53 C54 1_555 1_555
C59 C60 1_555 1_555

#END
