
#######################################################################
#
#                 Cambridge Crystallographic Data Centre
#                                CCDC 
#
#######################################################################
#
# If this CIF has been generated from an entry in the Cambridge 
# Structural Database, then it will include bibliographic, chemical, 
# crystal, experimental, refinement or atomic coordinate data resulting 
# from the CCDC's data processing and validation procedures.
#
#######################################################################

data_WOVQOP
_chemical_formula_moiety         'C33 H24 O1 S1,0.5(C6 H14)'
_chemical_name_systematic        
'2,3,4,5-tetraphenyl-1-(2-thienyl)cyclopenta-2,4-dien-1-ol hexane solvate'
_symmetry_cell_setting           triclinic
_symmetry_space_group_name_H-M   'P -1'
_symmetry_Int_Tables_number      2
_space_group_name_Hall           '-P 1'
loop_
_symmetry_equiv_pos_site_id
_symmetry_equiv_pos_as_xyz
1 x,y,z
2 -x,-y,-z
_cell_length_a                   9.893(4)
_cell_length_b                   10.162(4)
_cell_length_c                   15.462(6)
_cell_angle_alpha                79.237(5)
_cell_angle_beta                 83.135(5)
_cell_angle_gamma                66.258(4)
_cell_volume                     1396.15
_exptl_crystal_colour            colorless
_exptl_crystal_description       block
_cell_formula_units_Z            2
loop_
_atom_site_label
_atom_site_type_symbol
_atom_site_fract_x
_atom_site_fract_y
_atom_site_fract_z
O1 O 1.00002(19) -0.16270(16) 0.32003(11)
H1 H 1.0792 -0.1882 0.3427
C1 C 0.9615(2) -0.0188(2) 0.27194(14)
C2 C 0.9895(2) 0.0801(2) 0.32308(14)
C3 C 0.8629(2) 0.1974(2) 0.33046(14)
C4 C 0.7434(2) 0.1799(2) 0.29032(14)
C5 C 0.7960(2) 0.0536(2) 0.25911(14)
C6 C 1.0447(2) -0.0258(2) 0.18203(15)
S1 S 1.06571(11) 0.12193(10) 0.12382(6)
C7 C 1.1065(2) -0.1583(2) 0.13608(11)
H2 H 1.1035 -0.2497 0.1545
C8 C 1.1736(3) -0.1031(4) 0.05309(19)
H3 H 1.2251 -0.1632 0.0115
C9 C 1.1571(3) 0.0333(4) 0.04137(19)
H4 H 1.1936 0.0770 -0.0090
C10 C 1.1303(2) 0.0339(2) 0.36532(15)
C11 C 1.1352(3) 0.0702(3) 0.44677(15)
H5 H 1.0486 0.1306 0.4732
C12 C 1.2647(3) 0.0190(3) 0.48910(17)
H6 H 1.2656 0.0459 0.5433
C13 C 1.3937(3) -0.0723(3) 0.45143(18)
H7 H 1.4814 -0.1087 0.4805
C14 C 1.3919(3) -0.1086(3) 0.37153(18)
H8 H 1.4790 -0.1692 0.3456
C15 C 1.2624(3) -0.0564(3) 0.32870(17)
H9 H 1.2634 -0.0821 0.2739
C16 C 0.8401(2) 0.3236(2) 0.37251(15)
C17 C 0.9229(3) 0.4058(3) 0.34598(17)
H10 H 0.9927 0.3836 0.2993
C18 C 0.9038(3) 0.5215(3) 0.3878(2)
H11 H 0.9621 0.5751 0.3702
C19 C 0.7991(4) 0.5569(3) 0.4552(2)
H12 H 0.7851 0.6357 0.4827
C20 C 0.7161(3) 0.4775(3) 0.4819(2)
H13 H 0.6460 0.5013 0.5284
C21 C 0.7340(3) 0.3623(3) 0.44129(19)
H14 H 0.6750 0.3095 0.4597
C22 C 0.5895(2) 0.2880(2) 0.28925(14)
C23 C 0.4727(2) 0.2479(3) 0.32165(15)
H15 H 0.4918 0.1516 0.3459
C24 C 0.3307(3) 0.3466(3) 0.31859(18)
H16 H 0.2539 0.3173 0.3405
C25 C 0.2999(3) 0.4893(3) 0.2834(2)
H17 H 0.2025 0.5564 0.2808
C26 C 0.4135(3) 0.5319(3) 0.2521(2)
H18 H 0.3930 0.6287 0.2285
C27 C 0.5572(3) 0.4334(3) 0.25507(18)
H19 H 0.6335 0.4640 0.2341
C28 C 0.7176(2) -0.0061(2) 0.21183(15)
C29 C 0.6047(3) 0.0831(3) 0.15702(16)
H20 H 0.5815 0.1827 0.1463
C30 C 0.5260(3) 0.0266(4) 0.11795(18)
H21 H 0.4495 0.0888 0.0820
C31 C 0.5587(3) -0.1186(4) 0.1313(2)
H22 H 0.5045 -0.1560 0.1054
C32 C 0.6717(4) -0.2082(3) 0.1831(2)
H23 H 0.6957 -0.3080 0.1916
C33 C 0.7517(3) -0.1543(3) 0.22326(18)
H24 H 0.8289 -0.2179 0.2582
C34? C 1.06571(11) 0.12193(10) 0.12382(6)
H25? H 1.0371 0.2171 0.1339
S2? S 1.1065(2) -0.1583(2) 0.13608(11)
C35? C 1.1736(3) -0.1031(4) 0.05309(19)
H26? H 1.2251 -0.1632 0.0115
C36? C 1.1571(3) 0.0333(4) 0.04137(19)
H27? H 1.1936 0.0770 -0.0090
loop_
_geom_bond_atom_site_label_1
_geom_bond_atom_site_label_2
_geom_bond_site_symmetry_1
_geom_bond_site_symmetry_2
O1 H1 1_555 1_555
C1 O1 1_555 1_555
C2 C1 1_555 1_555
C3 C2 1_555 1_555
C4 C3 1_555 1_555
C5 C1 1_555 1_555
C6 C1 1_555 1_555
S1 C6 1_555 1_555
C7 C6 1_555 1_555
H2 C7 1_555 1_555
C8 C7 1_555 1_555
H3 C8 1_555 1_555
C9 S1 1_555 1_555
H4 C9 1_555 1_555
C10 C2 1_555 1_555
C11 C10 1_555 1_555
H5 C11 1_555 1_555
C12 C11 1_555 1_555
H6 C12 1_555 1_555
C13 C12 1_555 1_555
H7 C13 1_555 1_555
C14 C13 1_555 1_555
H8 C14 1_555 1_555
C15 C10 1_555 1_555
H9 C15 1_555 1_555
C16 C3 1_555 1_555
C17 C16 1_555 1_555
H10 C17 1_555 1_555
C18 C17 1_555 1_555
H11 C18 1_555 1_555
C19 C18 1_555 1_555
H12 C19 1_555 1_555
C20 C19 1_555 1_555
H13 C20 1_555 1_555
C21 C16 1_555 1_555
H14 C21 1_555 1_555
C22 C4 1_555 1_555
C23 C22 1_555 1_555
H15 C23 1_555 1_555
C24 C23 1_555 1_555
H16 C24 1_555 1_555
C25 C24 1_555 1_555
H17 C25 1_555 1_555
C26 C25 1_555 1_555
H18 C26 1_555 1_555
C27 C22 1_555 1_555
H19 C27 1_555 1_555
C28 C5 1_555 1_555
C29 C28 1_555 1_555
H20 C29 1_555 1_555
C30 C29 1_555 1_555
H21 C30 1_555 1_555
C31 C30 1_555 1_555
H22 C31 1_555 1_555
C32 C31 1_555 1_555
H23 C32 1_555 1_555
C33 C28 1_555 1_555
H24 C33 1_555 1_555
C4 C5 1_555 1_555
C8 C9 1_555 1_555
C14 C15 1_555 1_555
C20 C21 1_555 1_555
C26 C27 1_555 1_555
C32 C33 1_555 1_555

#END
