
#######################################################################
#
#                 Cambridge Crystallographic Data Centre
#                                CCDC 
#
#######################################################################
#
# If this CIF has been generated from an entry in the Cambridge 
# Structural Database, then it will include bibliographic, chemical, 
# crystal, experimental, refinement or atomic coordinate data resulting 
# from the CCDC's data processing and validation procedures.
#
#######################################################################

data_WOVROO
_chemical_formula_moiety         'C11 H12 N2 O2'
_chemical_name_systematic        
'(E)-5-Methoxy-1-methylindole-3-carboxaldehyde oxime'
_symmetry_cell_setting           triclinic
_symmetry_space_group_name_H-M   'P -1'
_symmetry_Int_Tables_number      2
_space_group_name_Hall           '-P 1'
loop_
_symmetry_equiv_pos_site_id
_symmetry_equiv_pos_as_xyz
1 x,y,z
2 -x,-y,-z
_cell_length_a                   8.2351(2)
_cell_length_b                   15.8892(7)
_cell_length_c                   17.8070(11)
_cell_angle_alpha                71.148(4)
_cell_angle_beta                 81.245(4)
_cell_angle_gamma                75.124(3)
_cell_volume                     2125.02
_exptl_crystal_colour            colorless
_exptl_crystal_description       needle
_cell_formula_units_Z            8
_exptl_crystal_recrystallization_method methanol
loop_
_atom_site_label
_atom_site_type_symbol
_atom_site_fract_x
_atom_site_fract_y
_atom_site_fract_z
C1 C 0.2798(6) 0.1015(3) 0.4897(3)
H1 H 0.3836 0.0563 0.4934
H2 H 0.2109 0.0870 0.5386
H3 H 0.3034 0.1603 0.4800
O1 O 0.1958(4) 0.1026(2) 0.4281(2)
C2 C 0.0366(4) 0.1559(2) 0.4164(2)
C3 C -0.0627(5) 0.1364(3) 0.3692(2)
H4 H -0.0195 0.0874 0.3488
C4 C -0.2192(4) 0.1869(2) 0.3529(2)
H5 H -0.2832 0.1741 0.3209
C5 C -0.2818(3) 0.25848(19) 0.38517(16)
C6 C -0.1856(3) 0.27979(16) 0.43241(14)
C7 C -0.0234(3) 0.22759(18) 0.44775(16)
H6 H 0.0426 0.2409 0.4785
N1 N -0.4375(3) 0.31834(18) 0.37950(15)
C8 C -0.5717(4) 0.3209(3) 0.3337(2)
H7 H -0.5970 0.2616 0.3491
H8 H -0.5362 0.3382 0.2780
H9 H -0.6706 0.3644 0.3439
C9 C -0.4403(3) 0.37657(19) 0.42097(17)
H10 H -0.5314 0.4237 0.4259
C10 C -0.2913(3) 0.35703(16) 0.45472(14)
C11 C -0.2581(3) 0.40740(18) 0.50208(15)
H11 H -0.3447 0.4537 0.5128
N2 N -0.1175(3) 0.39278(15) 0.53043(13)
O2 O -0.1247(3) 0.45155(15) 0.57653(14)
H12 H -0.0318 0.4426 0.5927
C12 C -0.1246(4) 0.6800(2) 0.7871(2)
H13 H -0.2365 0.7119 0.7725
H14 H -0.0485 0.7200 0.7645
H15 H -0.1232 0.6600 0.8440
O3 O -0.0736(2) 0.60327(14) 0.75792(13)
C13 C 0.0913(3) 0.55582(18) 0.76276(16)
C14 C 0.1995(3) 0.5649(2) 0.81181(16)
H16 H 0.1602 0.6051 0.8420
C15 C 0.3620(3) 0.5155(2) 0.81580(16)
H17 H 0.4335 0.5213 0.8487
C16 C 0.4180(3) 0.45656(17) 0.76965(15)
C17 C 0.3107(3) 0.44605(16) 0.72031(13)
C18 C 0.1459(3) 0.49641(16) 0.71765(14)
H18 H 0.0728 0.4902 0.6858
N3 N 0.5759(2) 0.40192(16) 0.76053(13)
C19 C 0.7229(4) 0.3936(3) 0.8009(2)
H19 H 0.7068 0.3611 0.8562
H20 H 0.7378 0.4532 0.7957
H21 H 0.8211 0.3608 0.7774
C20 C 0.5697(3) 0.35883(18) 0.70716(15)
H22 H 0.6607 0.3184 0.6908
C21 C 0.4124(3) 0.38231(17) 0.68027(14)
C22 C 0.3709(3) 0.34638(18) 0.62310(14)
H23 H 0.4559 0.3058 0.6036
N4 N 0.2261(3) 0.36631(15) 0.59734(12)
O4 O 0.2258(3) 0.31724(14) 0.54326(12)
H24 H 0.1324 0.3315 0.5263
C23 C 0.6215(5) 0.1051(3) 0.60024(19)
H25 H 0.5313 0.0837 0.5894
H26 H 0.7275 0.0679 0.5878
H27 H 0.6155 0.1673 0.5682
O5 O 0.6066(3) 0.10007(16) 0.68205(11)
C24 C 0.7317(3) 0.11950(18) 0.71208(14)
C25 C 0.8627(3) 0.1562(2) 0.66456(14)
H28 H 0.8696 0.1666 0.6098
C26 C 0.9813(3) 0.1772(2) 0.69749(13)
H29 H 1.0683 0.2020 0.6657
C27 C 0.9686(3) 0.16068(17) 0.77920(12)
C28 C 0.8380(3) 0.12268(16) 0.82832(11)
C29 C 0.7185(3) 0.10269(16) 0.79368(12)
H30 H 0.6306 0.0783 0.8249
N5 N 1.0707(3) 0.17415(16) 0.82718(12)
C30 C 1.2178(4) 0.2135(2) 0.80034(19)
H31 H 1.1838 0.2762 0.7695
H32 H 1.2948 0.1804 0.7681
H33 H 1.2722 0.2100 0.8456
C31 C 1.0085(3) 0.14496(18) 0.90371(13)
H34 H 1.0556 0.1470 0.9472
C32 C 0.8684(3) 0.11230(17) 0.90879(12)
C33 C 0.7832(3) 0.07139(18) 0.98329(13)
H35 H 0.8211 0.0708 1.0301
N6 N 0.6586(3) 0.03604(14) 0.98809(11)
O6 O 0.6038(3) -0.00210(16) 1.06859(10)
H36 H 0.5182 -0.0203 1.0704
C34 C 0.6362(7) 0.0596(3) 1.2327(2)
H37 H 0.5233 0.0562 1.2545
H38 H 0.7096 0.0395 1.2751
H39 H 0.6731 0.0212 1.1986
O7 O 0.6403(3) 0.15132(15) 1.18796(14)
C35 C 0.7878(4) 0.17145(18) 1.14763(17)
C36 C 0.9437(4) 0.11039(19) 1.15949(19)
H40 H 0.9498 0.0525 1.1956
C37 C 1.0876(4) 0.13441(18) 1.11874(19)
H41 H 1.1914 0.0935 1.1267
C38 C 1.0755(3) 0.22120(16) 1.06515(16)
C39 C 0.9186(3) 0.28396(15) 1.05226(14)
C40 C 0.7749(3) 0.25784(16) 1.09412(15)
H42 H 0.6704 0.2980 1.0864
N7 N 1.1984(3) 0.26227(17) 1.01692(16)
C41 C 1.3792(3) 0.2233(3) 1.0141(3)
H43 H 1.4002 0.1652 1.0046
H44 H 1.4211 0.2155 1.0639
H45 H 1.4353 0.2635 0.9720
C42 C 1.1243(3) 0.34815(18) 0.97538(18)
H46 H 1.1815 0.3895 0.9390
C43 C 0.9544(3) 0.36572(15) 0.99418(15)
C44 C 0.8455(3) 0.45320(15) 0.96149(16)
H47 H 0.8922 0.4983 0.9238
N8 N 0.6890(3) 0.47187(13) 0.98148(13)
O8 O 0.6150(2) 0.56374(12) 0.94160(14)
H48 H 0.5135 0.5740 0.9541
loop_
_geom_bond_atom_site_label_1
_geom_bond_atom_site_label_2
_geom_bond_site_symmetry_1
_geom_bond_site_symmetry_2
C1 H1 1_555 1_555
H2 C1 1_555 1_555
H3 C1 1_555 1_555
O1 C1 1_555 1_555
C2 O1 1_555 1_555
C3 C2 1_555 1_555
H4 C3 1_555 1_555
C4 C3 1_555 1_555
H5 C4 1_555 1_555
C5 C4 1_555 1_555
C6 C5 1_555 1_555
C7 C2 1_555 1_555
H6 C7 1_555 1_555
N1 C5 1_555 1_555
C8 N1 1_555 1_555
H7 C8 1_555 1_555
H8 C8 1_555 1_555
H9 C8 1_555 1_555
C9 N1 1_555 1_555
H10 C9 1_555 1_555
C10 C6 1_555 1_555
C11 C10 1_555 1_555
H11 C11 1_555 1_555
N2 C11 1_555 1_555
O2 N2 1_555 1_555
H12 O2 1_555 1_555
C12 H13 1_555 1_555
H14 C12 1_555 1_555
H15 C12 1_555 1_555
O3 C12 1_555 1_555
C13 O3 1_555 1_555
C14 C13 1_555 1_555
H16 C14 1_555 1_555
C15 C14 1_555 1_555
H17 C15 1_555 1_555
C16 C15 1_555 1_555
C17 C16 1_555 1_555
C18 C13 1_555 1_555
H18 C18 1_555 1_555
N3 C16 1_555 1_555
C19 N3 1_555 1_555
H19 C19 1_555 1_555
H20 C19 1_555 1_555
H21 C19 1_555 1_555
C20 N3 1_555 1_555
H22 C20 1_555 1_555
C21 C17 1_555 1_555
C22 C21 1_555 1_555
H23 C22 1_555 1_555
N4 C22 1_555 1_555
O4 N4 1_555 1_555
H24 O4 1_555 1_555
C23 H25 1_555 1_555
H26 C23 1_555 1_555
H27 C23 1_555 1_555
O5 C23 1_555 1_555
C24 O5 1_555 1_555
C25 C24 1_555 1_555
H28 C25 1_555 1_555
C26 C25 1_555 1_555
H29 C26 1_555 1_555
C27 C26 1_555 1_555
C28 C27 1_555 1_555
C29 C24 1_555 1_555
H30 C29 1_555 1_555
N5 C27 1_555 1_555
C30 N5 1_555 1_555
H31 C30 1_555 1_555
H32 C30 1_555 1_555
H33 C30 1_555 1_555
C31 N5 1_555 1_555
H34 C31 1_555 1_555
C32 C28 1_555 1_555
C33 C32 1_555 1_555
H35 C33 1_555 1_555
N6 C33 1_555 1_555
O6 N6 1_555 1_555
H36 O6 1_555 1_555
C34 H37 1_555 1_555
H38 C34 1_555 1_555
H39 C34 1_555 1_555
O7 C34 1_555 1_555
C35 O7 1_555 1_555
C36 C35 1_555 1_555
H40 C36 1_555 1_555
C37 C36 1_555 1_555
H41 C37 1_555 1_555
C38 C37 1_555 1_555
C39 C38 1_555 1_555
C40 C35 1_555 1_555
H42 C40 1_555 1_555
N7 C38 1_555 1_555
C41 N7 1_555 1_555
H43 C41 1_555 1_555
H44 C41 1_555 1_555
H45 C41 1_555 1_555
C42 N7 1_555 1_555
H46 C42 1_555 1_555
C43 C39 1_555 1_555
C44 C43 1_555 1_555
H47 C44 1_555 1_555
N8 C44 1_555 1_555
O8 N8 1_555 1_555
H48 O8 1_555 1_555
C6 C7 1_555 1_555
C9 C10 1_555 1_555
C17 C18 1_555 1_555
C20 C21 1_555 1_555
C28 C29 1_555 1_555
C31 C32 1_555 1_555
C39 C40 1_555 1_555
C42 C43 1_555 1_555

#END
