
#######################################################################
#
#                 Cambridge Crystallographic Data Centre
#                                CCDC 
#
#######################################################################
#
# If this CIF has been generated from an entry in the Cambridge 
# Structural Database, then it will include bibliographic, chemical, 
# crystal, experimental, refinement or atomic coordinate data resulting 
# from the CCDC's data processing and validation procedures.
#
#######################################################################

data_WOVYUB03
_chemical_formula_moiety         'C18 H17 N3 O2'
_chemical_name_systematic        N-Salicylidene-4-aminoantipyrine
_symmetry_cell_setting           monoclinic
_symmetry_space_group_name_H-M   'P 21/n'
_symmetry_Int_Tables_number      14
_space_group_name_Hall           '-P 2yn'
loop_
_symmetry_equiv_pos_site_id
_symmetry_equiv_pos_as_xyz
1 x,y,z
2 1/2-x,1/2+y,1/2-z
3 -x,-y,-z
4 1/2+x,1/2-y,1/2+z
_cell_length_a                   7.6100(15)
_cell_length_b                   7.5150(15)
_cell_length_c                   27.305(6)
_cell_angle_alpha                90
_cell_angle_beta                 95.32(3)
_cell_angle_gamma                90
_cell_volume                     1554.82
_chemical_melting_point          '197-199 deg.C'
_cell_formula_units_Z            4
loop_
_atom_site_label
_atom_site_type_symbol
_atom_site_fract_x
_atom_site_fract_y
_atom_site_fract_z
O1 O 0.8259(4) -0.2974(4) -0.0488(1)
O2 O 0.6015(4) 0.0627(3) 0.1184(1)
N1 N 0.7036(4) -0.1835(4) 0.0317(1)
N2 N 0.5761(4) -0.3911(4) 0.1406(1)
N3 N 0.5455(4) -0.2129(4) 0.1521(1)
C1 C 0.8425(5) -0.1229(6) -0.0607(1)
C2 C 0.9142(6) -0.0807(7) -0.1043(2)
C3 C 0.9352(6) 0.0935(7) -0.1174(2)
C4 C 0.8880(6) 0.2304(6) -0.0883(2)
C5 C 0.8174(5) 0.1902(6) -0.0446(1)
C6 C 0.7931(5) 0.0140(5) -0.0299(1)
C7 C 0.7234(5) -0.0233(5) 0.0166(1)
C8 C 0.6421(5) -0.2211(5) 0.0772(1)
C9 C 0.5970(5) -0.1010(5) 0.1150(1)
C10 C 0.6264(5) -0.3911(5) 0.0939(1)
C11 C 0.6573(6) -0.5597(5) 0.0670(2)
C12 C 0.4562(6) -0.5256(5) 0.1571(2)
C13 C 0.4298(5) -0.0175(5) 0.2116(1)
C14 C 0.4187(6) 0.0352(6) 0.2598(2)
C15 C 0.5088(6) -0.0558(6) 0.2982(2)
C16 C 0.6123(6) -0.1997(6) 0.2885(2)
C17 C 0.6267(5) -0.2523(5) 0.2405(1)
C18 C 0.5349(5) -0.1618(5) 0.2022(1)
loop_
_geom_bond_atom_site_label_1
_geom_bond_atom_site_label_2
_geom_bond_site_symmetry_1
_geom_bond_site_symmetry_2
O1 C1 1_555 1_555
O2 C9 1_555 1_555
N1 C7 1_555 1_555
N2 N3 1_555 1_555
N3 C9 1_555 1_555
C1 C2 1_555 1_555
C2 C3 1_555 1_555
C3 C4 1_555 1_555
C4 C5 1_555 1_555
C5 C6 1_555 1_555
C6 C1 1_555 1_555
C7 C6 1_555 1_555
C8 N1 1_555 1_555
C9 C8 1_555 1_555
C10 N2 1_555 1_555
C11 C10 1_555 1_555
C12 N2 1_555 1_555
C13 C14 1_555 1_555
C14 C15 1_555 1_555
C15 C16 1_555 1_555
C16 C17 1_555 1_555
C17 C18 1_555 1_555
C18 N3 1_555 1_555
C8 C10 1_555 1_555
C13 C18 1_555 1_555

#END
