
#######################################################################
#
#                 Cambridge Crystallographic Data Centre
#                                CCDC 
#
#######################################################################
#
# If this CIF has been generated from an entry in the Cambridge 
# Structural Database, then it will include bibliographic, chemical, 
# crystal, experimental, refinement or atomic coordinate data resulting 
# from the CCDC's data processing and validation procedures.
#
#######################################################################

data_WOVZEO
_chemical_formula_moiety         'C19 H15 N3 O1'
_chemical_name_systematic        
"4-(9H-carbazol-9-yl)-N'-hydroxybenzenecarboximidamide unknown solvate"
_symmetry_cell_setting           monoclinic
_symmetry_space_group_name_H-M   'P 21/c'
_symmetry_Int_Tables_number      14
_space_group_name_Hall           '-P 2ybc'
loop_
_symmetry_equiv_pos_site_id
_symmetry_equiv_pos_as_xyz
1 x,y,z
2 -x,1/2+y,1/2-z
3 -x,-y,-z
4 x,1/2-y,1/2+z
_cell_length_a                   8.778(5)
_cell_length_b                   27.635(5)
_cell_length_c                   7.797(5)
_cell_angle_alpha                90
_cell_angle_beta                 105.261(5)
_cell_angle_gamma                90
_cell_volume                     1824.7
_exptl_crystal_colour            colorless
_exptl_crystal_description       block
_cell_formula_units_Z            4
_exptl_crystal_recrystallization_method 'ethyl acetate'
_exptl_crystal_preparation       Luminescent
loop_
_atom_site_label
_atom_site_type_symbol
_atom_site_fract_x
_atom_site_fract_y
_atom_site_fract_z
O1 O 0.6859(3) -0.00435(9) -0.4170(3)
H1 H 0.6306 -0.0178 -0.5004
N1 N 0.3576(3) 0.14460(9) 0.2466(3)
N2 N 0.8040(4) 0.01088(16) -0.0880(4)
N3 N 0.5925(3) 0.02499(9) -0.3338(3)
C1 C 0.4328(3) 0.11617(9) 0.1411(3)
C2 C 0.4098(4) 0.12591(11) -0.0375(4)
H2 H 0.3442 0.1512 -0.0899
C3 C 0.5848(3) 0.06119(10) -0.0603(3)
C4 C 0.5337(3) 0.07924(10) 0.2188(3)
H3 H 0.5505 0.0727 0.3394
C5 C 0.3208(5) 0.19396(11) 0.4643(5)
C6 C -0.1066(7) 0.1843(2) 0.1889(10)
H4 H -0.2096 0.1945 0.1786
C7 C 0.6638(3) 0.03117(11) -0.1685(4)
C8 C 0.6085(3) 0.05237(10) 0.1192(3)
H5 H 0.6765 0.0277 0.1728
C9 C 0.4346(4) 0.16814(10) 0.4024(4)
C10 C 0.5925(5) 0.16995(11) 0.4875(4)
H6 H 0.6660 0.1530 0.4441
C11 C 0.1947(4) 0.15480(11) 0.2083(5)
C12 C 0.6390(6) 0.19769(13) 0.6396(5)
H7 H 0.7453 0.1993 0.7004
C13 C 0.4831(3) 0.09844(11) -0.1374(4)
H8 H 0.4649 0.1047 -0.2584
C14 C 0.0131(7) 0.20063(17) 0.3280(8)
H9 H -0.0084 0.2213 0.4130
C15 C 0.0724(4) 0.13768(15) 0.0713(6)
H10 H 0.0914 0.1164 -0.0132
C16 C 0.1710(5) 0.18546(12) 0.3403(5)
C17 C 0.3711(8) 0.22165(14) 0.6173(6)
H11 H 0.2985 0.2389 0.6612
C18 C -0.0761(5) 0.15294(19) 0.0640(8)
H12 H -0.1598 0.1420 -0.0275
C19 C 0.5286(9) 0.22334(14) 0.7029(6)
H13 H 0.5625 0.2420 0.8052
H14 H 0.828(4) 0.0020(15) 0.0266(19)
H15 H 0.842(5) -0.0027(16) -0.173(5)
loop_
_geom_bond_atom_site_label_1
_geom_bond_atom_site_label_2
_geom_bond_site_symmetry_1
_geom_bond_site_symmetry_2
O1 H1 1_555 1_555
N1 C1 1_555 1_555
N2 C7 1_555 1_555
N3 O1 1_555 1_555
C1 C2 1_555 1_555
C2 H2 1_555 1_555
C3 C7 1_555 1_555
C4 C1 1_555 1_555
H3 C4 1_555 1_555
C5 C9 1_555 1_555
C6 H4 1_555 1_555
C7 N3 1_555 1_555
C8 C3 1_555 1_555
H5 C8 1_555 1_555
C9 N1 1_555 1_555
C10 C9 1_555 1_555
H6 C10 1_555 1_555
C11 N1 1_555 1_555
C12 C10 1_555 1_555
H7 C12 1_555 1_555
C13 C2 1_555 1_555
H8 C13 1_555 1_555
C14 C6 1_555 1_555
H9 C14 1_555 1_555
C15 C11 1_555 1_555
H10 C15 1_555 1_555
C16 C5 1_555 1_555
C17 C5 1_555 1_555
H11 C17 1_555 1_555
C18 C6 1_555 1_555
H12 C18 1_555 1_555
C19 C12 1_555 1_555
H13 C19 1_555 1_555
H14 N2 1_555 1_555
H15 N2 1_555 1_555
C3 C13 1_555 1_555
C4 C8 1_555 1_555
C11 C16 1_555 1_555
C14 C16 1_555 1_555
C15 C18 1_555 1_555
C17 C19 1_555 1_555

#END
