
#######################################################################
#
#                 Cambridge Crystallographic Data Centre
#                                CCDC 
#
#######################################################################
#
# If this CIF has been generated from an entry in the Cambridge 
# Structural Database, then it will include bibliographic, chemical, 
# crystal, experimental, refinement or atomic coordinate data resulting 
# from the CCDC's data processing and validation procedures.
#
#######################################################################

data_WOWDOD
_chemical_formula_moiety         'C20 H21 N1 O2 S1'
_chemical_name_systematic        
2-(anilino(ethylsulfanyl)methylene)-1-(4-methylphenyl)butane-1,3-dione
_symmetry_cell_setting           monoclinic
_symmetry_space_group_name_H-M   'P 21/c'
_symmetry_Int_Tables_number      14
_space_group_name_Hall           '-P 2ybc'
loop_
_symmetry_equiv_pos_site_id
_symmetry_equiv_pos_as_xyz
1 x,y,z
2 -x,1/2+y,1/2-z
3 -x,-y,-z
4 x,1/2-y,1/2+z
_cell_length_a                   11.3829(15)
_cell_length_b                   9.3060(11)
_cell_length_c                   17.3055(19)
_cell_angle_alpha                90
_cell_angle_beta                 99.181(8)
_cell_angle_gamma                90
_cell_volume                     1809.67
_cell_formula_units_Z            4
loop_
_atom_site_label
_atom_site_type_symbol
_atom_site_fract_x
_atom_site_fract_y
_atom_site_fract_z
C1 C 0.6558(2) -0.0001(3) 0.08923(16)
C2 C 0.7398(3) -0.0148(3) 0.04108(17)
H1 H 0.7923 -0.0920 0.0477
C3 C 0.7466(3) 0.0853(3) -0.01751(18)
H2 H 0.8050 0.0767 -0.0492
C4 C 0.6666(3) 0.1976(3) -0.02861(19)
H3 H 0.6708 0.2646 -0.0679
C5 C 0.5807(3) 0.2102(3) 0.0184(2)
H4 H 0.5255 0.2845 0.0099
C6 C 0.5760(3) 0.1131(3) 0.0782(2)
H5 H 0.5193 0.1237 0.1110
C7 C 0.8618(5) -0.0171(5) 0.5979(2)
H6 H 0.7910 0.0371 0.6012
H7 H 0.9280 0.0472 0.5995
H8 H 0.8767 -0.0827 0.6412
C8 C 0.8453(3) -0.1008(4) 0.52186(18)
C9 C 0.7399(3) -0.0923(3) 0.46945(19)
H9 H 0.6780 -0.0360 0.4817
C10 C 0.7253(3) -0.1662(3) 0.39920(18)
H10 H 0.6547 -0.1564 0.3642
C11 C 0.8147(2) -0.2548(3) 0.38045(15)
C12 C 0.9192(3) -0.2663(4) 0.43379(17)
H11 H 0.9798 -0.3267 0.4232
C13 C 0.9334(3) -0.1877(4) 0.50299(19)
H12 H 1.0048 -0.1944 0.5374
C14 C 0.7993(2) -0.3406(3) 0.30668(15)
C15 C 0.7095(2) -0.2909(3) 0.23917(15)
C16 C 0.6070(3) -0.3807(3) 0.21221(18)
C17 C 0.6011(3) -0.5314(4) 0.2431(2)
H13 H 0.5284 -0.5761 0.2190
H14 H 0.6036 -0.5285 0.2988
H15 H 0.6676 -0.5858 0.2311
C18 C 0.7282(2) -0.1624(3) 0.20178(15)
C19 C 0.8603(3) 0.1009(3) 0.2282(2)
H16 H 0.9393 0.1429 0.2345
H17 H 0.8162 0.1366 0.1794
C20 C 0.8006(4) 0.1501(4) 0.2932(2)
H18 H 0.7970 0.2532 0.2931
H19 H 0.8446 0.1175 0.3420
H20 H 0.7214 0.1117 0.2867
N1 N 0.6422(2) -0.1040(2) 0.14824(15)
O1 O 0.85347(19) -0.4538(2) 0.30414(13)
O2 O 0.5223(2) -0.3376(3) 0.16408(15)
S1 S 0.87408(6) -0.09243(8) 0.22114(4)
loop_
_geom_bond_atom_site_label_1
_geom_bond_atom_site_label_2
_geom_bond_site_symmetry_1
_geom_bond_site_symmetry_2
C1 C2 1_555 1_555
C2 H1 1_555 1_555
C3 C2 1_555 1_555
H2 C3 1_555 1_555
C4 C3 1_555 1_555
H3 C4 1_555 1_555
C5 C4 1_555 1_555
H4 C5 1_555 1_555
C6 C1 1_555 1_555
H5 C6 1_555 1_555
C7 H6 1_555 1_555
H7 C7 1_555 1_555
H8 C7 1_555 1_555
C8 C7 1_555 1_555
C9 C8 1_555 1_555
H9 C9 1_555 1_555
C10 C9 1_555 1_555
H10 C10 1_555 1_555
C11 C10 1_555 1_555
C12 C11 1_555 1_555
H11 C12 1_555 1_555
C13 C8 1_555 1_555
H12 C13 1_555 1_555
C14 C11 1_555 1_555
C15 C14 1_555 1_555
C16 C15 1_555 1_555
C17 C16 1_555 1_555
H13 C17 1_555 1_555
H14 C17 1_555 1_555
H15 C17 1_555 1_555
C18 C15 1_555 1_555
C19 H16 1_555 1_555
H17 C19 1_555 1_555
C20 C19 1_555 1_555
H18 C20 1_555 1_555
H19 C20 1_555 1_555
H20 C20 1_555 1_555
N1 C1 1_555 1_555
O1 C14 1_555 1_555
O2 C16 1_555 1_555
S1 C18 1_555 1_555
C5 C6 1_555 1_555
C12 C13 1_555 1_555
C18 N1 1_555 1_555
C19 S1 1_555 1_555

#END
