
#######################################################################
#
#                 Cambridge Crystallographic Data Centre
#                                CCDC 
#
#######################################################################
#
# If this CIF has been generated from an entry in the Cambridge 
# Structural Database, then it will include bibliographic, chemical, 
# crystal, experimental, refinement or atomic coordinate data resulting 
# from the CCDC's data processing and validation procedures.
#
#######################################################################

data_WOWFOD
_chemical_formula_moiety         'C12 H6 N2 S3'
_chemical_name_systematic        
Thieno(3',4':5,6)(1,4)dithiino(2,3-b)quinoxaline
_symmetry_cell_setting           triclinic
_symmetry_space_group_name_H-M   'P -1'
_symmetry_Int_Tables_number      2
_space_group_name_Hall           '-P 1'
loop_
_symmetry_equiv_pos_site_id
_symmetry_equiv_pos_as_xyz
1 x,y,z
2 -x,-y,-z
_cell_length_a                   6.876(2)
_cell_length_b                   9.361(3)
_cell_length_c                   9.508(3)
_cell_angle_alpha                101.96(1)
_cell_angle_beta                 95.96(1)
_cell_angle_gamma                104.09(1)
_cell_volume                     572.969
_exptl_crystal_colour            'pale yellow'
_exptl_crystal_description       parallelepiped
_chemical_melting_point          '161-163 deg.C'
_cell_formula_units_Z            2
_exptl_crystal_recrystallization_method dichloromethane/ethanol
loop_
_atom_site_label
_atom_site_type_symbol
_atom_site_fract_x
_atom_site_fract_y
_atom_site_fract_z
S1 S -0.25913(9) 0.01631(6) 0.41275(6)
S2 S 0.20160(9) 0.12753(6) 0.15503(6)
S3 S 0.22805(9) 0.40928(6) 0.44047(5)
N1 N 0.2234(2) 0.3361(2) 0.0064(2)
C1 C 0.2172(3) 0.3149(2) 0.1376(2)
C2 C 0.2372(3) 0.4386(2) 0.2622(2)
N2 N 0.2719(3) 0.5791(2) 0.2511(2)
C3 C 0.3176(3) 0.7544(2) 0.0954(2)
H1 H 0.3307(38) 0.8341(29) 0.1802(29)
C4 C 0.3218(3) 0.7795(3) -0.0407(2)
H2 H 0.3401(37) 0.8792(30) -0.0557(27)
C5 C 0.2931(3) 0.6572(3) -0.1643(2)
H3 H 0.2986(38) 0.6784(28) -0.2562(29)
C6 C 0.2613(3) 0.5114(3) -0.1484(2)
H4 H 0.2407(37) 0.4262(28) -0.2293(28)
C7 C 0.2556(3) 0.4825(2) -0.0085(2)
C8 C 0.2833(3) 0.6048(2) 0.1151(2)
C9 C -0.1264(3) -0.0124(3) 0.2705(2)
H5 H -0.1642(35) -0.1024(28) 0.2002(26)
C10 C 0.0284(3) 0.1127(2) 0.2790(2)
C11 C 0.0390(3) 0.2346(2) 0.4009(2)
C12 C -0.1101(3) 0.1994(2) 0.4814(2)
H6 H -0.1369(41) 0.2583(31) 0.5615(30)
loop_
_geom_bond_atom_site_label_1
_geom_bond_atom_site_label_2
_geom_bond_site_symmetry_1
_geom_bond_site_symmetry_2
S1 C9 1_555 1_555
S2 C1 1_555 1_555
S3 C2 1_555 1_555
N1 C1 1_555 1_555
C1 C2 1_555 1_555
C2 N2 1_555 1_555
N2 C8 1_555 1_555
C3 H1 1_555 1_555
C4 C3 1_555 1_555
H2 C4 1_555 1_555
C5 C4 1_555 1_555
H3 C5 1_555 1_555
C6 C5 1_555 1_555
H4 C6 1_555 1_555
C7 N1 1_555 1_555
C8 C3 1_555 1_555
C9 H5 1_555 1_555
C10 S2 1_555 1_555
C11 S3 1_555 1_555
C12 S1 1_555 1_555
H6 C12 1_555 1_555
C6 C7 1_555 1_555
C7 C8 1_555 1_555
C9 C10 1_555 1_555
C10 C11 1_555 1_555
C11 C12 1_555 1_555

#END
