
#######################################################################
#
#                 Cambridge Crystallographic Data Centre
#                                CCDC 
#
#######################################################################
#
# If this CIF has been generated from an entry in the Cambridge 
# Structural Database, then it will include bibliographic, chemical, 
# crystal, experimental, refinement or atomic coordinate data resulting 
# from the CCDC's data processing and validation procedures.
#
#######################################################################

data_WOWGIY
_chemical_formula_moiety         'C26 H21 N2 1+,I1 1-,3(H2 O1)'
_chemical_name_systematic        
'trans-4-(p-Carbazol-9-ylstyryl)-N-methylpyridinium iodide trihydrate'
_symmetry_cell_setting           monoclinic
_symmetry_space_group_name_H-M   'P 21/c'
_symmetry_Int_Tables_number      14
_space_group_name_Hall           '-P 2ybc'
loop_
_symmetry_equiv_pos_site_id
_symmetry_equiv_pos_as_xyz
1 x,y,z
2 x,1/2-y,1/2+z
3 -x,-y,-z
4 -x,1/2+y,1/2-z
_cell_length_a                   14.490(2)
_cell_length_b                   8.2086(8)
_cell_length_c                   21.994(3)
_cell_angle_alpha                90
_cell_angle_beta                 96.050(12)
_cell_angle_gamma                90
_cell_volume                     2601.45
_exptl_crystal_colour            blue
_exptl_crystal_description       prism
_chemical_melting_point          '258.3 deg.C.(dec.)'
_cell_formula_units_Z            4
_exptl_crystal_recrystallization_method ethanol/acetone
loop_
_atom_site_label
_atom_site_type_symbol
_atom_site_fract_x
_atom_site_fract_y
_atom_site_fract_z
I1 I 0.20535(4) 0.32583(8) 0.10968(2)
C1 C 0.0423(7) 0.1484(12) 0.4303(5)
H1 H 0.0518 0.1020 0.4706
H2 H -0.0034 0.0860 0.4056
H3 H 0.0213 0.2588 0.4330
C2 C 0.2054(6) 0.0793(11) 0.4316(3)
H4 H 0.2028 0.0382 0.4708
C3 C 0.2847(6) 0.0696(10) 0.4060(3)
H5 H 0.3364 0.0220 0.4276
C4 C 0.2913(6) 0.1311(8) 0.3462(3)
C5 C 0.2127(6) 0.2017(9) 0.3180(3)
H6 H 0.2136 0.2477 0.2794
C6 C 0.1334(6) 0.2053(9) 0.3457(4)
H7 H 0.0799 0.2497 0.3250
C7 C 0.3811(6) 0.1190(10) 0.3222(4)
H8 H 0.4318 0.0883 0.3492
C8 C 0.3958(6) 0.1483(9) 0.2647(3)
H9 H 0.3445 0.1755 0.2376
C9 C 0.4868(5) 0.1413(9) 0.2402(3)
C10 C 0.5682(6) 0.0929(9) 0.2764(3)
H10 H 0.5641 0.0530 0.3156
C11 C 0.6534(6) 0.1037(9) 0.2549(3)
H11 H 0.7061 0.0713 0.2798
C12 C 0.6621(5) 0.1620(8) 0.1970(3)
C13 C 0.5835(5) 0.2020(9) 0.1602(3)
H12 H 0.5881 0.2383 0.1206
C14 C 0.4960(6) 0.1887(8) 0.1817(3)
H13 H 0.4431 0.2128 0.1555
C15 C 0.8224(5) 0.2778(8) 0.2102(3)
C16 C 0.8236(6) 0.3601(9) 0.2659(3)
H14 H 0.7730 0.3581 0.2886
C17 C 0.9044(7) 0.4452(10) 0.2858(4)
H15 H 0.9072 0.5024 0.3224
C18 C 0.9793(7) 0.4474(10) 0.2532(4)
H16 H 1.0324 0.5044 0.2681
C19 C 0.9771(6) 0.3669(9) 0.1990(4)
H17 H 1.0288 0.3686 0.1774
C20 C 0.8990(5) 0.2828(8) 0.1759(3)
C21 C 0.8725(5) 0.1914(8) 0.1213(3)
C22 C 0.9202(6) 0.1487(9) 0.0702(4)
H18 H 0.9809 0.1829 0.0677
C23 C 0.8749(7) 0.0567(11) 0.0252(4)
H19 H 0.9045 0.0315 -0.0092
C24 C 0.7853(6) -0.0009(10) 0.0291(4)
H20 H 0.7574 -0.0680 -0.0016
C25 C 0.7372(5) 0.0399(9) 0.0777(3)
H21 H 0.6767 0.0042 0.0796
C26 C 0.7813(5) 0.1351(8) 0.1235(3)
N1 N 0.1306(4) 0.1460(8) 0.4024(3)
N2 N 0.7506(4) 0.1880(7) 0.1777(2)
O1 O 0.4771(19) 0.298(3) 0.4964(13)
O3 O 0.4048(12) -0.022(3) 0.5528(8)
O5 O 0.374(2) -0.261(4) 0.5692(13)
O2? O 0.490(2) 0.088(3) 0.5052(14)
O4? O 0.4097(17) -0.150(4) 0.5490(11)
O6? O 0.444(3) -0.376(5) 0.5500(17)
loop_
_geom_bond_atom_site_label_1
_geom_bond_atom_site_label_2
_geom_bond_site_symmetry_1
_geom_bond_site_symmetry_2
C1 H1 1_555 1_555
H2 C1 1_555 1_555
H3 C1 1_555 1_555
C2 H4 1_555 1_555
C3 C2 1_555 1_555
H5 C3 1_555 1_555
C4 C3 1_555 1_555
C5 C4 1_555 1_555
H6 C5 1_555 1_555
C6 C5 1_555 1_555
H7 C6 1_555 1_555
C7 C4 1_555 1_555
H8 C7 1_555 1_555
C8 C7 1_555 1_555
H9 C8 1_555 1_555
C9 C8 1_555 1_555
C10 C9 1_555 1_555
H10 C10 1_555 1_555
C11 C10 1_555 1_555
H11 C11 1_555 1_555
C12 C11 1_555 1_555
C13 C12 1_555 1_555
H12 C13 1_555 1_555
C14 C9 1_555 1_555
H13 C14 1_555 1_555
C15 C16 1_555 1_555
C16 H14 1_555 1_555
C17 C16 1_555 1_555
H15 C17 1_555 1_555
C18 C17 1_555 1_555
H16 C18 1_555 1_555
C19 C18 1_555 1_555
H17 C19 1_555 1_555
C20 C15 1_555 1_555
C21 C20 1_555 1_555
C22 C21 1_555 1_555
H18 C22 1_555 1_555
C23 C22 1_555 1_555
H19 C23 1_555 1_555
C24 C23 1_555 1_555
H20 C24 1_555 1_555
C25 C24 1_555 1_555
H21 C25 1_555 1_555
C26 C21 1_555 1_555
N1 C1 1_555 1_555
N2 C12 1_555 1_555
C2 N1 1_555 1_555
C6 N1 1_555 1_555
C13 C14 1_555 1_555
C15 N2 1_555 1_555
C19 C20 1_555 1_555
C25 C26 1_555 1_555
C26 N2 1_555 1_555

#END
