
#######################################################################
#
#                 Cambridge Crystallographic Data Centre
#                                CCDC 
#
#######################################################################
#
# If this CIF has been generated from an entry in the Cambridge 
# Structural Database, then it will include bibliographic, chemical, 
# crystal, experimental, refinement or atomic coordinate data resulting 
# from the CCDC's data processing and validation procedures.
#
#######################################################################

data_WOWYUE
_chemical_formula_moiety         'C15 H24 N2 Se1'
_chemical_name_systematic        
1,3-Dicyclohexyl-1,3-dihydro-2H-imidazole-2-selenone
_symmetry_cell_setting           monoclinic
_symmetry_space_group_name_H-M   'P 21/c'
_symmetry_Int_Tables_number      14
_space_group_name_Hall           '-P 2ybc'
loop_
_symmetry_equiv_pos_site_id
_symmetry_equiv_pos_as_xyz
1 x,y,z
2 -x,1/2+y,1/2-z
3 -x,-y,-z
4 x,1/2-y,1/2+z
_cell_length_a                   11.8147(15)
_cell_length_b                   11.1443(13)
_cell_length_c                   12.2088(14)
_cell_angle_alpha                90
_cell_angle_beta                 108.210(3)
_cell_angle_gamma                90
_cell_volume                     1526.98
_exptl_crystal_colour            colorless
_exptl_crystal_description       prism
_cell_formula_units_Z            4
_exptl_crystal_recrystallization_method acetone/pentane
loop_
_atom_site_label
_atom_site_type_symbol
_atom_site_fract_x
_atom_site_fract_y
_atom_site_fract_z
Se1 Se 0.21807(2) 0.04854(2) 0.23867(2)
N1 N 0.08102(17) 0.26068(18) 0.24891(17)
N2 N 0.23392(18) 0.23892(18) 0.40225(17)
C1 C 0.1759(2) 0.1886(2) 0.2978(2)
C2 C 0.0782(2) 0.3532(2) 0.3236(2)
C3 C 0.1722(2) 0.3392(2) 0.4185(2)
C4 C -0.0079(2) 0.2407(2) 0.1363(2)
C5 C -0.1229(2) 0.1896(2) 0.1482(2)
C6 C -0.2126(3) 0.1658(3) 0.0293(3)
C7 C -0.2359(3) 0.2793(3) -0.0433(3)
C8 C -0.1206(3) 0.3302(3) -0.0539(2)
C9 C -0.0320(2) 0.3555(2) 0.0639(2)
C10 C 0.3379(2) 0.1867(2) 0.4896(2)
C11 C 0.2970(2) 0.1190(2) 0.5782(3)
C12 C 0.4016(3) 0.0614(3) 0.6693(3)
C13 C 0.4943(3) 0.1562(3) 0.7279(3)
C14 C 0.5343(3) 0.2236(3) 0.6381(3)
C15 C 0.4299(2) 0.2823(3) 0.5474(2)
H1 H 0.0203 0.41519 0.31005
H2 H 0.19272 0.38917 0.4849
H3 H 0.02535 0.17997 0.09433
H4 H -0.15732 0.24712 0.19094
H5 H -0.10567 0.11388 0.19272
H6 H -0.18129 0.10259 -0.01037
H7 H -0.28836 0.13663 0.03834
H8 H -0.29084 0.26103 -0.12113
H9 H -0.27451 0.33984 -0.00746
H10 H -0.13772 0.40549 -0.09916
H11 H -0.08545 0.2724 -0.09559
H12 H -0.06425 0.418 0.10357
H13 H 0.04343 0.3857 0.05498
H14 H 0.37638 0.12813 0.4503
H15 H 0.23954 0.056 0.53904
H16 H 0.25573 0.17502 0.61595
H17 H 0.43862 0.00008 0.63274
H18 H 0.37273 0.02103 0.72771
H19 H 0.45961 0.21323 0.77069
H20 H 0.56382 0.11691 0.78368
H21 H 0.57463 0.16712 0.59981
H22 H 0.59264 0.28611 0.67687
H23 H 0.45846 0.32277 0.48884
H24 H 0.39285 0.34346 0.58419
loop_
_geom_bond_atom_site_label_1
_geom_bond_atom_site_label_2
_geom_bond_site_symmetry_1
_geom_bond_site_symmetry_2
Se1 C1 1_555 1_555
N1 C1 1_555 1_555
N2 C1 1_555 1_555
C2 N1 1_555 1_555
C3 N2 1_555 1_555
C4 N1 1_555 1_555
C5 C4 1_555 1_555
C6 C5 1_555 1_555
C7 C6 1_555 1_555
C8 C7 1_555 1_555
C9 C4 1_555 1_555
C10 N2 1_555 1_555
C11 C10 1_555 1_555
C12 C11 1_555 1_555
C13 C12 1_555 1_555
C14 C13 1_555 1_555
C15 C10 1_555 1_555
H1 C2 1_555 1_555
H2 C3 1_555 1_555
H3 C4 1_555 1_555
H4 C5 1_555 1_555
H5 C5 1_555 1_555
H6 C6 1_555 1_555
H7 C6 1_555 1_555
H8 C7 1_555 1_555
H9 C7 1_555 1_555
H10 C8 1_555 1_555
H11 C8 1_555 1_555
H12 C9 1_555 1_555
H13 C9 1_555 1_555
H14 C10 1_555 1_555
H15 C11 1_555 1_555
H16 C11 1_555 1_555
H17 C12 1_555 1_555
H18 C12 1_555 1_555
H19 C13 1_555 1_555
H20 C13 1_555 1_555
H21 C14 1_555 1_555
H22 C14 1_555 1_555
H23 C15 1_555 1_555
H24 C15 1_555 1_555
C2 C3 1_555 1_555
C8 C9 1_555 1_555
C14 C15 1_555 1_555

#END
