
#######################################################################
#
#                 Cambridge Crystallographic Data Centre
#                                CCDC 
#
#######################################################################
#
# If this CIF has been generated from an entry in the Cambridge 
# Structural Database, then it will include bibliographic, chemical, 
# crystal, experimental, refinement or atomic coordinate data resulting 
# from the CCDC's data processing and validation procedures.
#
#######################################################################

data_WOWZAL
_chemical_formula_moiety         'C27 H48 N2 Se1'
_chemical_name_systematic        
1,3-Dicyclododecyl-1,3-dihydro-2H-imidazole-2-selenone
_symmetry_cell_setting           monoclinic
_symmetry_space_group_name_H-M   'P 21/n'
_symmetry_Int_Tables_number      14
_space_group_name_Hall           '-P 2yn'
loop_
_symmetry_equiv_pos_site_id
_symmetry_equiv_pos_as_xyz
1 x,y,z
2 1/2-x,1/2+y,1/2-z
3 -x,-y,-z
4 1/2+x,1/2-y,1/2+z
_cell_length_a                   14.4058(13)
_cell_length_b                   7.4133(7)
_cell_length_c                   25.023(3)
_cell_angle_alpha                90
_cell_angle_beta                 97.856(3)
_cell_angle_gamma                90
_cell_volume                     2647.24
_exptl_crystal_colour            colorless
_exptl_crystal_description       prism
_cell_formula_units_Z            4
_exptl_crystal_recrystallization_method dichloromethane/pentane
loop_
_atom_site_label
_atom_site_type_symbol
_atom_site_fract_x
_atom_site_fract_y
_atom_site_fract_z
Se1 Se 0.62577(4) 0.10107(6) 0.85771(2)
N1 N 0.6399(3) 0.4323(5) 0.91777(18)
N2 N 0.5764(3) 0.4716(5) 0.83501(18)
C1 C 0.6130(3) 0.3440(6) 0.8705(2)
C2 C 0.6206(4) 0.6148(6) 0.9107(3)
C3 C 0.5809(5) 0.6387(7) 0.8601(3)
C4 C 0.6789(3) 0.3469(7) 0.96854(19)
C5 C 0.7826(3) 0.3962(7) 0.9828(2)
C6 C 0.8475(4) 0.2708(9) 0.9570(2)
C7 C 0.8491(4) 0.0771(9) 0.9763(2)
C8 C 0.8918(4) 0.0545(9) 1.0344(2)
C9 C 0.8793(4) -0.1352(9) 1.0572(3)
C10 C 0.7779(4) -0.1785(9) 1.0647(3)
C11 C 0.7419(5) -0.0732(10) 1.1101(3)
C12 C 0.6352(5) -0.0383(11) 1.1011(3)
C13 C 0.6025(4) 0.0842(9) 1.0544(3)
C14 C 0.6375(4) 0.2762(9) 1.0633(2)
C15 C 0.6196(4) 0.3955(8) 1.0130(2)
C16 C 0.5468(5) 0.4424(8) 0.7764(3)
C17 C 0.6250(5) 0.5433(9) 0.7409(3)
C18 C 0.6154(6) 0.4632(12) 0.6854(3)
C19 C 0.6603(6) 0.2912(12) 0.6864(4)
C20 C 0.6296(7) 0.1605(12) 0.6381(3)
C21 C 0.5258(8) 0.1129(13) 0.6282(4)
C22 C 0.5059(7) 0.0011(12) 0.6714(3)
C23 C 0.3909(6) -0.0010(12) 0.6761(4)
C24 C 0.3561(7) 0.1704(15) 0.6965(4)
C25 C 0.3797(5) 0.1754(14) 0.7538(3)
C26 C 0.3826(6) 0.3757(12) 0.7795(4)
C27 C 0.4506(5) 0.5070(13) 0.7593(4)
H1 H 0.63362 0.70622 0.93722
H2 H 0.55943 0.74991 0.84402
H3 H 0.67499 0.21331 0.96313
H4 H 0.79215 0.52135 0.97083
H5 H 0.79949 0.39231 1.02247
H6 H 0.82859 0.27195 0.9175
H7 H 0.912 0.31963 0.96416
H8 H 0.78419 0.03035 0.97185
H9 H 0.88515 0.00364 0.95324
H10 H 0.86306 0.14346 1.05669
H11 H 0.95963 0.08178 1.03758
H12 H 0.90104 -0.22539 1.03248
H13 H 0.91944 -0.14641 1.09246
H14 H 0.73684 -0.15256 1.03053
H15 H 0.77307 -0.30906 1.07213
H16 H 0.77485 0.0442 1.11429
H17 H 0.75792 -0.14082 1.14427
H18 H 0.60243 -0.15542 1.0951
H19 H 0.6168 0.01531 1.13432
H20 H 0.5331 0.08497 1.04827
H21 H 0.62448 0.03565 1.02143
H22 H 0.70576 0.27325 1.07582
H23 H 0.60667 0.33138 1.09233
H24 H 0.63234 0.5225 1.02385
H25 H 0.55249 0.38659 0.99801
H26 H 0.54814 0.30973 0.76924
H27 H 0.61275 0.67465 0.73843
H28 H 0.68946 0.52456 0.75939
H29 H 0.54815 0.44959 0.67118
H30 H 0.64394 0.54524 0.66099
H31 H 0.6497 0.22903 0.72002
H32 H 0.72857 0.3117 0.68835
H33 H 0.64692 0.21595 0.60488
H34 H 0.66584 0.04724 0.64448
H35 H 0.48743 0.22407 0.62677
H36 H 0.51093 0.04844 0.59348
H37 H 0.54076 0.04581 0.70571
H38 H 0.52728 -0.12339 0.66558
H39 H 0.35587 -0.0264 0.64001
H40 H 0.37775 -0.10029 0.70045
H41 H 0.38506 0.27403 0.68007
H42 H 0.28728 0.17854 0.68668
H43 H 0.44187 0.11855 0.76357
H44 H 0.33343 0.10241 0.77018
H45 H 0.31885 0.42795 0.77222
H46 H 0.39857 0.36488 0.81911
H47 H 0.43839 0.51525 0.7195
H48 H 0.4424 0.62849 0.77445
loop_
_geom_bond_atom_site_label_1
_geom_bond_atom_site_label_2
_geom_bond_site_symmetry_1
_geom_bond_site_symmetry_2
Se1 C1 1_555 1_555
N1 C1 1_555 1_555
N2 C1 1_555 1_555
C2 N1 1_555 1_555
C3 N2 1_555 1_555
C4 N1 1_555 1_555
C5 C4 1_555 1_555
C6 C5 1_555 1_555
C7 C6 1_555 1_555
C8 C7 1_555 1_555
C9 C8 1_555 1_555
C10 C9 1_555 1_555
C11 C10 1_555 1_555
C12 C11 1_555 1_555
C13 C12 1_555 1_555
C14 C13 1_555 1_555
C15 C4 1_555 1_555
C16 N2 1_555 1_555
C17 C16 1_555 1_555
C18 C17 1_555 1_555
C19 C18 1_555 1_555
C20 C19 1_555 1_555
C21 C20 1_555 1_555
C22 C21 1_555 1_555
C23 C22 1_555 1_555
C24 C23 1_555 1_555
C25 C24 1_555 1_555
C26 C25 1_555 1_555
C27 C16 1_555 1_555
H1 C2 1_555 1_555
H2 C3 1_555 1_555
H3 C4 1_555 1_555
H4 C5 1_555 1_555
H5 C5 1_555 1_555
H6 C6 1_555 1_555
H7 C6 1_555 1_555
H8 C7 1_555 1_555
H9 C7 1_555 1_555
H10 C8 1_555 1_555
H11 C8 1_555 1_555
H12 C9 1_555 1_555
H13 C9 1_555 1_555
H14 C10 1_555 1_555
H15 C10 1_555 1_555
H16 C11 1_555 1_555
H17 C11 1_555 1_555
H18 C12 1_555 1_555
H19 C12 1_555 1_555
H20 C13 1_555 1_555
H21 C13 1_555 1_555
H22 C14 1_555 1_555
H23 C14 1_555 1_555
H24 C15 1_555 1_555
H25 C15 1_555 1_555
H26 C16 1_555 1_555
H27 C17 1_555 1_555
H28 C17 1_555 1_555
H29 C18 1_555 1_555
H30 C18 1_555 1_555
H31 C19 1_555 1_555
H32 C19 1_555 1_555
H33 C20 1_555 1_555
H34 C20 1_555 1_555
H35 C21 1_555 1_555
H36 C21 1_555 1_555
H37 C22 1_555 1_555
H38 C22 1_555 1_555
H39 C23 1_555 1_555
H40 C23 1_555 1_555
H41 C24 1_555 1_555
H42 C24 1_555 1_555
H43 C25 1_555 1_555
H44 C25 1_555 1_555
H45 C26 1_555 1_555
H46 C26 1_555 1_555
H47 C27 1_555 1_555
H48 C27 1_555 1_555
C2 C3 1_555 1_555
C14 C15 1_555 1_555
C26 C27 1_555 1_555

#END
