
#######################################################################
#
#                 Cambridge Crystallographic Data Centre
#                                CCDC 
#
#######################################################################
#
# If this CIF has been generated from an entry in the Cambridge 
# Structural Database, then it will include bibliographic, chemical, 
# crystal, experimental, refinement or atomic coordinate data resulting 
# from the CCDC's data processing and validation procedures.
#
#######################################################################

data_WOXBES
_chemical_formula_moiety         'C11 H6 F5 N3 Se1'
_chemical_name_systematic        
2-(Pentafluorophenyl)-2,5,6,7-tetrahydro-3H-pyrrolo[2,1-c][1,2,4]triazole-3-selenone
_symmetry_cell_setting           monoclinic
_symmetry_space_group_name_H-M   'P 21/c'
_symmetry_Int_Tables_number      14
_space_group_name_Hall           '-P 2ybc'
loop_
_symmetry_equiv_pos_site_id
_symmetry_equiv_pos_as_xyz
1 x,y,z
2 -x,1/2+y,1/2-z
3 -x,-y,-z
4 x,1/2-y,1/2+z
_cell_length_a                   9.3746(16)
_cell_length_b                   15.527(3)
_cell_length_c                   8.3524(14)
_cell_angle_alpha                90
_cell_angle_beta                 90.357(5)
_cell_angle_gamma                90
_cell_volume                     1215.75
_exptl_crystal_colour            colorless
_exptl_crystal_description       prism
_cell_formula_units_Z            4
_exptl_crystal_recrystallization_method acetone/hexane
loop_
_atom_site_label
_atom_site_type_symbol
_atom_site_fract_x
_atom_site_fract_y
_atom_site_fract_z
Se1 Se 0.03999(5) 0.17604(3) 0.25566(5)
F1 F 0.3960(3) -0.00427(16) 0.2066(4)
F2 F 0.6213(3) 0.02939(17) 0.4040(3)
F3 F 0.7136(3) 0.19326(18) 0.4387(3)
F4 F 0.5887(3) 0.32245(16) 0.2748(3)
F5 F 0.3622(3) 0.28946(16) 0.0793(3)
N1 N 0.2583(4) 0.1242(2) 0.0367(4)
N2 N 0.2825(4) 0.0925(2) -0.1173(4)
N3 N 0.0544(4) 0.1122(2) -0.0661(4)
C1 C 0.1194(5) 0.1363(3) 0.0708(5)
C2 C 0.1539(5) 0.0874(3) -0.1739(5)
C3 C 0.3758(4) 0.1416(3) 0.1388(5)
C4 C 0.4438(5) 0.0758(3) 0.2224(5)
C5 C 0.5578(5) 0.0926(3) 0.3227(5)
C6 C 0.6059(5) 0.1756(3) 0.3369(5)
C7 C 0.5406(5) 0.2420(3) 0.2566(5)
C8 C 0.4254(5) 0.2250(3) 0.1574(5)
C9 C 0.0843(5) 0.0602(3) -0.3273(5)
C10 C -0.0707(5) 0.0881(3) -0.3031(6)
C11 C -0.0925(4) 0.1077(3) -0.1245(5)
H1 H 0.09143 -0.00284 -0.34297
H2 H 0.12718 0.08988 -0.42023
H3 H -0.13613 0.04159 -0.33785
H4 H -0.09142 0.14007 -0.36787
H5 H -0.14299 0.16298 -0.10896
H6 H -0.14618 0.06104 -0.07096
loop_
_geom_bond_atom_site_label_1
_geom_bond_atom_site_label_2
_geom_bond_site_symmetry_1
_geom_bond_site_symmetry_2
Se1 C1 1_555 1_555
F1 C4 1_555 1_555
F2 C5 1_555 1_555
F3 C6 1_555 1_555
F4 C7 1_555 1_555
F5 C8 1_555 1_555
N1 N2 1_555 1_555
N2 C2 1_555 1_555
N3 C1 1_555 1_555
C1 N1 1_555 1_555
C2 N3 1_555 1_555
C3 N1 1_555 1_555
C4 C3 1_555 1_555
C5 C4 1_555 1_555
C6 C5 1_555 1_555
C7 C6 1_555 1_555
C8 C3 1_555 1_555
C9 C2 1_555 1_555
C10 C9 1_555 1_555
C11 N3 1_555 1_555
H1 C9 1_555 1_555
H2 C9 1_555 1_555
H3 C10 1_555 1_555
H4 C10 1_555 1_555
H5 C11 1_555 1_555
H6 C11 1_555 1_555
C7 C8 1_555 1_555
C10 C11 1_555 1_555

#END
