
#######################################################################
#
#                 Cambridge Crystallographic Data Centre
#                                CCDC 
#
#######################################################################
#
# If this CIF has been generated from an entry in the Cambridge 
# Structural Database, then it will include bibliographic, chemical, 
# crystal, experimental, refinement or atomic coordinate data resulting 
# from the CCDC's data processing and validation procedures.
#
#######################################################################

data_WOXBIW
_chemical_formula_moiety         'C11 H11 N3 O1 Se1'
_chemical_name_systematic        
2-Phenyl-2,5,6,8-tetrahydro-3H-[1,2,4]triazolo[3,4-c][1,4]oxazine-3-selone
_symmetry_cell_setting           triclinic
_symmetry_space_group_name_H-M   'P -1'
_symmetry_Int_Tables_number      2
_space_group_name_Hall           '-P 1'
loop_
_symmetry_equiv_pos_site_id
_symmetry_equiv_pos_as_xyz
1 x,y,z
2 -x,-y,-z
_cell_length_a                   7.8283(13)
_cell_length_b                   7.9731(14)
_cell_length_c                   18.447(3)
_cell_angle_alpha                97.930(6)
_cell_angle_beta                 94.637(5)
_cell_angle_gamma                90.042(5)
_cell_volume                     1136.56
_exptl_crystal_colour            colorless
_exptl_crystal_description       platelet
_cell_formula_units_Z            4
_exptl_crystal_recrystallization_method acetone/hexane
loop_
_atom_site_label
_atom_site_type_symbol
_atom_site_fract_x
_atom_site_fract_y
_atom_site_fract_z
Se1 Se 0.21448(19) 0.07797(18) 0.46052(8)
O1 O 0.7952(13) 0.4420(15) 0.4352(6)
N1 N 0.4416(14) 0.2462(14) 0.5807(6)
N2 N 0.5997(14) 0.3333(14) 0.5947(7)
N3 N 0.5311(15) 0.2635(14) 0.4767(7)
C1 C 0.3948(15) 0.2026(14) 0.5100(8)
C2 C 0.6446(19) 0.3421(17) 0.5303(8)
C3 C 0.359(2) 0.2049(17) 0.6442(8)
C4 C 0.183(2) 0.187(2) 0.6405(9)
C5 C 0.107(2) 0.140(2) 0.7002(10)
C6 C 0.209(3) 0.118(2) 0.7636(9)
C7 C 0.383(3) 0.142(2) 0.7678(9)
C8 C 0.461(3) 0.186(2) 0.7077(9)
C9 C 0.8111(17) 0.4185(17) 0.5073(10)
C10 C 0.733(2) 0.292(2) 0.3875(11)
C11 C 0.547(2) 0.2534(18) 0.3978(8)
H1 H 0.11454 0.20644 0.59752
H2 H -0.01388 0.12428 0.69798
H3 H 0.15688 0.08515 0.80441
H4 H 0.45024 0.12802 0.81173
H5 H 0.58149 0.20248 0.71013
H6 H 0.83736 0.52847 0.53827
H7 H 0.90777 0.34159 0.51562
H8 H 0.80447 0.19495 0.39782
H9 H 0.74294 0.30892 0.33583
H10 H 0.47087 0.33628 0.37671
H11 H 0.51488 0.13858 0.37278
Se2 Se 0.10418(19) 0.20795(18) -0.02520(9)
O2 O 0.4276(14) 0.7920(14) -0.0687(6)
N4 N 0.2451(15) 0.4688(14) 0.0887(7)
N5 N 0.3191(14) 0.6274(15) 0.0981(7)
N6 N 0.2697(15) 0.5298(15) -0.0182(7)
C12 C 0.2121(19) 0.4101(18) 0.0162(8)
C13 C 0.3325(18) 0.6620(18) 0.0316(8)
C14 C 0.2086(18) 0.398(2) 0.1525(8)
C15 C 0.238(2) 0.229(2) 0.1593(10)
C16 C 0.198(2) 0.168(2) 0.2216(10)
C17 C 0.126(2) 0.270(3) 0.2775(10)
C18 C 0.097(2) 0.437(3) 0.2704(9)
C19 C 0.140(2) 0.507(2) 0.2094(8)
C20 C 0.395(2) 0.8216(19) 0.0075(9)
C21 C 0.281(2) 0.714(2) -0.1099(8)
C22 C 0.261(2) 0.533(2) -0.0987(8)
H12 H 0.28433 0.15576 0.12089
H13 H 0.22125 0.05276 0.22666
H14 H 0.09685 0.22539 0.32006
H15 H 0.04589 0.50706 0.30847
H16 H 0.12456 0.62346 0.20626
H17 H 0.30738 0.91068 0.01501
H18 H 0.50121 0.86187 0.03756
H19 H 0.28991 0.71946 -0.16275
H20 H 0.17709 0.77681 -0.09519
H21 H 0.14948 0.48634 -0.12207
H22 H 0.35377 0.46423 -0.12059
loop_
_geom_bond_atom_site_label_1
_geom_bond_atom_site_label_2
_geom_bond_site_symmetry_1
_geom_bond_site_symmetry_2
Se1 C1 1_555 1_555
O1 C9 1_555 1_555
N1 N2 1_555 1_555
N2 C2 1_555 1_555
N3 C1 1_555 1_555
C1 N1 1_555 1_555
C2 N3 1_555 1_555
C3 N1 1_555 1_555
C4 C3 1_555 1_555
C5 C4 1_555 1_555
C6 C5 1_555 1_555
C7 C6 1_555 1_555
C8 C3 1_555 1_555
C9 C2 1_555 1_555
C10 O1 1_555 1_555
C11 N3 1_555 1_555
H1 C4 1_555 1_555
H2 C5 1_555 1_555
H3 C6 1_555 1_555
H4 C7 1_555 1_555
H5 C8 1_555 1_555
H6 C9 1_555 1_555
H7 C9 1_555 1_555
H8 C10 1_555 1_555
H9 C10 1_555 1_555
H10 C11 1_555 1_555
H11 C11 1_555 1_555
Se2 C12 1_555 1_555
O2 C20 1_555 1_555
N4 N5 1_555 1_555
N5 C13 1_555 1_555
N6 C12 1_555 1_555
C12 N4 1_555 1_555
C13 N6 1_555 1_555
C14 N4 1_555 1_555
C15 C14 1_555 1_555
C16 C15 1_555 1_555
C17 C16 1_555 1_555
C18 C17 1_555 1_555
C19 C14 1_555 1_555
C20 C13 1_555 1_555
C21 O2 1_555 1_555
C22 N6 1_555 1_555
H12 C15 1_555 1_555
H13 C16 1_555 1_555
H14 C17 1_555 1_555
H15 C18 1_555 1_555
H16 C19 1_555 1_555
H17 C20 1_555 1_555
H18 C20 1_555 1_555
H19 C21 1_555 1_555
H20 C21 1_555 1_555
H21 C22 1_555 1_555
H22 C22 1_555 1_555
C7 C8 1_555 1_555
C10 C11 1_555 1_555
C18 C19 1_555 1_555
C21 C22 1_555 1_555

#END
