
#######################################################################
#
#                 Cambridge Crystallographic Data Centre
#                                CCDC 
#
#######################################################################
#
# If this CIF has been generated from an entry in the Cambridge 
# Structural Database, then it will include bibliographic, chemical, 
# crystal, experimental, refinement or atomic coordinate data resulting 
# from the CCDC's data processing and validation procedures.
#
#######################################################################

data_WOXBOC
_chemical_formula_moiety         'C21 H21 N3 O1 Se1'
_chemical_name_systematic        
2-Mesityl-2,4,6,10b-tetrahydro-1H,5aH-indeno[2,1-b][1,2,4]triazolo[4,3-d][1,4]oxazine-1-selenone
_symmetry_cell_setting           triclinic
_symmetry_space_group_name_H-M   'P -1'
_symmetry_Int_Tables_number      2
_space_group_name_Hall           '-P 1'
loop_
_symmetry_equiv_pos_site_id
_symmetry_equiv_pos_as_xyz
1 x,y,z
2 -x,-y,-z
_cell_length_a                   8.5326(19)
_cell_length_b                   10.637(3)
_cell_length_c                   11.589(3)
_cell_angle_alpha                107.558(4)
_cell_angle_beta                 101.546(4)
_cell_angle_gamma                107.498(3)
_cell_volume                     906.176
_exptl_crystal_colour            colorless
_exptl_crystal_description       prism
_cell_formula_units_Z            2
_exptl_crystal_recrystallization_method acetone/hexane
loop_
_atom_site_label
_atom_site_type_symbol
_atom_site_fract_x
_atom_site_fract_y
_atom_site_fract_z
Se1 Se 1.09830(3) 0.37296(2) 0.07155(2)
O1 O 0.68846(17) 0.61454(14) 0.28632(12)
N1 N 0.7274(2) 0.24928(16) 0.00092(15)
N2 N 0.5865(2) 0.27778(17) 0.02623(16)
N3 N 0.8347(2) 0.45713(15) 0.15014(14)
C1 C 0.8800(3) 0.35756(19) 0.07374(18)
C2 C 0.6584(3) 0.4051(2) 0.11655(18)
C3 C 0.7043(2) 0.11875(19) -0.09851(18)
C4 C 0.7448(3) 0.0150(2) -0.06343(19)
C5 C 0.7359(3) -0.1039(2) -0.1606(2)
C6 C 0.6888(3) -0.1213(2) -0.2879(2)
C7 C 0.6431(3) -0.0177(2) -0.3181(2)
C8 C 0.6490(3) 0.10354(19) -0.22518(19)
C9 C 0.7941(3) 0.0291(2) 0.0734(2)
C10 C 0.6872(3) -0.2500(2) -0.3896(2)
C11 C 0.5923(3) 0.2108(2) -0.2624(2)
C12 C 0.5685(3) 0.4944(2) 0.1772(2)
C13 C 0.8357(3) 0.6935(2) 0.25931(19)
C14 C 0.9512(3) 0.8209(2) 0.38303(19)
C15 C 1.0580(3) 0.7594(2) 0.45205(19)
C16 C 1.1535(3) 0.8120(2) 0.5801(2)
C17 C 1.2401(3) 0.7343(2) 0.6222(2)
C18 C 1.2305(3) 0.6063(2) 0.5376(2)
C19 C 1.1373(3) 0.5545(2) 0.4090(2)
C20 C 1.0517(3) 0.63204(19) 0.36741(18)
C21 C 0.9472(3) 0.60516(18) 0.23446(18)
H1 H 0.763 -0.17613 -0.13934
H2 H 0.60659 -0.03011 -0.40527
H3 H 0.82793 -0.0497 0.07895
H4 H 0.69485 0.02578 0.10449
H5 H 0.89166 0.12038 0.12584
H6 H 0.80587 -0.23541 -0.39055
H7 H 0.61544 -0.26327 -0.47316
H8 H 0.63916 -0.33514 -0.37129
H9 H 0.67252 0.30774 -0.20364
H10 H 0.47506 0.19662 -0.25789
H11 H 0.59234 0.19792 -0.34971
H12 H 0.51205 0.52672 0.11503
H13 H 0.47728 0.43632 0.20226
H14 H 0.8011 0.72337 0.1874
H15 H 1.02578 0.89976 0.36576
H16 H 0.88113 0.85673 0.43304
H17 H 1.15982 0.89976 0.63807
H18 H 1.30626 0.76932 0.70975
H19 H 1.28845 0.55336 0.56792
H20 H 1.13244 0.46748 0.35074
H21 H 1.02789 0.64571 0.19132
loop_
_geom_bond_atom_site_label_1
_geom_bond_atom_site_label_2
_geom_bond_site_symmetry_1
_geom_bond_site_symmetry_2
Se1 C1 1_555 1_555
O1 C12 1_555 1_555
N1 N2 1_555 1_555
N2 C2 1_555 1_555
N3 C1 1_555 1_555
C1 N1 1_555 1_555
C2 N3 1_555 1_555
C3 N1 1_555 1_555
C4 C3 1_555 1_555
C5 C4 1_555 1_555
C6 C5 1_555 1_555
C7 C6 1_555 1_555
C8 C3 1_555 1_555
C9 C4 1_555 1_555
C10 C6 1_555 1_555
C11 C8 1_555 1_555
C12 C2 1_555 1_555
C13 O1 1_555 1_555
C14 C13 1_555 1_555
C15 C14 1_555 1_555
C16 C15 1_555 1_555
C17 C16 1_555 1_555
C18 C17 1_555 1_555
C19 C18 1_555 1_555
C20 C15 1_555 1_555
C21 N3 1_555 1_555
H1 C5 1_555 1_555
H2 C7 1_555 1_555
H3 C9 1_555 1_555
H4 C9 1_555 1_555
H5 C9 1_555 1_555
H6 C10 1_555 1_555
H7 C10 1_555 1_555
H8 C10 1_555 1_555
H9 C11 1_555 1_555
H10 C11 1_555 1_555
H11 C11 1_555 1_555
H12 C12 1_555 1_555
H13 C12 1_555 1_555
H14 C13 1_555 1_555
H15 C14 1_555 1_555
H16 C14 1_555 1_555
H17 C16 1_555 1_555
H18 C17 1_555 1_555
H19 C18 1_555 1_555
H20 C19 1_555 1_555
H21 C21 1_555 1_555
C7 C8 1_555 1_555
C13 C21 1_555 1_555
C19 C20 1_555 1_555
C20 C21 1_555 1_555

#END
