
#######################################################################
#
#                 Cambridge Crystallographic Data Centre
#                                CCDC 
#
#######################################################################
#
# If this CIF has been generated from an entry in the Cambridge 
# Structural Database, then it will include bibliographic, chemical, 
# crystal, experimental, refinement or atomic coordinate data resulting 
# from the CCDC's data processing and validation procedures.
#
#######################################################################

data_WOXBAO
_chemical_formula_moiety         'C21 H26 N2 Se1'
_chemical_name_systematic        1,3-Dimesitylimidazolidine-2-selenone
_symmetry_cell_setting           orthorhombic
_symmetry_space_group_name_H-M   'P b c n'
_symmetry_Int_Tables_number      60
_space_group_name_Hall           '-P 2n 2ab'
loop_
_symmetry_equiv_pos_site_id
_symmetry_equiv_pos_as_xyz
1 x,y,z
2 1/2-x,1/2-y,1/2+z
3 1/2+x,1/2-y,-z
4 -x,y,1/2-z
5 -x,-y,-z
6 1/2+x,1/2+y,1/2-z
7 1/2-x,1/2+y,z
8 x,-y,1/2+z
_cell_length_a                   15.9194(19)
_cell_length_b                   7.4418(7)
_cell_length_c                   16.1915(19)
_cell_angle_alpha                90
_cell_angle_beta                 90
_cell_angle_gamma                90
_cell_volume                     1918.19
_exptl_crystal_colour            colorless
_cell_formula_units_Z            4
_exptl_crystal_recrystallization_method chloroform/pentane
loop_
_atom_site_label
_atom_site_type_symbol
_atom_site_fract_x
_atom_site_fract_y
_atom_site_fract_z
Se1 Se 0.500 0.99672(3) 0.750
N1 N 0.46430(10) 0.64595(19) 0.69237(9)
C1 C 0.500 0.7510(3) 0.750
C2 C 0.48162(16) 0.4551(3) 0.70655(14)
C3 C 0.42243(11) 0.7087(2) 0.61935(10)
C4 C 0.33545(12) 0.7274(3) 0.62146(10)
C5 C 0.29487(12) 0.7856(3) 0.55063(12)
C6 C 0.33899(12) 0.8258(3) 0.47891(11)
C7 C 0.42563(12) 0.8064(2) 0.47922(11)
C8 C 0.46871(11) 0.7455(2) 0.54843(10)
C9 C 0.28648(14) 0.6906(4) 0.69945(13)
C10 C 0.29358(14) 0.8904(3) 0.40283(13)
C11 C 0.56264(12) 0.7210(3) 0.54588(13)
H1 H 0.52246 0.40801 0.66584
H2 H 0.42951 0.38277 0.70385
H3 H 0.2355 0.79833 0.55111
H4 H 0.4564 0.83561 0.43077
H5 H 0.29923 0.78337 0.74054
H6 H 0.3022 0.57252 0.72133
H7 H 0.22621 0.69204 0.68712
H8 H 0.26293 0.79005 0.37781
H9 H 0.33439 0.93787 0.3631
H10 H 0.25388 0.98545 0.4181
H11 H 0.58566 0.78576 0.49828
H12 H 0.57589 0.59289 0.54093
H13 H 0.58745 0.76857 0.59678
N1C N 0.53570(10) 0.64595(19) 0.80763(9)
C2C C 0.51838(16) 0.4551(3) 0.79345(14)
C3C C 0.57757(11) 0.7087(2) 0.88065(10)
C4C C 0.66455(12) 0.7274(3) 0.87854(10)
C5C C 0.70513(12) 0.7856(3) 0.94937(12)
C6C C 0.66101(12) 0.8258(3) 1.02109(11)
C7C C 0.57437(12) 0.8064(2) 1.02078(11)
C8C C 0.53129(11) 0.7455(2) 0.95157(10)
C9C C 0.71352(14) 0.6906(4) 0.80055(13)
C10C C 0.70642(14) 0.8904(3) 1.09717(13)
C11C C 0.43736(12) 0.7210(3) 0.95412(13)
H1C H 0.47754 0.40801 0.83416
H2C H 0.57049 0.38277 0.79615
H3C H 0.7645 0.79833 0.94889
H4C H 0.5436 0.83561 1.06923
H5C H 0.70077 0.78337 0.75946
H6C H 0.6978 0.57252 0.77867
H7C H 0.77379 0.69204 0.81288
H8C H 0.73707 0.79005 1.12219
H9C H 0.66561 0.93787 1.1369
H10C H 0.74612 0.98545 1.0819
H11C H 0.41434 0.78576 1.00172
H12C H 0.42411 0.59289 0.95907
H13C H 0.41255 0.76857 0.90322
loop_
_geom_bond_atom_site_label_1
_geom_bond_atom_site_label_2
_geom_bond_site_symmetry_1
_geom_bond_site_symmetry_2
Se1 C1 1_555 1_555
N1 C1 1_555 1_555
C1 N1C 1_555 1_555
C2 N1 1_555 1_555
C3 N1 1_555 1_555
C4 C3 1_555 1_555
C5 C4 1_555 1_555
C6 C5 1_555 1_555
C7 C6 1_555 1_555
C8 C3 1_555 1_555
C9 C4 1_555 1_555
C10 C6 1_555 1_555
C11 C8 1_555 1_555
H1 C2 1_555 1_555
H2 C2 1_555 1_555
H3 C5 1_555 1_555
H4 C7 1_555 1_555
H5 C9 1_555 1_555
H6 C9 1_555 1_555
H7 C9 1_555 1_555
H8 C10 1_555 1_555
H9 C10 1_555 1_555
H10 C10 1_555 1_555
H11 C11 1_555 1_555
H12 C11 1_555 1_555
H13 C11 1_555 1_555
N1C C2C 1_555 1_555
C2C C2 1_555 1_555
C3C N1C 1_555 1_555
C4C C3C 1_555 1_555
C5C C4C 1_555 1_555
C6C C5C 1_555 1_555
C7C C6C 1_555 1_555
C8C C3C 1_555 1_555
C9C C4C 1_555 1_555
C10C C6C 1_555 1_555
C11C C8C 1_555 1_555
H1C C2C 1_555 1_555
H2C C2C 1_555 1_555
H3C C5C 1_555 1_555
H4C C7C 1_555 1_555
H5C C9C 1_555 1_555
H6C C9C 1_555 1_555
H7C C9C 1_555 1_555
H8C C10C 1_555 1_555
H9C C10C 1_555 1_555
H10C C10C 1_555 1_555
H11C C11C 1_555 1_555
H12C C11C 1_555 1_555
H13C C11C 1_555 1_555
C7 C8 1_555 1_555
C7C C8C 1_555 1_555

#END
