
#######################################################################
#
#                 Cambridge Crystallographic Data Centre
#                                CCDC 
#
#######################################################################
#
# If this CIF has been generated from an entry in the Cambridge 
# Structural Database, then it will include bibliographic, chemical, 
# crystal, experimental, refinement or atomic coordinate data resulting 
# from the CCDC's data processing and validation procedures.
#
#######################################################################

data_WOXXAK
_chemical_formula_moiety         'C24 H26 N8 O2'
_chemical_name_systematic        
2-(4-(3-(1-(4-(2-aminopyrimidin-5-yl)phenyl)-1-cyclopropylethyl)-1,2,4-oxadiazol-5-yl)-1H-pyrazol-1-yl)-N,N-dimethylacetamide
_symmetry_cell_setting           orthorhombic
_symmetry_space_group_name_H-M   'P 21 21 21'
_symmetry_Int_Tables_number      19
_space_group_name_Hall           'P 2ac 2ab'
loop_
_symmetry_equiv_pos_site_id
_symmetry_equiv_pos_as_xyz
1 x,y,z
2 1/2+x,1/2-y,-z
3 -x,1/2+y,1/2-z
4 1/2-x,-y,1/2+z
_cell_length_a                   8.7331(4)
_cell_length_b                   9.5640(4)
_cell_length_c                   26.7868(12)
_cell_angle_alpha                90
_cell_angle_beta                 90
_cell_angle_gamma                90
_cell_volume                     2237.32
_cell_formula_units_Z            4
loop_
_atom_site_label
_atom_site_type_symbol
_atom_site_fract_x
_atom_site_fract_y
_atom_site_fract_z
O1 O 0.78375(11) 0.16878(10) -0.00242(3)
O2 O 0.54761(11) 0.51021(10) 0.16246(3)
N1 N 0.61479(13) 0.06671(12) -0.05469(4)
N2 N 0.59747(12) 0.15100(11) 0.07919(4)
N3 N 0.75632(13) 0.45393(11) 0.20511(4)
N4 N 0.91639(13) 0.42087(12) 0.53543(4)
N5 N 0.85302(15) 0.23850(12) 0.58727(4)
H1 H 0.817(2) 0.1564(12) 0.5925(6)
H2 H 0.896(2) 0.2848(17) 0.6110(5)
N6 N 0.67188(13) 0.06892(12) 0.11259(4)
N7 N 0.58024(13) 0.62489(11) 0.19406(4)
N8 N 0.77538(14) 0.22340(11) 0.50555(4)
C1 C 0.46546(16) 0.00466(18) -0.06450(5)
H3 H 0.4681 -0.0950 -0.0561
H4 H 0.4401 0.0157 -0.0999
H5 H 0.3877 0.0516 -0.0441
C2 C 0.65899(15) 0.11373(13) -0.00987(5)
C3 C 0.54195(15) 0.09621(14) 0.03208(5)
H6 H 0.4463 0.1453 0.0228
H7 H 0.5177 -0.0043 0.0361
C4 C 0.58273(15) 0.28234(14) 0.09471(5)
H8 H 0.5346 0.3567 0.0772
C5 C 0.65111(15) 0.28977(14) 0.14123(5)
C6 C 0.65881(15) 0.41507(13) 0.17120(5)
C7 C 0.70320(15) 0.58633(13) 0.21786(4)
C8 C 0.77987(15) 0.68244(13) 0.25489(5)
C9 C 0.79534(14) 0.60854(13) 0.30547(5)
C10 C 0.68599(15) 0.51348(15) 0.32172(5)
H9 H 0.6033 0.4896 0.3003
C11 C 0.69539(16) 0.45298(14) 0.36853(5)
H10 H 0.6183 0.3891 0.3789
C12 C 0.81597(15) 0.48399(13) 0.40087(5)
C13 C 0.82883(14) 0.41608(13) 0.45048(5)
C14 C 0.90562(16) 0.47751(14) 0.49035(5)
H11 H 0.9533 0.5655 0.4850
C15 C 0.84834(15) 0.29572(14) 0.54130(5)
C16 C 0.72864(17) 0.06292(17) -0.09464(5)
H12 H 0.7529 0.1586 -0.1051
H13 H 0.6875 0.0106 -0.1231
H14 H 0.8218 0.0170 -0.0825
C17 C 0.70365(15) 0.15339(14) 0.15039(5)
H15 H 0.7554 0.1253 0.1799
C18 C 0.76717(16) 0.28520(14) 0.46105(5)
H16 H 0.7161 0.2369 0.4349
C19 C 0.92430(15) 0.58056(14) 0.38485(5)
H17 H 1.0070 0.6048 0.4062
C20 C 0.91324(16) 0.64192(14) 0.33807(5)
H18 H 0.9881 0.7084 0.3281
C21 C 0.67818(16) 0.81312(14) 0.26195(5)
H19 H 0.6700 0.8635 0.2302
H20 H 0.7241 0.8745 0.2871
H21 H 0.5759 0.7843 0.2730
C22 C 0.93482(15) 0.73339(14) 0.23503(5)
H22 H 0.9798 0.8113 0.2552
C23 C 0.96776(17) 0.74518(15) 0.18023(5)
H23 H 1.0245 0.8286 0.1685
H24 H 0.8898 0.7093 0.1566
C24 C 1.05273(16) 0.64057(15) 0.21176(5)
H25 H 1.0270 0.5405 0.2075
H26 H 1.1617 0.6598 0.2194
loop_
_geom_bond_atom_site_label_1
_geom_bond_atom_site_label_2
_geom_bond_site_symmetry_1
_geom_bond_site_symmetry_2
O1 C2 1_555 1_555
O2 N7 1_555 1_555
N1 C1 1_555 1_555
N2 N6 1_555 1_555
N3 C6 1_555 1_555
N4 C14 1_555 1_555
N5 H1 1_555 1_555
H2 N5 1_555 1_555
N6 C17 1_555 1_555
N7 C7 1_555 1_555
N8 C15 1_555 1_555
C1 H3 1_555 1_555
H4 C1 1_555 1_555
H5 C1 1_555 1_555
C2 N1 1_555 1_555
C3 N2 1_555 1_555
H6 C3 1_555 1_555
H7 C3 1_555 1_555
C4 N2 1_555 1_555
H8 C4 1_555 1_555
C5 C4 1_555 1_555
C6 O2 1_555 1_555
C7 N3 1_555 1_555
C8 C7 1_555 1_555
C9 C8 1_555 1_555
C10 C9 1_555 1_555
H9 C10 1_555 1_555
C11 C10 1_555 1_555
H10 C11 1_555 1_555
C12 C11 1_555 1_555
C13 C12 1_555 1_555
C14 C13 1_555 1_555
H11 C14 1_555 1_555
C15 N4 1_555 1_555
C16 N1 1_555 1_555
H12 C16 1_555 1_555
H13 C16 1_555 1_555
H14 C16 1_555 1_555
C17 C5 1_555 1_555
H15 C17 1_555 1_555
C18 N8 1_555 1_555
H16 C18 1_555 1_555
C19 C12 1_555 1_555
H17 C19 1_555 1_555
C20 C9 1_555 1_555
H18 C20 1_555 1_555
C21 C8 1_555 1_555
H19 C21 1_555 1_555
H20 C21 1_555 1_555
H21 C21 1_555 1_555
C22 C8 1_555 1_555
H22 C22 1_555 1_555
C23 C22 1_555 1_555
H23 C23 1_555 1_555
H24 C23 1_555 1_555
C24 C22 1_555 1_555
H25 C24 1_555 1_555
H26 C24 1_555 1_555
N5 C15 1_555 1_555
C2 C3 1_555 1_555
C5 C6 1_555 1_555
C13 C18 1_555 1_555
C19 C20 1_555 1_555
C23 C24 1_555 1_555

#END
