
#######################################################################
#
#                 Cambridge Crystallographic Data Centre
#                                CCDC 
#
#######################################################################
#
# If this CIF has been generated from an entry in the Cambridge 
# Structural Database, then it will include bibliographic, chemical, 
# crystal, experimental, refinement or atomic coordinate data resulting 
# from the CCDC's data processing and validation procedures.
#
#######################################################################

data_WOYGIC
_chemical_formula_moiety         'C23 H19 N1 O1'
_chemical_name_systematic        N,N-dibenzyl-3-phenylprop-2-ynamide
_symmetry_cell_setting           triclinic
_symmetry_space_group_name_H-M   'P -1'
_symmetry_Int_Tables_number      2
_space_group_name_Hall           '-P 1'
loop_
_symmetry_equiv_pos_site_id
_symmetry_equiv_pos_as_xyz
1 x,y,z
2 -x,-y,-z
_cell_length_a                   9.4895(9)
_cell_length_b                   9.9809(9)
_cell_length_c                   18.7212(17)
_cell_angle_alpha                88.615(2)
_cell_angle_beta                 83.8400(10)
_cell_angle_gamma                89.586(2)
_cell_volume                     1762.38
_exptl_crystal_colour            colorless
_exptl_crystal_description       block
_cell_formula_units_Z            4
loop_
_atom_site_label
_atom_site_type_symbol
_atom_site_fract_x
_atom_site_fract_y
_atom_site_fract_z
O1 O 1.07029(16) 0.47497(15) 0.22792(9)
N1 N 0.96620(18) 0.28162(16) 0.20033(9)
C1 C 0.8151(2) 0.4483(2) 0.10351(11)
H1 H 0.8092 0.4727 0.1525
C2 C 0.7229(2) 0.5062(2) 0.05885(12)
H2 H 0.6546 0.5701 0.0773
C3 C 0.7303(2) 0.4712(2) -0.01233(12)
H3 H 0.6666 0.5102 -0.0428
C4 C 0.8309(3) 0.3790(2) -0.03916(12)
H4 H 0.8371 0.3553 -0.0883
C5 C 0.9227(2) 0.3211(2) 0.00573(11)
H5 H 0.9911 0.2575 -0.0129
C6 C 0.9159(2) 0.35477(19) 0.07738(11)
C7 C 1.0211(2) 0.2947(2) 0.12436(11)
H6 H 1.0497 0.2049 0.1065
H7 H 1.1068 0.3514 0.1200
C8 C 0.8739(2) 0.1675(2) 0.22104(11)
H8 H 0.8066 0.1577 0.1846
H9 H 0.8180 0.1862 0.2675
C9 C 0.9536(2) 0.0365(2) 0.22826(10)
C10 C 0.9056(2) -0.0794(2) 0.19975(11)
H10 H 0.8249 -0.0756 0.1738
C11 C 0.9742(2) -0.2015(2) 0.20869(12)
H11 H 0.9408 -0.2802 0.1886
C12 C 1.0906(2) -0.2081(2) 0.24676(13)
H12 H 1.1370 -0.2914 0.2533
C13 C 1.1400(2) -0.0930(2) 0.27555(12)
H13 H 1.2208 -0.0973 0.3015
C14 C 1.0714(2) 0.0285(2) 0.26650(11)
H14 H 1.1052 0.1070 0.2866
C15 C 0.9961(2) 0.3774(2) 0.24605(11)
C16 C 0.9340(2) 0.3605(2) 0.32041(12)
C17 C 0.8820(2) 0.3603(2) 0.38197(12)
C18 C 0.6789(6) 0.3792(5) 0.4717(3)
C19 C 0.6237(7) 0.3873(6) 0.5442(3)
C20 C 0.6964(4) 0.3732(3) 0.59730(15)
C21 C 0.8579(7) 0.3606(6) 0.5813(3)
C22 C 0.9162(6) 0.3526(5) 0.5098(3)
C23 C 0.8182(3) 0.3625(2) 0.45532(12)
O2 O 0.56527(17) 0.00458(15) 0.23117(9)
N2 N 0.46490(18) 0.20216(16) 0.20027(9)
C28 C 0.4214(2) 0.1781(2) 0.00621(11)
H15 H 0.4886 0.2435 -0.0125
C29 C 0.3294(3) 0.1252(2) -0.03806(12)
H16 H 0.3341 0.1542 -0.0870
C30 C 0.2300(2) 0.0300(2) -0.01150(12)
H17 H 0.1662 -0.0057 -0.0418
C31 C 0.2252(2) -0.0121(2) 0.05961(12)
H18 H 0.1580 -0.0775 0.0782
C32 C 0.3178(2) 0.0407(2) 0.10390(11)
H19 H 0.3138 0.0107 0.1526
C33 C 0.4165(2) 0.13687(19) 0.07776(11)
C34 C 0.5218(2) 0.1915(2) 0.12480(11)
H20 H 0.6063 0.1323 0.1218
H21 H 0.5527 0.2813 0.1060
C35 C 0.3734(2) 0.31766(19) 0.21910(11)
H22 H 0.3135 0.2965 0.2645
H23 H 0.3096 0.3327 0.1811
C36 C 0.4536(2) 0.4455(2) 0.22799(10)
C37 C 0.4073(2) 0.5658(2) 0.19943(11)
H24 H 0.3275 0.5664 0.1728
C38 C 0.4762(2) 0.6853(2) 0.20931(12)
H25 H 0.4435 0.7667 0.1894
C39 C 0.5920(2) 0.6857(2) 0.24793(12)
H26 H 0.6391 0.7673 0.2550
C40 C 0.6391(2) 0.5663(2) 0.27633(13)
H27 H 0.7194 0.5660 0.3026
C41 C 0.5702(2) 0.4469(2) 0.26675(12)
H28 H 0.6030 0.3657 0.2869
C42 C 0.4917(2) 0.1033(2) 0.24757(11)
C43 C 0.4263(2) 0.1182(2) 0.32118(12)
C44 C 0.3725(2) 0.1206(2) 0.38211(12)
C45 C 0.3091(2) 0.1246(2) 0.45536(11)
C46 C 0.3296(6) 0.2341(6) 0.4952(3)
C47 C 0.2711(7) 0.2371(7) 0.5667(3)
C48 C 0.1917(3) 0.1317(3) 0.59829(13)
C49 C 0.1663(6) 0.0203(6) 0.5575(3)
C50 C 0.2226(6) 0.0160(5) 0.4850(3)
C24? C 0.7413(5) 0.2469(5) 0.4860(3)
C25? C 0.6747(6) 0.2512(6) 0.5568(3)
C26? C 0.7474(9) 0.4816(7) 0.5644(3)
C27? C 0.8140(7) 0.4786(6) 0.4940(3)
C51? C 0.1679(5) 0.1441(5) 0.4715(3)
C52? C 0.1083(5) 0.1471(6) 0.5426(3)
C53? C 0.3378(6) 0.1140(5) 0.5829(3)
C54? C 0.3989(5) 0.1111(5) 0.5121(2)
loop_
_geom_bond_atom_site_label_1
_geom_bond_atom_site_label_2
_geom_bond_site_symmetry_1
_geom_bond_site_symmetry_2
O1 C15 1_555 1_555
N1 C7 1_555 1_555
C1 H1 1_555 1_555
C2 C1 1_555 1_555
H2 C2 1_555 1_555
C3 C2 1_555 1_555
H3 C3 1_555 1_555
C4 C3 1_555 1_555
H4 C4 1_555 1_555
C5 C4 1_555 1_555
H5 C5 1_555 1_555
C6 C1 1_555 1_555
C7 C6 1_555 1_555
H6 C7 1_555 1_555
H7 C7 1_555 1_555
C8 N1 1_555 1_555
H8 C8 1_555 1_555
H9 C8 1_555 1_555
C9 C8 1_555 1_555
C10 C9 1_555 1_555
H10 C10 1_555 1_555
C11 C10 1_555 1_555
H11 C11 1_555 1_555
C12 C11 1_555 1_555
H12 C12 1_555 1_555
C13 C12 1_555 1_555
H13 C13 1_555 1_555
C14 C9 1_555 1_555
H14 C14 1_555 1_555
C15 N1 1_555 1_555
C16 C15 1_555 1_555
C17 C16 1_555 1_555
C18 C19 1_555 1_555
C19 C20 1_555 1_555
C20 C21 1_555 1_555
C21 C22 1_555 1_555
C22 C23 1_555 1_555
C23 C17 1_555 1_555
O2 C42 1_555 1_555
N2 C34 1_555 1_555
C28 H15 1_555 1_555
C29 C28 1_555 1_555
H16 C29 1_555 1_555
C30 C29 1_555 1_555
H17 C30 1_555 1_555
C31 C30 1_555 1_555
H18 C31 1_555 1_555
C32 C31 1_555 1_555
H19 C32 1_555 1_555
C33 C28 1_555 1_555
C34 C33 1_555 1_555
H20 C34 1_555 1_555
H21 C34 1_555 1_555
C35 N2 1_555 1_555
H22 C35 1_555 1_555
H23 C35 1_555 1_555
C36 C35 1_555 1_555
C37 C36 1_555 1_555
H24 C37 1_555 1_555
C38 C37 1_555 1_555
H25 C38 1_555 1_555
C39 C38 1_555 1_555
H26 C39 1_555 1_555
C40 C39 1_555 1_555
H27 C40 1_555 1_555
C41 C36 1_555 1_555
H28 C41 1_555 1_555
C42 N2 1_555 1_555
C43 C42 1_555 1_555
C44 C43 1_555 1_555
C45 C44 1_555 1_555
C46 C45 1_555 1_555
C47 C46 1_555 1_555
C48 C47 1_555 1_555
C49 C48 1_555 1_555
C50 C45 1_555 1_555
C5 C6 1_555 1_555
C13 C14 1_555 1_555
C18 C23 1_555 1_555
C32 C33 1_555 1_555
C40 C41 1_555 1_555
C49 C50 1_555 1_555

#END
