
#######################################################################
#
#                 Cambridge Crystallographic Data Centre
#                                CCDC 
#
#######################################################################
#
# If this CIF has been generated from an entry in the Cambridge 
# Structural Database, then it will include bibliographic, chemical, 
# crystal, experimental, refinement or atomic coordinate data resulting 
# from the CCDC's data processing and validation procedures.
#
#######################################################################

data_WOYKIE
_chemical_formula_moiety         'C11 H20 O2'
_chemical_name_systematic        6,8-Dimethylbicyclo(3.2.2)nonane-6,8-diol
_symmetry_cell_setting           tetragonal
_symmetry_space_group_name_H-M   'I 41 c d'
_symmetry_Int_Tables_number      110
_space_group_name_Hall           'I 4bw -2c'
loop_
_symmetry_equiv_pos_site_id
_symmetry_equiv_pos_as_xyz
1 x,y,z
2 -y,1/2+x,1/4+z
3 -x,y,1/2+z
4 1/2-x,1/2-y,1/2+z
5 -y,1/2-x,3/4+z
6 1/2+y,-x,3/4+z
7 1/2+x,1/2-y,z
8 1/2+y,x,1/4+z
9 1/2+x,1/2+y,1/2+z
10 1/2-y,x,3/4+z
11 1/2-x,1/2+y,z
12 -x,-y,z
13 1/2-y,-x,1/4+z
14 y,1/2-x,1/4+z
15 x,-y,1/2+z
16 y,1/2+x,3/4+z
_cell_length_a                   15.054(3)
_cell_length_b                   15.054(3)
_cell_length_c                   18.240(4)
_cell_angle_alpha                90
_cell_angle_beta                 90
_cell_angle_gamma                90
_cell_volume                     4133.6
_exptl_crystal_description       needle
_cell_formula_units_Z            16
_exptl_crystal_recrystallization_method 'ethyl propionate'
loop_
_atom_site_label
_atom_site_type_symbol
_atom_site_fract_x
_atom_site_fract_y
_atom_site_fract_z
O1 O 0.2115(3) 0.6488(3) 0.5110
O2 O 0.2860(3) 0.3100(2) 0.4097(4)
C1 C 0.1159(6) 0.4237(9) 0.4396(8)
C3 C 0.1298(4) 0.5206(5) 0.4166(5)
C4 C 0.2285(4) 0.5457(4) 0.4079(5)
C5 C 0.2698(4) 0.5830(4) 0.4779(5)
C6 C 0.2829(4) 0.5079(5) 0.5346(4)
C7 C 0.3570(4) 0.6302(4) 0.4616(5)
C8 C 0.1651(5) 0.3925(4) 0.5043(5)
C9 C 0.2645(4) 0.4136(4) 0.5073(5)
C10 C 0.3113(4) 0.3975(4) 0.4333(5)
C11 C 0.2841(4) 0.4685(4) 0.3777(4)
C12 C 0.4109(4) 0.3950(4) 0.4443(6)
H1 H 0.2121 0.6999 0.4792
H2 H 0.3073 0.3027 0.3607
H3 H 0.0543 0.4165 0.4502
H4 H 0.1321 0.3876 0.3999
H7 H 0.1043 0.5579 0.4537
H8 H 0.1007 0.5301 0.3719
H11 H 0.2309 0.5920 0.3731
H12 H 0.2440 0.5192 0.5748
H13 H 0.3426 0.5101 0.5515
H14 H 0.3465 0.6757 0.4268
H15 H 0.3792 0.6556 0.5057
H16 H 0.3984 0.5889 0.4428
H17 H 0.1586 0.3299 0.5062
H20 H 0.1467 0.3715 0.5510
H21 H 0.2905 0.3738 0.5423
H22 H 0.3367 0.4927 0.3572
H23 H 0.2503 0.4404 0.3406
H24 H 0.4255 0.3500 0.4792
H25 H 0.4395 0.3823 0.3993
H26 H 0.4307 0.4509 0.4623
C2? C 0.1040(24) 0.4745(29) 0.4813(28)
H5? H 0.1062 0.5171 0.5223
H6? H 0.0448 0.4552 0.4770
H9? H 0.0963 0.5740 0.4147
H10? H 0.1146 0.4832 0.3774
H18? H 0.1381 0.4183 0.5464
H19? H 0.1560 0.3474 0.4687
loop_
_geom_bond_atom_site_label_1
_geom_bond_atom_site_label_2
_geom_bond_site_symmetry_1
_geom_bond_site_symmetry_2
O1 C5 1_555 1_555
O2 C10 1_555 1_555
C1 C3 1_555 1_555
C3 C4 1_555 1_555
C4 C5 1_555 1_555
C5 C6 1_555 1_555
C6 C9 1_555 1_555
C7 C5 1_555 1_555
C8 C1 1_555 1_555
C9 C8 1_555 1_555
C10 C9 1_555 1_555
C11 C4 1_555 1_555
C12 C10 1_555 1_555
H1 O1 1_555 1_555
H2 O2 1_555 1_555
H3 C1 1_555 1_555
H4 C1 1_555 1_555
H7 C3 1_555 1_555
H8 C3 1_555 1_555
H11 C4 1_555 1_555
H12 C6 1_555 1_555
H13 C6 1_555 1_555
H14 C7 1_555 1_555
H15 C7 1_555 1_555
H16 C7 1_555 1_555
H17 C8 1_555 1_555
H20 C8 1_555 1_555
H21 C9 1_555 1_555
H22 C11 1_555 1_555
H23 C11 1_555 1_555
H24 C12 1_555 1_555
H25 C12 1_555 1_555
H26 C12 1_555 1_555
C10 C11 1_555 1_555

#END
