
#######################################################################
#
#                 Cambridge Crystallographic Data Centre
#                                CCDC 
#
#######################################################################
#
# If this CIF has been generated from an entry in the Cambridge 
# Structural Database, then it will include bibliographic, chemical, 
# crystal, experimental, refinement or atomic coordinate data resulting 
# from the CCDC's data processing and validation procedures.
#
#######################################################################

data_WOYKOK
_chemical_formula_moiety         'C13 H24 O2'
_chemical_name_systematic        
2,4,6,8-Tetramethylbicyclo(3.3.1)nonane-2,6-diol
_symmetry_cell_setting           monoclinic
_symmetry_space_group_name_H-M   'P 21/c'
_symmetry_Int_Tables_number      14
_space_group_name_Hall           '-P 2ybc'
loop_
_symmetry_equiv_pos_site_id
_symmetry_equiv_pos_as_xyz
1 x,y,z
2 -x,1/2+y,1/2-z
3 -x,-y,-z
4 x,1/2-y,1/2+z
_cell_length_a                   7.3920(4)
_cell_length_b                   18.8029(6)
_cell_length_c                   9.7706(5)
_cell_angle_alpha                90
_cell_angle_beta                 119.469(2)
_cell_angle_gamma                90
_cell_volume                     1182.33
_cell_formula_units_Z            4
_exptl_crystal_recrystallization_method chloroform
loop_
_atom_site_label
_atom_site_type_symbol
_atom_site_fract_x
_atom_site_fract_y
_atom_site_fract_z
O1 O 0.6950(2) 0.2123(1) 0.5136(1)
O2 O -0.1436(2) 0.1829(1) 0.2929(1)
C1 C 0.2692(2) 0.2295(1) 0.3972(2)
C2 C 0.4061(2) 0.1877(1) 0.5480(2)
C3 C 0.5842(2) 0.1523(1) 0.5325(2)
C4 C 0.4983(2) 0.1049(1) 0.3873(1)
C5 C 0.3294(2) 0.1397(1) 0.2370(1)
C6 C 0.7433(2) 0.1129(1) 0.6782(2)
C7 C 0.2584(3) 0.0889(1) 0.0979(2)
C8 C 0.1587(2) 0.1778(1) 0.2588(1)
C9 C 0.0018(2) 0.1331(1) 0.2847(1)
C10 C 0.1085(2) 0.0955(1) 0.4434(2)
C11 C 0.2582(2) 0.1415(1) 0.5821(2)
C12 C -0.1270(2) 0.0808(1) 0.1538(2)
C13 C 0.3567(3) 0.0973(1) 0.7330(2)
H1 H 0.7442 0.2010 0.4441
H2 H -0.1989 0.2156 0.2003
H3 H 0.1634 0.2572 0.4104
H4 H 0.3579 0.2629 0.3760
H5 H 0.4716 0.2234 0.6347
H6 H 0.4389 0.0613 0.4084
H7 H 0.6165 0.0914 0.3701
H8 H 0.4026 0.1790 0.2146
H9 H 0.7962 0.1454 0.7715
H10 H 0.6769 0.0704 0.6966
H11 H 0.8616 0.0974 0.6633
H12 H 0.1494 0.1118 0.0009
H13 H 0.3810 0.0764 0.0842
H14 H 0.2030 0.0443 0.1198
H15 H 0.0755 0.2071 0.1623
H16 H 0.1884 0.0543 0.4349
H17 H -0.0019 0.0773 0.4654
H18 H 0.1676 0.1765 0.5973
H19 H -0.1959 0.1059 0.0503
H20 H -0.0340 0.0423 0.1507
H21 H -0.2352 0.0582 0.1729
H22 H 0.4544 0.1276 0.8226
H23 H 0.2454 0.0786 0.7525
H24 H 0.4347 0.0566 0.7200
loop_
_geom_bond_atom_site_label_1
_geom_bond_atom_site_label_2
_geom_bond_site_symmetry_1
_geom_bond_site_symmetry_2
O1 C3 1_555 1_555
O2 C9 1_555 1_555
C1 C2 1_555 1_555
C2 C3 1_555 1_555
C3 C4 1_555 1_555
C4 C5 1_555 1_555
C5 C7 1_555 1_555
C6 C3 1_555 1_555
C7 H12 1_555 1_555
C8 C1 1_555 1_555
C9 C8 1_555 1_555
C10 C9 1_555 1_555
C11 C2 1_555 1_555
C12 C9 1_555 1_555
C13 C11 1_555 1_555
H1 O1 1_555 1_555
H2 O2 1_555 1_555
H3 C1 1_555 1_555
H4 C1 1_555 1_555
H5 C2 1_555 1_555
H6 C4 1_555 1_555
H7 C4 1_555 1_555
H8 C5 1_555 1_555
H9 C6 1_555 1_555
H10 C6 1_555 1_555
H11 C6 1_555 1_555
H13 C7 1_555 1_555
H14 C7 1_555 1_555
H15 C8 1_555 1_555
H16 C10 1_555 1_555
H17 C10 1_555 1_555
H18 C11 1_555 1_555
H19 C12 1_555 1_555
H20 C12 1_555 1_555
H21 C12 1_555 1_555
H22 C13 1_555 1_555
H23 C13 1_555 1_555
H24 C13 1_555 1_555
C5 C8 1_555 1_555
C10 C11 1_555 1_555

#END
