
#######################################################################
#
#                 Cambridge Crystallographic Data Centre
#                                CCDC 
#
#######################################################################
#
# If this CIF has been generated from an entry in the Cambridge 
# Structural Database, then it will include bibliographic, chemical, 
# crystal, experimental, refinement or atomic coordinate data resulting 
# from the CCDC's data processing and validation procedures.
#
#######################################################################

data_WOYLAX
_chemical_formula_moiety         '3(C12 H22 O2),1.5(C1 H1 Cl3)'
_chemical_name_systematic        
'2,6-Dimethylbicyclo(3.3.2)decane-exo-2,exo-6-diol chloroform clathrate'
_symmetry_cell_setting           trigonal
_symmetry_space_group_name_H-M   'P 31 2 1'
_symmetry_Int_Tables_number      152
_space_group_name_Hall           'P 31 2"'
loop_
_symmetry_equiv_pos_site_id
_symmetry_equiv_pos_as_xyz
1 x,y,z
2 -y,x-y,1/3+z
3 y,x,-z
4 -x+y,-x,2/3+z
5 -x,-x+y,1/3-z
6 x-y,-y,2/3-z
_cell_length_a                   13.3834(6)
_cell_length_b                   13.3834(6)
_cell_length_c                   7.0257(5)
_cell_angle_alpha                90
_cell_angle_beta                 90
_cell_angle_gamma                120
_cell_volume                     1089.82
_chemical_melting_point          156-158deg.C
_cell_formula_units_Z            1
loop_
_atom_site_label
_atom_site_type_symbol
_atom_site_fract_x
_atom_site_fract_y
_atom_site_fract_z
O1 O -0.2565(2) 0.3482(2) 0.2253(3)
C1 C -0.0480(4) 0.5681(3) 0.2347(6)
C2 C -0.0635(3) 0.4629(3) 0.3528(4)
C3 C -0.1498(3) 0.3482(3) 0.2597(4)
C4 C -0.1156(3) 0.3241(3) 0.0644(5)
C5 C 0.0538(3) 0.4760(4) 0.4074(4)
C6 C -0.1775(3) 0.2490(4) 0.3984(6)
H1 H -0.3029(38) 0.3573(42) 0.3436(65)
H4 H -0.1215 0.5438 0.1640
H5 H -0.1000 0.4660 0.4753
H6 H -0.1882 0.2651 0.0007
H7 H -0.0643 0.2909 0.0875
H8 H 0.1072 0.5595 0.4361
H9 H 0.0405 0.4294 0.5256
H10 H -0.2339 0.1740 0.3380
H11 H -0.1050 0.2483 0.4301
H12 H -0.2117 0.2602 0.5175
C1D C 0.0480(4) 0.6161(5) 0.0986(6)
C2D C 0.0635(3) 0.5264(4) -0.0195(4)
C3D C 0.1498(3) 0.4980(4) 0.0736(4)
O1D O 0.2565(2) 0.6047(3) 0.1080(3)
H1D H 0.3029(38) 0.6602(57) -0.0103(65)
C4D C 0.1156(3) 0.4397(4) 0.2689(5)
H6D H 0.1882 0.4533 0.3326
H7D H 0.0643 0.3552 0.2458
C6D C 0.1775(3) 0.4265(5) -0.0651(6)
H10D H 0.2339 0.4079 -0.0047
H11D H 0.1050 0.3533 -0.0968
H12D H 0.2117 0.4719 -0.1842
C5D C -0.0538(3) 0.4222(5) -0.0741(4)
H8D H -0.1072 0.4523 -0.1028
H9D H -0.0405 0.3889 -0.1923
H5D H 0.1000 0.5660 -0.1420
H4D H 0.1215 0.6653 0.1693
C7? C 0.0033(13) 0.0861(11) -0.0899(24)
Cl1? Cl -0.0798(17) 0.0799(18) -0.2557(29)
Cl2? Cl -0.0616(21) -0.0251(19) 0.0397(30)
Cl3? Cl 0.1149(12) 0.0921(17) -0.1784(34)
H2? H 0.0255 0.1558 -0.0089
H3? H -0.0337 0.6313 0.1640
loop_
_geom_bond_atom_site_label_1
_geom_bond_atom_site_label_2
_geom_bond_site_symmetry_1
_geom_bond_site_symmetry_2
O1 C3 1_555 1_555
C1 C2 1_555 1_555
C2 C3 1_555 1_555
C3 C4 1_555 1_555
C4 H6 1_555 1_555
C5 C2 1_555 1_555
C6 C3 1_555 1_555
H1 O1 1_555 1_555
H4 C1 1_555 1_555
H5 C2 1_555 1_555
H7 C4 1_555 1_555
H8 C5 1_555 1_555
H9 C5 1_555 1_555
H10 C6 1_555 1_555
H11 C6 1_555 1_555
H12 C6 1_555 1_555
C1D C1 1_555 1_555
C2D C1D 1_555 1_555
C3D C2D 1_555 1_555
O1D C3D 1_555 1_555
H1D O1D 1_555 1_555
C4D C5 1_555 1_555
H6D C4D 1_555 1_555
H7D C4D 1_555 1_555
C6D C3D 1_555 1_555
H10D C6D 1_555 1_555
H11D C6D 1_555 1_555
H12D C6D 1_555 1_555
C5D C4 1_555 1_555
H8D C5D 1_555 1_555
H9D C5D 1_555 1_555
H5D C2D 1_555 1_555
H4D C1D 1_555 1_555
C2D C5D 1_555 1_555
C3D C4D 1_555 1_555

#END
