
#######################################################################
#
#                 Cambridge Crystallographic Data Centre
#                                CCDC 
#
#######################################################################
#
# If this CIF has been generated from an entry in the Cambridge 
# Structural Database, then it will include bibliographic, chemical, 
# crystal, experimental, refinement or atomic coordinate data resulting 
# from the CCDC's data processing and validation procedures.
#
#######################################################################

data_WOYLEB
_chemical_formula_moiety         '4(C12 H20 O2 S1),C1 H1 Cl3'
_chemical_name_systematic        
'tetrakis(2,7-Dimethyl-9-thiatricyclo(4.3.1.1^3,8^)undecane-anti-2,anti-7-diol) chloroform clathrate'
_symmetry_cell_setting           tetragonal
_symmetry_space_group_name_H-M   'I 41/a c d'
_symmetry_Int_Tables_number      142
_space_group_name_Hall           '-I 4bd 2c'
loop_
_symmetry_equiv_pos_site_id
_symmetry_equiv_pos_as_xyz
1 x,y,z
2 1/4-y,3/4+x,1/4+z
3 x,-y,1/2-z
4 1/2-x,-y,1/2+z
5 1/4+y,3/4+x,3/4-z
6 1/4+y,1/4-x,3/4+z
7 1/2-x,y,-z
8 1/4-y,1/4-x,1/4-z
9 1/2+x,1/2+y,1/2+z
10 3/4-y,1/4+x,3/4+z
11 1/2+x,1/2-y,-z
12 -x,1/2-y,z
13 3/4+y,1/4+x,1/4-z
14 3/4+y,3/4-x,1/4+z
15 -x,1/2+y,1/2-z
16 3/4-y,3/4-x,3/4-z
17 -x,-y,-z
18 3/4+y,1/4-x,3/4-z
19 -x,y,1/2+z
20 1/2+x,y,1/2-z
21 3/4-y,1/4-x,1/4+z
22 3/4-y,3/4+x,1/4-z
23 1/2+x,-y,z
24 3/4+y,3/4+x,3/4+z
25 1/2-x,1/2-y,1/2-z
26 1/4+y,3/4-x,1/4-z
27 1/2-x,1/2+y,z
28 x,1/2+y,-z
29 1/4-y,3/4-x,3/4+z
30 1/4-y,1/4+x,3/4-z
31 x,1/2-y,1/2+z
32 1/4+y,1/4+x,1/4+z
_cell_length_a                   23.042(3)
_cell_length_b                   23.042(3)
_cell_length_c                   19.022(3)
_cell_angle_alpha                90
_cell_angle_beta                 90
_cell_angle_gamma                90
_cell_volume                     10099.4
_exptl_crystal_description       needles
_chemical_melting_point          153-155deg.C
_cell_formula_units_Z            8
loop_
_atom_site_label
_atom_site_type_symbol
_atom_site_fract_x
_atom_site_fract_y
_atom_site_fract_z
C13 C 0.4893(4) 0.2666(4) 0.3823(3)
Cl1 Cl 0.5132(6) 0.2617(6) 0.4667(3)
Cl2 Cl 0.5463(5) 0.2807(5) 0.3282(4)
Cl3 Cl 0.4577(5) 0.2029(5) 0.3584(5)
H23 H 0.4596 0.2981 0.3785
C13D C 0.5166(4) 0.2393(4) 0.3677(3)
C13O C 0.4834(4) 0.2607(4) 0.3677(3)
C13K C 0.5107(4) 0.2334(4) 0.3823(3)
Cl1O Cl 0.4883(6) 0.2368(6) 0.2833(3)
Cl1D Cl 0.5117(6) 0.2632(6) 0.2833(3)
Cl1K Cl 0.4868(6) 0.2383(6) 0.4667(3)
Cl2D Cl 0.5307(5) 0.2963(5) 0.4218(4)
Cl2O Cl 0.4693(5) 0.2037(5) 0.4218(4)
Cl2K Cl 0.4537(5) 0.2193(5) 0.3282(4)
Cl3D Cl 0.4529(5) 0.2077(5) 0.3916(5)
Cl3O Cl 0.5471(5) 0.2923(5) 0.3916(5)
Cl3K Cl 0.5423(5) 0.2971(5) 0.3584(5)
H23D H 0.5481 0.2096 0.3715
H23O H 0.4519 0.2904 0.3715
H23K H 0.5404 0.2019 0.3785
S1 S 0.40875(5) 0.03900(5) -0.01636(6)
O1 O 0.4663(1) 0.0315(2) 0.1835(2)
O2 O 0.2907(1) 0.1532(1) 0.0573(2)
C1 C 0.4504(2) 0.0543(2) 0.0623(2)
C2 C 0.4289(2) 0.0170(2) 0.1248(2)
C3 C 0.3657(2) 0.0303(2) 0.1456(2)
C4 C 0.3235(2) 0.0314(2) 0.0829(2)
C5 C 0.3573(2) 0.0834(2) 0.1925(2)
C6 C 0.4367(2) -0.0476(2) 0.1094(2)
C7 C 0.3413(2) 0.0683(2) 0.0188(2)
C8 C 0.3471(2) 0.1339(2) 0.0323(2)
C9 C 0.3932(2) 0.1493(2) 0.0877(2)
C10 C 0.4520(2) 0.1195(2) 0.0743(2)
C11 C 0.3735(2) 0.1435(2) 0.1642(2)
C12 C 0.3589(2) 0.1658(2) -0.0366(2)
H1 H 0.4575(45) 0.0174(52) 0.2158(48)
H2 H 0.2949(41) 0.1921(43) 0.0618(48)
H5 H 0.4912 0.0420 0.0525
H6 H 0.3532 -0.0035 0.1749
H7 H 0.2855 0.0467 0.1003
H8 H 0.3184 -0.0095 0.0663
H9 H 0.3810 0.0770 0.2359
H10 H 0.3152 0.0849 0.2053
H11 H 0.4226 -0.0709 0.1503
H12 H 0.4140 -0.0583 0.0665
H13 H 0.4788 -0.0560 0.1012
H14 H 0.3107 0.0630 -0.0179
H15 H 0.4009 0.1917 0.0810
H16 H 0.4696 0.1378 0.0317
H17 H 0.4773 0.1270 0.1161
H18 H 0.4058 0.1585 0.1943
H19 H 0.3386 0.1688 0.1700
H20 H 0.3625 0.2083 -0.0272
H21 H 0.3957 0.1511 -0.0578
H22 H 0.3260 0.1589 -0.0699
H3? H 0.4919(55) 0.0303(61) 0.1783(69)
H4? H 0.2668(42) 0.1488(38) 0.0213(47)
loop_
_geom_bond_atom_site_label_1
_geom_bond_atom_site_label_2
_geom_bond_site_symmetry_1
_geom_bond_site_symmetry_2
S1 C1 1_555 1_555
O1 C2 1_555 1_555
O2 C8 1_555 1_555
C1 C2 1_555 1_555
C2 C3 1_555 1_555
C3 C4 1_555 1_555
C4 C7 1_555 1_555
C5 C3 1_555 1_555
C6 C2 1_555 1_555
C7 S1 1_555 1_555
C8 C7 1_555 1_555
C9 C8 1_555 1_555
C10 C1 1_555 1_555
C11 C5 1_555 1_555
C12 C8 1_555 1_555
H1 O1 1_555 1_555
H2 O2 1_555 1_555
C13 Cl1 1_555 1_555
Cl1 C13D 1_555 1_555
Cl2 C13 1_555 1_555
Cl3 C13 1_555 1_555
H5 C1 1_555 1_555
H6 C3 1_555 1_555
H7 C4 1_555 1_555
H8 C4 1_555 1_555
H9 C5 1_555 1_555
H10 C5 1_555 1_555
H11 C6 1_555 1_555
H12 C6 1_555 1_555
H13 C6 1_555 1_555
H14 C7 1_555 1_555
H15 C9 1_555 1_555
H16 C10 1_555 1_555
H17 C10 1_555 1_555
H18 C11 1_555 1_555
H19 C11 1_555 1_555
H20 C12 1_555 1_555
H21 C12 1_555 1_555
H22 C12 1_555 1_555
H23 C13 1_555 1_555
C13D C13 1_555 1_555
C13O C13 1_555 1_555
C13K C13 1_555 1_555
Cl1O C13 1_555 1_555
Cl1D C13 1_555 1_555
Cl1K C13 1_555 1_555
Cl2D C13 1_555 1_555
Cl2O C13 1_555 1_555
Cl2K C13 1_555 1_555
Cl3D C13 1_555 1_555
Cl3O C13 1_555 1_555
Cl3K C13 1_555 1_555
H23D C13D 1_555 1_555
H23O C13 1_555 1_555
H23K C13D 1_555 1_555
C9 C10 1_555 1_555
C9 C11 1_555 1_555
Cl1 C13K 1_555 1_555
Cl1 C13O 1_555 1_555
Cl1 Cl3K 1_555 1_555
Cl1 Cl1K 1_555 1_555
Cl1 Cl2O 1_555 1_555
Cl1 Cl2D 1_555 1_555
Cl1 Cl3O 1_555 1_555
Cl1 Cl3D 1_555 1_555
Cl2 C13D 1_555 1_555
Cl2 C13O 1_555 1_555
Cl2 C13K 1_555 1_555
Cl2 Cl1D 1_555 1_555
Cl2 Cl1O 1_555 1_555
Cl2 Cl3K 1_555 1_555
Cl2 Cl2D 1_555 1_555
Cl2 Cl3O 1_555 1_555
Cl3 C13D 1_555 1_555
Cl3 C13K 1_555 1_555
Cl3 C13O 1_555 1_555
Cl3 Cl1D 1_555 1_555
Cl3 Cl1O 1_555 1_555
Cl3 Cl1K 1_555 1_555
Cl3 Cl2K 1_555 1_555
Cl3 Cl2O 1_555 1_555
Cl3 Cl3D 1_555 1_555
H23 C13O 1_555 1_555
H23 H23O 1_555 1_555
C13D C13O 1_555 1_555
C13D Cl1D 1_555 1_555
C13D Cl2D 1_555 1_555
C13D Cl2O 1_555 1_555
C13D Cl3D 1_555 1_555
C13D Cl3O 1_555 1_555
C13D C13K 1_555 1_555
C13D Cl1O 1_555 1_555
C13D Cl1K 1_555 1_555
C13D Cl2K 1_555 1_555
C13D Cl3K 1_555 1_555
C13O C13K 1_555 1_555
C13O Cl1O 1_555 1_555
C13O H23O 1_555 1_555
C13O Cl1K 1_555 1_555
C13O Cl2O 1_555 1_555
C13O Cl1D 1_555 1_555
C13O Cl2K 1_555 1_555
C13O Cl2D 1_555 1_555
C13O Cl3O 1_555 1_555
C13O Cl3K 1_555 1_555
C13O Cl3D 1_555 1_555
C13K Cl2K 1_555 1_555
C13K Cl3K 1_555 1_555
C13K H23K 1_555 1_555
C13K Cl1O 1_555 1_555
C13K Cl1K 1_555 1_555
C13K Cl1D 1_555 1_555
C13K Cl2D 1_555 1_555
C13K Cl2O 1_555 1_555
C13K Cl3D 1_555 1_555
C13K Cl3O 1_555 1_555
C13K H23D 1_555 1_555
Cl1O Cl1D 1_555 1_555
Cl1O Cl2K 1_555 1_555
Cl1O Cl3K 1_555 1_555
Cl1O Cl3D 1_555 1_555
Cl1D Cl2K 1_555 1_555
Cl1D Cl3O 1_555 1_555
Cl1D Cl3K 1_555 1_555
Cl1K Cl2O 1_555 1_555
Cl1K Cl2D 1_555 1_555
Cl1K Cl3O 1_555 1_555
Cl1K Cl3D 1_555 1_555
Cl2D Cl3O 1_555 1_555
Cl2D Cl3K 1_555 1_555
Cl2O Cl3D 1_555 1_555
Cl2O Cl2K 1_555 1_555
Cl2K Cl3D 1_555 1_555
Cl3O Cl3K 1_555 1_555
H23D H23K 1_555 1_555

#END
