
#######################################################################
#
#                 Cambridge Crystallographic Data Centre
#                                CCDC 
#
#######################################################################
#
# If this CIF has been generated from an entry in the Cambridge 
# Structural Database, then it will include bibliographic, chemical, 
# crystal, experimental, refinement or atomic coordinate data resulting 
# from the CCDC's data processing and validation procedures.
#
#######################################################################

data_WOYMEE
_chemical_formula_moiety         'C30 H26 N4 O1,2(C1 H4 O1)'
_chemical_name_systematic        
'4-(((4-(4-aminobenzyl)phenyl)amino)(phenyl)methylene)-5-methyl-2-phenyl-2,4-dihydro-3H-pyrazol-3-one methanol solvate'
_symmetry_cell_setting           triclinic
_symmetry_space_group_name_H-M   'P -1'
_symmetry_Int_Tables_number      2
_space_group_name_Hall           '-P 1'
loop_
_symmetry_equiv_pos_site_id
_symmetry_equiv_pos_as_xyz
1 x,y,z
2 -x,-y,-z
_cell_length_a                   9.5274(8)
_cell_length_b                   10.4205(9)
_cell_length_c                   14.7518(13)
_cell_angle_alpha                77.2540(10)
_cell_angle_beta                 82.0960(10)
_cell_angle_gamma                84.377(2)
_cell_volume                     1411.43
_exptl_crystal_colour            'light yellow'
_exptl_crystal_description       needle
_cell_formula_units_Z            2
loop_
_atom_site_label
_atom_site_type_symbol
_atom_site_fract_x
_atom_site_fract_y
_atom_site_fract_z
N1 N 0.0514(4) 0.7245(4) 0.3541(3)
N2 N 0.0483(5) 0.6492(4) 0.2872(3)
N3 N 0.2636(5) 0.4546(5) 0.5443(3)
N4 N 0.5482(7) -0.3514(5) 0.9421(4)
H1 H 0.4649 -0.3790 0.9612
H2 H 0.6210 -0.4070 0.9406
O1 O 0.1244(4) 0.6922(3) 0.5020(2)
C1 C 0.1142(6) 0.5347(5) 0.3174(3)
C2 C 0.1628(5) 0.5287(5) 0.4060(3)
C3 C 0.1133(5) 0.6536(5) 0.4291(3)
C4 C -0.0089(5) 0.8556(5) 0.3376(3)
C5 C -0.1114(6) 0.8937(5) 0.2796(3)
H3 H -0.1423 0.8332 0.2502
C6 C -0.1693(7) 1.0214(6) 0.2644(4)
H4 H -0.2385 1.0478 0.2241
C7 C -0.1245(7) 1.1113(6) 0.3094(4)
H5 H -0.1649 1.1974 0.3007
C8 C -0.0214(7) 1.0718(6) 0.3658(4)
H6 H 0.0100 1.1323 0.3950
C9 C 0.0378(6) 0.9459(5) 0.3812(3)
H7 H 0.1087 0.9207 0.4204
C10 C 0.1234(7) 0.4314(5) 0.2599(4)
H8 H 0.0678 0.4622 0.2087
H9 H 0.0875 0.3518 0.2982
H10 H 0.2206 0.4143 0.2358
C11 C 0.2460(5) 0.4346(5) 0.4597(3)
C12 C 0.3163(5) 0.3198(5) 0.4265(3)
C13 C 0.4177(6) 0.3387(6) 0.3483(3)
H11 H 0.4396 0.4236 0.3178
C14 C 0.4851(6) 0.2329(7) 0.3165(4)
H12 H 0.5526 0.2458 0.2641
C15 C 0.4537(7) 0.1071(7) 0.3616(4)
H13 H 0.5004 0.0352 0.3398
C16 C 0.3540(7) 0.0877(6) 0.4382(4)
H14 H 0.3323 0.0024 0.4679
C17 C 0.2855(6) 0.1928(5) 0.4717(3)
H15 H 0.2188 0.1789 0.5246
C18 C 0.3544(6) 0.3882(5) 0.6103(3)
C19 C 0.4790(6) 0.3189(5) 0.5894(3)
H16 H 0.5095 0.3135 0.5276
C20 C 0.5605(6) 0.2569(5) 0.6590(3)
H17 H 0.6425 0.2059 0.6438
C21 C 0.5228(6) 0.2688(5) 0.7510(3)
C22 C 0.3994(7) 0.3420(6) 0.7699(3)
H18 H 0.3712 0.3515 0.8311
C23 C 0.3155(6) 0.4020(5) 0.7014(3)
H19 H 0.2327 0.4519 0.7165
C24 C 0.6125(7) 0.1992(5) 0.8261(3)
H20 H 0.5867 0.2375 0.8808
H21 H 0.7114 0.2141 0.8039
C25 C 0.5970(7) 0.0527(6) 0.8544(3)
C26 C 0.4658(7) 0.0046(6) 0.8876(3)
H22 H 0.3863 0.0635 0.8911
C27 C 0.4501(7) -0.1292(6) 0.9159(4)
H23 H 0.3600 -0.1591 0.9365
C28 C 0.5651(8) -0.2184(6) 0.9138(4)
C29 C 0.6947(8) -0.1698(7) 0.8802(4)
H24 H 0.7745 -0.2285 0.8772
C30 C 0.7107(7) -0.0358(7) 0.8504(4)
H25 H 0.8004 -0.0062 0.8274
H26 H 0.210(5) 0.529(5) 0.553(3)
O2 O 1.0313(6) 0.7134(6) 0.0927(3)
H27 H 1.0490 0.7197 0.1443
C31 C 0.9840(12) 0.8292(9) 0.0473(5)
H28 H 0.8835 0.8416 0.0643
H29 H 1.0032 0.8333 -0.0189
H30 H 1.0309 0.8972 0.0632
O3 O 0.2295(5) 0.5757(5) 0.9990(3)
H31 H 0.1683 0.6052 1.0352
C32 C 0.1750(10) 0.5793(9) 0.9153(5)
H32 H 0.2038 0.6564 0.8702
H33 H 0.0732 0.5821 0.9263
H34 H 0.2104 0.5019 0.8919
loop_
_geom_bond_atom_site_label_1
_geom_bond_atom_site_label_2
_geom_bond_site_symmetry_1
_geom_bond_site_symmetry_2
N1 N2 1_555 1_555
N2 C1 1_555 1_555
N3 C11 1_555 1_555
N4 H1 1_555 1_555
H2 N4 1_555 1_555
O1 C3 1_555 1_555
C1 C2 1_555 1_555
C2 C3 1_555 1_555
C3 N1 1_555 1_555
C4 N1 1_555 1_555
C5 C4 1_555 1_555
H3 C5 1_555 1_555
C6 C5 1_555 1_555
H4 C6 1_555 1_555
C7 C6 1_555 1_555
H5 C7 1_555 1_555
C8 C7 1_555 1_555
H6 C8 1_555 1_555
C9 C4 1_555 1_555
H7 C9 1_555 1_555
C10 C1 1_555 1_555
H8 C10 1_555 1_555
H9 C10 1_555 1_555
H10 C10 1_555 1_555
C11 C2 1_555 1_555
C12 C11 1_555 1_555
C13 C12 1_555 1_555
H11 C13 1_555 1_555
C14 C13 1_555 1_555
H12 C14 1_555 1_555
C15 C14 1_555 1_555
H13 C15 1_555 1_555
C16 C15 1_555 1_555
H14 C16 1_555 1_555
C17 C12 1_555 1_555
H15 C17 1_555 1_555
C18 N3 1_555 1_555
C19 C18 1_555 1_555
H16 C19 1_555 1_555
C20 C19 1_555 1_555
H17 C20 1_555 1_555
C21 C20 1_555 1_555
C22 C21 1_555 1_555
H18 C22 1_555 1_555
C23 C18 1_555 1_555
H19 C23 1_555 1_555
C24 C21 1_555 1_555
H20 C24 1_555 1_555
H21 C24 1_555 1_555
C25 C24 1_555 1_555
C26 C25 1_555 1_555
H22 C26 1_555 1_555
C27 C26 1_555 1_555
H23 C27 1_555 1_555
C28 N4 1_555 1_555
C29 C28 1_555 1_555
H24 C29 1_555 1_555
C30 C25 1_555 1_555
H25 C30 1_555 1_555
H26 N3 1_555 1_555
O2 H27 1_555 1_555
C31 O2 1_555 1_555
H28 C31 1_555 1_555
H29 C31 1_555 1_555
H30 C31 1_555 1_555
O3 H31 1_555 1_555
C32 O3 1_555 1_555
H32 C32 1_555 1_555
H33 C32 1_555 1_555
H34 C32 1_555 1_555
C8 C9 1_555 1_555
C16 C17 1_555 1_555
C22 C23 1_555 1_555
C27 C28 1_555 1_555
C29 C30 1_555 1_555

#END
