
#######################################################################
#
#                 Cambridge Crystallographic Data Centre
#                                CCDC 
#
#######################################################################
#
# If this CIF has been generated from an entry in the Cambridge 
# Structural Database, then it will include bibliographic, chemical, 
# crystal, experimental, refinement or atomic coordinate data resulting 
# from the CCDC's data processing and validation procedures.
#
#######################################################################

data_WOYPEH
_chemical_formula_moiety         'C7 H7 N1 O2,C6 H7 N1'
_chemical_name_systematic        '4-aminobenzoic acid 4-methylpyridine'
_symmetry_cell_setting           monoclinic
_symmetry_space_group_name_H-M   'P c'
_symmetry_Int_Tables_number      7
_space_group_name_Hall           'P -2yc'
loop_
_symmetry_equiv_pos_site_id
_symmetry_equiv_pos_as_xyz
1 x,y,z
2 x,-y,1/2+z
_cell_length_a                   7.5970(7)
_cell_length_b                   11.6665(12)
_cell_length_c                   7.6754(8)
_cell_angle_alpha                90
_cell_angle_beta                 114.200(3)
_cell_angle_gamma                90
_cell_volume                     620.491
_exptl_crystal_colour            colorless
_exptl_crystal_description       block
_cell_formula_units_Z            2
loop_
_atom_site_label
_atom_site_type_symbol
_atom_site_fract_x
_atom_site_fract_y
_atom_site_fract_z
C1 C 0.3693(4) 0.1034(2) 0.7149(4)
C2 C 0.4434(4) 0.2029(2) 0.6722(4)
H1 H 0.3671 0.2471 0.5675
C3 C 0.6273(4) 0.2362(2) 0.7829(3)
H2 H 0.6737 0.3037 0.7529
C4 C 0.7475(4) 0.1730(2) 0.9383(4)
C5 C 0.6737(4) 0.0738(2) 0.9798(4)
H3 H 0.7516 0.0294 1.0835
C6 C 0.4892(4) 0.0392(2) 0.8724(4)
H4 H 0.4429 -0.0278 0.9043
C7 C 0.9416(4) 0.2104(2) 1.0596(4)
N1 N 0.1840(4) 0.0710(2) 0.6087(4)
H5 H 0.1113 0.1124 0.5137
H6 H 0.1395 0.0092 0.6364
O1 O 0.9921(3) 0.30989(17) 1.0123(3)
H7 H 1.109(2) 0.324(3) 1.076(5)
O2 O 1.0516(3) 0.15755(17) 1.1996(3)
C8 C 0.4371(5) 0.4546(2) 1.3188(5)
H8 H 0.3567 0.5148 1.3183
C9 C 0.6306(4) 0.4655(2) 1.4263(4)
H9 H 0.6791 0.5319 1.4967
C10 C 0.7534(4) 0.3784(2) 1.4304(4)
C11 C 0.6716(4) 0.2836(2) 1.3242(4)
H10 H 0.7487 0.2220 1.3229
C12 C 0.4767(5) 0.2790(3) 1.2196(4)
H11 H 0.4249 0.2135 1.1479
C13 C 0.9658(5) 0.3866(3) 1.5468(6)
H12 H 1.0310 0.3941 1.4635
H13 H 1.0099 0.3186 1.6229
H14 H 0.9930 0.4524 1.6289
N2 N 0.3582(3) 0.3627(2) 1.2152(4)
loop_
_geom_bond_atom_site_label_1
_geom_bond_atom_site_label_2
_geom_bond_site_symmetry_1
_geom_bond_site_symmetry_2
C1 C2 1_555 1_555
C2 H1 1_555 1_555
C3 C2 1_555 1_555
H2 C3 1_555 1_555
C4 C3 1_555 1_555
C5 C4 1_555 1_555
H3 C5 1_555 1_555
C6 C1 1_555 1_555
H4 C6 1_555 1_555
C7 C4 1_555 1_555
N1 C1 1_555 1_555
H5 N1 1_555 1_555
H6 N1 1_555 1_555
O1 C7 1_555 1_555
H7 O1 1_555 1_555
O2 C7 1_555 1_555
C8 H8 1_555 1_555
C9 C8 1_555 1_555
H9 C9 1_555 1_555
C10 C9 1_555 1_555
C11 C10 1_555 1_555
H10 C11 1_555 1_555
C12 C11 1_555 1_555
H11 C12 1_555 1_555
C13 C10 1_555 1_555
H12 C13 1_555 1_555
H13 C13 1_555 1_555
H14 C13 1_555 1_555
N2 C8 1_555 1_555
C5 C6 1_555 1_555
C12 N2 1_555 1_555

#END
