
#######################################################################
#
#                 Cambridge Crystallographic Data Centre
#                                CCDC 
#
#######################################################################
#
# If this CIF has been generated from an entry in the Cambridge 
# Structural Database, then it will include bibliographic, chemical, 
# crystal, experimental, refinement or atomic coordinate data resulting 
# from the CCDC's data processing and validation procedures.
#
#######################################################################

data_WOYWIQ
_chemical_formula_moiety         'C20 H14 N2'
_chemical_name_systematic        2-Cyano-N-(diphenylmethylene)aniline
_symmetry_cell_setting           monoclinic
_symmetry_space_group_name_H-M   'P 21/c'
_symmetry_Int_Tables_number      14
_space_group_name_Hall           '-P 2ybc'
loop_
_symmetry_equiv_pos_site_id
_symmetry_equiv_pos_as_xyz
1 x,y,z
2 x,1/2-y,1/2+z
3 -x,-y,-z
4 -x,1/2+y,1/2-z
_cell_length_a                   9.3429(3)
_cell_length_b                   15.8543(2)
_cell_length_c                   10.6022(3)
_cell_angle_alpha                90
_cell_angle_beta                 104.45(3)
_cell_angle_gamma                90
_cell_volume                     1520.77
_exptl_crystal_colour            colorless
_exptl_crystal_description       slab
_cell_formula_units_Z            4
_exptl_crystal_recrystallization_method 'petroleum ether-ethyl acetate'
loop_
_atom_site_label
_atom_site_type_symbol
_atom_site_fract_x
_atom_site_fract_y
_atom_site_fract_z
N1 N 0.2885(2) 0.09522(11) 0.04620(17)
C1 C 0.1070(3) 0.21491(14) 0.1201(2)
C2 C 0.2486(3) 0.05998(16) -0.2188(2)
H1 H 0.2817 0.1135 -0.1894
C3 C 0.2123(3) 0.04245(17) -0.3507(2)
H2 H 0.2214 0.0841 -0.4100
C4 C 0.1627(3) -0.03669(18) -0.3943(3)
H3 H 0.1376 -0.0480 -0.4832
C5 C 0.1497(3) -0.09916(17) -0.3082(2)
H4 H 0.1172 -0.1527 -0.3382
C6 C 0.1858(3) -0.08158(14) -0.1760(2)
H5 H 0.1764 -0.1236 -0.1174
C7 C 0.2355(2) -0.00264(13) -0.1299(2)
C8 C 0.2677(2) 0.01782(13) 0.0121(2)
C9 C 0.2653(2) -0.05309(13) 0.1050(2)
C10 C 0.1588(3) -0.05495(15) 0.1758(2)
H6 H 0.0887 -0.0122 0.1654
C11 C 0.1569(3) -0.12035(16) 0.2620(2)
H7 H 0.0838 -0.1223 0.3075
C12 C 0.2625(3) -0.18232(17) 0.2802(2)
H8 H 0.2628 -0.2251 0.3402
C13 C 0.3672(3) -0.18141(15) 0.2105(2)
H9 H 0.4382 -0.2238 0.2232
C14 C 0.3686(3) -0.11760(14) 0.1208(2)
H10 H 0.4383 -0.1182 0.0717
C15 C 0.3207(3) 0.11934(14) 0.1793(2)
C16 C 0.4428(3) 0.08998(14) 0.2726(2)
H11 H 0.5057 0.0505 0.2499
C17 C 0.4708(3) 0.11956(16) 0.3992(2)
H12 H 0.5527 0.0995 0.4610
C18 C 0.3796(3) 0.17813(16) 0.4355(2)
H13 H 0.3995 0.1971 0.5211
C19 C 0.2588(3) 0.20844(15) 0.3442(2)
H14 H 0.1961 0.2475 0.3682
C20 C 0.2309(3) 0.18042(13) 0.2158(2)
N2 N 0.0089(3) 0.24445(14) 0.0470(2)
loop_
_geom_bond_atom_site_label_1
_geom_bond_atom_site_label_2
_geom_bond_site_symmetry_1
_geom_bond_site_symmetry_2
N1 C8 1_555 1_555
C1 C20 1_555 1_555
C2 H1 1_555 1_555
C3 C2 1_555 1_555
H2 C3 1_555 1_555
C4 C3 1_555 1_555
H3 C4 1_555 1_555
C5 C4 1_555 1_555
H4 C5 1_555 1_555
C6 C5 1_555 1_555
H5 C6 1_555 1_555
C7 C2 1_555 1_555
C8 C7 1_555 1_555
C9 C8 1_555 1_555
C10 C9 1_555 1_555
H6 C10 1_555 1_555
C11 C10 1_555 1_555
H7 C11 1_555 1_555
C12 C11 1_555 1_555
H8 C12 1_555 1_555
C13 C12 1_555 1_555
H9 C13 1_555 1_555
C14 C9 1_555 1_555
H10 C14 1_555 1_555
C15 N1 1_555 1_555
C16 C15 1_555 1_555
H11 C16 1_555 1_555
C17 C16 1_555 1_555
H12 C17 1_555 1_555
C18 C17 1_555 1_555
H13 C18 1_555 1_555
C19 C18 1_555 1_555
H14 C19 1_555 1_555
C20 C15 1_555 1_555
N2 C1 1_555 1_555
C6 C7 1_555 1_555
C13 C14 1_555 1_555
C19 C20 1_555 1_555

#END
