
#######################################################################
#
#                 Cambridge Crystallographic Data Centre
#                                CCDC 
#
#######################################################################
#
# If this CIF has been generated from an entry in the Cambridge 
# Structural Database, then it will include bibliographic, chemical, 
# crystal, experimental, refinement or atomic coordinate data resulting 
# from the CCDC's data processing and validation procedures.
#
#######################################################################

data_WOZDOG
_chemical_formula_moiety         'C15 H13 Cl1'
_chemical_name_systematic        
7-Chloro-4b-methyl-4b,10-dihydrobenzo[a]azulene
_symmetry_cell_setting           monoclinic
_symmetry_space_group_name_H-M   'P 21/n'
_symmetry_Int_Tables_number      14
_space_group_name_Hall           '-P 2yn'
loop_
_symmetry_equiv_pos_site_id
_symmetry_equiv_pos_as_xyz
1 x,y,z
2 1/2-x,1/2+y,1/2-z
3 -x,-y,-z
4 1/2+x,1/2-y,1/2+z
_cell_length_a                   9.737(3)
_cell_length_b                   10.183(3)
_cell_length_c                   11.813(3)
_cell_angle_alpha                90
_cell_angle_beta                 96.04(2)
_cell_angle_gamma                90
_cell_volume                     1164.78
_cell_formula_units_Z            4
loop_
_atom_site_label
_atom_site_type_symbol
_atom_site_fract_x
_atom_site_fract_y
_atom_site_fract_z
C1 C 0.0632(3) 0.2708(3) 0.2215(2)
C2 C 0.1638(3) 0.1815(3) 0.2344(2)
H1 H 0.2210 0.1721 0.1745
C3 C 0.1916(3) 0.0990(3) 0.3318(2)
H2 H 0.2324 0.0161 0.3196
C4 C 0.1663(3) 0.1260(2) 0.4381(2)
C5 C 0.1798(3) 0.0282(2) 0.5346(2)
H3 H 0.1205 -0.0495 0.5162
H4 H 0.2767 -0.0011 0.5518
C6 C 0.1327(3) 0.1033(2) 0.6326(2)
C7 C 0.1206(3) 0.0597(3) 0.7423(2)
H5 H 0.1434 -0.0283 0.7634
C8 C 0.0752(3) 0.1455(3) 0.8200(3)
H6 H 0.0668 0.1162 0.8954
C9 C 0.0413(3) 0.2742(3) 0.7901(3)
H7 H 0.0087 0.3318 0.8447
C10 C 0.0546(3) 0.3188(3) 0.6818(2)
H8 H 0.0337 0.4075 0.6617
C11 C 0.0992(3) 0.2321(2) 0.6021(2)
C12 C 0.1190(3) 0.2597(2) 0.4789(2)
C13 C -0.0145(3) 0.2919(3) 0.4128(2)
H9 H -0.0916 0.3060 0.4543
C14 C -0.0353(3) 0.3027(3) 0.2994(2)
H10 H -0.1229 0.3343 0.2678
C15 C 0.2260(3) 0.3692(2) 0.4687(3)
H11 H 0.2395 0.3820 0.3884
H12 H 0.3138 0.3442 0.5114
H13 H 0.1926 0.4511 0.4998
Cl1 Cl 0.03455(8) 0.35171(7) 0.09013(6)
loop_
_geom_bond_atom_site_label_1
_geom_bond_atom_site_label_2
_geom_bond_site_symmetry_1
_geom_bond_site_symmetry_2
C1 C2 1_555 1_555
C2 H1 1_555 1_555
C3 C2 1_555 1_555
H2 C3 1_555 1_555
C4 C3 1_555 1_555
C5 C4 1_555 1_555
H3 C5 1_555 1_555
H4 C5 1_555 1_555
C6 C5 1_555 1_555
C7 C6 1_555 1_555
H5 C7 1_555 1_555
C8 C7 1_555 1_555
H6 C8 1_555 1_555
C9 C8 1_555 1_555
H7 C9 1_555 1_555
C10 C9 1_555 1_555
H8 C10 1_555 1_555
C11 C6 1_555 1_555
C12 C4 1_555 1_555
C13 C12 1_555 1_555
H9 C13 1_555 1_555
C14 C1 1_555 1_555
H10 C14 1_555 1_555
C15 C12 1_555 1_555
H11 C15 1_555 1_555
H12 C15 1_555 1_555
H13 C15 1_555 1_555
Cl1 C1 1_555 1_555
C10 C11 1_555 1_555
C11 C12 1_555 1_555
C13 C14 1_555 1_555

#END
