
#######################################################################
#
#                 Cambridge Crystallographic Data Centre
#                                CCDC 
#
#######################################################################
#
# If this CIF has been generated from an entry in the Cambridge 
# Structural Database, then it will include bibliographic, chemical, 
# crystal, experimental, refinement or atomic coordinate data resulting 
# from the CCDC's data processing and validation procedures.
#
#######################################################################

data_WOZLII
_chemical_formula_moiety         'C25 H28 N2 O4 S1'
_chemical_name_systematic        
"ethyl 5''-methyl-1'-((4-methylphenyl)sulfonyl)dispiro[cyclopropane-1,3'-piperidine-4',3''-indole]-2-carboxylate"
_symmetry_cell_setting           monoclinic
_symmetry_space_group_name_H-M   'P 21/n'
_symmetry_Int_Tables_number      14
_space_group_name_Hall           '-P 2yn'
loop_
_symmetry_equiv_pos_site_id
_symmetry_equiv_pos_as_xyz
1 x,y,z
2 1/2-x,1/2+y,1/2-z
3 -x,-y,-z
4 1/2+x,1/2-y,1/2+z
_cell_length_a                   14.595(3)
_cell_length_b                   6.3230(11)
_cell_length_c                   26.166(4)
_cell_angle_alpha                90
_cell_angle_beta                 103.516(4)
_cell_angle_gamma                90
_cell_volume                     2347.83
_exptl_crystal_colour            colorless
_exptl_crystal_description       prismatic
_cell_formula_units_Z            4
loop_
_atom_site_label
_atom_site_type_symbol
_atom_site_fract_x
_atom_site_fract_y
_atom_site_fract_z
S1 S 0.75335(6) 1.18324(12) 0.07904(3)
N1 N 1.08704(17) 0.5358(4) 0.06113(8)
N2 N 0.85598(14) 1.0653(3) 0.09157(8)
O1 O 0.82916(15) 0.7884(4) 0.21666(9)
O2 O 0.93530(13) 1.0353(4) 0.24864(8)
O3 O 0.71321(16) 1.1434(4) 0.12282(9)
O4 O 0.76875(16) 1.3941(3) 0.06436(10)
C1 C 1.12791(17) 0.7669(4) 0.13212(9)
C2 C 1.19019(18) 0.8589(5) 0.17413(10)
H1 H 1.1722 0.9776 0.1904
C3 C 1.27986(19) 0.7737(5) 0.19215(11)
C4 C 1.3053(2) 0.5985(5) 0.16720(12)
H2 H 1.3647 0.5398 0.1798
C5 C 1.2450(2) 0.5075(5) 0.12403(11)
H3 H 1.2633 0.3900 0.1075
C6 C 1.15729(19) 0.5963(4) 0.10642(10)
C7 C 1.0179(2) 0.6612(4) 0.05897(10)
H4 H 0.9640 0.6559 0.0317
C8 C 1.02868(17) 0.8202(4) 0.10364(9)
C9 C 1.01835(19) 1.0518(4) 0.08492(11)
H5 H 1.0387 1.1437 0.1151
H6 H 1.0598 1.0760 0.0615
C10 C 0.9192(2) 1.1113(4) 0.05687(11)
H7 H 0.9164 1.2606 0.0481
H8 H 0.9001 1.0310 0.0245
C11 C 0.85526(18) 0.8382(4) 0.10374(10)
H9 H 0.8366 0.7576 0.0714
H10 H 0.8101 0.8106 0.1249
C12 C 0.95203(17) 0.7711(4) 0.13327(9)
C13 C 0.96001(18) 0.5754(4) 0.16585(9)
H11 H 1.0143 0.4852 0.1673
H12 H 0.9023 0.5007 0.1666
C14 C 0.97650(18) 0.7855(4) 0.19324(10)
H13 H 1.0422 0.8199 0.2099
C15 C 0.9053(2) 0.8652(5) 0.21993(11)
C16 C 0.8662(2) 1.1338(8) 0.27333(16)
H14 H 0.8136 1.1868 0.2465
H15 H 0.8423 1.0302 0.2943
C17 C 0.9093(3) 1.3021(8) 0.30567(17)
H16 H 0.9575 1.2471 0.3340
H17 H 0.8629 1.3747 0.3197
H18 H 0.9369 1.3988 0.2853
C18 C 1.3485(2) 0.8755(6) 0.23771(12)
H19 H 1.4062 0.7964 0.2455
H20 H 1.3219 0.8768 0.2680
H21 H 1.3610 1.0179 0.2286
C19 C 0.68342(19) 1.0557(5) 0.02425(12)
C20 C 0.6325(2) 0.8798(5) 0.03096(14)
H22 H 0.6330 0.8316 0.0646
C21 C 0.5810(3) 0.7753(6) -0.01224(18)
H23 H 0.5462 0.6569 -0.0073
C22 C 0.5792(2) 0.8409(7) -0.06265(17)
C23 C 0.6302(3) 1.0132(8) -0.06865(14)
H24 H 0.6299 1.0597 -0.1024
C24 C 0.6830(2) 1.1231(6) -0.02588(14)
H25 H 0.7179 1.2411 -0.0310
C25 C 0.5207(3) 0.7217(8) -0.10956(18)
H26 H 0.4561 0.7660 -0.1156
H27 H 0.5248 0.5726 -0.1025
H28 H 0.5442 0.7513 -0.1401
loop_
_geom_bond_atom_site_label_1
_geom_bond_atom_site_label_2
_geom_bond_site_symmetry_1
_geom_bond_site_symmetry_2
S1 N2 1_555 1_555
N1 C6 1_555 1_555
N2 C10 1_555 1_555
O1 C15 1_555 1_555
O2 C15 1_555 1_555
O3 S1 1_555 1_555
O4 S1 1_555 1_555
C1 C2 1_555 1_555
C2 H1 1_555 1_555
C3 C2 1_555 1_555
C4 C3 1_555 1_555
H2 C4 1_555 1_555
C5 C4 1_555 1_555
H3 C5 1_555 1_555
C6 C1 1_555 1_555
C7 N1 1_555 1_555
H4 C7 1_555 1_555
C8 C1 1_555 1_555
C9 C8 1_555 1_555
H5 C9 1_555 1_555
H6 C9 1_555 1_555
C10 C9 1_555 1_555
H7 C10 1_555 1_555
H8 C10 1_555 1_555
C11 N2 1_555 1_555
H9 C11 1_555 1_555
H10 C11 1_555 1_555
C12 C8 1_555 1_555
C13 C12 1_555 1_555
H11 C13 1_555 1_555
H12 C13 1_555 1_555
C14 C12 1_555 1_555
H13 C14 1_555 1_555
C15 C14 1_555 1_555
C16 O2 1_555 1_555
H14 C16 1_555 1_555
H15 C16 1_555 1_555
C17 C16 1_555 1_555
H16 C17 1_555 1_555
H17 C17 1_555 1_555
H18 C17 1_555 1_555
C18 C3 1_555 1_555
H19 C18 1_555 1_555
H20 C18 1_555 1_555
H21 C18 1_555 1_555
C19 S1 1_555 1_555
C20 C19 1_555 1_555
H22 C20 1_555 1_555
C21 C20 1_555 1_555
H23 C21 1_555 1_555
C22 C21 1_555 1_555
C23 C22 1_555 1_555
H24 C23 1_555 1_555
C24 C19 1_555 1_555
H25 C24 1_555 1_555
C25 C22 1_555 1_555
H26 C25 1_555 1_555
H27 C25 1_555 1_555
H28 C25 1_555 1_555
C5 C6 1_555 1_555
C7 C8 1_555 1_555
C11 C12 1_555 1_555
C13 C14 1_555 1_555
C23 C24 1_555 1_555

#END
