
#######################################################################
#
#                 Cambridge Crystallographic Data Centre
#                                CCDC 
#
#######################################################################
#
# If this CIF has been generated from an entry in the Cambridge 
# Structural Database, then it will include bibliographic, chemical, 
# crystal, experimental, refinement or atomic coordinate data resulting 
# from the CCDC's data processing and validation procedures.
#
#######################################################################

data_WUBBOK
_chemical_formula_moiety         'C48 H50 I2 Li4 O6'
_chemical_name_systematic        
bis(\m~2~-2,2''-Dimethoxy-m-terphenyl)-bis(\m~3~-iodo)-bis(tetrahydrofuran)-tetra-lithium(i)
_symmetry_cell_setting           monoclinic
_symmetry_space_group_name_H-M   'P 21/c'
_symmetry_Int_Tables_number      14
_space_group_name_Hall           '-P 2ybc'
loop_
_symmetry_equiv_pos_site_id
_symmetry_equiv_pos_as_xyz
1 x,y,z
2 x,1/2-y,1/2+z
3 -x,-y,-z
4 -x,1/2+y,1/2-z
_cell_length_a                   10.1825(14)
_cell_length_b                   14.863(2)
_cell_length_c                   15.396(2)
_cell_angle_alpha                90
_cell_angle_beta                 92.009(2)
_cell_angle_gamma                90
_cell_volume                     2328.64
_exptl_crystal_colour            colorless
_exptl_crystal_description       plate
_cell_formula_units_Z            2
loop_
_atom_site_label
_atom_site_type_symbol
_atom_site_fract_x
_atom_site_fract_y
_atom_site_fract_z
I1 I 0.86804(5) 0.60898(4) 1.00488(3)
Li1 Li 0.9667(10) 0.6812(9) 0.8510(8)
Li2 Li 0.9993(12) 0.5054(8) 0.8813(8)
O1 O 1.1241(4) 0.7547(3) 0.8834(3)
O2 O 0.8758(5) 0.4387(3) 0.8023(3)
O3 O 0.8216(4) 0.7540(4) 0.8099(3)
C1 C 1.0862(7) 0.8344(5) 0.9301(5)
H1 H 1.1639 0.8692 0.9462
H2 H 1.0416 0.8170 0.9822
H3 H 1.0276 0.8705 0.8934
C2 C 1.2394(6) 0.7124(5) 0.9116(5)
C3 C 1.3131(7) 0.7440(5) 0.9836(5)
H4 H 1.2851 0.7947 1.0144
C4 C 1.4287(7) 0.6994(6) 1.0093(5)
H5 H 1.4794 0.7207 1.0571
C5 C 1.4686(7) 0.6252(6) 0.9654(5)
H6 H 1.5448 0.5940 0.9840
C6 C 1.3959(6) 0.5965(5) 0.8934(5)
H7 H 1.4252 0.5460 0.8628
C7 C 1.2813(6) 0.6389(4) 0.8642(4)
C8 C 1.2132(6) 0.6066(5) 0.7820(4)
C9 C 1.2913(6) 0.5934(5) 0.7104(4)
H8 H 1.3815 0.6068 0.7153
C10 C 1.2386(6) 0.5611(5) 0.6325(4)
H9 H 1.2921 0.5522 0.5847
C11 C 1.1055(6) 0.5422(4) 0.6264(4)
H10 H 1.0685 0.5195 0.5741
C12 C 1.0257(6) 0.5563(4) 0.6966(4)
C13 C 1.0761(6) 0.5868(4) 0.7793(4)
C14 C 0.8820(7) 0.5391(5) 0.6822(5)
C15 C 0.8157(7) 0.5799(5) 0.6116(5)
H11 H 0.8614 0.6205 0.5768
C16 C 0.6855(8) 0.5625(6) 0.5914(6)
H12 H 0.6441 0.5900 0.5427
C17 C 0.6164(7) 0.5056(6) 0.6417(6)
H13 H 0.5274 0.4938 0.6278
C18 C 0.6772(7) 0.4646(6) 0.7140(5)
H14 H 0.6295 0.4256 0.7492
C19 C 0.8088(7) 0.4818(5) 0.7334(5)
C20 C 0.8124(9) 0.3614(6) 0.8396(6)
H15 H 0.7540 0.3339 0.7961
H16 H 0.7622 0.3804 0.8887
H17 H 0.8786 0.3182 0.8589
C21 C 0.6861(10) 0.7177(8) 0.8186(9)
H18 H 0.6768 0.6587 0.7907
H19 H 0.6642 0.7122 0.8798
C22 C 0.6043(9) 0.7833(9) 0.7750(8)
H20 H 0.5324 0.7531 0.7428
H21 H 0.5661 0.8234 0.8179
C25 C 0.6790(9) 0.8338(8) 0.7174(7)
H26 H 0.6646 0.8983 0.7264
H27 H 0.6535 0.8190 0.6571
C26 C 0.8190(7) 0.8108(6) 0.7356(5)
H28 H 0.8554 0.7794 0.6859
H29 H 0.8707 0.8653 0.7472
Li2B Li 1.0007(12) 0.4946(8) 1.1187(8)
I1B I 1.13196(5) 0.39102(4) 0.99512(3)
Li1B Li 1.0333(10) 0.3188(9) 1.1490(8)
O1B O 0.8759(4) 0.2453(3) 1.1166(3)
C1B C 0.9138(7) 0.1656(5) 1.0699(5)
H1B H 0.8361 0.1308 1.0538
H2B H 0.9584 0.1830 1.0178
H3B H 0.9724 0.1295 1.1066
C2B C 0.7606(6) 0.2876(5) 1.0884(5)
C3B C 0.6869(7) 0.2560(5) 1.0164(5)
H4B H 0.7149 0.2053 0.9856
C4B C 0.5713(7) 0.3006(6) 0.9907(5)
H5B H 0.5206 0.2793 0.9429
C5B C 0.5314(7) 0.3748(6) 1.0346(5)
H6B H 0.4552 0.4060 1.0160
C6B C 0.6041(6) 0.4035(5) 1.1066(5)
H7B H 0.5748 0.4540 1.1372
C7B C 0.7187(6) 0.3611(4) 1.1358(4)
C8B C 0.7868(6) 0.3934(5) 1.2180(4)
C9B C 0.7087(6) 0.4066(5) 1.2896(4)
H8B H 0.6185 0.3932 1.2847
C10B C 0.7614(6) 0.4389(5) 1.3675(4)
H9B H 0.7079 0.4478 1.4153
C11B C 0.8945(6) 0.4578(4) 1.3736(4)
H10B H 0.9315 0.4805 1.4259
C12B C 0.9743(6) 0.4437(4) 1.3034(4)
C13B C 0.9239(6) 0.4132(4) 1.2207(4)
O3B O 1.1784(4) 0.2460(4) 1.1901(3)
C21B C 1.3139(10) 0.2823(8) 1.1814(9)
H18B H 1.3232 0.3413 1.2093
H19B H 1.3358 0.2878 1.1202
C22B C 1.3957(9) 0.2167(9) 1.2250(8)
H20B H 1.4676 0.2469 1.2572
H21B H 1.4339 0.1766 1.1821
C25B C 1.3210(9) 0.1662(8) 1.2826(7)
H26B H 1.3354 0.1017 1.2736
H27B H 1.3465 0.1810 1.3429
C26B C 1.1810(7) 0.1892(6) 1.2644(5)
H28B H 1.1446 0.2206 1.3141
H29B H 1.1293 0.1347 1.2528
O2B O 1.1242(5) 0.5613(3) 1.1977(3)
C19B C 1.1912(7) 0.5182(5) 1.2666(5)
C14B C 1.1180(7) 0.4609(5) 1.3178(5)
C15B C 1.1843(7) 0.4201(5) 1.3884(5)
H11B H 1.1386 0.3795 1.4232
C16B C 1.3145(8) 0.4375(6) 1.4086(6)
H12B H 1.3559 0.4100 1.4573
C17B C 1.3836(7) 0.4944(6) 1.3583(6)
H13B H 1.4726 0.5062 1.3722
C18B C 1.3228(7) 0.5354(6) 1.2860(5)
H14B H 1.3705 0.5744 1.2508
C20B C 1.1876(9) 0.6386(6) 1.1604(6)
H15B H 1.2460 0.6661 1.2039
H16B H 1.2378 0.6196 1.1113
H17B H 1.1214 0.6818 1.1411
C23? C 0.6977(14) 0.7726(16) 0.8519(11)
H22? H 0.7032 0.8278 0.8867
H23? H 0.6720 0.7224 0.8890
C24? C 0.6043(9) 0.7833(9) 0.7750(8)
H24? H 0.5796 0.7248 0.7500
H25? H 0.5248 0.8157 0.7908
loop_
_geom_bond_atom_site_label_1
_geom_bond_atom_site_label_2
_geom_bond_site_symmetry_1
_geom_bond_site_symmetry_2
I1 Li1 1_555 1_555
Li1 O1 1_555 1_555
Li2 I1 1_555 1_555
O1 C1 1_555 1_555
O2 Li2 1_555 1_555
O3 Li1 1_555 1_555
C1 H1 1_555 1_555
H2 C1 1_555 1_555
H3 C1 1_555 1_555
C2 O1 1_555 1_555
C3 C2 1_555 1_555
H4 C3 1_555 1_555
C4 C3 1_555 1_555
H5 C4 1_555 1_555
C5 C4 1_555 1_555
H6 C5 1_555 1_555
C6 C5 1_555 1_555
H7 C6 1_555 1_555
C7 C2 1_555 1_555
C8 C7 1_555 1_555
C9 C8 1_555 1_555
H8 C9 1_555 1_555
C10 C9 1_555 1_555
H9 C10 1_555 1_555
C11 C10 1_555 1_555
H10 C11 1_555 1_555
C12 C11 1_555 1_555
C13 Li1 1_555 1_555
C14 C12 1_555 1_555
C15 C14 1_555 1_555
H11 C15 1_555 1_555
C16 C15 1_555 1_555
H12 C16 1_555 1_555
C17 C16 1_555 1_555
H13 C17 1_555 1_555
C18 C17 1_555 1_555
H14 C18 1_555 1_555
C19 O2 1_555 1_555
C20 O2 1_555 1_555
H15 C20 1_555 1_555
H16 C20 1_555 1_555
H17 C20 1_555 1_555
C21 O3 1_555 1_555
H18 C21 1_555 1_555
H19 C21 1_555 1_555
C22 C21 1_555 1_555
H20 C22 1_555 1_555
H21 C22 1_555 1_555
C25 C22 1_555 1_555
H26 C25 1_555 1_555
H27 C25 1_555 1_555
C26 O3 1_555 1_555
H28 C26 1_555 1_555
H29 C26 1_555 1_555
Li2B I1 1_555 1_555
I1B Li2 1_555 1_555
Li1B I1B 1_555 1_555
O1B Li1B 1_555 1_555
C1B O1B 1_555 1_555
H1B C1B 1_555 1_555
H2B C1B 1_555 1_555
H3B C1B 1_555 1_555
C2B O1B 1_555 1_555
C3B C2B 1_555 1_555
H4B C3B 1_555 1_555
C4B C3B 1_555 1_555
H5B C4B 1_555 1_555
C5B C4B 1_555 1_555
H6B C5B 1_555 1_555
C6B C5B 1_555 1_555
H7B C6B 1_555 1_555
C7B C2B 1_555 1_555
C8B C7B 1_555 1_555
C9B C8B 1_555 1_555
H8B C9B 1_555 1_555
C10B C9B 1_555 1_555
H9B C10B 1_555 1_555
C11B C10B 1_555 1_555
H10B C11B 1_555 1_555
C12B C11B 1_555 1_555
C13B Li2B 1_555 1_555
O3B Li1B 1_555 1_555
C21B O3B 1_555 1_555
H18B C21B 1_555 1_555
H19B C21B 1_555 1_555
C22B C21B 1_555 1_555
H20B C22B 1_555 1_555
H21B C22B 1_555 1_555
C25B C22B 1_555 1_555
H26B C25B 1_555 1_555
H27B C25B 1_555 1_555
C26B O3B 1_555 1_555
H28B C26B 1_555 1_555
H29B C26B 1_555 1_555
O2B Li2B 1_555 1_555
C19B O2B 1_555 1_555
C14B C12B 1_555 1_555
C15B C14B 1_555 1_555
H11B C15B 1_555 1_555
C16B C15B 1_555 1_555
H12B C16B 1_555 1_555
C17B C16B 1_555 1_555
H13B C17B 1_555 1_555
C18B C19B 1_555 1_555
H14B C18B 1_555 1_555
C20B O2B 1_555 1_555
H15B C20B 1_555 1_555
H16B C20B 1_555 1_555
H17B C20B 1_555 1_555
Li2 C13 1_555 1_555
C6 C7 1_555 1_555
C8 C13 1_555 1_555
C12 C13 1_555 1_555
C14 C19 1_555 1_555
C18 C19 1_555 1_555
C25 C26 1_555 1_555
Li2B I1B 1_555 1_555
Li1B C13B 1_555 1_555
C6B C7B 1_555 1_555
C8B C13B 1_555 1_555
C12B C13B 1_555 1_555
C25B C26B 1_555 1_555
C19B C14B 1_555 1_555
C17B C18B 1_555 1_555

#END
