
#######################################################################
#
#                 Cambridge Crystallographic Data Centre
#                                CCDC 
#
#######################################################################
#
# If this CIF has been generated from an entry in the Cambridge 
# Structural Database, then it will include bibliographic, chemical, 
# crystal, experimental, refinement or atomic coordinate data resulting 
# from the CCDC's data processing and validation procedures.
#
#######################################################################

data_WUBCUR
_chemical_formula_moiety         'C16 H18 O2 S2'
_chemical_name_systematic        meso-(R,S)-1,2-bis(Benzylsulfinyl)ethane
_symmetry_cell_setting           monoclinic
_symmetry_space_group_name_H-M   'P 21/c'
_symmetry_Int_Tables_number      14
_space_group_name_Hall           '-P 2ybc'
loop_
_symmetry_equiv_pos_site_id
_symmetry_equiv_pos_as_xyz
1 x,y,z
2 x,1/2-y,1/2+z
3 -x,-y,-z
4 -x,1/2+y,1/2-z
_cell_length_a                   16.933(6)
_cell_length_b                   5.312(2)
_cell_length_c                   8.423(3)
_cell_angle_alpha                90
_cell_angle_beta                 91.209(7)
_cell_angle_gamma                90
_cell_volume                     757.464
_exptl_crystal_colour            colorless
_exptl_crystal_description       block
_chemical_melting_point          493-495K
_cell_formula_units_Z            2
_exptl_crystal_recrystallization_method chloroform
loop_
_atom_site_label
_atom_site_type_symbol
_atom_site_fract_x
_atom_site_fract_y
_atom_site_fract_z
S1 S 0.12405(4) 0.07296(14) 0.96323(9)
O1 O 0.11520(13) 0.3441(4) 0.9187(3)
C1 C 0.02701(17) -0.0623(6) 0.9415(4)
H1 H 0.0069 -0.0364 0.8341
H2 H 0.0294 -0.2419 0.9615
C2 C 0.16912(18) -0.0874(6) 0.7982(4)
H3 H 0.1578 -0.2662 0.8037
H4 H 0.1472 -0.0233 0.6989
C3 C 0.25711(17) -0.0463(6) 0.8040(3)
C4 C 0.3056(2) -0.2107(6) 0.8882(4)
H5 H 0.2839 -0.3474 0.9409
C5 C 0.3865(2) -0.1709(8) 0.8937(5)
H6 H 0.4190 -0.2809 0.9509
C6 C 0.4188(2) 0.0259(8) 0.8169(5)
H7 H 0.4733 0.0495 0.8202
C7 C 0.3713(2) 0.1909(7) 0.7340(5)
H8 H 0.3934 0.3272 0.6818
C8 C 0.29081(19) 0.1546(6) 0.7279(4)
H9 H 0.2588 0.2673 0.6717
C1B C -0.02701(17) 0.0623(6) 1.0585(4)
S1B S -0.12405(4) -0.07296(14) 1.03677(9)
O1B O -0.11520(13) -0.3441(4) 1.0813(3)
C2B C -0.16912(18) 0.0874(6) 1.2018(4)
H3B H -0.1578 0.2662 1.1963
H4B H -0.1472 0.0233 1.3011
C3B C -0.25711(17) 0.0463(6) 1.1960(3)
C4B C -0.3056(2) 0.2107(6) 1.1118(4)
H5B H -0.2839 0.3474 1.0591
C5B C -0.3865(2) 0.1709(8) 1.1063(5)
H6B H -0.4190 0.2809 1.0491
C6B C -0.4188(2) -0.0259(8) 1.1831(5)
H7B H -0.4733 -0.0495 1.1798
C7B C -0.3713(2) -0.1909(7) 1.2660(5)
H8B H -0.3934 -0.3272 1.3182
C8B C -0.29081(19) -0.1546(6) 1.2721(4)
H9B H -0.2588 -0.2673 1.3283
H1B H -0.0069 0.0364 1.1659
H2B H -0.0294 0.2419 1.0385
loop_
_geom_bond_atom_site_label_1
_geom_bond_atom_site_label_2
_geom_bond_site_symmetry_1
_geom_bond_site_symmetry_2
S1 O1 1_555 1_555
C1 S1 1_555 1_555
H1 C1 1_555 1_555
H2 C1 1_555 1_555
C2 S1 1_555 1_555
H3 C2 1_555 1_555
H4 C2 1_555 1_555
C3 C2 1_555 1_555
C4 C3 1_555 1_555
H5 C4 1_555 1_555
C5 C4 1_555 1_555
H6 C5 1_555 1_555
C6 C5 1_555 1_555
H7 C6 1_555 1_555
C7 C6 1_555 1_555
H8 C7 1_555 1_555
C8 C3 1_555 1_555
H9 C8 1_555 1_555
C1B C1 1_555 1_555
S1B C1B 1_555 1_555
O1B S1B 1_555 1_555
C2B S1B 1_555 1_555
H3B C2B 1_555 1_555
H4B C2B 1_555 1_555
C3B C2B 1_555 1_555
C4B C3B 1_555 1_555
H5B C4B 1_555 1_555
C5B C4B 1_555 1_555
H6B C5B 1_555 1_555
C6B C5B 1_555 1_555
H7B C6B 1_555 1_555
C7B C6B 1_555 1_555
H8B C7B 1_555 1_555
C8B C3B 1_555 1_555
H9B C8B 1_555 1_555
H1B C1B 1_555 1_555
H2B C1B 1_555 1_555
C7 C8 1_555 1_555
C7B C8B 1_555 1_555

#END
