
#######################################################################
#
#                 Cambridge Crystallographic Data Centre
#                                CCDC 
#
#######################################################################
#
# If this CIF has been generated from an entry in the Cambridge 
# Structural Database, then it will include bibliographic, chemical, 
# crystal, experimental, refinement or atomic coordinate data resulting 
# from the CCDC's data processing and validation procedures.
#
#######################################################################

data_WUBFII
_chemical_formula_moiety         'C6 H8 N4 S2 2+,2(Cl1 1-)'
_chemical_name_systematic        
"2,2'-Diamino-4,4'-bi-1,3-thiazolium dichloride"
_symmetry_cell_setting           monoclinic
_symmetry_space_group_name_H-M   'P 21/c'
_symmetry_Int_Tables_number      14
_space_group_name_Hall           '-P 2ybc'
loop_
_symmetry_equiv_pos_site_id
_symmetry_equiv_pos_as_xyz
1 x,y,z
2 x,1/2-y,1/2+z
3 -x,-y,-z
4 -x,1/2+y,1/2-z
_cell_length_a                   4.8211(8)
_cell_length_b                   9.2441(14)
_cell_length_c                   12.0228(10)
_cell_angle_alpha                90
_cell_angle_beta                 98.224(12)
_cell_angle_gamma                90
_cell_volume                     530.307
_exptl_crystal_colour            orange
_exptl_crystal_description       prismatic
_cell_formula_units_Z            2
_exptl_crystal_recrystallization_method aqueous
loop_
_atom_site_label
_atom_site_type_symbol
_atom_site_fract_x
_atom_site_fract_y
_atom_site_fract_z
C1 C 0.4704(10) 0.2903(5) 0.3986(4)
C2 C 0.4579(10) 0.0747(5) 0.4911(4)
C3 C 0.2741(11) 0.1514(6) 0.5417(4)
N1 N 0.5710(9) 0.1556(4) 0.4107(4)
N2 N 0.5521(11) 0.3828(5) 0.3265(4)
S1 S 0.2371(3) 0.32665(14) 0.49049(11)
H1 H 0.706(16) 0.123(8) 0.356(7)
H2 H 0.129(16) 0.109(8) 0.597(7)
H3 H 0.483(16) 0.478(9) 0.316(7)
H4 H 0.705(17) 0.344(9) 0.291(7)
C2B C 0.5421(10) -0.0747(5) 0.5089(4)
C3B C 0.7259(11) -0.1514(6) 0.4583(4)
S1B S 0.7629(3) -0.32665(14) 0.50951(11)
C1B C 0.5296(10) -0.2903(5) 0.6014(4)
N1B N 0.4290(9) -0.1556(4) 0.5893(4)
H1B H 0.294(16) -0.123(8) 0.644(7)
N2B N 0.4479(11) -0.3828(5) 0.6735(4)
H3B H 0.517(16) -0.478(9) 0.684(7)
H4B H 0.295(17) -0.344(9) 0.709(7)
H2B H 0.871(16) -0.109(8) 0.403(7)
Cl1 Cl 0.9289(2) 0.12652(12) 0.21774(9)
loop_
_geom_bond_atom_site_label_1
_geom_bond_atom_site_label_2
_geom_bond_site_symmetry_1
_geom_bond_site_symmetry_2
C1 N1 1_555 1_555
C2 C3 1_555 1_555
C3 S1 1_555 1_555
N1 C2 1_555 1_555
N2 C1 1_555 1_555
S1 C1 1_555 1_555
H1 N1 1_555 1_555
H2 C3 1_555 1_555
H3 N2 1_555 1_555
H4 N2 1_555 1_555
C2B C2 1_555 1_555
C3B C2B 1_555 1_555
S1B C3B 1_555 1_555
C1B S1B 1_555 1_555
N1B C2B 1_555 1_555
H1B N1B 1_555 1_555
N2B C1B 1_555 1_555
H3B N2B 1_555 1_555
H4B N2B 1_555 1_555
H2B C3B 1_555 1_555
C1B N1B 1_555 1_555

#END
