
#######################################################################
#
#                 Cambridge Crystallographic Data Centre
#                                CCDC 
#
#######################################################################
#
# If this CIF has been generated from an entry in the Cambridge 
# Structural Database, then it will include bibliographic, chemical, 
# crystal, experimental, refinement or atomic coordinate data resulting 
# from the CCDC's data processing and validation procedures.
#
#######################################################################

data_WUBHOQ
_chemical_formula_moiety         '2(C5 H6 N1 1+),C14 H8 O4 S2 2-'
_chemical_name_systematic        "Pyridinium 2,2'-dithiodisalicylate"
_symmetry_cell_setting           monoclinic
_symmetry_space_group_name_H-M   'C 2/c'
_symmetry_Int_Tables_number      15
_space_group_name_Hall           '-C 2yn'
loop_
_symmetry_equiv_pos_site_id
_symmetry_equiv_pos_as_xyz
1 x,y,z
2 1/2+x,1/2+y,z
3 x,-y,1/2+z
4 1/2+x,1/2-y,1/2+z
5 -x,-y,-z
6 1/2-x,1/2-y,-z
7 -x,y,1/2-z
8 1/2-x,1/2+y,1/2-z
_cell_length_a                   8.0936(4)
_cell_length_b                   12.9825(6)
_cell_length_c                   21.9157(10)
_cell_angle_alpha                90
_cell_angle_beta                 96.8820(10)
_cell_angle_gamma                90
_cell_volume                     2286.2
_exptl_crystal_colour            yellow
_exptl_crystal_description       rectangular
_cell_formula_units_Z            4
loop_
_atom_site_label
_atom_site_type_symbol
_atom_site_fract_x
_atom_site_fract_y
_atom_site_fract_z
S1 S 0.03728(16) 0.10521(9) 0.29678(5)
O1 O 0.1335(5) 0.0964(3) 0.41821(15)
C1 C -0.0795(5) 0.2199(3) 0.39083(19)
O2 O 0.0294(5) 0.1798(3) 0.49322(14)
C2 C -0.0896(5) 0.2023(3) 0.32677(18)
C3 C -0.2003(6) 0.2618(3) 0.2881(2)
H1 H -0.2099 0.2512 0.2459
C4 C 0.0388(6) 0.1595(4) 0.4350(2)
C5 C -0.1797(6) 0.2944(4) 0.4132(2)
H2 H -0.1728 0.3053 0.4553
C6 C -0.2958(7) 0.3362(4) 0.3117(2)
H4 H -0.3664 0.3765 0.2850
C8 C -0.2892(7) 0.3524(4) 0.3742(2)
H6 H -0.3570 0.4013 0.3897
S1F S -0.03728(16) 0.10521(9) 0.20322(5)
C2F C 0.0896(5) 0.2023(3) 0.17323(18)
C1F C 0.0795(5) 0.2199(3) 0.10917(19)
C4F C -0.0388(6) 0.1595(4) 0.0650(2)
O1F O -0.1335(5) 0.0964(3) 0.08179(15)
O2F O -0.0294(5) 0.1798(3) 0.00678(14)
C5F C 0.1797(6) 0.2944(4) 0.0868(2)
H2F H 0.1728 0.3053 0.0447
C8F C 0.2892(7) 0.3524(4) 0.1258(2)
C6F C 0.2958(7) 0.3362(4) 0.1883(2)
C3F C 0.2003(6) 0.2618(3) 0.2119(2)
H1F H 0.2099 0.2512 0.2541
H4F H 0.3664 0.3765 0.2150
H6F H 0.3570 0.4013 0.1103
N1 N 0.2398(6) 0.0688(4) 0.56874(18)
H3 H 0.1710 0.1055 0.5449
C7 C 0.3266(8) -0.0048(5) 0.5467(3)
H5 H 0.3111 -0.0167 0.5045
C9 C 0.3702(8) 0.0277(6) 0.6683(3)
H7 H 0.3817 0.0397 0.7104
C10 C 0.4600(8) -0.0467(6) 0.6436(3)
H8 H 0.5366 -0.0850 0.6692
C11 C 0.2611(8) 0.0847(6) 0.6284(3)
H9 H 0.2000 0.1366 0.6444
C12 C 0.4408(8) -0.0661(5) 0.5829(3)
H10 H 0.5006 -0.1178 0.5660
loop_
_geom_bond_atom_site_label_1
_geom_bond_atom_site_label_2
_geom_bond_site_symmetry_1
_geom_bond_site_symmetry_2
S1 C2 1_555 1_555
O1 C4 1_555 1_555
C1 C2 1_555 1_555
O2 C4 1_555 1_555
C2 C3 1_555 1_555
C3 H1 1_555 1_555
C4 C1 1_555 1_555
C5 C1 1_555 1_555
H2 C5 1_555 1_555
N1 H3 1_555 1_555
C6 C3 1_555 1_555
H4 C6 1_555 1_555
C7 N1 1_555 1_555
H5 C7 1_555 1_555
C8 C5 1_555 1_555
H6 C8 1_555 1_555
C9 H7 1_555 1_555
C10 C9 1_555 1_555
H8 C10 1_555 1_555
C11 N1 1_555 1_555
H9 C11 1_555 1_555
C12 C7 1_555 1_555
H10 C12 1_555 1_555
S1F S1 1_555 1_555
C2F S1F 1_555 1_555
C1F C2F 1_555 1_555
C4F C1F 1_555 1_555
O1F C4F 1_555 1_555
O2F C4F 1_555 1_555
C5F C1F 1_555 1_555
H2F C5F 1_555 1_555
C8F C5F 1_555 1_555
C6F C8F 1_555 1_555
C3F C2F 1_555 1_555
H1F C3F 1_555 1_555
H4F C6F 1_555 1_555
H6F C8F 1_555 1_555
C6 C8 1_555 1_555
C9 C11 1_555 1_555
C10 C12 1_555 1_555
C6F C3F 1_555 1_555

#END
