
#######################################################################
#
#                 Cambridge Crystallographic Data Centre
#                                CCDC 
#
#######################################################################
#
# If this CIF has been generated from an entry in the Cambridge 
# Structural Database, then it will include bibliographic, chemical, 
# crystal, experimental, refinement or atomic coordinate data resulting 
# from the CCDC's data processing and validation procedures.
#
#######################################################################

data_WUCHIN
_chemical_formula_moiety         'C126 H70 S16'
_chemical_name_systematic        
1,2,3,4,5,7,8,9,10,11,12,13,15,16-tetradecakis(phenylsulfanyl)thieno[2''',3''',4''',5''':4'',5'']phenanthro[1'',10'',9'',8'':5',6',7',8']piceno[1',14',13',12':4,5,6,7,8,9]perylo[1,12-bcd]thiophene
_symmetry_cell_setting           triclinic
_symmetry_space_group_name_H-M   'P -1'
_symmetry_Int_Tables_number      2
_space_group_name_Hall           '-P 1'
loop_
_symmetry_equiv_pos_site_id
_symmetry_equiv_pos_as_xyz
1 x,y,z
2 -x,-y,-z
_cell_length_a                   8.7717(9)
_cell_length_b                   16.7535(17)
_cell_length_c                   18.5548(18)
_cell_angle_alpha                65.487(7)
_cell_angle_beta                 77.283(8)
_cell_angle_gamma                86.374(8)
_cell_volume                     2418.91
_cell_formula_units_Z            1
loop_
_atom_site_label
_atom_site_type_symbol
_atom_site_fract_x
_atom_site_fract_y
_atom_site_fract_z
S1 S 0.2792(3) 0.63777(14) 0.05129(14)
S2 S 0.9823(3) 1.05395(15) -0.40330(14)
S3 S 0.6579(3) 0.94029(15) -0.32787(14)
S4 S 0.5587(3) 0.61175(14) -0.08910(15)
S5 S 0.7788(3) 0.77458(15) -0.21043(15)
S6 S 0.9170(3) 1.29786(16) -0.32828(15)
S7 S 0.0487(3) 0.57863(16) 0.24647(15)
S8 S 1.1030(3) 1.13354(18) -0.30150(16)
C1 C 0.5943(9) 1.0105(5) -0.0769(5)
C2 C 0.4890(9) 0.9380(5) -0.0326(4)
C3 C 0.7967(9) 1.0971(5) -0.2010(5)
C4 C 0.7398(9) 0.9830(5) -0.2710(5)
C5 C 0.4927(9) 0.8714(5) -0.0613(5)
C6 C 0.7904(10) 1.1684(5) -0.1736(5)
C7 C 0.4027(9) 0.7956(5) -0.0097(5)
C8 C 0.6796(9) 0.9589(5) -0.1875(5)
C9 C 0.8643(9) 1.0464(5) -0.3099(5)
C10 C 0.6897(9) 1.0217(5) -0.1551(5)
C11 C 0.3021(10) 0.7862(5) 0.0637(5)
C12 C 0.9096(10) 1.0939(5) -0.2686(5)
C13 C 0.5959(9) 0.8740(5) -0.1326(5)
C14 C 1.1950(11) 0.8922(6) -0.2541(7)
H1 H 1.2761 0.9207 -0.3003
C15 C 0.9832(11) 1.1639(6) -0.4708(5)
C16 C 1.2107(12) 0.8855(7) -0.1809(7)
H2 H 1.3017 0.9087 -0.1758
C17 C 0.5014(10) 0.6206(5) -0.1756(5)
C18 C 0.5269(11) 0.7163(5) -0.0889(5)
C19 C 0.8556(10) 1.2564(5) -0.2218(5)
C20 C 0.3924(9) 0.9279(5) 0.0446(5)
C21 C 0.2943(9) 0.8498(5) 0.0939(5)
C22 C 0.2265(11) 0.7025(6) 0.1066(5)
C23 C 0.8680(12) 1.2227(6) -0.4640(6)
H3 H 0.7836 1.2051 -0.4180
C24 C 0.6209(9) 0.7916(5) -0.1412(5)
C25 C 1.1109(16) 1.2750(8) -0.6003(7)
H4 H 1.1923 1.2928 -0.6476
C26 C 0.3977(12) 0.6813(6) -0.2139(6)
H5 H 0.3624 0.7261 -0.1960
C27 C 1.0624(11) 0.8585(6) -0.2638(6)
H6 H 1.0540 0.8628 -0.3155
C28 C 0.1429(11) 0.6817(5) 0.1870(5)
C29 C 0.5548(13) 0.5559(6) -0.2033(7)
H7 H 0.6296 0.5154 -0.1801
C30 C 1.2495(12) 1.2109(7) -0.2330(7)
H8 H 1.2781 1.2545 -0.2869
C31 C 0.3918(15) 0.6114(8) -0.3031(7)
H9 H 0.3531 0.6072 -0.3454
C32 C 0.5071(11) 1.0994(7) -0.3703(7)
H10 H 0.4795 1.0874 -0.3143
C33 C 0.4104(10) 0.7196(5) -0.0248(5)
C34 C 1.1045(13) 1.1907(7) -0.5396(6)
H11 H 1.1834 1.1508 -0.5450
C35 C 0.9429(10) 0.8184(6) -0.1956(6)
C36 C 0.4908(15) 1.1919(9) -0.5085(9)
H12 H 0.4520 1.2425 -0.5464
C37 C 0.0154(12) 0.4702(6) 0.1745(6)
H13 H 0.0826 0.4320 0.2067
C38 C 0.8763(14) 1.3077(7) -0.5248(6)
H14 H 0.7978 1.3480 -0.5199
C39 C -0.0503(15) 0.4460(8) 0.1244(7)
H15 H -0.0285 0.3904 0.1228
C40 C 1.1632(14) 1.0863(9) -0.0766(7)
H16 H 1.1330 1.0447 -0.0220
C41 C -0.1771(14) 0.5820(9) 0.0766(8)
H17 H -0.2388 0.6211 0.0415
C42 C 0.4957(16) 0.5517(8) -0.2661(7)
H18 H 0.5285 0.5063 -0.2836
C43 C 0.3446(13) 0.6776(7) -0.2778(7)
H19 H 0.2759 0.7206 -0.3041
C44 C 0.9590(11) 0.8098(6) -0.1197(6)
H20 H 0.8791 0.7807 -0.0731
C45 C 1.2606(14) 1.1589(10) -0.0957(9)
H21 H 1.2957 1.1659 -0.0536
C46 C 0.5956(11) 1.0399(6) -0.3963(6)
C47 C 1.0905(13) 0.8436(7) -0.1125(7)
H22 H 1.1006 0.8386 -0.0609
C48 C -0.0200(11) 0.5520(6) 0.1764(6)
C49 C 0.4599(13) 1.1764(8) -0.4272(7)
H23 H 0.4061 1.2186 -0.4100
C50 C 0.8303(18) 1.4642(7) -0.4147(7)
H24 H 0.9385 1.4791 -0.4271
C51 C 0.7789(14) 1.3783(6) -0.3604(6)
C52 C -0.1174(12) 0.6059(7) 0.1281(7)
H25 H -0.1438 0.6609 0.1303
C53 C 0.6309(16) 1.0574(7) -0.4783(6)
H26 H 0.6912 1.0175 -0.4964
C54 C 1.1111(11) 1.0755(7) -0.1372(7)
H27 H 1.0490 1.0252 -0.1251
C55 C 0.9958(17) 1.3329(7) -0.5906(7)
H28 H 1.0012 1.3914 -0.6309
C56 C 1.1511(11) 1.1394(7) -0.2164(6)
C57 C 0.6211(15) 1.3580(8) -0.3436(6)
H29 H 0.5833 1.2999 -0.3083
C58 C 0.574(2) 1.5047(10) -0.4314(9)
H30 H 0.5039 1.5476 -0.4562
C59 C 0.5783(17) 1.1332(8) -0.5342(7)
H31 H 0.6027 1.1446 -0.5902
C60 C 0.5161(17) 1.4216(10) -0.3776(8)
H32 H 0.4072 1.4080 -0.3640
C61 C 1.3047(13) 1.2182(9) -0.1722(8)
H33 H 1.3743 1.2655 -0.1845
C62 C 0.732(2) 1.5274(9) -0.4505(8)
H34 H 0.7697 1.5851 -0.4871
C63 C -0.1454(14) 0.5011(9) 0.0775(7)
H35 H -0.1905 0.4825 0.0448
S1A S 0.7208(3) 1.36223(14) -0.05129(14)
S2A S 0.0177(3) 0.94605(15) 0.40330(14)
S3A S 0.3421(3) 1.05971(15) 0.32787(14)
S4A S 0.4413(3) 1.38825(14) 0.08910(15)
S5A S 0.2212(3) 1.22542(15) 0.21043(15)
S6A S 0.0830(3) 0.70214(16) 0.32828(15)
S7A S 0.9513(3) 1.42137(16) -0.24647(15)
S8A S -0.1030(3) 0.86646(18) 0.30150(16)
C1A C 0.4057(9) 0.9895(5) 0.0769(5)
C2A C 0.5110(9) 1.0620(5) 0.0326(4)
C3A C 0.2033(9) 0.9029(5) 0.2010(5)
C4A C 0.2602(9) 1.0170(5) 0.2710(5)
C5A C 0.5073(9) 1.1286(5) 0.0613(5)
C6A C 0.2096(10) 0.8316(5) 0.1736(5)
C7A C 0.5973(9) 1.2044(5) 0.0097(5)
C8A C 0.3204(9) 1.0411(5) 0.1875(5)
C9A C 0.1357(9) 0.9536(5) 0.3099(5)
C10A C 0.3103(9) 0.9783(5) 0.1551(5)
C11A C 0.6979(10) 1.2138(5) -0.0637(5)
C12A C 0.0904(10) 0.9061(5) 0.2686(5)
C13A C 0.4041(9) 1.1260(5) 0.1326(5)
C14A C -0.1950(11) 1.1078(6) 0.2541(7)
H1A H -0.2761 1.0793 0.3003
C15A C 0.0168(11) 0.8361(6) 0.4708(5)
C16A C -0.2107(12) 1.1145(7) 0.1809(7)
H2A H -0.3017 1.0913 0.1758
C17A C 0.4986(10) 1.3794(5) 0.1756(5)
C18A C 0.4731(11) 1.2837(5) 0.0889(5)
C19A C 0.1444(10) 0.7436(5) 0.2218(5)
C20A C 0.6076(9) 1.0721(5) -0.0446(5)
C21A C 0.7057(9) 1.1502(5) -0.0939(5)
C22A C 0.7735(11) 1.2975(6) -0.1066(5)
C23A C 0.1320(12) 0.7773(6) 0.4640(6)
H3A H 0.2164 0.7949 0.4180
C24A C 0.3791(9) 1.2084(5) 0.1412(5)
C25A C -0.1109(16) 0.7250(8) 0.6003(7)
H4A H -0.1923 0.7072 0.6476
C26A C 0.6023(12) 1.3187(6) 0.2139(6)
H5A H 0.6376 1.2739 0.1960
C27A C -0.0624(11) 1.1415(6) 0.2638(6)
H6A H -0.0540 1.1372 0.3155
C28A C 0.8571(11) 1.3183(5) -0.1870(5)
C29A C 0.4452(13) 1.4441(6) 0.2033(7)
H7A H 0.3704 1.4846 0.1801
C30A C -0.2495(12) 0.7891(7) 0.2330(7)
H8A H -0.2781 0.7455 0.2869
C31A C 0.6082(15) 1.3886(8) 0.3031(7)
H9A H 0.6469 1.3928 0.3454
C32A C 0.4929(11) 0.9006(7) 0.3703(7)
H10A H 0.5205 0.9126 0.3143
C33A C 0.5896(10) 1.2804(5) 0.0248(5)
C34A C -0.1045(13) 0.8093(7) 0.5396(6)
H11A H -0.1834 0.8492 0.5450
C35A C 0.0571(10) 1.1816(6) 0.1956(6)
C36A C 0.5092(15) 0.8081(9) 0.5085(9)
H12A H 0.5480 0.7575 0.5464
C37A C 0.9846(12) 1.5298(6) -0.1745(6)
H13A H 0.9174 1.5680 -0.2067
C38A C 0.1237(14) 0.6923(7) 0.5248(6)
H14A H 0.2022 0.6520 0.5199
C39A C 1.0503(15) 1.5540(8) -0.1244(7)
H15A H 1.0285 1.6096 -0.1228
C40A C -0.1632(14) 0.9137(9) 0.0766(7)
H16A H -0.1330 0.9553 0.0220
C41A C 1.1771(14) 1.4180(9) -0.0766(8)
H17A H 1.2388 1.3789 -0.0415
C42A C 0.5043(16) 1.4483(8) 0.2661(7)
H18A H 0.4715 1.4937 0.2836
C43A C 0.6554(13) 1.3224(7) 0.2778(7)
H19A H 0.7241 1.2794 0.3041
C44A C 0.0410(11) 1.1902(6) 0.1197(6)
H20A H 0.1209 1.2193 0.0731
C45A C -0.2606(14) 0.8411(10) 0.0957(9)
H21A H -0.2957 0.8341 0.0536
C46A C 0.4044(11) 0.9601(6) 0.3963(6)
C47A C -0.0905(13) 1.1564(7) 0.1125(7)
H22A H -0.1006 1.1614 0.0609
C48A C 1.0200(11) 1.4480(6) -0.1764(6)
C49A C 0.5401(13) 0.8236(8) 0.4272(7)
H23A H 0.5939 0.7814 0.4100
C50A C 0.1697(18) 0.5358(7) 0.4147(7)
H24A H 0.0615 0.5209 0.4271
C51A C 0.2211(14) 0.6217(6) 0.3604(6)
C52A C 1.1174(12) 1.3941(7) -0.1281(7)
H25A H 1.1438 1.3391 -0.1303
C53A C 0.3691(16) 0.9426(7) 0.4783(6)
H26A H 0.3088 0.9825 0.4964
C54A C -0.1111(11) 0.9245(7) 0.1372(7)
H27A H -0.0490 0.9748 0.1251
C55A C 0.0042(17) 0.6671(7) 0.5906(7)
H28A H -0.0012 0.6086 0.6309
C56A C -0.1511(11) 0.8606(7) 0.2164(6)
C57A C 0.3789(15) 0.6420(8) 0.3436(6)
H29A H 0.4167 0.7001 0.3083
C58A C 0.426(2) 0.4953(10) 0.4314(9)
H30A H 0.4961 0.4524 0.4562
C59A C 0.4217(17) 0.8668(8) 0.5342(7)
H31A H 0.3973 0.8554 0.5902
C60A C 0.4839(17) 0.5784(10) 0.3776(8)
H32A H 0.5928 0.5920 0.3640
C61A C -0.3047(13) 0.7818(9) 0.1722(8)
H33A H -0.3743 0.7345 0.1845
C62A C 0.268(2) 0.4726(9) 0.4505(8)
H34A H 0.2303 0.4149 0.4871
C63A C 1.1454(14) 1.4989(9) -0.0775(7)
H35A H 1.1905 1.5175 -0.0448
loop_
_geom_bond_atom_site_label_1
_geom_bond_atom_site_label_2
_geom_bond_site_symmetry_1
_geom_bond_site_symmetry_2
S1 C22 1_555 1_555
S2 C9 1_555 1_555
S3 C4 1_555 1_555
S4 C17 1_555 1_555
S5 C24 1_555 1_555
S6 C19 1_555 1_555
S7 C28 1_555 1_555
S8 C12 1_555 1_555
C1 C2 1_555 1_555
C2 C5 1_555 1_555
C3 C6 1_555 1_555
C4 C8 1_555 1_555
C5 C7 1_555 1_555
C6 C19 1_555 1_555
C7 C11 1_555 1_555
C8 C10 1_555 1_555
C9 C4 1_555 1_555
C10 C1 1_555 1_555
C11 C21 1_555 1_555
C12 C3 1_555 1_555
C13 C5 1_555 1_555
C14 H1 1_555 1_555
C15 S2 1_555 1_555
C16 C14 1_555 1_555
H2 C16 1_555 1_555
C17 C26 1_555 1_555
C18 S4 1_555 1_555
C19 C28A 1_555 1_555
C20 C2 1_555 1_555
C21 C20 1_555 1_555
C22 C11 1_555 1_555
C23 C15 1_555 1_555
H3 C23 1_555 1_555
C24 C13 1_555 1_555
C25 H4 1_555 1_555
C26 H5 1_555 1_555
C27 C14 1_555 1_555
H6 C27 1_555 1_555
C28 C22 1_555 1_555
C29 C17 1_555 1_555
H7 C29 1_555 1_555
C30 H8 1_555 1_555
C31 H9 1_555 1_555
C32 H10 1_555 1_555
C33 S1 1_555 1_555
C34 C15 1_555 1_555
H11 C34 1_555 1_555
C35 S5 1_555 1_555
C36 H12 1_555 1_555
C37 H13 1_555 1_555
C38 C23 1_555 1_555
H14 C38 1_555 1_555
C39 C37 1_555 1_555
H15 C39 1_555 1_555
C40 H16 1_555 1_555
C41 H17 1_555 1_555
C42 C29 1_555 1_555
H18 C42 1_555 1_555
C43 C26 1_555 1_555
H19 C43 1_555 1_555
C44 C35 1_555 1_555
H20 C44 1_555 1_555
C45 C40 1_555 1_555
H21 C45 1_555 1_555
C46 S3 1_555 1_555
C47 C16 1_555 1_555
H22 C47 1_555 1_555
C48 S7 1_555 1_555
C49 C32 1_555 1_555
H23 C49 1_555 1_555
C50 H24 1_555 1_555
C51 S6 1_555 1_555
C52 C41 1_555 1_555
H25 C52 1_555 1_555
C53 C46 1_555 1_555
H26 C53 1_555 1_555
C54 C40 1_555 1_555
H27 C54 1_555 1_555
C55 C25 1_555 1_555
H28 C55 1_555 1_555
C56 S8 1_555 1_555
C57 C51 1_555 1_555
H29 C57 1_555 1_555
C58 H30 1_555 1_555
C59 C36 1_555 1_555
H31 C59 1_555 1_555
C60 C57 1_555 1_555
H32 C60 1_555 1_555
C61 C30 1_555 1_555
H33 C61 1_555 1_555
C62 C50 1_555 1_555
H34 C62 1_555 1_555
C63 C39 1_555 1_555
H35 C63 1_555 1_555
S1A C22A 1_555 1_555
S2A C9A 1_555 1_555
S3A C4A 1_555 1_555
S4A C17A 1_555 1_555
S5A C24A 1_555 1_555
S6A C19A 1_555 1_555
S7A C28A 1_555 1_555
S8A C12A 1_555 1_555
C1A C20 1_555 1_555
C2A C1A 1_555 1_555
C3A C6A 1_555 1_555
C4A C8A 1_555 1_555
C5A C2A 1_555 1_555
C6A C21 1_555 1_555
C7A C5A 1_555 1_555
C8A C10A 1_555 1_555
C9A C4A 1_555 1_555
C10A C1A 1_555 1_555
C11A C7A 1_555 1_555
C12A C3A 1_555 1_555
C13A C5A 1_555 1_555
C14A H1A 1_555 1_555
C15A S2A 1_555 1_555
C16A C14A 1_555 1_555
H2A C16A 1_555 1_555
C17A C26A 1_555 1_555
C18A S4A 1_555 1_555
C19A C28 1_555 1_555
C20A C1 1_555 1_555
C21A C6 1_555 1_555
C22A C11A 1_555 1_555
C23A C15A 1_555 1_555
H3A C23A 1_555 1_555
C24A C13A 1_555 1_555
C25A H4A 1_555 1_555
C26A H5A 1_555 1_555
C27A C14A 1_555 1_555
H6A C27A 1_555 1_555
C28A C22A 1_555 1_555
C29A C17A 1_555 1_555
H7A C29A 1_555 1_555
C30A H8A 1_555 1_555
C31A H9A 1_555 1_555
C32A H10A 1_555 1_555
C33A S1A 1_555 1_555
C34A C15A 1_555 1_555
H11A C34A 1_555 1_555
C35A S5A 1_555 1_555
C36A H12A 1_555 1_555
C37A H13A 1_555 1_555
C38A C23A 1_555 1_555
H14A C38A 1_555 1_555
C39A C37A 1_555 1_555
H15A C39A 1_555 1_555
C40A H16A 1_555 1_555
C41A H17A 1_555 1_555
C42A C29A 1_555 1_555
H18A C42A 1_555 1_555
C43A C26A 1_555 1_555
H19A C43A 1_555 1_555
C44A C35A 1_555 1_555
H20A C44A 1_555 1_555
C45A C40A 1_555 1_555
H21A C45A 1_555 1_555
C46A S3A 1_555 1_555
C47A C16A 1_555 1_555
H22A C47A 1_555 1_555
C48A S7A 1_555 1_555
C49A C32A 1_555 1_555
H23A C49A 1_555 1_555
C50A H24A 1_555 1_555
C51A S6A 1_555 1_555
C52A C41A 1_555 1_555
H25A C52A 1_555 1_555
C53A C46A 1_555 1_555
H26A C53A 1_555 1_555
C54A C40A 1_555 1_555
H27A C54A 1_555 1_555
C55A C25A 1_555 1_555
H28A C55A 1_555 1_555
C56A S8A 1_555 1_555
C57A C51A 1_555 1_555
H29A C57A 1_555 1_555
C58A H30A 1_555 1_555
C59A C36A 1_555 1_555
H31A C59A 1_555 1_555
C60A C57A 1_555 1_555
H32A C60A 1_555 1_555
C61A C30A 1_555 1_555
H33A C61A 1_555 1_555
C62A C50A 1_555 1_555
H34A C62A 1_555 1_555
C63A C39A 1_555 1_555
H35A C63A 1_555 1_555
C3 C10 1_555 1_555
C7 C33 1_555 1_555
C8 C13 1_555 1_555
C9 C12 1_555 1_555
C18 C24 1_555 1_555
C18 C33 1_555 1_555
C25 C34 1_555 1_555
C27 C35 1_555 1_555
C30 C56 1_555 1_555
C31 C42 1_555 1_555
C31 C43 1_555 1_555
C32 C46 1_555 1_555
C36 C49 1_555 1_555
C37 C48 1_555 1_555
C38 C55 1_555 1_555
C41 C63 1_555 1_555
C44 C47 1_555 1_555
C45 C61 1_555 1_555
C48 C52 1_555 1_555
C50 C51 1_555 1_555
C53 C59 1_555 1_555
C54 C56 1_555 1_555
C58 C60 1_555 1_555
C58 C62 1_555 1_555
C2A C20A 1_555 1_555
C3A C10A 1_555 1_555
C6A C19A 1_555 1_555
C7A C33A 1_555 1_555
C8A C13A 1_555 1_555
C9A C12A 1_555 1_555
C11A C21A 1_555 1_555
C18A C24A 1_555 1_555
C18A C33A 1_555 1_555
C20A C21A 1_555 1_555
C25A C34A 1_555 1_555
C27A C35A 1_555 1_555
C30A C56A 1_555 1_555
C31A C42A 1_555 1_555
C31A C43A 1_555 1_555
C32A C46A 1_555 1_555
C36A C49A 1_555 1_555
C37A C48A 1_555 1_555
C38A C55A 1_555 1_555
C41A C63A 1_555 1_555
C44A C47A 1_555 1_555
C45A C61A 1_555 1_555
C48A C52A 1_555 1_555
C50A C51A 1_555 1_555
C53A C59A 1_555 1_555
C54A C56A 1_555 1_555
C58A C60A 1_555 1_555
C58A C62A 1_555 1_555

#END
