
#######################################################################
#
#                 Cambridge Crystallographic Data Centre
#                                CCDC 
#
#######################################################################
#
# If this CIF has been generated from an entry in the Cambridge 
# Structural Database, then it will include bibliographic, chemical, 
# crystal, experimental, refinement or atomic coordinate data resulting 
# from the CCDC's data processing and validation procedures.
#
#######################################################################

data_WUCQER
_chemical_formula_moiety         'C24 H19 N1 O6'
_chemical_name_systematic        
'Dimethyl 4-benzoyl-3-(1-naphthyl)-1,2-oxazole-5,5(4H)-dicarboxylate'
_symmetry_cell_setting           monoclinic
_symmetry_space_group_name_H-M   'P 21/c'
_symmetry_Int_Tables_number      14
_space_group_name_Hall           '-P 2ybc'
loop_
_symmetry_equiv_pos_site_id
_symmetry_equiv_pos_as_xyz
1 x,y,z
2 -x,1/2+y,1/2-z
3 -x,-y,-z
4 x,1/2-y,1/2+z
_cell_length_a                   30.427(6)
_cell_length_b                   8.4707(17)
_cell_length_c                   15.705(3)
_cell_angle_alpha                90
_cell_angle_beta                 91.78(3)
_cell_angle_gamma                90
_cell_volume                     4045.82
_cell_formula_units_Z            8
loop_
_atom_site_label
_atom_site_type_symbol
_atom_site_fract_x
_atom_site_fract_y
_atom_site_fract_z
O1 O 0.38514(4) 0.22433(13) 0.55514(7)
O2 O 0.47107(3) 0.35577(13) 0.68394(7)
O3 O 0.46943(4) 0.08996(14) 0.67760(8)
O4 O 0.45851(3) 0.27227(13) 0.86895(7)
O5 O 0.40582(4) 0.45594(14) 0.84738(7)
O6 O 0.39957(3) 0.08320(13) 0.78088(7)
N1 N 0.35618(4) 0.04774(15) 0.75218(8)
C1 C 0.38517(5) 0.5339(2) 0.48916(10)
H1 H 0.3807 0.4526 0.4500
C2 C 0.39039(5) 0.6871(2) 0.46100(12)
H2 H 0.3887 0.7092 0.4030
C3 C 0.39807(5) 0.8080(2) 0.51900(12)
H3 H 0.4018 0.9108 0.4997
C4 C 0.40026(5) 0.7768(2) 0.60516(12)
H4 H 0.4059 0.8582 0.6437
C5 C 0.39409(5) 0.62379(19) 0.63453(11)
H5 H 0.3950 0.6033 0.6927
C6 C 0.38654(5) 0.50080(18) 0.57668(10)
C7 C 0.38180(5) 0.33510(18) 0.60429(10)
C8 C 0.37238(5) 0.29849(18) 0.69788(9)
H6 H 0.3606 0.3923 0.7257
C9 C 0.41244(5) 0.23496(17) 0.74956(10)
C10 C 0.45446(5) 0.21379(18) 0.69867(10)
C11 C 0.51363(6) 0.3607(2) 0.64467(12)
H7 H 0.5357 0.3194 0.6837
H8 H 0.5207 0.4678 0.6307
H9 H 0.5127 0.2980 0.5937
C12 C 0.42445(5) 0.33763(19) 0.82764(10)
C13 C 0.47548(6) 0.3566(2) 0.94303(10)
H10 H 0.4795 0.4657 0.9288
H11 H 0.5032 0.3117 0.9613
H12 H 0.4550 0.3482 0.9881
C14 C 0.34072(5) 0.16099(18) 0.70567(9)
C15 C 0.29591(5) 0.16265(18) 0.66750(10)
C16 C 0.27999(5) 0.30464(19) 0.63598(10)
H13 H 0.2982 0.3928 0.6388
C17 C 0.23751(5) 0.3208(2) 0.59996(11)
H14 H 0.2280 0.4182 0.5792
C18 C 0.21020(5) 0.1931(2) 0.59554(11)
H15 H 0.1821 0.2036 0.5712
C19 C 0.22431(5) 0.0447(2) 0.62774(10)
C20 C 0.19511(5) -0.0858(2) 0.62623(11)
H16 H 0.1669 -0.0738 0.6025
C21 C 0.20759(6) -0.2284(2) 0.65894(12)
H17 H 0.1878 -0.3119 0.6591
C22 C 0.25051(6) -0.2487(2) 0.69237(11)
H18 H 0.2591 -0.3468 0.7136
C23 C 0.27990(5) -0.12611(19) 0.69418(10)
H19 H 0.3083 -0.1427 0.7157
C24 C 0.26765(5) 0.02551(19) 0.66380(10)
O7 O 0.11460(4) 0.27239(13) 0.94219(7)
O8 O 0.03276(4) 0.42642(13) 0.82031(7)
O9 O 0.02765(3) 0.16134(13) 0.81124(7)
O10 O 0.08996(4) 0.05281(14) 0.64920(7)
O11 O 0.04234(3) 0.25340(13) 0.62764(7)
O12 O 0.10440(3) 0.42387(12) 0.72018(7)
N2 N 0.14825(4) 0.44766(16) 0.75199(8)
C25 C 0.11270(5) -0.0373(2) 1.00777(10)
H20 H 0.1179 0.0434 1.0470
C26 C 0.10656(5) -0.1901(2) 1.03585(11)
H21 H 0.1080 -0.2124 1.0939
C27 C 0.09820(5) -0.3104(2) 0.97760(12)
H22 H 0.0942 -0.4131 0.9967
C28 C 0.09576(5) -0.27807(19) 0.89122(12)
H23 H 0.0895 -0.3586 0.8525
C29 C 0.10268(5) -0.12571(19) 0.86236(10)
H24 H 0.1017 -0.1046 0.8042
C30 C 0.11117(5) -0.00383(18) 0.92044(10)
C31 C 0.11712(5) 0.16111(18) 0.89310(10)
C32 C 0.12683(5) 0.19748(18) 0.79951(9)
H25 H 0.1371 0.1024 0.7706
C33 C 0.08842(5) 0.27366(17) 0.74848(9)
C34 C 0.04647(5) 0.30052(18) 0.79864(9)
C35 C -0.01581(6) 0.1623(2) 0.84696(12)
H26 H -0.0174 0.2446 0.8888
H27 H -0.0213 0.0623 0.8733
H28 H -0.0375 0.1806 0.8024
C36 C 0.07452(5) 0.17709(19) 0.66908(10)
C37 C 0.02318(6) 0.1737(2) 0.55371(10)
H29 H 0.0446 0.1667 0.5103
H30 H -0.0019 0.2322 0.5324
H31 H 0.0141 0.0694 0.5695
C38 C 0.16090(5) 0.32728(18) 0.79570(9)
C39 C 0.20492(5) 0.31378(19) 0.83728(9)
C40 C 0.22433(5) 0.16702(19) 0.84032(10)
H32 H 0.2089 0.0805 0.8185
C41 C 0.26702(5) 0.1448(2) 0.87571(10)
H33 H 0.2797 0.0449 0.8761
C42 C 0.28962(5) 0.2703(2) 0.90945(11)
H34 H 0.3180 0.2558 0.9316
C43 C 0.27039(5) 0.4222(2) 0.91121(10)
C44 C 0.29287(6) 0.5507(2) 0.95064(11)
H35 H 0.3212 0.5359 0.9731
C45 C 0.27365(6) 0.6954(2) 0.95624(12)
H36 H 0.2888 0.7784 0.9824
C46 C 0.23098(6) 0.7189(2) 0.92256(11)
H37 H 0.2178 0.8174 0.9275
C47 C 0.20852(5) 0.59882(19) 0.88255(10)
H38 H 0.1805 0.6174 0.8595
C48 C 0.22731(5) 0.44678(19) 0.87562(10)
loop_
_geom_bond_atom_site_label_1
_geom_bond_atom_site_label_2
_geom_bond_site_symmetry_1
_geom_bond_site_symmetry_2
O1 C7 1_555 1_555
O2 C10 1_555 1_555
O3 C10 1_555 1_555
O4 C12 1_555 1_555
O5 C12 1_555 1_555
O6 N1 1_555 1_555
O7 C31 1_555 1_555
O8 C34 1_555 1_555
O9 C34 1_555 1_555
O10 C36 1_555 1_555
O11 C36 1_555 1_555
O12 N2 1_555 1_555
N1 C14 1_555 1_555
N2 C38 1_555 1_555
C1 H1 1_555 1_555
C2 C1 1_555 1_555
H2 C2 1_555 1_555
C3 C2 1_555 1_555
H3 C3 1_555 1_555
C4 C3 1_555 1_555
H4 C4 1_555 1_555
C5 C4 1_555 1_555
H5 C5 1_555 1_555
C6 C1 1_555 1_555
C7 C6 1_555 1_555
C8 C7 1_555 1_555
H6 C8 1_555 1_555
C9 O6 1_555 1_555
C10 C9 1_555 1_555
C11 O2 1_555 1_555
H7 C11 1_555 1_555
H8 C11 1_555 1_555
H9 C11 1_555 1_555
C12 C9 1_555 1_555
C13 O4 1_555 1_555
H10 C13 1_555 1_555
H11 C13 1_555 1_555
H12 C13 1_555 1_555
C14 C8 1_555 1_555
C15 C14 1_555 1_555
C16 C15 1_555 1_555
H13 C16 1_555 1_555
C17 C16 1_555 1_555
H14 C17 1_555 1_555
C18 C17 1_555 1_555
H15 C18 1_555 1_555
C19 C18 1_555 1_555
C20 C19 1_555 1_555
H16 C20 1_555 1_555
C21 C20 1_555 1_555
H17 C21 1_555 1_555
C22 C21 1_555 1_555
H18 C22 1_555 1_555
C23 C22 1_555 1_555
H19 C23 1_555 1_555
C24 C15 1_555 1_555
C25 H20 1_555 1_555
C26 C25 1_555 1_555
H21 C26 1_555 1_555
C27 C26 1_555 1_555
H22 C27 1_555 1_555
C28 C27 1_555 1_555
H23 C28 1_555 1_555
C29 C28 1_555 1_555
H24 C29 1_555 1_555
C30 C25 1_555 1_555
C31 C30 1_555 1_555
C32 C31 1_555 1_555
H25 C32 1_555 1_555
C33 O12 1_555 1_555
C34 C33 1_555 1_555
C35 O9 1_555 1_555
H26 C35 1_555 1_555
H27 C35 1_555 1_555
H28 C35 1_555 1_555
C36 C33 1_555 1_555
C37 O11 1_555 1_555
H29 C37 1_555 1_555
H30 C37 1_555 1_555
H31 C37 1_555 1_555
C38 C32 1_555 1_555
C39 C38 1_555 1_555
C40 C39 1_555 1_555
H32 C40 1_555 1_555
C41 C40 1_555 1_555
H33 C41 1_555 1_555
C42 C41 1_555 1_555
H34 C42 1_555 1_555
C43 C42 1_555 1_555
C44 C43 1_555 1_555
H35 C44 1_555 1_555
C45 C44 1_555 1_555
H36 C45 1_555 1_555
C46 C45 1_555 1_555
H37 C46 1_555 1_555
C47 C46 1_555 1_555
H38 C47 1_555 1_555
C48 C39 1_555 1_555
C5 C6 1_555 1_555
C8 C9 1_555 1_555
C19 C24 1_555 1_555
C23 C24 1_555 1_555
C29 C30 1_555 1_555
C32 C33 1_555 1_555
C43 C48 1_555 1_555
C47 C48 1_555 1_555

#END
