
#######################################################################
#
#                 Cambridge Crystallographic Data Centre
#                                CCDC 
#
#######################################################################
#
# If this CIF has been generated from an entry in the Cambridge 
# Structural Database, then it will include bibliographic, chemical, 
# crystal, experimental, refinement or atomic coordinate data resulting 
# from the CCDC's data processing and validation procedures.
#
#######################################################################

data_WUCXUN
_chemical_formula_moiety         'C16 H14 N2 O1'
_chemical_name_systematic        N-(2,6-Dimethylphenyl)-N-benzoylcyanamide
_symmetry_cell_setting           orthorhombic
_symmetry_space_group_name_H-M   'P b c a'
_symmetry_Int_Tables_number      61
_space_group_name_Hall           '-P 2ac 2ab'
loop_
_symmetry_equiv_pos_site_id
_symmetry_equiv_pos_as_xyz
1 x,y,z
2 1/2+x,y,1/2-z
3 x,1/2-y,1/2+z
4 1/2-x,1/2+y,z
5 -x,-y,-z
6 1/2-x,-y,1/2+z
7 -x,1/2+y,1/2-z
8 1/2+x,1/2-y,-z
_cell_length_a                   7.570(2)
_cell_length_b                   15.073(6)
_cell_length_c                   24.035(6)
_cell_angle_alpha                90
_cell_angle_beta                 90
_cell_angle_gamma                90
_cell_volume                     2742.46
_exptl_crystal_colour            colorless
_exptl_crystal_description       block
_cell_formula_units_Z            8
loop_
_atom_site_label
_atom_site_type_symbol
_atom_site_fract_x
_atom_site_fract_y
_atom_site_fract_z
O1 O 0.1548(4) 0.9507(2) 0.04514(13)
N1 N 0.0294(4) 0.9040(2) 0.12415(15)
N2 N -0.1850(7) 0.8085(3) 0.17530(19)
C1 C 0.0753(6) 0.9872(3) 0.15208(17)
C2 C -0.0377(6) 1.0587(3) 0.1492(2)
C3 C 0.0163(8) 1.1371(3) 0.1763(2)
H1 H -0.0550 1.1874 0.1754
C4 C 0.1745(10) 1.1388(4) 0.2039(2)
H2 H 0.2096 1.1906 0.2218
C5 C 0.2811(7) 1.0665(4) 0.2059(2)
H3 H 0.3878 1.0698 0.2249
C6 C 0.2346(6) 0.9892(3) 0.18053(18)
C7 C -0.2121(7) 1.0528(4) 0.1196(2)
H4 H -0.2720 1.1088 0.1221
H5 H -0.2832 1.0076 0.1366
H6 H -0.1926 1.0383 0.0812
C8 C 0.3544(7) 0.9087(3) 0.1837(2)
H7 H 0.3021 0.8605 0.1634
H8 H 0.3698 0.8918 0.2218
H9 H 0.4672 0.9230 0.1677
C9 C 0.0881(6) 0.8890(3) 0.06900(19)
C10 C 0.0741(5) 0.7987(3) 0.04598(18)
C11 C 0.1050(6) 0.7233(3) 0.0773(2)
H10 H 0.1230 0.7279 0.1155
C12 C 0.1091(6) 0.6416(3) 0.0520(3)
H11 H 0.1310 0.5910 0.0731
C13 C 0.0810(7) 0.6342(4) -0.0041(3)
H12 H 0.0832 0.5786 -0.0209
C14 C 0.0497(7) 0.7081(4) -0.0353(2)
H13 H 0.0299 0.7027 -0.0734
C15 C 0.0472(6) 0.7907(3) -0.0108(2)
H14 H 0.0275 0.8410 -0.0324
C16 C -0.0865(7) 0.8503(3) 0.1503(2)
loop_
_geom_bond_atom_site_label_1
_geom_bond_atom_site_label_2
_geom_bond_site_symmetry_1
_geom_bond_site_symmetry_2
O1 C9 1_555 1_555
N1 C1 1_555 1_555
N2 C16 1_555 1_555
C1 C2 1_555 1_555
C2 C3 1_555 1_555
C3 H1 1_555 1_555
C4 C3 1_555 1_555
H2 C4 1_555 1_555
C5 C4 1_555 1_555
H3 C5 1_555 1_555
C6 C1 1_555 1_555
C7 C2 1_555 1_555
H4 C7 1_555 1_555
H5 C7 1_555 1_555
H6 C7 1_555 1_555
C8 C6 1_555 1_555
H7 C8 1_555 1_555
H8 C8 1_555 1_555
H9 C8 1_555 1_555
C9 N1 1_555 1_555
C10 C9 1_555 1_555
C11 C10 1_555 1_555
H10 C11 1_555 1_555
C12 C11 1_555 1_555
H11 C12 1_555 1_555
C13 C12 1_555 1_555
H12 C13 1_555 1_555
C14 C13 1_555 1_555
H13 C14 1_555 1_555
C15 C10 1_555 1_555
H14 C15 1_555 1_555
C16 N1 1_555 1_555
C5 C6 1_555 1_555
C14 C15 1_555 1_555

#END
