
#######################################################################
#
#                 Cambridge Crystallographic Data Centre
#                                CCDC 
#
#######################################################################
#
# If this CIF has been generated from an entry in the Cambridge 
# Structural Database, then it will include bibliographic, chemical, 
# crystal, experimental, refinement or atomic coordinate data resulting 
# from the CCDC's data processing and validation procedures.
#
#######################################################################

data_WUCYOK
_chemical_formula_moiety         'C12 H8 Br1 Cl1 O3'
_chemical_name_systematic        
'methyl 6-bromo-1-chloro-2-oxo-1,2-dihydronaphthalene-1-carboxylate'
_symmetry_cell_setting           orthorhombic
_symmetry_space_group_name_H-M   'P 21 21 21'
_symmetry_Int_Tables_number      19
_space_group_name_Hall           'P 2ac 2ab'
loop_
_symmetry_equiv_pos_site_id
_symmetry_equiv_pos_as_xyz
1 x,y,z
2 1/2-x,-y,1/2+z
3 -x,1/2+y,1/2-z
4 1/2+x,1/2-y,-z
_cell_length_a                   7.4500(9)
_cell_length_b                   7.7960(9)
_cell_length_c                   21.193(3)
_cell_angle_alpha                90
_cell_angle_beta                 90
_cell_angle_gamma                90
_cell_volume                     1230.89
_exptl_crystal_colour            colorless
_exptl_crystal_description       prismatic
_cell_formula_units_Z            4
loop_
_atom_site_label
_atom_site_type_symbol
_atom_site_fract_x
_atom_site_fract_y
_atom_site_fract_z
Br1 Br 1.14929(7) 0.45076(8) 0.16199(3)
Cl1 Cl 0.67904(17) 1.13674(12) 0.03046(4)
O1 O 0.2886(4) 1.0313(4) 0.05586(15)
O2 O 0.5798(5) 1.2536(4) 0.15692(14)
O3 O 0.4551(4) 1.0110(3) 0.18889(10)
C1 C 0.4105(5) 0.9314(5) 0.06447(15)
C2 C 0.5903(5) 0.9998(4) 0.09073(15)
C3 C 0.7293(5) 0.8667(4) 0.10815(15)
C4 C 0.8865(5) 0.9119(5) 0.1374(2)
H1 H 0.9080 1.0266 0.1469
C5 C 1.0127(5) 0.7906(5) 0.1530(2)
H2 H 1.1193 0.8229 0.1725
C6 C 0.9800(5) 0.6210(5) 0.13957(17)
C7 C 0.8259(5) 0.5722(4) 0.10962(15)
H3 H 0.8071 0.4575 0.0996
C8 C 0.6977(4) 0.6936(4) 0.09421(12)
C9 C 0.5303(5) 0.6421(4) 0.06409(14)
H4 H 0.5149 0.5269 0.0540
C10 C 0.3984(5) 0.7505(5) 0.05031(15)
H5 H 0.2953 0.7087 0.0310
C11 C 0.5443(5) 1.1081(4) 0.14834(15)
C12 C 0.3989(6) 1.0913(6) 0.24785(16)
H6 H 0.5027 1.1162 0.2731
H7 H 0.3212 1.0147 0.2704
H8 H 0.3359 1.1959 0.2388
loop_
_geom_bond_atom_site_label_1
_geom_bond_atom_site_label_2
_geom_bond_site_symmetry_1
_geom_bond_site_symmetry_2
Br1 C6 1_555 1_555
Cl1 C2 1_555 1_555
O1 C1 1_555 1_555
O2 C11 1_555 1_555
O3 C11 1_555 1_555
C1 C2 1_555 1_555
C2 C3 1_555 1_555
C3 C4 1_555 1_555
C4 H1 1_555 1_555
C5 C4 1_555 1_555
H2 C5 1_555 1_555
C6 C5 1_555 1_555
C7 C6 1_555 1_555
H3 C7 1_555 1_555
C8 C3 1_555 1_555
C9 C8 1_555 1_555
H4 C9 1_555 1_555
C10 C1 1_555 1_555
H5 C10 1_555 1_555
C11 C2 1_555 1_555
C12 O3 1_555 1_555
H6 C12 1_555 1_555
H7 C12 1_555 1_555
H8 C12 1_555 1_555
C7 C8 1_555 1_555
C9 C10 1_555 1_555

#END
