
#######################################################################
#
#                 Cambridge Crystallographic Data Centre
#                                CCDC 
#
#######################################################################
#
# If this CIF has been generated from an entry in the Cambridge 
# Structural Database, then it will include bibliographic, chemical, 
# crystal, experimental, refinement or atomic coordinate data resulting 
# from the CCDC's data processing and validation procedures.
#
#######################################################################

data_WUDBON
_chemical_formula_moiety         'C66 H96 Li4 O7 Si4,C4 H8 O1'
_chemical_name_systematic        
'bis(\m~3~-\h^5^-3,4-Diphenyl-2,5-bis(trimethylsilyl)-cyclopentadienyl-1-olato)-pentakis(tetrahydrofuran)-tetra-lithium tetrahydrofuran solvate'
_symmetry_cell_setting           triclinic
_symmetry_space_group_name_H-M   'P -1'
_symmetry_Int_Tables_number      2
_space_group_name_Hall           '-P 1'
loop_
_symmetry_equiv_pos_site_id
_symmetry_equiv_pos_as_xyz
1 x,y,z
2 -x,-y,-z
_cell_length_a                   14.971(3)
_cell_length_b                   16.180(3)
_cell_length_c                   17.695(4)
_cell_angle_alpha                116.37(3)
_cell_angle_beta                 100.83(3)
_cell_angle_gamma                98.85(3)
_cell_volume                     3632.13
_exptl_crystal_colour            colorless
_exptl_crystal_description       block
_cell_formula_units_Z            2
_exptl_crystal_recrystallization_method hexane/thf
loop_
_atom_site_label
_atom_site_type_symbol
_atom_site_fract_x
_atom_site_fract_y
_atom_site_fract_z
C1 C 0.26788(18) 0.2539(2) 0.49603(19)
C2 C 0.25591(18) 0.27125(18) 0.42267(17)
C3 C 0.20648(18) 0.17845(19) 0.34459(18)
C4 C 0.19336(18) 0.10770(19) 0.37040(18)
C5 C 0.23548(19) 0.15168(19) 0.46485(18)
C6 C 0.3385(2) 0.49125(19) 0.54186(18)
H1 H 0.2949 0.4934 0.5773
H2 H 0.3520 0.5514 0.5400
H3 H 0.3974 0.4825 0.5684
C7 C 0.1728(2) 0.4115(2) 0.3782(2)
H4 H 0.1439 0.3607 0.3169
H5 H 0.1890 0.4735 0.3799
H6 H 0.1282 0.4124 0.4124
C8 C 0.3719(2) 0.3997(2) 0.3665(2)
H7 H 0.4173 0.3637 0.3722
H8 H 0.4053 0.4673 0.3919
H9 H 0.3390 0.3738 0.3040
C9 C 0.2857(2) -0.0220(2) 0.4734(2)
H10 H 0.2321 -0.0650 0.4212
H11 H 0.2962 -0.0506 0.5117
H12 H 0.3425 -0.0118 0.4551
C10 C 0.3667(2) 0.1723(2) 0.6324(2)
H13 H 0.4186 0.1924 0.6125
H14 H 0.3853 0.1350 0.6607
H15 H 0.3523 0.2290 0.6747
C11 C 0.1601(2) 0.0764(2) 0.5813(2)
H16 H 0.1405 0.1355 0.6080
H17 H 0.1813 0.0581 0.6260
H18 H 0.1067 0.0251 0.5337
C12 C 0.1641(2) 0.16432(19) 0.25528(18)
C13 C 0.2174(2) 0.18886(19) 0.20784(19)
H19 H 0.2838 0.2146 0.2327
C14 C 0.1760(2) 0.1767(2) 0.1257(2)
H20 H 0.2140 0.1949 0.0953
C15 C 0.0794(2) 0.1382(2) 0.0872(2)
H21 H 0.0508 0.1290 0.0304
C16 C 0.0252(2) 0.1134(2) 0.1331(2)
H22 H -0.0411 0.0867 0.1074
C17 C 0.0665(2) 0.1271(2) 0.2160(2)
H23 H 0.0279 0.1108 0.2468
C18 C 0.13941(19) 0.0073(2) 0.31108(18)
C19 C 0.1435(2) -0.0450(2) 0.22494(19)
H24 H 0.1851 -0.0156 0.2041
C20 C 0.0892(2) -0.1379(2) 0.1692(2)
H25 H 0.0927 -0.1704 0.1104
C21 C 0.0296(2) -0.1843(2) 0.1977(2)
H26 H -0.0066 -0.2489 0.1599
C22 C 0.0241(2) -0.1339(2) 0.2830(2)
H27 H -0.0169 -0.1641 0.3038
C23 C 0.0775(2) -0.0405(2) 0.3379(2)
H28 H 0.0720 -0.0075 0.3959
C24 C 0.24807(18) 0.5434(2) 0.78515(18)
C25 C 0.26534(19) 0.54184(19) 0.86761(19)
C26 C 0.27126(18) 0.6364(2) 0.93419(18)
C27 C 0.25583(19) 0.6933(2) 0.89499(18)
C28 C 0.23683(19) 0.63421(19) 0.79949(18)
C29 C 0.1294(2) 0.7614(2) 0.7546(2)
H29 H 0.0794 0.7383 0.7747
H30 H 0.1013 0.7721 0.7062
H31 H 0.1723 0.8217 0.8035
C30 C 0.2964(2) 0.7262(2) 0.6872(2)
H32 H 0.3369 0.7844 0.7402
H33 H 0.2703 0.7426 0.6422
H34 H 0.3337 0.6808 0.6646
C31 C 0.1142(2) 0.5649(2) 0.61172(19)
H35 H 0.1402 0.5095 0.5959
H36 H 0.1062 0.5808 0.5639
H37 H 0.0528 0.5496 0.6213
C32 C 0.1899(2) 0.3225(2) 0.7756(2)
H38 H 0.1307 0.3341 0.7536
H39 H 0.1760 0.2698 0.7886
H40 H 0.2237 0.3054 0.7307
C33 C 0.3842(2) 0.4125(2) 0.8998(3)
H41 H 0.4105 0.4061 0.8514
H42 H 0.3787 0.3537 0.9040
H43 H 0.4260 0.4668 0.9552
C34 C 0.2128(3) 0.4367(2) 0.9678(2)
H44 H 0.2549 0.4875 1.0251
H45 H 0.2055 0.3749 0.9667
H46 H 0.1510 0.4495 0.9584
C35 C 0.3000(2) 0.67132(19) 1.03086(18)
C36 C 0.2409(2) 0.7038(2) 1.0837(2)
H47 H 0.1795 0.7039 1.0572
C37 C 0.2687(2) 0.7355(2) 1.1726(2)
H48 H 0.2270 0.7574 1.2069
C38 C 0.3578(3) 0.7354(2) 1.2124(2)
H49 H 0.3772 0.7578 1.2741
C39 C 0.4180(2) 0.7032(2) 1.1632(2)
H50 H 0.4789 0.7029 1.1905
C40 C 0.3894(2) 0.6710(2) 1.0726(2)
H51 H 0.4312 0.6483 1.0387
C41 C 0.2695(2) 0.7980(2) 0.93955(18)
C42 C 0.2067(2) 0.8431(2) 0.98290(19)
H52 H 0.1537 0.8052 0.9859
C43 C 0.2203(2) 0.9403(2) 1.02086(19)
H53 H 0.1773 0.9688 1.0504
C44 C 0.2958(2) 0.9974(2) 1.0166(2)
H54 H 0.3041 1.0646 1.0419
C45 C 0.3594(2) 0.9558(2) 0.9751(2)
H55 H 0.4118 0.9945 0.9722
C46 C 0.3463(2) 0.8570(2) 0.9375(2)
H56 H 0.3907 0.8292 0.9098
C47 C 0.4750(2) 0.6287(2) 0.7871(2)
H57 H 0.4974 0.6546 0.7507
H58 H 0.4103 0.6352 0.7870
C48 C 0.5364(4) 0.6800(3) 0.8749(3)
H59 H 0.5793 0.7390 0.8843
H60 H 0.4992 0.6985 0.9176
C49 C 0.5894(4) 0.6185(3) 0.8865(3)
H61 H 0.5795 0.6095 0.9365
H62 H 0.6576 0.6471 0.8997
C50 C 0.5579(2) 0.5273(3) 0.8061(3)
H63 H 0.6078 0.5179 0.7758
H64 H 0.5429 0.4742 0.8193
C51 C -0.0146(3) 0.3184(3) 0.5898(3)
H65 H -0.0186 0.3835 0.6021
H66 H -0.0057 0.3155 0.6453
C52 C -0.0992(3) 0.2472(5) 0.5240(4)
H67 H -0.1424 0.2784 0.5034
H68 H -0.1324 0.2128 0.5494
C53 C -0.0716(3) 0.1803(3) 0.4508(3)
H69 H -0.1153 0.1644 0.3938
H70 H -0.0717 0.1205 0.4534
C54 C 0.0236(3) 0.2301(3) 0.4610(2)
H71 H 0.0620 0.1843 0.4410
H72 H 0.0215 0.2645 0.4266
C55 C -0.0564(3) 0.4689(3) 0.8378(3)
H73 H -0.0536 0.4711 0.8950
H74 H -0.0402 0.4104 0.7990
C56 C -0.0470(3) 0.6226(3) 0.8614(3)
H75 H -0.0355 0.6527 0.8249
H76 H -0.0267 0.6733 0.9239
C57 C -0.1500(3) 0.5729(3) 0.8343(3)
H77 H -0.1750 0.5931 0.8859
H78 H -0.1872 0.5863 0.7906
C58 C -0.1525(3) 0.4713(3) 0.7954(3)
H79 H -0.1648 0.4420 0.7308
H80 H -0.2025 0.4361 0.8082
C59 C 0.5161(2) 0.3276(2) 0.5434(2)
H81 H 0.4710 0.3456 0.5783
H82 H 0.5219 0.3673 0.5142
C60 C 0.6100(2) 0.3425(3) 0.6015(3)
H83 H 0.6035 0.3407 0.6554
H84 H 0.6532 0.4049 0.6188
C61 C 0.5589(3) 0.1841(3) 0.4891(3)
H85 H 0.5670 0.1435 0.4308
H86 H 0.5434 0.1434 0.5157
C62 C 0.6459(3) 0.2612(3) 0.5466(3)
H87 H 0.6819 0.2782 0.5116
H88 H 0.6868 0.2425 0.5837
C63 C 0.4491(2) 0.1154(2) 0.2573(2)
H89 H 0.4940 0.1784 0.3006
H90 H 0.4073 0.1231 0.2117
C64 C 0.5018(3) 0.0422(2) 0.2155(2)
H91 H 0.5098 0.0387 0.1599
H92 H 0.5646 0.0574 0.2561
C65 C 0.3926(3) -0.0196(2) 0.2696(3)
H93 H 0.3267 -0.0596 0.2473
H94 H 0.4271 -0.0275 0.3185
C66 C 0.4383(3) -0.0489(3) 0.1985(3)
H95 H 0.3906 -0.0799 0.1402
H96 H 0.4751 -0.0940 0.2007
Li1 Li 0.3544(3) 0.1664(3) 0.3990(3)
Li2 Li 0.1919(4) 0.3531(4) 0.6133(4)
Li3 Li 0.1322(3) 0.5771(4) 0.8466(3)
Li4 Li 0.3540(3) 0.4404(3) 0.6774(3)
O1 O 0.30078(12) 0.32145(12) 0.58213(12)
O2 O 0.24563(13) 0.46977(13) 0.70704(12)
O3 O 0.47473(14) 0.52960(14) 0.75157(14)
O4 O 0.06188(15) 0.29611(17) 0.55350(15)
O5 O 0.00554(14) 0.55267(16) 0.84963(16)
O6 O 0.48420(14) 0.22874(15) 0.47956(15)
O7 O 0.39445(14) 0.07955(14) 0.30007(14)
Si1 Si 0.28318(6) 0.38846(6) 0.42674(6)
Si2 Si 0.25955(6) 0.09682(6) 0.53541(6)
Si3 Si 0.26487(6) 0.43320(6) 0.87826(6)
Si4 Si 0.19703(6) 0.67004(6) 0.71536(6)
C67 C 0.7261(3) 0.9543(4) 0.1997(3)
H97 H 0.7099 1.0096 0.1957
H98 H 0.7180 0.9577 0.2551
C68 C 0.7211(3) 0.8288(2) 0.0650(2)
H99 H 0.7131 0.7594 0.0426
H100 H 0.7012 0.8391 0.0139
C69 C 0.8120(3) 0.8764(4) 0.1084(3)
H101 H 0.8391 0.9031 0.0744
H102 H 0.8474 0.8313 0.1134
C70 C 0.8231(3) 0.9540(3) 0.1963(3)
H103 H 0.8581 1.0160 0.2046
H104 H 0.8571 0.9418 0.2423
O8 O 0.6647(3) 0.8605(3) 0.1205(4)
loop_
_geom_bond_atom_site_label_1
_geom_bond_atom_site_label_2
_geom_bond_site_symmetry_1
_geom_bond_site_symmetry_2
C1 C2 1_555 1_555
C2 C3 1_555 1_555
C3 C4 1_555 1_555
C4 C5 1_555 1_555
C5 C1 1_555 1_555
C6 H1 1_555 1_555
H2 C6 1_555 1_555
H3 C6 1_555 1_555
C7 H4 1_555 1_555
H5 C7 1_555 1_555
H6 C7 1_555 1_555
C8 H7 1_555 1_555
H8 C8 1_555 1_555
H9 C8 1_555 1_555
C9 H10 1_555 1_555
H11 C9 1_555 1_555
H12 C9 1_555 1_555
C10 H13 1_555 1_555
H14 C10 1_555 1_555
H15 C10 1_555 1_555
C11 H16 1_555 1_555
H17 C11 1_555 1_555
H18 C11 1_555 1_555
C12 C3 1_555 1_555
C13 C12 1_555 1_555
H19 C13 1_555 1_555
C14 C13 1_555 1_555
H20 C14 1_555 1_555
C15 C14 1_555 1_555
H21 C15 1_555 1_555
C16 C15 1_555 1_555
H22 C16 1_555 1_555
C17 C12 1_555 1_555
H23 C17 1_555 1_555
C18 C4 1_555 1_555
C19 C18 1_555 1_555
H24 C19 1_555 1_555
C20 C19 1_555 1_555
H25 C20 1_555 1_555
C21 C20 1_555 1_555
H26 C21 1_555 1_555
C22 C21 1_555 1_555
H27 C22 1_555 1_555
C23 C18 1_555 1_555
H28 C23 1_555 1_555
C24 C25 1_555 1_555
C25 C26 1_555 1_555
C26 C27 1_555 1_555
C27 C28 1_555 1_555
C28 C24 1_555 1_555
C29 H29 1_555 1_555
H30 C29 1_555 1_555
H31 C29 1_555 1_555
C30 H32 1_555 1_555
H33 C30 1_555 1_555
H34 C30 1_555 1_555
C31 H35 1_555 1_555
H36 C31 1_555 1_555
H37 C31 1_555 1_555
C32 H38 1_555 1_555
H39 C32 1_555 1_555
H40 C32 1_555 1_555
C33 H41 1_555 1_555
H42 C33 1_555 1_555
H43 C33 1_555 1_555
C34 H44 1_555 1_555
H45 C34 1_555 1_555
H46 C34 1_555 1_555
C35 C26 1_555 1_555
C36 C35 1_555 1_555
H47 C36 1_555 1_555
C37 C36 1_555 1_555
H48 C37 1_555 1_555
C38 C37 1_555 1_555
H49 C38 1_555 1_555
C39 C38 1_555 1_555
H50 C39 1_555 1_555
C40 C35 1_555 1_555
H51 C40 1_555 1_555
C41 C27 1_555 1_555
C42 C41 1_555 1_555
H52 C42 1_555 1_555
C43 C42 1_555 1_555
H53 C43 1_555 1_555
C44 C43 1_555 1_555
H54 C44 1_555 1_555
C45 C44 1_555 1_555
H55 C45 1_555 1_555
C46 C41 1_555 1_555
H56 C46 1_555 1_555
C47 H57 1_555 1_555
H58 C47 1_555 1_555
C48 C47 1_555 1_555
H59 C48 1_555 1_555
H60 C48 1_555 1_555
C49 C48 1_555 1_555
H61 C49 1_555 1_555
H62 C49 1_555 1_555
C50 C49 1_555 1_555
H63 C50 1_555 1_555
H64 C50 1_555 1_555
C51 H65 1_555 1_555
H66 C51 1_555 1_555
C52 C51 1_555 1_555
H67 C52 1_555 1_555
H68 C52 1_555 1_555
C53 C52 1_555 1_555
H69 C53 1_555 1_555
H70 C53 1_555 1_555
C54 C53 1_555 1_555
H71 C54 1_555 1_555
H72 C54 1_555 1_555
C55 H73 1_555 1_555
H74 C55 1_555 1_555
C56 H75 1_555 1_555
H76 C56 1_555 1_555
C57 C56 1_555 1_555
H77 C57 1_555 1_555
H78 C57 1_555 1_555
C58 C55 1_555 1_555
H79 C58 1_555 1_555
H80 C58 1_555 1_555
C59 H81 1_555 1_555
H82 C59 1_555 1_555
C60 C59 1_555 1_555
H83 C60 1_555 1_555
H84 C60 1_555 1_555
C61 H85 1_555 1_555
H86 C61 1_555 1_555
C62 C60 1_555 1_555
H87 C62 1_555 1_555
H88 C62 1_555 1_555
C63 H89 1_555 1_555
H90 C63 1_555 1_555
C64 C63 1_555 1_555
H91 C64 1_555 1_555
H92 C64 1_555 1_555
C65 H93 1_555 1_555
H94 C65 1_555 1_555
C66 C64 1_555 1_555
H95 C66 1_555 1_555
H96 C66 1_555 1_555
C67 H97 1_555 1_555
H98 C67 1_555 1_555
C68 H99 1_555 1_555
H100 C68 1_555 1_555
C69 C68 1_555 1_555
H101 C69 1_555 1_555
H102 C69 1_555 1_555
C70 C67 1_555 1_555
H103 C70 1_555 1_555
H104 C70 1_555 1_555
Li1 C1 1_555 1_555
Li2 O1 1_555 1_555
Li3 C24 1_555 1_555
Li4 O1 1_555 1_555
O1 C1 1_555 1_555
O2 C24 1_555 1_555
O3 C47 1_555 1_555
O4 C51 1_555 1_555
O5 C55 1_555 1_555
O6 C59 1_555 1_555
O7 C63 1_555 1_555
O8 C67 1_555 1_555
Si1 C2 1_555 1_555
Si2 C5 1_555 1_555
Si3 C25 1_555 1_555
Si4 C28 1_555 1_555
C2 Li1 1_555 1_555
C3 Li1 1_555 1_555
C4 Li1 1_555 1_555
C5 Li1 1_555 1_555
C6 Si1 1_555 1_555
C7 Si1 1_555 1_555
C8 Si1 1_555 1_555
C9 Si2 1_555 1_555
C10 Si2 1_555 1_555
C11 Si2 1_555 1_555
C16 C17 1_555 1_555
C22 C23 1_555 1_555
C25 Li3 1_555 1_555
C26 Li3 1_555 1_555
C27 Li3 1_555 1_555
C28 Li3 1_555 1_555
C29 Si4 1_555 1_555
C30 Si4 1_555 1_555
C31 Si4 1_555 1_555
C32 Si3 1_555 1_555
C33 Si3 1_555 1_555
C34 Si3 1_555 1_555
C39 C40 1_555 1_555
C45 C46 1_555 1_555
C50 O3 1_555 1_555
C54 O4 1_555 1_555
C56 O5 1_555 1_555
C57 C58 1_555 1_555
C61 C62 1_555 1_555
C61 O6 1_555 1_555
C65 C66 1_555 1_555
C65 O7 1_555 1_555
C68 O8 1_555 1_555
C69 C70 1_555 1_555
Li1 O6 1_555 1_555
Li1 O7 1_555 1_555
Li2 O2 1_555 1_555
Li2 O4 1_555 1_555
Li3 O5 1_555 1_555
Li4 O2 1_555 1_555
Li4 O3 1_555 1_555

#END
