
#######################################################################
#
#                 Cambridge Crystallographic Data Centre
#                                CCDC 
#
#######################################################################
#
# If this CIF has been generated from an entry in the Cambridge 
# Structural Database, then it will include bibliographic, chemical, 
# crystal, experimental, refinement or atomic coordinate data resulting 
# from the CCDC's data processing and validation procedures.
#
#######################################################################

data_WUDCUU
_chemical_formula_moiety         'C34 H46 Si3'
_chemical_name_systematic        
1,1-Dimethyl-3,4-diphenyl-2,5-bis((triethylsilyl)ethynyl)-1H-silole
_symmetry_cell_setting           monoclinic
_symmetry_space_group_name_H-M   'C 2/c'
_symmetry_Int_Tables_number      15
_space_group_name_Hall           '-C 2yn'
loop_
_symmetry_equiv_pos_site_id
_symmetry_equiv_pos_as_xyz
1 x,y,z
2 -x,y,1/2-z
3 1/2+x,1/2+y,z
4 1/2-x,1/2+y,1/2-z
5 -x,-y,-z
6 x,-y,1/2+z
7 1/2-x,1/2-y,-z
8 1/2+x,1/2-y,1/2+z
_cell_length_a                   16.3962(3)
_cell_length_b                   22.2017(5)
_cell_length_c                   9.3919(2)
_cell_angle_alpha                90
_cell_angle_beta                 96.297(2)
_cell_angle_gamma                90
_cell_volume                     3398.25
_exptl_crystal_colour            yellow
_exptl_crystal_description       needle
_cell_formula_units_Z            4
loop_
_atom_site_label
_atom_site_type_symbol
_atom_site_fract_x
_atom_site_fract_y
_atom_site_fract_z
Si1 Si 0.5000 0.14328(4) 0.2500
Si2 Si 0.84466(5) 0.12409(5) 0.40640(12)
C1 C 0.57964(13) 0.08396(11) 0.2960(3)
C2 C 0.54502(13) 0.02857(10) 0.2754(2)
C3 C 0.66442(14) 0.09574(11) 0.3313(3)
C4 C 0.73530(15) 0.11035(13) 0.3597(3)
C5 C 0.47611(17) 0.19014(13) 0.4033(3)
H1 H 0.4262 0.2135 0.3756
H2 H 0.5219 0.2176 0.4308
H3 H 0.4676 0.1640 0.4845
C6 C 0.59221(13) -0.02859(11) 0.2985(3)
C7 C 0.58797(15) -0.07300(12) 0.1930(3)
H4 H 0.5538 -0.0673 0.1057
C8 C 0.63343(17) -0.12532(13) 0.2151(3)
H5 H 0.6306 -0.1554 0.1428
C9 C 0.68283(17) -0.13376(13) 0.3418(3)
H6 H 0.7141 -0.1697 0.3564
C10 C 0.68732(16) -0.09069(13) 0.4471(3)
H7 H 0.7206 -0.0970 0.5351
C11 C 0.64256(15) -0.03752(12) 0.4238(3)
H8 H 0.6469 -0.0071 0.4953
C12 C 0.9042(4) 0.0588(3) 0.3608(7)
C13 C 0.8793(5) -0.0006(4) 0.4229(11)
C14 C 0.8594(6) 0.1358(5) 0.6092(11)
C15 C 0.8324(12) 0.1968(8) 0.645(2)
C16 C 0.8770(3) 0.1940(3) 0.3017(7)
C17 C 0.8682(6) 0.1848(5) 0.1391(10)
Si2A Si 0.15534(5) 0.12409(5) 0.09360(12)
C1A C 0.42036(13) 0.08396(11) 0.2040(3)
C2A C 0.45498(13) 0.02857(10) 0.2246(2)
C3A C 0.33558(14) 0.09574(11) 0.1687(3)
C4A C 0.26470(15) 0.11035(13) 0.1403(3)
C5A C 0.52389(17) 0.19014(13) 0.0967(3)
H1A H 0.5738 0.2135 0.1244
H2A H 0.4781 0.2176 0.0692
H3A H 0.5324 0.1640 0.0155
C6A C 0.40779(13) -0.02859(11) 0.2015(3)
C7A C 0.41203(15) -0.07300(12) 0.3070(3)
H4A H 0.4462 -0.0673 0.3943
C8A C 0.36657(17) -0.12532(13) 0.2849(3)
H5A H 0.3694 -0.1554 0.3572
C9A C 0.31717(17) -0.13376(13) 0.1582(3)
H6A H 0.2859 -0.1697 0.1436
C10A C 0.31268(16) -0.09069(13) 0.0529(3)
H7A H 0.2794 -0.0970 -0.0351
C11A C 0.35744(15) -0.03752(12) 0.0762(3)
H8A H 0.3531 -0.0071 0.0047
C12A C 0.0958(4) 0.0588(3) 0.1392(7)
C13A C 0.1207(5) -0.0006(4) 0.0771(11)
C14A C 0.1406(6) 0.1358(5) -0.1092(11)
C15A C 0.1676(12) 0.1968(8) -0.145(2)
C16A C 0.1230(3) 0.1940(3) 0.1983(7)
C17A C 0.1318(6) 0.1848(5) 0.3609(10)
C18? C 0.8862(11) 0.0366(8) 0.4823(18)
C19? C 0.8777(9) -0.0101(7) 0.3614(17)
C20? C 0.8569(5) 0.1628(5) 0.5934(9)
C21? C 0.9412(6) 0.1429(5) 0.6737(11)
C22? C 0.8086(10) 0.2208(7) 0.6005(18)
C23? C 0.8842(13) 0.1351(8) 0.195(2)
C24? C 0.8426(10) 0.1968(6) 0.1329(18)
C25? C 0.8601(14) 0.1994(8) 0.203(3)
loop_
_geom_bond_atom_site_label_1
_geom_bond_atom_site_label_2
_geom_bond_site_symmetry_1
_geom_bond_site_symmetry_2
Si1 C1 1_555 1_555
Si2 C4 1_555 1_555
C1 C2 1_555 1_555
C2 C6 1_555 1_555
C3 C1 1_555 1_555
C4 C3 1_555 1_555
C5 Si1 1_555 1_555
H1 C5 1_555 1_555
H2 C5 1_555 1_555
H3 C5 1_555 1_555
C6 C7 1_555 1_555
C7 H4 1_555 1_555
C8 C7 1_555 1_555
H5 C8 1_555 1_555
C9 C8 1_555 1_555
H6 C9 1_555 1_555
C10 C9 1_555 1_555
H7 C10 1_555 1_555
C11 C6 1_555 1_555
H8 C11 1_555 1_555
C12 Si2 1_555 1_555
C13 C12 1_555 1_555
C14 Si2 1_555 1_555
C15 C14 1_555 1_555
C16 Si2 1_555 1_555
C17 C16 1_555 1_555
Si2A C4A 1_555 1_555
C1A Si1 1_555 1_555
C2A C2 1_555 1_555
C3A C1A 1_555 1_555
C4A C3A 1_555 1_555
C5A Si1 1_555 1_555
H1A C5A 1_555 1_555
H2A C5A 1_555 1_555
H3A C5A 1_555 1_555
C6A C2A 1_555 1_555
C7A C6A 1_555 1_555
H4A C7A 1_555 1_555
C8A C7A 1_555 1_555
H5A C8A 1_555 1_555
C9A C8A 1_555 1_555
H6A C9A 1_555 1_555
C10A C9A 1_555 1_555
H7A C10A 1_555 1_555
C11A C6A 1_555 1_555
H8A C11A 1_555 1_555
C12A Si2A 1_555 1_555
C13A C12A 1_555 1_555
C14A Si2A 1_555 1_555
C15A C14A 1_555 1_555
C16A Si2A 1_555 1_555
C17A C16A 1_555 1_555
C10 C11 1_555 1_555
C1A C2A 1_555 1_555
C10A C11A 1_555 1_555

#END
