
#######################################################################
#
#                 Cambridge Crystallographic Data Centre
#                                CCDC 
#
#######################################################################
#
# If this CIF has been generated from an entry in the Cambridge 
# Structural Database, then it will include bibliographic, chemical, 
# crystal, experimental, refinement or atomic coordinate data resulting 
# from the CCDC's data processing and validation procedures.
#
#######################################################################

data_WUDDEF
_chemical_formula_moiety         'C45 H60 Si3'
_chemical_name_systematic        
1-Methyl-1,3,4-triphenyl-2,5-bis((triisopropylsilyl)ethynyl)-1H-silole
_symmetry_cell_setting           triclinic
_symmetry_space_group_name_H-M   'P -1'
_symmetry_Int_Tables_number      2
_space_group_name_Hall           '-P 1'
loop_
_symmetry_equiv_pos_site_id
_symmetry_equiv_pos_as_xyz
1 x,y,z
2 -x,-y,-z
_cell_length_a                   10.0372(3)
_cell_length_b                   13.4382(4)
_cell_length_c                   17.1696(5)
_cell_angle_alpha                100.516(2)
_cell_angle_beta                 104.332(2)
_cell_angle_gamma                104.973(2)
_cell_volume                     2091.11
_exptl_crystal_colour            colorless
_exptl_crystal_description       block
_cell_formula_units_Z            2
loop_
_atom_site_label
_atom_site_type_symbol
_atom_site_fract_x
_atom_site_fract_y
_atom_site_fract_z
Si1 Si 0.66440(4) 0.27695(3) 0.43677(2)
Si2 Si 0.71409(4) 0.20624(3) 0.76089(2)
Si3 Si 0.41158(4) 0.24011(3) 0.08650(2)
C1 C 0.57798(14) 0.29127(10) 0.52180(8)
C2 C 0.44755(14) 0.30627(10) 0.49104(8)
C3 C 0.40275(14) 0.29973(10) 0.40011(8)
C4 C 0.49678(14) 0.27815(10) 0.35918(8)
C5 C 0.63114(14) 0.27729(11) 0.60237(8)
C6 C 0.67670(15) 0.25640(11) 0.66744(9)
C7 C 0.47599(14) 0.26998(11) 0.27329(9)
C8 C 0.46010(15) 0.26035(12) 0.19971(9)
C9 C 0.35238(14) 0.32472(11) 0.54255(8)
C10 C 0.40944(16) 0.40224(12) 0.61848(9)
H1 H 0.5094 0.4430 0.6374
C11 C 0.32158(19) 0.42048(13) 0.66685(10)
H2 H 0.3612 0.4744 0.7181
C12 C 0.17633(18) 0.36023(14) 0.64053(11)
H3 H 0.1165 0.3725 0.6739
C13 C 0.11828(17) 0.28210(14) 0.56563(11)
H4 H 0.0189 0.2400 0.5480
C14 C 0.20520(15) 0.26519(12) 0.51632(9)
H5 H 0.1643 0.2127 0.4643
C15 C 0.26789(14) 0.31924(11) 0.35732(8)
C16 C 0.24225(15) 0.41457(12) 0.38524(9)
H6 H 0.3082 0.4656 0.4346
C17 C 0.12114(18) 0.43532(14) 0.34147(11)
H7 H 0.1057 0.5012 0.3601
C18 C 0.02257(17) 0.36029(16) 0.27065(11)
H8 H -0.0607 0.3745 0.2409
C19 C 0.04544(17) 0.26498(15) 0.24331(11)
H9 H -0.0230 0.2130 0.1952
C20 C 0.16856(16) 0.24461(13) 0.28594(9)
H10 H 0.1848 0.1794 0.2661
C21 C 0.81950(16) 0.39468(12) 0.44695(10)
H11 H 0.8579 0.3805 0.4003
H12 H 0.8958 0.4084 0.4996
H13 H 0.7867 0.4573 0.4463
C22 C 0.71831(14) 0.15417(11) 0.41998(9)
C23 C 0.80769(18) 0.14330(13) 0.37044(11)
H14 H 0.8344 0.1963 0.3423
C24 C 0.8580(2) 0.05632(14) 0.36165(12)
H15 H 0.9187 0.0501 0.3277
C25 C 0.8201(2) -0.02117(14) 0.40200(12)
H16 H 0.8561 -0.0800 0.3967
C26 C 0.7295(2) -0.01338(14) 0.45026(11)
H17 H 0.7020 -0.0674 0.4773
C27 C 0.67898(18) 0.07375(12) 0.45901(10)
H18 H 0.6166 0.0787 0.4921
C28 C 0.81983(17) 0.32212(13) 0.85570(9)
H19 H 0.7474 0.3524 0.8732
C29 C 0.8954(2) 0.28539(18) 0.92950(11)
H20 H 0.9409 0.3462 0.9790
H21 H 0.9698 0.2570 0.9158
H22 H 0.8237 0.2296 0.9407
C30 C 0.9276(2) 0.41271(15) 0.83976(13)
H23 H 0.9748 0.4709 0.8910
H24 H 0.8763 0.4390 0.7957
H25 H 1.0010 0.3866 0.8223
C31 C 0.53020(16) 0.13486(12) 0.76658(9)
H26 H 0.4751 0.0849 0.7102
C32 C 0.5328(2) 0.06561(15) 0.82817(12)
H27 H 0.4331 0.0260 0.8236
H28 H 0.5824 0.1113 0.8850
H29 H 0.5845 0.0152 0.8154
C33 C 0.44404(19) 0.21125(15) 0.78200(12)
H30 H 0.3459 0.1702 0.7790
H31 H 0.4384 0.2512 0.7396
H32 H 0.4927 0.2612 0.8374
C34 C 0.81700(17) 0.10905(12) 0.74436(10)
H33 H 0.8418 0.0857 0.7967
C35 C 0.7236(2) 0.00919(14) 0.67378(12)
H34 H 0.7822 -0.0370 0.6638
H35 H 0.6873 0.0302 0.6229
H36 H 0.6415 -0.0295 0.6894
C36 C 0.9594(2) 0.16017(17) 0.72883(15)
H37 H 1.0113 0.1080 0.7234
H38 H 1.0194 0.2221 0.7757
H39 H 0.9387 0.1832 0.6774
C37 C 0.29504(17) 0.09583(12) 0.03805(9)
H40 H 0.3603 0.0513 0.0477
C38 C 0.17964(19) 0.06214(14) 0.07996(11)
H41 H 0.1258 -0.0141 0.0558
H42 H 0.1126 0.1036 0.0712
H43 H 0.2263 0.0752 0.1398
C39 C 0.22558(19) 0.07079(15) -0.05652(10)
H44 H 0.1722 -0.0057 -0.0789
H45 H 0.3016 0.0904 -0.0826
H46 H 0.1586 0.1117 -0.0684
C40 C 0.58563(15) 0.26612(13) 0.05958(9)
H47 H 0.5611 0.2565 -0.0020
C41 C 0.68613(19) 0.38055(16) 0.10245(14)
H48 H 0.7737 0.3925 0.0851
H49 H 0.7133 0.3916 0.1630
H50 H 0.6358 0.4308 0.0867
C42 C 0.66398(18) 0.18688(15) 0.08198(11)
H51 H 0.7561 0.2043 0.0695
H52 H 0.6032 0.1144 0.0493
H53 H 0.6829 0.1912 0.1415
C43 C 0.30431(19) 0.33030(14) 0.05512(11)
H54 H 0.2004 0.2899 0.0457
C44 C 0.3125(2) 0.35434(17) -0.02777(13)
H55 H 0.2487 0.3964 -0.0436
H56 H 0.2814 0.2871 -0.0711
H57 H 0.4125 0.3948 -0.0217
C45 C 0.3401(3) 0.43349(19) 0.12136(17)
H58 H 0.2773 0.4744 0.1010
H59 H 0.4418 0.4758 0.1335
H60 H 0.3241 0.4168 0.1722
loop_
_geom_bond_atom_site_label_1
_geom_bond_atom_site_label_2
_geom_bond_site_symmetry_1
_geom_bond_site_symmetry_2
Si1 C1 1_555 1_555
Si2 C6 1_555 1_555
Si3 C8 1_555 1_555
C1 C2 1_555 1_555
C2 C3 1_555 1_555
C3 C4 1_555 1_555
C4 Si1 1_555 1_555
C5 C1 1_555 1_555
C6 C5 1_555 1_555
C7 C4 1_555 1_555
C8 C7 1_555 1_555
C9 C2 1_555 1_555
C10 C9 1_555 1_555
H1 C10 1_555 1_555
C11 C10 1_555 1_555
H2 C11 1_555 1_555
C12 C11 1_555 1_555
H3 C12 1_555 1_555
C13 C12 1_555 1_555
H4 C13 1_555 1_555
C14 C9 1_555 1_555
H5 C14 1_555 1_555
C15 C3 1_555 1_555
C16 C15 1_555 1_555
H6 C16 1_555 1_555
C17 C16 1_555 1_555
H7 C17 1_555 1_555
C18 C17 1_555 1_555
H8 C18 1_555 1_555
C19 C18 1_555 1_555
H9 C19 1_555 1_555
C20 C15 1_555 1_555
H10 C20 1_555 1_555
C21 Si1 1_555 1_555
H11 C21 1_555 1_555
H12 C21 1_555 1_555
H13 C21 1_555 1_555
C22 Si1 1_555 1_555
C23 C22 1_555 1_555
H14 C23 1_555 1_555
C24 C23 1_555 1_555
H15 C24 1_555 1_555
C25 C24 1_555 1_555
H16 C25 1_555 1_555
C26 C25 1_555 1_555
H17 C26 1_555 1_555
C27 C22 1_555 1_555
H18 C27 1_555 1_555
C28 Si2 1_555 1_555
H19 C28 1_555 1_555
C29 C28 1_555 1_555
H20 C29 1_555 1_555
H21 C29 1_555 1_555
H22 C29 1_555 1_555
C30 C28 1_555 1_555
H23 C30 1_555 1_555
H24 C30 1_555 1_555
H25 C30 1_555 1_555
C31 Si2 1_555 1_555
H26 C31 1_555 1_555
C32 C31 1_555 1_555
H27 C32 1_555 1_555
H28 C32 1_555 1_555
H29 C32 1_555 1_555
C33 C31 1_555 1_555
H30 C33 1_555 1_555
H31 C33 1_555 1_555
H32 C33 1_555 1_555
C34 Si2 1_555 1_555
H33 C34 1_555 1_555
C35 C34 1_555 1_555
H34 C35 1_555 1_555
H35 C35 1_555 1_555
H36 C35 1_555 1_555
C36 C34 1_555 1_555
H37 C36 1_555 1_555
H38 C36 1_555 1_555
H39 C36 1_555 1_555
C37 Si3 1_555 1_555
H40 C37 1_555 1_555
C38 C37 1_555 1_555
H41 C38 1_555 1_555
H42 C38 1_555 1_555
H43 C38 1_555 1_555
C39 C37 1_555 1_555
H44 C39 1_555 1_555
H45 C39 1_555 1_555
H46 C39 1_555 1_555
C40 Si3 1_555 1_555
H47 C40 1_555 1_555
C41 C40 1_555 1_555
H48 C41 1_555 1_555
H49 C41 1_555 1_555
H50 C41 1_555 1_555
C42 C40 1_555 1_555
H51 C42 1_555 1_555
H52 C42 1_555 1_555
H53 C42 1_555 1_555
C43 Si3 1_555 1_555
H54 C43 1_555 1_555
C44 C43 1_555 1_555
H55 C44 1_555 1_555
H56 C44 1_555 1_555
H57 C44 1_555 1_555
C45 C43 1_555 1_555
H58 C45 1_555 1_555
H59 C45 1_555 1_555
H60 C45 1_555 1_555
C13 C14 1_555 1_555
C19 C20 1_555 1_555
C26 C27 1_555 1_555

#END
