
#######################################################################
#
#                 Cambridge Crystallographic Data Centre
#                                CCDC 
#
#######################################################################
#
# If this CIF has been generated from an entry in the Cambridge 
# Structural Database, then it will include bibliographic, chemical, 
# crystal, experimental, refinement or atomic coordinate data resulting 
# from the CCDC's data processing and validation procedures.
#
#######################################################################

data_WUDHAE
_chemical_formula_moiety         'C20 H28 N2 2+,C16 H10 O4 2-,3(H2 O1)'
_chemical_name_systematic        
"(R,R)-N,N'-Dibenzyl-trans-1,2-diaminocyclohexane (9S,10S)-9,10-dihydrophenanthrene-9,10-dicarboxylic acid trihydrate"
_symmetry_cell_setting           tetragonal
_symmetry_space_group_name_H-M   'P 41 21 2'
_symmetry_Int_Tables_number      92
_space_group_name_Hall           'P 4abw 2nw'
loop_
_symmetry_equiv_pos_site_id
_symmetry_equiv_pos_as_xyz
1 x,y,z
2 -x,-y,1/2+z
3 1/2-y,1/2+x,1/4+z
4 1/2+y,1/2-x,3/4+z
5 1/2-x,1/2+y,1/4-z
6 1/2+x,1/2-y,3/4-z
7 y,x,-z
8 -y,-x,1/2-z
_cell_length_a                   13.870(2)
_cell_length_b                   13.870(2)
_cell_length_c                   35.102(3)
_cell_angle_alpha                90
_cell_angle_beta                 90
_cell_angle_gamma                90
_cell_volume                     6752.81
_exptl_crystal_colour            colorless
_exptl_crystal_description       plate
_chemical_melting_point          87-95deg.C
_cell_formula_units_Z            8
_exptl_crystal_recrystallization_method ethanol
loop_
_atom_site_label
_atom_site_type_symbol
_atom_site_fract_x
_atom_site_fract_y
_atom_site_fract_z
C1 C -0.5882(18) -1.1600(16) -0.0704(6)
H1 H -0.6295 -1.1183 -0.0849
C2 C -0.5092(18) -1.2074(17) -0.0865(8)
H2 H -0.4970 -1.2006 -0.1133
C3 C -0.445(2) -1.2589(16) -0.0644(7)
H3 H -0.3859 -1.2826 -0.0750
C4 C -0.4670(12) -1.2803(13) -0.0270(7)
H4 H -0.4259 -1.3224 -0.0126
C5 C -0.5477(11) -1.2401(13) -0.0101(7)
C6 C -0.5674(13) -1.2469(11) 0.0311(6)
C7 C -0.5327(11) -1.3248(12) 0.0517(6)
H5 H -0.4929 -1.3742 0.0408
C8 C -0.5552(17) -1.3232(18) 0.0902(6)
H6 H -0.5326 -1.3769 0.1050
C9 C -0.6078(17) -1.2559(17) 0.1107(7)
H7 H -0.6184 -1.2595 0.1377
C10 C -0.6442(15) -1.1857(16) 0.0873(6)
H8 H -0.6846 -1.1369 0.0982
C11 C -0.6245(12) -1.1783(14) 0.0490(5)
C12 C -0.6639(14) -1.0955(11) 0.0248(6)
H9 H -0.7212 -1.0716 0.0369
C13 C -0.6907(11) -1.1336(12) -0.0139(6)
H10 H -0.7107 -1.0798 -0.0292
C14 C -0.6053(14) -1.1807(14) -0.0323(5)
C15 C -0.5877(14) -1.0109(18) 0.0191(7)
C16 C -0.7817(17) -1.2018(14) -0.0068(8)
O1 O -0.5069(11) -1.0217(8) 0.0330(4)
O2 O -0.6137(9) -0.9455(9) -0.0020(4)
O3 O -0.8483(10) -1.1793(12) 0.0097(5)
O4 O -0.7693(9) -1.2870(12) -0.0258(4)
C17 C -0.4144(11) -0.8469(13) -0.0477(6)
H11 H -0.3551 -0.8116 -0.0498
C18 C -0.3927(13) -0.9519(14) -0.0426(6)
H12 H -0.4529 -0.9860 -0.0416
C19 C -0.3382(12) -0.9799(12) -0.0809(6)
H13 H -0.3236 -1.0476 -0.0808
H14 H -0.2782 -0.9455 -0.0820
C20 C -0.3972(13) -0.9540(15) -0.1165(5)
H15 H -0.4560 -0.9906 -0.1170
H16 H -0.3608 -0.9687 -0.1390
C21 C -0.4237(15) -0.8479(13) -0.1166(6)
H17 H -0.4604 -0.8282 -0.1384
H18 H -0.3647 -0.8119 -0.1161
C22 C -0.4739(13) -0.8246(13) -0.0815(6)
H19 H -0.4963 -0.7591 -0.0812
H20 H -0.5292 -0.8663 -0.0808
C23 C -0.5015(13) -0.7165(11) -0.0106(5)
H21 H -0.4489 -0.6747 -0.0173
H22 H -0.5520 -0.7087 -0.0290
C24 C -0.5372(12) -0.6899(11) 0.0293(6)
C25 C -0.6231(12) -0.7235(11) 0.0447(7)
H23 H -0.6601 -0.7682 0.0298
C26 C -0.6570(17) -0.6973(15) 0.0797(7)
H24 H -0.7163 -0.7220 0.0899
C27 C -0.5980(17) -0.6332(16) 0.0992(6)
H25 H -0.6187 -0.6156 0.1244
C28 C -0.5126(18) -0.5925(15) 0.0863(7)
H26 H -0.4755 -0.5477 0.1012
C29 C -0.4850(13) -0.6266(13) 0.0512(6)
H27 H -0.4273 -0.5996 0.0405
C30 C -0.2973(13) -1.0796(11) -0.0081(6)
H28 H -0.3466 -1.1228 -0.0169
H29 H -0.2435 -1.0836 -0.0252
C31 C -0.2640(14) -1.1052(14) 0.0308(7)
C32 C -0.3138(17) -1.1625(14) 0.0564(8)
H30 H -0.3760 -1.1879 0.0499
C33 C -0.2799(18) -1.1910(16) 0.0919(8)
H31 H -0.3135 -1.2286 0.1107
C34 C -0.1886(18) -1.1572(14) 0.0987(6)
H32 H -0.1576 -1.1751 0.1221
C35 C -0.1324(15) -1.0974(15) 0.0768(6)
H33 H -0.0698 -1.0730 0.0833
C36 C -0.1739(15) -1.0740(12) 0.0426(6)
H34 H -0.1411 -1.0342 0.0243
N1 N -0.4637(9) -0.8178(9) -0.0103(4)
H35 H -0.4232 -0.8261 0.0095
H36 H -0.5148 -0.8568 -0.0069
N2 N -0.3373(9) -0.9782(9) -0.0095(4)
H37 H -0.3743 -0.9711 0.0114
H38 H -0.2874 -0.9370 -0.0075
O5 O -0.7795(15) -0.8804(17) -0.0305(5)
O6 O -0.882(3) -1.008(3) -0.0692(9)
O7 O -1.024(3) -0.899(3) -0.0385(11)
loop_
_geom_bond_atom_site_label_1
_geom_bond_atom_site_label_2
_geom_bond_site_symmetry_1
_geom_bond_site_symmetry_2
C1 H1 1_555 1_555
C2 C1 1_555 1_555
H2 C2 1_555 1_555
C3 C2 1_555 1_555
H3 C3 1_555 1_555
C4 C3 1_555 1_555
H4 C4 1_555 1_555
C5 C4 1_555 1_555
C6 C5 1_555 1_555
C7 C6 1_555 1_555
H5 C7 1_555 1_555
C8 C7 1_555 1_555
H6 C8 1_555 1_555
C9 C8 1_555 1_555
H7 C9 1_555 1_555
C10 C9 1_555 1_555
H8 C10 1_555 1_555
C11 C6 1_555 1_555
C12 C11 1_555 1_555
H9 C12 1_555 1_555
C13 C12 1_555 1_555
H10 C13 1_555 1_555
C14 C1 1_555 1_555
C15 C12 1_555 1_555
C16 C13 1_555 1_555
C17 H11 1_555 1_555
C18 C17 1_555 1_555
H12 C18 1_555 1_555
C19 C18 1_555 1_555
H13 C19 1_555 1_555
H14 C19 1_555 1_555
C20 C19 1_555 1_555
H15 C20 1_555 1_555
H16 C20 1_555 1_555
C21 C20 1_555 1_555
H17 C21 1_555 1_555
H18 C21 1_555 1_555
C22 C17 1_555 1_555
H19 C22 1_555 1_555
H20 C22 1_555 1_555
C23 H21 1_555 1_555
H22 C23 1_555 1_555
C24 C23 1_555 1_555
C25 C24 1_555 1_555
H23 C25 1_555 1_555
C26 C25 1_555 1_555
H24 C26 1_555 1_555
C27 C26 1_555 1_555
H25 C27 1_555 1_555
C28 C27 1_555 1_555
H26 C28 1_555 1_555
C29 C24 1_555 1_555
H27 C29 1_555 1_555
C30 H28 1_555 1_555
H29 C30 1_555 1_555
C31 C30 1_555 1_555
C32 C31 1_555 1_555
H30 C32 1_555 1_555
C33 C32 1_555 1_555
H31 C33 1_555 1_555
C34 C33 1_555 1_555
H32 C34 1_555 1_555
C35 C34 1_555 1_555
H33 C35 1_555 1_555
C36 C31 1_555 1_555
H34 C36 1_555 1_555
N1 C17 1_555 1_555
H35 N1 1_555 1_555
H36 N1 1_555 1_555
N2 C18 1_555 1_555
H37 N2 1_555 1_555
H38 N2 1_555 1_555
O1 C15 1_555 1_555
O2 C15 1_555 1_555
O3 C16 1_555 1_555
O4 C16 1_555 1_555
C5 C14 1_555 1_555
C10 C11 1_555 1_555
C13 C14 1_555 1_555
C21 C22 1_555 1_555
C23 N1 1_555 1_555
C28 C29 1_555 1_555
C30 N2 1_555 1_555
C35 C36 1_555 1_555

#END
