
#######################################################################
#
#                 Cambridge Crystallographic Data Centre
#                                CCDC 
#
#######################################################################
#
# If this CIF has been generated from an entry in the Cambridge 
# Structural Database, then it will include bibliographic, chemical, 
# crystal, experimental, refinement or atomic coordinate data resulting 
# from the CCDC's data processing and validation procedures.
#
#######################################################################

data_WUDHIM
_chemical_formula_moiety         'C8 H7 N5 O3'
_chemical_name_systematic        
3-(1-N-Methoxycarbonylimidazol-4-yl)acrylazide
_symmetry_cell_setting           triclinic
_symmetry_space_group_name_H-M   'P -1'
_symmetry_Int_Tables_number      2
_space_group_name_Hall           '-P 1'
loop_
_symmetry_equiv_pos_site_id
_symmetry_equiv_pos_as_xyz
1 x,y,z
2 -x,-y,-z
_cell_length_a                   3.994(4)
_cell_length_b                   11.731(13)
_cell_length_c                   12.246(14)
_cell_angle_alpha                61.6(6)
_cell_angle_beta                 87.5(9)
_cell_angle_gamma                90.0(8)
_cell_volume                     504.094
_exptl_crystal_colour            colorless
_exptl_crystal_description       prism
_chemical_melting_point          124deg.C(dec.)
_cell_formula_units_Z            2
_exptl_crystal_recrystallization_method acetone/water
loop_
_atom_site_label
_atom_site_type_symbol
_atom_site_fract_x
_atom_site_fract_y
_atom_site_fract_z
N1 N -0.0939(6) 0.6811(2) 0.1665(2)
C1 C -0.0067(8) 0.7616(3) 0.2053(3)
H1 H -0.0549 0.8523 0.1633
N2 N 0.1653(6) 0.7018(2) 0.3135(2)
C2 C 0.1840(8) 0.5745(3) 0.3415(3)
H2 H 0.2917 0.5073 0.4109
C3 C 0.0267(8) 0.5612(3) 0.2530(3)
C4 C 0.2997(8) 0.7547(3) 0.3841(3)
O1 O 0.4666(6) 0.69454(18) 0.4711(2)
O2 O 0.2128(5) 0.87635(19) 0.34036(19)
C5 C 0.3352(8) 0.9398(3) 0.4091(3)
H3 H 0.2605 1.0275 0.3716
H4 H 0.2503 0.8943 0.4941
H5 H 0.5757 0.9397 0.4065
C6 C -0.0228(7) 0.4424(3) 0.2479(3)
H6 H 0.0731 0.3656 0.3114
C7 C -0.1859(8) 0.4288(3) 0.1632(3)
H7 H -0.2822 0.5036 0.0973
C8 C -0.2208(8) 0.3019(3) 0.1696(3)
O3 O -0.1151(6) 0.2013(2) 0.2488(2)
N3 N -0.4022(7) 0.3091(2) 0.0699(2)
N4 N -0.4372(8) 0.2013(3) 0.0729(2)
N5 N -0.4805(9) 0.1102(3) 0.0679(3)
loop_
_geom_bond_atom_site_label_1
_geom_bond_atom_site_label_2
_geom_bond_site_symmetry_1
_geom_bond_site_symmetry_2
N1 C1 1_555 1_555
C1 H1 1_555 1_555
N2 C1 1_555 1_555
C2 N2 1_555 1_555
H2 C2 1_555 1_555
C3 N1 1_555 1_555
C4 N2 1_555 1_555
O1 C4 1_555 1_555
O2 C4 1_555 1_555
C5 O2 1_555 1_555
H3 C5 1_555 1_555
H4 C5 1_555 1_555
H5 C5 1_555 1_555
C6 C3 1_555 1_555
H6 C6 1_555 1_555
C7 C6 1_555 1_555
H7 C7 1_555 1_555
C8 C7 1_555 1_555
O3 C8 1_555 1_555
N3 C8 1_555 1_555
N4 N3 1_555 1_555
N5 N4 1_555 1_555
C2 C3 1_555 1_555

#END
