
#######################################################################
#
#                 Cambridge Crystallographic Data Centre
#                                CCDC 
#
#######################################################################
#
# If this CIF has been generated from an entry in the Cambridge 
# Structural Database, then it will include bibliographic, chemical, 
# crystal, experimental, refinement or atomic coordinate data resulting 
# from the CCDC's data processing and validation procedures.
#
#######################################################################

data_WUDHEI
_chemical_formula_moiety         'C8 H9 N3 O1'
_chemical_name_systematic        6-Ethylimidazo[1,5-c]pyrimidin-5-one
_symmetry_cell_setting           monoclinic
_symmetry_space_group_name_H-M   'P 21/c'
_symmetry_Int_Tables_number      14
_space_group_name_Hall           '-P 2ybc'
loop_
_symmetry_equiv_pos_site_id
_symmetry_equiv_pos_as_xyz
1 x,y,z
2 x,1/2-y,1/2+z
3 -x,-y,-z
4 -x,1/2+y,1/2-z
_cell_length_a                   7.663(2)
_cell_length_b                   9.389(3)
_cell_length_c                   11.176(3)
_cell_angle_alpha                90
_cell_angle_beta                 92.70(2)
_cell_angle_gamma                90
_cell_volume                     803.197
_exptl_crystal_colour            yellow
_exptl_crystal_description       prism
_chemical_melting_point          116-117deg.C
_cell_formula_units_Z            4
_exptl_crystal_recrystallization_method methanol/water
loop_
_atom_site_label
_atom_site_type_symbol
_atom_site_fract_x
_atom_site_fract_y
_atom_site_fract_z
C1 C 0.8135(2) 0.12564(19) 1.06359(15)
H1 H 0.7868 0.1090 1.1427
N1 N 0.89349(19) 0.23907(15) 1.02731(14)
C2 C 0.9058(2) 0.22138(17) 0.90583(18)
H2 H 0.9572 0.2868 0.8559
C3 C 0.83324(19) 0.09592(16) 0.86804(14)
C4 C 0.8051(2) 0.01797(17) 0.76050(14)
H3 H 0.8435 0.0532 0.6885
C5 C 0.7228(2) -0.10654(17) 0.76423(14)
H4 H 0.7057 -0.1585 0.6938
N2 N 0.66158(16) -0.16156(12) 0.86977(11)
C6 C 0.6841(2) -0.09519(16) 0.97726(14)
O1 O 0.63047(15) -0.13834(12) 1.07129(10)
N3 N 0.77393(15) 0.03436(12) 0.97145(11)
C7 C 0.5755(2) -0.30234(16) 0.86656(16)
H5 H 0.5132 -0.3146 0.7897
H6 H 0.4908 -0.3061 0.9283
C8 C 0.7049(3) -0.42273(17) 0.88568(17)
H7 H 0.6439 -0.5121 0.8829
H8 H 0.7653 -0.4121 0.9624
H9 H 0.7878 -0.4205 0.8239
loop_
_geom_bond_atom_site_label_1
_geom_bond_atom_site_label_2
_geom_bond_site_symmetry_1
_geom_bond_site_symmetry_2
C1 H1 1_555 1_555
N1 C1 1_555 1_555
C2 N1 1_555 1_555
H2 C2 1_555 1_555
C3 C2 1_555 1_555
C4 C3 1_555 1_555
H3 C4 1_555 1_555
C5 C4 1_555 1_555
H4 C5 1_555 1_555
N2 C5 1_555 1_555
C6 N2 1_555 1_555
O1 C6 1_555 1_555
N3 C1 1_555 1_555
C7 N2 1_555 1_555
H5 C7 1_555 1_555
H6 C7 1_555 1_555
C8 C7 1_555 1_555
H7 C8 1_555 1_555
H8 C8 1_555 1_555
H9 C8 1_555 1_555
C3 N3 1_555 1_555
C6 N3 1_555 1_555

#END
