
#######################################################################
#
#                 Cambridge Crystallographic Data Centre
#                                CCDC 
#
#######################################################################
#
# If this CIF has been generated from an entry in the Cambridge 
# Structural Database, then it will include bibliographic, chemical, 
# crystal, experimental, refinement or atomic coordinate data resulting 
# from the CCDC's data processing and validation procedures.
#
#######################################################################

data_WUDJUC
_chemical_formula_moiety         'C18 H23 N1 O4'
_chemical_name_systematic        
10-(butylidene(hydroxy)-\l^5^-azanyl)-9-hydroxy-9-methyl-6a,7,8,9,10,10a-hexahydro-6H-benzo[c]chromen-6-one
_symmetry_cell_setting           orthorhombic
_symmetry_space_group_name_H-M   'P 21 21 21'
_symmetry_Int_Tables_number      19
_space_group_name_Hall           'P 2ac 2ab'
loop_
_symmetry_equiv_pos_site_id
_symmetry_equiv_pos_as_xyz
1 x,y,z
2 1/2-x,-y,1/2+z
3 -x,1/2+y,1/2-z
4 1/2+x,1/2-y,-z
_cell_length_a                   5.2667(2)
_cell_length_b                   15.2534(6)
_cell_length_c                   20.3019(8)
_cell_angle_alpha                90
_cell_angle_beta                 90
_cell_angle_gamma                90
_cell_volume                     1630.95
_exptl_crystal_colour            colorless
_exptl_crystal_description       needle
_cell_formula_units_Z            4
loop_
_atom_site_label
_atom_site_type_symbol
_atom_site_fract_x
_atom_site_fract_y
_atom_site_fract_z
O1 O 0.2631(3) 0.40406(8) 0.79758(6)
O2 O 0.1953(3) 0.29129(9) 0.86203(7)
O3 O 0.8921(2) 0.45091(9) 1.00881(7)
H1 H 0.9567 0.4981 0.9956
O4 O 0.8899(2) 0.60519(8) 0.94456(7)
N1 N 0.6445(3) 0.59244(10) 0.93445(7)
C1 C 0.4246(4) 0.46996(12) 0.77398(9)
C2 C 0.3594(4) 0.50653(14) 0.71401(9)
H2 H 0.2157 0.4857 0.6905
C3 C 0.5047(5) 0.57323(14) 0.68897(10)
H3 H 0.4616 0.5989 0.6478
C4 C 0.7154(5) 0.60358(13) 0.72369(10)
H4 H 0.8157 0.6499 0.7064
C5 C 0.7779(4) 0.56566(12) 0.78372(9)
H5 H 0.9223 0.5861 0.8072
C6 C 0.6318(3) 0.49812(12) 0.80997(8)
C7 C 0.6912(3) 0.45373(11) 0.87421(8)
H6 H 0.8791 0.4559 0.8811
C8 C 0.6107(4) 0.35738(12) 0.87078(9)
H7 H 0.7250 0.3284 0.8380
C9 C 0.3434(4) 0.34696(13) 0.84541(9)
C10 C 0.5626(3) 0.49943(11) 0.93308(8)
H8 H 0.3747 0.4978 0.9261
C11 C 0.6221(3) 0.45352(12) 0.99907(9)
C12 C 0.5306(4) 0.35946(12) 0.99416(9)
H9 H 0.3438 0.3592 0.9889
H10 H 0.5714 0.3285 1.0357
C13 C 0.6503(4) 0.30989(12) 0.93664(9)
H11 H 0.5747 0.2506 0.9339
H12 H 0.8346 0.3031 0.9448
C14 C 0.4966(4) 0.49989(14) 1.05693(9)
H13 H 0.5488 0.5615 1.0575
H14 H 0.5486 0.4716 1.0981
H15 H 0.3117 0.4963 1.0524
C15 C 0.4895(4) 0.65562(12) 0.92357(9)
H16 H 0.3148 0.6425 0.9175
C16 C 0.5723(4) 0.74840(12) 0.92014(12)
H17 H 0.7342 0.7519 0.8955
H18 H 0.6035 0.7704 0.9653
C17 C 0.3765(5) 0.80615(14) 0.88685(12)
H19 H 0.2168 0.8032 0.9125
H20 H 0.4371 0.8676 0.8883
C18 C 0.3197(6) 0.78314(18) 0.81734(13)
H21 H 0.2435 0.7246 0.8156
H22 H 0.4773 0.7836 0.7917
H23 H 0.2009 0.8261 0.7989
loop_
_geom_bond_atom_site_label_1
_geom_bond_atom_site_label_2
_geom_bond_site_symmetry_1
_geom_bond_site_symmetry_2
O1 C1 1_555 1_555
O2 C9 1_555 1_555
O3 H1 1_555 1_555
O4 N1 1_555 1_555
N1 C10 1_555 1_555
C1 C2 1_555 1_555
C2 H2 1_555 1_555
C3 C2 1_555 1_555
H3 C3 1_555 1_555
C4 C3 1_555 1_555
H4 C4 1_555 1_555
C5 C4 1_555 1_555
H5 C5 1_555 1_555
C6 C1 1_555 1_555
C7 C6 1_555 1_555
H6 C7 1_555 1_555
C8 C7 1_555 1_555
H7 C8 1_555 1_555
C9 O1 1_555 1_555
C10 C7 1_555 1_555
H8 C10 1_555 1_555
C11 O3 1_555 1_555
C12 C11 1_555 1_555
H9 C12 1_555 1_555
H10 C12 1_555 1_555
C13 C8 1_555 1_555
H11 C13 1_555 1_555
H12 C13 1_555 1_555
C14 C11 1_555 1_555
H13 C14 1_555 1_555
H14 C14 1_555 1_555
H15 C14 1_555 1_555
C15 N1 1_555 1_555
H16 C15 1_555 1_555
C16 C15 1_555 1_555
H17 C16 1_555 1_555
H18 C16 1_555 1_555
C17 C16 1_555 1_555
H19 C17 1_555 1_555
H20 C17 1_555 1_555
C18 C17 1_555 1_555
H21 C18 1_555 1_555
H22 C18 1_555 1_555
H23 C18 1_555 1_555
C5 C6 1_555 1_555
C8 C9 1_555 1_555
C10 C11 1_555 1_555
C12 C13 1_555 1_555

#END
