
#######################################################################
#
#                 Cambridge Crystallographic Data Centre
#                                CCDC 
#
#######################################################################
#
# If this CIF has been generated from an entry in the Cambridge 
# Structural Database, then it will include bibliographic, chemical, 
# crystal, experimental, refinement or atomic coordinate data resulting 
# from the CCDC's data processing and validation procedures.
#
#######################################################################

data_WUDMAK
_chemical_formula_moiety         'C19 H29 F3 N4 O2 S1,C4 H8 O2'
_chemical_name_systematic        
'(S)-1-Ethyl-3-(2-(2-((ethylcarbamothioyl)amino)-3,3-dimethylbutoxy)-5-(trifluoromethyl)phenyl)urea ethyl acetate solvate'
_symmetry_cell_setting           orthorhombic
_symmetry_space_group_name_H-M   'P 21 21 21'
_symmetry_Int_Tables_number      19
_space_group_name_Hall           'P 2ac 2ab'
loop_
_symmetry_equiv_pos_site_id
_symmetry_equiv_pos_as_xyz
1 x,y,z
2 1/2-x,-y,1/2+z
3 1/2+x,1/2-y,-z
4 -x,1/2+y,1/2-z
_cell_length_a                   12.0566(2)
_cell_length_b                   14.2977(3)
_cell_length_c                   16.5959(4)
_cell_angle_alpha                90
_cell_angle_beta                 90
_cell_angle_gamma                90
_cell_volume                     2860.83
_exptl_crystal_colour            colorless
_exptl_crystal_description       block
_chemical_melting_point          162-163deg.C
_cell_formula_units_Z            4
loop_
_atom_site_label
_atom_site_type_symbol
_atom_site_fract_x
_atom_site_fract_y
_atom_site_fract_z
S1 S 0.32998(5) 0.24321(4) 0.91702(3)
O1 O 0.61223(13) 0.20369(12) 0.90190(10)
O2 O 0.54555(15) 0.42674(13) 0.69253(11)
F1 F 1.01951(14) 0.26320(16) 0.67014(12)
F2 F 0.94889(18) 0.39978(14) 0.67517(14)
F3 F 0.88327(17) 0.29742(19) 0.59467(11)
N1 N 0.54992(17) 0.31633(15) 0.79195(13)
H1 H 0.5081 0.2872 0.8274
N2 N 0.39359(18) 0.40151(16) 0.77047(14)
H2 H 0.3668 0.3716 0.8125
N3 N 0.44029(15) 0.08099(12) 0.92340(12)
H3 H 0.4478 0.0230 0.9064
N4 N 0.31956(19) 0.09372(17) 0.82082(15)
H4 H 0.3399 0.0359 0.8102
C1 C 0.9232(2) 0.3091(2) 0.66883(19)
C2 C 0.8442(2) 0.27752(17) 0.73301(15)
C3 C 0.7368(2) 0.31376(17) 0.72965(15)
H5 H 0.7162 0.3560 0.6881
C4 C 0.66060(19) 0.28724(15) 0.78789(13)
C5 C 0.69457(18) 0.22522(16) 0.84886(13)
C6 C 0.8013(2) 0.19089(18) 0.85198(16)
H6 H 0.8231 0.1498 0.8941
C7 C 0.8768(2) 0.21721(19) 0.79270(17)
H7 H 0.9504 0.1935 0.7936
C8 C 0.62638(19) 0.12996(16) 0.95950(14)
H8 H 0.6757 0.1501 1.0039
H9 H 0.6585 0.0737 0.9337
C9 C 0.51043(19) 0.11000(15) 0.99057(13)
H10 H 0.4798 0.1702 1.0117
C10 C 0.5072(2) 0.0382(2) 1.06044(16)
C11 C 0.5779(3) 0.0740(3) 1.12987(17)
H11 H 0.6563 0.0714 1.1147
H12 H 0.5655 0.0348 1.1775
H13 H 0.5572 0.1387 1.1422
C12 C 0.5512(4) -0.0577(2) 1.0334(2)
H14 H 0.6289 -0.0517 1.0169
H15 H 0.5069 -0.0805 0.9880
H16 H 0.5458 -0.1021 1.0783
C13 C 0.3868(3) 0.0298(3) 1.0883(2)
H17 H 0.3828 -0.0121 1.1350
H18 H 0.3415 0.0044 1.0444
H19 H 0.3588 0.0917 1.1034
C14 C 0.4989(2) 0.38416(17) 0.74784(15)
C15 C 0.3223(2) 0.4674(2) 0.72845(18)
H20 H 0.3689 0.5142 0.7004
H21 H 0.2759 0.5009 0.7682
C16 C 0.2492(3) 0.4203(3) 0.6687(2)
H22 H 0.2014 0.4669 0.6428
H23 H 0.2032 0.3737 0.6961
H24 H 0.2949 0.3894 0.6277
C17 C 0.36556(18) 0.13419(16) 0.88514(13)
C18 C 0.2388(2) 0.1361(2) 0.76641(18)
H25 H 0.2100 0.1945 0.7907
H26 H 0.1756 0.0928 0.7589
C19 C 0.2893(3) 0.1577(3) 0.6863(2)
H27 H 0.2324 0.1832 0.6503
H28 H 0.3199 0.1003 0.6628
H29 H 0.3488 0.2038 0.6931
C20 C 0.4075(8) 0.6900(5) 0.9505(5)
H30 H 0.3575 0.7368 0.9272
H31 H 0.4820 0.7166 0.9558
H32 H 0.3801 0.6714 1.0038
O3 O 0.5043(3) 0.5408(3) 0.9328(2)
C21 C 0.4115(5) 0.6138(5) 0.9017(4)
H33 H 0.4292 0.6337 0.8460
H34 H 0.3380 0.5828 0.9010
O4 O 0.3654(3) 0.4778(2) 0.9948(2)
C22 C 0.4672(6) 0.4833(5) 0.9800(3)
C23 C 0.5648(4) 0.4238(3) 1.0050(5)
H35 H 0.6275 0.4360 0.9689
H36 H 0.5443 0.3576 1.0020
H37 H 0.5860 0.4394 1.0605
loop_
_geom_bond_atom_site_label_1
_geom_bond_atom_site_label_2
_geom_bond_site_symmetry_1
_geom_bond_site_symmetry_2
S1 C17 1_555 1_555
O1 C5 1_555 1_555
O2 C14 1_555 1_555
F1 C1 1_555 1_555
F2 C1 1_555 1_555
F3 C1 1_555 1_555
N1 H1 1_555 1_555
N2 H2 1_555 1_555
N3 H3 1_555 1_555
N4 H4 1_555 1_555
C1 C2 1_555 1_555
C2 C3 1_555 1_555
C3 H5 1_555 1_555
C4 N1 1_555 1_555
C5 C4 1_555 1_555
C6 C5 1_555 1_555
H6 C6 1_555 1_555
C7 C2 1_555 1_555
H7 C7 1_555 1_555
C8 O1 1_555 1_555
H8 C8 1_555 1_555
H9 C8 1_555 1_555
C9 N3 1_555 1_555
H10 C9 1_555 1_555
C10 C9 1_555 1_555
C11 C10 1_555 1_555
H11 C11 1_555 1_555
H12 C11 1_555 1_555
H13 C11 1_555 1_555
C12 C10 1_555 1_555
H14 C12 1_555 1_555
H15 C12 1_555 1_555
H16 C12 1_555 1_555
C13 C10 1_555 1_555
H17 C13 1_555 1_555
H18 C13 1_555 1_555
H19 C13 1_555 1_555
C14 N1 1_555 1_555
C15 N2 1_555 1_555
H20 C15 1_555 1_555
H21 C15 1_555 1_555
C16 C15 1_555 1_555
H22 C16 1_555 1_555
H23 C16 1_555 1_555
H24 C16 1_555 1_555
C17 N3 1_555 1_555
C18 N4 1_555 1_555
H25 C18 1_555 1_555
H26 C18 1_555 1_555
C19 C18 1_555 1_555
H27 C19 1_555 1_555
H28 C19 1_555 1_555
H29 C19 1_555 1_555
C20 H30 1_555 1_555
H31 C20 1_555 1_555
H32 C20 1_555 1_555
O3 C21 1_555 1_555
C21 C20 1_555 1_555
H33 C21 1_555 1_555
H34 C21 1_555 1_555
O4 C22 1_555 1_555
C22 O3 1_555 1_555
C23 C22 1_555 1_555
H35 C23 1_555 1_555
H36 C23 1_555 1_555
H37 C23 1_555 1_555
N2 C14 1_555 1_555
N4 C17 1_555 1_555
C3 C4 1_555 1_555
C6 C7 1_555 1_555
C8 C9 1_555 1_555

#END
