
#######################################################################
#
#                 Cambridge Crystallographic Data Centre
#                                CCDC 
#
#######################################################################
#
# If this CIF has been generated from an entry in the Cambridge 
# Structural Database, then it will include bibliographic, chemical, 
# crystal, experimental, refinement or atomic coordinate data resulting 
# from the CCDC's data processing and validation procedures.
#
#######################################################################

data_WUDNAL
_chemical_formula_moiety         'C14 H15 N1 O3'
_chemical_name_systematic        
4,5,5-Trimethyl-6-nitro-3,5-dihydro-2H-cyclopenta[de]chromene
_symmetry_cell_setting           monoclinic
_symmetry_space_group_name_H-M   'P 21/c'
_symmetry_Int_Tables_number      14
_space_group_name_Hall           '-P 2ybc'
loop_
_symmetry_equiv_pos_site_id
_symmetry_equiv_pos_as_xyz
1 x,y,z
2 -x,1/2+y,1/2-z
3 -x,-y,-z
4 x,1/2-y,1/2+z
_cell_length_a                   10.5007(4)
_cell_length_b                   7.2839(3)
_cell_length_c                   17.4464(8)
_cell_angle_alpha                90
_cell_angle_beta                 115.894(3)
_cell_angle_gamma                90
_cell_volume                     1200.44
_exptl_crystal_colour            yellow
_exptl_crystal_description       prism
_chemical_melting_point          132.7-134.1deg.C
_cell_formula_units_Z            4
loop_
_atom_site_label
_atom_site_type_symbol
_atom_site_fract_x
_atom_site_fract_y
_atom_site_fract_z
C1 C 0.9886(2) 0.2548(2) -0.05102(14)
H1 H 0.9898 0.3720 -0.0758
H2 H 0.9745 0.1597 -0.0921
H3 H 1.0772 0.2355 -0.0020
O1 O 0.82416(16) 0.2181(2) 0.20030(8)
C2 C 0.74144(19) 0.2397(2) 0.05054(11)
C3 C 0.88168(18) 0.2425(2) 0.05387(11)
N1 N 0.37517(19) 0.2627(2) -0.12552(13)
C4 C 0.7146(2) 0.2310(2) 0.12132(11)
C5 C 0.9527(2) 0.1414(3) 0.20127(11)
H4 H 0.9364 0.0132 0.1849
H5 H 1.0275 0.1469 0.2590
C6 C 1.0024(2) 0.2395(2) 0.14220(12)
H6 H 1.0311 0.3640 0.1620
H7 H 1.0830 0.1757 0.1415
O2 O 0.39179(19) 0.2639(3) -0.19022(11)
C7 C 0.5752(2) 0.2374(3) 0.10975(14)
H8 H 0.5539 0.2345 0.1562
C8 C 0.6807(2) 0.0876(3) -0.14908(11)
H9 H 0.7001 -0.0223 -0.1155
H10 H 0.7383 0.0900 -0.1792
H11 H 0.5826 0.0898 -0.1892
C9 C 0.63784(19) 0.2501(2) -0.03322(11)
C10 C 0.87092(19) 0.25024(19) -0.02480(11)
C11 C 0.4978(2) 0.2536(2) -0.04292(12)
C12 C 0.6865(2) 0.4342(3) -0.14228(11)
H12 H 0.5881 0.4412 -0.1815
H13 H 0.7428 0.4354 -0.1733
H14 H 0.7112 0.5376 -0.1044
C13 C 0.71423(19) 0.2559(2) -0.09054(11)
O3 O 0.2575(2) 0.2680(3) -0.12714(14)
C14 C 0.4691(2) 0.2481(2) 0.02781(15)
H15 H 0.3754 0.2518 0.0195
loop_
_geom_bond_atom_site_label_1
_geom_bond_atom_site_label_2
_geom_bond_site_symmetry_1
_geom_bond_site_symmetry_2
C1 H1 1_555 1_555
H2 C1 1_555 1_555
H3 C1 1_555 1_555
O1 C4 1_555 1_555
C2 C3 1_555 1_555
C3 C6 1_555 1_555
N1 O2 1_555 1_555
C4 C2 1_555 1_555
C5 O1 1_555 1_555
H4 C5 1_555 1_555
H5 C5 1_555 1_555
C6 C5 1_555 1_555
H6 C6 1_555 1_555
H7 C6 1_555 1_555
C7 C4 1_555 1_555
H8 C7 1_555 1_555
C8 H9 1_555 1_555
H10 C8 1_555 1_555
H11 C8 1_555 1_555
C9 C2 1_555 1_555
C10 C1 1_555 1_555
C11 N1 1_555 1_555
C12 H12 1_555 1_555
H13 C12 1_555 1_555
H14 C12 1_555 1_555
C13 C8 1_555 1_555
O3 N1 1_555 1_555
C14 C7 1_555 1_555
H15 C14 1_555 1_555
C3 C10 1_555 1_555
C9 C11 1_555 1_555
C9 C13 1_555 1_555
C10 C13 1_555 1_555
C11 C14 1_555 1_555
C12 C13 1_555 1_555

#END
