
#######################################################################
#
#                 Cambridge Crystallographic Data Centre
#                                CCDC 
#
#######################################################################
#
# If this CIF has been generated from an entry in the Cambridge 
# Structural Database, then it will include bibliographic, chemical, 
# crystal, experimental, refinement or atomic coordinate data resulting 
# from the CCDC's data processing and validation procedures.
#
#######################################################################

data_WUDQOD
_chemical_formula_moiety         'C15 H13 N1 O1'
_chemical_name_systematic        3-methyl-3-phenylisoindolin-1-one
_symmetry_cell_setting           rhombohedral
_symmetry_space_group_name_H-M   'R -3'
_symmetry_Int_Tables_number      148
_space_group_name_Hall           '-R 3'
loop_
_symmetry_equiv_pos_site_id
_symmetry_equiv_pos_as_xyz
1 x,y,z
2 -y,x-y,z
3 -x+y,-x,z
4 2/3+x,1/3+y,1/3+z
5 2/3-y,1/3+x-y,1/3+z
6 2/3-x+y,1/3-x,1/3+z
7 1/3+x,2/3+y,2/3+z
8 1/3-y,2/3+x-y,2/3+z
9 1/3-x+y,2/3-x,2/3+z
10 -x,-y,-z
11 y,-x+y,-z
12 x-y,x,-z
13 1/3-x,2/3-y,2/3-z
14 1/3+y,2/3-x+y,2/3-z
15 1/3+x-y,2/3+x,2/3-z
16 2/3-x,1/3-y,1/3-z
17 2/3+y,1/3-x+y,1/3-z
18 2/3+x-y,1/3+x,1/3-z
_cell_length_a                   26.4383(16)
_cell_length_b                   26.4383(16)
_cell_length_c                   8.6956(5)
_cell_angle_alpha                90
_cell_angle_beta                 90
_cell_angle_gamma                120
_cell_volume                     5263.77
_exptl_crystal_colour            colorless
_exptl_crystal_description       block
_cell_formula_units_Z            18
loop_
_atom_site_label
_atom_site_type_symbol
_atom_site_fract_x
_atom_site_fract_y
_atom_site_fract_z
O1 O 0.82946(4) 0.16115(4) 0.87897(11)
N1 N 0.86025(5) 0.24325(5) 0.73002(13)
H1 H 0.8541 0.2258 0.6403
C1 C 0.86464(6) 0.25834(6) 0.98703(15)
C2 C 0.86121(7) 0.25178(7) 1.14528(16)
H2 H 0.8482 0.2147 1.1914
C3 C 0.87733(7) 0.30096(7) 1.23406(17)
H3 H 0.8750 0.2976 1.3429
C4 C 0.89686(7) 0.35507(7) 1.16600(17)
H4 H 0.9076 0.3883 1.2291
C5 C 0.90099(6) 0.36154(6) 1.00756(17)
H5 H 0.9149 0.3987 0.9613
C6 C 0.88430(6) 0.31231(6) 0.91872(16)
C7 C 0.88343(6) 0.30654(6) 0.74500(15)
C8 C 0.84923(6) 0.21432(6) 0.86369(15)
C9 C 0.94531(6) 0.34028(7) 0.67980(17)
H6 H 0.9693 0.3257 0.7261
H7 H 0.9623 0.3819 0.7034
H8 H 0.9440 0.3349 0.5681
C10 C 0.84094(6) 0.32305(6) 0.67203(16)
C11 C 0.85849(7) 0.36913(7) 0.57159(18)
H9 H 0.8988 0.3931 0.5486
C12 C 0.81798(9) 0.38099(8) 0.5033(2)
H10 H 0.8307 0.4127 0.4335
C13 C 0.75983(9) 0.34706(8) 0.5366(2)
H11 H 0.7320 0.3543 0.4872
C14 C 0.74176(8) 0.30225(9) 0.6424(2)
H12 H 0.7016 0.2795 0.6687
C15 C 0.78211(7) 0.29067(8) 0.7095(2)
H13 H 0.7695 0.2600 0.7827
loop_
_geom_bond_atom_site_label_1
_geom_bond_atom_site_label_2
_geom_bond_site_symmetry_1
_geom_bond_site_symmetry_2
O1 C8 1_555 1_555
N1 H1 1_555 1_555
C1 C2 1_555 1_555
C2 H2 1_555 1_555
C3 C2 1_555 1_555
H3 C3 1_555 1_555
C4 C3 1_555 1_555
H4 C4 1_555 1_555
C5 C4 1_555 1_555
H5 C5 1_555 1_555
C6 C1 1_555 1_555
C7 N1 1_555 1_555
C8 N1 1_555 1_555
C9 C7 1_555 1_555
H6 C9 1_555 1_555
H7 C9 1_555 1_555
H8 C9 1_555 1_555
C10 C7 1_555 1_555
C11 C10 1_555 1_555
H9 C11 1_555 1_555
C12 C11 1_555 1_555
H10 C12 1_555 1_555
C13 C12 1_555 1_555
H11 C13 1_555 1_555
C14 C13 1_555 1_555
H12 C14 1_555 1_555
C15 C10 1_555 1_555
H13 C15 1_555 1_555
C1 C8 1_555 1_555
C5 C6 1_555 1_555
C6 C7 1_555 1_555
C14 C15 1_555 1_555

#END
