
#######################################################################
#
#                 Cambridge Crystallographic Data Centre
#                                CCDC 
#
#######################################################################
#
# If this CIF has been generated from an entry in the Cambridge 
# Structural Database, then it will include bibliographic, chemical, 
# crystal, experimental, refinement or atomic coordinate data resulting 
# from the CCDC's data processing and validation procedures.
#
#######################################################################

data_WUDROE
_chemical_formula_moiety         'C38 H34 B1 N1'
_chemical_name_systematic        
2-(2-(dimesitylboryl)phenyl)indolizino[3,4,5-ab]isoindole
_symmetry_cell_setting           triclinic
_symmetry_space_group_name_H-M   'P -1'
_symmetry_Int_Tables_number      2
_space_group_name_Hall           '-P 1'
loop_
_symmetry_equiv_pos_site_id
_symmetry_equiv_pos_as_xyz
1 x,y,z
2 -x,-y,-z
_cell_length_a                   8.8087(5)
_cell_length_b                   11.1753(6)
_cell_length_c                   16.1219(9)
_cell_angle_alpha                72.148(4)
_cell_angle_beta                 78.052(4)
_cell_angle_gamma                74.662(4)
_cell_volume                     1443.04
_exptl_crystal_colour            yellow
_exptl_crystal_description       plate
_cell_formula_units_Z            2
loop_
_atom_site_label
_atom_site_type_symbol
_atom_site_fract_x
_atom_site_fract_y
_atom_site_fract_z
B1 B 0.3188(3) 0.3139(2) 0.19558(14)
N1 N 0.4638(2) -0.10403(15) 0.38742(10)
C1 C 0.4508(2) 0.10510(18) 0.35822(12)
C2 C 0.2980(3) 0.08061(18) 0.38868(12)
H1 H 0.2035 0.1436 0.3959
C3 C 0.3073(2) -0.05231(18) 0.40675(12)
C4 C 0.2316(3) -0.16028(19) 0.43136(12)
C5 C 0.0748(3) -0.1723(2) 0.45964(13)
H2 H -0.0072 -0.0988 0.4640
C6 C 0.0399(3) -0.2920(2) 0.48121(14)
H3 H -0.0667 -0.3009 0.5017
C7 C 0.1587(3) -0.4009(2) 0.47352(13)
H4 H 0.1313 -0.4824 0.4887
C8 C 0.3147(3) -0.3919(2) 0.44428(13)
H5 H 0.3946 -0.4660 0.4385
C9 C 0.3529(3) -0.27195(19) 0.42341(12)
C10 C 0.5034(3) -0.23337(19) 0.39393(12)
C11 C 0.6614(3) -0.2814(2) 0.37048(14)
H6 H 0.6992 -0.3703 0.3732
C12 C 0.7663(3) -0.1971(2) 0.34229(14)
H7 H 0.8759 -0.2312 0.3270
C13 C 0.7176(3) -0.0667(2) 0.33574(13)
H8 H 0.7924 -0.0129 0.3157
C14 C 0.5579(2) -0.01503(18) 0.35875(12)
C15 C 0.4979(2) 0.22967(18) 0.32528(12)
C16 C 0.6141(3) 0.2492(2) 0.36373(13)
H9 H 0.6573 0.1832 0.4113
C17 C 0.6679(3) 0.3624(2) 0.33420(14)
H10 H 0.7486 0.3731 0.3606
C18 C 0.6039(3) 0.4600(2) 0.26605(14)
H11 H 0.6399 0.5384 0.2454
C19 C 0.4873(3) 0.44258(18) 0.22832(13)
H12 H 0.4422 0.5114 0.1827
C20 C 0.4319(2) 0.32800(17) 0.25406(12)
C21 C 0.3272(2) 0.18034(18) 0.17888(12)
C22 C 0.4733(3) 0.1068(2) 0.14742(13)
C23 C 0.4776(3) -0.0130(2) 0.13774(15)
H13 H 0.5761 -0.0609 0.1163
C24 C 0.3452(3) -0.0659(2) 0.15794(16)
C25 C 0.2036(3) 0.0062(2) 0.18749(14)
H14 H 0.1112 -0.0287 0.2025
C26 C 0.1911(3) 0.12845(19) 0.19620(13)
C27 C 0.6245(3) 0.1556(2) 0.12210(15)
H15 H 0.7051 0.1002 0.0904
H16 H 0.6628 0.1547 0.1753
H17 H 0.6041 0.2438 0.0842
C28 C 0.3566(4) -0.1998(2) 0.1497(2)
H18 H 0.2629 -0.2005 0.1261
H19 H 0.3616 -0.2616 0.2077
H20 H 0.4527 -0.2236 0.1098
C29 C 0.0299(3) 0.1991(2) 0.22949(15)
H21 H -0.0531 0.1651 0.2179
H22 H 0.0159 0.2911 0.1992
H23 H 0.0221 0.1871 0.2929
C30 C 0.2058(2) 0.44229(17) 0.14955(12)
C31 C 0.2129(3) 0.48609(19) 0.05728(13)
C32 C 0.1225(3) 0.6059(2) 0.01874(14)
H24 H 0.1312 0.6346 -0.0436
C33 C 0.0216(3) 0.6839(2) 0.06714(15)
C34 C 0.0087(3) 0.6384(2) 0.15803(14)
H25 H -0.0640 0.6890 0.1930
C35 C 0.0990(3) 0.52113(19) 0.19937(13)
C36 C 0.3216(3) 0.4100(2) -0.00275(13)
H26 H 0.2868 0.4413 -0.0610
H27 H 0.3183 0.3188 0.0216
H28 H 0.4305 0.4204 -0.0079
C37 C -0.0708(3) 0.8159(2) 0.02405(17)
H29 H -0.0088 0.8532 -0.0314
H30 H -0.0913 0.8717 0.0634
H31 H -0.1720 0.8082 0.0122
C38 C 0.0777(3) 0.4814(2) 0.29857(13)
H32 H -0.0259 0.5277 0.3211
H33 H 0.1621 0.5022 0.3192
H34 H 0.0829 0.3885 0.3198
loop_
_geom_bond_atom_site_label_1
_geom_bond_atom_site_label_2
_geom_bond_site_symmetry_1
_geom_bond_site_symmetry_2
B1 C20 1_555 1_555
N1 C3 1_555 1_555
C1 C2 1_555 1_555
C2 H1 1_555 1_555
C3 C2 1_555 1_555
C4 C3 1_555 1_555
C5 C4 1_555 1_555
H2 C5 1_555 1_555
C6 C5 1_555 1_555
H3 C6 1_555 1_555
C7 C6 1_555 1_555
H4 C7 1_555 1_555
C8 C7 1_555 1_555
H5 C8 1_555 1_555
C9 C4 1_555 1_555
C10 N1 1_555 1_555
C11 C10 1_555 1_555
H6 C11 1_555 1_555
C12 C11 1_555 1_555
H7 C12 1_555 1_555
C13 C12 1_555 1_555
H8 C13 1_555 1_555
C14 N1 1_555 1_555
C15 C1 1_555 1_555
C16 C15 1_555 1_555
H9 C16 1_555 1_555
C17 C16 1_555 1_555
H10 C17 1_555 1_555
C18 C17 1_555 1_555
H11 C18 1_555 1_555
C19 C18 1_555 1_555
H12 C19 1_555 1_555
C20 C15 1_555 1_555
C21 B1 1_555 1_555
C22 C21 1_555 1_555
C23 C22 1_555 1_555
H13 C23 1_555 1_555
C24 C23 1_555 1_555
C25 C24 1_555 1_555
H14 C25 1_555 1_555
C26 C21 1_555 1_555
C27 C22 1_555 1_555
H15 C27 1_555 1_555
H16 C27 1_555 1_555
H17 C27 1_555 1_555
C28 C24 1_555 1_555
H18 C28 1_555 1_555
H19 C28 1_555 1_555
H20 C28 1_555 1_555
C29 C26 1_555 1_555
H21 C29 1_555 1_555
H22 C29 1_555 1_555
H23 C29 1_555 1_555
C30 B1 1_555 1_555
C31 C30 1_555 1_555
C32 C31 1_555 1_555
H24 C32 1_555 1_555
C33 C32 1_555 1_555
C34 C33 1_555 1_555
H25 C34 1_555 1_555
C35 C30 1_555 1_555
C36 C31 1_555 1_555
H26 C36 1_555 1_555
H27 C36 1_555 1_555
H28 C36 1_555 1_555
C37 C33 1_555 1_555
H29 C37 1_555 1_555
H30 C37 1_555 1_555
H31 C37 1_555 1_555
C38 C35 1_555 1_555
H32 C38 1_555 1_555
H33 C38 1_555 1_555
H34 C38 1_555 1_555
C1 C14 1_555 1_555
C8 C9 1_555 1_555
C9 C10 1_555 1_555
C13 C14 1_555 1_555
C19 C20 1_555 1_555
C25 C26 1_555 1_555
C34 C35 1_555 1_555

#END
