
#######################################################################
#
#                 Cambridge Crystallographic Data Centre
#                                CCDC 
#
#######################################################################
#
# If this CIF has been generated from an entry in the Cambridge 
# Structural Database, then it will include bibliographic, chemical, 
# crystal, experimental, refinement or atomic coordinate data resulting 
# from the CCDC's data processing and validation procedures.
#
#######################################################################

data_WUDRIY
_chemical_formula_moiety         'C32 H32 B1 N1'
_chemical_name_systematic        
2-(dimesitylboryl)-5,5a-dihydroindolizino[3,4,5-ab]isoindole
_symmetry_cell_setting           monoclinic
_symmetry_space_group_name_H-M   'P 21/c'
_symmetry_Int_Tables_number      14
_space_group_name_Hall           '-P 2ybc'
loop_
_symmetry_equiv_pos_site_id
_symmetry_equiv_pos_as_xyz
1 x,y,z
2 -x,1/2+y,1/2-z
3 -x,-y,-z
4 x,1/2-y,1/2+z
_cell_length_a                   10.0993(2)
_cell_length_b                   10.2609(2)
_cell_length_c                   23.8794(5)
_cell_angle_alpha                90
_cell_angle_beta                 97.3582(11)
_cell_angle_gamma                90
_cell_volume                     2454.19
_exptl_crystal_colour            yellow
_exptl_crystal_description       block
_cell_formula_units_Z            4
loop_
_atom_site_label
_atom_site_type_symbol
_atom_site_fract_x
_atom_site_fract_y
_atom_site_fract_z
N1 N 0.5510(3) 0.3540(3) 0.06884(11)
B1 B 0.2626(3) 0.2963(3) 0.14786(14)
C1 C 0.3756(3) 0.2998(3) 0.11060(12)
C2 C 0.3952(3) 0.2057(3) 0.06743(12)
H1 H 0.3422 0.1303 0.0584
C3 C 0.5026(3) 0.2430(3) 0.04163(12)
C4 C 0.5840(3) 0.2253(3) -0.00443(12)
C5 C 0.5789(3) 0.1337(3) -0.04703(13)
H2 H 0.5175 0.0632 -0.0487
C6 C 0.6658(4) 0.1472(4) -0.08731(15)
H3 H 0.6647 0.0839 -0.1164
C7 C 0.7536(3) 0.2503(3) -0.08601(14)
H4 H 0.8106 0.2581 -0.1145
C8 C 0.7596(3) 0.3429(3) -0.04344(13)
H5 H 0.8198 0.4142 -0.0427
C9 C 0.6766(3) 0.3296(3) -0.00232(13)
C10 C 0.6714(5) 0.4081(4) 0.0505(2)
H6 H 0.7441 0.3686 0.0776
C11 C 0.6832(5) 0.5400(4) 0.0628(2)
H7 H 0.6441 0.5899 0.0292
H8 H 0.7792 0.5624 0.0700
C12 C 0.6167(3) 0.5830(3) 0.11298(15)
H9 H 0.6460 0.6623 0.1310
C13 C 0.5209(3) 0.5184(3) 0.13354(12)
H10 H 0.4805 0.5529 0.1641
C14 C 0.4781(3) 0.3938(3) 0.10883(12)
C15 C 0.2590(3) 0.4004(3) 0.19712(12)
C16 C 0.1509(3) 0.4889(3) 0.19526(13)
C17 C 0.1515(3) 0.5853(3) 0.23622(14)
H11 H 0.0797 0.6458 0.2335
C18 C 0.2532(3) 0.5962(3) 0.28077(14)
C19 C 0.3561(3) 0.5082(3) 0.28343(13)
H12 H 0.4258 0.5132 0.3141
C20 C 0.3619(3) 0.4118(3) 0.24278(12)
C21 C 0.4805(3) 0.3200(3) 0.25056(14)
H13 H 0.5632 0.3702 0.2507
H14 H 0.4729 0.2570 0.2195
H15 H 0.4821 0.2736 0.2865
C22 C 0.0340(3) 0.4838(3) 0.14964(14)
H16 H -0.0347 0.5451 0.1585
H17 H -0.0029 0.3953 0.1472
H18 H 0.0633 0.5076 0.1134
C23 C 0.2480(4) 0.7009(4) 0.32510(16)
H19 H 0.1585 0.7035 0.3368
H20 H 0.2685 0.7857 0.3093
H21 H 0.3137 0.6814 0.3579
C24 C 0.1524(3) 0.1866(3) 0.13558(13)
C25 C 0.0701(3) 0.1763(4) 0.08331(14)
C26 C -0.0238(4) 0.0756(4) 0.07391(18)
H22 H -0.0786 0.0710 0.0385
C27 C -0.0389(4) -0.0165(4) 0.1142(2)
C28 C 0.0437(4) -0.0086(4) 0.16516(18)
H23 H 0.0365 -0.0732 0.1931
C29 C 0.1367(3) 0.0907(3) 0.17672(15)
C30 C 0.2207(4) 0.0921(4) 0.23364(15)
H24 H 0.1939 0.0199 0.2566
H25 H 0.2079 0.1749 0.2527
H26 H 0.3150 0.0823 0.2287
C31 C 0.0739(3) 0.2751(4) 0.03663(15)
H27 H 0.0621 0.2306 0.0000
H28 H 0.1601 0.3203 0.0416
H29 H 0.0019 0.3386 0.0380
C32 C -0.1442(5) -0.1227(5) 0.1047(2)
H30 H -0.2015 -0.1193 0.1348
H31 H -0.1004 -0.2080 0.1050
H32 H -0.1985 -0.1092 0.0681
loop_
_geom_bond_atom_site_label_1
_geom_bond_atom_site_label_2
_geom_bond_site_symmetry_1
_geom_bond_site_symmetry_2
N1 C3 1_555 1_555
B1 C1 1_555 1_555
C1 C2 1_555 1_555
C2 H1 1_555 1_555
C3 C2 1_555 1_555
C4 C3 1_555 1_555
C5 C4 1_555 1_555
H2 C5 1_555 1_555
C6 C5 1_555 1_555
H3 C6 1_555 1_555
C7 C6 1_555 1_555
H4 C7 1_555 1_555
C8 C7 1_555 1_555
H5 C8 1_555 1_555
C9 C4 1_555 1_555
C10 N1 1_555 1_555
H6 C10 1_555 1_555
C11 C10 1_555 1_555
H7 C11 1_555 1_555
H8 C11 1_555 1_555
C12 C11 1_555 1_555
H9 C12 1_555 1_555
C13 C12 1_555 1_555
H10 C13 1_555 1_555
C14 N1 1_555 1_555
C15 B1 1_555 1_555
C16 C15 1_555 1_555
C17 C16 1_555 1_555
H11 C17 1_555 1_555
C18 C17 1_555 1_555
C19 C18 1_555 1_555
H12 C19 1_555 1_555
C20 C15 1_555 1_555
C21 C20 1_555 1_555
H13 C21 1_555 1_555
H14 C21 1_555 1_555
H15 C21 1_555 1_555
C22 C16 1_555 1_555
H16 C22 1_555 1_555
H17 C22 1_555 1_555
H18 C22 1_555 1_555
C23 C18 1_555 1_555
H19 C23 1_555 1_555
H20 C23 1_555 1_555
H21 C23 1_555 1_555
C24 B1 1_555 1_555
C25 C24 1_555 1_555
C26 C25 1_555 1_555
H22 C26 1_555 1_555
C27 C26 1_555 1_555
C28 C27 1_555 1_555
H23 C28 1_555 1_555
C29 C24 1_555 1_555
C30 C29 1_555 1_555
H24 C30 1_555 1_555
H25 C30 1_555 1_555
H26 C30 1_555 1_555
C31 C25 1_555 1_555
H27 C31 1_555 1_555
H28 C31 1_555 1_555
H29 C31 1_555 1_555
C32 C27 1_555 1_555
H30 C32 1_555 1_555
H31 C32 1_555 1_555
H32 C32 1_555 1_555
C1 C14 1_555 1_555
C8 C9 1_555 1_555
C9 C10 1_555 1_555
C13 C14 1_555 1_555
C19 C20 1_555 1_555
C28 C29 1_555 1_555

#END
