
#######################################################################
#
#                 Cambridge Crystallographic Data Centre
#                                CCDC 
#
#######################################################################
#
# If this CIF has been generated from an entry in the Cambridge 
# Structural Database, then it will include bibliographic, chemical, 
# crystal, experimental, refinement or atomic coordinate data resulting 
# from the CCDC's data processing and validation procedures.
#
#######################################################################

data_WUDVOG
_chemical_formula_moiety         'C15 H24 N1 S1 1+,Cl1 1-'
_chemical_name_systematic        
'1-(1-(2-Thienyl)cyclohexyl)piperidine hydrochloride'
_symmetry_cell_setting           monoclinic
_symmetry_space_group_name_H-M   'P 21/c'
_symmetry_Int_Tables_number      14
_space_group_name_Hall           '-P 2ybc'
loop_
_symmetry_equiv_pos_site_id
_symmetry_equiv_pos_as_xyz
1 x,y,z
2 -x,1/2+y,1/2-z
3 -x,-y,-z
4 x,1/2-y,1/2+z
_cell_length_a                   8.8550(3)
_cell_length_b                   13.4795(5)
_cell_length_c                   13.0937(4)
_cell_angle_alpha                90
_cell_angle_beta                 105.042(1)
_cell_angle_gamma                90
_cell_volume                     1509.33
_cell_formula_units_Z            4
loop_
_atom_site_label
_atom_site_type_symbol
_atom_site_fract_x
_atom_site_fract_y
_atom_site_fract_z
N1 N 1.0499(1) 0.3880(1) 0.1953(1)
C1 C 1.1542(1) 0.3345(1) 0.2880(1)
C2 C 1.3241(2) 0.3376(1) 0.2831(1)
C3 C 1.3816(2) 0.4435(1) 0.2807(1)
C4 C 1.2740(2) 0.4972(1) 0.1877(1)
C5 C 1.1042(2) 0.4939(1) 0.1935(1)
C6 C 0.8718(1) 0.3763(1) 0.1876(1)
C7 C 0.8397(1) 0.2636(1) 0.1910(1)
C8 C 0.6652(2) 0.2389(1) 0.1605(1)
C9 C 0.5823(2) 0.2797(1) 0.0521(1)
C10 C 0.6086(2) 0.3919(1) 0.0495(1)
C11 C 0.7828(1) 0.4178(1) 0.0786(1)
C12 C 0.8332(1) 0.4307(1) 0.2789(1)
C13 C 0.8397(2) 0.3954(1) 0.3793(1)
C14 C 0.8025(2) 0.4689(1) 0.4462(1)
C15 C 0.7674(2) 0.5574(1) 0.3986(1)
S1 S 0.7778 0.5545 0.2698
Cl1 Cl 1.1118 0.3093 0.0098
loop_
_geom_bond_atom_site_label_1
_geom_bond_atom_site_label_2
_geom_bond_site_symmetry_1
_geom_bond_site_symmetry_2
N1 C1 1_555 1_555
C1 C2 1_555 1_555
C2 C3 1_555 1_555
C3 C4 1_555 1_555
C4 C5 1_555 1_555
C5 N1 1_555 1_555
C6 N1 1_555 1_555
C7 C6 1_555 1_555
C8 C7 1_555 1_555
C9 C8 1_555 1_555
C10 C9 1_555 1_555
C11 C6 1_555 1_555
C12 C6 1_555 1_555
C13 C12 1_555 1_555
C14 C13 1_555 1_555
C15 C14 1_555 1_555
S1 C12 1_555 1_555
C10 C11 1_555 1_555
C15 S1 1_555 1_555

#END
