
#######################################################################
#
#                 Cambridge Crystallographic Data Centre
#                                CCDC 
#
#######################################################################
#
# If this CIF has been generated from an entry in the Cambridge 
# Structural Database, then it will include bibliographic, chemical, 
# crystal, experimental, refinement or atomic coordinate data resulting 
# from the CCDC's data processing and validation procedures.
#
#######################################################################

data_WUDXOJ
_chemical_formula_moiety         'C14 H8 Br2 N2 S2'
_chemical_name_systematic        
2,3-bis(5-bromo-2-methyl-3-thienyl)but-2-enedinitrile
_symmetry_cell_setting           triclinic
_symmetry_space_group_name_H-M   'P -1'
_symmetry_Int_Tables_number      2
_space_group_name_Hall           '-P 1'
loop_
_symmetry_equiv_pos_site_id
_symmetry_equiv_pos_as_xyz
1 x,y,z
2 -x,-y,-z
_cell_length_a                   6.9410(5)
_cell_length_b                   11.0150(9)
_cell_length_c                   11.1760(8)
_cell_angle_alpha                70.3390(10)
_cell_angle_beta                 76.1860(10)
_cell_angle_gamma                79.5490(10)
_cell_volume                     776.587
_exptl_crystal_colour            yellow
_exptl_crystal_description       block
_cell_formula_units_Z            2
loop_
_atom_site_label
_atom_site_type_symbol
_atom_site_fract_x
_atom_site_fract_y
_atom_site_fract_z
Br1 Br -0.73737(11) 1.08480(7) 0.87654(8)
Br2 Br 0.37314(11) 0.62384(8) 0.35343(7)
S1 S -0.2906(3) 1.02610(15) 0.76200(18)
S2 S -0.0647(2) 0.73367(15) 0.42186(14)
C1 C -0.2499(8) 0.6411(5) 0.8863(5)
C2 C -0.1016(8) 0.4331(6) 0.8630(5)
C3 C -0.1709(9) 0.8717(6) 0.7819(6)
C4 C -0.0842(8) 0.6224(5) 0.6638(5)
C5 C -0.3011(8) 0.7823(5) 0.8514(5)
C6 C -0.1491(7) 0.5717(5) 0.8058(5)
N1 N -0.3595(9) 0.5109(6) 1.1265(5)
C7 C -0.2006(8) 0.7005(5) 0.5787(5)
C8 C 0.1140(8) 0.5870(5) 0.6020(5)
H1 H 0.2105 0.5322 0.6460
C9 C 0.1440(8) 0.6418(5) 0.4735(5)
C10 C -0.4982(8) 0.8388(6) 0.8932(5)
H2 H -0.6022 0.7910 0.9446
C11 C -0.3130(8) 0.5681(6) 1.0211(6)
C12 C -0.4156(9) 0.7520(6) 0.6011(6)
H3 H -0.4518 0.8044 0.5200
H4 H -0.4379 0.8038 0.6581
H5 H -0.4956 0.6811 0.6395
N2 N -0.0647(9) 0.3255(6) 0.9062(6)
C13 C -0.5143(9) 0.9683(6) 0.8494(6)
C14 C 0.0469(9) 0.8532(7) 0.7297(7)
H6 H 0.0948 0.9363 0.6846
H7 H 0.0702 0.8031 0.6711
H8 H 0.1162 0.8084 0.7998
loop_
_geom_bond_atom_site_label_1
_geom_bond_atom_site_label_2
_geom_bond_site_symmetry_1
_geom_bond_site_symmetry_2
Br1 C13 1_555 1_555
Br2 C9 1_555 1_555
S1 C3 1_555 1_555
S2 C7 1_555 1_555
C1 C5 1_555 1_555
C2 C6 1_555 1_555
C3 C5 1_555 1_555
C4 C6 1_555 1_555
C5 C10 1_555 1_555
C6 C1 1_555 1_555
N1 C11 1_555 1_555
C7 C4 1_555 1_555
C8 C4 1_555 1_555
H1 C8 1_555 1_555
C9 S2 1_555 1_555
C10 H2 1_555 1_555
C11 C1 1_555 1_555
C12 C7 1_555 1_555
H3 C12 1_555 1_555
H4 C12 1_555 1_555
H5 C12 1_555 1_555
N2 C2 1_555 1_555
C13 S1 1_555 1_555
C14 C3 1_555 1_555
H6 C14 1_555 1_555
H7 C14 1_555 1_555
H8 C14 1_555 1_555
C8 C9 1_555 1_555
C10 C13 1_555 1_555

#END
