
#######################################################################
#
#                 Cambridge Crystallographic Data Centre
#                                CCDC 
#
#######################################################################
#
# If this CIF has been generated from an entry in the Cambridge 
# Structural Database, then it will include bibliographic, chemical, 
# crystal, experimental, refinement or atomic coordinate data resulting 
# from the CCDC's data processing and validation procedures.
#
#######################################################################

data_WUDYIE
_chemical_formula_moiety         'C22 H16 F1 N1 O5'
_chemical_name_systematic        
'Ethyl 2-amino-4-(3-fluorophenyl)-5,10-dioxo-5,10-dihydro-4H-benzo[g]chromene-3-carboxylate'
_symmetry_cell_setting           triclinic
_symmetry_space_group_name_H-M   'P -1'
_symmetry_Int_Tables_number      2
_space_group_name_Hall           '-P 1'
loop_
_symmetry_equiv_pos_site_id
_symmetry_equiv_pos_as_xyz
1 x,y,z
2 -x,-y,-z
_cell_length_a                   8.6420(17)
_cell_length_b                   9.761(2)
_cell_length_c                   11.132(2)
_cell_angle_alpha                97.51(3)
_cell_angle_beta                 97.86(3)
_cell_angle_gamma                92.85(3)
_cell_volume                     920.047
_exptl_crystal_colour            orange
_exptl_crystal_description       block
_cell_formula_units_Z            2
loop_
_atom_site_label
_atom_site_type_symbol
_atom_site_fract_x
_atom_site_fract_y
_atom_site_fract_z
F1 F 0.6745(3) 0.5453(2) -0.00200(19)
O1 O 0.4815(2) 0.59992(19) 0.61845(17)
O2 O 0.9798(2) 0.8387(2) 0.47174(18)
O3 O 0.43182(19) 0.76941(18) 0.45366(16)
O4 O 0.3395(2) 1.0758(2) 0.22566(17)
O5 O 0.5954(2) 1.09489(19) 0.20829(18)
N1 N 0.2490(2) 0.8825(3) 0.3554(2)
H1 H 0.1838 0.8418 0.3962
H2 H 0.2199 0.9479 0.3097
C1 C 0.5842(3) 0.7457(2) 0.4908(2)
C2 C 0.5981(3) 0.6471(2) 0.5828(2)
C3 C 0.7588(3) 0.6084(2) 0.6251(2)
C4 C 0.7822(5) 0.5075(3) 0.7028(3)
H3 H 0.6972 0.4650 0.7298
C5 C 0.9318(5) 0.4711(3) 0.7393(3)
H4 H 0.9468 0.4033 0.7903
C6 C 1.0596(5) 0.5339(3) 0.7012(3)
H5 H 1.1596 0.5076 0.7262
C7 C 1.0398(4) 0.6359(3) 0.6259(3)
H6 H 1.1262 0.6797 0.6018
C8 C 0.8890(3) 0.6723(2) 0.5866(2)
C9 C 0.8673(3) 0.7768(3) 0.5004(2)
C10 C 0.7064(3) 0.8042(2) 0.4491(2)
C11 C 0.6878(3) 0.9003(2) 0.3518(2)
H7 H 0.7507 0.9868 0.3842
C12 C 0.5170(3) 0.9340(2) 0.3282(2)
C13 C 0.4030(3) 0.8678(3) 0.3758(2)
C14 C 0.4724(3) 1.0390(3) 0.2511(2)
C15 C 0.5609(4) 1.1920(3) 0.1194(3)
H8 H 0.5490 1.2835 0.1616
H9 H 0.4643 1.1611 0.0652
C16 C 0.6929(4) 1.1967(3) 0.0483(3)
H10 H 0.7874 1.2291 0.1026
H11 H 0.6727 1.2586 -0.0114
H12 H 0.7043 1.1056 0.0077
C17 C 0.7493(3) 0.8370(3) 0.2363(2)
C18 C 0.8755(3) 0.9050(3) 0.1961(3)
H13 H 0.9222 0.9873 0.2409
C19 C 0.9312(4) 0.8503(4) 0.0899(3)
H14 H 1.0154 0.8959 0.0645
C20 C 0.8640(4) 0.7309(4) 0.0228(3)
H15 H 0.9001 0.6948 -0.0489
C21 C 0.7410(4) 0.6645(3) 0.0634(3)
C22 C 0.6808(3) 0.7148(3) 0.1688(2)
H16 H 0.5970 0.6677 0.1933
loop_
_geom_bond_atom_site_label_1
_geom_bond_atom_site_label_2
_geom_bond_site_symmetry_1
_geom_bond_site_symmetry_2
F1 C21 1_555 1_555
O1 C2 1_555 1_555
O2 C9 1_555 1_555
O3 C1 1_555 1_555
O4 C14 1_555 1_555
O5 C14 1_555 1_555
N1 H1 1_555 1_555
H2 N1 1_555 1_555
C1 C2 1_555 1_555
C2 C3 1_555 1_555
C3 C4 1_555 1_555
C4 H3 1_555 1_555
C5 C4 1_555 1_555
H4 C5 1_555 1_555
C6 C5 1_555 1_555
H5 C6 1_555 1_555
C7 C6 1_555 1_555
H6 C7 1_555 1_555
C8 C3 1_555 1_555
C9 C8 1_555 1_555
C10 C1 1_555 1_555
C11 C10 1_555 1_555
H7 C11 1_555 1_555
C12 C11 1_555 1_555
C13 O3 1_555 1_555
C14 C12 1_555 1_555
C15 O5 1_555 1_555
H8 C15 1_555 1_555
H9 C15 1_555 1_555
C16 C15 1_555 1_555
H10 C16 1_555 1_555
H11 C16 1_555 1_555
H12 C16 1_555 1_555
C17 C11 1_555 1_555
C18 C17 1_555 1_555
H13 C18 1_555 1_555
C19 C18 1_555 1_555
H14 C19 1_555 1_555
C20 C19 1_555 1_555
H15 C20 1_555 1_555
C21 C20 1_555 1_555
C22 C17 1_555 1_555
H16 C22 1_555 1_555
N1 C13 1_555 1_555
C7 C8 1_555 1_555
C9 C10 1_555 1_555
C12 C13 1_555 1_555
C21 C22 1_555 1_555

#END
