
#######################################################################
#
#                 Cambridge Crystallographic Data Centre
#                                CCDC 
#
#######################################################################
#
# If this CIF has been generated from an entry in the Cambridge 
# Structural Database, then it will include bibliographic, chemical, 
# crystal, experimental, refinement or atomic coordinate data resulting 
# from the CCDC's data processing and validation procedures.
#
#######################################################################

data_WUDYUQ
_chemical_formula_moiety         'C25 H18 N2 O3 S1'
_chemical_name_systematic        
N-(3-(4-Methoxyphenyl)-4-phenyl-1,3-thiazol-2(3H)-ylidene)-1-benzofuran-2-carboxamide
_symmetry_cell_setting           monoclinic
_symmetry_space_group_name_H-M   'P 21/c'
_symmetry_Int_Tables_number      14
_space_group_name_Hall           '-P 2ybc'
loop_
_symmetry_equiv_pos_site_id
_symmetry_equiv_pos_as_xyz
1 x,y,z
2 -x,1/2+y,1/2-z
3 -x,-y,-z
4 x,1/2-y,1/2+z
_cell_length_a                   10.8565(14)
_cell_length_b                   10.7269(15)
_cell_length_c                   18.506(2)
_cell_angle_alpha                90
_cell_angle_beta                 101.100(2)
_cell_angle_gamma                90
_cell_volume                     2114.83
_exptl_crystal_colour            colorless
_exptl_crystal_description       block
_cell_formula_units_Z            4
loop_
_atom_site_label
_atom_site_type_symbol
_atom_site_fract_x
_atom_site_fract_y
_atom_site_fract_z
C1 C -0.0875(2) -0.0159(3) -0.24874(13)
H1 H -0.0633 -0.1015 -0.2518
H2 H -0.1235 0.0142 -0.2971
H3 H -0.1483 -0.0093 -0.2175
C2 C 0.08954(18) 0.0193(2) -0.15260(10)
C3 C 0.05629(19) -0.0745(2) -0.11050(12)
H4 H -0.0184 -0.1177 -0.1260
C4 C 0.13437(19) -0.1049(2) -0.04456(11)
H5 H 0.1117 -0.1682 -0.0154
C5 C 0.24417(16) -0.04252(18) -0.02229(9)
C6 C 0.27718(18) 0.0534(2) -0.06376(10)
H6 H 0.3514 0.0971 -0.0478
C7 C 0.19971(19) 0.0842(2) -0.12896(10)
H7 H 0.2215 0.1491 -0.1574
C8 C 0.38849(16) -0.19384(19) 0.05674(9)
C9 C 0.38002(16) -0.28613(19) -0.00311(10)
C10 C 0.41281(19) -0.2562(2) -0.06991(10)
H8 H 0.4380 -0.1754 -0.0782
C11 C 0.4083(2) -0.3449(3) -0.12382(12)
H9 H 0.4310 -0.3237 -0.1682
C12 C 0.3710(2) -0.4635(3) -0.11301(13)
H10 H 0.3673 -0.5227 -0.1501
C13 C 0.3390(2) -0.4954(2) -0.04707(15)
H11 H 0.3139 -0.5764 -0.0394
C14 C 0.3441(2) -0.4069(2) 0.00774(12)
H12 H 0.3230 -0.4291 0.0524
C15 C 0.45392(18) -0.2035(2) 0.12565(10)
H13 H 0.4996 -0.2741 0.1434
C16 C 0.34536(16) -0.0018(2) 0.10529(9)
C17 C 0.32240(18) 0.1819(2) 0.16265(10)
C18 C 0.25909(18) 0.3028(2) 0.15313(9)
C19 C 0.1626(2) 0.3471(2) 0.10303(11)
H14 H 0.1175 0.3037 0.0630
C20 C 0.1422(2) 0.4729(2) 0.12262(11)
C21 C 0.2336(2) 0.4957(2) 0.18526(11)
C22 C 0.2508(3) 0.6082(2) 0.22023(16)
H15 H 0.3139 0.6205 0.2613
C23 C 0.1709(3) 0.7015(3) 0.19187(19)
H16 H 0.1792 0.7794 0.2144
C24 C 0.0772(3) 0.6831(3) 0.12997(18)
H17 H 0.0247 0.7491 0.1118
C25 C 0.0605(3) 0.5693(3) 0.09515(14)
H18 H -0.0034 0.5571 0.0544
N1 N 0.32693(13) -0.07824(15) 0.04559(7)
N2 N 0.29106(15) 0.10810(16) 0.10259(8)
O1 O 0.39658(14) 0.15605(14) 0.22032(7)
O2 O 0.30351(13) 0.39161(14) 0.20506(7)
O3 O 0.02025(13) 0.05701(17) -0.21883(7)
S1 S 0.44531(5) -0.07265(5) 0.17821(2)
loop_
_geom_bond_atom_site_label_1
_geom_bond_atom_site_label_2
_geom_bond_site_symmetry_1
_geom_bond_site_symmetry_2
C1 H1 1_555 1_555
H2 C1 1_555 1_555
H3 C1 1_555 1_555
C2 C3 1_555 1_555
C3 H4 1_555 1_555
C4 C3 1_555 1_555
H5 C4 1_555 1_555
C5 C4 1_555 1_555
C6 C5 1_555 1_555
H6 C6 1_555 1_555
C7 C2 1_555 1_555
H7 C7 1_555 1_555
C8 C9 1_555 1_555
C9 C10 1_555 1_555
C10 H8 1_555 1_555
C11 C10 1_555 1_555
H9 C11 1_555 1_555
C12 C11 1_555 1_555
H10 C12 1_555 1_555
C13 C12 1_555 1_555
H11 C13 1_555 1_555
C14 C9 1_555 1_555
H12 C14 1_555 1_555
C15 C8 1_555 1_555
H13 C15 1_555 1_555
C16 N1 1_555 1_555
C17 C18 1_555 1_555
C18 C19 1_555 1_555
C19 H14 1_555 1_555
C20 C19 1_555 1_555
C21 C20 1_555 1_555
C22 C21 1_555 1_555
H15 C22 1_555 1_555
C23 C22 1_555 1_555
H16 C23 1_555 1_555
C24 C23 1_555 1_555
H17 C24 1_555 1_555
C25 C20 1_555 1_555
H18 C25 1_555 1_555
N1 C5 1_555 1_555
N2 C16 1_555 1_555
O1 C17 1_555 1_555
O2 C18 1_555 1_555
O3 C1 1_555 1_555
S1 C15 1_555 1_555
C2 O3 1_555 1_555
C6 C7 1_555 1_555
C8 N1 1_555 1_555
C13 C14 1_555 1_555
C16 S1 1_555 1_555
C17 N2 1_555 1_555
C21 O2 1_555 1_555
C24 C25 1_555 1_555

#END
