
#######################################################################
#
#                 Cambridge Crystallographic Data Centre
#                                CCDC 
#
#######################################################################
#
# If this CIF has been generated from an entry in the Cambridge 
# Structural Database, then it will include bibliographic, chemical, 
# crystal, experimental, refinement or atomic coordinate data resulting 
# from the CCDC's data processing and validation procedures.
#
#######################################################################

data_WUDYEA
_chemical_formula_moiety         'C22 H16 F1 N1 O5'
_chemical_name_systematic        
'Ethyl 2-amino-4-(4-fluorophenyl)-5,10-dioxo-5,10-dihydro-4H-benzo[g]chromene-3-carboxylate'
_symmetry_cell_setting           monoclinic
_symmetry_space_group_name_H-M   'P 21/c'
_symmetry_Int_Tables_number      14
_space_group_name_Hall           '-P 2ybc'
loop_
_symmetry_equiv_pos_site_id
_symmetry_equiv_pos_as_xyz
1 x,y,z
2 -x,1/2+y,1/2-z
3 -x,-y,-z
4 x,1/2-y,1/2+z
_cell_length_a                   8.575(3)
_cell_length_b                   9.590(3)
_cell_length_c                   21.431(6)
_cell_angle_alpha                90
_cell_angle_beta                 91.172(3)
_cell_angle_gamma                90
_cell_volume                     1761.99
_exptl_crystal_colour            orange
_exptl_crystal_description       block
_cell_formula_units_Z            4
loop_
_atom_site_label
_atom_site_type_symbol
_atom_site_fract_x
_atom_site_fract_y
_atom_site_fract_z
F1 F 0.52278(9) 0.77186(8) 0.30301(3)
O1 O 0.50466(9) 0.84763(8) 0.01480(4)
O2 O 1.01250(10) 0.57961(8) -0.06145(4)
O3 O 1.04904(9) 0.77604(8) 0.02432(4)
O4 O 1.12185(9) 1.11979(9) 0.14394(4)
O5 O 0.86199(9) 1.15940(8) 0.13972(4)
N1 N 1.22373(12) 0.90371(12) 0.07671(5)
C1 C 0.61810(13) 0.77901(11) -0.00057(5)
C2 C 0.60222(13) 0.65801(11) -0.04353(5)
C3 C 0.45399(14) 0.61404(12) -0.06249(5)
H1 H 0.3642 0.6640 -0.0500
C4 C 0.43869(15) 0.49616(12) -0.09993(5)
H2 H 0.3378 0.4647 -0.1125
C5 C 0.56978(15) 0.42405(12) -0.11915(6)
H3 H 0.5580 0.3435 -0.1446
C6 C 0.71758(14) 0.46897(12) -0.10133(5)
H4 H 0.8070 0.4203 -0.1151
C7 C 0.73461(13) 0.58634(12) -0.06305(5)
C8 C 0.89313(13) 0.63206(12) -0.04242(5)
C9 C 0.89927(13) 0.74750(11) 0.00469(5)
C10 C 0.77374(12) 0.81554(11) 0.02514(5)
C11 C 0.78337(12) 0.93030(11) 0.07350(5)
H5 H 0.7264 1.0138 0.0569
C12 C 0.95289(12) 0.96919(12) 0.08465(5)
C13 C 1.07196(13) 0.88897(12) 0.06334(5)
C14 C 0.70823(13) 0.88511(11) 0.13444(5)
C15 C 0.77626(13) 0.77981(12) 0.17046(5)
H6 H 0.8660 0.7332 0.1557
C16 C 0.71570(14) 0.74136(13) 0.22764(5)
H7 H 0.7632 0.6700 0.2522
C17 C 0.58496(14) 0.80990(13) 0.24753(5)
C18 C 0.51415(14) 0.91511(13) 0.21381(6)
H8 H 0.4244 0.9610 0.2290
C19 C 0.57725(13) 0.95290(12) 0.15670(5)
H9 H 0.5303 1.0256 0.1328
C20 C 0.99052(13) 1.08679(12) 0.12488(5)
C21 C 0.87932(15) 1.26618(13) 0.18738(6)
H10 H 0.8029 1.3418 0.1794
H11 H 0.9854 1.3067 0.1861
C22 C 0.85280(15) 1.20293(15) 0.25101(6)
H12 H 0.8572 1.2764 0.2828
H13 H 0.9339 1.1334 0.2601
H14 H 0.7502 1.1580 0.2513
H15 H 1.2962(19) 0.8595(16) 0.0549(7)
H16 H 1.245(2) 0.9794(19) 0.1016(9)
loop_
_geom_bond_atom_site_label_1
_geom_bond_atom_site_label_2
_geom_bond_site_symmetry_1
_geom_bond_site_symmetry_2
F1 C17 1_555 1_555
O1 C1 1_555 1_555
O2 C8 1_555 1_555
O3 C9 1_555 1_555
O4 C20 1_555 1_555
O5 C20 1_555 1_555
N1 C13 1_555 1_555
C1 C2 1_555 1_555
C2 C3 1_555 1_555
C3 H1 1_555 1_555
C4 C3 1_555 1_555
H2 C4 1_555 1_555
C5 C4 1_555 1_555
H3 C5 1_555 1_555
C6 C5 1_555 1_555
H4 C6 1_555 1_555
C7 C2 1_555 1_555
C8 C7 1_555 1_555
C9 C8 1_555 1_555
C10 C1 1_555 1_555
C11 C10 1_555 1_555
H5 C11 1_555 1_555
C12 C11 1_555 1_555
C13 O3 1_555 1_555
C14 C11 1_555 1_555
C15 C14 1_555 1_555
H6 C15 1_555 1_555
C16 C15 1_555 1_555
H7 C16 1_555 1_555
C17 C16 1_555 1_555
C18 C17 1_555 1_555
H8 C18 1_555 1_555
C19 C14 1_555 1_555
H9 C19 1_555 1_555
C20 C12 1_555 1_555
C21 O5 1_555 1_555
H10 C21 1_555 1_555
H11 C21 1_555 1_555
C22 C21 1_555 1_555
H12 C22 1_555 1_555
H13 C22 1_555 1_555
H14 C22 1_555 1_555
H15 N1 1_555 1_555
H16 N1 1_555 1_555
C6 C7 1_555 1_555
C9 C10 1_555 1_555
C12 C13 1_555 1_555
C18 C19 1_555 1_555

#END
