
#######################################################################
#
#                 Cambridge Crystallographic Data Centre
#                                CCDC 
#
#######################################################################
#
# If this CIF has been generated from an entry in the Cambridge 
# Structural Database, then it will include bibliographic, chemical, 
# crystal, experimental, refinement or atomic coordinate data resulting 
# from the CCDC's data processing and validation procedures.
#
#######################################################################

data_WUFHEM
_chemical_formula_moiety         'C60 H38 N4'
_chemical_name_systematic        5,10,15,20-tetrakis(1-naphthyl)porphyrin
_symmetry_cell_setting           tetragonal
_symmetry_space_group_name_H-M   'I 4/m'
_symmetry_Int_Tables_number      87
_space_group_name_Hall           '-I 4'
loop_
_symmetry_equiv_pos_site_id
_symmetry_equiv_pos_as_xyz
1 x,y,z
2 -x,-y,z
3 -y,x,z
4 y,-x,z
5 1/2+x,1/2+y,1/2+z
6 1/2-x,1/2-y,1/2+z
7 1/2-y,1/2+x,1/2+z
8 1/2+y,1/2-x,1/2+z
9 -x,-y,-z
10 x,y,-z
11 y,-x,-z
12 -y,x,-z
13 1/2-x,1/2-y,1/2-z
14 1/2+x,1/2+y,1/2-z
15 1/2+y,1/2-x,1/2-z
16 1/2-y,1/2+x,1/2-z
_cell_length_a                   13.4131(8)
_cell_length_b                   13.4131(8)
_cell_length_c                   12.342(3)
_cell_angle_alpha                90
_cell_angle_beta                 90
_cell_angle_gamma                90
_cell_volume                     2220.46
_cell_formula_units_Z            2
loop_
_atom_site_label
_atom_site_type_symbol
_atom_site_fract_x
_atom_site_fract_y
_atom_site_fract_z
N1 N 0.1465(3) 1.0401(3) 1.0236(6)
C1 C 0.1831(4) 1.1360(4) 1.0302(5)
C2 C 0.2905(4) 1.1305(4) 1.0334(5)
C3 C 0.3170(4) 1.0349(4) 1.0310(6)
C4 C 0.2269(4) 0.9773(4) 1.0275(6)
C5 C 0.2221(4) 0.8726(4) 1.0340(5)
C6 C 0.3190(4) 0.8185(4) 1.0523(5)
C7 C 0.3511(11) 0.8023(16) 1.1586(8)
C8 C 0.4416(6) 0.7514(6) 1.1774(7)
C9 C 0.4991(10) 0.7123(12) 1.0981(7)
C10 C 0.4637(3) 0.7279(3) 1.0000
C11 C 0.3762(4) 0.7805(4) 0.9654(5)
C12 C 0.3466(13) 0.7950(18) 0.8601(7)
C13 C 0.3990(6) 0.7562(7) 0.7718(8)
C14 C 0.4866(5) 0.7034(6) 0.7972(7)
C15 C 0.5133(10) 0.6904(12) 0.9058(7)
N1B N -0.0401(3) 1.1465(3) 1.0236(6)
C1B C -0.1360(4) 1.1831(4) 1.0302(5)
C2B C -0.1305(4) 1.2905(4) 1.0334(5)
C3B C -0.0349(4) 1.3170(4) 1.0310(6)
C4B C 0.0227(4) 1.2269(4) 1.0275(6)
C5B C 0.1274(4) 1.2221(4) 1.0340(5)
C6B C 0.1815(4) 1.3190(4) 1.0523(5)
C7B C 0.1977(16) 1.3511(11) 1.1586(8)
C8B C 0.2486(6) 1.4416(6) 1.1774(7)
C9B C 0.2877(12) 1.4991(10) 1.0981(7)
C10B C 0.2721(3) 1.4637(3) 1.0000
C11B C 0.2195(4) 1.3762(4) 0.9654(5)
C12B C 0.2050(18) 1.3466(13) 0.8601(7)
C13B C 0.2438(7) 1.3990(6) 0.7718(8)
C14B C 0.2966(6) 1.4866(5) 0.7972(7)
C15B C 0.3096(12) 1.5133(10) 0.9058(7)
N1C N 0.0401(3) 0.8535(3) 1.0236(6)
C1C C 0.1360(4) 0.8169(4) 1.0302(5)
C2C C 0.1305(4) 0.7095(4) 1.0334(5)
C3C C 0.0349(4) 0.6830(4) 1.0310(6)
C4C C -0.0227(4) 0.7731(4) 1.0275(6)
C5C C -0.1274(4) 0.7779(4) 1.0340(5)
C6C C -0.1815(4) 0.6810(4) 1.0523(5)
C7C C -0.1977(16) 0.6489(11) 1.1586(8)
C8C C -0.2486(6) 0.5584(6) 1.1774(7)
C9C C -0.2877(12) 0.5009(10) 1.0981(7)
C10C C -0.2721(3) 0.5363(3) 1.0000
C11C C -0.2195(4) 0.6238(4) 0.9654(5)
C12C C -0.2050(18) 0.6534(13) 0.8601(7)
C13C C -0.2438(7) 0.6010(6) 0.7718(8)
C14C C -0.2966(6) 0.5134(5) 0.7972(7)
C15C C -0.3096(12) 0.4867(10) 0.9058(7)
N1I N 0.1465(3) 1.0401(3) 0.9764(6)
C1I C 0.1831(4) 1.1360(4) 0.9698(5)
C2I C 0.2905(4) 1.1305(4) 0.9666(5)
C3I C 0.3170(4) 1.0349(4) 0.9690(6)
C4I C 0.2269(4) 0.9773(4) 0.9725(6)
C5I C 0.2221(4) 0.8726(4) 0.9660(5)
C6I C 0.3190(4) 0.8185(4) 0.9477(5)
C7I C 0.3511(11) 0.8023(16) 0.8414(8)
C8I C 0.4416(6) 0.7514(6) 0.8226(7)
C9I C 0.4991(10) 0.7123(12) 0.9019(7)
C11I C 0.3762(4) 0.7805(4) 1.0346(5)
C12I C 0.3466(13) 0.7950(18) 1.1399(7)
C13I C 0.3990(6) 0.7562(7) 1.2282(8)
C14I C 0.4866(5) 0.7034(6) 1.2028(7)
C15I C 0.5133(10) 0.6904(12) 1.0942(7)
N1J N 0.0401(3) 0.8535(3) 0.9764(6)
C1J C 0.1360(4) 0.8169(4) 0.9698(5)
C2J C 0.1305(4) 0.7095(4) 0.9666(5)
C3J C 0.0349(4) 0.6830(4) 0.9690(6)
C4J C -0.0227(4) 0.7731(4) 0.9725(6)
C5J C -0.1274(4) 0.7779(4) 0.9660(5)
C6J C -0.1815(4) 0.6810(4) 0.9477(5)
C7J C -0.1977(16) 0.6489(11) 0.8414(8)
C8J C -0.2486(6) 0.5584(6) 0.8226(7)
C9J C -0.2877(12) 0.5009(10) 0.9019(7)
C11J C -0.2195(4) 0.6238(4) 1.0346(5)
C12J C -0.2050(18) 0.6534(13) 1.1399(7)
C13J C -0.2438(7) 0.6010(6) 1.2282(8)
C14J C -0.2966(6) 0.5134(5) 1.2028(7)
C15J C -0.3096(12) 0.4867(10) 1.0942(7)
N1K N -0.0401(3) 1.1465(3) 0.9764(6)
C1K C -0.1360(4) 1.1831(4) 0.9698(5)
C2K C -0.1305(4) 1.2905(4) 0.9666(5)
C3K C -0.0349(4) 1.3170(4) 0.9690(6)
C4K C 0.0227(4) 1.2269(4) 0.9725(6)
C5K C 0.1274(4) 1.2221(4) 0.9660(5)
C6K C 0.1815(4) 1.3190(4) 0.9477(5)
C7K C 0.1977(16) 1.3511(11) 0.8414(8)
C8K C 0.2486(6) 1.4416(6) 0.8226(7)
C9K C 0.2877(12) 1.4991(10) 0.9019(7)
C11K C 0.2195(4) 1.3762(4) 1.0346(5)
C12K C 0.2050(18) 1.3466(13) 1.1399(7)
C13K C 0.2438(7) 1.3990(6) 1.2282(8)
C14K C 0.2966(6) 1.4866(5) 1.2028(7)
C15K C 0.3096(12) 1.5133(10) 1.0942(7)
N1A N -0.1465(3) 0.9599(3) 1.0236(6)
C1A C -0.1831(4) 0.8640(4) 1.0302(5)
C2A C -0.2905(4) 0.8695(4) 1.0334(5)
C3A C -0.3170(4) 0.9651(4) 1.0310(6)
C4A C -0.2269(4) 1.0227(4) 1.0275(6)
C5A C -0.2221(4) 1.1274(4) 1.0340(5)
C6A C -0.3190(4) 1.1815(4) 1.0523(5)
C7A C -0.3511(11) 1.1977(16) 1.1586(8)
C8A C -0.4416(6) 1.2486(6) 1.1774(7)
C9A C -0.4991(10) 1.2877(12) 1.0981(7)
C10A C -0.4637(3) 1.2721(3) 1.0000
C11A C -0.3762(4) 1.2195(4) 0.9654(5)
C12A C -0.3466(13) 1.2050(18) 0.8601(7)
C13A C -0.3990(6) 1.2438(7) 0.7718(8)
C14A C -0.4866(5) 1.2966(6) 0.7972(7)
C15A C -0.5133(10) 1.3096(12) 0.9058(7)
N1H N -0.1465(3) 0.9599(3) 0.9764(6)
C1H C -0.1831(4) 0.8640(4) 0.9698(5)
C2H C -0.2905(4) 0.8695(4) 0.9666(5)
C3H C -0.3170(4) 0.9651(4) 0.9690(6)
C4H C -0.2269(4) 1.0227(4) 0.9725(6)
C5H C -0.2221(4) 1.1274(4) 0.9660(5)
C6H C -0.3190(4) 1.1815(4) 0.9477(5)
C7H C -0.3511(11) 1.1977(16) 0.8414(8)
C8H C -0.4416(6) 1.2486(6) 0.8226(7)
C9H C -0.4991(10) 1.2877(12) 0.9019(7)
C11H C -0.3762(4) 1.2195(4) 1.0346(5)
C12H C -0.3466(13) 1.2050(18) 1.1399(7)
C13H C -0.3990(6) 1.2438(7) 1.2282(8)
C14H C -0.4866(5) 1.2966(6) 1.2028(7)
C15H C -0.5133(10) 1.3096(12) 1.0942(7)
H1? H 0.0821 1.0222 1.0182
H2? H 0.3350 1.1864 1.0369
H3? H 0.3837 1.0089 1.0308
H4? H 0.3115 0.8268 1.2177
H5? H 0.4622 0.7436 1.2514
H6? H 0.5606 0.6781 1.1122
H7? H 0.2871 0.8328 0.8466
H8? H 0.3773 0.7641 0.6982
H9? H 0.5282 0.6769 0.7408
H10? H 0.5729 0.6528 0.9190
loop_
_geom_bond_atom_site_label_1
_geom_bond_atom_site_label_2
_geom_bond_site_symmetry_1
_geom_bond_site_symmetry_2
N1 C1 1_555 1_555
C1 C2 1_555 1_555
C2 C3 1_555 1_555
C3 C4 1_555 1_555
C4 N1 1_555 1_555
C5 C4 1_555 1_555
C6 C5 1_555 1_555
C7 C6 1_555 1_555
C8 C7 1_555 1_555
C9 C8 1_555 1_555
C10 C9 1_555 1_555
C11 C6 1_555 1_555
C12 C11 1_555 1_555
C13 C12 1_555 1_555
C14 C13 1_555 1_555
C15 C10 1_555 1_555
N1B C1B 1_555 1_555
C1B C2B 1_555 1_555
C2B C3B 1_555 1_555
C3B C4B 1_555 1_555
C4B N1B 1_555 1_555
C5B C1 1_555 1_555
C6B C5B 1_555 1_555
C7B C6B 1_555 1_555
C8B C7B 1_555 1_555
C9B C8B 1_555 1_555
C10B C9B 1_555 1_555
C11B C6B 1_555 1_555
C12B C11B 1_555 1_555
C13B C12B 1_555 1_555
C14B C13B 1_555 1_555
C15B C10B 1_555 1_555
N1C C1C 1_555 1_555
C1C C5 1_555 1_555
C2C C1C 1_555 1_555
C3C C2C 1_555 1_555
C4C N1C 1_555 1_555
C5C C4C 1_555 1_555
C6C C5C 1_555 1_555
C7C C6C 1_555 1_555
C8C C7C 1_555 1_555
C9C C8C 1_555 1_555
C10C C9C 1_555 1_555
C11C C6C 1_555 1_555
C12C C11C 1_555 1_555
C13C C12C 1_555 1_555
C14C C13C 1_555 1_555
C15C C10C 1_555 1_555
N1I N1 1_555 1_555
C1I C1 1_555 1_555
C2I C2 1_555 1_555
C3I C3 1_555 1_555
C4I C4 1_555 1_555
C5I C5 1_555 1_555
C6I C6 1_555 1_555
C7I C11 1_555 1_555
C8I C12 1_555 1_555
C9I C10 1_555 1_555
C11I C7 1_555 1_555
C12I C6 1_555 1_555
C13I C7 1_555 1_555
C14I C8 1_555 1_555
C15I C8 1_555 1_555
N1J N1C 1_555 1_555
C1J C1C 1_555 1_555
C2J C2C 1_555 1_555
C3J C3C 1_555 1_555
C4J C4C 1_555 1_555
C5J C5C 1_555 1_555
C6J C6C 1_555 1_555
C7J C11C 1_555 1_555
C8J C12C 1_555 1_555
C9J C10C 1_555 1_555
C11J C7C 1_555 1_555
C12J C6C 1_555 1_555
C13J C7C 1_555 1_555
C14J C8C 1_555 1_555
C15J C8C 1_555 1_555
N1K N1B 1_555 1_555
C1K C1B 1_555 1_555
C2K C2B 1_555 1_555
C3K C3B 1_555 1_555
C4K C4B 1_555 1_555
C5K C5B 1_555 1_555
C6K C6B 1_555 1_555
C7K C11B 1_555 1_555
C8K C12B 1_555 1_555
C9K C10B 1_555 1_555
C11K C7B 1_555 1_555
C12K C6B 1_555 1_555
C13K C7B 1_555 1_555
C14K C8B 1_555 1_555
C15K C8B 1_555 1_555
N1A C1A 1_555 1_555
C1A C5C 1_555 1_555
C2A C1A 1_555 1_555
C3A C2A 1_555 1_555
C4A N1A 1_555 1_555
C5A C1B 1_555 1_555
C6A C5A 1_555 1_555
C7A C6A 1_555 1_555
C8A C7A 1_555 1_555
C9A C8A 1_555 1_555
C10A C9A 1_555 1_555
C11A C6A 1_555 1_555
C12A C11A 1_555 1_555
C13A C12A 1_555 1_555
C14A C13A 1_555 1_555
C15A C10A 1_555 1_555
N1H N1A 1_555 1_555
C1H C5J 1_555 1_555
C2H C2A 1_555 1_555
C3H C3A 1_555 1_555
C4H C4A 1_555 1_555
C5H C1K 1_555 1_555
C6H C6A 1_555 1_555
C7H C11A 1_555 1_555
C8H C12A 1_555 1_555
C9H C10A 1_555 1_555
C11H C7A 1_555 1_555
C12H C6A 1_555 1_555
C13H C7A 1_555 1_555
C14H C8A 1_555 1_555
C15H C8A 1_555 1_555
C8 C12I 1_555 1_555
C8 C13I 1_555 1_555
C9 C14I 1_555 1_555
C10 C11 1_555 1_555
C10 C11I 1_555 1_555
C10 C15I 1_555 1_555
C11 C11I 1_555 1_555
C12 C6I 1_555 1_555
C13 C7I 1_555 1_555
C13 C8I 1_555 1_555
C14 C15 1_555 1_555
C14 C8I 1_555 1_555
C14 C9I 1_555 1_555
C15 C8I 1_555 1_555
C4B C5B 1_555 1_555
C8B C12K 1_555 1_555
C8B C13K 1_555 1_555
C9B C14K 1_555 1_555
C10B C11B 1_555 1_555
C10B C11K 1_555 1_555
C10B C15K 1_555 1_555
C11B C11K 1_555 1_555
C12B C6K 1_555 1_555
C13B C7K 1_555 1_555
C13B C8K 1_555 1_555
C14B C15B 1_555 1_555
C14B C8K 1_555 1_555
C14B C9K 1_555 1_555
C15B C8K 1_555 1_555
C3C C4C 1_555 1_555
C8C C12J 1_555 1_555
C8C C13J 1_555 1_555
C9C C14J 1_555 1_555
C10C C11C 1_555 1_555
C10C C11J 1_555 1_555
C10C C15J 1_555 1_555
C11C C11J 1_555 1_555
C12C C6J 1_555 1_555
C13C C7J 1_555 1_555
C13C C8J 1_555 1_555
C14C C15C 1_555 1_555
C14C C8J 1_555 1_555
C14C C9J 1_555 1_555
C15C C8J 1_555 1_555
N1I C1I 1_555 1_555
N1I C4I 1_555 1_555
C1I C2I 1_555 1_555
C1I C5K 1_555 1_555
C2I C3I 1_555 1_555
C3I C4I 1_555 1_555
C4I C5I 1_555 1_555
C5I C6I 1_555 1_555
C5I C1J 1_555 1_555
C6I C7I 1_555 1_555
C6I C11I 1_555 1_555
C7I C8I 1_555 1_555
C8I C9I 1_555 1_555
C11I C12I 1_555 1_555
C12I C13I 1_555 1_555
C13I C14I 1_555 1_555
C14I C15I 1_555 1_555
N1J C1J 1_555 1_555
N1J C4J 1_555 1_555
C1J C2J 1_555 1_555
C2J C3J 1_555 1_555
C3J C4J 1_555 1_555
C4J C5J 1_555 1_555
C5J C6J 1_555 1_555
C6J C7J 1_555 1_555
C6J C11J 1_555 1_555
C7J C8J 1_555 1_555
C8J C9J 1_555 1_555
C11J C12J 1_555 1_555
C12J C13J 1_555 1_555
C13J C14J 1_555 1_555
C14J C15J 1_555 1_555
N1K C1K 1_555 1_555
N1K C4K 1_555 1_555
C1K C2K 1_555 1_555
C2K C3K 1_555 1_555
C3K C4K 1_555 1_555
C4K C5K 1_555 1_555
C5K C6K 1_555 1_555
C6K C7K 1_555 1_555
C6K C11K 1_555 1_555
C7K C8K 1_555 1_555
C8K C9K 1_555 1_555
C11K C12K 1_555 1_555
C12K C13K 1_555 1_555
C13K C14K 1_555 1_555
C14K C15K 1_555 1_555
C1A C1H 1_555 1_555
C3A C4A 1_555 1_555
C4A C5A 1_555 1_555
C5A C5H 1_555 1_555
C8A C12H 1_555 1_555
C8A C13H 1_555 1_555
C9A C14H 1_555 1_555
C10A C11A 1_555 1_555
C10A C11H 1_555 1_555
C10A C15H 1_555 1_555
C11A C11H 1_555 1_555
C12A C6H 1_555 1_555
C13A C7H 1_555 1_555
C13A C8H 1_555 1_555
C14A C15A 1_555 1_555
C14A C8H 1_555 1_555
C14A C9H 1_555 1_555
C15A C8H 1_555 1_555
N1H C1H 1_555 1_555
N1H C4H 1_555 1_555
C1H C2H 1_555 1_555
C2H C3H 1_555 1_555
C3H C4H 1_555 1_555
C4H C5H 1_555 1_555
C5H C6H 1_555 1_555
C6H C7H 1_555 1_555
C6H C11H 1_555 1_555
C7H C8H 1_555 1_555
C8H C9H 1_555 1_555
C11H C12H 1_555 1_555
C12H C13H 1_555 1_555
C13H C14H 1_555 1_555
C14H C15H 1_555 1_555

#END
