
#######################################################################
#
#                 Cambridge Crystallographic Data Centre
#                                CCDC 
#
#######################################################################
#
# If this CIF has been generated from an entry in the Cambridge 
# Structural Database, then it will include bibliographic, chemical, 
# crystal, experimental, refinement or atomic coordinate data resulting 
# from the CCDC's data processing and validation procedures.
#
#######################################################################

data_WUFNOB
_chemical_formula_moiety         'C19 H24 N1 O1 1+,H2 O1,Cl1 1-'
_chemical_name_systematic        
'4-Hydroxy-4-phenyl-1-(2-phenylethyl)piperidinium chloride monohydrate'
_chemical_properties_biological  
'tested for cellular growth inhibition against K562 cells and potential anti-leukaemia activity'
_symmetry_cell_setting           orthorhombic
_symmetry_space_group_name_H-M   'P 21 21 21'
_symmetry_Int_Tables_number      19
_space_group_name_Hall           'P 2ac 2ab'
loop_
_symmetry_equiv_pos_site_id
_symmetry_equiv_pos_as_xyz
1 x,y,z
2 1/2-x,-y,1/2+z
3 -x,1/2+y,1/2-z
4 1/2+x,1/2-y,-z
_cell_length_a                   8.6306(8)
_cell_length_b                   11.0464(10)
_cell_length_c                   19.3221(18)
_cell_angle_alpha                90
_cell_angle_beta                 90
_cell_angle_gamma                90
_cell_volume                     1842.11
_exptl_crystal_colour            colorless
_exptl_crystal_description       block
_cell_formula_units_Z            4
loop_
_atom_site_label
_atom_site_type_symbol
_atom_site_fract_x
_atom_site_fract_y
_atom_site_fract_z
C1 C 0.6727(2) 0.7990(2) 0.48189(10)
C2 C 0.7332(2) 0.7362(2) 0.53714(10)
H1 H 0.7645 0.6563 0.5314
C3 C 0.7479(3) 0.7912(3) 0.60160(11)
H2 H 0.7897 0.7482 0.6385
C4 C 0.7010(3) 0.9084(3) 0.61086(12)
H3 H 0.7122 0.9456 0.6537
C5 C 0.6379(3) 0.9700(3) 0.55687(13)
H4 H 0.6036 1.0490 0.5633
C6 C 0.6243(3) 0.9162(2) 0.49228(12)
H5 H 0.5820 0.9598 0.4557
C7 C 0.6646(2) 0.7427(2) 0.41055(10)
H6 H 0.6420 0.6570 0.4146
H7 H 0.5819 0.7803 0.3842
C8 C 0.8165(2) 0.75994(18) 0.37347(8)
H8 H 0.8497 0.8433 0.3790
H9 H 0.8941 0.7086 0.3949
C9 C 0.9357(2) 0.75828(14) 0.18448(8)
H10 H 1.0301 0.7856 0.1622
H11 H 0.8514 0.8087 0.1680
C10 C 0.95172(19) 0.77420(15) 0.26141(8)
H12 H 1.0406 0.7288 0.2778
H13 H 0.9688 0.8590 0.2720
C11 C 0.90449(18) 0.62668(15) 0.16357(8)
C12 C 0.7655(2) 0.57985(16) 0.20475(9)
H14 H 0.6725 0.6204 0.1886
H15 H 0.7532 0.4939 0.1960
C13 C 0.7820(2) 0.60007(16) 0.28230(9)
H16 H 0.6887 0.5730 0.3056
H17 H 0.8683 0.5528 0.2997
C14 C 0.8751(2) 0.62025(15) 0.08575(8)
C15 C 0.9793(3) 0.56694(17) 0.04114(10)
H18 H 1.0668 0.5289 0.0589
C16 C 0.9553(3) 0.5693(2) -0.03012(10)
H19 H 1.0276 0.5336 -0.0594
C17 C 0.8287(3) 0.6225(2) -0.05708(11)
H20 H 0.8141 0.6244 -0.1048
C18 C 0.7211(4) 0.6742(3) -0.01363(12)
H21 H 0.6321 0.7094 -0.0318
C19 C 0.7453(3) 0.6736(2) 0.05714(10)
H22 H 0.6728 0.7100 0.0860
N1 N 0.80861(17) 0.73093(13) 0.29755(7)
H23 H 0.7308(18) 0.7750(17) 0.2822(9)
O1 O 1.03164(15) 0.55222(11) 0.18352(7)
H24 H 1.115(2) 0.586(2) 0.1792(11)
Cl1 Cl 0.53327(6) 0.87449(5) 0.23598(3)
O2 O 0.3303(2) 0.6300(2) 0.19915(16)
H25 H 0.372(5) 0.572(3) 0.217(2)
H26 H 0.378(5) 0.693(2) 0.208(3)
loop_
_geom_bond_atom_site_label_1
_geom_bond_atom_site_label_2
_geom_bond_site_symmetry_1
_geom_bond_site_symmetry_2
C1 C2 1_555 1_555
C2 H1 1_555 1_555
C3 C2 1_555 1_555
H2 C3 1_555 1_555
C4 C3 1_555 1_555
H3 C4 1_555 1_555
C5 C4 1_555 1_555
H4 C5 1_555 1_555
C6 C1 1_555 1_555
H5 C6 1_555 1_555
C7 C1 1_555 1_555
H6 C7 1_555 1_555
H7 C7 1_555 1_555
C8 C7 1_555 1_555
H8 C8 1_555 1_555
H9 C8 1_555 1_555
C9 H10 1_555 1_555
H11 C9 1_555 1_555
C10 C9 1_555 1_555
H12 C10 1_555 1_555
H13 C10 1_555 1_555
C11 C9 1_555 1_555
C12 C11 1_555 1_555
H14 C12 1_555 1_555
H15 C12 1_555 1_555
C13 C12 1_555 1_555
H16 C13 1_555 1_555
H17 C13 1_555 1_555
C14 C11 1_555 1_555
C15 C14 1_555 1_555
H18 C15 1_555 1_555
C16 C15 1_555 1_555
H19 C16 1_555 1_555
C17 C16 1_555 1_555
H20 C17 1_555 1_555
C18 C17 1_555 1_555
H21 C18 1_555 1_555
C19 C14 1_555 1_555
H22 C19 1_555 1_555
N1 C8 1_555 1_555
H23 N1 1_555 1_555
O1 C11 1_555 1_555
H24 O1 1_555 1_555
O2 H25 1_555 1_555
H26 O2 1_555 1_555
C5 C6 1_555 1_555
C10 N1 1_555 1_555
C13 N1 1_555 1_555
C18 C19 1_555 1_555

#END
