
#######################################################################
#
#                 Cambridge Crystallographic Data Centre
#                                CCDC 
#
#######################################################################
#
# If this CIF has been generated from an entry in the Cambridge 
# Structural Database, then it will include bibliographic, chemical, 
# crystal, experimental, refinement or atomic coordinate data resulting 
# from the CCDC's data processing and validation procedures.
#
#######################################################################

data_WUFNUI
_chemical_formula_moiety         'C22 H18 N2 O5'
_chemical_name_systematic        
N-((3-(2-nitrophenyl)propanoyl)oxy)-N-phenylbenzamide
_symmetry_cell_setting           monoclinic
_symmetry_space_group_name_H-M   'P 21/n'
_symmetry_Int_Tables_number      14
_space_group_name_Hall           '-P 2yn'
loop_
_symmetry_equiv_pos_site_id
_symmetry_equiv_pos_as_xyz
1 x,y,z
2 1/2-x,1/2+y,1/2-z
3 -x,-y,-z
4 1/2+x,1/2-y,1/2+z
_cell_length_a                   14.4481(7)
_cell_length_b                   8.0089(5)
_cell_length_c                   16.6808(9)
_cell_angle_alpha                90
_cell_angle_beta                 100.069(5)
_cell_angle_gamma                90
_cell_volume                     1900.46
_exptl_crystal_colour            'light colorless'
_exptl_crystal_description       block
_cell_formula_units_Z            4
loop_
_atom_site_label
_atom_site_type_symbol
_atom_site_fract_x
_atom_site_fract_y
_atom_site_fract_z
O1 O 1.05187(11) -0.0257(2) 0.23869(9)
O2 O 0.93033(9) 0.1449(2) 0.05721(8)
O3 O 0.84196(11) 0.2415(2) 0.14718(9)
O4 O 0.62692(12) 0.4824(2) -0.05118(10)
O5 O 0.47746(12) 0.5004(2) -0.09439(10)
N1 N 1.00488(12) 0.1186(2) 0.12326(11)
N2 N 0.55063(14) 0.4193(3) -0.07872(10)
C1 C 1.04764(18) 0.4129(3) 0.12436(16)
H1 H 0.9850 0.4412 0.1065
C2 C 1.1153(2) 0.5362(4) 0.13874(17)
H2 H 1.0979 0.6477 0.1309
C3 C 1.2077(2) 0.4953(4) 0.16448(15)
H3 H 1.2530 0.5788 0.1746
C4 C 1.23350(18) 0.3312(4) 0.17532(15)
H4 H 1.2964 0.3036 0.1925
C5 C 1.16669(15) 0.2065(3) 0.16082(13)
H5 H 1.1844 0.0950 0.1673
C6 C 1.07305(15) 0.2489(3) 0.13651(12)
C7 C 0.99544(14) -0.0098(3) 0.17576(13)
C8 C 0.91389(14) -0.1254(3) 0.15311(12)
C9 C 0.85941(15) -0.1597(3) 0.21168(13)
H6 H 0.8744 -0.1118 0.2631
C10 C 0.78308(17) -0.2647(3) 0.19389(15)
H7 H 0.7463 -0.2863 0.2332
C11 C 0.76101(18) -0.3374(4) 0.11862(16)
H8 H 0.7088 -0.4067 0.1067
C12 C 0.81612(18) -0.3079(3) 0.06082(15)
H9 H 0.8022 -0.3599 0.0103
C13 C 0.89202(17) -0.2015(3) 0.07760(13)
H10 H 0.9287 -0.1806 0.0381
C14 C 0.84725(15) 0.2012(3) 0.07990(13)
C15 C 0.77180(14) 0.1962(3) 0.00681(13)
H11 H 0.7845 0.1058 -0.0284
H12 H 0.7725 0.2999 -0.0232
C16 C 0.67480(14) 0.1716(3) 0.02851(13)
H13 H 0.6774 0.0830 0.0685
H14 H 0.6556 0.2733 0.0526
C17 C 0.60323(14) 0.1275(3) -0.04583(13)
C18 C 0.54599(14) 0.2399(3) -0.09529(13)
C19 C 0.48177(16) 0.1907(3) -0.16253(14)
H15 H 0.4439 0.2694 -0.1935
C20 C 0.47447(19) 0.0259(3) -0.18306(16)
H16 H 0.4321 -0.0080 -0.2287
C21 C 0.52930(19) -0.0895(4) -0.13662(18)
H17 H 0.5245 -0.2019 -0.1508
C22 C 0.59211(17) -0.0388(3) -0.06836(16)
H18 H 0.6279 -0.1190 -0.0367
loop_
_geom_bond_atom_site_label_1
_geom_bond_atom_site_label_2
_geom_bond_site_symmetry_1
_geom_bond_site_symmetry_2
O1 C7 1_555 1_555
O2 N1 1_555 1_555
O3 C14 1_555 1_555
O4 N2 1_555 1_555
O5 N2 1_555 1_555
N1 C6 1_555 1_555
N2 C18 1_555 1_555
C1 H1 1_555 1_555
C2 C1 1_555 1_555
H2 C2 1_555 1_555
C3 C2 1_555 1_555
H3 C3 1_555 1_555
C4 C3 1_555 1_555
H4 C4 1_555 1_555
C5 C4 1_555 1_555
H5 C5 1_555 1_555
C6 C1 1_555 1_555
C7 N1 1_555 1_555
C8 C7 1_555 1_555
C9 C8 1_555 1_555
H6 C9 1_555 1_555
C10 C9 1_555 1_555
H7 C10 1_555 1_555
C11 C10 1_555 1_555
H8 C11 1_555 1_555
C12 C11 1_555 1_555
H9 C12 1_555 1_555
C13 C8 1_555 1_555
H10 C13 1_555 1_555
C14 O2 1_555 1_555
C15 C14 1_555 1_555
H11 C15 1_555 1_555
H12 C15 1_555 1_555
C16 C15 1_555 1_555
H13 C16 1_555 1_555
H14 C16 1_555 1_555
C17 C16 1_555 1_555
C18 C17 1_555 1_555
C19 C18 1_555 1_555
H15 C19 1_555 1_555
C20 C19 1_555 1_555
H16 C20 1_555 1_555
C21 C20 1_555 1_555
H17 C21 1_555 1_555
C22 C17 1_555 1_555
H18 C22 1_555 1_555
C5 C6 1_555 1_555
C12 C13 1_555 1_555
C21 C22 1_555 1_555

#END
