
#######################################################################
#
#                 Cambridge Crystallographic Data Centre
#                                CCDC 
#
#######################################################################
#
# If this CIF has been generated from an entry in the Cambridge 
# Structural Database, then it will include bibliographic, chemical, 
# crystal, experimental, refinement or atomic coordinate data resulting 
# from the CCDC's data processing and validation procedures.
#
#######################################################################

data_WUFNUH
_chemical_formula_moiety         'C63 H48 N3 O3 P3'
_chemical_name_systematic        
N,N',N''-tris(2-(diphenylphosphino)phenyl)benzene-1,3,5-tricarboxamide
_symmetry_cell_setting           monoclinic
_symmetry_space_group_name_H-M   'P 21/c'
_symmetry_Int_Tables_number      14
_space_group_name_Hall           '-P 2ybc'
loop_
_symmetry_equiv_pos_site_id
_symmetry_equiv_pos_as_xyz
1 x,y,z
2 -x,1/2+y,1/2-z
3 -x,-y,-z
4 x,1/2-y,1/2+z
_cell_length_a                   13.013(3)
_cell_length_b                   28.406(6)
_cell_length_c                   14.911(3)
_cell_angle_alpha                90
_cell_angle_beta                 111.04(3)
_cell_angle_gamma                90
_cell_volume                     5144.34
_cell_formula_units_Z            4
loop_
_atom_site_label
_atom_site_type_symbol
_atom_site_fract_x
_atom_site_fract_y
_atom_site_fract_z
P1 P 0.24997(8) 0.05470(3) 0.75495(7)
P2 P 0.21271(9) 0.38797(3) 0.68841(7)
P3 P 0.57775(10) 0.20671(3) 0.33404(8)
N1 N 0.3224(2) 0.08263(9) 0.5958(2)
H1 H 0.2710 0.0938 0.6132
N2 N 0.2115(2) 0.28516(9) 0.7204(2)
H2 H 0.2605 0.3014 0.7079
N3 N 0.4439(3) 0.26908(10) 0.4051(2)
H3 H 0.4558 0.2393 0.4066
O1 O 0.4250(3) 0.10176(8) 0.5080(2)
O2 O 0.1395(3) 0.21214(9) 0.7063(2)
O3 O 0.3541(3) 0.32359(9) 0.4571(2)
C1 C 0.3365(3) 0.16403(10) 0.5573(2)
C2 C 0.2812(3) 0.18026(11) 0.6157(3)
H4 H 0.2573 0.1587 0.6509
C3 C 0.2610(3) 0.22768(10) 0.6230(2)
C4 C 0.2956(3) 0.26011(11) 0.5707(2)
H5 H 0.2825 0.2920 0.5758
C5 C 0.3505(3) 0.24515(11) 0.5100(2)
C6 C 0.3707(3) 0.19757(11) 0.5048(2)
H6 H 0.4079 0.1876 0.4654
C7 C 0.3654(3) 0.11354(11) 0.5502(3)
C8 C 0.1978(3) 0.24093(12) 0.6867(3)
C9 C 0.3814(3) 0.28314(12) 0.4544(3)
C10 C 0.3483(3) 0.03490(11) 0.6195(2)
C11 C 0.3992(3) 0.00631(11) 0.5714(3)
H7 H 0.4165 0.0187 0.5209
C12 C 0.4239(3) -0.03971(12) 0.5977(3)
H8 H 0.4580 -0.0582 0.5652
C13 C 0.3984(3) -0.05883(12) 0.6726(3)
H9 H 0.4160 -0.0900 0.6908
C14 C 0.3464(3) -0.03130(12) 0.7203(3)
H10 H 0.3296 -0.0444 0.7706
C15 C 0.3188(3) 0.01540(11) 0.6950(2)
C16 C 0.1563(3) 0.30906(11) 0.7739(2)
C17 C 0.1110(3) 0.28485(13) 0.8321(2)
H11 H 0.1135 0.2522 0.8352
C18 C 0.0622(3) 0.31027(14) 0.8853(3)
H12 H 0.0317 0.2944 0.9243
C19 C 0.0581(4) 0.35858(15) 0.8815(3)
H13 H 0.0263 0.3752 0.9187
C20 C 0.1012(3) 0.38245(13) 0.8225(3)
H14 H 0.0977 0.4151 0.8199
C21 C 0.1500(3) 0.35835(11) 0.7666(2)
C22 C 0.4935(3) 0.29548(12) 0.3508(2)
C23 C 0.4807(3) 0.34401(12) 0.3383(3)
H15 H 0.4365 0.3602 0.3649
C24 C 0.5329(4) 0.36811(13) 0.2871(3)
H16 H 0.5269 0.4007 0.2820
C25 C 0.5934(4) 0.34435(15) 0.2437(3)
H17 H 0.6263 0.3609 0.2073
C26 C 0.6066(3) 0.29572(14) 0.2531(3)
H18 H 0.6467 0.2799 0.2219
C27 C 0.5594(3) 0.27041(12) 0.3099(3)
C28 C 0.1065(3) 0.04711(12) 0.6782(2)
C29 C 0.0466(4) 0.08812(14) 0.6426(3)
H19 H 0.0789 0.1173 0.6629
C30 C -0.0607(4) 0.08582(19) 0.5770(4)
H20 H -0.0990 0.1134 0.5523
C31 C -0.1098(4) 0.0432(2) 0.5489(3)
H21 H -0.1823 0.0420 0.5062
C32 C -0.0539(4) 0.00225(18) 0.5826(3)
H22 H -0.0884 -0.0266 0.5629
C33 C 0.0543(4) 0.00387(14) 0.6464(3)
H23 H 0.0926 -0.0240 0.6682
C34 C 0.2686(4) 0.02451(13) 0.8680(3)
C35 C 0.1966(4) -0.00619(16) 0.8846(3)
H24 H 0.1326 -0.0147 0.8343
C36 C 0.2176(5) -0.02490(19) 0.9756(4)
H25 H 0.1676 -0.0458 0.9855
C37 C 0.3087(5) -0.0132(2) 1.0486(4)
H26 H 0.3231 -0.0263 1.1091
C38 C 0.3800(6) 0.0178(3) 1.0343(4)
H27 H 0.4428 0.0265 1.0856
C39 C 0.3608(5) 0.0370(2) 0.9440(4)
H28 H 0.4106 0.0582 0.9351
C40 C 0.1102(3) 0.37488(11) 0.5699(3)
C41 C 0.1464(5) 0.37292(15) 0.4929(3)
H29 H 0.2187 0.3809 0.5015
C42 C 0.0733(8) 0.3588(2) 0.4016(4)
H30 H 0.0979 0.3561 0.3505
C43 C -0.0332(8) 0.3492(2) 0.3888(5)
H31 H -0.0815 0.3402 0.3285
C44 C -0.0697(5) 0.35259(17) 0.4619(4)
H32 H -0.1434 0.3467 0.4515
C45 C 0.0007(4) 0.36457(14) 0.5518(3)
H33 H -0.0257 0.3658 0.6020
C46 C 0.1933(3) 0.45052(12) 0.7072(3)
C47 C 0.1045(4) 0.47705(13) 0.6506(3)
H34 H 0.0482 0.4626 0.6008
C48 C 0.0984(4) 0.52460(14) 0.6669(3)
H35 H 0.0379 0.5418 0.6283
C49 C 0.1803(5) 0.54669(15) 0.7393(4)
H36 H 0.1758 0.5787 0.7500
C50 C 0.2685(5) 0.52128(16) 0.7954(3)
H37 H 0.3246 0.5361 0.8447
C51 C 0.2752(4) 0.47334(14) 0.7796(3)
H38 H 0.3360 0.4564 0.8185
C52 C 0.6929(4) 0.20832(13) 0.4495(3)
C53 C 0.6917(5) 0.17677(16) 0.5197(4)
H39 H 0.6345 0.1552 0.5078
C54 C 0.7782(6) 0.1778(2) 0.6090(4)
H40 H 0.7778 0.1567 0.6566
C55 C 0.8632(5) 0.2093(2) 0.6276(4)
H41 H 0.9195 0.2098 0.6874
C56 C 0.8643(5) 0.23914(19) 0.5588(4)
H42 H 0.9228 0.2599 0.5701
C57 C 0.7788(5) 0.23926(17) 0.4710(4)
H43 H 0.7798 0.2611 0.4249
C58 C 0.6386(4) 0.18467(13) 0.2494(3)
C59 C 0.7449(5) 0.1822(2) 0.2628(4)
H44 H 0.7952 0.1951 0.3187
C60 C 0.7846(6) 0.1615(3) 0.1980(5)
H45 H 0.8601 0.1606 0.2113
C61 C 0.7167(6) 0.1429(2) 0.1173(5)
H46 H 0.7435 0.1294 0.0732
C62 C 0.6081(6) 0.1438(2) 0.1004(4)
H47 H 0.5593 0.1308 0.0440
C63 C 0.5673(4) 0.16428(17) 0.1668(3)
H48 H 0.4920 0.1640 0.1548
loop_
_geom_bond_atom_site_label_1
_geom_bond_atom_site_label_2
_geom_bond_site_symmetry_1
_geom_bond_site_symmetry_2
P1 C15 1_555 1_555
P2 C21 1_555 1_555
P3 C27 1_555 1_555
N1 H1 1_555 1_555
N2 H2 1_555 1_555
N3 H3 1_555 1_555
O1 C7 1_555 1_555
O2 C8 1_555 1_555
O3 C9 1_555 1_555
C1 C2 1_555 1_555
C2 H4 1_555 1_555
C3 C2 1_555 1_555
C4 C3 1_555 1_555
H5 C4 1_555 1_555
C5 C4 1_555 1_555
C6 C1 1_555 1_555
H6 C6 1_555 1_555
C7 N1 1_555 1_555
C8 N2 1_555 1_555
C9 N3 1_555 1_555
C10 N1 1_555 1_555
C11 C10 1_555 1_555
H7 C11 1_555 1_555
C12 C11 1_555 1_555
H8 C12 1_555 1_555
C13 C12 1_555 1_555
H9 C13 1_555 1_555
C14 C13 1_555 1_555
H10 C14 1_555 1_555
C15 C10 1_555 1_555
C16 N2 1_555 1_555
C17 C16 1_555 1_555
H11 C17 1_555 1_555
C18 C17 1_555 1_555
H12 C18 1_555 1_555
C19 C18 1_555 1_555
H13 C19 1_555 1_555
C20 C19 1_555 1_555
H14 C20 1_555 1_555
C21 C16 1_555 1_555
C22 N3 1_555 1_555
C23 C22 1_555 1_555
H15 C23 1_555 1_555
C24 C23 1_555 1_555
H16 C24 1_555 1_555
C25 C24 1_555 1_555
H17 C25 1_555 1_555
C26 C25 1_555 1_555
H18 C26 1_555 1_555
C27 C22 1_555 1_555
C28 P1 1_555 1_555
C29 C28 1_555 1_555
H19 C29 1_555 1_555
C30 C29 1_555 1_555
H20 C30 1_555 1_555
C31 C30 1_555 1_555
H21 C31 1_555 1_555
C32 C31 1_555 1_555
H22 C32 1_555 1_555
C33 C28 1_555 1_555
H23 C33 1_555 1_555
C34 P1 1_555 1_555
C35 C34 1_555 1_555
H24 C35 1_555 1_555
C36 C35 1_555 1_555
H25 C36 1_555 1_555
C37 C36 1_555 1_555
H26 C37 1_555 1_555
C38 C37 1_555 1_555
H27 C38 1_555 1_555
C39 C34 1_555 1_555
H28 C39 1_555 1_555
C40 P2 1_555 1_555
C41 C40 1_555 1_555
H29 C41 1_555 1_555
C42 C41 1_555 1_555
H30 C42 1_555 1_555
C43 C42 1_555 1_555
H31 C43 1_555 1_555
C44 C43 1_555 1_555
H32 C44 1_555 1_555
C45 C40 1_555 1_555
H33 C45 1_555 1_555
C46 P2 1_555 1_555
C47 C46 1_555 1_555
H34 C47 1_555 1_555
C48 C47 1_555 1_555
H35 C48 1_555 1_555
C49 C48 1_555 1_555
H36 C49 1_555 1_555
C50 C49 1_555 1_555
H37 C50 1_555 1_555
C51 C46 1_555 1_555
H38 C51 1_555 1_555
C52 P3 1_555 1_555
C53 C52 1_555 1_555
H39 C53 1_555 1_555
C54 C53 1_555 1_555
H40 C54 1_555 1_555
C55 C54 1_555 1_555
H41 C55 1_555 1_555
C56 C55 1_555 1_555
H42 C56 1_555 1_555
C57 C52 1_555 1_555
H43 C57 1_555 1_555
C58 P3 1_555 1_555
C59 C58 1_555 1_555
H44 C59 1_555 1_555
C60 C59 1_555 1_555
H45 C60 1_555 1_555
C61 C60 1_555 1_555
H46 C61 1_555 1_555
C62 C61 1_555 1_555
H47 C62 1_555 1_555
C63 C58 1_555 1_555
H48 C63 1_555 1_555
C1 C7 1_555 1_555
C3 C8 1_555 1_555
C5 C6 1_555 1_555
C5 C9 1_555 1_555
C14 C15 1_555 1_555
C20 C21 1_555 1_555
C26 C27 1_555 1_555
C32 C33 1_555 1_555
C38 C39 1_555 1_555
C44 C45 1_555 1_555
C50 C51 1_555 1_555
C56 C57 1_555 1_555
C62 C63 1_555 1_555

#END
