
#######################################################################
#
#                 Cambridge Crystallographic Data Centre
#                                CCDC 
#
#######################################################################
#
# If this CIF has been generated from an entry in the Cambridge 
# Structural Database, then it will include bibliographic, chemical, 
# crystal, experimental, refinement or atomic coordinate data resulting 
# from the CCDC's data processing and validation procedures.
#
#######################################################################

data_WUFPAQ
_chemical_formula_moiety         'C14 H15 N2 S1 1+,I1 1-'
_chemical_name_systematic        
'anilino(methylsulfanyl)-N-phenylmethaniminium iodide'
_symmetry_cell_setting           monoclinic
_symmetry_space_group_name_H-M   'P 21/n'
_symmetry_Int_Tables_number      14
_space_group_name_Hall           '-P 2yn'
loop_
_symmetry_equiv_pos_site_id
_symmetry_equiv_pos_as_xyz
1 x,y,z
2 1/2-x,1/2+y,1/2-z
3 -x,-y,-z
4 1/2+x,1/2-y,1/2+z
_cell_length_a                   11.273(2)
_cell_length_b                   10.318(2)
_cell_length_c                   12.962(3)
_cell_angle_alpha                90
_cell_angle_beta                 99.03(3)
_cell_angle_gamma                90
_cell_volume                     1488.99
_exptl_crystal_colour            colorless
_exptl_crystal_description       block
_cell_formula_units_Z            4
loop_
_atom_site_label
_atom_site_type_symbol
_atom_site_fract_x
_atom_site_fract_y
_atom_site_fract_z
I1 I 0.68986(3) 0.08691(3) 0.44522(3)
S1 S 0.98008(14) 0.25559(18) 0.64476(11)
N1 N 0.9437(4) 0.2096(5) 0.8405(3)
H1 H 1.0138 0.2478 0.8575
N2 N 0.7782(4) 0.1968(5) 0.7052(3)
H2 H 0.7601 0.1754 0.6388
C1 C 0.8922(5) 0.2161(6) 0.7402(4)
C2 C 1.1210(5) 0.1799(7) 0.6909(5)
H3 H 1.1769 0.1967 0.6416
H4 H 1.1093 0.0862 0.6967
H5 H 1.1541 0.2152 0.7595
C3 C 0.8946(4) 0.1459(5) 0.9223(4)
C4 C 0.8409(5) 0.0259(6) 0.9058(4)
H6 H 0.8377 -0.0167 0.8404
C5 C 0.7916(6) -0.0316(6) 0.9864(5)
H7 H 0.7526 -0.1132 0.9757
C6 C 0.7992(5) 0.0295(7) 1.0816(5)
H8 H 0.7636 -0.0092 1.1359
C7 C 0.8583(5) 0.1472(6) 1.0987(4)
H9 H 0.8651 0.1879 1.1651
C8 C 0.9072(5) 0.2050(6) 1.0196(4)
H10 H 0.9493 0.2847 1.0313
C9 C 0.6797(5) 0.2065(5) 0.7619(4)
C10 C 0.5859(5) 0.1191(5) 0.7384(4)
H11 H 0.5883 0.0545 0.6865
C11 C 0.4885(5) 0.1273(6) 0.7917(5)
H12 H 0.4244 0.0669 0.7771
C12 C 0.4842(6) 0.2214(7) 0.8650(4)
H13 H 0.4175 0.2259 0.9015
C13 C 0.5762(5) 0.3098(6) 0.8862(4)
H14 H 0.5718 0.3757 0.9366
C14 C 0.6750(5) 0.3039(6) 0.8351(4)
H15 H 0.7383 0.3651 0.8498
loop_
_geom_bond_atom_site_label_1
_geom_bond_atom_site_label_2
_geom_bond_site_symmetry_1
_geom_bond_site_symmetry_2
S1 C1 1_555 1_555
N1 H1 1_555 1_555
N2 H2 1_555 1_555
C1 N1 1_555 1_555
C2 S1 1_555 1_555
H3 C2 1_555 1_555
H4 C2 1_555 1_555
H5 C2 1_555 1_555
C3 N1 1_555 1_555
C4 C3 1_555 1_555
H6 C4 1_555 1_555
C5 C4 1_555 1_555
H7 C5 1_555 1_555
C6 C5 1_555 1_555
H8 C6 1_555 1_555
C7 C6 1_555 1_555
H9 C7 1_555 1_555
C8 C3 1_555 1_555
H10 C8 1_555 1_555
C9 N2 1_555 1_555
C10 C9 1_555 1_555
H11 C10 1_555 1_555
C11 C10 1_555 1_555
H12 C11 1_555 1_555
C12 C11 1_555 1_555
H13 C12 1_555 1_555
C13 C12 1_555 1_555
H14 C13 1_555 1_555
C14 C9 1_555 1_555
H15 C14 1_555 1_555
N2 C1 1_555 1_555
C7 C8 1_555 1_555
C13 C14 1_555 1_555

#END
