
#######################################################################
#
#                 Cambridge Crystallographic Data Centre
#                                CCDC 
#
#######################################################################
#
# If this CIF has been generated from an entry in the Cambridge 
# Structural Database, then it will include bibliographic, chemical, 
# crystal, experimental, refinement or atomic coordinate data resulting 
# from the CCDC's data processing and validation procedures.
#
#######################################################################

data_WUFWAX
_chemical_formula_moiety         'C31 H28 N2 O4 S2'
_chemical_name_systematic        
2,5-bis((4-methylphenyl)sulfonyl)-1-phenyl-2,3,4,5-tetrahydro-1H-pyrido[4,3-b]indole
_symmetry_cell_setting           triclinic
_symmetry_space_group_name_H-M   'P -1'
_symmetry_Int_Tables_number      2
_space_group_name_Hall           '-P 1'
loop_
_symmetry_equiv_pos_site_id
_symmetry_equiv_pos_as_xyz
1 x,y,z
2 -x,-y,-z
_cell_length_a                   9.882(2)
_cell_length_b                   10.111(2)
_cell_length_c                   15.242(3)
_cell_angle_alpha                72.26(3)
_cell_angle_beta                 73.53(3)
_cell_angle_gamma                73.25(3)
_cell_volume                     1356.62
_cell_formula_units_Z            2
loop_
_atom_site_label
_atom_site_type_symbol
_atom_site_fract_x
_atom_site_fract_y
_atom_site_fract_z
S1 S -0.20130(9) 0.87701(8) 0.47809(6)
S2 S 0.37436(9) 0.80274(8) 0.17716(6)
O1 O -0.3385(2) 0.96314(19) 0.51327(15)
O2 O -0.0936(2) 0.8212(2) 0.53445(15)
O3 O 0.3428(2) 0.6749(2) 0.24546(17)
O4 O 0.3424(2) 0.8345(2) 0.08539(15)
N1 N -0.1271(3) 0.9795(2) 0.37757(18)
N2 N 0.2959(3) 0.9421(2) 0.21965(18)
C1 C -0.2054(3) 1.0702(3) 0.3082(2)
C2 C -0.3541(3) 1.1151(3) 0.3113(2)
H1 H -0.4225 1.0823 0.3660
C3 C -0.3979(4) 1.2092(3) 0.2318(2)
H2 H -0.4982 1.2389 0.2317
C4 C -0.2990(3) 1.2621(3) 0.1515(3)
H3 H -0.3331 1.3290 0.0990
C5 C -0.1509(3) 1.2168(3) 0.1483(2)
H4 H -0.0833 1.2526 0.0942
C6 C -0.1038(3) 1.1178(3) 0.2262(2)
C7 C 0.0386(3) 1.0464(3) 0.2459(2)
C8 C 0.0233(3) 0.9656(3) 0.3355(2)
C9 C -0.2307(3) 0.7362(3) 0.4464(2)
C10 C -0.1140(4) 0.6254(3) 0.4268(2)
H5 H -0.0193 0.6283 0.4280
C11 C -0.1369(4) 0.5102(3) 0.4056(2)
H6 H -0.0576 0.4337 0.3934
C12 C -0.2750(4) 0.5059(3) 0.4019(2)
C13 C -0.3896(4) 0.6197(3) 0.4194(2)
H7 H -0.4837 0.6185 0.4159
C14 C -0.3693(3) 0.7354(3) 0.4418(2)
H8 H -0.4484 0.8122 0.4538
C15 C -0.2983(4) 0.3806(3) 0.3788(3)
H9 H -0.3983 0.3998 0.3719
H10 H -0.2802 0.2954 0.4298
H11 H -0.2317 0.3651 0.3197
C16 C 0.1466(3) 0.8788(3) 0.3827(2)
H12 H 0.1563 0.7761 0.3896
H13 H 0.1288 0.8954 0.4462
C17 C 0.2856(3) 0.9255(3) 0.3202(2)
H14 H 0.2878 1.0172 0.3301
H15 H 0.3707 0.8538 0.3397
C18 C 0.1818(3) 1.0581(3) 0.1788(2)
H16 H 0.1786 1.0422 0.1179
C19 C 0.2214(3) 1.2017(3) 0.1581(2)
C20 C 0.1707(3) 1.2858(3) 0.2231(2)
H17 H 0.1053 1.2570 0.2806
C21 C 0.2160(3) 1.4125(3) 0.2036(2)
H18 H 0.1834 1.4681 0.2489
C22 C 0.3080(3) 1.4577(3) 0.1189(2)
H19 H 0.3367 1.5450 0.1054
C23 C 0.3576(3) 1.3749(3) 0.0542(2)
H20 H 0.4217 1.4047 -0.0037
C24 C 0.3141(3) 1.2478(3) 0.0733(2)
H21 H 0.3481 1.1921 0.0281
C25 C 0.5602(3) 0.7956(3) 0.1630(2)
C26 C 0.6107(3) 0.9203(3) 0.1320(2)
H22 H 0.5450 1.0102 0.1219
C27 C 0.7575(3) 0.9128(3) 0.1159(2)
H23 H 0.7917 0.9983 0.0954
C28 C 0.8555(3) 0.7826(3) 0.1293(2)
C29 C 0.8042(4) 0.6580(3) 0.1585(2)
H24 H 0.8703 0.5682 0.1673
C30 C 0.6566(3) 0.6641(3) 0.1749(2)
H25 H 0.6222 0.5789 0.1940
C31 C 1.0151(3) 0.7775(4) 0.1162(3)
H26 H 1.0369 0.7649 0.1774
H27 H 1.0378 0.8667 0.0738
H28 H 1.0735 0.6975 0.0888
loop_
_geom_bond_atom_site_label_1
_geom_bond_atom_site_label_2
_geom_bond_site_symmetry_1
_geom_bond_site_symmetry_2
S1 O1 1_555 1_555
S2 O3 1_555 1_555
O2 S1 1_555 1_555
O4 S2 1_555 1_555
N1 S1 1_555 1_555
N2 S2 1_555 1_555
C1 N1 1_555 1_555
C2 C1 1_555 1_555
H1 C2 1_555 1_555
C3 C2 1_555 1_555
H2 C3 1_555 1_555
C4 C3 1_555 1_555
H3 C4 1_555 1_555
C5 C4 1_555 1_555
H4 C5 1_555 1_555
C6 C1 1_555 1_555
C7 C6 1_555 1_555
C8 N1 1_555 1_555
C9 S1 1_555 1_555
C10 C9 1_555 1_555
H5 C10 1_555 1_555
C11 C10 1_555 1_555
H6 C11 1_555 1_555
C12 C11 1_555 1_555
C13 C12 1_555 1_555
H7 C13 1_555 1_555
C14 C9 1_555 1_555
H8 C14 1_555 1_555
C15 C12 1_555 1_555
H9 C15 1_555 1_555
H10 C15 1_555 1_555
H11 C15 1_555 1_555
C16 C8 1_555 1_555
H12 C16 1_555 1_555
H13 C16 1_555 1_555
C17 N2 1_555 1_555
H14 C17 1_555 1_555
H15 C17 1_555 1_555
C18 N2 1_555 1_555
H16 C18 1_555 1_555
C19 C18 1_555 1_555
C20 C19 1_555 1_555
H17 C20 1_555 1_555
C21 C20 1_555 1_555
H18 C21 1_555 1_555
C22 C21 1_555 1_555
H19 C22 1_555 1_555
C23 C22 1_555 1_555
H20 C23 1_555 1_555
C24 C19 1_555 1_555
H21 C24 1_555 1_555
C25 S2 1_555 1_555
C26 C25 1_555 1_555
H22 C26 1_555 1_555
C27 C26 1_555 1_555
H23 C27 1_555 1_555
C28 C27 1_555 1_555
C29 C28 1_555 1_555
H24 C29 1_555 1_555
C30 C25 1_555 1_555
H25 C30 1_555 1_555
C31 C28 1_555 1_555
H26 C31 1_555 1_555
H27 C31 1_555 1_555
H28 C31 1_555 1_555
C5 C6 1_555 1_555
C7 C8 1_555 1_555
C7 C18 1_555 1_555
C13 C14 1_555 1_555
C16 C17 1_555 1_555
C23 C24 1_555 1_555
C29 C30 1_555 1_555

#END
