
#######################################################################
#
#                 Cambridge Crystallographic Data Centre
#                                CCDC 
#
#######################################################################
#
# If this CIF has been generated from an entry in the Cambridge 
# Structural Database, then it will include bibliographic, chemical, 
# crystal, experimental, refinement or atomic coordinate data resulting 
# from the CCDC's data processing and validation procedures.
#
#######################################################################

data_WUFYIH
_chemical_formula_moiety         'C13 H9 F7 I1 N1 O1'
_chemical_name_systematic        
5-(iodomethyl)-5-methyl-1-(2,3,5,6-tetrafluoro-4-(trifluoromethyl)phenyl)pyrrolidin-2-one
_symmetry_cell_setting           monoclinic
_symmetry_space_group_name_H-M   'P 21/c'
_symmetry_Int_Tables_number      14
_space_group_name_Hall           '-P 2ybc'
loop_
_symmetry_equiv_pos_site_id
_symmetry_equiv_pos_as_xyz
1 x,y,z
2 -x,1/2+y,1/2-z
3 -x,-y,-z
4 x,1/2-y,1/2+z
_cell_length_a                   6.1326(4)
_cell_length_b                   27.1761(14)
_cell_length_c                   8.9213(5)
_cell_angle_alpha                90
_cell_angle_beta                 103.6510(10)
_cell_angle_gamma                90
_cell_volume                     1444.82
_exptl_crystal_colour            colorless
_exptl_crystal_description       plate
_cell_formula_units_Z            4
loop_
_atom_site_label
_atom_site_type_symbol
_atom_site_fract_x
_atom_site_fract_y
_atom_site_fract_z
I1 I 0.44098(6) 0.42619(2) -0.08169(3)
F1 F 0.9448(5) 0.35014(11) 0.7387(3)
F2 F 0.7559(5) 0.41266(11) 0.5178(3)
F3 F 0.0606(5) 0.33188(11) 0.4597(3)
F4 F 0.2510(6) 0.26642(11) 0.6736(4)
F5 F 0.6428(7) 0.22291(12) 0.7982(4)
F6 F 0.6306(10) 0.27871(17) 0.9624(4)
F7 F 0.9219(7) 0.27053(16) 0.8808(6)
O1 O 0.3069(6) 0.46700(13) 0.5737(4)
N1 N 0.2972(6) 0.41111(14) 0.3792(4)
C1 C 0.7033(10) 0.26903(19) 0.8363(6)
C2 C 0.6034(9) 0.30486(17) 0.7090(5)
C3 C 0.3785(9) 0.30181(17) 0.6345(6)
C4 C 0.2810(8) 0.33549(17) 0.5240(5)
C5 C 0.4037(8) 0.37390(16) 0.4806(5)
C6 C 0.2515(8) 0.40921(17) 0.2070(5)
C7 C 0.4761(8) 0.41815(18) 0.1640(5)
H1 H 0.5780 0.3902 0.2016
H2 H 0.5459 0.4483 0.2166
C8 C 0.7279(8) 0.34332(17) 0.6676(5)
C9 C 0.6304(8) 0.37656(17) 0.5547(5)
C10 C 0.2605(7) 0.45674(17) 0.4371(5)
C11 C 0.1552(8) 0.48894(18) 0.3017(5)
H3 H 0.2634 0.5138 0.2828
H4 H 0.0211 0.5060 0.3199
C12 C 0.0909(8) 0.45351(19) 0.1666(6)
H5 H 0.1081 0.4694 0.0703
H6 H -0.0669 0.4428 0.1525
C13 C 0.1457(9) 0.36089(19) 0.1438(6)
H7 H 0.2519 0.3340 0.1790
H8 H 0.1073 0.3620 0.0308
H9 H 0.0092 0.3554 0.1807
loop_
_geom_bond_atom_site_label_1
_geom_bond_atom_site_label_2
_geom_bond_site_symmetry_1
_geom_bond_site_symmetry_2
I1 C7 1_555 1_555
F1 C8 1_555 1_555
F2 C9 1_555 1_555
F3 C4 1_555 1_555
F4 C3 1_555 1_555
F5 C1 1_555 1_555
F6 C1 1_555 1_555
F7 C1 1_555 1_555
O1 C10 1_555 1_555
N1 C5 1_555 1_555
C1 C2 1_555 1_555
C2 C3 1_555 1_555
C3 C4 1_555 1_555
C4 C5 1_555 1_555
C5 C9 1_555 1_555
C6 N1 1_555 1_555
C7 C6 1_555 1_555
H1 C7 1_555 1_555
H2 C7 1_555 1_555
C8 C2 1_555 1_555
C9 C8 1_555 1_555
C10 N1 1_555 1_555
C11 C10 1_555 1_555
H3 C11 1_555 1_555
H4 C11 1_555 1_555
C12 C6 1_555 1_555
H5 C12 1_555 1_555
H6 C12 1_555 1_555
C13 C6 1_555 1_555
H7 C13 1_555 1_555
H8 C13 1_555 1_555
H9 C13 1_555 1_555
C11 C12 1_555 1_555

#END
