
#######################################################################
#
#                 Cambridge Crystallographic Data Centre
#                                CCDC 
#
#######################################################################
#
# If this CIF has been generated from an entry in the Cambridge 
# Structural Database, then it will include bibliographic, chemical, 
# crystal, experimental, refinement or atomic coordinate data resulting 
# from the CCDC's data processing and validation procedures.
#
#######################################################################

data_WUFYED
_chemical_formula_moiety         'C14 H14 F3 N1 O3 S1'
_chemical_name_systematic        
5-(prop-1-en-2-yl)-1-((4-(trifluoromethyl)phenyl)sulfonyl)pyrrolidin-2-one
_symmetry_cell_setting           monoclinic
_symmetry_space_group_name_H-M   'P 21/n'
_symmetry_Int_Tables_number      14
_space_group_name_Hall           '-P 2yn'
loop_
_symmetry_equiv_pos_site_id
_symmetry_equiv_pos_as_xyz
1 x,y,z
2 1/2-x,1/2+y,1/2-z
3 -x,-y,-z
4 1/2+x,1/2-y,1/2+z
_cell_length_a                   8.2394(5)
_cell_length_b                   16.8092(7)
_cell_length_c                   10.9777(5)
_cell_angle_alpha                90
_cell_angle_beta                 106.356(2)
_cell_angle_gamma                90
_cell_volume                     1458.86
_exptl_crystal_colour            colorless
_exptl_crystal_description       block
_cell_formula_units_Z            4
loop_
_atom_site_label
_atom_site_type_symbol
_atom_site_fract_x
_atom_site_fract_y
_atom_site_fract_z
S1 S 0.67727(6) 0.70628(3) 0.02059(5)
F1 F 0.77623(17) 1.06926(7) -0.18453(13)
F2 F 0.53776(17) 1.08596(8) -0.14536(14)
F3 F 0.7692(2) 1.09913(8) 0.00370(14)
O1 O 0.59544(18) 0.66634(9) -0.09471(13)
O2 O 0.84045(18) 0.68122(9) 0.09552(14)
O3 O 0.70714(18) 0.77147(9) 0.28088(14)
N1 N 0.5423(2) 0.70260(10) 0.10824(16)
C1 C 0.6921(3) 1.05502(13) -0.0988(2)
C2 C 0.6883(3) 0.96830(12) -0.0676(2)
C3 C 0.8106(3) 0.93738(13) 0.0363(2)
H1 H 0.8946 0.9713 0.0875
C4 C 0.8098(3) 0.85694(12) 0.0651(2)
H2 H 0.8924 0.8351 0.1358
C5 C 0.6851(2) 0.80929(12) -0.01213(19)
C6 C 0.3728(2) 0.66524(13) 0.0664(2)
H3 H 0.3194 0.6768 -0.0255
C7 C 0.3782(3) 0.57631(13) 0.0887(2)
C8 C 0.2133(3) 0.53571(15) 0.0246(2)
H4 H 0.2231 0.4787 0.0440
H5 H 0.1866 0.5434 -0.0674
H6 H 0.1230 0.5586 0.0555
C9 C 0.5646(3) 0.91974(12) -0.1450(2)
H7 H 0.4828 0.9413 -0.2164
C10 C 0.5625(3) 0.83906(12) -0.11621(19)
H8 H 0.4785 0.8049 -0.1671
C11 C 0.5749(3) 0.73934(12) 0.2270(2)
C12 C 0.4169(3) 0.73002(14) 0.2695(2)
H9 H 0.3908 0.7798 0.3083
H10 H 0.4300 0.6863 0.3319
C13 C 0.2784(3) 0.71072(13) 0.1479(2)
H11 H 0.2262 0.7599 0.1047
H12 H 0.1893 0.6772 0.1661
C14 C 0.5132(3) 0.53773(13) 0.1573(2)
H13 H 0.5088 0.4818 0.1679
H14 H 0.6145 0.5660 0.1959
loop_
_geom_bond_atom_site_label_1
_geom_bond_atom_site_label_2
_geom_bond_site_symmetry_1
_geom_bond_site_symmetry_2
S1 O1 1_555 1_555
F1 C1 1_555 1_555
F2 C1 1_555 1_555
F3 C1 1_555 1_555
O2 S1 1_555 1_555
O3 C11 1_555 1_555
N1 S1 1_555 1_555
C1 C2 1_555 1_555
C2 C3 1_555 1_555
C3 H1 1_555 1_555
C4 C3 1_555 1_555
H2 C4 1_555 1_555
C5 S1 1_555 1_555
C6 N1 1_555 1_555
H3 C6 1_555 1_555
C7 C6 1_555 1_555
C8 C7 1_555 1_555
H4 C8 1_555 1_555
H5 C8 1_555 1_555
H6 C8 1_555 1_555
C9 C2 1_555 1_555
H7 C9 1_555 1_555
C10 C5 1_555 1_555
H8 C10 1_555 1_555
C11 N1 1_555 1_555
C12 C11 1_555 1_555
H9 C12 1_555 1_555
H10 C12 1_555 1_555
C13 C6 1_555 1_555
H11 C13 1_555 1_555
H12 C13 1_555 1_555
C14 C7 1_555 1_555
H13 C14 1_555 1_555
H14 C14 1_555 1_555
C4 C5 1_555 1_555
C9 C10 1_555 1_555
C12 C13 1_555 1_555

#END
