
#######################################################################
#
#                 Cambridge Crystallographic Data Centre
#                                CCDC 
#
#######################################################################
#
# If this CIF has been generated from an entry in the Cambridge 
# Structural Database, then it will include bibliographic, chemical, 
# crystal, experimental, refinement or atomic coordinate data resulting 
# from the CCDC's data processing and validation procedures.
#
#######################################################################

data_WUGCUY
_chemical_formula_moiety         'C11 H13 N3 O4'
_chemical_name_systematic        
2,2-dimethyl-5-(((1-methyl-1H-pyrazol-5-yl)amino)methylene)-1,3-dioxane-4,6-dione
_symmetry_cell_setting           triclinic
_symmetry_space_group_name_H-M   'P -1'
_symmetry_Int_Tables_number      2
_space_group_name_Hall           '-P 1'
loop_
_symmetry_equiv_pos_site_id
_symmetry_equiv_pos_as_xyz
1 x,y,z
2 -x,-y,-z
_cell_length_a                   8.2188(16)
_cell_length_b                   9.0289(18)
_cell_length_c                   9.2569(19)
_cell_angle_alpha                79.25(3)
_cell_angle_beta                 80.43(3)
_cell_angle_gamma                64.71(3)
_cell_volume                     607.283
_exptl_crystal_colour            colorless
_exptl_crystal_description       block
_cell_formula_units_Z            2
loop_
_atom_site_label
_atom_site_type_symbol
_atom_site_fract_x
_atom_site_fract_y
_atom_site_fract_z
C1 C 0.4863(2) 1.0696(2) -0.32250(19)
H1 H 0.4051 1.1130 -0.3941
C2 C 0.5142(2) 0.9218(2) -0.23080(19)
H2 H 0.4595 0.8501 -0.2289
C3 C 0.6410(2) 0.9070(2) -0.14416(17)
C4 C 0.8113(3) 1.0775(3) -0.1276(2)
H3 H 0.7995 1.1871 -0.1682
H4 H 0.9316 0.9995 -0.1540
H5 H 0.7885 1.0705 -0.0220
C5 C 0.7015(2) 0.6518(2) 0.01965(17)
H6 H 0.6198 0.6315 -0.0235
C6 C 0.78804(19) 0.5398(2) 0.13259(17)
C7 C 0.7574(2) 0.3899(2) 0.17477(19)
C8 C 0.8970(2) 0.3515(2) 0.39440(17)
C9 C 0.7343(2) 0.4578(2) 0.48638(19)
H7 H 0.6519 0.5438 0.4228
H8 H 0.7719 0.5060 0.5514
H9 H 0.6753 0.3913 0.5437
C10 C 1.0287(2) 0.2080(2) 0.4841(2)
H10 H 0.9712 0.1374 0.5348
H11 H 1.0683 0.2475 0.5549
H12 H 1.1309 0.1470 0.4201
C11 C 0.91829(19) 0.5625(2) 0.20311(17)
N1 N 0.68170(18) 1.04001(18) -0.18615(15)
N2 N 0.58635(19) 1.14198(19) -0.29774(16)
N3 N 0.72734(18) 0.78779(18) -0.03187(15)
O1 O 0.96741(16) 0.67487(16) 0.16461(13)
O2 O 0.99389(13) 0.44857(15) 0.31652(12)
O3 O 0.84498(16) 0.28457(15) 0.29017(13)
O4 O 0.66803(19) 0.34910(18) 0.11370(15)
H13 H 0.8054(19) 0.797(2) 0.0115(18)
loop_
_geom_bond_atom_site_label_1
_geom_bond_atom_site_label_2
_geom_bond_site_symmetry_1
_geom_bond_site_symmetry_2
C1 H1 1_555 1_555
C2 C1 1_555 1_555
H2 C2 1_555 1_555
C3 C2 1_555 1_555
C4 H3 1_555 1_555
H4 C4 1_555 1_555
H5 C4 1_555 1_555
C5 H6 1_555 1_555
C6 C5 1_555 1_555
C7 C6 1_555 1_555
C8 C9 1_555 1_555
C9 H7 1_555 1_555
H8 C9 1_555 1_555
H9 C9 1_555 1_555
C10 C8 1_555 1_555
H10 C10 1_555 1_555
H11 C10 1_555 1_555
H12 C10 1_555 1_555
C11 C6 1_555 1_555
N1 C3 1_555 1_555
N2 C1 1_555 1_555
N3 C3 1_555 1_555
O1 C11 1_555 1_555
O2 C8 1_555 1_555
O3 C7 1_555 1_555
O4 C7 1_555 1_555
H13 N3 1_555 1_555
C4 N1 1_555 1_555
C5 N3 1_555 1_555
C8 O3 1_555 1_555
C11 O2 1_555 1_555
N1 N2 1_555 1_555

#END
