
#######################################################################
#
#                 Cambridge Crystallographic Data Centre
#                                CCDC 
#
#######################################################################
#
# If this CIF has been generated from an entry in the Cambridge 
# Structural Database, then it will include bibliographic, chemical, 
# crystal, experimental, refinement or atomic coordinate data resulting 
# from the CCDC's data processing and validation procedures.
#
#######################################################################

data_WUGHOX
_chemical_formula_moiety         'C17 H10 N6 O2'
_chemical_name_systematic        
5-amino-1-(4-nitrophenyl)[1,2,3]triazolo[5,1-a]isoquinoline-6-carbonitrile
_symmetry_cell_setting           monoclinic
_symmetry_space_group_name_H-M   'C 2/c'
_symmetry_Int_Tables_number      15
_space_group_name_Hall           '-C 2yn'
loop_
_symmetry_equiv_pos_site_id
_symmetry_equiv_pos_as_xyz
1 x,y,z
2 -x,y,1/2-z
3 1/2+x,1/2+y,z
4 1/2-x,1/2+y,1/2-z
5 -x,-y,-z
6 x,-y,1/2+z
7 1/2-x,1/2-y,-z
8 1/2+x,1/2-y,1/2+z
_cell_length_a                   23.144(3)
_cell_length_b                   7.8478(9)
_cell_length_c                   17.448(2)
_cell_angle_alpha                90
_cell_angle_beta                 107.274(2)
_cell_angle_gamma                90
_cell_volume                     3026.13
_exptl_crystal_colour            colorless
_exptl_crystal_description       block
_cell_formula_units_Z            8
loop_
_atom_site_label
_atom_site_type_symbol
_atom_site_fract_x
_atom_site_fract_y
_atom_site_fract_z
C1 C 0.05476(8) 0.4501(2) 0.12496(10)
C2 C 0.02517(7) 0.3065(2) 0.08718(10)
H1 H -0.0164 0.3075 0.0628
C3 C 0.05864(7) 0.1618(2) 0.08649(9)
H2 H 0.0394 0.0640 0.0612
C4 C 0.12104(6) 0.16023(18) 0.12331(8)
C5 C 0.14898(7) 0.30564(19) 0.16287(9)
H3 H 0.1903 0.3044 0.1892
C6 C 0.11595(8) 0.4519(2) 0.16347(10)
H4 H 0.1347 0.5497 0.1894
C7 C 0.15710(6) 0.00552(18) 0.12463(8)
C8 C 0.15921(6) -0.10724(17) 0.06426(8)
C9 C 0.13340(6) -0.12189(18) -0.02140(8)
C10 C 0.09878(7) 0.0080(2) -0.06892(9)
H5 H 0.0920 0.1091 -0.0452
C11 C 0.07490(8) -0.0139(2) -0.15041(9)
H6 H 0.0522 0.0725 -0.1818
C12 C 0.08477(8) -0.1658(2) -0.18588(9)
H7 H 0.0674 -0.1815 -0.2408
C13 C 0.11972(7) -0.2924(2) -0.14098(9)
H8 H 0.1262 -0.3924 -0.1658
C14 C 0.14581(6) -0.27258(18) -0.05805(8)
C15 C 0.18618(6) -0.39964(18) -0.01006(8)
C16 C 0.21513(6) -0.37717(17) 0.07066(8)
C17 C 0.19908(7) -0.5491(2) -0.04831(9)
N1 N 0.01912(9) 0.6061(2) 0.12466(13)
N2 N 0.19596(6) -0.05070(17) 0.19518(7)
N3 N 0.22184(6) -0.19297(17) 0.18392(7)
N4 N 0.19953(5) -0.22904(15) 0.10426(7)
N5 N 0.20919(8) -0.6674(2) -0.08050(10)
O1 O 0.0472(2) 0.7411(5) 0.1401(9)
O2 O -0.03668(18) 0.5963(10) 0.1045(9)
N6 N 0.25561(6) -0.47822(17) 0.11994(8)
H9 H 0.2697(8) -0.455(2) 0.1709(6)
H10 H 0.2665(8) -0.5722(16) 0.1012(10)
O3? O 0.0444(5) 0.716(2) 0.1746(13)
O4? O -0.0337(3) 0.6013(14) 0.0843(7)
loop_
_geom_bond_atom_site_label_1
_geom_bond_atom_site_label_2
_geom_bond_site_symmetry_1
_geom_bond_site_symmetry_2
C1 C2 1_555 1_555
C2 H1 1_555 1_555
C3 C2 1_555 1_555
H2 C3 1_555 1_555
C4 C3 1_555 1_555
C5 C4 1_555 1_555
H3 C5 1_555 1_555
C6 C1 1_555 1_555
H4 C6 1_555 1_555
C7 C4 1_555 1_555
C8 C7 1_555 1_555
C9 C8 1_555 1_555
C10 C9 1_555 1_555
H5 C10 1_555 1_555
C11 C10 1_555 1_555
H6 C11 1_555 1_555
C12 C11 1_555 1_555
H7 C12 1_555 1_555
C13 C12 1_555 1_555
H8 C13 1_555 1_555
C14 C9 1_555 1_555
C15 C14 1_555 1_555
C16 C15 1_555 1_555
C17 C15 1_555 1_555
N1 C1 1_555 1_555
N2 C7 1_555 1_555
N3 N2 1_555 1_555
N4 C8 1_555 1_555
N5 C17 1_555 1_555
O1 N1 1_555 1_555
O2 N1 1_555 1_555
N6 C16 1_555 1_555
H9 N6 1_555 1_555
H10 N6 1_555 1_555
C5 C6 1_555 1_555
C13 C14 1_555 1_555
C16 N4 1_555 1_555
N3 N4 1_555 1_555

#END
