
#######################################################################
#
#                 Cambridge Crystallographic Data Centre
#                                CCDC 
#
#######################################################################
#
# If this CIF has been generated from an entry in the Cambridge 
# Structural Database, then it will include bibliographic, chemical, 
# crystal, experimental, refinement or atomic coordinate data resulting 
# from the CCDC's data processing and validation procedures.
#
#######################################################################

data_WUGJEP
_chemical_formula_moiety         'C17 H27 B1 Br1 N1 O2'
_chemical_name_systematic        
(1-(3-bromophenyl)-2-t-butoxy-2-oxoethyl)(dihydrido)(1-methylpyrrolidine)borate
_symmetry_cell_setting           orthorhombic
_symmetry_space_group_name_H-M   'P 21 21 21'
_symmetry_Int_Tables_number      19
_space_group_name_Hall           'P 2ac 2ab'
loop_
_symmetry_equiv_pos_site_id
_symmetry_equiv_pos_as_xyz
1 x,y,z
2 1/2+x,1/2-y,-z
3 -x,1/2+y,1/2-z
4 1/2-x,-y,1/2+z
_cell_length_a                   10.7398(8)
_cell_length_b                   12.4581(9)
_cell_length_c                   14.3472(13)
_cell_angle_alpha                90
_cell_angle_beta                 90
_cell_angle_gamma                90
_cell_volume                     1919.62
_exptl_crystal_colour            colorless
_exptl_crystal_description       plate
_cell_formula_units_Z            4
loop_
_atom_site_label
_atom_site_type_symbol
_atom_site_fract_x
_atom_site_fract_y
_atom_site_fract_z
Br1 Br -0.21907(10) 0.33211(7) -0.05796(8)
C1 C 0.0410(9) 0.3631(6) -0.0606(6)
H1 H 0.0441 0.2913 -0.0783
C2 C 0.1479(8) 0.4214(7) -0.0509(7)
H2 H 0.2244 0.3869 -0.0555
C3 C 0.1445(6) 0.5281(6) -0.0347(5)
H3 H 0.2187 0.5666 -0.0340
C4 C 0.0323(7) 0.5821(5) -0.0189(5)
C5 C 0.0277(6) 0.6968(5) 0.0034(5)
H4 H 0.1122 0.7249 -0.0045
N1 N 0.0012(7) 0.8544(5) -0.1281(5)
C6 C 0.0849(18) 0.7947(16) -0.1835(8)
H5 H 0.0767 0.8161 -0.2474
H6 H 0.0663 0.7196 -0.1777
H7 H 0.1686 0.8078 -0.1628
C7 C -0.0073(8) 0.7149(6) 0.1016(6)
O1 O 0.0580(4) 0.7922(4) 0.1424(4)
C8 C 0.0381(7) 0.8283(7) 0.2350(7)
O2 O -0.0928(6) 0.6679(6) 0.1423(4)
C9 C -0.0766(6) 0.5195(6) -0.0249(4)
H8 H -0.1537 0.5518 -0.0159
C10 C -0.0705(8) 0.4119(6) -0.0438(5)
B1 B -0.0643(8) 0.7722(8) -0.0583(11)
H9 H -0.1186 0.7259 -0.0943
H10 H -0.1164 0.8129 -0.0159
C11 C -0.0861(10) 0.8757(9) 0.2468(9)
H11 H -0.0962 0.9340 0.2037
H12 H -0.0948 0.9019 0.3093
H13 H -0.1483 0.8221 0.2349
C12 C 0.0526(14) 0.7343(9) 0.3066(7)
H14 H 0.1393 0.7180 0.3147
H15 H 0.0099 0.6719 0.2837
H16 H 0.0173 0.7553 0.3654
C13 C 0.1372(10) 0.9163(10) 0.2521(11)
H17 H 0.2188 0.8849 0.2492
H18 H 0.1246 0.9476 0.3124
H19 H 0.1298 0.9708 0.2051
C14 C -0.0937(12) 0.9164(8) -0.1779(7)
H20 H -0.0910 0.8987 -0.2437
H21 H -0.1755 0.8976 -0.1543
C15 C -0.0743(17) 1.0253(9) -0.1666(12)
H22 H -0.1494 1.0604 -0.1447
H23 H -0.0488 1.0580 -0.2249
C16 C 0.0684(17) 0.9339(8) -0.0654(16)
H24 H 0.0469 0.9230 -0.0004
H25 H 0.1580 0.9289 -0.0727
C17 C 0.023(2) 1.0331(16) -0.0986(17)
H26 H 0.0914 1.0729 -0.1256
H27 H -0.0083 1.0741 -0.0460
loop_
_geom_bond_atom_site_label_1
_geom_bond_atom_site_label_2
_geom_bond_site_symmetry_1
_geom_bond_site_symmetry_2
Br1 C10 1_555 1_555
C1 H1 1_555 1_555
C2 C1 1_555 1_555
H2 C2 1_555 1_555
C3 C2 1_555 1_555
H3 C3 1_555 1_555
C4 C3 1_555 1_555
C5 C4 1_555 1_555
H4 C5 1_555 1_555
N1 C6 1_555 1_555
C6 H5 1_555 1_555
H6 C6 1_555 1_555
H7 C6 1_555 1_555
C7 C5 1_555 1_555
O1 C7 1_555 1_555
C8 O1 1_555 1_555
O2 C7 1_555 1_555
C9 C4 1_555 1_555
H8 C9 1_555 1_555
C10 C1 1_555 1_555
B1 C5 1_555 1_555
H9 B1 1_555 1_555
H10 B1 1_555 1_555
C11 C8 1_555 1_555
H11 C11 1_555 1_555
H12 C11 1_555 1_555
H13 C11 1_555 1_555
C12 C8 1_555 1_555
H14 C12 1_555 1_555
H15 C12 1_555 1_555
H16 C12 1_555 1_555
C13 C8 1_555 1_555
H17 C13 1_555 1_555
H18 C13 1_555 1_555
H19 C13 1_555 1_555
C14 N1 1_555 1_555
H20 C14 1_555 1_555
H21 C14 1_555 1_555
C15 C14 1_555 1_555
H22 C15 1_555 1_555
H23 C15 1_555 1_555
C16 N1 1_555 1_555
H24 C16 1_555 1_555
H25 C16 1_555 1_555
C17 C15 1_555 1_555
H26 C17 1_555 1_555
H27 C17 1_555 1_555
N1 B1 1_555 1_555
C9 C10 1_555 1_555
C16 C17 1_555 1_555

#END
