
#######################################################################
#
#                 Cambridge Crystallographic Data Centre
#                                CCDC 
#
#######################################################################
#
# If this CIF has been generated from an entry in the Cambridge 
# Structural Database, then it will include bibliographic, chemical, 
# crystal, experimental, refinement or atomic coordinate data resulting 
# from the CCDC's data processing and validation procedures.
#
#######################################################################

data_WUGMUI
_chemical_formula_moiety         'C23 H28 N2 O5 S1'
_chemical_name_systematic        
11b-methyl-7-((4-nitrophenyl)sulfonyl)-1,3,4,5,6,7,9,10,11,11a,11b,12a-dodecahydrobenzo[1,2]azuleno[8,1-bc]pyridin-12(2H)-one
_symmetry_cell_setting           monoclinic
_symmetry_space_group_name_H-M   'P 21/c'
_symmetry_Int_Tables_number      14
_space_group_name_Hall           '-P 2ybc'
loop_
_symmetry_equiv_pos_site_id
_symmetry_equiv_pos_as_xyz
1 x,y,z
2 -x,1/2+y,1/2-z
3 -x,-y,-z
4 x,1/2-y,1/2+z
_cell_length_a                   17.2847(13)
_cell_length_b                   10.7604(8)
_cell_length_c                   11.6974(9)
_cell_angle_alpha                90
_cell_angle_beta                 99.408(5)
_cell_angle_gamma                90
_cell_volume                     2146.34
_exptl_crystal_colour            colorless
_exptl_crystal_description       plate
_cell_formula_units_Z            4
loop_
_atom_site_label
_atom_site_type_symbol
_atom_site_fract_x
_atom_site_fract_y
_atom_site_fract_z
S1 S 0.37729(3) 0.71088(4) 1.06457(3)
O1 O 0.44887(8) 0.78051(13) 1.08876(12)
O2 O 0.34515(9) 0.65681(13) 1.15759(11)
O3 O 0.44996(9) 0.32156(13) 0.65476(11)
O4 O 0.38829(9) 0.19936(13) 0.75614(13)
O5 O 0.02465(11) 0.95624(19) 0.7978(2)
N1 N 0.31239(8) 0.80269(13) 0.99377(13)
N2 N 0.41811(9) 0.29945(14) 0.73892(13)
C1 C 0.39422(9) 0.58788(16) 0.97066(14)
C2 C 0.38587(10) 0.46566(17) 1.00519(15)
H1 H 0.3737 0.4480 1.0798
C3 C 0.39553(10) 0.37014(16) 0.92970(15)
H2 H 0.3900 0.2859 0.9513
C4 C 0.41344(9) 0.40010(16) 0.82216(14)
C5 C 0.42572(10) 0.52064(16) 0.78845(14)
H3 H 0.4408 0.5376 0.7155
C6 C 0.41536(10) 0.61612(16) 0.86409(15)
H4 H 0.4227 0.7001 0.8432
C7 C 0.33602(11) 0.90450(17) 0.92255(16)
H5 H 0.3162 0.8890 0.8395
H6 H 0.3939 0.9107 0.9333
C8 C 0.30144(10) 1.02331(17) 0.96125(17)
H7 H 0.3117 1.0915 0.9089
H8 H 0.3284 1.0442 1.0402
C9 C 0.21295(10) 1.01596(17) 0.96229(15)
C10 C 0.18976(11) 1.13688(17) 1.02020(17)
H9 H 0.1372 1.1257 1.0420
H10 H 0.2275 1.1515 1.0922
C11 C 0.18823(13) 1.25129(19) 0.9423(2)
H11 H 0.1705 1.3243 0.9826
H12 H 0.2419 1.2685 0.9272
C12 C 0.13389(13) 1.2326(2) 0.8277(2)
H13 H 0.0795 1.2212 0.8422
H14 H 0.1351 1.3075 0.7789
C13 C 0.15833(14) 1.1200(2) 0.76408(19)
H15 H 0.2098 1.1363 0.7404
H16 H 0.1196 1.1058 0.6930
C14 C 0.16413(12) 1.00330(18) 0.83986(17)
H17 H 0.1895 0.9373 0.7985
C15 C 0.08655(13) 0.9514(2) 0.8629(2)
C16 C 0.09754(11) 0.89715(19) 0.9834(2)
H18 H 0.0785 0.9640 1.0313
C17 C 0.04485(12) 0.7864(2) 0.9976(3)
H19 H 0.0571 0.7568 1.0787
H20 H -0.0104 0.8149 0.9842
C18 C 0.05254(14) 0.6772(2) 0.9167(3)
H21 H 0.0072 0.6210 0.9168
H22 H 0.0499 0.7095 0.8369
C19 C 0.12559(13) 0.6040(2) 0.9472(2)
H23 H 0.1232 0.5341 0.8917
H24 H 0.1254 0.5673 1.0248
C20 C 0.20318(11) 0.66849(18) 0.94951(18)
H25 H 0.2412 0.6188 0.9210
C21 C 0.22900(10) 0.78090(17) 0.98344(15)
C22 C 0.18725(10) 0.89485(17) 1.02431(15)
C23 C 0.20757(12) 0.89890(19) 1.15696(16)
H26 H 0.1904 0.8216 1.1894
H27 H 0.1809 0.9695 1.1863
H28 H 0.2644 0.9082 1.1799
loop_
_geom_bond_atom_site_label_1
_geom_bond_atom_site_label_2
_geom_bond_site_symmetry_1
_geom_bond_site_symmetry_2
S1 O1 1_555 1_555
O2 S1 1_555 1_555
O3 N2 1_555 1_555
O4 N2 1_555 1_555
O5 C15 1_555 1_555
N1 S1 1_555 1_555
N2 C4 1_555 1_555
C1 S1 1_555 1_555
C2 C1 1_555 1_555
H1 C2 1_555 1_555
C3 C2 1_555 1_555
H2 C3 1_555 1_555
C4 C3 1_555 1_555
C5 C4 1_555 1_555
H3 C5 1_555 1_555
C6 C1 1_555 1_555
H4 C6 1_555 1_555
C7 N1 1_555 1_555
H5 C7 1_555 1_555
H6 C7 1_555 1_555
C8 C7 1_555 1_555
H7 C8 1_555 1_555
H8 C8 1_555 1_555
C9 C8 1_555 1_555
C10 C9 1_555 1_555
H9 C10 1_555 1_555
H10 C10 1_555 1_555
C11 C10 1_555 1_555
H11 C11 1_555 1_555
H12 C11 1_555 1_555
C12 C11 1_555 1_555
H13 C12 1_555 1_555
H14 C12 1_555 1_555
C13 C12 1_555 1_555
H15 C13 1_555 1_555
H16 C13 1_555 1_555
C14 C9 1_555 1_555
H17 C14 1_555 1_555
C15 C14 1_555 1_555
C16 C15 1_555 1_555
H18 C16 1_555 1_555
C17 C16 1_555 1_555
H19 C17 1_555 1_555
H20 C17 1_555 1_555
C18 C17 1_555 1_555
H21 C18 1_555 1_555
H22 C18 1_555 1_555
C19 C18 1_555 1_555
H23 C19 1_555 1_555
H24 C19 1_555 1_555
C20 C19 1_555 1_555
H25 C20 1_555 1_555
C21 N1 1_555 1_555
C22 C9 1_555 1_555
C23 C22 1_555 1_555
H26 C23 1_555 1_555
H27 C23 1_555 1_555
H28 C23 1_555 1_555
C5 C6 1_555 1_555
C13 C14 1_555 1_555
C16 C22 1_555 1_555
C20 C21 1_555 1_555
C21 C22 1_555 1_555

#END
