
#######################################################################
#
#                 Cambridge Crystallographic Data Centre
#                                CCDC 
#
#######################################################################
#
# If this CIF has been generated from an entry in the Cambridge 
# Structural Database, then it will include bibliographic, chemical, 
# crystal, experimental, refinement or atomic coordinate data resulting 
# from the CCDC's data processing and validation procedures.
#
#######################################################################

data_WUGMIW
_chemical_formula_moiety         'C28 H32 B2 N2'
_chemical_name_systematic        
dimesityl(2-methyl-6-(pyridin-2-yl)-1,2-dihydro-1,2-azaborininato)boron
_symmetry_cell_setting           monoclinic
_symmetry_space_group_name_H-M   'P 21/c'
_symmetry_Int_Tables_number      14
_space_group_name_Hall           '-P 2ybc'
loop_
_symmetry_equiv_pos_site_id
_symmetry_equiv_pos_as_xyz
1 x,y,z
2 -x,1/2+y,1/2-z
3 -x,-y,-z
4 x,1/2-y,1/2+z
_cell_length_a                   9.6888(11)
_cell_length_b                   13.3356(15)
_cell_length_c                   18.584(2)
_cell_angle_alpha                90
_cell_angle_beta                 102.3920(19)
_cell_angle_gamma                90
_cell_volume                     2345.22
_exptl_crystal_colour            colorless
_exptl_crystal_description       block
_cell_formula_units_Z            4
loop_
_atom_site_label
_atom_site_type_symbol
_atom_site_fract_x
_atom_site_fract_y
_atom_site_fract_z
N1 N 0.84464(10) 0.97141(7) 0.15330(5)
N2 N 0.95485(9) 0.80906(7) 0.17405(5)
B1 B 0.77059(15) 1.06570(10) 0.15093(8)
B2 B 0.81078(12) 0.86661(9) 0.18601(7)
C1 C 0.99839(12) 0.71475(9) 0.19276(7)
H1 H 0.9458 0.6744 0.2194
C2 C 1.11783(13) 0.67554(11) 0.17394(7)
H2 H 1.1473 0.6090 0.1875
C3 C 1.19436(13) 0.73505(12) 0.13485(8)
H3 H 1.2773 0.7095 0.1219
C4 C 1.14921(13) 0.83134(11) 0.11496(7)
H4 H 1.1995 0.8724 0.0876
C5 C 1.02820(12) 0.86723(9) 0.13589(6)
C6 C 0.96539(12) 0.96678(9) 0.12530(6)
C7 C 1.02224(15) 1.04599(10) 0.09450(7)
H5 H 1.1050 1.0370 0.0756
C8 C 0.95692(16) 1.14084(10) 0.09112(8)
H6 H 0.9961 1.1960 0.0701
C9 C 0.83733(16) 1.15369(10) 0.11800(7)
H7 H 0.7951 1.2182 0.1162
C10 C 0.62789(14) 1.07713(10) 0.17832(8)
H8 H 0.5555 1.0340 0.1487
H9 H 0.5965 1.1471 0.1730
H10 H 0.6432 1.0574 0.2302
C11 C 0.81088(11) 0.88052(8) 0.27405(6)
C12 C 0.93963(11) 0.89887(8) 0.32614(6)
C13 C 0.94437(11) 0.89767(8) 0.40166(6)
H11 H 1.0325 0.9086 0.4347
C14 C 0.82516(12) 0.88112(8) 0.43048(6)
C15 C 0.69685(12) 0.87398(8) 0.38022(6)
H12 H 0.6125 0.8683 0.3982
C16 C 0.68725(11) 0.87477(8) 0.30391(6)
C17 C 1.07946(11) 0.92324(9) 0.30527(6)
H13 H 1.1432 0.9550 0.3472
H14 H 1.0627 0.9691 0.2631
H15 H 1.1225 0.8613 0.2921
C18 C 0.83821(13) 0.86983(9) 0.51230(6)
H16 H 0.7479 0.8868 0.5249
H17 H 0.9120 0.9150 0.5384
H18 H 0.8633 0.8004 0.5267
C19 C 0.53676(11) 0.86823(9) 0.25819(7)
H19 H 0.4985 0.8013 0.2635
H20 H 0.5372 0.8805 0.2063
H21 H 0.4778 0.9187 0.2754
C20 C 0.68515(11) 0.79762(8) 0.13431(6)
C21 C 0.64303(11) 0.70444(8) 0.16079(6)
C22 C 0.54043(12) 0.64379(8) 0.11637(7)
H22 H 0.5163 0.5817 0.1355
C23 C 0.47319(12) 0.67124(9) 0.04563(7)
C24 C 0.51519(12) 0.76074(9) 0.01880(6)
H23 H 0.4705 0.7813 -0.0295
C25 C 0.62068(11) 0.82198(8) 0.05992(6)
C26 C 0.69909(12) 0.65957(9) 0.23694(7)
H24 H 0.6213 0.6521 0.2626
H25 H 0.7712 0.7040 0.2653
H26 H 0.7408 0.5937 0.2318
C27 C 0.36136(14) 0.60580(10) -0.00099(8)
H27 H 0.4016 0.5709 -0.0381
H28 H 0.2819 0.6476 -0.0255
H29 H 0.3280 0.5564 0.0305
C28 C 0.66197(14) 0.90988(10) 0.01683(7)
H30 H 0.6134 0.9043 -0.0350
H31 H 0.7644 0.9092 0.0205
H32 H 0.6348 0.9728 0.0372
loop_
_geom_bond_atom_site_label_1
_geom_bond_atom_site_label_2
_geom_bond_site_symmetry_1
_geom_bond_site_symmetry_2
N1 B1 1_555 1_555
N2 B2 1_555 1_555
B1 C9 1_555 1_555
B2 N1 1_555 1_555
C1 N2 1_555 1_555
H1 C1 1_555 1_555
C2 C1 1_555 1_555
H2 C2 1_555 1_555
C3 C2 1_555 1_555
H3 C3 1_555 1_555
C4 C3 1_555 1_555
H4 C4 1_555 1_555
C5 N2 1_555 1_555
C6 N1 1_555 1_555
C7 C6 1_555 1_555
H5 C7 1_555 1_555
C8 C7 1_555 1_555
H6 C8 1_555 1_555
C9 C8 1_555 1_555
H7 C9 1_555 1_555
C10 B1 1_555 1_555
H8 C10 1_555 1_555
H9 C10 1_555 1_555
H10 C10 1_555 1_555
C11 B2 1_555 1_555
C12 C11 1_555 1_555
C13 C12 1_555 1_555
H11 C13 1_555 1_555
C14 C13 1_555 1_555
C15 C14 1_555 1_555
H12 C15 1_555 1_555
C16 C11 1_555 1_555
C17 C12 1_555 1_555
H13 C17 1_555 1_555
H14 C17 1_555 1_555
H15 C17 1_555 1_555
C18 C14 1_555 1_555
H16 C18 1_555 1_555
H17 C18 1_555 1_555
H18 C18 1_555 1_555
C19 C16 1_555 1_555
H19 C19 1_555 1_555
H20 C19 1_555 1_555
H21 C19 1_555 1_555
C20 B2 1_555 1_555
C21 C20 1_555 1_555
C22 C21 1_555 1_555
H22 C22 1_555 1_555
C23 C22 1_555 1_555
C24 C23 1_555 1_555
H23 C24 1_555 1_555
C25 C20 1_555 1_555
C26 C21 1_555 1_555
H24 C26 1_555 1_555
H25 C26 1_555 1_555
H26 C26 1_555 1_555
C27 C23 1_555 1_555
H27 C27 1_555 1_555
H28 C27 1_555 1_555
H29 C27 1_555 1_555
C28 C25 1_555 1_555
H30 C28 1_555 1_555
H31 C28 1_555 1_555
H32 C28 1_555 1_555
C4 C5 1_555 1_555
C5 C6 1_555 1_555
C15 C16 1_555 1_555
C24 C25 1_555 1_555

#END
