
#######################################################################
#
#                 Cambridge Crystallographic Data Centre
#                                CCDC 
#
#######################################################################
#
# If this CIF has been generated from an entry in the Cambridge 
# Structural Database, then it will include bibliographic, chemical, 
# crystal, experimental, refinement or atomic coordinate data resulting 
# from the CCDC's data processing and validation procedures.
#
#######################################################################

data_WUGNAP
_chemical_formula_moiety         'C22 H22 N2 O5 S1'
_chemical_name_systematic        
N-benzyl-N-(7-methyl-8-oxobicyclo[3.2.1]oct-6-en-6-yl)-4-nitrobenzenesulfonamide
_symmetry_cell_setting           monoclinic
_symmetry_space_group_name_H-M   'P 21'
_symmetry_Int_Tables_number      4
_space_group_name_Hall           'P 2yb'
loop_
_symmetry_equiv_pos_site_id
_symmetry_equiv_pos_as_xyz
1 x,y,z
2 -x,1/2+y,-z
_cell_length_a                   14.8494(6)
_cell_length_b                   9.7009(4)
_cell_length_c                   14.1516(6)
_cell_angle_alpha                90
_cell_angle_beta                 99.519(2)
_cell_angle_gamma                90
_cell_volume                     2010.5
_exptl_crystal_colour            colorless
_exptl_crystal_description       plate
_cell_formula_units_Z            4
loop_
_atom_site_label
_atom_site_type_symbol
_atom_site_fract_x
_atom_site_fract_y
_atom_site_fract_z
S1 S 0.14258(4) 0.86203(7) 0.19213(4)
O1 O 0.08091(11) 0.8056(2) 0.11341(11)
O2 O 0.20175(12) 0.97319(18) 0.17722(13)
C1 C 0.07768(13) 0.9135(2) 0.28045(14)
C2 C -0.00281(14) 0.8443(3) 0.28708(15)
H1 H -0.0261 0.7770 0.2406
C3 C -0.04885(15) 0.8742(3) 0.36190(15)
H2 H -0.1040 0.8280 0.3681
C4 C -0.01250(15) 0.9732(2) 0.42745(15)
C5 C 0.06544(15) 1.0477(3) 0.41997(16)
H3 H 0.0868 1.1180 0.4649
C6 C 0.11143(15) 1.0169(3) 0.34527(16)
H4 H 0.1654 1.0656 0.3382
N1 N -0.05895(13) 0.9984(2) 0.50992(13)
O3 O -0.12160(13) 0.9213(2) 0.52159(14)
O4 O -0.03114(14) 1.0941(2) 0.56403(13)
N2 N 0.20729(11) 0.73429(16) 0.24067(12)
C7 C 0.16310(14) 0.59911(19) 0.25130(17)
H5 H 0.1028 0.5964 0.2093
H6 H 0.1532 0.5877 0.3184
C8 C 0.22158(16) 0.4826(2) 0.22520(16)
C9 C 0.24638(19) 0.3741(3) 0.28803(19)
H7 H 0.2298 0.3753 0.3500
C10 C 0.2957(2) 0.2632(3) 0.2601(2)
H8 H 0.3123 0.1888 0.3031
C11 C 0.3205(2) 0.2607(3) 0.1708(2)
H9 H 0.3536 0.1845 0.1520
C12 C 0.2973(2) 0.3687(3) 0.1087(2)
H10 H 0.3151 0.3675 0.0472
C13 C 0.24789(18) 0.4798(3) 0.13526(17)
H11 H 0.2320 0.5541 0.0919
C14 C 0.28418(12) 0.7714(3) 0.31060(13)
C15 C 0.36508(18) 0.8049(4) 0.29927(19)
C16 C 0.4008(2) 0.8154(5) 0.2070(2)
H12 H 0.3552 0.7796 0.1548
H13 H 0.4571 0.7614 0.2113
H14 H 0.4137 0.9121 0.1944
C17 C 0.42420(16) 0.8374(3) 0.39459(18)
H15 H 0.4673 0.9156 0.3906
C18 C 0.4725(2) 0.7067(4) 0.4405(3)
H16 H 0.5214 0.6793 0.4045
H17 H 0.5010 0.7271 0.5073
C19 C 0.4045(2) 0.5871(3) 0.4400(3)
H18 H 0.3907 0.5484 0.3745
H19 H 0.4332 0.5135 0.4832
C20 C 0.3153(2) 0.6308(3) 0.4717(2)
H20 H 0.3261 0.6452 0.5419
H21 H 0.2698 0.5561 0.4569
C21 C 0.27665(18) 0.7651(3) 0.42123(18)
H22 H 0.2151 0.7914 0.4354
C22 C 0.3499(2) 0.8726(3) 0.4520(2)
O5 O 0.3485(2) 0.9675(3) 0.5066(2)
S2 S 0.85716(4) 0.26599(7) 0.31338(4)
O7 O 0.91986(11) 0.3254(2) 0.38997(11)
O8 O 0.79862(12) 0.15584(18) 0.33176(13)
C31 C 0.92026(14) 0.2102(2) 0.22465(14)
C32 C 0.99995(14) 0.2792(3) 0.21453(15)
H34 H 1.0242 0.3478 0.2596
C33 C 1.04385(15) 0.2474(3) 0.13843(15)
H35 H 1.0984 0.2936 0.1302
C34 C 1.00631(15) 0.1469(2) 0.07472(15)
C35 C 0.92936(15) 0.0723(3) 0.08612(16)
H36 H 0.9072 0.0004 0.0428
C36 C 0.88552(15) 0.1048(2) 0.16209(16)
H37 H 0.8323 0.0560 0.1716
N3 N 1.05045(13) 0.1194(2) -0.00909(13)
O9 O 1.11607(13) 0.1904(2) -0.02036(14)
O10 O 1.01799(14) 0.0280(2) -0.06459(13)
N4 N 0.79157(11) 0.39141(16) 0.26302(12)
C37 C 0.83550(14) 0.52558(19) 0.24870(17)
H38 H 0.8485 0.5307 0.1824
H39 H 0.8943 0.5324 0.2932
C38 C 0.77475(16) 0.6443(2) 0.26619(16)
C39 C 0.74996(19) 0.7440(3) 0.19630(19)
H40 H 0.7696 0.7356 0.1360
C40 C 0.6965(2) 0.8561(3) 0.2139(2)
H41 H 0.6783 0.9225 0.1651
C41 C 0.6700(2) 0.8704(3) 0.3021(2)
H42 H 0.6342 0.9475 0.3144
C42 C 0.6952(2) 0.7736(3) 0.3723(2)
H43 H 0.6775 0.7848 0.4334
C43 C 0.74645(18) 0.6592(3) 0.35462(17)
H44 H 0.7621 0.5913 0.4029
C44 C 0.71435(12) 0.3504(3) 0.19465(13)
C45 C 0.7018(2) 0.3294(4) 0.1047(2)
C46 C 0.7663(2) 0.3617(6) 0.0373(2)
H45 H 0.8273 0.3791 0.0738
H46 H 0.7450 0.4437 -0.0003
H47 H 0.7690 0.2834 -0.0060
C47 C 0.60553(19) 0.2793(3) 0.06797(19)
H48 H 0.6024 0.2140 0.0128
C48 C 0.5376(3) 0.4010(4) 0.0474(4)
H49 H 0.5489 0.4508 -0.0106
H50 H 0.4744 0.3650 0.0348
C49 C 0.5479(3) 0.5011(3) 0.1323(3)
H51 H 0.6022 0.5597 0.1305
H52 H 0.4938 0.5622 0.1247
C50 C 0.5579(2) 0.4312(4) 0.2304(2)
H53 H 0.4974 0.3986 0.2415
H54 H 0.5807 0.4991 0.2809
C51 C 0.6249(2) 0.3073(3) 0.2372(2)
H55 H 0.6377 0.2632 0.3019
C52 C 0.5832(2) 0.2113(3) 0.1576(2)
O11 O 0.5376(2) 0.1090(3) 0.1627(2)
C23? C 0.2957(4) 0.7968(12) 0.3999(3)
C24? C 0.2313(7) 0.7645(19) 0.4673(5)
H23? H 0.1684 0.7687 0.4329
H24? H 0.2392 0.8319 0.5196
H25? H 0.2439 0.6718 0.4936
C25? C 0.3915(4) 0.8497(8) 0.4360(4)
H26? H 0.3939 0.9156 0.4907
C26? C 0.4606(7) 0.7300(11) 0.4576(6)
H27? H 0.5234 0.7676 0.4693
H28? H 0.4501 0.6813 0.5163
C27? C 0.4510(7) 0.6275(8) 0.3738(6)
H29? H 0.5046 0.5654 0.3828
H30? H 0.3960 0.5703 0.3747
C28? C 0.4435(4) 0.6979(9) 0.2760(5)
H31? H 0.4245 0.6295 0.2246
H32? H 0.5040 0.7347 0.2678
C29? C 0.3730(3) 0.8172(7) 0.2672(4)
H33? H 0.3591 0.8591 0.2019
C30? C 0.4114(5) 0.9177(7) 0.3455(5)
O6? O 0.4594(8) 1.0172(9) 0.3398(7)
C53? C 0.6315(3) 0.3264(8) 0.2031(3)
C54? C 0.5927(4) 0.3292(10) 0.2937(3)
H56? H 0.5822 0.2346 0.3137
H57? H 0.5346 0.3794 0.2831
H58? H 0.6356 0.3753 0.3439
C55? C 0.5743(2) 0.2869(5) 0.1080(3)
H59? H 0.5303 0.2106 0.1142
C56? C 0.5278(4) 0.4145(6) 0.0552(7)
H60? H 0.5012 0.3888 -0.0113
H61? H 0.4776 0.4463 0.0879
C57? C 0.5970(4) 0.5317(5) 0.0536(6)
H62? H 0.5705 0.6012 0.0057
H63? H 0.6078 0.5771 0.1171
C58? C 0.6884(4) 0.4833(5) 0.0295(4)
H64? H 0.7342 0.5574 0.0457
H65? H 0.6816 0.4662 -0.0403
C59? C 0.7237(3) 0.3504(5) 0.0837(3)
H66? H 0.7853 0.3207 0.0715
C60? C 0.6494(3) 0.2442(4) 0.0538(3)
O12? O 0.6538(4) 0.1393(4) 0.0088(4)
loop_
_geom_bond_atom_site_label_1
_geom_bond_atom_site_label_2
_geom_bond_site_symmetry_1
_geom_bond_site_symmetry_2
S1 O1 1_555 1_555
O2 S1 1_555 1_555
C1 S1 1_555 1_555
C2 C1 1_555 1_555
H1 C2 1_555 1_555
C3 C2 1_555 1_555
H2 C3 1_555 1_555
C4 C3 1_555 1_555
C5 C4 1_555 1_555
H3 C5 1_555 1_555
C6 C1 1_555 1_555
H4 C6 1_555 1_555
N1 C4 1_555 1_555
O3 N1 1_555 1_555
O4 N1 1_555 1_555
N2 S1 1_555 1_555
C7 N2 1_555 1_555
H5 C7 1_555 1_555
H6 C7 1_555 1_555
C8 C7 1_555 1_555
C9 C8 1_555 1_555
H7 C9 1_555 1_555
C10 C9 1_555 1_555
H8 C10 1_555 1_555
C11 C10 1_555 1_555
H9 C11 1_555 1_555
C12 C11 1_555 1_555
H10 C12 1_555 1_555
C13 C8 1_555 1_555
H11 C13 1_555 1_555
C14 N2 1_555 1_555
C15 C14 1_555 1_555
C16 C15 1_555 1_555
H12 C16 1_555 1_555
H13 C16 1_555 1_555
H14 C16 1_555 1_555
C17 C15 1_555 1_555
H15 C17 1_555 1_555
C18 C17 1_555 1_555
H16 C18 1_555 1_555
H17 C18 1_555 1_555
C19 C18 1_555 1_555
H18 C19 1_555 1_555
H19 C19 1_555 1_555
C20 C19 1_555 1_555
H20 C20 1_555 1_555
H21 C20 1_555 1_555
C21 C14 1_555 1_555
H22 C21 1_555 1_555
C22 C17 1_555 1_555
O5 C22 1_555 1_555
S2 O7 1_555 1_555
O8 S2 1_555 1_555
C31 S2 1_555 1_555
C32 C31 1_555 1_555
H34 C32 1_555 1_555
C33 C32 1_555 1_555
H35 C33 1_555 1_555
C34 C33 1_555 1_555
C35 C34 1_555 1_555
H36 C35 1_555 1_555
C36 C31 1_555 1_555
H37 C36 1_555 1_555
N3 C34 1_555 1_555
O9 N3 1_555 1_555
O10 N3 1_555 1_555
N4 S2 1_555 1_555
C37 N4 1_555 1_555
H38 C37 1_555 1_555
H39 C37 1_555 1_555
C38 C37 1_555 1_555
C39 C38 1_555 1_555
H40 C39 1_555 1_555
C40 C39 1_555 1_555
H41 C40 1_555 1_555
C41 C40 1_555 1_555
H42 C41 1_555 1_555
C42 C41 1_555 1_555
H43 C42 1_555 1_555
C43 C38 1_555 1_555
H44 C43 1_555 1_555
C44 N4 1_555 1_555
C45 C44 1_555 1_555
C46 C45 1_555 1_555
H45 C46 1_555 1_555
H46 C46 1_555 1_555
H47 C46 1_555 1_555
C47 C45 1_555 1_555
H48 C47 1_555 1_555
C48 C47 1_555 1_555
H49 C48 1_555 1_555
H50 C48 1_555 1_555
C49 C48 1_555 1_555
H51 C49 1_555 1_555
H52 C49 1_555 1_555
C50 C49 1_555 1_555
H53 C50 1_555 1_555
H54 C50 1_555 1_555
C51 C44 1_555 1_555
H55 C51 1_555 1_555
C52 C47 1_555 1_555
O11 C52 1_555 1_555
C5 C6 1_555 1_555
C12 C13 1_555 1_555
C20 C21 1_555 1_555
C21 C22 1_555 1_555
C35 C36 1_555 1_555
C42 C43 1_555 1_555
C50 C51 1_555 1_555
C51 C52 1_555 1_555

#END
