
#######################################################################
#
#                 Cambridge Crystallographic Data Centre
#                                CCDC 
#
#######################################################################
#
# If this CIF has been generated from an entry in the Cambridge 
# Structural Database, then it will include bibliographic, chemical, 
# crystal, experimental, refinement or atomic coordinate data resulting 
# from the CCDC's data processing and validation procedures.
#
#######################################################################

data_WUGQUL
_chemical_formula_moiety         'C28 H38 Mg1 N4 O4'
_chemical_name_systematic        
bis(2-(4,4-Dimethyl-4,5-dihydro-1,3-oxazol-2-yl)-N-(2-(methoxy)ethyl)anilinato)-magnesium
_symmetry_cell_setting           orthorhombic
_symmetry_space_group_name_H-M   'P b c a'
_symmetry_Int_Tables_number      61
_space_group_name_Hall           '-P 2ac 2ab'
loop_
_symmetry_equiv_pos_site_id
_symmetry_equiv_pos_as_xyz
1 x,y,z
2 1/2-x,-y,1/2+z
3 -x,1/2+y,1/2-z
4 1/2+x,1/2-y,-z
5 -x,-y,-z
6 1/2+x,y,1/2-z
7 x,1/2-y,1/2+z
8 1/2-x,1/2+y,z
_cell_length_a                   11.7203(14)
_cell_length_b                   18.159(2)
_cell_length_c                   25.753(3)
_cell_angle_alpha                90
_cell_angle_beta                 90
_cell_angle_gamma                90
_cell_volume                     5480.98
_exptl_crystal_colour            yellow
_exptl_crystal_description       parallelepiped
_cell_formula_units_Z            8
_exptl_crystal_recrystallization_method tetrahydrofuran
loop_
_atom_site_label
_atom_site_type_symbol
_atom_site_fract_x
_atom_site_fract_y
_atom_site_fract_z
Mg1 Mg 0.95681(5) 0.19082(3) 0.62792(2)
O1 O 1.04538(12) -0.00286(8) 0.71796(5)
O2 O 0.97966(12) 0.26319(9) 0.56076(6)
O3 O 0.63802(11) 0.10878(9) 0.56555(6)
O4 O 1.06026(12) 0.26955(9) 0.67345(6)
N1 N 0.97849(12) 0.10290(8) 0.68449(6)
N2 N 1.11341(13) 0.15352(10) 0.59515(6)
N3 N 0.81858(12) 0.13665(9) 0.58728(6)
N4 N 0.83170(14) 0.26409(9) 0.65779(6)
C1 C 1.17897(15) 0.09471(11) 0.60628(7)
C2 C 1.28246(18) 0.07726(15) 0.57882(9)
H1 H 1.3054 0.1083 0.5521
C3 C 1.34849(18) 0.01756(16) 0.58999(9)
H2 H 1.4152 0.0099 0.5712
C4 C 1.31931(18) -0.03179(15) 0.62835(9)
H3 H 1.3641 -0.0729 0.6351
C5 C 1.22196(18) -0.01815(12) 0.65620(8)
H4 H 1.2011 -0.0512 0.6821
C6 C 1.15194(15) 0.04377(11) 0.64729(7)
C7 C 1.1551(2) 0.19908(14) 0.55238(9)
H5 H 1.1448 0.1727 0.5200
H6 H 1.2362 0.2077 0.5570
C8 C 1.0953(2) 0.27098(16) 0.54910(12)
H7 H 1.1299 0.3054 0.5732
H8 H 1.1036 0.2909 0.5143
C9 C 0.9114(3) 0.32391(19) 0.54578(12)
H9 H 0.9419 0.3454 0.5147
H10 H 0.9113 0.3600 0.5730
H11 H 0.8348 0.3075 0.5395
C10 C 1.05476(14) 0.05271(10) 0.68196(7)
C11 C 0.9432(2) 0.00999(13) 0.74632(10)
H12 H 0.9583 0.0096 0.7834
H13 H 0.8870 -0.0276 0.7386
C12 C 0.90081(16) 0.08534(11) 0.72914(7)
C13 C 0.9159(2) 0.14081(15) 0.77187(9)
H14 H 0.9942 0.1412 0.7829
H15 H 0.8679 0.1279 0.8007
H16 H 0.8953 0.1888 0.7594
C14 C 0.77739(19) 0.08237(18) 0.71156(10)
H17 H 0.7534 0.1305 0.7008
H18 H 0.7303 0.0660 0.7398
H19 H 0.7704 0.0487 0.6830
C15 C 0.72091(17) 0.27192(11) 0.64465(7)
C16 C 0.6544(2) 0.33571(14) 0.65720(10)
H20 H 0.6909 0.3753 0.6730
C17 C 0.5404(2) 0.34160(16) 0.64720(11)
H21 H 0.5021 0.3846 0.6562
C18 C 0.4811(2) 0.28514(17) 0.62410(10)
H22 H 0.4027 0.2883 0.6191
C19 C 0.54060(18) 0.22414(15) 0.60867(9)
H23 H 0.5011 0.1861 0.5925
C20 C 0.65890(16) 0.21644(11) 0.61622(7)
C21 C 0.8795(2) 0.32773(12) 0.68510(10)
H24 H 0.8273 0.3428 0.7123
H25 H 0.8872 0.3684 0.6609
C22 C 0.9936(2) 0.31131(13) 0.70857(9)
H26 H 1.0325 0.3570 0.7167
H27 H 0.9835 0.2840 0.7406
C23 C 1.1709(2) 0.25399(17) 0.69365(12)
H28 H 1.1989 0.2962 0.7122
H29 H 1.2219 0.2427 0.6656
H30 H 1.1666 0.2126 0.7168
C24 C 0.71271(16) 0.15383(11) 0.59118(7)
C25 C 0.7045(2) 0.04746(15) 0.54770(11)
H31 H 0.6830 0.0338 0.5126
H32 H 0.6943 0.0052 0.5703
C26 C 0.82649(17) 0.07426(11) 0.54934(8)
C27 C 0.8638(2) 0.10524(16) 0.49699(8)
H33 H 0.8118 0.1432 0.4864
H34 H 0.8639 0.0666 0.4716
H35 H 0.9392 0.1254 0.5000
C28 C 0.9069(2) 0.01418(13) 0.56762(10)
H36 H 0.9835 0.0329 0.5684
H37 H 0.9029 -0.0269 0.5442
H38 H 0.8852 -0.0015 0.6018
loop_
_geom_bond_atom_site_label_1
_geom_bond_atom_site_label_2
_geom_bond_site_symmetry_1
_geom_bond_site_symmetry_2
Mg1 O2 1_555 1_555
O1 C10 1_555 1_555
O2 C8 1_555 1_555
O3 C24 1_555 1_555
O4 Mg1 1_555 1_555
N1 Mg1 1_555 1_555
N2 Mg1 1_555 1_555
N3 Mg1 1_555 1_555
N4 Mg1 1_555 1_555
C1 N2 1_555 1_555
C2 C1 1_555 1_555
H1 C2 1_555 1_555
C3 C2 1_555 1_555
H2 C3 1_555 1_555
C4 C3 1_555 1_555
H3 C4 1_555 1_555
C5 C4 1_555 1_555
H4 C5 1_555 1_555
C6 C1 1_555 1_555
C7 N2 1_555 1_555
H5 C7 1_555 1_555
H6 C7 1_555 1_555
C8 C7 1_555 1_555
H7 C8 1_555 1_555
H8 C8 1_555 1_555
C9 O2 1_555 1_555
H9 C9 1_555 1_555
H10 C9 1_555 1_555
H11 C9 1_555 1_555
C10 N1 1_555 1_555
C11 O1 1_555 1_555
H12 C11 1_555 1_555
H13 C11 1_555 1_555
C12 N1 1_555 1_555
C13 C12 1_555 1_555
H14 C13 1_555 1_555
H15 C13 1_555 1_555
H16 C13 1_555 1_555
C14 C12 1_555 1_555
H17 C14 1_555 1_555
H18 C14 1_555 1_555
H19 C14 1_555 1_555
C15 N4 1_555 1_555
C16 C15 1_555 1_555
H20 C16 1_555 1_555
C17 C16 1_555 1_555
H21 C17 1_555 1_555
C18 C17 1_555 1_555
H22 C18 1_555 1_555
C19 C18 1_555 1_555
H23 C19 1_555 1_555
C20 C15 1_555 1_555
C21 N4 1_555 1_555
H24 C21 1_555 1_555
H25 C21 1_555 1_555
C22 O4 1_555 1_555
H26 C22 1_555 1_555
H27 C22 1_555 1_555
C23 O4 1_555 1_555
H28 C23 1_555 1_555
H29 C23 1_555 1_555
H30 C23 1_555 1_555
C24 N3 1_555 1_555
C25 O3 1_555 1_555
H31 C25 1_555 1_555
H32 C25 1_555 1_555
C26 N3 1_555 1_555
C27 C26 1_555 1_555
H33 C27 1_555 1_555
H34 C27 1_555 1_555
H35 C27 1_555 1_555
C28 C26 1_555 1_555
H36 C28 1_555 1_555
H37 C28 1_555 1_555
H38 C28 1_555 1_555
C5 C6 1_555 1_555
C6 C10 1_555 1_555
C11 C12 1_555 1_555
C19 C20 1_555 1_555
C20 C24 1_555 1_555
C21 C22 1_555 1_555
C25 C26 1_555 1_555

#END
