
#######################################################################
#
#                 Cambridge Crystallographic Data Centre
#                                CCDC 
#
#######################################################################
#
# If this CIF has been generated from an entry in the Cambridge 
# Structural Database, then it will include bibliographic, chemical, 
# crystal, experimental, refinement or atomic coordinate data resulting 
# from the CCDC's data processing and validation procedures.
#
#######################################################################

data_WUGREW
_chemical_formula_moiety         'C36 H38 Mg1 N4 O2 S2'
_chemical_name_systematic        
bis(2-(4,4-Dimethyl-4,5-dihydro-1,3-oxazol-2-yl)-N-(2-(methylsulfanyl)phenyl)anilinato)-magnesium
_symmetry_cell_setting           monoclinic
_symmetry_space_group_name_H-M   'P 21/c'
_symmetry_Int_Tables_number      14
_space_group_name_Hall           '-P 2ybc'
loop_
_symmetry_equiv_pos_site_id
_symmetry_equiv_pos_as_xyz
1 x,y,z
2 -x,1/2+y,1/2-z
3 -x,-y,-z
4 x,1/2-y,1/2+z
_cell_length_a                   19.4198(14)
_cell_length_b                   19.5089(14)
_cell_length_c                   18.2249(13)
_cell_angle_alpha                90
_cell_angle_beta                 104.711(1)
_cell_angle_gamma                90
_cell_volume                     6678.32
_exptl_crystal_colour            yellow
_exptl_crystal_description       parallelepiped
_cell_formula_units_Z            8
_exptl_crystal_recrystallization_method hexane
loop_
_atom_site_label
_atom_site_type_symbol
_atom_site_fract_x
_atom_site_fract_y
_atom_site_fract_z
Mg1 Mg 0.04153(4) 0.34595(4) 0.76699(4)
O1 O 0.19226(10) 0.28598(10) 0.64363(10)
O2 O 0.12639(10) 0.51214(9) 0.91527(10)
S1 S -0.00513(3) 0.31857(3) 0.90091(3)
S2 S -0.09047(3) 0.28551(3) 0.69558(4)
N1 N 0.10121(9) 0.32823(9) 0.68470(10)
N2 N 0.07067(9) 0.24624(9) 0.80535(10)
N3 N 0.10801(9) 0.42017(10) 0.83843(10)
N4 N -0.03637(9) 0.42345(9) 0.73351(10)
C1 C 0.13462(11) 0.21512(11) 0.80620(13)
C2 C 0.16368(13) 0.16338(12) 0.85972(14)
H1 H 0.1375 0.1486 0.8930
C3 C 0.22900(13) 0.13436(13) 0.86421(15)
H2 H 0.2463 0.1009 0.9005
C4 C 0.26924(13) 0.15432(14) 0.81548(17)
H3 H 0.3134 0.1343 0.8186
C5 C 0.24357(13) 0.20357(13) 0.76279(15)
H4 H 0.2710 0.2172 0.7303
C6 C 0.17649(11) 0.23468(12) 0.75596(13)
C7 C 0.01995(11) 0.20518(11) 0.82650(12)
C8 C -0.02390(11) 0.23306(11) 0.87003(12)
C9 C -0.07734(12) 0.19368(13) 0.88730(13)
H5 H -0.1052 0.2121 0.9170
C10 C -0.08934(13) 0.12762(14) 0.86075(15)
H6 H -0.1252 0.1016 0.8726
C11 C -0.04830(13) 0.09995(13) 0.81668(15)
H7 H -0.0569 0.0555 0.7982
C12 C 0.00533(12) 0.13798(12) 0.79999(14)
H8 H 0.0327 0.1186 0.7703
C13 C -0.09094(14) 0.34989(14) 0.90534(17)
H9 H -0.0997 0.3372 0.9530
H10 H -0.1270 0.3303 0.8647
H11 H -0.0919 0.3989 0.9007
C14 C 0.15268(12) 0.28478(12) 0.69578(13)
C15 C 0.16787(18) 0.3444(2) 0.59614(19)
H12 H 0.1607 0.3324 0.5431
H13 H 0.2023 0.3813 0.6081
C16 C 0.09917(13) 0.36527(13) 0.61212(13)
C17 C 0.03639(18) 0.3394(2) 0.55152(16)
H14 H 0.0345 0.3628 0.5047
H15 H -0.0067 0.3479 0.5667
H16 H 0.0415 0.2910 0.5447
C18 C 0.0925(2) 0.44081(16) 0.62183(18)
H17 H 0.1325 0.4570 0.6605
H18 H 0.0493 0.4504 0.6364
H19 H 0.0914 0.4636 0.5749
C19 C -0.04758(12) 0.47228(11) 0.78332(12)
C20 C -0.11612(13) 0.50225(13) 0.77663(14)
H20 H -0.1534 0.4891 0.7360
C21 C -0.12959(16) 0.54930(15) 0.82694(17)
H21 H -0.1752 0.5672 0.8199
C22 C -0.07597(19) 0.57034(17) 0.88810(19)
H22 H -0.0851 0.6023 0.9223
C23 C -0.00960(16) 0.54355(15) 0.89743(16)
H23 H 0.0265 0.5578 0.9386
C24 C 0.00633(13) 0.49517(12) 0.84700(13)
C25 C -0.08708(11) 0.41986(12) 0.66257(12)
C26 C -0.11602(11) 0.35618(12) 0.63429(12)
C27 C -0.16341(12) 0.35084(14) 0.56296(13)
H24 H -0.1816 0.3082 0.5451
C28 C -0.18341(14) 0.40813(17) 0.51889(15)
H25 H -0.2151 0.4045 0.4713
C29 C -0.15601(14) 0.47118(16) 0.54580(15)
H26 H -0.1699 0.5102 0.5164
C30 C -0.10822(13) 0.47684(13) 0.61597(14)
H27 H -0.0896 0.5197 0.6326
C31 C -0.0922(2) 0.21508(16) 0.6321(2)
H28 H -0.1405 0.2000 0.6124
H29 H -0.0642 0.1781 0.6589
H30 H -0.0730 0.2294 0.5910
C32 C 0.08051(13) 0.47238(13) 0.86360(13)
C33 C 0.19450(15) 0.48315(17) 0.92625(19)
H31 H 0.2142 0.4725 0.9794
H32 H 0.2262 0.5149 0.9102
C34 C 0.18584(12) 0.41812(13) 0.87884(14)
C35 C 0.23189(14) 0.41990(18) 0.82300(16)
H33 H 0.2255 0.3782 0.7940
H34 H 0.2810 0.4243 0.8502
H35 H 0.2184 0.4583 0.7894
C36 C 0.20141(16) 0.35463(16) 0.92861(17)
H36 H 0.1955 0.3145 0.8972
H37 H 0.1691 0.3527 0.9607
H38 H 0.2495 0.3566 0.9594
Mg2 Mg 0.53552(3) 0.32923(3) 0.74488(3)
N5 N 0.58183(9) 0.40251(8) 0.68245(9)
N6 N 0.47131(8) 0.40798(8) 0.76679(8)
N7 N 0.62680(9) 0.31081(8) 0.83577(9)
N8 N 0.54592(8) 0.22873(8) 0.70986(9)
O3 O 0.57468(9) 0.49374(8) 0.60540(9)
S3 S 0.43273(3) 0.27302(3) 0.81191(3)
O4 O 0.73589(8) 0.26681(9) 0.88697(9)
S4 S 0.43717(3) 0.30228(3) 0.60135(3)
C37 C 0.44162(11) 0.45591(10) 0.71304(10)
C38 C 0.37370(12) 0.48528(12) 0.70915(12)
H39 H 0.3493 0.4715 0.7444
C39 C 0.34272(14) 0.53270(14) 0.65609(13)
H40 H 0.2985 0.5507 0.6564
C40 C 0.37658(15) 0.55436(15) 0.60162(14)
H41 H 0.3556 0.5871 0.5657
C41 C 0.44107(14) 0.52678(13) 0.60182(12)
H42 H 0.4636 0.5408 0.5650
C42 C 0.47477(11) 0.47785(11) 0.65563(11)
C43 C 0.44848(10) 0.40880(10) 0.83461(10)
C44 C 0.43201(10) 0.34762(10) 0.86651(11)
C45 C 0.41508(12) 0.34760(12) 0.93635(12)
H43 H 0.4046 0.3065 0.9570
C46 C 0.41368(12) 0.40803(13) 0.97518(12)
H44 H 0.4027 0.4078 1.0220
C47 C 0.42886(11) 0.46905(12) 0.94374(12)
H45 H 0.4271 0.5101 0.9691
C48 C 0.44658(11) 0.46932(11) 0.87515(11)
H46 H 0.4575 0.5107 0.8554
C49 C 0.46040(18) 0.20621(13) 0.88116(16)
H47 H 0.4205 0.1917 0.8994
H48 H 0.4972 0.2232 0.9228
H49 H 0.4782 0.1681 0.8583
C50 C 0.54499(12) 0.45441(11) 0.65132(11)
C51 C 0.64569(13) 0.46914(13) 0.61543(15)
H50 H 0.6795 0.4994 0.6485
H51 H 0.6578 0.4659 0.5671
C52 C 0.64604(12) 0.39864(11) 0.65122(12)
C53 C 0.71475(13) 0.38670(16) 0.71122(16)
H52 H 0.7138 0.3420 0.7330
H53 H 0.7198 0.4209 0.7501
H54 H 0.7542 0.3897 0.6885
C54 C 0.63359(15) 0.34225(13) 0.59171(15)
H55 H 0.6341 0.2985 0.6160
H56 H 0.6705 0.3436 0.5653
H57 H 0.5882 0.3490 0.5562
C55 C 0.60989(11) 0.19611(10) 0.71620(11)
C56 C 0.61741(11) 0.14323(11) 0.66596(12)
H58 H 0.5770 0.1277 0.6307
C57 C 0.68156(12) 0.11391(12) 0.66700(13)
H59 H 0.6839 0.0790 0.6329
C58 C 0.74325(13) 0.13562(13) 0.71837(15)
H60 H 0.7871 0.1164 0.7183
C59 C 0.73848(12) 0.18569(12) 0.76911(15)
H61 H 0.7798 0.2003 0.8037
C60 C 0.67324(11) 0.21601(10) 0.77087(12)
C61 C 0.48355(10) 0.18948(10) 0.68438(11)
C62 C 0.42330(11) 0.22014(11) 0.63580(11)
C63 C 0.35781(12) 0.18634(13) 0.61858(12)
H62 H 0.3180 0.2072 0.5872
C64 C 0.35201(13) 0.12200(14) 0.64797(14)
H63 H 0.3082 0.0997 0.6367
C65 C 0.41078(13) 0.09077(13) 0.69384(14)
H64 H 0.4069 0.0471 0.7128
C66 C 0.47577(12) 0.12410(11) 0.71187(12)
H65 H 0.5151 0.1024 0.7430
C67 C 0.34927(15) 0.33900(15) 0.57755(19)
H66 H 0.3241 0.3244 0.5276
H67 H 0.3528 0.3881 0.5787
H68 H 0.3240 0.3241 0.6136
C68 C 0.67435(11) 0.26639(11) 0.82985(12)
C69 C 0.73169(14) 0.32634(15) 0.93203(16)
H69 H 0.7617 0.3628 0.9213
H70 H 0.7467 0.3154 0.9857
C70 C 0.65375(12) 0.34767(12) 0.90968(12)
C71 C 0.64509(14) 0.42452(13) 0.89934(15)
H71 H 0.5954 0.4358 0.8853
H72 H 0.6667 0.4393 0.8601
H73 H 0.6677 0.4471 0.9460
C72 C 0.61443(17) 0.32109(18) 0.96565(14)
H74 H 0.5656 0.3353 0.9502
H75 H 0.6360 0.3391 1.0152
H76 H 0.6168 0.2719 0.9672
loop_
_geom_bond_atom_site_label_1
_geom_bond_atom_site_label_2
_geom_bond_site_symmetry_1
_geom_bond_site_symmetry_2
Mg1 S1 1_555 1_555
Mg2 N5 1_555 1_555
O1 C14 1_555 1_555
O2 C32 1_555 1_555
S1 C8 1_555 1_555
S2 Mg1 1_555 1_555
N1 Mg1 1_555 1_555
N2 Mg1 1_555 1_555
N3 Mg1 1_555 1_555
N4 Mg1 1_555 1_555
N5 C50 1_555 1_555
N6 Mg2 1_555 1_555
N7 Mg2 1_555 1_555
N8 Mg2 1_555 1_555
C1 N2 1_555 1_555
C2 C1 1_555 1_555
H1 C2 1_555 1_555
O3 C50 1_555 1_555
C3 C2 1_555 1_555
H2 C3 1_555 1_555
S3 Mg2 1_555 1_555
O4 C68 1_555 1_555
C4 C3 1_555 1_555
H3 C4 1_555 1_555
S4 Mg2 1_555 1_555
C5 C4 1_555 1_555
H4 C5 1_555 1_555
C6 C1 1_555 1_555
C7 N2 1_555 1_555
C8 C7 1_555 1_555
C9 C8 1_555 1_555
H5 C9 1_555 1_555
C10 C9 1_555 1_555
H6 C10 1_555 1_555
C11 C10 1_555 1_555
H7 C11 1_555 1_555
C12 C7 1_555 1_555
H8 C12 1_555 1_555
C13 S1 1_555 1_555
H9 C13 1_555 1_555
H10 C13 1_555 1_555
H11 C13 1_555 1_555
C14 N1 1_555 1_555
C15 O1 1_555 1_555
H12 C15 1_555 1_555
H13 C15 1_555 1_555
C16 N1 1_555 1_555
C17 C16 1_555 1_555
H14 C17 1_555 1_555
H15 C17 1_555 1_555
H16 C17 1_555 1_555
C18 C16 1_555 1_555
H17 C18 1_555 1_555
H18 C18 1_555 1_555
H19 C18 1_555 1_555
C19 N4 1_555 1_555
C20 C19 1_555 1_555
H20 C20 1_555 1_555
C21 C20 1_555 1_555
H21 C21 1_555 1_555
C22 C21 1_555 1_555
H22 C22 1_555 1_555
C23 C22 1_555 1_555
H23 C23 1_555 1_555
C24 C19 1_555 1_555
C25 N4 1_555 1_555
C26 S2 1_555 1_555
C27 C26 1_555 1_555
H24 C27 1_555 1_555
C28 C27 1_555 1_555
H25 C28 1_555 1_555
C29 C28 1_555 1_555
H26 C29 1_555 1_555
C30 C25 1_555 1_555
H27 C30 1_555 1_555
C31 S2 1_555 1_555
H28 C31 1_555 1_555
H29 C31 1_555 1_555
H30 C31 1_555 1_555
C32 N3 1_555 1_555
C33 O2 1_555 1_555
H31 C33 1_555 1_555
H32 C33 1_555 1_555
C34 N3 1_555 1_555
C35 C34 1_555 1_555
H33 C35 1_555 1_555
H34 C35 1_555 1_555
H35 C35 1_555 1_555
C36 C34 1_555 1_555
H36 C36 1_555 1_555
H37 C36 1_555 1_555
H38 C36 1_555 1_555
C37 N6 1_555 1_555
C38 C37 1_555 1_555
H39 C38 1_555 1_555
C39 C38 1_555 1_555
H40 C39 1_555 1_555
C40 C39 1_555 1_555
H41 C40 1_555 1_555
C41 C40 1_555 1_555
H42 C41 1_555 1_555
C42 C37 1_555 1_555
C43 N6 1_555 1_555
C44 S3 1_555 1_555
C45 C44 1_555 1_555
H43 C45 1_555 1_555
C46 C45 1_555 1_555
H44 C46 1_555 1_555
C47 C46 1_555 1_555
H45 C47 1_555 1_555
C48 C43 1_555 1_555
H46 C48 1_555 1_555
C49 S3 1_555 1_555
H47 C49 1_555 1_555
H48 C49 1_555 1_555
H49 C49 1_555 1_555
C50 C42 1_555 1_555
C51 O3 1_555 1_555
H50 C51 1_555 1_555
H51 C51 1_555 1_555
C52 N5 1_555 1_555
C53 C52 1_555 1_555
H52 C53 1_555 1_555
H53 C53 1_555 1_555
H54 C53 1_555 1_555
C54 C52 1_555 1_555
H55 C54 1_555 1_555
H56 C54 1_555 1_555
H57 C54 1_555 1_555
C55 N8 1_555 1_555
C56 C55 1_555 1_555
H58 C56 1_555 1_555
C57 C56 1_555 1_555
H59 C57 1_555 1_555
C58 C57 1_555 1_555
H60 C58 1_555 1_555
C59 C58 1_555 1_555
H61 C59 1_555 1_555
C60 C55 1_555 1_555
C61 N8 1_555 1_555
C62 S4 1_555 1_555
C63 C62 1_555 1_555
H62 C63 1_555 1_555
C64 C63 1_555 1_555
H63 C64 1_555 1_555
C65 C64 1_555 1_555
H64 C65 1_555 1_555
C66 C61 1_555 1_555
H65 C66 1_555 1_555
C67 S4 1_555 1_555
H66 C67 1_555 1_555
H67 C67 1_555 1_555
H68 C67 1_555 1_555
C68 N7 1_555 1_555
C69 O4 1_555 1_555
H69 C69 1_555 1_555
H70 C69 1_555 1_555
C70 N7 1_555 1_555
C71 C70 1_555 1_555
H71 C71 1_555 1_555
H72 C71 1_555 1_555
H73 C71 1_555 1_555
C72 C70 1_555 1_555
H74 C72 1_555 1_555
H75 C72 1_555 1_555
H76 C72 1_555 1_555
C5 C6 1_555 1_555
C6 C14 1_555 1_555
C11 C12 1_555 1_555
C15 C16 1_555 1_555
C23 C24 1_555 1_555
C24 C32 1_555 1_555
C25 C26 1_555 1_555
C29 C30 1_555 1_555
C33 C34 1_555 1_555
C41 C42 1_555 1_555
C43 C44 1_555 1_555
C47 C48 1_555 1_555
C51 C52 1_555 1_555
C59 C60 1_555 1_555
C60 C68 1_555 1_555
C61 C62 1_555 1_555
C65 C66 1_555 1_555
C69 C70 1_555 1_555

#END
