
#######################################################################
#
#                 Cambridge Crystallographic Data Centre
#                                CCDC 
#
#######################################################################
#
# If this CIF has been generated from an entry in the Cambridge 
# Structural Database, then it will include bibliographic, chemical, 
# crystal, experimental, refinement or atomic coordinate data resulting 
# from the CCDC's data processing and validation procedures.
#
#######################################################################

data_WUGRUN
_chemical_formula_moiety         'C26 H16 O1 S2'
_chemical_name_systematic        
2,3-bis(2-thienyl)-4'H-spiro[indene-1,1'-naphthalen]-4'-one
_symmetry_cell_setting           orthorhombic
_symmetry_space_group_name_H-M   'P 21 21 21'
_symmetry_Int_Tables_number      19
_space_group_name_Hall           'P 2ac 2ab'
loop_
_symmetry_equiv_pos_site_id
_symmetry_equiv_pos_as_xyz
1 x,y,z
2 1/2-x,-y,1/2+z
3 -x,1/2+y,1/2-z
4 1/2+x,1/2-y,-z
_cell_length_a                   9.0153(9)
_cell_length_b                   10.5421(10)
_cell_length_c                   21.135(2)
_cell_angle_alpha                90
_cell_angle_beta                 90
_cell_angle_gamma                90
_cell_volume                     2008.67
_exptl_crystal_colour            yellow
_exptl_crystal_description       block
_cell_formula_units_Z            4
loop_
_atom_site_label
_atom_site_type_symbol
_atom_site_fract_x
_atom_site_fract_y
_atom_site_fract_z
O1 O 0.5546(4) 0.5027(2) 0.05020(14)
C1 C 0.6993(2) 0.7519(2) 0.15106(10)
C2 C 0.9596(2) 0.7978(2) 0.12074(10)
C3 C 0.7953(2) 0.82322(19) 0.10342(10)
C4 C 0.7888(2) 0.9694(2) 0.10920(10)
C5 C 0.7731(3) 0.7803(2) 0.03636(11)
H1 H 0.8148 0.8289 0.0043
C6 C 0.9219(3) 1.0153(2) 0.12903(10)
C7 C 1.0273(3) 0.9119(2) 0.13722(10)
C8 C 0.6262(3) 0.6404(2) 0.13373(13)
C9 C 1.0538(3) 1.2196(2) 0.09658(15)
H2 H 1.0948 1.1892 0.0592
C10 C 1.1759(3) 0.9136(2) 0.15576(12)
H3 H 1.2219 0.9889 0.1677
C11 C 0.4726(3) 1.1997(3) 0.05820(15)
H4 H 0.4185 1.2724 0.0487
C12 C 1.2535(3) 0.7989(3) 0.15581(13)
H5 H 1.3524 0.7977 0.1682
C13 C 1.0364(3) 0.6852(2) 0.12012(12)
H6 H 0.9905 0.6099 0.1083
C14 C 0.6980(3) 0.6778(2) 0.02006(13)
H7 H 0.6935 0.6554 -0.0225
C15 C 0.9652(3) 1.1493(2) 0.13746(11)
C16 C 0.6214(3) 0.5980(2) 0.06675(15)
C17 C 1.1858(3) 0.6878(3) 0.13781(13)
H8 H 1.2404 0.6130 0.1374
C18 C 0.6942(3) 0.7912(3) 0.21366(12)
H9 H 0.7418 0.8656 0.2257
C19 C 0.5493(3) 0.6092(3) 0.24183(16)
H10 H 0.5002 0.5615 0.2723
C20 C 0.4193(3) 1.0819(3) 0.05112(16)
H11 H 0.3242 1.0645 0.0364
C21 C 0.5526(3) 0.5690(3) 0.17996(16)
H12 H 0.5056 0.4938 0.1687
C22 C 0.6188(3) 0.7199(3) 0.25829(13)
H13 H 0.6153 0.7476 0.3000
C23 C 1.0073(5) 1.3642(3) 0.17643(19)
H14 H 1.0109 1.4406 0.1984
C24 C 1.0724(4) 1.3454(3) 0.1204(2)
H15 H 1.1248 1.4082 0.0990
C25 C 0.6570(3) 1.0375(2) 0.08979(11)
C26 C 0.5231(3) 0.9860(3) 0.06851(14)
H16 H 0.5040 0.8995 0.0660
S1 S 0.64925(8) 1.20271(6) 0.08638(4)
S2 S 0.91748(13) 1.23385(8) 0.20311(4)
loop_
_geom_bond_atom_site_label_1
_geom_bond_atom_site_label_2
_geom_bond_site_symmetry_1
_geom_bond_site_symmetry_2
O1 C16 1_555 1_555
C1 C3 1_555 1_555
C2 C3 1_555 1_555
C3 C4 1_555 1_555
C4 C6 1_555 1_555
C5 C3 1_555 1_555
H1 C5 1_555 1_555
C6 C7 1_555 1_555
C7 C2 1_555 1_555
C8 C1 1_555 1_555
C9 H2 1_555 1_555
C10 C7 1_555 1_555
H3 C10 1_555 1_555
C11 H4 1_555 1_555
C12 C10 1_555 1_555
H5 C12 1_555 1_555
C13 C2 1_555 1_555
H6 C13 1_555 1_555
C14 C5 1_555 1_555
H7 C14 1_555 1_555
C15 C6 1_555 1_555
C16 C8 1_555 1_555
C17 C12 1_555 1_555
H8 C17 1_555 1_555
C18 C1 1_555 1_555
H9 C18 1_555 1_555
C19 H10 1_555 1_555
C20 C11 1_555 1_555
H11 C20 1_555 1_555
C21 C8 1_555 1_555
H12 C21 1_555 1_555
C22 C18 1_555 1_555
H13 C22 1_555 1_555
C23 H14 1_555 1_555
C24 C9 1_555 1_555
H15 C24 1_555 1_555
C25 C4 1_555 1_555
C26 C20 1_555 1_555
H16 C26 1_555 1_555
S1 C11 1_555 1_555
S2 C15 1_555 1_555
C9 C15 1_555 1_555
C13 C17 1_555 1_555
C14 C16 1_555 1_555
C19 C21 1_555 1_555
C19 C22 1_555 1_555
C23 C24 1_555 1_555
C23 S2 1_555 1_555
C25 C26 1_555 1_555
C25 S1 1_555 1_555

#END
