
#######################################################################
#
#                 Cambridge Crystallographic Data Centre
#                                CCDC 
#
#######################################################################
#
# If this CIF has been generated from an entry in the Cambridge 
# Structural Database, then it will include bibliographic, chemical, 
# crystal, experimental, refinement or atomic coordinate data resulting 
# from the CCDC's data processing and validation procedures.
#
#######################################################################

data_WUGSEY
_chemical_formula_moiety         'C28 H23 N1 O2'
_chemical_name_systematic        
(2-(4-methoxyphenyl)-3-phenyl-2,3-dihydro-1H-indol-3-yl)(phenyl)methanone
_symmetry_cell_setting           monoclinic
_symmetry_space_group_name_H-M   'C 2/c'
_symmetry_Int_Tables_number      15
_space_group_name_Hall           '-C 2yn'
loop_
_symmetry_equiv_pos_site_id
_symmetry_equiv_pos_as_xyz
1 x,y,z
2 -x,y,1/2-z
3 1/2+x,1/2+y,z
4 1/2-x,1/2+y,1/2-z
5 -x,-y,-z
6 x,-y,1/2+z
7 1/2-x,1/2-y,-z
8 1/2+x,1/2-y,1/2+z
_cell_length_a                   33.233(3)
_cell_length_b                   7.4593(6)
_cell_length_c                   17.7352(16)
_cell_angle_alpha                90
_cell_angle_beta                 103.955(5)
_cell_angle_gamma                90
_cell_volume                     4266.71
_exptl_crystal_colour            white
_exptl_crystal_description       platy
_cell_formula_units_Z            8
loop_
_atom_site_label
_atom_site_type_symbol
_atom_site_fract_x
_atom_site_fract_y
_atom_site_fract_z
O1 O 0.05139(5) 1.0983(2) 0.95577(11)
O2 O 0.22958(5) 1.2076(3) 1.23831(9)
N1 N 0.14483(6) 1.3014(2) 0.87847(10)
C1 C 0.15349(6) 1.2136(2) 1.01569(12)
C2 C 0.19572(6) 1.1937(3) 1.02644(12)
H1 H 0.2067 1.1820 0.9831
C3 C 0.22223(7) 1.1906(3) 1.09941(12)
H2 H 0.2506 1.1780 1.1050
C4 C 0.20632(7) 1.2064(3) 1.16369(12)
C5 C 0.16397(7) 1.2228(3) 1.15422(13)
H3 H 0.1530 1.2305 1.1976
C6 C 0.13819(7) 1.2276(3) 1.08148(13)
H4 H 0.1098 1.2405 1.0761
C7 C 0.27354(8) 1.2038(5) 1.25053(15)
H5 H 0.2861 1.2056 1.3053
H6 H 0.2825 1.3066 1.2264
H7 H 0.2816 1.0966 1.2281
C8 C 0.12475(6) 1.2238(3) 0.93619(11)
H8 H 0.1013 1.3006 0.9393
C9 C 0.10693(6) 1.0414(2) 0.89602(11)
C10 C 0.09855(6) 1.0978(3) 0.81069(11)
C11 C 0.12166(6) 1.2509(3) 0.80566(13)
C12 C 0.12080(7) 1.3323(3) 0.73535(13)
H9 H 0.1365 1.4345 0.7328
C13 C 0.09617(7) 1.2582(4) 0.66919(14)
H10 H 0.0953 1.3106 0.6212
C14 C 0.07289(7) 1.1080(4) 0.67280(14)
H11 H 0.0563 1.0603 0.6274
C15 C 0.07387(6) 1.0266(3) 0.74353(13)
H12 H 0.0580 0.9249 0.7457
C16 C 0.13976(6) 0.8957(2) 0.91885(11)
C17 C 0.16825(6) 0.8597(3) 0.87578(11)
H13 H 0.1662 0.9184 0.8287
C18 C 0.19978(6) 0.7375(3) 0.90158(13)
H14 H 0.2189 0.7155 0.8721
C19 C 0.20309(7) 0.6487(3) 0.97028(13)
H15 H 0.2243 0.5664 0.9875
C20 C 0.17490(7) 0.6818(3) 1.01352(12)
H16 H 0.1768 0.6209 1.0600
C21 C 0.14392(6) 0.8044(3) 0.98840(11)
H17 H 0.1252 0.8270 1.0187
C22 C 0.06693(6) 0.9911(3) 0.91992(13)
C23 C 0.04641(6) 0.8132(3) 0.89952(12)
C24 C 0.05959(6) 0.6835(3) 0.85456(12)
H18 H 0.0828 0.7049 0.8352
C25 C 0.03866(7) 0.5240(3) 0.83851(14)
H19 H 0.0476 0.4387 0.8079
C26 C 0.00484(8) 0.4899(4) 0.86710(17)
H20 H -0.0092 0.3814 0.8564
C27 C -0.00835(8) 0.6160(4) 0.91163(17)
H21 H -0.0315 0.5928 0.9309
C28 C 0.01207(6) 0.7761(3) 0.92832(14)
H22 H 0.0029 0.8601 0.9591
H23 H 0.1504(7) 1.414(3) 0.8871(13)
loop_
_geom_bond_atom_site_label_1
_geom_bond_atom_site_label_2
_geom_bond_site_symmetry_1
_geom_bond_site_symmetry_2
O1 C22 1_555 1_555
O2 C4 1_555 1_555
N1 C8 1_555 1_555
C1 C2 1_555 1_555
C2 H1 1_555 1_555
C3 C2 1_555 1_555
H2 C3 1_555 1_555
C4 C3 1_555 1_555
C5 C4 1_555 1_555
H3 C5 1_555 1_555
C6 C1 1_555 1_555
H4 C6 1_555 1_555
C7 O2 1_555 1_555
H5 C7 1_555 1_555
H6 C7 1_555 1_555
H7 C7 1_555 1_555
C8 C1 1_555 1_555
H8 C8 1_555 1_555
C9 C8 1_555 1_555
C10 C9 1_555 1_555
C11 N1 1_555 1_555
C12 C11 1_555 1_555
H9 C12 1_555 1_555
C13 C12 1_555 1_555
H10 C13 1_555 1_555
C14 C13 1_555 1_555
H11 C14 1_555 1_555
C15 C10 1_555 1_555
H12 C15 1_555 1_555
C16 C9 1_555 1_555
C17 C16 1_555 1_555
H13 C17 1_555 1_555
C18 C17 1_555 1_555
H14 C18 1_555 1_555
C19 C18 1_555 1_555
H15 C19 1_555 1_555
C20 C19 1_555 1_555
H16 C20 1_555 1_555
C21 C16 1_555 1_555
H17 C21 1_555 1_555
C22 C9 1_555 1_555
C23 C22 1_555 1_555
C24 C23 1_555 1_555
H18 C24 1_555 1_555
C25 C24 1_555 1_555
H19 C25 1_555 1_555
C26 C25 1_555 1_555
H20 C26 1_555 1_555
C27 C26 1_555 1_555
H21 C27 1_555 1_555
C28 C23 1_555 1_555
H22 C28 1_555 1_555
H23 N1 1_555 1_555
C5 C6 1_555 1_555
C10 C11 1_555 1_555
C14 C15 1_555 1_555
C20 C21 1_555 1_555
C27 C28 1_555 1_555

#END
