
#######################################################################
#
#                 Cambridge Crystallographic Data Centre
#                                CCDC 
#
#######################################################################
#
# If this CIF has been generated from an entry in the Cambridge 
# Structural Database, then it will include bibliographic, chemical, 
# crystal, experimental, refinement or atomic coordinate data resulting 
# from the CCDC's data processing and validation procedures.
#
#######################################################################

data_WUGWIG
_chemical_formula_moiety         'C19 H25 B1 Br1 N1 O1'
_chemical_name_systematic        
2-((1-methylpyrrolidine)boryl)-2-(3-bromophenyl)-1-phenylethanol
_symmetry_cell_setting           orthorhombic
_symmetry_space_group_name_H-M   'P 21 21 21'
_symmetry_Int_Tables_number      19
_space_group_name_Hall           'P 2ac 2ab'
loop_
_symmetry_equiv_pos_site_id
_symmetry_equiv_pos_as_xyz
1 x,y,z
2 1/2+x,1/2-y,-z
3 -x,1/2+y,1/2-z
4 1/2-x,-y,1/2+z
_cell_length_a                   9.5503(5)
_cell_length_b                   9.8672(6)
_cell_length_c                   19.9286(14)
_cell_angle_alpha                90
_cell_angle_beta                 90
_cell_angle_gamma                90
_cell_volume                     1877.97
_exptl_crystal_colour            colorless
_exptl_crystal_description       plate
_cell_formula_units_Z            4
loop_
_atom_site_label
_atom_site_type_symbol
_atom_site_fract_x
_atom_site_fract_y
_atom_site_fract_z
Br1 Br 0.36659(7) 0.38410(8) 0.14680(4)
O1 O 1.1036(4) 0.2939(5) 0.0398(2)
H1 H 1.0653 0.2802 0.0037
C1 C 0.5839(7) 0.5407(7) 0.2055(3)
H2 H 0.5180 0.5639 0.2379
C2 C 0.5510(6) 0.4545(6) 0.1537(3)
C3 C 0.6483(6) 0.4167(5) 0.1055(3)
H3 H 0.6228 0.3566 0.0716
C4 C 0.7828(6) 0.4679(5) 0.1075(3)
C5 C 0.8909(5) 0.4274(5) 0.0555(2)
H4 H 0.8419 0.3715 0.0223
C6 C 1.0027(6) 0.3370(6) 0.0872(3)
H5 H 1.0507 0.3894 0.1221
C7 C 0.9428(6) 0.2109(6) 0.1191(3)
C8 C 0.9294(7) 0.1979(8) 0.1877(3)
H6 H 0.9612 0.2666 0.2157
C9 C 0.8690(10) 0.0834(9) 0.2149(4)
H7 H 0.8597 0.0761 0.2612
C10 C 0.8230(9) -0.0185(9) 0.1749(5)
H8 H 0.7811 -0.0944 0.1940
C11 C 0.8223(10) 0.7235(9) -0.1465(5)
H9 H 0.8545 0.6870 -0.1890
H10 H 0.8044 0.8196 -0.1521
C12 C 0.6882(10) 0.6502(11) -0.1238(5)
H11 H 0.6106 0.7131 -0.1201
H12 H 0.6633 0.5787 -0.1550
C13 C 0.7263(9) 0.5918(12) -0.0554(5)
H13 H 0.6944 0.6509 -0.0196
H14 H 0.6845 0.5030 -0.0493
N1 N 0.8806(6) 0.5823(5) -0.0557(2)
C14 C 0.9312(11) 0.7008(9) -0.0927(4)
H15 H 1.0223 0.6832 -0.1124
H16 H 0.9382 0.7791 -0.0634
C15 C 0.8377(8) -0.0107(7) 0.1082(5)
H17 H 0.8087 -0.0817 0.0808
C16 C 0.8968(6) 0.1051(7) 0.0804(3)
H18 H 0.9054 0.1110 0.0340
C17 C 0.7181(8) 0.5916(6) 0.2077(3)
H19 H 0.7436 0.6501 0.2422
C18 C 0.8153(7) 0.5569(6) 0.1593(3)
H20 H 0.9047 0.5940 0.1613
B1 B 0.9541(9) 0.5579(8) 0.0148(3)
H21 H 0.9429 0.6384 0.0422
H22 H 1.0536 0.5442 0.0076
C19 C 0.9165(14) 0.4593(10) -0.1010(4)
H23 H 0.8767 0.4727 -0.1447
H24 H 0.8788 0.3782 -0.0815
H25 H 1.0164 0.4509 -0.1048
loop_
_geom_bond_atom_site_label_1
_geom_bond_atom_site_label_2
_geom_bond_site_symmetry_1
_geom_bond_site_symmetry_2
Br1 C2 1_555 1_555
O1 H1 1_555 1_555
C1 H2 1_555 1_555
C2 C1 1_555 1_555
C3 C2 1_555 1_555
H3 C3 1_555 1_555
C4 C3 1_555 1_555
C5 C4 1_555 1_555
H4 C5 1_555 1_555
C6 O1 1_555 1_555
H5 C6 1_555 1_555
C7 C6 1_555 1_555
C8 C7 1_555 1_555
H6 C8 1_555 1_555
C9 C8 1_555 1_555
H7 C9 1_555 1_555
C10 C9 1_555 1_555
H8 C10 1_555 1_555
C11 H9 1_555 1_555
H10 C11 1_555 1_555
C12 C11 1_555 1_555
H11 C12 1_555 1_555
H12 C12 1_555 1_555
C13 C12 1_555 1_555
H13 C13 1_555 1_555
H14 C13 1_555 1_555
N1 C13 1_555 1_555
C14 C11 1_555 1_555
H15 C14 1_555 1_555
H16 C14 1_555 1_555
C15 C10 1_555 1_555
H17 C15 1_555 1_555
C16 C7 1_555 1_555
H18 C16 1_555 1_555
C17 C1 1_555 1_555
H19 C17 1_555 1_555
C18 C4 1_555 1_555
H20 C18 1_555 1_555
B1 C5 1_555 1_555
H21 B1 1_555 1_555
H22 B1 1_555 1_555
C19 N1 1_555 1_555
H23 C19 1_555 1_555
H24 C19 1_555 1_555
H25 C19 1_555 1_555
C5 C6 1_555 1_555
N1 C14 1_555 1_555
N1 B1 1_555 1_555
C15 C16 1_555 1_555
C17 C18 1_555 1_555

#END
