
#######################################################################
#
#                 Cambridge Crystallographic Data Centre
#                                CCDC 
#
#######################################################################
#
# If this CIF has been generated from an entry in the Cambridge 
# Structural Database, then it will include bibliographic, chemical, 
# crystal, experimental, refinement or atomic coordinate data resulting 
# from the CCDC's data processing and validation procedures.
#
#######################################################################

data_WUGXUS
_chemical_name_common            
"(Biphenyl-4,4'-diyldiethene-2,1-diyl)bis(dimesitylborane) toluene solvate"
_chemical_formula_moiety         'C52 H56 B2,2(C7 H8)'
_chemical_name_systematic        
"4,4'-bis((E)-Dimesitylborylethenyl)biphenyl toluene solvate"
_symmetry_cell_setting           monoclinic
_symmetry_space_group_name_H-M   'I 2/a'
_symmetry_Int_Tables_number      15
_space_group_name_Hall           '-I 2ya'
loop_
_symmetry_equiv_pos_site_id
_symmetry_equiv_pos_as_xyz
1 x,y,z
2 1/2-x,y,-z
3 1/2+x,1/2+y,1/2+z
4 -x,1/2+y,1/2-z
5 -x,-y,-z
6 1/2+x,-y,z
7 1/2-x,1/2-y,1/2-z
8 x,1/2-y,1/2+z
_cell_length_a                   15.3539(12)
_cell_length_b                   16.3316(11)
_cell_length_c                   21.5221(16)
_cell_angle_alpha                90
_cell_angle_beta                 90.75(2)
_cell_angle_gamma                90
_cell_volume                     5396.29
_exptl_crystal_colour            yellow
_exptl_crystal_description       block
_cell_formula_units_Z            4
_chemical_properties_physical    air-sensitive
_exptl_crystal_recrystallization_method toluene
loop_
_atom_site_label
_atom_site_type_symbol
_atom_site_fract_x
_atom_site_fract_y
_atom_site_fract_z
B1 B 0.4312(2) 0.80542(19) -0.25521(14)
C1 C 0.4377(2) 0.75682(17) -0.19356(13)
H1 H 0.4154 0.7816 -0.1573
C2 C 0.47225(18) 0.68169(16) -0.18829(12)
H2 H 0.4942 0.6587 -0.2254
C3 C 0.48057(19) 0.63104(17) -0.13259(12)
C4 C 0.4624(3) 0.65891(19) -0.07320(14)
H3 H 0.4445 0.7139 -0.0676
C5 C 0.4698(3) 0.60828(19) -0.02225(14)
H4 H 0.4560 0.6291 0.0175
C6 C 0.49613(19) 0.52717(16) -0.02756(12)
C7 C 0.5154(2) 0.49999(18) -0.08669(13)
H5 H 0.5340 0.4452 -0.0923
C8 C 0.5083(2) 0.55093(18) -0.13795(13)
H6 H 0.5226 0.5303 -0.1777
C9 C 0.45365(17) 0.75930(16) -0.31787(12)
C10 C 0.40400(18) 0.69248(17) -0.34026(12)
C11 C 0.42679(18) 0.65391(18) -0.39557(13)
H7 H 0.3924 0.6096 -0.4103
C12 C 0.49781(19) 0.67815(19) -0.42954(12)
C13 C 0.54776(18) 0.74274(19) -0.40705(13)
H8 H 0.5974 0.7596 -0.4294
C14 C 0.52684(17) 0.78292(17) -0.35201(12)
C15 C 0.3251(2) 0.66110(19) -0.30626(14)
H9 H 0.3406 0.6114 -0.2832
H10 H 0.3050 0.7030 -0.2772
H11 H 0.2783 0.6486 -0.3361
C16 C 0.5220(2) 0.6340(2) -0.48878(15)
H12 H 0.4741 0.5981 -0.5019
H13 H 0.5334 0.6740 -0.5215
H14 H 0.5743 0.6011 -0.4812
C17 C 0.5884(2) 0.8483(2) -0.32775(15)
H15 H 0.6252 0.8254 -0.2947
H16 H 0.6249 0.8674 -0.3616
H17 H 0.5549 0.8942 -0.3114
C18 C 0.40109(18) 0.89783(16) -0.25135(12)
C19 C 0.33112(17) 0.92813(17) -0.28786(12)
C20 C 0.29845(19) 1.00629(18) -0.27677(14)
H18 H 0.2498 1.0247 -0.3005
C21 C 0.3342(2) 1.05801(17) -0.23236(15)
C22 C 0.40624(19) 1.02990(17) -0.19904(13)
H19 H 0.4340 1.0655 -0.1702
C23 C 0.43943(18) 0.95142(17) -0.20710(12)
C24 C 0.2879(2) 0.87812(19) -0.33900(14)
H20 H 0.2416 0.9104 -0.3588
H21 H 0.3310 0.8632 -0.3701
H22 H 0.2629 0.8284 -0.3212
C25 C 0.2985(3) 1.1427(2) -0.2218(2)
H23 H 0.2379 1.1391 -0.2084
H24 H 0.3332 1.1704 -0.1897
H25 H 0.3011 1.1740 -0.2605
C26 C 0.5199(2) 0.9299(2) -0.16949(15)
H26 H 0.5475 0.8813 -0.1870
H27 H 0.5609 0.9758 -0.1705
H28 H 0.5036 0.9190 -0.1265
B1D B 0.5688(2) 0.19458(19) 0.25521(14)
C1D C 0.5623(2) 0.24318(17) 0.19356(13)
H1D H 0.5846 0.2184 0.1573
C2D C 0.52775(18) 0.31831(16) 0.18829(12)
H2D H 0.5058 0.3413 0.2254
C3D C 0.51943(19) 0.36896(17) 0.13259(12)
C4D C 0.5376(3) 0.34109(19) 0.07320(14)
H3D H 0.5555 0.2861 0.0676
C5D C 0.5302(3) 0.39172(19) 0.02225(14)
H4D H 0.5440 0.3709 -0.0175
C6D C 0.50387(19) 0.47283(16) 0.02756(12)
C7D C 0.4846(2) 0.50001(18) 0.08669(13)
H5D H 0.4660 0.5548 0.0923
C8D C 0.4917(2) 0.44907(18) 0.13795(13)
H6D H 0.4774 0.4697 0.1777
C9D C 0.54635(17) 0.24070(16) 0.31787(12)
C10D C 0.59600(18) 0.30752(17) 0.34026(12)
C11D C 0.57321(18) 0.34609(18) 0.39557(13)
H7D H 0.6076 0.3904 0.4103
C12D C 0.50219(19) 0.32185(19) 0.42954(12)
C13D C 0.45224(18) 0.25726(19) 0.40705(13)
H8D H 0.4026 0.2404 0.4294
C14D C 0.47316(17) 0.21708(17) 0.35201(12)
C15D C 0.6749(2) 0.33890(19) 0.30626(14)
H9D H 0.6594 0.3886 0.2832
H10D H 0.6950 0.2970 0.2772
H11D H 0.7217 0.3514 0.3361
C16D C 0.4780(2) 0.3660(2) 0.48878(15)
H12D H 0.5259 0.4019 0.5019
H13D H 0.4666 0.3260 0.5215
H14D H 0.4257 0.3989 0.4812
C17D C 0.4116(2) 0.1517(2) 0.32775(15)
H15D H 0.3748 0.1746 0.2947
H16D H 0.3751 0.1326 0.3616
H17D H 0.4451 0.1058 0.3114
C18D C 0.59891(18) 0.10217(16) 0.25135(12)
C19D C 0.66888(17) 0.07187(17) 0.28786(12)
C20D C 0.70155(19) -0.00629(18) 0.27677(14)
H18D H 0.7502 -0.0247 0.3005
C21D C 0.6658(2) -0.05801(17) 0.23236(15)
C22D C 0.59376(19) -0.02990(17) 0.19904(13)
H19D H 0.5660 -0.0655 0.1702
C23D C 0.56057(18) 0.04858(17) 0.20710(12)
C24D C 0.7121(2) 0.12188(19) 0.33900(14)
H20D H 0.7584 0.0896 0.3588
H21D H 0.6690 0.1368 0.3701
H22D H 0.7371 0.1716 0.3212
C25D C 0.7015(3) -0.1427(2) 0.2218(2)
H23D H 0.7621 -0.1391 0.2084
H24D H 0.6668 -0.1704 0.1897
H25D H 0.6989 -0.1740 0.2605
C26D C 0.4801(2) 0.0701(2) 0.16949(15)
H26D H 0.4525 0.1187 0.1870
H27D H 0.4391 0.0242 0.1705
H28D H 0.4964 0.0810 0.1265
C27 C 0.7500 0.1645(4) 0.0000
C28 C 0.7910(3) 0.1217(4) -0.0445(2)
H29 H 0.8214 0.1508 -0.0761
C29 C 0.7906(3) 0.0387(5) -0.0453(3)
H30 H 0.8184 0.0095 -0.0781
C30 C 0.7500 -0.0020(6) 0.0000
H31 H 0.7500 -0.0606 0.0000
C31 C 0.7500 0.2561(5) 0.0000
C28A C 0.7090(3) 0.1217(4) 0.0445(2)
H29A H 0.6786 0.1508 0.0761
C29A C 0.7094(3) 0.0387(5) 0.0453(3)
H30A H 0.6816 0.0095 0.0781
H32? H 0.7179 0.2757 0.0349
H33? H 0.8087 0.2757 0.0028
H34? H 0.7234 0.2757 -0.0376
C32? C 0.2500 0.1044(3) 0.5000
C33? C 0.2091(3) 0.1258(4) 0.44249(10)
H35? H 0.1888 0.0839 0.4148
C34? C 0.1991(5) 0.2077(4) 0.4269(3)
H36? H 0.1715 0.2225 0.3883
C35? C 0.2290(7) 0.2681(3) 0.4670(4)
H37? H 0.2220 0.3246 0.4562
C36? C 0.2690(6) 0.2467(4) 0.5228(3)
H38? H 0.2896 0.2885 0.5506
C37? C 0.2791(3) 0.1649(4) 0.53845(16)
H39? H 0.3070 0.1507 0.5770
C38? C 0.2512(13) 0.0171(5) 0.5147(6)
H40? H 0.2795 0.0077 0.5539
H41? H 0.1920 -0.0011 0.5166
H42? H 0.2808 -0.0126 0.4829
H43? H 0.5308 0.3597 0.5142
H44? H 0.4255 0.3482 0.5101
H45? H 0.4714 0.4242 0.4789
H46? H 0.4657 0.0320 0.1319
H47? H 0.4865 0.1248 0.1542
H48? H 0.4312 0.0698 0.1967
loop_
_geom_bond_atom_site_label_1
_geom_bond_atom_site_label_2
_geom_bond_site_symmetry_1
_geom_bond_site_symmetry_2
B1 C1 1_555 1_555
C1 H1 1_555 1_555
C2 C1 1_555 1_555
H2 C2 1_555 1_555
C3 C2 1_555 1_555
C4 C3 1_555 1_555
H3 C4 1_555 1_555
C5 C4 1_555 1_555
H4 C5 1_555 1_555
C6 C5 1_555 1_555
C7 C6 1_555 1_555
H5 C7 1_555 1_555
C8 C3 1_555 1_555
H6 C8 1_555 1_555
C9 B1 1_555 1_555
C10 C9 1_555 1_555
C11 C10 1_555 1_555
H7 C11 1_555 1_555
C12 C11 1_555 1_555
C13 C12 1_555 1_555
H8 C13 1_555 1_555
C14 C9 1_555 1_555
C15 C10 1_555 1_555
H9 C15 1_555 1_555
H10 C15 1_555 1_555
H11 C15 1_555 1_555
C16 C12 1_555 1_555
H12 C16 1_555 1_555
H13 C16 1_555 1_555
H14 C16 1_555 1_555
C17 C14 1_555 1_555
H15 C17 1_555 1_555
H16 C17 1_555 1_555
H17 C17 1_555 1_555
C18 B1 1_555 1_555
C19 C18 1_555 1_555
C20 C19 1_555 1_555
H18 C20 1_555 1_555
C21 C20 1_555 1_555
C22 C21 1_555 1_555
H19 C22 1_555 1_555
C23 C18 1_555 1_555
C24 C19 1_555 1_555
H20 C24 1_555 1_555
H21 C24 1_555 1_555
H22 C24 1_555 1_555
C25 C21 1_555 1_555
H23 C25 1_555 1_555
H24 C25 1_555 1_555
H25 C25 1_555 1_555
C26 C23 1_555 1_555
H26 C26 1_555 1_555
H27 C26 1_555 1_555
H28 C26 1_555 1_555
C27 C28 1_555 1_555
C28 H29 1_555 1_555
C29 C28 1_555 1_555
H30 C29 1_555 1_555
C30 C29 1_555 1_555
H31 C30 1_555 1_555
C31 C27 1_555 1_555
B1D C1D 1_555 1_555
C1D H1D 1_555 1_555
C2D C1D 1_555 1_555
H2D C2D 1_555 1_555
C3D C2D 1_555 1_555
C4D C3D 1_555 1_555
H3D C4D 1_555 1_555
C5D C4D 1_555 1_555
H4D C5D 1_555 1_555
C6D C6 1_555 1_555
C7D C6D 1_555 1_555
H5D C7D 1_555 1_555
C8D C3D 1_555 1_555
H6D C8D 1_555 1_555
C9D B1D 1_555 1_555
C10D C9D 1_555 1_555
C11D C10D 1_555 1_555
H7D C11D 1_555 1_555
C12D C11D 1_555 1_555
C13D C12D 1_555 1_555
H8D C13D 1_555 1_555
C14D C9D 1_555 1_555
C15D C10D 1_555 1_555
H9D C15D 1_555 1_555
H10D C15D 1_555 1_555
H11D C15D 1_555 1_555
C16D C12D 1_555 1_555
H12D C16D 1_555 1_555
H13D C16D 1_555 1_555
H14D C16D 1_555 1_555
C17D C14D 1_555 1_555
H15D C17D 1_555 1_555
H16D C17D 1_555 1_555
H17D C17D 1_555 1_555
C18D B1D 1_555 1_555
C19D C18D 1_555 1_555
C20D C19D 1_555 1_555
H18D C20D 1_555 1_555
C21D C20D 1_555 1_555
C22D C21D 1_555 1_555
H19D C22D 1_555 1_555
C23D C18D 1_555 1_555
C24D C19D 1_555 1_555
H20D C24D 1_555 1_555
H21D C24D 1_555 1_555
H22D C24D 1_555 1_555
C25D C21D 1_555 1_555
H23D C25D 1_555 1_555
H24D C25D 1_555 1_555
H25D C25D 1_555 1_555
C26D C23D 1_555 1_555
H26D C26D 1_555 1_555
H27D C26D 1_555 1_555
H28D C26D 1_555 1_555
C28A C27 1_555 1_555
H29A C28A 1_555 1_555
C29A C30 1_555 1_555
H30A C29A 1_555 1_555
C7 C8 1_555 1_555
C13 C14 1_555 1_555
C22 C23 1_555 1_555
C5D C6D 1_555 1_555
C7D C8D 1_555 1_555
C13D C14D 1_555 1_555
C22D C23D 1_555 1_555
C28A C29A 1_555 1_555

#END
