
#######################################################################
#
#                 Cambridge Crystallographic Data Centre
#                                CCDC 
#
#######################################################################
#
# If this CIF has been generated from an entry in the Cambridge 
# Structural Database, then it will include bibliographic, chemical, 
# crystal, experimental, refinement or atomic coordinate data resulting 
# from the CCDC's data processing and validation procedures.
#
#######################################################################

data_WUGXIG
_chemical_name_common            
'(1,4-Phenylenediethene-2,1-diyl)bis(dimesitylborane) toluene solvate'
_chemical_formula_moiety         'C46 H52 B2,3(C7 H8)'
_chemical_name_systematic        
'1,4-bis((E)-Dimesitylborylethenyl)benzene toluene solvate'
_symmetry_cell_setting           monoclinic
_symmetry_space_group_name_H-M   'P 21/c'
_symmetry_Int_Tables_number      14
_space_group_name_Hall           '-P 2ybc'
loop_
_symmetry_equiv_pos_site_id
_symmetry_equiv_pos_as_xyz
1 x,y,z
2 -x,1/2+y,1/2-z
3 -x,-y,-z
4 x,1/2-y,1/2+z
_cell_length_a                   15.144(2)
_cell_length_b                   11.4882(15)
_cell_length_c                   16.240(2)
_cell_angle_alpha                90
_cell_angle_beta                 99.46(2)
_cell_angle_gamma                90
_cell_volume                     2786.97
_exptl_crystal_colour            'pale yellow'
_exptl_crystal_description       plate
_cell_formula_units_Z            2
_exptl_crystal_recrystallization_method toluene
loop_
_atom_site_label
_atom_site_type_symbol
_atom_site_fract_x
_atom_site_fract_y
_atom_site_fract_z
B1 B 1.15455(12) 0.51953(16) -0.27307(11)
C1 C 1.08660(11) 0.50335(15) -0.21187(10)
H1 H 1.0240(12) 0.4801(15) -0.2339(11)
C2 C 1.10839(11) 0.52060(14) -0.12903(10)
H2 H 1.1688(11) 0.5431(15) -0.1063(10)
C3 C 1.05173(10) 0.50850(13) -0.06473(9)
C4 C 0.96306(10) 0.46990(14) -0.08102(10)
H3 H 0.9373 0.4491 -0.1364
C5 C 1.08752(10) 0.53832(14) 0.01801(10)
H4 H 1.1477 0.5645 0.0307
C6 C 1.24563(10) 0.58207(15) -0.23786(10)
C7 C 1.32744(11) 0.52207(16) -0.23417(10)
C8 C 1.40749(11) 0.57401(17) -0.19801(11)
H5 H 1.4619 0.5322 -0.1962
C9 C 1.41021(12) 0.68517(17) -0.16480(11)
C10 C 1.33020(11) 0.74493(16) -0.16906(10)
H6 H 1.3308 0.8214 -0.1467
C11 C 1.24884(11) 0.69614(15) -0.20511(10)
C12 C 1.33018(13) 0.39883(17) -0.26695(14)
H7 H 1.3912 0.3682 -0.2532
H8 H 1.2893 0.3496 -0.2414
H9 H 1.3117 0.3991 -0.3277
C13 C 1.49699(13) 0.7389(2) -0.12390(15)
H10 H 1.5461 0.7084 -0.1500
H11 H 1.4937 0.8236 -0.1309
H12 H 1.5078 0.7199 -0.0643
C14 C 1.16559(12) 0.77045(16) -0.20970(12)
H13 H 1.1185 0.7400 -0.2530
H14 H 1.1449 0.7688 -0.1557
H15 H 1.1796 0.8507 -0.2233
C15 C 1.13244(10) 0.47149(14) -0.36497(10)
C16 C 1.09912(11) 0.35710(15) -0.38128(10)
C17 C 1.08015(11) 0.31517(15) -0.46264(10)
H16 H 1.0584 0.2379 -0.4719
C18 C 1.09200(11) 0.38293(15) -0.53044(10)
C19 C 1.12402(12) 0.49486(15) -0.51496(10)
H17 H 1.1320 0.5426 -0.5609
C20 C 1.14489(11) 0.54026(15) -0.43463(10)
C21 C 1.08772(13) 0.27297(16) -0.31199(11)
H18 H 1.0845 0.1933 -0.3337
H19 H 1.1388 0.2799 -0.2666
H20 H 1.0324 0.2913 -0.2908
C22 C 1.07186(13) 0.33607(17) -0.61823(11)
H21 H 1.0758 0.2510 -0.6168
H22 H 1.0114 0.3595 -0.6439
H23 H 1.1153 0.3671 -0.6510
C23 C 1.17801(15) 0.66413(16) -0.42573(12)
H24 H 1.1880 0.6933 -0.4801
H25 H 1.1333 0.7127 -0.4050
H26 H 1.2343 0.6668 -0.3862
B1B B 0.84545(12) 0.48047(16) 0.27307(11)
C1B C 0.91340(11) 0.49665(15) 0.21187(10)
H1B H 0.9760(12) 0.5199(15) 0.2339(11)
C2B C 0.89161(11) 0.47940(14) 0.12903(10)
H2B H 0.8312(11) 0.4569(15) 0.1063(10)
C3B C 0.94827(10) 0.49150(13) 0.06473(9)
C4B C 1.03694(10) 0.53010(14) 0.08102(10)
H3B H 1.0627 0.5509 0.1364
C5B C 0.91248(10) 0.46168(14) -0.01801(10)
H4B H 0.8523 0.4355 -0.0307
C6B C 0.75437(10) 0.41793(15) 0.23786(10)
C7B C 0.67256(11) 0.47793(16) 0.23417(10)
C8B C 0.59251(11) 0.42599(17) 0.19801(11)
H5B H 0.5381 0.4678 0.1962
C9B C 0.58979(12) 0.31483(17) 0.16480(11)
C10B C 0.66980(11) 0.25507(16) 0.16906(10)
H6B H 0.6692 0.1786 0.1467
C11B C 0.75116(11) 0.30386(15) 0.20511(10)
C12B C 0.66982(13) 0.60117(17) 0.26695(14)
H7B H 0.6088 0.6318 0.2532
H8B H 0.7107 0.6504 0.2414
H9B H 0.6883 0.6009 0.3277
C13B C 0.50301(13) 0.2611(2) 0.12390(15)
H10B H 0.4539 0.2916 0.1500
H11B H 0.5063 0.1764 0.1309
H12B H 0.4922 0.2801 0.0643
C14B C 0.83441(12) 0.22955(16) 0.20970(12)
H13B H 0.8815 0.2600 0.2530
H14B H 0.8551 0.2312 0.1557
H15B H 0.8204 0.1493 0.2233
C15B C 0.86756(10) 0.52851(14) 0.36497(10)
C16B C 0.90088(11) 0.64290(15) 0.38128(10)
C17B C 0.91985(11) 0.68483(15) 0.46264(10)
H16B H 0.9416 0.7621 0.4719
C18B C 0.90800(11) 0.61707(15) 0.53044(10)
C19B C 0.87598(12) 0.50514(15) 0.51496(10)
H17B H 0.8680 0.4574 0.5609
C20B C 0.85511(11) 0.45974(15) 0.43463(10)
C21B C 0.91228(13) 0.72703(16) 0.31199(11)
H18B H 0.9155 0.8067 0.3337
H19B H 0.8612 0.7201 0.2666
H20B H 0.9676 0.7087 0.2908
C22B C 0.92814(13) 0.66393(17) 0.61823(11)
H21B H 0.9242 0.7490 0.6168
H22B H 0.9886 0.6405 0.6439
H23B H 0.8847 0.6329 0.6510
C23B C 0.82199(15) 0.33587(16) 0.42573(12)
H24B H 0.8120 0.3067 0.4801
H25B H 0.8667 0.2873 0.4050
H26B H 0.7657 0.3332 0.3862
C24 C 0.3085(3) 0.4191(3) 0.03437(19)
C25 C 0.2902(3) 0.4123(3) 0.1153(2)
H27 H 0.2642 0.3438 0.1336
C26 C 0.3101(3) 0.5058(4) 0.16953(14)
H28 H 0.2976 0.5011 0.2249
C27 C 0.3482(2) 0.6060(3) 0.14277(16)
H29 H 0.3618 0.6699 0.1798
C28 C 0.3665(2) 0.6128(3) 0.06181(18)
H30 H 0.3925 0.6813 0.0435
C29 C 0.3466(3) 0.5193(3) 0.00762(14)
H31 H 0.3591 0.5240 -0.0477
C30 C 0.2894(2) 0.3183(3) -0.0261(3)
H32 H 0.2843 0.2460 0.0048
H33 H 0.3383 0.3109 -0.0585
H34 H 0.2332 0.3328 -0.0641
C31? C 0.4721(7) 0.0532(9) -0.0508(3)
C32? C 0.4139(7) 0.0105(9) -0.0002(6)
H35? H 0.3513 0.0236 -0.0148
C33? C 0.4472(10) -0.0514(9) 0.0717(5)
H36? H 0.4074 -0.0806 0.1063
C34? C 0.5387(11) -0.0705(9) 0.0930(4)
H37? H 0.5615 -0.1128 0.1422
C35? C 0.5969(8) -0.0278(9) 0.0424(7)
H38? H 0.6594 -0.0409 0.0570
C36? C 0.5636(7) 0.0341(9) -0.0295(6)
H39? H 0.6033 0.0633 -0.0641
C37? C 0.4336(12) 0.1144(15) -0.1276(9)
H40? H 0.4813 0.1371 -0.1583
H41? H 0.3851 0.0769 -0.1657
H42? H 0.4104 0.1837 -0.1031
C38? C 0.3594(6) 0.5663(6) 0.0882(5)
C39? C 0.3491(8) 0.5004(9) 0.0155(4)
C40? C 0.3055(9) 0.3936(9) 0.0122(6)
C41? C 0.2723(6) 0.3527(7) 0.0817(7)
C42? C 0.2827(6) 0.4186(9) 0.1544(5)
C43? C 0.3262(6) 0.5254(9) 0.1577(4)
C44? C 0.4107(9) 0.6715(12) 0.0941(9)
H43? H 0.3718 0.5283 -0.0319
H44? H 0.2985 0.3486 -0.0375
H45? H 0.2426 0.2797 0.0794
H46? H 0.2600 0.3906 0.2018
H47? H 0.3333 0.5704 0.2073
H48? H 0.3874 0.7228 0.0469
H49? H 0.4742 0.6545 0.0925
H50? H 0.4062 0.7121 0.1466
loop_
_geom_bond_atom_site_label_1
_geom_bond_atom_site_label_2
_geom_bond_site_symmetry_1
_geom_bond_site_symmetry_2
B1 C1 1_555 1_555
C1 H1 1_555 1_555
C2 C1 1_555 1_555
H2 C2 1_555 1_555
C3 C2 1_555 1_555
C4 C3 1_555 1_555
H3 C4 1_555 1_555
C5 C3 1_555 1_555
H4 C5 1_555 1_555
C6 B1 1_555 1_555
C7 C6 1_555 1_555
C8 C7 1_555 1_555
H5 C8 1_555 1_555
C9 C8 1_555 1_555
C10 C9 1_555 1_555
H6 C10 1_555 1_555
C11 C6 1_555 1_555
C12 C7 1_555 1_555
H7 C12 1_555 1_555
H8 C12 1_555 1_555
H9 C12 1_555 1_555
C13 C9 1_555 1_555
H10 C13 1_555 1_555
H11 C13 1_555 1_555
H12 C13 1_555 1_555
C14 C11 1_555 1_555
H13 C14 1_555 1_555
H14 C14 1_555 1_555
H15 C14 1_555 1_555
C15 B1 1_555 1_555
C16 C15 1_555 1_555
C17 C16 1_555 1_555
H16 C17 1_555 1_555
C18 C17 1_555 1_555
C19 C18 1_555 1_555
H17 C19 1_555 1_555
C20 C15 1_555 1_555
C21 C16 1_555 1_555
H18 C21 1_555 1_555
H19 C21 1_555 1_555
H20 C21 1_555 1_555
C22 C18 1_555 1_555
H21 C22 1_555 1_555
H22 C22 1_555 1_555
H23 C22 1_555 1_555
C23 C20 1_555 1_555
H24 C23 1_555 1_555
H25 C23 1_555 1_555
H26 C23 1_555 1_555
C24 C25 1_555 1_555
C25 H27 1_555 1_555
C26 C25 1_555 1_555
H28 C26 1_555 1_555
C27 C26 1_555 1_555
H29 C27 1_555 1_555
C28 C27 1_555 1_555
H30 C28 1_555 1_555
C29 C24 1_555 1_555
H31 C29 1_555 1_555
C30 C24 1_555 1_555
H32 C30 1_555 1_555
H33 C30 1_555 1_555
H34 C30 1_555 1_555
B1B C1B 1_555 1_555
C1B H1B 1_555 1_555
C2B C1B 1_555 1_555
H2B C2B 1_555 1_555
C3B C2B 1_555 1_555
C4B C5 1_555 1_555
H3B C4B 1_555 1_555
C5B C4 1_555 1_555
H4B C5B 1_555 1_555
C6B B1B 1_555 1_555
C7B C6B 1_555 1_555
C8B C7B 1_555 1_555
H5B C8B 1_555 1_555
C9B C8B 1_555 1_555
C10B C9B 1_555 1_555
H6B C10B 1_555 1_555
C11B C6B 1_555 1_555
C12B C7B 1_555 1_555
H7B C12B 1_555 1_555
H8B C12B 1_555 1_555
H9B C12B 1_555 1_555
C13B C9B 1_555 1_555
H10B C13B 1_555 1_555
H11B C13B 1_555 1_555
H12B C13B 1_555 1_555
C14B C11B 1_555 1_555
H13B C14B 1_555 1_555
H14B C14B 1_555 1_555
H15B C14B 1_555 1_555
C15B B1B 1_555 1_555
C16B C15B 1_555 1_555
C17B C16B 1_555 1_555
H16B C17B 1_555 1_555
C18B C17B 1_555 1_555
C19B C18B 1_555 1_555
H17B C19B 1_555 1_555
C20B C15B 1_555 1_555
C21B C16B 1_555 1_555
H18B C21B 1_555 1_555
H19B C21B 1_555 1_555
H20B C21B 1_555 1_555
C22B C18B 1_555 1_555
H21B C22B 1_555 1_555
H22B C22B 1_555 1_555
H23B C22B 1_555 1_555
C23B C20B 1_555 1_555
H24B C23B 1_555 1_555
H25B C23B 1_555 1_555
H26B C23B 1_555 1_555
C10 C11 1_555 1_555
C19 C20 1_555 1_555
C28 C29 1_555 1_555
C3B C4B 1_555 1_555
C3B C5B 1_555 1_555
C10B C11B 1_555 1_555
C19B C20B 1_555 1_555

#END
