
#######################################################################
#
#                 Cambridge Crystallographic Data Centre
#                                CCDC 
#
#######################################################################
#
# If this CIF has been generated from an entry in the Cambridge 
# Structural Database, then it will include bibliographic, chemical, 
# crystal, experimental, refinement or atomic coordinate data resulting 
# from the CCDC's data processing and validation procedures.
#
#######################################################################

data_WUHHUE
_chemical_formula_moiety         'C40 H48 N4 O3 S3'
_chemical_name_systematic        
5,10-bis((2-ethylhexyl)amino)-2,7-bis(2-thienylmethyl)-8-thioxo-7,8-dihydrobenzo[lmn][3,8]phenanthroline-1,3,6(2H)-trione
_symmetry_cell_setting           monoclinic
_symmetry_space_group_name_H-M   'P 21/n'
_symmetry_Int_Tables_number      14
_space_group_name_Hall           '-P 2yn'
loop_
_symmetry_equiv_pos_site_id
_symmetry_equiv_pos_as_xyz
1 x,y,z
2 1/2-x,1/2+y,1/2-z
3 -x,-y,-z
4 1/2+x,1/2-y,1/2+z
_cell_length_a                   17.309(2)
_cell_length_b                   7.7202(10)
_cell_length_c                   28.054(3)
_cell_angle_alpha                90
_cell_angle_beta                 95.289(8)
_cell_angle_gamma                90
_cell_volume                     3732.87
_exptl_crystal_colour            'blue green'
_exptl_crystal_description       plate
_cell_formula_units_Z            4
loop_
_atom_site_label
_atom_site_type_symbol
_atom_site_fract_x
_atom_site_fract_y
_atom_site_fract_z
S1 S 0.2565(2) 0.8282(7) 0.44353(17)
O1 O 0.4999(3) 0.7261(6) 0.37042(14)
N1 N 0.3910(3) 0.7793(7) 0.40743(17)
N2 N 0.6351(3) 0.8514(7) 0.40439(17)
H1 H 0.6078 0.7973 0.3809
C1 C 0.3461(4) 0.6936(9) 0.3661(2)
H2 H 0.2965 0.6502 0.3765
H3 H 0.3758 0.5924 0.3560
C2 C 0.3510(3) 0.8496(8) 0.4431(2)
C3 C 0.3983(3) 0.9362(7) 0.4822(2)
C4 C 0.3618(4) 0.9980(7) 0.5204(2)
H4 H 0.3076 0.9794 0.5209
C5 C 0.4788(3) 0.9581(7) 0.48089(18)
C6 C 0.5166(3) 0.8902(7) 0.44276(19)
C7 C 0.4704(4) 0.7946(8) 0.4044(2)
C8 C 0.5979(4) 0.9124(8) 0.4414(2)
C9 C 0.71838(15) 0.8716(5) 0.40192(8)
H5 H 0.7464 0.8241 0.4314
H6 H 0.7311 0.9964 0.4001
S2 S 0.24520(15) 0.9331(4) 0.32184(9)
C10 C 0.2661(5) 1.0284(13) 0.2685(3)
H7 H 0.2330 1.1094 0.2512
C11 C 0.3371(5) 0.9726(13) 0.2539(3)
H8 H 0.3564 1.0056 0.2246
C12 C 0.3768(6) 0.8609(16) 0.2880(3)
H9 H 0.4290 0.8239 0.2870
C13 C 0.3287(5) 0.8119(10) 0.3236(2)
C14 C 0.74549(9) 0.8139(4) 0.35362(6)
H10 H 0.7161 0.7024 0.3497
C15 C 0.7044(3) 0.9141(5) 0.31108(6)
H11 H 0.6495 0.9285 0.3174
H12 H 0.7276 1.0313 0.3112
C16 C 0.70527(14) 0.8407(8) 0.26008(9)
H13 H 0.7557 0.8705 0.2482
H14 H 0.7026 0.7129 0.2620
C17 C 0.6403(3) 0.9024(8) 0.22272(10)
H15 H 0.6196 1.0085 0.2368
H16 H 0.5990 0.8141 0.2236
C18 C 0.6424(13) 0.945(2) 0.16922(19)
H17 H 0.5906 0.9808 0.1558
H18 H 0.6585 0.8420 0.1523
H19 H 0.6794 1.0391 0.1656
C19 C 0.82843(11) 0.7400(3) 0.35997(15)
H20 H 0.8649 0.8372 0.3674
H21 H 0.8405 0.6901 0.3290
C20 C 0.8443(12) 0.6005(10) 0.3989(3)
H22 H 0.8994 0.5691 0.4014
H23 H 0.8128 0.4978 0.3904
H24 H 0.8309 0.6460 0.4297
S1B S 0.7435(2) 1.1718(7) 0.55647(17)
O1B O 0.5001(3) 1.2739(6) 0.62958(14)
N1B N 0.6090(3) 1.2207(7) 0.59257(17)
N2B N 0.3649(3) 1.1486(7) 0.59561(17)
H1B H 0.3922 1.2027 0.6191
C1B C 0.6539(4) 1.3064(9) 0.6339(2)
H2B H 0.7035 1.3498 0.6235
H3B H 0.6242 1.4076 0.6440
C2B C 0.6490(3) 1.1504(8) 0.5569(2)
C3B C 0.6017(3) 1.0638(7) 0.5178(2)
C4B C 0.6382(4) 1.0020(7) 0.4796(2)
H4B H 0.6924 1.0206 0.4791
C5B C 0.5212(3) 1.0419(7) 0.51911(18)
C6B C 0.4834(3) 1.1098(7) 0.55724(19)
C7B C 0.5296(4) 1.2054(8) 0.5956(2)
C8B C 0.4021(4) 1.0876(8) 0.5586(2)
C9B C 0.28162(15) 1.1284(5) 0.59808(8)
H5B H 0.2536 1.1759 0.5686
H6B H 0.2689 1.0036 0.5999
S2B S 0.75480(15) 1.0669(4) 0.67816(9)
C10B C 0.7339(5) 0.9716(13) 0.7315(3)
H7B H 0.7670 0.8906 0.7488
C11B C 0.6629(5) 1.0274(13) 0.7461(3)
H8B H 0.6436 0.9944 0.7754
C12B C 0.6232(6) 1.1391(16) 0.7120(3)
H9B H 0.5710 1.1761 0.7130
C13B C 0.6713(5) 1.1881(10) 0.6764(2)
C14B C 0.25451(9) 1.1861(4) 0.64638(6)
H10B H 0.2839 1.2976 0.6503
C15B C 0.2956(3) 1.0859(5) 0.68892(6)
H11B H 0.3505 1.0715 0.6826
H12B H 0.2724 0.9687 0.6888
C16B C 0.29473(14) 1.1593(8) 0.73992(9)
H13B H 0.2443 1.1295 0.7518
H14B H 0.2974 1.2871 0.7380
C17B C 0.3597(3) 1.0976(8) 0.77728(10)
H15B H 0.3804 0.9915 0.7632
H16B H 0.4010 1.1859 0.7764
C18B C 0.3576(13) 1.055(2) 0.83078(19)
H17B H 0.4094 1.0192 0.8442
H18B H 0.3415 1.1580 0.8477
H19B H 0.3206 0.9609 0.8344
C19B C 0.17157(11) 1.2600(3) 0.64003(15)
H20B H 0.1351 1.1628 0.6326
H21B H 0.1595 1.3099 0.6710
C20B C 0.1557(12) 1.3995(10) 0.6011(3)
H22B H 0.1006 1.4309 0.5986
H23B H 0.1872 1.5022 0.6096
H24B H 0.1691 1.3540 0.5703
O2 O 0.1049(3) 0.7253(6) 0.11880(15)
N3 N -0.0237(3) 0.7915(7) 0.10925(18)
N4 N 0.1990(3) 0.8312(7) 0.05728(19)
H25 H 0.1946 0.7894 0.0861
C21 C -0.0322(5) 0.7031(9) 0.1553(2)
H26 H 0.0058 0.6071 0.1596
H27 H -0.0849 0.6530 0.1549
C22 C -0.0908(4) 0.8618(9) 0.0843(2)
C23 C -0.0785(4) 0.9464(8) 0.0385(2)
C24 C -0.1410(4) 1.0158(8) 0.0123(2)
H28 H -0.1905 1.0063 0.0241
C25 C -0.0041(4) 0.9577(7) 0.02237(19)
C26 C 0.0618(4) 0.8851(8) 0.0495(2)
C27 C 0.0516(4) 0.7984(8) 0.0935(2)
C28 C 0.1351(4) 0.8957(8) 0.0332(2)
C29 C 0.2747(3) 0.8250(11) 0.0394(2)
H29 H 0.2855 0.9420 0.0271
H30 H 0.2709 0.7459 0.0115
O3 O -0.1505(7) 0.837(2) 0.1039(5)
S3 S -0.09265(14) 0.9496(4) 0.21451(8)
C30 C -0.0362(5) 1.0237(13) 0.2614(3)
H31 H -0.0543 1.1005 0.2844
C31 C 0.0372(5) 0.9657(13) 0.2638(3)
H32 H 0.0768 0.9986 0.2878
C32 C 0.0482(6) 0.8459(16) 0.2250(4)
H33 H 0.0955 0.7886 0.2204
C33 C -0.0190(5) 0.8277(9) 0.1964(2)
C34 C 0.3298(4) 0.7430(11) 0.0794(2)
H34 H 0.3033 0.6391 0.0916
C35 C 0.3523(7) 0.8631(13) 0.1223(4)
H35 H 0.3040 0.8961 0.1364
H36 H 0.3839 0.7947 0.1468
C36 C 0.3971(7) 1.0304(16) 0.1136(3)
H37 H 0.3600 1.1214 0.1015
H38 H 0.4331 1.0089 0.0888
C37 C 0.4435(6) 1.0946(19) 0.1596(4)
H39 H 0.4029 1.1359 0.1795
H40 H 0.4694 1.2006 0.1492
C38 C 0.5046(9) 1.013(2) 0.1963(5)
H41 H 0.5270 1.1025 0.2181
H42 H 0.5457 0.9595 0.1795
H43 H 0.4799 0.9239 0.2148
C39 C 0.4009(4) 0.679(2) 0.0552(4)
H44 H 0.3845 0.5823 0.0336
H45 H 0.4186 0.7745 0.0352
C40 C 0.4703(7) 0.619(2) 0.0894(5)
H46 H 0.5146 0.5947 0.0710
H47 H 0.4562 0.5129 0.1059
H48 H 0.4843 0.7094 0.1130
O2B O -0.1049(3) 1.2747(6) -0.11880(15)
N3B N 0.0237(3) 1.2085(7) -0.10925(18)
N4B N -0.1990(3) 1.1688(7) -0.05728(19)
H25B H -0.1946 1.2106 -0.0861
C21B C 0.0322(5) 1.2969(9) -0.1553(2)
H26B H -0.0058 1.3929 -0.1596
H27B H 0.0849 1.3470 -0.1549
C22B C 0.0908(4) 1.1382(9) -0.0843(2)
C23B C 0.0785(4) 1.0536(8) -0.0385(2)
C24B C 0.1410(4) 0.9842(8) -0.0123(2)
H28B H 0.1905 0.9937 -0.0241
C25B C 0.0041(4) 1.0423(7) -0.02237(19)
C26B C -0.0618(4) 1.1149(8) -0.0495(2)
C27B C -0.0516(4) 1.2016(8) -0.0935(2)
C28B C -0.1351(4) 1.1043(8) -0.0332(2)
C29B C -0.2747(3) 1.1750(11) -0.0394(2)
H29B H -0.2855 1.0580 -0.0271
H30B H -0.2709 1.2541 -0.0115
O3B O 0.1505(7) 1.163(2) -0.1039(5)
S3B S 0.09265(14) 1.0504(4) -0.21451(8)
C30B C 0.0362(5) 0.9763(13) -0.2614(3)
H31B H 0.0543 0.8995 -0.2844
C31B C -0.0372(5) 1.0343(13) -0.2638(3)
H32B H -0.0768 1.0014 -0.2878
C32B C -0.0482(6) 1.1541(16) -0.2250(4)
H33B H -0.0955 1.2114 -0.2204
C33B C 0.0190(5) 1.1723(9) -0.1964(2)
C34B C -0.3298(4) 1.2570(11) -0.0794(2)
H34B H -0.3033 1.3609 -0.0916
C35B C -0.3523(7) 1.1369(13) -0.1223(4)
H35B H -0.3040 1.1039 -0.1364
H36B H -0.3839 1.2053 -0.1468
C36B C -0.3971(7) 0.9696(16) -0.1136(3)
H37B H -0.3600 0.8786 -0.1015
H38B H -0.4331 0.9911 -0.0888
C37B C -0.4435(6) 0.9054(19) -0.1596(4)
H39B H -0.4029 0.8641 -0.1795
H40B H -0.4694 0.7994 -0.1492
C38B C -0.5046(9) 0.987(2) -0.1963(5)
H41B H -0.5270 0.8975 -0.2181
H42B H -0.5457 1.0405 -0.1795
H43B H -0.4799 1.0761 -0.2148
C39B C -0.4009(4) 1.321(2) -0.0552(4)
H44B H -0.3845 1.4177 -0.0336
H45B H -0.4186 1.2255 -0.0352
C40B C -0.4703(7) 1.381(2) -0.0894(5)
H46B H -0.5146 1.4053 -0.0710
H47B H -0.4562 1.4871 -0.1059
H48B H -0.4843 1.2906 -0.1130
C41? C 0.3463(4) 0.7693(13) 0.0725(2)
H49? H 0.3404 0.6461 0.0825
C42? C 0.3512(11) 0.8877(11) 0.1169(4)
H50? H 0.2984 0.8811 0.1277
H51? H 0.3847 0.8219 0.1411
C43? C 0.3751(15) 1.0773(14) 0.1270(3)
H52? H 0.4278 1.1048 0.1183
H53? H 0.3369 1.1622 0.1125
C44? C 0.3710(6) 1.0527(19) 0.1811(3)
H54? H 0.3224 0.9991 0.1899
H55? H 0.3848 1.1569 0.2006
C45? C 0.4383(9) 0.924(3) 0.1775(8)
H56? H 0.4616 0.8958 0.2097
H57? H 0.4776 0.9773 0.1591
H58? H 0.4186 0.8186 0.1614
C46? C 0.4160(7) 0.7854(9) 0.0422(6)
H59? H 0.4048 0.8560 0.0129
H60? H 0.4640 0.8260 0.0608
C47? C 0.4155(14) 0.5889(12) 0.0324(10)
H61? H 0.4569 0.5603 0.0121
H62? H 0.3653 0.5554 0.0160
H63? H 0.4241 0.5261 0.0628
S4? S 0.3667(7) 0.864(2) 0.2843(4)
C48? C 0.2999(12) 1.008(4) 0.2592(7)
H64? H 0.3035 1.0613 0.2290
C49? C 0.2385(12) 1.038(4) 0.2883(8)
H65? H 0.1933 1.1036 0.2784
C50? C 0.2527(14) 0.958(4) 0.3345(8)
H66? H 0.2240 0.9783 0.3613
C51? C 0.3165(15) 0.844(4) 0.3338(7)
C52? C 0.74557(8) 0.7778(3) 0.35800(6)
H67? H 0.7412 0.6486 0.3571
C53? C 0.7115(3) 0.8787(2) 0.31360(11)
H68? H 0.6547 0.8761 0.3156
H69? H 0.7211 0.8036 0.2862
C54? C 0.72831(14) 1.0636(3) 0.29675(12)
H70? H 0.7808 1.0781 0.2860
H71? H 0.7172 1.1548 0.3200
C55? C 0.66393(11) 1.0409(16) 0.25552(16)
H72? H 0.6945 0.9617 0.2369
H73? H 0.6725 1.1555 0.2410
C56? C 0.5867(3) 1.007(3) 0.2252(4)
H74? H 0.5967 0.9879 0.1918
H75? H 0.5523 1.1068 0.2272
H76? H 0.5619 0.9036 0.2373
C57? C 0.82661(11) 0.8569(4) 0.35485(17)
H77? H 0.8270 0.9831 0.3611
H78? H 0.8464 0.8341 0.3234
C58? C 0.8727(7) 0.7563(18) 0.3955(4)
H79? H 0.9271 0.7932 0.3979
H80? H 0.8696 0.6319 0.3886
H81? H 0.8507 0.7798 0.4258
S5? S 0.0646(8) 0.874(2) 0.2263(6)
C59? C 0.0198(12) 0.989(4) 0.2668(11)
H82? H 0.0403 1.0925 0.2815
C60? C -0.0487(14) 0.918(5) 0.2757(9)
H83? H -0.0719 0.9201 0.3051
C61? C -0.0798(11) 0.838(6) 0.2308(11)
H84? H -0.1333 0.8163 0.2223
C62? C -0.0221(12) 0.797(3) 0.2026(6)
S6? S -0.1762(2) 0.8581(7) 0.10354(18)
O4? O 0.2816(6) 0.8338(19) 0.4383(5)
loop_
_geom_bond_atom_site_label_1
_geom_bond_atom_site_label_2
_geom_bond_site_symmetry_1
_geom_bond_site_symmetry_2
S1 C2 1_555 1_555
O1 C7 1_555 1_555
N1 C1 1_555 1_555
N2 H1 1_555 1_555
C1 H2 1_555 1_555
H3 C1 1_555 1_555
C2 N1 1_555 1_555
C3 C2 1_555 1_555
C4 C3 1_555 1_555
H4 C4 1_555 1_555
C5 C3 1_555 1_555
C6 C5 1_555 1_555
C7 N1 1_555 1_555
C8 N2 1_555 1_555
C9 N2 1_555 1_555
H5 C9 1_555 1_555
H6 C9 1_555 1_555
S2 C10 1_555 1_555
C10 H7 1_555 1_555
C11 C10 1_555 1_555
H8 C11 1_555 1_555
C12 C11 1_555 1_555
H9 C12 1_555 1_555
C13 C1 1_555 1_555
C14 C9 1_555 1_555
H10 C14 1_555 1_555
C15 C14 1_555 1_555
H11 C15 1_555 1_555
H12 C15 1_555 1_555
C16 C15 1_555 1_555
H13 C16 1_555 1_555
H14 C16 1_555 1_555
C17 C16 1_555 1_555
H15 C17 1_555 1_555
H16 C17 1_555 1_555
C18 C17 1_555 1_555
H17 C18 1_555 1_555
H18 C18 1_555 1_555
H19 C18 1_555 1_555
C19 C14 1_555 1_555
H20 C19 1_555 1_555
H21 C19 1_555 1_555
C20 C19 1_555 1_555
H22 C20 1_555 1_555
H23 C20 1_555 1_555
H24 C20 1_555 1_555
O2 C27 1_555 1_555
N3 C21 1_555 1_555
N4 H25 1_555 1_555
C21 H26 1_555 1_555
H27 C21 1_555 1_555
C22 N3 1_555 1_555
C23 C22 1_555 1_555
C24 C23 1_555 1_555
H28 C24 1_555 1_555
C25 C23 1_555 1_555
C26 C25 1_555 1_555
C27 N3 1_555 1_555
C28 N4 1_555 1_555
C29 N4 1_555 1_555
H29 C29 1_555 1_555
H30 C29 1_555 1_555
O3 C22 1_555 1_555
S3 C30 1_555 1_555
C30 H31 1_555 1_555
C31 C30 1_555 1_555
H32 C31 1_555 1_555
C32 C31 1_555 1_555
H33 C32 1_555 1_555
C33 C21 1_555 1_555
C34 C29 1_555 1_555
H34 C34 1_555 1_555
C35 C34 1_555 1_555
H35 C35 1_555 1_555
H36 C35 1_555 1_555
C36 C35 1_555 1_555
H37 C36 1_555 1_555
H38 C36 1_555 1_555
C37 C36 1_555 1_555
H39 C37 1_555 1_555
H40 C37 1_555 1_555
C38 C37 1_555 1_555
H41 C38 1_555 1_555
H42 C38 1_555 1_555
H43 C38 1_555 1_555
C39 C34 1_555 1_555
H44 C39 1_555 1_555
H45 C39 1_555 1_555
C40 C39 1_555 1_555
H46 C40 1_555 1_555
H47 C40 1_555 1_555
H48 C40 1_555 1_555
S1B C2B 1_555 1_555
O1B C7B 1_555 1_555
N1B C1B 1_555 1_555
N2B H1B 1_555 1_555
C1B H2B 1_555 1_555
H3B C1B 1_555 1_555
C2B N1B 1_555 1_555
C3B C2B 1_555 1_555
C4B C8 1_555 1_555
H4B C4B 1_555 1_555
C5B C5 1_555 1_555
C6B C5B 1_555 1_555
C7B N1B 1_555 1_555
C8B C4 1_555 1_555
C9B N2B 1_555 1_555
H5B C9B 1_555 1_555
H6B C9B 1_555 1_555
S2B C10B 1_555 1_555
C10B H7B 1_555 1_555
C11B C10B 1_555 1_555
H8B C11B 1_555 1_555
C12B C11B 1_555 1_555
H9B C12B 1_555 1_555
C13B C1B 1_555 1_555
C14B C9B 1_555 1_555
H10B C14B 1_555 1_555
C15B C14B 1_555 1_555
H11B C15B 1_555 1_555
H12B C15B 1_555 1_555
C16B C15B 1_555 1_555
H13B C16B 1_555 1_555
H14B C16B 1_555 1_555
C17B C16B 1_555 1_555
H15B C17B 1_555 1_555
H16B C17B 1_555 1_555
C18B C17B 1_555 1_555
H17B C18B 1_555 1_555
H18B C18B 1_555 1_555
H19B C18B 1_555 1_555
C19B C14B 1_555 1_555
H20B C19B 1_555 1_555
H21B C19B 1_555 1_555
C20B C19B 1_555 1_555
H22B C20B 1_555 1_555
H23B C20B 1_555 1_555
H24B C20B 1_555 1_555
O2B C27B 1_555 1_555
N3B C21B 1_555 1_555
N4B H25B 1_555 1_555
C21B H26B 1_555 1_555
H27B C21B 1_555 1_555
C22B N3B 1_555 1_555
C23B C22B 1_555 1_555
C24B C28 1_555 1_555
H28B C24B 1_555 1_555
C25B C25 1_555 1_555
C26B C25B 1_555 1_555
C27B N3B 1_555 1_555
C28B C24 1_555 1_555
C29B N4B 1_555 1_555
H29B C29B 1_555 1_555
H30B C29B 1_555 1_555
O3B C22B 1_555 1_555
S3B C30B 1_555 1_555
C30B H31B 1_555 1_555
C31B C30B 1_555 1_555
H32B C31B 1_555 1_555
C32B C31B 1_555 1_555
H33B C32B 1_555 1_555
C33B C21B 1_555 1_555
C34B C29B 1_555 1_555
H34B C34B 1_555 1_555
C35B C34B 1_555 1_555
H35B C35B 1_555 1_555
H36B C35B 1_555 1_555
C36B C35B 1_555 1_555
H37B C36B 1_555 1_555
H38B C36B 1_555 1_555
C37B C36B 1_555 1_555
H39B C37B 1_555 1_555
H40B C37B 1_555 1_555
C38B C37B 1_555 1_555
H41B C38B 1_555 1_555
H42B C38B 1_555 1_555
H43B C38B 1_555 1_555
C39B C34B 1_555 1_555
H44B C39B 1_555 1_555
H45B C39B 1_555 1_555
C40B C39B 1_555 1_555
H46B C40B 1_555 1_555
H47B C40B 1_555 1_555
H48B C40B 1_555 1_555
C6 C7 1_555 1_555
C6 C8 1_555 1_555
S2 C13 1_555 1_555
C12 C13 1_555 1_555
C26 C27 1_555 1_555
C26 C28 1_555 1_555
S3 C33 1_555 1_555
C32 C33 1_555 1_555
N2B C8B 1_555 1_555
C3B C4B 1_555 1_555
C3B C5B 1_555 1_555
C6B C7B 1_555 1_555
C6B C8B 1_555 1_555
S2B C13B 1_555 1_555
C12B C13B 1_555 1_555
N4B C28B 1_555 1_555
C23B C24B 1_555 1_555
C23B C25B 1_555 1_555
C26B C27B 1_555 1_555
C26B C28B 1_555 1_555
S3B C33B 1_555 1_555
C32B C33B 1_555 1_555

#END
