
#######################################################################
#
#                 Cambridge Crystallographic Data Centre
#                                CCDC 
#
#######################################################################
#
# If this CIF has been generated from an entry in the Cambridge 
# Structural Database, then it will include bibliographic, chemical, 
# crystal, experimental, refinement or atomic coordinate data resulting 
# from the CCDC's data processing and validation procedures.
#
#######################################################################

data_WUHNOC01
_chemical_formula_moiety         'C10 H17 N1 O2'
_chemical_name_systematic        
'2-Hydroxy-2,6,6-trimethylbicyclo(3.1.1)heptan-3-one oxime'
_symmetry_cell_setting           triclinic
_symmetry_space_group_name_H-M   'P 1'
_symmetry_Int_Tables_number      1
_space_group_name_Hall           'P 1'
loop_
_symmetry_equiv_pos_site_id
_symmetry_equiv_pos_as_xyz
1 x,y,z
_cell_length_a                   7.197(2)
_cell_length_b                   12.928(3)
_cell_length_c                   17.966(4)
_cell_angle_alpha                87.140(10)
_cell_angle_beta                 81.75(2)
_cell_angle_gamma                79.78(2)
_cell_volume                     1627.55
_exptl_crystal_colour            colorless
_exptl_crystal_description       plate
_cell_formula_units_Z            6
_exptl_crystal_recrystallization_method 'ethyl acetate/petroleum'
loop_
_atom_site_label
_atom_site_type_symbol
_atom_site_fract_x
_atom_site_fract_y
_atom_site_fract_z
O1 O 0.4510(3) -0.19190(16) 1.51275(10)
H1 H 0.4029 -0.2323 1.4908
O2 O 0.4154(3) -0.07233(17) 1.29376(11)
H2 H 0.3495 -0.0994 1.2694
N1 N 0.4770(3) -0.14303(19) 1.35064(13)
C1 C 0.7042(4) -0.0971(2) 1.51178(15)
H3 H 0.7559 -0.1340 1.5553
C2 C 0.6161(4) -0.1645(2) 1.46479(15)
C3 C 0.5465(4) -0.0979(2) 1.39867(15)
C4 C 0.5581(5) 0.0181(2) 1.39322(17)
H4 H 0.6276 0.0339 1.3448
H5 H 0.4305 0.0588 1.3963
C5 C 0.6566(5) 0.0493(2) 1.45537(17)
H6 H 0.6685 0.1237 1.4549
C6 C 0.8401(5) -0.0290(2) 1.46371(17)
C7 C 0.5658(5) 0.0059(2) 1.53037(18)
H7 H 0.5874 0.0402 1.5744
H8 H 0.4324 0.0008 1.5320
C8 C 0.9663(6) 0.0104(3) 1.5135(2)
H9 H 1.0524 -0.0481 1.5310
H10 H 0.8880 0.0455 1.5558
H11 H 1.0378 0.0586 1.4850
C9 C 0.9660(5) -0.0698(3) 1.39311(19)
H12 H 1.0176 -0.0130 1.3661
H13 H 0.8923 -0.0996 1.3620
H14 H 1.0682 -0.1228 1.4063
C10 C 0.7505(5) -0.2651(2) 1.44242(18)
H15 H 0.7770 -0.3065 1.4867
H16 H 0.8671 -0.2486 1.4155
H17 H 0.6926 -0.3041 1.4108
O3 O 0.4545(3) -0.48811(15) 1.57356(12)
H18 H 0.4544 -0.4323 1.5934
O4 O 0.3997(4) -0.34995(18) 1.35638(11)
H19 H 0.4286 -0.2917 1.3468
N2 N 0.3508(4) -0.3625(2) 1.43470(13)
C11 C 0.2333(4) -0.5901(2) 1.54778(17)
H20 H 0.1863 -0.6095 1.5996
C12 C 0.2847(4) -0.4804(2) 1.53792(16)
C13 C 0.3374(5) -0.4579(2) 1.45431(16)
C14 C 0.3696(6) -0.5459(2) 1.39925(18)
H21 H 0.5035 -0.5610 1.3788
H22 H 0.2971 -0.5241 1.3579
C15 C 0.3093(5) -0.6445(2) 1.43710(17)
H23 H 0.3216 -0.7041 1.4040
C16 C 0.1139(5) -0.6171(2) 1.48729(17)
C17 C 0.3996(5) -0.6694(2) 1.50942(19)
H24 H 0.5234 -0.6487 1.5074
H25 H 0.4019 -0.7412 1.5282
C18 C 0.0261(6) -0.7146(3) 1.5114(2)
H26 H -0.0756 -0.6976 1.5520
H27 H 0.1218 -0.7691 1.5278
H28 H -0.0230 -0.7385 1.4696
C19 C -0.0385(6) -0.5356(3) 1.4569(2)
H29 H -0.0808 -0.5637 1.4151
H30 H 0.0135 -0.4735 1.4407
H31 H -0.1445 -0.5182 1.4958
C20 C 0.1314(5) -0.3966(2) 1.57672(17)
H32 H 0.1202 -0.4090 1.6302
H33 H 0.0118 -0.3992 1.5597
H34 H 0.1654 -0.3286 1.5648
O5 O 0.4384(3) -0.53402(17) 1.73308(12)
H35 H 0.4238 -0.5225 1.6888
O6 O 0.4928(4) -0.22943(15) 1.66474(12)
H36 H 0.5072 -0.2097 1.6205
N3 N 0.5444(4) -0.33952(18) 1.66946(13)
C21 C 0.6190(5) -0.5168(2) 1.83022(16)
H37 H 0.6483 -0.5920 1.8429
C22 C 0.6033(4) -0.4922(2) 1.74814(15)
C23 C 0.5593(4) -0.3735(2) 1.73628(16)
C24 C 0.5285(5) -0.3036(2) 1.80342(16)
H38 H 0.3995 -0.2644 1.8088
H39 H 0.6154 -0.2535 1.7949
C25 C 0.5601(5) -0.3662(2) 1.87551(16)
H40 H 0.5412 -0.3248 1.9211
C26 C 0.7424(5) -0.4474(3) 1.86441(19)
C27 C 0.4471(5) -0.4567(3) 1.87949(17)
H41 H 0.4220 -0.4874 1.9295
H42 H 0.3323 -0.4408 1.8557
C28 C 0.7993(8) -0.4964(4) 1.9398(2)
H43 H 0.8369 -0.4441 1.9678
H44 H 0.9038 -0.5537 1.9301
H45 H 0.6927 -0.5219 1.9683
C29 C 0.9175(6) -0.4125(4) 1.8181(3)
H46 H 0.8832 -0.3799 1.7717
H47 H 1.0158 -0.4726 1.8076
H48 H 0.9631 -0.3631 1.8461
C30 C 0.7747(5) -0.5451(3) 1.69615(19)
H49 H 0.7814 -0.6200 1.7002
H50 H 0.8886 -0.5271 1.7101
H51 H 0.7627 -0.5218 1.6452
O7 O 0.2291(4) -0.12496(18) 1.18748(13)
H52 H 0.2338 -0.0661 1.1690
O8 O 0.2197(5) -0.14122(17) 0.96005(11)
H53 H 0.2225 -0.0886 0.9328
N4 N 0.1536(4) -0.11148(19) 1.03381(13)
C31 C 0.0649(5) -0.2685(2) 1.20485(17)
H54 H 0.0275 -0.2605 1.2592
C32 C 0.0778(4) -0.1657(2) 1.16144(15)
C33 C 0.1365(4) -0.1894(2) 1.07849(15)
C34 C 0.1765(7) -0.3016(2) 1.05410(19)
H55 H 0.3076 -0.3185 1.0303
H56 H 0.0944 -0.3098 1.0172
C35 C 0.1439(6) -0.3774(2) 1.12007(19)
H57 H 0.1715 -0.4520 1.1078
C36 C -0.0439(6) -0.3421(3) 1.1691(2)
C37 C 0.2460(6) -0.3467(3) 1.1839(2)
H58 H 0.2719 -0.4019 1.2215
H59 H 0.3576 -0.3151 1.1666
C38 C -0.0952(8) -0.4296(4) 1.2264(3)
H60 H -0.2053 -0.4019 1.2609
H61 H 0.0101 -0.4543 1.2536
H62 H -0.1223 -0.4869 1.2001
C39 C -0.2146(7) -0.2989(4) 1.1297(3)
H63 H -0.1789 -0.2510 1.0899
H64 H -0.3146 -0.2627 1.1651
H65 H -0.2587 -0.3558 1.1090
C40 C -0.1021(6) -0.0837(3) 1.1761(2)
H66 H -0.1312 -0.0709 1.2290
H67 H -0.2062 -0.1088 1.1591
H68 H -0.0824 -0.0195 1.1494
O9 O 0.2225(3) 0.07355(16) 1.10495(12)
H69 H 0.2152 0.0355 1.0707
O10 O 0.2853(5) 0.31232(16) 0.93792(13)
H70 H 0.2669 0.3040 0.8948
N5 N 0.3326(4) 0.21381(18) 0.97347(14)
C41 C 0.4392(5) 0.1465(2) 1.16465(15)
H71 H 0.4804 0.0855 1.1966
C42 C 0.3941(5) 0.1192(2) 1.08780(16)
C43 C 0.3457(5) 0.2224(2) 1.04318(16)
C44 C 0.3163(6) 0.3257(2) 1.08131(18)
H72 H 0.1836 0.3586 1.0839
H73 H 0.3930 0.3718 1.0519
C45 C 0.3712(5) 0.3113(2) 1.16044(17)
H74 H 0.3586 0.3762 1.1880
C46 C 0.5621(5) 0.2354(2) 1.16117(16)
C47 C 0.2717(6) 0.2255(3) 1.20189(18)
H75 H 0.1501 0.2210 1.1861
H76 H 0.2624 0.2267 1.2562
C48 C 0.6459(6) 0.2389(3) 1.23486(19)
H77 H 0.7484 0.1807 1.2374
H78 H 0.5485 0.2345 1.2768
H79 H 0.6931 0.3036 1.2364
C49 C 0.7214(5) 0.2457(3) 1.09683(19)
H80 H 0.7687 0.3097 1.1016
H81 H 0.6728 0.2471 1.0497
H82 H 0.8229 0.1869 1.0987
C50 C 0.5487(5) 0.0397(2) 1.04602(18)
H83 H 0.5637 -0.0251 1.0748
H84 H 0.6666 0.0662 1.0388
H85 H 0.5138 0.0276 0.9980
O11 O 0.2287(4) 0.05288(16) 0.89513(12)
H86 H 0.2666 0.0992 0.9153
O12 O 0.3114(4) 0.28216(18) 0.72927(12)
H87 H 0.3551 0.3337 0.7388
N6 N 0.2264(4) 0.23949(19) 0.79621(13)
C51 C 0.0001(5) 0.0073(2) 0.82649(18)
H88 H -0.0657 -0.0319 0.8670
C52 C 0.0778(5) 0.0998(2) 0.85265(16)
C53 C 0.1673(4) 0.1554(2) 0.78418(15)
C54 C 0.1858(6) 0.1091(3) 0.70830(17)
H89 H 0.3197 0.0904 0.6887
H90 H 0.1270 0.1614 0.6743
C55 C 0.0929(5) 0.0126(3) 0.71108(19)
H91 H 0.1029 -0.0216 0.6629
C56 C -0.1059(5) 0.0325(3) 0.7558(2)
C57 C 0.1581(5) -0.0598(2) 0.77605(19)
H92 H 0.1407 -0.1320 0.7727
H93 H 0.2855 -0.0560 0.7863
C58 C -0.2222(6) -0.0536(3) 0.7473(3)
H94 H -0.3307 -0.0470 0.7857
H95 H -0.1443 -0.1214 0.7521
H96 H -0.2646 -0.0463 0.6987
C59 C -0.2328(6) 0.1384(3) 0.7459(3)
H97 H -0.2588 0.1472 0.6948
H98 H -0.1691 0.1936 0.7575
H99 H -0.3504 0.1411 0.7792
C60 C -0.0716(6) 0.1714(3) 0.9029(2)
H100 H -0.1021 0.1356 0.9500
H101 H -0.1842 0.1904 0.8789
H102 H -0.0234 0.2337 0.9117
loop_
_geom_bond_atom_site_label_1
_geom_bond_atom_site_label_2
_geom_bond_site_symmetry_1
_geom_bond_site_symmetry_2
O1 H1 1_555 1_555
O2 H2 1_555 1_555
N1 O2 1_555 1_555
C1 H3 1_555 1_555
C2 O1 1_555 1_555
C3 N1 1_555 1_555
C4 C3 1_555 1_555
H4 C4 1_555 1_555
H5 C4 1_555 1_555
C5 C4 1_555 1_555
H6 C5 1_555 1_555
C6 C1 1_555 1_555
C7 C1 1_555 1_555
H7 C7 1_555 1_555
H8 C7 1_555 1_555
C8 C6 1_555 1_555
H9 C8 1_555 1_555
H10 C8 1_555 1_555
H11 C8 1_555 1_555
C9 C6 1_555 1_555
H12 C9 1_555 1_555
H13 C9 1_555 1_555
H14 C9 1_555 1_555
C10 C2 1_555 1_555
H15 C10 1_555 1_555
H16 C10 1_555 1_555
H17 C10 1_555 1_555
O3 H18 1_555 1_555
O4 H19 1_555 1_555
N2 O4 1_555 1_555
C11 H20 1_555 1_555
C12 O3 1_555 1_555
C13 N2 1_555 1_555
C14 C13 1_555 1_555
H21 C14 1_555 1_555
H22 C14 1_555 1_555
C15 C14 1_555 1_555
H23 C15 1_555 1_555
C16 C11 1_555 1_555
C17 C11 1_555 1_555
H24 C17 1_555 1_555
H25 C17 1_555 1_555
C18 C16 1_555 1_555
H26 C18 1_555 1_555
H27 C18 1_555 1_555
H28 C18 1_555 1_555
C19 C16 1_555 1_555
H29 C19 1_555 1_555
H30 C19 1_555 1_555
H31 C19 1_555 1_555
C20 C12 1_555 1_555
H32 C20 1_555 1_555
H33 C20 1_555 1_555
H34 C20 1_555 1_555
O5 H35 1_555 1_555
O6 H36 1_555 1_555
N3 O6 1_555 1_555
C21 H37 1_555 1_555
C22 O5 1_555 1_555
C23 N3 1_555 1_555
C24 C23 1_555 1_555
H38 C24 1_555 1_555
H39 C24 1_555 1_555
C25 C24 1_555 1_555
H40 C25 1_555 1_555
C26 C21 1_555 1_555
C27 C21 1_555 1_555
H41 C27 1_555 1_555
H42 C27 1_555 1_555
C28 C26 1_555 1_555
H43 C28 1_555 1_555
H44 C28 1_555 1_555
H45 C28 1_555 1_555
C29 C26 1_555 1_555
H46 C29 1_555 1_555
H47 C29 1_555 1_555
H48 C29 1_555 1_555
C30 C22 1_555 1_555
H49 C30 1_555 1_555
H50 C30 1_555 1_555
H51 C30 1_555 1_555
O7 H52 1_555 1_555
O8 H53 1_555 1_555
N4 O8 1_555 1_555
C31 H54 1_555 1_555
C32 O7 1_555 1_555
C33 N4 1_555 1_555
C34 C33 1_555 1_555
H55 C34 1_555 1_555
H56 C34 1_555 1_555
C35 C34 1_555 1_555
H57 C35 1_555 1_555
C36 C31 1_555 1_555
C37 C31 1_555 1_555
H58 C37 1_555 1_555
H59 C37 1_555 1_555
C38 C36 1_555 1_555
H60 C38 1_555 1_555
H61 C38 1_555 1_555
H62 C38 1_555 1_555
C39 C36 1_555 1_555
H63 C39 1_555 1_555
H64 C39 1_555 1_555
H65 C39 1_555 1_555
C40 C32 1_555 1_555
H66 C40 1_555 1_555
H67 C40 1_555 1_555
H68 C40 1_555 1_555
O9 H69 1_555 1_555
O10 H70 1_555 1_555
N5 O10 1_555 1_555
C41 H71 1_555 1_555
C42 O9 1_555 1_555
C43 N5 1_555 1_555
C44 C43 1_555 1_555
H72 C44 1_555 1_555
H73 C44 1_555 1_555
C45 C44 1_555 1_555
H74 C45 1_555 1_555
C46 C41 1_555 1_555
C47 C41 1_555 1_555
H75 C47 1_555 1_555
H76 C47 1_555 1_555
C48 C46 1_555 1_555
H77 C48 1_555 1_555
H78 C48 1_555 1_555
H79 C48 1_555 1_555
C49 C46 1_555 1_555
H80 C49 1_555 1_555
H81 C49 1_555 1_555
H82 C49 1_555 1_555
C50 C42 1_555 1_555
H83 C50 1_555 1_555
H84 C50 1_555 1_555
H85 C50 1_555 1_555
O11 H86 1_555 1_555
O12 H87 1_555 1_555
N6 O12 1_555 1_555
C51 H88 1_555 1_555
C52 O11 1_555 1_555
C53 N6 1_555 1_555
C54 C53 1_555 1_555
H89 C54 1_555 1_555
H90 C54 1_555 1_555
C55 C54 1_555 1_555
H91 C55 1_555 1_555
C56 C51 1_555 1_555
C57 C51 1_555 1_555
H92 C57 1_555 1_555
H93 C57 1_555 1_555
C58 C56 1_555 1_555
H94 C58 1_555 1_555
H95 C58 1_555 1_555
H96 C58 1_555 1_555
C59 C56 1_555 1_555
H97 C59 1_555 1_555
H98 C59 1_555 1_555
H99 C59 1_555 1_555
C60 C52 1_555 1_555
H100 C60 1_555 1_555
H101 C60 1_555 1_555
H102 C60 1_555 1_555
C1 C2 1_555 1_555
C2 C3 1_555 1_555
C5 C6 1_555 1_555
C5 C7 1_555 1_555
C11 C12 1_555 1_555
C12 C13 1_555 1_555
C15 C16 1_555 1_555
C15 C17 1_555 1_555
C21 C22 1_555 1_555
C22 C23 1_555 1_555
C25 C26 1_555 1_555
C25 C27 1_555 1_555
C31 C32 1_555 1_555
C32 C33 1_555 1_555
C35 C36 1_555 1_555
C35 C37 1_555 1_555
C41 C42 1_555 1_555
C42 C43 1_555 1_555
C45 C46 1_555 1_555
C45 C47 1_555 1_555
C51 C52 1_555 1_555
C52 C53 1_555 1_555
C55 C56 1_555 1_555
C55 C57 1_555 1_555

#END
