
#######################################################################
#
#                 Cambridge Crystallographic Data Centre
#                                CCDC 
#
#######################################################################
#
# If this CIF has been generated from an entry in the Cambridge 
# Structural Database, then it will include bibliographic, chemical, 
# crystal, experimental, refinement or atomic coordinate data resulting 
# from the CCDC's data processing and validation procedures.
#
#######################################################################

data_WUHPAS
_chemical_formula_moiety         'C24 H28 O5'
_chemical_name_systematic        
16-hydroxy-3-oxo-14,15-epoxybufa-4,20,22-trienolide
_symmetry_cell_setting           orthorhombic
_symmetry_space_group_name_H-M   'P 21 21 21'
_symmetry_Int_Tables_number      19
_space_group_name_Hall           'P 2ac 2ab'
loop_
_symmetry_equiv_pos_site_id
_symmetry_equiv_pos_as_xyz
1 x,y,z
2 1/2-x,-y,1/2+z
3 -x,1/2+y,1/2-z
4 1/2+x,1/2-y,-z
_cell_length_a                   8.6949(2)
_cell_length_b                   14.4888(4)
_cell_length_c                   16.1214(5)
_cell_angle_alpha                90
_cell_angle_beta                 90
_cell_angle_gamma                90
_cell_volume                     2030.95
_exptl_crystal_colour            colorless
_exptl_crystal_description       blocks
_cell_formula_units_Z            4
loop_
_atom_site_label
_atom_site_type_symbol
_atom_site_fract_x
_atom_site_fract_y
_atom_site_fract_z
O1 O 0.49435(19) 1.30338(11) -0.13401(12)
O2 O 1.23151(16) 0.94741(10) 0.01661(9)
O3 O 1.38230(18) 1.00283(13) 0.18141(13)
H1 H 1.3975 1.0453 0.2140
O4 O 1.3867(2) 0.69248(14) 0.24644(13)
O5 O 1.6177(2) 0.63661(14) 0.20572(14)
C1 C 0.5679(3) 1.11287(16) 0.00465(14)
H2 H 0.5068 1.0714 0.0385
H3 H 0.6231 1.1539 0.0417
C2 C 0.4607(3) 1.16991(17) -0.04959(16)
H4 H 0.3952 1.1288 -0.0813
H5 H 0.3952 1.2075 -0.0145
C3 C 0.5478(3) 1.23102(15) -0.10774(14)
C4 C 0.6970(2) 1.19692(15) -0.13575(13)
H6 H 0.7527 1.2331 -0.1728
C5 C 0.7588(2) 1.11636(15) -0.11123(12)
C6 C 0.9027(3) 1.08002(17) -0.15142(14)
H7 H 0.9448 1.1269 -0.1879
H8 H 0.8772 1.0266 -0.1850
C7 C 1.0224(2) 1.05326(17) -0.08817(13)
H9 H 1.0572 1.1080 -0.0591
H10 H 1.1103 1.0263 -0.1162
C8 C 0.9583(2) 0.98416(14) -0.02564(13)
H11 H 0.9300 0.9280 -0.0558
C9 C 0.8123(2) 1.02207(14) 0.01682(12)
H12 H 0.8443 1.0764 0.0487
C10 C 0.6851(2) 1.05585(15) -0.04525(12)
C11 C 0.7526(2) 0.95154(16) 0.07981(13)
H13 H 0.6611 0.9758 0.1065
H14 H 0.7244 0.8952 0.0511
C12 C 0.8731(2) 0.92946(17) 0.14579(13)
H15 H 0.8307 0.8848 0.1844
H16 H 0.8963 0.9852 0.1767
C13 C 1.0242(2) 0.89041(15) 0.10883(13)
C14 C 1.0718(2) 0.95787(14) 0.04105(12)
C15 C 1.1890(2) 1.01978(15) 0.07404(14)
H17 H 1.1915 1.0842 0.0556
C16 C 1.2224(2) 0.99762(16) 0.16263(15)
H18 H 1.1667 1.0411 0.1981
C17 C 1.1553(2) 0.89918(15) 0.17580(13)
H19 H 1.1050 0.8991 0.2302
C18 C 1.0025(3) 0.79184(16) 0.07817(17)
H20 H 0.9193 0.7899 0.0391
H21 H 0.9793 0.7524 0.1243
H22 H 1.0953 0.7711 0.0518
C19 C 0.6052(3) 0.97452(16) -0.08871(15)
H23 H 0.5375 0.9976 -0.1309
H24 H 0.5470 0.9399 -0.0488
H25 H 0.6813 0.9352 -0.1136
C20 C 1.2781(2) 0.82445(15) 0.17806(13)
C21 C 1.2744(3) 0.75768(18) 0.23684(15)
H26 H 1.1908 0.7561 0.2727
C22 C 1.4047(3) 0.82173(17) 0.12455(15)
H27 H 1.4109 0.8642 0.0814
C23 C 1.5178(2) 0.75933(14) 0.13383(13)
H28 H 1.6011 0.7611 0.0977
C24 C 1.5147(3) 0.69233(15) 0.19540(15)
loop_
_geom_bond_atom_site_label_1
_geom_bond_atom_site_label_2
_geom_bond_site_symmetry_1
_geom_bond_site_symmetry_2
O1 C3 1_555 1_555
O2 C14 1_555 1_555
O3 H1 1_555 1_555
O4 C21 1_555 1_555
O5 C24 1_555 1_555
C1 H2 1_555 1_555
H3 C1 1_555 1_555
C2 C1 1_555 1_555
H4 C2 1_555 1_555
H5 C2 1_555 1_555
C3 C2 1_555 1_555
C4 C3 1_555 1_555
H6 C4 1_555 1_555
C5 C4 1_555 1_555
C6 C5 1_555 1_555
H7 C6 1_555 1_555
H8 C6 1_555 1_555
C7 C6 1_555 1_555
H9 C7 1_555 1_555
H10 C7 1_555 1_555
C8 C7 1_555 1_555
H11 C8 1_555 1_555
C9 C8 1_555 1_555
H12 C9 1_555 1_555
C10 C1 1_555 1_555
C11 C9 1_555 1_555
H13 C11 1_555 1_555
H14 C11 1_555 1_555
C12 C11 1_555 1_555
H15 C12 1_555 1_555
H16 C12 1_555 1_555
C13 C12 1_555 1_555
C14 C8 1_555 1_555
C15 O2 1_555 1_555
H17 C15 1_555 1_555
C16 O3 1_555 1_555
H18 C16 1_555 1_555
C17 C13 1_555 1_555
H19 C17 1_555 1_555
C18 C13 1_555 1_555
H20 C18 1_555 1_555
H21 C18 1_555 1_555
H22 C18 1_555 1_555
C19 C10 1_555 1_555
H23 C19 1_555 1_555
H24 C19 1_555 1_555
H25 C19 1_555 1_555
C20 C17 1_555 1_555
C21 C20 1_555 1_555
H26 C21 1_555 1_555
C22 C20 1_555 1_555
H27 C22 1_555 1_555
C23 C22 1_555 1_555
H28 C23 1_555 1_555
C24 O4 1_555 1_555
C5 C10 1_555 1_555
C9 C10 1_555 1_555
C13 C14 1_555 1_555
C14 C15 1_555 1_555
C15 C16 1_555 1_555
C16 C17 1_555 1_555
C23 C24 1_555 1_555

#END
