
#######################################################################
#
#                 Cambridge Crystallographic Data Centre
#                                CCDC 
#
#######################################################################
#
# If this CIF has been generated from an entry in the Cambridge 
# Structural Database, then it will include bibliographic, chemical, 
# crystal, experimental, refinement or atomic coordinate data resulting 
# from the CCDC's data processing and validation procedures.
#
#######################################################################

data_WUHSUP
_chemical_formula_moiety         'C24 H16 O2'
_chemical_name_systematic        
7,15-dihydrochromeno[4',3':5,6]naphtho[2,1-c]chromene
_symmetry_cell_setting           monoclinic
_symmetry_space_group_name_H-M   'P 21/n'
_symmetry_Int_Tables_number      14
_space_group_name_Hall           '-P 2yn'
loop_
_symmetry_equiv_pos_site_id
_symmetry_equiv_pos_as_xyz
1 x,y,z
2 1/2-x,1/2+y,1/2-z
3 -x,-y,-z
4 1/2+x,1/2-y,1/2+z
_cell_length_a                   12.1614(16)
_cell_length_b                   8.1562(11)
_cell_length_c                   16.023(2)
_cell_angle_alpha                90
_cell_angle_beta                 97.417(2)
_cell_angle_gamma                90
_cell_volume                     1576.04
_exptl_crystal_colour            colorless
_exptl_crystal_description       block
_cell_formula_units_Z            4
loop_
_atom_site_label
_atom_site_type_symbol
_atom_site_fract_x
_atom_site_fract_y
_atom_site_fract_z
O1 O 0.20016(7) 0.07295(11) 0.60761(5)
O2 O 0.36785(8) 0.13921(11) 0.09469(5)
C1 C 0.24786(10) 0.22598(15) 0.60935(7)
C2 C 0.21953(10) 0.33945(16) 0.66728(7)
H1 H 0.1651 0.3132 0.7027
C3 C 0.27084(11) 0.49115(16) 0.67330(8)
H2 H 0.2501 0.5708 0.7117
C4 C 0.35267(11) 0.52665(16) 0.62314(8)
H3 H 0.3919 0.6275 0.6300
C5 C 0.37710(10) 0.41503(15) 0.56303(8)
H4 H 0.4326 0.4412 0.5285
C6 C 0.32195(10) 0.26472(15) 0.55200(7)
C7 C 0.33874(9) 0.14095(14) 0.48746(7)
C8 C 0.32247(10) -0.02014(15) 0.50919(7)
C9 C 0.27818(11) -0.05278(15) 0.59094(8)
H5 H 0.2411 -0.1610 0.5883
H6 H 0.3403 -0.0557 0.6373
C10 C 0.34298(10) -0.14870(15) 0.45498(8)
H7 H 0.3322 -0.2590 0.4712
C11 C 0.37827(10) -0.11635(15) 0.37907(8)
H8 H 0.3957 -0.2050 0.3446
C12 C 0.38946(9) 0.04733(15) 0.35062(7)
C13 C 0.36372(9) 0.17900(15) 0.40418(7)
C14 C 0.35112(10) 0.33965(15) 0.37027(8)
H9 H 0.3329 0.4275 0.4049
C15 C 0.36494(10) 0.36940(15) 0.28808(8)
H10 H 0.3518 0.4763 0.2654
C16 C 0.39831(10) 0.24353(15) 0.23709(7)
C17 C 0.41469(9) 0.08498(15) 0.26726(7)
C18 C 0.44760(10) -0.03830(15) 0.20726(7)
C19 C 0.50558(10) -0.18423(16) 0.22816(8)
H11 H 0.5329 -0.2056 0.2854
C20 C 0.52391(11) -0.29821(17) 0.16714(8)
H12 H 0.5635 -0.3963 0.1827
C21 C 0.48439(12) -0.26875(18) 0.08328(8)
H13 H 0.4934 -0.3493 0.0419
C22 C 0.43186(11) -0.12199(17) 0.05996(8)
H14 H 0.4062 -0.1004 0.0025
C23 C 0.41701(10) -0.00704(16) 0.12098(8)
C24 C 0.41164(11) 0.27447(16) 0.14636(8)
H15 H 0.3721 0.3764 0.1270
H16 H 0.4912 0.2892 0.1409
loop_
_geom_bond_atom_site_label_1
_geom_bond_atom_site_label_2
_geom_bond_site_symmetry_1
_geom_bond_site_symmetry_2
O1 C1 1_555 1_555
O2 C23 1_555 1_555
C1 C2 1_555 1_555
C2 H1 1_555 1_555
C3 C2 1_555 1_555
H2 C3 1_555 1_555
C4 C3 1_555 1_555
H3 C4 1_555 1_555
C5 C4 1_555 1_555
H4 C5 1_555 1_555
C6 C1 1_555 1_555
C7 C6 1_555 1_555
C8 C7 1_555 1_555
C9 O1 1_555 1_555
H5 C9 1_555 1_555
H6 C9 1_555 1_555
C10 C8 1_555 1_555
H7 C10 1_555 1_555
C11 C10 1_555 1_555
H8 C11 1_555 1_555
C12 C11 1_555 1_555
C13 C7 1_555 1_555
C14 C13 1_555 1_555
H9 C14 1_555 1_555
C15 C14 1_555 1_555
H10 C15 1_555 1_555
C16 C15 1_555 1_555
C17 C12 1_555 1_555
C18 C17 1_555 1_555
C19 C18 1_555 1_555
H11 C19 1_555 1_555
C20 C19 1_555 1_555
H12 C20 1_555 1_555
C21 C20 1_555 1_555
H13 C21 1_555 1_555
C22 C21 1_555 1_555
H14 C22 1_555 1_555
C23 C18 1_555 1_555
C24 O2 1_555 1_555
H15 C24 1_555 1_555
H16 C24 1_555 1_555
C5 C6 1_555 1_555
C8 C9 1_555 1_555
C12 C13 1_555 1_555
C16 C17 1_555 1_555
C16 C24 1_555 1_555
C22 C23 1_555 1_555

#END
