
#######################################################################
#
#                 Cambridge Crystallographic Data Centre
#                                CCDC 
#
#######################################################################
#
# If this CIF has been generated from an entry in the Cambridge 
# Structural Database, then it will include bibliographic, chemical, 
# crystal, experimental, refinement or atomic coordinate data resulting 
# from the CCDC's data processing and validation procedures.
#
#######################################################################

data_WUHTAW
_chemical_formula_moiety         'C48 H64 O4'
_chemical_name_systematic        
3,11-bis(dodecyloxy)-7,15-dihydrochromeno[4',3':5,6]naphtho[2,1-c]chromene
_symmetry_cell_setting           monoclinic
_symmetry_space_group_name_H-M   'P 21/n'
_symmetry_Int_Tables_number      14
_space_group_name_Hall           '-P 2yn'
loop_
_symmetry_equiv_pos_site_id
_symmetry_equiv_pos_as_xyz
1 x,y,z
2 1/2-x,1/2+y,1/2-z
3 -x,-y,-z
4 1/2+x,1/2-y,1/2+z
_cell_length_a                   21.2240(7)
_cell_length_b                   11.4366(5)
_cell_length_c                   34.4862(10)
_cell_angle_alpha                90
_cell_angle_beta                 89.876(3)
_cell_angle_gamma                90
_cell_volume                     8370.83
_exptl_crystal_colour            colorless
_exptl_crystal_description       needle
_cell_formula_units_Z            8
loop_
_atom_site_label
_atom_site_type_symbol
_atom_site_fract_x
_atom_site_fract_y
_atom_site_fract_z
C1 C 0.5196(3) 0.8038(5) 0.17977(16)
H1 H 0.5481 0.8505 0.1657
C2 C 0.5266(3) 0.6847(4) 0.17991(15)
H2 H 0.5610 0.6509 0.1668
C3 C 0.4832(2) 0.6121(4) 0.19921(14)
C4 C 0.4870(3) 0.4855(4) 0.19898(15)
C5 C 0.5448(3) 0.4184(4) 0.18725(14)
C6 C 0.6067(3) 0.4615(5) 0.18894(16)
H3 H 0.6141 0.5376 0.1981
C7 C 0.6569(3) 0.3923(6) 0.17712(18)
C8 C 0.6480(3) 0.2798(6) 0.16320(19)
H4 H 0.6822 0.2348 0.1544
C9 C 0.5863(3) 0.2347(6) 0.16257(17)
H5 H 0.5792 0.1578 0.1540
C10 C 0.5360(3) 0.3034(5) 0.17455(15)
O1 O 0.4767(2) 0.2551(3) 0.17346(10)
C11 C 0.4403(3) 0.2888(4) 0.20606(16)
H6 H 0.4594 0.2571 0.2297
H7 H 0.3978 0.2560 0.2038
C12 C 0.4361(3) 0.4193(4) 0.20919(14)
C13 C 0.3812(3) 0.4711(4) 0.22370(16)
H8 H 0.3459 0.4244 0.2294
C14 C 0.3784(3) 0.5911(4) 0.22975(15)
H9 H 0.3429 0.6244 0.2417
C15 C 0.4293(3) 0.6636(4) 0.21790(14)
C16 C 0.4272(3) 0.7889(4) 0.22133(15)
C17 C 0.3817(3) 0.8550(4) 0.24557(14)
C18 C 0.3535(3) 0.8117(5) 0.27942(15)
H10 H 0.3622 0.7349 0.2875
C19 C 0.3127(3) 0.8809(5) 0.30108(16)
C20 C 0.2991(3) 0.9933(5) 0.28979(17)
H11 H 0.2711 1.0394 0.3044
C21 C 0.3269(3) 1.0377(5) 0.25688(17)
H12 H 0.3175 1.1142 0.2487
C22 C 0.3685(3) 0.9698(5) 0.23569(16)
O2 O 0.39710(18) 1.0204(3) 0.20358(10)
C23 C 0.4625(3) 0.9876(4) 0.20107(17)
H13 H 0.4854 1.0201 0.2232
H14 H 0.4809 1.0201 0.1773
C24 C 0.4694(3) 0.8573(4) 0.20079(14)
O3 O 0.7153(2) 0.4435(5) 0.17989(16)
C25 C 0.7614(10) 0.390(2) 0.1537(6)
H15 H 0.7420 0.3652 0.1292
H16 H 0.7824 0.3226 0.1657
C26 C 0.8059(10) 0.4905(18) 0.1479(5)
H17 H 0.7836 0.5620 0.1554
H18 H 0.8409 0.4805 0.1661
C27 C 0.8326(9) 0.5095(16) 0.1099(5)
H19 H 0.8017 0.4870 0.0901
H20 H 0.8698 0.4596 0.1067
C28 C 0.8514(8) 0.6365(17) 0.1037(7)
H21 H 0.8228 0.6715 0.0847
H22 H 0.8461 0.6789 0.1282
C29 C 0.9161(7) 0.6520(13) 0.0902(5)
H23 H 0.9220 0.6057 0.0665
H24 H 0.9447 0.6207 0.1099
C30 C 0.9346(8) 0.7759(15) 0.0818(7)
H25 H 0.9096 0.8038 0.0598
H26 H 0.9235 0.8240 0.1043
C31 C 1.0008(8) 0.7939(14) 0.0730(7)
H27 H 1.0131 0.7368 0.0532
H28 H 1.0250 0.7761 0.0964
C32 C 1.0201(7) 0.9107(15) 0.0593(6)
H29 H 1.0047 0.9692 0.0778
H30 H 0.9996 0.9258 0.0344
C33 C 1.0890(7) 0.9268(13) 0.0543(6)
H31 H 1.1054 0.8658 0.0371
H32 H 1.1098 0.9181 0.0795
C34 C 1.1050(9) 1.0466(15) 0.0375(6)
H33 H 1.0847 1.0546 0.0121
H34 H 1.0878 1.1074 0.0545
C35 C 1.1739(8) 1.0656(17) 0.0329(8)
H35 H 1.1918 1.0027 0.0170
H36 H 1.1941 1.0629 0.0584
C36 C 1.1880(14) 1.185(2) 0.0134(10)
H37 H 1.2331 1.1951 0.0108
H38 H 1.1686 1.1874 -0.0120
H39 H 1.1709 1.2475 0.0293
O4 O 0.2884(2) 0.8251(4) 0.33330(12)
C37 C 0.2557(3) 0.8968(6) 0.36112(17)
H40 H 0.2201 0.9366 0.3487
H41 H 0.2842 0.9562 0.3716
C38 C 0.2326(3) 0.8188(6) 0.39291(17)
H42 H 0.2181 0.8676 0.4145
H43 H 0.2679 0.7714 0.4022
C39 C 0.1793(3) 0.7377(6) 0.38101(17)
H44 H 0.1456 0.7851 0.3696
H45 H 0.1950 0.6854 0.3607
C40 C 0.1514(3) 0.6645(6) 0.41244(17)
H46 H 0.1400 0.7156 0.4342
H47 H 0.1835 0.6099 0.4217
C41 C 0.0934(3) 0.5950(6) 0.40058(17)
H48 H 0.0615 0.6501 0.3912
H49 H 0.1050 0.5447 0.3787
C42 C 0.0639(3) 0.5203(6) 0.43102(17)
H50 H 0.0516 0.5702 0.4528
H51 H 0.0956 0.4650 0.4405
C43 C 0.0069(3) 0.4521(6) 0.41795(17)
H52 H -0.0249 0.5078 0.4088
H53 H 0.0192 0.4036 0.3958
C44 C -0.0233(3) 0.3745(7) 0.44777(19)
H54 H 0.0083 0.3180 0.4567
H55 H -0.0350 0.4228 0.4701
C45 C -0.0799(3) 0.3088(7) 0.4350(2)
H56 H -0.0681 0.2607 0.4126
H57 H -0.1114 0.3654 0.4261
C46 C -0.1105(4) 0.2310(8) 0.4644(2)
H58 H -0.0789 0.1745 0.4732
H59 H -0.1220 0.2792 0.4868
C47 C -0.1673(4) 0.1647(8) 0.4523(3)
H60 H -0.1566 0.1186 0.4293
H61 H -0.1999 0.2209 0.4448
C48 C -0.1954(4) 0.0824(9) 0.4826(3)
H62 H -0.2321 0.0436 0.4719
H63 H -0.1642 0.0243 0.4899
H64 H -0.2076 0.1269 0.5054
C61 C 0.6207(3) 0.3025(5) 0.27690(16)
H90 H 0.6558 0.3489 0.2706
C62 C 0.6231(3) 0.1838(4) 0.27212(15)
H91 H 0.6589 0.1499 0.2606
C63 C 0.5731(3) 0.1116(4) 0.28403(14)
C64 C 0.5751(3) -0.0146(4) 0.28060(14)
C65 C 0.6202(2) -0.0802(4) 0.25588(14)
C66 C 0.6478(3) -0.0365(5) 0.22208(14)
H92 H 0.6390 0.0405 0.2143
C67 C 0.6883(3) -0.1057(5) 0.19962(16)
C68 C 0.7023(3) -0.2188(5) 0.21105(17)
H93 H 0.7303 -0.2647 0.1963
C69 C 0.6749(3) -0.2639(5) 0.24438(17)
H94 H 0.6840 -0.3407 0.2523
C70 C 0.6339(3) -0.1953(4) 0.26600(15)
O5 O 0.60551(18) -0.2452(3) 0.29821(10)
C71 C 0.5405(3) -0.2124(4) 0.30045(16)
H95 H 0.5217 -0.2458 0.3239
H96 H 0.5179 -0.2441 0.2780
C72 C 0.5332(2) -0.0824(4) 0.30122(14)
C73 C 0.4847(3) -0.0309(4) 0.32260(14)
H97 H 0.4579 -0.0782 0.3376
C74 C 0.4755(3) 0.0893(4) 0.32193(15)
H98 H 0.4402 0.1218 0.3344
C75 C 0.5189(3) 0.1629(4) 0.30269(14)
C76 C 0.5143(3) 0.2879(4) 0.30276(14)
C77 C 0.4571(3) 0.3547(5) 0.31479(14)
C78 C 0.3954(3) 0.3131(5) 0.31340(16)
H99 H 0.3882 0.2371 0.3041
C79 C 0.3442(3) 0.3802(6) 0.32537(19)
C80 C 0.3552(4) 0.4954(6) 0.3385(2)
H100 H 0.3214 0.5422 0.3470
C81 C 0.4153(3) 0.5380(5) 0.33887(17)
H101 H 0.4227 0.6147 0.3475
C82 C 0.4656(3) 0.4700(5) 0.32668(15)
O6 O 0.5246(2) 0.5204(3) 0.32787(10)
C83 C 0.5620(3) 0.4863(4) 0.29522(17)
H102 H 0.6048 0.5173 0.2982
H103 H 0.5440 0.5198 0.2716
C84 C 0.5649(3) 0.3550(4) 0.29141(14)
O7 O 0.71212(19) -0.0516(4) 0.16700(11)
C85 C 0.7461(3) -0.1219(6) 0.13968(17)
H104 H 0.7186 -0.1833 0.1293
H105 H 0.7821 -0.1591 0.1523
C86 C 0.7684(3) -0.0436(6) 0.10734(17)
H106 H 0.7830 -0.0925 0.0858
H107 H 0.7327 0.0028 0.0980
C87 C 0.8202(3) 0.0369(6) 0.11871(16)
H108 H 0.8536 -0.0092 0.1309
H109 H 0.8039 0.0913 0.1383
C88 C 0.8486(3) 0.1069(6) 0.08625(16)
H110 H 0.8604 0.0533 0.0653
H111 H 0.8165 0.1601 0.0761
C89 C 0.9053(3) 0.1770(6) 0.09727(17)
H112 H 0.9368 0.1230 0.1077
H113 H 0.8930 0.2297 0.1184
C90 C 0.9368(3) 0.2492(6) 0.06635(16)
H114 H 0.9493 0.1972 0.0451
H115 H 0.9058 0.3044 0.0560
C91 C 0.9932(3) 0.3165(6) 0.07894(17)
H116 H 1.0238 0.2606 0.0895
H117 H 0.9804 0.3677 0.1003
C92 C 1.0269(3) 0.3908(6) 0.04924(18)
H118 H 1.0392 0.3401 0.0276
H119 H 0.9968 0.4481 0.0391
C93 C 1.0824(3) 0.4534(6) 0.06213(19)
H120 H 1.1128 0.3957 0.0717
H121 H 1.0702 0.5022 0.0843
C94 C 1.1160(3) 0.5304(7) 0.0332(2)
H122 H 1.1293 0.4810 0.0115
H123 H 1.0853 0.5864 0.0230
C95 C 1.1711(4) 0.5966(8) 0.0463(2)
H124 H 1.2031 0.5410 0.0552
H125 H 1.1586 0.6440 0.0687
C96 C 1.2005(4) 0.6757(8) 0.0166(3)
H126 H 1.2364 0.7155 0.0279
H127 H 1.2143 0.6297 -0.0055
H128 H 1.1697 0.7330 0.0081
O8 O 0.2866(2) 0.3250(4) 0.32283(17)
C97 C 0.2359(4) 0.3822(9) 0.3417(4)
H129 H 0.2526 0.4263 0.3637
H130 H 0.2175 0.4387 0.3236
C98 C 0.1917(7) 0.3146(15) 0.3541(6)
H131 H 0.1770 0.2704 0.3315
H132 H 0.1569 0.3658 0.3618
C99 C 0.1992(7) 0.2318(14) 0.3846(5)
H133 H 0.2261 0.1678 0.3755
H134 H 0.2204 0.2696 0.4064
C100 C 0.1434(8) 0.1868(13) 0.3971(6)
H135 H 0.1402 0.2237 0.4226
H136 H 0.1140 0.2311 0.3809
C101 C 0.1107(6) 0.0915(10) 0.4030(3)
H137 H 0.1442 0.0389 0.4118
H138 H 0.1029 0.0676 0.3762
C102 C 0.0603(7) 0.0415(13) 0.4208(5)
H139 H 0.0721 0.0511 0.4481
H140 H 0.0281 0.1017 0.4165
C103 C 0.0256(6) -0.0501(11) 0.4230(4)
H141 H 0.0584 -0.1098 0.4260
H142 H 0.0129 -0.0568 0.3958
C104 C -0.0250(6) -0.1081(12) 0.4407(4)
H143 H -0.0084 -0.1115 0.4672
H144 H -0.0550 -0.0429 0.4415
C105 C -0.0649(8) -0.1935(14) 0.4430(4)
H145 H -0.0376 -0.2565 0.4335
H146 H -0.0910 -0.1738 0.4205
C106 C -0.1085(5) -0.2616(11) 0.4632(3)
H147 H -0.0818 -0.2964 0.4833
H148 H -0.1328 -0.2014 0.4769
C107 C -0.1513(9) -0.3435(16) 0.4587(5)
H149 H -0.1307 -0.4013 0.4419
H150 H -0.1836 -0.3065 0.4425
C108 C -0.1854(4) -0.4103(10) 0.4850(3)
H151 H -0.2132 -0.4628 0.4711
H152 H -0.1566 -0.4554 0.5009
H153 H -0.2103 -0.3592 0.5015
C49? C 0.7720(14) 0.408(2) 0.1649(6)
H65? H 0.7792 0.3255 0.1713
H66? H 0.8062 0.4540 0.1763
C50? C 0.7721(9) 0.4241(16) 0.1198(5)
H67? H 0.8015 0.3692 0.1076
H68? H 0.7299 0.4103 0.1093
C51? C 0.7922(7) 0.5474(15) 0.1123(6)
H69? H 0.7872 0.5931 0.1362
H70? H 0.7649 0.5818 0.0925
C52? C 0.8610(10) 0.5550(16) 0.0987(12)
H71? H 0.8873 0.5052 0.1152
H72? H 0.8642 0.5259 0.0720
C53? C 0.8848(7) 0.6777(14) 0.1003(5)
H73? H 0.8947 0.6965 0.1273
H74? H 0.8507 0.7300 0.0921
C54? C 0.9422(10) 0.7035(18) 0.0758(8)
H75? H 0.9743 0.6446 0.0816
H76? H 0.9306 0.6940 0.0485
C55? C 0.9709(9) 0.8205(15) 0.0805(5)
H77? H 0.9807 0.8313 0.1081
H78? H 0.9392 0.8792 0.0736
C56? C 1.0293(9) 0.8452(16) 0.0577(7)
H79? H 1.0622 0.7908 0.0661
H80? H 1.0206 0.8287 0.0303
C57? C 1.0546(12) 0.9663(17) 0.0606(7)
H81? H 1.0662 0.9804 0.0877
H82? H 1.0205 1.0208 0.0542
C58? C 1.1101(9) 0.9957(17) 0.0358(7)
H83? H 1.0980 0.9863 0.0086
H84? H 1.1437 0.9392 0.0411
C59? C 1.1362(16) 1.117(2) 0.0412(10)
H85? H 1.1533 1.1247 0.0675
H86? H 1.1021 1.1744 0.0384
C60? C 1.1885(13) 1.144(3) 0.0114(8)
H87? H 1.2043 1.2227 0.0156
H88? H 1.2226 1.0885 0.0145
H89? H 1.1715 1.1381 -0.0146
loop_
_geom_bond_atom_site_label_1
_geom_bond_atom_site_label_2
_geom_bond_site_symmetry_1
_geom_bond_site_symmetry_2
C1 H1 1_555 1_555
C2 C1 1_555 1_555
H2 C2 1_555 1_555
C3 C2 1_555 1_555
C4 C3 1_555 1_555
C5 C4 1_555 1_555
C6 C5 1_555 1_555
H3 C6 1_555 1_555
C7 C6 1_555 1_555
C8 C7 1_555 1_555
H4 C8 1_555 1_555
C9 C8 1_555 1_555
H5 C9 1_555 1_555
C10 C5 1_555 1_555
O1 C10 1_555 1_555
C11 O1 1_555 1_555
H6 C11 1_555 1_555
H7 C11 1_555 1_555
C12 C4 1_555 1_555
C13 C12 1_555 1_555
H8 C13 1_555 1_555
C14 C13 1_555 1_555
H9 C14 1_555 1_555
C15 C3 1_555 1_555
C16 C15 1_555 1_555
C17 C16 1_555 1_555
C18 C17 1_555 1_555
H10 C18 1_555 1_555
C19 C18 1_555 1_555
C20 C19 1_555 1_555
H11 C20 1_555 1_555
C21 C20 1_555 1_555
H12 C21 1_555 1_555
C22 C17 1_555 1_555
O2 C22 1_555 1_555
C23 O2 1_555 1_555
H13 C23 1_555 1_555
H14 C23 1_555 1_555
C24 C1 1_555 1_555
O3 C7 1_555 1_555
C25 O3 1_555 1_555
H15 C25 1_555 1_555
H16 C25 1_555 1_555
C26 C25 1_555 1_555
H17 C26 1_555 1_555
H18 C26 1_555 1_555
C27 C26 1_555 1_555
H19 C27 1_555 1_555
H20 C27 1_555 1_555
C28 C27 1_555 1_555
H21 C28 1_555 1_555
H22 C28 1_555 1_555
C29 C28 1_555 1_555
H23 C29 1_555 1_555
H24 C29 1_555 1_555
C30 C29 1_555 1_555
H25 C30 1_555 1_555
H26 C30 1_555 1_555
C31 C30 1_555 1_555
H27 C31 1_555 1_555
H28 C31 1_555 1_555
C32 C31 1_555 1_555
H29 C32 1_555 1_555
H30 C32 1_555 1_555
C33 C32 1_555 1_555
H31 C33 1_555 1_555
H32 C33 1_555 1_555
C34 C33 1_555 1_555
H33 C34 1_555 1_555
H34 C34 1_555 1_555
C35 C34 1_555 1_555
H35 C35 1_555 1_555
H36 C35 1_555 1_555
C36 C35 1_555 1_555
H37 C36 1_555 1_555
H38 C36 1_555 1_555
H39 C36 1_555 1_555
O4 C19 1_555 1_555
C37 O4 1_555 1_555
H40 C37 1_555 1_555
H41 C37 1_555 1_555
C38 C37 1_555 1_555
H42 C38 1_555 1_555
H43 C38 1_555 1_555
C39 C38 1_555 1_555
H44 C39 1_555 1_555
H45 C39 1_555 1_555
C40 C39 1_555 1_555
H46 C40 1_555 1_555
H47 C40 1_555 1_555
C41 C40 1_555 1_555
H48 C41 1_555 1_555
H49 C41 1_555 1_555
C42 C41 1_555 1_555
H50 C42 1_555 1_555
H51 C42 1_555 1_555
C43 C42 1_555 1_555
H52 C43 1_555 1_555
H53 C43 1_555 1_555
C44 C43 1_555 1_555
H54 C44 1_555 1_555
H55 C44 1_555 1_555
C45 C44 1_555 1_555
H56 C45 1_555 1_555
H57 C45 1_555 1_555
C46 C45 1_555 1_555
H58 C46 1_555 1_555
H59 C46 1_555 1_555
C47 C46 1_555 1_555
H60 C47 1_555 1_555
H61 C47 1_555 1_555
C48 C47 1_555 1_555
H62 C48 1_555 1_555
H63 C48 1_555 1_555
H64 C48 1_555 1_555
C61 H90 1_555 1_555
C62 C61 1_555 1_555
H91 C62 1_555 1_555
C63 C62 1_555 1_555
C64 C63 1_555 1_555
C65 C64 1_555 1_555
C66 C65 1_555 1_555
H92 C66 1_555 1_555
C67 C66 1_555 1_555
C68 C67 1_555 1_555
H93 C68 1_555 1_555
C69 C68 1_555 1_555
H94 C69 1_555 1_555
C70 C65 1_555 1_555
O5 C70 1_555 1_555
C71 O5 1_555 1_555
H95 C71 1_555 1_555
H96 C71 1_555 1_555
C72 C64 1_555 1_555
C73 C72 1_555 1_555
H97 C73 1_555 1_555
C74 C73 1_555 1_555
H98 C74 1_555 1_555
C75 C63 1_555 1_555
C76 C75 1_555 1_555
C77 C76 1_555 1_555
C78 C77 1_555 1_555
H99 C78 1_555 1_555
C79 C78 1_555 1_555
C80 C79 1_555 1_555
H100 C80 1_555 1_555
C81 C80 1_555 1_555
H101 C81 1_555 1_555
C82 C77 1_555 1_555
O6 C82 1_555 1_555
C83 O6 1_555 1_555
H102 C83 1_555 1_555
H103 C83 1_555 1_555
C84 C61 1_555 1_555
O7 C67 1_555 1_555
C85 O7 1_555 1_555
H104 C85 1_555 1_555
H105 C85 1_555 1_555
C86 C85 1_555 1_555
H106 C86 1_555 1_555
H107 C86 1_555 1_555
C87 C86 1_555 1_555
H108 C87 1_555 1_555
H109 C87 1_555 1_555
C88 C87 1_555 1_555
H110 C88 1_555 1_555
H111 C88 1_555 1_555
C89 C88 1_555 1_555
H112 C89 1_555 1_555
H113 C89 1_555 1_555
C90 C89 1_555 1_555
H114 C90 1_555 1_555
H115 C90 1_555 1_555
C91 C90 1_555 1_555
H116 C91 1_555 1_555
H117 C91 1_555 1_555
C92 C91 1_555 1_555
H118 C92 1_555 1_555
H119 C92 1_555 1_555
C93 C92 1_555 1_555
H120 C93 1_555 1_555
H121 C93 1_555 1_555
C94 C93 1_555 1_555
H122 C94 1_555 1_555
H123 C94 1_555 1_555
C95 C94 1_555 1_555
H124 C95 1_555 1_555
H125 C95 1_555 1_555
C96 C95 1_555 1_555
H126 C96 1_555 1_555
H127 C96 1_555 1_555
H128 C96 1_555 1_555
O8 C79 1_555 1_555
C97 O8 1_555 1_555
H129 C97 1_555 1_555
H130 C97 1_555 1_555
C98 C97 1_555 1_555
H131 C98 1_555 1_555
H132 C98 1_555 1_555
C99 C98 1_555 1_555
H133 C99 1_555 1_555
H134 C99 1_555 1_555
C100 C99 1_555 1_555
H135 C100 1_555 1_555
H136 C100 1_555 1_555
C101 C100 1_555 1_555
H137 C101 1_555 1_555
H138 C101 1_555 1_555
C102 C101 1_555 1_555
H139 C102 1_555 1_555
H140 C102 1_555 1_555
C103 C102 1_555 1_555
H141 C103 1_555 1_555
H142 C103 1_555 1_555
C104 C103 1_555 1_555
H143 C104 1_555 1_555
H144 C104 1_555 1_555
C105 C104 1_555 1_555
H145 C105 1_555 1_555
H146 C105 1_555 1_555
C106 C105 1_555 1_555
H147 C106 1_555 1_555
H148 C106 1_555 1_555
C107 C106 1_555 1_555
H149 C107 1_555 1_555
H150 C107 1_555 1_555
C108 C107 1_555 1_555
H151 C108 1_555 1_555
H152 C108 1_555 1_555
H153 C108 1_555 1_555
C9 C10 1_555 1_555
C11 C12 1_555 1_555
C14 C15 1_555 1_555
C16 C24 1_555 1_555
C21 C22 1_555 1_555
C23 C24 1_555 1_555
C69 C70 1_555 1_555
C71 C72 1_555 1_555
C74 C75 1_555 1_555
C76 C84 1_555 1_555
C81 C82 1_555 1_555
C83 C84 1_555 1_555

#END
