
#######################################################################
#
#                 Cambridge Crystallographic Data Centre
#                                CCDC 
#
#######################################################################
#
# If this CIF has been generated from an entry in the Cambridge 
# Structural Database, then it will include bibliographic, chemical, 
# crystal, experimental, refinement or atomic coordinate data resulting 
# from the CCDC's data processing and validation procedures.
#
#######################################################################

data_WUJBUA
_chemical_formula_moiety         'C26 H34 B2 O4'
_chemical_name_systematic        
2,2'-(1,2-diphenylethene-1,2-diyl)bis(4,4,5,5-tetramethyl-1,3,2-dioxaborolane)
_symmetry_cell_setting           monoclinic
_symmetry_space_group_name_H-M   'P 21/c'
_symmetry_Int_Tables_number      14
_space_group_name_Hall           '-P 2ybc'
loop_
_symmetry_equiv_pos_site_id
_symmetry_equiv_pos_as_xyz
1 x,y,z
2 -x,1/2+y,1/2-z
3 -x,-y,-z
4 x,1/2-y,1/2+z
_cell_length_a                   15.526(5)
_cell_length_b                   6.539(5)
_cell_length_c                   25.120(5)
_cell_angle_alpha                90
_cell_angle_beta                 90.019(10)
_cell_angle_gamma                90
_cell_volume                     2550.3
_exptl_crystal_colour            colorless
_exptl_crystal_description       block
_cell_formula_units_Z            4
loop_
_atom_site_label
_atom_site_type_symbol
_atom_site_fract_x
_atom_site_fract_y
_atom_site_fract_z
B1 B 0.3184(4) 0.3063(10) 0.3590(2)
B2 B 0.1823(3) 0.4520(9) 0.4343(2)
C1 C 0.2460(3) 0.5029(8) 0.28287(18)
C2 C 0.2410(3) 0.7037(8) 0.26617(18)
H1 H 0.2339 0.8074 0.2911
C3 C 0.2464(4) 0.7524(10) 0.2126(2)
H2 H 0.2426 0.8882 0.2018
C4 C 0.2572(4) 0.6029(10) 0.1759(2)
H3 H 0.2601 0.6357 0.1399
C5 C 0.2637(4) 0.4050(11) 0.1917(2)
H4 H 0.2716 0.3027 0.1665
C6 C 0.2586(4) 0.3549(9) 0.2446(2)
H5 H 0.2638 0.2188 0.2548
C7 C 0.2418(3) 0.4469(7) 0.34107(17)
C8 C 0.1813(3) 0.5177(7) 0.37499(18)
C9 C 0.1107(3) 0.6581(8) 0.35782(17)
C10 C 0.1050(4) 0.8543(9) 0.3768(2)
H6 H 0.1453 0.8976 0.4017
C11 C 0.0423(4) 0.9910(11) 0.3606(3)
H7 H 0.0410 1.1241 0.3736
C12 C -0.0189(4) 0.9225(13) 0.3243(3)
H8 H -0.0616 1.0114 0.3124
C13 C -0.0169(4) 0.7239(13) 0.3057(3)
H9 H -0.0594 0.6784 0.2825
C14 C 0.0483(3) 0.5916(10) 0.3215(2)
H10 H 0.0504 0.4593 0.3081
C15 C 0.4586(4) 0.2344(10) 0.3757(4)
C16 C 0.5136(6) 0.3083(16) 0.3304(6)
H11 H 0.4801 0.3093 0.2982
H12 H 0.5620 0.2185 0.3261
H13 H 0.5336 0.4441 0.3379
C17 C 0.5073(7) 0.2295(16) 0.4302(6)
H14 H 0.5362 0.3575 0.4357
H15 H 0.5487 0.1206 0.4300
H16 H 0.4666 0.2074 0.4585
C18 C 0.4102(4) 0.0336(10) 0.3652(3)
C19 C 0.4522(6) -0.1016(15) 0.3238(4)
H17 H 0.4188 -0.2241 0.3194
H18 H 0.5094 -0.1366 0.3351
H19 H 0.4550 -0.0298 0.2905
C20 C 0.3874(6) -0.0898(12) 0.4151(3)
H20 H 0.3607 -0.0016 0.4408
H21 H 0.4390 -0.1474 0.4300
H22 H 0.3484 -0.1978 0.4057
C21 C 0.2184(7) 0.2945(14) 0.5107(3)
C22 C 0.2929(6) 0.4773(17) 0.5337(3)
H23 H 0.2903 0.4848 0.5718
H24 H 0.2792 0.6086 0.5188
H25 H 0.3500 0.4382 0.5230
C23 C 0.2417(6) 0.0917(12) 0.5315(3)
H26 H 0.2020 -0.0084 0.5180
H27 H 0.2392 0.0935 0.5696
H28 H 0.2990 0.0576 0.5202
C24 C 0.1474(7) 0.4062(17) 0.5209(2)
C25 C 0.1261(5) 0.5274(12) 0.5687(2)
H29 H 0.1670 0.6363 0.5726
H30 H 0.1280 0.4410 0.5995
H31 H 0.0693 0.5838 0.5650
C26 C 0.0727(5) 0.2099(14) 0.5147(3)
H32 H 0.0864 0.1289 0.4840
H33 H 0.0161 0.2669 0.5107
H34 H 0.0745 0.1254 0.5459
O1 O 0.3285(3) 0.1081(6) 0.34467(17)
O2 O 0.3897(2) 0.3817(6) 0.3826(2)
O3 O 0.2284(3) 0.2922(7) 0.45243(14)
O4 O 0.1359(4) 0.5368(8) 0.47337(16)
loop_
_geom_bond_atom_site_label_1
_geom_bond_atom_site_label_2
_geom_bond_site_symmetry_1
_geom_bond_site_symmetry_2
B1 C7 1_555 1_555
B2 C8 1_555 1_555
C1 C2 1_555 1_555
C2 H1 1_555 1_555
C3 C2 1_555 1_555
H2 C3 1_555 1_555
C4 C3 1_555 1_555
H3 C4 1_555 1_555
C5 C4 1_555 1_555
H4 C5 1_555 1_555
C6 C1 1_555 1_555
H5 C6 1_555 1_555
C7 C1 1_555 1_555
C8 C7 1_555 1_555
C9 C8 1_555 1_555
C10 C9 1_555 1_555
H6 C10 1_555 1_555
C11 C10 1_555 1_555
H7 C11 1_555 1_555
C12 C11 1_555 1_555
H8 C12 1_555 1_555
C13 C12 1_555 1_555
H9 C13 1_555 1_555
C14 C9 1_555 1_555
H10 C14 1_555 1_555
C15 C16 1_555 1_555
C16 H11 1_555 1_555
H12 C16 1_555 1_555
H13 C16 1_555 1_555
C17 C15 1_555 1_555
H14 C17 1_555 1_555
H15 C17 1_555 1_555
H16 C17 1_555 1_555
C18 C15 1_555 1_555
C19 C18 1_555 1_555
H17 C19 1_555 1_555
H18 C19 1_555 1_555
H19 C19 1_555 1_555
C20 C18 1_555 1_555
H20 C20 1_555 1_555
H21 C20 1_555 1_555
H22 C20 1_555 1_555
C21 C22 1_555 1_555
C22 H23 1_555 1_555
H24 C22 1_555 1_555
H25 C22 1_555 1_555
C23 C21 1_555 1_555
H26 C23 1_555 1_555
H27 C23 1_555 1_555
H28 C23 1_555 1_555
C24 C21 1_555 1_555
C25 C24 1_555 1_555
H29 C25 1_555 1_555
H30 C25 1_555 1_555
H31 C25 1_555 1_555
C26 C24 1_555 1_555
H32 C26 1_555 1_555
H33 C26 1_555 1_555
H34 C26 1_555 1_555
O1 B1 1_555 1_555
O2 B1 1_555 1_555
O3 B2 1_555 1_555
O4 B2 1_555 1_555
C5 C6 1_555 1_555
C13 C14 1_555 1_555
C15 O2 1_555 1_555
C18 O1 1_555 1_555
C21 O3 1_555 1_555
C24 O4 1_555 1_555

#END
