
#######################################################################
#
#                 Cambridge Crystallographic Data Centre
#                                CCDC 
#
#######################################################################
#
# If this CIF has been generated from an entry in the Cambridge 
# Structural Database, then it will include bibliographic, chemical, 
# crystal, experimental, refinement or atomic coordinate data resulting 
# from the CCDC's data processing and validation procedures.
#
#######################################################################

data_WUJBEK
_chemical_formula_moiety         'C18 H20 Cl1 F1 N2 O4'
_chemical_name_systematic        
'ethyl 6-amino-4-(4-chlorophenyl)-5-cyano-2-ethoxy-3-fluoro-2-methyl-3,4-dihydro-2H-pyran-3-carboxylate'
_symmetry_cell_setting           monoclinic
_symmetry_space_group_name_H-M   'P 21/n'
_symmetry_Int_Tables_number      14
_space_group_name_Hall           '-P 2yn'
loop_
_symmetry_equiv_pos_site_id
_symmetry_equiv_pos_as_xyz
1 x,y,z
2 1/2-x,1/2+y,1/2-z
3 -x,-y,-z
4 1/2+x,1/2-y,1/2+z
_cell_length_a                   11.8679(6)
_cell_length_b                   9.2908(5)
_cell_length_c                   18.1041(10)
_cell_angle_alpha                90
_cell_angle_beta                 106.986(2)
_cell_angle_gamma                90
_cell_volume                     1909.12
_exptl_crystal_colour            colorless
_exptl_crystal_description       block
_cell_formula_units_Z            4
loop_
_atom_site_label
_atom_site_type_symbol
_atom_site_fract_x
_atom_site_fract_y
_atom_site_fract_z
Cl1 Cl 0.21868(11) 0.06743(12) 0.07728(7)
F1 F 0.17955(13) -0.36850(16) -0.20258(9)
O1 O -0.04464(19) -0.3267(3) -0.24428(14)
O2 O -0.07320(18) -0.4937(3) -0.16314(15)
O3 O 0.08157(16) -0.72202(19) -0.19180(11)
N1 N 0.4297(2) -0.6924(3) -0.13480(16)
H1 H 0.4437 -0.7253 -0.1757
H2 H 0.4830 -0.6976 -0.0909
O4 O 0.25362(16) -0.6348(2) -0.21289(11)
N2 N 0.4273(3) -0.6075(3) 0.05750(18)
C1 C 0.2864(3) -0.2732(3) -0.03554(17)
H3 H 0.3477 -0.3043 -0.0540
C2 C 0.2968(3) -0.1431(3) 0.0027(2)
H4 H 0.3640 -0.0870 0.0097
C3 C 0.2078(4) -0.0982(4) 0.0301(2)
C4 C 0.1081(3) -0.1793(4) 0.0204(2)
H5 H 0.0476 -0.1472 0.0393
C5 C 0.0987(3) -0.3102(3) -0.01801(19)
H6 H 0.0316 -0.3663 -0.0242
C6 C 0.1870(2) -0.3586(3) -0.04724(15)
C7 C 0.1746(2) -0.4994(3) -0.09117(15)
H7 H 0.1228 -0.5624 -0.0723
C8 C 0.1175(2) -0.4762(3) -0.17794(16)
C9 C 0.1290(2) -0.6116(3) -0.22452(16)
C10 C 0.3247(2) -0.6328(3) -0.13950(17)
C11 C 0.2906(2) -0.5777(3) -0.08035(16)
C12 C 0.3666(3) -0.5947(3) -0.00434(19)
C13 C 0.0773(3) -0.5952(3) -0.31071(17)
H8 H 0.0878 -0.6831 -0.3358
H9 H 0.1164 -0.5180 -0.3286
H10 H -0.0053 -0.5740 -0.3226
C14 C 0.0826(3) -0.8636(3) -0.2241(2)
H11 H 0.1576 -0.8807 -0.2339
H12 H 0.0207 -0.8712 -0.2727
C15 C 0.0642(4) -0.9692(4) -0.1698(2)
H13 H 0.0649 -1.0640 -0.1907
H14 H -0.0104 -0.9521 -0.1607
H15 H 0.1260 -0.9614 -0.1220
C16 C -0.0096(3) -0.4218(3) -0.19901(19)
C17 C -0.1987(3) -0.4513(5) -0.1810(4)
H16 H -0.2090 -0.3862 -0.1416
H17 H -0.2234 -0.4021 -0.2303
C18 C -0.2650(4) -0.5713(6) -0.1835(4)
H18 H -0.3465 -0.5448 -0.1951
H19 H -0.2407 -0.6189 -0.1343
H20 H -0.2548 -0.6351 -0.2227
loop_
_geom_bond_atom_site_label_1
_geom_bond_atom_site_label_2
_geom_bond_site_symmetry_1
_geom_bond_site_symmetry_2
Cl1 C3 1_555 1_555
F1 C8 1_555 1_555
O1 C16 1_555 1_555
O2 C16 1_555 1_555
O3 C9 1_555 1_555
N1 H1 1_555 1_555
H2 N1 1_555 1_555
O4 C9 1_555 1_555
N2 C12 1_555 1_555
C1 H3 1_555 1_555
C2 C1 1_555 1_555
H4 C2 1_555 1_555
C3 C2 1_555 1_555
C4 C3 1_555 1_555
H5 C4 1_555 1_555
C5 C4 1_555 1_555
H6 C5 1_555 1_555
C6 C1 1_555 1_555
C7 C6 1_555 1_555
H7 C7 1_555 1_555
C8 C7 1_555 1_555
C9 C8 1_555 1_555
C10 N1 1_555 1_555
C11 C7 1_555 1_555
C12 C11 1_555 1_555
C13 C9 1_555 1_555
H8 C13 1_555 1_555
H9 C13 1_555 1_555
H10 C13 1_555 1_555
C14 O3 1_555 1_555
H11 C14 1_555 1_555
H12 C14 1_555 1_555
C15 C14 1_555 1_555
H13 C15 1_555 1_555
H14 C15 1_555 1_555
H15 C15 1_555 1_555
C16 C8 1_555 1_555
C17 O2 1_555 1_555
H16 C17 1_555 1_555
H17 C17 1_555 1_555
C18 C17 1_555 1_555
H18 C18 1_555 1_555
H19 C18 1_555 1_555
H20 C18 1_555 1_555
O4 C10 1_555 1_555
C5 C6 1_555 1_555
C10 C11 1_555 1_555

#END
