
#######################################################################
#
#                 Cambridge Crystallographic Data Centre
#                                CCDC 
#
#######################################################################
#
# If this CIF has been generated from an entry in the Cambridge 
# Structural Database, then it will include bibliographic, chemical, 
# crystal, experimental, refinement or atomic coordinate data resulting 
# from the CCDC's data processing and validation procedures.
#
#######################################################################

data_WUJFUE
_chemical_formula_moiety         'C18 H18 Br1 N1 O2'
_chemical_name_systematic        
5-(bromomethyl)-N-methoxy-3,3-diphenyldihydrofuran-2(3H)-imine
_symmetry_cell_setting           triclinic
_symmetry_space_group_name_H-M   'P -1'
_symmetry_Int_Tables_number      2
_space_group_name_Hall           '-P 1'
loop_
_symmetry_equiv_pos_site_id
_symmetry_equiv_pos_as_xyz
1 x,y,z
2 -x,-y,-z
_cell_length_a                   8.2950(4)
_cell_length_b                   10.0959(4)
_cell_length_c                   11.1296(5)
_cell_angle_alpha                114.134(4)
_cell_angle_beta                 108.692(4)
_cell_angle_gamma                90.710(4)
_cell_volume                     794.553
_chemical_melting_point          '122-123 deg.C'
_cell_formula_units_Z            2
loop_
_atom_site_label
_atom_site_type_symbol
_atom_site_fract_x
_atom_site_fract_y
_atom_site_fract_z
Br1 Br 1.14795(7) -0.13256(5) 0.09050(5)
O1 O 0.8890(4) -0.0203(3) 0.2788(3)
O2 O 0.6893(4) -0.1536(3) 0.3402(3)
N1 N 0.6885(4) 0.0018(3) 0.3881(4)
C1 C 1.1687(6) 0.0292(6) 0.2689(5)
H1 H 1.2066 -0.0029 0.3431
H2 H 1.2552 0.1094 0.2909
C2 C 1.0004(6) 0.0825(5) 0.2638(6)
H3 H 0.9445 0.0891 0.1749
C3 C 1.0130(6) 0.2286(5) 0.3894(5)
H4 H 1.0442 0.3123 0.3748
H5 H 1.0960 0.2346 0.4766
C4 C 0.8274(5) 0.2196(4) 0.3897(4)
C5 C 0.7937(5) 0.0569(4) 0.3537(4)
C6 C 0.8184(5) 0.3221(4) 0.5331(4)
C7 C 0.9223(5) 0.3080(5) 0.6528(5)
H6 H 0.9898 0.2341 0.6438
C8 C 0.9244(6) 0.4047(5) 0.7849(5)
H7 H 0.9950 0.3958 0.8643
C9 C 0.8227(6) 0.5144(5) 0.8004(5)
H8 H 0.8241 0.5784 0.8893
C10 C 0.7200(5) 0.5268(5) 0.6826(5)
H9 H 0.6517 0.6001 0.6917
C11 C 0.7173(5) 0.4309(4) 0.5497(4)
H10 H 0.6462 0.4402 0.4709
C12 C 0.7057(5) 0.2476(4) 0.2676(4)
C13 C 0.7516(6) 0.3654(5) 0.2438(5)
H11 H 0.8559 0.4282 0.3029
C14 C 0.6459(7) 0.3903(6) 0.1349(6)
H12 H 0.6797 0.4688 0.1200
C15 C 0.4884(7) 0.2989(6) 0.0466(5)
H13 H 0.4169 0.3154 -0.0277
C16 C 0.4396(7) 0.1846(5) 0.0699(5)
H14 H 0.3340 0.1234 0.0115
C17 C 0.5462(5) 0.1591(4) 0.1796(4)
H15 H 0.5107 0.0815 0.1949
C18 C 0.5420(6) -0.2164(5) 0.3492(6)
H16 H 0.4410 -0.2242 0.2726
H17 H 0.5294 -0.1549 0.4370
H18 H 0.5560 -0.3126 0.3443
loop_
_geom_bond_atom_site_label_1
_geom_bond_atom_site_label_2
_geom_bond_site_symmetry_1
_geom_bond_site_symmetry_2
Br1 C1 1_555 1_555
O1 C2 1_555 1_555
O2 N1 1_555 1_555
N1 C5 1_555 1_555
C1 H1 1_555 1_555
H2 C1 1_555 1_555
C2 C1 1_555 1_555
H3 C2 1_555 1_555
C3 C2 1_555 1_555
H4 C3 1_555 1_555
H5 C3 1_555 1_555
C4 C3 1_555 1_555
C5 O1 1_555 1_555
C6 C4 1_555 1_555
C7 C6 1_555 1_555
H6 C7 1_555 1_555
C8 C7 1_555 1_555
H7 C8 1_555 1_555
C9 C8 1_555 1_555
H8 C9 1_555 1_555
C10 C9 1_555 1_555
H9 C10 1_555 1_555
C11 C6 1_555 1_555
H10 C11 1_555 1_555
C12 C4 1_555 1_555
C13 C12 1_555 1_555
H11 C13 1_555 1_555
C14 C13 1_555 1_555
H12 C14 1_555 1_555
C15 C14 1_555 1_555
H13 C15 1_555 1_555
C16 C15 1_555 1_555
H14 C16 1_555 1_555
C17 C12 1_555 1_555
H15 C17 1_555 1_555
C18 O2 1_555 1_555
H16 C18 1_555 1_555
H17 C18 1_555 1_555
H18 C18 1_555 1_555
C4 C5 1_555 1_555
C10 C11 1_555 1_555
C16 C17 1_555 1_555

#END
