
#######################################################################
#
#                 Cambridge Crystallographic Data Centre
#                                CCDC 
#
#######################################################################
#
# If this CIF has been generated from an entry in the Cambridge 
# Structural Database, then it will include bibliographic, chemical, 
# crystal, experimental, refinement or atomic coordinate data resulting 
# from the CCDC's data processing and validation procedures.
#
#######################################################################

data_WUJSUQ
_chemical_compound_source        'Chinese herb Swertia mileensis'
_chemical_name_common            'Swerilactone B'
_chemical_formula_moiety         'C18 H20 O6'
_chemical_name_systematic        
(R*,S*,S*,S*,S*,R*,R*)-19-Hydroxy-8,16-dimethyl-3,11,17-trioxapentacyclo[13.3.1.0^1,6^.0^9,14^.0^9,18^]nonadeca-5,13-diene-4,10-dione
_chemical_properties_biological  
'no activity against the Hepatitis B virus (HBV)'
_symmetry_cell_setting           monoclinic
_symmetry_space_group_name_H-M   'P c'
_symmetry_Int_Tables_number      7
_space_group_name_Hall           'P -2yc'
loop_
_symmetry_equiv_pos_site_id
_symmetry_equiv_pos_as_xyz
1 x,y,z
2 x,-y,1/2+z
_cell_length_a                   7.4578(12)
_cell_length_b                   15.834(3)
_cell_length_c                   7.0431(12)
_cell_angle_alpha                90
_cell_angle_beta                 111.745(2)
_cell_angle_gamma                90
_cell_volume                     772.515
_exptl_crystal_colour            colorless
_exptl_crystal_description       block
_chemical_melting_point          '245-246 deg.C'
_cell_formula_units_Z            2
loop_
_atom_site_label
_atom_site_type_symbol
_atom_site_fract_x
_atom_site_fract_y
_atom_site_fract_z
O1 O 0.8779(4) 0.37995(17) 0.7667(4)
O2 O 1.0853(4) 0.40795(18) 0.6221(5)
O3 O 0.4066(4) -0.05450(16) 0.2392(5)
O4 O 0.3355(3) 0.08030(15) 0.2156(4)
O5 O 0.5252(3) 0.33468(15) 0.3809(4)
O6 O 0.6609(4) 0.17443(17) -0.0165(4)
H1 H 0.5901 0.1348 -0.0717
C1 C 0.9351(5) 0.3634(2) 0.6333(5)
C2 C 1.1461(6) 0.3981(3) 0.4474(7)
H2 H 1.1964 0.4515 0.4214
H3 H 1.2496 0.3569 0.4817
C3 C 0.9885(6) 0.3709(3) 0.2617(6)
H4 H 0.9878 0.3874 0.1347
C4 C 0.8472(5) 0.3233(2) 0.2723(5)
C5 C 0.8606(4) 0.2916(2) 0.4815(5)
C6 C 1.0005(5) 0.2150(2) 0.5653(5)
H6 H 1.1289 0.2327 0.5730
C7 C 0.9383(5) 0.1414(2) 0.4168(6)
H7 H 0.9572 0.1561 0.2918
H8 H 1.0184 0.0927 0.4762
C8 C 0.7319(4) 0.1191(2) 0.3675(5)
C9 C 0.6699(5) 0.0408(2) 0.3668(6)
H9 H 0.7599 -0.0014 0.4259
C10 C 0.4643(5) 0.0179(2) 0.2763(6)
C11 C 0.3975(4) 0.1614(2) 0.3126(6)
H10 H 0.4106 0.1577 0.4546
H11 H 0.2989 0.2032 0.2464
C12 C 0.5894(4) 0.1909(2) 0.3029(5)
C13 C 0.6567(4) 0.26581(19) 0.4566(5)
H12 H 0.6556 0.2479 0.5894
C14 C 0.5186(6) 0.3676(2) 0.1855(6)
H13 H 0.3862 0.3605 0.0872
C15 C 0.6499(5) 0.3143(2) 0.1106(5)
H14 H 0.6483 0.3357 -0.0206
C16 C 0.5708(5) 0.2249(2) 0.0864(5)
H15 H 0.4330 0.2276 0.0014
C17 C 0.5595(9) 0.4605(3) 0.2069(8)
H16 H 0.4616 0.4885 0.2415
H17 H 0.5599 0.4825 0.0801
H18 H 0.6833 0.4700 0.3129
C18 C 1.0180(6) 0.1881(3) 0.7775(7)
H19 H 0.8942 0.1698 0.7746
H20 H 1.0622 0.2349 0.8698
H21 H 1.1086 0.1424 0.8229
H5? H 0.8969 0.2710 0.2357
loop_
_geom_bond_atom_site_label_1
_geom_bond_atom_site_label_2
_geom_bond_site_symmetry_1
_geom_bond_site_symmetry_2
O1 C1 1_555 1_555
O2 C1 1_555 1_555
O3 C10 1_555 1_555
O4 C10 1_555 1_555
O5 C13 1_555 1_555
O6 H1 1_555 1_555
C1 C5 1_555 1_555
C2 O2 1_555 1_555
H2 C2 1_555 1_555
H3 C2 1_555 1_555
C3 C2 1_555 1_555
H4 C3 1_555 1_555
C4 C3 1_555 1_555
C5 C4 1_555 1_555
C6 C5 1_555 1_555
H6 C6 1_555 1_555
C7 C6 1_555 1_555
H7 C7 1_555 1_555
H8 C7 1_555 1_555
C8 C7 1_555 1_555
C9 C8 1_555 1_555
H9 C9 1_555 1_555
C10 C9 1_555 1_555
C11 O4 1_555 1_555
H10 C11 1_555 1_555
H11 C11 1_555 1_555
C12 C8 1_555 1_555
C13 C5 1_555 1_555
H12 C13 1_555 1_555
C14 O5 1_555 1_555
H13 C14 1_555 1_555
C15 C4 1_555 1_555
H14 C15 1_555 1_555
C16 O6 1_555 1_555
H15 C16 1_555 1_555
C17 C14 1_555 1_555
H16 C17 1_555 1_555
H17 C17 1_555 1_555
H18 C17 1_555 1_555
C18 C6 1_555 1_555
H19 C18 1_555 1_555
H20 C18 1_555 1_555
H21 C18 1_555 1_555
C11 C12 1_555 1_555
C12 C13 1_555 1_555
C12 C16 1_555 1_555
C14 C15 1_555 1_555
C15 C16 1_555 1_555

#END
