
#######################################################################
#
#                 Cambridge Crystallographic Data Centre
#                                CCDC 
#
#######################################################################
#
# If this CIF has been generated from an entry in the Cambridge 
# Structural Database, then it will include bibliographic, chemical, 
# crystal, experimental, refinement or atomic coordinate data resulting 
# from the CCDC's data processing and validation procedures.
#
#######################################################################

data_WUJTUS
_chemical_formula_moiety         'C24 H30 N4 O6'
_chemical_name_systematic        
'dimethyl 9-hydroxy-7-(2-hydroxyethyl)-3-methyl-2,4-bis(pyridin-2-yl)-3,7-diazabicyclo[3.3.1]nonane-1,5-dicarboxylate'
_symmetry_cell_setting           monoclinic
_symmetry_space_group_name_H-M   'P 21/c'
_symmetry_Int_Tables_number      14
_space_group_name_Hall           '-P 2ybc'
loop_
_symmetry_equiv_pos_site_id
_symmetry_equiv_pos_as_xyz
1 x,y,z
2 -x,1/2+y,1/2-z
3 -x,-y,-z
4 x,1/2-y,1/2+z
_cell_length_a                   8.730(5)
_cell_length_b                   19.546(12)
_cell_length_c                   13.625(9)
_cell_angle_alpha                90
_cell_angle_beta                 104.076(17)
_cell_angle_gamma                90
_cell_volume                     2255.12
_exptl_crystal_colour            colorless
_exptl_crystal_description       irregular
_cell_formula_units_Z            4
loop_
_atom_site_label
_atom_site_type_symbol
_atom_site_fract_x
_atom_site_fract_y
_atom_site_fract_z
O1 O 0.7271(3) 0.75839(10) 0.70713(19)
O2 O 0.5212(3) 0.71242(10) 0.59773(16)
O3 O 0.5151(3) 0.45093(11) 0.87471(17)
O4 O 0.3593(2) 0.48606(10) 0.72780(16)
O5 O 0.5033(2) 0.63506(10) 0.80342(16)
H1 H 0.4168 0.6189 0.8093
O6 O 1.2079(2) 0.59564(11) 0.82036(15)
H2 H 1.1306 0.5975 0.7697
N1 N 1.0103(3) 0.62812(11) 0.62597(18)
N2 N 0.5889(3) 0.36913(12) 0.66764(19)
N3 N 0.7773(3) 0.52498(11) 0.63565(17)
N4 N 0.8879(3) 0.57384(11) 0.83660(17)
C1 C 0.6957(3) 0.63541(13) 0.7045(2)
C2 C 0.7340(3) 0.59714(13) 0.6136(2)
H3 H 0.6350 0.5972 0.5581
C3 C 0.6574(3) 0.48882(13) 0.6746(2)
H4 H 0.5578 0.4885 0.6197
C4 C 0.6213(3) 0.52604(13) 0.7673(2)
C5 C 0.7607(3) 0.53330(14) 0.8588(2)
H5 H 0.7244 0.5552 0.9147
H6 H 0.8014 0.4873 0.8818
C6 C 0.8318(3) 0.64100(13) 0.7992(2)
H7 H 0.9196 0.6672 0.7829
H8 H 0.7957 0.6662 0.8525
C7 C 0.5574(3) 0.59724(14) 0.7299(2)
H9 H 0.4699 0.5923 0.6674
C8 C 0.6510(4) 0.70923(15) 0.6722(2)
C9 C 0.4848(4) 0.78261(17) 0.5616(3)
H10 H 0.3990 0.7819 0.4999
H11 H 0.5788 0.8034 0.5469
H12 H 0.4521 0.8094 0.6138
C10 C 0.4952(3) 0.48347(14) 0.7985(2)
C11 C 0.2339(4) 0.44406(19) 0.7472(3)
H13 H 0.1381 0.4507 0.6930
H14 H 0.2131 0.4571 0.8122
H15 H 0.2654 0.3958 0.7494
C12 C 0.8596(3) 0.63205(13) 0.5720(2)
C13 C 0.8176(4) 0.66413(14) 0.4788(2)
H16 H 0.7098 0.6668 0.4430
C14 C 0.9331(4) 0.69213(14) 0.4384(2)
H17 H 0.9067 0.7145 0.3746
C15 C 1.0878(4) 0.68702(14) 0.4923(2)
H18 H 1.1706 0.7051 0.4660
C16 C 1.1205(3) 0.65528(14) 0.5848(2)
H19 H 1.2276 0.6525 0.6218
C17 C 0.7045(3) 0.41493(14) 0.6992(2)
C18 C 0.8559(3) 0.39737(15) 0.7516(2)
H20 H 0.9342 0.4315 0.7735
C19 C 0.8909(4) 0.32855(16) 0.7715(2)
H21 H 0.9937 0.3147 0.8070
C20 C 0.7737(4) 0.28109(16) 0.7388(2)
H22 H 0.7944 0.2337 0.7506
C21 C 0.6252(4) 0.30335(15) 0.6885(2)
H23 H 0.5443 0.2702 0.6676
C22 C 0.7926(3) 0.49175(14) 0.5425(2)
H24 H 0.6916 0.4943 0.4918
H25 H 0.8220 0.4437 0.5564
H26 H 0.8744 0.5150 0.5168
C23 C 1.0212(3) 0.57650(16) 0.9246(2)
H27 H 1.0561 0.5292 0.9444
H28 H 0.9860 0.5973 0.9816
C24 C 1.1598(3) 0.61666(15) 0.9072(2)
H29 H 1.1311 0.6657 0.9004
H30 H 1.2497 0.6116 0.9671
loop_
_geom_bond_atom_site_label_1
_geom_bond_atom_site_label_2
_geom_bond_site_symmetry_1
_geom_bond_site_symmetry_2
O1 C8 1_555 1_555
O2 C8 1_555 1_555
O3 C10 1_555 1_555
O4 C10 1_555 1_555
O5 H1 1_555 1_555
O6 H2 1_555 1_555
N1 C12 1_555 1_555
N2 C17 1_555 1_555
N3 C2 1_555 1_555
N4 C5 1_555 1_555
C1 C2 1_555 1_555
C2 H3 1_555 1_555
C3 N3 1_555 1_555
H4 C3 1_555 1_555
C4 C3 1_555 1_555
C5 C4 1_555 1_555
H5 C5 1_555 1_555
H6 C5 1_555 1_555
C6 N4 1_555 1_555
H7 C6 1_555 1_555
H8 C6 1_555 1_555
C7 O5 1_555 1_555
H9 C7 1_555 1_555
C8 C1 1_555 1_555
C9 O2 1_555 1_555
H10 C9 1_555 1_555
H11 C9 1_555 1_555
H12 C9 1_555 1_555
C10 C4 1_555 1_555
C11 O4 1_555 1_555
H13 C11 1_555 1_555
H14 C11 1_555 1_555
H15 C11 1_555 1_555
C12 C2 1_555 1_555
C13 C12 1_555 1_555
H16 C13 1_555 1_555
C14 C13 1_555 1_555
H17 C14 1_555 1_555
C15 C14 1_555 1_555
H18 C15 1_555 1_555
C16 N1 1_555 1_555
H19 C16 1_555 1_555
C17 C3 1_555 1_555
C18 C17 1_555 1_555
H20 C18 1_555 1_555
C19 C18 1_555 1_555
H21 C19 1_555 1_555
C20 C19 1_555 1_555
H22 C20 1_555 1_555
C21 N2 1_555 1_555
H23 C21 1_555 1_555
C22 N3 1_555 1_555
H24 C22 1_555 1_555
H25 C22 1_555 1_555
H26 C22 1_555 1_555
C23 N4 1_555 1_555
H27 C23 1_555 1_555
H28 C23 1_555 1_555
C24 O6 1_555 1_555
H29 C24 1_555 1_555
H30 C24 1_555 1_555
C1 C6 1_555 1_555
C1 C7 1_555 1_555
C4 C7 1_555 1_555
C15 C16 1_555 1_555
C20 C21 1_555 1_555
C23 C24 1_555 1_555

#END
