
#######################################################################
#
#                 Cambridge Crystallographic Data Centre
#                                CCDC 
#
#######################################################################
#
# If this CIF has been generated from an entry in the Cambridge 
# Structural Database, then it will include bibliographic, chemical, 
# crystal, experimental, refinement or atomic coordinate data resulting 
# from the CCDC's data processing and validation procedures.
#
#######################################################################

data_WUJTAX
_chemical_formula_moiety         'C23 H22 Br1 N1 O4 S1'
_chemical_name_systematic        
N-(2-Bromo-1-(4-methoxyphenyl)-3-oxo-3-phenylpropan-1-yl)-4-methylbenzenesulfonamide
_symmetry_cell_setting           monoclinic
_symmetry_space_group_name_H-M   'P 21/c'
_symmetry_Int_Tables_number      14
_space_group_name_Hall           '-P 2ybc'
loop_
_symmetry_equiv_pos_site_id
_symmetry_equiv_pos_as_xyz
1 x,y,z
2 -x,1/2+y,1/2-z
3 -x,-y,-z
4 x,1/2-y,1/2+z
_cell_length_a                   10.960(2)
_cell_length_b                   16.770(3)
_cell_length_c                   12.380(3)
_cell_angle_alpha                90
_cell_angle_beta                 100.46(3)
_cell_angle_gamma                90
_cell_volume                     2237.62
_exptl_crystal_colour            colorless
_exptl_crystal_description       block
_cell_formula_units_Z            4
loop_
_atom_site_label
_atom_site_type_symbol
_atom_site_fract_x
_atom_site_fract_y
_atom_site_fract_z
Br1 Br 0.53764(3) 0.00419(2) 0.67608(4)
N1 N 0.1524(2) 0.01989(14) 0.6215(2)
O1 O -0.0684(2) 0.00932(13) 0.6201(2)
O2 O 0.0726(2) 0.04761(15) 0.79213(19)
O3 O 0.3293(2) 0.34276(13) 0.44529(19)
O4 O 0.3329(3) -0.07589(15) 0.8133(2)
C1 C 0.3273(3) 0.27312(19) 0.5025(3)
C2 C 0.3559(3) 0.26600(19) 0.6154(3)
H3 H 0.3821 0.3104 0.6584
C3 C 0.2830(3) 0.13290(18) 0.4894(3)
H4 H 0.2597 0.0881 0.4462
C4 C 0.0161(3) 0.1535(2) 0.6405(3)
C5 C 0.2800(3) 0.04932(17) 0.6589(3)
H5 H 0.2907 0.0598 0.7379
C6 C 0.2936(3) -0.2328(2) 0.7428(3)
H6 H 0.2646 -0.2182 0.8061
C7 C 0.3065(3) 0.12579(17) 0.6029(2)
C8 C 0.2939(3) 0.20555(19) 0.4397(3)
H7 H 0.2787 0.2092 0.3635
C9 C 0.3457(3) 0.19299(19) 0.6645(3)
H8 H 0.3656 0.1888 0.7406
C10 C 0.3612(3) -0.02302(19) 0.6420(3)
H9 H 0.3398 -0.0414 0.5658
C11 C 0.3385(3) -0.17483(19) 0.6801(3)
C12 C 0.3436(3) -0.0914(2) 0.7198(3)
C13 C -0.0094(3) 0.3141(2) 0.5820(3)
C14 C -0.0368(4) 0.2537(2) 0.5053(3)
H10 H -0.0645 0.2672 0.4321
C15 C 0.0454(3) 0.2125(2) 0.7204(3)
H11 H 0.0745 0.1988 0.7933
C16 C -0.0248(3) 0.1753(2) 0.5332(3)
H12 H -0.0443 0.1363 0.4794
C17 C 0.3783(4) -0.2779(2) 0.5550(4)
H13 H 0.4070 -0.2930 0.4918
C18 C 0.3798(3) -0.1986(2) 0.5853(3)
H14 H 0.4089 -0.1605 0.5416
C19 C 0.3530(4) 0.4156(2) 0.5067(4)
H15 H 0.2917 0.4223 0.5523
H16 H 0.3491 0.4597 0.4568
H17 H 0.4339 0.4133 0.5519
C20 C 0.0307(4) 0.2917(2) 0.6897(3)
H18 H 0.0483 0.3310 0.7433
C21 C 0.2917(4) -0.3120(2) 0.7119(4)
H19 H 0.2615 -0.3505 0.7543
C22 C 0.3345(4) -0.3339(2) 0.6183(4)
H20 H 0.3335 -0.3873 0.5979
S1 S 0.03791(8) 0.05278(5) 0.67572(7)
C23 C -0.0217(5) 0.4001(2) 0.5492(4)
H21 H -0.1011 0.4196 0.5593
H22 H -0.0145 0.4053 0.4733
H23 H 0.0428 0.4304 0.5939
H1? H 0.1544 -0.0334 0.6300
H2? H 0.1330 0.0293 0.5488
loop_
_geom_bond_atom_site_label_1
_geom_bond_atom_site_label_2
_geom_bond_site_symmetry_1
_geom_bond_site_symmetry_2
Br1 C10 1_555 1_555
N1 C5 1_555 1_555
O1 S1 1_555 1_555
O2 S1 1_555 1_555
O3 C1 1_555 1_555
O4 C12 1_555 1_555
C1 C2 1_555 1_555
C2 H3 1_555 1_555
C3 H4 1_555 1_555
C4 C15 1_555 1_555
C5 H5 1_555 1_555
C6 H6 1_555 1_555
C7 C3 1_555 1_555
C8 C1 1_555 1_555
H7 C8 1_555 1_555
C9 C2 1_555 1_555
H8 C9 1_555 1_555
C10 C5 1_555 1_555
H9 C10 1_555 1_555
C11 C6 1_555 1_555
C12 C10 1_555 1_555
C13 C14 1_555 1_555
C14 H10 1_555 1_555
C15 H11 1_555 1_555
C16 C4 1_555 1_555
H12 C16 1_555 1_555
C17 H13 1_555 1_555
C18 C11 1_555 1_555
H14 C18 1_555 1_555
C19 O3 1_555 1_555
H15 C19 1_555 1_555
H16 C19 1_555 1_555
H17 C19 1_555 1_555
C20 C13 1_555 1_555
H18 C20 1_555 1_555
C21 C6 1_555 1_555
H19 C21 1_555 1_555
C22 C17 1_555 1_555
H20 C22 1_555 1_555
S1 N1 1_555 1_555
C23 C13 1_555 1_555
H21 C23 1_555 1_555
H22 C23 1_555 1_555
H23 C23 1_555 1_555
C3 C8 1_555 1_555
C4 S1 1_555 1_555
C5 C7 1_555 1_555
C7 C9 1_555 1_555
C11 C12 1_555 1_555
C14 C16 1_555 1_555
C15 C20 1_555 1_555
C17 C18 1_555 1_555
C21 C22 1_555 1_555

#END
