
#######################################################################
#
#                 Cambridge Crystallographic Data Centre
#                                CCDC 
#
#######################################################################
#
# If this CIF has been generated from an entry in the Cambridge 
# Structural Database, then it will include bibliographic, chemical, 
# crystal, experimental, refinement or atomic coordinate data resulting 
# from the CCDC's data processing and validation procedures.
#
#######################################################################

data_WUJTIF
_chemical_name_common            
9a-(2-Furylmethyl)hexahydro-5H-furo[2,3-b]pyrrolo[1,2-d][1,4]oxazin-2(1H)-one
_chemical_formula_moiety         'C14 H17 N1 O4'
_chemical_name_systematic        
(3aS,5aS,8bR)-8b-(Furan-2-ylmethyl)-hexahydro-3,4-dioxa-8a-aza-as-indacen-2-one
_symmetry_cell_setting           orthorhombic
_symmetry_space_group_name_H-M   'P 21 21 21'
_symmetry_Int_Tables_number      19
_space_group_name_Hall           'P 2ac 2ab'
loop_
_symmetry_equiv_pos_site_id
_symmetry_equiv_pos_as_xyz
1 x,y,z
2 1/2-x,-y,1/2+z
3 -x,1/2+y,1/2-z
4 1/2+x,1/2-y,-z
_cell_length_a                   7.9963(2)
_cell_length_b                   10.7283(2)
_cell_length_c                   15.0134(3)
_cell_angle_alpha                90
_cell_angle_beta                 90
_cell_angle_gamma                90
_cell_volume                     1287.95
_cell_formula_units_Z            4
loop_
_atom_site_label
_atom_site_type_symbol
_atom_site_fract_x
_atom_site_fract_y
_atom_site_fract_z
O1 O -0.02967(17) 1.11346(15) 0.98447(11)
O2 O 0.11446(14) 0.93993(11) 0.96013(8)
O3 O 0.32046(16) 0.78974(10) 0.98195(9)
O4 O 0.5564(2) 0.94338(14) 0.79105(9)
N1 N 0.38660(16) 1.00463(12) 1.07982(8)
C1 C 0.1024(2) 1.06414(15) 0.97003(11)
C2 C 0.2708(2) 1.12260(15) 0.95843(11)
H1 H 0.2850 1.1933 0.9980
H2 H 0.2879 1.1496 0.8975
C3 C 0.38916(18) 1.01653(13) 0.98291(9)
C4 C 0.2897(2) 0.90560(15) 0.94624(10)
H3 H 0.3096 0.9009 0.8819
C5 C 0.3191(3) 0.78653(16) 1.07782(12)
H4 H 0.3523 0.7044 1.0982
H5 H 0.2069 0.8028 1.0994
C6 C 0.4370(2) 0.88246(15) 1.11439(10)
H6 H 0.5520 0.8635 1.0963
C7 C 0.4286(3) 0.9039(2) 1.21510(12)
H7 H 0.3196 0.8809 1.2382
H8 H 0.5134 0.8553 1.2455
C8 C 0.4598(3) 1.0425(2) 1.22745(12)
H9 H 0.5616 1.0563 1.2612
H10 H 0.3673 1.0810 1.2589
C9 C 0.4760(2) 1.09609(18) 1.13414(11)
H11 H 0.4243 1.1777 1.1301
H12 H 0.5923 1.1025 1.1163
C10 C 0.5663(2) 1.02625(18) 0.94291(10)
H13 H 0.6231 1.0958 0.9711
H14 H 0.6273 0.9512 0.9584
C11 C 0.5762(2) 1.04320(16) 0.84492(11)
C12 C 0.5975(3) 1.1449(2) 0.79641(15)
H15 H 0.6119 1.2256 0.8177
C13 C 0.5943(3) 1.1076(3) 0.70569(17)
H16 H 0.6081 1.1589 0.6563
C14 C 0.5684(3) 0.9885(3) 0.70488(14)
H17 H 0.5591 0.9402 0.6537
loop_
_geom_bond_atom_site_label_1
_geom_bond_atom_site_label_2
_geom_bond_site_symmetry_1
_geom_bond_site_symmetry_2
O1 C1 1_555 1_555
O2 C1 1_555 1_555
O3 C4 1_555 1_555
O4 C11 1_555 1_555
N1 C3 1_555 1_555
C1 C2 1_555 1_555
C2 H1 1_555 1_555
H2 C2 1_555 1_555
C3 C2 1_555 1_555
C4 O2 1_555 1_555
H3 C4 1_555 1_555
C5 O3 1_555 1_555
H4 C5 1_555 1_555
H5 C5 1_555 1_555
C6 N1 1_555 1_555
H6 C6 1_555 1_555
C7 C6 1_555 1_555
H7 C7 1_555 1_555
H8 C7 1_555 1_555
C8 C7 1_555 1_555
H9 C8 1_555 1_555
H10 C8 1_555 1_555
C9 N1 1_555 1_555
H11 C9 1_555 1_555
H12 C9 1_555 1_555
C10 C3 1_555 1_555
H13 C10 1_555 1_555
H14 C10 1_555 1_555
C11 C10 1_555 1_555
C12 C11 1_555 1_555
H15 C12 1_555 1_555
C13 C12 1_555 1_555
H16 C13 1_555 1_555
C14 O4 1_555 1_555
H17 C14 1_555 1_555
C3 C4 1_555 1_555
C5 C6 1_555 1_555
C8 C9 1_555 1_555
C13 C14 1_555 1_555

#END
