
#######################################################################
#
#                 Cambridge Crystallographic Data Centre
#                                CCDC 
#
#######################################################################
#
# If this CIF has been generated from an entry in the Cambridge 
# Structural Database, then it will include bibliographic, chemical, 
# crystal, experimental, refinement or atomic coordinate data resulting 
# from the CCDC's data processing and validation procedures.
#
#######################################################################

data_WUJVEE
_chemical_formula_moiety         'C26 H31 N5 O6,H2 O1'
_chemical_name_systematic        
'dimethyl 7-(2-acetamidoethyl)-3-methyl-9-oxo-2,4-bis(pyridin-2-yl)-3,7-diazabicyclo[3.3.1]nonane-1,5-dicarboxylate monohydrate'
_symmetry_cell_setting           monoclinic
_symmetry_space_group_name_H-M   'P 21/n'
_symmetry_Int_Tables_number      14
_space_group_name_Hall           '-P 2yn'
loop_
_symmetry_equiv_pos_site_id
_symmetry_equiv_pos_as_xyz
1 x,y,z
2 1/2-x,1/2+y,1/2-z
3 -x,-y,-z
4 1/2+x,1/2-y,1/2+z
_cell_length_a                   9.35834(13)
_cell_length_b                   24.5701(3)
_cell_length_c                   11.95865(16)
_cell_angle_alpha                90
_cell_angle_beta                 110.6664(16)
_cell_angle_gamma                90
_cell_volume                     2572.78
_exptl_crystal_colour            colorless
_exptl_crystal_description       irregular
_cell_formula_units_Z            4
loop_
_atom_site_label
_atom_site_type_symbol
_atom_site_fract_x
_atom_site_fract_y
_atom_site_fract_z
O1 O 1.11901(12) 0.51340(3) 0.84850(8)
O2 O 1.05411(10) 0.57774(3) 0.70603(7)
O3 O 1.24055(10) 0.76587(4) 0.88487(8)
O4 O 1.36611(9) 0.75297(3) 1.08052(7)
O5 O 1.27955(10) 0.64715(4) 0.87164(8)
O6 O 0.81834(13) 0.59640(4) 1.35104(10)
N1 N 0.71338(11) 0.55829(4) 0.73270(8)
N2 N 0.90669(10) 0.74931(4) 1.09210(8)
N3 N 0.86900(10) 0.67476(3) 0.90788(8)
N4 N 0.90665(12) 0.65113(4) 1.23878(9)
H1 H 0.8839(19) 0.6734(7) 1.1747(15)
N5 N 1.09646(10) 0.62406(3) 1.10898(8)
C1 C 1.06090(11) 0.60418(4) 0.89751(9)
C2 C 0.89508(12) 0.62724(4) 0.84287(9)
H2 H 0.8802(17) 0.6361(6) 0.7591(13)
C3 C 0.98340(11) 0.71764(4) 0.92659(9)
H3 H 0.9784(17) 0.7340(6) 0.8506(13)
C4 C 1.15054(11) 0.69605(4) 0.98367(9)
C5 C 1.19156(11) 0.67122(4) 1.11005(9)
H4 H 1.3002(18) 0.6614(6) 1.1391(13)
H5 H 1.1797(17) 0.6983(6) 1.1665(13)
C6 C 1.10708(12) 0.58193(4) 1.02679(9)
H6 H 1.0423(18) 0.5523(6) 1.0302(14)
H7 H 1.2128(18) 0.5672(6) 1.0491(14)
C7 C 1.17386(12) 0.64968(4) 0.90728(9)
C8 C 1.08217(13) 0.55930(4) 0.81645(9)
C9 C 1.06986(18) 0.53827(5) 0.62138(11)
H8 H 1.0326(13) 0.5536(2) 0.5424(9)
H9 H 1.0117(13) 0.5063(4) 0.6233(8)
H10 H 1.1757(12) 0.5287(4) 0.6422(7)
C10 C 1.25593(12) 0.74230(4) 0.97649(10)
C11 C 1.47162(15) 0.79527(6) 1.07423(13)
H11 H 1.5214(12) 0.7842(3) 1.0165(10)
H12 H 1.5511(12) 0.8006(3) 1.1548(9)
H13 H 1.4147(7) 0.8299(4) 1.0471(11)
C12 C 0.77692(12) 0.58391(4) 0.83766(9)
C13 C 0.73420(14) 0.57399(5) 0.93587(10)
H14 H 0.7882(19) 0.5925(7) 1.0136(15)
C14 C 0.61532(16) 0.53808(5) 0.92315(12)
H15 H 0.580(2) 0.5319(7) 0.9920(16)
C15 C 0.54519(14) 0.51252(5) 0.81395(12)
H16 H 0.461(2) 0.4893(7) 0.8007(16)
C16 C 0.60000(14) 0.52274(5) 0.72254(11)
H17 H 0.556(2) 0.5046(7) 0.6471(16)
C17 C 0.95178(11) 0.76348(4) 1.00096(9)
C18 C 0.96661(13) 0.81756(4) 0.97252(10)
H18 H 1.0003(18) 0.8259(6) 0.9077(15)
C19 C 0.92925(14) 0.85857(4) 1.03803(10)
H19 H 0.9358(19) 0.8959(7) 1.0173(15)
C20 C 0.87900(13) 0.84427(5) 1.12947(10)
H20 H 0.8497(19) 0.8704(7) 1.1755(15)
C21 C 0.87140(12) 0.78925(5) 1.15418(10)
H21 H 0.8437(19) 0.7772(7) 1.2215(15)
C22 C 0.71806(12) 0.69740(4) 0.83985(10)
H22 H 0.7158(4) 0.7090(4) 0.7603(9)
H23 H 0.6978(5) 0.7290(4) 0.8829(6)
H24 H 0.6392(8) 0.6694(3) 0.8306(8)
C23 C 1.12890(12) 0.60201(4) 1.22914(9)
H25 H 1.2401(18) 0.5958(6) 1.2718(14)
H26 H 1.0766(18) 0.5662(7) 1.2205(14)
C24 C 1.06625(13) 0.63913(5) 1.30283(10)
H27 H 1.0770(19) 0.6215(7) 1.3813(15)
H28 H 1.1275(19) 0.6741(7) 1.3252(15)
C25 C 0.79412(14) 0.62788(5) 1.26580(11)
C26 C 0.63466(15) 0.64274(6) 1.18543(14)
H29 H 0.5867(8) 0.6640(5) 1.2292(6)
H30 H 0.5768(8) 0.6103(4) 1.1571(9)
H31 H 0.63927(17) 0.6634(5) 1.1190(10)
O7 O 0.65695(15) 0.54801(6) 1.47666(11)
H32 H 0.705(3) 0.5675(10) 1.436(2)
H33 H 0.698(3) 0.5574(10) 1.549(2)
loop_
_geom_bond_atom_site_label_1
_geom_bond_atom_site_label_2
_geom_bond_site_symmetry_1
_geom_bond_site_symmetry_2
O1 C8 1_555 1_555
O2 C8 1_555 1_555
O3 C10 1_555 1_555
O4 C10 1_555 1_555
O5 C7 1_555 1_555
O6 C25 1_555 1_555
N1 C12 1_555 1_555
N2 C17 1_555 1_555
N3 C2 1_555 1_555
N4 H1 1_555 1_555
N5 C5 1_555 1_555
C1 C2 1_555 1_555
C2 H2 1_555 1_555
C3 N3 1_555 1_555
H3 C3 1_555 1_555
C4 C3 1_555 1_555
C5 C4 1_555 1_555
H4 C5 1_555 1_555
H5 C5 1_555 1_555
C6 N5 1_555 1_555
H6 C6 1_555 1_555
H7 C6 1_555 1_555
C7 C1 1_555 1_555
C8 C1 1_555 1_555
C9 O2 1_555 1_555
H8 C9 1_555 1_555
H9 C9 1_555 1_555
H10 C9 1_555 1_555
C10 C4 1_555 1_555
C11 O4 1_555 1_555
H11 C11 1_555 1_555
H12 C11 1_555 1_555
H13 C11 1_555 1_555
C12 C2 1_555 1_555
C13 C12 1_555 1_555
H14 C13 1_555 1_555
C14 C13 1_555 1_555
H15 C14 1_555 1_555
C15 C14 1_555 1_555
H16 C15 1_555 1_555
C16 N1 1_555 1_555
H17 C16 1_555 1_555
C17 C3 1_555 1_555
C18 C17 1_555 1_555
H18 C18 1_555 1_555
C19 C18 1_555 1_555
H19 C19 1_555 1_555
C20 C19 1_555 1_555
H20 C20 1_555 1_555
C21 N2 1_555 1_555
H21 C21 1_555 1_555
C22 N3 1_555 1_555
H22 C22 1_555 1_555
H23 C22 1_555 1_555
H24 C22 1_555 1_555
C23 N5 1_555 1_555
H25 C23 1_555 1_555
H26 C23 1_555 1_555
C24 N4 1_555 1_555
H27 C24 1_555 1_555
H28 C24 1_555 1_555
C25 N4 1_555 1_555
C26 C25 1_555 1_555
H29 C26 1_555 1_555
H30 C26 1_555 1_555
H31 C26 1_555 1_555
O7 H32 1_555 1_555
H33 O7 1_555 1_555
C1 C6 1_555 1_555
C4 C7 1_555 1_555
C15 C16 1_555 1_555
C20 C21 1_555 1_555
C23 C24 1_555 1_555

#END
