
#######################################################################
#
#                 Cambridge Crystallographic Data Centre
#                                CCDC 
#
#######################################################################
#
# If this CIF has been generated from an entry in the Cambridge 
# Structural Database, then it will include bibliographic, chemical, 
# crystal, experimental, refinement or atomic coordinate data resulting 
# from the CCDC's data processing and validation procedures.
#
#######################################################################

data_WUJWII
_chemical_compound_source        
'solid-state fermented culture Aspergillus versicolor'
_chemical_name_common            'Brevianamide M'
_chemical_formula_moiety         'C18 H15 N3 O3'
_chemical_name_systematic        
4-Benzyl-1-hydroxy-2H-pyrazino[2,1-b]quinazoline-3,6(1H,4H)-dione
_symmetry_cell_setting           monoclinic
_symmetry_space_group_name_H-M   'P 21'
_symmetry_Int_Tables_number      4
_space_group_name_Hall           'P 2yb'
loop_
_symmetry_equiv_pos_site_id
_symmetry_equiv_pos_as_xyz
1 x,y,z
2 -x,1/2+y,-z
_cell_length_a                   7.912(2)
_cell_length_b                   7.392(1)
_cell_length_c                   14.050(3)
_cell_angle_alpha                90
_cell_angle_beta                 104.92(2)
_cell_angle_gamma                90
_cell_volume                     794.018
_cell_formula_units_Z            2
loop_
_atom_site_label
_atom_site_type_symbol
_atom_site_fract_x
_atom_site_fract_y
_atom_site_fract_z
O1 O 0.5500(2) 0.6696(3) 0.97761(11)
O2 O 0.3943(2) 1.0167(3) 0.74239(14)
O3 O 0.2341(3) 0.3387(2) 0.69253(14)
N1 N 0.3723(3) 0.8787(3) 0.88836(15)
N2 N 0.0180(2) 0.8398(3) 0.67847(14)
N3 N 0.2450(2) 0.6312(3) 0.74248(13)
C1 C 0.4522(3) 0.7179(3) 0.89943(16)
C2 C 0.2785(3) 0.9468(3) 0.79418(16)
H1 H 0.2010 1.0443 0.8042
C3 C 0.1691(3) 0.7999(3) 0.73467(16)
C4 C -0.0748(3) 0.7018(4) 0.62133(16)
C5 C -0.2400(3) 0.7422(5) 0.5583(2)
H2 H -0.2857 0.8585 0.5559
C6 C -0.3324(4) 0.6070(7) 0.5005(2)
H3 H -0.4408 0.6335 0.4581
C7 C -0.2687(4) 0.4341(7) 0.5037(2)
H4 H -0.3348 0.3451 0.4642
C8 C -0.1080(4) 0.3905(5) 0.56486(19)
H5 H -0.0653 0.2730 0.5673
C9 C -0.0098(3) 0.5272(4) 0.62356(17)
C10 C 0.1615(3) 0.4856(3) 0.68673(17)
C11 C 0.4180(3) 0.5965(3) 0.81050(15)
H6 H 0.4181 0.4716 0.8338
C12 C 0.5622(3) 0.6117(5) 0.75549(17)
H7 H 0.5207 0.5564 0.6911
H8 H 0.5835 0.7387 0.7456
C13 C 0.7320(3) 0.5241(4) 0.80796(18)
C14 C 0.8680(4) 0.6210(5) 0.8635(2)
H9 H 0.8570 0.7453 0.8703
C15 C 1.0254(4) 0.5335(7) 0.9107(2)
H10 H 1.1189 0.5997 0.9483
C16 C 1.0396(4) 0.3522(7) 0.9008(3)
H11 H 1.1430 0.2939 0.9325
C17 C 0.9049(4) 0.2554(5) 0.8454(3)
H12 H 0.9164 0.1313 0.8380
C18 C 0.7518(4) 0.3402(4) 0.8001(2)
H13 H 0.6590 0.2722 0.7632
H14 H 0.403(4) 0.950(5) 0.936(2)
H15 H 0.350(3) 1.114(5) 0.719(2)
loop_
_geom_bond_atom_site_label_1
_geom_bond_atom_site_label_2
_geom_bond_site_symmetry_1
_geom_bond_site_symmetry_2
O1 C1 1_555 1_555
O2 C2 1_555 1_555
O3 C10 1_555 1_555
N1 C1 1_555 1_555
N2 C3 1_555 1_555
N3 C3 1_555 1_555
C1 C11 1_555 1_555
C2 N1 1_555 1_555
H1 C2 1_555 1_555
C3 C2 1_555 1_555
C4 N2 1_555 1_555
C5 C4 1_555 1_555
H2 C5 1_555 1_555
C6 C5 1_555 1_555
H3 C6 1_555 1_555
C7 C6 1_555 1_555
H4 C7 1_555 1_555
C8 C7 1_555 1_555
H5 C8 1_555 1_555
C9 C4 1_555 1_555
C10 N3 1_555 1_555
C11 N3 1_555 1_555
H6 C11 1_555 1_555
C12 C11 1_555 1_555
H7 C12 1_555 1_555
H8 C12 1_555 1_555
C13 C12 1_555 1_555
C14 C13 1_555 1_555
H9 C14 1_555 1_555
C15 C14 1_555 1_555
H10 C15 1_555 1_555
C16 C15 1_555 1_555
H11 C16 1_555 1_555
C17 C16 1_555 1_555
H12 C17 1_555 1_555
C18 C13 1_555 1_555
H13 C18 1_555 1_555
H14 N1 1_555 1_555
H15 O2 1_555 1_555
C8 C9 1_555 1_555
C9 C10 1_555 1_555
C17 C18 1_555 1_555

#END
