
#######################################################################
#
#                 Cambridge Crystallographic Data Centre
#                                CCDC 
#
#######################################################################
#
# If this CIF has been generated from an entry in the Cambridge 
# Structural Database, then it will include bibliographic, chemical, 
# crystal, experimental, refinement or atomic coordinate data resulting 
# from the CCDC's data processing and validation procedures.
#
#######################################################################

data_WUKDEL
_chemical_formula_moiety         'C8 H14 S4'
_chemical_name_systematic        2,2'-Dimethyl-2,2'-bi-1,3-dithiolanyl
_symmetry_cell_setting           triclinic
_symmetry_space_group_name_H-M   'P -1'
_symmetry_Int_Tables_number      2
_space_group_name_Hall           '-P 1'
loop_
_symmetry_equiv_pos_site_id
_symmetry_equiv_pos_as_xyz
1 x,y,z
2 -x,-y,-z
_cell_length_a                   6.486(6)
_cell_length_b                   7.358(7)
_cell_length_c                   12.386(12)
_cell_angle_alpha                101.20(2)
_cell_angle_beta                 95.68(2)
_cell_angle_gamma                106.40(2)
_cell_volume                     548.779
_exptl_crystal_colour            colorless
_exptl_crystal_description       'rectangular shape'
_chemical_melting_point          358K
_cell_formula_units_Z            2
_exptl_crystal_recrystallization_method hexane
loop_
_atom_site_label
_atom_site_type_symbol
_atom_site_fract_x
_atom_site_fract_y
_atom_site_fract_z
S1 S 0.30342(13) -0.11561(10) 0.18861(6)
S2 S 0.13823(11) 0.27782(11) 0.19050(6)
S3 S 0.26533(13) 0.12270(11) 0.40379(6)
S4 S 0.55874(11) 0.28409(12) 0.11490(6)
C1 C 0.6575(6) 0.1255(7) 0.3345(4)
H1 H 0.659(5) 0.016(5) 0.367(3)
H2 H 0.732(5) 0.241(5) 0.382(3)
H3 H 0.742(7) 0.122(6) 0.284(4)
C2 C 0.4266(4) 0.1185(4) 0.2899(2)
C3 C 0.1271(7) -0.1358(5) 0.3718(3)
H4 H 0.005(6) -0.140(5) 0.407(3)
H5 H 0.229(7) -0.206(6) 0.396(3)
C4 C 0.0640(6) -0.2021(5) 0.2472(3)
H6 H -0.064(7) -0.155(6) 0.212(4)
H7 H 0.021(7) -0.336(7) 0.231(4)
C5 C 0.5368(7) 0.4894(5) 0.3195(3)
H8 H 0.472(5) 0.492(5) 0.383(3)
H9 H 0.686(7) 0.509(6) 0.336(3)
H10 H 0.513(7) 0.587(6) 0.283(3)
C6 C 0.4212(4) 0.2946(4) 0.2380(2)
C7 C 0.1742(6) 0.3300(6) 0.0571(3)
H11 H 0.217(7) 0.455(6) 0.068(3)
H12 H 0.044(7) 0.292(6) 0.014(3)
C8 C 0.3242(5) 0.2258(5) 0.0094(3)
H13 H 0.372(6) 0.262(5) -0.051(3)
H14 H 0.262(6) 0.082(6) -0.013(3)
loop_
_geom_bond_atom_site_label_1
_geom_bond_atom_site_label_2
_geom_bond_site_symmetry_1
_geom_bond_site_symmetry_2
S1 C2 1_555 1_555
S2 C6 1_555 1_555
S3 C2 1_555 1_555
S4 C6 1_555 1_555
C1 H1 1_555 1_555
H2 C1 1_555 1_555
H3 C1 1_555 1_555
C2 C1 1_555 1_555
C3 S3 1_555 1_555
H4 C3 1_555 1_555
H5 C3 1_555 1_555
C4 S1 1_555 1_555
H6 C4 1_555 1_555
H7 C4 1_555 1_555
C5 H8 1_555 1_555
H9 C5 1_555 1_555
H10 C5 1_555 1_555
C6 C2 1_555 1_555
C7 S2 1_555 1_555
H11 C7 1_555 1_555
H12 C7 1_555 1_555
C8 S4 1_555 1_555
H13 C8 1_555 1_555
H14 C8 1_555 1_555
C3 C4 1_555 1_555
C5 C6 1_555 1_555
C7 C8 1_555 1_555

#END
