
#######################################################################
#
#                 Cambridge Crystallographic Data Centre
#                                CCDC 
#
#######################################################################
#
# If this CIF has been generated from an entry in the Cambridge 
# Structural Database, then it will include bibliographic, chemical, 
# crystal, experimental, refinement or atomic coordinate data resulting 
# from the CCDC's data processing and validation procedures.
#
#######################################################################

data_WUKFIT
_chemical_compound_source        'root of Aconitum sinomontanum'
_chemical_formula_moiety         'C32 H45 N2 O8 1+,N1 O3 1-,H2 O1'
_chemical_name_systematic        
'20-ethyl-8,9-dihydroxy-1,14,16-trimethoxyaconitan-20-ium-4-yl 2-acetamidobenzoate nitrate monohydrate'
_chemical_properties_biological  'antinociceptive activity'
_symmetry_cell_setting           monoclinic
_symmetry_space_group_name_H-M   'P 21'
_symmetry_Int_Tables_number      4
_space_group_name_Hall           'P 2yb'
loop_
_symmetry_equiv_pos_site_id
_symmetry_equiv_pos_as_xyz
1 x,y,z
2 -x,1/2+y,-z
_cell_length_a                   10.5829(4)
_cell_length_b                   12.4835(5)
_cell_length_c                   12.3115(5)
_cell_angle_alpha                90
_cell_angle_beta                 91.699(2)
_cell_angle_gamma                90
_cell_volume                     1625.78
_exptl_crystal_colour            colorless
_exptl_crystal_description       block
_cell_formula_units_Z            2
loop_
_atom_site_label
_atom_site_type_symbol
_atom_site_fract_x
_atom_site_fract_y
_atom_site_fract_z
C1 C 1.0166(3) 0.2367(2) 0.2857(2)
H1 H 1.0017 0.1866 0.3453
C2 C 1.1549(3) 0.2306(3) 0.2582(3)
H2 H 1.1739 0.1588 0.2334
H3 H 1.2062 0.2444 0.3232
C3 C 1.1894(3) 0.3108(2) 0.1707(3)
H4 H 1.1575 0.2853 0.1006
H5 H 1.2807 0.3157 0.1676
C4 C 1.1345(3) 0.4235(2) 0.1922(2)
C5 C 1.0888(3) 0.4347(2) 0.3086(2)
H6 H 1.1583 0.4239 0.3618
C6 C 1.0255(3) 0.5447(2) 0.3237(2)
H7 H 1.0507 0.5944 0.2678
H8 H 1.0484 0.5747 0.3943
C7 C 0.8824(3) 0.5223(2) 0.3145(2)
H9 H 0.8397 0.5758 0.2682
C8 C 0.8241(3) 0.5190(2) 0.4276(2)
C9 C 0.8994(3) 0.4407(2) 0.5047(2)
C10 C 0.9409(3) 0.3395(2) 0.4433(2)
H10 H 1.0136 0.3097 0.4842
C11 C 0.9814(3) 0.3518(2) 0.3244(2)
C12 C 0.8295(3) 0.2598(2) 0.4563(2)
H11 H 0.7943 0.2394 0.3856
H12 H 0.8583 0.1957 0.4939
C13 C 0.7293(3) 0.3182(2) 0.5228(2)
H13 H 0.6851 0.2677 0.5694
C14 C 0.8137(3) 0.3931(2) 0.5907(2)
H14 H 0.8655 0.3502 0.6417
C15 C 0.6800(3) 0.4932(3) 0.4220(3)
H15 H 0.6386 0.5427 0.4703
H16 H 0.6491 0.5092 0.3489
C16 C 0.6349(3) 0.3803(3) 0.4499(3)
H17 H 0.6198 0.3401 0.3824
C17 C 0.8742(3) 0.4103(2) 0.2617(2)
H18 H 0.7924 0.3767 0.2751
C18 C 1.0271(3) 0.4572(2) 0.1120(2)
H19 H 1.0209 0.5347 0.1112
H20 H 1.0475 0.4339 0.0395
C19 C 1.4457(4) 0.6250(4) -0.1984(3)
C20 C 1.3883(5) 0.5594(4) -0.2883(3)
H21 H 1.4407 0.5631 -0.3505
H22 H 1.3057 0.5866 -0.3071
H23 H 1.3816 0.4863 -0.2651
C21 C 1.2952(3) 0.5150(3) 0.0914(2)
C22 C 0.7969(3) 0.4598(3) 0.0708(2)
H24 H 0.7802 0.5318 0.0963
H25 H 0.8252 0.4651 -0.0032
C23 C 0.6766(3) 0.3962(3) 0.0714(3)
H26 H 0.6377 0.4045 0.1403
H27 H 0.6951 0.3219 0.0596
H28 H 0.6200 0.4214 0.0146
C24 C 0.9457(4) 0.0993(3) 0.1619(3)
H29 H 0.9371 0.0530 0.2235
H30 H 1.0272 0.0886 0.1314
H31 H 0.8808 0.0831 0.1083
C25 C 0.7004(4) 0.4390(3) 0.7465(3)
H32 H 0.7649 0.4063 0.7918
H33 H 0.6355 0.3874 0.7293
H34 H 0.6644 0.4985 0.7842
C26 C 0.4288(9) 0.3097(11) 0.4792(9)
H35 H 0.3537 0.3219 0.5193
H36 H 0.4634 0.2409 0.4981
H37 H 0.4083 0.3117 0.4028
C27 C 1.3988(3) 0.5950(2) 0.0993(3)
C28 C 1.4624(3) 0.6272(3) 0.0054(3)
C29 C 1.5625(4) 0.7005(3) 0.0178(4)
H38 H 1.6044 0.7238 -0.0432
C30 C 1.5996(4) 0.7382(3) 0.1188(4)
H39 H 1.6671 0.7857 0.1252
C31 C 1.5382(4) 0.7067(3) 0.2105(4)
H40 H 1.5638 0.7324 0.2785
C32 C 1.4379(3) 0.6361(3) 0.1997(3)
H41 H 1.3953 0.6155 0.2614
H42 H 1.379(4) 0.529(4) -0.091(3)
H43 H 0.900(3) 0.344(2) 0.127(2)
N1 N 1.4245(3) 0.5858(3) -0.0966(3)
N2 N 0.9007(2) 0.4106(2) 0.14115(18)
O1 O 1.5059(4) 0.7069(3) -0.2137(3)
O2 O 1.2663(2) 0.46305(19) 0.01129(17)
O3 O 1.23425(19) 0.50474(17) 0.18509(16)
O4 O 0.9338(2) 0.20846(15) 0.19562(16)
O5 O 0.8362(2) 0.62758(16) 0.46672(17)
H44 H 0.8255 0.6288 0.5324
O6 O 1.0031(2) 0.49795(16) 0.55410(16)
H45 H 1.0509 0.4557 0.5855
O7 O 0.7541(2) 0.47578(18) 0.64905(16)
O8 O 0.5184(2) 0.3901(2) 0.5049(2)
H49 H 0.165(5) 0.271(5) 0.628(4)
H50 H 0.135(5) 0.336(5) 0.726(4)
O9 O 0.1587(3) 0.3383(3) 0.6619(3)
N3 N -0.0038(3) 0.2720(2) 0.8921(2)
O10 O 0.0822(3) 0.2099(3) 0.8746(3)
O11 O -0.0866(4) 0.2472(3) 0.9547(3)
O12 O -0.0059(4) 0.3605(3) 0.8499(3)
C33? C 0.4152(8) 0.4037(13) 0.4501(8)
H46? H 0.3462 0.4086 0.4986
H47? H 0.4017 0.3441 0.4018
H48? H 0.4203 0.4685 0.4085
loop_
_geom_bond_atom_site_label_1
_geom_bond_atom_site_label_2
_geom_bond_site_symmetry_1
_geom_bond_site_symmetry_2
C1 H1 1_555 1_555
C2 C1 1_555 1_555
H2 C2 1_555 1_555
H3 C2 1_555 1_555
C3 C2 1_555 1_555
H4 C3 1_555 1_555
H5 C3 1_555 1_555
C4 C3 1_555 1_555
C5 C4 1_555 1_555
H6 C5 1_555 1_555
C6 C5 1_555 1_555
H7 C6 1_555 1_555
H8 C6 1_555 1_555
C7 C6 1_555 1_555
H9 C7 1_555 1_555
C8 C7 1_555 1_555
C9 C8 1_555 1_555
C10 C9 1_555 1_555
H10 C10 1_555 1_555
C11 C1 1_555 1_555
C12 C10 1_555 1_555
H11 C12 1_555 1_555
H12 C12 1_555 1_555
C13 C12 1_555 1_555
H13 C13 1_555 1_555
C14 C9 1_555 1_555
H14 C14 1_555 1_555
C15 C8 1_555 1_555
H15 C15 1_555 1_555
H16 C15 1_555 1_555
C16 C13 1_555 1_555
H17 C16 1_555 1_555
C17 C7 1_555 1_555
H18 C17 1_555 1_555
C18 C4 1_555 1_555
H19 C18 1_555 1_555
H20 C18 1_555 1_555
C19 C20 1_555 1_555
C20 H21 1_555 1_555
H22 C20 1_555 1_555
H23 C20 1_555 1_555
C21 C27 1_555 1_555
C22 H24 1_555 1_555
H25 C22 1_555 1_555
C23 C22 1_555 1_555
H26 C23 1_555 1_555
H27 C23 1_555 1_555
H28 C23 1_555 1_555
C24 H29 1_555 1_555
H30 C24 1_555 1_555
H31 C24 1_555 1_555
C25 H32 1_555 1_555
H33 C25 1_555 1_555
H34 C25 1_555 1_555
C26 H35 1_555 1_555
H36 C26 1_555 1_555
H37 C26 1_555 1_555
C27 C28 1_555 1_555
C28 C29 1_555 1_555
C29 H38 1_555 1_555
C30 C29 1_555 1_555
H39 C30 1_555 1_555
C31 C30 1_555 1_555
H40 C31 1_555 1_555
C32 C27 1_555 1_555
H41 C32 1_555 1_555
H42 N1 1_555 1_555
H43 N2 1_555 1_555
N1 C19 1_555 1_555
N2 C17 1_555 1_555
O1 C19 1_555 1_555
O2 C21 1_555 1_555
O3 C4 1_555 1_555
O4 C1 1_555 1_555
O5 C8 1_555 1_555
H44 O5 1_555 1_555
O6 C9 1_555 1_555
H45 O6 1_555 1_555
O7 C14 1_555 1_555
O8 C16 1_555 1_555
H49 O9 1_555 1_555
H50 O9 1_555 1_555
N3 O10 1_555 1_555
O11 N3 1_555 1_555
O12 N3 1_555 1_555
C5 C11 1_555 1_555
C10 C11 1_555 1_555
C11 C17 1_555 1_555
C13 C14 1_555 1_555
C15 C16 1_555 1_555
C18 N2 1_555 1_555
C21 O3 1_555 1_555
C22 N2 1_555 1_555
C24 O4 1_555 1_555
C25 O7 1_555 1_555
C26 O8 1_555 1_555
C28 N1 1_555 1_555
C31 C32 1_555 1_555

#END
