
#######################################################################
#
#                 Cambridge Crystallographic Data Centre
#                                CCDC 
#
#######################################################################
#
# If this CIF has been generated from an entry in the Cambridge 
# Structural Database, then it will include bibliographic, chemical, 
# crystal, experimental, refinement or atomic coordinate data resulting 
# from the CCDC's data processing and validation procedures.
#
#######################################################################

data_WUKLEV
_chemical_formula_moiety         
'C104 H76 F16 I4 N8 O8,2(C6 H6),5(C2 H6 O1),0.5(H2 O1)'
_chemical_name_systematic        
'5,11,17,23-tetrahexyl-4,20:6,10:12,16:18,22-tetrakis(2-(2,3,5,6-tetrafluoro-4-iodophenyl)benzimidazol-5,6-dioxy)calix[4]arene  benzene ethanol solvate hemihydrate'
_symmetry_cell_setting           monoclinic
_symmetry_space_group_name_H-M   'P 21/c'
_symmetry_Int_Tables_number      14
_space_group_name_Hall           '-P 2ybc'
loop_
_symmetry_equiv_pos_site_id
_symmetry_equiv_pos_as_xyz
1 x,y,z
2 -x,1/2+y,1/2-z
3 -x,-y,-z
4 x,1/2-y,1/2+z
_cell_length_a                   12.8906(12)
_cell_length_b                   26.811(2)
_cell_length_c                   36.441(3)
_cell_angle_alpha                90
_cell_angle_beta                 97.125(2)
_cell_angle_gamma                90
_cell_volume                     12497.1
_exptl_crystal_colour            yellow
_exptl_crystal_description       plate
_cell_formula_units_Z            4
loop_
_atom_site_label
_atom_site_type_symbol
_atom_site_fract_x
_atom_site_fract_y
_atom_site_fract_z
O9 O 1.2654(8) 0.4810(5) 0.4361(4)
H64 H 1.2799 0.4657 0.4172
C109 C 1.3524(16) 0.5053(10) 0.4523(8)
H65 H 1.4141 0.4843 0.4495
H66 H 1.3472 0.5080 0.4791
C110 C 1.371(3) 0.5548(12) 0.4384(11)
H67 H 1.4353 0.5685 0.4521
H68 H 1.3792 0.5528 0.4121
H69 H 1.3121 0.5766 0.4418
O10 O 1.1493(12) 0.3161(5) 0.2628(4)
H70 H 1.1058 0.3362 0.2519
C111 C 1.208(2) 0.2962(12) 0.2381(8)
H71 H 1.2607 0.2760 0.2537
H72 H 1.2471 0.3252 0.2301
C112 C 1.188(3) 0.2683(15) 0.2065(9)
H73 H 1.2534 0.2613 0.1965
H74 H 1.1546 0.2368 0.2122
H75 H 1.1408 0.2868 0.1882
O11 O 0.7300(10) 0.1628(5) 0.4835(4)
H76 H 0.6775 0.1687 0.4681
C113 C 0.7101(15) 0.1254(7) 0.5043(6)
H77 H 0.6335 0.1227 0.5041
H78 H 0.7408 0.1324 0.5301
C114 C 0.748(3) 0.0802(12) 0.4937(12)
H79 H 0.7300 0.0540 0.5106
H80 H 0.7165 0.0724 0.4685
H81 H 0.8241 0.0821 0.4945
C116 C 0.9586(8) 0.3730(5) 0.3891(4)
H87 H 1.0193 0.3783 0.4062
C117 C 0.9407(9) 0.4021(5) 0.3574(4)
H88 H 0.9894 0.4274 0.3528
C118 C 0.8518(10) 0.3944(5) 0.3323(3)
H89 H 0.8396 0.4143 0.3106
C119 C 0.7807(8) 0.3575(5) 0.3389(3)
H90 H 0.7199 0.3522 0.3218
C120 C 0.7985(8) 0.3284(4) 0.3707(4)
H91 H 0.7499 0.3032 0.3752
C121 C 0.8874(9) 0.3361(5) 0.3957(3)
H92 H 0.8996 0.3162 0.4174
O12 O 0.5653(13) 0.3833(5) 0.2194(4)
H93 H 0.5688 0.4128 0.2271
C122 C 0.479(3) 0.3773(17) 0.1958(13)
H94 H 0.4516 0.3438 0.2008
H95 H 0.5015 0.3758 0.1709
C123 C 0.393(3) 0.4091(15) 0.1928(13)
H96 H 0.3398 0.3968 0.1736
H97 H 0.3648 0.4103 0.2165
H98 H 0.4153 0.4426 0.1863
C124 C 0.9866(16) 0.5255(6) 0.2904(6)
H99 H 1.0155 0.4929 0.2923
C125 C 0.9092(15) 0.5390(7) 0.3118(5)
H100 H 0.8851 0.5155 0.3284
C126 C 0.8669(12) 0.5867(8) 0.3090(5)
H101 H 0.8139 0.5959 0.3237
C127 C 0.9020(14) 0.6210(6) 0.2847(5)
H102 H 0.8731 0.6536 0.2828
C128 C 0.9795(15) 0.6076(8) 0.2633(5)
H103 H 1.0036 0.6310 0.2467
C129 C 1.0218(14) 0.5598(9) 0.2661(6)
H104 H 1.0748 0.5507 0.2514
O13 O 0.6989(10) 0.5598(6) 0.3816(4)
H105 H 0.7303 0.5421 0.3985
C130 C 0.653(2) 0.5987(10) 0.3966(8)
H106 H 0.5773 0.5951 0.3888
H107 H 0.6756 0.6288 0.3840
C131 C 0.664(4) 0.6103(15) 0.4338(8)
H108 H 0.6227 0.6403 0.4376
H109 H 0.6381 0.5825 0.4476
H110 H 0.7375 0.6165 0.4427
O14 O 0.793(2) 0.4575(13) 0.1117(7)
H111 H 0.836(4) 0.4353(16) 0.0996(9)
H112 H 0.831(4) 0.463(2) 0.1357(7)
I1 I 1.33618(8) 0.60466(4) 0.24406(3)
I2 I 1.12505(13) 0.72780(5) 0.31516(5)
I3 I 1.01329(19) 0.56426(7) 0.15128(7)
I4 I 0.68983(12) 0.66566(6) 0.17394(5)
F1 F 1.2083(10) 0.6184(4) 0.3274(4)
F2 F 1.1548(8) 0.5422(4) 0.3674(3)
F3 F 1.3645(8) 0.4998(3) 0.3693(3)
F4 F 1.2334(10) 0.4992(4) 0.2231(3)
F5 F 1.1926(11) 0.4206(4) 0.2632(3)
F6 F 1.1107(13) 0.4579(5) 0.1580(5)
F7 F 1.0564(13) 0.3732(5) 0.1903(5)
F8 F 0.6266(13) 0.5943(6) 0.3081(5)
C1 C 0.9208(10) 0.3035(5) 0.5032(4)
C2 C 0.4854(12) 0.2304(6) 0.4495(5)
H1 H 0.5496 0.2110 0.4576
H2 H 0.4335 0.2077 0.4359
F9 F 0.9628(10) 0.7211(4) 0.3731(3)
F10 F 0.9032(8) 0.6451(4) 0.4133(3)
N1 N 1.2603(8) 0.4140(4) 0.3770(4)
O1 O 0.6597(8) 0.2038(3) 0.2925(3)
C3 C 0.6677(10) 0.2958(6) 0.4725(4)
H3 H 0.6761 0.2615 0.4789
C4 C 1.3295(12) 0.4972(6) 0.3335(5)
C5 C 1.2110(9) 0.3379(5) 0.3550(5)
C6 C 1.1807(9) 0.2686(5) 0.3902(5)
C7 C 1.0075(11) 0.4846(5) 0.4497(4)
F11 F 0.8335(16) 0.5400(5) 0.1996(6)
N2 N 0.9461(14) 0.3353(5) 0.2444(5)
C8 C 1.0111(11) 0.2000(5) 0.3521(5)
H4 H 1.0512 0.2082 0.3328
C9 C 1.3174(11) 0.5409(5) 0.2728(5)
C10 C 1.3519(11) 0.5384(6) 0.3126(5)
C11 C 1.2771(11) 0.4562(5) 0.3168(5)
C12 C 1.2508(9) 0.4131(5) 0.3402(5)
N3 N 1.2236(8) 0.3689(4) 0.3261(4)
H5 H 1.2151 0.3609 0.3025
C13 C 1.1866(9) 0.2880(5) 0.3567(5)
H6 H 1.1745 0.2681 0.3350
O2 O 1.1591(7) 0.2165(3) 0.3954(3)
C14 C 1.0556(11) 0.2032(5) 0.3880(5)
C15 C 0.9981(11) 0.1910(5) 0.4173(5)
C16 C 0.8962(11) 0.1754(5) 0.4073(5)
H7 H 0.8564 0.1664 0.4265
C17 C 0.8486(11) 0.1719(5) 0.3718(5)
C18 C 0.7380(11) 0.1529(5) 0.3611(5)
H8 H 0.7348 0.1385 0.3357
C19 C 0.6594(10) 0.1971(5) 0.3590(4)
C20 C 0.6225(9) 0.2142(5) 0.3902(4)
H9 H 0.6464 0.1990 0.4132
C21 C 0.5508(10) 0.2535(5) 0.3894(4)
C22 C 0.5194(9) 0.2744(5) 0.3556(4)
O3 O 0.4460(6) 0.3145(3) 0.3525(3)
C23 C 0.4891(9) 0.3608(5) 0.3463(4)
C24 C 0.4985(9) 0.3766(5) 0.3108(4)
H10 H 0.4782 0.3558 0.2901
C25 C 0.5395(10) 0.4250(5) 0.3064(4)
N4 N 0.5539(9) 0.4495(5) 0.2749(4)
C26 C 0.5899(11) 0.4947(6) 0.2868(5)
C27 C 0.6269(8) 0.5849(5) 0.2711(5)
C28 C 0.6478(9) 0.6202(6) 0.2466(5)
F12 F 0.6665(13) 0.6663(5) 0.2621(5)
C29 C 1.0872(14) 0.6700(6) 0.3489(5)
C30 C 1.1337(14) 0.6251(7) 0.3505(6)
C31 C 1.1042(13) 0.5877(6) 0.3686(6)
C32 C 1.0261(12) 0.5914(6) 0.3917(5)
C33 C 0.9957(12) 0.5485(6) 0.4136(5)
N5 N 0.8973(9) 0.5406(4) 0.4189(4)
C34 C 0.9005(11) 0.4997(5) 0.4423(4)
C35 C 1.0346(11) 0.4472(5) 0.4739(4)
H11 H 1.1056 0.4374 0.4798
C36 C 0.9574(11) 0.4240(5) 0.4896(4)
O4 O 0.9813(7) 0.3855(4) 0.5162(3)
C37 C 0.9935(10) 0.3386(5) 0.5014(4)
C38 C 1.0851(11) 0.3284(6) 0.4871(4)
H12 H 1.1370 0.3537 0.4876
C39 C 1.1037(10) 0.2825(6) 0.4721(4)
O5 O 1.1951(7) 0.2733(4) 0.4578(3)
C40 C 1.2010(10) 0.2965(5) 0.4233(5)
C41 C 1.2315(9) 0.3461(5) 0.4210(5)
H13 H 1.2500 0.3652 0.4428
C42 C 1.2341(8) 0.3660(5) 0.3878(4)
C43 C 1.2713(13) 0.4981(5) 0.2591(5)
C44 C 1.2531(15) 0.4585(6) 0.2800(5)
C45 C 0.9103(12) 0.1853(5) 0.3437(5)
O6 O 0.8657(8) 0.1811(3) 0.3068(3)
C46 C 0.8380(13) 0.2248(5) 0.2877(5)
C47 C 0.7339(13) 0.2369(5) 0.2796(5)
C48 C 0.7010(16) 0.2753(5) 0.2593(5)
H14 H 0.6284 0.2807 0.2522
C49 C 0.7762(16) 0.3086(5) 0.2483(5)
N6 N 0.7748(15) 0.3525(5) 0.2277(5)
H15 H 0.7197 0.3682 0.2166
C50 C 0.877(2) 0.3656(7) 0.2285(7)
C51 C 0.905(2) 0.4119(8) 0.2089(8)
C52 C 0.969(2) 0.4963(9) 0.1773(9)
F13 F 0.7750(13) 0.4585(5) 0.2337(5)
F14 F 0.5826(15) 0.4844(6) 0.2084(5)
C53 C 0.5670(10) 0.4542(5) 0.3376(5)
N7 N 0.6031(9) 0.4982(5) 0.3238(4)
H16 H 0.6297 0.5238 0.3369
C54 C 0.5582(11) 0.4387(6) 0.3721(5)
H17 H 0.5801 0.4595 0.3927
C55 C 0.5176(9) 0.3929(5) 0.3771(4)
C56 C 0.6242(10) 0.2197(5) 0.3256(4)
C57 C 0.5550(10) 0.2576(5) 0.3243(4)
H18 H 0.5308 0.2727 0.3012
C58 C 0.7089(12) 0.1104(6) 0.3872(5)
C59 C 0.6074(15) 0.0827(7) 0.3688(6)
C60 C 0.577(2) 0.0408(9) 0.3950(8)
C61 C 0.5097(11) 0.2717(5) 0.4253(4)
H19 H 0.4426 0.2897 0.4177
C62 C 0.5858(10) 0.3097(5) 0.4444(4)
C63 C 0.7339(11) 0.3295(6) 0.4905(4)
C64 C 0.7170(11) 0.3802(6) 0.4826(4)
C65 C 0.6375(10) 0.3961(6) 0.4562(4)
H20 H 0.6252 0.4306 0.4513
C66 C 0.5753(10) 0.3588(6) 0.4368(4)
O7 O 0.4923(6) 0.3764(4) 0.4109(3)
O8 O 0.7791(8) 0.4167(4) 0.5031(3)
C67 C 0.8532(11) 0.4395(6) 0.4829(5)
C68 C 0.8216(12) 0.4767(6) 0.4594(4)
H21 H 0.7505 0.4868 0.4547
C69 C 0.8193(11) 0.3139(6) 0.5211(5)
H22 H 0.8345 0.3441 0.5370
C70 C 0.9398(10) 0.2557(6) 0.4901(4)
H23 H 0.8895 0.2303 0.4922
C71 C 1.0312(11) 0.2435(6) 0.4739(5)
C72 C 1.0500(12) 0.1952(6) 0.4561(5)
H24 H 1.1270 0.1923 0.4553
C73 C 1.0166(14) 0.1508(6) 0.4822(6)
C74 C 0.7875(12) 0.2735(6) 0.5465(5)
H25 H 0.8486 0.2624 0.5637
H26 H 0.7588 0.2444 0.5319
C75 C 0.7024(14) 0.2968(8) 0.5683(5)
H27 H 0.6416 0.3072 0.5507
H28 H 0.7313 0.3269 0.5817
C76 C 0.6654(15) 0.2586(9) 0.5969(6)
H29 H 0.6246 0.2315 0.5835
H30 H 0.7271 0.2436 0.6117
C77 C 0.5983(18) 0.2849(10) 0.6224(7)
H31 H 0.6394 0.3128 0.6346
H32 H 0.5371 0.2995 0.6070
C78 C 0.5595(19) 0.2537(11) 0.6515(7)
H33 H 0.6202 0.2369 0.6657
H34 H 0.5136 0.2274 0.6393
F15 F 0.6258(16) 0.5570(6) 0.1628(5)
C79 C 0.8787(16) 0.2976(6) 0.2575(6)
C80 C 0.9194(14) 0.2556(5) 0.2780(5)
H35 H 0.9918 0.2491 0.2844
N8 N 1.0649(9) 0.5154(4) 0.4309(3)
H36 H 1.1328 0.5142 0.4301
C81 C 0.9780(15) 0.6403(7) 0.3929(6)
C82 C 1.0112(16) 0.6749(7) 0.3723(6)
C83 C 0.434(2) 0.2558(12) 0.4886(8)
H37 H 0.4911 0.2717 0.5055
H38 H 0.3810 0.2814 0.4806
C84 C 0.500(2) 0.2810(12) 0.6786(8)
H39 H 0.4779 0.2572 0.6965
H40 H 0.5450 0.3065 0.6916
H41 H 0.4381 0.2970 0.6651
C85 C 0.388(2) 0.2156(12) 0.5071(9)
H42 H 0.4428 0.1912 0.5167
H43 H 0.3350 0.1983 0.4898
C86 C 0.337(3) 0.2394(14) 0.5402(10)
H44 H 0.3915 0.2570 0.5567
H45 H 0.2848 0.2646 0.5299
C87 C 1.035(2) 0.4559(8) 0.1774(8)
C88 C 1.002(2) 0.4158(9) 0.1949(9)
C89 C 0.860(2) 0.4557(8) 0.2132(9)
C90 C 0.891(2) 0.4985(8) 0.1990(8)
C91 C 0.6045(13) 0.5290(6) 0.2231(5)
C92 C 0.6252(14) 0.5653(6) 0.1991(5)
C93 C 0.647(3) -0.0040(13) 0.3924(12)
C94 C 0.6537(10) 0.6118(6) 0.2101(5)
C95 C 0.6103(10) 0.5363(5) 0.2603(5)
C96 C 0.282(4) 0.2026(19) 0.5633(13)
H46 H 0.2184 0.1898 0.5484
H47 H 0.3294 0.1740 0.5700
C97 C 0.254(3) 0.2262(17) 0.5974(10)
H48 H 0.2194 0.2016 0.6116
H49 H 0.3174 0.2384 0.6123
H50 H 0.2065 0.2542 0.5908
F16 F 1.4041(8) 0.5770(3) 0.3294(3)
C98 C 1.050(3) 0.1000(12) 0.4704(11)
H51? H 0.4560 0.2442 0.4712
H52? H 0.5510 0.2127 0.4587
F17? F 0.669(2) 0.4747(8) 0.2192(8)
C99? C 0.6512(14) 0.5241(8) 0.2278(5)
C100? C 0.6708(15) 0.5615(7) 0.2040(6)
F18? F 0.709(3) 0.5454(10) 0.1718(7)
C101? C 0.6192(16) 0.6193(9) 0.2426(6)
F19? F 0.605(2) 0.6673(8) 0.2490(8)
F20? F 0.564(2) 0.5972(9) 0.2980(7)
C102? C 0.5989(17) 0.5846(6) 0.2670(6)
C103? C 0.402(3) 0.1902(13) 0.4285(11)
H53? H 0.3381 0.2087 0.4191
H54? H 0.4328 0.1773 0.4068
C104? C 0.311(4) 0.1048(15) 0.4318(13)
H55? H 0.3441 0.0946 0.4098
H56? H 0.2396 0.1164 0.4231
C105? C 0.371(3) 0.1469(13) 0.4497(12)
H57? H 0.4360 0.1328 0.4631
H58? H 0.3299 0.1602 0.4687
C106? C 0.305(4) 0.061(2) 0.4558(17)
H59? H 0.3193 0.0305 0.4418
H60? H 0.3595 0.0635 0.4773
C107? C 0.202(5) 0.055(3) 0.4696(19)
H61? H 0.2036 0.0250 0.4852
H62? H 0.1876 0.0842 0.4840
H63? H 0.1475 0.0512 0.4485
C108? C 1.080(4) 0.150(2) 0.5157(16)
H82? H 0.7774 0.1137 0.5176
H83? H 0.6818 0.0980 0.4879
C115? C 0.642(3) 0.1328(19) 0.5303(10)
H84? H 0.6347 0.1017 0.5438
H85? H 0.6700 0.1589 0.5476
H86? H 0.5739 0.1431 0.5178
loop_
_geom_bond_atom_site_label_1
_geom_bond_atom_site_label_2
_geom_bond_site_symmetry_1
_geom_bond_site_symmetry_2
I1 C9 1_555 1_555
I2 C29 1_555 1_555
I3 C52 1_555 1_555
I4 C94 1_555 1_555
F1 C30 1_555 1_555
F2 C31 1_555 1_555
F3 C4 1_555 1_555
F4 C43 1_555 1_555
F5 C44 1_555 1_555
F6 C87 1_555 1_555
F7 C88 1_555 1_555
F8 C27 1_555 1_555
C1 C37 1_555 1_555
C2 H1 1_555 1_555
H2 C2 1_555 1_555
F9 C82 1_555 1_555
F10 C81 1_555 1_555
N1 C12 1_555 1_555
O1 C47 1_555 1_555
C3 H3 1_555 1_555
C4 C10 1_555 1_555
C5 N3 1_555 1_555
C6 C13 1_555 1_555
C7 C34 1_555 1_555
F11 C90 1_555 1_555
N2 C50 1_555 1_555
C8 H4 1_555 1_555
C9 C10 1_555 1_555
C10 F16 1_555 1_555
C11 C4 1_555 1_555
C12 C11 1_555 1_555
N3 C12 1_555 1_555
H5 N3 1_555 1_555
C13 C5 1_555 1_555
H6 C13 1_555 1_555
O2 C6 1_555 1_555
C14 C8 1_555 1_555
C15 C14 1_555 1_555
C16 C15 1_555 1_555
H7 C16 1_555 1_555
C17 C16 1_555 1_555
C18 C17 1_555 1_555
H8 C18 1_555 1_555
C19 C18 1_555 1_555
C20 C19 1_555 1_555
H9 C20 1_555 1_555
C21 C20 1_555 1_555
C22 C21 1_555 1_555
O3 C22 1_555 1_555
C23 O3 1_555 1_555
C24 C23 1_555 1_555
H10 C24 1_555 1_555
C25 C24 1_555 1_555
N4 C25 1_555 1_555
C26 N4 1_555 1_555
C27 C28 1_555 1_555
C28 F12 1_555 1_555
C29 C30 1_555 1_555
C30 C31 1_555 1_555
C31 C32 1_555 1_555
C32 C33 1_555 1_555
C33 N5 1_555 1_555
N5 C34 1_555 1_555
C34 C68 1_555 1_555
C35 C7 1_555 1_555
H11 C35 1_555 1_555
C36 C35 1_555 1_555
O4 C36 1_555 1_555
C37 O4 1_555 1_555
C38 C37 1_555 1_555
H12 C38 1_555 1_555
C39 C38 1_555 1_555
O5 C39 1_555 1_555
C40 C6 1_555 1_555
C41 C40 1_555 1_555
H13 C41 1_555 1_555
C42 N1 1_555 1_555
C43 C9 1_555 1_555
C44 C11 1_555 1_555
C45 C8 1_555 1_555
O6 C45 1_555 1_555
C46 O6 1_555 1_555
C47 C46 1_555 1_555
C48 C47 1_555 1_555
H14 C48 1_555 1_555
C49 C48 1_555 1_555
N6 C49 1_555 1_555
H15 N6 1_555 1_555
C50 N6 1_555 1_555
C51 C50 1_555 1_555
C52 C87 1_555 1_555
F13 C89 1_555 1_555
F14 C91 1_555 1_555
C53 C25 1_555 1_555
N7 C26 1_555 1_555
H16 N7 1_555 1_555
C54 C53 1_555 1_555
H17 C54 1_555 1_555
C55 C23 1_555 1_555
C56 O1 1_555 1_555
C57 C22 1_555 1_555
H18 C57 1_555 1_555
C58 C18 1_555 1_555
C59 C58 1_555 1_555
C60 C59 1_555 1_555
C61 C2 1_555 1_555
H19 C61 1_555 1_555
C62 C3 1_555 1_555
C63 C3 1_555 1_555
C64 C63 1_555 1_555
C65 C64 1_555 1_555
H20 C65 1_555 1_555
C66 C62 1_555 1_555
O7 C55 1_555 1_555
O8 C64 1_555 1_555
C67 C36 1_555 1_555
C68 C67 1_555 1_555
H21 C68 1_555 1_555
C69 C1 1_555 1_555
H22 C69 1_555 1_555
C70 C1 1_555 1_555
H23 C70 1_555 1_555
C71 C39 1_555 1_555
C72 C15 1_555 1_555
H24 C72 1_555 1_555
C73 C72 1_555 1_555
C74 C69 1_555 1_555
H25 C74 1_555 1_555
H26 C74 1_555 1_555
C75 C74 1_555 1_555
H27 C75 1_555 1_555
H28 C75 1_555 1_555
C76 C75 1_555 1_555
H29 C76 1_555 1_555
H30 C76 1_555 1_555
C77 C76 1_555 1_555
H31 C77 1_555 1_555
H32 C77 1_555 1_555
C78 C77 1_555 1_555
H33 C78 1_555 1_555
H34 C78 1_555 1_555
F15 C92 1_555 1_555
C79 N2 1_555 1_555
C80 C46 1_555 1_555
H35 C80 1_555 1_555
N8 C7 1_555 1_555
H36 N8 1_555 1_555
C81 C32 1_555 1_555
C82 C29 1_555 1_555
C83 C2 1_555 1_555
H37 C83 1_555 1_555
H38 C83 1_555 1_555
C84 C78 1_555 1_555
H39 C84 1_555 1_555
H40 C84 1_555 1_555
H41 C84 1_555 1_555
C85 C83 1_555 1_555
H42 C85 1_555 1_555
H43 C85 1_555 1_555
C86 C85 1_555 1_555
H44 C86 1_555 1_555
H45 C86 1_555 1_555
C87 C88 1_555 1_555
C88 C51 1_555 1_555
C89 C51 1_555 1_555
C90 C52 1_555 1_555
C91 C92 1_555 1_555
C92 C94 1_555 1_555
C93 C60 1_555 1_555
C94 C28 1_555 1_555
C95 C26 1_555 1_555
C96 C86 1_555 1_555
H46 C96 1_555 1_555
H47 C96 1_555 1_555
C97 C96 1_555 1_555
H48 C97 1_555 1_555
H49 C97 1_555 1_555
H50 C97 1_555 1_555
C98 C73 1_555 1_555
O9 H64 1_555 1_555
C109 O9 1_555 1_555
H65 C109 1_555 1_555
H66 C109 1_555 1_555
C110 C109 1_555 1_555
H67 C110 1_555 1_555
H68 C110 1_555 1_555
H69 C110 1_555 1_555
O10 H70 1_555 1_555
C111 O10 1_555 1_555
H71 C111 1_555 1_555
H72 C111 1_555 1_555
C112 C111 1_555 1_555
H73 C112 1_555 1_555
H74 C112 1_555 1_555
H75 C112 1_555 1_555
O11 H76 1_555 1_555
C113 O11 1_555 1_555
H77 C113 1_555 1_555
H78 C113 1_555 1_555
C114 C113 1_555 1_555
H79 C114 1_555 1_555
H80 C114 1_555 1_555
H81 C114 1_555 1_555
C116 H87 1_555 1_555
C117 C116 1_555 1_555
H88 C117 1_555 1_555
C118 C117 1_555 1_555
H89 C118 1_555 1_555
C119 C118 1_555 1_555
H90 C119 1_555 1_555
C120 C119 1_555 1_555
H91 C120 1_555 1_555
C121 C116 1_555 1_555
H92 C121 1_555 1_555
O12 H93 1_555 1_555
C122 O12 1_555 1_555
H94 C122 1_555 1_555
H95 C122 1_555 1_555
C123 C122 1_555 1_555
H96 C123 1_555 1_555
H97 C123 1_555 1_555
H98 C123 1_555 1_555
C124 H99 1_555 1_555
C125 C124 1_555 1_555
H100 C125 1_555 1_555
C126 C125 1_555 1_555
H101 C126 1_555 1_555
C127 C126 1_555 1_555
H102 C127 1_555 1_555
C128 C127 1_555 1_555
H103 C128 1_555 1_555
C129 C124 1_555 1_555
H104 C129 1_555 1_555
O13 H105 1_555 1_555
C130 O13 1_555 1_555
H106 C130 1_555 1_555
H107 C130 1_555 1_555
C131 C130 1_555 1_555
H108 C131 1_555 1_555
H109 C131 1_555 1_555
H110 C131 1_555 1_555
O14 H111 1_555 1_555
H112 O14 1_555 1_555
C5 C42 1_555 1_555
O2 C14 1_555 1_555
C17 C45 1_555 1_555
C19 C56 1_555 1_555
C21 C61 1_555 1_555
C27 C95 1_555 1_555
C33 N8 1_555 1_555
O5 C40 1_555 1_555
C41 C42 1_555 1_555
C43 C44 1_555 1_555
C49 C79 1_555 1_555
C53 N7 1_555 1_555
C54 C55 1_555 1_555
C56 C57 1_555 1_555
C61 C62 1_555 1_555
C63 C69 1_555 1_555
C65 C66 1_555 1_555
C66 O7 1_555 1_555
O8 C67 1_555 1_555
C70 C71 1_555 1_555
C71 C72 1_555 1_555
C79 C80 1_555 1_555
C81 C82 1_555 1_555
C89 C90 1_555 1_555
C91 C95 1_555 1_555
C120 C121 1_555 1_555
C128 C129 1_555 1_555

#END
