
#######################################################################
#
#                 Cambridge Crystallographic Data Centre
#                                CCDC 
#
#######################################################################
#
# If this CIF has been generated from an entry in the Cambridge 
# Structural Database, then it will include bibliographic, chemical, 
# crystal, experimental, refinement or atomic coordinate data resulting 
# from the CCDC's data processing and validation procedures.
#
#######################################################################

data_WUKMIA
_chemical_formula_moiety         'C20 H12 F4 N2'
_chemical_name_systematic        
N,N'-(2,3,5,6-tetrafluoro-1,4-phenylene)bis(1-phenylmethanimine)
_symmetry_cell_setting           monoclinic
_symmetry_space_group_name_H-M   'P 21/c'
_symmetry_Int_Tables_number      14
_space_group_name_Hall           '-P 2ybc'
loop_
_symmetry_equiv_pos_site_id
_symmetry_equiv_pos_as_xyz
1 x,y,z
2 -x,1/2+y,1/2-z
3 -x,-y,-z
4 x,1/2-y,1/2+z
_cell_length_a                   16.353(3)
_cell_length_b                   4.1114(7)
_cell_length_c                   11.984(2)
_cell_angle_alpha                90
_cell_angle_beta                 100.583(3)
_cell_angle_gamma                90
_cell_volume                     792.023
_exptl_crystal_colour            colorless
_exptl_crystal_description       prismatic
_cell_formula_units_Z            2
loop_
_atom_site_label
_atom_site_type_symbol
_atom_site_fract_x
_atom_site_fract_y
_atom_site_fract_z
F1 F 1.01748(5) 1.4133(2) 0.67798(7)
F2 F 0.86760(5) 1.1997(2) 0.58791(7)
N1 N 0.83838(7) 0.7752(3) 0.40700(10)
C1 C 1.01072(9) 1.2009(3) 0.59184(11)
C2 C 0.93264(8) 1.0974(4) 0.54289(11)
C3 C 0.91887(8) 0.8936(3) 0.44911(11)
C4 C 0.81218(9) 0.7780(4) 0.30039(12)
H1 H 0.8454 0.8706 0.2538
C5 C 0.73200(9) 0.6415(4) 0.24848(12)
C6 C 0.70759(10) 0.6610(5) 0.13174(14)
H2 H 0.7420 0.7611 0.0883
C7 C 0.63228(11) 0.5319(5) 0.07991(15)
H3 H 0.6160 0.5455 0.0015
C8 C 0.58149(11) 0.3841(5) 0.14348(18)
H4 H 0.5309 0.2969 0.1081
C9 C 0.60518(10) 0.3638(5) 0.26031(17)
H5 H 0.5703 0.2651 0.3034
C10 C 0.68025(9) 0.4896(4) 0.31243(13)
H6 H 0.6965 0.4731 0.3908
F1B F 0.98252(5) 0.5867(2) 0.32202(7)
F2B F 1.13240(5) 0.8003(2) 0.41209(7)
N1B N 1.16162(7) 1.2248(3) 0.59300(10)
C1B C 0.98928(9) 0.7991(3) 0.40816(11)
C2B C 1.06736(8) 0.9026(4) 0.45711(11)
C3B C 1.08113(8) 1.1064(3) 0.55089(11)
C4B C 1.18782(9) 1.2220(4) 0.69961(12)
H1B H 1.1546 1.1294 0.7462
C5B C 1.26800(9) 1.3585(4) 0.75152(12)
C6B C 1.29241(10) 1.3390(5) 0.86826(14)
H2B H 1.2580 1.2389 0.9117
C7B C 1.36772(11) 1.4681(5) 0.92009(15)
H3B H 1.3840 1.4545 0.9985
C8B C 1.41851(11) 1.6159(5) 0.85652(18)
H4B H 1.4691 1.7031 0.8919
C9B C 1.39482(10) 1.6362(5) 0.73969(17)
H5B H 1.4297 1.7349 0.6966
C10B C 1.31975(9) 1.5104(4) 0.68757(13)
H6B H 1.3035 1.5269 0.6092
loop_
_geom_bond_atom_site_label_1
_geom_bond_atom_site_label_2
_geom_bond_site_symmetry_1
_geom_bond_site_symmetry_2
F1 C1 1_555 1_555
F2 C2 1_555 1_555
N1 C3 1_555 1_555
C1 C2 1_555 1_555
C2 C3 1_555 1_555
C3 C1B 1_555 1_555
C4 N1 1_555 1_555
H1 C4 1_555 1_555
C5 C4 1_555 1_555
C6 C5 1_555 1_555
H2 C6 1_555 1_555
C7 C6 1_555 1_555
H3 C7 1_555 1_555
C8 C7 1_555 1_555
H4 C8 1_555 1_555
C9 C8 1_555 1_555
H5 C9 1_555 1_555
C10 C5 1_555 1_555
H6 C10 1_555 1_555
F1B C1B 1_555 1_555
F2B C2B 1_555 1_555
N1B C3B 1_555 1_555
C1B C2B 1_555 1_555
C2B C3B 1_555 1_555
C3B C1 1_555 1_555
C4B N1B 1_555 1_555
H1B C4B 1_555 1_555
C5B C4B 1_555 1_555
C6B C5B 1_555 1_555
H2B C6B 1_555 1_555
C7B C6B 1_555 1_555
H3B C7B 1_555 1_555
C8B C7B 1_555 1_555
H4B C8B 1_555 1_555
C9B C8B 1_555 1_555
H5B C9B 1_555 1_555
C10B C5B 1_555 1_555
H6B C10B 1_555 1_555
C9 C10 1_555 1_555
C9B C10B 1_555 1_555

#END
