
#######################################################################
#
#                 Cambridge Crystallographic Data Centre
#                                CCDC 
#
#######################################################################
#
# If this CIF has been generated from an entry in the Cambridge 
# Structural Database, then it will include bibliographic, chemical, 
# crystal, experimental, refinement or atomic coordinate data resulting 
# from the CCDC's data processing and validation procedures.
#
#######################################################################

data_WUKNOH
_chemical_formula_moiety         'C13 H7 F4 N1 O1'
_chemical_name_systematic        
2-((2,3,5,6-tetrafluorophenyl)carbonoimidoyl)phenol
_symmetry_cell_setting           orthorhombic
_symmetry_space_group_name_H-M   'P 21 21 21'
_symmetry_Int_Tables_number      19
_space_group_name_Hall           'P 2ac 2ab'
loop_
_symmetry_equiv_pos_site_id
_symmetry_equiv_pos_as_xyz
1 x,y,z
2 1/2-x,-y,1/2+z
3 1/2+x,1/2-y,-z
4 -x,1/2+y,1/2-z
_cell_length_a                   5.9626(19)
_cell_length_b                   7.682(2)
_cell_length_c                   24.303(8)
_cell_angle_alpha                90
_cell_angle_beta                 90
_cell_angle_gamma                90
_cell_volume                     1113.19
_exptl_crystal_colour            'pale yellow'
_exptl_crystal_description       block
_cell_formula_units_Z            4
loop_
_atom_site_label
_atom_site_type_symbol
_atom_site_fract_x
_atom_site_fract_y
_atom_site_fract_z
F1 F 0.1303(4) 1.0879(3) 0.81385(8)
F2 F 0.0334(4) 1.0863(4) 0.92136(9)
F3 F 0.7104(5) 0.8007(4) 0.95875(10)
F4 F 0.8089(4) 0.8029(3) 0.85128(9)
O1 O 0.8450(4) 1.0372(4) 0.70145(10)
H1 H 0.7923 1.0247 0.7324
N1 N 0.5408(5) 0.9519(4) 0.77490(12)
C1 C 0.6953(6) 0.9838(5) 0.66388(15)
C2 C 0.7538(7) 0.9961(6) 0.60877(15)
H2 H 0.8920 1.0424 0.5987
C3 C 0.6056(8) 0.9392(6) 0.56883(16)
H3 H 0.6466 0.9456 0.5320
C4 C 0.3971(8) 0.8729(6) 0.58277(16)
H4 H 0.2986 0.8344 0.5557
C5 C 0.3388(7) 0.8652(5) 0.63763(15)
H5 H 0.1987 0.8214 0.6472
C6 C 0.4817(6) 0.9203(5) 0.67882(15)
C7 C 0.4118(6) 0.9087(5) 0.73495(14)
H6 H 0.2682 0.8685 0.7428
C8 C 0.4727(6) 0.9422(5) 0.82928(13)
C9 C 0.6149(6) 0.8725(5) 0.86826(16)
C10 C 0.5617(8) 0.8716(6) 0.92267(17)
C11 C 0.3673(8) 0.9431(6) 0.94186(16)
H7 H 0.3327 0.9434 0.9792
C12 C 0.2270(7) 1.0135(6) 0.90402(17)
C13 C 0.2715(6) 1.0141(5) 0.84940(14)
loop_
_geom_bond_atom_site_label_1
_geom_bond_atom_site_label_2
_geom_bond_site_symmetry_1
_geom_bond_site_symmetry_2
F1 C13 1_555 1_555
F2 C12 1_555 1_555
F3 C10 1_555 1_555
F4 C9 1_555 1_555
O1 H1 1_555 1_555
N1 C7 1_555 1_555
C1 O1 1_555 1_555
C2 C1 1_555 1_555
H2 C2 1_555 1_555
C3 C2 1_555 1_555
H3 C3 1_555 1_555
C4 C3 1_555 1_555
H4 C4 1_555 1_555
C5 C4 1_555 1_555
H5 C5 1_555 1_555
C6 C1 1_555 1_555
C7 C6 1_555 1_555
H6 C7 1_555 1_555
C8 N1 1_555 1_555
C9 C8 1_555 1_555
C10 C9 1_555 1_555
C11 C10 1_555 1_555
H7 C11 1_555 1_555
C12 C11 1_555 1_555
C13 C8 1_555 1_555
C5 C6 1_555 1_555
C12 C13 1_555 1_555

#END
