
#######################################################################
#
#                 Cambridge Crystallographic Data Centre
#                                CCDC 
#
#######################################################################
#
# If this CIF has been generated from an entry in the Cambridge 
# Structural Database, then it will include bibliographic, chemical, 
# crystal, experimental, refinement or atomic coordinate data resulting 
# from the CCDC's data processing and validation procedures.
#
#######################################################################

data_WUKNIB
_chemical_formula_moiety         'C13 H7 F4 N1 O1'
_chemical_name_systematic        
2-((2,3,5,6-tetrafluorobenzylidene)amino)phenol
_symmetry_cell_setting           triclinic
_symmetry_space_group_name_H-M   'P -1'
_symmetry_Int_Tables_number      2
_space_group_name_Hall           '-P 1'
loop_
_symmetry_equiv_pos_site_id
_symmetry_equiv_pos_as_xyz
1 x,y,z
2 -x,-y,-z
_cell_length_a                   6.3852(13)
_cell_length_b                   7.3876(15)
_cell_length_c                   12.161(2)
_cell_angle_alpha                73.210(3)
_cell_angle_beta                 89.281(4)
_cell_angle_gamma                84.066(4)
_cell_volume                     546.162
_exptl_crystal_colour            yellow
_exptl_crystal_description       block
_cell_formula_units_Z            2
loop_
_atom_site_label
_atom_site_type_symbol
_atom_site_fract_x
_atom_site_fract_y
_atom_site_fract_z
F1 F -0.1858(2) 0.8059(2) 0.68327(11)
F2 F -0.0922(3) 0.7264(2) 0.90268(12)
F3 F 0.5874(2) 0.4687(3) 0.84089(13)
F4 F 0.4961(2) 0.5462(2) 0.61903(12)
O1 O -0.4527(3) 0.9176(3) 0.40676(14)
H1 H -0.3883 0.8957 0.4679
N1 N -0.0672(3) 0.7755(3) 0.47461(14)
C1 C -0.3195(4) 0.8871(3) 0.32593(19)
C2 C -0.3870(4) 0.9311(4) 0.2129(2)
H2 H -0.5250 0.9822 0.1921
C3 C -0.2500(4) 0.8991(4) 0.1323(2)
H3 H -0.2960 0.9280 0.0563
C4 C -0.0438(4) 0.8246(4) 0.1612(2)
H4 H 0.0479 0.8039 0.1050
C5 C 0.0251(4) 0.7813(4) 0.2734(2)
H5 H 0.1638 0.7313 0.2933
C6 C -0.1117(4) 0.8120(3) 0.35619(18)
C7 C 0.1098(3) 0.7164(3) 0.51850(18)
H6 H 0.2199 0.6950 0.4715
C8 C 0.1527(3) 0.6788(3) 0.64184(18)
C9 C 0.0062(4) 0.7225(3) 0.71742(19)
C10 C 0.0562(4) 0.6813(4) 0.83304(19)
C11 C 0.2503(4) 0.5980(4) 0.8757(2)
H7 H 0.2828 0.5716 0.9534
C12 C 0.3948(4) 0.5546(4) 0.8023(2)
C13 C 0.3482(4) 0.5941(3) 0.68693(19)
loop_
_geom_bond_atom_site_label_1
_geom_bond_atom_site_label_2
_geom_bond_site_symmetry_1
_geom_bond_site_symmetry_2
F1 C9 1_555 1_555
F2 C10 1_555 1_555
F3 C12 1_555 1_555
F4 C13 1_555 1_555
O1 H1 1_555 1_555
N1 C6 1_555 1_555
C1 O1 1_555 1_555
C2 C1 1_555 1_555
H2 C2 1_555 1_555
C3 C2 1_555 1_555
H3 C3 1_555 1_555
C4 C3 1_555 1_555
H4 C4 1_555 1_555
C5 C4 1_555 1_555
H5 C5 1_555 1_555
C6 C1 1_555 1_555
C7 N1 1_555 1_555
H6 C7 1_555 1_555
C8 C7 1_555 1_555
C9 C8 1_555 1_555
C10 C9 1_555 1_555
C11 C10 1_555 1_555
H7 C11 1_555 1_555
C12 C11 1_555 1_555
C13 C8 1_555 1_555
C5 C6 1_555 1_555
C12 C13 1_555 1_555

#END
