
#######################################################################
#
#                 Cambridge Crystallographic Data Centre
#                                CCDC 
#
#######################################################################
#
# If this CIF has been generated from an entry in the Cambridge 
# Structural Database, then it will include bibliographic, chemical, 
# crystal, experimental, refinement or atomic coordinate data resulting 
# from the CCDC's data processing and validation procedures.
#
#######################################################################

data_WUKRIF
_chemical_formula_moiety         'C18 H12 O6'
_chemical_name_systematic        
"(3R*,4S*)-1,1'-Dioxo-1,1',4,4'-tetrahydro-3,3'-spirobi[isochromene]-4-carboxylic acid"
_symmetry_cell_setting           triclinic
_symmetry_space_group_name_H-M   'P -1'
_symmetry_Int_Tables_number      2
_space_group_name_Hall           '-P 1'
loop_
_symmetry_equiv_pos_site_id
_symmetry_equiv_pos_as_xyz
1 x,y,z
2 -x,-y,-z
_cell_length_a                   5.4836(7)
_cell_length_b                   10.7868(12)
_cell_length_c                   24.764(5)
_cell_angle_alpha                94.967(11)
_cell_angle_beta                 92.424(7)
_cell_angle_gamma                98.014(5)
_cell_volume                     1442.85
_exptl_crystal_colour            colorless
_exptl_crystal_description       needle
_chemical_melting_point          '159-163 deg.C'
_cell_formula_units_Z            4
_exptl_crystal_recrystallization_method propionitrile
loop_
_atom_site_label
_atom_site_type_symbol
_atom_site_fract_x
_atom_site_fract_y
_atom_site_fract_z
O1 O 0.376(3) 0.1820(14) 0.4021(5)
O2 O 0.185(3) 0.0036(12) 0.4235(5)
O3 O 0.330(3) -0.3202(13) 0.3184(5)
O4 O 0.194(3) -0.1639(12) 0.3642(5)
O5 O 0.447(3) -0.2122(15) 0.4647(6)
O6 O 0.239(3) -0.1519(14) 0.5357(5)
H1 H 0.3540 -0.1768 0.5534
C1 C 0.044(4) -0.1141(18) 0.4031(7)
C2 C 0.207(4) 0.0973(19) 0.3914(7)
C3 C 0.032(4) 0.0936(18) 0.3464(7)
C4 C 0.051(4) 0.1858(19) 0.3110(7)
H2 H 0.1923 0.2485 0.3149
C5 C -0.123(4) 0.191(2) 0.2708(8)
H3 H -0.1083 0.2573 0.2478
C6 C -0.318(4) 0.0972(19) 0.2648(7)
H4 H -0.4415 0.0985 0.2368
C7 C -0.343(4) 0.0061(19) 0.2960(7)
H5 H -0.4809 -0.0584 0.2898
C8 C -0.168(4) 0.0014(18) 0.3392(7)
C9 C -0.202(4) -0.0999(18) 0.3783(7)
H6 H -0.3112 -0.0762 0.4071
H7 H -0.2789 -0.1807 0.3587
C10 C 0.187(4) -0.292(2) 0.3521(7)
C11 C 0.021(4) -0.370(2) 0.3833(7)
C12 C -0.035(4) -0.495(2) 0.3613(8)
H8 H 0.0229 -0.5253 0.3277
C13 C -0.177(5) -0.568(2) 0.3922(8)
H9 H -0.2127 -0.6549 0.3794
C14 C -0.271(4) -0.535(2) 0.4375(8)
H10 H -0.3758 -0.5948 0.4549
C15 C -0.220(4) -0.416(2) 0.4596(8)
H11 H -0.2835 -0.3896 0.4931
C16 C -0.068(4) -0.3302(19) 0.4308(7)
C17 C 0.012(4) -0.1937(19) 0.4490(7)
H12 H -0.1179 -0.1636 0.4719
C18 C 0.250(4) -0.186(2) 0.4855(8)
O7 O 0.424(3) 0.7280(13) 0.0960(5)
O8 O 0.227(3) 0.5335(12) 0.0770(5)
O9 O 0.405(3) 0.2555(13) 0.1843(5)
O10 O 0.264(3) 0.3979(12) 0.1370(5)
O11 O 0.462(3) 0.3039(13) 0.0356(5)
O12 O 0.221(3) 0.3322(12) -0.0345(5)
H13 H 0.3483 0.3206 -0.0509
C19 C 0.098(4) 0.4281(19) 0.0971(7)
C20 C 0.266(4) 0.6433(19) 0.1080(7)
C21 C 0.109(4) 0.6617(18) 0.1511(7)
C22 C 0.149(4) 0.7663(19) 0.1876(7)
H14 H 0.2920 0.8254 0.1840
C23 C 0.001(4) 0.7923(19) 0.2283(7)
H15 H 0.0315 0.8698 0.2504
C24 C -0.193(4) 0.7035(18) 0.2364(7)
H16 H -0.2987 0.7162 0.2652
C25 C -0.231(4) 0.5984(19) 0.2027(7)
H17 H -0.3647 0.5353 0.2081
C26 C -0.086(4) 0.5791(19) 0.1615(7)
C27 C -0.123(4) 0.4611(19) 0.1209(7)
H18 H -0.1996 0.3892 0.1396
H19 H -0.2412 0.4740 0.0912
C28 C 0.262(4) 0.2791(19) 0.1497(8)
C29 C 0.077(4) 0.1779(19) 0.1191(8)
C30 C 0.026(4) 0.0596(19) 0.1375(8)
H20 H 0.1014 0.0423 0.1706
C31 C -0.133(4) -0.031(2) 0.1080(8)
H21 H -0.1691 -0.1117 0.1206
C32 C -0.240(4) -0.007(2) 0.0613(8)
H22 H -0.3539 -0.0711 0.0417
C33 C -0.193(4) 0.1069(19) 0.0405(8)
H23 H -0.2623 0.1196 0.0060
C34 C -0.035(4) 0.207(2) 0.0724(8)
C35 C 0.039(4) 0.3303(19) 0.0492(7)
H24 H -0.0982 0.3511 0.0252
C36 C 0.261(4) 0.3211(19) 0.0186(8)
loop_
_geom_bond_atom_site_label_1
_geom_bond_atom_site_label_2
_geom_bond_site_symmetry_1
_geom_bond_site_symmetry_2
O1 C2 1_555 1_555
O2 C1 1_555 1_555
O3 C10 1_555 1_555
O4 C1 1_555 1_555
O5 C18 1_555 1_555
O6 H1 1_555 1_555
C1 C9 1_555 1_555
C2 O2 1_555 1_555
C3 C2 1_555 1_555
C4 C3 1_555 1_555
H2 C4 1_555 1_555
C5 C4 1_555 1_555
H3 C5 1_555 1_555
C6 C5 1_555 1_555
H4 C6 1_555 1_555
C7 C6 1_555 1_555
H5 C7 1_555 1_555
C8 C3 1_555 1_555
C9 C8 1_555 1_555
H6 C9 1_555 1_555
H7 C9 1_555 1_555
C10 O4 1_555 1_555
C11 C10 1_555 1_555
C12 C11 1_555 1_555
H8 C12 1_555 1_555
C13 C12 1_555 1_555
H9 C13 1_555 1_555
C14 C13 1_555 1_555
H10 C14 1_555 1_555
C15 C14 1_555 1_555
H11 C15 1_555 1_555
C16 C11 1_555 1_555
C17 C1 1_555 1_555
H12 C17 1_555 1_555
C18 O6 1_555 1_555
O7 C20 1_555 1_555
O8 C19 1_555 1_555
O9 C28 1_555 1_555
O10 C19 1_555 1_555
O11 C36 1_555 1_555
O12 H13 1_555 1_555
C19 C27 1_555 1_555
C20 O8 1_555 1_555
C21 C20 1_555 1_555
C22 C21 1_555 1_555
H14 C22 1_555 1_555
C23 C22 1_555 1_555
H15 C23 1_555 1_555
C24 C23 1_555 1_555
H16 C24 1_555 1_555
C25 C24 1_555 1_555
H17 C25 1_555 1_555
C26 C21 1_555 1_555
C27 C26 1_555 1_555
H18 C27 1_555 1_555
H19 C27 1_555 1_555
C28 O10 1_555 1_555
C29 C28 1_555 1_555
C30 C29 1_555 1_555
H20 C30 1_555 1_555
C31 C30 1_555 1_555
H21 C31 1_555 1_555
C32 C31 1_555 1_555
H22 C32 1_555 1_555
C33 C32 1_555 1_555
H23 C33 1_555 1_555
C34 C29 1_555 1_555
C35 C19 1_555 1_555
H24 C35 1_555 1_555
C36 O12 1_555 1_555
C7 C8 1_555 1_555
C15 C16 1_555 1_555
C16 C17 1_555 1_555
C17 C18 1_555 1_555
C25 C26 1_555 1_555
C33 C34 1_555 1_555
C34 C35 1_555 1_555
C35 C36 1_555 1_555

#END
