
#######################################################################
#
#                 Cambridge Crystallographic Data Centre
#                                CCDC 
#
#######################################################################
#
# If this CIF has been generated from an entry in the Cambridge 
# Structural Database, then it will include bibliographic, chemical, 
# crystal, experimental, refinement or atomic coordinate data resulting 
# from the CCDC's data processing and validation procedures.
#
#######################################################################

data_WUKSEB
_chemical_formula_moiety         'C22 H23 N1 O2'
_chemical_name_systematic        
(3R,4S,5aR,10aR)-1',4-Dimethyl-1,4,5,5a,10,10a-hexahydrospiro[indeno[2,1-c]oxepine-3,3'-indol]-2'(1'H)-one
_symmetry_cell_setting           orthorhombic
_symmetry_space_group_name_H-M   'P 21 21 21'
_symmetry_Int_Tables_number      19
_space_group_name_Hall           'P 2ac 2ab'
loop_
_symmetry_equiv_pos_site_id
_symmetry_equiv_pos_as_xyz
1 x,y,z
2 1/2-x,-y,1/2+z
3 -x,1/2+y,1/2-z
4 1/2+x,1/2-y,-z
_cell_length_a                   6.7633(2)
_cell_length_b                   10.5401(4)
_cell_length_c                   24.4877(9)
_cell_angle_alpha                90
_cell_angle_beta                 90
_cell_angle_gamma                90
_cell_volume                     1745.63
_exptl_crystal_colour            colorless
_exptl_crystal_description       parallelepiped
_chemical_melting_point          '178.0-180.0 deg.C'
_cell_formula_units_Z            4
_exptl_crystal_recrystallization_method dichloromethane/hexanes
loop_
_atom_site_label
_atom_site_type_symbol
_atom_site_fract_x
_atom_site_fract_y
_atom_site_fract_z
O1 O 0.47781(13) 0.67323(9) 0.15047(3)
O2 O 0.66961(15) 0.91124(11) 0.10317(4)
N1 N 0.51483(17) 0.97152(11) 0.18219(5)
C1 C 0.57720(19) 0.61031(13) 0.10603(5)
H1 H 0.698(2) 0.5670(15) 0.1224(6)
H2 H 0.626(2) 0.6766(15) 0.0791(6)
C2 C 0.44807(19) 0.51023(13) 0.08003(5)
H3 H 0.532(2) 0.4675(14) 0.0524(6)
C3 C 0.3742(2) 0.40826(13) 0.12035(6)
H4 H 0.334(2) 0.4472(16) 0.1576(7)
H5 H 0.480(3) 0.3446(16) 0.1248(7)
C4 C 0.1925(2) 0.35726(12) 0.09258(5)
C5 C 0.0876(3) 0.24609(13) 0.10223(6)
H6 H 0.126(3) 0.1877(17) 0.1297(7)
C6 C -0.0769(2) 0.21881(14) 0.07058(6)
H7 H -0.150(3) 0.1407(17) 0.0780(7)
C7 C -0.1379(2) 0.30153(14) 0.03001(6)
H8 H -0.254(3) 0.2830(17) 0.0075(7)
C8 C -0.0337(2) 0.41325(13) 0.02036(5)
H9 H -0.075(3) 0.4727(16) -0.0084(6)
C9 C 0.13156(19) 0.44022(12) 0.05166(5)
C10 C 0.26087(19) 0.55621(12) 0.04979(5)
H10 H 0.296(2) 0.5861(14) 0.0118(6)
C11 C 0.15081(18) 0.66836(12) 0.07596(5)
H11 H 0.098(2) 0.6443(15) 0.1129(6)
H12 H 0.034(3) 0.6885(16) 0.0517(7)
C12 C 0.27296(18) 0.78977(12) 0.08321(5)
H13 H 0.374(2) 0.7903(15) 0.0547(6)
C13 C 0.38314(18) 0.79138(12) 0.13779(5)
C14 C 0.26253(19) 0.82685(12) 0.18722(5)
C15 C 0.0954(2) 0.77366(13) 0.21009(6)
H14 H 0.037(3) 0.6963(15) 0.1941(6)
C16 C 0.0180(2) 0.82654(15) 0.25774(6)
H15 H -0.103(3) 0.7886(18) 0.2729(7)
C17 C 0.1060(3) 0.93018(15) 0.28167(6)
H16 H 0.048(3) 0.9645(16) 0.3163(7)
C18 C 0.2741(3) 0.98599(14) 0.25912(6)
H17 H 0.335(3) 1.0584(17) 0.2762(7)
C19 C 0.3481(2) 0.93236(13) 0.21201(5)
C20 C 0.54272(19) 0.89752(13) 0.13749(5)
C21 C 0.6429(3) 1.07614(17) 0.19768(7)
H18 H 0.745(4) 1.070(2) 0.1747(9)
H19 H 0.572(4) 1.158(2) 0.1947(9)
H20 H 0.676(5) 1.068(3) 0.2371(12)
C22 C 0.1472(2) 0.90899(13) 0.07727(6)
H21 H 0.036(3) 0.9069(16) 0.1008(7)
H22 H 0.105(3) 0.9126(15) 0.0405(7)
H23 H 0.224(3) 0.9896(16) 0.0863(6)
loop_
_geom_bond_atom_site_label_1
_geom_bond_atom_site_label_2
_geom_bond_site_symmetry_1
_geom_bond_site_symmetry_2
O1 C1 1_555 1_555
O2 C20 1_555 1_555
N1 C19 1_555 1_555
C1 H1 1_555 1_555
H2 C1 1_555 1_555
C2 C1 1_555 1_555
H3 C2 1_555 1_555
C3 C2 1_555 1_555
H4 C3 1_555 1_555
H5 C3 1_555 1_555
C4 C3 1_555 1_555
C5 C4 1_555 1_555
H6 C5 1_555 1_555
C6 C5 1_555 1_555
H7 C6 1_555 1_555
C7 C6 1_555 1_555
H8 C7 1_555 1_555
C8 C7 1_555 1_555
H9 C8 1_555 1_555
C9 C4 1_555 1_555
C10 C2 1_555 1_555
H10 C10 1_555 1_555
C11 C10 1_555 1_555
H11 C11 1_555 1_555
H12 C11 1_555 1_555
C12 C11 1_555 1_555
H13 C12 1_555 1_555
C13 O1 1_555 1_555
C14 C13 1_555 1_555
C15 C14 1_555 1_555
H14 C15 1_555 1_555
C16 C15 1_555 1_555
H15 C16 1_555 1_555
C17 C16 1_555 1_555
H16 C17 1_555 1_555
C18 C17 1_555 1_555
H17 C18 1_555 1_555
C19 C14 1_555 1_555
C20 N1 1_555 1_555
C21 N1 1_555 1_555
H18 C21 1_555 1_555
H19 C21 1_555 1_555
H20 C21 1_555 1_555
C22 C12 1_555 1_555
H21 C22 1_555 1_555
H22 C22 1_555 1_555
H23 C22 1_555 1_555
C8 C9 1_555 1_555
C9 C10 1_555 1_555
C12 C13 1_555 1_555
C13 C20 1_555 1_555
C18 C19 1_555 1_555

#END
