
#######################################################################
#
#                 Cambridge Crystallographic Data Centre
#                                CCDC 
#
#######################################################################
#
# If this CIF has been generated from an entry in the Cambridge 
# Structural Database, then it will include bibliographic, chemical, 
# crystal, experimental, refinement or atomic coordinate data resulting 
# from the CCDC's data processing and validation procedures.
#
#######################################################################

data_WUKTON
_chemical_formula_moiety         'C21 H8 F10 O3'
_chemical_name_systematic        
'Pentafluorobenzyl 2-((pentafluorobenzyl)oxy)benzoate'
_symmetry_cell_setting           orthorhombic
_symmetry_space_group_name_H-M   'P 21 21 21'
_symmetry_Int_Tables_number      19
_space_group_name_Hall           'P 2ac 2ab'
loop_
_symmetry_equiv_pos_site_id
_symmetry_equiv_pos_as_xyz
1 x,y,z
2 1/2-x,-y,1/2+z
3 1/2+x,1/2-y,-z
4 -x,1/2+y,1/2-z
_cell_length_a                   7.84574(17)
_cell_length_b                   10.57499(16)
_cell_length_c                   22.5742(4)
_cell_angle_alpha                90
_cell_angle_beta                 90
_cell_angle_gamma                90
_cell_volume                     1872.95
_exptl_crystal_colour            colorless
_exptl_crystal_description       plate
_chemical_melting_point          '94 deg.C'
_cell_formula_units_Z            4
_exptl_crystal_recrystallization_method 'diethyl ether/N,N-dimethylformamide'
loop_
_atom_site_label
_atom_site_type_symbol
_atom_site_fract_x
_atom_site_fract_y
_atom_site_fract_z
F1 F 0.88699(19) 0.50549(12) 0.00821(7)
F2 F 0.9025(2) 0.38413(13) 0.11325(8)
F3 F 0.7291(2) 0.47466(15) 0.20781(7)
F4 F 0.5422(2) 0.68895(15) 0.19805(6)
F5 F 0.53521(18) 0.81613(12) 0.09375(6)
F6 F 0.7082(2) 1.07537(13) 0.16305(6)
F7 F 0.6242(2) 0.92010(15) 0.25307(6)
F8 F 0.8466(2) 0.73762(13) 0.28858(6)
F9 F 1.1560(2) 0.71864(13) 0.23649(6)
F10 F 1.24640(18) 0.88111(13) 0.14985(6)
O1 O 0.6739(2) 0.89725(14) -0.09489(7)
O2 O 0.78579(19) 0.84724(12) -0.00663(6)
O3 O 0.9501(2) 1.01790(13) 0.05079(6)
C1 C 0.9536(3) 1.08919(17) 0.00045(8)
C2 C 0.8620(3) 1.04551(17) -0.04916(9)
C3 C 0.8631(3) 1.11760(19) -0.10091(9)
H1 H 0.8012 1.0887 -0.1344
C4 C 0.9526(3) 1.23050(19) -0.10455(9)
H2 H 0.9515 1.2786 -0.1401
C5 C 1.0432(3) 1.27199(18) -0.05583(9)
H3 H 1.1058 1.3487 -0.0581
C6 C 1.0439(3) 1.20255(17) -0.00349(9)
H4 H 1.1061 1.2325 0.0298
C7 C 0.7631(3) 0.92489(17) -0.05300(9)
C8 C 0.6916(3) 0.72933(18) -0.01053(9)
H5 H 0.7386 0.6758 -0.0426
H6 H 0.5701 0.7464 -0.0192
C9 C 0.7088(3) 0.66379(17) 0.04801(9)
C10 C 0.8022(3) 0.55358(18) 0.05462(10)
C11 C 0.8105(3) 0.4899(2) 0.10808(11)
C12 C 0.7238(3) 0.5358(2) 0.15601(11)
C13 C 0.6286(3) 0.6458(2) 0.15127(10)
C14 C 0.6252(3) 0.70838(18) 0.09773(9)
C15 C 1.0240(3) 1.07032(18) 0.10359(9)
H7 H 0.9772 1.1556 0.1114
H8 H 1.1493 1.0770 0.0995
C16 C 0.9787(3) 0.98150(17) 0.15295(9)
C17 C 1.0899(3) 0.88944(19) 0.17311(9)
C18 C 1.0467(3) 0.80629(19) 0.21800(10)
C19 C 0.8895(3) 0.8168(2) 0.24456(9)
C20 C 0.7747(3) 0.9091(2) 0.22649(9)
C21 C 0.8212(3) 0.98827(19) 0.18047(9)
loop_
_geom_bond_atom_site_label_1
_geom_bond_atom_site_label_2
_geom_bond_site_symmetry_1
_geom_bond_site_symmetry_2
F1 C10 1_555 1_555
F2 C11 1_555 1_555
F3 C12 1_555 1_555
F4 C13 1_555 1_555
F5 C14 1_555 1_555
F6 C21 1_555 1_555
F7 C20 1_555 1_555
F8 C19 1_555 1_555
F9 C18 1_555 1_555
F10 C17 1_555 1_555
O1 C7 1_555 1_555
O2 C7 1_555 1_555
O3 C1 1_555 1_555
C1 C2 1_555 1_555
C2 C3 1_555 1_555
C3 H1 1_555 1_555
C4 C3 1_555 1_555
H2 C4 1_555 1_555
C5 C4 1_555 1_555
H3 C5 1_555 1_555
C6 C1 1_555 1_555
H4 C6 1_555 1_555
C7 C2 1_555 1_555
C8 O2 1_555 1_555
H5 C8 1_555 1_555
H6 C8 1_555 1_555
C9 C8 1_555 1_555
C10 C9 1_555 1_555
C11 C10 1_555 1_555
C12 C11 1_555 1_555
C13 C12 1_555 1_555
C14 C9 1_555 1_555
C15 O3 1_555 1_555
H7 C15 1_555 1_555
H8 C15 1_555 1_555
C16 C15 1_555 1_555
C17 C16 1_555 1_555
C18 C17 1_555 1_555
C19 C18 1_555 1_555
C20 C19 1_555 1_555
C21 C16 1_555 1_555
C5 C6 1_555 1_555
C13 C14 1_555 1_555
C20 C21 1_555 1_555

#END
