
#######################################################################
#
#                 Cambridge Crystallographic Data Centre
#                                CCDC 
#
#######################################################################
#
# If this CIF has been generated from an entry in the Cambridge 
# Structural Database, then it will include bibliographic, chemical, 
# crystal, experimental, refinement or atomic coordinate data resulting 
# from the CCDC's data processing and validation procedures.
#
#######################################################################

data_WUKTIH
_chemical_formula_moiety         'C19 H14 F5 N1 O2'
_chemical_name_systematic        'Pentafluorobenzyl 4-(1H-indol-3-yl)butanoate'
_symmetry_cell_setting           monoclinic
_symmetry_space_group_name_H-M   'P 21/n'
_symmetry_Int_Tables_number      14
_space_group_name_Hall           '-P 2yn'
loop_
_symmetry_equiv_pos_site_id
_symmetry_equiv_pos_as_xyz
1 x,y,z
2 1/2-x,1/2+y,1/2-z
3 -x,-y,-z
4 1/2+x,1/2-y,1/2+z
_cell_length_a                   9.7020(2)
_cell_length_b                   16.4507(4)
_cell_length_c                   10.4304(2)
_cell_angle_alpha                90
_cell_angle_beta                 93.081(2)
_cell_angle_gamma                90
_cell_volume                     1662.33
_exptl_crystal_colour            colorless
_exptl_crystal_description       block
_chemical_melting_point          '130 deg.C'
_cell_formula_units_Z            4
_exptl_crystal_recrystallization_method 'ethyl acetate/hexane'
loop_
_atom_site_label
_atom_site_type_symbol
_atom_site_fract_x
_atom_site_fract_y
_atom_site_fract_z
O1 O 0.61977(13) 0.53296(7) 0.13650(11)
O2 O 0.76666(12) 0.42844(7) 0.13080(10)
F1 F 0.98131(13) 0.44261(7) -0.13439(10)
F2 F 0.65785(12) 0.25725(8) 0.01721(10)
F3 F 1.12737(12) 0.31862(9) -0.22415(11)
C1 C 0.60629(16) 0.29841(10) 0.67518(14)
N1 N 0.56016(14) 0.37419(9) 0.70742(13)
F4 F 0.80988(16) 0.13265(6) -0.06737(12)
C2 C 0.72594(16) 0.30899(9) 0.60649(14)
F5 F 1.04293(14) 0.16326(8) -0.19174(12)
C3 C 0.70066(16) 0.48713(10) 0.19185(15)
C4 C 0.75114(16) 0.39524(9) 0.59822(13)
C5 C 0.84641(16) 0.42985(10) 0.38402(14)
H1 H 0.9333 0.4420 0.3462
H2 H 0.8193 0.3752 0.3587
C6 C 0.55384(18) 0.22136(11) 0.70160(15)
H3 H 0.4740 0.2151 0.7461
C7 C 0.77457(18) 0.27353(11) -0.04132(15)
C8 C 1.01220(18) 0.30382(12) -0.16340(16)
C9 C 0.81420(18) 0.35354(10) -0.05636(14)
C10 C 0.9691(2) 0.22481(11) -0.14653(16)
C11 C 0.64797(17) 0.43159(10) 0.66117(14)
H4 H 0.6383 0.4874 0.6714
C12 C 0.93420(18) 0.36635(10) -0.11742(15)
C13 C 0.8511(2) 0.20958(10) -0.08507(16)
C14 C 0.79624(17) 0.24043(10) 0.56412(15)
H5 H 0.8754 0.2460 0.5184
C15 C 0.74533(19) 0.16426(10) 0.59173(16)
H6 H 0.7917 0.1183 0.5652
C16 C 0.6253(2) 0.15523(11) 0.65894(16)
H7 H 0.5929 0.1032 0.6752
C17 C 0.73716(17) 0.48956(10) 0.33350(14)
H8 H 0.6537 0.4798 0.3784
H9 H 0.7685 0.5440 0.3555
C18 C 0.86621(16) 0.43415(10) 0.53129(15)
H10 H 0.9522 0.4075 0.5580
H11 H 0.8734 0.4907 0.5572
C19 C 0.7313(2) 0.42241(12) -0.00650(16)
H12 H 0.7536 0.4727 -0.0493
H13 H 0.6334 0.4119 -0.0216
H14 H 0.485(2) 0.3846(12) 0.757(2)
loop_
_geom_bond_atom_site_label_1
_geom_bond_atom_site_label_2
_geom_bond_site_symmetry_1
_geom_bond_site_symmetry_2
O1 C3 1_555 1_555
O2 C3 1_555 1_555
F1 C12 1_555 1_555
F2 C7 1_555 1_555
F3 C8 1_555 1_555
C1 N1 1_555 1_555
N1 C11 1_555 1_555
F4 C13 1_555 1_555
C2 C1 1_555 1_555
F5 C10 1_555 1_555
C3 C17 1_555 1_555
C4 C2 1_555 1_555
C5 H1 1_555 1_555
H2 C5 1_555 1_555
C6 C1 1_555 1_555
H3 C6 1_555 1_555
C7 C9 1_555 1_555
C8 C10 1_555 1_555
C9 C12 1_555 1_555
C10 C13 1_555 1_555
C11 C4 1_555 1_555
H4 C11 1_555 1_555
C12 C8 1_555 1_555
C13 C7 1_555 1_555
C14 C2 1_555 1_555
H5 C14 1_555 1_555
C15 C14 1_555 1_555
H6 C15 1_555 1_555
C16 C6 1_555 1_555
H7 C16 1_555 1_555
C17 C5 1_555 1_555
H8 C17 1_555 1_555
H9 C17 1_555 1_555
C18 C4 1_555 1_555
H10 C18 1_555 1_555
H11 C18 1_555 1_555
C19 O2 1_555 1_555
H12 C19 1_555 1_555
H13 C19 1_555 1_555
H14 N1 1_555 1_555
C5 C18 1_555 1_555
C9 C19 1_555 1_555
C15 C16 1_555 1_555

#END
