
#######################################################################
#
#                 Cambridge Crystallographic Data Centre
#                                CCDC 
#
#######################################################################
#
# If this CIF has been generated from an entry in the Cambridge 
# Structural Database, then it will include bibliographic, chemical, 
# crystal, experimental, refinement or atomic coordinate data resulting 
# from the CCDC's data processing and validation procedures.
#
#######################################################################

data_WUKVUU
_chemical_formula_moiety         'C16 H17 N1 O6'
_chemical_name_systematic        
'6-Ethyl 1-methyl 4-(3-nitrobenzylidene)hex-2-enedioate'
_symmetry_cell_setting           triclinic
_symmetry_space_group_name_H-M   'P -1'
_symmetry_Int_Tables_number      2
_space_group_name_Hall           '-P 1'
loop_
_symmetry_equiv_pos_site_id
_symmetry_equiv_pos_as_xyz
1 x,y,z
2 -x,-y,-z
_cell_length_a                   8.2434(16)
_cell_length_b                   9.3954(19)
_cell_length_c                   10.116(2)
_cell_angle_alpha                82.63(3)
_cell_angle_beta                 84.66(3)
_cell_angle_gamma                80.19(3)
_cell_volume                     763.615
_chemical_melting_point          '69-70 deg.C'
_cell_formula_units_Z            2
loop_
_atom_site_label
_atom_site_type_symbol
_atom_site_fract_x
_atom_site_fract_y
_atom_site_fract_z
O1 O 0.50359(13) 1.31201(10) 0.54035(11)
O2 O 0.66907(12) 1.12586(10) 0.62605(11)
O3 O -0.10282(13) 0.69641(11) 0.78243(13)
O4 O -0.09485(11) 0.51419(9) 0.65785(10)
O5 O 0.40562(11) 0.21859(9) 1.01451(10)
O6 O 0.18529(10) 0.13835(9) 0.95268(9)
N1 N 0.53177(15) 1.18671(12) 0.59516(12)
C1 C 0.42094(16) 0.96581(13) 0.69052(13)
H1 H 0.5252 0.9260 0.7182
C2 C 0.39205(16) 1.10489(13) 0.62362(14)
C3 C 0.23980(17) 1.17047(13) 0.58305(14)
H2 H 0.2250 1.2634 0.5369
C4 C 0.10933(17) 1.09398(13) 0.61290(15)
H3 H 0.0045 1.1367 0.5886
C5 C 0.13352(16) 0.95411(13) 0.67879(14)
H4 H 0.0442 0.9045 0.6988
C6 C 0.28994(15) 0.88633(13) 0.71563(14)
C7 C 0.32171(15) 0.73804(13) 0.78491(14)
H5 H 0.3944 0.7234 0.8522
C8 C 0.25874(15) 0.62087(13) 0.76320(14)
C9 C 0.14797(15) 0.61769(13) 0.65278(13)
H6 H 0.1536 0.7024 0.5877
H7 H 0.1872 0.5318 0.6077
C10 C -0.02934(16) 0.61619(13) 0.70600(14)
C11 C -0.25706(17) 0.48813(15) 0.71610(16)
H8 H -0.3211 0.4661 0.6478
H9 H -0.3158 0.5743 0.7531
C12 C -0.23545(18) 0.36269(15) 0.82425(16)
H10 H -0.1695 0.2799 0.7886
H11 H -0.3416 0.3391 0.8578
H12 H -0.1814 0.3888 0.8956
C13 C 0.30095(15) 0.48596(13) 0.85013(14)
H13 H 0.3823 0.4837 0.9085
C14 C 0.23466(15) 0.36515(12) 0.85444(13)
H14 H 0.1543 0.3623 0.7965
C15 C 0.28656(16) 0.23624(13) 0.94936(14)
C16 C 0.22367(17) 0.00793(13) 1.04431(15)
H15 H 0.3321 -0.0413 1.0199
H16 H 0.1443 -0.0550 1.0403
H17 H 0.2200 0.0335 1.1335
loop_
_geom_bond_atom_site_label_1
_geom_bond_atom_site_label_2
_geom_bond_site_symmetry_1
_geom_bond_site_symmetry_2
O1 N1 1_555 1_555
O2 N1 1_555 1_555
O3 C10 1_555 1_555
O4 C10 1_555 1_555
O5 C15 1_555 1_555
O6 C15 1_555 1_555
N1 C2 1_555 1_555
C1 H1 1_555 1_555
C2 C1 1_555 1_555
C3 C2 1_555 1_555
H2 C3 1_555 1_555
C4 C3 1_555 1_555
H3 C4 1_555 1_555
C5 C4 1_555 1_555
H4 C5 1_555 1_555
C6 C1 1_555 1_555
C7 C6 1_555 1_555
H5 C7 1_555 1_555
C8 C7 1_555 1_555
C9 C8 1_555 1_555
H6 C9 1_555 1_555
H7 C9 1_555 1_555
C10 C9 1_555 1_555
C11 O4 1_555 1_555
H8 C11 1_555 1_555
H9 C11 1_555 1_555
C12 C11 1_555 1_555
H10 C12 1_555 1_555
H11 C12 1_555 1_555
H12 C12 1_555 1_555
C13 C8 1_555 1_555
H13 C13 1_555 1_555
C14 C13 1_555 1_555
H14 C14 1_555 1_555
C15 C14 1_555 1_555
C16 O6 1_555 1_555
H15 C16 1_555 1_555
H16 C16 1_555 1_555
H17 C16 1_555 1_555
C5 C6 1_555 1_555

#END
