
#######################################################################
#
#                 Cambridge Crystallographic Data Centre
#                                CCDC 
#
#######################################################################
#
# If this CIF has been generated from an entry in the Cambridge 
# Structural Database, then it will include bibliographic, chemical, 
# crystal, experimental, refinement or atomic coordinate data resulting 
# from the CCDC's data processing and validation procedures.
#
#######################################################################

data_WULTED
_chemical_formula_moiety         'C14 H17 N1 O1'
_chemical_name_systematic        
(1S*,5R*)-3-Phenyl-2-azabicyclo[3.3.1]non-2-en-1-ol
_symmetry_cell_setting           triclinic
_symmetry_space_group_name_H-M   'P -1'
_symmetry_Int_Tables_number      2
_space_group_name_Hall           '-P 1'
loop_
_symmetry_equiv_pos_site_id
_symmetry_equiv_pos_as_xyz
1 x,y,z
2 -x,-y,-z
_cell_length_a                   6.8395
_cell_length_b                   9.10940(10)
_cell_length_c                   10.52430(10)
_cell_angle_alpha                68.143(6)
_cell_angle_beta                 70.861(6)
_cell_angle_gamma                77.939(8)
_cell_volume                     572.1
_exptl_crystal_colour            yellow
_exptl_crystal_description       block
_chemical_melting_point          '119-120 deg.C'
_cell_formula_units_Z            2
loop_
_atom_site_label
_atom_site_type_symbol
_atom_site_fract_x
_atom_site_fract_y
_atom_site_fract_z
O1 O 1.0302(2) 0.3521(2) 0.17003(16)
N1 N 0.8812(2) 0.3261(2) 0.01051(16)
C1 C 0.8524(2) 0.3058(2) 0.16134(19)
C2 C 0.8347(3) 0.1328(2) 0.25466(19)
C3 C 0.6477(3) 0.0781(2) 0.2416(2)
C4 C 0.4473(3) 0.1772(2) 0.2948(2)
C5 C 0.4592(2) 0.3545(2) 0.2127(2)
C6 C 0.6568(2) 0.4115(2) 0.2092(2)
C7 C 0.6858(3) 0.0923(2) 0.0851(2)
C8 C 0.8074(3) 0.2303(2) -0.02116(19)
C9 C 0.8523(3) 0.2500(2) -0.17537(19)
C10 C 1.0436(3) 0.3009(2) -0.2682(2)
C11 C 1.0917(3) 0.3156(2) -0.4110(2)
C12 C 0.9519(3) 0.2823(2) -0.4637(2)
C13 C 0.7613(3) 0.2338(2) -0.3729(2)
C14 C 0.7116(3) 0.2164(2) -0.2288(2)
H1 H 1.051(4) 0.445(3) 0.110(2)
H2 H 0.961(3) 0.071(2) 0.225(2)
H3 H 0.816(3) 0.121(2) 0.357(2)
H4 H 0.631(2) -0.032(2) 0.3041(19)
H5 H 0.422(3) 0.156(2) 0.406(2)
H6 H 0.337(4) 0.136(3) 0.278(3)
H7 H 1.2226 0.3486 -0.4732
H8 H 0.4578 0.3744 0.1178
H9 H 0.6463 0.4099 0.3020
H10 H 0.6688 0.5171 0.1448
H11 H 0.7611 -0.0034 0.0714
H12 H 0.5548 0.1059 0.0670
H13 H 1.148(3) 0.323(2) -0.228(2)
H14 H 0.3416 0.4120 0.2575
H15 H 0.9859 0.2927 -0.5615
H16 H 0.666(3) 0.215(3) -0.412(2)
H17 H 0.571(4) 0.183(3) -0.166(2)
loop_
_geom_bond_atom_site_label_1
_geom_bond_atom_site_label_2
_geom_bond_site_symmetry_1
_geom_bond_site_symmetry_2
O1 C1 1_555 1_555
N1 C1 1_555 1_555
C1 C2 1_555 1_555
C2 C3 1_555 1_555
C3 C4 1_555 1_555
C4 C5 1_555 1_555
C5 C6 1_555 1_555
C6 C1 1_555 1_555
C7 C3 1_555 1_555
C8 N1 1_555 1_555
C9 C8 1_555 1_555
C10 C9 1_555 1_555
C11 C10 1_555 1_555
C12 C11 1_555 1_555
C13 C12 1_555 1_555
C14 C9 1_555 1_555
H1 O1 1_555 1_555
H2 C2 1_555 1_555
H3 C2 1_555 1_555
H4 C3 1_555 1_555
H5 C4 1_555 1_555
H6 C4 1_555 1_555
H7 C11 1_555 1_555
H8 C5 1_555 1_555
H9 C6 1_555 1_555
H10 C6 1_555 1_555
H11 C7 1_555 1_555
H12 C7 1_555 1_555
H13 C10 1_555 1_555
H14 C5 1_555 1_555
H15 C12 1_555 1_555
H16 C13 1_555 1_555
H17 C14 1_555 1_555
C7 C8 1_555 1_555
C13 C14 1_555 1_555

#END
