
#######################################################################
#
#                 Cambridge Crystallographic Data Centre
#                                CCDC 
#
#######################################################################
#
# If this CIF has been generated from an entry in the Cambridge 
# Structural Database, then it will include bibliographic, chemical, 
# crystal, experimental, refinement or atomic coordinate data resulting 
# from the CCDC's data processing and validation procedures.
#
#######################################################################

data_WULTIH
_chemical_formula_moiety         'C15 H19 N1 O1'
_chemical_name_systematic        
(1S*,4R*,5S*)-4-Methyl-3-phenyl-2-azabicyclo[3.3.1]non-2-en-1-ol
_symmetry_cell_setting           monoclinic
_symmetry_space_group_name_H-M   'C 2/c'
_symmetry_Int_Tables_number      15
_space_group_name_Hall           '-C 2yn'
loop_
_symmetry_equiv_pos_site_id
_symmetry_equiv_pos_as_xyz
1 x,y,z
2 -x,y,1/2-z
3 1/2+x,1/2+y,z
4 1/2-x,1/2+y,1/2-z
5 -x,-y,-z
6 x,-y,1/2+z
7 1/2-x,1/2-y,-z
8 1/2+x,1/2-y,1/2+z
_cell_length_a                   20.9491(8)
_cell_length_b                   11.4791(4)
_cell_length_c                   12.8044(5)
_cell_angle_alpha                90
_cell_angle_beta                 124.361(2)
_cell_angle_gamma                90
_cell_volume                     2541.84
_exptl_crystal_colour            colorless
_exptl_crystal_description       block
_chemical_melting_point          '153-154 deg.C'
_cell_formula_units_Z            8
loop_
_atom_site_label
_atom_site_type_symbol
_atom_site_fract_x
_atom_site_fract_y
_atom_site_fract_z
C1 C 0.41159(8) 0.54234(12) 0.30936(13)
H1 H 0.4581 0.5586 0.3126
H2 H 0.4168 0.5795 0.3818
C2 C 0.40387(8) 0.41138(12) 0.31735(13)
H3 H 0.3638 0.3959 0.3315
H4 H 0.4521 0.3807 0.3890
C3 C 0.38386(7) 0.34895(11) 0.19711(12)
H5 H 0.3713 0.2683 0.2005
H6 H 0.4286 0.3497 0.1928
C4 C 0.31566(6) 0.40604(9) 0.07821(11)
C5 C 0.33180(7) 0.53375(10) 0.07362(12)
H7 H 0.2891 0.5686 -0.0037
H8 H 0.3784 0.5424 0.0752
C6 C 0.34187(7) 0.59388(10) 0.18793(12)
H9 H 0.3518 0.6768 0.1846
C7 C 0.26680(7) 0.58251(9) 0.18117(11)
H10 H 0.2803 0.5875 0.2678
C8 C 0.21091(8) 0.68262(11) 0.10572(15)
H11 H 0.1986 0.6825 0.0213
H12 H 0.2347 0.7554 0.1460
H13 H 0.1644 0.6727 0.1027
C9 C 0.22654(6) 0.46626(9) 0.12686(10)
C10 C 0.15717(6) 0.44089(9) 0.12836(11)
C11 C 0.09704(7) 0.37418(11) 0.03285(13)
H14 H 0.0994 0.3476 -0.0335
C12 C 0.03381(8) 0.34698(12) 0.03564(16)
H15 H -0.0064 0.3032 -0.0295
C13 C 0.02988(8) 0.38414(13) 0.13410(16)
H16 H -0.0122 0.3640 0.1368
C14 C 0.08859(9) 0.45128(13) 0.22831(15)
H17 H 0.0860 0.4770 0.2947
C15 C 0.15127(7) 0.48088(12) 0.22527(12)
H18 H 0.1900 0.5280 0.2885
N1 N 0.24664(5) 0.38847(8) 0.07908(8)
O1 O 0.30223(5) 0.35369(7) -0.03254(8)
H19 H 0.2911 0.2849 -0.0346
loop_
_geom_bond_atom_site_label_1
_geom_bond_atom_site_label_2
_geom_bond_site_symmetry_1
_geom_bond_site_symmetry_2
C1 H1 1_555 1_555
H2 C1 1_555 1_555
C2 C1 1_555 1_555
H3 C2 1_555 1_555
H4 C2 1_555 1_555
C3 C2 1_555 1_555
H5 C3 1_555 1_555
H6 C3 1_555 1_555
C4 C3 1_555 1_555
C5 C4 1_555 1_555
H7 C5 1_555 1_555
H8 C5 1_555 1_555
C6 C1 1_555 1_555
H9 C6 1_555 1_555
C7 C6 1_555 1_555
H10 C7 1_555 1_555
C8 C7 1_555 1_555
H11 C8 1_555 1_555
H12 C8 1_555 1_555
H13 C8 1_555 1_555
C9 C7 1_555 1_555
C10 C9 1_555 1_555
C11 C10 1_555 1_555
H14 C11 1_555 1_555
C12 C11 1_555 1_555
H15 C12 1_555 1_555
C13 C12 1_555 1_555
H16 C13 1_555 1_555
C14 C13 1_555 1_555
H17 C14 1_555 1_555
C15 C10 1_555 1_555
H18 C15 1_555 1_555
N1 C4 1_555 1_555
O1 C4 1_555 1_555
H19 O1 1_555 1_555
C5 C6 1_555 1_555
C9 N1 1_555 1_555
C14 C15 1_555 1_555

#END
