
#######################################################################
#
#                 Cambridge Crystallographic Data Centre
#                                CCDC 
#
#######################################################################
#
# If this CIF has been generated from an entry in the Cambridge 
# Structural Database, then it will include bibliographic, chemical, 
# crystal, experimental, refinement or atomic coordinate data resulting 
# from the CCDC's data processing and validation procedures.
#
#######################################################################

data_WULTAZ
_chemical_formula_moiety         'C23 H19 N1 O1'
_chemical_name_systematic        
((2R*,3S*)-3,5-Diphenyl-3,4-dihydro-2H-pyrrol-2-yl)(phenyl)methanone
_symmetry_cell_setting           monoclinic
_symmetry_space_group_name_H-M   'P 21/n'
_symmetry_Int_Tables_number      14
_space_group_name_Hall           '-P 2yn'
loop_
_symmetry_equiv_pos_site_id
_symmetry_equiv_pos_as_xyz
1 x,y,z
2 1/2-x,1/2+y,1/2-z
3 -x,-y,-z
4 1/2+x,1/2-y,1/2+z
_cell_length_a                   9.858(2)
_cell_length_b                   12.9873(14)
_cell_length_c                   13.198(3)
_cell_angle_alpha                90
_cell_angle_beta                 102.346(4)
_cell_angle_gamma                90
_cell_volume                     1650.65
_exptl_crystal_colour            colorless
_exptl_crystal_description       prism
_chemical_melting_point          '127-128 deg.C'
_cell_formula_units_Z            4
loop_
_atom_site_label
_atom_site_type_symbol
_atom_site_fract_x
_atom_site_fract_y
_atom_site_fract_z
O1 O 0.76321(17) 0.15961(11) 0.42854(12)
N1 N 0.78583(19) 0.31424(12) 0.61926(14)
C1 C 0.4827(2) 0.10577(14) 0.41129(18)
C2 C 0.3437(2) 0.08491(15) 0.40446(19)
C3 C 0.2821(2) 0.11062(15) 0.4857(2)
C4 C 0.3577(2) 0.15837(16) 0.5728(2)
C5 C 0.4976(2) 0.18017(15) 0.57948(18)
C6 C 0.5620(2) 0.15330(12) 0.49961(16)
C7 C 0.7135(2) 0.16989(13) 0.50465(16)
C8 C 0.8054(2) 0.20165(14) 0.60959(16)
C9 C 0.9629(2) 0.18123(14) 0.61845(17)
C10 C 1.0192(2) 0.10579(13) 0.70526(16)
C11 C 1.0534(2) 0.00500(15) 0.68363(18)
C12 C 1.0953(2) -0.06573(15) 0.76268(19)
C13 C 1.1042(2) -0.03775(16) 0.86508(19)
C14 C 1.0745(2) 0.06310(16) 0.88811(19)
C15 C 1.0321(2) 0.13355(15) 0.80842(17)
C16 C 1.0282(2) 0.29028(15) 0.63365(19)
C17 C 0.9032(2) 0.35927(14) 0.62907(16)
C18 C 0.9154(2) 0.47277(14) 0.63561(16)
C19 C 0.7984(2) 0.53342(15) 0.63437(17)
C20 C 0.8094(2) 0.64054(15) 0.63427(18)
C21 C 0.9365(2) 0.68674(16) 0.63770(18)
C22 C 1.0536(2) 0.62758(17) 0.6404(2)
C23 C 1.0429(2) 0.51984(17) 0.63887(19)
H1 H 0.518(2) 0.0974(17) 0.364(2)
H2 H 0.296(2) 0.0553(15) 0.3398(19)
H3 H 0.1868 0.0951 0.4814
H4 H 0.3144 0.1764 0.6282
H5 H 0.5494 0.2138 0.6393
H6 H 0.771(2) 0.1673(13) 0.6653(15)
H7 H 0.973(2) 0.1528(15) 0.5566(18)
H8 H 1.054(2) -0.0104(15) 0.6175(18)
H9 H 1.129(2) -0.1396(17) 0.7469(19)
H10 H 1.141(2) -0.0851(17) 0.927(2)
H11 H 1.073(2) 0.0768(18) 0.959(2)
H12 H 0.989(3) 0.200(2) 0.819(2)
H13 H 1.073(2) 0.3105(16) 0.578(2)
H14 H 1.091(2) 0.3003(19) 0.700(2)
H15 H 0.709(2) 0.4985(15) 0.6354(17)
H16 H 0.726(2) 0.6855(19) 0.636(2)
H17 H 0.938(2) 0.7644(17) 0.6384(19)
H18 H 1.145(2) 0.6626(16) 0.6408(18)
H19 H 1.129(2) 0.4738(15) 0.6380(17)
loop_
_geom_bond_atom_site_label_1
_geom_bond_atom_site_label_2
_geom_bond_site_symmetry_1
_geom_bond_site_symmetry_2
O1 C7 1_555 1_555
N1 C8 1_555 1_555
C1 C2 1_555 1_555
C2 C3 1_555 1_555
C3 C4 1_555 1_555
C4 C5 1_555 1_555
C5 C6 1_555 1_555
C6 C1 1_555 1_555
C7 C6 1_555 1_555
C8 C7 1_555 1_555
C9 C8 1_555 1_555
C10 C9 1_555 1_555
C11 C10 1_555 1_555
C12 C11 1_555 1_555
C13 C12 1_555 1_555
C14 C13 1_555 1_555
C15 C10 1_555 1_555
C16 C9 1_555 1_555
C17 N1 1_555 1_555
C18 C17 1_555 1_555
C19 C18 1_555 1_555
C20 C19 1_555 1_555
C21 C20 1_555 1_555
C22 C21 1_555 1_555
C23 C18 1_555 1_555
H1 C1 1_555 1_555
H2 C2 1_555 1_555
H3 C3 1_555 1_555
H4 C4 1_555 1_555
H5 C5 1_555 1_555
H6 C8 1_555 1_555
H7 C9 1_555 1_555
H8 C11 1_555 1_555
H9 C12 1_555 1_555
H10 C13 1_555 1_555
H11 C14 1_555 1_555
H12 C15 1_555 1_555
H13 C16 1_555 1_555
H14 C16 1_555 1_555
H15 C19 1_555 1_555
H16 C20 1_555 1_555
H17 C21 1_555 1_555
H18 C22 1_555 1_555
H19 C23 1_555 1_555
C14 C15 1_555 1_555
C16 C17 1_555 1_555
C22 C23 1_555 1_555

#END
