
#######################################################################
#
#                 Cambridge Crystallographic Data Centre
#                                CCDC 
#
#######################################################################
#
# If this CIF has been generated from an entry in the Cambridge 
# Structural Database, then it will include bibliographic, chemical, 
# crystal, experimental, refinement or atomic coordinate data resulting 
# from the CCDC's data processing and validation procedures.
#
#######################################################################

data_WULVAB
_chemical_formula_moiety         'C14 H19 N1'
_chemical_name_systematic        
(1R*,3R*,5S*)-3-Phenyl-2-azabicyclo[3.3.1]nonane
_symmetry_cell_setting           triclinic
_symmetry_space_group_name_H-M   'P -1'
_symmetry_Int_Tables_number      2
_space_group_name_Hall           '-P 1'
loop_
_symmetry_equiv_pos_site_id
_symmetry_equiv_pos_as_xyz
1 x,y,z
2 -x,-y,-z
_cell_length_a                   5.9335(3)
_cell_length_b                   9.0893(4)
_cell_length_c                   10.6193(5)
_cell_angle_alpha                85.050(2)
_cell_angle_beta                 81.807(2)
_cell_angle_gamma                79.992(2)
_cell_volume                     557.129
_exptl_crystal_colour            colorless
_exptl_crystal_description       block
_chemical_melting_point          '79-80 deg.C'
_cell_formula_units_Z            2
loop_
_atom_site_label
_atom_site_type_symbol
_atom_site_fract_x
_atom_site_fract_y
_atom_site_fract_z
C1 C 0.3623(2) 0.84146(16) 0.25301(14)
H1 H 0.2048 0.9004 0.2476
C2 C 0.4715(3) 0.90386(17) 0.35479(14)
H2 H 0.4885 1.0092 0.3295
H3 H 0.3685 0.9024 0.4367
C3 C 0.7073(3) 0.81287(17) 0.37264(14)
H4 H 0.7643 0.8483 0.4459
H5 H 0.8178 0.8289 0.2956
C4 C 0.6967(3) 0.64590(17) 0.39608(14)
H6 H 0.6077 0.6278 0.4805
H7 H 0.8551 0.5896 0.3971
C5 C 0.5834(2) 0.58836(15) 0.29299(13)
H8 H 0.5710 0.4806 0.3151
C6 C 0.3408(2) 0.67815(17) 0.29071(15)
H9 H 0.2610 0.6386 0.2285
H10 H 0.2496 0.6700 0.3759
C7 C 0.7248(2) 0.60250(15) 0.16031(13)
H11 H 0.8723 0.6345 0.1699
H12 H 0.7620 0.5028 0.1246
C8 C 0.6011(2) 0.71316(15) 0.06631(13)
H13 H 0.4710 0.6698 0.0418
C9 C 0.7653(2) 0.74278(15) -0.05272(13)
C10 C 0.7385(3) 0.69450(16) -0.16928(14)
H14 H 0.6132 0.6441 -0.1752
C11 C 0.8921(3) 0.71877(18) -0.27742(14)
H15 H 0.8721 0.6844 -0.3565
C12 C 1.0742(3) 0.79289(18) -0.27032(15)
H16 H 1.1786 0.8101 -0.3445
C13 C 1.1041(3) 0.84189(17) -0.15497(15)
H17 H 1.2294 0.8925 -0.1497
C14 C 0.9510(3) 0.81695(17) -0.04716(14)
H18 H 0.9725 0.8508 0.0318
N1 N 0.5067(2) 0.85537(13) 0.12634(12)
H19 H 0.420(4) 0.919(2) 0.068(2)
loop_
_geom_bond_atom_site_label_1
_geom_bond_atom_site_label_2
_geom_bond_site_symmetry_1
_geom_bond_site_symmetry_2
C1 H1 1_555 1_555
C2 C1 1_555 1_555
H2 C2 1_555 1_555
H3 C2 1_555 1_555
C3 C2 1_555 1_555
H4 C3 1_555 1_555
H5 C3 1_555 1_555
C4 C3 1_555 1_555
H6 C4 1_555 1_555
H7 C4 1_555 1_555
C5 C4 1_555 1_555
H8 C5 1_555 1_555
C6 C1 1_555 1_555
H9 C6 1_555 1_555
H10 C6 1_555 1_555
C7 C5 1_555 1_555
H11 C7 1_555 1_555
H12 C7 1_555 1_555
C8 C7 1_555 1_555
H13 C8 1_555 1_555
C9 C8 1_555 1_555
C10 C9 1_555 1_555
H14 C10 1_555 1_555
C11 C10 1_555 1_555
H15 C11 1_555 1_555
C12 C11 1_555 1_555
H16 C12 1_555 1_555
C13 C12 1_555 1_555
H17 C13 1_555 1_555
C14 C9 1_555 1_555
H18 C14 1_555 1_555
N1 C1 1_555 1_555
H19 N1 1_555 1_555
C5 C6 1_555 1_555
C8 N1 1_555 1_555
C13 C14 1_555 1_555

#END
