
#######################################################################
#
#                 Cambridge Crystallographic Data Centre
#                                CCDC 
#
#######################################################################
#
# If this CIF has been generated from an entry in the Cambridge 
# Structural Database, then it will include bibliographic, chemical, 
# crystal, experimental, refinement or atomic coordinate data resulting 
# from the CCDC's data processing and validation procedures.
#
#######################################################################

data_WULVEF
_chemical_formula_moiety         'C36 H34 O4'
_chemical_name_systematic        
4,4'-(1,4-Phenylenebis(4-butylfuran-5,2-diyl))dibenzaldehyde
_symmetry_cell_setting           triclinic
_symmetry_space_group_name_H-M   'P -1'
_symmetry_Int_Tables_number      2
_space_group_name_Hall           '-P 1'
loop_
_symmetry_equiv_pos_site_id
_symmetry_equiv_pos_as_xyz
1 x,y,z
2 -x,-y,-z
_cell_length_a                   4.9495(4)
_cell_length_b                   11.5335(8)
_cell_length_c                   12.6368(9)
_cell_angle_alpha                105.023(3)
_cell_angle_beta                 100.037(3)
_cell_angle_gamma                92.006(4)
_cell_volume                     683.612
_exptl_crystal_colour            yellow
_exptl_crystal_description       needle
_cell_formula_units_Z            1
loop_
_atom_site_label
_atom_site_type_symbol
_atom_site_fract_x
_atom_site_fract_y
_atom_site_fract_z
O1 O 0.1262(3) 0.05849(16) 0.21392(14)
O2 O 1.4019(4) 0.3739(2) 0.58560(18)
C1 C -0.2731(5) 0.0821(2) 0.0436(2)
H1 H -0.1178 0.1393 0.0734
C2 C -0.2868(5) -0.0209(2) 0.0819(2)
C3 C -0.5196(5) -0.1030(2) 0.0367(2)
H2 H -0.5355 -0.1736 0.0613
C4 C -0.0632(5) -0.0403(2) 0.1658(2)
C5 C 0.0152(5) -0.1339(2) 0.2094(2)
C6 C 0.2642(5) -0.0895(2) 0.2876(2)
H3 H 0.3697 -0.1332 0.3319
C7 C 0.3241(5) 0.0260(2) 0.2879(2)
C8 C 0.5524(5) 0.1169(2) 0.3445(2)
C9 C 0.5882(5) 0.2210(2) 0.3098(2)
H4 H 0.4587 0.2346 0.2502
C10 C 0.8106(5) 0.3046(3) 0.3615(2)
H5 H 0.8342 0.3746 0.3366
C11 C 1.0006(5) 0.2864(2) 0.4502(2)
C12 C 0.9633(5) 0.1836(3) 0.4861(2)
H6 H 1.0903 0.1713 0.5471
C13 C 0.7438(5) 0.0993(3) 0.4341(2)
H7 H 0.7218 0.0291 0.4588
C14 C 1.2361(6) 0.3765(3) 0.5039(2)
H8 H 1.2593 0.4413 0.4719
C15 C -0.1198(5) -0.2603(2) 0.1791(2)
H9 H -0.2260 -0.2798 0.1018
H10 H -0.2516 -0.2636 0.2291
C16 C 0.0831(5) -0.3557(3) 0.1875(2)
H11 H 0.2155 -0.3526 0.1377
H12 H 0.1885 -0.3369 0.2649
C17 C -0.0568(6) -0.4816(3) 0.1563(3)
H13 H -0.1677 -0.4995 0.0799
H14 H -0.1840 -0.4857 0.2079
C18 C 0.1491(7) -0.5771(3) 0.1608(3)
H15 H 0.0491 -0.6569 0.1404
H16 H 0.2574 -0.5605 0.2366
H17 H 0.2724 -0.5748 0.1084
O1A O -1.1262(3) -0.05849(16) -0.21392(14)
O2A O -2.4019(4) -0.3739(2) -0.58560(18)
C1A C -0.7269(5) -0.0821(2) -0.0436(2)
H1A H -0.8822 -0.1393 -0.0734
C2A C -0.7132(5) 0.0209(2) -0.0819(2)
C3A C -0.4804(5) 0.1030(2) -0.0367(2)
H2A H -0.4645 0.1736 -0.0613
C4A C -0.9368(5) 0.0403(2) -0.1658(2)
C5A C -1.0152(5) 0.1339(2) -0.2094(2)
C6A C -1.2642(5) 0.0895(2) -0.2876(2)
H3A H -1.3697 0.1332 -0.3319
C7A C -1.3241(5) -0.0260(2) -0.2879(2)
C8A C -1.5524(5) -0.1169(2) -0.3445(2)
C9A C -1.5882(5) -0.2210(2) -0.3098(2)
H4A H -1.4587 -0.2346 -0.2502
C10A C -1.8106(5) -0.3046(3) -0.3615(2)
H5A H -1.8342 -0.3746 -0.3366
C11A C -2.0006(5) -0.2864(2) -0.4502(2)
C12A C -1.9633(5) -0.1836(3) -0.4861(2)
H6A H -2.0903 -0.1713 -0.5471
C13A C -1.7438(5) -0.0993(3) -0.4341(2)
H7A H -1.7218 -0.0291 -0.4588
C14A C -2.2361(6) -0.3765(3) -0.5039(2)
H8A H -2.2593 -0.4413 -0.4719
C15A C -0.8802(5) 0.2603(2) -0.1791(2)
H9A H -0.7740 0.2798 -0.1018
H10A H -0.7484 0.2636 -0.2291
C16A C -1.0831(5) 0.3557(3) -0.1875(2)
H11A H -1.2155 0.3526 -0.1377
H12A H -1.1885 0.3369 -0.2649
C17A C -0.9432(6) 0.4816(3) -0.1563(3)
H13A H -0.8323 0.4995 -0.0799
H14A H -0.8160 0.4857 -0.2079
C18A C -1.1491(7) 0.5771(3) -0.1608(3)
H15A H -1.0491 0.6569 -0.1404
H16A H -1.2574 0.5605 -0.2366
H17A H -1.2724 0.5748 -0.1084
loop_
_geom_bond_atom_site_label_1
_geom_bond_atom_site_label_2
_geom_bond_site_symmetry_1
_geom_bond_site_symmetry_2
O1 C4 1_555 1_555
O2 C14 1_555 1_555
C1 H1 1_555 1_555
C2 C1 1_555 1_555
C3 C2 1_555 1_555
H2 C3 1_555 1_555
C4 C2 1_555 1_555
C5 C4 1_555 1_555
C6 C5 1_555 1_555
H3 C6 1_555 1_555
C7 O1 1_555 1_555
C8 C7 1_555 1_555
C9 C8 1_555 1_555
H4 C9 1_555 1_555
C10 C9 1_555 1_555
H5 C10 1_555 1_555
C11 C10 1_555 1_555
C12 C11 1_555 1_555
H6 C12 1_555 1_555
C13 C8 1_555 1_555
H7 C13 1_555 1_555
C14 C11 1_555 1_555
H8 C14 1_555 1_555
C15 C5 1_555 1_555
H9 C15 1_555 1_555
H10 C15 1_555 1_555
C16 C15 1_555 1_555
H11 C16 1_555 1_555
H12 C16 1_555 1_555
C17 C16 1_555 1_555
H13 C17 1_555 1_555
H14 C17 1_555 1_555
C18 C17 1_555 1_555
H15 C18 1_555 1_555
H16 C18 1_555 1_555
H17 C18 1_555 1_555
O1A C4A 1_555 1_555
O2A C14A 1_555 1_555
C1A C3 1_555 1_555
H1A C1A 1_555 1_555
C2A C1A 1_555 1_555
C3A C1 1_555 1_555
H2A C3A 1_555 1_555
C4A C2A 1_555 1_555
C5A C4A 1_555 1_555
C6A C5A 1_555 1_555
H3A C6A 1_555 1_555
C7A O1A 1_555 1_555
C8A C7A 1_555 1_555
C9A C8A 1_555 1_555
H4A C9A 1_555 1_555
C10A C9A 1_555 1_555
H5A C10A 1_555 1_555
C11A C10A 1_555 1_555
C12A C11A 1_555 1_555
H6A C12A 1_555 1_555
C13A C8A 1_555 1_555
H7A C13A 1_555 1_555
C14A C11A 1_555 1_555
H8A C14A 1_555 1_555
C15A C5A 1_555 1_555
H9A C15A 1_555 1_555
H10A C15A 1_555 1_555
C16A C15A 1_555 1_555
H11A C16A 1_555 1_555
H12A C16A 1_555 1_555
C17A C16A 1_555 1_555
H13A C17A 1_555 1_555
H14A C17A 1_555 1_555
C18A C17A 1_555 1_555
H15A C18A 1_555 1_555
H16A C18A 1_555 1_555
H17A C18A 1_555 1_555
C6 C7 1_555 1_555
C12 C13 1_555 1_555
C2A C3A 1_555 1_555
C6A C7A 1_555 1_555
C12A C13A 1_555 1_555

#END
