
#######################################################################
#
#                 Cambridge Crystallographic Data Centre
#                                CCDC 
#
#######################################################################
#
# If this CIF has been generated from an entry in the Cambridge 
# Structural Database, then it will include bibliographic, chemical, 
# crystal, experimental, refinement or atomic coordinate data resulting 
# from the CCDC's data processing and validation procedures.
#
#######################################################################

data_WUMJEV
_chemical_formula_moiety         'C17 H11 Cl2 N1'
_chemical_name_systematic        2,6-dichloro-3,5-diphenylpyridine
_symmetry_cell_setting           orthorhombic
_symmetry_space_group_name_H-M   'P b c n'
_symmetry_Int_Tables_number      60
_space_group_name_Hall           '-P 2n 2ab'
loop_
_symmetry_equiv_pos_site_id
_symmetry_equiv_pos_as_xyz
1 x,y,z
2 1/2+x,1/2-y,-z
3 -x,y,1/2-z
4 1/2-x,1/2-y,1/2+z
5 -x,-y,-z
6 1/2-x,1/2+y,z
7 x,-y,1/2+z
8 1/2+x,1/2+y,1/2-z
_cell_length_a                   21.3422(5)
_cell_length_b                   8.1975(2)
_cell_length_c                   8.0145(2)
_cell_angle_alpha                90
_cell_angle_beta                 90
_cell_angle_gamma                90
_cell_volume                     1402.16
_exptl_crystal_colour            colorless
_exptl_crystal_description       prism
_cell_formula_units_Z            4
loop_
_atom_site_label
_atom_site_type_symbol
_atom_site_fract_x
_atom_site_fract_y
_atom_site_fract_z
C1 C 0.45236(5) 1.04439(12) 0.31255(13)
C2 C 0.44808(4) 0.87457(13) 0.31494(12)
C3 C 0.5000 0.79258(18) 0.2500
H1 H 0.5000 0.6767 0.2500
C4 C 0.39389(5) 0.78056(14) 0.37983(13)
C5 C 0.40379(6) 0.65538(14) 0.49440(15)
H2 H 0.4449 0.6336 0.5338
C6 C 0.35379(6) 0.56225(15) 0.55135(16)
H3 H 0.3607 0.4783 0.6309
C7 C 0.29381(6) 0.59167(16) 0.49224(17)
H4 H 0.2597 0.5271 0.5304
C8 C 0.28350(5) 0.71530(17) 0.37751(17)
H5 H 0.2424 0.7350 0.3368
C9 C 0.33315(5) 0.81058(14) 0.32187(15)
H6 H 0.3258 0.8962 0.2444
Cl1 Cl 0.393882(12) 1.16480(3) 0.39987(4)
N1 N 0.5000 1.12815(16) 0.2500
C1B C 0.54764(5) 1.04439(12) 0.18745(13)
C2B C 0.55192(4) 0.87457(13) 0.18506(12)
C4B C 0.60611(5) 0.78056(14) 0.12017(13)
C5B C 0.59621(6) 0.65538(14) 0.00560(15)
H2B H 0.5551 0.6336 -0.0338
C6B C 0.64621(6) 0.56225(15) -0.05135(16)
H3B H 0.6393 0.4783 -0.1309
C7B C 0.70619(6) 0.59167(16) 0.00776(17)
H4B H 0.7403 0.5271 -0.0304
C8B C 0.71650(5) 0.71530(17) 0.12249(17)
H5B H 0.7576 0.7350 0.1632
C9B C 0.66685(5) 0.81058(14) 0.17813(15)
H6B H 0.6742 0.8962 0.2556
Cl1B Cl 0.606118(12) 1.16480(3) 0.10013(4)
loop_
_geom_bond_atom_site_label_1
_geom_bond_atom_site_label_2
_geom_bond_site_symmetry_1
_geom_bond_site_symmetry_2
C1 C2 1_555 1_555
C2 C3 1_555 1_555
C3 H1 1_555 1_555
C4 C2 1_555 1_555
C5 C4 1_555 1_555
H2 C5 1_555 1_555
C6 C5 1_555 1_555
H3 C6 1_555 1_555
C7 C6 1_555 1_555
H4 C7 1_555 1_555
C8 C7 1_555 1_555
H5 C8 1_555 1_555
C9 C4 1_555 1_555
H6 C9 1_555 1_555
Cl1 C1 1_555 1_555
N1 C1 1_555 1_555
C1B N1 1_555 1_555
C2B C3 1_555 1_555
C4B C2B 1_555 1_555
C5B C4B 1_555 1_555
H2B C5B 1_555 1_555
C6B C5B 1_555 1_555
H3B C6B 1_555 1_555
C7B C6B 1_555 1_555
H4B C7B 1_555 1_555
C8B C7B 1_555 1_555
H5B C8B 1_555 1_555
C9B C4B 1_555 1_555
H6B C9B 1_555 1_555
Cl1B C1B 1_555 1_555
C8 C9 1_555 1_555
C1B C2B 1_555 1_555
C8B C9B 1_555 1_555

#END
