
#######################################################################
#
#                 Cambridge Crystallographic Data Centre
#                                CCDC 
#
#######################################################################
#
# If this CIF has been generated from an entry in the Cambridge 
# Structural Database, then it will include bibliographic, chemical, 
# crystal, experimental, refinement or atomic coordinate data resulting 
# from the CCDC's data processing and validation procedures.
#
#######################################################################

data_WUMRIG
_chemical_name_common            
3-(Thiophen-2-ylmethyl)-1,3-dihydro-2-oxoindole
_chemical_formula_moiety         'C13 H11 N1 O1 S1'
_chemical_name_systematic        
3-(2-Thienylmethyl)-1,3-dihydro-2H-indol-2-one
_symmetry_cell_setting           monoclinic
_symmetry_space_group_name_H-M   'P 21'
_symmetry_Int_Tables_number      4
_space_group_name_Hall           'P 2yb'
loop_
_symmetry_equiv_pos_site_id
_symmetry_equiv_pos_as_xyz
1 x,y,z
2 -x,1/2+y,-z
_cell_length_a                   5.8503(12)
_cell_length_b                   8.4929(17)
_cell_length_c                   10.957(2)
_cell_angle_alpha                90
_cell_angle_beta                 95.88(3)
_cell_angle_gamma                90
_cell_volume                     541.545
_exptl_crystal_colour            colorless
_exptl_crystal_description       plate
_chemical_melting_point          '134-135 deg.C'
_cell_formula_units_Z            2
loop_
_atom_site_label
_atom_site_type_symbol
_atom_site_fract_x
_atom_site_fract_y
_atom_site_fract_z
S1 S 0.31829(14) 0.98024(11) 0.88311(7)
O1 O 0.4503(4) 1.0124(3) 0.4755(2)
N1 N 0.3362(4) 1.2265(3) 0.5798(2)
H1 H 0.4411 1.2934 0.5600
C1 C -0.1594(5) 1.1432(4) 0.7353(3)
H2 H -0.2611 1.0567 0.7399
C2 C -0.1900(6) 1.2800(4) 0.8005(3)
H3 H -0.3135 1.2872 0.8502
C3 C -0.0427(6) 1.4061(4) 0.7939(3)
H4 H -0.0660 1.4985 0.8399
C4 C 0.1393(6) 1.4010(4) 0.7214(3)
H5 H 0.2402 1.4879 0.7165
C5 C 0.1662(5) 1.2637(3) 0.6571(3)
C6 C 0.3197(5) 1.0763(4) 0.5396(3)
C7 C 0.1065(5) 1.0040(4) 0.5877(2)
H6 H -0.0107 0.9847 0.5163
C8 C 0.0208(5) 1.1344(4) 0.6636(3)
C9 C 0.1574(5) 0.8461(4) 0.6546(3)
H7 H 0.0131 0.8067 0.6835
H8 H 0.2060 0.7688 0.5948
C10 C 0.3381(5) 0.8523(4) 0.7621(3)
C11 C 0.5388(5) 0.7599(4) 0.7816(3)
H9 H 0.5828 0.6819 0.7264
C12 C 0.6676(6) 0.7995(4) 0.8959(3)
H10 H 0.8090 0.7506 0.9247
C13 C 0.5683(6) 0.9129(4) 0.9585(3)
H11 H 0.6309 0.9511 1.0363
loop_
_geom_bond_atom_site_label_1
_geom_bond_atom_site_label_2
_geom_bond_site_symmetry_1
_geom_bond_site_symmetry_2
S1 C10 1_555 1_555
O1 C6 1_555 1_555
N1 H1 1_555 1_555
C1 H2 1_555 1_555
C2 C1 1_555 1_555
H3 C2 1_555 1_555
C3 C2 1_555 1_555
H4 C3 1_555 1_555
C4 C3 1_555 1_555
H5 C4 1_555 1_555
C5 N1 1_555 1_555
C6 N1 1_555 1_555
C7 C6 1_555 1_555
H6 C7 1_555 1_555
C8 C1 1_555 1_555
C9 C7 1_555 1_555
H7 C9 1_555 1_555
H8 C9 1_555 1_555
C10 C9 1_555 1_555
C11 C10 1_555 1_555
H9 C11 1_555 1_555
C12 C11 1_555 1_555
H10 C12 1_555 1_555
C13 S1 1_555 1_555
H11 C13 1_555 1_555
C4 C5 1_555 1_555
C5 C8 1_555 1_555
C7 C8 1_555 1_555
C12 C13 1_555 1_555

#END
