
#######################################################################
#
#                 Cambridge Crystallographic Data Centre
#                                CCDC 
#
#######################################################################
#
# If this CIF has been generated from an entry in the Cambridge 
# Structural Database, then it will include bibliographic, chemical, 
# crystal, experimental, refinement or atomic coordinate data resulting 
# from the CCDC's data processing and validation procedures.
#
#######################################################################

data_WUMREC
_chemical_formula_moiety         'C23 H26 Cl1 N3 O5'
_chemical_name_systematic        
'rac-Di-isopropyl 1-(3-(4-chlorobenzyl)-2-oxo-2,3-dihydro-1H-indol-3-yl)hydrazine-1,2-dicarboxylate'
_symmetry_cell_setting           triclinic
_symmetry_space_group_name_H-M   'P -1'
_symmetry_Int_Tables_number      2
_space_group_name_Hall           '-P 1'
loop_
_symmetry_equiv_pos_site_id
_symmetry_equiv_pos_as_xyz
1 x,y,z
2 -x,-y,-z
_cell_length_a                   8.9418(18)
_cell_length_b                   12.020(2)
_cell_length_c                   12.756(3)
_cell_angle_alpha                115.51(3)
_cell_angle_beta                 92.14(3)
_cell_angle_gamma                107.65(3)
_cell_volume                     1156.42
_exptl_crystal_colour            colorless
_exptl_crystal_description       tetrahedral
_cell_formula_units_Z            2
loop_
_atom_site_label
_atom_site_type_symbol
_atom_site_fract_x
_atom_site_fract_y
_atom_site_fract_z
Cl1 Cl 0.43752(8) 0.37483(6) 0.33201(6)
O1 O 0.88321(15) 0.61365(12) -0.00513(10)
O2 O 1.23884(14) 0.85840(12) 0.09689(11)
O3 O 1.20582(15) 1.02517(12) 0.07053(11)
O4 O 1.08678(17) 1.15266(12) 0.32810(12)
O5 O 0.92303(15) 1.18765(11) 0.21482(11)
N1 N 1.05824(17) 0.63181(13) 0.14331(12)
H1 H 1.0637 0.5525 0.1080
N2 N 1.02264(16) 0.90907(13) 0.13994(13)
N3 N 0.93370(17) 0.98827(13) 0.14819(13)
H2 H 0.8442 0.9588 0.0976
C1 C 1.1736(2) 0.94933(17) 0.39766(15)
H3 H 1.1463 1.0260 0.4206
C2 C 1.2850(2) 0.94441(19) 0.47344(16)
H4 H 1.3339 1.0183 0.5489
C3 C 1.3252(2) 0.8328(2) 0.43988(17)
H5 H 1.4021 0.8317 0.4925
C4 C 1.2550(2) 0.72210(19) 0.33043(17)
H6 H 1.2821 0.6454 0.3073
C5 C 1.1442(2) 0.72872(17) 0.25698(15)
C6 C 1.10358(19) 0.84073(16) 0.28868(14)
C7 C 0.9660(2) 0.67467(16) 0.09439(14)
C8 C 0.97893(19) 0.81472(15) 0.18929(14)
C9 C 0.8147(2) 0.80927(17) 0.22494(16)
H7 H 0.8296 0.8938 0.2953
H8 H 0.7432 0.8027 0.1597
C10 C 0.7306(2) 0.69867(16) 0.25282(15)
C11 C 0.7725(2) 0.70040(18) 0.35985(16)
H9 H 0.8631 0.7703 0.4163
C12 C 0.6837(2) 0.6012(2) 0.38535(18)
H10 H 0.7134 0.6027 0.4584
C13 C 0.5519(2) 0.50065(19) 0.30314(19)
C14 C 0.5060(2) 0.49617(18) 0.19636(18)
H11 H 0.4140 0.4271 0.1409
C15 C 0.5974(2) 0.59494(18) 0.17197(17)
H12 H 0.5683 0.5917 0.0980
C16 C 1.1620(2) 0.93838(16) 0.09997(14)
C17 C 1.4022(2) 0.8919(2) 0.07565(19)
H13 H 1.4079 0.9222 0.0136
C18 C 1.4366(3) 0.7670(3) 0.0309(2)
H14 H 1.3529 0.6973 -0.0371
H15 H 1.4390 0.7411 0.0939
H16 H 1.5406 0.7807 0.0066
C19 C 1.5112(3) 0.9988(3) 0.1873(3)
H17 H 1.4770 1.0752 0.2156
H18 H 1.6205 1.0241 0.1732
H19 H 1.5083 0.9679 0.2471
C20 C 0.9927(2) 1.11564(17) 0.23973(16)
C21 C 0.9592(2) 1.32343(16) 0.30736(16)
H20 H 1.0742 1.3620 0.3474
C22 C 0.8547(3) 1.3224(2) 0.3963(2)
H21 H 0.8773 1.2711 0.4331
H22 H 0.7421 1.2825 0.3565
H23 H 0.8764 1.4131 0.4573
C23 C 0.9307(4) 1.3966(2) 0.2439(2)
H24 H 0.9955 1.3868 0.1823
H25 H 0.9608 1.4901 0.3003
H26 H 0.8172 1.3608 0.2073
loop_
_geom_bond_atom_site_label_1
_geom_bond_atom_site_label_2
_geom_bond_site_symmetry_1
_geom_bond_site_symmetry_2
Cl1 C13 1_555 1_555
O1 C7 1_555 1_555
O2 C16 1_555 1_555
O3 C16 1_555 1_555
O4 C20 1_555 1_555
O5 C20 1_555 1_555
N1 H1 1_555 1_555
N2 N3 1_555 1_555
N3 H2 1_555 1_555
C1 H3 1_555 1_555
C2 C1 1_555 1_555
H4 C2 1_555 1_555
C3 C2 1_555 1_555
H5 C3 1_555 1_555
C4 C3 1_555 1_555
H6 C4 1_555 1_555
C5 N1 1_555 1_555
C6 C1 1_555 1_555
C7 N1 1_555 1_555
C8 N2 1_555 1_555
C9 C8 1_555 1_555
H7 C9 1_555 1_555
H8 C9 1_555 1_555
C10 C9 1_555 1_555
C11 C10 1_555 1_555
H9 C11 1_555 1_555
C12 C11 1_555 1_555
H10 C12 1_555 1_555
C13 C12 1_555 1_555
C14 C13 1_555 1_555
H11 C14 1_555 1_555
C15 C10 1_555 1_555
H12 C15 1_555 1_555
C16 N2 1_555 1_555
C17 O2 1_555 1_555
H13 C17 1_555 1_555
C18 C17 1_555 1_555
H14 C18 1_555 1_555
H15 C18 1_555 1_555
H16 C18 1_555 1_555
C19 C17 1_555 1_555
H17 C19 1_555 1_555
H18 C19 1_555 1_555
H19 C19 1_555 1_555
C20 N3 1_555 1_555
C21 O5 1_555 1_555
H20 C21 1_555 1_555
C22 C21 1_555 1_555
H21 C22 1_555 1_555
H22 C22 1_555 1_555
H23 C22 1_555 1_555
C23 C21 1_555 1_555
H24 C23 1_555 1_555
H25 C23 1_555 1_555
H26 C23 1_555 1_555
C4 C5 1_555 1_555
C5 C6 1_555 1_555
C6 C8 1_555 1_555
C7 C8 1_555 1_555
C14 C15 1_555 1_555

#END
