
#######################################################################
#
#                 Cambridge Crystallographic Data Centre
#                                CCDC 
#
#######################################################################
#
# If this CIF has been generated from an entry in the Cambridge 
# Structural Database, then it will include bibliographic, chemical, 
# crystal, experimental, refinement or atomic coordinate data resulting 
# from the CCDC's data processing and validation procedures.
#
#######################################################################

data_WUMSEE
_chemical_formula_moiety         'C31 H32 N4 O2 S1'
_chemical_name_systematic        
3',6'-bis(diethylamino)-2-(1,3-thiazol-2-yl)spiro[isoindole-1,9'-xanthen]-3(2H)-one
_symmetry_cell_setting           orthorhombic
_symmetry_space_group_name_H-M   'P b c a'
_symmetry_Int_Tables_number      61
_space_group_name_Hall           '-P 2ac 2ab'
loop_
_symmetry_equiv_pos_site_id
_symmetry_equiv_pos_as_xyz
1 x,y,z
2 1/2-x,-y,1/2+z
3 -x,1/2+y,1/2-z
4 1/2+x,1/2-y,-z
5 -x,-y,-z
6 1/2+x,y,1/2-z
7 x,1/2-y,1/2+z
8 1/2-x,1/2+y,z
_cell_length_a                   13.237(2)
_cell_length_b                   17.750(3)
_cell_length_c                   23.566(4)
_cell_angle_alpha                90
_cell_angle_beta                 90
_cell_angle_gamma                90
_cell_volume                     5536.99
_cell_formula_units_Z            8
loop_
_atom_site_label
_atom_site_type_symbol
_atom_site_fract_x
_atom_site_fract_y
_atom_site_fract_z
S1 S 0.62645(10) 0.09551(7) 0.61040(6)
N1 N 0.6139(3) 0.3038(3) 0.31692(15)
N2 N 1.0201(2) 0.4138(2) 0.63565(15)
N3 N 0.6006(2) 0.24454(17) 0.58611(13)
N4 N 0.7412(2) 0.17967(17) 0.55007(16)
O1 O 0.80640(17) 0.33760(14) 0.48507(10)
O2 O 0.4751(2) 0.19597(19) 0.64330(12)
C1 C 0.4594(7) 0.3711(7) 0.2903(4)
H1 H 0.4588 0.3904 0.3284
H2 H 0.3914 0.3619 0.2780
H3 H 0.4905 0.4073 0.2656
C2 C 0.5163(5) 0.3013(5) 0.2887(2)
H4 H 0.5268 0.2874 0.2494
H5 H 0.4759 0.2620 0.3062
C3 C 0.7071(10) 0.3129(6) 0.2738(6)
H6 H 0.7683 0.2887 0.2872
H7 H 0.6912 0.2966 0.2356
C4 C 0.7090(7) 0.3745(11) 0.2783(3)
H8 H 0.6414 0.3932 0.2829
H9 H 0.7387 0.3964 0.2450
H10 H 0.7485 0.3877 0.3110
C5 C 0.7100(3) 0.3206(2) 0.40372(15)
H11 H 0.7694 0.3271 0.3832
C6 C 0.6192(3) 0.3078(2) 0.37503(16)
C7 C 0.5326(3) 0.2953(2) 0.40857(17)
H12 H 0.4710 0.2854 0.3911
C8 C 0.5379(3) 0.2978(2) 0.46637(16)
H13 H 0.4795 0.2889 0.4873
C9 C 0.6273(2) 0.31294(18) 0.49529(14)
C10 C 0.7123(2) 0.32376(18) 0.46240(15)
C11 C 0.8136(2) 0.35211(18) 0.54221(14)
C12 C 0.9076(3) 0.3755(2) 0.56033(15)
H14 H 0.9598 0.3802 0.5341
C13 C 0.9258(3) 0.3921(2) 0.61707(16)
C14 C 0.8447(3) 0.3845(2) 0.65474(16)
H15 H 0.8537 0.3950 0.6931
C15 C 0.7511(3) 0.3612(2) 0.63515(16)
H16 H 0.6985 0.3567 0.6611
C16 C 0.7323(2) 0.34449(18) 0.57900(15)
C17 C 1.0337(4) 0.4551(3) 0.6891(2)
H17 H 1.0744 0.4995 0.6818
H18 H 0.9681 0.4720 0.7024
C18 C 1.0814(6) 0.4115(5) 0.7335(3)
H19 H 1.0400 0.3687 0.7424
H20 H 1.0893 0.4422 0.7667
H21 H 1.1465 0.3946 0.7209
C19 C 1.1069(3) 0.4128(3) 0.5978(2)
H22 H 1.0992 0.3718 0.5710
H23 H 1.1674 0.4033 0.6198
C20 C 1.1200(4) 0.4855(3) 0.5654(2)
H24 H 1.0626 0.4933 0.5412
H25 H 1.1802 0.4827 0.5427
H26 H 1.1256 0.5266 0.5917
C21 C 0.6299(2) 0.31782(19) 0.55894(15)
C22 C 0.5438(3) 0.3675(2) 0.58141(16)
C23 C 0.5286(3) 0.4426(2) 0.57071(19)
H27 H 0.5727 0.4695 0.5476
C24 C 0.4455(4) 0.4774(3) 0.5953(3)
H28 H 0.4330 0.5283 0.5890
C25 C 0.3809(4) 0.4353(4) 0.6296(3)
H29 H 0.3265 0.4589 0.6472
C26 C 0.3953(3) 0.3630(3) 0.6375(2)
H30 H 0.3491 0.3353 0.6587
C27 C 0.4787(3) 0.3275(3) 0.61458(18)
C28 C 0.5130(3) 0.2483(3) 0.61802(16)
C29 C 0.6588(3) 0.1808(2) 0.57937(16)
C30 C 0.7828(3) 0.1090(2) 0.5517(2)
H31 H 0.8425 0.0972 0.5329
C31 C 0.7329(4) 0.0589(2) 0.5816(2)
H32 H 0.7536 0.0093 0.5865
loop_
_geom_bond_atom_site_label_1
_geom_bond_atom_site_label_2
_geom_bond_site_symmetry_1
_geom_bond_site_symmetry_2
S1 C29 1_555 1_555
N1 C2 1_555 1_555
N2 C13 1_555 1_555
N3 C21 1_555 1_555
N4 C29 1_555 1_555
O1 C10 1_555 1_555
O2 C28 1_555 1_555
C1 H1 1_555 1_555
H2 C1 1_555 1_555
H3 C1 1_555 1_555
C2 C1 1_555 1_555
H4 C2 1_555 1_555
H5 C2 1_555 1_555
C3 N1 1_555 1_555
H6 C3 1_555 1_555
H7 C3 1_555 1_555
C4 C3 1_555 1_555
H8 C4 1_555 1_555
H9 C4 1_555 1_555
H10 C4 1_555 1_555
C5 H11 1_555 1_555
C6 N1 1_555 1_555
C7 C6 1_555 1_555
H12 C7 1_555 1_555
C8 C7 1_555 1_555
H13 C8 1_555 1_555
C9 C8 1_555 1_555
C10 C5 1_555 1_555
C11 O1 1_555 1_555
C12 C11 1_555 1_555
H14 C12 1_555 1_555
C13 C12 1_555 1_555
C14 C13 1_555 1_555
H15 C14 1_555 1_555
C15 C14 1_555 1_555
H16 C15 1_555 1_555
C16 C11 1_555 1_555
C17 N2 1_555 1_555
H17 C17 1_555 1_555
H18 C17 1_555 1_555
C18 C17 1_555 1_555
H19 C18 1_555 1_555
H20 C18 1_555 1_555
H21 C18 1_555 1_555
C19 N2 1_555 1_555
H22 C19 1_555 1_555
H23 C19 1_555 1_555
C20 C19 1_555 1_555
H24 C20 1_555 1_555
H25 C20 1_555 1_555
H26 C20 1_555 1_555
C21 C9 1_555 1_555
C22 C21 1_555 1_555
C23 C22 1_555 1_555
H27 C23 1_555 1_555
C24 C23 1_555 1_555
H28 C24 1_555 1_555
C25 C24 1_555 1_555
H29 C25 1_555 1_555
C26 C25 1_555 1_555
H30 C26 1_555 1_555
C27 C22 1_555 1_555
C28 N3 1_555 1_555
C29 N3 1_555 1_555
C30 N4 1_555 1_555
H31 C30 1_555 1_555
C31 S1 1_555 1_555
H32 C31 1_555 1_555
C5 C6 1_555 1_555
C9 C10 1_555 1_555
C15 C16 1_555 1_555
C16 C21 1_555 1_555
C26 C27 1_555 1_555
C27 C28 1_555 1_555
C30 C31 1_555 1_555

#END
