
#######################################################################
#
#                 Cambridge Crystallographic Data Centre
#                                CCDC 
#
#######################################################################
#
# If this CIF has been generated from an entry in the Cambridge 
# Structural Database, then it will include bibliographic, chemical, 
# crystal, experimental, refinement or atomic coordinate data resulting 
# from the CCDC's data processing and validation procedures.
#
#######################################################################

data_WUMYOT01
_chemical_formula_moiety         '0.9(C26 H17 Cl1 N2),0.1(C26 H18 N2)'
_chemical_name_systematic        
'9-Chloro-5,6-dihydro-1-methyl-7-phenyl-13H-indolo[3,2-c]acridine 5,6-dihydro-1-methyl-7-phenyl-13H-indolo[3,2-c]acridine'
_symmetry_cell_setting           triclinic
_symmetry_space_group_name_H-M   'P -1'
_symmetry_Int_Tables_number      2
_space_group_name_Hall           '-P 1'
loop_
_symmetry_equiv_pos_site_id
_symmetry_equiv_pos_as_xyz
1 x,y,z
2 -x,-y,-z
_cell_length_a                   9.0952(6)
_cell_length_b                   10.2519(7)
_cell_length_c                   10.8731(7)
_cell_angle_alpha                80.284(1)
_cell_angle_beta                 68.528(1)
_cell_angle_gamma                86.564(1)
_cell_volume                     929.943
_exptl_crystal_colour            yellow
_exptl_crystal_description       block
_chemical_melting_point          '545-547 K'
_cell_formula_units_Z            2
_exptl_crystal_recrystallization_method ethanol
loop_
_atom_site_label
_atom_site_type_symbol
_atom_site_fract_x
_atom_site_fract_y
_atom_site_fract_z
Cl1 Cl 1.03185(5) 0.37349(4) 0.38986(4)
C1 C 0.87385(18) 0.29204(16) 0.51763(16)
C2 C 0.87752(18) 0.15183(16) 0.53784(16)
H1 H 0.9646 0.1064 0.4832
C3 C 0.75536(18) 0.08303(15) 0.63613(16)
H2 H 0.7575 -0.0110 0.6496
C4 C 0.62366(17) 0.14972(14) 0.71961(15)
C5 C 0.62222(17) 0.29187(14) 0.69796(15)
C6 C 0.75138(18) 0.36157(15) 0.59333(15)
H3 H 0.7521 0.4556 0.5765
C7 C 0.49254(18) 0.35742(14) 0.78191(15)
C8 C 0.37133(17) 0.28145(14) 0.88299(15)
C9 C 0.38506(17) 0.13926(14) 0.89284(15)
C10 C 0.25767(18) 0.06397(14) 0.99218(15)
C11 C 0.12679(18) 0.12063(15) 1.08072(15)
C12 C 0.11773(18) 0.26106(15) 1.07089(16)
H4 H 0.0301 0.3010 1.1313
C13 C 0.23488(18) 0.33813(15) 0.97467(16)
H5 H 0.2263 0.4317 0.9679
C14 C 0.02389(18) 0.01290(15) 1.16340(15)
C15 C -0.12231(18) 0.00357(16) 1.26921(16)
H6 H -0.1754 0.0808 1.3007
C16 C -0.1881(2) -0.12056(18) 1.32710(17)
H7 H -0.2865 -0.1283 1.3998
C17 C -0.1113(2) -0.23513(17) 1.27986(17)
H8 H -0.1599 -0.3187 1.3215
C18 C 0.03282(19) -0.23042(15) 1.17469(16)
C19 C 0.1165(2) -0.34999(16) 1.11927(18)
H9 H 0.0457 -0.4267 1.1571
H10 H 0.2108 -0.3671 1.1428
H11 H 0.1475 -0.3343 1.0217
C20 C 0.09918(18) -0.10452(15) 1.11894(15)
C21 C 0.48514(17) 0.50527(14) 0.75909(16)
C22 C 0.4181(2) 0.57009(16) 0.66893(18)
H12 H 0.3754 0.5198 0.6240
C23 C 0.4131(2) 0.70730(16) 0.64406(19)
H13 H 0.3675 0.7503 0.5821
C24 C 0.47487(19) 0.78223(15) 0.70965(17)
H14 H 0.4708 0.8761 0.6932
C25 C 0.54201(19) 0.71876(15) 0.79892(16)
H15 H 0.5844 0.7693 0.8438
C26 C 0.54781(18) 0.58082(15) 0.82343(16)
H16 H 0.5949 0.5381 0.8845
N1 N 0.50665(15) 0.07551(12) 0.81449(13)
N2 N 0.24090(15) -0.07107(12) 1.01563(13)
H17 H 0.3092 -0.1271 0.9720
loop_
_geom_bond_atom_site_label_1
_geom_bond_atom_site_label_2
_geom_bond_site_symmetry_1
_geom_bond_site_symmetry_2
Cl1 C1 1_555 1_555
C1 C2 1_555 1_555
C2 H1 1_555 1_555
C3 C2 1_555 1_555
H2 C3 1_555 1_555
C4 C3 1_555 1_555
C5 C4 1_555 1_555
C6 C1 1_555 1_555
H3 C6 1_555 1_555
C7 C5 1_555 1_555
C8 C7 1_555 1_555
C9 C8 1_555 1_555
C10 C9 1_555 1_555
C11 C10 1_555 1_555
C12 C11 1_555 1_555
H4 C12 1_555 1_555
C13 C8 1_555 1_555
H5 C13 1_555 1_555
C14 C11 1_555 1_555
C15 C14 1_555 1_555
H6 C15 1_555 1_555
C16 C15 1_555 1_555
H7 C16 1_555 1_555
C17 C16 1_555 1_555
H8 C17 1_555 1_555
C18 C17 1_555 1_555
C19 C18 1_555 1_555
H9 C19 1_555 1_555
H10 C19 1_555 1_555
H11 C19 1_555 1_555
C20 C14 1_555 1_555
C21 C7 1_555 1_555
C22 C21 1_555 1_555
H12 C22 1_555 1_555
C23 C22 1_555 1_555
H13 C23 1_555 1_555
C24 C23 1_555 1_555
H14 C24 1_555 1_555
C25 C24 1_555 1_555
H15 C25 1_555 1_555
C26 C21 1_555 1_555
H16 C26 1_555 1_555
N1 C4 1_555 1_555
N2 C10 1_555 1_555
H17 N2 1_555 1_555
C5 C6 1_555 1_555
C9 N1 1_555 1_555
C12 C13 1_555 1_555
C18 C20 1_555 1_555
C20 N2 1_555 1_555
C25 C26 1_555 1_555

#END
