
#######################################################################
#
#                 Cambridge Crystallographic Data Centre
#                                CCDC 
#
#######################################################################
#
# If this CIF has been generated from an entry in the Cambridge 
# Structural Database, then it will include bibliographic, chemical, 
# crystal, experimental, refinement or atomic coordinate data resulting 
# from the CCDC's data processing and validation procedures.
#
#######################################################################

data_WUMYUA
_chemical_compound_source        'Euphorbia lathyris'
_chemical_formula_moiety         'C28 H42 O6'
_chemical_name_systematic        
'4a-hydroxy-1,1,3,6-tetramethyl-9-methylene-4-oxo-1a,4,4a,5,6,7,7a,8,9,10,11,11a-dodecahydro-1H-cyclopenta[a]cyclopropa[f][11]annulene-7,8-diyl dibutanoate'
_chemical_properties_biological  'MDR reversal activity'
_symmetry_cell_setting           orthorhombic
_symmetry_space_group_name_H-M   'P 21 21 21'
_symmetry_Int_Tables_number      19
_space_group_name_Hall           'P 2ac 2ab'
loop_
_symmetry_equiv_pos_site_id
_symmetry_equiv_pos_as_xyz
1 x,y,z
2 1/2-x,-y,1/2+z
3 1/2+x,1/2-y,-z
4 -x,1/2+y,1/2-z
_cell_length_a                   10.52010(10)
_cell_length_b                   11.0753(2)
_cell_length_c                   23.4802(3)
_cell_angle_alpha                90
_cell_angle_beta                 90
_cell_angle_gamma                90
_cell_volume                     2735.75
_cell_formula_units_Z            4
loop_
_atom_site_label
_atom_site_type_symbol
_atom_site_fract_x
_atom_site_fract_y
_atom_site_fract_z
O1 O 1.04894(11) 0.85525(12) 0.32132(5)
H1 H 1.0307 0.8401 0.2881
O2 O 0.80873(12) 0.94781(15) 0.26614(5)
O3 O 0.81079(13) 1.14508(15) 0.34968(6)
O4 O 0.9423(2) 1.2418(2) 0.29013(8)
O5 O 0.92706(17) 0.7036(2) 0.43972(9)
C1 C 0.94469(17) 0.82380(18) 0.35733(8)
O6 O 0.62109(17) 1.0123(3) 0.23317(8)
C2 C 0.95985(19) 1.10865(18) 0.42432(8)
C3 C 0.99325(18) 0.77791(18) 0.41550(9)
C4 C 1.10577(18) 0.82648(16) 0.44476(8)
C5 C 0.91202(16) 1.06020(17) 0.36727(7)
H2 H 0.9813 1.0633 0.3394
C6 C 0.9132(3) 1.0709(3) 0.47318(9)
H3 H 0.9391 1.1069 0.5070
H4 H 0.8545 1.0082 0.4739
C7 C 0.75112(17) 0.9147(2) 0.32016(7)
H5 H 0.6735 0.9609 0.3277
C8 C 0.85186(15) 0.93471(18) 0.36607(7)
H6 H 0.8098 0.9231 0.4029
C9 C 1.3973(2) 1.0066(2) 0.35334(11)
H7 H 1.3147 0.9961 0.3366
H8 H 1.4444 0.9326 0.3502
H9 H 1.4418 1.0698 0.3338
C10 C 1.17303(16) 0.91647(15) 0.42273(7)
H10 H 1.1544 0.9369 0.3852
C11 C 1.27209(19) 0.98683(17) 0.45002(8)
H11 H 1.2909 0.9657 0.4897
C12 C 0.6516(3) 0.7271(4) 0.27243(13)
H12 H 0.6451 0.6411 0.2770
H13 H 0.6938 0.7450 0.2372
H14 H 0.5680 0.7618 0.2720
C13 C 1.38286(18) 1.03986(18) 0.41577(9)
C14 C 1.1313(3) 0.7737(3) 0.50288(11)
H15 H 1.0654 0.7982 0.5287
H16 H 1.2119 0.8022 0.5166
H17 H 1.1328 0.6872 0.5003
C15 C 0.72752(19) 0.7799(2) 0.32180(9)
H18 H 0.6809 0.7622 0.3570
C16 C 1.1856(2) 1.18059(18) 0.39533(10)
H19 H 1.1730 1.1277 0.3629
H20 H 1.2230 1.2549 0.3813
C17 C 1.0555(2) 1.21015(19) 0.42090(11)
H21 H 1.0688 1.2410 0.4591
H22 H 1.0182 1.2749 0.3987
C18 C 0.8608(2) 0.7268(2) 0.32801(12)
H23 H 0.8953 0.7065 0.2909
H24 H 0.8581 0.6540 0.3509
C19 C 0.7327(2) 0.9958(3) 0.22643(9)
C20 C 0.8071(3) 1.0247(3) 0.17381(9)
H25 H 0.8690 0.9610 0.1676
H26 H 0.8536 1.0991 0.1801
C21 C 0.7277(4) 1.0384(3) 0.12045(11)
H27 H 0.7850 1.0474 0.0884
H28 H 0.6808 0.9640 0.1148
C22 C 1.2790(2) 1.12133(17) 0.43537(10)
H29 H 1.3031 1.1724 0.4677
C23 C 0.8383(3) 1.2286(2) 0.31114(9)
C24 C 1.5089(2) 1.0461(3) 0.44735(15)
H30 H 1.5526 0.9704 0.4436
H31 H 1.4935 1.0624 0.4869
H32 H 1.5602 1.1095 0.4315
C25 C 0.6376(4) 1.1379(4) 0.11896(19)
H33 H 0.5621 1.1157 0.1394
H34 H 0.6162 1.1559 0.0801
H35 H 0.6751 1.2078 0.1364
C26 C 0.7232(4) 1.3039(4) 0.29590(13)
H36 H 0.7530 1.3760 0.2766
H37 H 0.6730 1.2585 0.2687
C27 C 0.6797(8) 1.4029(14) 0.3908(3)
H38 H 0.6854 1.4878 0.3829
H39 H 0.7613 1.3733 0.4026
H40 H 0.6189 1.3895 0.4206
C28 C 0.6404(4) 1.3411(5) 0.3410(2)
H41 H 0.5758 1.3913 0.3235
H42 H 0.5974 1.2686 0.3539
H43? H 0.7271 1.3214 0.2555
H44? H 0.6481 1.2550 0.3022
C29? C 0.7064(10) 1.4155(7) 0.3254(5)
H45? H 0.7650 1.4746 0.3100
H46? H 0.6208 1.4446 0.3186
C30? C 0.726(2) 1.407(3) 0.3850(5)
H47? H 0.8048 1.4453 0.3948
H48? H 0.7296 1.3231 0.3958
H49? H 0.6575 1.4455 0.4047
loop_
_geom_bond_atom_site_label_1
_geom_bond_atom_site_label_2
_geom_bond_site_symmetry_1
_geom_bond_site_symmetry_2
O1 H1 1_555 1_555
O2 C7 1_555 1_555
O3 C5 1_555 1_555
O4 C23 1_555 1_555
O5 C3 1_555 1_555
C1 O1 1_555 1_555
O6 C19 1_555 1_555
C2 C5 1_555 1_555
C3 C1 1_555 1_555
C4 C3 1_555 1_555
C5 H2 1_555 1_555
C6 C2 1_555 1_555
H3 C6 1_555 1_555
H4 C6 1_555 1_555
C7 H5 1_555 1_555
C8 C1 1_555 1_555
H6 C8 1_555 1_555
C9 H7 1_555 1_555
H8 C9 1_555 1_555
H9 C9 1_555 1_555
C10 C4 1_555 1_555
H10 C10 1_555 1_555
C11 C10 1_555 1_555
H11 C11 1_555 1_555
C12 H12 1_555 1_555
H13 C12 1_555 1_555
H14 C12 1_555 1_555
C13 C9 1_555 1_555
C14 C4 1_555 1_555
H15 C14 1_555 1_555
H16 C14 1_555 1_555
H17 C14 1_555 1_555
C15 C7 1_555 1_555
H18 C15 1_555 1_555
C16 H19 1_555 1_555
H20 C16 1_555 1_555
C17 C2 1_555 1_555
H21 C17 1_555 1_555
H22 C17 1_555 1_555
C18 C1 1_555 1_555
H23 C18 1_555 1_555
H24 C18 1_555 1_555
C19 O2 1_555 1_555
C20 C19 1_555 1_555
H25 C20 1_555 1_555
H26 C20 1_555 1_555
C21 C20 1_555 1_555
H27 C21 1_555 1_555
H28 C21 1_555 1_555
C22 C11 1_555 1_555
H29 C22 1_555 1_555
C23 O3 1_555 1_555
C24 C13 1_555 1_555
H30 C24 1_555 1_555
H31 C24 1_555 1_555
H32 C24 1_555 1_555
C25 C21 1_555 1_555
H33 C25 1_555 1_555
H34 C25 1_555 1_555
H35 C25 1_555 1_555
C26 C23 1_555 1_555
H36 C26 1_555 1_555
H37 C26 1_555 1_555
C27 H38 1_555 1_555
H39 C27 1_555 1_555
H40 C27 1_555 1_555
C28 C26 1_555 1_555
H41 C28 1_555 1_555
H42 C28 1_555 1_555
C5 C8 1_555 1_555
C7 C8 1_555 1_555
C11 C13 1_555 1_555
C12 C15 1_555 1_555
C13 C22 1_555 1_555
C15 C18 1_555 1_555
C16 C17 1_555 1_555
C16 C22 1_555 1_555
C27 C28 1_555 1_555

#END
