
#######################################################################
#
#                 Cambridge Crystallographic Data Centre
#                                CCDC 
#
#######################################################################
#
# If this CIF has been generated from an entry in the Cambridge 
# Structural Database, then it will include bibliographic, chemical, 
# crystal, experimental, refinement or atomic coordinate data resulting 
# from the CCDC's data processing and validation procedures.
#
#######################################################################

data_WUMYOT
_chemical_formula_moiety         '0.9(C26 H17 Cl1 N2),0.1(C26 H18 N2)'
_chemical_name_systematic        
'9-Chloro-5,6-dihydro-1-methyl-7-phenyl-13H-indolo[3,2-c]acridine 5,6-dihydro-1-methyl-7-phenyl-13H-indolo[3,2-c]acridine'
_symmetry_cell_setting           triclinic
_symmetry_space_group_name_H-M   'P -1'
_symmetry_Int_Tables_number      2
_space_group_name_Hall           '-P 1'
loop_
_symmetry_equiv_pos_site_id
_symmetry_equiv_pos_as_xyz
1 x,y,z
2 -x,-y,-z
_cell_length_a                   9.0952(6)
_cell_length_b                   10.2519(7)
_cell_length_c                   10.8731(7)
_cell_angle_alpha                80.284(1)
_cell_angle_beta                 68.528(1)
_cell_angle_gamma                86.564(1)
_cell_volume                     929.943
_exptl_crystal_colour            yellow
_exptl_crystal_description       block
_chemical_melting_point          '545-547 K'
_cell_formula_units_Z            2
_exptl_crystal_recrystallization_method ethanol
loop_
_atom_site_label
_atom_site_type_symbol
_atom_site_fract_x
_atom_site_fract_y
_atom_site_fract_z
Cl1 Cl 1.03189(4) 0.37351(3) 0.38983(3)
C1 C 0.8720(2) 0.29064(17) 0.5191(2)
C2 C 0.8759(3) 0.14984(17) 0.5388(3)
H1 H 0.9625 0.1043 0.4836
C3 C 0.7539(2) 0.08153(16) 0.63798(19)
H2 H 0.7562 -0.0125 0.6522
C4 C 0.6221(3) 0.14829(18) 0.7212(3)
C5 C 0.62010(19) 0.29056(16) 0.6994(2)
C6 C 0.7498(3) 0.3603(2) 0.5952(3)
H3 H 0.7510 0.4543 0.5790
C7 C 0.4907(3) 0.35614(18) 0.7835(3)
C8 C 0.3691(2) 0.28049(19) 0.8846(3)
C9 C 0.3829(3) 0.1384(2) 0.8947(3)
C10 C 0.2553(2) 0.06285(19) 0.9936(2)
C11 C 0.1247(3) 0.1196(2) 1.0820(4)
C12 C 0.11528(17) 0.26016(19) 1.0716(2)
H4 H 0.0265 0.2999 1.1310
C13 C 0.2330(3) 0.3378(3) 0.9768(2)
H5 H 0.2253 0.4313 0.9714
C14 C 0.0220(3) 0.0117(2) 1.1651(3)
C15 C -0.12493(19) 0.0030(3) 1.2702(3)
H6 H -0.1789 0.0804 1.3004
C16 C -0.1897(4) -0.1213(3) 1.3289(3)
H7 H -0.2871 -0.1292 1.4028
C17 C -0.1138(2) -0.2360(2) 1.2810(3)
H8 H -0.1634 -0.3193 1.3217
C18 C 0.0311(3) -0.2316(2) 1.1766(2)
C19 C 0.1142(3) -0.3506(3) 1.1198(4)
H9 H 0.0423 -0.4267 1.1551
H10 H 0.2070 -0.3700 1.1452
H11 H 0.1478 -0.3330 1.0220
C20 C 0.0970(3) -0.1055(2) 1.1207(3)
C21 C 0.4839(4) 0.50405(19) 0.7605(3)
C22 C 0.4195(7) 0.5692(3) 0.6685(7)
H12 H 0.3799 0.5195 0.6211
C23 C 0.4132(8) 0.7066(3) 0.6458(5)
H13 H 0.3651 0.7501 0.5859
C24 C 0.4767(3) 0.7811(2) 0.7103(3)
H14 H 0.4745 0.8750 0.6927
C25 C 0.5432(3) 0.71739(18) 0.8003(2)
H15 H 0.5858 0.7675 0.8454
C26 C 0.5474(4) 0.57899(17) 0.8246(3)
H16 H 0.5942 0.5356 0.8856
N1 N 0.5046(2) 0.07428(19) 0.8162(2)
N2 N 0.2389(2) -0.07253(19) 1.0166(3)
H17 H 0.3069 -0.1286 0.9728
C27? C 0.901(2) 0.3133(18) 0.496(2)
H18? H 0.9889 0.3600 0.4291
C28? C 0.895(3) 0.1762(19) 0.526(3)
H19? H 0.9877 0.1302 0.4809
C29? C 0.776(3) 0.1037(18) 0.611(2)
H20? H 0.7774 0.0106 0.6126
C30? C 0.642(3) 0.1663(18) 0.701(3)
C31? C 0.650(2) 0.3091(17) 0.679(2)
C32? C 0.769(3) 0.376(2) 0.573(3)
H21? H 0.7599 0.4691 0.5509
C33? C 0.513(3) 0.3709(18) 0.764(3)
C34? C 0.398(3) 0.2936(19) 0.863(3)
C35? C 0.406(3) 0.1484(19) 0.874(3)
C36? C 0.286(2) 0.0792(19) 0.976(3)
C37? C 0.150(3) 0.1301(19) 1.066(4)
C38? C 0.151(2) 0.274(2) 1.060(3)
H22? H 0.0798 0.3164 1.1299
C39? C 0.256(3) 0.340(3) 0.952(3)
H23? H 0.2328 0.4312 0.9305
C40? C 0.044(3) 0.026(2) 1.145(3)
C41? C -0.092(3) 0.009(3) 1.258(3)
H24? H -0.1344 0.0821 1.3023
C42? C -0.168(4) -0.112(3) 1.307(4)
H25? H -0.2754 -0.1181 1.3668
C43? C -0.080(3) -0.226(2) 1.265(3)
H26? H -0.1137 -0.3105 1.3168
C44? C 0.053(3) -0.217(2) 1.153(3)
C45? C 0.141(4) -0.342(3) 1.112(5)
H27? H 0.1071 -0.4146 1.1879
H28? H 0.2549 -0.3278 1.0847
H29? H 0.1183 -0.3657 1.0370
C46? C 0.122(3) -0.094(2) 1.100(3)
C47? C 0.499(4) 0.5184(18) 0.743(4)
C48? C 0.404(7) 0.579(3) 0.674(7)
H30? H 0.3321 0.5264 0.6580
C49? C 0.412(8) 0.715(3) 0.627(5)
H31? H 0.3914 0.7507 0.5486
C50? C 0.453(4) 0.795(2) 0.702(4)
H32? H 0.4267 0.8864 0.6980
C51? C 0.528(3) 0.737(2) 0.778(3)
H33? H 0.5719 0.7934 0.8169
C52? C 0.552(5) 0.603(2) 0.809(4)
H34? H 0.6007 0.5692 0.8716
N3? N 0.531(3) 0.089(2) 0.794(3)
N4? N 0.262(3) -0.055(2) 1.005(3)
H35? H 0.3327 -0.1114 0.9637
loop_
_geom_bond_atom_site_label_1
_geom_bond_atom_site_label_2
_geom_bond_site_symmetry_1
_geom_bond_site_symmetry_2
Cl1 C1 1_555 1_555
C1 C2 1_555 1_555
C2 H1 1_555 1_555
C3 C2 1_555 1_555
H2 C3 1_555 1_555
C4 C3 1_555 1_555
C5 C4 1_555 1_555
C6 C1 1_555 1_555
H3 C6 1_555 1_555
C7 C5 1_555 1_555
C8 C7 1_555 1_555
C9 C8 1_555 1_555
C10 C9 1_555 1_555
C11 C10 1_555 1_555
C12 C11 1_555 1_555
H4 C12 1_555 1_555
C13 C8 1_555 1_555
H5 C13 1_555 1_555
C14 C11 1_555 1_555
C15 C14 1_555 1_555
H6 C15 1_555 1_555
C16 C15 1_555 1_555
H7 C16 1_555 1_555
C17 C16 1_555 1_555
H8 C17 1_555 1_555
C18 C17 1_555 1_555
C19 C18 1_555 1_555
H9 C19 1_555 1_555
H10 C19 1_555 1_555
H11 C19 1_555 1_555
C20 C14 1_555 1_555
C21 C7 1_555 1_555
C22 C21 1_555 1_555
H12 C22 1_555 1_555
C23 C22 1_555 1_555
H13 C23 1_555 1_555
C24 C23 1_555 1_555
H14 C24 1_555 1_555
C25 C24 1_555 1_555
H15 C25 1_555 1_555
C26 C21 1_555 1_555
H16 C26 1_555 1_555
N1 C4 1_555 1_555
N2 C10 1_555 1_555
H17 N2 1_555 1_555
C5 C6 1_555 1_555
C9 N1 1_555 1_555
C12 C13 1_555 1_555
C18 C20 1_555 1_555
C20 N2 1_555 1_555
C25 C26 1_555 1_555

#END
