
#######################################################################
#
#                 Cambridge Crystallographic Data Centre
#                                CCDC 
#
#######################################################################
#
# If this CIF has been generated from an entry in the Cambridge 
# Structural Database, then it will include bibliographic, chemical, 
# crystal, experimental, refinement or atomic coordinate data resulting 
# from the CCDC's data processing and validation procedures.
#
#######################################################################

data_WUMYUZ
_chemical_formula_moiety         '0.42(C26 H17 Cl1 N2),0.58(C26 H18 N2)'
_chemical_name_systematic        
'9-Chloro-5,6-dihydro-1-methyl-7-phenyl-13H-indolo[3,2-c]acridine 5,6-dihydro-1-methyl-7-phenyl-13H-indolo[3,2-c]acridine'
_symmetry_cell_setting           triclinic
_symmetry_space_group_name_H-M   'P -1'
_symmetry_Int_Tables_number      2
_space_group_name_Hall           '-P 1'
loop_
_symmetry_equiv_pos_site_id
_symmetry_equiv_pos_as_xyz
1 x,y,z
2 -x,-y,-z
_cell_length_a                   9.3007(13)
_cell_length_b                   10.3040(15)
_cell_length_c                   10.5200(15)
_cell_angle_alpha                79.296(2)
_cell_angle_beta                 66.305(2)
_cell_angle_gamma                87.185(2)
_cell_volume                     906.757
_exptl_crystal_colour            yellow
_exptl_crystal_description       block
_chemical_melting_point          '539-542 K'
_cell_formula_units_Z            2
_exptl_crystal_recrystallization_method ethanol
loop_
_atom_site_label
_atom_site_type_symbol
_atom_site_fract_x
_atom_site_fract_y
_atom_site_fract_z
C27 C 0.9072(8) 0.3251(6) 0.4899(8)
H18 H 0.9954 0.3764 0.4206
C28 C 0.9079(11) 0.1845(7) 0.5092(10)
H19 H 0.9966 0.1429 0.4502
C29 C 0.7860(10) 0.1089(8) 0.6091(10)
H20 H 0.7903 0.0153 0.6208
C30 C 0.6495(10) 0.1702(9) 0.6980(10)
C31 C 0.6479(10) 0.3109(9) 0.6783(11)
C32 C 0.7791(12) 0.3845(10) 0.5716(11)
H21 H 0.7774 0.4783 0.5569
C33 C 0.5122(12) 0.3701(9) 0.7692(11)
C34 C 0.3895(10) 0.2901(8) 0.8735(11)
C35 C 0.4030(12) 0.1487(10) 0.8802(12)
C36 C 0.2737(11) 0.0702(9) 0.9831(12)
C37 C 0.1371(14) 0.1198(11) 1.0741(13)
C38 C 0.1273(12) 0.2620(9) 1.0684(12)
H22 H 0.0384 0.2987 1.1332
C39 C 0.2469(13) 0.3410(12) 0.9695(12)
H23 H 0.2372 0.4340 0.9624
C40 C 0.0331(14) 0.0077(15) 1.1598(18)
C41 C -0.1179(17) -0.0056(17) 1.2658(17)
H24 H -0.1706 0.0718 1.2953
C42 C -0.1942(17) -0.1269(13) 1.3295(19)
H25 H -0.2956 -0.1349 1.4042
C43 C -0.111(3) -0.243(3) 1.276(3)
H26 H -0.1594 -0.3283 1.3163
C44 C 0.0389(16) -0.2300(11) 1.1673(16)
C45 C 0.1240(16) -0.3542(9) 1.1127(12)
H27 H 0.0580 -0.4331 1.1673
H28 H 0.2241 -0.3613 1.1235
H29 H 0.1437 -0.3467 1.0128
C46 C 0.1112(12) -0.1068(11) 1.1108(14)
C47 C 0.492(3) 0.5159(8) 0.754(3)
C48 C 0.412(3) 0.5791(13) 0.674(3)
H30 H 0.3639 0.5285 0.6339
C49 C 0.402(2) 0.7152(12) 0.652(2)
H31 H 0.3480 0.7569 0.5968
C50 C 0.469(3) 0.7919(13) 0.710(2)
H32 H 0.4576 0.8850 0.6980
C51 C 0.5529(16) 0.7300(13) 0.7844(15)
H33 H 0.6056 0.7823 0.8188
C52 C 0.5629(15) 0.5945(12) 0.8109(13)
H34 H 0.6169 0.5542 0.8672
N3 N 0.5307(10) 0.0915(9) 0.7954(11)
N4 N 0.2542(15) -0.0670(13) 1.0045(15)
H35 H 0.3237 -0.1200 0.9567
Cl1? Cl 1.04113(11) 0.37752(8) 0.38573(9)
C1? C 0.8740(11) 0.2930(8) 0.5162(9)
C2? C 0.8767(13) 0.1523(10) 0.5392(13)
H1? H 0.9660 0.1075 0.4857
C3? C 0.7485(13) 0.0851(12) 0.6392(14)
H2? H 0.7460 -0.0086 0.6515
C4? C 0.6174(14) 0.1480(11) 0.7268(13)
C5? C 0.6162(14) 0.2903(13) 0.7048(14)
C6? C 0.7496(16) 0.3633(12) 0.5965(14)
H3? H 0.7533 0.4571 0.5797
C7? C 0.4847(15) 0.3523(10) 0.7908(15)
C8? C 0.3580(14) 0.2719(13) 0.8936(14)
C9? C 0.3717(15) 0.1306(12) 0.9058(16)
C10? C 0.2419(15) 0.0506(14) 1.0040(15)
C11? C 0.1084(17) 0.1035(13) 1.1006(18)
C12? C 0.1013(18) 0.2410(13) 1.0874(15)
H4? H 0.0092 0.2778 1.1480
C13? C 0.2198(18) 0.3243(16) 0.9922(18)
H5? H 0.2119 0.4169 0.9903
C14? C -0.0001(19) -0.002(2) 1.181(3)
C15? C -0.148(2) -0.019(2) 1.291(2)
H6? H -0.2062 0.0529 1.3301
C16? C -0.205(3) -0.149(2) 1.339(3)
H7? H -0.3070 -0.1639 1.4120
C17? C -0.132(4) -0.255(4) 1.293(5)
H8? H -0.1832 -0.3385 1.3351
C18? C 0.015(2) -0.2490(17) 1.186(2)
C19? C 0.099(2) -0.3562(16) 1.1216(19)
H9? H 0.0270 -0.4321 1.1479
H10? H 0.1835 -0.3813 1.1541
H11? H 0.1446 -0.3285 1.0188
C20? C 0.0764(17) -0.1182(18) 1.134(2)
C21? C 0.487(5) 0.4996(12) 0.761(4)
C22? C 0.416(4) 0.5655(18) 0.674(4)
H12? H 0.3719 0.5154 0.6305
C23? C 0.407(3) 0.7008(17) 0.650(3)
H13? H 0.3552 0.7432 0.5927
C24? C 0.475(4) 0.776(2) 0.711(3)
H14? H 0.4757 0.8696 0.6894
C25? C 0.5429(18) 0.7141(17) 0.802(2)
H15? H 0.5819 0.7634 0.8498
C26? C 0.5509(18) 0.5748(17) 0.8205(19)
H16? H 0.6031 0.5314 0.8772
N1? N 0.4952(14) 0.0700(13) 0.8232(16)
N2? N 0.226(2) -0.0820(17) 1.029(2)
H17? H 0.2970 -0.1366 0.9869
loop_
_geom_bond_atom_site_label_1
_geom_bond_atom_site_label_2
_geom_bond_site_symmetry_1
_geom_bond_site_symmetry_2
C27 H18 1_555 1_555
C28 C27 1_555 1_555
H19 C28 1_555 1_555
C29 C28 1_555 1_555
H20 C29 1_555 1_555
C30 C29 1_555 1_555
C31 C30 1_555 1_555
C32 C27 1_555 1_555
H21 C32 1_555 1_555
C33 C31 1_555 1_555
C34 C33 1_555 1_555
C35 C34 1_555 1_555
C36 C35 1_555 1_555
C37 C36 1_555 1_555
C38 C37 1_555 1_555
H22 C38 1_555 1_555
C39 C34 1_555 1_555
H23 C39 1_555 1_555
C40 C37 1_555 1_555
C41 C40 1_555 1_555
H24 C41 1_555 1_555
C42 C41 1_555 1_555
H25 C42 1_555 1_555
C43 C42 1_555 1_555
H26 C43 1_555 1_555
C44 C43 1_555 1_555
C45 C44 1_555 1_555
H27 C45 1_555 1_555
H28 C45 1_555 1_555
H29 C45 1_555 1_555
C46 C40 1_555 1_555
C47 C33 1_555 1_555
C48 C47 1_555 1_555
H30 C48 1_555 1_555
C49 C48 1_555 1_555
H31 C49 1_555 1_555
C50 C49 1_555 1_555
H32 C50 1_555 1_555
C51 C50 1_555 1_555
H33 C51 1_555 1_555
C52 C47 1_555 1_555
H34 C52 1_555 1_555
N3 C30 1_555 1_555
N4 C36 1_555 1_555
H35 N4 1_555 1_555
C31 C32 1_555 1_555
C35 N3 1_555 1_555
C38 C39 1_555 1_555
C44 C46 1_555 1_555
C46 N4 1_555 1_555
C51 C52 1_555 1_555

#END
