
#######################################################################
#
#                 Cambridge Crystallographic Data Centre
#                                CCDC 
#
#######################################################################
#
# If this CIF has been generated from an entry in the Cambridge 
# Structural Database, then it will include bibliographic, chemical, 
# crystal, experimental, refinement or atomic coordinate data resulting 
# from the CCDC's data processing and validation procedures.
#
#######################################################################

data_WUMZEL
_chemical_compound_source        'Euphorbia lathyris'
_chemical_formula_moiety         'C36 H42 O6'
_chemical_name_systematic        
'4a-hydroxy-1,1,3,6-tetramethyl-9-methylene-4-oxo-1a,4,4a,5,6,7,7a,8,9,10,11,11a-dodecahydro-1H-cyclopenta[a]cyclopropa[f][11]annulene-7,8-diyl bis(phenylacetate)'
_chemical_properties_biological  'MDR reversal activity'
_symmetry_cell_setting           monoclinic
_symmetry_space_group_name_H-M   'P 21'
_symmetry_Int_Tables_number      4
_space_group_name_Hall           'P 2yb'
loop_
_symmetry_equiv_pos_site_id
_symmetry_equiv_pos_as_xyz
1 x,y,z
2 -x,1/2+y,-z
_cell_length_a                   10.6366(5)
_cell_length_b                   24.3884(10)
_cell_length_c                   12.1712(5)
_cell_angle_alpha                90
_cell_angle_beta                 99.001(4)
_cell_angle_gamma                90
_cell_volume                     3118.45
_exptl_crystal_colour            colorless
_exptl_crystal_description       block
_cell_formula_units_Z            4
loop_
_atom_site_label
_atom_site_type_symbol
_atom_site_fract_x
_atom_site_fract_y
_atom_site_fract_z
O1 O 0.5326(2) 0.64408(10) 0.71871(16)
H1 H 0.463(4) 0.653(2) 0.726(3)
O2 O 0.7483(2) 0.54206(9) 0.82440(17)
O3 O 0.36899(18) 0.65828(8) 0.87559(15)
O4 O 0.2519(3) 0.67971(13) 1.0067(2)
O5 O 0.5866(2) 0.70858(8) 1.04345(15)
O6 O 0.4808(2) 0.78087(10) 0.95704(19)
C1 C 0.4872(3) 0.55692(14) 0.8025(3)
H2 H 0.4252 0.5578 0.7350
H3 H 0.5333 0.5225 0.8046
C2 C 0.4201(3) 0.56177(13) 0.9045(2)
H4 H 0.4622 0.5364 0.9611
C3 C 0.4502(3) 0.61958(12) 0.9464(2)
H5 H 0.4432 0.6237 1.0253
C4 C 0.5847(3) 0.63005(12) 0.9232(2)
H6 H 0.6428 0.6074 0.9748
C5 C 0.6284(3) 0.68939(12) 0.9398(2)
H7 H 0.5856 0.7113 0.8775
C6 C 0.7696(3) 0.70152(13) 0.9551(2)
C7 C 0.8021(3) 0.76071(13) 0.9308(2)
H8 H 0.8932 0.7655 0.9521
H9 H 0.7606 0.7844 0.9783
C8 C 0.7655(3) 0.78047(13) 0.8104(2)
H10 H 0.6858 0.7632 0.7789
H11 H 0.7509 0.8197 0.8113
C9 C 0.8628(3) 0.76893(13) 0.7347(2)
H12 H 0.9462 0.7852 0.7612
C10 C 0.8327(3) 0.76575(13) 0.6112(2)
C11 C 0.8712(3) 0.71333(14) 0.6772(2)
H13 H 0.9576 0.7001 0.6742
C12 C 0.7807(3) 0.67181(13) 0.7000(2)
H14 H 0.6950 0.6814 0.6856
C13 C 0.8080(3) 0.62091(12) 0.7398(2)
C14 C 0.7146(3) 0.58678(13) 0.7863(2)
C15 C 0.5808(3) 0.60566(13) 0.8038(2)
C16 C 0.2806(3) 0.54692(16) 0.8824(3)
H15 H 0.2451 0.5504 0.9499
H16 H 0.2713 0.5098 0.8562
H17 H 0.2368 0.5711 0.8271
C17 C 0.8569(4) 0.66646(17) 0.9982(3)
H18 H 0.946(3) 0.6775(13) 1.005(2)
H19 H 0.836(3) 0.6260(15) 1.016(2)
C18 C 0.9309(3) 0.78855(16) 0.5463(3)
H20 H 1.0146 0.7815 0.5860
H21 H 0.9188 0.8274 0.5370
H22 H 0.9217 0.7713 0.4746
C19 C 0.6982(3) 0.77195(16) 0.5525(3)
H23 H 0.6894 0.7540 0.4815
H24 H 0.6784 0.8102 0.5418
H25 H 0.6408 0.7556 0.5966
C20 C 0.9403(3) 0.59807(15) 0.7555(3)
H26 H 0.9841 0.6081 0.8277
H27 H 0.9851 0.6126 0.6993
H28 H 0.9365 0.5588 0.7494
C21 C 0.2518(3) 0.72738(15) 0.7211(3)
C22 C 0.2298(3) 0.68496(15) 0.6452(3)
H29 H 0.1836 0.6545 0.6617
C23 C 0.2761(3) 0.68739(18) 0.5441(3)
H30 H 0.2618 0.6584 0.4941
C24 C 0.3421(4) 0.7321(2) 0.5188(3)
H31 H 0.3732 0.7335 0.4516
C25 C 0.3632(4) 0.77524(19) 0.5916(4)
H32 H 0.4068 0.8062 0.5734
C26 C 0.3189(3) 0.77234(16) 0.6927(3)
H33 H 0.3347 0.8014 0.7425
C27 C 0.2066(3) 0.72397(16) 0.8323(3)
H34 H 0.2120 0.7603 0.8650
H35 H 0.1174 0.7137 0.8194
C28 C 0.2759(3) 0.68504(15) 0.9158(3)
C29 C 0.5725(3) 0.81521(13) 1.2051(2)
C30 C 0.7027(4) 0.81018(16) 1.2174(3)
H36 H 0.7387 0.7782 1.1945
C31 C 0.7798(5) 0.8521(3) 1.2632(3)
H37 H 0.8678 0.8482 1.2715
C32 C 0.7289(7) 0.8988(3) 1.2962(4)
H38 H 0.7820 0.9270 1.3268
C33 C 0.5998(6) 0.90487(18) 1.2851(3)
H39 H 0.5653 0.9370 1.3086
C34 C 0.5197(4) 0.86268(15) 1.2384(3)
H40 H 0.4317 0.8667 1.2299
C35 C 0.4872(3) 0.76900(14) 1.1533(3)
H41 H 0.5000 0.7369 1.2007
H42 H 0.3988 0.7800 1.1477
C36 C 0.5154(3) 0.75485(13) 1.0403(3)
O7 O 0.6288(2) 0.54980(11) 0.21899(16)
H43 H 0.702(3) 0.5411(15) 0.229(2)
O8 O 0.4528(2) 0.65352(9) 0.32503(18)
O9 O 0.84643(19) 0.53498(9) 0.38771(15)
O10 O 1.0155(2) 0.52423(14) 0.5221(2)
O11 O 0.67870(19) 0.48820(9) 0.54690(14)
O12 O 0.7444(3) 0.41120(10) 0.47358(18)
C37 C 0.7043(3) 0.63679(16) 0.3026(3)
H44 H 0.7456 0.6350 0.2371
H45 H 0.6595 0.6715 0.3018
C38 C 0.8027(3) 0.63242(14) 0.4069(3)
H46 H 0.7784 0.6583 0.4615
C39 C 0.7860(3) 0.57483(13) 0.4506(2)
H47 H 0.8165 0.5720 0.5306
C40 C 0.6437(3) 0.56477(12) 0.4230(2)
H48 H 0.6023 0.5880 0.4725
C41 C 0.6028(3) 0.50519(12) 0.4399(2)
H49 H 0.6271 0.4824 0.3803
C42 C 0.4662(3) 0.49338(14) 0.4501(2)
C43 C 0.4219(3) 0.43521(14) 0.4262(2)
H50 H 0.3385 0.4314 0.4481
H51 H 0.4793 0.4111 0.4736
C44 C 0.4131(3) 0.41482(13) 0.3062(2)
H52 H 0.4842 0.4299 0.2750
H53 H 0.4224 0.3752 0.3076
C45 C 0.2918(3) 0.42909(13) 0.2299(2)
H54 H 0.2150 0.4142 0.2541
C46 C 0.2828(3) 0.43324(13) 0.1057(2)
C47 C 0.2715(3) 0.48574(12) 0.1726(2)
H55 H 0.1851 0.5006 0.1671
C48 C 0.3725(3) 0.52557(13) 0.1991(2)
H56 H 0.4547 0.5134 0.1959
C49 C 0.3604(3) 0.57786(12) 0.2276(2)
C50 C 0.4714(3) 0.60928(13) 0.2823(2)
C51 C 0.6095(3) 0.58873(13) 0.3022(2)
C52 C 0.9366(3) 0.64728(18) 0.3881(3)
H57 H 0.9944 0.6436 0.4566
H58 H 0.9377 0.6845 0.3623
H59 H 0.9622 0.6232 0.3333
C53 C 0.3919(4) 0.52985(18) 0.4888(3)
H60 H 0.424(3) 0.5664(12) 0.506(2)
H61 H 0.308(3) 0.5211(15) 0.502(2)
C54 C 0.1605(3) 0.41460(14) 0.0355(3)
H62 H 0.1689 0.3771 0.0139
H63 H 0.1432 0.4371 -0.0298
H64 H 0.0918 0.4178 0.0777
C55 C 0.3992(3) 0.42278(14) 0.0521(2)
H65 H 0.4719 0.4399 0.0955
H66 H 0.3864 0.4378 -0.0217
H67 H 0.4135 0.3840 0.0485
C56 C 0.2340(3) 0.60490(14) 0.2265(3)
H68 H 0.2047 0.5983 0.2960
H69 H 0.1739 0.5901 0.1668
H70 H 0.2424 0.6437 0.2159
C57 C 0.9182(3) 0.46025(16) 0.2485(3)
C58 C 0.8419(4) 0.41437(18) 0.2304(3)
H71 H 0.8452 0.3878 0.2857
C59 C 0.7607(4) 0.4075(2) 0.1312(4)
H72 H 0.7097 0.3764 0.1201
C60 C 0.7548(4) 0.4459(2) 0.0497(3)
H73 H 0.6995 0.4414 -0.0168
C61 C 0.8300(4) 0.4907(2) 0.0662(3)
H74 H 0.8264 0.5168 0.0103
C62 C 0.9111(3) 0.49819(16) 0.1635(3)
H75 H 0.9624 0.5293 0.1726
C63 C 1.0035(3) 0.47048(16) 0.3574(3)
H76 H 1.0152 0.4361 0.3976
H77 H 1.0863 0.4818 0.3416
C64 C 0.9584(3) 0.51243(16) 0.4321(3)
C65 C 0.8477(3) 0.38151(13) 0.7146(2)
C66 C 0.8450(4) 0.33285(15) 0.6578(3)
H78 H 0.8323 0.3330 0.5804
C67 C 0.8611(4) 0.28316(16) 0.7150(3)
H79 H 0.8590 0.2504 0.6757
C68 C 0.8796(4) 0.28249(18) 0.8277(3)
H80 H 0.8886 0.2493 0.8658
C69 C 0.8850(4) 0.3305(2) 0.8848(3)
H81 H 0.8996 0.3303 0.9622
C70 C 0.8689(3) 0.37966(15) 0.8277(3)
H82 H 0.8726 0.4123 0.8676
C71 C 0.8339(3) 0.43725(14) 0.6607(3)
H83 H 0.9179 0.4497 0.6506
H84 H 0.8029 0.4624 0.7121
C72 C 0.7477(3) 0.44167(14) 0.5504(3)
loop_
_geom_bond_atom_site_label_1
_geom_bond_atom_site_label_2
_geom_bond_site_symmetry_1
_geom_bond_site_symmetry_2
O1 H1 1_555 1_555
O2 C14 1_555 1_555
O3 C3 1_555 1_555
O4 C28 1_555 1_555
O5 C5 1_555 1_555
O6 C36 1_555 1_555
C1 H2 1_555 1_555
H3 C1 1_555 1_555
C2 C1 1_555 1_555
H4 C2 1_555 1_555
C3 C2 1_555 1_555
H5 C3 1_555 1_555
C4 C3 1_555 1_555
H6 C4 1_555 1_555
C5 C4 1_555 1_555
H7 C5 1_555 1_555
C6 C5 1_555 1_555
C7 C6 1_555 1_555
H8 C7 1_555 1_555
H9 C7 1_555 1_555
C8 C7 1_555 1_555
H10 C8 1_555 1_555
H11 C8 1_555 1_555
C9 C8 1_555 1_555
H12 C9 1_555 1_555
C10 C9 1_555 1_555
C11 C9 1_555 1_555
H13 C11 1_555 1_555
C12 C11 1_555 1_555
H14 C12 1_555 1_555
C13 C12 1_555 1_555
C14 C13 1_555 1_555
C15 O1 1_555 1_555
C16 C2 1_555 1_555
H15 C16 1_555 1_555
H16 C16 1_555 1_555
H17 C16 1_555 1_555
C17 C6 1_555 1_555
H18 C17 1_555 1_555
H19 C17 1_555 1_555
C18 C10 1_555 1_555
H20 C18 1_555 1_555
H21 C18 1_555 1_555
H22 C18 1_555 1_555
C19 C10 1_555 1_555
H23 C19 1_555 1_555
H24 C19 1_555 1_555
H25 C19 1_555 1_555
C20 C13 1_555 1_555
H26 C20 1_555 1_555
H27 C20 1_555 1_555
H28 C20 1_555 1_555
C21 C22 1_555 1_555
C22 H29 1_555 1_555
C23 C22 1_555 1_555
H30 C23 1_555 1_555
C24 C23 1_555 1_555
H31 C24 1_555 1_555
C25 C24 1_555 1_555
H32 C25 1_555 1_555
C26 C21 1_555 1_555
H33 C26 1_555 1_555
C27 C21 1_555 1_555
H34 C27 1_555 1_555
H35 C27 1_555 1_555
C28 O3 1_555 1_555
C29 C30 1_555 1_555
C30 H36 1_555 1_555
C31 C30 1_555 1_555
H37 C31 1_555 1_555
C32 C31 1_555 1_555
H38 C32 1_555 1_555
C33 C32 1_555 1_555
H39 C33 1_555 1_555
C34 C29 1_555 1_555
H40 C34 1_555 1_555
C35 C29 1_555 1_555
H41 C35 1_555 1_555
H42 C35 1_555 1_555
C36 O5 1_555 1_555
O7 H43 1_555 1_555
O8 C50 1_555 1_555
O9 C39 1_555 1_555
O10 C64 1_555 1_555
O11 C41 1_555 1_555
O12 C72 1_555 1_555
C37 H44 1_555 1_555
H45 C37 1_555 1_555
C38 C37 1_555 1_555
H46 C38 1_555 1_555
C39 C38 1_555 1_555
H47 C39 1_555 1_555
C40 C39 1_555 1_555
H48 C40 1_555 1_555
C41 C40 1_555 1_555
H49 C41 1_555 1_555
C42 C41 1_555 1_555
C43 C42 1_555 1_555
H50 C43 1_555 1_555
H51 C43 1_555 1_555
C44 C43 1_555 1_555
H52 C44 1_555 1_555
H53 C44 1_555 1_555
C45 C44 1_555 1_555
H54 C45 1_555 1_555
C46 C45 1_555 1_555
C47 C45 1_555 1_555
H55 C47 1_555 1_555
C48 C47 1_555 1_555
H56 C48 1_555 1_555
C49 C48 1_555 1_555
C50 C49 1_555 1_555
C51 O7 1_555 1_555
C52 C38 1_555 1_555
H57 C52 1_555 1_555
H58 C52 1_555 1_555
H59 C52 1_555 1_555
C53 C42 1_555 1_555
H60 C53 1_555 1_555
H61 C53 1_555 1_555
C54 C46 1_555 1_555
H62 C54 1_555 1_555
H63 C54 1_555 1_555
H64 C54 1_555 1_555
C55 C46 1_555 1_555
H65 C55 1_555 1_555
H66 C55 1_555 1_555
H67 C55 1_555 1_555
C56 C49 1_555 1_555
H68 C56 1_555 1_555
H69 C56 1_555 1_555
H70 C56 1_555 1_555
C57 C58 1_555 1_555
C58 H71 1_555 1_555
C59 C58 1_555 1_555
H72 C59 1_555 1_555
C60 C59 1_555 1_555
H73 C60 1_555 1_555
C61 C60 1_555 1_555
H74 C61 1_555 1_555
C62 C57 1_555 1_555
H75 C62 1_555 1_555
C63 C57 1_555 1_555
H76 C63 1_555 1_555
H77 C63 1_555 1_555
C64 O9 1_555 1_555
C65 C66 1_555 1_555
C66 H78 1_555 1_555
C67 C66 1_555 1_555
H79 C67 1_555 1_555
C68 C67 1_555 1_555
H80 C68 1_555 1_555
C69 C68 1_555 1_555
H81 C69 1_555 1_555
C70 C65 1_555 1_555
H82 C70 1_555 1_555
C71 C65 1_555 1_555
H83 C71 1_555 1_555
H84 C71 1_555 1_555
C72 O11 1_555 1_555
C1 C15 1_555 1_555
C4 C15 1_555 1_555
C10 C11 1_555 1_555
C14 C15 1_555 1_555
C25 C26 1_555 1_555
C27 C28 1_555 1_555
C33 C34 1_555 1_555
C35 C36 1_555 1_555
C37 C51 1_555 1_555
C40 C51 1_555 1_555
C46 C47 1_555 1_555
C50 C51 1_555 1_555
C61 C62 1_555 1_555
C63 C64 1_555 1_555
C69 C70 1_555 1_555
C71 C72 1_555 1_555

#END
