
#######################################################################
#
#                 Cambridge Crystallographic Data Centre
#                                CCDC 
#
#######################################################################
#
# If this CIF has been generated from an entry in the Cambridge 
# Structural Database, then it will include bibliographic, chemical, 
# crystal, experimental, refinement or atomic coordinate data resulting 
# from the CCDC's data processing and validation procedures.
#
#######################################################################

data_WUNBUD
_chemical_name_common            
N-(4-Fluorophenyl)-N'-(1-methyl-3-ethyl-4-chloropyrazol-5-yl)formylthiourea
_chemical_formula_moiety         'C14 H14 Cl1 F1 N4 O1 S1'
_chemical_name_systematic        
4-Chloro-3-ethyl-N-((4-fluorophenyl)carbamothioyl)-1-methyl-1H-pyrazole-5-carboxamide
_chemical_properties_biological  'Acaricidal activity'
_symmetry_cell_setting           triclinic
_symmetry_space_group_name_H-M   'P -1'
_symmetry_Int_Tables_number      2
_space_group_name_Hall           '-P 1'
loop_
_symmetry_equiv_pos_site_id
_symmetry_equiv_pos_as_xyz
1 x,y,z
2 -x,-y,-z
_cell_length_a                   7.8510(10)
_cell_length_b                   8.2731(11)
_cell_length_c                   11.9373(15)
_cell_angle_alpha                78.484(2)
_cell_angle_beta                 88.938(2)
_cell_angle_gamma                88.779(2)
_cell_volume                     759.491
_exptl_crystal_colour            colorless
_exptl_crystal_description       prism
_chemical_melting_point          '186-187 deg.C'
_cell_formula_units_Z            2
_exptl_crystal_recrystallization_method xylene
loop_
_atom_site_label
_atom_site_type_symbol
_atom_site_fract_x
_atom_site_fract_y
_atom_site_fract_z
Cl1 Cl 0.12653(6) 0.57397(6) 0.34463(4)
S1 S 0.26590(6) 0.16120(7) 0.63792(5)
F1 F 0.91444(16) -0.34228(16) 0.88178(11)
O1 O 0.67974(17) 0.34121(18) 0.37408(12)
N1 N 0.59453(19) 0.14404(19) 0.56867(13)
N2 N 0.4162(2) 0.3291(2) 0.45697(14)
N3 N 0.55391(18) 0.56639(19) 0.17950(13)
N4 N 0.4648(2) 0.6733(2) 0.10198(13)
C1 C 0.5827(2) -0.0615(2) 0.75166(16)
H1 H 0.4697 -0.0343 0.7655
C2 C 0.6675(2) -0.1832(2) 0.82830(16)
H2 H 0.6119 -0.2382 0.8939
C3 C 0.8328(2) -0.2215(2) 0.80666(16)
C4 C 0.9204(2) -0.1421(3) 0.71162(17)
H3 H 1.0335 -0.1698 0.6988
C5 C 0.8365(2) -0.0206(2) 0.63575(16)
H4 H 0.8940 0.0354 0.5712
C6 C 0.6671(2) 0.0193(2) 0.65438(14)
C7 C 0.4368(2) 0.2069(2) 0.55597(15)
C8 C 0.5305(2) 0.3878(2) 0.37162(15)
C9 C 0.4611(2) 0.5108(2) 0.27604(15)
C10 C 0.3033(2) 0.5890(2) 0.25658(15)
C11 C 0.3112(2) 0.6889(2) 0.14824(15)
C12 C 0.1743(3) 0.7983(3) 0.08676(18)
H5 H 0.1302 0.8695 0.1364
H6 H 0.0817 0.7301 0.0719
C13 C 0.2317(3) 0.9043(3) -0.02498(19)
H7 H 0.3216 0.9743 -0.0111
H8 H 0.1375 0.9711 -0.0591
H9 H 0.2723 0.8351 -0.0758
C14 C 0.7301(3) 0.5298(3) 0.15140(19)
H10 H 0.7562 0.5847 0.0745
H11 H 0.7455 0.4128 0.1580
H12 H 0.8046 0.5677 0.2032
H13 H 0.662(3) 0.181(2) 0.5117(18)
H14 H 0.321(3) 0.366(3) 0.4482(18)
loop_
_geom_bond_atom_site_label_1
_geom_bond_atom_site_label_2
_geom_bond_site_symmetry_1
_geom_bond_site_symmetry_2
Cl1 C10 1_555 1_555
S1 C7 1_555 1_555
F1 C3 1_555 1_555
O1 C8 1_555 1_555
N1 C6 1_555 1_555
N2 C7 1_555 1_555
N3 N4 1_555 1_555
N4 C11 1_555 1_555
C1 H1 1_555 1_555
C2 C1 1_555 1_555
H2 C2 1_555 1_555
C3 C2 1_555 1_555
C4 C3 1_555 1_555
H3 C4 1_555 1_555
C5 C4 1_555 1_555
H4 C5 1_555 1_555
C6 C1 1_555 1_555
C7 N1 1_555 1_555
C8 N2 1_555 1_555
C9 N3 1_555 1_555
C10 C9 1_555 1_555
C11 C10 1_555 1_555
C12 C11 1_555 1_555
H5 C12 1_555 1_555
H6 C12 1_555 1_555
C13 C12 1_555 1_555
H7 C13 1_555 1_555
H8 C13 1_555 1_555
H9 C13 1_555 1_555
C14 N3 1_555 1_555
H10 C14 1_555 1_555
H11 C14 1_555 1_555
H12 C14 1_555 1_555
H13 N1 1_555 1_555
H14 N2 1_555 1_555
C5 C6 1_555 1_555
C8 C9 1_555 1_555

#END
