
#######################################################################
#
#                 Cambridge Crystallographic Data Centre
#                                CCDC 
#
#######################################################################
#
# If this CIF has been generated from an entry in the Cambridge 
# Structural Database, then it will include bibliographic, chemical, 
# crystal, experimental, refinement or atomic coordinate data resulting 
# from the CCDC's data processing and validation procedures.
#
#######################################################################

data_WUNKOF
_chemical_formula_moiety         'C14 H10 F6 N2'
_chemical_name_systematic        
1,3a,5,6-tetrahydro-7-methyl-5,5-bis(trifluoromethyl)-4H-indene-4,4-dicarbonitrile
_symmetry_cell_setting           triclinic
_symmetry_space_group_name_H-M   'P -1'
_symmetry_Int_Tables_number      2
_space_group_name_Hall           '-P 1'
loop_
_symmetry_equiv_pos_site_id
_symmetry_equiv_pos_as_xyz
1 x,y,z
2 -x,-y,-z
_cell_length_a                   12.842(1)
_cell_length_b                   18.551(1)
_cell_length_c                   9.302(1)
_cell_angle_alpha                98.26(1)
_cell_angle_beta                 96.85(1)
_cell_angle_gamma                71.46(1)
_cell_volume                     2072.83
_exptl_crystal_colour            colorless
_exptl_crystal_description       'irregular block'
_chemical_melting_point          '81-82 deg.C'
_cell_formula_units_Z            6
loop_
_atom_site_label
_atom_site_type_symbol
_atom_site_fract_x
_atom_site_fract_y
_atom_site_fract_z
F1 F 0.2545(1) 0.6151(1) 0.7058(1)
F2 F 0.3224(1) 0.5552(1) 0.5079(1)
F3 F 0.4228(1) 0.5441(1) 0.7111(1)
F4 F 0.2846(1) 0.4248(1) 0.4204(1)
F5 F 0.4419(1) 0.4043(1) 0.5448(1)
F6 F 0.3281(1) 0.3475(1) 0.5825(1)
N1 N 0.2403(2) 0.3466(1) 0.8739(2)
N2 N 0.5316(1) 0.4041(1) 0.8943(2)
C1 C 0.2839(2) 0.4798(1) 0.6691(2)
C2 C 0.3213(2) 0.5491(1) 0.6494(2)
C3 C 0.3347(2) 0.4137(1) 0.5529(2)
C4 C 0.3185(1) 0.4550(1) 0.8268(2)
C5 C 0.2736(2) 0.3932(1) 0.8490(2)
C6 C 0.4397(2) 0.4259(1) 0.8612(2)
C7 C 0.2684(2) 0.5242(1) 0.9410(2)
C8 C 0.1443(2) 0.5516(1) 0.9076(2)
C9 C 0.0947(2) 0.5438(1) 0.7769(2)
C10 C -0.0282(2) 0.5696(1) 0.7435(3)
C11 C 0.1568(2) 0.5029(1) 0.6446(2)
C12 C 0.2816(2) 0.5082(1) 1.0968(2)
C13 C 0.1871(2) 0.5385(1) 1.1571(2)
C14 C 0.0932(2) 0.5754(1) 1.0539(2)
H1 H 0.3011(15) 0.5627(11) 0.9364(20)
H2 H -0.0541(21) 0.5262(16) 0.6940(29)
H3 H -0.0482(20) 0.6070(14) 0.6872(28)
H4 H -0.0688(22) 0.5934(15) 0.8318(31)
H5 H 0.1390(16) 0.4557(12) 0.6213(21)
H6 H 0.1353(17) 0.5333(12) 0.5773(24)
H7 H 0.3516(19) 0.4811(12) 1.1480(24)
H8 H 0.1813(18) 0.5367(12) 1.2529(28)
H9 H 0.0347(21) 0.5562(14) 1.0614(26)
H10 H 0.0661(19) 0.6314(15) 1.0743(25)
F7 F 0.0931(11) 0.0559(6) 0.6481(13)
F8 F 0.0614(1) 0.0645(1) 0.4192(1)
F9 F 0.2277(1) 0.0371(1) 0.5178(1)
F10 F 0.1738(1) 0.2527(1) 0.4509(1)
F11 F 0.1801(1) 0.1454(1) 0.3265(1)
F12 F 0.2996(1) 0.1517(1) 0.5062(1)
N3 N -0.0115(1) 0.3639(1) 0.6097(2)
N4 N -0.0911(2) 0.2106(1) 0.2734(2)
C15 C 0.1180(1) 0.1656(1) 0.5667(2)
C16 C 0.1238(2) 0.0805(1) 0.5369(2)
C17 C 0.1930(2) 0.1791(1) 0.4609(2)
C18 C -0.0040(1) 0.2202(1) 0.5421(2)
C19 C -0.0067(1) 0.3010(1) 0.5819(2)
C20 C -0.0512(2) 0.2137(1) 0.3898(2)
C21 C -0.0767(2) 0.2017(1) 0.6456(2)
C22 C -0.0271(2) 0.2060(1) 0.8004(2)
C23 C 0.0791(2) 0.1985(1) 0.8386(2)
C24 C 0.1279(2) 0.2062(2) 0.9917(2)
C25 C 0.1614(2) 0.1825(1) 0.7244(2)
C26 C -0.1917(2) 0.2568(1) 0.6584(2)
C27 C -0.2161(2) 0.2708(1) 0.7961(2)
C28 C -0.1218(2) 0.2327(1) 0.8986(2)
H11 H -0.0808(17) 0.1474(13) 0.6073(23)
H12 H 0.1830(24) 0.1556(17) 1.0168(31)
H13 H 0.1673(28) 0.2441(20) 1.0068(36)
H14 H 0.0738(26) 0.2172(18) 1.0636(35)
H15 H 0.2246(21) 0.1362(14) 0.7396(26)
H16 H 0.1850(17) 0.2290(12) 0.7294(22)
H17 H -0.2428(18) 0.2770(12) 0.5709(25)
H18 H -0.2870(20) 0.2995(13) 0.8285(25)
H19 H -0.1118(18) 0.2653(14) 0.9865(28)
H20 H -0.1320(19) 0.1861(14) 0.9343(26)
F13 F 0.5532(1) -0.1154(1) 0.7327(2)
F14 F 0.5208(1) -0.2111(1) 0.6000(1)
F15 F 0.6486(1) -0.2288(1) 0.7740(2)
F16 F 0.3761(1) -0.2709(1) 0.6946(1)
F17 F 0.5369(1) -0.3205(1) 0.7979(2)
F18 F 0.3973(1) -0.2776(1) 0.9245(1)
N5 N 0.2533(2) -0.1204(1) 0.5567(2)
N6 N 0.3762(2) 0.0188(1) 0.8807(2)
C29 C 0.4634(2) -0.1852(1) 0.8426(2)
C30 C 0.5472(2) -0.1853(1) 0.7358(2)
C31 C 0.4423(2) -0.2639(1) 0.8130(2)
C32 C 0.3529(1) -0.1180(1) 0.8193(2)
C33 C 0.2998(2) -0.1208(1) 0.6694(2)
C34 C 0.3712(2) -0.0422(1) 0.8536(2)
C35 C 0.2708(2) -0.1197(1) 0.9290(2)
C36 C 0.3246(2) -0.1158(1) 1.0818(2)
C37 C 0.4329(2) -0.1408(1) 1.1154(2)
C38 C 0.4863(2) -0.1339(2) 1.2666(3)
C39 C 0.5139(2) -0.1748(1) 0.9997(2)
C40 C 0.1676(2) -0.0525(1) 0.9384(3)
C41 C 0.1495(2) -0.0248(1) 1.0749(3)
C42 C 0.2383(2) -0.0653(2) 1.1814(3)
H21 H 0.2514(16) -0.1670(11) 0.8974(21)
H22 H 0.5346(29) -0.1836(21) 1.2922(38)
H23 H 0.5342(28) -0.0970(19) 1.2840(37)
H24 H 0.4297(28) -0.1038(18) 1.3396(37)
H25 H 0.5549(19) -0.1396(13) 1.0014(24)
H26 H 0.5604(19) -0.2260(14) 1.0249(24)
H27 H 0.1193(19) -0.0363(12) 0.8558(26)
H28 H 0.0875(23) 0.0211(16) 1.1095(29)
H29 H 0.2636(20) -0.0322(15) 1.2389(29)
H30 H 0.2117(20) -0.0993(14) 1.2444(27)
loop_
_geom_bond_atom_site_label_1
_geom_bond_atom_site_label_2
_geom_bond_site_symmetry_1
_geom_bond_site_symmetry_2
F1 C2 1_555 1_555
F2 C2 1_555 1_555
F3 C2 1_555 1_555
F4 C3 1_555 1_555
F5 C3 1_555 1_555
F6 C3 1_555 1_555
F7 C16 1_555 1_555
F8 C16 1_555 1_555
F9 C16 1_555 1_555
F10 C17 1_555 1_555
F11 C17 1_555 1_555
F12 C17 1_555 1_555
F13 C30 1_555 1_555
F14 C30 1_555 1_555
F15 C30 1_555 1_555
F16 C31 1_555 1_555
F17 C31 1_555 1_555
F18 C31 1_555 1_555
N1 C5 1_555 1_555
N2 C6 1_555 1_555
N3 C19 1_555 1_555
N4 C20 1_555 1_555
N5 C33 1_555 1_555
N6 C34 1_555 1_555
C1 C2 1_555 1_555
C3 C1 1_555 1_555
C4 C1 1_555 1_555
C5 C4 1_555 1_555
C6 C4 1_555 1_555
C7 C4 1_555 1_555
C8 C7 1_555 1_555
C9 C8 1_555 1_555
C10 C9 1_555 1_555
C11 C1 1_555 1_555
C12 C7 1_555 1_555
C13 C12 1_555 1_555
C14 C8 1_555 1_555
C15 C16 1_555 1_555
C17 C15 1_555 1_555
C18 C15 1_555 1_555
C19 C18 1_555 1_555
C20 C18 1_555 1_555
C21 C18 1_555 1_555
C22 C21 1_555 1_555
C23 C22 1_555 1_555
C24 C23 1_555 1_555
C25 C15 1_555 1_555
C26 C21 1_555 1_555
C27 C26 1_555 1_555
C28 C22 1_555 1_555
C29 C30 1_555 1_555
C31 C29 1_555 1_555
C32 C29 1_555 1_555
C33 C32 1_555 1_555
C34 C32 1_555 1_555
C35 C32 1_555 1_555
C36 C35 1_555 1_555
C37 C36 1_555 1_555
C38 C37 1_555 1_555
C39 C29 1_555 1_555
C40 C35 1_555 1_555
C41 C40 1_555 1_555
C42 C36 1_555 1_555
H1 C7 1_555 1_555
H2 C10 1_555 1_555
H3 C10 1_555 1_555
H4 C10 1_555 1_555
H5 C11 1_555 1_555
H6 C11 1_555 1_555
H7 C12 1_555 1_555
H8 C13 1_555 1_555
H9 C14 1_555 1_555
H10 C14 1_555 1_555
H11 C21 1_555 1_555
H12 C24 1_555 1_555
H13 C24 1_555 1_555
H14 C24 1_555 1_555
H15 C25 1_555 1_555
H16 C25 1_555 1_555
H17 C26 1_555 1_555
H18 C27 1_555 1_555
H19 C28 1_555 1_555
H20 C28 1_555 1_555
H21 C35 1_555 1_555
H22 C38 1_555 1_555
H23 C38 1_555 1_555
H24 C38 1_555 1_555
H25 C39 1_555 1_555
H26 C39 1_555 1_555
H27 C40 1_555 1_555
H28 C41 1_555 1_555
H29 C42 1_555 1_555
H30 C42 1_555 1_555
C9 C11 1_555 1_555
C13 C14 1_555 1_555
C23 C25 1_555 1_555
C27 C28 1_555 1_555
C37 C39 1_555 1_555
C41 C42 1_555 1_555

#END
