
#######################################################################
#
#                 Cambridge Crystallographic Data Centre
#                                CCDC 
#
#######################################################################
#
# If this CIF has been generated from an entry in the Cambridge 
# Structural Database, then it will include bibliographic, chemical, 
# crystal, experimental, refinement or atomic coordinate data resulting 
# from the CCDC's data processing and validation procedures.
#
#######################################################################

data_WUNKEV
_chemical_formula_moiety         'C14 H10 N4'
_chemical_name_systematic        
7-(1-methylethylidene)bicyclo[2.2.1]hept-5-ene-2,2,3,3-tetracarbonitrile
_symmetry_cell_setting           orthorhombic
_symmetry_space_group_name_H-M   'P 21 21 21'
_symmetry_Int_Tables_number      19
_space_group_name_Hall           'P 2ac 2ab'
loop_
_symmetry_equiv_pos_site_id
_symmetry_equiv_pos_as_xyz
1 x,y,z
2 1/2+x,1/2-y,-z
3 -x,1/2+y,1/2-z
4 1/2-x,-y,1/2+z
_cell_length_a                   14.592(1)
_cell_length_b                   14.909(1)
_cell_length_c                   11.280(1)
_cell_angle_alpha                90
_cell_angle_beta                 90
_cell_angle_gamma                90
_cell_volume                     2453.99
_exptl_crystal_colour            colorless
_exptl_crystal_description       'irregular block'
_chemical_melting_point          '137-139 deg.C(dec.)'
_cell_formula_units_Z            8
_exptl_crystal_recrystallization_method 'hexanes/ethyl acetate'
loop_
_atom_site_label
_atom_site_type_symbol
_atom_site_fract_x
_atom_site_fract_y
_atom_site_fract_z
N1 N 0.5110(2) 0.1646(2) 0.5304(2)
N2 N 0.6320(2) 0.3027(2) 0.2338(2)
N3 N 0.5311(2) -0.0429(2) 0.3555(2)
N4 N 0.6163(1) 0.0978(2) 0.0475(2)
C1 C 0.5032(1) 0.1916(2) 0.3017(2)
C2 C 0.5023(1) 0.0994(2) 0.2264(2)
C3 C 0.3983(1) 0.0967(2) 0.1796(2)
C4 C 0.3924(2) 0.1706(2) 0.0896(2)
C5 C 0.3957(2) 0.2479(2) 0.1463(2)
C6 C 0.4017(2) 0.2281(2) 0.2778(2)
C7 C 0.3516(2) 0.1396(2) 0.2857(2)
C8 C 0.2889(2) 0.1095(2) 0.3623(2)
C9 C 0.2552(2) 0.1657(3) 0.4628(3)
C10 C 0.2453(2) 0.0197(2) 0.3493(3)
C11 C 0.5110(2) 0.1746(2) 0.4301(2)
C12 C 0.5756(2) 0.2538(2) 0.2644(2)
C13 C 0.5207(2) 0.0202(2) 0.3004(2)
C14 C 0.5680(2) 0.1001(2) 0.1273(2)
H1 H 0.3769 0.0391 0.1561
H2 H 0.3871 0.1601 0.0068
H3 H 0.3947 0.3070 0.1149
H4 H 0.3817 0.2742 0.3300
H5 H 0.2740 0.1400 0.5355
H6 H 0.1905 0.1695 0.4599
H7 H 0.2807 0.2246 0.4559
H8 H 0.1840 0.0268 0.3221
H9 H 0.2449 -0.0100 0.4237
H10 H 0.2788 -0.0150 0.2934
N5 N 0.4590(1) 0.0904(2) 0.8171(2)
N6 N 0.7492(2) 0.0924(2) 0.7353(2)
N7 N 0.4996(2) -0.1006(2) 1.0137(2)
N8 N 0.7833(2) -0.1076(2) 0.9103(3)
C15 C 0.6010(1) -0.0058(2) 0.7539(2)
C16 C 0.6142(2) -0.0932(2) 0.8363(2)
C17 C 0.5914(2) -0.1726(2) 0.7457(2)
C18 C 0.6695(2) -0.1720(2) 0.6573(2)
C19 C 0.6615(2) -0.0997(2) 0.5904(2)
C20 C 0.5760(2) -0.0498(2) 0.6299(2)
C21 C 0.5176(2) -0.1265(2) 0.6727(2)
C22 C 0.4303(2) -0.1484(2) 0.6507(2)
C23 C 0.3873(2) -0.2316(2) 0.6970(2)
C24 C 0.3717(2) -0.0928(2) 0.5691(2)
C25 C 0.5220(2) 0.0490(2) 0.7923(2)
C26 C 0.6841(2) 0.0505(2) 0.7462(2)
C27 C 0.5501(2) -0.0953(2) 0.9364(2)
C28 C 0.7091(2) -0.0999(2) 0.8805(2)
H11 H 0.5759 -0.2286 0.7808
H12 H 0.7150 -0.2180 0.6540
H13 H 0.7003 -0.0792 0.5282
H14 H 0.5490 -0.0104 0.5735
H15 H 0.3745 -0.2713 0.6334
H16 H 0.3316 -0.2168 0.7365
H17 H 0.4278 -0.2600 0.7515
H18 H 0.3149 -0.0799 0.6069
H19 H 0.3606 -0.1248 0.4978
H20 H 0.4022 -0.0380 0.5514
loop_
_geom_bond_atom_site_label_1
_geom_bond_atom_site_label_2
_geom_bond_site_symmetry_1
_geom_bond_site_symmetry_2
N1 C11 1_555 1_555
N2 C12 1_555 1_555
N3 C13 1_555 1_555
N4 C14 1_555 1_555
N5 C25 1_555 1_555
N6 C26 1_555 1_555
N7 C27 1_555 1_555
N8 C28 1_555 1_555
C1 C2 1_555 1_555
C2 C3 1_555 1_555
C3 C4 1_555 1_555
C4 C5 1_555 1_555
C5 C6 1_555 1_555
C6 C1 1_555 1_555
C7 C3 1_555 1_555
C8 C7 1_555 1_555
C9 C8 1_555 1_555
C10 C8 1_555 1_555
C11 C1 1_555 1_555
C12 C1 1_555 1_555
C13 C2 1_555 1_555
C14 C2 1_555 1_555
C15 C16 1_555 1_555
C16 C17 1_555 1_555
C17 C18 1_555 1_555
C18 C19 1_555 1_555
C19 C20 1_555 1_555
C20 C15 1_555 1_555
C21 C17 1_555 1_555
C22 C21 1_555 1_555
C23 C22 1_555 1_555
C24 C22 1_555 1_555
C25 C15 1_555 1_555
C26 C15 1_555 1_555
C27 C16 1_555 1_555
C28 C16 1_555 1_555
H1 C3 1_555 1_555
H2 C4 1_555 1_555
H3 C5 1_555 1_555
H4 C6 1_555 1_555
H5 C9 1_555 1_555
H6 C9 1_555 1_555
H7 C9 1_555 1_555
H8 C10 1_555 1_555
H9 C10 1_555 1_555
H10 C10 1_555 1_555
H11 C17 1_555 1_555
H12 C18 1_555 1_555
H13 C19 1_555 1_555
H14 C20 1_555 1_555
H15 C23 1_555 1_555
H16 C23 1_555 1_555
H17 C23 1_555 1_555
H18 C24 1_555 1_555
H19 C24 1_555 1_555
H20 C24 1_555 1_555
C6 C7 1_555 1_555
C20 C21 1_555 1_555

#END
