
#######################################################################
#
#                 Cambridge Crystallographic Data Centre
#                                CCDC 
#
#######################################################################
#
# If this CIF has been generated from an entry in the Cambridge 
# Structural Database, then it will include bibliographic, chemical, 
# crystal, experimental, refinement or atomic coordinate data resulting 
# from the CCDC's data processing and validation procedures.
#
#######################################################################

data_WUNKIZ
_chemical_formula_moiety         'C14 H10 F6 N2'
_chemical_name_systematic        
2-(1-methylethylidene)-7,7-bis(trifluoromethyl)bicyclo[3.2.0]hept-3-ene-6,6-dicarbonitrile
_symmetry_cell_setting           triclinic
_symmetry_space_group_name_H-M   'P -1'
_symmetry_Int_Tables_number      2
_space_group_name_Hall           '-P 1'
loop_
_symmetry_equiv_pos_site_id
_symmetry_equiv_pos_as_xyz
1 x,y,z
2 -x,-y,-z
_cell_length_a                   9.357(3)
_cell_length_b                   12.235(4)
_cell_length_c                   6.691(2)
_cell_angle_alpha                99.86(2)
_cell_angle_beta                 109.11(2)
_cell_angle_gamma                85.38(2)
_cell_volume                     712.854
_exptl_crystal_colour            colorless
_exptl_crystal_description       needle
_chemical_melting_point          90-91deg.C
_cell_formula_units_Z            2
_exptl_crystal_recrystallization_method 'diethyl ether/petroleum ether'
loop_
_atom_site_label
_atom_site_type_symbol
_atom_site_fract_x
_atom_site_fract_y
_atom_site_fract_z
F1 F 0.2091 0.4332 0.0138
F2 F 0.0172 0.3820 0.0766
F3 F 0.0869 0.2915 -0.1830
F4 F 0.3833 0.4207 0.4005
F5 F 0.3965 0.2724 0.5346
F6 F 0.1937 0.3725 0.4750
N1 N -0.1069 0.1225 -0.1036
N2 N 0.1692 0.0991 0.5180
C1 C 0.2435 0.2695 0.1683
C2 C 0.1679 0.1552 0.1588
C3 C 0.2944 0.0925 0.0661
C4 C 0.4198 0.0356 0.2194
C5 C 0.5442 0.0954 0.2943
C6 C 0.5253 0.1976 0.2035
C7 C 0.3625 0.2041 0.0676
C8 C 0.1393 0.3449 0.0197
C9 C 0.3055 0.3340 0.3949
C10 C 0.0126 0.1388 0.0100
C11 C 0.1699 0.1254 0.3634
C12 C 0.6327 0.2709 0.2287
C13 C 0.6029 0.3675 0.1126
C14 C 0.7913 0.2611 0.3773
H1 H 0.2564 0.0492 -0.0720
H2 H 0.4040 -0.0334 0.2559
H3 H 0.6336 0.0722 0.3952
H4 H 0.3497 0.2203 -0.0704
H5 H 0.6298 0.3507 -0.0146
H6 H 0.6612 0.4288 0.2010
H7 H 0.4993 0.3888 0.0780
H8 H 0.8040 0.3025 0.5134
H9 H 0.8662 0.2819 0.3241
H10 H 0.8173 0.1852 0.4037
loop_
_geom_bond_atom_site_label_1
_geom_bond_atom_site_label_2
_geom_bond_site_symmetry_1
_geom_bond_site_symmetry_2
F1 C8 1_555 1_555
F2 C8 1_555 1_555
F3 C8 1_555 1_555
F4 C9 1_555 1_555
F5 C9 1_555 1_555
F6 C9 1_555 1_555
N1 C10 1_555 1_555
N2 C11 1_555 1_555
C1 C2 1_555 1_555
C2 C3 1_555 1_555
C3 C4 1_555 1_555
C4 C5 1_555 1_555
C5 C6 1_555 1_555
C6 C7 1_555 1_555
C7 C1 1_555 1_555
C8 C1 1_555 1_555
C9 C1 1_555 1_555
C10 C2 1_555 1_555
C11 C2 1_555 1_555
C12 C6 1_555 1_555
C13 C12 1_555 1_555
C14 C12 1_555 1_555
H1 C3 1_555 1_555
H2 C4 1_555 1_555
H3 C5 1_555 1_555
H4 C7 1_555 1_555
H5 C13 1_555 1_555
H6 C13 1_555 1_555
H7 C13 1_555 1_555
H8 C14 1_555 1_555
H9 C14 1_555 1_555
H10 C14 1_555 1_555
C3 C7 1_555 1_555

#END
