
#######################################################################
#
#                 Cambridge Crystallographic Data Centre
#                                CCDC 
#
#######################################################################
#
# If this CIF has been generated from an entry in the Cambridge 
# Structural Database, then it will include bibliographic, chemical, 
# crystal, experimental, refinement or atomic coordinate data resulting 
# from the CCDC's data processing and validation procedures.
#
#######################################################################

data_WUNLAT
_chemical_formula_moiety         'C17 H15 O3 1+,B1 F4 1-'
_chemical_name_systematic        
'6,7-Dimethoxy-3-phenylisochromenium tetrafluoroborate'
_symmetry_cell_setting           monoclinic
_symmetry_space_group_name_H-M   'P 21/n'
_symmetry_Int_Tables_number      14
_space_group_name_Hall           '-P 2yn'
loop_
_symmetry_equiv_pos_site_id
_symmetry_equiv_pos_as_xyz
1 x,y,z
2 1/2-x,1/2+y,1/2-z
3 -x,-y,-z
4 1/2+x,1/2-y,1/2+z
_cell_length_a                   12.7974(17)
_cell_length_b                   7.6261(10)
_cell_length_c                   17.351(2)
_cell_angle_alpha                90
_cell_angle_beta                 105.010(3)
_cell_angle_gamma                90
_cell_volume                     1635.58
_exptl_crystal_colour            colorless
_exptl_crystal_description       prismatic
_chemical_melting_point          '174-177 deg.C'
_cell_formula_units_Z            4
_exptl_crystal_recrystallization_method 'acetonitrile/petroleum ether'
loop_
_atom_site_label
_atom_site_type_symbol
_atom_site_fract_x
_atom_site_fract_y
_atom_site_fract_z
O1 O 1.13452(18) 0.2522(3) 0.12296(13)
O2 O 0.9062(2) 0.6433(3) 0.33315(13)
O3 O 0.74678(18) 0.6342(3) 0.21090(13)
C1 C 1.1230(3) 0.3271(5) 0.1889(2)
H1 H 1.1811 0.3230 0.2340
C2 C 1.0524(3) 0.2575(4) 0.05409(19)
C3 C 0.9584(3) 0.3330(4) 0.05564(17)
H2 H 0.9023 0.3350 0.0092
C4 C 0.9421(3) 0.4095(4) 0.12543(17)
C5 C 1.0314(3) 0.4096(4) 0.19452(18)
C6 C 1.0217(3) 0.4883(5) 0.26662(19)
H3 H 1.0799 0.4880 0.3118
C7 C 0.9268(3) 0.5635(4) 0.26864(18)
C8 C 0.8359(3) 0.5589(4) 0.20007(19)
C9 C 0.8442(3) 0.4830(4) 0.13017(19)
H4 H 0.7847 0.4807 0.0861
C10 C 1.0819(3) 0.1721(4) -0.01295(19)
C11 C 1.1827(3) 0.0961(5) -0.0042(2)
H5 H 1.2331 0.0978 0.0453
C12 C 1.2086(3) 0.0179(5) -0.0684(3)
H6 H 1.2764 -0.0327 -0.0620
C13 C 1.1361(4) 0.0138(5) -0.1411(3)
H7 H 1.1548 -0.0381 -0.1842
C14 C 1.0353(4) 0.0863(5) -0.1510(2)
H8 H 0.9855 0.0821 -0.2007
C15 C 1.0075(3) 0.1654(4) -0.0875(2)
H9 H 0.9391 0.2142 -0.0945
C16 C 0.9949(3) 0.6567(6) 0.4030(2)
H10 H 1.0204 0.5414 0.4206
H11 H 0.9714 0.7153 0.4445
H12 H 1.0524 0.7225 0.3905
C17 C 0.6502(3) 0.6281(6) 0.1466(2)
H13 H 0.6620 0.6895 0.1014
H14 H 0.5919 0.6824 0.1632
H15 H 0.6320 0.5081 0.1324
F1 F 0.3962(3) 0.5483(5) 0.17079(16)
F2 F 0.3855(3) 0.7197(6) 0.0716(3)
F3 F 0.2802(3) 0.4966(4) 0.05503(19)
F4 F 0.2555(3) 0.7147(7) 0.1264(2)
B1 B 0.3294(4) 0.6151(7) 0.1073(3)
loop_
_geom_bond_atom_site_label_1
_geom_bond_atom_site_label_2
_geom_bond_site_symmetry_1
_geom_bond_site_symmetry_2
O1 C1 1_555 1_555
O2 C7 1_555 1_555
O3 C8 1_555 1_555
F1 B1 1_555 1_555
F2 B1 1_555 1_555
F3 B1 1_555 1_555
F4 B1 1_555 1_555
C1 H1 1_555 1_555
C2 O1 1_555 1_555
C3 C2 1_555 1_555
H2 C3 1_555 1_555
C4 C3 1_555 1_555
C5 C1 1_555 1_555
C6 C5 1_555 1_555
H3 C6 1_555 1_555
C7 C6 1_555 1_555
C8 C7 1_555 1_555
C9 C4 1_555 1_555
H4 C9 1_555 1_555
C10 C2 1_555 1_555
C11 C10 1_555 1_555
H5 C11 1_555 1_555
C12 C11 1_555 1_555
H6 C12 1_555 1_555
C13 C12 1_555 1_555
H7 C13 1_555 1_555
C14 C13 1_555 1_555
H8 C14 1_555 1_555
C15 C10 1_555 1_555
H9 C15 1_555 1_555
C16 O2 1_555 1_555
H10 C16 1_555 1_555
H11 C16 1_555 1_555
H12 C16 1_555 1_555
C17 O3 1_555 1_555
H13 C17 1_555 1_555
H14 C17 1_555 1_555
H15 C17 1_555 1_555
C4 C5 1_555 1_555
C8 C9 1_555 1_555
C14 C15 1_555 1_555

#END
