
#######################################################################
#
#                 Cambridge Crystallographic Data Centre
#                                CCDC 
#
#######################################################################
#
# If this CIF has been generated from an entry in the Cambridge 
# Structural Database, then it will include bibliographic, chemical, 
# crystal, experimental, refinement or atomic coordinate data resulting 
# from the CCDC's data processing and validation procedures.
#
#######################################################################

data_WUNLIB
_chemical_compound_source        
'twigs of Daphniphyllum calycinum (Daphniphyllaceae)'
_chemical_name_common            'Calycinumine A'
_chemical_formula_moiety         'C21 H29 N1 O3'
_chemical_name_systematic        
7,19-Dihydroxy-14,18-dimethyl-12-azahexacyclo[10.6.1.1^1,4^.0^7,20^.0^10,18^.0^15,19^]icos-4(20)-en-3-one
_symmetry_cell_setting           monoclinic
_symmetry_space_group_name_H-M   'P 21'
_symmetry_Int_Tables_number      4
_space_group_name_Hall           'P 2yb'
loop_
_symmetry_equiv_pos_site_id
_symmetry_equiv_pos_as_xyz
1 x,y,z
2 -x,1/2+y,-z
_cell_length_a                   7.1051(9)
_cell_length_b                   7.7461(10)
_cell_length_c                   16.467(2)
_cell_angle_alpha                90
_cell_angle_beta                 101.730(2)
_cell_angle_gamma                90
_cell_volume                     887.365
_exptl_crystal_colour            colorless
_exptl_crystal_description       prismatic
_cell_formula_units_Z            2
_exptl_crystal_recrystallization_method ethanol/water
loop_
_atom_site_label
_atom_site_type_symbol
_atom_site_fract_x
_atom_site_fract_y
_atom_site_fract_z
N1 N 0.8458(3) 0.8380(3) 0.15868(14)
O1 O 1.1540(3) 0.7294(3) 0.16172(11)
H1 H 1.1980 0.7989 0.1982
O2 O 1.2442(3) 0.9420(3) 0.30918(12)
H2 H 1.2680 1.0410 0.3258
O3 O 1.2989(3) 0.2747(2) 0.37368(14)
C1 C 0.9645(4) 0.6802(4) 0.16961(16)
C2 C 0.8818(4) 0.5700(4) 0.09359(16)
H3 H 0.9710 0.4778 0.0858
C3 C 0.6855(4) 0.4961(5) 0.10173(18)
H4 H 0.5873 0.5793 0.0784
H5 H 0.6621 0.3926 0.0680
C4 C 0.6594(4) 0.4506(4) 0.18965(18)
H6 H 0.6973 0.3310 0.1999
H7 H 0.5231 0.4572 0.1898
C5 C 0.7671(4) 0.5584(4) 0.26436(16)
C6 C 0.6734(4) 0.7377(4) 0.26981(18)
H8 H 0.5393 0.7132 0.2722
C7 C 0.6639(4) 0.8374(4) 0.18918(18)
H9 H 0.5638 0.7875 0.1468
H10 H 0.6277 0.9558 0.1976
C8 C 0.9759(3) 0.5873(3) 0.25201(15)
C9 C 1.0988(4) 0.6781(4) 0.32537(15)
C10 C 1.1148(4) 0.8626(4) 0.35528(17)
C11 C 0.9262(4) 0.9620(4) 0.34300(19)
H11 H 0.9059 1.0201 0.2897
H12 H 0.9373 1.0501 0.3856
C12 C 0.7494(4) 0.8503(5) 0.3461(2)
H13 H 0.6463 0.9259 0.3546
H14 H 0.7807 0.7753 0.3941
C13 C 1.0912(4) 0.4148(4) 0.25545(16)
H15 H 1.0041 0.3172 0.2456
H16 H 1.1696 0.4146 0.2136
C14 C 1.2169(4) 0.4040(4) 0.34136(18)
C15 C 1.2208(4) 0.5776(4) 0.37563(16)
C16 C 1.3281(4) 0.6680(4) 0.45100(16)
H17 H 1.4613 0.6876 0.4479
H18 H 1.3227 0.6044 0.5012
C17 C 1.2152(4) 0.8379(4) 0.44615(18)
H19 H 1.1210 0.8323 0.4813
H20 H 1.3016 0.9335 0.4645
C18 C 0.8651(5) 0.7068(4) 0.02496(18)
H21 H 0.9943 0.7254 0.0142
C19 C 0.8092(5) 0.8696(5) 0.06706(18)
H22 H 0.8849 0.9670 0.0550
H23 H 0.6744 0.8957 0.0465
C20 C 0.7319(5) 0.6636(6) -0.05868(18)
H24 H 0.7778 0.5618 -0.0816
H25 H 0.7309 0.7585 -0.0963
H26 H 0.6039 0.6438 -0.0502
C21 C 0.7599(4) 0.4546(4) 0.34321(18)
H27 H 0.8318 0.5141 0.3907
H28 H 0.8148 0.3424 0.3393
H29 H 0.6288 0.4425 0.3489
loop_
_geom_bond_atom_site_label_1
_geom_bond_atom_site_label_2
_geom_bond_site_symmetry_1
_geom_bond_site_symmetry_2
N1 C1 1_555 1_555
O1 H1 1_555 1_555
O2 H2 1_555 1_555
O3 C14 1_555 1_555
C1 O1 1_555 1_555
C2 C1 1_555 1_555
H3 C2 1_555 1_555
C3 C2 1_555 1_555
H4 C3 1_555 1_555
H5 C3 1_555 1_555
C4 C3 1_555 1_555
H6 C4 1_555 1_555
H7 C4 1_555 1_555
C5 C4 1_555 1_555
C6 C5 1_555 1_555
H8 C6 1_555 1_555
C7 N1 1_555 1_555
H9 C7 1_555 1_555
H10 C7 1_555 1_555
C8 C1 1_555 1_555
C9 C8 1_555 1_555
C10 O2 1_555 1_555
C11 C10 1_555 1_555
H11 C11 1_555 1_555
H12 C11 1_555 1_555
C12 C6 1_555 1_555
H13 C12 1_555 1_555
H14 C12 1_555 1_555
C13 C8 1_555 1_555
H15 C13 1_555 1_555
H16 C13 1_555 1_555
C14 C13 1_555 1_555
C15 C9 1_555 1_555
C16 C15 1_555 1_555
H17 C16 1_555 1_555
H18 C16 1_555 1_555
C17 C10 1_555 1_555
H19 C17 1_555 1_555
H20 C17 1_555 1_555
C18 C2 1_555 1_555
H21 C18 1_555 1_555
C19 N1 1_555 1_555
H22 C19 1_555 1_555
H23 C19 1_555 1_555
C20 C18 1_555 1_555
H24 C20 1_555 1_555
H25 C20 1_555 1_555
H26 C20 1_555 1_555
C21 C5 1_555 1_555
H27 C21 1_555 1_555
H28 C21 1_555 1_555
H29 C21 1_555 1_555
C5 C8 1_555 1_555
C6 C7 1_555 1_555
C9 C10 1_555 1_555
C11 C12 1_555 1_555
C14 C15 1_555 1_555
C16 C17 1_555 1_555
C18 C19 1_555 1_555

#END
