
#######################################################################
#
#                 Cambridge Crystallographic Data Centre
#                                CCDC 
#
#######################################################################
#
# If this CIF has been generated from an entry in the Cambridge 
# Structural Database, then it will include bibliographic, chemical, 
# crystal, experimental, refinement or atomic coordinate data resulting 
# from the CCDC's data processing and validation procedures.
#
#######################################################################

data_WUNMAU
_chemical_formula_moiety         'C20 H24 O2'
_chemical_name_systematic        
(E)-1-(5-Hydroxypentyl)-2-(2-naphthylmethylene)cyclobutanol
_symmetry_cell_setting           monoclinic
_symmetry_space_group_name_H-M   'P 21/n'
_symmetry_Int_Tables_number      14
_space_group_name_Hall           '-P 2yn'
loop_
_symmetry_equiv_pos_site_id
_symmetry_equiv_pos_as_xyz
1 x,y,z
2 1/2-x,1/2+y,1/2-z
3 -x,-y,-z
4 1/2+x,1/2-y,1/2+z
_cell_length_a                   14.0468(8)
_cell_length_b                   6.6546(4)
_cell_length_c                   18.8942(10)
_cell_angle_alpha                90
_cell_angle_beta                 110.607(1)
_cell_angle_gamma                90
_cell_volume                     1653.15
_exptl_crystal_colour            colorless
_exptl_crystal_description       plate
_cell_formula_units_Z            4
loop_
_atom_site_label
_atom_site_type_symbol
_atom_site_fract_x
_atom_site_fract_y
_atom_site_fract_z
C1 C 0.04751(9) 0.3889(2) 0.21632(7)
C2 C 0.05189(10) 0.3379(2) 0.29598(7)
C3 C 0.00786(11) 0.5408(2) 0.30418(8)
H1 H 0.0490 0.6157 0.3500
H2 H -0.0645 0.5357 0.2996
C4 C 0.02451(11) 0.6099(2) 0.23120(8)
H3 H 0.0831 0.7016 0.2405
H4 H -0.0373 0.6654 0.1924
C5 C 0.09288(10) 0.1784(2) 0.33813(7)
H5 H 0.1163 0.0762 0.3132
C6 C -0.03795(10) 0.2790(2) 0.15567(7)
H6 H -0.1026 0.3073 0.1637
H7 H -0.0253 0.1326 0.1625
C7 C -0.05115(10) 0.3331(2) 0.07425(7)
H8 H -0.0807 0.4694 0.0624
H9 H 0.0160 0.3335 0.0681
C8 C -0.12082(10) 0.1812(2) 0.02017(7)
H10 H -0.1902 0.1978 0.0216
H11 H -0.0973 0.0445 0.0390
C9 C -0.12727(10) 0.1947(2) -0.06191(7)
H12 H -0.1603 0.3225 -0.0844
H13 H -0.0580 0.1928 -0.0643
C10 C -0.18791(10) 0.0198(2) -0.10607(7)
H14 H -0.1555 -0.1072 -0.0822
H15 H -0.2573 0.0241 -0.1039
C11 C 0.10711(9) 0.1376(2) 0.41731(7)
C12 C 0.15914(10) -0.0309(2) 0.45188(7)
H16 H 0.1846 -0.1196 0.4233
C13 C 0.22706(13) -0.2534(2) 0.56369(9)
H17 H 0.2525 -0.3440 0.5358
C14 C 0.24027(13) -0.2959(3) 0.63725(9)
H18 H 0.2747 -0.4153 0.6599
C15 C 0.20336(12) -0.1644(3) 0.67945(8)
H19 H 0.2126 -0.1951 0.7306
C16 C 0.15430(11) 0.0071(2) 0.64751(8)
H20 H 0.1298 0.0955 0.6767
C17 C 0.08657(11) 0.2289(2) 0.53515(8)
H21 H 0.0619 0.3205 0.5632
C18 C 0.07010(11) 0.2685(2) 0.46130(8)
H22 H 0.0332 0.3855 0.4386
C19 C 0.17635(10) -0.0777(2) 0.52846(7)
C20 C 0.13916(10) 0.0559(2) 0.57143(7)
O1 O 0.13877(7) 0.35427(15) 0.20168(5)
H23 H 0.1885 0.3982 0.2379
O2 O -0.19486(8) 0.02163(16) -0.18331(5)
H24 H -0.1767 -0.0906 -0.1946
loop_
_geom_bond_atom_site_label_1
_geom_bond_atom_site_label_2
_geom_bond_site_symmetry_1
_geom_bond_site_symmetry_2
C1 C2 1_555 1_555
C2 C3 1_555 1_555
C3 H1 1_555 1_555
H2 C3 1_555 1_555
C4 C1 1_555 1_555
H3 C4 1_555 1_555
H4 C4 1_555 1_555
C5 C2 1_555 1_555
H5 C5 1_555 1_555
C6 C1 1_555 1_555
H6 C6 1_555 1_555
H7 C6 1_555 1_555
C7 C6 1_555 1_555
H8 C7 1_555 1_555
H9 C7 1_555 1_555
C8 C7 1_555 1_555
H10 C8 1_555 1_555
H11 C8 1_555 1_555
C9 C8 1_555 1_555
H12 C9 1_555 1_555
H13 C9 1_555 1_555
C10 C9 1_555 1_555
H14 C10 1_555 1_555
H15 C10 1_555 1_555
C11 C5 1_555 1_555
C12 C11 1_555 1_555
H16 C12 1_555 1_555
C13 H17 1_555 1_555
C14 C13 1_555 1_555
H18 C14 1_555 1_555
C15 C14 1_555 1_555
H19 C15 1_555 1_555
C16 C15 1_555 1_555
H20 C16 1_555 1_555
C17 H21 1_555 1_555
C18 C11 1_555 1_555
H22 C18 1_555 1_555
C19 C12 1_555 1_555
C20 C16 1_555 1_555
O1 C1 1_555 1_555
H23 O1 1_555 1_555
O2 C10 1_555 1_555
H24 O2 1_555 1_555
C3 C4 1_555 1_555
C13 C19 1_555 1_555
C17 C18 1_555 1_555
C17 C20 1_555 1_555
C19 C20 1_555 1_555

#END
