
#######################################################################
#
#                 Cambridge Crystallographic Data Centre
#                                CCDC 
#
#######################################################################
#
# If this CIF has been generated from an entry in the Cambridge 
# Structural Database, then it will include bibliographic, chemical, 
# crystal, experimental, refinement or atomic coordinate data resulting 
# from the CCDC's data processing and validation procedures.
#
#######################################################################

data_WUNNID
_chemical_formula_moiety         'C45 H40 N4 O3,2.5(H2 O1)'
_chemical_name_systematic        
"3',6'-bis(Diethylamino)-2-(((1-hydroxypyren-2-yl)methylene)amino)spiro[isoindole-1,9'-xanthen]-3(2H)-one hydrate"
_symmetry_cell_setting           monoclinic
_symmetry_space_group_name_H-M   'P 21/c'
_symmetry_Int_Tables_number      14
_space_group_name_Hall           '-P 2ybc'
loop_
_symmetry_equiv_pos_site_id
_symmetry_equiv_pos_as_xyz
1 x,y,z
2 -x,1/2+y,1/2-z
3 -x,-y,-z
4 x,1/2-y,1/2+z
_cell_length_a                   13.2356(14)
_cell_length_b                   12.1782(14)
_cell_length_c                   26.593(3)
_cell_angle_alpha                90
_cell_angle_beta                 102.202(2)
_cell_angle_gamma                90
_cell_volume                     4189.58
_exptl_crystal_colour            yellow
_exptl_crystal_description       plate
_cell_formula_units_Z            4
_exptl_crystal_recrystallization_method dichloromethane
loop_
_atom_site_label
_atom_site_type_symbol
_atom_site_fract_x
_atom_site_fract_y
_atom_site_fract_z
C1 C 0.9478(4) 0.2239(5) 0.1901(2)
C2 C 1.0184(4) 0.2352(5) 0.1588(2)
H1 H 1.0350 0.1748 0.1407
C3 C 1.0654(5) 0.3370(5) 0.1541(2)
C4 C 1.0366(4) 0.4244(5) 0.1826(2)
H2 H 1.0649 0.4937 0.1803
C5 C 0.9671(4) 0.4089(5) 0.2139(2)
H3 H 0.9519 0.4684 0.2330
C6 C 0.9191(4) 0.3112(5) 0.2186(2)
C7 C 0.8489(4) 0.2927(5) 0.2548(2)
C8 C 0.7959(4) 0.1836(5) 0.2459(2)
C9 C 0.7139(5) 0.1537(5) 0.2673(2)
H4 H 0.6899 0.2048 0.2880
C10 C 0.6648(5) 0.0532(5) 0.2602(2)
H5 H 0.6101 0.0383 0.2761
C11 C 0.6977(5) -0.0270(5) 0.2288(2)
C12 C 0.7832(5) 0.0030(5) 0.2069(2)
H6 H 0.8087 -0.0472 0.1863
C13 C 0.8288(5) 0.1045(5) 0.2156(2)
C14 C 1.1698(5) 0.4598(6) 0.1108(2)
H7 H 1.2312 0.4521 0.0966
H8 H 1.1881 0.5038 0.1418
C15 C 1.0885(5) 0.5193(6) 0.0725(3)
H9 H 1.0905 0.4952 0.0384
H10 H 1.1013 0.5969 0.0753
H11 H 1.0216 0.5040 0.0795
C16 C 1.1763(6) 0.2574(6) 0.0995(3)
H12 H 1.2471 0.2719 0.0968
H13 H 1.1772 0.1937 0.1215
C17 C 1.1174(7) 0.2315(8) 0.0496(3)
H14 H 1.0527 0.1994 0.0526
H15 H 1.1552 0.1804 0.0331
H16 H 1.1047 0.2974 0.0294
C18 C 0.5574(5) -0.1587(6) 0.2389(3)
H17 H 0.5151 -0.0948 0.2415
H18 H 0.5159 -0.2104 0.2155
C19 C 0.5894(6) -0.2099(7) 0.2902(3)
H19 H 0.6329 -0.2720 0.2879
H20 H 0.5293 -0.2336 0.3020
H21 H 0.6269 -0.1573 0.3139
C20 C 0.6880(6) -0.2106(7) 0.1873(3)
H22 H 0.7088 -0.1760 0.1582
H23 H 0.6320 -0.2609 0.1738
C21 C 0.7767(6) -0.2745(6) 0.2168(3)
H24 H 0.8339 -0.2260 0.2287
H25 H 0.7964 -0.3297 0.1949
H26 H 0.7570 -0.3089 0.2457
C22 C 0.9056(4) 0.3068(5) 0.3111(2)
C23 C 0.9887(5) 0.2471(5) 0.3373(2)
H27 H 1.0167 0.1897 0.3216
C24 C 1.0292(5) 0.2761(7) 0.3884(3)
H28 H 1.0859 0.2377 0.4068
C25 C 0.9882(7) 0.3595(7) 0.4124(3)
H29 H 1.0170 0.3770 0.4465
C26 C 0.9047(6) 0.4167(6) 0.3859(3)
H30 H 0.8739 0.4714 0.4020
C27 C 0.8667(5) 0.3910(5) 0.3343(2)
C28 C 0.7812(5) 0.4411(6) 0.2977(3)
C29 C 0.6730(5) 0.3615(5) 0.1711(3)
H31 H 0.7130 0.3013 0.1660
C30 C 0.5855(4) 0.3970(6) 0.1299(2)
C31 C 0.5600(5) 0.3358(5) 0.0863(3)
H32 H 0.5973 0.2725 0.0829
C32 C 0.4779(6) 0.3674(6) 0.0464(3)
C33 C 0.4465(6) 0.3015(6) -0.0006(3)
H33 H 0.4791 0.2354 -0.0047
C34 C 0.3672(8) 0.3410(10) -0.0382(3)
H34 H 0.3475 0.2999 -0.0681
C35 C 0.3136(7) 0.4400(9) -0.0344(4)
C36 C 0.3422(5) 0.5021(8) 0.0097(3)
C37 C 0.4228(5) 0.4648(7) 0.0519(3)
C38 C 0.4514(5) 0.5279(6) 0.0972(3)
C39 C 0.5313(5) 0.4910(6) 0.1363(2)
C40 C 0.3959(5) 0.6268(6) 0.1001(3)
H35 H 0.4117 0.6695 0.1297
C41 C 0.3210(6) 0.6590(6) 0.0607(4)
H36 H 0.2867 0.7244 0.0639
C42 C 0.2916(6) 0.5993(9) 0.0146(3)
C43 C 0.2129(6) 0.6389(8) -0.0266(4)
H37 H 0.1782 0.7043 -0.0238
C44 C 0.1904(7) 0.5764(12) -0.0705(5)
H38 H 0.1415 0.6034 -0.0981
C45 C 0.2358(7) 0.4756(10) -0.0767(3)
H39 H 0.2165 0.4342 -0.1066
N1 N 1.1378(4) 0.3524(5) 0.1242(2)
N2 N 0.6492(4) -0.1251(5) 0.2179(2)
N3 N 0.7736(4) 0.3841(4) 0.2532(2)
N4 N 0.6931(4) 0.4131(4) 0.2129(2)
O1 O 0.9112(3) 0.1192(3) 0.19204(14)
O2 O 0.7242(3) 0.5183(4) 0.30399(15)
O3 O 0.5496(3) 0.5516(3) 0.17881(16)
H40 H 0.5981 0.5251 0.1997
O4 O 0.1514(7) 0.9219(9) 0.9839(3)
O5 O 0.4270(14) 0.9005(15) 0.1073(7)
O6 O 0.2829(16) 0.9961(17) 0.9424(8)
O7 O 0.4370(18) 0.090(2) 0.0996(8)
loop_
_geom_bond_atom_site_label_1
_geom_bond_atom_site_label_2
_geom_bond_site_symmetry_1
_geom_bond_site_symmetry_2
C1 C2 1_555 1_555
C2 H1 1_555 1_555
C3 C2 1_555 1_555
C4 C3 1_555 1_555
H2 C4 1_555 1_555
C5 C4 1_555 1_555
H3 C5 1_555 1_555
C6 C1 1_555 1_555
C7 C6 1_555 1_555
C8 C7 1_555 1_555
C9 C8 1_555 1_555
H4 C9 1_555 1_555
C10 C9 1_555 1_555
H5 C10 1_555 1_555
C11 C10 1_555 1_555
C12 C11 1_555 1_555
H6 C12 1_555 1_555
C13 C8 1_555 1_555
C14 H7 1_555 1_555
H8 C14 1_555 1_555
C15 C14 1_555 1_555
H9 C15 1_555 1_555
H10 C15 1_555 1_555
H11 C15 1_555 1_555
C16 H12 1_555 1_555
H13 C16 1_555 1_555
C17 C16 1_555 1_555
H14 C17 1_555 1_555
H15 C17 1_555 1_555
H16 C17 1_555 1_555
C18 H17 1_555 1_555
H18 C18 1_555 1_555
C19 C18 1_555 1_555
H19 C19 1_555 1_555
H20 C19 1_555 1_555
H21 C19 1_555 1_555
C20 H22 1_555 1_555
H23 C20 1_555 1_555
C21 C20 1_555 1_555
H24 C21 1_555 1_555
H25 C21 1_555 1_555
H26 C21 1_555 1_555
C22 C7 1_555 1_555
C23 C22 1_555 1_555
H27 C23 1_555 1_555
C24 C23 1_555 1_555
H28 C24 1_555 1_555
C25 C24 1_555 1_555
H29 C25 1_555 1_555
C26 C25 1_555 1_555
H30 C26 1_555 1_555
C27 C22 1_555 1_555
C28 C27 1_555 1_555
C29 H31 1_555 1_555
C30 C29 1_555 1_555
C31 C30 1_555 1_555
H32 C31 1_555 1_555
C32 C31 1_555 1_555
C33 C32 1_555 1_555
H33 C33 1_555 1_555
C34 C33 1_555 1_555
H34 C34 1_555 1_555
C35 C34 1_555 1_555
C36 C35 1_555 1_555
C37 C32 1_555 1_555
C38 C37 1_555 1_555
C39 C30 1_555 1_555
C40 C38 1_555 1_555
H35 C40 1_555 1_555
C41 C40 1_555 1_555
H36 C41 1_555 1_555
C42 C36 1_555 1_555
C43 C42 1_555 1_555
H37 C43 1_555 1_555
C44 C43 1_555 1_555
H38 C44 1_555 1_555
C45 C35 1_555 1_555
H39 C45 1_555 1_555
N1 C3 1_555 1_555
N2 C11 1_555 1_555
N3 C7 1_555 1_555
N4 C29 1_555 1_555
O1 C1 1_555 1_555
O2 C28 1_555 1_555
O3 C39 1_555 1_555
H40 O3 1_555 1_555
C5 C6 1_555 1_555
C12 C13 1_555 1_555
C13 O1 1_555 1_555
C14 N1 1_555 1_555
C16 N1 1_555 1_555
C18 N2 1_555 1_555
C20 N2 1_555 1_555
C26 C27 1_555 1_555
C28 N3 1_555 1_555
C36 C37 1_555 1_555
C38 C39 1_555 1_555
C41 C42 1_555 1_555
C44 C45 1_555 1_555
N3 N4 1_555 1_555

#END
