
#######################################################################
#
#                 Cambridge Crystallographic Data Centre
#                                CCDC 
#
#######################################################################
#
# If this CIF has been generated from an entry in the Cambridge 
# Structural Database, then it will include bibliographic, chemical, 
# crystal, experimental, refinement or atomic coordinate data resulting 
# from the CCDC's data processing and validation procedures.
#
#######################################################################

data_WUNNOJ
_chemical_formula_moiety         'C24 H16 N2 O2'
_chemical_name_systematic        
N'-((1-Hydroxypyren-2-yl)methylidene)benzohydrazide
_symmetry_cell_setting           monoclinic
_symmetry_space_group_name_H-M   'P 21/n'
_symmetry_Int_Tables_number      14
_space_group_name_Hall           '-P 2yn'
loop_
_symmetry_equiv_pos_site_id
_symmetry_equiv_pos_as_xyz
1 x,y,z
2 1/2-x,1/2+y,1/2-z
3 -x,-y,-z
4 1/2+x,1/2-y,1/2+z
_cell_length_a                   9.6680(19)
_cell_length_b                   9.5110(19)
_cell_length_c                   19.728(4)
_cell_angle_alpha                90
_cell_angle_beta                 90.66(3)
_cell_angle_gamma                90
_cell_volume                     1813.92
_exptl_crystal_colour            colorless
_exptl_crystal_description       block
_cell_formula_units_Z            4
_exptl_crystal_recrystallization_method dichloromethane
loop_
_atom_site_label
_atom_site_type_symbol
_atom_site_fract_x
_atom_site_fract_y
_atom_site_fract_z
C1 C 0.1339(4) 0.2325(3) 1.01590(15)
C2 C 0.1681(4) 0.1054(3) 0.98569(12)
C3 C 0.1796(4) -0.0156(3) 1.02487(16)
C4 C 0.1569(4) -0.0095(3) 1.09425(15)
C5 C 0.1228(4) 0.1177(4) 1.12447(11)
C6 C 0.1113(4) 0.2387(3) 1.08529(15)
C7 C 0.1656(5) -0.1324(4) 1.1324(2)
C8 C 0.1486(16) -0.1212(8) 1.2021(3)
C9 C 0.1122(5) 0.0013(5) 1.2358(2)
C10 C 0.0878(7) 0.0076(6) 1.3051(2)
C11 C 0.0486(9) 0.1339(8) 1.33467(19)
C12 C 0.0337(8) 0.2538(6) 1.2950(3)
C13 C 0.0581(5) 0.2476(5) 1.2258(2)
C14 C 0.0973(5) 0.1213(5) 1.19619(17)
C15 C 0.0521(13) 0.3677(7) 1.1857(3)
C16 C 0.0743(5) 0.3650(4) 1.1162(3)
C17 C 0.1835(4) 0.0971(4) 0.91263(19)
C18 C 0.1591(7) 0.2901(6) 0.7670(4)
C19 C 0.1389(5) 0.2683(5) 0.69101(14)
C20 C 0.0441(5) 0.3543(4) 0.65753(19)
C21 C 0.0062(5) 0.3256(5) 0.59077(19)
C22 C 0.0631(5) 0.2109(5) 0.55750(14)
C23 C 0.1579(5) 0.1249(4) 0.59098(17)
C24 C 0.1958(5) 0.1535(5) 0.65774(17)
O1 O 0.1364(8) 0.3489(5) 0.9799(3)
O2 O 0.1578(7) 0.4129(5) 0.7892(3)
N1 N 0.1828(10) 0.2048(7) 0.8761(5)
N2 N 0.1864(3) 0.1877(4) 0.80363(16)
O3? O 0.1382(7) 0.3461(7) 0.9073(3)
O4? O 0.1414(8) 0.3936(5) 0.7105(4)
N3? N 0.1760(11) 0.1769(11) 0.7374(6)
C25? C 0.1896(12) -0.0258(7) 0.9506(4)
C26? C 0.1897(11) -0.1329(13) 1.0668(8)
C27? C 0.1228(11) -0.010(2) 1.1625(7)
C28? C 0.0483(16) 0.1213(7) 1.2608(5)
C29? C 0.0733(10) 0.2532(12) 1.1557(6)
C30? C 0.1347(14) 0.1155(15) 1.0558(6)
C31? C 0.0843(12) 0.3601(10) 1.0400(8)
C32? C 0.1563(10) 0.2222(6) 0.9465(2)
C33? C 0.1878(10) 0.0845(11) 0.8377(5)
C34? C 0.1211(5) 0.2553(4) 0.6172(3)
C35? C -0.0088(8) 0.3136(8) 0.5209(2)
C36? C 0.0419(9) 0.1954(8) 0.4880(4)
C37? C 0.1422(9) 0.1152(8) 0.5210(2)
loop_
_geom_bond_atom_site_label_1
_geom_bond_atom_site_label_2
_geom_bond_site_symmetry_1
_geom_bond_site_symmetry_2
C1 C2 1_555 1_555
C2 C3 1_555 1_555
C3 C4 1_555 1_555
C4 C5 1_555 1_555
C5 C6 1_555 1_555
C6 C1 1_555 1_555
C7 C4 1_555 1_555
C8 C7 1_555 1_555
C9 C8 1_555 1_555
C10 C9 1_555 1_555
C11 C10 1_555 1_555
C12 C11 1_555 1_555
C13 C12 1_555 1_555
C14 C5 1_555 1_555
C15 C13 1_555 1_555
C16 C6 1_555 1_555
C17 C2 1_555 1_555
C18 C19 1_555 1_555
C19 C20 1_555 1_555
C20 C21 1_555 1_555
C21 C22 1_555 1_555
C22 C23 1_555 1_555
C23 C24 1_555 1_555
C24 C19 1_555 1_555
O1 C1 1_555 1_555
O2 C18 1_555 1_555
N1 C17 1_555 1_555
N2 C18 1_555 1_555
C9 C14 1_555 1_555
C13 C14 1_555 1_555
C15 C16 1_555 1_555
N1 N2 1_555 1_555

#END
