
#######################################################################
#
#                 Cambridge Crystallographic Data Centre
#                                CCDC 
#
#######################################################################
#
# If this CIF has been generated from an entry in the Cambridge 
# Structural Database, then it will include bibliographic, chemical, 
# crystal, experimental, refinement or atomic coordinate data resulting 
# from the CCDC's data processing and validation procedures.
#
#######################################################################

data_WUNNUP
_chemical_formula_moiety         'C24 H22 Br2 N4 O3,C7 H7 Br1 N2 O1'
_chemical_name_systematic        
'N-(4-Bromophenyl)-2-(2-(2-(((4-bromophenyl)carbamoyl)amino)-2-oxoethyl)cyclohex-1-en-1-yl)-2-cyanoacetamide 1-(4-bromophenyl)urea'
_symmetry_cell_setting           triclinic
_symmetry_space_group_name_H-M   'P -1'
_symmetry_Int_Tables_number      2
_space_group_name_Hall           '-P 1'
loop_
_symmetry_equiv_pos_site_id
_symmetry_equiv_pos_as_xyz
1 x,y,z
2 -x,-y,-z
_cell_length_a                   10.299(2)
_cell_length_b                   12.584(3)
_cell_length_c                   12.776(3)
_cell_angle_alpha                82.36(3)
_cell_angle_beta                 88.14(3)
_cell_angle_gamma                72.95(3)
_cell_volume                     1568.94
_exptl_crystal_colour            colorless
_exptl_crystal_description       block
_chemical_melting_point          '216-217 deg.C'
_cell_formula_units_Z            2
loop_
_atom_site_label
_atom_site_type_symbol
_atom_site_fract_x
_atom_site_fract_y
_atom_site_fract_z
Br1 Br 0.86042(5) -0.69539(4) 1.04254(4)
Br2 Br 0.95981(4) -0.76270(3) 0.38696(3)
O1 O 0.7153(3) -0.1097(2) 1.04440(19)
O2 O 0.6930(2) -0.17424(19) 0.67345(17)
O3 O 0.7247(3) -0.1816(2) 0.35184(18)
N1 N 0.5792(3) 0.1686(3) 0.9879(2)
N2 N 0.7414(3) -0.1970(2) 0.8961(2)
H1 H 0.7306 -0.1851 0.8271
N3 N 0.6780(3) -0.0985(2) 0.5003(2)
H2 H 0.6677 -0.0354 0.4581
N4 N 0.7351(3) -0.2939(2) 0.5089(2)
H3 H 0.7326 -0.2762 0.5734
C1 C 0.7747(3) 0.0250(3) 0.8004(3)
C2 C 0.8965(4) 0.0367(3) 0.8562(3)
H7 H 0.9560 -0.0388 0.8830
H8 H 0.8653 0.0779 0.9175
C3 C 0.9783(5) 0.0992(4) 0.7819(4)
H9 H 0.9263 0.1794 0.7674
H10 H 1.0650 0.0939 0.8164
C4 C 1.0064(4) 0.0501(4) 0.6809(4)
H11 H 1.0607 -0.0295 0.6956
H12 H 1.0605 0.0903 0.6346
C5 C 0.8759(4) 0.0580(3) 0.6245(3)
H13 H 0.8410 0.1343 0.5856
H14 H 0.8969 0.0044 0.5718
C6 C 0.7654(3) 0.0342(3) 0.6962(3)
C7 C 0.6629(4) 0.0038(3) 0.8743(3)
H15 H 0.5853 0.0014 0.8306
C8 C 0.6149(4) 0.0964(3) 0.9383(3)
C9 C 0.7099(4) -0.1073(3) 0.9494(3)
C10 C 0.7754(4) -0.3117(3) 0.9373(3)
C11 C 0.8411(4) -0.3886(3) 0.8696(3)
H16 H 0.8674 -0.3623 0.8014
C12 C 0.8686(4) -0.5029(3) 0.9004(3)
H17 H 0.9134 -0.5551 0.8541
C13 C 0.8294(4) -0.5393(3) 1.0002(3)
C14 C 0.7661(4) -0.4646(3) 1.0684(3)
H18 H 0.7407 -0.4915 1.1366
C15 C 0.7391(4) -0.3498(3) 1.0379(3)
H19 H 0.6964 -0.2981 1.0853
C16 C 0.6448(3) 0.0257(3) 0.6360(3)
H20 H 0.6275 0.0812 0.5716
H21 H 0.5627 0.0425 0.6806
C17 C 0.6739(3) -0.0920(3) 0.6055(3)
C18 C 0.7137(3) -0.1941(3) 0.4476(3)
C19 C 0.7860(3) -0.4004(3) 0.4762(3)
C20 C 0.8228(4) -0.4176(3) 0.3727(3)
H22 H 0.8120 -0.3554 0.3194
C21 C 0.8756(4) -0.5263(3) 0.3475(3)
H23 H 0.9002 -0.5384 0.2768
C22 C 0.8918(4) -0.6160(3) 0.4252(3)
C23 C 0.8556(4) -0.6005(3) 0.5283(3)
H24 H 0.8667 -0.6631 0.5813
C24 C 0.8029(4) -0.4929(3) 0.5534(3)
H25 H 0.7779 -0.4817 0.6243
Br3 Br 0.43743(5) 0.69452(3) 0.31882(4)
O4 O 0.6254(3) 0.10749(19) 0.37110(17)
N5 N 0.5855(3) 0.2187(2) 0.2112(2)
H4 H 0.5753 0.2075 0.1459
N6 N 0.6443(3) 0.0282(2) 0.2202(2)
H5 H 0.6567 0.0271 0.1519
H6 H 0.6764 -0.0377 0.2582
C25 C 0.4834(4) 0.5444(3) 0.2873(3)
C26 C 0.4523(4) 0.5249(3) 0.1883(3)
H26 H 0.4082 0.5854 0.1367
C27 C 0.4865(4) 0.4159(3) 0.1661(3)
H27 H 0.4663 0.4013 0.0984
C28 C 0.5507(3) 0.3264(3) 0.2419(3)
C29 C 0.5796(4) 0.3479(3) 0.3410(3)
H28 H 0.6216 0.2876 0.3935
C30 C 0.5469(4) 0.4575(3) 0.3632(3)
H29 H 0.5682 0.4727 0.4304
C31 C 0.6201(3) 0.1175(3) 0.2738(3)
loop_
_geom_bond_atom_site_label_1
_geom_bond_atom_site_label_2
_geom_bond_site_symmetry_1
_geom_bond_site_symmetry_2
Br1 C13 1_555 1_555
Br2 C22 1_555 1_555
Br3 C25 1_555 1_555
O1 C9 1_555 1_555
O2 C17 1_555 1_555
O3 C18 1_555 1_555
O4 C31 1_555 1_555
N1 C8 1_555 1_555
N2 H1 1_555 1_555
N3 H2 1_555 1_555
N4 H3 1_555 1_555
N5 H4 1_555 1_555
N6 H5 1_555 1_555
H6 N6 1_555 1_555
C1 C2 1_555 1_555
C2 H7 1_555 1_555
H8 C2 1_555 1_555
C3 C2 1_555 1_555
H9 C3 1_555 1_555
H10 C3 1_555 1_555
C4 C3 1_555 1_555
H11 C4 1_555 1_555
H12 C4 1_555 1_555
C5 C4 1_555 1_555
H13 C5 1_555 1_555
H14 C5 1_555 1_555
C6 C1 1_555 1_555
C7 C1 1_555 1_555
H15 C7 1_555 1_555
C8 C7 1_555 1_555
C9 N2 1_555 1_555
C10 N2 1_555 1_555
C11 C10 1_555 1_555
H16 C11 1_555 1_555
C12 C11 1_555 1_555
H17 C12 1_555 1_555
C13 C12 1_555 1_555
C14 C13 1_555 1_555
H18 C14 1_555 1_555
C15 C10 1_555 1_555
H19 C15 1_555 1_555
C16 C6 1_555 1_555
H20 C16 1_555 1_555
H21 C16 1_555 1_555
C17 N3 1_555 1_555
C18 N3 1_555 1_555
C19 N4 1_555 1_555
C20 C19 1_555 1_555
H22 C20 1_555 1_555
C21 C20 1_555 1_555
H23 C21 1_555 1_555
C22 C21 1_555 1_555
C23 C22 1_555 1_555
H24 C23 1_555 1_555
C24 C19 1_555 1_555
H25 C24 1_555 1_555
C25 C26 1_555 1_555
C26 H26 1_555 1_555
C27 C26 1_555 1_555
H27 C27 1_555 1_555
C28 N5 1_555 1_555
C29 C28 1_555 1_555
H28 C29 1_555 1_555
C30 C25 1_555 1_555
H29 C30 1_555 1_555
C31 N5 1_555 1_555
N4 C18 1_555 1_555
N6 C31 1_555 1_555
C5 C6 1_555 1_555
C7 C9 1_555 1_555
C14 C15 1_555 1_555
C16 C17 1_555 1_555
C23 C24 1_555 1_555
C27 C28 1_555 1_555
C29 C30 1_555 1_555

#END
