
#######################################################################
#
#                 Cambridge Crystallographic Data Centre
#                                CCDC 
#
#######################################################################
#
# If this CIF has been generated from an entry in the Cambridge 
# Structural Database, then it will include bibliographic, chemical, 
# crystal, experimental, refinement or atomic coordinate data resulting 
# from the CCDC's data processing and validation procedures.
#
#######################################################################

data_WUNPAX
_chemical_formula_moiety         'C27 H30 N4 O2 Si1'
_chemical_name_systematic        
1-Cyano-N-phenyl-2-((phenylcarbamoyl)imino)-3-(trimethylsilyl)-2,4,5,6,7,7a-hexahydro-1H-indene-1-carboxamide
_symmetry_cell_setting           triclinic
_symmetry_space_group_name_H-M   'P -1'
_symmetry_Int_Tables_number      2
_space_group_name_Hall           '-P 1'
loop_
_symmetry_equiv_pos_site_id
_symmetry_equiv_pos_as_xyz
1 x,y,z
2 -x,-y,-z
_cell_length_a                   12.696(3)
_cell_length_b                   14.502(3)
_cell_length_c                   15.330(3)
_cell_angle_alpha                74.95(3)
_cell_angle_beta                 71.74(3)
_cell_angle_gamma                79.67(3)
_cell_volume                     2573.64
_exptl_crystal_colour            colorless
_exptl_crystal_description       block
_chemical_melting_point          '130-131 deg.C'
_cell_formula_units_Z            4
loop_
_atom_site_label
_atom_site_type_symbol
_atom_site_fract_x
_atom_site_fract_y
_atom_site_fract_z
Si1 Si -0.97829(8) 0.63956(7) 0.23822(7)
O2 O -0.5613(2) 0.67233(18) 0.06722(17)
O3 O -0.61520(18) 0.45385(16) 0.36342(15)
N1 N -0.5057(3) 0.3640(2) 0.1769(2)
N3 N -0.5422(2) 0.6095(2) 0.21440(19)
H1 H -0.5645 0.5652 0.2657
N5 N -0.7770(2) 0.48859(19) 0.31400(19)
N8 N -0.7303(2) 0.33807(19) 0.39282(19)
H4 H -0.7927 0.3271 0.3856
C2 C -0.6921(3) 0.4423(3) 0.0374(3)
H7 H -0.7415 0.4034 0.0930
H8 H -0.6190 0.4039 0.0204
C4 C -0.7433(3) 0.4678(3) -0.0449(3)
H11 H -0.6906 0.5018 -0.1017
H12 H -0.7558 0.4081 -0.0583
C6 C -0.8535(3) 0.5311(3) -0.0235(3)
H15 H -0.9095 0.4933 0.0271
H16 H -0.8804 0.5510 -0.0803
C7 C -0.8433(3) 0.6218(3) 0.0076(2)
H17 H -0.7973 0.6657 -0.0459
H18 H -0.9180 0.6563 0.0292
C10 C -0.7897(3) 0.5902(2) 0.0858(2)
C12 C -0.8338(3) 0.5883(2) 0.1791(2)
C13 C -0.7524(3) 0.5298(2) 0.2268(2)
C14 C -0.6386(3) 0.5218(2) 0.1500(2)
C18 C -0.6770(3) 0.5340(2) 0.0613(2)
H22 H -0.6257 0.5727 0.0058
C19 C -0.9913(3) 0.7718(2) 0.1877(3)
H23 H -1.0673 0.7998 0.2143
H24 H -0.9753 0.7833 0.1192
H25 H -0.9381 0.8018 0.2032
C21 C -1.0829(3) 0.5833(3) 0.2122(3)
H29 H -1.0700 0.5133 0.2316
H30 H -1.0755 0.6015 0.1446
H31 H -1.1582 0.6056 0.2469
C23 C -1.0013(3) 0.6211(3) 0.3671(3)
H35 H -0.9917 0.5522 0.3947
H36 H -1.0771 0.6479 0.3959
H37 H -0.9472 0.6534 0.3788
C26 C -0.5759(3) 0.6106(2) 0.1395(2)
C27 C -0.4781(3) 0.6763(2) 0.2230(2)
C29 C -0.4563(3) 0.6623(3) 0.3083(3)
H41 H -0.4854 0.6110 0.3584
C31 C -0.3924(4) 0.7225(3) 0.3215(3)
H43 H -0.3774 0.7121 0.3805
C34 C -0.3502(3) 0.7973(3) 0.2497(3)
H46 H -0.3059 0.8385 0.2587
C36 C -0.3730(3) 0.8117(3) 0.1649(3)
H48 H -0.3447 0.8636 0.1153
C38 C -0.4369(3) 0.7514(3) 0.1508(3)
H50 H -0.4520 0.7619 0.0919
C40 C -0.6980(3) 0.4270(2) 0.3555(2)
C41 C -0.6751(3) 0.2585(2) 0.4432(2)
C44 C -0.7397(3) 0.1922(2) 0.5104(3)
H52 H -0.8186 0.2017 0.5230
C46 C -0.6894(4) 0.1115(3) 0.5597(3)
H54 H -0.7340 0.0655 0.6057
C48 C -0.5763(4) 0.0978(3) 0.5424(3)
H56 H -0.5421 0.0436 0.5778
C50 C -0.5118(4) 0.1632(3) 0.4732(4)
H58 H -0.4328 0.1526 0.4601
C52 C -0.5600(3) 0.2436(3) 0.4230(3)
H60 H -0.5150 0.2880 0.3752
C54 C -0.5659(3) 0.4327(3) 0.1672(2)
Si2 Si -0.83229(8) -0.09338(7) 0.39378(7)
O1 O -0.90311(19) 0.28420(18) 0.33629(18)
O4 O -1.1341(2) 0.15288(18) 0.23075(19)
N2 N -0.9250(3) 0.2522(3) 0.0605(2)
N4 N -1.0609(2) 0.2723(2) 0.3025(2)
H2 H -1.0903 0.2409 0.2753
N6 N -0.9899(2) 0.03643(19) 0.26222(19)
N7 N -1.0843(2) 0.02363(19) 0.1629(2)
H3 H -1.0449 -0.0324 0.1739
C1 C -0.6815(3) 0.1687(3) 0.1178(2)
H5 H -0.6894 0.2295 0.0715
H6 H -0.7012 0.1167 0.0968
C3 C -0.5609(3) 0.1466(3) 0.1236(3)
H9 H -0.5104 0.1387 0.0614
H10 H -0.5398 0.2014 0.1395
C5 C -0.5460(3) 0.0558(3) 0.1974(3)
H13 H -0.4684 0.0461 0.2018
H14 H -0.5585 -0.0002 0.1777
C8 C -0.6273(3) 0.0614(3) 0.2946(3)
H19 H -0.6218 -0.0010 0.3393
H20 H -0.6083 0.1111 0.3192
C9 C -0.7433(3) 0.0861(2) 0.2850(2)
C11 C -0.8291(3) 0.0317(2) 0.3163(2)
C15 C -0.9148(3) 0.0806(2) 0.2693(2)
C16 C -0.8867(3) 0.1869(2) 0.2241(2)
C17 C -0.7599(2) 0.1773(2) 0.2148(2)
H21 H -0.7428 0.2325 0.2341
C20 C -0.7877(4) -0.0930(3) 0.4983(3)
H26 H -0.7682 -0.1592 0.5292
H27 H -0.8489 -0.0624 0.5424
H28 H -0.7227 -0.0570 0.4782
C22 C -0.7386(4) -0.1782(3) 0.3245(3)
H32 H -0.7358 -0.2427 0.3650
H33 H -0.6634 -0.1575 0.2996
H34 H -0.7668 -0.1795 0.2722
C24 C -0.9755(3) -0.1289(3) 0.4382(3)
H38 H -0.9759 -0.1923 0.4808
H39 H -1.0015 -0.1315 0.3851
H40 H -1.0252 -0.0818 0.4721
C25 C -0.9516(3) 0.2540(2) 0.2947(2)
C28 C -1.1429(3) 0.3334(2) 0.3550(2)
C30 C -1.2472(3) 0.3485(2) 0.3402(3)
H42 H -1.2606 0.3185 0.2971
C32 C -1.3315(3) 0.4064(3) 0.3875(3)
H44 H -1.4027 0.4167 0.3763
C33 C -1.3137(3) 0.4498(3) 0.4511(3)
H45 H -1.3719 0.4899 0.4839
C35 C -1.2092(3) 0.4338(3) 0.4663(2)
H47 H -1.1963 0.4635 0.5099
C37 C -1.1234(3) 0.3756(2) 0.4192(2)
H49 H -1.0524 0.3648 0.4307
C39 C -1.0728(3) 0.0792(2) 0.2175(2)
C42 C -1.1494(3) 0.0468(2) 0.0988(2)
C43 C -1.1355(3) -0.0154(3) 0.0402(3)
H51 H -1.0863 -0.0729 0.0462
C45 C -1.1927(3) 0.0055(3) -0.0272(3)
H53 H -1.1827 -0.0379 -0.0668
C47 C -1.2636(3) 0.0882(3) -0.0372(3)
H55 H -1.3017 0.1027 -0.0842
C49 C -1.2794(3) 0.1504(3) 0.0218(3)
H57 H -1.3288 0.2076 0.0151
C51 C -1.2239(3) 0.1301(2) 0.0903(3)
H59 H -1.2363 0.1726 0.1313
C53 C -0.9110(3) 0.2239(2) 0.1330(3)
loop_
_geom_bond_atom_site_label_1
_geom_bond_atom_site_label_2
_geom_bond_site_symmetry_1
_geom_bond_site_symmetry_2
Si1 C12 1_555 1_555
Si2 C11 1_555 1_555
O1 C25 1_555 1_555
O2 C26 1_555 1_555
O3 C40 1_555 1_555
O4 C39 1_555 1_555
N1 C54 1_555 1_555
N2 C53 1_555 1_555
N3 H1 1_555 1_555
N4 H2 1_555 1_555
N5 C13 1_555 1_555
N6 C15 1_555 1_555
N7 H3 1_555 1_555
N8 H4 1_555 1_555
C1 H5 1_555 1_555
H6 C1 1_555 1_555
C2 H7 1_555 1_555
H8 C2 1_555 1_555
C3 C1 1_555 1_555
H9 C3 1_555 1_555
H10 C3 1_555 1_555
C4 C2 1_555 1_555
H11 C4 1_555 1_555
H12 C4 1_555 1_555
C5 C3 1_555 1_555
H13 C5 1_555 1_555
H14 C5 1_555 1_555
C6 C4 1_555 1_555
H15 C6 1_555 1_555
H16 C6 1_555 1_555
C7 C6 1_555 1_555
H17 C7 1_555 1_555
H18 C7 1_555 1_555
C8 C5 1_555 1_555
H19 C8 1_555 1_555
H20 C8 1_555 1_555
C9 C8 1_555 1_555
C10 C7 1_555 1_555
C11 C9 1_555 1_555
C12 C10 1_555 1_555
C13 C12 1_555 1_555
C14 C13 1_555 1_555
C15 C11 1_555 1_555
C16 C15 1_555 1_555
C17 C1 1_555 1_555
H21 C17 1_555 1_555
C18 C2 1_555 1_555
H22 C18 1_555 1_555
C19 Si1 1_555 1_555
H23 C19 1_555 1_555
H24 C19 1_555 1_555
H25 C19 1_555 1_555
C20 Si2 1_555 1_555
H26 C20 1_555 1_555
H27 C20 1_555 1_555
H28 C20 1_555 1_555
C21 Si1 1_555 1_555
H29 C21 1_555 1_555
H30 C21 1_555 1_555
H31 C21 1_555 1_555
C22 Si2 1_555 1_555
H32 C22 1_555 1_555
H33 C22 1_555 1_555
H34 C22 1_555 1_555
C23 Si1 1_555 1_555
H35 C23 1_555 1_555
H36 C23 1_555 1_555
H37 C23 1_555 1_555
C24 Si2 1_555 1_555
H38 C24 1_555 1_555
H39 C24 1_555 1_555
H40 C24 1_555 1_555
C25 N4 1_555 1_555
C26 N3 1_555 1_555
C27 N3 1_555 1_555
C28 N4 1_555 1_555
C29 C27 1_555 1_555
H41 C29 1_555 1_555
C30 C28 1_555 1_555
H42 C30 1_555 1_555
C31 C29 1_555 1_555
H43 C31 1_555 1_555
C32 C30 1_555 1_555
H44 C32 1_555 1_555
C33 C32 1_555 1_555
H45 C33 1_555 1_555
C34 C31 1_555 1_555
H46 C34 1_555 1_555
C35 C33 1_555 1_555
H47 C35 1_555 1_555
C36 C34 1_555 1_555
H48 C36 1_555 1_555
C37 C28 1_555 1_555
H49 C37 1_555 1_555
C38 C27 1_555 1_555
H50 C38 1_555 1_555
C39 N6 1_555 1_555
C40 N5 1_555 1_555
C41 N8 1_555 1_555
C42 N7 1_555 1_555
C43 C42 1_555 1_555
H51 C43 1_555 1_555
C44 C41 1_555 1_555
H52 C44 1_555 1_555
C45 C43 1_555 1_555
H53 C45 1_555 1_555
C46 C44 1_555 1_555
H54 C46 1_555 1_555
C47 C45 1_555 1_555
H55 C47 1_555 1_555
C48 C46 1_555 1_555
H56 C48 1_555 1_555
C49 C47 1_555 1_555
H57 C49 1_555 1_555
C50 C48 1_555 1_555
H58 C50 1_555 1_555
C51 C42 1_555 1_555
H59 C51 1_555 1_555
C52 C41 1_555 1_555
H60 C52 1_555 1_555
C53 C16 1_555 1_555
C54 C14 1_555 1_555
N7 C39 1_555 1_555
N8 C40 1_555 1_555
C9 C17 1_555 1_555
C10 C18 1_555 1_555
C14 C18 1_555 1_555
C14 C26 1_555 1_555
C16 C17 1_555 1_555
C16 C25 1_555 1_555
C35 C37 1_555 1_555
C36 C38 1_555 1_555
C49 C51 1_555 1_555
C50 C52 1_555 1_555

#END
