
#######################################################################
#
#                 Cambridge Crystallographic Data Centre
#                                CCDC 
#
#######################################################################
#
# If this CIF has been generated from an entry in the Cambridge 
# Structural Database, then it will include bibliographic, chemical, 
# crystal, experimental, refinement or atomic coordinate data resulting 
# from the CCDC's data processing and validation procedures.
#
#######################################################################

data_WUNPEB
_chemical_formula_moiety         'C13 H20 N2 Si1'
_chemical_name_systematic        
2-Amino-3-cyano-1-trimethylsilyl-4,5,6,7-tetrahydro-3aH-indene
_symmetry_cell_setting           orthorhombic
_symmetry_space_group_name_H-M   'P n a 21'
_symmetry_Int_Tables_number      33
_space_group_name_Hall           'P 2c -2n'
loop_
_symmetry_equiv_pos_site_id
_symmetry_equiv_pos_as_xyz
1 x,y,z
2 -x,-y,1/2+z
3 1/2+x,1/2-y,z
4 1/2-x,1/2+y,1/2+z
_cell_length_a                   10.600(2)
_cell_length_b                   14.995(3)
_cell_length_c                   8.7526(18)
_cell_angle_alpha                90
_cell_angle_beta                 90
_cell_angle_gamma                90
_cell_volume                     1391.2
_exptl_crystal_colour            colorless
_exptl_crystal_description       block
_chemical_melting_point          '127-128 deg.C'
_cell_formula_units_Z            4
loop_
_atom_site_label
_atom_site_type_symbol
_atom_site_fract_x
_atom_site_fract_y
_atom_site_fract_z
C1 C -0.1863(7) 1.1062(5) 0.413(2)
C2 C -0.0685(5) 1.0594(4) 0.420(3)
C3 C 0.0457(5) 1.0991(4) 0.4137(17)
C4 C 0.1485(5) 1.0339(4) 0.4098(18)
C5 C 0.0919(6) 0.9547(4) 0.410(4)
C6 C 0.1431(7) 0.8638(5) 0.3370(15)
H1 H 0.1224 0.8597 0.2293
H2 H 0.2337 0.8582 0.3495
C7 C 0.0807(7) 0.8014(4) 0.419(2)
H3 H 0.1124 0.8045 0.5233
H4 H 0.1044 0.7435 0.3794
C8 C -0.0654(7) 0.8038(4) 0.428(2)
H5 H -0.1009 0.7792 0.3354
H6 H -0.0939 0.7677 0.5136
C9 C -0.1102(6) 0.8995(4) 0.4490(8)
H7 H -0.2009 0.9017 0.4352
H8 H -0.0918 0.9185 0.5526
C10 C -0.0496(6) 0.9631(4) 0.3396(8)
C11 C 0.4271(6) 0.9648(5) 0.418(2)
H9 H 0.4022 0.9245 0.3384
H10 H 0.4215 0.9351 0.5151
H11 H 0.5125 0.9837 0.4011
C12 C 0.3543(11) 1.1348(8) 0.2528(11)
H12 H 0.4434 1.1351 0.2333
H13 H 0.3264 1.1945 0.2738
H14 H 0.3106 1.1123 0.1649
C13 C 0.3599(14) 1.1288(8) 0.5978(16)
H15 H 0.4426 1.1544 0.5885
H16 H 0.3577 1.0895 0.6843
H17 H 0.2990 1.1755 0.6115
N1 N -0.2801(6) 1.1410(4) 0.411(3)
N2 N 0.0625(5) 1.1876(3) 0.4336(16)
H18 H -0.0014 1.2215 0.4509
H19 H 0.1370 1.2101 0.4289
Si1 Si 0.32092(14) 1.06363(10) 0.4176(8)
loop_
_geom_bond_atom_site_label_1
_geom_bond_atom_site_label_2
_geom_bond_site_symmetry_1
_geom_bond_site_symmetry_2
C1 C2 1_555 1_555
C2 C3 1_555 1_555
C3 C4 1_555 1_555
C4 C5 1_555 1_555
C5 C6 1_555 1_555
C6 H1 1_555 1_555
H2 C6 1_555 1_555
C7 C6 1_555 1_555
H3 C7 1_555 1_555
H4 C7 1_555 1_555
C8 C7 1_555 1_555
H5 C8 1_555 1_555
H6 C8 1_555 1_555
C9 C8 1_555 1_555
H7 C9 1_555 1_555
H8 C9 1_555 1_555
C10 C2 1_555 1_555
C11 H9 1_555 1_555
H10 C11 1_555 1_555
H11 C11 1_555 1_555
C12 H12 1_555 1_555
H13 C12 1_555 1_555
H14 C12 1_555 1_555
C13 H15 1_555 1_555
H16 C13 1_555 1_555
H17 C13 1_555 1_555
N1 C1 1_555 1_555
N2 C3 1_555 1_555
H18 N2 1_555 1_555
H19 N2 1_555 1_555
Si1 C4 1_555 1_555
C5 C10 1_555 1_555
C9 C10 1_555 1_555
C11 Si1 1_555 1_555
C12 Si1 1_555 1_555
C13 Si1 1_555 1_555

#END
