
#######################################################################
#
#                 Cambridge Crystallographic Data Centre
#                                CCDC 
#
#######################################################################
#
# If this CIF has been generated from an entry in the Cambridge 
# Structural Database, then it will include bibliographic, chemical, 
# crystal, experimental, refinement or atomic coordinate data resulting 
# from the CCDC's data processing and validation procedures.
#
#######################################################################

data_WUNREE
_chemical_formula_moiety         'C12 H11 Br1 N4 O3'
_chemical_name_systematic        
1-(4-bromophenyl)-N-hydroxy-2-(2-methyl-4-nitro-1H-imidazol-1-yl)ethanimine
_symmetry_cell_setting           orthorhombic
_symmetry_space_group_name_H-M   'P b c a'
_symmetry_Int_Tables_number      61
_space_group_name_Hall           '-P 2ac 2ab'
loop_
_symmetry_equiv_pos_site_id
_symmetry_equiv_pos_as_xyz
1 x,y,z
2 1/2-x,-y,1/2+z
3 -x,1/2+y,1/2-z
4 1/2+x,1/2-y,-z
5 -x,-y,-z
6 1/2+x,y,1/2-z
7 x,1/2-y,1/2+z
8 1/2-x,1/2+y,z
_cell_length_a                   8.2167(7)
_cell_length_b                   11.4189(10)
_cell_length_c                   28.750(2)
_cell_angle_alpha                90
_cell_angle_beta                 90
_cell_angle_gamma                90
_cell_volume                     2697.49
_exptl_crystal_colour            colorless
_exptl_crystal_description       block
_cell_formula_units_Z            8
loop_
_atom_site_label
_atom_site_type_symbol
_atom_site_fract_x
_atom_site_fract_y
_atom_site_fract_z
Br1 Br 0.09494(7) 0.21495(5) 0.487087(15)
N1 N 0.0046(4) 0.5039(3) 0.69240(10)
O1 O -0.1254(4) 1.0925(3) 0.65876(11)
O2 O -0.1574(4) 0.9880(3) 0.59681(12)
N2 N 0.1274(4) 0.7540(2) 0.66778(10)
N3 N 0.0675(4) 0.9267(2) 0.69799(10)
N4 N -0.1040(4) 1.0036(3) 0.63612(13)
C1 C 0.0853(5) 0.3205(4) 0.53781(13)
C2 C 0.0061(5) 0.2855(3) 0.57777(13)
H1 H -0.0466 0.2135 0.5790
C3 C 0.0060(5) 0.3588(3) 0.61583(13)
H2 H -0.0470 0.3354 0.6428
C4 C 0.0834(4) 0.4669(3) 0.61482(12)
C5 C 0.1546(5) 0.5000(4) 0.57367(13)
H3 H 0.2033 0.5734 0.5717
C6 C 0.1560(6) 0.4275(4) 0.53498(14)
H4 H 0.2048 0.4519 0.5075
C7 C 0.0901(4) 0.5399(3) 0.65748(12)
C8 C 0.2064(5) 0.6400(3) 0.66169(13)
H5 H 0.2776 0.6259 0.6880
H6 H 0.2735 0.6427 0.6340
C9 C 0.1485(4) 0.8287(3) 0.70450(12)
C10 C 0.2487(6) 0.8025(3) 0.74586(14)
H7 H 0.2453 0.8678 0.7669
H8 H 0.3591 0.7886 0.7364
H9 H 0.2068 0.7341 0.7611
C11 C -0.0070(5) 0.9116(3) 0.65572(12)
C12 C 0.0282(5) 0.8072(3) 0.63697(12)
H10 H -0.0082 0.7776 0.6087
O3 O 0.0304(4) 0.5743(2) 0.73119(8)
H11 H 0.0002 0.5396 0.7546
loop_
_geom_bond_atom_site_label_1
_geom_bond_atom_site_label_2
_geom_bond_site_symmetry_1
_geom_bond_site_symmetry_2
Br1 C1 1_555 1_555
N1 C7 1_555 1_555
O1 N4 1_555 1_555
O2 N4 1_555 1_555
N2 C8 1_555 1_555
N3 C9 1_555 1_555
N4 C11 1_555 1_555
C1 C2 1_555 1_555
C2 H1 1_555 1_555
C3 C2 1_555 1_555
H2 C3 1_555 1_555
C4 C3 1_555 1_555
C5 C4 1_555 1_555
H3 C5 1_555 1_555
C6 C1 1_555 1_555
H4 C6 1_555 1_555
C7 C4 1_555 1_555
C8 C7 1_555 1_555
H5 C8 1_555 1_555
H6 C8 1_555 1_555
C9 N2 1_555 1_555
C10 C9 1_555 1_555
H7 C10 1_555 1_555
H8 C10 1_555 1_555
H9 C10 1_555 1_555
C11 N3 1_555 1_555
C12 N2 1_555 1_555
H10 C12 1_555 1_555
O3 N1 1_555 1_555
H11 O3 1_555 1_555
C5 C6 1_555 1_555
C11 C12 1_555 1_555

#END
