
#######################################################################
#
#                 Cambridge Crystallographic Data Centre
#                                CCDC 
#
#######################################################################
#
# If this CIF has been generated from an entry in the Cambridge 
# Structural Database, then it will include bibliographic, chemical, 
# crystal, experimental, refinement or atomic coordinate data resulting 
# from the CCDC's data processing and validation procedures.
#
#######################################################################

data_WUNSUV
_chemical_formula_moiety         'C9 H9 N3'
_chemical_name_systematic        4-methyl-1-phenyl-1H-1,2,3-triazole
_symmetry_cell_setting           orthorhombic
_symmetry_space_group_name_H-M   'P b c a'
_symmetry_Int_Tables_number      61
_space_group_name_Hall           '-P 2ac 2ab'
loop_
_symmetry_equiv_pos_site_id
_symmetry_equiv_pos_as_xyz
1 x,y,z
2 1/2-x,-y,1/2+z
3 -x,1/2+y,1/2-z
4 1/2+x,1/2-y,-z
5 -x,-y,-z
6 1/2+x,y,1/2-z
7 x,1/2-y,1/2+z
8 1/2-x,1/2+y,z
_cell_length_a                   8.9591(3)
_cell_length_b                   11.6630(4)
_cell_length_c                   16.0090(5)
_cell_angle_alpha                90
_cell_angle_beta                 90
_cell_angle_gamma                90
_cell_volume                     1672.78
_exptl_crystal_colour            colorless
_exptl_crystal_description       block
_cell_formula_units_Z            8
loop_
_atom_site_label
_atom_site_type_symbol
_atom_site_fract_x
_atom_site_fract_y
_atom_site_fract_z
C1 C 0.19018(17) 0.03661(13) 0.56888(9)
C2 C 0.29248(19) -0.05126(14) 0.57951(11)
H1 H 0.3745 -0.0594 0.5424
C3 C 0.2731(2) -0.12715(14) 0.64534(12)
H2 H 0.3428 -0.1875 0.6535
C4 C 0.1534(2) -0.11577(15) 0.69924(11)
H3 H 0.1410 -0.1681 0.7442
C5 C 0.0519(2) -0.02805(15) 0.68757(10)
H4 H -0.0306 -0.0207 0.7244
C6 C 0.06938(19) 0.04953(14) 0.62240(10)
H5 H 0.0000 0.1102 0.6146
C7 C 0.10847(19) 0.18683(14) 0.46645(10)
H6 H 0.0052 0.1924 0.4793
C8 C 0.18570(19) 0.24835(14) 0.40813(10)
C9 C 0.1339(2) 0.33971(16) 0.34989(11)
H7 H 0.1859 0.4116 0.3626
H8 H 0.0261 0.3508 0.3565
H9 H 0.1556 0.3169 0.2922
N1 N 0.20957(14) 0.11653(10) 0.50201(8)
N2 N 0.34500(15) 0.13273(13) 0.46748(10)
N3 N 0.32984(16) 0.21293(13) 0.41028(9)
loop_
_geom_bond_atom_site_label_1
_geom_bond_atom_site_label_2
_geom_bond_site_symmetry_1
_geom_bond_site_symmetry_2
C1 C2 1_555 1_555
C2 H1 1_555 1_555
C3 C2 1_555 1_555
H2 C3 1_555 1_555
C4 C3 1_555 1_555
H3 C4 1_555 1_555
C5 C4 1_555 1_555
H4 C5 1_555 1_555
C6 C1 1_555 1_555
H5 C6 1_555 1_555
C7 H6 1_555 1_555
C8 C7 1_555 1_555
C9 C8 1_555 1_555
H7 C9 1_555 1_555
H8 C9 1_555 1_555
H9 C9 1_555 1_555
N1 C1 1_555 1_555
N2 N1 1_555 1_555
N3 C8 1_555 1_555
C5 C6 1_555 1_555
C7 N1 1_555 1_555
N2 N3 1_555 1_555

#END
