
#######################################################################
#
#                 Cambridge Crystallographic Data Centre
#                                CCDC 
#
#######################################################################
#
# If this CIF has been generated from an entry in the Cambridge 
# Structural Database, then it will include bibliographic, chemical, 
# crystal, experimental, refinement or atomic coordinate data resulting 
# from the CCDC's data processing and validation procedures.
#
#######################################################################

data_WUNVIM
_chemical_formula_moiety         'C20 H46 Mg1 O11,2(C1 H12 B11)'
_chemical_name_systematic        
'bis(1-carba-closo-dodecaborate(12)) aqua-bis(tetraethyleneglycol  dimethyl ether)-magnesium(ii)'
_symmetry_cell_setting           monoclinic
_symmetry_space_group_name_H-M   'C c'
_symmetry_Int_Tables_number      9
_space_group_name_Hall           'C -2yc'
loop_
_symmetry_equiv_pos_site_id
_symmetry_equiv_pos_as_xyz
1 x,y,z
2 x,-y,1/2+z
3 1/2+x,1/2+y,z
4 1/2+x,1/2-y,1/2+z
_cell_length_a                   14.2944(3)
_cell_length_b                   62.906(5)
_cell_length_c                   14.9555(3)
_cell_angle_alpha                90
_cell_angle_beta                 91.398(5)
_cell_angle_gamma                90
_cell_volume                     13444
_exptl_crystal_colour            colorless
_exptl_crystal_description       needle
_cell_formula_units_Z            12
_chemical_properties_physical    Hygroscopic
_exptl_crystal_recrystallization_method 
'tetraethyleneglycol/dimethyl ether/diethyl ether'
loop_
_atom_site_label
_atom_site_type_symbol
_atom_site_fract_x
_atom_site_fract_y
_atom_site_fract_z
C1 C 0.8814(4) 0.56642(9) 0.2325(4)
H1 H 0.8716 0.5491 0.2466
B1 B 0.7849(5) 0.58074(10) 0.2046(5)
H2 H 0.7124 0.5741 0.1987
B2 B 0.8427(5) 0.58398(10) 0.3102(5)
H3 H 0.8080 0.5796 0.3739
B3 B 0.9642(5) 0.57950(11) 0.2947(5)
H4 H 1.0096 0.5721 0.3482
B4 B 0.9807(5) 0.57380(10) 0.1792(5)
H5 H 1.0367 0.5627 0.1567
B5 B 0.8697(5) 0.57472(11) 0.1239(5)
H6 H 0.8529 0.5643 0.0651
B6 B 0.8087(5) 0.60681(10) 0.2486(5)
H7 H 0.7521 0.6177 0.2716
B7 B 0.9207(5) 0.60585(11) 0.3033(5)
H8 H 0.9381 0.6162 0.3624
B8 B 1.0051(5) 0.59949(11) 0.2225(5)
H9 H 1.0784 0.6057 0.2285
B9 B 0.9476(5) 0.59660(11) 0.1174(5)
H10 H 0.9827 0.6009 0.0538
B10 B 0.8249(5) 0.60102(10) 0.1325(5)
H11 H 0.7786 0.6081 0.0790
B11 B 0.9097(5) 0.61630(10) 0.1933(5)
H12 H 0.9195 0.6336 0.1793
C2 C 0.5024(4) 0.66192(9) 0.5273(4)
H13 H 0.546(5) 0.6580(10) 0.584(5)
B12 B 0.5461(5) 0.66276(11) 0.4223(5)
H14 H 0.6210 0.6600 0.4055
B13 B 0.4725(5) 0.64178(10) 0.4573(5)
H15 H 0.4994 0.6251 0.4638
B14 B 0.3920(5) 0.65214(10) 0.5333(5)
H16 H 0.3655 0.6424 0.5901
B15 B 0.4146(5) 0.67960(10) 0.5460(5)
H17 H 0.4030 0.6880 0.6108
B16 B 0.5100(5) 0.68613(10) 0.4771(5)
H18 H 0.5616 0.6988 0.4967
B17 B 0.4520(5) 0.65393(10) 0.3523(5)
H19 H 0.4643 0.6453 0.2880
B18 B 0.3568(5) 0.64732(11) 0.4210(6)
H20 H 0.3062 0.6344 0.4023
B19 B 0.3204(5) 0.67083(11) 0.4758(5)
H21 H 0.2455 0.6734 0.4932
B20 B 0.3942(5) 0.69218(10) 0.4415(5)
H22 H 0.3683 0.7090 0.4366
B21 B 0.4754(5) 0.68183(10) 0.3650(5)
H23 H 0.5031 0.6917 0.3093
B22 B 0.3577(5) 0.67224(12) 0.3635(5)
H24 H 0.3076 0.6758 0.3067
C3 C 0.3782(4) 0.60174(9) 0.7296(4)
H25 H 0.369(4) 0.6176(9) 0.736(4)
B23 B 0.3412(5) 0.58663(10) 0.8169(5)
H26 H 0.3076 0.5928 0.8787
B24 B 0.2812(5) 0.58683(9) 0.7112(5)
H27 H 0.2085 0.5933 0.7036
B25 B 0.3640(5) 0.59049(10) 0.6263(5)
H28 H 0.3456 0.5993 0.5631
B26 B 0.4764(4) 0.59299(10) 0.6791(5)
H29 H 0.5318 0.6034 0.6504
B27 B 0.4617(5) 0.59069(10) 0.7969(5)
H30 H 0.5075 0.5997 0.8455
B28 B 0.3066(4) 0.56219(10) 0.7664(5)
H31 H 0.2503 0.5520 0.7950
B29 B 0.3204(5) 0.56430(10) 0.6482(5)
H32 H 0.2738 0.5556 0.5993
B30 B 0.4423(5) 0.56833(10) 0.6295(5)
H33 H 0.4762 0.5622 0.5677
B31 B 0.5025(5) 0.56835(10) 0.7345(5)
H34 H 0.5758 0.5622 0.7421
B32 B 0.4196(5) 0.56478(10) 0.8196(5)
H35 H 0.4385 0.5564 0.8835
B33 B 0.4064(5) 0.55105(10) 0.7158(5)
H36 H 0.4161 0.5334 0.7113
C4 C 0.4119(4) 0.68654(10) 1.0024(5)
H37 H 0.383(6) 0.6980(13) 1.038(6)
B34 B 0.4224(6) 0.66112(12) 1.0425(6)
H38 H 0.3940 0.6552 1.1071
B35 B 0.3482(5) 0.66742(11) 0.9487(6)
H39 H 0.2704 0.6656 0.9521
B36 B 0.3998(5) 0.68876(11) 0.8897(6)
H40 H 0.3562 0.7011 0.8541
B37 B 0.5057(5) 0.69547(11) 0.9465(6)
H41 H 0.5322 0.7122 0.9485
B38 B 0.5193(5) 0.67834(10) 1.0404(5)
H42 H 0.5544 0.6837 1.1043
B39 B 0.4233(5) 0.64543(10) 0.9435(6)
H43 H 0.3958 0.6288 0.9424
B40 B 0.4089(5) 0.66235(11) 0.8486(6)
H44 H 0.3724 0.6570 0.7855
B41 B 0.5074(6) 0.68001(11) 0.8481(5)
H45 H 0.5356 0.6863 0.7840
B42 B 0.5823(5) 0.67372(10) 0.9418(5)
H46 H 0.6599 0.6759 0.9396
B43 B 0.5306(6) 0.65229(10) 1.0007(6)
H47 H 0.5744 0.6402 1.0371
B44 B 0.5226(5) 0.65303(10) 0.8818(6)
H48 H 0.5612 0.6414 0.8398
C5 C 1.0354(4) 0.50164(10) 1.0265(5)
H49 H 1.0855 0.5036 1.0846
B45 B 1.0424(5) 0.47890(10) 0.9621(5)
H50 H 1.0941 0.4658 0.9741
B46 B 0.9479(5) 0.48334(11) 1.0337(5)
H51 H 0.9377 0.4729 1.0935
B47 B 0.9240(5) 0.51074(11) 1.0367(5)
H52 H 0.8975 0.5186 1.0982
B48 B 1.0038(5) 0.52381(11) 0.9667(5)
H53 H 1.0303 0.5402 0.9812
B49 B 1.0768(5) 0.50390(11) 0.9202(5)
H54 H 1.1516 0.5072 0.9043
B50 B 0.9257(5) 0.47418(10) 0.9244(6)
H55 H 0.8991 0.4577 0.9102
B51 B 0.8530(5) 0.49370(10) 0.9721(5)
H56 H 0.7789 0.4902 0.9900
B52 B 0.8872(5) 0.51877(10) 0.9295(5)
H57 H 0.8354 0.5320 0.9188
B53 B 0.9818(5) 0.51464(10) 0.8557(5)
H58 H 0.9929 0.5251 0.7963
B54 B 1.0063(5) 0.48674(11) 0.8534(5)
H59 H 1.0337 0.4787 0.7926
B55 B 0.8887(5) 0.49609(10) 0.8586(5)
H60 H 0.8382 0.4943 0.8007
C6 C 0.8601(4) 0.76548(9) 0.7278(4)
H61 H 0.854(4) 0.7809(10) 0.743(4)
B56 B 0.8199(5) 0.74819(10) 0.8060(5)
H62 H 0.7872 0.7530 0.8703
B57 B 0.7606(5) 0.75158(11) 0.7015(5)
H63 H 0.6887 0.7586 0.6970
B58 B 0.8444(5) 0.75711(10) 0.6196(5)
H64 H 0.8279 0.7678 0.5613
B59 B 0.9573(5) 0.75709(11) 0.6727(5)
H65 H 1.0149 0.7676 0.6493
B60 B 0.9410(5) 0.75163(11) 0.7884(5)
H66 H 0.9881 0.7587 0.8413
B61 B 0.7811(5) 0.72575(11) 0.7440(5)
H67 H 0.7229 0.7154 0.7675
B62 B 0.7959(5) 0.73123(10) 0.6284(5)
H68 H 0.7475 0.7245 0.5756
B63 B 0.9180(5) 0.73467(11) 0.6106(5)
H69 H 0.9502 0.7302 0.5458
B64 B 0.9790(5) 0.73124(11) 0.7157(5)
H70 H 1.0515 0.7245 0.7206
B65 B 0.8942(5) 0.72558(11) 0.7986(5)
H71 H 0.9107 0.7152 0.8576
B66 B 0.8799(5) 0.71513(10) 0.6877(5)
H72 H 0.8872 0.6977 0.6737
C7 C 0.2836(4) 0.61904(8) 0.2010(5)
H73 H 0.3121 0.6191 0.2612
H74 H 0.3226 0.6273 0.1606
H75 H 0.2210 0.6254 0.2026
C8 C 0.2350(4) 0.59667(9) 0.0815(4)
H76 H 0.2757 0.6039 0.0385
H77 H 0.1734 0.6039 0.0806
C9 C 0.2234(4) 0.57383(10) 0.0562(4)
H78 H 0.1718 0.5674 0.0898
H79 H 0.2084 0.5725 -0.0086
C10 C 0.3210(4) 0.54285(8) 0.0357(4)
H80 H 0.3878 0.5387 0.0386
H81 H 0.3016 0.5440 -0.0281
C11 C 0.2638(4) 0.52597(9) 0.0796(4)
H82 H 0.1965 0.5297 0.0757
H83 H 0.2729 0.5121 0.0497
C12 C 0.2737(4) 0.50526(9) 0.2133(4)
H84 H 0.2952 0.4932 0.1764
H85 H 0.2053 0.5039 0.2206
C13 C 0.3230(4) 0.50505(9) 0.3027(4)
H86 H 0.2949 0.5158 0.3423
H87 H 0.3161 0.4909 0.3309
C14 C 0.4756(4) 0.50249(9) 0.3670(4)
H88 H 0.4774 0.4868 0.3680
H89 H 0.4477 0.5075 0.4232
C15 C 0.5723(4) 0.51109(9) 0.3599(5)
H90 H 0.6156 0.5031 0.4004
H91 H 0.5940 0.5094 0.2979
C16 C 0.6578(4) 0.54288(9) 0.3630(5)
H92 H 0.6549 0.5579 0.3804
H93 H 0.7094 0.5359 0.3959
H94 H 0.6682 0.5418 0.2986
C17 C 0.2070(4) 0.55981(10) 0.3085(4)
H95 H 0.1895 0.5522 0.2533
H96 H 0.1925 0.5509 0.3602
H97 H 0.1717 0.5731 0.3115
C18 C 0.3337(4) 0.57554(9) 0.3897(4)
H98 H 0.3234 0.5665 0.4428
H99 H 0.2967 0.5888 0.3957
C19 C 0.4359(4) 0.58070(9) 0.3821(4)
H100 H 0.4572 0.5900 0.4321
H101 H 0.4738 0.5675 0.3833
C20 C 0.5392(3) 0.59747(8) 0.2771(4)
H102 H 0.5814 0.5850 0.2820
H103 H 0.5624 0.6086 0.3188
C21 C 0.5366(4) 0.60567(8) 0.1839(4)
H104 H 0.5067 0.6199 0.1816
H105 H 0.6008 0.6069 0.1612
C22 C 0.5037(4) 0.58999(8) 0.0370(4)
H106 H 0.5148 0.6046 0.0156
H107 H 0.4493 0.5842 0.0029
C23 C 0.5876(4) 0.57674(8) 0.0199(4)
H108 H 0.5978 0.5759 -0.0453
H109 H 0.6437 0.5833 0.0486
C24 C 0.6412(4) 0.54116(9) 0.0262(5)
H110 H 0.7048 0.5472 0.0352
H111 H 0.6312 0.5382 -0.0383
C25 C 0.6327(4) 0.52117(9) 0.0779(5)
H112 H 0.6796 0.5107 0.0578
H113 H 0.6446 0.5240 0.1423
C26 C 0.5314(6) 0.49192(9) 0.0989(5)
H114 H 0.4672 0.4870 0.0879
H115 H 0.5751 0.4824 0.0693
H116 H 0.5452 0.4920 0.1634
Mg1 Mg 0.37814(12) 0.57386(3) 0.19549(13)
O1 O 0.2763(3) 0.59754(6) 0.1694(3)
O2 O 0.3104(2) 0.56326(6) 0.0778(3)
O3 O 0.2948(3) 0.52483(6) 0.1712(3)
O4 O 0.4200(3) 0.50969(6) 0.2915(3)
O5 O 0.5725(3) 0.53278(6) 0.3834(3)
O6 O 0.4669(3) 0.54936(6) 0.2062(3)
H117 H 0.493(6) 0.5493(14) 0.155(3)
H118 H 0.454(5) 0.5373(7) 0.226(5)
O7 O 0.3059(3) 0.56441(6) 0.3093(3)
O8 O 0.4449(2) 0.59145(5) 0.2982(3)
O9 O 0.4826(3) 0.59059(5) 0.1300(2)
O10 O 0.5737(3) 0.55595(6) 0.0553(3)
O11 O 0.5413(3) 0.51285(6) 0.0644(3)
C27 C 0.7810(4) 0.54214(8) 0.7107(4)
H119 H 0.8107 0.5428 0.7704
H120 H 0.7164 0.5371 0.7157
H121 H 0.8160 0.5323 0.6733
C28 C 0.7381(4) 0.56287(9) 0.5833(4)
H122 H 0.6811 0.5539 0.5820
H123 H 0.7821 0.5572 0.5391
C29 C 0.7134(4) 0.58558(9) 0.5617(4)
H124 H 0.6959 0.5870 0.4975
H125 H 0.6598 0.5902 0.5975
C30 C 0.7966(4) 0.61850(8) 0.5367(4)
H126 H 0.7896 0.6160 0.4716
H127 H 0.8580 0.6254 0.5480
C31 C 0.7207(4) 0.63308(9) 0.5658(4)
H128 H 0.7228 0.6463 0.5298
H129 H 0.6594 0.6262 0.5537
C32 C 0.7738(4) 0.65813(9) 0.6737(4)
H130 H 0.7370 0.6699 0.6461
H131 H 0.8366 0.6580 0.6471
C33 C 0.7825(5) 0.66128(9) 0.7725(5)
H132 H 0.7982 0.6763 0.7856
H133 H 0.7222 0.6580 0.8004
C34 C 0.8614(7) 0.64734(16) 0.9029(5)
H134 H 0.8288 0.6599 0.9271
H135 H 0.8288 0.6345 0.9246
C35 C 0.9531(7) 0.64718(19) 0.9368(6)
H136 H 0.9770 0.6619 0.9336
H137 H 0.9506 0.6434 1.0010
C36 C 1.1071(6) 0.63359(14) 0.9306(7)
H138 H 1.1413 0.6234 0.8942
H139 H 1.1362 0.6476 0.9260
H140 H 1.1090 0.6290 0.9932
C37 C 0.7043(4) 0.60329(10) 0.8162(4)
H141 H 0.6887 0.6123 0.7644
H142 H 0.6635 0.5908 0.8156
H143 H 0.6951 0.6114 0.8713
C38 C 0.8270(4) 0.58336(8) 0.8868(4)
H144 H 0.7932 0.5696 0.8834
H145 H 0.8116 0.5905 0.9437
C39 C 0.9305(4) 0.57979(9) 0.8821(4)
H146 H 0.9649 0.5932 0.8931
H147 H 0.9514 0.5692 0.9273
C40 C 1.0457(4) 0.57021(9) 0.7730(4)
H148 H 1.0766 0.5595 0.8123
H149 H 1.0779 0.5840 0.7815
C41 C 1.0483(4) 0.56341(8) 0.6774(4)
H150 H 1.1125 0.5648 0.6548
H151 H 1.0287 0.5484 0.6714
C42 C 1.0061(4) 0.58033(8) 0.5344(4)
H152 H 0.9507 0.5864 0.5027
H153 H 1.0200 0.5664 0.5067
C43 C 1.0878(4) 0.59489(8) 0.5230(4)
H154 H 1.1460 0.5879 0.5448
H155 H 1.0947 0.5983 0.4589
C44 C 1.1417(4) 0.62952(9) 0.5569(5)
H156 H 1.1248 0.6377 0.5023
H157 H 1.2031 0.6227 0.5479
C45 C 1.1473(4) 0.64413(9) 0.6365(5)
H158 H 1.1660 0.6360 0.6907
H159 H 1.1952 0.6552 0.6268
C46 C 1.0643(5) 0.66927(11) 0.7178(5)
H160 H 1.0024 0.6757 0.7249
H161 H 1.0846 0.6625 0.7741
H162 H 1.1092 0.6803 0.7019
Mg2 Mg 0.87181(12) 0.58910(3) 0.69611(13)
O12 O 0.7808(3) 0.56278(6) 0.6711(3)
O13 O 0.7949(2) 0.59839(6) 0.5830(3)
O14 O 0.7282(3) 0.63842(6) 0.6576(3)
O15 O 0.8536(3) 0.64785(7) 0.8088(3)
O16 O 1.0158(5) 0.63470(14) 0.9004(5)
O17 O 0.9384(3) 0.61694(6) 0.7098(3)
H163 H 0.962(11) 0.621(2) 0.662(6)
H164 H 0.924(6) 0.6281(9) 0.737(5)
O18 O 0.8009(2) 0.59658(5) 0.8122(3)
O19 O 0.9468(2) 0.57208(6) 0.7933(3)
O20 O 0.9845(2) 0.57707(5) 0.6272(3)
O21 O 1.0726(3) 0.61379(6) 0.5724(3)
O22 O 1.0595(3) 0.65375(6) 0.6490(3)
C47 C 0.7561(4) 0.77673(8) 0.1502(4)
H165 H 0.7844 0.7808 0.2081
H166 H 0.7942 0.7823 0.1019
H167 H 0.6928 0.7826 0.1450
C48 C 0.7105(4) 0.74740(9) 0.0599(4)
H168 H 0.7460 0.7534 0.0099
H169 H 0.6451 0.7525 0.0545
C49 C 0.7128(4) 0.72353(9) 0.0563(5)
H170 H 0.6656 0.7174 0.0963
H171 H 0.6992 0.7185 -0.0054
C50 C 0.8312(4) 0.69577(9) 0.0622(4)
H172 H 0.8996 0.6940 0.0713
H173 H 0.8163 0.6933 -0.0020
C51 C 0.7811(4) 0.67936(9) 0.1172(4)
H174 H 0.7130 0.6798 0.1038
H175 H 0.8043 0.6649 0.1033
C52 C 0.7772(4) 0.66726(9) 0.2664(4)
H176 H 0.8121 0.6543 0.2494
H177 H 0.7094 0.6641 0.2614
C53 C 0.8025(4) 0.67330(10) 0.3598(5)
H178 H 0.7652 0.6858 0.3777
H179 H 0.7881 0.6614 0.4006
C54 C 0.9273(5) 0.68277(11) 0.4574(5)
H180 H 0.9142 0.6704 0.4959
H181 H 0.8916 0.6951 0.4797
C55 C 1.0308(4) 0.68768(10) 0.4603(5)
H182 H 1.0523 0.6907 0.5225
H183 H 1.0667 0.6754 0.4377
C56 C 1.1409(4) 0.71014(9) 0.3933(5)
H184 H 1.1469 0.7227 0.3552
H185 H 1.1716 0.7128 0.4515
H186 H 1.1704 0.6979 0.3647
C57 C 0.6844(4) 0.72310(9) 0.3030(4)
H187 H 0.6737 0.7126 0.2555
H188 H 0.6664 0.7170 0.3604
H189 H 0.6467 0.7358 0.2902
C58 C 0.8003(4) 0.74422(9) 0.3763(4)
H190 H 0.7864 0.7382 0.4356
H191 H 0.7609 0.7570 0.3664
C59 C 0.9031(4) 0.74996(9) 0.3716(4)
H192 H 0.9192 0.7615 0.4145
H193 H 0.9429 0.7374 0.3853
C60 C 1.0114(4) 0.76231(8) 0.2611(4)
H194 H 1.0535 0.7502 0.2749
H195 H 1.0325 0.7748 0.2967
C61 C 1.0120(4) 0.76735(8) 0.1635(4)
H196 H 0.9809 0.7812 0.1516
H197 H 1.0771 0.7682 0.1426
C62 C 0.9812(4) 0.74846(9) 0.0245(4)
H198 H 0.9870 0.7628 -0.0021
H199 H 0.9281 0.7412 -0.0062
C63 C 1.0693(4) 0.73618(9) 0.0095(4)
H200 H 1.0802 0.7348 -0.0553
H201 H 1.1235 0.7437 0.0375
C64 C 1.1371(5) 0.70297(10) 0.0417(6)
H202 H 1.1934 0.7114 0.0586
H203 H 1.1431 0.6986 -0.0215
Mg3 Mg 0.86266(12) 0.73414(3) 0.19179(13)
O23 O 0.7516(3) 0.75405(6) 0.1439(3)
O24 O 0.8058(3) 0.71716(6) 0.0851(3)
O25 O 0.7994(3) 0.68424(6) 0.2078(3)
O26 O 0.8997(3) 0.67827(7) 0.3669(3)
O27 O 1.0444(3) 0.70572(7) 0.4057(3)
O28 O 0.9583(3) 0.71260(6) 0.2320(3)
H204 H 0.943(5) 0.7047(10) 0.275(4)
H205 H 0.999(9) 0.708(2) 0.196(9)
O29 O 0.7826(2) 0.72884(5) 0.3072(3)
O30 O 0.9157(2) 0.75693(5) 0.2813(2)
O31 O 0.9623(3) 0.75048(6) 0.1180(3)
O32 O 1.0590(3) 0.71578(7) 0.0486(3)
C65 C 1.1345(7) 0.68416(16) 0.0971(8)
H206 H 1.1419 0.6718 0.0572
H207 H 1.1906 0.6846 0.1372
C66 C 1.0832(5) 0.66566(10) 0.2207(6)
H208 H 1.0680 0.6511 0.2019
H209 H 1.0446 0.6696 0.2714
H210 H 1.1495 0.6665 0.2386
O33 O 1.0926(16) 0.6855(2) 0.1762(15)
O34? O 1.0643(18) 0.6803(4) 0.146(2)
loop_
_geom_bond_atom_site_label_1
_geom_bond_atom_site_label_2
_geom_bond_site_symmetry_1
_geom_bond_site_symmetry_2
C1 H1 1_555 1_555
B1 C1 1_555 1_555
H2 B1 1_555 1_555
B2 C1 1_555 1_555
H3 B2 1_555 1_555
B3 C1 1_555 1_555
H4 B3 1_555 1_555
B4 C1 1_555 1_555
H5 B4 1_555 1_555
B5 C1 1_555 1_555
H6 B5 1_555 1_555
B6 B1 1_555 1_555
H7 B6 1_555 1_555
B7 B2 1_555 1_555
H8 B7 1_555 1_555
B8 B3 1_555 1_555
H9 B8 1_555 1_555
B9 B4 1_555 1_555
H10 B9 1_555 1_555
B10 B1 1_555 1_555
H11 B10 1_555 1_555
B11 B6 1_555 1_555
H12 B11 1_555 1_555
C2 H13 1_555 1_555
B12 C2 1_555 1_555
H14 B12 1_555 1_555
B13 C2 1_555 1_555
H15 B13 1_555 1_555
B14 C2 1_555 1_555
H16 B14 1_555 1_555
B15 C2 1_555 1_555
H17 B15 1_555 1_555
B16 C2 1_555 1_555
H18 B16 1_555 1_555
B17 B12 1_555 1_555
H19 B17 1_555 1_555
B18 B13 1_555 1_555
H20 B18 1_555 1_555
B19 B14 1_555 1_555
H21 B19 1_555 1_555
B20 B15 1_555 1_555
H22 B20 1_555 1_555
B21 B12 1_555 1_555
H23 B21 1_555 1_555
B22 B17 1_555 1_555
H24 B22 1_555 1_555
C3 H25 1_555 1_555
B23 C3 1_555 1_555
H26 B23 1_555 1_555
B24 C3 1_555 1_555
H27 B24 1_555 1_555
B25 C3 1_555 1_555
H28 B25 1_555 1_555
B26 C3 1_555 1_555
H29 B26 1_555 1_555
B27 C3 1_555 1_555
H30 B27 1_555 1_555
B28 B23 1_555 1_555
H31 B28 1_555 1_555
B29 B24 1_555 1_555
H32 B29 1_555 1_555
B30 B25 1_555 1_555
H33 B30 1_555 1_555
B31 B26 1_555 1_555
H34 B31 1_555 1_555
B32 B23 1_555 1_555
H35 B32 1_555 1_555
B33 B28 1_555 1_555
H36 B33 1_555 1_555
C4 H37 1_555 1_555
B34 C4 1_555 1_555
H38 B34 1_555 1_555
B35 C4 1_555 1_555
H39 B35 1_555 1_555
B36 C4 1_555 1_555
H40 B36 1_555 1_555
B37 C4 1_555 1_555
H41 B37 1_555 1_555
B38 C4 1_555 1_555
H42 B38 1_555 1_555
B39 B34 1_555 1_555
H43 B39 1_555 1_555
B40 B35 1_555 1_555
H44 B40 1_555 1_555
B41 B36 1_555 1_555
H45 B41 1_555 1_555
B42 B37 1_555 1_555
H46 B42 1_555 1_555
B43 B34 1_555 1_555
H47 B43 1_555 1_555
B44 B39 1_555 1_555
H48 B44 1_555 1_555
C5 H49 1_555 1_555
B45 C5 1_555 1_555
H50 B45 1_555 1_555
B46 C5 1_555 1_555
H51 B46 1_555 1_555
B47 C5 1_555 1_555
H52 B47 1_555 1_555
B48 C5 1_555 1_555
H53 B48 1_555 1_555
B49 C5 1_555 1_555
H54 B49 1_555 1_555
B50 B45 1_555 1_555
H55 B50 1_555 1_555
B51 B46 1_555 1_555
H56 B51 1_555 1_555
B52 B47 1_555 1_555
H57 B52 1_555 1_555
B53 B48 1_555 1_555
H58 B53 1_555 1_555
B54 B45 1_555 1_555
H59 B54 1_555 1_555
B55 B50 1_555 1_555
H60 B55 1_555 1_555
C6 H61 1_555 1_555
B56 C6 1_555 1_555
H62 B56 1_555 1_555
B57 C6 1_555 1_555
H63 B57 1_555 1_555
B58 C6 1_555 1_555
H64 B58 1_555 1_555
B59 C6 1_555 1_555
H65 B59 1_555 1_555
B60 C6 1_555 1_555
H66 B60 1_555 1_555
B61 B56 1_555 1_555
H67 B61 1_555 1_555
B62 B57 1_555 1_555
H68 B62 1_555 1_555
B63 B58 1_555 1_555
H69 B63 1_555 1_555
B64 B59 1_555 1_555
H70 B64 1_555 1_555
B65 B56 1_555 1_555
H71 B65 1_555 1_555
B66 B61 1_555 1_555
H72 B66 1_555 1_555
C7 H73 1_555 1_555
H74 C7 1_555 1_555
H75 C7 1_555 1_555
C8 H76 1_555 1_555
H77 C8 1_555 1_555
C9 C8 1_555 1_555
H78 C9 1_555 1_555
H79 C9 1_555 1_555
C10 H80 1_555 1_555
H81 C10 1_555 1_555
C11 C10 1_555 1_555
H82 C11 1_555 1_555
H83 C11 1_555 1_555
C12 H84 1_555 1_555
H85 C12 1_555 1_555
C13 C12 1_555 1_555
H86 C13 1_555 1_555
H87 C13 1_555 1_555
C14 H88 1_555 1_555
H89 C14 1_555 1_555
C15 C14 1_555 1_555
H90 C15 1_555 1_555
H91 C15 1_555 1_555
C16 H92 1_555 1_555
H93 C16 1_555 1_555
H94 C16 1_555 1_555
C17 H95 1_555 1_555
H96 C17 1_555 1_555
H97 C17 1_555 1_555
C18 H98 1_555 1_555
H99 C18 1_555 1_555
C19 C18 1_555 1_555
H100 C19 1_555 1_555
H101 C19 1_555 1_555
C20 H102 1_555 1_555
H103 C20 1_555 1_555
C21 C20 1_555 1_555
H104 C21 1_555 1_555
H105 C21 1_555 1_555
C22 H106 1_555 1_555
H107 C22 1_555 1_555
C23 C22 1_555 1_555
H108 C23 1_555 1_555
H109 C23 1_555 1_555
C24 H110 1_555 1_555
H111 C24 1_555 1_555
C25 C24 1_555 1_555
H112 C25 1_555 1_555
H113 C25 1_555 1_555
C26 H114 1_555 1_555
H115 C26 1_555 1_555
H116 C26 1_555 1_555
Mg1 O1 1_555 1_555
O1 C7 1_555 1_555
O2 C9 1_555 1_555
O3 C11 1_555 1_555
O4 C13 1_555 1_555
O5 C15 1_555 1_555
O6 Mg1 1_555 1_555
H117 O6 1_555 1_555
H118 O6 1_555 1_555
O7 C17 1_555 1_555
O8 C19 1_555 1_555
O9 C21 1_555 1_555
O10 C23 1_555 1_555
O11 C25 1_555 1_555
C27 H119 1_555 1_555
H120 C27 1_555 1_555
H121 C27 1_555 1_555
C28 H122 1_555 1_555
H123 C28 1_555 1_555
C29 C28 1_555 1_555
H124 C29 1_555 1_555
H125 C29 1_555 1_555
C30 H126 1_555 1_555
H127 C30 1_555 1_555
C31 C30 1_555 1_555
H128 C31 1_555 1_555
H129 C31 1_555 1_555
C32 H130 1_555 1_555
H131 C32 1_555 1_555
C33 C32 1_555 1_555
H132 C33 1_555 1_555
H133 C33 1_555 1_555
C34 H134 1_555 1_555
H135 C34 1_555 1_555
C35 C34 1_555 1_555
H136 C35 1_555 1_555
H137 C35 1_555 1_555
C36 H138 1_555 1_555
H139 C36 1_555 1_555
H140 C36 1_555 1_555
C37 H141 1_555 1_555
H142 C37 1_555 1_555
H143 C37 1_555 1_555
C38 H144 1_555 1_555
H145 C38 1_555 1_555
C39 C38 1_555 1_555
H146 C39 1_555 1_555
H147 C39 1_555 1_555
C40 H148 1_555 1_555
H149 C40 1_555 1_555
C41 C40 1_555 1_555
H150 C41 1_555 1_555
H151 C41 1_555 1_555
C42 H152 1_555 1_555
H153 C42 1_555 1_555
C43 C42 1_555 1_555
H154 C43 1_555 1_555
H155 C43 1_555 1_555
C44 H156 1_555 1_555
H157 C44 1_555 1_555
C45 C44 1_555 1_555
H158 C45 1_555 1_555
H159 C45 1_555 1_555
C46 H160 1_555 1_555
H161 C46 1_555 1_555
H162 C46 1_555 1_555
Mg2 O12 1_555 1_555
O12 C27 1_555 1_555
O13 C29 1_555 1_555
O14 C31 1_555 1_555
O15 C33 1_555 1_555
O16 C35 1_555 1_555
O17 Mg2 1_555 1_555
H163 O17 1_555 1_555
H164 O17 1_555 1_555
O18 C37 1_555 1_555
O19 C39 1_555 1_555
O20 C41 1_555 1_555
O21 C43 1_555 1_555
O22 C45 1_555 1_555
C47 H165 1_555 1_555
H166 C47 1_555 1_555
H167 C47 1_555 1_555
C48 H168 1_555 1_555
H169 C48 1_555 1_555
C49 C48 1_555 1_555
H170 C49 1_555 1_555
H171 C49 1_555 1_555
C50 H172 1_555 1_555
H173 C50 1_555 1_555
C51 C50 1_555 1_555
H174 C51 1_555 1_555
H175 C51 1_555 1_555
C52 H176 1_555 1_555
H177 C52 1_555 1_555
C53 C52 1_555 1_555
H178 C53 1_555 1_555
H179 C53 1_555 1_555
C54 H180 1_555 1_555
H181 C54 1_555 1_555
C55 C54 1_555 1_555
H182 C55 1_555 1_555
H183 C55 1_555 1_555
C56 H184 1_555 1_555
H185 C56 1_555 1_555
H186 C56 1_555 1_555
C57 H187 1_555 1_555
H188 C57 1_555 1_555
H189 C57 1_555 1_555
C58 H190 1_555 1_555
H191 C58 1_555 1_555
C59 C58 1_555 1_555
H192 C59 1_555 1_555
H193 C59 1_555 1_555
C60 H194 1_555 1_555
H195 C60 1_555 1_555
C61 C60 1_555 1_555
H196 C61 1_555 1_555
H197 C61 1_555 1_555
C62 H198 1_555 1_555
H199 C62 1_555 1_555
C63 C62 1_555 1_555
H200 C63 1_555 1_555
H201 C63 1_555 1_555
C64 H202 1_555 1_555
H203 C64 1_555 1_555
Mg3 O23 1_555 1_555
O23 C47 1_555 1_555
O24 C49 1_555 1_555
O25 C51 1_555 1_555
O26 C53 1_555 1_555
O27 C55 1_555 1_555
O28 Mg3 1_555 1_555
H204 O28 1_555 1_555
H205 O28 1_555 1_555
O29 C57 1_555 1_555
O30 C59 1_555 1_555
O31 C61 1_555 1_555
O32 C63 1_555 1_555
C65 C64 1_555 1_555
H206 C65 1_555 1_555
H207 C65 1_555 1_555
C66 H208 1_555 1_555
H209 C66 1_555 1_555
H210 C66 1_555 1_555
O33 C65 1_555 1_555
B1 B2 1_555 1_555
B1 B5 1_555 1_555
B2 B3 1_555 1_555
B2 B6 1_555 1_555
B3 B4 1_555 1_555
B3 B7 1_555 1_555
B4 B5 1_555 1_555
B4 B8 1_555 1_555
B5 B9 1_555 1_555
B5 B10 1_555 1_555
B6 B7 1_555 1_555
B6 B10 1_555 1_555
B7 B8 1_555 1_555
B7 B11 1_555 1_555
B8 B9 1_555 1_555
B8 B11 1_555 1_555
B9 B10 1_555 1_555
B9 B11 1_555 1_555
B10 B11 1_555 1_555
B12 B13 1_555 1_555
B12 B16 1_555 1_555
B13 B14 1_555 1_555
B13 B17 1_555 1_555
B14 B15 1_555 1_555
B14 B18 1_555 1_555
B15 B16 1_555 1_555
B15 B19 1_555 1_555
B16 B20 1_555 1_555
B16 B21 1_555 1_555
B17 B18 1_555 1_555
B17 B21 1_555 1_555
B18 B19 1_555 1_555
B18 B22 1_555 1_555
B19 B20 1_555 1_555
B19 B22 1_555 1_555
B20 B21 1_555 1_555
B20 B22 1_555 1_555
B21 B22 1_555 1_555
B23 B24 1_555 1_555
B23 B27 1_555 1_555
B24 B25 1_555 1_555
B24 B28 1_555 1_555
B25 B26 1_555 1_555
B25 B29 1_555 1_555
B26 B27 1_555 1_555
B26 B30 1_555 1_555
B27 B31 1_555 1_555
B27 B32 1_555 1_555
B28 B29 1_555 1_555
B28 B32 1_555 1_555
B29 B30 1_555 1_555
B29 B33 1_555 1_555
B30 B31 1_555 1_555
B30 B33 1_555 1_555
B31 B32 1_555 1_555
B31 B33 1_555 1_555
B32 B33 1_555 1_555
B34 B35 1_555 1_555
B34 B38 1_555 1_555
B35 B36 1_555 1_555
B35 B39 1_555 1_555
B36 B37 1_555 1_555
B36 B40 1_555 1_555
B37 B38 1_555 1_555
B37 B41 1_555 1_555
B38 B42 1_555 1_555
B38 B43 1_555 1_555
B39 B40 1_555 1_555
B39 B43 1_555 1_555
B40 B41 1_555 1_555
B40 B44 1_555 1_555
B41 B42 1_555 1_555
B41 B44 1_555 1_555
B42 B43 1_555 1_555
B42 B44 1_555 1_555
B43 B44 1_555 1_555
B45 B46 1_555 1_555
B45 B49 1_555 1_555
B46 B47 1_555 1_555
B46 B50 1_555 1_555
B47 B48 1_555 1_555
B47 B51 1_555 1_555
B48 B49 1_555 1_555
B48 B52 1_555 1_555
B49 B53 1_555 1_555
B49 B54 1_555 1_555
B50 B51 1_555 1_555
B50 B54 1_555 1_555
B51 B52 1_555 1_555
B51 B55 1_555 1_555
B52 B53 1_555 1_555
B52 B55 1_555 1_555
B53 B54 1_555 1_555
B53 B55 1_555 1_555
B54 B55 1_555 1_555
B56 B57 1_555 1_555
B56 B60 1_555 1_555
B57 B58 1_555 1_555
B57 B61 1_555 1_555
B58 B59 1_555 1_555
B58 B62 1_555 1_555
B59 B60 1_555 1_555
B59 B63 1_555 1_555
B60 B64 1_555 1_555
B60 B65 1_555 1_555
B61 B62 1_555 1_555
B61 B65 1_555 1_555
B62 B63 1_555 1_555
B62 B66 1_555 1_555
B63 B64 1_555 1_555
B63 B66 1_555 1_555
B64 B65 1_555 1_555
B64 B66 1_555 1_555
B65 B66 1_555 1_555
C8 O1 1_555 1_555
C10 O2 1_555 1_555
C12 O3 1_555 1_555
C14 O4 1_555 1_555
C16 O5 1_555 1_555
C18 O7 1_555 1_555
C20 O8 1_555 1_555
C22 O9 1_555 1_555
C24 O10 1_555 1_555
C26 O11 1_555 1_555
Mg1 O2 1_555 1_555
Mg1 O7 1_555 1_555
Mg1 O8 1_555 1_555
Mg1 O9 1_555 1_555
C28 O12 1_555 1_555
C30 O13 1_555 1_555
C32 O14 1_555 1_555
C34 O15 1_555 1_555
C36 O16 1_555 1_555
C38 O18 1_555 1_555
C40 O19 1_555 1_555
C42 O20 1_555 1_555
C44 O21 1_555 1_555
C46 O22 1_555 1_555
Mg2 O13 1_555 1_555
Mg2 O18 1_555 1_555
Mg2 O19 1_555 1_555
Mg2 O20 1_555 1_555
C48 O23 1_555 1_555
C50 O24 1_555 1_555
C52 O25 1_555 1_555
C54 O26 1_555 1_555
C56 O27 1_555 1_555
C58 O29 1_555 1_555
C60 O30 1_555 1_555
C62 O31 1_555 1_555
C64 O32 1_555 1_555
Mg3 O24 1_555 1_555
Mg3 O29 1_555 1_555
Mg3 O30 1_555 1_555
Mg3 O31 1_555 1_555
C66 O33 1_555 1_555

#END
