
#######################################################################
#
#                 Cambridge Crystallographic Data Centre
#                                CCDC 
#
#######################################################################
#
# If this CIF has been generated from an entry in the Cambridge 
# Structural Database, then it will include bibliographic, chemical, 
# crystal, experimental, refinement or atomic coordinate data resulting 
# from the CCDC's data processing and validation procedures.
#
#######################################################################

data_WUNVOS
_chemical_formula_moiety         'C12 H28 Mg1 O6,2(C1 H12 B11),C6 H14 O3'
_chemical_name_systematic        
'bis(1-carba-closo-dodecaborate(12)) bis(1-methoxy-2-(2-methoxyethoxy) ethane)-magnesium(ii) diglyme solvate'
_symmetry_cell_setting           monoclinic
_symmetry_space_group_name_H-M   'C c'
_symmetry_Int_Tables_number      9
_space_group_name_Hall           'C -2yc'
loop_
_symmetry_equiv_pos_site_id
_symmetry_equiv_pos_as_xyz
1 x,y,z
2 x,-y,1/2+z
3 1/2+x,1/2+y,z
4 1/2+x,1/2-y,1/2+z
_cell_length_a                   23.4092(16)
_cell_length_b                   8.8170(2)
_cell_length_c                   23.7953(17)
_cell_angle_alpha                90
_cell_angle_beta                 124.688(9)
_cell_angle_gamma                90
_cell_volume                     4038.4
_exptl_crystal_colour            colorless
_exptl_crystal_description       plate
_cell_formula_units_Z            4
loop_
_atom_site_label
_atom_site_type_symbol
_atom_site_fract_x
_atom_site_fract_y
_atom_site_fract_z
Mg1 Mg 0.02422(3) 0.28458(7) 0.07708(3)
C1 C 0.15497(12) 0.3392(3) 0.22892(11)
H1 H 0.1183 0.3644 0.2353
H2 H 0.1736 0.2383 0.2479
H3 H 0.1923 0.4144 0.2525
C2 C 0.17961(12) 0.3031(3) 0.14611(13)
H4 H 0.1968 0.1988 0.1622
H5 H 0.2192 0.3741 0.1720
C3 C 0.14818(13) 0.3158(3) 0.07089(13)
H6 H 0.1448 0.4235 0.0576
H7 H 0.1772 0.2614 0.0593
C4 C 0.04255(13) 0.2527(3) -0.03735(12)
H8 H 0.0678 0.1955 -0.0527
H9 H 0.0364 0.3586 -0.0537
C5 C -0.02655(13) 0.1807(3) -0.06441(12)
H10 H -0.0600 0.2068 -0.1132
H11 H -0.0218 0.0689 -0.0603
C6 C -0.12393(13) 0.2106(3) -0.05730(13)
H12 H -0.1377 0.2511 -0.0283
H13 H -0.1505 0.2614 -0.1018
H14 H -0.1333 0.1014 -0.0637
C7 C 0.01437(13) 0.6174(2) 0.02892(12)
H15 H 0.0215 0.5665 -0.0032
H16 H -0.0209 0.6967 0.0049
H17 H 0.0581 0.6631 0.0659
C8 C -0.02068(12) 0.5731(2) 0.10534(12)
H18 H -0.0490 0.6665 0.0866
H19 H 0.0239 0.5984 0.1488
C9 C -0.05862(12) 0.4540(3) 0.11670(12)
H20 H -0.0605 0.4808 0.1560
H21 H -0.1066 0.4420 0.0756
C10 C -0.04697(12) 0.1822(2) 0.14142(12)
H22 H -0.0921 0.1539 0.0992
H23 H -0.0537 0.1992 0.1784
C11 C 0.00608(11) 0.0604(2) 0.16114(11)
H24 H 0.0473 0.0770 0.2083
H25 H -0.0137 -0.0405 0.1589
C12 C 0.07773(13) -0.0421(3) 0.12910(13)
H26 H 0.0897 -0.0342 0.0959
H27 H 0.1192 -0.0233 0.1752
H28 H 0.0600 -0.1441 0.1271
O1 O 0.12659(7) 0.33987(17) 0.15670(7)
O2 O 0.08036(8) 0.24891(16) 0.03591(8)
O3 O -0.05069(8) 0.23695(17) -0.02495(8)
O4 O -0.00856(8) 0.50881(16) 0.05701(8)
O5 O -0.01933(8) 0.31675(16) 0.13034(8)
O6 O 0.02522(8) 0.06843(16) 0.11319(8)
C13 C 0.31272(12) 0.7577(2) 0.20646(12)
H29 H 0.3036(15) 0.713(3) 0.1626(15)
B1 B 0.39684(13) 0.7524(3) 0.27535(13)
H30 H 0.4356(17) 0.699(3) 0.2696(17)
B2 B 0.35724(13) 0.9255(3) 0.23452(12)
H31 H 0.3712(15) 0.980(3) 0.2036(15)
B3 B 0.26832(13) 0.9137(3) 0.20465(12)
H32 H 0.2294(15) 0.962(3) 0.1563(15)
B4 B 0.25390(14) 0.7324(3) 0.22707(14)
H33 H 0.2071(16) 0.667(3) 0.1897(16)
B5 B 0.33405(13) 0.6318(3) 0.27098(13)
H34 H 0.3348(17) 0.514(4) 0.2606(16)
B6 B 0.40854(13) 0.9131(3) 0.32486(12)
H35 H 0.4608(19) 0.970(4) 0.3553(19)
B7 B 0.32819(13) 1.0143(3) 0.28077(12)
H36 H 0.3237(17) 1.136(4) 0.2807(17)
B8 B 0.26446(13) 0.8947(3) 0.27652(13)
H37 H 0.2227(16) 0.944(3) 0.2774(16)
B9 B 0.30470(14) 0.7195(3) 0.31745(13)
H38 H 0.2864(14) 0.646(3) 0.3416(14)
B10 B 0.39416(13) 0.7315(3) 0.34756(13)
H39 H 0.4362(17) 0.669(3) 0.3924(16)
B11 B 0.35125(13) 0.8938(3) 0.35134(12)
H40 H 0.3640(15) 0.941(3) 0.4004(15)
C14 C 0.09987(13) 0.2595(3) 0.43367(12)
H41 H 0.0593(19) 0.307(4) 0.4304(18)
B12 B 0.09127(12) 0.0917(3) 0.39356(12)
H42 H 0.0408(15) 0.033(3) 0.3651(15)
B13 B 0.10668(13) 0.2643(3) 0.36524(13)
H43 H 0.0639(16) 0.313(3) 0.3149(16)
B14 B 0.16037(13) 0.3804(3) 0.43809(12)
H44 H 0.1512(17) 0.498(4) 0.4340(17)
B15 B 0.17849(15) 0.2791(3) 0.51100(13)
H45 H 0.1843(19) 0.335(4) 0.5557(19)
B16 B 0.13581(13) 0.1010(3) 0.48359(13)
H46 H 0.1152(16) 0.058(3) 0.5098(16)
B17 B 0.15403(13) 0.0991(2) 0.37422(12)
H47 H 0.1444(17) 0.041(4) 0.3285(17)
B18 B 0.19696(13) 0.2773(3) 0.40146(13)
H48 H 0.2161(16) 0.334(3) 0.3726(16)
B19 B 0.24130(13) 0.2871(3) 0.49201(13)
H49 H 0.2891(19) 0.346(4) 0.5229(18)
B20 B 0.22604(13) 0.1141(3) 0.51973(12)
H50 H 0.2650(15) 0.065(3) 0.5684(16)
B21 B 0.17204(12) -0.0026(2) 0.44726(12)
H51 H 0.1761(15) -0.126(3) 0.4509(15)
B22 B 0.23721(12) 0.1119(3) 0.45208(12)
H52 H 0.2841(17) 0.071(4) 0.4600(17)
C15 C -0.17192(13) -0.1676(3) -0.02190(12)
H53 H -0.1418 -0.1298 -0.0351
H54 H -0.1804 -0.2762 -0.0322
H55 H -0.2162 -0.1129 -0.0475
C16 C -0.18139(11) -0.1979(2) 0.07043(11)
H56 H -0.1895 -0.3082 0.0617
H57 H -0.2269 -0.1457 0.0444
C17 C -0.14473(11) -0.1664(2) 0.14531(11)
H58 H -0.1365 -0.0560 0.1539
H59 H -0.1738 -0.2004 0.1610
C18 C -0.04100(12) -0.2094(2) 0.25235(11)
H60 H -0.0672 -0.2379 0.2719
H61 H -0.0317 -0.0990 0.2589
C19 C 0.02638(12) -0.2950(2) 0.28803(11)
H62 H 0.0545 -0.2709 0.3374
H63 H 0.0171 -0.4054 0.2827
C20 C 0.13281(12) -0.3081(3) 0.29996(12)
H64 H 0.1569 -0.2779 0.2789
H65 H 0.1569 -0.2648 0.3460
H66 H 0.1326 -0.4190 0.3028
O7 O -0.13906(8) -0.14431(17) 0.04933(7)
O8 O -0.08061(8) -0.24467(16) 0.18164(8)
O9 O 0.06320(9) -0.25397(18) 0.25954(8)
loop_
_geom_bond_atom_site_label_1
_geom_bond_atom_site_label_2
_geom_bond_site_symmetry_1
_geom_bond_site_symmetry_2
Mg1 O1 1_555 1_555
C1 H1 1_555 1_555
H2 C1 1_555 1_555
H3 C1 1_555 1_555
C2 H4 1_555 1_555
H5 C2 1_555 1_555
C3 C2 1_555 1_555
H6 C3 1_555 1_555
H7 C3 1_555 1_555
C4 H8 1_555 1_555
H9 C4 1_555 1_555
C5 C4 1_555 1_555
H10 C5 1_555 1_555
H11 C5 1_555 1_555
C6 H12 1_555 1_555
H13 C6 1_555 1_555
H14 C6 1_555 1_555
C7 H15 1_555 1_555
H16 C7 1_555 1_555
H17 C7 1_555 1_555
C8 H18 1_555 1_555
H19 C8 1_555 1_555
C9 C8 1_555 1_555
H20 C9 1_555 1_555
H21 C9 1_555 1_555
C10 H22 1_555 1_555
H23 C10 1_555 1_555
C11 C10 1_555 1_555
H24 C11 1_555 1_555
H25 C11 1_555 1_555
C12 H26 1_555 1_555
H27 C12 1_555 1_555
H28 C12 1_555 1_555
O1 C1 1_555 1_555
O2 Mg1 1_555 1_555
O3 Mg1 1_555 1_555
O4 Mg1 1_555 1_555
O5 Mg1 1_555 1_555
O6 Mg1 1_555 1_555
C13 H29 1_555 1_555
B1 C13 1_555 1_555
H30 B1 1_555 1_555
B2 C13 1_555 1_555
H31 B2 1_555 1_555
B3 C13 1_555 1_555
H32 B3 1_555 1_555
B4 C13 1_555 1_555
H33 B4 1_555 1_555
B5 C13 1_555 1_555
H34 B5 1_555 1_555
B6 B1 1_555 1_555
H35 B6 1_555 1_555
B7 B2 1_555 1_555
H36 B7 1_555 1_555
B8 B3 1_555 1_555
H37 B8 1_555 1_555
B9 B4 1_555 1_555
H38 B9 1_555 1_555
B10 B1 1_555 1_555
H39 B10 1_555 1_555
B11 B6 1_555 1_555
H40 B11 1_555 1_555
C14 H41 1_555 1_555
B12 C14 1_555 1_555
H42 B12 1_555 1_555
B13 C14 1_555 1_555
H43 B13 1_555 1_555
B14 C14 1_555 1_555
H44 B14 1_555 1_555
B15 C14 1_555 1_555
H45 B15 1_555 1_555
B16 C14 1_555 1_555
H46 B16 1_555 1_555
B17 B12 1_555 1_555
H47 B17 1_555 1_555
B18 B13 1_555 1_555
H48 B18 1_555 1_555
B19 B14 1_555 1_555
H49 B19 1_555 1_555
B20 B15 1_555 1_555
H50 B20 1_555 1_555
B21 B12 1_555 1_555
H51 B21 1_555 1_555
B22 B17 1_555 1_555
H52 B22 1_555 1_555
C15 H53 1_555 1_555
H54 C15 1_555 1_555
H55 C15 1_555 1_555
C16 H56 1_555 1_555
H57 C16 1_555 1_555
C17 C16 1_555 1_555
H58 C17 1_555 1_555
H59 C17 1_555 1_555
C18 H60 1_555 1_555
H61 C18 1_555 1_555
C19 C18 1_555 1_555
H62 C19 1_555 1_555
H63 C19 1_555 1_555
C20 H64 1_555 1_555
H65 C20 1_555 1_555
H66 C20 1_555 1_555
O7 C15 1_555 1_555
O8 C17 1_555 1_555
O9 C19 1_555 1_555
C2 O1 1_555 1_555
C3 O2 1_555 1_555
C4 O2 1_555 1_555
C5 O3 1_555 1_555
C6 O3 1_555 1_555
C7 O4 1_555 1_555
C8 O4 1_555 1_555
C9 O5 1_555 1_555
C10 O5 1_555 1_555
C11 O6 1_555 1_555
C12 O6 1_555 1_555
B1 B2 1_555 1_555
B1 B5 1_555 1_555
B2 B3 1_555 1_555
B2 B6 1_555 1_555
B3 B4 1_555 1_555
B3 B7 1_555 1_555
B4 B5 1_555 1_555
B4 B8 1_555 1_555
B5 B9 1_555 1_555
B5 B10 1_555 1_555
B6 B7 1_555 1_555
B6 B10 1_555 1_555
B7 B8 1_555 1_555
B7 B11 1_555 1_555
B8 B9 1_555 1_555
B8 B11 1_555 1_555
B9 B10 1_555 1_555
B9 B11 1_555 1_555
B10 B11 1_555 1_555
B12 B13 1_555 1_555
B12 B16 1_555 1_555
B13 B14 1_555 1_555
B13 B17 1_555 1_555
B14 B15 1_555 1_555
B14 B18 1_555 1_555
B15 B16 1_555 1_555
B15 B19 1_555 1_555
B16 B20 1_555 1_555
B16 B21 1_555 1_555
B17 B18 1_555 1_555
B17 B21 1_555 1_555
B18 B19 1_555 1_555
B18 B22 1_555 1_555
B19 B20 1_555 1_555
B19 B22 1_555 1_555
B20 B21 1_555 1_555
B20 B22 1_555 1_555
B21 B22 1_555 1_555
C16 O7 1_555 1_555
C18 O8 1_555 1_555
C20 O9 1_555 1_555

#END
