
#######################################################################
#
#                 Cambridge Crystallographic Data Centre
#                                CCDC 
#
#######################################################################
#
# If this CIF has been generated from an entry in the Cambridge 
# Structural Database, then it will include bibliographic, chemical, 
# crystal, experimental, refinement or atomic coordinate data resulting 
# from the CCDC's data processing and validation procedures.
#
#######################################################################

data_WUNVUY
_chemical_formula_moiety         'C12 H30 Mg1 O6,2(C1 H12 B11)'
_chemical_name_systematic        
'bis(1-carba-closo-dodecaborate(12)) tris(1,2-dimethoxyethane)-magnesium(ii)'
_symmetry_cell_setting           triclinic
_symmetry_space_group_name_H-M   'P -1'
_symmetry_Int_Tables_number      2
_space_group_name_Hall           '-P 1'
loop_
_symmetry_equiv_pos_site_id
_symmetry_equiv_pos_as_xyz
1 x,y,z
2 -x,-y,-z
_cell_length_a                   10.9344(2)
_cell_length_b                   11.9271(2)
_cell_length_c                   14.6311(10)
_cell_angle_alpha                91.442(6)
_cell_angle_beta                 92.196(7)
_cell_angle_gamma                114.536(8)
_cell_volume                     1732.78
_exptl_crystal_colour            colorless
_exptl_crystal_description       plate
_cell_formula_units_Z            2
loop_
_atom_site_label
_atom_site_type_symbol
_atom_site_fract_x
_atom_site_fract_y
_atom_site_fract_z
B1 B 0.6592(3) 0.0517(3) 0.0456(2)
H31 H 0.761(3) 0.083(3) 0.079(2)
B2 B 0.6254(4) 0.0552(3) -0.0734(2)
H32 H 0.702(4) 0.097(4) -0.124(3)
B3 B 0.5922(3) 0.1548(3) 0.0048(2)
H33 H 0.648(3) 0.256(3) 0.008(2)
B4 B 0.5303(3) 0.0726(3) 0.1051(2)
H34 H 0.551(3) 0.120(3) 0.176(2)
C13 C 0.5249(3) -0.0736(3) 0.0845(2)
H35 H 0.5426 -0.1246 0.1432
B5 B 0.5249(3) -0.0736(3) 0.0845(2)
B6 B 0.5829(3) -0.0882(3) -0.0220(2)
H36 H 0.632(3) -0.146(3) -0.034(2)
B1A B 0.3408(3) -0.0517(3) -0.0456(2)
H31A H 0.239(3) -0.083(3) -0.079(2)
B2A B 0.3746(4) -0.0552(3) 0.0734(2)
H32A H 0.298(4) -0.097(4) 0.124(3)
B3A B 0.4078(3) -0.1548(3) -0.0048(2)
H33A H 0.352(3) -0.256(3) -0.008(2)
B4A B 0.4697(3) -0.0726(3) -0.1051(2)
H34A H 0.449(3) -0.120(3) -0.176(2)
C13A C 0.4751(3) 0.0736(3) -0.0845(2)
H35A H 0.4574 0.1246 -0.1432
B5A B 0.4751(3) 0.0736(3) -0.0845(2)
B6A B 0.4171(3) 0.0882(3) 0.0220(2)
H36A H 0.368(3) 0.146(3) 0.034(2)
C14 C 0.6065(4) -0.0075(3) 0.4275(2)
H37 H 0.6792 -0.0130 0.3776
B7 B 0.6065(4) -0.0075(3) 0.4275(2)
B8 B 0.4860(4) -0.1419(3) 0.4685(2)
H38 H 0.479(4) -0.233(3) 0.447(2)
B9 B 0.6222(4) -0.0397(3) 0.5422(2)
H39 H 0.704(4) -0.064(3) 0.567(2)
B10 B 0.6579(4) 0.1138(3) 0.5114(2)
H40 H 0.763(4) 0.186(3) 0.519(2)
B11 B 0.5442(4) 0.1061(3) 0.4189(2)
H41 H 0.578(3) 0.170(3) 0.367(2)
B12 B 0.4382(4) -0.0521(3) 0.3931(2)
H42 H 0.405(3) -0.083(3) 0.323(2)
C14A C 0.3935(4) 0.0075(3) 0.5725(2)
H37A H 0.3208 0.0130 0.6224
B7A B 0.3935(4) 0.0075(3) 0.5725(2)
B8A B 0.5140(4) 0.1419(3) 0.5315(2)
H38A H 0.521(4) 0.233(3) 0.553(2)
B9A B 0.3778(4) 0.0397(3) 0.4578(2)
H39A H 0.296(4) 0.064(3) 0.433(2)
B10A B 0.3421(4) -0.1138(3) 0.4886(2)
H40A H 0.237(4) -0.186(3) 0.481(2)
B11A B 0.4558(4) -0.1061(3) 0.5811(2)
H41A H 0.422(3) -0.170(3) 0.633(2)
B12A B 0.5618(4) 0.0521(3) 0.6069(2)
H42A H 0.595(3) 0.083(3) 0.677(2)
C15 C 0.7095(4) 0.7481(3) 0.2781(2)
H43 H 0.632(5) 0.785(4) 0.286(3)
B13 B 0.8637(4) 0.8433(4) 0.2400(2)
H44 H 0.881(3) 0.942(3) 0.226(2)
B14 B 0.7498(4) 0.7156(4) 0.1699(2)
H45 H 0.702(4) 0.728(3) 0.106(2)
B15 B 0.6616(4) 0.5954(4) 0.2424(3)
H46 H 0.555(3) 0.535(3) 0.225(2)
B16 B 0.7202(4) 0.6477(4) 0.3580(3)
H47 H 0.652(4) 0.622(3) 0.415(2)
B17 B 0.8458(4) 0.7993(4) 0.3550(3)
H48 H 0.857(4) 0.865(4) 0.405(3)
B18 B 0.9236(4) 0.7471(4) 0.1805(2)
H49 H 0.990(4) 0.779(3) 0.123(3)
B19 B 0.7978(4) 0.5922(3) 0.1823(2)
H50 H 0.783(4) 0.524(3) 0.125(2)
B20 B 0.7792(4) 0.5496(3) 0.2989(2)
H51 H 0.751(4) 0.457(3) 0.319(2)
B21 B 0.8934(4) 0.6771(3) 0.3685(2)
H52 H 0.944(3) 0.668(3) 0.433(2)
B22 B 0.9412(4) 0.6432(3) 0.2603(2)
H53 H 1.022(3) 0.613(3) 0.255(2)
B23 B 0.9779(4) 0.7961(3) 0.2955(2)
H54 H 1.069(4) 0.852(3) 0.308(2)
Mg1 Mg 0.16061(9) 0.33758(8) 0.23467(6)
O1 O 0.1622(2) 0.19225(19) 0.15411(13)
O2 O 0.2999(2) 0.29481(19) 0.30760(13)
O3 O 0.2957(2) 0.46981(19) 0.15676(13)
O4 O 0.1971(2) 0.50027(18) 0.30906(13)
O5 O -0.00815(19) 0.32739(18) 0.15845(12)
O6 O 0.00770(19) 0.24024(19) 0.31862(13)
C1 C 0.3935(4) 0.3606(3) 0.3821(2)
H1 H 0.363(4) 0.421(4) 0.409(3)
H2 H 0.395(3) 0.298(3) 0.428(2)
H3 H 0.486(5) 0.410(5) 0.360(3)
C2 C 0.3434(3) 0.2140(3) 0.2560(2)
H4 H 0.379(4) 0.168(4) 0.298(3)
H5 H 0.415(4) 0.269(4) 0.212(3)
C3 C 0.2204(3) 0.1216(3) 0.2045(2)
H6 H 0.144(4) 0.062(3) 0.247(2)
H7 H 0.252(4) 0.075(4) 0.158(3)
C4 C 0.0730(3) 0.1219(3) 0.0784(2)
H8 H 0.124(4) 0.089(4) 0.038(3)
H9 H 0.000(5) 0.048(5) 0.097(3)
H10 H 0.036(5) 0.178(4) 0.047(3)
C5 C 0.3525(4) 0.4574(4) 0.0716(2)
H11 H 0.457(4) 0.507(4) 0.077(3)
H12 H 0.322(4) 0.489(3) 0.022(3)
H13 H 0.326(4) 0.367(4) 0.058(3)
C6 C 0.3149(4) 0.5939(3) 0.1790(2)
H14 H 0.403(4) 0.650(3) 0.157(2)
H15 H 0.242(4) 0.608(3) 0.144(3)
C7 C 0.3089(3) 0.6074(3) 0.2805(2)
H16 H 0.297(4) 0.689(4) 0.297(2)
H17 H 0.398(4) 0.615(3) 0.315(2)
C8 C 0.1599(3) 0.5184(3) 0.4003(2)
H18 H 0.128(3) 0.588(3) 0.399(2)
H19 H 0.088(3) 0.438(3) 0.416(2)
H20 H 0.251(4) 0.547(4) 0.443(3)
C9 C -0.0142(3) 0.3922(3) 0.0783(2)
H21 H 0.067(3) 0.403(3) 0.041(2)
H22 H -0.102(4) 0.343(4) 0.040(3)
H23 H -0.015(4) 0.479(4) 0.095(3)
C10 C -0.1183(3) 0.3080(3) 0.2162(2)
H24 H -0.100(3) 0.390(3) 0.248(2)
H25 H -0.210(3) 0.280(3) 0.179(2)
C11 C -0.1272(3) 0.2074(3) 0.2795(2)
H26 H -0.192(3) 0.204(3) 0.332(2)
H27 H -0.164(4) 0.122(4) 0.249(3)
C12 C 0.0096(3) 0.1599(3) 0.3906(2)
H28 H -0.044(3) 0.168(3) 0.436(2)
H29 H -0.022(4) 0.067(4) 0.365(3)
H30 H 0.106(4) 0.196(3) 0.414(2)
loop_
_geom_bond_atom_site_label_1
_geom_bond_atom_site_label_2
_geom_bond_site_symmetry_1
_geom_bond_site_symmetry_2
Mg1 O1 1_555 1_555
O1 C3 1_555 1_555
O2 Mg1 1_555 1_555
O3 Mg1 1_555 1_555
O4 Mg1 1_555 1_555
O5 Mg1 1_555 1_555
O6 Mg1 1_555 1_555
C1 O2 1_555 1_555
H1 C1 1_555 1_555
H2 C1 1_555 1_555
H3 C1 1_555 1_555
C2 O2 1_555 1_555
H4 C2 1_555 1_555
H5 C2 1_555 1_555
C3 C2 1_555 1_555
H6 C3 1_555 1_555
H7 C3 1_555 1_555
C4 O1 1_555 1_555
H8 C4 1_555 1_555
H9 C4 1_555 1_555
H10 C4 1_555 1_555
C5 O3 1_555 1_555
H11 C5 1_555 1_555
H12 C5 1_555 1_555
H13 C5 1_555 1_555
C6 O3 1_555 1_555
H14 C6 1_555 1_555
H15 C6 1_555 1_555
C7 O4 1_555 1_555
H16 C7 1_555 1_555
H17 C7 1_555 1_555
C8 O4 1_555 1_555
H18 C8 1_555 1_555
H19 C8 1_555 1_555
H20 C8 1_555 1_555
C9 O5 1_555 1_555
H21 C9 1_555 1_555
H22 C9 1_555 1_555
H23 C9 1_555 1_555
C10 O5 1_555 1_555
H24 C10 1_555 1_555
H25 C10 1_555 1_555
C11 O6 1_555 1_555
H26 C11 1_555 1_555
H27 C11 1_555 1_555
C12 O6 1_555 1_555
H28 C12 1_555 1_555
H29 C12 1_555 1_555
H30 C12 1_555 1_555
B1 H31 1_555 1_555
B2 B1 1_555 1_555
H32 B2 1_555 1_555
B3 B1 1_555 1_555
H33 B3 1_555 1_555
B4 B1 1_555 1_555
H34 B4 1_555 1_555
C13 B1 1_555 1_555
H35 C13 1_555 1_555
B5 B1 1_555 1_555
B6 B1 1_555 1_555
H36 B6 1_555 1_555
C14 H37 1_555 1_555
H37 B7 1_555 1_555
B7 B8 1_555 1_555
B8 C14 1_555 1_555
H38 B8 1_555 1_555
B9 C14 1_555 1_555
H39 B9 1_555 1_555
B10 C14 1_555 1_555
H40 B10 1_555 1_555
B11 C14 1_555 1_555
H41 B11 1_555 1_555
B12 C14 1_555 1_555
H42 B12 1_555 1_555
C15 H43 1_555 1_555
B13 C15 1_555 1_555
H44 B13 1_555 1_555
B14 C15 1_555 1_555
H45 B14 1_555 1_555
B15 C15 1_555 1_555
H46 B15 1_555 1_555
B16 C15 1_555 1_555
H47 B16 1_555 1_555
B17 C15 1_555 1_555
H48 B17 1_555 1_555
B18 B13 1_555 1_555
H49 B18 1_555 1_555
B19 B14 1_555 1_555
H50 B19 1_555 1_555
B20 B15 1_555 1_555
H51 B20 1_555 1_555
B21 B16 1_555 1_555
H52 B21 1_555 1_555
B22 B18 1_555 1_555
H53 B22 1_555 1_555
B23 B13 1_555 1_555
H54 B23 1_555 1_555
B1A H31A 1_555 1_555
B2A B4 1_555 1_555
H32A B2A 1_555 1_555
B3A C13 1_555 1_555
H33A B3A 1_555 1_555
B4A B2 1_555 1_555
H34A B4A 1_555 1_555
C13A B2 1_555 1_555
H35A C13A 1_555 1_555
B5A B2 1_555 1_555
B6A B3 1_555 1_555
H36A B6A 1_555 1_555
C14A H37A 1_555 1_555
H37A B7A 1_555 1_555
B7A B8A 1_555 1_555
B8A B10 1_555 1_555
H38A B8A 1_555 1_555
B9A B11 1_555 1_555
H39A B9A 1_555 1_555
B10A B8 1_555 1_555
H40A B10A 1_555 1_555
B11A B8 1_555 1_555
H41A B11A 1_555 1_555
B12A B9 1_555 1_555
H42A B12A 1_555 1_555
C6 C7 1_555 1_555
C10 C11 1_555 1_555
B2 B3 1_555 1_555
B2 B6 1_555 1_555
B3 B4 1_555 1_555
B3 C13A 1_555 1_555
B3 B5A 1_555 1_555
B4 C13 1_555 1_555
B4 B5 1_555 1_555
B4 B6A 1_555 1_555
C13 B6 1_555 1_555
C13 B2A 1_555 1_555
H35 B5 1_555 1_555
B5 B6 1_555 1_555
B5 B2A 1_555 1_555
B5 B3A 1_555 1_555
B6 B3A 1_555 1_555
B6 B4A 1_555 1_555
B7 B9 1_555 1_555
B7 B10 1_555 1_555
B7 B11 1_555 1_555
B7 B12 1_555 1_555
B8 B9 1_555 1_555
B8 B12 1_555 1_555
B9 B10 1_555 1_555
B9 B11A 1_555 1_555
B10 B11 1_555 1_555
B10 B12A 1_555 1_555
B11 B12 1_555 1_555
B11 B8A 1_555 1_555
B12 B9A 1_555 1_555
B12 B10A 1_555 1_555
B13 B14 1_555 1_555
B13 B17 1_555 1_555
B14 B15 1_555 1_555
B14 B18 1_555 1_555
B15 B16 1_555 1_555
B15 B19 1_555 1_555
B16 B17 1_555 1_555
B16 B20 1_555 1_555
B17 B21 1_555 1_555
B17 B23 1_555 1_555
B18 B19 1_555 1_555
B18 B23 1_555 1_555
B19 B20 1_555 1_555
B19 B22 1_555 1_555
B20 B21 1_555 1_555
B20 B22 1_555 1_555
B21 B22 1_555 1_555
B21 B23 1_555 1_555
B22 B23 1_555 1_555
B1A B2A 1_555 1_555
B1A B3A 1_555 1_555
B1A B4A 1_555 1_555
B1A C13A 1_555 1_555
B1A B5A 1_555 1_555
B1A B6A 1_555 1_555
B2A B3A 1_555 1_555
B2A B6A 1_555 1_555
B3A B4A 1_555 1_555
B4A C13A 1_555 1_555
B4A B5A 1_555 1_555
C13A B6A 1_555 1_555
H35A B5A 1_555 1_555
B5A B6A 1_555 1_555
C14A B8A 1_555 1_555
C14A B9A 1_555 1_555
C14A B10A 1_555 1_555
C14A B11A 1_555 1_555
C14A B12A 1_555 1_555
B7A B9A 1_555 1_555
B7A B10A 1_555 1_555
B7A B11A 1_555 1_555
B7A B12A 1_555 1_555
B8A B9A 1_555 1_555
B8A B12A 1_555 1_555
B9A B10A 1_555 1_555
B10A B11A 1_555 1_555
B11A B12A 1_555 1_555

#END
