
#######################################################################
#
#                 Cambridge Crystallographic Data Centre
#                                CCDC 
#
#######################################################################
#
# If this CIF has been generated from an entry in the Cambridge 
# Structural Database, then it will include bibliographic, chemical, 
# crystal, experimental, refinement or atomic coordinate data resulting 
# from the CCDC's data processing and validation procedures.
#
#######################################################################

data_WUPDUI
_chemical_formula_moiety         'C12 H15 F1 N6 O4'
_chemical_name_systematic        
1-(5-azido-3-fluoro-4-hydroxy-5-(hydroxymethyl)tetrahydrofuran-2-yl)-4-(cyclopropylamino)pyrimidin-2(1H)-one
_symmetry_cell_setting           tetragonal
_symmetry_space_group_name_H-M   'P 43'
_symmetry_Int_Tables_number      78
_space_group_name_Hall           'P 4cw'
loop_
_symmetry_equiv_pos_site_id
_symmetry_equiv_pos_as_xyz
1 x,y,z
2 -x,-y,1/2+z
3 -y,x,3/4+z
4 y,-x,1/4+z
_cell_length_a                   7.3545(10)
_cell_length_b                   7.3545(10)
_cell_length_c                   27.835(6)
_cell_angle_alpha                90
_cell_angle_beta                 90
_cell_angle_gamma                90
_cell_volume                     1505.56
_cell_formula_units_Z            4
loop_
_atom_site_label
_atom_site_type_symbol
_atom_site_fract_x
_atom_site_fract_y
_atom_site_fract_z
O1 O 1.0382(3) 0.1747(3) 0.13697(8)
O2 O 1.0819(3) 0.5015(3) 0.02285(7)
O3 O 1.0125(3) 0.1677(3) -0.03870(8)
H1 H 0.9685 0.1246 -0.0633
O4 O 0.9008(4) 0.8023(3) -0.01037(11)
H2 H 1.0058 0.7903 -0.0010
N1 N 0.9948(3) 0.4489(3) 0.10247(8)
N2 N 0.9697(3) 0.4111(3) 0.18709(8)
N3 N 1.0924(4) 0.5212(3) -0.06173(10)
N4 N 1.2428(4) 0.4487(4) -0.06020(12)
N5 N 1.3864(5) 0.3981(7) -0.0630(2)
N6 N 0.9029(4) 0.6612(3) 0.23354(10)
F1 F 0.7132(3) 0.3305(3) 0.05235(9)
C1 C 1.0019(3) 0.3389(3) 0.14313(10)
C2 C 0.9256(3) 0.5890(4) 0.19035(10)
C3 C 0.9048(4) 0.7006(3) 0.14849(11)
H3 H 0.8678 0.8212 0.1510
C4 C 0.9401(4) 0.6262(3) 0.10587(10)
H4 H 0.9274 0.6956 0.0781
C5 C 0.9408(6) 0.5704(5) 0.27767(13)
H5 H 1.0417 0.4834 0.2769
C6 C 0.9188(6) 0.6724(5) 0.32264(13)
H6 H 1.0061 0.6505 0.3481
H7 H 0.8751 0.7966 0.3205
C7 C 0.7917(10) 0.5270(8) 0.31102(19)
H8 H 0.6693 0.5610 0.3016
H9 H 0.8004 0.4149 0.3293
C8 C 1.0356(4) 0.3635(3) 0.05624(11)
H10 H 1.1392 0.2811 0.0601
C9 C 0.8767(5) 0.2589(4) 0.03478(13)
H11 H 0.8864 0.1287 0.0418
C10 C 0.8914(4) 0.2944(3) -0.01892(11)
H12 H 0.7723 0.2904 -0.0347
C11 C 0.9754(3) 0.4876(3) -0.02050(11)
C12 C 0.8280(4) 0.6310(4) -0.02163(13)
H13 H 0.7735 0.6348 -0.0533
H14 H 0.7338 0.6002 0.0013
H15 H 0.866(5) 0.780(5) 0.2355(14)
loop_
_geom_bond_atom_site_label_1
_geom_bond_atom_site_label_2
_geom_bond_site_symmetry_1
_geom_bond_site_symmetry_2
O1 C1 1_555 1_555
O2 C8 1_555 1_555
O3 H1 1_555 1_555
O4 H2 1_555 1_555
N1 C1 1_555 1_555
N2 C1 1_555 1_555
N3 N4 1_555 1_555
N4 N5 1_555 1_555
N6 C2 1_555 1_555
F1 C9 1_555 1_555
C2 N2 1_555 1_555
C3 C2 1_555 1_555
H3 C3 1_555 1_555
C4 N1 1_555 1_555
H4 C4 1_555 1_555
C5 N6 1_555 1_555
H5 C5 1_555 1_555
C6 C5 1_555 1_555
H6 C6 1_555 1_555
H7 C6 1_555 1_555
C7 C5 1_555 1_555
H8 C7 1_555 1_555
H9 C7 1_555 1_555
C8 N1 1_555 1_555
H10 C8 1_555 1_555
C9 C8 1_555 1_555
H11 C9 1_555 1_555
C10 O3 1_555 1_555
H12 C10 1_555 1_555
C11 O2 1_555 1_555
C12 O4 1_555 1_555
H13 C12 1_555 1_555
H14 C12 1_555 1_555
H15 N6 1_555 1_555
N3 C11 1_555 1_555
C3 C4 1_555 1_555
C6 C7 1_555 1_555
C9 C10 1_555 1_555
C10 C11 1_555 1_555
C11 C12 1_555 1_555

#END
