
#######################################################################
#
#                 Cambridge Crystallographic Data Centre
#                                CCDC 
#
#######################################################################
#
# If this CIF has been generated from an entry in the Cambridge 
# Structural Database, then it will include bibliographic, chemical, 
# crystal, experimental, refinement or atomic coordinate data resulting 
# from the CCDC's data processing and validation procedures.
#
#######################################################################

data_WUPFOD
_chemical_formula_moiety         'C20 H24 Cl1 N5 O2'
_chemical_name_systematic        
1-Benzyl-N-((6-chloropyridin-3-yl)methyl)-N-ethyl-3-methyl-5-nitro-1,2,3,6-tetrahydropyrimidin-4-amine
_chemical_properties_biological  'insecticidal activity'
_symmetry_cell_setting           monoclinic
_symmetry_space_group_name_H-M   'P 21/c'
_symmetry_Int_Tables_number      14
_space_group_name_Hall           '-P 2ybc'
loop_
_symmetry_equiv_pos_site_id
_symmetry_equiv_pos_as_xyz
1 x,y,z
2 -x,1/2+y,1/2-z
3 -x,-y,-z
4 x,1/2-y,1/2+z
_cell_length_a                   12.5613(10)
_cell_length_b                   7.7368(6)
_cell_length_c                   20.7096(16)
_cell_angle_alpha                90
_cell_angle_beta                 99.6550(10)
_cell_angle_gamma                90
_cell_volume                     1984.14
_exptl_crystal_colour            colorless
_exptl_crystal_description       block
_cell_formula_units_Z            4
loop_
_atom_site_label
_atom_site_type_symbol
_atom_site_fract_x
_atom_site_fract_y
_atom_site_fract_z
C1 C 0.65948(13) 1.11468(19) 0.17452(7)
C2 C 0.74606(13) 1.1270(2) 0.22453(8)
H1 H 0.8092 1.1833 0.2186
C3 C 0.73601(13) 1.0531(2) 0.28375(7)
H2 H 0.7925 1.0595 0.3190
C4 C 0.64128(12) 0.96932(17) 0.29018(6)
C5 C 0.56050(13) 0.9662(2) 0.23641(7)
H3 H 0.4963 0.9107 0.2406
C6 C 0.62755(13) 0.87411(18) 0.35183(6)
H4 H 0.5522 0.8427 0.3493
H5 H 0.6694 0.7682 0.3547
C7 C 0.61096(13) 1.14505(18) 0.41493(7)
H6 H 0.6323 1.2205 0.3819
H7 H 0.6368 1.1959 0.4575
C8 C 0.48962(16) 1.1339(3) 0.40469(11)
H8 H 0.4634 1.0873 0.3620
H9 H 0.4600 1.2473 0.4080
H10 H 0.4681 1.0602 0.4375
C9 C 0.73996(11) 0.91609(16) 0.45929(6)
C10 C 0.81393(11) 1.01713(16) 0.50101(6)
C11 C 0.87061(12) 0.95250(17) 0.56641(7)
H11 H 0.9481 0.9553 0.5676
H12 H 0.8536 1.0269 0.6010
C12 C 0.83690(13) 0.68216(18) 0.51605(7)
H13 H 0.8315 0.5588 0.5233
H14 H 0.9034 0.7047 0.4996
C13 C 0.64636(14) 0.6388(2) 0.46648(8)
H15 H 0.5844 0.7104 0.4523
H16 H 0.6429 0.5935 0.5092
H17 H 0.6473 0.5451 0.4362
C14 C 0.90366(13) 0.6933(2) 0.63266(7)
H18 H 0.9789 0.7090 0.6287
H19 H 0.8889 0.5701 0.6312
C15 C 0.88575(11) 0.76353(19) 0.69837(7)
C16 C 0.96052(13) 0.7238(2) 0.75403(8)
H20 H 1.0199 0.6553 0.7501
C17 C 0.94778(16) 0.7844(2) 0.81482(8)
H21 H 0.9983 0.7560 0.8514
C18 C 0.86118(17) 0.8862(2) 0.82170(8)
H22 H 0.8537 0.9296 0.8626
C19 C 0.78499(15) 0.9238(2) 0.76723(9)
H23 H 0.7253 0.9911 0.7717
C20 C 0.79694(12) 0.8618(2) 0.70601(8)
H24 H 0.7447 0.8866 0.6698
Cl1 Cl 0.66957(4) 1.20936(7) 0.09917(2)
N1 N 0.56805(11) 1.03802(19) 0.17821(6)
N2 N 0.66170(10) 0.97627(14) 0.41129(5)
N3 N 0.74455(10) 0.74173(14) 0.46914(6)
N4 N 0.83627(10) 0.77584(14) 0.57700(6)
N5 N 0.85022(10) 1.17674(15) 0.48304(6)
O1 O 0.82669(11) 1.23369(15) 0.42589(6)
O2 O 0.91046(9) 1.26117(14) 0.52601(6)
loop_
_geom_bond_atom_site_label_1
_geom_bond_atom_site_label_2
_geom_bond_site_symmetry_1
_geom_bond_site_symmetry_2
C1 C2 1_555 1_555
C2 H1 1_555 1_555
C3 C2 1_555 1_555
H2 C3 1_555 1_555
C4 C3 1_555 1_555
C5 C4 1_555 1_555
H3 C5 1_555 1_555
C6 C4 1_555 1_555
H4 C6 1_555 1_555
H5 C6 1_555 1_555
C7 H6 1_555 1_555
H7 C7 1_555 1_555
C8 C7 1_555 1_555
H8 C8 1_555 1_555
H9 C8 1_555 1_555
H10 C8 1_555 1_555
C9 C10 1_555 1_555
C10 C11 1_555 1_555
C11 H11 1_555 1_555
H12 C11 1_555 1_555
C12 H13 1_555 1_555
H14 C12 1_555 1_555
C13 H15 1_555 1_555
H16 C13 1_555 1_555
H17 C13 1_555 1_555
C14 H18 1_555 1_555
H19 C14 1_555 1_555
C15 C14 1_555 1_555
C16 C15 1_555 1_555
H20 C16 1_555 1_555
C17 C16 1_555 1_555
H21 C17 1_555 1_555
C18 C17 1_555 1_555
H22 C18 1_555 1_555
C19 C18 1_555 1_555
H23 C19 1_555 1_555
C20 C15 1_555 1_555
H24 C20 1_555 1_555
Cl1 C1 1_555 1_555
N1 C1 1_555 1_555
N2 C6 1_555 1_555
N3 C9 1_555 1_555
N4 C11 1_555 1_555
N5 C10 1_555 1_555
O1 N5 1_555 1_555
O2 N5 1_555 1_555
C5 N1 1_555 1_555
C7 N2 1_555 1_555
C9 N2 1_555 1_555
C12 N3 1_555 1_555
C12 N4 1_555 1_555
C13 N3 1_555 1_555
C14 N4 1_555 1_555
C19 C20 1_555 1_555

#END
