
#######################################################################
#
#                 Cambridge Crystallographic Data Centre
#                                CCDC 
#
#######################################################################
#
# If this CIF has been generated from an entry in the Cambridge 
# Structural Database, then it will include bibliographic, chemical, 
# crystal, experimental, refinement or atomic coordinate data resulting 
# from the CCDC's data processing and validation procedures.
#
#######################################################################

data_WUPFIX
_chemical_compound_source        'a mangrove endophytic fungus'
_chemical_formula_moiety         'C15 H10 N2 O2,0.5(H2 O1)'
_chemical_name_systematic        
'4-Methyl-9H-pyrrolizino[1,2-b]quinoline-9,10(4H)-dione hemihydrate'
_chemical_properties_biological  'insecticidal activity'
_symmetry_cell_setting           monoclinic
_symmetry_space_group_name_H-M   'P 21/n'
_symmetry_Int_Tables_number      14
_space_group_name_Hall           '-P 2yn'
loop_
_symmetry_equiv_pos_site_id
_symmetry_equiv_pos_as_xyz
1 x,y,z
2 1/2-x,1/2+y,1/2-z
3 -x,-y,-z
4 1/2+x,1/2-y,1/2+z
_cell_length_a                   7.3216(16)
_cell_length_b                   22.498(5)
_cell_length_c                   14.536(3)
_cell_angle_alpha                90
_cell_angle_beta                 103.416(3)
_cell_angle_gamma                90
_cell_volume                     2329.05
_exptl_crystal_colour            yellow
_exptl_crystal_description       block
_cell_formula_units_Z            8
loop_
_atom_site_label
_atom_site_type_symbol
_atom_site_fract_x
_atom_site_fract_y
_atom_site_fract_z
C1 C 0.1790(11) 0.2064(4) 0.1770(6)
C2 C 0.1288(10) 0.1478(3) 0.2017(5)
C3 C 0.0386(11) 0.1007(4) 0.1460(6)
C4 C 0.0109(11) 0.0457(3) 0.1961(6)
C5 C -0.0720(12) -0.0035(4) 0.1475(7)
H1 H -0.1156 -0.0021 0.0821
C6 C -0.0901(12) -0.0556(4) 0.1969(8)
H2 H -0.1437 -0.0889 0.1633
C7 C -0.0327(12) -0.0592(4) 0.2917(7)
H3 H -0.0495 -0.0943 0.3225
C8 C 0.0511(11) -0.0108(4) 0.3432(7)
H4 H 0.0921 -0.0132 0.4086
C9 C 0.0736(10) 0.0415(4) 0.2958(6)
C10 C 0.1881(10) 0.1413(4) 0.3032(6)
C11 C 0.2703(10) 0.1950(3) 0.3409(5)
C12 C 0.3543(10) 0.2272(4) 0.4195(5)
H5 H 0.3799 0.2134 0.4815
C13 C 0.3957(12) 0.2849(4) 0.3906(6)
H6 H 0.4509 0.3154 0.4307
C14 C 0.3416(11) 0.2882(3) 0.2947(6)
H7 H 0.3551 0.3208 0.2575
C15 C 0.2284(13) 0.0905(4) 0.4523(5)
H8 H 0.2880 0.1273 0.4750
H9 H 0.3165 0.0585 0.4695
H10 H 0.1230 0.0839 0.4799
N1 N 0.1627(9) 0.0930(3) 0.3477(4)
N2 N 0.2636(9) 0.2347(3) 0.2635(4)
O1 O 0.1621(9) 0.2289(3) 0.1009(4)
O2 O -0.0204(10) 0.1031(3) 0.0566(4)
C16 C 0.7977(15) 0.1858(5) 0.3673(7)
C17 C 0.7017(13) 0.1363(5) 0.3212(7)
C18 C 0.6573(13) 0.0800(5) 0.3452(7)
C19 C 0.5551(13) 0.0381(5) 0.2738(6)
C20 C 0.5078(14) -0.0121(5) 0.2942(8)
C21 C 0.4161(13) -0.0494(4) 0.2301(8)
H11 H 0.3865 -0.0867 0.2502
C22 C 0.3625(13) -0.0367(4) 0.1370(8)
H12 H 0.2976 -0.0640 0.0935
C23 C 0.4090(11) 0.0187(4) 0.1101(6)
H13 H 0.3759 0.0304 0.0470
C24 C 0.5065(11) 0.0566(4) 0.1794(5)
C25 C 0.6376(13) 0.1547(4) 0.2136(8)
C26 C 0.6967(11) 0.2121(4) 0.2075(6)
C27 C 0.7034(12) 0.2592(4) 0.1490(6)
H14 H 0.6501 0.2600 0.0844
C28 C 0.8046(13) 0.3068(4) 0.2022(8)
H15 H 0.8279 0.3430 0.1762
C29 C 0.8632(12) 0.2931(5) 0.2957(8)
H16 H 0.9295 0.3171 0.3441
C30 C 0.5071(14) 0.1408(4) 0.0545(6)
H17 H 0.5465 0.1813 0.0511
H18 H 0.3736 0.1381 0.0306
H19 H 0.5689 0.1161 0.0172
N3 N 0.5579(11) 0.1201(4) 0.1562(6)
N4 N 0.7979(11) 0.2315(4) 0.3026(5)
O3 O 0.8711(11) 0.1880(5) 0.4506(5)
O4 O 0.6980(11) 0.0600(4) 0.4337(5)
O5 O 0.1504(9) 0.3616(3) 0.0891(4)
H20 H 0.1614 0.3251 0.0828
H21 H 0.1909 0.3802 0.0488
loop_
_geom_bond_atom_site_label_1
_geom_bond_atom_site_label_2
_geom_bond_site_symmetry_1
_geom_bond_site_symmetry_2
C1 C2 1_555 1_555
C2 C3 1_555 1_555
C3 C4 1_555 1_555
C4 C5 1_555 1_555
C5 H1 1_555 1_555
C6 C5 1_555 1_555
H2 C6 1_555 1_555
C7 C6 1_555 1_555
H3 C7 1_555 1_555
C8 C7 1_555 1_555
H4 C8 1_555 1_555
C9 C4 1_555 1_555
C10 C2 1_555 1_555
C11 C10 1_555 1_555
C12 C11 1_555 1_555
H5 C12 1_555 1_555
C13 C12 1_555 1_555
H6 C13 1_555 1_555
C14 C13 1_555 1_555
H7 C14 1_555 1_555
C15 H8 1_555 1_555
H9 C15 1_555 1_555
H10 C15 1_555 1_555
N1 C9 1_555 1_555
N2 C1 1_555 1_555
O1 C1 1_555 1_555
O2 C3 1_555 1_555
C16 C17 1_555 1_555
C17 C18 1_555 1_555
C18 C19 1_555 1_555
C19 C20 1_555 1_555
C20 C21 1_555 1_555
C21 H11 1_555 1_555
C22 C21 1_555 1_555
H12 C22 1_555 1_555
C23 C22 1_555 1_555
H13 C23 1_555 1_555
C24 C19 1_555 1_555
C25 C17 1_555 1_555
C26 C25 1_555 1_555
C27 C26 1_555 1_555
H14 C27 1_555 1_555
C28 C27 1_555 1_555
H15 C28 1_555 1_555
C29 C28 1_555 1_555
H16 C29 1_555 1_555
C30 H17 1_555 1_555
H18 C30 1_555 1_555
H19 C30 1_555 1_555
N3 C24 1_555 1_555
N4 C16 1_555 1_555
O3 C16 1_555 1_555
O4 C18 1_555 1_555
O5 H20 1_555 1_555
H21 O5 1_555 1_555
C8 C9 1_555 1_555
C10 N1 1_555 1_555
C11 N2 1_555 1_555
C14 N2 1_555 1_555
C15 N1 1_555 1_555
C23 C24 1_555 1_555
C25 N3 1_555 1_555
C26 N4 1_555 1_555
C29 N4 1_555 1_555
C30 N3 1_555 1_555

#END
