
#######################################################################
#
#                 Cambridge Crystallographic Data Centre
#                                CCDC 
#
#######################################################################
#
# If this CIF has been generated from an entry in the Cambridge 
# Structural Database, then it will include bibliographic, chemical, 
# crystal, experimental, refinement or atomic coordinate data resulting 
# from the CCDC's data processing and validation procedures.
#
#######################################################################

data_WUPHUL
_chemical_formula_moiety         'C15 H16 Cl1 N3 O2 S1'
_chemical_name_systematic        
'12-((4-Chlorophenyl)sulfonyl)-4,5,12-triazatricyclo[6.3.1.0^2,6^]dodeca-2,5-diene unknown solvate'
_symmetry_cell_setting           hexagonal
_symmetry_space_group_name_H-M   'P 65'
_symmetry_Int_Tables_number      170
_space_group_name_Hall           'P 65'
loop_
_symmetry_equiv_pos_site_id
_symmetry_equiv_pos_as_xyz
1 x,y,z
2 -y,x-y,2/3+z
3 -x+y,-x,1/3+z
4 -x,-y,1/2+z
5 y,-x+y,1/6+z
6 x-y,x,5/6+z
_cell_length_a                   18.1096(13)
_cell_length_b                   18.1096(13)
_cell_length_c                   9.4857(3)
_cell_angle_alpha                90
_cell_angle_beta                 90
_cell_angle_gamma                120
_cell_volume                     2694.12
_exptl_crystal_description       needle
_cell_formula_units_Z            6
loop_
_atom_site_label
_atom_site_type_symbol
_atom_site_fract_x
_atom_site_fract_y
_atom_site_fract_z
Cl1 Cl 0.58670(6) -0.21149(6) 0.34238(9)
S1 S 0.39184(5) -0.00744(5) 0.35914(7)
O1 O 0.44854(14) 0.07262(12) 0.4263(2)
O2 O 0.35897(14) -0.00879(14) 0.2220(2)
N1 N 0.35366(15) -0.24092(16) 0.7114(3)
N2 N 0.30407(15) -0.27308(15) 0.5938(2)
N3 N 0.31021(16) -0.05622(16) 0.4623(2)
C1 C 0.23935(19) -0.21477(19) 0.4258(3)
C2 C 0.23152(19) -0.13404(19) 0.4108(3)
C3 C 0.1567(2) -0.1377(2) 0.4899(4)
C4 C 0.1665(2) -0.1355(2) 0.6493(4)
C5 C 0.2520(2) -0.0600(2) 0.6949(4)
C6 C 0.3255(2) -0.05983(19) 0.6163(3)
C7 C 0.33023(18) -0.13930(18) 0.6429(3)
C8 C 0.36953(19) -0.16183(19) 0.7433(3)
C9 C 0.28947(17) -0.21072(18) 0.5531(3)
C10 C 0.44798(18) -0.06390(17) 0.3501(3)
C11 C 0.4330(2) -0.12086(19) 0.2387(3)
C12 C 0.4767(2) -0.1656(2) 0.2354(3)
C13 C 0.5335(2) -0.15327(19) 0.3421(3)
C14 C 0.5498(2) -0.0964(2) 0.4503(3)
C15 C 0.5067(2) -0.05122(18) 0.4539(3)
H1 H 0.2245 -0.1258 0.3085
H2 H 0.3806 -0.0085 0.6440
H3 H 0.4019 -0.1280 0.8210
H4 H 0.369(2) -0.273(2) 0.774(4)
H5 H 0.1816 -0.2655 0.4322
H6 H 0.2675 -0.2211 0.3408
H7 H 0.1040 -0.1907 0.4632
H8 H 0.1502 -0.0889 0.4603
H9 H 0.1627 -0.1893 0.6817
H10 H 0.1195 -0.1309 0.6939
H11 H 0.2523 -0.0061 0.6756
H12 H 0.2597 -0.0633 0.7976
H13 H 0.3934 -0.1287 0.1664
H14 H 0.4677 -0.2041 0.1607
H15 H 0.5901 -0.0883 0.5215
H16 H 0.5175 -0.0116 0.5276
loop_
_geom_bond_atom_site_label_1
_geom_bond_atom_site_label_2
_geom_bond_site_symmetry_1
_geom_bond_site_symmetry_2
Cl1 C13 1_555 1_555
S1 O1 1_555 1_555
O2 S1 1_555 1_555
N1 N2 1_555 1_555
N2 C9 1_555 1_555
N3 S1 1_555 1_555
C1 C2 1_555 1_555
C2 N3 1_555 1_555
C3 C2 1_555 1_555
C4 C3 1_555 1_555
C5 C4 1_555 1_555
C6 N3 1_555 1_555
C7 C6 1_555 1_555
C8 N1 1_555 1_555
C9 C1 1_555 1_555
C10 S1 1_555 1_555
C11 C10 1_555 1_555
C12 C11 1_555 1_555
C13 C12 1_555 1_555
C14 C13 1_555 1_555
C15 C10 1_555 1_555
H1 C2 1_555 1_555
H2 C6 1_555 1_555
H3 C8 1_555 1_555
H4 N1 1_555 1_555
H5 C1 1_555 1_555
H6 C1 1_555 1_555
H7 C3 1_555 1_555
H8 C3 1_555 1_555
H9 C4 1_555 1_555
H10 C4 1_555 1_555
H11 C5 1_555 1_555
H12 C5 1_555 1_555
H13 C11 1_555 1_555
H14 C12 1_555 1_555
H15 C14 1_555 1_555
H16 C15 1_555 1_555
C5 C6 1_555 1_555
C7 C8 1_555 1_555
C7 C9 1_555 1_555
C14 C15 1_555 1_555

#END
