
#######################################################################
#
#                 Cambridge Crystallographic Data Centre
#                                CCDC 
#
#######################################################################
#
# If this CIF has been generated from an entry in the Cambridge 
# Structural Database, then it will include bibliographic, chemical, 
# crystal, experimental, refinement or atomic coordinate data resulting 
# from the CCDC's data processing and validation procedures.
#
#######################################################################

data_WUPKEY
_chemical_formula_moiety         'C36 H28 O5,H2 O1'
_chemical_name_systematic        
"4-((4-Ethoxyphenyl)(4'-hydroxy-4-(hydroxymethyl)-3-((4-hydroxyphenyl)ethynyl)biphenyl-2-yl)methylene)cyclohexa-2,5-dien-1-one monohydrate"
_symmetry_cell_setting           monoclinic
_symmetry_space_group_name_H-M   'P 21/c'
_symmetry_Int_Tables_number      14
_space_group_name_Hall           '-P 2ybc'
loop_
_symmetry_equiv_pos_site_id
_symmetry_equiv_pos_as_xyz
1 x,y,z
2 -x,1/2+y,1/2-z
3 -x,-y,-z
4 x,1/2-y,1/2+z
_cell_length_a                   8.258(2)
_cell_length_b                   23.325(6)
_cell_length_c                   15.455(4)
_cell_angle_alpha                90
_cell_angle_beta                 96.281(13)
_cell_angle_gamma                90
_cell_volume                     2959.04
_exptl_crystal_colour            red
_exptl_crystal_description       platelet
_cell_formula_units_Z            4
loop_
_atom_site_label
_atom_site_type_symbol
_atom_site_fract_x
_atom_site_fract_y
_atom_site_fract_z
C1 C 0.48939(16) 0.78707(5) 0.26900(8)
C2 C 0.47609(16) 0.77515(6) 0.35973(9)
H1 H 0.4263 0.8027 0.3936
C3 C 0.53282(15) 0.72583(5) 0.39740(8)
H2 H 0.5208 0.7193 0.4570
C4 C 0.61149(15) 0.68274(5) 0.34929(8)
C5 C 0.62420(15) 0.69468(5) 0.25871(8)
H3 H 0.6742 0.6671 0.2250
C6 C 0.56729(15) 0.74373(5) 0.22036(8)
H4 H 0.5784 0.7500 0.1606
C7 C 0.67250(15) 0.63281(5) 0.38764(8)
C8 C 0.76358(16) 0.66617(6) 0.53866(8)
H5 H 0.7878 0.7026 0.5157
C9 C 0.79910(16) 0.65603(6) 0.62698(9)
H6 H 0.8498 0.6849 0.6639
C10 C 0.76017(16) 0.60336(6) 0.66123(8)
C11 C 0.68490(16) 0.56112(6) 0.60693(9)
H7 H 0.6544 0.5257 0.6307
C12 C 0.65480(15) 0.57093(5) 0.51851(8)
H8 H 0.6077 0.5414 0.4815
C13 C 0.69289(15) 0.62392(5) 0.48258(8)
C14 C 0.61571(16) 0.55369(5) 0.27632(8)
C15 C 0.66096(16) 0.50104(5) 0.24082(8)
C16 C 0.81405(17) 0.47894(6) 0.26645(8)
H9 H 0.8431 0.4425 0.2454
C17 C 0.92572(16) 0.50925(6) 0.32241(8)
H10 H 1.0313 0.4937 0.3376
C18 C 0.88654(16) 0.56188(5) 0.35678(8)
C19 C 0.72631(15) 0.58320(5) 0.33696(8)
C20 C 1.03592(16) 0.65383(6) 0.39096(8)
H11 H 0.9767 0.6703 0.3409
C21 C 1.14493(16) 0.68744(6) 0.44319(9)
H12 H 1.1594 0.7266 0.4291
C22 C 1.23308(16) 0.66378(6) 0.51634(8)
C23 C 1.21584(16) 0.60584(6) 0.53464(9)
H13 H 1.2788 0.5891 0.5832
C24 C 1.10666(16) 0.57271(6) 0.48184(9)
H14 H 1.0964 0.5331 0.4944
C25 C 1.01134(15) 0.59622(5) 0.41053(8)
C26 C 0.45662(16) 0.57612(5) 0.24863(8)
C27 C 0.32681(16) 0.59402(6) 0.21668(9)
C28 C 0.04140(17) 0.58143(6) 0.15481(9)
H15 H 0.0497 0.5416 0.1676
C29 C -0.10400(17) 0.60338(6) 0.11539(9)
H16 H -0.1952 0.5788 0.1024
C30 C -0.11647(16) 0.66136(6) 0.09482(9)
C31 C 0.01746(18) 0.69712(6) 0.11439(10)
H17 H 0.0097 0.7367 0.0999
C32 C 0.16167(17) 0.67513(6) 0.15482(10)
H18 H 0.2522 0.6999 0.1684
C33 C 0.17619(16) 0.61691(6) 0.17602(8)
C34 C 0.54153(17) 0.47072(6) 0.17477(9)
H19 H 0.4391 0.4637 0.2009
H20 H 0.5158 0.4961 0.1237
C35 C 0.88034(19) 0.62968(7) 0.80419(9)
H21 H 0.8128 0.6644 0.8084
H22 H 0.9838 0.6410 0.7821
C36 C 0.9137(2) 0.60158(8) 0.89196(10)
H23 H 0.8103 0.5914 0.9136
H24 H 0.9739 0.6282 0.9327
H25 H 0.9787 0.5668 0.8867
O1 O 0.79534(12) 0.58850(4) 0.74674(6)
O2 O 1.33497(12) 0.69894(4) 0.56737(6)
H26 H 1.3708 0.6815 0.6130
O3 O 0.60161(13) 0.41758(4) 0.14623(6)
H27 H 0.5950 0.3926 0.1848
O4 O -0.25503(12) 0.68545(4) 0.05472(6)
H28 H -0.3270 0.6601 0.0450
O5 O 0.43493(12) 0.83288(4) 0.23366(6)
O6 O -0.49580(14) 0.60623(5) 0.02460(8)
H29 H -0.579(3) 0.6064(10) 0.0569(16)
H30 H -0.542(3) 0.6003(10) -0.0327(16)
loop_
_geom_bond_atom_site_label_1
_geom_bond_atom_site_label_2
_geom_bond_site_symmetry_1
_geom_bond_site_symmetry_2
C1 C2 1_555 1_555
C2 H1 1_555 1_555
C3 C2 1_555 1_555
H2 C3 1_555 1_555
C4 C3 1_555 1_555
C5 C4 1_555 1_555
H3 C5 1_555 1_555
C6 C1 1_555 1_555
H4 C6 1_555 1_555
C7 C4 1_555 1_555
C8 H5 1_555 1_555
C9 C8 1_555 1_555
H6 C9 1_555 1_555
C10 C9 1_555 1_555
C11 C10 1_555 1_555
H7 C11 1_555 1_555
C12 C11 1_555 1_555
H8 C12 1_555 1_555
C13 C7 1_555 1_555
C14 C15 1_555 1_555
C15 C16 1_555 1_555
C16 H9 1_555 1_555
C17 C16 1_555 1_555
H10 C17 1_555 1_555
C18 C17 1_555 1_555
C19 C7 1_555 1_555
C20 H11 1_555 1_555
C21 C20 1_555 1_555
H12 C21 1_555 1_555
C22 C21 1_555 1_555
C23 C22 1_555 1_555
H13 C23 1_555 1_555
C24 C23 1_555 1_555
H14 C24 1_555 1_555
C25 C18 1_555 1_555
C26 C14 1_555 1_555
C27 C26 1_555 1_555
C28 H15 1_555 1_555
C29 C28 1_555 1_555
H16 C29 1_555 1_555
C30 C29 1_555 1_555
C31 C30 1_555 1_555
H17 C31 1_555 1_555
C32 C31 1_555 1_555
H18 C32 1_555 1_555
C33 C27 1_555 1_555
C34 C15 1_555 1_555
H19 C34 1_555 1_555
H20 C34 1_555 1_555
C35 H21 1_555 1_555
H22 C35 1_555 1_555
C36 C35 1_555 1_555
H23 C36 1_555 1_555
H24 C36 1_555 1_555
H25 C36 1_555 1_555
O1 C10 1_555 1_555
O2 C22 1_555 1_555
H26 O2 1_555 1_555
O3 C34 1_555 1_555
H27 O3 1_555 1_555
O4 C30 1_555 1_555
H28 O4 1_555 1_555
O5 C1 1_555 1_555
O6 H29 1_555 1_555
H30 O6 1_555 1_555
C5 C6 1_555 1_555
C8 C13 1_555 1_555
C12 C13 1_555 1_555
C14 C19 1_555 1_555
C18 C19 1_555 1_555
C20 C25 1_555 1_555
C24 C25 1_555 1_555
C28 C33 1_555 1_555
C32 C33 1_555 1_555
C35 O1 1_555 1_555

#END
