
#######################################################################
#
#                 Cambridge Crystallographic Data Centre
#                                CCDC 
#
#######################################################################
#
# If this CIF has been generated from an entry in the Cambridge 
# Structural Database, then it will include bibliographic, chemical, 
# crystal, experimental, refinement or atomic coordinate data resulting 
# from the CCDC's data processing and validation procedures.
#
#######################################################################

data_WUPKAU
_chemical_formula_moiety         'C39 H46 O8'
_chemical_name_systematic        
'Methyl 4-(14-hydroxy-11-isopropylidene-8,23,23-trimethyl-5-(3-methylbut-2-en-1-yl)-16,20-dioxo-3,7,22-trioxaheptacyclo[17.4.1.1^8,12^.0^2,17^.0^2,21^.0^4,15^.0^6,13^]pentacosa-4(15),5,13,17-tetraen-21-yl)-2-methylbut-2-enoate'
_symmetry_cell_setting           orthorhombic
_symmetry_space_group_name_H-M   'P 21 21 21'
_symmetry_Int_Tables_number      19
_space_group_name_Hall           'P 2ac 2ab'
loop_
_symmetry_equiv_pos_site_id
_symmetry_equiv_pos_as_xyz
1 x,y,z
2 1/2-x,-y,1/2+z
3 -x,1/2+y,1/2-z
4 1/2+x,1/2-y,-z
_cell_length_a                   8.1440(16)
_cell_length_b                   18.624(4)
_cell_length_c                   22.760(5)
_cell_angle_alpha                90
_cell_angle_beta                 90
_cell_angle_gamma                90
_cell_volume                     3452.1
_cell_formula_units_Z            4
loop_
_atom_site_label
_atom_site_type_symbol
_atom_site_fract_x
_atom_site_fract_y
_atom_site_fract_z
O1 O 0.5193(6) 0.4391(2) 0.07265(17)
C1 C 0.6263(10) 0.6116(4) 0.2880(3)
H1 H 0.7291 0.5954 0.2723
H2 H 0.6097 0.5910 0.3262
H3 H 0.6275 0.6630 0.2912
O2 O 0.2360(6) 0.6539(2) 0.11946(17)
H4 H 0.2004 0.6897 0.1027
C2 C 0.3278(10) 0.6133(5) 0.2716(3)
H5 H 0.2422 0.5989 0.2450
H6 H 0.3276 0.6646 0.2754
H7 H 0.3092 0.5918 0.3093
O3 O 0.1710(6) 0.7387(2) 0.03308(18)
C3 C 0.4900(13) 0.5891(4) 0.2481(4)
O4 O 0.4006(5) 0.5979(2) -0.07861(16)
C4 C 0.5126(14) 0.5469(4) 0.1986(3)
O5 O 0.2947(6) 0.6041(3) -0.19954(18)
C5 C 0.6716(10) 0.5218(4) 0.1737(4)
H8 H 0.7606 0.5325 0.2007
H9 H 0.6935 0.5459 0.1368
O6 O 0.0292(8) 0.4402(3) -0.0660(2)
C6 C 0.6589(10) 0.4414(4) 0.1642(3)
H10 H 0.7563 0.4262 0.1430
H11 H 0.6624 0.4185 0.2024
O7 O 0.0074(7) 0.4640(3) 0.0284(2)
C7 C 0.5173(13) 0.4133(4) 0.1331(3)
C8 C 0.3626(11) 0.4414(4) 0.1623(3)
H12 H 0.3563 0.4233 0.2022
H13 H 0.2671 0.4243 0.1410
O8 O -0.0060(6) 0.6938(3) -0.20991(19)
C9 C 0.3619(10) 0.5239(4) 0.1633(3)
H14 H 0.2609 0.5423 0.1812
C10 C 0.5131(11) 0.3317(3) 0.1279(3)
H15 H 0.6141 0.3150 0.1109
H16 H 0.4229 0.3177 0.1032
H17 H 0.4995 0.3109 0.1662
C11 C 0.3784(10) 0.2924(4) -0.0978(3)
H18 H 0.2858 0.3167 -0.1146
H19 H 0.3425 0.2634 -0.0653
H20 H 0.4284 0.2623 -0.1269
C12 C 0.6513(10) 0.3169(4) -0.0510(3)
H21 H 0.7234 0.3558 -0.0409
H22 H 0.7046 0.2861 -0.0790
H23 H 0.6252 0.2899 -0.0163
C13 C 0.4992(11) 0.3458(4) -0.0769(3)
C14 C 0.4532(9) 0.4128(4) -0.0690(3)
H24 H 0.3466 0.4242 -0.0803
C15 C 0.5524(8) 0.4720(3) -0.0440(3)
H25 H 0.5946 0.5013 -0.0758
H26 H 0.6455 0.4519 -0.0231
C16 C 0.4541(8) 0.5199(4) -0.0017(3)
C17 C 0.4478(8) 0.5031(3) 0.0573(3)
C18 C 0.3738(9) 0.5461(4) 0.0993(3)
C19 C 0.3062(9) 0.6110(4) 0.0806(3)
C20 C 0.3123(8) 0.6310(3) 0.0191(3)
C21 C 0.3862(8) 0.5839(4) -0.0205(3)
C22 C 0.2355(9) 0.6937(4) 0.0001(3)
C23 C 0.2384(8) 0.7062(4) -0.0628(3)
C24 C 0.3151(9) 0.6576(3) -0.1057(3)
C25 C 0.4392(8) 0.6951(3) -0.1499(3)
H27 H 0.5466 0.7013 -0.1311
C26 C 0.3637(8) 0.7689(4) -0.1642(3)
H28 H 0.4131 0.8050 -0.1391
H29 H 0.3880 0.7812 -0.2046
C27 C 0.1782(10) 0.7688(3) -0.1551(3)
H30 H 0.1241 0.8113 -0.1714
C28 C 0.1575(9) 0.7621(3) -0.0894(3)
H31 H 0.0934 0.7942 -0.0680
C29 C 0.4665(9) 0.6754(3) -0.2620(2)
H32 H 0.4746 0.6384 -0.2912
H33 H 0.5627 0.7052 -0.2636
H34 H 0.3710 0.7042 -0.2696
C30 C 0.5843(8) 0.5863(4) -0.1930(3)
H35 H 0.5732 0.5644 -0.1551
H36 H 0.6898 0.6090 -0.1959
H37 H 0.5746 0.5503 -0.2230
C31 C 0.4525(10) 0.6412(4) -0.2010(3)
C32 C 0.1960(8) 0.6307(3) -0.1528(3)
C33 C 0.0998(9) 0.6974(4) -0.1758(3)
C34 C 0.0792(8) 0.5718(3) -0.1347(3)
H38 H 0.0077 0.5606 -0.1675
H39 H 0.1419 0.5290 -0.1255
C35 C -0.0231(8) 0.5912(4) -0.0831(3)
H40 H -0.0741 0.6357 -0.0860
C36 C -0.0549(9) 0.5563(4) -0.0336(3)
C37 C -0.1426(9) 0.5933(4) 0.0183(3)
H41 H -0.1733 0.6411 0.0071
H42 H -0.0700 0.5952 0.0515
H43 H -0.2392 0.5665 0.0285
C38 C 0.0011(11) 0.4811(5) -0.0274(4)
C39 C 0.0519(11) 0.3897(4) 0.0348(3)
H44 H 0.0536 0.3773 0.0757
H45 H 0.1588 0.3820 0.0182
H46 H -0.0269 0.3602 0.0148
loop_
_geom_bond_atom_site_label_1
_geom_bond_atom_site_label_2
_geom_bond_site_symmetry_1
_geom_bond_site_symmetry_2
O1 C7 1_555 1_555
C1 H1 1_555 1_555
H2 C1 1_555 1_555
H3 C1 1_555 1_555
O2 H4 1_555 1_555
C2 H5 1_555 1_555
H6 C2 1_555 1_555
H7 C2 1_555 1_555
O3 C22 1_555 1_555
C3 C1 1_555 1_555
O4 C21 1_555 1_555
C4 C3 1_555 1_555
O5 C31 1_555 1_555
C5 C4 1_555 1_555
H8 C5 1_555 1_555
H9 C5 1_555 1_555
O6 C38 1_555 1_555
C6 C5 1_555 1_555
H10 C6 1_555 1_555
H11 C6 1_555 1_555
O7 C38 1_555 1_555
C7 C6 1_555 1_555
C8 C7 1_555 1_555
H12 C8 1_555 1_555
H13 C8 1_555 1_555
O8 C33 1_555 1_555
C9 C4 1_555 1_555
H14 C9 1_555 1_555
C10 C7 1_555 1_555
H15 C10 1_555 1_555
H16 C10 1_555 1_555
H17 C10 1_555 1_555
C11 H18 1_555 1_555
H19 C11 1_555 1_555
H20 C11 1_555 1_555
C12 H21 1_555 1_555
H22 C12 1_555 1_555
H23 C12 1_555 1_555
C13 C11 1_555 1_555
C14 C13 1_555 1_555
H24 C14 1_555 1_555
C15 C14 1_555 1_555
H25 C15 1_555 1_555
H26 C15 1_555 1_555
C16 C15 1_555 1_555
C17 O1 1_555 1_555
C18 C9 1_555 1_555
C19 O2 1_555 1_555
C20 C19 1_555 1_555
C21 C16 1_555 1_555
C22 C20 1_555 1_555
C23 C22 1_555 1_555
C24 O4 1_555 1_555
C25 C24 1_555 1_555
H27 C25 1_555 1_555
C26 C25 1_555 1_555
H28 C26 1_555 1_555
H29 C26 1_555 1_555
C27 C26 1_555 1_555
H30 C27 1_555 1_555
C28 C23 1_555 1_555
H31 C28 1_555 1_555
C29 H32 1_555 1_555
H33 C29 1_555 1_555
H34 C29 1_555 1_555
C30 H35 1_555 1_555
H36 C30 1_555 1_555
H37 C30 1_555 1_555
C31 C25 1_555 1_555
C32 O5 1_555 1_555
C33 C27 1_555 1_555
C34 C32 1_555 1_555
H38 C34 1_555 1_555
H39 C34 1_555 1_555
C35 C34 1_555 1_555
H40 C35 1_555 1_555
C36 C35 1_555 1_555
C37 C36 1_555 1_555
H41 C37 1_555 1_555
H42 C37 1_555 1_555
H43 C37 1_555 1_555
C38 C36 1_555 1_555
C39 O7 1_555 1_555
H44 C39 1_555 1_555
H45 C39 1_555 1_555
H46 C39 1_555 1_555
C2 C3 1_555 1_555
C8 C9 1_555 1_555
C12 C13 1_555 1_555
C16 C17 1_555 1_555
C17 C18 1_555 1_555
C18 C19 1_555 1_555
C20 C21 1_555 1_555
C23 C24 1_555 1_555
C24 C32 1_555 1_555
C27 C28 1_555 1_555
C29 C31 1_555 1_555
C30 C31 1_555 1_555
C32 C33 1_555 1_555

#END
