
#######################################################################
#
#                 Cambridge Crystallographic Data Centre
#                                CCDC 
#
#######################################################################
#
# If this CIF has been generated from an entry in the Cambridge 
# Structural Database, then it will include bibliographic, chemical, 
# crystal, experimental, refinement or atomic coordinate data resulting 
# from the CCDC's data processing and validation procedures.
#
#######################################################################

data_WUPMAW
_chemical_formula_moiety         'C14 H8 N2 O4'
_chemical_name_systematic        
(5-Nitro-2,1-benzoxazol-3-yl)(phenyl)methanone
_symmetry_cell_setting           monoclinic
_symmetry_space_group_name_H-M   'I 2/a'
_symmetry_Int_Tables_number      15
_space_group_name_Hall           '-I 2ya'
loop_
_symmetry_equiv_pos_site_id
_symmetry_equiv_pos_as_xyz
1 x,y,z
2 1/2-x,y,-z
3 1/2+x,1/2+y,1/2+z
4 -x,1/2+y,1/2-z
5 -x,-y,-z
6 1/2+x,-y,z
7 1/2-x,1/2-y,1/2-z
8 x,1/2-y,1/2+z
_cell_length_a                   13.0640(10)
_cell_length_b                   12.9928(10)
_cell_length_c                   14.0524(11)
_cell_angle_alpha                90
_cell_angle_beta                 95.245(6)
_cell_angle_gamma                90
_cell_volume                     2375.24
_cell_formula_units_Z            8
loop_
_atom_site_label
_atom_site_type_symbol
_atom_site_fract_x
_atom_site_fract_y
_atom_site_fract_z
C1 C 0.12892(13) 0.86580(13) 0.12086(11)
C2 C 0.13001(14) 0.76747(14) 0.16406(12)
H1 H 0.1360 0.7595 0.2301
C3 C 0.12135(15) 0.87531(15) 0.01992(12)
O1 O 0.14251(13) 0.93620(11) 0.31360(9)
O2 O 0.12902(12) 1.02900(10) 0.07722(8)
C4 C 0.13239(14) 0.96575(14) 0.15317(12)
C5 C 0.13610(15) 1.00399(15) 0.25320(12)
N1 N 0.11981(14) 0.58243(13) 0.14631(13)
C6 C 0.11335(16) 0.78662(17) -0.03979(13)
H2 H 0.1083 0.7926 -0.1060
C7 C 0.12186(14) 0.68592(14) 0.10453(13)
N2 N 0.12193(15) 0.97276(14) -0.00791(11)
C8 C 0.13157(14) 1.11410(14) 0.27893(13)
O3 O 0.12483(14) 0.57361(11) 0.23320(11)
C9 C 0.14607(16) 1.13907(17) 0.37579(14)
H3 H 0.1578 1.0873 0.4212
C10 C 0.11295(16) 1.19370(15) 0.21309(15)
H4 H 0.1025 1.1787 0.1482
C11 C 0.11336(16) 0.69383(16) 0.00278(13)
H5 H 0.1078 0.6345 -0.0343
O4 O 0.11259(17) 0.50905(13) 0.09185(13)
C12 C 0.14300(17) 1.24078(19) 0.40431(17)
H6 H 0.1529 1.2569 0.4690
C13 C 0.10988(17) 1.29453(17) 0.24340(18)
H7 H 0.0970 1.3469 0.1987
C14 C 0.12553(16) 1.31840(19) 0.33841(19)
H8 H 0.1243 1.3866 0.3583
loop_
_geom_bond_atom_site_label_1
_geom_bond_atom_site_label_2
_geom_bond_site_symmetry_1
_geom_bond_site_symmetry_2
C1 C2 1_555 1_555
C2 H1 1_555 1_555
C3 C1 1_555 1_555
O1 C5 1_555 1_555
O2 C4 1_555 1_555
C4 C1 1_555 1_555
C5 C4 1_555 1_555
N1 C7 1_555 1_555
C6 C3 1_555 1_555
H2 C6 1_555 1_555
C7 C2 1_555 1_555
N2 C3 1_555 1_555
C8 C5 1_555 1_555
O3 N1 1_555 1_555
C9 C8 1_555 1_555
H3 C9 1_555 1_555
C10 C8 1_555 1_555
H4 C10 1_555 1_555
C11 C6 1_555 1_555
H5 C11 1_555 1_555
O4 N1 1_555 1_555
C12 C9 1_555 1_555
H6 C12 1_555 1_555
C13 C10 1_555 1_555
H7 C13 1_555 1_555
C14 C12 1_555 1_555
H8 C14 1_555 1_555
O2 N2 1_555 1_555
C7 C11 1_555 1_555
C13 C14 1_555 1_555

#END
