
#######################################################################
#
#                 Cambridge Crystallographic Data Centre
#                                CCDC 
#
#######################################################################
#
# If this CIF has been generated from an entry in the Cambridge 
# Structural Database, then it will include bibliographic, chemical, 
# crystal, experimental, refinement or atomic coordinate data resulting 
# from the CCDC's data processing and validation procedures.
#
#######################################################################

data_WUPNIG
_chemical_formula_moiety         'C23 H18 Br1 N3 O2'
_chemical_name_systematic        
(5-bromo-2-butyl-1,3-dioxo-2,3-dihydro-1H-benzo[de]isoquinolin-6-yl)(pyridin-2-yl)acetonitrile
_symmetry_cell_setting           triclinic
_symmetry_space_group_name_H-M   'P -1'
_symmetry_Int_Tables_number      2
_space_group_name_Hall           '-P 1'
loop_
_symmetry_equiv_pos_site_id
_symmetry_equiv_pos_as_xyz
1 x,y,z
2 -x,-y,-z
_cell_length_a                   5.2510(6)
_cell_length_b                   12.4365(14)
_cell_length_c                   16.4990(19)
_cell_angle_alpha                69.489(3)
_cell_angle_beta                 85.213(3)
_cell_angle_gamma                78.664(3)
_cell_volume                     989.335
_exptl_crystal_colour            red
_exptl_crystal_description       block
_cell_formula_units_Z            2
loop_
_atom_site_label
_atom_site_type_symbol
_atom_site_fract_x
_atom_site_fract_y
_atom_site_fract_z
Br1 Br 1.01511(5) 0.52853(2) 0.349896(17)
C1 C 0.5087(14) -0.1016(5) 0.9265(3)
H1 H 0.4974 -0.1656 0.9080
H2 H 0.4488 -0.1183 0.9855
H3 H 0.6859 -0.0906 0.9222
C2 C 0.3449(10) 0.0061(3) 0.8707(2)
H4 H 0.3586 0.0708 0.8890
H5 H 0.1647 -0.0038 0.8774
C3 C 0.4261(8) 0.0345(3) 0.77574(19)
H6 H 0.6063 0.0444 0.7690
H7 H 0.4121 -0.0301 0.7574
C4 C 0.2592(6) 0.1444(2) 0.71905(16)
H8 H 0.0804 0.1329 0.7238
H9 H 0.2660 0.2078 0.7397
C5 C 0.2386(6) 0.1295(2) 0.57503(17)
C6 C 0.3140(5) 0.1669(2) 0.48239(16)
C7 C 0.4784(5) 0.2483(2) 0.44894(15)
C8 C 0.5814(5) 0.2931(2) 0.50451(15)
C9 C 0.5208(5) 0.2520(2) 0.59852(16)
C10 C 0.7360(5) 0.3742(2) 0.47199(15)
H10 H 0.8038 0.4029 0.5090
C11 C 0.7946(5) 0.4154(2) 0.38353(15)
C12 C 0.7020(5) 0.3755(2) 0.32526(15)
C13 C 0.5385(5) 0.2899(2) 0.35840(15)
C14 C 0.4234(5) 0.2442(2) 0.30521(17)
H11 H 0.4543 0.2703 0.2458
C15 C 0.2683(6) 0.1624(2) 0.34049(18)
H12 H 0.1991 0.1322 0.3047
C16 C 0.2118(6) 0.1235(2) 0.42863(17)
H13 H 0.1049 0.0681 0.4513
C17 C 0.7658(5) 0.4259(2) 0.22850(16)
C18 C 0.8654(6) 0.3368(3) 0.18808(18)
C19 C 0.5419(5) 0.5149(2) 0.17629(15)
C20 C 0.4668(7) 0.6177(3) 0.1906(2)
H14 H 0.5474 0.6341 0.2320
C21 C 0.2661(9) 0.6971(3) 0.1416(3)
H15 H 0.2081 0.7681 0.1501
C22 C 0.1520(8) 0.6713(4) 0.0801(3)
H16 H 0.0193 0.7243 0.0458
C23 C 0.2384(8) 0.5675(4) 0.0715(2)
H17 H 0.1596 0.5499 0.0303
N1 N 0.3426(5) 0.17724(19) 0.62735(13)
N2 N 0.9485(6) 0.2716(3) 0.15493(19)
N3 N 0.4323(6) 0.4856(3) 0.11809(18)
O1 O 0.6189(4) 0.28327(18) 0.64882(11)
O2 O 0.0878(5) 0.0625(2) 0.60640(13)
H18 H 0.894(6) 0.466(2) 0.2259(17)
loop_
_geom_bond_atom_site_label_1
_geom_bond_atom_site_label_2
_geom_bond_site_symmetry_1
_geom_bond_site_symmetry_2
Br1 C11 1_555 1_555
C1 H1 1_555 1_555
H2 C1 1_555 1_555
H3 C1 1_555 1_555
C2 C1 1_555 1_555
H4 C2 1_555 1_555
H5 C2 1_555 1_555
C3 C2 1_555 1_555
H6 C3 1_555 1_555
H7 C3 1_555 1_555
C4 C3 1_555 1_555
H8 C4 1_555 1_555
H9 C4 1_555 1_555
C5 C6 1_555 1_555
C6 C7 1_555 1_555
C7 C8 1_555 1_555
C8 C9 1_555 1_555
C9 N1 1_555 1_555
C10 C8 1_555 1_555
H10 C10 1_555 1_555
C11 C10 1_555 1_555
C12 C11 1_555 1_555
C13 C7 1_555 1_555
C14 C13 1_555 1_555
H11 C14 1_555 1_555
C15 C14 1_555 1_555
H12 C15 1_555 1_555
C16 C6 1_555 1_555
H13 C16 1_555 1_555
C17 C12 1_555 1_555
C18 C17 1_555 1_555
C19 C17 1_555 1_555
C20 C19 1_555 1_555
H14 C20 1_555 1_555
C21 C20 1_555 1_555
H15 C21 1_555 1_555
C22 C21 1_555 1_555
H16 C22 1_555 1_555
C23 C22 1_555 1_555
H17 C23 1_555 1_555
N1 C4 1_555 1_555
N2 C18 1_555 1_555
N3 C19 1_555 1_555
O1 C9 1_555 1_555
O2 C5 1_555 1_555
H18 C17 1_555 1_555
C5 N1 1_555 1_555
C12 C13 1_555 1_555
C15 C16 1_555 1_555
C23 N3 1_555 1_555

#END
