
#######################################################################
#
#                 Cambridge Crystallographic Data Centre
#                                CCDC 
#
#######################################################################
#
# If this CIF has been generated from an entry in the Cambridge 
# Structural Database, then it will include bibliographic, chemical, 
# crystal, experimental, refinement or atomic coordinate data resulting 
# from the CCDC's data processing and validation procedures.
#
#######################################################################

data_WUPRUW
_chemical_formula_moiety         'C29 H33 N1 Si2'
_chemical_name_systematic        
N,3,4-triphenyl-2,5-bis(trimethylsilyl)cyclopenta-2,4-dien-1-imine
_symmetry_cell_setting           monoclinic
_symmetry_space_group_name_H-M   'P 21/n'
_symmetry_Int_Tables_number      14
_space_group_name_Hall           '-P 2yn'
loop_
_symmetry_equiv_pos_site_id
_symmetry_equiv_pos_as_xyz
1 x,y,z
2 1/2-x,1/2+y,1/2-z
3 -x,-y,-z
4 1/2+x,1/2-y,1/2+z
_cell_length_a                   28.055(3)
_cell_length_b                   6.6315(5)
_cell_length_c                   30.820(3)
_cell_angle_alpha                90
_cell_angle_beta                 114.744(12)
_cell_angle_gamma                90
_cell_volume                     5207.51
_cell_formula_units_Z            8
loop_
_atom_site_label
_atom_site_type_symbol
_atom_site_fract_x
_atom_site_fract_y
_atom_site_fract_z
Si1 Si 0.21208(4) 0.35639(15) 0.39573(3)
Si2 Si 0.41470(4) 0.76485(15) 0.43002(3)
N1 N 0.29290(11) 0.4789(4) 0.35974(10)
C1 C 0.30717(13) 0.5548(5) 0.40183(12)
C2 C 0.27357(13) 0.5083(5) 0.42739(12)
C3 C 0.29073(13) 0.6305(5) 0.46605(11)
C4 C 0.33698(13) 0.7497(5) 0.46831(11)
C5 C 0.34945(13) 0.7026(5) 0.43127(11)
C6 C 0.31173(13) 0.5422(5) 0.32634(11)
C7 C 0.31238(15) 0.7445(6) 0.31427(12)
H1 H 0.3024 0.8468 0.3304
C8 C 0.32775(17) 0.7942(6) 0.27834(13)
H2 H 0.3281 0.9318 0.2699
C9 C 0.34240(16) 0.6482(6) 0.25479(13)
H3 H 0.3541 0.6849 0.2310
C10 C 0.34006(15) 0.4470(6) 0.26586(13)
H4 H 0.3498 0.3453 0.2494
C11 C 0.32386(14) 0.3945(6) 0.30038(12)
H5 H 0.3208 0.2561 0.3068
C12 C 0.22920(14) 0.1034(5) 0.37946(13)
H6 H 0.2546 0.0367 0.4082
H7 H 0.2445 0.1201 0.3564
H8 H 0.1974 0.0207 0.3653
C13 C 0.17397(14) 0.3220(6) 0.43268(13)
H9 H 0.1938 0.2353 0.4601
H10 H 0.1401 0.2592 0.4132
H11 H 0.1681 0.4537 0.4441
C14 C 0.16921(14) 0.5052(6) 0.34216(13)
H12 H 0.1356 0.4356 0.3257
H13 H 0.1865 0.5189 0.3205
H14 H 0.1631 0.6393 0.3522
C15 C 0.26791(13) 0.6540(6) 0.50120(12)
C16 C 0.26401(15) 0.4916(7) 0.52775(13)
H15 H 0.2786 0.3652 0.5252
C17 C 0.23937(16) 0.5113(8) 0.55768(14)
H16 H 0.2367 0.3978 0.5753
C18 C 0.21873(17) 0.6900(8) 0.56251(15)
H17 H 0.2015 0.7014 0.5832
C19 C 0.22296(18) 0.8572(8) 0.53682(17)
H18 H 0.2089 0.9835 0.5402
C20 C 0.24757(15) 0.8390(6) 0.50650(14)
H19 H 0.2506 0.9531 0.4892
C21 C 0.36328(13) 0.8992(5) 0.50643(12)
C22 C 0.38294(14) 0.8458(6) 0.55432(12)
H20 H 0.3790 0.7115 0.5630
C23 C 0.40831(15) 0.9877(6) 0.58953(13)
H21 H 0.4226 0.9484 0.6222
C24 C 0.41312(16) 1.1847(6) 0.57788(14)
H22 H 0.4301 1.2816 0.6022
C25 C 0.39278(15) 1.2398(6) 0.52997(14)
H23 H 0.3962 1.3752 0.5216
C26 C 0.36780(14) 1.1006(5) 0.49466(13)
H24 H 0.3535 1.1409 0.4621
C27 C 0.46601(14) 0.7550(6) 0.49316(12)
H25 H 0.4599 0.8641 0.5117
H26 H 0.5008 0.7708 0.4934
H27 H 0.4641 0.6248 0.5074
C28 C 0.41565(16) 1.0195(6) 0.40499(15)
H28 H 0.3899 1.0244 0.3716
H29 H 0.4507 1.0468 0.4067
H30 H 0.4068 1.1214 0.4235
C29 C 0.43577(14) 0.5810(6) 0.39619(13)
H31 H 0.4278 0.4439 0.4031
H32 H 0.4736 0.5940 0.4057
H33 H 0.4170 0.6078 0.3619
Si3 Si 0.46258(4) 0.45196(14) 0.14687(3)
Si4 Si 0.66183(4) 0.01518(15) 0.18046(3)
N2 N 0.54054(12) 0.3020(4) 0.10902(10)
C30 C 0.55538(13) 0.2333(5) 0.15173(12)
C31 C 0.52299(13) 0.2924(5) 0.17788(12)
C32 C 0.54027(13) 0.1780(5) 0.21778(11)
C33 C 0.58503(13) 0.0490(5) 0.21951(11)
C34 C 0.59654(13) 0.0860(5) 0.18127(11)
C35 C 0.55825(13) 0.2296(6) 0.07528(11)
C36 C 0.56001(14) 0.0264(6) 0.06580(12)
H34 H 0.5515 -0.0717 0.0839
C37 C 0.57424(15) -0.0330(6) 0.03000(13)
H35 H 0.5750 -0.1724 0.0232
C38 C 0.58737(15) 0.1074(6) 0.00389(13)
H36 H 0.5981 0.0644 -0.0200
C39 C 0.58486(17) 0.3089(7) 0.01243(14)
H37 H 0.5940 0.4059 -0.0055
C40 C 0.56885(16) 0.3712(6) 0.04739(13)
H38 H 0.5652 0.5109 0.0521
C41 C 0.41742(15) 0.3109(6) 0.09268(13)
H39 H 0.4343 0.2927 0.0708
H40 H 0.3848 0.3874 0.0766
H41 H 0.4095 0.1787 0.1022
C42 C 0.48122(14) 0.7012(5) 0.13042(13)
H42 H 0.5043 0.7727 0.1595
H43 H 0.4495 0.7815 0.1133
H44 H 0.4996 0.6803 0.1099
C43 C 0.42615(14) 0.4946(6) 0.18466(13)
H45 H 0.4192 0.3647 0.1960
H46 H 0.3928 0.5625 0.1657
H47 H 0.4473 0.5790 0.2121
C44 C 0.51880(13) 0.1742(6) 0.25412(12)
C45 C 0.52078(15) 0.3459(6) 0.28103(13)
H48 H 0.5391 0.4618 0.2780
C46 C 0.49657(17) 0.3504(8) 0.31201(14)
H49 H 0.4979 0.4690 0.3298
C47 C 0.47101(18) 0.1854(8) 0.31686(15)
H50 H 0.4538 0.1895 0.3376
C48 C 0.46957(16) 0.0099(8) 0.29182(16)
H51 H 0.4519 -0.1059 0.2958
C49 C 0.49430(15) 0.0040(7) 0.26069(14)
H52 H 0.4942 -0.1169 0.2441
C50 C 0.61097(13) -0.1007(5) 0.25748(12)
C51 C 0.63175(14) -0.0500(6) 0.30637(12)
H53 H 0.6283 0.0836 0.3158
C52 C 0.65713(15) -0.1949(6) 0.34054(13)
H54 H 0.6717 -0.1588 0.3734
C53 C 0.66170(15) -0.3906(6) 0.32788(14)
H55 H 0.6794 -0.4882 0.3518
C54 C 0.64018(14) -0.4446(6) 0.27985(13)
H56 H 0.6429 -0.5796 0.2708
C55 C 0.61483(13) -0.3010(5) 0.24536(12)
H57 H 0.5997 -0.3395 0.2127
C56 C 0.71339(14) 0.0304(6) 0.24335(12)
H58 H 0.7100 0.1586 0.2576
H59 H 0.7482 0.0221 0.2433
H60 H 0.7089 -0.0816 0.2620
C57 C 0.66261(15) -0.2446(5) 0.15734(13)
H61 H 0.6538 -0.3425 0.1766
H62 H 0.6977 -0.2741 0.1592
H63 H 0.6368 -0.2534 0.1240
C58 C 0.68205(14) 0.1961(5) 0.14513(13)
H64 H 0.6636 0.1641 0.1111
H65 H 0.7200 0.1858 0.1549
H66 H 0.6732 0.3336 0.1508
loop_
_geom_bond_atom_site_label_1
_geom_bond_atom_site_label_2
_geom_bond_site_symmetry_1
_geom_bond_site_symmetry_2
Si1 C2 1_555 1_555
Si2 C5 1_555 1_555
N1 C1 1_555 1_555
C1 C2 1_555 1_555
C2 C3 1_555 1_555
C3 C4 1_555 1_555
C4 C5 1_555 1_555
C5 C1 1_555 1_555
C6 N1 1_555 1_555
C7 C6 1_555 1_555
H1 C7 1_555 1_555
C8 C7 1_555 1_555
H2 C8 1_555 1_555
C9 C8 1_555 1_555
H3 C9 1_555 1_555
C10 C9 1_555 1_555
H4 C10 1_555 1_555
C11 C6 1_555 1_555
H5 C11 1_555 1_555
C12 Si1 1_555 1_555
H6 C12 1_555 1_555
H7 C12 1_555 1_555
H8 C12 1_555 1_555
C13 Si1 1_555 1_555
H9 C13 1_555 1_555
H10 C13 1_555 1_555
H11 C13 1_555 1_555
C14 Si1 1_555 1_555
H12 C14 1_555 1_555
H13 C14 1_555 1_555
H14 C14 1_555 1_555
C15 C3 1_555 1_555
C16 C15 1_555 1_555
H15 C16 1_555 1_555
C17 C16 1_555 1_555
H16 C17 1_555 1_555
C18 C17 1_555 1_555
H17 C18 1_555 1_555
C19 C18 1_555 1_555
H18 C19 1_555 1_555
C20 C15 1_555 1_555
H19 C20 1_555 1_555
C21 C4 1_555 1_555
C22 C21 1_555 1_555
H20 C22 1_555 1_555
C23 C22 1_555 1_555
H21 C23 1_555 1_555
C24 C23 1_555 1_555
H22 C24 1_555 1_555
C25 C24 1_555 1_555
H23 C25 1_555 1_555
C26 C21 1_555 1_555
H24 C26 1_555 1_555
C27 Si2 1_555 1_555
H25 C27 1_555 1_555
H26 C27 1_555 1_555
H27 C27 1_555 1_555
C28 Si2 1_555 1_555
H28 C28 1_555 1_555
H29 C28 1_555 1_555
H30 C28 1_555 1_555
C29 Si2 1_555 1_555
H31 C29 1_555 1_555
H32 C29 1_555 1_555
H33 C29 1_555 1_555
Si3 C31 1_555 1_555
Si4 C34 1_555 1_555
N2 C30 1_555 1_555
C30 C31 1_555 1_555
C31 C32 1_555 1_555
C32 C33 1_555 1_555
C33 C34 1_555 1_555
C34 C30 1_555 1_555
C35 N2 1_555 1_555
C36 C35 1_555 1_555
H34 C36 1_555 1_555
C37 C36 1_555 1_555
H35 C37 1_555 1_555
C38 C37 1_555 1_555
H36 C38 1_555 1_555
C39 C38 1_555 1_555
H37 C39 1_555 1_555
C40 C35 1_555 1_555
H38 C40 1_555 1_555
C41 Si3 1_555 1_555
H39 C41 1_555 1_555
H40 C41 1_555 1_555
H41 C41 1_555 1_555
C42 Si3 1_555 1_555
H42 C42 1_555 1_555
H43 C42 1_555 1_555
H44 C42 1_555 1_555
C43 Si3 1_555 1_555
H45 C43 1_555 1_555
H46 C43 1_555 1_555
H47 C43 1_555 1_555
C44 C32 1_555 1_555
C45 C44 1_555 1_555
H48 C45 1_555 1_555
C46 C45 1_555 1_555
H49 C46 1_555 1_555
C47 C46 1_555 1_555
H50 C47 1_555 1_555
C48 C47 1_555 1_555
H51 C48 1_555 1_555
C49 C44 1_555 1_555
H52 C49 1_555 1_555
C50 C33 1_555 1_555
C51 C50 1_555 1_555
H53 C51 1_555 1_555
C52 C51 1_555 1_555
H54 C52 1_555 1_555
C53 C52 1_555 1_555
H55 C53 1_555 1_555
C54 C53 1_555 1_555
H56 C54 1_555 1_555
C55 C50 1_555 1_555
H57 C55 1_555 1_555
C56 Si4 1_555 1_555
H58 C56 1_555 1_555
H59 C56 1_555 1_555
H60 C56 1_555 1_555
C57 Si4 1_555 1_555
H61 C57 1_555 1_555
H62 C57 1_555 1_555
H63 C57 1_555 1_555
C58 Si4 1_555 1_555
H64 C58 1_555 1_555
H65 C58 1_555 1_555
H66 C58 1_555 1_555
C10 C11 1_555 1_555
C19 C20 1_555 1_555
C25 C26 1_555 1_555
C39 C40 1_555 1_555
C48 C49 1_555 1_555
C54 C55 1_555 1_555

#END
