
#######################################################################
#
#                 Cambridge Crystallographic Data Centre
#                                CCDC 
#
#######################################################################
#
# If this CIF has been generated from an entry in the Cambridge 
# Structural Database, then it will include bibliographic, chemical, 
# crystal, experimental, refinement or atomic coordinate data resulting 
# from the CCDC's data processing and validation procedures.
#
#######################################################################

data_WUQFIY
_chemical_formula_moiety         'C20 H22 Br1 N1 O1 S2'
_chemical_name_systematic        
'3-(4-Bromophenyl)-3-oxo-1-phenylpropyl diethylcarbamodithioate'
_symmetry_cell_setting           monoclinic
_symmetry_space_group_name_H-M   'P 21/n'
_symmetry_Int_Tables_number      14
_space_group_name_Hall           '-P 2yn'
loop_
_symmetry_equiv_pos_site_id
_symmetry_equiv_pos_as_xyz
1 x,y,z
2 1/2-x,1/2+y,1/2-z
3 -x,-y,-z
4 1/2+x,1/2-y,1/2+z
_cell_length_a                   7.5824(6)
_cell_length_b                   15.8153(14)
_cell_length_c                   16.9183(15)
_cell_angle_alpha                90
_cell_angle_beta                 94.548(4)
_cell_angle_gamma                90
_cell_volume                     2022.42
_cell_formula_units_Z            4
loop_
_atom_site_label
_atom_site_type_symbol
_atom_site_fract_x
_atom_site_fract_y
_atom_site_fract_z
Br1 Br 0.79494(4) 0.53409(2) 0.361954(17)
C1 C 0.5862(3) 0.35156(15) 0.54896(13)
C2 C 0.6788(3) 0.42371(16) 0.57290(15)
H1 H 0.6988 0.4356 0.6267
C3 C 0.7419(3) 0.47832(16) 0.51822(15)
H2 H 0.8039 0.5267 0.5348
C4 C 0.7118(3) 0.46023(16) 0.43914(15)
C5 C 0.6186(4) 0.38964(17) 0.41348(15)
H3 H 0.5988 0.3783 0.3596
C6 C 0.5550(4) 0.33603(16) 0.46828(15)
H4 H 0.4901 0.2886 0.4512
C7 C 0.5252(3) 0.28736(17) 0.60514(14)
C8 C 0.5741(3) 0.29814(16) 0.69262(13)
H5 H 0.5082 0.3453 0.7121
H6 H 0.6990 0.3115 0.7009
C9 C 0.5357(3) 0.21907(16) 0.73972(14)
H7 H 0.4124 0.2027 0.7263
C10 C 0.6525(3) 0.14474(16) 0.72355(13)
C11 C 0.8334(3) 0.15276(18) 0.72139(15)
H8 H 0.8867 0.2050 0.7316
C12 C 0.9363(4) 0.0837(2) 0.70408(16)
H9 H 1.0579 0.0903 0.7027
C13 C 0.8615(5) 0.0065(2) 0.68911(17)
H10 H 0.9313 -0.0395 0.6772
C14 C 0.6830(5) -0.0028(2) 0.69175(19)
H11 H 0.6307 -0.0553 0.6819
C15 C 0.5800(4) 0.06579(18) 0.70896(17)
H12 H 0.4587 0.0585 0.7108
C16 C 0.3733(3) 0.29878(15) 0.86563(15)
C17 C 0.5303(3) 0.31724(16) 0.99841(15)
H13 H 0.5381 0.3656 1.0338
H14 H 0.6386 0.3150 0.9716
C18 C 0.5154(4) 0.23777(19) 1.04662(17)
H15 H 0.4081 0.2394 1.0731
H16 H 0.6149 0.2338 1.0852
H17 H 0.5136 0.1895 1.0122
C19 C 0.2291(4) 0.37636(17) 0.96716(16)
H18 H 0.2226 0.3655 1.0233
H19 H 0.1202 0.3563 0.9395
C20 C 0.2451(4) 0.47046(18) 0.9542(2)
H20 H 0.3494 0.4912 0.9839
H21 H 0.1428 0.4984 0.9717
H22 H 0.2534 0.4815 0.8989
N1 N 0.3790(3) 0.32912(12) 0.93895(12)
O1 O 0.4384(2) 0.22654(12) 0.58066(10)
S1 S 0.56479(9) 0.23952(5) 0.84604(4)
S2 S 0.20318(9) 0.31273(5) 0.79795(4)
loop_
_geom_bond_atom_site_label_1
_geom_bond_atom_site_label_2
_geom_bond_site_symmetry_1
_geom_bond_site_symmetry_2
Br1 C4 1_555 1_555
C1 C2 1_555 1_555
C2 H1 1_555 1_555
C3 C2 1_555 1_555
H2 C3 1_555 1_555
C4 C3 1_555 1_555
C5 C4 1_555 1_555
H3 C5 1_555 1_555
C6 C1 1_555 1_555
H4 C6 1_555 1_555
C7 C1 1_555 1_555
C8 C7 1_555 1_555
H5 C8 1_555 1_555
H6 C8 1_555 1_555
C9 C8 1_555 1_555
H7 C9 1_555 1_555
C10 C9 1_555 1_555
C11 C10 1_555 1_555
H8 C11 1_555 1_555
C12 C11 1_555 1_555
H9 C12 1_555 1_555
C13 C12 1_555 1_555
H10 C13 1_555 1_555
C14 C13 1_555 1_555
H11 C14 1_555 1_555
C15 C10 1_555 1_555
H12 C15 1_555 1_555
C16 N1 1_555 1_555
C17 H13 1_555 1_555
H14 C17 1_555 1_555
C18 C17 1_555 1_555
H15 C18 1_555 1_555
H16 C18 1_555 1_555
H17 C18 1_555 1_555
C19 H18 1_555 1_555
H19 C19 1_555 1_555
C20 C19 1_555 1_555
H20 C20 1_555 1_555
H21 C20 1_555 1_555
H22 C20 1_555 1_555
N1 C17 1_555 1_555
O1 C7 1_555 1_555
S1 C9 1_555 1_555
S2 C16 1_555 1_555
C5 C6 1_555 1_555
C14 C15 1_555 1_555
C16 S1 1_555 1_555
C19 N1 1_555 1_555

#END
