
#######################################################################
#
#                 Cambridge Crystallographic Data Centre
#                                CCDC 
#
#######################################################################
#
# If this CIF has been generated from an entry in the Cambridge 
# Structural Database, then it will include bibliographic, chemical, 
# crystal, experimental, refinement or atomic coordinate data resulting 
# from the CCDC's data processing and validation procedures.
#
#######################################################################

data_WUQLID
_chemical_formula_moiety         'C22 H16 O5'
_chemical_name_systematic        
1-(4-Methoxyphenyl)-1,3a,4,11c-tetrahydro-3H-benzo(f)furo(3,4-c)chromen-3,4-dione
_symmetry_cell_setting           monoclinic
_symmetry_space_group_name_H-M   'P 21/n'
_symmetry_Int_Tables_number      14
_space_group_name_Hall           '-P 2yn'
loop_
_symmetry_equiv_pos_site_id
_symmetry_equiv_pos_as_xyz
1 x,y,z
2 1/2-x,1/2+y,1/2-z
3 -x,-y,-z
4 1/2+x,1/2-y,1/2+z
_cell_length_a                   8.3280(6)
_cell_length_b                   11.9444(8)
_cell_length_c                   17.1876(12)
_cell_angle_alpha                90
_cell_angle_beta                 100.226(2)
_cell_angle_gamma                90
_cell_volume                     1682.54
_exptl_crystal_colour            colorless
_exptl_crystal_description       block
_chemical_melting_point          '402-404 K'
_cell_formula_units_Z            4
loop_
_atom_site_label
_atom_site_type_symbol
_atom_site_fract_x
_atom_site_fract_y
_atom_site_fract_z
O1 O 0.78455(15) 0.10303(10) 0.32395(7)
O2 O 0.87594(18) -0.04869(11) 0.39093(9)
O3 O 0.7352(2) 0.00989(12) 0.53632(10)
O4 O 0.69868(17) 0.18945(11) 0.55187(8)
O5 O 0.07725(15) 0.30369(12) 0.26190(8)
C1 C 0.7568(2) 0.22199(13) 0.33653(10)
H1 H 0.8071 0.2650 0.2979
C2 C 0.8756(2) 0.13054(14) 0.45995(10)
H2 H 0.9898 0.1224 0.4876
C3 C 0.8473(2) 0.04922(14) 0.39066(11)
C4 C 0.7637(2) 0.10306(16) 0.51751(11)
C5 C 0.7208(2) 0.30174(15) 0.53202(11)
C6 C 0.6629(2) 0.37899(18) 0.58193(11)
H3 H 0.6189 0.3541 0.6256
C7 C 0.7392(2) 0.52840(16) 0.50140(12)
C8 C 0.6710(2) 0.49017(18) 0.56643(13)
H4 H 0.6310 0.5423 0.5992
C9 C 0.7460(3) 0.64378(17) 0.48293(14)
H5 H 0.7041 0.6969 0.5144
C10 C 0.8122(3) 0.67858(16) 0.42021(15)
H6 H 0.8142 0.7553 0.4083
C11 C 0.8776(3) 0.60074(16) 0.37313(13)
H7 H 0.9254 0.6258 0.3307
C12 C 0.8013(2) 0.44894(14) 0.45259(10)
C13 C 0.7897(2) 0.33223(13) 0.46899(10)
C14 C 0.8721(2) 0.48886(15) 0.38880(11)
H8 H 0.9159 0.4375 0.3568
C15 C 0.85651(19) 0.24582(13) 0.42080(10)
H9 H 0.9665 0.2710 0.4141
C16 C 0.5768(2) 0.24569(13) 0.32077(9)
C17 C 0.5194(2) 0.33263(14) 0.26975(10)
H10 H 0.5945 0.3771 0.2487
C18 C 0.3540(2) 0.35555(14) 0.24898(10)
H11 H 0.3178 0.4152 0.2146
C19 C 0.2431(2) 0.28993(15) 0.27928(10)
C20 C 0.2981(2) 0.20233(14) 0.33080(11)
H12 H 0.2227 0.1577 0.3514
C21 C 0.4630(2) 0.18110(14) 0.35151(10)
H13 H 0.4992 0.1224 0.3867
C22 C 0.0186(2) 0.39559(19) 0.21131(13)
H14 H -0.0997 0.3973 0.2030
H15 H 0.0541 0.3867 0.1609
H16 H 0.0616 0.4651 0.2358
loop_
_geom_bond_atom_site_label_1
_geom_bond_atom_site_label_2
_geom_bond_site_symmetry_1
_geom_bond_site_symmetry_2
O1 C1 1_555 1_555
O2 C3 1_555 1_555
O3 C4 1_555 1_555
O4 C4 1_555 1_555
O5 C19 1_555 1_555
C1 H1 1_555 1_555
C2 H2 1_555 1_555
C3 O1 1_555 1_555
C4 C2 1_555 1_555
C5 O4 1_555 1_555
C6 C5 1_555 1_555
H3 C6 1_555 1_555
C7 C8 1_555 1_555
C8 C6 1_555 1_555
H4 C8 1_555 1_555
C9 C7 1_555 1_555
H5 C9 1_555 1_555
C10 C9 1_555 1_555
H6 C10 1_555 1_555
C11 C10 1_555 1_555
H7 C11 1_555 1_555
C12 C7 1_555 1_555
C13 C5 1_555 1_555
C14 C11 1_555 1_555
H8 C14 1_555 1_555
C15 C1 1_555 1_555
H9 C15 1_555 1_555
C16 C1 1_555 1_555
C17 C16 1_555 1_555
H10 C17 1_555 1_555
C18 C17 1_555 1_555
H11 C18 1_555 1_555
C19 C18 1_555 1_555
C20 C19 1_555 1_555
H12 C20 1_555 1_555
C21 C16 1_555 1_555
H13 C21 1_555 1_555
C22 O5 1_555 1_555
H14 C22 1_555 1_555
H15 C22 1_555 1_555
H16 C22 1_555 1_555
C2 C3 1_555 1_555
C2 C15 1_555 1_555
C12 C13 1_555 1_555
C12 C14 1_555 1_555
C13 C15 1_555 1_555
C20 C21 1_555 1_555

#END
