
#######################################################################
#
#                 Cambridge Crystallographic Data Centre
#                                CCDC 
#
#######################################################################
#
# If this CIF has been generated from an entry in the Cambridge 
# Structural Database, then it will include bibliographic, chemical, 
# crystal, experimental, refinement or atomic coordinate data resulting 
# from the CCDC's data processing and validation procedures.
#
#######################################################################

data_WUQNAX
_chemical_formula_moiety         'C12 H16 N2 O1 S1'
_chemical_name_systematic        
N-Nitroso-2,3,4,5-tetrahydro-2,2,4-trimethyl-1,5-benzothiazepine
_symmetry_cell_setting           monoclinic
_symmetry_space_group_name_H-M   'C 2/c'
_symmetry_Int_Tables_number      15
_space_group_name_Hall           '-C 2yn'
loop_
_symmetry_equiv_pos_site_id
_symmetry_equiv_pos_as_xyz
1 x,y,z
2 1/2+x,1/2+y,z
3 -x,y,1/2-z
4 1/2-x,1/2+y,1/2-z
5 -x,-y,-z
6 1/2-x,1/2-y,-z
7 x,-y,1/2+z
8 1/2+x,1/2-y,1/2+z
_cell_length_a                   31.342(5)
_cell_length_b                   6.9265(13)
_cell_length_c                   12.322(2)
_cell_angle_alpha                90
_cell_angle_beta                 110.741(4)
_cell_angle_gamma                90
_cell_volume                     2501.62
_exptl_crystal_colour            colorless
_exptl_crystal_description       irregular
_cell_formula_units_Z            8
_exptl_crystal_recrystallization_method ethanol
loop_
_atom_site_label
_atom_site_type_symbol
_atom_site_fract_x
_atom_site_fract_y
_atom_site_fract_z
S1 S 0.32293(4) 0.22004(19) 0.16002(11)
C1 C 0.31729(13) 0.4853(7) 0.1390(4)
C2 C 0.35755(13) 0.5946(6) 0.2207(4)
H1 H 0.36042(15) 0.5586(11) 0.301(2)
H2 H 0.3498(2) 0.735(4) 0.2113(4)
C3 C 0.40420(14) 0.5717(6) 0.2117(4)
N1 N 0.41926(10) 0.3668(4) 0.2311(3)
C4 C 0.44551(15) 0.2115(6) 0.4198(4)
H3 H 0.4745(14) 0.260(2) 0.4338(7)
C5 C 0.43661(17) 0.0961(7) 0.5016(4)
H4 H 0.4618(10) 0.0599(16) 0.575(3)
C6 C 0.39334(17) 0.0325(7) 0.4819(5)
H5 H 0.3873(3) -0.045(4) 0.540(3)
C7 C 0.35839(16) 0.0768(6) 0.3809(4)
H6 H 0.3303(14) 0.035(2) 0.3700(7)
C8 C 0.36640(12) 0.1865(6) 0.2951(4)
C9 C 0.41054(12) 0.2531(5) 0.3176(3)
N2 N 0.44657(11) 0.2892(6) 0.1827(3)
O1 O 0.45626(10) 0.3950(5) 0.1140(3)
C10 C 0.31142(19) 0.5181(10) 0.0137(4)
H7 H 0.3084(10) 0.650(4) -0.0025(9)
H8 H 0.2853(10) 0.454(4) -0.0339(15)
H9 H 0.3369(9) 0.471(4) -0.0003(9)
C11 C 0.27426(16) 0.5435(9) 0.1601(6)
H10 H 0.2692(6) 0.678(4) 0.146(3)
H11 H 0.2776(4) 0.515(4) 0.238(2)
H12 H 0.2489(8) 0.474(4) 0.109(2)
C12 C 0.43972(15) 0.6995(7) 0.2967(4)
H13 H 0.4412(7) 0.671(3) 0.374(2)
H14 H 0.4316(6) 0.832(4) 0.2794(16)
H15 H 0.4687(8) 0.676(3) 0.2905(19)
H16 H 0.4013(11) 0.598(5) 0.134(3)
loop_
_geom_bond_atom_site_label_1
_geom_bond_atom_site_label_2
_geom_bond_site_symmetry_1
_geom_bond_site_symmetry_2
S1 C1 1_555 1_555
C1 C2 1_555 1_555
C2 H1 1_555 1_555
H2 C2 1_555 1_555
C3 C2 1_555 1_555
N1 C3 1_555 1_555
C4 H3 1_555 1_555
C5 C4 1_555 1_555
H4 C5 1_555 1_555
C6 C5 1_555 1_555
H5 C6 1_555 1_555
C7 C6 1_555 1_555
H6 C7 1_555 1_555
C8 S1 1_555 1_555
C9 N1 1_555 1_555
N2 N1 1_555 1_555
O1 N2 1_555 1_555
C10 C1 1_555 1_555
H7 C10 1_555 1_555
H8 C10 1_555 1_555
H9 C10 1_555 1_555
C11 C1 1_555 1_555
H10 C11 1_555 1_555
H11 C11 1_555 1_555
H12 C11 1_555 1_555
C12 C3 1_555 1_555
H13 C12 1_555 1_555
H14 C12 1_555 1_555
H15 C12 1_555 1_555
H16 C3 1_555 1_555
C4 C9 1_555 1_555
C7 C8 1_555 1_555
C8 C9 1_555 1_555

#END
