
#######################################################################
#
#                 Cambridge Crystallographic Data Centre
#                                CCDC 
#
#######################################################################
#
# If this CIF has been generated from an entry in the Cambridge 
# Structural Database, then it will include bibliographic, chemical, 
# crystal, experimental, refinement or atomic coordinate data resulting 
# from the CCDC's data processing and validation procedures.
#
#######################################################################

data_WUQPUU
_chemical_formula_moiety         'C16 H36 N1 1+,F1 1-,4(C4 H10 O1)'
_chemical_name_systematic        
'Tetra-n-butylammonium fluoride tetrakis(t-butanol)'
_symmetry_cell_setting           tetragonal
_symmetry_space_group_name_H-M   'I 41/a'
_symmetry_Int_Tables_number      88
_space_group_name_Hall           '-I 4ad'
loop_
_symmetry_equiv_pos_site_id
_symmetry_equiv_pos_as_xyz
1 x,y,z
2 1/2+x,1/2+y,1/2+z
3 1/2-x,-y,1/2+z
4 -x,1/2-y,z
5 3/4-y,1/4+x,1/4+z
6 3/4+y,3/4-x,3/4+z
7 1/4-y,3/4+x,3/4+z
8 1/4+y,1/4-x,1/4+z
9 -x,-y,-z
10 1/2-x,1/2-y,1/2-z
11 1/2+x,y,1/2-z
12 x,1/2+y,-z
13 1/4+y,3/4-x,3/4-z
14 1/4-y,1/4+x,1/4-z
15 3/4+y,1/4-x,1/4-z
16 3/4-y,3/4+x,3/4-z
_cell_length_a                   19.3571(4)
_cell_length_b                   19.3571(4)
_cell_length_c                   10.3110(5)
_cell_angle_alpha                90
_cell_angle_beta                 90
_cell_angle_gamma                90
_cell_volume                     3863.5
_exptl_crystal_colour            colorless
_cell_formula_units_Z            4
_exptl_crystal_preparation       'slightly hygroscopic'
loop_
_atom_site_label
_atom_site_type_symbol
_atom_site_fract_x
_atom_site_fract_y
_atom_site_fract_z
C1 C 0.4642(1) 0.8013(1) 0.7143(1)
C2 C 0.4250(1) 0.8589(1) 0.6475(1)
C3 C 0.3890(1) 0.9035(1) 0.7473(1)
C4 C 0.3471(1) 0.9617(1) 0.6877(2)
N1 N 0.5000 0.7500 0.6250
H1 H 0.4321 0.7761 0.7689
H2 H 0.4987 0.8218 0.7705
H3 H 0.4568 0.8869 0.5973
H4 H 0.3911 0.8394 0.5886
H5 H 0.4233 0.9231 0.8050
H6 H 0.3585 0.8747 0.7988
H7 H 0.3769 0.9905 0.6366
H8 H 0.3264 0.9887 0.7554
H9 H 0.3116 0.9426 0.6334
C1C C 0.5358(1) 0.6987(1) 0.7143(1)
C1N C 0.5513(1) 0.7858(1) 0.5357(1)
C1M C 0.4487(1) 0.7142(1) 0.5357(1)
C2C C 0.5750(1) 0.6411(1) 0.6475(1)
C2N C 0.6089(1) 0.8250(1) 0.6025(1)
C2M C 0.3911(1) 0.6750(1) 0.6025(1)
C3C C 0.6110(1) 0.5965(1) 0.7473(1)
C3N C 0.6535(1) 0.8610(1) 0.5027(1)
C3M C 0.3465(1) 0.6390(1) 0.5027(1)
C4C C 0.6529(1) 0.5383(1) 0.6877(2)
C4N C 0.7117(1) 0.9029(1) 0.5623(2)
C4M C 0.2883(1) 0.5971(1) 0.5623(2)
H1C H 0.5679 0.7239 0.7689
H1N H 0.5261 0.8179 0.4811
H1M H 0.4739 0.6821 0.4811
H2C H 0.5013 0.6782 0.7705
H2N H 0.5718 0.7513 0.4795
H2M H 0.4282 0.7487 0.4795
H3C H 0.5432 0.6131 0.5973
H3N H 0.6369 0.7932 0.6527
H3M H 0.3631 0.7068 0.6527
H4C H 0.6089 0.6606 0.5886
H4N H 0.5894 0.8589 0.6614
H4M H 0.4106 0.6411 0.6614
H5C H 0.5767 0.5769 0.8050
H5N H 0.6731 0.8267 0.4450
H5M H 0.3269 0.6733 0.4450
H6C H 0.6415 0.6253 0.7988
H6N H 0.6247 0.8915 0.4512
H6M H 0.3753 0.6085 0.4512
H7C H 0.6231 0.5095 0.6366
H7N H 0.7405 0.8731 0.6134
H7M H 0.2595 0.6269 0.6134
H8C H 0.6736 0.5113 0.7554
H8N H 0.7387 0.9236 0.4946
H8M H 0.2613 0.5764 0.4946
H9C H 0.6884 0.5574 0.6334
H9N H 0.6926 0.9384 0.6166
H9M H 0.3074 0.5616 0.6166
F1 F 0.5000 0.7500 0.1250
O1 O 0.5487(3) 0.6592(3) 0.2932(6)
C5 C 0.5779(2) 0.5990(2) 0.2363(3)
C6 C 0.5731(1) 0.6005(1) 0.0893(2)
C7 C 0.6529(1) 0.5965(1) 0.2768(3)
C8 C 0.5407(2) 0.5370(2) 0.2911(3)
H10 H 0.5347 0.6850 0.2359
H11 H 0.5255 0.6024 0.0637
H12 H 0.5940 0.5595 0.0543
H13 H 0.5969 0.6404 0.0569
H14 H 0.6764 0.6367 0.2446
H15 H 0.6741 0.5558 0.2419
H16 H 0.6558 0.5956 0.3698
H17 H 0.5431 0.5381 0.3841
H18 H 0.5621 0.4955 0.2598
H19 H 0.4932 0.5380 0.2643
O2? O 0.5341(13) 0.6479(11) 0.2830(30)
C9? C 0.5678(7) 0.5903(8) 0.2249(12)
C10? C 0.5186(5) 0.5676(5) 0.1198(9)
C11? C 0.5722(9) 0.5368(7) 0.3305(14)
C12? C 0.6362(5) 0.6097(6) 0.1673(12)
H20? H 0.5250 0.6765 0.2267
H21? H 0.4746 0.5568 0.1575
H22? H 0.5368 0.5274 0.0773
H23? H 0.5131 0.6042 0.0577
H24? H 0.6076 0.5496 0.3911
H25? H 0.5831 0.4928 0.2930
H26? H 0.5286 0.5340 0.3746
H27? H 0.6289 0.6348 0.0882
H28? H 0.6622 0.5686 0.1493
H29? H 0.6612 0.6380 0.2274
loop_
_geom_bond_atom_site_label_1
_geom_bond_atom_site_label_2
_geom_bond_site_symmetry_1
_geom_bond_site_symmetry_2
C1 C2 1_555 1_555
C2 C3 1_555 1_555
C3 C4 1_555 1_555
C4 H7 1_555 1_555
N1 C1 1_555 1_555
O1 C5 1_555 1_555
C5 C6 1_555 1_555
C6 H11 1_555 1_555
C7 C5 1_555 1_555
C8 C5 1_555 1_555
H1 C1 1_555 1_555
H2 C1 1_555 1_555
H3 C2 1_555 1_555
H4 C2 1_555 1_555
H5 C3 1_555 1_555
H6 C3 1_555 1_555
H8 C4 1_555 1_555
H9 C4 1_555 1_555
H10 O1 1_555 1_555
H12 C6 1_555 1_555
H13 C6 1_555 1_555
H14 C7 1_555 1_555
H15 C7 1_555 1_555
H16 C7 1_555 1_555
H17 C8 1_555 1_555
H18 C8 1_555 1_555
H19 C8 1_555 1_555
C1C N1 1_555 1_555
C1N N1 1_555 1_555
C1M N1 1_555 1_555
C2C C1C 1_555 1_555
C2N C1N 1_555 1_555
C2M C1M 1_555 1_555
C3C C2C 1_555 1_555
C3N C2N 1_555 1_555
C3M C2M 1_555 1_555
C4C C3C 1_555 1_555
C4N C3N 1_555 1_555
C4M C3M 1_555 1_555
H1C C1C 1_555 1_555
H1N C1N 1_555 1_555
H1M C1M 1_555 1_555
H2C C1C 1_555 1_555
H2N C1N 1_555 1_555
H2M C1M 1_555 1_555
H3C C2C 1_555 1_555
H3N C2N 1_555 1_555
H3M C2M 1_555 1_555
H4C C2C 1_555 1_555
H4N C2N 1_555 1_555
H4M C2M 1_555 1_555
H5C C3C 1_555 1_555
H5N C3N 1_555 1_555
H5M C3M 1_555 1_555
H6C C3C 1_555 1_555
H6N C3N 1_555 1_555
H6M C3M 1_555 1_555
H7C C4C 1_555 1_555
H7N C4N 1_555 1_555
H7M C4M 1_555 1_555
H8C C4C 1_555 1_555
H8N C4N 1_555 1_555
H8M C4M 1_555 1_555
H9C C4C 1_555 1_555
H9N C4N 1_555 1_555
H9M C4M 1_555 1_555

#END
