
#######################################################################
#
#                 Cambridge Crystallographic Data Centre
#                                CCDC 
#
#######################################################################
#
# If this CIF has been generated from an entry in the Cambridge 
# Structural Database, then it will include bibliographic, chemical, 
# crystal, experimental, refinement or atomic coordinate data resulting 
# from the CCDC's data processing and validation procedures.
#
#######################################################################

data_WURCAO
_chemical_formula_moiety         'C28 H20 N6 O4,3(C1 H4 O1),H2 O1'
_chemical_name_systematic        
"N',N'''-(1,10-Phenanthroline-2,9-diyldimethylylidene)bis(2-hydroxybenzohydrazide) methanol solvate monohydrate"
_symmetry_cell_setting           monoclinic
_symmetry_space_group_name_H-M   'P 21/c'
_symmetry_Int_Tables_number      14
_space_group_name_Hall           '-P 2ybc'
loop_
_symmetry_equiv_pos_site_id
_symmetry_equiv_pos_as_xyz
1 x,y,z
2 -x,1/2+y,1/2-z
3 -x,-y,-z
4 x,1/2-y,1/2+z
_cell_length_a                   12.2438(11)
_cell_length_b                   11.0432(9)
_cell_length_c                   22.7842(19)
_cell_angle_alpha                90
_cell_angle_beta                 100.540(1)
_cell_angle_gamma                90
_cell_volume                     3028.69
_exptl_crystal_colour            brown
_exptl_crystal_description       block
_chemical_melting_point          '200-201 deg.C'
_cell_formula_units_Z            4
_chemical_properties_physical    air-sensitive
loop_
_atom_site_label
_atom_site_type_symbol
_atom_site_fract_x
_atom_site_fract_y
_atom_site_fract_z
O1 O 0.0020(2) 0.9964(2) 0.07944(10)
O2 O -0.1233(2) 0.8981(2) 0.14659(11)
H1 H -0.0949 0.9040 0.1168
O3 O -0.0313(2) 0.7500(2) 0.04121(12)
O4 O -0.1947(2) 0.4803(2) -0.07157(11)
H2 H -0.1267 0.4771 -0.0659
N1 N 0.2978(2) 1.0261(2) -0.01830(12)
N2 N 0.2236(2) 0.8290(2) -0.08504(11)
N3 N 0.1944(2) 1.0866(2) 0.07138(12)
N4 N 0.1473(2) 1.1106(2) 0.12017(12)
H6 H 0.1776 1.1597 0.1477
N5 N 0.0529(2) 0.7017(2) -0.05583(13)
N6 N -0.0339(2) 0.6387(2) -0.04208(13)
H7 H -0.0635 0.5805 -0.0645
C1 C 0.3343(3) 1.1219(3) 0.01496(16)
C2 C 0.4243(3) 1.1924(3) 0.00479(19)
H8 H 0.4473 1.2592 0.0287
C3 C 0.4773(3) 1.1618(4) -0.04057(19)
H9 H 0.5381 1.2067 -0.0473
C4 C 0.4407(3) 1.0636(4) -0.07688(17)
C5 C 0.4926(4) 1.0248(5) -0.1253(2)
H10 H 0.5536 1.0672 -0.1336
C6 C 0.4552(4) 0.9297(5) -0.15855(19)
H11 H 0.4907 0.9073 -0.1897
C7 C 0.3604(3) 0.8593(4) -0.14779(16)
C8 C 0.3179(4) 0.7609(4) -0.18178(17)
H12 H 0.3497 0.7369 -0.2140
C9 C 0.2296(4) 0.6990(4) -0.16842(17)
H13 H 0.1994 0.6341 -0.1920
C10 C 0.1846(3) 0.7345(3) -0.11823(15)
C11 C 0.3098(3) 0.8926(3) -0.09947(14)
C12 C 0.3489(3) 0.9967(3) -0.06371(14)
C13 C 0.2786(3) 1.1496(3) 0.06469(16)
H14 H 0.3040 1.2120 0.0911
C14 C 0.0510(3) 1.0537(3) 0.12313(14)
C15 C 0.0076(3) 1.0598(3) 0.17928(14)
C16 C -0.0768(3) 0.9795(3) 0.18776(15)
C17 C -0.1169(4) 0.9815(3) 0.24166(17)
H15 H -0.1723 0.9276 0.2475
C18 C -0.0752(4) 1.0619(4) 0.28561(16)
H16 H -0.1022 1.0621 0.3212
C19 C 0.0067(4) 1.1429(4) 0.27771(17)
H17 H 0.0340 1.1983 0.3076
C20 C 0.0476(3) 1.1412(3) 0.22548(16)
H18 H 0.1034 1.1954 0.2206
C21 C 0.0926(3) 0.6684(3) -0.10156(16)
H19 H 0.0624 0.6021 -0.1240
C22 C -0.0735(3) 0.6695(3) 0.00806(15)
C23 C -0.1721(3) 0.5998(3) 0.01803(14)
C24 C -0.2271(3) 0.5114(3) -0.02158(15)
C25 C -0.3205(3) 0.4558(3) -0.00548(18)
H20 H -0.3584 0.3974 -0.0308
C26 C -0.3574(3) 0.4837(4) 0.04538(18)
H21 H -0.4199 0.4448 0.0541
C27 C -0.3039(4) 0.5686(4) 0.08409(18)
H22 H -0.3292 0.5868 0.1191
C28 C -0.2124(3) 0.6265(3) 0.07042(16)
H23 H -0.1763 0.6847 0.0965
O5 O 0.87403(12) 0.10541(13) 0.99457(6)
H33 H 0.894(2) 0.0390(14) 0.9922(16)
H34 H 0.8190(16) 0.140(2) 0.9825(14)
O6 O 0.7652(3) 0.2301(2) 0.91335(13)
H3 H 0.8068 0.2860 0.9263
C29 C 0.7758(5) 0.2055(4) 0.8552(2)
H24 H 0.7310 0.2612 0.8287
H25 H 0.7515 0.1242 0.8452
H26 H 0.8521 0.2139 0.8513
O7 O 0.6643(4) 0.5454(5) 0.83589(18)
H4 H 0.6776 0.5518 0.8020
C30 C 0.5620(5) 0.5032(8) 0.8331(3)
H27 H 0.5341 0.5285 0.8678
H28 H 0.5630 0.4164 0.8314
H29 H 0.5149 0.5342 0.7979
O8 O 0.3017(3) 0.2409(3) 0.20803(13)
H5 H 0.3296 0.3009 0.1955
C31 C 0.3440(5) 0.2266(6) 0.2687(2)
H30 H 0.4191 0.2557 0.2773
H31 H 0.3425 0.1424 0.2790
H32 H 0.2994 0.2719 0.2915
loop_
_geom_bond_atom_site_label_1
_geom_bond_atom_site_label_2
_geom_bond_site_symmetry_1
_geom_bond_site_symmetry_2
O1 C14 1_555 1_555
O2 H1 1_555 1_555
O3 C22 1_555 1_555
O4 H2 1_555 1_555
O5 H33 1_555 1_555
O6 H3 1_555 1_555
O7 H4 1_555 1_555
O8 H5 1_555 1_555
N1 C1 1_555 1_555
N2 C10 1_555 1_555
N3 N4 1_555 1_555
N4 H6 1_555 1_555
N5 N6 1_555 1_555
N6 H7 1_555 1_555
C1 C2 1_555 1_555
C2 H8 1_555 1_555
C3 C2 1_555 1_555
H9 C3 1_555 1_555
C4 C3 1_555 1_555
C5 C4 1_555 1_555
H10 C5 1_555 1_555
C6 C5 1_555 1_555
H11 C6 1_555 1_555
C7 C6 1_555 1_555
C8 C7 1_555 1_555
H12 C8 1_555 1_555
C9 C8 1_555 1_555
H13 C9 1_555 1_555
C10 C9 1_555 1_555
C11 N2 1_555 1_555
C12 N1 1_555 1_555
C13 N3 1_555 1_555
H14 C13 1_555 1_555
C14 N4 1_555 1_555
C15 C14 1_555 1_555
C16 O2 1_555 1_555
C17 C16 1_555 1_555
H15 C17 1_555 1_555
C18 C17 1_555 1_555
H16 C18 1_555 1_555
C19 C18 1_555 1_555
H17 C19 1_555 1_555
C20 C15 1_555 1_555
H18 C20 1_555 1_555
C21 N5 1_555 1_555
H19 C21 1_555 1_555
C22 N6 1_555 1_555
C23 C22 1_555 1_555
C24 O4 1_555 1_555
C25 C24 1_555 1_555
H20 C25 1_555 1_555
C26 C25 1_555 1_555
H21 C26 1_555 1_555
C27 C26 1_555 1_555
H22 C27 1_555 1_555
C28 C23 1_555 1_555
H23 C28 1_555 1_555
C29 O6 1_555 1_555
H24 C29 1_555 1_555
H25 C29 1_555 1_555
H26 C29 1_555 1_555
C30 O7 1_555 1_555
H27 C30 1_555 1_555
H28 C30 1_555 1_555
H29 C30 1_555 1_555
C31 O8 1_555 1_555
H30 C31 1_555 1_555
H31 C31 1_555 1_555
H32 C31 1_555 1_555
H34 O5 1_555 1_555
C1 C13 1_555 1_555
C4 C12 1_555 1_555
C7 C11 1_555 1_555
C10 C21 1_555 1_555
C11 C12 1_555 1_555
C15 C16 1_555 1_555
C19 C20 1_555 1_555
C23 C24 1_555 1_555
C27 C28 1_555 1_555

#END
