
#######################################################################
#
#                 Cambridge Crystallographic Data Centre
#                                CCDC 
#
#######################################################################
#
# If this CIF has been generated from an entry in the Cambridge 
# Structural Database, then it will include bibliographic, chemical, 
# crystal, experimental, refinement or atomic coordinate data resulting 
# from the CCDC's data processing and validation procedures.
#
#######################################################################

data_WURJUQ
_chemical_formula_moiety         'C19 H19 N5 O3'
_chemical_name_systematic        
'ethyl 2-(4-acetyl-5-methyl-1H-1,2,3-triazol-1-yl)-4-methyl-6-phenylpyrimidine-5-carboxylate'
_symmetry_cell_setting           triclinic
_symmetry_space_group_name_H-M   'P -1'
_symmetry_Int_Tables_number      2
_space_group_name_Hall           '-P 1'
loop_
_symmetry_equiv_pos_site_id
_symmetry_equiv_pos_as_xyz
1 x,y,z
2 -x,-y,-z
_cell_length_a                   10.6636(9)
_cell_length_b                   12.2018(11)
_cell_length_c                   14.3936(12)
_cell_angle_alpha                84.083(7)
_cell_angle_beta                 87.946(7)
_cell_angle_gamma                85.810(7)
_cell_volume                     1857.11
_exptl_crystal_colour            'light yellow'
_exptl_crystal_description       block
_cell_formula_units_Z            4
loop_
_atom_site_label
_atom_site_type_symbol
_atom_site_fract_x
_atom_site_fract_y
_atom_site_fract_z
O1 O 0.5043(3) -0.3574(2) 0.1611(2)
O2 O 0.2508(3) 0.4724(3) 0.0380(3)
O3 O 0.1735(4) 0.3957(3) 0.1796(3)
N1 N 0.6792(3) -0.1167(3) 0.1423(2)
N2 N 0.6399(3) -0.0139(3) 0.1299(2)
N3 N 0.5116(3) -0.0093(2) 0.1201(2)
N4 N 0.3228(3) 0.0953(2) 0.0994(2)
N5 N 0.5132(3) 0.1816(2) 0.1076(2)
C1 C 0.7247(4) -0.3526(3) 0.1682(3)
H1 H 0.7460 -0.3578 0.2328
H2 H 0.7820 -0.3073 0.1316
H3 H 0.7305 -0.4251 0.1474
C2 C 0.5942(5) -0.3025(3) 0.1570(3)
C3 C 0.5781(4) -0.1805(3) 0.1421(3)
C4 C 0.4709(3) -0.1131(3) 0.1280(2)
C5 C 0.3385(4) -0.1419(3) 0.1213(3)
H4 H 0.2883 -0.1132 0.1711
H5 H 0.3358 -0.2208 0.1260
H6 H 0.3060 -0.1105 0.0624
C6 C 0.4455(3) 0.0962(3) 0.1088(2)
C7 C 0.4498(4) 0.2802(3) 0.1016(2)
C8 C 0.3185(3) 0.2899(3) 0.0976(2)
C9 C 0.2568(3) 0.1933(3) 0.0936(2)
C10 C 0.0416(5) 0.2696(5) 0.0410(4)
H7 H 0.0770 0.3322 0.0119
C11 C -0.1391(3) 0.1753(4) 0.0774(3)
H8 H -0.2262 0.1739 0.0803
C12 C 0.1194(3) 0.1894(3) 0.0841(3)
C13 C -0.0864(5) 0.2649(5) 0.0374(4)
H9 H -0.1355 0.3233 0.0075
C14 C -0.0652(5) 0.0840(5) 0.1148(4)
H10 H -0.1013 0.0190 0.1372
C15 C 0.0627(5) 0.0922(4) 0.1179(4)
H11 H 0.1130 0.0317 0.1432
C16 C 0.2507(4) 0.4005(4) 0.0985(4)
C17 C 0.0902(8) 0.4940(6) 0.1911(6)
H12 H 0.1384 0.5538 0.2063
H13 H 0.0467 0.5176 0.1336
C18 C 0.0017(9) 0.4664(7) 0.2648(6)
H14 H -0.0483 0.4097 0.2478
H15 H -0.0520 0.5308 0.2757
H16 H 0.0458 0.4403 0.3207
C19 C 0.5280(4) 0.3774(3) 0.1004(3)
H17 H 0.6021 0.3565 0.1358
H18 H 0.4801 0.4363 0.1277
H19 H 0.5519 0.4016 0.0371
O5 O 0.5031(3) 0.1855(3) 0.3626(3)
O6 O 0.2685(3) 1.0071(3) 0.3293(3)
O7 O 0.2365(4) 0.9625(3) 0.4788(3)
N6 N 0.6867(3) 0.4164(3) 0.3674(2)
N7 N 0.6516(3) 0.5181(3) 0.3789(2)
N8 N 0.5222(3) 0.5264(2) 0.38263(19)
N9 N 0.3350(3) 0.6346(2) 0.3912(2)
N10 N 0.5319(3) 0.7160(2) 0.38442(19)
C26 C 0.7186(4) 0.1908(3) 0.3214(3)
H30 H 0.7724 0.1774 0.3740
H31 H 0.7558 0.2411 0.2744
H32 H 0.7082 0.1224 0.2960
C27 C 0.5946(4) 0.2392(3) 0.3516(3)
C28 C 0.5827(3) 0.3573(3) 0.3667(2)
C29 C 0.4777(3) 0.4259(3) 0.3770(2)
C30 C 0.3433(4) 0.4006(3) 0.3818(4)
H33 H 0.3048 0.4225 0.4390
H34 H 0.3375 0.3227 0.3799
H35 H 0.3006 0.4402 0.3296
C31 C 0.4588(3) 0.6330(3) 0.3867(2)
C32 C 0.4718(3) 0.8154(3) 0.3865(2)
C33 C 0.3405(3) 0.8288(3) 0.3910(3)
C34 C 0.2739(3) 0.7351(3) 0.3925(2)
C35 C 0.1358(3) 0.7359(3) 0.3948(3)
C36 C 0.0619(4) 0.8079(3) 0.3365(3)
H36 H 0.0996 0.8612 0.2961
C37 C -0.0674(4) 0.8027(4) 0.3367(4)
H37 H -0.1159 0.8523 0.2970
C38 C -0.1233(4) 0.7244(4) 0.3955(4)
H38 H -0.2098 0.7188 0.3945
C39 C -0.0520(4) 0.6542(4) 0.4558(3)
H39 H -0.0909 0.6031 0.4976
C40 C 0.0769(4) 0.6581(3) 0.4556(3)
H40 H 0.1245 0.6088 0.4962
C41 C 0.2753(5) 0.9406(4) 0.4028(5)
C42 C 0.2032(7) 1.1181(5) 0.3546(5)
H41 H 0.2131 1.1745 0.3027
H42 H 0.2426 1.1412 0.4084
C43 C 0.0544(13) 1.1055(15) 0.3781(15)
H43 H 0.0145 1.0871 0.3236
H44 H 0.0162 1.1739 0.3965
H45 H 0.0447 1.0479 0.4280
C44 C 0.5526(3) 0.9105(3) 0.3869(3)
H46 H 0.5813 0.9137 0.4490
H47 H 0.5047 0.9780 0.3671
H48 H 0.6237 0.9008 0.3450
O4? O 0.2553(12) 0.4582(11) 0.1664(9)
C20? C -0.0917(3) 0.2655(6) 0.1121(8)
H20? H -0.1464 0.3212 0.1331
H21? H -0.2256 0.1705 0.0752
C21? C -0.0573(4) 0.0921(6) 0.0460(9)
H22? H -0.0890 0.0317 0.0228
C22? C 0.0719(4) 0.0992(6) 0.0494(9)
H23? H 0.1267 0.0435 0.0284
C23? C 0.0376(4) 0.2726(6) 0.1155(8)
H24? H 0.0693 0.3330 0.1387
C24? C 0.2036(19) 0.5730(17) 0.1636(15)
H25? H 0.2370 0.6064 0.2149
H26? H 0.2321 0.6130 0.1059
C25? C 0.072(2) 0.585(2) 0.169(2)
H27? H 0.0385 0.5710 0.1113
H28? H 0.0461 0.6595 0.1821
H29? H 0.0419 0.5343 0.2188
C45? C 0.1753(14) 1.0870(11) 0.4423(11)
H49? H 0.1380 1.1146 0.4985
H50? H 0.2482 1.1292 0.4268
C46? C 0.077(4) 1.133(3) 0.362(2)
H51? H 0.1131 1.1190 0.3023
H52? H 0.0595 1.2109 0.3644
H53? H 0.0007 1.0961 0.3732
loop_
_geom_bond_atom_site_label_1
_geom_bond_atom_site_label_2
_geom_bond_site_symmetry_1
_geom_bond_site_symmetry_2
O1 C2 1_555 1_555
O2 C16 1_555 1_555
O3 C16 1_555 1_555
N1 N2 1_555 1_555
N2 N3 1_555 1_555
N3 C4 1_555 1_555
N4 C6 1_555 1_555
N5 C6 1_555 1_555
C1 H1 1_555 1_555
H2 C1 1_555 1_555
H3 C1 1_555 1_555
C2 C1 1_555 1_555
C3 N1 1_555 1_555
C4 C3 1_555 1_555
C5 C4 1_555 1_555
H4 C5 1_555 1_555
H5 C5 1_555 1_555
H6 C5 1_555 1_555
C6 N3 1_555 1_555
C7 N5 1_555 1_555
C8 C7 1_555 1_555
C9 N4 1_555 1_555
C10 H7 1_555 1_555
C11 H8 1_555 1_555
C12 C9 1_555 1_555
C13 C10 1_555 1_555
H9 C13 1_555 1_555
C14 C11 1_555 1_555
H10 C14 1_555 1_555
C15 C12 1_555 1_555
H11 C15 1_555 1_555
C16 C8 1_555 1_555
C17 O3 1_555 1_555
H12 C17 1_555 1_555
H13 C17 1_555 1_555
C18 C17 1_555 1_555
H14 C18 1_555 1_555
H15 C18 1_555 1_555
H16 C18 1_555 1_555
C19 C7 1_555 1_555
H17 C19 1_555 1_555
H18 C19 1_555 1_555
H19 C19 1_555 1_555
O5 C27 1_555 1_555
O6 C41 1_555 1_555
O7 C41 1_555 1_555
N6 N7 1_555 1_555
N7 N8 1_555 1_555
N8 C29 1_555 1_555
N9 C31 1_555 1_555
N10 C31 1_555 1_555
C26 H30 1_555 1_555
H31 C26 1_555 1_555
H32 C26 1_555 1_555
C27 C26 1_555 1_555
C28 N6 1_555 1_555
C29 C28 1_555 1_555
C30 C29 1_555 1_555
H33 C30 1_555 1_555
H34 C30 1_555 1_555
H35 C30 1_555 1_555
C31 N8 1_555 1_555
C32 N10 1_555 1_555
C33 C32 1_555 1_555
C34 N9 1_555 1_555
C35 C34 1_555 1_555
C36 C35 1_555 1_555
H36 C36 1_555 1_555
C37 C36 1_555 1_555
H37 C37 1_555 1_555
C38 C37 1_555 1_555
H38 C38 1_555 1_555
C39 C38 1_555 1_555
H39 C39 1_555 1_555
C40 C35 1_555 1_555
H40 C40 1_555 1_555
C41 C33 1_555 1_555
C42 O6 1_555 1_555
H41 C42 1_555 1_555
H42 C42 1_555 1_555
C43 C42 1_555 1_555
H43 C43 1_555 1_555
H44 C43 1_555 1_555
H45 C43 1_555 1_555
C44 C32 1_555 1_555
H46 C44 1_555 1_555
H47 C44 1_555 1_555
H48 C44 1_555 1_555
C2 C3 1_555 1_555
C8 C9 1_555 1_555
C10 C12 1_555 1_555
C11 C13 1_555 1_555
C14 C15 1_555 1_555
C27 C28 1_555 1_555
C33 C34 1_555 1_555
C39 C40 1_555 1_555

#END
