
#######################################################################
#
#                 Cambridge Crystallographic Data Centre
#                                CCDC 
#
#######################################################################
#
# If this CIF has been generated from an entry in the Cambridge 
# Structural Database, then it will include bibliographic, chemical, 
# crystal, experimental, refinement or atomic coordinate data resulting 
# from the CCDC's data processing and validation procedures.
#
#######################################################################

data_WURJOK
_chemical_formula_moiety         'C13 H15 Cl2 N1 O2'
_chemical_name_systematic        
2,2-dichloro-1-(2,2-dimethyl-5-phenyl-1,3-oxazolidin-3-yl)ethanone
_symmetry_cell_setting           orthorhombic
_symmetry_space_group_name_H-M   'P 21 21 21'
_symmetry_Int_Tables_number      19
_space_group_name_Hall           'P 2ac 2ab'
loop_
_symmetry_equiv_pos_site_id
_symmetry_equiv_pos_as_xyz
1 x,y,z
2 1/2-x,-y,1/2+z
3 -x,1/2+y,1/2-z
4 1/2+x,1/2-y,-z
_cell_length_a                   8.292(3)
_cell_length_b                   9.959(3)
_cell_length_c                   16.982(5)
_cell_angle_alpha                90
_cell_angle_beta                 90
_cell_angle_gamma                90
_cell_volume                     1402.37
_exptl_crystal_description       block
_cell_formula_units_Z            4
loop_
_atom_site_label
_atom_site_type_symbol
_atom_site_fract_x
_atom_site_fract_y
_atom_site_fract_z
Cl1 Cl 0.75833(9) 0.13301(9) 0.35844(5)
Cl2 Cl 0.74818(9) 0.23153(8) 0.19806(4)
N1 N 0.3844(2) 0.2130(2) 0.34686(12)
O1 O 0.1734(2) 0.20428(19) 0.43250(11)
O2 O 0.4985(2) 0.37989(19) 0.27586(10)
C1 C 0.1520(6) -0.2075(4) 0.5980(3)
H1 H 0.1435 -0.2696 0.6387
C2 C 0.0728(5) -0.2297(4) 0.5286(3)
H2 H 0.0102 -0.3065 0.5225
C3 C 0.0854(4) -0.1378(3) 0.4672(2)
H3 H 0.0294 -0.1519 0.4204
C4 C 0.1811(3) -0.0260(3) 0.47594(17)
C5 C 0.2574(5) -0.0036(4) 0.54646(18)
H4 H 0.3190 0.0736 0.5532
C6 C 0.2434(6) -0.0952(4) 0.6078(2)
H5 H 0.2961 -0.0798 0.6553
C7 C 0.2020(3) 0.0695(3) 0.40726(17)
H6 H 0.1291 0.0454 0.3641
C8 C 0.3769(3) 0.0750(3) 0.37818(18)
H7 H 0.4528 0.0618 0.4209
H8 H 0.3969 0.0088 0.3374
C9 C 0.2494(3) 0.2951(2) 0.37951(14)
C10 C 0.4986(3) 0.2640(2) 0.29994(13)
C11 C 0.6326(3) 0.1658(3) 0.27593(14)
H9 H 0.5831 0.0813 0.2587
C12 C 0.1349(4) 0.3369(4) 0.3142(2)
H10 H 0.0955 0.2585 0.2876
H11 H 0.1910 0.3932 0.2773
H12 H 0.0459 0.3857 0.3363
C13 C 0.3106(4) 0.4121(3) 0.42916(18)
H13 H 0.2211 0.4551 0.4547
H14 H 0.3646 0.4757 0.3958
H15 H 0.3845 0.3793 0.4682
loop_
_geom_bond_atom_site_label_1
_geom_bond_atom_site_label_2
_geom_bond_site_symmetry_1
_geom_bond_site_symmetry_2
Cl1 C11 1_555 1_555
Cl2 C11 1_555 1_555
N1 C8 1_555 1_555
O1 C7 1_555 1_555
O2 C10 1_555 1_555
C1 H1 1_555 1_555
C2 C1 1_555 1_555
H2 C2 1_555 1_555
C3 C2 1_555 1_555
H3 C3 1_555 1_555
C4 C3 1_555 1_555
C5 C4 1_555 1_555
H4 C5 1_555 1_555
C6 C1 1_555 1_555
H5 C6 1_555 1_555
C7 C4 1_555 1_555
H6 C7 1_555 1_555
C8 C7 1_555 1_555
H7 C8 1_555 1_555
H8 C8 1_555 1_555
C9 N1 1_555 1_555
C10 N1 1_555 1_555
C11 C10 1_555 1_555
H9 C11 1_555 1_555
C12 C9 1_555 1_555
H10 C12 1_555 1_555
H11 C12 1_555 1_555
H12 C12 1_555 1_555
C13 C9 1_555 1_555
H13 C13 1_555 1_555
H14 C13 1_555 1_555
H15 C13 1_555 1_555
O1 C9 1_555 1_555
C5 C6 1_555 1_555

#END
