
#######################################################################
#
#                 Cambridge Crystallographic Data Centre
#                                CCDC 
#
#######################################################################
#
# If this CIF has been generated from an entry in the Cambridge 
# Structural Database, then it will include bibliographic, chemical, 
# crystal, experimental, refinement or atomic coordinate data resulting 
# from the CCDC's data processing and validation procedures.
#
#######################################################################

data_WURJIE
_chemical_formula_moiety         'C7 H7 N2 S1 1+,N1 O3 1-'
_chemical_name_systematic        '2-amino-1,3-benzothiazol-3-ium nitrate'
_symmetry_cell_setting           triclinic
_symmetry_space_group_name_H-M   'P -1'
_symmetry_Int_Tables_number      2
_space_group_name_Hall           '-P 1'
loop_
_symmetry_equiv_pos_site_id
_symmetry_equiv_pos_as_xyz
1 x,y,z
2 -x,-y,-z
_cell_length_a                   7.0189(6)
_cell_length_b                   10.0370(10)
_cell_length_c                   13.6661(12)
_cell_angle_alpha                73.0970(10)
_cell_angle_beta                 76.9230(10)
_cell_angle_gamma                84.041(2)
_cell_volume                     896.53
_exptl_crystal_colour            colorless
_exptl_crystal_description       needle
_cell_formula_units_Z            4
loop_
_atom_site_label
_atom_site_type_symbol
_atom_site_fract_x
_atom_site_fract_y
_atom_site_fract_z
N1 N 0.9308(7) 0.2952(5) 0.1336(4)
H1 H 1.0369 0.2455 0.1407
N2 N 0.7584(8) 0.1146(5) 0.1248(4)
H2 H 0.8583 0.0579 0.1314
H3 H 0.6515 0.0861 0.1186
S1 S 0.5781(2) 0.36596(16) 0.11389(13)
C1 C 0.7689(8) 0.2429(6) 0.1243(4)
C2 C 0.9146(8) 0.4344(6) 0.1311(4)
C3 C 0.7279(8) 0.4936(6) 0.1187(4)
C4 C 0.6859(10) 0.6322(6) 0.1114(5)
H4 H 0.5638 0.6721 0.1012
C5 C 0.8298(12) 0.7125(8) 0.1197(5)
H5 H 0.8025 0.8063 0.1161
C6 C 1.0076(11) 0.6552(7) 0.1329(5)
H6 H 1.1017 0.7100 0.1383
C7 C 1.0521(9) 0.5167(7) 0.1386(5)
H7 H 1.1757 0.4788 0.1475
N3 N 0.2571(6) 0.8873(4) 0.3766(3)
H8 H 0.1472 0.9341 0.3785
N4 N 0.4331(7) 1.0722(4) 0.3749(4)
H9 H 0.3287 1.1253 0.3772
H10 H 0.5433 1.1040 0.3732
S2 S 0.62066(19) 0.82322(14) 0.37135(12)
C8 C 0.4240(7) 0.9403(5) 0.3740(4)
C9 C 0.2782(7) 0.7461(5) 0.3758(4)
C10 C 0.4691(8) 0.6957(5) 0.3721(4)
C11 C 0.5224(9) 0.5563(6) 0.3718(4)
H11 H 0.6504 0.5206 0.3702
C12 C 0.3674(10) 0.4740(6) 0.3742(4)
H12 H 0.3953 0.3817 0.3734
C13 C 0.1809(9) 0.5253(6) 0.3775(5)
H13 H 0.0841 0.4677 0.3788
C14 C 0.1306(9) 0.6641(6) 0.3791(5)
H14 H 0.0021 0.6991 0.3821
N5 N 0.9008(6) 0.1667(5) 0.3768(3)
O1 O 0.8953(6) 0.0419(4) 0.3772(4)
O2 O 1.0591(6) 0.2137(5) 0.3781(5)
O3 O 0.7485(6) 0.2394(4) 0.3766(3)
N6 N 0.2868(8) 0.0169(5) 0.1273(4)
O4 O 0.1392(7) -0.0284(5) 0.1260(5)
O5 O 0.4420(7) -0.0590(5) 0.1243(4)
O6 O 0.2890(7) 0.1364(4) 0.1375(4)
loop_
_geom_bond_atom_site_label_1
_geom_bond_atom_site_label_2
_geom_bond_site_symmetry_1
_geom_bond_site_symmetry_2
N1 H1 1_555 1_555
N2 H2 1_555 1_555
H3 N2 1_555 1_555
S1 C1 1_555 1_555
C1 N1 1_555 1_555
C2 N1 1_555 1_555
C3 S1 1_555 1_555
C4 C3 1_555 1_555
H4 C4 1_555 1_555
C5 C4 1_555 1_555
H5 C5 1_555 1_555
C6 C5 1_555 1_555
H6 C6 1_555 1_555
C7 C2 1_555 1_555
H7 C7 1_555 1_555
N3 H8 1_555 1_555
N4 H9 1_555 1_555
H10 N4 1_555 1_555
S2 C8 1_555 1_555
C8 N3 1_555 1_555
C9 N3 1_555 1_555
C10 S2 1_555 1_555
C11 C10 1_555 1_555
H11 C11 1_555 1_555
C12 C11 1_555 1_555
H12 C12 1_555 1_555
C13 C12 1_555 1_555
H13 C13 1_555 1_555
C14 C9 1_555 1_555
H14 C14 1_555 1_555
N5 O1 1_555 1_555
O2 N5 1_555 1_555
O3 N5 1_555 1_555
N6 O4 1_555 1_555
O5 N6 1_555 1_555
O6 N6 1_555 1_555
N2 C1 1_555 1_555
C2 C3 1_555 1_555
C6 C7 1_555 1_555
N4 C8 1_555 1_555
C9 C10 1_555 1_555
C13 C14 1_555 1_555

#END
