
#######################################################################
#
#                 Cambridge Crystallographic Data Centre
#                                CCDC 
#
#######################################################################
#
# If this CIF has been generated from an entry in the Cambridge 
# Structural Database, then it will include bibliographic, chemical, 
# crystal, experimental, refinement or atomic coordinate data resulting 
# from the CCDC's data processing and validation procedures.
#
#######################################################################

data_WURLUS
_chemical_formula_moiety         'C22 H22 Cl1 N3 O1'
_chemical_name_systematic        
6'-chloro-5-ethyl-2-phenyl-1',2',3',3a'-tetrahydro-5'H-spiro[pyrazole-4,4'-pyrrolo[1,2-a]quinolin]-3(2H)-one
_symmetry_cell_setting           triclinic
_symmetry_space_group_name_H-M   'P -1'
_symmetry_Int_Tables_number      2
_space_group_name_Hall           '-P 1'
loop_
_symmetry_equiv_pos_site_id
_symmetry_equiv_pos_as_xyz
1 x,y,z
2 -x,-y,-z
_cell_length_a                   9.4578(5)
_cell_length_b                   9.4805(5)
_cell_length_c                   11.6473(6)
_cell_angle_alpha                111.339(3)
_cell_angle_beta                 91.870(3)
_cell_angle_gamma                99.568(3)
_cell_volume                     954.28
_exptl_crystal_colour            colorless
_exptl_crystal_description       block
_cell_formula_units_Z            2
loop_
_atom_site_label
_atom_site_type_symbol
_atom_site_fract_x
_atom_site_fract_y
_atom_site_fract_z
Cl1 Cl 0.44391(6) 0.33623(8) 0.27302(7)
N1 N -0.0585(2) 0.2182(2) 0.04822(15)
N2 N -0.17629(18) 0.23172(18) 0.42560(14)
N3 N -0.17245(18) 0.37599(17) 0.41559(14)
O1 O -0.0784(2) 0.01467(17) 0.32880(15)
C1 C 0.1790(2) 0.2847(2) 0.15486(18)
C2 C -0.0979(2) 0.3804(2) 0.32663(15)
C3 C -0.2605(2) 0.1963(2) 0.51384(16)
C4 C -0.0429(2) 0.2348(2) 0.26405(16)
C5 C -0.0697(3) 0.5209(2) 0.29413(18)
H1 H -0.0970 0.4902 0.2062
H2 H 0.0331 0.5624 0.3093
C6 C 0.0859(2) 0.2689(2) 0.05154(17)
C7 C -0.0983(2) 0.1421(2) 0.34198(17)
C8 C -0.1125(2) 0.1412(2) 0.12961(17)
H3 H -0.0866 0.0389 0.1016
C9 C 0.1207(2) 0.2523(3) 0.26420(18)
H4 H 0.1656 0.3357 0.3400
H5 H 0.1481 0.1583 0.2646
C10 C 0.3248(3) 0.3270(3) 0.1511(2)
C11 C -0.3592(3) 0.2862(3) 0.5668(2)
H6 H -0.3689 0.3706 0.5465
C12 C -0.2459(3) 0.0711(3) 0.5443(2)
H7 H -0.1780 0.0114 0.5101
C13 C 0.1438(3) 0.3058(3) -0.0455(2)
H8 H 0.0829 0.3006 -0.1118
C14 C 0.3815(3) 0.3604(3) 0.0534(3)
H9 H 0.4805 0.3896 0.0539
C15 C -0.4324(3) 0.1231(4) 0.6782(2)
H10 H -0.4920 0.0970 0.7322
C16 C -0.3341(3) 0.0362(3) 0.6267(2)
H11 H -0.3256 -0.0484 0.6471
C17 C -0.2752(3) 0.1214(3) 0.1073(2)
H12 H -0.3093 0.2098 0.1638
H13 H -0.3237 0.0291 0.1179
C18 C -0.1665(3) 0.1988(3) -0.0508(2)
H14 H -0.1369 0.1426 -0.1310
H15 H -0.1825 0.2982 -0.0487
C19 C -0.1486(3) 0.6476(2) 0.3650(2)
H16 H -0.1252 0.7328 0.3386
H17 H -0.1200 0.6816 0.4521
H18 H -0.2506 0.6087 0.3492
C20 C -0.4436(3) 0.2496(3) 0.6502(2)
H19 H -0.5087 0.3114 0.6879
C21 C 0.2898(4) 0.3495(3) -0.0430(3)
H20 H 0.3269 0.3721 -0.1087
C22 C -0.3012(3) 0.1083(3) -0.0260(2)
H21 H -0.3172 0.0012 -0.0821
H22 H -0.3847 0.1512 -0.0366
H23? H -0.2131 0.4486 0.4613
loop_
_geom_bond_atom_site_label_1
_geom_bond_atom_site_label_2
_geom_bond_site_symmetry_1
_geom_bond_site_symmetry_2
Cl1 C10 1_555 1_555
N1 C6 1_555 1_555
N2 N3 1_555 1_555
N3 C2 1_555 1_555
O1 C7 1_555 1_555
C1 C6 1_555 1_555
C2 C4 1_555 1_555
C3 N2 1_555 1_555
C4 C7 1_555 1_555
C5 C2 1_555 1_555
H1 C5 1_555 1_555
H2 C5 1_555 1_555
C6 C13 1_555 1_555
C7 N2 1_555 1_555
C8 N1 1_555 1_555
H3 C8 1_555 1_555
C9 C1 1_555 1_555
H4 C9 1_555 1_555
H5 C9 1_555 1_555
C10 C1 1_555 1_555
C11 C3 1_555 1_555
H6 C11 1_555 1_555
C12 C3 1_555 1_555
H7 C12 1_555 1_555
C13 H8 1_555 1_555
C14 C10 1_555 1_555
H9 C14 1_555 1_555
C15 H10 1_555 1_555
C16 C12 1_555 1_555
H11 C16 1_555 1_555
C17 C8 1_555 1_555
H12 C17 1_555 1_555
H13 C17 1_555 1_555
C18 N1 1_555 1_555
H14 C18 1_555 1_555
H15 C18 1_555 1_555
C19 C5 1_555 1_555
H16 C19 1_555 1_555
H17 C19 1_555 1_555
H18 C19 1_555 1_555
C20 C11 1_555 1_555
H19 C20 1_555 1_555
C21 C13 1_555 1_555
H20 C21 1_555 1_555
C22 C17 1_555 1_555
H21 C22 1_555 1_555
H22 C22 1_555 1_555
C4 C8 1_555 1_555
C4 C9 1_555 1_555
C14 C21 1_555 1_555
C15 C16 1_555 1_555
C15 C20 1_555 1_555
C18 C22 1_555 1_555

#END
