
#######################################################################
#
#                 Cambridge Crystallographic Data Centre
#                                CCDC 
#
#######################################################################
#
# If this CIF has been generated from an entry in the Cambridge 
# Structural Database, then it will include bibliographic, chemical, 
# crystal, experimental, refinement or atomic coordinate data resulting 
# from the CCDC's data processing and validation procedures.
#
#######################################################################

data_WURSAE
_chemical_formula_moiety         'C18 H16 N9 1+,Cl1 O4 1-'
_chemical_name_systematic        
'2-(6-(Pyrazin-2-ylamino)pyridin-2-ylamino)-6-(pyrazin-2-ylamino)pyridinium perchlorate'
_symmetry_cell_setting           monoclinic
_symmetry_space_group_name_H-M   'P 21/n'
_symmetry_Int_Tables_number      14
_space_group_name_Hall           '-P 2yn'
loop_
_symmetry_equiv_pos_site_id
_symmetry_equiv_pos_as_xyz
1 x,y,z
2 1/2-x,1/2+y,1/2-z
3 -x,-y,-z
4 1/2+x,1/2-y,1/2+z
_cell_length_a                   7.0541(5)
_cell_length_b                   14.4274(11)
_cell_length_c                   18.9093(15)
_cell_angle_alpha                90
_cell_angle_beta                 98.041(3)
_cell_angle_gamma                90
_cell_volume                     1905.52
_exptl_crystal_colour            red
_exptl_crystal_description       prism
_cell_formula_units_Z            4
loop_
_atom_site_label
_atom_site_type_symbol
_atom_site_fract_x
_atom_site_fract_y
_atom_site_fract_z
C1 C 0.1361(3) 0.89562(17) 0.39811(12)
H1 H 0.2050 0.9419 0.4246
C2 C 0.0804(3) 0.90996(17) 0.32634(12)
H2 H 0.1124 0.9652 0.3056
C3 C -0.0610(3) 0.76753(17) 0.31794(12)
H3 H -0.1279 0.7208 0.2913
C4 C -0.0057(3) 0.75433(16) 0.39142(12)
C5 C -0.0128(3) 0.64500(16) 0.49261(12)
C6 C -0.1343(4) 0.59019(16) 0.52560(13)
H4 H -0.2540 0.5735 0.5019
C7 C -0.0738(4) 0.56040(17) 0.59522(13)
H5 H -0.1546 0.5234 0.6181
C8 C 0.1026(3) 0.58457(17) 0.63085(13)
H6 H 0.1417 0.5637 0.6771
C9 C 0.2218(3) 0.64081(16) 0.59655(12)
C10 C 0.5289(3) 0.72875(17) 0.60619(12)
C11 C 0.6845(3) 0.75861(17) 0.65432(13)
H7 H 0.7036 0.7376 0.7013
C12 C 0.8087(3) 0.82023(18) 0.62990(13)
H8 H 0.9130 0.8422 0.6609
C13 C 0.7802(3) 0.85011(18) 0.55961(13)
H9 H 0.8644 0.8915 0.5427
C14 C 0.6219(3) 0.81622(16) 0.51531(12)
C15 C 0.6239(3) 0.91895(17) 0.40921(12)
N1 N 0.7024(3) 0.99003(14) 0.44721(10)
C16 C 0.6928(3) 1.07069(18) 0.33659(13)
H10 H 0.7203 1.1248 0.3133
N2 N 0.6129(3) 0.99911(15) 0.29809(10)
N3 N 0.0951(3) 0.81747(13) 0.43173(10)
N4 N -0.0201(3) 0.84486(15) 0.28555(10)
N5 N -0.0583(3) 0.67291(14) 0.42252(11)
N6 N 0.3956(3) 0.66877(14) 0.62989(11)
N7 N 0.4967(3) 0.75591(13) 0.53754(10)
N8 N 0.5821(3) 0.83835(16) 0.44311(11)
C17 C 0.5791(3) 0.92404(17) 0.33415(12)
H11 H 0.5241 0.8729 0.3094
C18 C 0.7351(3) 1.06593(18) 0.40987(13)
H12 H 0.7885 1.1176 0.4345
N9 N 0.1618(3) 0.66845(14) 0.52826(10)
H13 H 0.521(4) 0.8065(19) 0.4234(14)
H14 H -0.144(4) 0.6478(18) 0.3992(14)
H15 H 0.424(4) 0.6572(18) 0.6765(15)
H16 H 0.238(4) 0.703(2) 0.5091(15)
Cl1 Cl 0.43570(8) 0.61909(4) 0.33762(3)
O1 O 0.6222(3) 0.59512(15) 0.32285(11)
O2 O 0.4246(3) 0.60109(17) 0.41156(10)
O3 O 0.2950(2) 0.56716(13) 0.29250(9)
O4 O 0.4030(3) 0.71637(14) 0.32486(12)
loop_
_geom_bond_atom_site_label_1
_geom_bond_atom_site_label_2
_geom_bond_site_symmetry_1
_geom_bond_site_symmetry_2
C1 H1 1_555 1_555
C2 C1 1_555 1_555
H2 C2 1_555 1_555
C3 H3 1_555 1_555
C4 C3 1_555 1_555
C5 C6 1_555 1_555
C6 H4 1_555 1_555
C7 C6 1_555 1_555
H5 C7 1_555 1_555
C8 C7 1_555 1_555
H6 C8 1_555 1_555
C9 C8 1_555 1_555
C10 C11 1_555 1_555
C11 H7 1_555 1_555
C12 C11 1_555 1_555
H8 C12 1_555 1_555
C13 C12 1_555 1_555
H9 C13 1_555 1_555
C14 C13 1_555 1_555
C15 N1 1_555 1_555
N1 C18 1_555 1_555
C16 H10 1_555 1_555
N2 C16 1_555 1_555
N3 C1 1_555 1_555
N4 C2 1_555 1_555
N5 C4 1_555 1_555
N6 C9 1_555 1_555
N7 C10 1_555 1_555
N8 C14 1_555 1_555
C17 C15 1_555 1_555
H11 C17 1_555 1_555
C18 C16 1_555 1_555
H12 C18 1_555 1_555
Cl1 O1 1_555 1_555
O2 Cl1 1_555 1_555
O3 Cl1 1_555 1_555
O4 Cl1 1_555 1_555
N9 C5 1_555 1_555
H13 N8 1_555 1_555
H14 N5 1_555 1_555
H15 N6 1_555 1_555
H16 N9 1_555 1_555
C3 N4 1_555 1_555
C4 N3 1_555 1_555
C5 N5 1_555 1_555
C9 N9 1_555 1_555
C10 N6 1_555 1_555
C14 N7 1_555 1_555
C15 N8 1_555 1_555
N2 C17 1_555 1_555

#END
