
#######################################################################
#
#                 Cambridge Crystallographic Data Centre
#                                CCDC 
#
#######################################################################
#
# If this CIF has been generated from an entry in the Cambridge 
# Structural Database, then it will include bibliographic, chemical, 
# crystal, experimental, refinement or atomic coordinate data resulting 
# from the CCDC's data processing and validation procedures.
#
#######################################################################

data_WURTOU
_chemical_formula_moiety         'C18 H26 N2 O1 S1'
_chemical_name_systematic        
2-(3-ethyl-2,2-dimethylcyclobutyl)-N-((2-methylphenyl)carbamothioyl)acetamide
_symmetry_cell_setting           monoclinic
_symmetry_space_group_name_H-M   'P 21/c'
_symmetry_Int_Tables_number      14
_space_group_name_Hall           '-P 2ybc'
loop_
_symmetry_equiv_pos_site_id
_symmetry_equiv_pos_as_xyz
1 x,y,z
2 -x,1/2+y,1/2-z
3 -x,-y,-z
4 x,1/2-y,1/2+z
_cell_length_a                   14.335(3)
_cell_length_b                   9.7100(19)
_cell_length_c                   26.737(5)
_cell_angle_alpha                90
_cell_angle_beta                 92.70(3)
_cell_angle_gamma                90
_cell_volume                     3717.47
_chemical_melting_point          '360 K'
_cell_formula_units_Z            8
loop_
_atom_site_label
_atom_site_type_symbol
_atom_site_fract_x
_atom_site_fract_y
_atom_site_fract_z
S1 S 0.05672(9) 0.26579(14) 0.51796(5)
O1 O 0.2096(2) 0.5350(4) 0.41112(12)
N1 N 0.1192(2) 0.3566(4) 0.43401(14)
H1 H 0.0874 0.2875 0.4225
N2 N 0.1670(3) 0.4833(4) 0.50382(14)
H2 H 0.1903 0.5367 0.4820
C1 C 0.4369(5) 0.1288(8) 0.2290(3)
H3 H 0.4918 0.1425 0.2104
H4 H 0.3824 0.1486 0.2080
H5 H 0.4346 0.0350 0.2402
C2 C 0.4396(5) 0.2169(8) 0.2706(3)
H6 H 0.4923 0.1879 0.2921
H7 H 0.4548 0.3077 0.2582
C3 C 0.3648(5) 0.2342(7) 0.3014(2)
H8 H 0.3594 0.1379 0.3119
C4 C 0.2617(4) 0.2536(7) 0.2807(2)
H9 H 0.2219 0.1739 0.2844
H10 H 0.2554 0.2918 0.2472
C5 C 0.2573(5) 0.3698(7) 0.3269(2)
H11 H 0.2741 0.4617 0.3151
C6 C 0.3401(5) 0.2971(7) 0.3483(3)
C7 C 0.4093(4) 0.3493(7) 0.3855(2)
H12 H 0.4405 0.4277 0.3721
H13 H 0.4543 0.2786 0.3936
H14 H 0.3787 0.3760 0.4151
C8 C 0.3072(5) 0.1731(7) 0.3786(2)
H15 H 0.3557 0.1049 0.3808
H16 H 0.2523 0.1341 0.3622
H17 H 0.2930 0.2027 0.4116
C9 C 0.1624(3) 0.3705(5) 0.34765(17)
H18 H 0.1203 0.4240 0.3258
H19 H 0.1387 0.2770 0.3486
C10 C 0.1645(3) 0.4301(5) 0.39891(18)
C11 C 0.1165(3) 0.3764(5) 0.48593(18)
C12 C 0.1863(4) 0.5184(5) 0.5551(2)
C13 C 0.2789(4) 0.5372(5) 0.5696(2)
C14 C 0.2992(5) 0.5668(5) 0.6200(2)
H20 H 0.3610 0.5772 0.6316
C15 C 0.2301(5) 0.5803(6) 0.6518(2)
H21 H 0.2449 0.5968 0.6855
C16 C 0.1392(5) 0.5703(6) 0.6358(2)
H22 H 0.0925 0.5879 0.6580
C17 C 0.1151(4) 0.5343(6) 0.5869(2)
H23 H 0.0531 0.5215 0.5760
C18 C 0.3574(3) 0.5193(6) 0.53233(19)
H24 H 0.3303 0.4996 0.4996
H25 H 0.3973 0.4447 0.5431
H26 H 0.3932 0.6027 0.5312
S2 S 0.03031(9) 0.05744(14) 0.38108(5)
O2 O 0.2192(2) -0.2205(3) 0.47833(11)
N3 N 0.1270(2) -0.0358(4) 0.46071(14)
H27 H 0.1071 0.0398 0.4731
N4 N 0.1293(2) -0.1771(4) 0.39161(13)
H28 H 0.1663 -0.2276 0.4100
C19 C 0.5390(4) 0.2174(6) 0.5597(2)
H29 H 0.6038 0.1967 0.5669
H30 H 0.5275 0.3123 0.5673
H31 H 0.5237 0.2007 0.5249
C20 C 0.4801(5) 0.1277(7) 0.5909(2)
H32 H 0.4986 0.0330 0.5855
H33 H 0.4954 0.1491 0.6258
C21 C 0.3831(5) 0.1348(7) 0.5835(2)
H34 H 0.3646 0.2311 0.5877
C22 C 0.3391(4) 0.0840(6) 0.5344(2)
H35 H 0.2994 0.1520 0.5175
H36 H 0.3841 0.0475 0.5119
C23 C 0.2881(4) -0.0200(6) 0.55862(18)
H37 H 0.3272 -0.1025 0.5571
C24 C 0.3129(4) 0.0436(7) 0.6112(2)
C25 C 0.2424(4) 0.1344(7) 0.6296(2)
H38 H 0.1970 0.0814 0.6465
H39 H 0.2123 0.1827 0.6019
H40 H 0.2712 0.1995 0.6525
C26 C 0.3412(4) -0.0586(6) 0.6507(2)
H41 H 0.2867 -0.1034 0.6624
H42 H 0.3736 -0.0123 0.6781
H43 H 0.3818 -0.1261 0.6369
C27 C 0.1905(3) -0.0699(5) 0.54510(16)
H44 H 0.1754 -0.1461 0.5667
H45 H 0.1463 0.0038 0.5504
C28 C 0.1818(3) -0.1151(5) 0.49210(19)
C29 C 0.0984(3) -0.0629(5) 0.40972(17)
C30 C 0.1035(4) -0.2219(5) 0.34142(19)
C31 C 0.0120(5) -0.2560(6) 0.3320(2)
H46 H -0.0324 -0.2395 0.3556
C32 C -0.0126(5) -0.3162(7) 0.2859(3)
H47 H -0.0738 -0.3434 0.2784
C33 C 0.0555(7) -0.3348(8) 0.2517(3)
H48 H 0.0397 -0.3726 0.2205
C34 C 0.1434(7) -0.2989(7) 0.2630(3)
H49 H 0.1881 -0.3135 0.2395
C35 C 0.1712(5) -0.2400(6) 0.3092(2)
C36 C 0.2696(5) -0.2032(6) 0.3233(2)
H50 H 0.2731 -0.1660 0.3566
H51 H 0.2912 -0.1357 0.3003
H52 H 0.3080 -0.2840 0.3221
loop_
_geom_bond_atom_site_label_1
_geom_bond_atom_site_label_2
_geom_bond_site_symmetry_1
_geom_bond_site_symmetry_2
S1 C11 1_555 1_555
O1 C10 1_555 1_555
N1 H1 1_555 1_555
N2 H2 1_555 1_555
C1 H3 1_555 1_555
H4 C1 1_555 1_555
H5 C1 1_555 1_555
C2 C1 1_555 1_555
H6 C2 1_555 1_555
H7 C2 1_555 1_555
C3 C2 1_555 1_555
H8 C3 1_555 1_555
C4 C3 1_555 1_555
H9 C4 1_555 1_555
H10 C4 1_555 1_555
C5 C4 1_555 1_555
H11 C5 1_555 1_555
C6 C3 1_555 1_555
C7 C6 1_555 1_555
H12 C7 1_555 1_555
H13 C7 1_555 1_555
H14 C7 1_555 1_555
C8 C6 1_555 1_555
H15 C8 1_555 1_555
H16 C8 1_555 1_555
H17 C8 1_555 1_555
C9 C5 1_555 1_555
H18 C9 1_555 1_555
H19 C9 1_555 1_555
C10 N1 1_555 1_555
C11 N1 1_555 1_555
C12 N2 1_555 1_555
C13 C12 1_555 1_555
C14 C13 1_555 1_555
H20 C14 1_555 1_555
C15 C14 1_555 1_555
H21 C15 1_555 1_555
C16 C15 1_555 1_555
H22 C16 1_555 1_555
C17 C12 1_555 1_555
H23 C17 1_555 1_555
C18 C13 1_555 1_555
H24 C18 1_555 1_555
H25 C18 1_555 1_555
H26 C18 1_555 1_555
S2 C29 1_555 1_555
O2 C28 1_555 1_555
N3 H27 1_555 1_555
N4 H28 1_555 1_555
C19 H29 1_555 1_555
H30 C19 1_555 1_555
H31 C19 1_555 1_555
C20 C19 1_555 1_555
H32 C20 1_555 1_555
H33 C20 1_555 1_555
C21 C20 1_555 1_555
H34 C21 1_555 1_555
C22 C21 1_555 1_555
H35 C22 1_555 1_555
H36 C22 1_555 1_555
C23 C22 1_555 1_555
H37 C23 1_555 1_555
C24 C21 1_555 1_555
C25 C24 1_555 1_555
H38 C25 1_555 1_555
H39 C25 1_555 1_555
H40 C25 1_555 1_555
C26 C24 1_555 1_555
H41 C26 1_555 1_555
H42 C26 1_555 1_555
H43 C26 1_555 1_555
C27 C23 1_555 1_555
H44 C27 1_555 1_555
H45 C27 1_555 1_555
C28 N3 1_555 1_555
C29 N3 1_555 1_555
C30 N4 1_555 1_555
C31 C30 1_555 1_555
H46 C31 1_555 1_555
C32 C31 1_555 1_555
H47 C32 1_555 1_555
C33 C32 1_555 1_555
H48 C33 1_555 1_555
C34 C33 1_555 1_555
H49 C34 1_555 1_555
C35 C30 1_555 1_555
C36 C35 1_555 1_555
H50 C36 1_555 1_555
H51 C36 1_555 1_555
H52 C36 1_555 1_555
N2 C11 1_555 1_555
C5 C6 1_555 1_555
C9 C10 1_555 1_555
C16 C17 1_555 1_555
N4 C29 1_555 1_555
C23 C24 1_555 1_555
C27 C28 1_555 1_555
C34 C35 1_555 1_555

#END
