
#######################################################################
#
#                 Cambridge Crystallographic Data Centre
#                                CCDC 
#
#######################################################################
#
# If this CIF has been generated from an entry in the Cambridge 
# Structural Database, then it will include bibliographic, chemical, 
# crystal, experimental, refinement or atomic coordinate data resulting 
# from the CCDC's data processing and validation procedures.
#
#######################################################################

data_WURVOV
_chemical_formula_moiety         'C27 H29 N3 O6,C21 H19 N3 O3,5(H2 O1)'
_chemical_name_systematic        
"[2]-(N,N'-Dibenzylpyridine-3,5-dicarboxamide-1-oxide)-(17,20,23,26-tetraoxa-3,7,11-triazatetracyclo[25.2.2.2^13,16^.1^5,9^]tetratriaconta-1(29),5(34),6,8,13,15,27,30,32-nonaene-4,10-dione)-pseudorotaxane pentahydrate"
_symmetry_cell_setting           triclinic
_symmetry_space_group_name_H-M   'P -1'
_symmetry_Int_Tables_number      2
_space_group_name_Hall           '-P 1'
loop_
_symmetry_equiv_pos_site_id
_symmetry_equiv_pos_as_xyz
1 x,y,z
2 -x,-y,-z
_cell_length_a                   11.4699(13)
_cell_length_b                   14.6930(16)
_cell_length_c                   15.8590(17)
_cell_angle_alpha                113.824(2)
_cell_angle_beta                 91.924(2)
_cell_angle_gamma                102.267(2)
_cell_volume                     2367.71
_exptl_crystal_colour            colorless
_exptl_crystal_description       block
_cell_formula_units_Z            2
loop_
_atom_site_label
_atom_site_type_symbol
_atom_site_fract_x
_atom_site_fract_y
_atom_site_fract_z
N1 N 0.8466(2) 1.1883(2) 0.34850(18)
C1 C 0.6870(3) 1.0639(2) 0.2354(2)
C3 C 0.7324(3) 0.9864(2) 0.2420(2)
H2 H 0.6943 0.9179 0.2051
C4 C 0.8346(3) 1.0113(2) 0.3037(2)
C5 C 0.7454(3) 1.1637(2) 0.2898(2)
H3 H 0.7148 1.2160 0.2863
C6 C 0.8907(3) 1.1132(3) 0.3552(2)
H4 H 0.9606 1.1307 0.3956
C9 C 0.5744(3) 1.0437(3) 0.1733(2)
C17 C 0.8857(3) 0.9341(3) 0.3212(2)
C26 C 0.7794(3) 0.7456(3) 0.3907(3)
C27 C 0.8408(3) 0.7578(3) 0.3115(3)
H16 H 0.9273 0.7723 0.3267
H17 H 0.8155 0.6942 0.2556
C31 C 0.4169(3) 0.9181(3) 0.0493(2)
H22 H 0.4239 0.8694 -0.0125
H23 H 0.4010 0.9780 0.0442
C32 C 0.8270(4) 0.8106(3) 0.4818(3)
H24 H 0.8988 0.8601 0.4942
C34 C 0.3121(3) 0.8700(3) 0.0854(3)
C38 C 0.6730(4) 0.6717(3) 0.3738(3)
H33 H 0.6400 0.6270 0.3129
C40 C 0.2756(4) 0.9276(3) 0.1684(3)
H36 H 0.3169 0.9959 0.2022
C41 C 0.7700(5) 0.8033(3) 0.5536(3)
H37 H 0.8032 0.8482 0.6143
C42 C 0.6153(4) 0.6638(3) 0.4470(4)
H38 H 0.5440 0.6139 0.4354
C43 C 0.2504(4) 0.7699(3) 0.0374(3)
H39 H 0.2749 0.7294 -0.0178
C44 C 0.6651(5) 0.7313(4) 0.5379(4)
H40 H 0.6270 0.7272 0.5876
C45 C 0.1794(4) 0.8859(5) 0.2016(4)
H41 H 0.1563 0.9255 0.2578
C46 C 0.1507(5) 0.7271(4) 0.0698(4)
H42 H 0.1076 0.6594 0.0358
C47 C 0.1182(4) 0.7868(5) 0.1523(5)
H43 H 0.0529 0.7589 0.1750
N4 N 0.5310(2) 0.9486(2) 0.10897(18)
H46 H 0.5713 0.9035 0.1022
N5 N 0.8108(2) 0.8412(2) 0.29427(19)
H47 H 0.7409 0.8299 0.2652
O3 O 0.9899(2) 0.95638(18) 0.35757(17)
O4 O 0.5254(3) 1.1130(2) 0.1847(2)
O5 O 0.9023(2) 1.28545(17) 0.39961(16)
C2 C 0.7365(3) 0.0371(3) 0.5033(2)
H1 H 0.7680 -0.0179 0.4981
C7 C 0.5859(3) 0.1019(3) 0.4545(2)
H5 H 0.5159 0.0914 0.4169
C8 C 0.6337(3) 0.0207(3) 0.4464(2)
C10 C 0.7925(3) 0.1339(3) 0.5673(2)
H6 H 0.8619 0.1438 0.6053
C11 C 0.9090(3) 0.0414(3) 0.0984(2)
C12 C 0.4558(3) -0.2144(2) 0.2551(2)
H7 H 0.4533 -0.2575 0.2883
H8 H 0.3790 -0.2354 0.2165
C13 C 1.2143(3) 0.4874(2) 0.5092(2)
C14 C 1.0064(3) 0.4398(3) 0.6750(2)
C15 C 0.6444(3) 0.2002(3) 0.5202(2)
H9 H 0.6126 0.2553 0.5257
C16 C 0.7479(3) 0.2179(3) 0.5769(2)
C18 C 1.1100(3) 0.4806(2) 0.6348(2)
C19 C 1.0709(3) 0.2314(3) 0.1949(2)
C20 C 0.4797(3) -0.1034(3) 0.3228(2)
H10 H 0.4890 -0.0599 0.2897
H11 H 0.4129 -0.0920 0.3585
C21 C 1.2297(3) 0.4538(3) 0.4087(2)
C22 C 1.0212(3) 0.0474(3) 0.1373(2)
H12 H 1.0432 -0.0120 0.1316
C23 C 1.1008(3) 0.1424(3) 0.1850(2)
H13 H 1.1765 0.1460 0.2109
C24 C 0.8787(3) 0.1305(3) 0.1067(2)
H14 H 0.8033 0.1271 0.0804
C25 C 1.3077(3) 0.5606(3) 0.5747(3)
H15 H 1.3753 0.5880 0.5538
C28 C 1.2078(3) 0.5534(3) 0.6941(2)
H18 H 1.2053 0.5757 0.7577
C29 C 0.8491(3) -0.1422(3) 0.0378(2)
H19 H 0.8684 -0.1441 0.0970
H20 H 0.9179 -0.1499 0.0041
C30 C 0.9593(3) 0.2243(3) 0.1536(2)
H21 H 0.9385 0.2836 0.1577
C33 C 0.8083(3) 0.3244(3) 0.6491(2)
H25 H 0.7521 0.3676 0.6611
H26 H 0.8325 0.3211 0.7068
C35 C 0.5252(3) -0.3163(3) 0.1167(2)
H27 H 0.4532 -0.3214 0.0794
H28 H 0.5115 -0.3751 0.1319
C36 C 0.6304(3) -0.3151(3) 0.0633(2)
H29 H 0.7027 -0.3081 0.1013
H30 H 0.6167 -0.3790 0.0079
C37 C 1.1593(4) 0.3336(3) 0.2475(2)
H31 H 1.2406 0.3254 0.2404
H32 H 1.1467 0.3811 0.2219
C39 C 0.7409(4) -0.2269(3) -0.0172(3)
H34 H 0.7124 -0.2158 -0.0697
H35 H 0.7635 -0.2918 -0.0413
C48 C 1.1146(3) 0.4478(2) 0.5406(2)
H44 H 1.0501 0.3989 0.4984
N2 N 1.3057(3) 0.5939(2) 0.6662(2)
N3 N 1.1455(3) 0.3760(2) 0.34659(18)
H45 H 1.0821 0.3502 0.3647
N6 N 0.9136(3) 0.3688(2) 0.61699(19)
H48 H 0.9157 0.3483 0.5581
O1 O 1.0090(2) 0.4726(2) 0.76117(17)
O2 O 1.3194(2) 0.4962(2) 0.38546(17)
O6 O 0.5876(2) -0.07941(17) 0.38336(15)
O7 O 0.5508(2) -0.22432(17) 0.19910(15)
O8 O 0.6450(2) -0.23216(18) 0.03845(17)
O9 O 0.8210(2) -0.04723(18) 0.05247(15)
O10 O 0.4255(4) 0.5531(3) 0.8734(3)
H49 H 0.4327 0.6085 0.8620
H50 H 0.3485 0.5227 0.8629
O11 O 0.3831(3) 0.5132(2) 0.2141(2)
H51 H 0.3588 0.5112 0.2662
H52 H 0.4298 0.4728 0.1960
O12 O 0.8111(4) 0.5244(3) 0.0923(2)
H53 H 0.8145 0.4743 0.0424
H54 H 0.8705 0.5308 0.1332
O13 O 0.4930(5) 0.2951(3) 0.1933(3)
H55 H 0.5508 0.2772 0.1637
H56 H 0.5346 0.3360 0.2544
O14 O 0.8283(3) 0.5131(3) 0.9042(2)
H57 H 0.8784 0.4755 0.8993
H58 H 0.7938 0.4939 0.8480
loop_
_geom_bond_atom_site_label_1
_geom_bond_atom_site_label_2
_geom_bond_site_symmetry_1
_geom_bond_site_symmetry_2
N1 C5 1_555 1_555
C1 C3 1_555 1_555
C2 H1 1_555 1_555
C3 H2 1_555 1_555
C4 C3 1_555 1_555
C5 C1 1_555 1_555
H3 C5 1_555 1_555
C6 N1 1_555 1_555
H4 C6 1_555 1_555
C7 H5 1_555 1_555
C8 C2 1_555 1_555
C9 C1 1_555 1_555
C10 C2 1_555 1_555
H6 C10 1_555 1_555
C11 C22 1_555 1_555
C12 H7 1_555 1_555
H8 C12 1_555 1_555
C13 C21 1_555 1_555
C14 C18 1_555 1_555
C15 C7 1_555 1_555
H9 C15 1_555 1_555
C16 C10 1_555 1_555
C17 C4 1_555 1_555
C18 C28 1_555 1_555
C19 C23 1_555 1_555
C20 C12 1_555 1_555
H10 C20 1_555 1_555
H11 C20 1_555 1_555
C21 N3 1_555 1_555
C22 H12 1_555 1_555
C23 C22 1_555 1_555
H13 C23 1_555 1_555
C24 C11 1_555 1_555
H14 C24 1_555 1_555
C25 C13 1_555 1_555
H15 C25 1_555 1_555
C26 C27 1_555 1_555
C27 H16 1_555 1_555
H17 C27 1_555 1_555
C28 H18 1_555 1_555
C29 H19 1_555 1_555
H20 C29 1_555 1_555
C30 C19 1_555 1_555
H21 C30 1_555 1_555
C31 H22 1_555 1_555
H23 C31 1_555 1_555
C32 C26 1_555 1_555
H24 C32 1_555 1_555
C33 C16 1_555 1_555
H25 C33 1_555 1_555
H26 C33 1_555 1_555
C34 C31 1_555 1_555
C35 H27 1_555 1_555
H28 C35 1_555 1_555
C36 C35 1_555 1_555
H29 C36 1_555 1_555
H30 C36 1_555 1_555
C37 C19 1_555 1_555
H31 C37 1_555 1_555
H32 C37 1_555 1_555
C38 C26 1_555 1_555
H33 C38 1_555 1_555
C39 C29 1_555 1_555
H34 C39 1_555 1_555
H35 C39 1_555 1_555
C40 C34 1_555 1_555
H36 C40 1_555 1_555
C41 C32 1_555 1_555
H37 C41 1_555 1_555
C42 C38 1_555 1_555
H38 C42 1_555 1_555
C43 C34 1_555 1_555
H39 C43 1_555 1_555
C44 C41 1_555 1_555
H40 C44 1_555 1_555
C45 C40 1_555 1_555
H41 C45 1_555 1_555
C46 C43 1_555 1_555
H42 C46 1_555 1_555
C47 C45 1_555 1_555
H43 C47 1_555 1_555
C48 C13 1_555 1_555
H44 C48 1_555 1_555
N2 C25 1_555 1_555
N3 C37 1_555 1_555
H45 N3 1_555 1_555
N4 C9 1_555 1_555
H46 N4 1_555 1_555
N5 C17 1_555 1_555
H47 N5 1_555 1_555
N6 C14 1_555 1_555
H48 N6 1_555 1_555
O1 C14 1_555 1_555
O2 C21 1_555 1_555
O3 C17 1_555 1_555
O4 C9 1_555 1_555
O5 N1 1_555 1_555
O6 C8 1_555 1_555
O7 C12 1_555 1_555
O8 C36 1_555 1_555
O9 C11 1_555 1_555
O10 H49 1_555 1_555
O11 H51 1_555 1_555
O12 H53 1_555 1_555
O13 H55 1_555 1_555
O14 H57 1_555 1_555
H50 O10 1_555 1_555
H52 O11 1_555 1_555
H54 O12 1_555 1_555
H56 O13 1_555 1_555
H58 O14 1_555 1_555
C4 C6 1_555 1_555
C7 C8 1_555 1_555
C15 C16 1_555 1_555
C18 C48 1_555 1_555
C20 O6 1_555 1_555
C24 C30 1_555 1_555
C27 N5 1_555 1_555
C28 N2 1_555 1_555
C29 O9 1_555 1_555
C31 N4 1_555 1_555
C33 N6 1_555 1_555
C35 O7 1_555 1_555
C39 O8 1_555 1_555
C42 C44 1_555 1_555
C46 C47 1_555 1_555

#END
