
#######################################################################
#
#                 Cambridge Crystallographic Data Centre
#                                CCDC 
#
#######################################################################
#
# If this CIF has been generated from an entry in the Cambridge 
# Structural Database, then it will include bibliographic, chemical, 
# crystal, experimental, refinement or atomic coordinate data resulting 
# from the CCDC's data processing and validation procedures.
#
#######################################################################

data_WUSCIW
_chemical_formula_moiety         'C9 H13 1+,C1 H6 B11 Br6 1-,C6 H4 Cl2'
_chemical_name_systematic        
'Mesitylenium 7,8,9,10,11,12-hexabromo-1-carba-closo-dodecaborate(6) 1,2-chlorobenzene solvate'
_symmetry_cell_setting           monoclinic
_symmetry_space_group_name_H-M   'C c'
_symmetry_Int_Tables_number      9
_space_group_name_Hall           'C -2yc'
loop_
_symmetry_equiv_pos_site_id
_symmetry_equiv_pos_as_xyz
1 x,y,z
2 x,-y,1/2+z
3 1/2+x,1/2+y,z
4 1/2+x,1/2-y,1/2+z
_cell_length_a                   22.500(2)
_cell_length_b                   11.7084(11)
_cell_length_c                   23.329(2)
_cell_angle_alpha                90
_cell_angle_beta                 97.041(2)
_cell_angle_gamma                90
_cell_volume                     6099.42
_exptl_crystal_colour            'light brown'
_exptl_crystal_description       prism
_cell_formula_units_Z            8
loop_
_atom_site_label
_atom_site_type_symbol
_atom_site_fract_x
_atom_site_fract_y
_atom_site_fract_z
C1 C 0.3598(3) 0.7922(5) 0.1942(3)
H1 H 0.3844 0.7339 0.2263
B1 B 0.3597(3) 0.7590(6) 0.1228(3)
H2 H 0.3819 0.6838 0.1058
B2 B 0.4011(3) 0.8762(7) 0.1561(3)
H3 H 0.4508 0.8770 0.1608
B3 B 0.3611(3) 0.9342(6) 0.2101(3)
H4 H 0.3843 0.9731 0.2501
B4 B 0.2949(3) 0.8525(6) 0.2112(3)
H5 H 0.2749 0.8379 0.2518
B5 B 0.2941(3) 0.7442(6) 0.1574(3)
H6 H 0.2739 0.6591 0.1633
B6 B 0.2905(3) 0.8129(6) 0.0893(3)
B7 B 0.3569(3) 0.8943(6) 0.0883(3)
B8 B 0.3581(3) 1.0010(6) 0.1426(3)
B9 B 0.2927(3) 0.9866(6) 0.1767(3)
B10 B 0.2502(3) 0.8693(7) 0.1431(3)
B11 B 0.2899(3) 0.9635(6) 0.1007(3)
Br1 Br 0.24984(9) 0.74030(7) 0.02020(6)
Br2 Br 0.39207(9) 0.91808(8) 0.01640(6)
Br3 Br 0.39627(9) 1.15052(7) 0.13499(6)
Br4 Br 0.25263(9) 1.11487(7) 0.20961(6)
Br5 Br 0.16297(9) 0.86653(8) 0.13606(6)
Br6 Br 0.24735(9) 1.06622(6) 0.04390(6)
C2 C 0.0792(3) 0.6947(6) 0.2599(3)
H7 H 0.0638 0.7581 0.2259
B12 B 0.1428(4) 0.6217(8) 0.2517(4)
H8 H 0.1701 0.6317 0.2154
B13 B 0.1403(4) 0.7292(7) 0.3059(4)
H9 H 0.1658 0.8101 0.3049
B14 B 0.0687(4) 0.7275(6) 0.3288(3)
H10 H 0.0475 0.8069 0.3426
B15 B 0.0249(3) 0.6192(7) 0.2893(3)
H11 H -0.0241 0.6284 0.2774
B16 B 0.0718(4) 0.5545(7) 0.2419(3)
H12 H 0.0529 0.5210 0.1990
B17 B 0.1321(3) 0.4881(7) 0.2845(3)
B18 B 0.1755(3) 0.5969(7) 0.3236(3)
B19 B 0.1295(3) 0.6615(6) 0.3711(3)
B20 B 0.0585(3) 0.5914(6) 0.3616(3)
B21 B 0.0597(3) 0.4865(6) 0.3073(3)
B22 B 0.1247(3) 0.5105(6) 0.3584(3)
Br7 Br 0.16899(9) 0.34969(7) 0.25704(6)
Br8 Br 0.26171(9) 0.58213(9) 0.34416(7)
Br9 Br 0.16263(9) 0.72193(7) 0.44637(6)
Br10 Br 0.01021(9) 0.57582(7) 0.42477(6)
Br11 Br 0.01423(9) 0.34431(6) 0.30721(6)
Br12 Br 0.15100(9) 0.40034(6) 0.41813(6)
C3 C 0.2602(4) 0.1630(8) 0.3687(4)
H13 H 0.240(4) 0.224(8) 0.344(4)
H14 H 0.269(4) 0.200(9) 0.396(5)
C4 C 0.3196(4) 0.1631(7) 0.3548(3)
C5 C 0.3509(3) 0.0611(7) 0.3586(3)
H15 H 0.3910 0.0604 0.3510
C6 C 0.3251(3) -0.0390(6) 0.3733(3)
C7 C 0.2665(3) -0.0395(7) 0.3853(3)
H16 H 0.2496 -0.1085 0.3961
C8 C 0.2320(3) 0.0589(7) 0.3819(3)
C9 C 0.3481(5) 0.2734(9) 0.3385(5)
H17 H 0.3913 0.2647 0.3430
H18 H 0.3373 0.3344 0.3634
H19 H 0.3340 0.2919 0.2986
C10 C 0.3610(4) -0.1462(8) 0.3771(4)
H20 H 0.3654 -0.1730 0.3385
H21 H 0.3407 -0.2041 0.3973
H22 H 0.4002 -0.1315 0.3979
C11 C 0.1693(3) 0.0635(8) 0.3942(4)
H23 H 0.1524 -0.0128 0.3917
H24 H 0.1463 0.1127 0.3663
H25 H 0.1680 0.0935 0.4328
C12 C 0.1519(3) 0.2967(6) 0.1023(3)
H26 H 0.1724 0.2273 0.1097
C13 C 0.1844(3) 0.3982(7) 0.0978(3)
C14 C 0.1536(3) 0.5024(6) 0.0840(3)
H30 H 0.168(6) 0.572(9) 0.113(5)
H31 H 0.153(6) 0.534(11) 0.040(4)
C15 C 0.0898(3) 0.5018(6) 0.0773(3)
C16 C 0.0591(3) 0.4002(6) 0.0839(3)
H32 H 0.0170 0.4009 0.0800
C17 C 0.0894(3) 0.2979(6) 0.0959(3)
C18 C 0.2497(4) 0.3966(9) 0.1070(6)
H33 H 0.2647 0.4744 0.1099
H34 H 0.2648 0.3586 0.0748
H35 H 0.2631 0.3559 0.1424
C19 C 0.0571(4) 0.6098(7) 0.0624(4)
H36 H 0.0156 0.6011 0.0689
H37 H 0.0591 0.6278 0.0221
H38 H 0.0753 0.6710 0.0865
C20 C 0.0548(5) 0.1918(8) 0.1041(5)
H39 H 0.0822 0.1281 0.1115
H40 H 0.0275 0.1767 0.0694
H41 H 0.0322 0.2016 0.1366
Cl1 Cl 1.07940(12) 0.0206(2) 0.24587(11)
Cl2 Cl 0.99570(13) -0.0830(2) 0.14055(11)
C21 C 1.0035(3) 0.0111(5) 0.2474(3)
C22 C 0.9667(3) -0.0329(6) 0.2002(3)
C23 C 0.9060(4) -0.0393(7) 0.2020(4)
H42 H 0.8814 -0.0702 0.1703
C24 C 0.8803(4) -0.0011(8) 0.2497(4)
H43 H 0.8385 -0.0029 0.2497
C25 C 0.9175(4) 0.0400(8) 0.2977(5)
H44 H 0.9011 0.0623 0.3311
C26 C 0.9780(4) 0.0474(6) 0.2955(4)
H45 H 1.0028 0.0777 0.3273
Cl3 Cl 0.5371(3) 0.3736(11) 0.9732(5)
Cl4 Cl 0.4892(5) 0.6213(6) 0.9502(3)
C27 C 0.4643(5) 0.4082(8) 0.9814(3)
C28 C 0.4423(6) 0.5151(8) 0.9717(3)
C29 C 0.3844(7) 0.5486(15) 0.9775(5)
H46 H 0.3698 0.6232 0.9707
C30 C 0.3510(8) 0.4605(11) 0.9943(6)
H47 H 0.3110 0.4766 0.9991
C31 C 0.3706(5) 0.3474(11) 1.0052(5)
H48 H 0.3444 0.2917 1.0167
C32 C 0.4281(5) 0.3207(11) 0.9988(4)
H49 H 0.4430 0.2464 1.0057
H27? H 0.153(6) 0.214(11) 0.068(6)
H28? H 0.184(6) 0.258(12) 0.146(6)
H29? H 0.1748 0.5703 0.0793
Cl5? Cl 0.5267(11) 0.3160(16) 0.9552(6)
Cl6? Cl 0.5377(13) 0.572(3) 0.9589(11)
C33? C 0.4664(10) 0.396(2) 0.9708(6)
C34? C 0.4707(11) 0.512(2) 0.9727(7)
C35? C 0.4253(16) 0.584(3) 0.9848(12)
H50? H 0.4281 0.6641 0.9861
C36? C 0.3758(15) 0.523(4) 0.9946(15)
H51? H 0.3427 0.5661 1.0032
C37? C 0.3687(15) 0.406(5) 0.9933(16)
H52? H 0.3323 0.3730 1.0008
C38? C 0.4150(15) 0.338(3) 0.9811(12)
H53? H 0.4122 0.2580 0.9799
loop_
_geom_bond_atom_site_label_1
_geom_bond_atom_site_label_2
_geom_bond_site_symmetry_1
_geom_bond_site_symmetry_2
C1 H1 1_555 1_555
B1 C1 1_555 1_555
H2 B1 1_555 1_555
B2 C1 1_555 1_555
H3 B2 1_555 1_555
B3 C1 1_555 1_555
H4 B3 1_555 1_555
B4 C1 1_555 1_555
H5 B4 1_555 1_555
B5 C1 1_555 1_555
H6 B5 1_555 1_555
B6 B1 1_555 1_555
B7 B1 1_555 1_555
B8 B2 1_555 1_555
B9 B3 1_555 1_555
B10 B4 1_555 1_555
B11 B6 1_555 1_555
Br1 B6 1_555 1_555
Br2 B7 1_555 1_555
Br3 B8 1_555 1_555
Br4 B9 1_555 1_555
Br5 B10 1_555 1_555
Br6 B11 1_555 1_555
C2 H7 1_555 1_555
B12 C2 1_555 1_555
H8 B12 1_555 1_555
B13 C2 1_555 1_555
H9 B13 1_555 1_555
B14 C2 1_555 1_555
H10 B14 1_555 1_555
B15 C2 1_555 1_555
H11 B15 1_555 1_555
B16 C2 1_555 1_555
H12 B16 1_555 1_555
B17 B12 1_555 1_555
B18 B12 1_555 1_555
B19 B13 1_555 1_555
B20 B14 1_555 1_555
B21 B15 1_555 1_555
B22 B17 1_555 1_555
Br7 B17 1_555 1_555
Br8 B18 1_555 1_555
Br9 B19 1_555 1_555
Br10 B20 1_555 1_555
Br11 B21 1_555 1_555
Br12 B22 1_555 1_555
C3 H13 1_555 1_555
H14 C3 1_555 1_555
C4 C3 1_555 1_555
C5 C4 1_555 1_555
H15 C5 1_555 1_555
C6 C5 1_555 1_555
C7 C6 1_555 1_555
H16 C7 1_555 1_555
C8 C3 1_555 1_555
C9 C4 1_555 1_555
H17 C9 1_555 1_555
H18 C9 1_555 1_555
H19 C9 1_555 1_555
C10 C6 1_555 1_555
H20 C10 1_555 1_555
H21 C10 1_555 1_555
H22 C10 1_555 1_555
C11 C8 1_555 1_555
H23 C11 1_555 1_555
H24 C11 1_555 1_555
H25 C11 1_555 1_555
C12 H26 1_555 1_555
C13 C12 1_555 1_555
C14 C13 1_555 1_555
H30 C14 1_555 1_555
H31 C14 1_555 1_555
C15 C14 1_555 1_555
C16 C15 1_555 1_555
H32 C16 1_555 1_555
C17 C12 1_555 1_555
C18 C13 1_555 1_555
H33 C18 1_555 1_555
H34 C18 1_555 1_555
H35 C18 1_555 1_555
C19 C15 1_555 1_555
H36 C19 1_555 1_555
H37 C19 1_555 1_555
H38 C19 1_555 1_555
C20 C17 1_555 1_555
H39 C20 1_555 1_555
H40 C20 1_555 1_555
H41 C20 1_555 1_555
Cl1 C21 1_555 1_555
Cl2 C22 1_555 1_555
C21 C22 1_555 1_555
C22 C23 1_555 1_555
C23 H42 1_555 1_555
C24 C23 1_555 1_555
H43 C24 1_555 1_555
C25 C24 1_555 1_555
H44 C25 1_555 1_555
C26 C21 1_555 1_555
H45 C26 1_555 1_555
Cl3 C27 1_555 1_555
Cl4 C28 1_555 1_555
C27 C28 1_555 1_555
C28 C29 1_555 1_555
C29 H46 1_555 1_555
C30 C29 1_555 1_555
H47 C30 1_555 1_555
C31 C30 1_555 1_555
H48 C31 1_555 1_555
C32 C27 1_555 1_555
H49 C32 1_555 1_555
B1 B2 1_555 1_555
B1 B5 1_555 1_555
B2 B7 1_555 1_555
B2 B3 1_555 1_555
B3 B8 1_555 1_555
B3 B4 1_555 1_555
B4 B9 1_555 1_555
B4 B5 1_555 1_555
B5 B6 1_555 1_555
B5 B10 1_555 1_555
B6 B7 1_555 1_555
B6 B10 1_555 1_555
B7 B8 1_555 1_555
B7 B11 1_555 1_555
B8 B11 1_555 1_555
B8 B9 1_555 1_555
B9 B10 1_555 1_555
B9 B11 1_555 1_555
B10 B11 1_555 1_555
B12 B13 1_555 1_555
B12 B16 1_555 1_555
B13 B18 1_555 1_555
B13 B14 1_555 1_555
B14 B19 1_555 1_555
B14 B15 1_555 1_555
B15 B20 1_555 1_555
B15 B16 1_555 1_555
B16 B17 1_555 1_555
B16 B21 1_555 1_555
B17 B18 1_555 1_555
B17 B21 1_555 1_555
B18 B19 1_555 1_555
B18 B22 1_555 1_555
B19 B22 1_555 1_555
B19 B20 1_555 1_555
B20 B21 1_555 1_555
B20 B22 1_555 1_555
B21 B22 1_555 1_555
C7 C8 1_555 1_555
C16 C17 1_555 1_555
C25 C26 1_555 1_555
C31 C32 1_555 1_555

#END
