
#######################################################################
#
#                 Cambridge Crystallographic Data Centre
#                                CCDC 
#
#######################################################################
#
# If this CIF has been generated from an entry in the Cambridge 
# Structural Database, then it will include bibliographic, chemical, 
# crystal, experimental, refinement or atomic coordinate data resulting 
# from the CCDC's data processing and validation procedures.
#
#######################################################################

data_WUSCES
_chemical_name_common            'PDB Chemical Component code: OXE'
_chemical_formula_moiety         'C8 H11 1+,C1 H6 B11 Br6 1-,C8 H10'
_chemical_name_systematic        
'm-Xylen-4-ium 7,8,9,10,11,12-hexabromo-1-carba-closo-dodecaborate(6) o-xylene solvate'
_symmetry_cell_setting           orthorhombic
_symmetry_space_group_name_H-M   'P 21 21 21'
_symmetry_Int_Tables_number      19
_space_group_name_Hall           'P 2ac 2ab'
loop_
_symmetry_equiv_pos_site_id
_symmetry_equiv_pos_as_xyz
1 x,y,z
2 1/2-x,-y,1/2+z
3 -x,1/2+y,1/2-z
4 1/2+x,1/2-y,-z
_cell_length_a                   9.1191(15)
_cell_length_b                   12.701(2)
_cell_length_c                   24.710(4)
_cell_angle_alpha                90
_cell_angle_beta                 90
_cell_angle_gamma                90
_cell_volume                     2861.95
_exptl_crystal_colour            green
_exptl_crystal_description       prism
_cell_formula_units_Z            4
loop_
_atom_site_label
_atom_site_type_symbol
_atom_site_fract_x
_atom_site_fract_y
_atom_site_fract_z
C1 C 0.8447(5) 0.1986(3) 0.02912(16)
H1 H 0.8157 0.2603 -0.0009
B1 B 0.8126(5) 0.2236(4) 0.09581(19)
H2 H 0.7641 0.2975 0.1119
B2 B 0.9940(5) 0.2200(3) 0.06963(19)
H3 H 1.0640 0.2914 0.0686
B3 B 0.9988(5) 0.1259(3) 0.01657(19)
H4 H 1.0719 0.1356 -0.0190
B4 B 0.8190(5) 0.0718(3) 0.01096(19)
H5 H 0.7750 0.0457 -0.0287
B5 B 0.7043(5) 0.1333(4) 0.05955(19)
H6 H 0.5860 0.1477 0.0519
B6 B 0.7739(5) 0.1002(3) 0.12448(18)
B7 B 0.9530(5) 0.1550(3) 0.13055(18)
B8 B 1.0674(5) 0.0931(3) 0.08135(18)
B9 B 0.9572(5) 0.0014(3) 0.04513(18)
B10 B 0.7764(5) 0.0061(3) 0.07170(18)
B11 B 0.9294(5) 0.0188(3) 0.11610(17)
Br1 Br 0.64323(5) 0.08443(3) 0.186267(17)
Br2 Br 1.02625(5) 0.20787(3) 0.199606(17)
Br3 Br 1.27620(5) 0.07274(4) 0.093757(19)
Br4 Br 1.03906(5) -0.12716(3) 0.013933(17)
Br5 Br 0.65115(5) -0.11811(3) 0.073275(18)
Br6 Br 0.98064(5) -0.09066(3) 0.168378(16)
C2 C 0.7990(6) 0.1152(4) 0.3255(2)
H7 H 0.832(9) 0.170(5) 0.305(3)
H8 H 0.707(6) 0.105(7) 0.312(3)
C3 C 0.7949(5) 0.1620(3) 0.37808(18)
C4 C 0.8899(5) 0.1259(3) 0.41716(17)
H9 H 0.8856 0.1553 0.4520
C5 C 0.9914(5) 0.0478(3) 0.40665(17)
C6 C 0.9960(6) 0.0001(4) 0.35439(19)
H10 H 1.0635 -0.0539 0.3468
C7 C 0.8999(6) 0.0345(4) 0.3152(2)
H11 H 0.9020 0.0032 0.2808
C8 C 0.6905(5) 0.2482(4) 0.3901(2)
H12 H 0.6510 0.2389 0.4263
H13 H 0.6112 0.2470 0.3640
H14 H 0.7411 0.3153 0.3881
C9 C 1.0942(6) 0.0130(4) 0.4500(2)
H15 H 1.1248 0.0734 0.4712
H16 H 1.1795 -0.0199 0.4337
H17 H 1.0452 -0.0373 0.4734
C10 C 0.5205(6) 0.4395(4) 0.16797(18)
C11 C 0.5844(6) 0.4493(4) 0.21972(19)
C12 C 0.6672(7) 0.5391(5) 0.2320(2)
H18 H 0.7084 0.5469 0.2666
C13 C 0.6884(6) 0.6155(5) 0.1937(3)
H19 H 0.7433 0.6757 0.2025
C14 C 0.6325(6) 0.6058(4) 0.1441(2)
H20 H 0.6508 0.6578 0.1179
C15 C 0.5470(6) 0.5187(4) 0.1313(2)
H21 H 0.5059 0.5137 0.0965
C16 C 0.4225(7) 0.3468(4) 0.1527(3)
H22 H 0.3852 0.3568 0.1163
H23 H 0.3410 0.3425 0.1779
H24 H 0.4788 0.2821 0.1543
C17 C 0.5620(10) 0.3615(5) 0.2611(2)
H25 H 0.6077 0.3812 0.2951
H26 H 0.6061 0.2970 0.2478
H27 H 0.4578 0.3504 0.2668
loop_
_geom_bond_atom_site_label_1
_geom_bond_atom_site_label_2
_geom_bond_site_symmetry_1
_geom_bond_site_symmetry_2
C1 H1 1_555 1_555
B1 C1 1_555 1_555
H2 B1 1_555 1_555
B2 C1 1_555 1_555
H3 B2 1_555 1_555
B3 C1 1_555 1_555
H4 B3 1_555 1_555
B4 C1 1_555 1_555
H5 B4 1_555 1_555
B5 C1 1_555 1_555
H6 B5 1_555 1_555
B6 B1 1_555 1_555
B7 B1 1_555 1_555
B8 B2 1_555 1_555
B9 B3 1_555 1_555
B10 B4 1_555 1_555
B11 B6 1_555 1_555
Br1 B6 1_555 1_555
Br2 B7 1_555 1_555
Br3 B8 1_555 1_555
Br4 B9 1_555 1_555
Br5 B10 1_555 1_555
Br6 B11 1_555 1_555
C2 H7 1_555 1_555
H8 C2 1_555 1_555
C3 C2 1_555 1_555
C4 C3 1_555 1_555
H9 C4 1_555 1_555
C5 C4 1_555 1_555
C6 C5 1_555 1_555
H10 C6 1_555 1_555
C7 C2 1_555 1_555
H11 C7 1_555 1_555
C8 C3 1_555 1_555
H12 C8 1_555 1_555
H13 C8 1_555 1_555
H14 C8 1_555 1_555
C9 C5 1_555 1_555
H15 C9 1_555 1_555
H16 C9 1_555 1_555
H17 C9 1_555 1_555
C10 C11 1_555 1_555
C11 C12 1_555 1_555
C12 H18 1_555 1_555
C13 C12 1_555 1_555
H19 C13 1_555 1_555
C14 C13 1_555 1_555
H20 C14 1_555 1_555
C15 C10 1_555 1_555
H21 C15 1_555 1_555
C16 C10 1_555 1_555
H22 C16 1_555 1_555
H23 C16 1_555 1_555
H24 C16 1_555 1_555
C17 C11 1_555 1_555
H25 C17 1_555 1_555
H26 C17 1_555 1_555
H27 C17 1_555 1_555
B1 B2 1_555 1_555
B1 B5 1_555 1_555
B2 B3 1_555 1_555
B2 B7 1_555 1_555
B3 B4 1_555 1_555
B3 B8 1_555 1_555
B4 B5 1_555 1_555
B4 B9 1_555 1_555
B5 B6 1_555 1_555
B5 B10 1_555 1_555
B6 B7 1_555 1_555
B6 B10 1_555 1_555
B7 B8 1_555 1_555
B7 B11 1_555 1_555
B8 B9 1_555 1_555
B8 B11 1_555 1_555
B9 B10 1_555 1_555
B9 B11 1_555 1_555
B10 B11 1_555 1_555
C6 C7 1_555 1_555
C14 C15 1_555 1_555

#END
