
#######################################################################
#
#                 Cambridge Crystallographic Data Centre
#                                CCDC 
#
#######################################################################
#
# If this CIF has been generated from an entry in the Cambridge 
# Structural Database, then it will include bibliographic, chemical, 
# crystal, experimental, refinement or atomic coordinate data resulting 
# from the CCDC's data processing and validation procedures.
#
#######################################################################

data_WUSCOC
_chemical_formula_moiety         'C12 H19 1+,C1 H6 B11 Br6 1-'
_chemical_name_systematic        
'Hexamethylbenzenium 7,8,9,10,11,12-hexabromo-1-carba-closo-dodecaborate(6)'
_symmetry_cell_setting           orthorhombic
_symmetry_space_group_name_H-M   'P 21 21 21'
_symmetry_Int_Tables_number      19
_space_group_name_Hall           'P 2ac 2ab'
loop_
_symmetry_equiv_pos_site_id
_symmetry_equiv_pos_as_xyz
1 x,y,z
2 1/2-x,-y,1/2+z
3 -x,1/2+y,1/2-z
4 1/2+x,1/2-y,-z
_cell_length_a                   13.1503(10)
_cell_length_b                   13.9660(10)
_cell_length_c                   14.1644(11)
_cell_angle_alpha                90
_cell_angle_beta                 90
_cell_angle_gamma                90
_cell_volume                     2601.39
_exptl_crystal_colour            yellow
_exptl_crystal_description       prism
_cell_formula_units_Z            4
loop_
_atom_site_label
_atom_site_type_symbol
_atom_site_fract_x
_atom_site_fract_y
_atom_site_fract_z
C1 C 0.5156(4) 0.2331(3) 0.6219(4)
H1 H 0.5971 0.2405 0.6029
B1 B 0.4550(4) 0.1326(4) 0.5855(5)
H2 H 0.4906 0.0744 0.5435
B2 B 0.4279(4) 0.2450(4) 0.5336(4)
H3 H 0.4453 0.2599 0.4584
B3 B 0.4437(4) 0.3339(4) 0.6222(4)
H4 H 0.4718 0.4066 0.6042
B4 B 0.4791(4) 0.2769(4) 0.7281(4)
H5 H 0.5302 0.3126 0.7795
B5 B 0.4856(4) 0.1508(4) 0.7071(5)
H6 H 0.5404 0.1041 0.7449
B6 B 0.3644(4) 0.1110(3) 0.6752(4)
B7 B 0.3271(4) 0.1677(3) 0.5685(4)
B8 B 0.3196(4) 0.2940(3) 0.5908(4)
B9 B 0.3526(4) 0.3142(3) 0.7117(4)
B10 B 0.3791(4) 0.1998(4) 0.7633(4)
B11 B 0.2793(3) 0.2111(3) 0.6777(4)
Br1 Br 0.32020(4) -0.01787(3) 0.70831(5)
Br2 Br 0.23897(4) 0.10379(4) 0.47750(4)
Br3 Br 0.22562(4) 0.37628(4) 0.52243(5)
Br4 Br 0.29460(5) 0.41917(4) 0.78486(5)
Br5 Br 0.34886(5) 0.17201(5) 0.89567(4)
Br6 Br 0.13743(3) 0.19600(3) 0.71357(4)
C2 C 0.0745(5) -0.1388(4) 0.6771(5)
H7 H 0.142(7) -0.113(6) 0.673(7)
C3 C 0.1083(4) -0.2386(4) 0.6762(4)
C4 C 0.0645(4) -0.3026(3) 0.6168(4)
C5 C -0.0179(4) -0.2738(4) 0.5593(4)
C6 C -0.0536(4) -0.1804(4) 0.5552(4)
C7 C -0.0058(4) -0.1121(4) 0.6102(4)
C8 C 0.0564(5) -0.0990(4) 0.7754(4)
H8 H 0.1153 -0.1117 0.8147
H9 H -0.0030 -0.1294 0.8028
H10 H 0.0452 -0.0304 0.7716
C9 C 0.1953(5) -0.2647(5) 0.7400(5)
H11 H 0.2460 -0.3000 0.7044
H12 H 0.1705 -0.3042 0.7915
H13 H 0.2256 -0.2069 0.7654
C10 C 0.1030(6) -0.4059(4) 0.6103(7)
H14 H 0.1578 -0.4152 0.6552
H15 H 0.1277 -0.4182 0.5470
H16 H 0.0478 -0.4496 0.6248
C11 C -0.0695(6) -0.3474(5) 0.4962(6)
H17 H -0.1251 -0.3172 0.4624
H18 H -0.0958 -0.3992 0.5346
H19 H -0.0206 -0.3725 0.4514
C12 C -0.1385(5) -0.1524(5) 0.4892(4)
H20 H -0.1626 -0.0888 0.5054
H21 H -0.1939 -0.1978 0.4950
H22 H -0.1136 -0.1524 0.4248
C13 C -0.0261(6) -0.0091(4) 0.5995(6)
H23 H -0.0390 0.0053 0.5335
H24 H 0.0323 0.0272 0.6211
H25 H -0.0852 0.0082 0.6367
loop_
_geom_bond_atom_site_label_1
_geom_bond_atom_site_label_2
_geom_bond_site_symmetry_1
_geom_bond_site_symmetry_2
C1 H1 1_555 1_555
B1 C1 1_555 1_555
H2 B1 1_555 1_555
B2 C1 1_555 1_555
H3 B2 1_555 1_555
B3 C1 1_555 1_555
H4 B3 1_555 1_555
B4 C1 1_555 1_555
H5 B4 1_555 1_555
B5 C1 1_555 1_555
H6 B5 1_555 1_555
B6 B1 1_555 1_555
B7 B1 1_555 1_555
B8 B2 1_555 1_555
B9 B3 1_555 1_555
B10 B4 1_555 1_555
B11 B6 1_555 1_555
Br1 B6 1_555 1_555
Br2 B7 1_555 1_555
Br3 B8 1_555 1_555
Br4 B9 1_555 1_555
Br5 B10 1_555 1_555
Br6 B11 1_555 1_555
C2 H7 1_555 1_555
C3 C2 1_555 1_555
C4 C3 1_555 1_555
C5 C4 1_555 1_555
C6 C5 1_555 1_555
C7 C2 1_555 1_555
C8 C2 1_555 1_555
H8 C8 1_555 1_555
H9 C8 1_555 1_555
H10 C8 1_555 1_555
C9 C3 1_555 1_555
H11 C9 1_555 1_555
H12 C9 1_555 1_555
H13 C9 1_555 1_555
C10 C4 1_555 1_555
H14 C10 1_555 1_555
H15 C10 1_555 1_555
H16 C10 1_555 1_555
C11 C5 1_555 1_555
H17 C11 1_555 1_555
H18 C11 1_555 1_555
H19 C11 1_555 1_555
C12 C6 1_555 1_555
H20 C12 1_555 1_555
H21 C12 1_555 1_555
H22 C12 1_555 1_555
C13 C7 1_555 1_555
H23 C13 1_555 1_555
H24 C13 1_555 1_555
H25 C13 1_555 1_555
B1 B2 1_555 1_555
B1 B5 1_555 1_555
B2 B7 1_555 1_555
B2 B3 1_555 1_555
B3 B8 1_555 1_555
B3 B4 1_555 1_555
B4 B9 1_555 1_555
B4 B5 1_555 1_555
B5 B6 1_555 1_555
B5 B10 1_555 1_555
B6 B7 1_555 1_555
B6 B10 1_555 1_555
B7 B8 1_555 1_555
B7 B11 1_555 1_555
B8 B11 1_555 1_555
B8 B9 1_555 1_555
B9 B10 1_555 1_555
B9 B11 1_555 1_555
B10 B11 1_555 1_555
C6 C7 1_555 1_555

#END
