
#######################################################################
#
#                 Cambridge Crystallographic Data Centre
#                                CCDC 
#
#######################################################################
#
# If this CIF has been generated from an entry in the Cambridge 
# Structural Database, then it will include bibliographic, chemical, 
# crystal, experimental, refinement or atomic coordinate data resulting 
# from the CCDC's data processing and validation procedures.
#
#######################################################################

data_WUSJUQ
_chemical_formula_moiety         'C25 H23 N1 O4 S2'
_chemical_name_systematic        
'Ethyl 7-(1,3-dithiolan-2-ylidene)-6-oxo-4,7a-diphenyl-5,6,7,7a-tetrahydro-1,3-benzoxazole-3a(4H)-carboxylate'
_symmetry_cell_setting           orthorhombic
_symmetry_space_group_name_H-M   'F d d 2'
_symmetry_Int_Tables_number      43
_space_group_name_Hall           'F 2 -2d'
loop_
_symmetry_equiv_pos_site_id
_symmetry_equiv_pos_as_xyz
1 x,y,z
2 -x,-y,z
3 1/4-x,1/4+y,1/4+z
4 1/4+x,1/4-y,1/4+z
5 x,1/2+y,1/2+z
6 -x,1/2-y,1/2+z
7 1/4-x,3/4+y,3/4+z
8 1/4+x,3/4-y,3/4+z
9 1/2+x,y,1/2+z
10 1/2-x,-y,1/2+z
11 3/4-x,1/4+y,3/4+z
12 3/4+x,1/4-y,3/4+z
13 1/2+x,1/2+y,z
14 1/2-x,1/2-y,z
15 3/4-x,3/4+y,1/4+z
16 3/4+x,3/4-y,1/4+z
_cell_length_a                   24.784(5)
_cell_length_b                   15.750(5)
_cell_length_c                   23.149(5)
_cell_angle_alpha                90
_cell_angle_beta                 90
_cell_angle_gamma                90
_cell_volume                     9036.17
_exptl_crystal_colour            colorless
_exptl_crystal_description       block
_chemical_melting_point          201-203deg.C
_cell_formula_units_Z            16
loop_
_atom_site_label
_atom_site_type_symbol
_atom_site_fract_x
_atom_site_fract_y
_atom_site_fract_z
S1 S 1.08105(5) 0.98858(7) 1.63817(5)
S2 S 1.08632(6) 1.16685(7) 1.67147(5)
O1 O 1.11666(11) 1.25420(16) 1.56374(12)
O2 O 1.06996(13) 0.97769(17) 1.52786(13)
O3 O 0.98935(11) 1.31264(15) 1.45757(14)
C1 C 1.04005(16) 1.1625(2) 1.44279(18)
H1 H 1.0034 1.1569 1.4583
C2 C 1.07101(14) 1.1185(2) 1.55963(16)
C3 C 1.06621(15) 1.2141(2) 1.54522(16)
C4 C 0.97051(16) 1.2150(2) 1.58016(17)
H2 H 0.9678 1.1589 1.5680
O4 O 1.06760(11) 1.38391(16) 1.46241(14)
C5 C 1.04294(17) 1.3190(2) 1.46533(18)
C6 C 1.01945(16) 1.2571(2) 1.57532(16)
C7 C 1.06920(16) 1.0537(3) 1.51554(17)
C8 C 1.06802(15) 1.2314(2) 1.47855(17)
N1 N 1.12660(13) 1.2410(2) 1.46646(16)
C9 C 1.06793(17) 1.0788(2) 1.45332(19)
H3 H 1.0496 1.0349 1.4315
H4 H 1.1047 1.0823 1.4390
C10 C 1.03412(18) 1.1825(2) 1.37908(19)
C11 C 1.02265(19) 1.3396(3) 1.5956(2)
H5 H 1.0550 1.3694 1.5940
C12 C 1.07759(14) 1.0941(2) 1.61510(18)
C13 C 0.92621(18) 1.2549(3) 1.6027(2)
H6 H 0.8935 1.2261 1.6045
C14 C 1.14691(17) 1.2565(3) 1.5148(2)
H7 H 1.1834 1.2698 1.5172
C15 C 0.98507(19) 1.1684(3) 1.3522(2)
H8 H 0.9562 1.1470 1.3734
C16 C 1.07559(19) 1.2127(3) 1.3454(2)
H9 H 1.1093 1.2215 1.3621
C17 C 0.9609(2) 1.3919(3) 1.4422(3)
H10 H 0.9768 1.4393 1.4629
H11 H 0.9232 1.3877 1.4532
C18 C 0.9761(3) 1.3775(3) 1.6188(2)
H12 H 0.9780 1.4332 1.6319
C19 C 0.9786(2) 1.1859(4) 1.2940(2)
H13 H 0.9455 1.1745 1.2766
C20 C 0.9293(2) 1.3365(3) 1.6225(2)
H14 H 0.8992 1.3629 1.6384
C21 C 1.0685(2) 1.2305(3) 1.2870(2)
H15 H 1.0975 1.2499 1.2652
C22 C 1.0193(3) 1.2194(4) 1.2617(2)
H16 H 1.0136 1.2344 1.2233
C23 C 1.0843(3) 1.0942(3) 1.7297(2)
H17 H 1.1065 1.1153 1.7611
H18 H 1.0476 1.0891 1.7436
C24 C 1.1034(6) 1.0135(5) 1.7121(3)
H19 H 1.0900 0.9704 1.7384
H20 H 1.1425 1.0127 1.7136
C25 C 0.9652(3) 1.4065(4) 1.3790(4)
H21 H 0.9480 1.3607 1.3588
H22 H 1.0026 1.4091 1.3682
H23 H 0.9479 1.4591 1.3693
C26? C 1.0709(15) 1.0046(10) 1.7151(7)
H24? H 1.0337 0.9927 1.7252
H25? H 1.0939 0.9663 1.7368
loop_
_geom_bond_atom_site_label_1
_geom_bond_atom_site_label_2
_geom_bond_site_symmetry_1
_geom_bond_site_symmetry_2
S1 C12 1_555 1_555
S2 C12 1_555 1_555
O1 C3 1_555 1_555
O2 C7 1_555 1_555
O3 C5 1_555 1_555
C1 H1 1_555 1_555
C2 C3 1_555 1_555
C3 C6 1_555 1_555
C4 H2 1_555 1_555
O4 C5 1_555 1_555
C5 C8 1_555 1_555
C6 C4 1_555 1_555
C7 C2 1_555 1_555
C8 C1 1_555 1_555
N1 C8 1_555 1_555
C9 C1 1_555 1_555
H3 C9 1_555 1_555
H4 C9 1_555 1_555
C10 C1 1_555 1_555
C11 C6 1_555 1_555
H5 C11 1_555 1_555
C12 C2 1_555 1_555
C13 C4 1_555 1_555
H6 C13 1_555 1_555
C14 O1 1_555 1_555
H7 C14 1_555 1_555
C15 C10 1_555 1_555
H8 C15 1_555 1_555
C16 C10 1_555 1_555
H9 C16 1_555 1_555
C17 O3 1_555 1_555
H10 C17 1_555 1_555
H11 C17 1_555 1_555
C18 C11 1_555 1_555
H12 C18 1_555 1_555
C19 C15 1_555 1_555
H13 C19 1_555 1_555
C20 C13 1_555 1_555
H14 C20 1_555 1_555
C21 C16 1_555 1_555
H15 C21 1_555 1_555
C22 C19 1_555 1_555
H16 C22 1_555 1_555
C23 S2 1_555 1_555
H17 C23 1_555 1_555
H18 C23 1_555 1_555
C24 S1 1_555 1_555
H19 C24 1_555 1_555
H20 C24 1_555 1_555
C25 C17 1_555 1_555
H21 C25 1_555 1_555
H22 C25 1_555 1_555
H23 C25 1_555 1_555
C3 C8 1_555 1_555
C7 C9 1_555 1_555
N1 C14 1_555 1_555
C18 C20 1_555 1_555
C21 C22 1_555 1_555
C23 C24 1_555 1_555

#END
