
#######################################################################
#
#                 Cambridge Crystallographic Data Centre
#                                CCDC 
#
#######################################################################
#
# If this CIF has been generated from an entry in the Cambridge 
# Structural Database, then it will include bibliographic, chemical, 
# crystal, experimental, refinement or atomic coordinate data resulting 
# from the CCDC's data processing and validation procedures.
#
#######################################################################

data_WUSJUP
_chemical_formula_moiety         'C26 H20 F6 N2 O2'
_chemical_name_systematic        
1-Cyano-2-(2-cyano-1-(trifluoromethyl)vinyl)-3-(2-methoxyphenyl)-4-(trifluoromethyl)-4-(2-(2-methoxyphenyl)vinyl)cyclobutane
_symmetry_cell_setting           monoclinic
_symmetry_space_group_name_H-M   'P 21/c'
_symmetry_Int_Tables_number      14
_space_group_name_Hall           '-P 2ybc'
loop_
_symmetry_equiv_pos_site_id
_symmetry_equiv_pos_as_xyz
1 x,y,z
2 x,1/2-y,1/2+z
3 -x,-y,-z
4 -x,1/2+y,1/2-z
_cell_length_a                   8.125(1)
_cell_length_b                   14.629(4)
_cell_length_c                   20.552(3)
_cell_angle_alpha                90
_cell_angle_beta                 92.76(1)
_cell_angle_gamma                90
_cell_volume                     2439.99
_exptl_crystal_colour            colorless
_exptl_crystal_description       prismatic
_cell_formula_units_Z            4
loop_
_atom_site_label
_atom_site_type_symbol
_atom_site_fract_x
_atom_site_fract_y
_atom_site_fract_z
F1 F 0.5644(2) 0.1910(1) 0.60664(9)
F2 F 0.5420(2) 0.3321(1) 0.6320(1)
F3 F 0.4575(2) 0.2847(1) 0.53714(9)
F4 F 0.3912(3) -0.0103(2) 0.6809(1)
F5 F 0.3935(3) 0.0359(2) 0.7783(1)
F6 F 0.2622(3) -0.0843(2) 0.7516(1)
O1 O 0.2976(3) 0.5832(2) 0.6127(1)
O2 O 0.3268(2) 0.0955(1) 0.49242(9)
N1 N 0.2393(5) 0.3334(2) 0.7872(2)
N2 N -0.2629(5) 0.1188(4) 0.7254(2)
C1 C 0.3047(4) 0.2138(2) 0.6990(1)
C2 C 0.2965(3) 0.2457(2) 0.6257(1)
C3 C 0.1768(4) 0.3222(2) 0.6117(2)
C4 C 0.2003(5) 0.4075(2) 0.6147(2)
C5 C 0.0781(4) 0.4808(2) 0.6001(2)
C6 C -0.0882(5) 0.4629(2) 0.5868(2)
C7 C -0.1987(5) 0.5336(3) 0.5747(2)
C8 C -0.1419(6) 0.6222(3) 0.5761(2)
C9 C 0.0202(6) 0.6413(3) 0.5884(2)
C10 C 0.1314(5) 0.5709(2) 0.6006(2)
C11 C 0.2714(4) 0.2812(2) 0.7488(2)
C12 C 0.4633(4) 0.2637(2) 0.6005(2)
C13 C 0.3616(5) 0.6742(3) 0.6156(3)
C14 C 0.0059(5) 0.0269(3) 0.7375(2)
C15 C 0.1485(4) 0.0566(2) 0.7164(1)
C16 C 0.1647(3) 0.1447(2) 0.6807(1)
C17 C 0.2218(3) 0.1484(2) 0.6097(1)
C18 C 0.1004(3) 0.1360(2) 0.5525(1)
C19 C -0.0671(4) 0.1496(2) 0.5564(1)
C20 C -0.1742(4) 0.1384(2) 0.5017(1)
C21 C -0.1128(4) 0.1142(2) 0.4440(2)
C22 C 0.0545(4) 0.1000(2) 0.4381(1)
C23 C 0.1604(4) 0.1101(2) 0.4928(1)
C24 C -0.1437(6) 0.0778(4) 0.7299(2)
C25 C 0.2969(5) -0.0007(3) 0.7314(2)
C26 C 0.3943(4) 0.0663(2) 0.4329(1)
H1 H 0.4078 0.1829 0.7123
H2 H 0.0863 0.3071 0.5738
H3 H 0.3068 0.4254 0.6528
H4 H -0.1230 0.4004 0.5856
H5 H -0.3140 0.5204 0.5635
H6 H -0.2287 0.6708 0.5679
H7 H 0.0607 0.7012 0.5894
H8 H 0.3355 0.6936 0.5627
H9 H 0.4838 0.6688 0.6288
H10 H 0.2920 0.7079 0.6455
H11 H 0.0011 -0.0343 0.7606
H12 H 0.0591 0.1788 0.6859
H13 H 0.3152 0.1094 0.6082
H14 H -0.1127 0.1699 0.5946
H15 H -0.2963 0.1454 0.5066
H16 H -0.1768 0.1038 0.4072
H17 H 0.1002 0.0849 0.4002
H18 H 0.3364 0.0066 0.4206
H19 H 0.3809 0.1150 0.4091
H20 H 0.5152 0.0553 0.4476
loop_
_geom_bond_atom_site_label_1
_geom_bond_atom_site_label_2
_geom_bond_site_symmetry_1
_geom_bond_site_symmetry_2
F1 C12 1_555 1_555
F2 C12 1_555 1_555
F3 C12 1_555 1_555
F4 C25 1_555 1_555
F5 C25 1_555 1_555
F6 C25 1_555 1_555
O1 C10 1_555 1_555
O2 C23 1_555 1_555
N1 C11 1_555 1_555
N2 C24 1_555 1_555
C1 C2 1_555 1_555
C2 C3 1_555 1_555
C3 C4 1_555 1_555
C4 C5 1_555 1_555
C5 C6 1_555 1_555
C6 C7 1_555 1_555
C7 C8 1_555 1_555
C8 C9 1_555 1_555
C9 C10 1_555 1_555
C10 C5 1_555 1_555
C11 C1 1_555 1_555
C12 C2 1_555 1_555
C13 O1 1_555 1_555
C14 C15 1_555 1_555
C15 C16 1_555 1_555
C16 C1 1_555 1_555
C17 C2 1_555 1_555
C18 C17 1_555 1_555
C19 C18 1_555 1_555
C20 C19 1_555 1_555
C21 C20 1_555 1_555
C22 C21 1_555 1_555
C23 C18 1_555 1_555
C24 C14 1_555 1_555
C25 C15 1_555 1_555
C26 O2 1_555 1_555
H1 C1 1_555 1_555
H2 C3 1_555 1_555
H3 C4 1_555 1_555
H4 C6 1_555 1_555
H5 C7 1_555 1_555
H6 C8 1_555 1_555
H7 C9 1_555 1_555
H8 C13 1_555 1_555
H9 C13 1_555 1_555
H10 C13 1_555 1_555
H11 C14 1_555 1_555
H12 C16 1_555 1_555
H13 C17 1_555 1_555
H14 C19 1_555 1_555
H15 C20 1_555 1_555
H16 C21 1_555 1_555
H17 C22 1_555 1_555
H18 C26 1_555 1_555
H19 C26 1_555 1_555
H20 C26 1_555 1_555
C16 C17 1_555 1_555
C22 C23 1_555 1_555

#END
