
#######################################################################
#
#                 Cambridge Crystallographic Data Centre
#                                CCDC 
#
#######################################################################
#
# If this CIF has been generated from an entry in the Cambridge 
# Structural Database, then it will include bibliographic, chemical, 
# crystal, experimental, refinement or atomic coordinate data resulting 
# from the CCDC's data processing and validation procedures.
#
#######################################################################

data_WUSKAX
_chemical_formula_moiety         'C16 H17 N1 O5'
_chemical_name_systematic        
'Ethyl 4-(2-methoxy-2-oxoethyl)-4,8b-dihydro-3aH-indeno[2,1-d][1,3]oxazole-3a-carboxylate'
_symmetry_cell_setting           orthorhombic
_symmetry_space_group_name_H-M   'P 21 21 21'
_symmetry_Int_Tables_number      19
_space_group_name_Hall           'P 2ac 2ab'
loop_
_symmetry_equiv_pos_site_id
_symmetry_equiv_pos_as_xyz
1 x,y,z
2 1/2-x,-y,1/2+z
3 1/2+x,1/2-y,-z
4 -x,1/2+y,1/2-z
_cell_length_a                   7.5750(8)
_cell_length_b                   12.0480(12)
_cell_length_c                   16.6840(17)
_cell_angle_alpha                90
_cell_angle_beta                 90
_cell_angle_gamma                90
_cell_volume                     1522.64
_exptl_crystal_colour            colorless
_exptl_crystal_description       block
_chemical_melting_point          88-90deg.C
_cell_formula_units_Z            4
loop_
_atom_site_label
_atom_site_type_symbol
_atom_site_fract_x
_atom_site_fract_y
_atom_site_fract_z
O1 O 0.5161(3) 0.92931(18) 0.20057(14)
N1 N 0.4478(3) 1.03235(19) 0.09164(15)
C1 C 0.1975(4) 0.9096(2) 0.04814(16)
H1 H 0.0688 0.9174 0.0502
C2 C 0.3335(4) 0.9006(3) 0.18372(17)
H2 H 0.2584 0.9093 0.2312
O2 O -0.0039(3) 1.0486(2) 0.15666(16)
C3 C 0.2794(4) 0.9819(2) 0.11553(16)
C4 C 0.3178(3) 0.7869(2) 0.14812(16)
O3 O 0.2260(4) 1.1628(2) 0.16526(17)
C5 C 0.2451(3) 0.7924(2) 0.07211(15)
O4 O 0.1121(4) 1.1080(2) -0.02071(16)
C6 C 0.2598(4) 0.9383(2) -0.03664(17)
H3 H 0.3861 0.9254 -0.0393
H4 H 0.2043 0.8869 -0.0737
C7 C 0.3637(4) 0.6865(3) 0.18231(19)
H5 H 0.4120 0.6839 0.2335
C8 C 0.2196(4) 0.6959(2) 0.02878(19)
H6 H 0.1726 0.6982 -0.0227
C9 C 0.5609(4) 0.9982(3) 0.1414(2)
H7 H 0.6775 1.0215 0.1367
C10 C 0.1492(4) 1.0674(3) 0.1470(2)
O5 O 0.2914(5) 1.0911(2) -0.12480(17)
C11 C 0.3369(4) 0.5908(3) 0.1395(2)
H8 H 0.3672 0.5227 0.1618
C12 C 0.2245(5) 1.0534(3) -0.0653(2)
C13 C 0.2654(4) 0.5952(3) 0.0637(2)
H9 H 0.2475 0.5297 0.0354
C14 C 0.0691(8) 1.2208(3) -0.0460(3)
H10 H -0.0128 1.2530 -0.0087
H11 H 0.0169 1.2190 -0.0984
H12 H 0.1749 1.2647 -0.0474
C15 C 0.1180(7) 1.2529(5) 0.2016(3)
H13 H 0.1596 1.3243 0.1826
H14 H -0.0043 1.2445 0.1854
C16 C 0.1298(6) 1.2487(5) 0.2823(4)
H15 H 0.0577 1.3061 0.3053
H16 H 0.2504 1.2596 0.2982
H17 H 0.0898 1.1776 0.3009
loop_
_geom_bond_atom_site_label_1
_geom_bond_atom_site_label_2
_geom_bond_site_symmetry_1
_geom_bond_site_symmetry_2
O1 C2 1_555 1_555
N1 C3 1_555 1_555
C1 H1 1_555 1_555
C2 H2 1_555 1_555
O2 C10 1_555 1_555
C3 C1 1_555 1_555
C4 C2 1_555 1_555
O3 C10 1_555 1_555
C5 C1 1_555 1_555
O4 C12 1_555 1_555
C6 C1 1_555 1_555
H3 C6 1_555 1_555
H4 C6 1_555 1_555
C7 C4 1_555 1_555
H5 C7 1_555 1_555
C8 C5 1_555 1_555
H6 C8 1_555 1_555
C9 O1 1_555 1_555
H7 C9 1_555 1_555
C10 C3 1_555 1_555
O5 C12 1_555 1_555
C11 C7 1_555 1_555
H8 C11 1_555 1_555
C12 C6 1_555 1_555
C13 C8 1_555 1_555
H9 C13 1_555 1_555
C14 O4 1_555 1_555
H10 C14 1_555 1_555
H11 C14 1_555 1_555
H12 C14 1_555 1_555
C15 O3 1_555 1_555
H13 C15 1_555 1_555
H14 C15 1_555 1_555
C16 C15 1_555 1_555
H15 C16 1_555 1_555
H16 C16 1_555 1_555
H17 C16 1_555 1_555
N1 C9 1_555 1_555
C2 C3 1_555 1_555
C4 C5 1_555 1_555
C11 C13 1_555 1_555

#END
