
#######################################################################
#
#                 Cambridge Crystallographic Data Centre
#                                CCDC 
#
#######################################################################
#
# If this CIF has been generated from an entry in the Cambridge 
# Structural Database, then it will include bibliographic, chemical, 
# crystal, experimental, refinement or atomic coordinate data resulting 
# from the CCDC's data processing and validation procedures.
#
#######################################################################

data_WUSKAW
_chemical_formula_moiety         'C13 H8 Cl2 F3 N1'
_chemical_name_systematic        
(2Z,4E)-5-(2,4-Dichlorophenyl)-4-methyl-3-(trifluoromethyl)penta-2,4-dienenitrile
_symmetry_cell_setting           orthorhombic
_symmetry_space_group_name_H-M   'P 21 21 21'
_symmetry_Int_Tables_number      19
_space_group_name_Hall           'P 2ac 2ab'
loop_
_symmetry_equiv_pos_site_id
_symmetry_equiv_pos_as_xyz
1 x,y,z
2 1/2-x,-y,1/2+z
3 1/2+x,1/2-y,-z
4 -x,1/2+y,1/2-z
_cell_length_a                   8.209(3)
_cell_length_b                   20.936(2)
_cell_length_c                   7.767(3)
_cell_angle_alpha                90
_cell_angle_beta                 90
_cell_angle_gamma                90
_cell_volume                     1334.86
_exptl_crystal_colour            colorless
_exptl_crystal_description       prismatic
_cell_formula_units_Z            4
loop_
_atom_site_label
_atom_site_type_symbol
_atom_site_fract_x
_atom_site_fract_y
_atom_site_fract_z
Cl1 Cl 0.0772(3) 0.7801(1) 0.0445(3)
Cl2 Cl 0.3486(2) 0.7881(1) -0.5791(3)
F1 F -0.4757(6) 0.9451(2) 0.3122(5)
F2 F -0.3001(6) 0.8714(2) 0.2697(5)
F3 F -0.2403(6) 0.9688(2) 0.2129(6)
N1 N -0.8111(8) 0.9752(4) 0.161(1)
C1 C -0.5743(9) 0.9313(3) -0.0176(8)
C2 C -0.4216(8) 0.9165(3) 0.0249(8)
C3 C -0.3077(8) 0.8918(3) -0.1078(8)
C4 C -0.1477(8) 0.8847(3) -0.0777(8)
C5 C -0.0274(8) 0.8611(3) -0.2014(8)
C6 C 0.0833(8) 0.8147(3) -0.1590(8)
C7 C 0.1997(8) 0.7915(3) -0.2723(9)
C8 C 0.2073(7) 0.8173(3) -0.4329(9)
C9 C 0.1054(8) 0.8666(3) -0.4819(9)
C10 C -0.0122(9) 0.8889(3) -0.3660(8)
C11 C -0.7025(9) 0.9554(4) 0.090(1)
C12 C -0.360(1) 0.9253(4) 0.2039(10)
C13 C -0.3823(8) 0.8744(4) -0.2766(8)
H1 H -0.6142 0.9216 -0.1410
H2 H -0.1003 0.8938 0.0604
H3 H 0.2834 0.7591 -0.2175
H4 H 0.1040 0.8921 -0.6094
H5 H -0.0828 0.9205 -0.4376
H6 H -0.4776 0.8488 -0.2844
H7 H -0.4423 0.9147 -0.3389
H8 H -0.3043 0.8454 -0.3689
loop_
_geom_bond_atom_site_label_1
_geom_bond_atom_site_label_2
_geom_bond_site_symmetry_1
_geom_bond_site_symmetry_2
Cl1 C6 1_555 1_555
Cl2 C8 1_555 1_555
F1 C12 1_555 1_555
F2 C12 1_555 1_555
F3 C12 1_555 1_555
N1 C11 1_555 1_555
C1 C2 1_555 1_555
C2 C3 1_555 1_555
C3 C4 1_555 1_555
C4 C5 1_555 1_555
C5 C6 1_555 1_555
C6 C7 1_555 1_555
C7 C8 1_555 1_555
C8 C9 1_555 1_555
C9 C10 1_555 1_555
C10 C5 1_555 1_555
C11 C1 1_555 1_555
C12 C2 1_555 1_555
C13 C3 1_555 1_555
H1 C1 1_555 1_555
H2 C4 1_555 1_555
H3 C7 1_555 1_555
H4 C9 1_555 1_555
H5 C10 1_555 1_555
H6 C13 1_555 1_555
H7 C13 1_555 1_555
H8 C13 1_555 1_555

#END
