
#######################################################################
#
#                 Cambridge Crystallographic Data Centre
#                                CCDC 
#
#######################################################################
#
# If this CIF has been generated from an entry in the Cambridge 
# Structural Database, then it will include bibliographic, chemical, 
# crystal, experimental, refinement or atomic coordinate data resulting 
# from the CCDC's data processing and validation procedures.
#
#######################################################################

data_WUSMUS
_chemical_formula_moiety         'C20 H22 N2 O2'
_chemical_name_systematic        rac-Rhazinal
_symmetry_cell_setting           monoclinic
_symmetry_space_group_name_H-M   'P 21/n'
_symmetry_Int_Tables_number      14
_space_group_name_Hall           '-P 2yn'
loop_
_symmetry_equiv_pos_site_id
_symmetry_equiv_pos_as_xyz
1 x,y,z
2 1/2+x,1/2-y,1/2+z
3 -x,-y,-z
4 1/2-x,1/2+y,1/2-z
_cell_length_a                   11.1081(3)
_cell_length_b                   12.6796(4)
_cell_length_c                   11.6659(4)
_cell_angle_alpha                90
_cell_angle_beta                 101.2591(13)
_cell_angle_gamma                90
_cell_volume                     1611.48
_exptl_crystal_colour            colorless
_exptl_crystal_description       needle
_chemical_melting_point          '234-236 deg.C'
_cell_formula_units_Z            4
_exptl_crystal_recrystallization_method dichloromethane/hexane
loop_
_atom_site_label
_atom_site_type_symbol
_atom_site_fract_x
_atom_site_fract_y
_atom_site_fract_z
O1 O 0.5736(5) 1.0084(4) 0.3794(4)
C1 C 0.6289(7) 0.5489(7) 0.4527(7)
O2 O 0.7076(5) 0.4875(5) 0.4317(5)
C2 C 0.3309(8) 0.6795(7) -0.0272(8)
C3 C 0.4770(7) 0.9768(6) 0.3189(7)
N1 N 0.3802(5) 0.9510(5) 0.3703(5)
C4 C 0.2759(6) 0.8931(6) 0.3143(6)
C5 C 0.1584(7) 0.9365(7) 0.3027(7)
C6 C 0.0556(7) 0.8813(6) 0.2531(6)
C7 C 0.0670(7) 0.7799(7) 0.2145(7)
C8 C 0.1828(7) 0.7359(6) 0.2240(6)
C9 C 0.2880(6) 0.7906(6) 0.2739(6)
C10 C 0.4093(7) 0.7362(6) 0.2930(7)
C11 C 0.4950(6) 0.7291(6) 0.2189(6)
N2 N 0.5869(5) 0.6593(5) 0.2707(5)
C12 C 0.5606(7) 0.6263(6) 0.3761(7)
C13 C 0.4518(6) 0.6737(6) 0.3897(7)
C14 C 0.6928(7) 0.6288(6) 0.2223(7)
C15 C 0.7196(8) 0.7100(7) 0.1358(7)
C16 C 0.6047(7) 0.7366(7) 0.0501(7)
C17 C 0.5043(6) 0.7889(6) 0.1091(6)
C18 C 0.5446(7) 0.9034(6) 0.1379(7)
C19 C 0.4581(7) 0.9765(6) 0.1893(6)
C20 C 0.3816(7) 0.7881(6) 0.0215(7)
H1 H 0.4129(5) 0.9500(5) 0.4539(5)
H2 H 0.6083(7) 0.5420(7) 0.5320(7)
H3 H 0.2517(8) 0.6918(7) -0.0832(8)
H4 H 0.3913(8) 0.6462(7) -0.0693(8)
H5 H 0.3163(8) 0.6317(7) 0.0369(8)
H6 H 0.1479(7) 1.0080(7) 0.3358(7)
H7 H -0.0270(7) 0.9154(6) 0.2425(6)
H8 H -0.0076(7) 0.7379(7) 0.1805(7)
H9 H 0.1913(7) 0.6643(6) 0.1906(6)
H10 H 0.4112(6) 0.6661(6) 0.4587(7)
H11 H 0.6720(7) 0.5611(6) 0.1790(7)
H12 H 0.7654(7) 0.6178(6) 0.2868(7)
H13 H 0.7861(8) 0.6853(7) 0.0956(7)
H14 H 0.7472(8) 0.7750(7) 0.1820(7)
H15 H 0.5732(7) 0.6709(7) 0.0070(7)
H16 H 0.6259(7) 0.7895(7) -0.0063(7)
H17 H 0.5588(7) 0.9357(6) 0.0635(7)
H18 H 0.6239(7) 0.9007(6) 0.1958(7)
H19 H 0.3932(7) 0.8342(6) -0.0451(7)
H20 H 0.3181(7) 0.8198(6) 0.0611(7)
H21 H 0.3718(7) 0.9527(6) 0.1592(6)
H22 H 0.4689(7) 1.0498(6) 0.1614(6)
loop_
_geom_bond_atom_site_label_1
_geom_bond_atom_site_label_2
_geom_bond_site_symmetry_1
_geom_bond_site_symmetry_2
O1 C3 1_555 1_555
C1 O2 1_555 1_555
C2 C20 1_555 1_555
C3 N1 1_555 1_555
N1 C4 1_555 1_555
C4 C5 1_555 1_555
C5 C6 1_555 1_555
C6 C7 1_555 1_555
C7 C8 1_555 1_555
C8 C9 1_555 1_555
C9 C4 1_555 1_555
C10 C9 1_555 1_555
C11 C10 1_555 1_555
N2 C11 1_555 1_555
C12 C1 1_555 1_555
C13 C10 1_555 1_555
C14 N2 1_555 1_555
C15 C14 1_555 1_555
C16 C15 1_555 1_555
C17 C11 1_555 1_555
C18 C17 1_555 1_555
C19 C3 1_555 1_555
C20 C17 1_555 1_555
H1 N1 1_555 1_555
H2 C1 1_555 1_555
H3 C2 1_555 1_555
H4 C2 1_555 1_555
H5 C2 1_555 1_555
H6 C5 1_555 1_555
H7 C6 1_555 1_555
H8 C7 1_555 1_555
H9 C8 1_555 1_555
H10 C13 1_555 1_555
H11 C14 1_555 1_555
H12 C14 1_555 1_555
H13 C15 1_555 1_555
H14 C15 1_555 1_555
H15 C16 1_555 1_555
H16 C16 1_555 1_555
H17 C18 1_555 1_555
H18 C18 1_555 1_555
H19 C20 1_555 1_555
H20 C20 1_555 1_555
H21 C19 1_555 1_555
H22 C19 1_555 1_555
N2 C12 1_555 1_555
C12 C13 1_555 1_555
C16 C17 1_555 1_555
C18 C19 1_555 1_555

#END
