
#######################################################################
#
#                 Cambridge Crystallographic Data Centre
#                                CCDC 
#
#######################################################################
#
# If this CIF has been generated from an entry in the Cambridge 
# Structural Database, then it will include bibliographic, chemical, 
# crystal, experimental, refinement or atomic coordinate data resulting 
# from the CCDC's data processing and validation procedures.
#
#######################################################################

data_WUSMIH
_chemical_formula_moiety         'C12 H14 Br1 N1 O3'
_chemical_name_systematic        
cis-6-(Bromomethyl)-4-(4-methoxyphenyl)-1,3-oxazinan-2-one
_symmetry_cell_setting           monoclinic
_symmetry_space_group_name_H-M   'P 21/c'
_symmetry_Int_Tables_number      14
_space_group_name_Hall           '-P 2ybc'
loop_
_symmetry_equiv_pos_site_id
_symmetry_equiv_pos_as_xyz
1 x,y,z
2 -x,1/2+y,1/2-z
3 -x,-y,-z
4 x,1/2-y,1/2+z
_cell_length_a                   14.6488(9)
_cell_length_b                   6.2920(4)
_cell_length_c                   15.2272(7)
_cell_angle_alpha                90
_cell_angle_beta                 114.673(3)
_cell_angle_gamma                90
_cell_volume                     1275.36
_exptl_crystal_colour            colorless
_exptl_crystal_description       block
_chemical_melting_point          '138.2-140.2 deg.C'
_cell_formula_units_Z            4
_exptl_crystal_recrystallization_method 'diethyl ether'
loop_
_atom_site_label
_atom_site_type_symbol
_atom_site_fract_x
_atom_site_fract_y
_atom_site_fract_z
Br1 Br 0.25878(6) 0.19024(10) 0.58110(4)
O1 O 0.4301(3) 0.3798(6) 0.76518(19)
O2 O 0.5056(3) 0.3084(6) 0.9208(2)
O3 O 0.0179(2) 0.9700(5) 0.8967(2)
N1 N 0.4159(3) 0.6132(6) 0.8759(2)
H1 H 0.434(3) 0.650(7) 0.9379(17)
C1 C 0.4527(4) 0.4324(9) 0.8589(3)
C2 C 0.3438(3) 0.7577(7) 0.8047(3)
H2 H 0.3796 0.8882 0.7986
C3 C 0.2999(3) 0.6384(7) 0.7072(3)
H3 H 0.2515 0.5296 0.7082
H4 H 0.2635 0.7397 0.6544
C4 C 0.3808(4) 0.5351(8) 0.6891(3)
H5 H 0.4312 0.646 0.6927
C5 C 0.3501(4) 0.4192(8) 0.5955(3)
H6 H 0.4109 0.3619 0.5908
H7 H 0.3181 0.5208 0.5416
C6 C 0.2612(3) 0.8201(7) 0.8346(2)
C7 C 0.2206(3) 0.6784(7) 0.8778(3)
H8 H 0.2488 0.5404 0.8944
C8 C 0.1396(4) 0.7336(7) 0.8973(3)
H9 H 0.1128 0.6332 0.9267
C9 C 0.0975(3) 0.9335(7) 0.8742(3)
C10 C 0.1365(3) 1.0782(7) 0.8307(3)
H10 H 0.1076 1.2156 0.8135
C11 C 0.2185(3) 1.0202(7) 0.8125(3)
H11 H 0.246 1.1211 0.7838
C12 C -0.0200(4) 1.1813(9) 0.8873(3)
H12 H 0.035 1.2787 0.924
H13 H -0.0715 1.1883 0.9124
H14 H -0.0494 1.2224 0.819
loop_
_geom_bond_atom_site_label_1
_geom_bond_atom_site_label_2
_geom_bond_site_symmetry_1
_geom_bond_site_symmetry_2
Br1 C5 1_555 1_555
O1 C1 1_555 1_555
O2 C1 1_555 1_555
O3 C9 1_555 1_555
N1 H1 1_555 1_555
C1 N1 1_555 1_555
C2 N1 1_555 1_555
H2 C2 1_555 1_555
C3 C2 1_555 1_555
H3 C3 1_555 1_555
H4 C3 1_555 1_555
C4 O1 1_555 1_555
H5 C4 1_555 1_555
C5 C4 1_555 1_555
H6 C5 1_555 1_555
H7 C5 1_555 1_555
C6 C2 1_555 1_555
C7 C6 1_555 1_555
H8 C7 1_555 1_555
C8 C7 1_555 1_555
H9 C8 1_555 1_555
C9 C8 1_555 1_555
C10 C9 1_555 1_555
H10 C10 1_555 1_555
C11 C6 1_555 1_555
H11 C11 1_555 1_555
C12 O3 1_555 1_555
H12 C12 1_555 1_555
H13 C12 1_555 1_555
H14 C12 1_555 1_555
C3 C4 1_555 1_555
C10 C11 1_555 1_555

#END
