
#######################################################################
#
#                 Cambridge Crystallographic Data Centre
#                                CCDC 
#
#######################################################################
#
# If this CIF has been generated from an entry in the Cambridge 
# Structural Database, then it will include bibliographic, chemical, 
# crystal, experimental, refinement or atomic coordinate data resulting 
# from the CCDC's data processing and validation procedures.
#
#######################################################################

data_WUSVIQ
_chemical_formula_moiety         'C16 H19 N1 O7'
_chemical_name_systematic        
'3-Ethyl 4,5-dimethyl 2-phenyl-1,2-oxazolidine-3,4,5-tricarboxylate'
_symmetry_cell_setting           orthorhombic
_symmetry_space_group_name_H-M   'P b c a'
_symmetry_Int_Tables_number      61
_space_group_name_Hall           '-P 2ac 2ab'
loop_
_symmetry_equiv_pos_site_id
_symmetry_equiv_pos_as_xyz
1 x,y,z
2 1/2-x,-y,1/2+z
3 -x,1/2+y,1/2-z
4 1/2+x,1/2-y,-z
5 -x,-y,-z
6 1/2+x,y,1/2-z
7 x,1/2-y,1/2+z
8 1/2-x,1/2+y,z
_cell_length_a                   9.0084(2)
_cell_length_b                   19.0142(5)
_cell_length_c                   19.0720(5)
_cell_angle_alpha                90
_cell_angle_beta                 90
_cell_angle_gamma                90
_cell_volume                     3266.8
_exptl_crystal_colour            colorless
_exptl_crystal_description       block
_cell_formula_units_Z            8
loop_
_atom_site_label
_atom_site_type_symbol
_atom_site_fract_x
_atom_site_fract_y
_atom_site_fract_z
C1 C 0.87692(12) 0.07815(5) 0.36372(5)
C2 C 0.80401(14) 0.09722(6) 0.30194(6)
H1 H 0.8381 0.1362 0.2753
C3 C 0.68142(15) 0.05894(7) 0.27961(7)
H2 H 0.6318 0.0719 0.2376
C4 C 0.63102(15) 0.00195(7) 0.31831(8)
H3 H 0.5461 -0.0236 0.3034
C5 C 0.70537(15) -0.01732(6) 0.37885(7)
H4 H 0.6714 -0.0565 0.4052
C6 C 0.82914(13) 0.01994(6) 0.40158(6)
H5 H 0.8807 0.0057 0.4427
C7 C 1.02211(12) 0.14864(5) 0.50039(5)
H6 H 1.0927 0.1488 0.5408
C8 C 0.86561(12) 0.13335(5) 0.52561(5)
C9 C 0.72093(18) 0.05685(9) 0.59444(9)
H7 H 0.6632 0.0964 0.6129
H8 H 0.7330 0.0212 0.6311
H9 H 0.6688 0.0362 0.5543
C10 C 1.03610(11) 0.21658(5) 0.45878(5)
H10 H 1.1443 0.2281 0.4561
C11 C 0.95799(12) 0.28149(5) 0.48507(5)
C12 C 0.93685(15) 0.35671(7) 0.58274(7)
H11 H 1.0075 0.3921 0.5659
H12 H 0.9406 0.3546 0.6341
H13 H 0.8364 0.3695 0.5678
C13 C 0.98704(12) 0.19540(5) 0.38521(5)
H14 H 0.8805 0.2081 0.3777
C14 C 1.08452(14) 0.23069(6) 0.32974(6)
C15 C 1.0897(2) 0.27391(8) 0.21307(6)
H15 H 1.0541 0.2563 0.1672
H16 H 1.1977 0.2648 0.2161
C16 C 1.0617(3) 0.34986(10) 0.21830(10)
H17 H 0.9546 0.3586 0.2160
H18 H 1.1112 0.3741 0.1795
H19 H 1.1006 0.3675 0.2630
N1 N 1.00605(10) 0.11777(5) 0.38258(4)
O1 O 1.06537(9) 0.09621(4) 0.44975(4)
O2 O 0.75675(9) 0.16245(4) 0.50340(4)
O3 O 0.86539(10) 0.08154(5) 0.57228(5)
O4 O 0.89504(11) 0.32298(5) 0.44771(5)
O5 O 0.97541(9) 0.28857(4) 0.55395(4)
O6 O 1.20783(12) 0.25074(8) 0.33981(6)
O7 O 1.01314(13) 0.23691(6) 0.26961(4)
loop_
_geom_bond_atom_site_label_1
_geom_bond_atom_site_label_2
_geom_bond_site_symmetry_1
_geom_bond_site_symmetry_2
C1 C2 1_555 1_555
C2 H1 1_555 1_555
C3 C2 1_555 1_555
H2 C3 1_555 1_555
C4 C3 1_555 1_555
H3 C4 1_555 1_555
C5 C4 1_555 1_555
H4 C5 1_555 1_555
C6 C1 1_555 1_555
H5 C6 1_555 1_555
C7 H6 1_555 1_555
C8 C7 1_555 1_555
C9 H7 1_555 1_555
H8 C9 1_555 1_555
H9 C9 1_555 1_555
C10 C7 1_555 1_555
H10 C10 1_555 1_555
C11 C10 1_555 1_555
C12 H11 1_555 1_555
H12 C12 1_555 1_555
H13 C12 1_555 1_555
C13 C10 1_555 1_555
H14 C13 1_555 1_555
C14 C13 1_555 1_555
C15 H15 1_555 1_555
H16 C15 1_555 1_555
C16 C15 1_555 1_555
H17 C16 1_555 1_555
H18 C16 1_555 1_555
H19 C16 1_555 1_555
N1 C1 1_555 1_555
O1 C7 1_555 1_555
O2 C8 1_555 1_555
O3 C8 1_555 1_555
O4 C11 1_555 1_555
O5 C11 1_555 1_555
O6 C14 1_555 1_555
O7 C14 1_555 1_555
C5 C6 1_555 1_555
C9 O3 1_555 1_555
C12 O5 1_555 1_555
C13 N1 1_555 1_555
C15 O7 1_555 1_555
N1 O1 1_555 1_555

#END
