
#######################################################################
#
#                 Cambridge Crystallographic Data Centre
#                                CCDC 
#
#######################################################################
#
# If this CIF has been generated from an entry in the Cambridge 
# Structural Database, then it will include bibliographic, chemical, 
# crystal, experimental, refinement or atomic coordinate data resulting 
# from the CCDC's data processing and validation procedures.
#
#######################################################################

data_WUSWUE
_chemical_formula_moiety         'C14 H18 O3 S1'
_chemical_name_systematic        
2,2-dimethyl-5-(methylsulfonyl)-6-phenyl-3,4-dihydro-2H-pyran
_symmetry_cell_setting           monoclinic
_symmetry_space_group_name_H-M   'P 21/c'
_symmetry_Int_Tables_number      14
_space_group_name_Hall           '-P 2ybc'
loop_
_symmetry_equiv_pos_site_id
_symmetry_equiv_pos_as_xyz
1 x,y,z
2 -x,1/2+y,1/2-z
3 -x,-y,-z
4 x,1/2-y,1/2+z
_cell_length_a                   12.3042(8)
_cell_length_b                   29.754(2)
_cell_length_c                   11.0845(7)
_cell_angle_alpha                90
_cell_angle_beta                 92.038(3)
_cell_angle_gamma                90
_cell_volume                     4055.46
_exptl_crystal_colour            colorless
_cell_formula_units_Z            12
loop_
_atom_site_label
_atom_site_type_symbol
_atom_site_fract_x
_atom_site_fract_y
_atom_site_fract_z
C1 C 0.43946(13) 0.13532(6) 0.67221(15)
C2 C 0.46712(13) 0.09282(6) 0.64549(15)
C3 C 0.38901(14) 0.05986(6) 0.58594(16)
H1 H 0.3690 0.0365 0.6448
H2 H 0.4242 0.0449 0.5178
C4 C 0.28688(14) 0.08448(6) 0.53975(16)
H3 H 0.3024 0.1005 0.4640
H4 H 0.2283 0.0624 0.5219
C5 C 0.24916(14) 0.11801(6) 0.63284(16)
C6 C 0.50787(13) 0.17193(6) 0.72567(15)
C7 C 0.48906(14) 0.18591(6) 0.84299(16)
H5 H 0.4371 0.1706 0.8894
C8 C 0.54596(15) 0.22207(6) 0.89202(17)
H6 H 0.5342 0.2311 0.9727
C9 C 0.61997(16) 0.24509(6) 0.82396(18)
H7 H 0.6585 0.2700 0.8575
C10 C 0.63755(15) 0.23157(7) 0.70669(18)
H8 H 0.6878 0.2476 0.6597
C11 C 0.58258(14) 0.19499(6) 0.65730(17)
H9 H 0.5957 0.1857 0.5772
C12 C 0.56605(19) 0.05395(8) 0.84687(18)
H10 H 0.6305 0.0390 0.8825
H11 H 0.5040 0.0333 0.8471
H12 H 0.5496 0.0808 0.8942
C13 C 0.22753(15) 0.09604(7) 0.75359(16)
H13 H 0.2952 0.0831 0.7875
H14 H 0.1731 0.0722 0.7418
H15 H 0.2004 0.1187 0.8093
C14 C 0.15377(14) 0.14606(7) 0.58635(18)
H16 H 0.1389 0.1698 0.6447
H17 H 0.0895 0.1269 0.5754
H18 H 0.1713 0.1596 0.5089
O1 O 0.33684(9) 0.15109(4) 0.65341(11)
O2 O 0.67744(10) 0.10235(5) 0.70157(14)
O3 O 0.60844(11) 0.02916(5) 0.62960(12)
S1 S 0.59136(4) 0.06973(2) 0.69712(4)
C15 C 0.77640(13) 0.37434(6) 0.82058(14)
C16 C 0.79319(14) 0.41873(6) 0.81509(15)
C17 C 0.71258(16) 0.45065(6) 0.75517(17)
H19 H 0.7517 0.4734 0.7079
H20 H 0.6714 0.4665 0.8174
C18 C 0.63437(14) 0.42438(6) 0.67203(16)
H21 H 0.5720 0.4438 0.6480
H22 H 0.6720 0.4158 0.5980
C19 C 0.59249(14) 0.38232(6) 0.73217(16)
C20 C 0.84755(13) 0.33913(6) 0.87726(16)
C21 C 0.91964(15) 0.31477(6) 0.80870(17)
H23 H 0.9282 0.3221 0.7262
C22 C 0.97895(15) 0.27969(7) 0.86091(19)
H24 H 1.0282 0.2631 0.8140
C23 C 0.96670(15) 0.26874(6) 0.98115(19)
H25 H 1.0075 0.2448 1.0168
C24 C 0.89470(15) 0.29288(7) 1.04893(17)
H26 H 0.8860 0.2853 1.1313
C25 C 0.83515(14) 0.32796(6) 0.99805(16)
H27 H 0.7859 0.3444 1.0453
C26 C 0.52753(16) 0.39213(8) 0.84276(18)
H28 H 0.5027 0.3638 0.8775
H29 H 0.4645 0.4107 0.8197
H30 H 0.5734 0.4082 0.9026
C27 C 0.52986(15) 0.35289(7) 0.64321(18)
H31 H 0.5746 0.3468 0.5737
H32 H 0.4630 0.3683 0.6159
H33 H 0.5112 0.3245 0.6823
C28 C 0.87582(18) 0.45241(7) 1.03378(17)
H34 H 0.8619 0.4234 1.0722
H35 H 0.8104 0.4712 1.0361
H36 H 0.9362 0.4676 1.0771
O4 O 0.68597(9) 0.35428(4) 0.77196(11)
O5 O 0.92187(11) 0.48718(4) 0.82758(12)
O6 O 1.00145(10) 0.41361(5) 0.88157(12)
S2 S 0.90979(4) 0.44358(2) 0.88293(4)
C29 C 0.08839(13) 0.36810(6) 0.54819(15)
C30 C 0.09316(14) 0.41310(6) 0.54214(15)
C31 C -0.00361(15) 0.44123(6) 0.50297(17)
H37 H 0.0070 0.4533 0.4210
H38 H -0.0109 0.4669 0.5588
C32 C -0.10636(14) 0.41284(6) 0.50267(17)
H39 H -0.1284 0.4083 0.5868
H40 H -0.1658 0.4291 0.4588
C33 C -0.09022(13) 0.36745(6) 0.44369(15)
C34 C 0.17061(14) 0.33617(6) 0.59948(16)
C35 C 0.21510(14) 0.30335(6) 0.52645(17)
H41 H 0.1974 0.3029 0.4423
C36 C 0.28505(15) 0.27145(7) 0.5761(2)
H42 H 0.3151 0.2491 0.5259
C37 C 0.31160(15) 0.27174(7) 0.69824(19)
H43 H 0.3596 0.2497 0.7320
C38 C 0.26776(16) 0.30432(7) 0.77113(18)
H44 H 0.2862 0.3048 0.8551
C39 C 0.19689(14) 0.33634(6) 0.72223(16)
H45 H 0.1664 0.3584 0.7729
C40 C 0.19172(17) 0.46354(7) 0.72741(17)
H46 H 0.1827 0.4379 0.7818
H47 H 0.1265 0.4824 0.7276
H48 H 0.2550 0.4813 0.7549
C41 C -0.18812(14) 0.33702(6) 0.45754(18)
H49 H -0.1722 0.3072 0.4250
H50 H -0.2511 0.3499 0.4133
H51 H -0.2041 0.3344 0.5432
C42 C -0.06138(15) 0.37119(8) 0.31220(16)
H52 H -0.0001 0.3920 0.3048
H53 H -0.1243 0.3825 0.2648
H54 H -0.0411 0.3415 0.2820
O7 O -0.00039(9) 0.34418(4) 0.50923(11)
O8 O 0.21117(10) 0.48277(4) 0.50263(12)
O9 O 0.30627(10) 0.41579(5) 0.58227(13)
S3 S 0.21142(4) 0.44382(2) 0.58033(4)
loop_
_geom_bond_atom_site_label_1
_geom_bond_atom_site_label_2
_geom_bond_site_symmetry_1
_geom_bond_site_symmetry_2
C1 C2 1_555 1_555
C2 C3 1_555 1_555
C3 H1 1_555 1_555
H2 C3 1_555 1_555
C4 C3 1_555 1_555
H3 C4 1_555 1_555
H4 C4 1_555 1_555
C5 C4 1_555 1_555
C6 C1 1_555 1_555
C7 C6 1_555 1_555
H5 C7 1_555 1_555
C8 C7 1_555 1_555
H6 C8 1_555 1_555
C9 C8 1_555 1_555
H7 C9 1_555 1_555
C10 C9 1_555 1_555
H8 C10 1_555 1_555
C11 C6 1_555 1_555
H9 C11 1_555 1_555
C12 H10 1_555 1_555
H11 C12 1_555 1_555
H12 C12 1_555 1_555
C13 C5 1_555 1_555
H13 C13 1_555 1_555
H14 C13 1_555 1_555
H15 C13 1_555 1_555
C14 C5 1_555 1_555
H16 C14 1_555 1_555
H17 C14 1_555 1_555
H18 C14 1_555 1_555
O1 C1 1_555 1_555
O2 S1 1_555 1_555
O3 S1 1_555 1_555
S1 C2 1_555 1_555
C15 C16 1_555 1_555
C16 C17 1_555 1_555
C17 H19 1_555 1_555
H20 C17 1_555 1_555
C18 C17 1_555 1_555
H21 C18 1_555 1_555
H22 C18 1_555 1_555
C19 C18 1_555 1_555
C20 C15 1_555 1_555
C21 C20 1_555 1_555
H23 C21 1_555 1_555
C22 C21 1_555 1_555
H24 C22 1_555 1_555
C23 C22 1_555 1_555
H25 C23 1_555 1_555
C24 C23 1_555 1_555
H26 C24 1_555 1_555
C25 C20 1_555 1_555
H27 C25 1_555 1_555
C26 C19 1_555 1_555
H28 C26 1_555 1_555
H29 C26 1_555 1_555
H30 C26 1_555 1_555
C27 C19 1_555 1_555
H31 C27 1_555 1_555
H32 C27 1_555 1_555
H33 C27 1_555 1_555
C28 H34 1_555 1_555
H35 C28 1_555 1_555
H36 C28 1_555 1_555
O4 C15 1_555 1_555
O5 S2 1_555 1_555
O6 S2 1_555 1_555
S2 C16 1_555 1_555
C29 C30 1_555 1_555
C30 C31 1_555 1_555
C31 H37 1_555 1_555
H38 C31 1_555 1_555
C32 C31 1_555 1_555
H39 C32 1_555 1_555
H40 C32 1_555 1_555
C33 C32 1_555 1_555
C34 C29 1_555 1_555
C35 C34 1_555 1_555
H41 C35 1_555 1_555
C36 C35 1_555 1_555
H42 C36 1_555 1_555
C37 C36 1_555 1_555
H43 C37 1_555 1_555
C38 C37 1_555 1_555
H44 C38 1_555 1_555
C39 C34 1_555 1_555
H45 C39 1_555 1_555
C40 H46 1_555 1_555
H47 C40 1_555 1_555
H48 C40 1_555 1_555
C41 C33 1_555 1_555
H49 C41 1_555 1_555
H50 C41 1_555 1_555
H51 C41 1_555 1_555
C42 C33 1_555 1_555
H52 C42 1_555 1_555
H53 C42 1_555 1_555
H54 C42 1_555 1_555
O7 C29 1_555 1_555
O8 S3 1_555 1_555
O9 S3 1_555 1_555
S3 C30 1_555 1_555
C5 O1 1_555 1_555
C10 C11 1_555 1_555
C12 S1 1_555 1_555
C19 O4 1_555 1_555
C24 C25 1_555 1_555
C28 S2 1_555 1_555
C33 O7 1_555 1_555
C38 C39 1_555 1_555
C40 S3 1_555 1_555

#END
