
#######################################################################
#
#                 Cambridge Crystallographic Data Centre
#                                CCDC 
#
#######################################################################
#
# If this CIF has been generated from an entry in the Cambridge 
# Structural Database, then it will include bibliographic, chemical, 
# crystal, experimental, refinement or atomic coordinate data resulting 
# from the CCDC's data processing and validation procedures.
#
#######################################################################

data_WUSYIS
_chemical_name_common            
"[3',5',9',11',13'(111'),16',18',21',23',27',29',31'(116'),34',36',39',41',45',47',49'(121'),52',54',57',59',63',65',67'(126'),70',72',75',77',81',83',85'(131'),88',90',93', 95',99',101',103'(136'),106',108',109',112',114',117',119',122',124',127', 129',132',134',137']tetrapentacontaene-56',1'''':74',1''''':92',1''''''-tricyclohexane)]knotane chloroform methanol solvate dihydrate"
_chemical_formula_moiety         
'C186 H201 N15 O15,3(C1 H1 Cl3),13(C1 H4 O1),2(H2 O1)'
_chemical_name_systematic        
"[(3~1~)Cyclopropane(29',65',101'-allyloxy-5',17',23',35',41',53',59',71',77', 89',95',107',110',112',115',117',120',122',125',127',130',132',135',137'-tetracosamethyl-8',14',26',32',44',50',62',68',80',86',98',104'-dodecaoxohexaspiro(tricyclohexane-1,2'':20',1'':38',1'''-(7',15',25',33', 43',51',61',69',79',87',97',105',116',126',136')penta-decaazanonadeca-cyclo[104.2.2.2^3,6'^.2^16',19'^.2^21',24'^.2^34',37'^.2^39',42'^.2^52',55'^.2^57',60'^.2^70',73'^.2^75',78'^.2^88',91'^.2^93',96'^.1^9',13'^.1^27',31'^.1^45',49'^.1^63',67'^.1^81',85'^.1^99',103'^] octatriacontahectane"
_symmetry_cell_setting           monoclinic
_symmetry_space_group_name_H-M   'P 21/n'
_symmetry_Int_Tables_number      14
_space_group_name_Hall           '-P 2yn'
loop_
_symmetry_equiv_pos_site_id
_symmetry_equiv_pos_as_xyz
1 x,y,z
2 1/2+x,1/2-y,1/2+z
3 -x,-y,-z
4 1/2-x,1/2+y,1/2-z
_cell_length_a                   20.2432(1)
_cell_length_b                   39.5892(3)
_cell_length_c                   25.2668(2)
_cell_angle_alpha                90
_cell_angle_beta                 91.830(1)
_cell_angle_gamma                90
_cell_volume                     20238.8
_exptl_crystal_colour            colorless
_exptl_crystal_description       plates
_cell_formula_units_Z            4
loop_
_atom_site_label
_atom_site_type_symbol
_atom_site_fract_x
_atom_site_fract_y
_atom_site_fract_z
C1 C 0.1263(4) 0.5396(2) 0.0582(3)
O1 O 0.0790(3) 0.55234(15) 0.0795(2)
N1 N 0.1662(3) 0.51635(15) 0.0815(2)
H1 H 0.2030 0.5107 0.0662
C2 C 0.1500(3) 0.50037(17) 0.1313(3)
C3 C 0.1893(3) 0.50659(17) 0.1756(3)
C4 C 0.1719(3) 0.49133(17) 0.2231(3)
C5 C 0.1175(3) 0.47009(17) 0.2266(3)
C6 C 0.0806(3) 0.4641(2) 0.1804(3)
C7 C 0.0960(4) 0.4789(2) 0.1324(3)
C8 C 0.0979(3) 0.45566(19) 0.2809(3)
C9 C 0.0452(4) 0.4276(2) 0.2744(3)
C10 C 0.0191(4) 0.4160(3) 0.3271(3)
C11 C -0.0125(5) 0.4455(3) 0.3566(4)
C12 C 0.0360(4) 0.4740(3) 0.3642(4)
C13 C 0.0670(4) 0.4845(2) 0.3124(3)
C14 C 0.1610(3) 0.44044(17) 0.3078(2)
C15 C 0.1921(3) 0.45459(18) 0.3526(3)
C16 C 0.2481(3) 0.44013(18) 0.3766(2)
C17 C 0.2739(3) 0.41061(17) 0.3552(2)
C18 C 0.2437(3) 0.39558(17) 0.3102(3)
C19 C 0.1882(3) 0.41113(17) 0.2874(3)
N2 N 0.3310(3) 0.39542(14) 0.3799(2)
H2 H 0.3277 0.3878 0.4124
C20 C 0.3887(3) 0.39207(17) 0.3567(3)
O2 O 0.3980(2) 0.40283(13) 0.31168(18)
C21 C 0.4425(3) 0.37393(16) 0.3872(2)
C22 C 0.4575(3) 0.38075(18) 0.4399(3)
C23 C 0.5089(4) 0.36380(19) 0.4664(3)
C24 C 0.5453(3) 0.33965(18) 0.4396(3)
C25 C 0.5291(3) 0.33240(16) 0.3868(2)
C26 C 0.4789(3) 0.35061(17) 0.3609(3)
C27 C 0.5617(3) 0.30462(17) 0.3567(3)
O3 O 0.5396(2) 0.29543(13) 0.31332(19)
N3 N 0.6161(3) 0.29002(14) 0.3794(2)
H3 H 0.6308 0.2977 0.4103
C28 C 0.6507(3) 0.26286(17) 0.3560(2)
C29 C 0.6264(3) 0.22980(18) 0.3608(3)
C30 C 0.6638(3) 0.20351(18) 0.3402(3)
C31 C 0.7242(3) 0.20914(17) 0.3158(2)
C32 C 0.7449(3) 0.24254(17) 0.3107(3)
C33 C 0.7090(3) 0.26956(17) 0.3306(3)
C34 C 0.7617(3) 0.17890(17) 0.2937(3)
C35 C 0.7695(3) 0.15115(18) 0.3363(3)
C36 C 0.8156(4) 0.1618(2) 0.3828(3)
C37 C 0.8836(4) 0.1698(2) 0.3631(3)
C38 C 0.8804(3) 0.1968(2) 0.3203(3)
C39 C 0.8315(3) 0.18765(18) 0.2756(3)
C40 C 0.7181(3) 0.16624(17) 0.2460(2)
C41 C 0.7126(3) 0.18632(17) 0.2004(2)
C42 C 0.6687(3) 0.17829(17) 0.1587(3)
C43 C 0.6289(3) 0.15062(17) 0.1634(2)
C44 C 0.6346(3) 0.12876(17) 0.2074(3)
C45 C 0.6804(3) 0.13707(16) 0.2477(3)
N4 N 0.5756(3) 0.14546(14) 0.1252(2)
H4 H 0.5453 0.1613 0.1223
C46 C 0.5686(3) 0.11865(19) 0.0938(3)
O4 O 0.6102(3) 0.09619(14) 0.0901(2)
C47 C 0.5032(3) 0.11712(17) 0.0632(3)
C48 C 0.4844(3) 0.08737(18) 0.0394(3)
C49 C 0.4231(3) 0.08583(17) 0.0134(3)
C50 C 0.3832(3) 0.11474(16) 0.0115(2)
C51 C 0.4078(3) 0.14348(16) 0.0367(2)
N5 N 0.4659(3) 0.14505(13) 0.0631(2)
C52 C 0.3670(3) 0.17514(16) 0.0349(3)
O5 O 0.3146(2) 0.17594(12) 0.0084(2)
N6 N 0.3903(3) 0.20117(13) 0.0633(2)
H5 H 0.4286 0.1987 0.0803
C53 C 0.3571(3) 0.23287(16) 0.0681(2)
C54 C 0.3585(3) 0.25635(17) 0.0265(3)
C55 C 0.3280(3) 0.28753(16) 0.0341(3)
C56 C 0.2958(3) 0.29571(16) 0.0802(3)
C57 C 0.2943(3) 0.27124(16) 0.1195(2)
C58 C 0.3247(3) 0.23981(16) 0.1149(2)
C59 C 0.2656(3) 0.33102(17) 0.0893(3)
C60 C 0.2508(3) 0.34997(18) 0.0358(3)
C61 C 0.1973(4) 0.3340(2) 0.0002(3)
C62 C 0.1343(4) 0.3291(2) 0.0299(3)
C63 C 0.1459(4) 0.3099(2) 0.0813(3)
C64 C 0.1988(3) 0.32763(19) 0.1170(3)
C65 C 0.3137(3) 0.35252(16) 0.1235(2)
C66 C 0.2959(3) 0.38396(16) 0.1412(2)
C67 C 0.3381(3) 0.40515(16) 0.1705(2)
C68 C 0.4024(3) 0.39355(17) 0.1814(2)
C69 C 0.4227(3) 0.36138(16) 0.1658(2)
C70 C 0.3785(3) 0.34155(17) 0.1363(2)
N7 N 0.4473(2) 0.41426(13) 0.21209(19)
H6 H 0.4404 0.4168 0.2461
C71 C 0.4987(3) 0.42975(16) 0.1919(2)
O6 O 0.5085(2) 0.43054(12) 0.14387(16)
C72 C 0.5467(3) 0.44657(16) 0.2296(2)
C73 C 0.5905(3) 0.47043(17) 0.2095(3)
C74 C 0.6360(3) 0.48657(18) 0.2429(3)
C75 C 0.6402(3) 0.47845(18) 0.2962(3)
C76 C 0.5974(3) 0.45458(17) 0.3167(2)
C77 C 0.5507(3) 0.43894(17) 0.2837(2)
C78 C 0.5991(3) 0.44498(18) 0.3737(2)
O7 O 0.5476(2) 0.44060(15) 0.39749(18)
N8 N 0.6592(3) 0.44182(14) 0.3976(2)
H7 H 0.6946 0.4463 0.3795
C79 C 0.6671(3) 0.43141(17) 0.4518(2)
C80 C 0.6908(3) 0.39925(17) 0.4634(2)
C81 C 0.6972(3) 0.38919(17) 0.5154(2)
C82 C 0.6804(3) 0.41010(16) 0.5575(2)
C83 C 0.6560(3) 0.44138(17) 0.5440(2)
H8 H 0.6430 0.4559 0.5717
C84 C 0.6491(3) 0.45319(18) 0.4924(3)
C85 C 0.6874(3) 0.39692(17) 0.6148(2)
C86 C 0.6754(4) 0.42490(18) 0.6565(2)
C87 C 0.7289(4) 0.45167(19) 0.6616(3)
C88 C 0.7967(4) 0.4367(2) 0.6715(3)
C89 C 0.8104(4) 0.4116(2) 0.6279(3)
C90 C 0.7590(3) 0.38367(18) 0.6256(3)
C91 C 0.6363(3) 0.36857(17) 0.6218(2)
C92 C 0.6541(4) 0.33526(18) 0.6273(3)
C93 C 0.6084(4) 0.30933(18) 0.6370(3)
C94 C 0.5422(3) 0.31837(19) 0.6406(2)
C95 C 0.5218(4) 0.3516(2) 0.6339(3)
C96 C 0.5696(4) 0.3760(2) 0.6247(3)
N9 N 0.4950(3) 0.29249(15) 0.6515(2)
H9 H 0.4668 0.2862 0.6262
C97 C 0.4926(4) 0.2775(2) 0.6996(3)
O8 O 0.5251(3) 0.28630(17) 0.7380(2)
C98 C 0.4471(3) 0.24714(19) 0.7025(2)
C99 C 0.4401(4) 0.2317(2) 0.7506(3)
C100 C 0.4016(3) 0.20308(19) 0.7529(3)
C101 C 0.3685(3) 0.19211(18) 0.7069(2)
C102 C 0.3781(3) 0.20934(18) 0.6604(2)
N10 N 0.4164(3) 0.23708(15) 0.6573(2)
C103 C 0.3471(3) 0.19558(19) 0.6096(3)
O9 O 0.3146(2) 0.16955(13) 0.60964(18)
N11 N 0.3611(3) 0.21398(15) 0.5663(2)
H10 H 0.3840 0.2327 0.5705
C104 C 0.3401(3) 0.20418(17) 0.5139(2)
C105 C 0.2828(3) 0.21825(17) 0.4910(2)
C106 C 0.2643(3) 0.20941(17) 0.4390(2)
C107 C 0.3024(3) 0.18795(17) 0.4096(2)
C108 C 0.3598(3) 0.17391(18) 0.4342(3)
C109 C 0.3794(3) 0.18155(18) 0.4859(3)
C110 C 0.2844(3) 0.17869(18) 0.3517(2)
C111 C 0.2155(3) 0.1927(2) 0.3344(3)
C112 C 0.1927(4) 0.1817(2) 0.2796(3)
C113 C 0.1896(5) 0.1442(2) 0.2751(3)
C114 C 0.2549(5) 0.1284(2) 0.2910(3)
C115 C 0.2803(4) 0.13973(18) 0.3457(3)
C116 C 0.3397(3) 0.19429(17) 0.3182(2)
C117 C 0.3941(3) 0.17545(17) 0.3026(2)
C118 C 0.4465(3) 0.18991(17) 0.2762(2)
C119 C 0.4431(3) 0.22434(16) 0.2643(2)
C120 C 0.3886(3) 0.24391(16) 0.2779(2)
C121 C 0.3388(3) 0.22792(17) 0.3055(2)
N12 N 0.4958(3) 0.24086(14) 0.2378(2)
H11 H 0.5185 0.2562 0.2559
C122 C 0.5136(3) 0.23495(16) 0.1879(2)
O10 O 0.4893(2) 0.21312(11) 0.15891(17)
C123 C 0.5664(3) 0.25875(16) 0.1690(2)
C124 C 0.6209(3) 0.26795(17) 0.2011(3)
C125 C 0.6667(3) 0.29044(19) 0.1817(3)
C126 C 0.6588(3) 0.30379(17) 0.1316(3)
C127 C 0.6045(3) 0.29472(15) 0.0996(2)
C128 C 0.5601(3) 0.27130(16) 0.1179(2)
C129 C 0.5922(3) 0.30953(18) 0.0454(2)
O11 O 0.5728(3) 0.29132(12) 0.00786(18)
N13 N 0.6013(3) 0.34276(13) 0.0418(2)
H12 H 0.6193 0.3532 0.0694
C130 C 0.5836(3) 0.36328(16) -0.0046(2)
C131 C 0.6312(3) 0.38316(17) -0.0267(2)
C132 C 0.6126(3) 0.40448(16) -0.0680(2)
C133 C 0.5482(3) 0.40652(15) -0.0875(2)
C134 C 0.5016(3) 0.38564(16) -0.0642(2)
C135 C 0.5173(3) 0.36402(16) -0.0229(2)
C136 C 0.5253(3) 0.42949(16) -0.1346(2)
C137 C 0.5792(3) 0.45344(18) -0.1511(3)
C138 C 0.5588(4) 0.4736(2) -0.2009(3)
C139 C 0.5444(5) 0.4501(3) -0.2460(3)
C140 C 0.4929(4) 0.4247(2) -0.2338(3)
C141 C 0.5107(3) 0.40603(19) -0.1833(3)
C142 C 0.4633(3) 0.44916(16) -0.1180(2)
C143 C 0.4698(3) 0.47734(16) -0.0858(2)
C144 C 0.4150(3) 0.49538(16) -0.0678(2)
C145 C 0.3522(3) 0.48365(16) -0.0834(2)
C146 C 0.3427(3) 0.45550(17) -0.1156(3)
C147 C 0.3989(3) 0.43854(17) -0.1322(3)
N14 N 0.2958(3) 0.50237(14) -0.0653(2)
H13 H 0.2866 0.5013 -0.0316
C148 C 0.2573(3) 0.52112(17) -0.0971(3)
O12 O 0.2643(3) 0.52333(14) -0.14552(19)
C149 C 0.2023(3) 0.53987(17) -0.0712(3)
C150 C 0.1646(3) 0.56209(17) -0.1011(3)
C151 C 0.1119(3) 0.57800(17) -0.0770(3)
C152 C 0.1007(3) 0.57112(18) -0.0247(3)
C153 C 0.1416(3) 0.54840(17) 0.0019(3)
N15 N 0.1926(3) 0.53269(14) -0.0198(2)
C154 C 0.2488(4) 0.5287(2) 0.1735(3)
C155 C 0.0539(5) 0.4714(3) 0.0832(3)
C156 C 0.2784(4) 0.4559(2) 0.4262(3)
C157 C 0.2701(4) 0.36362(19) 0.2866(3)
C158 C 0.5618(3) 0.2225(2) 0.3870(3)
C159 C 0.7330(4) 0.30543(19) 0.3249(3)
C160 C 0.6660(4) 0.19986(19) 0.1095(3)
C161 C 0.5905(4) 0.09829(19) 0.2129(3)
O13 O 0.4060(2) 0.05528(12) -0.0074(2)
C162 C 0.3417(4) 0.05168(18) -0.0329(4)
C163 C 0.3331(5) 0.0156(2) -0.0476(5)
C164 C 0.3750(7) -0.0084(2) -0.0367(7)
C165 C 0.3913(4) 0.2488(2) -0.0244(3)
C166 C 0.3215(4) 0.21403(17) 0.1580(3)
C167 C 0.3155(4) 0.43954(18) 0.1891(3)
C168 C 0.4909(3) 0.34836(18) 0.1802(3)
C169 C 0.7094(4) 0.37564(19) 0.4192(3)
C170 C 0.6229(5) 0.4880(2) 0.4810(3)
C171 C 0.6313(4) 0.2738(2) 0.6447(4)
C172 C 0.4502(4) 0.3608(3) 0.6395(5)
O14 O 0.3932(3) 0.18415(14) 0.79723(18)
C173 C 0.4235(5) 0.1953(2) 0.8456(3)
C174 C 0.4162(4) 0.1675(2) 0.8856(3)
C175 C 0.3888(9) 0.1386(3) 0.8747(7)
C177 C 0.2430(4) 0.2432(2) 0.5205(3)
C178 C 0.4406(4) 0.1668(2) 0.5102(3)
C179 C 0.5052(4) 0.16882(18) 0.2628(3)
C180 C 0.3833(4) 0.28065(18) 0.2633(3)
C181 C 0.7021(3) 0.3827(2) -0.0053(3)
C182 C 0.4639(3) 0.3439(2) 0.0031(3)
C183 C 0.4232(4) 0.52641(18) -0.0334(3)
C184 C 0.2749(4) 0.4428(2) -0.1313(3)
O15 O 0.0694(2) 0.59909(13) -0.10255(19)
C185 C 0.0812(4) 0.6081(2) -0.1560(3)
C186 C 0.0259(4) 0.6289(2) -0.1769(3)
C187 C -0.0259(4) 0.6378(3) -0.1522(4)
C188 C -0.0658(4) 0.57366(16) 0.0884(2)
Cl1 Cl -0.0762(2) 0.59342(11) 0.02744(15)
Cl2 Cl -0.1016(2) 0.53360(11) 0.0807(2)
Cl3 Cl -0.1067(2) 0.59656(16) 0.13532(17)
C189 C 0.6310(5) 0.2096(3) -0.1863(3)
Cl4 Cl 0.6864(4) 0.20393(19) -0.1326(2)
Cl5 Cl 0.5918(4) 0.17093(19) -0.1991(3)
Cl6 Cl 0.6795(3) 0.21991(14) -0.2406(2)
C190 C 0.7481(5) 0.0730(2) 0.1509(3)
Cl7 Cl 0.7252(3) 0.04073(17) 0.1938(2)
Cl8 Cl 0.8129(5) 0.0951(2) 0.1825(3)
Cl9 Cl 0.7796(3) 0.05416(15) 0.0947(2)
O16 O 0.4083(2) 0.45387(12) 0.07038(18)
C191 C 0.4155(4) 0.42551(18) 0.0369(3)
O17 O 0.2853(2) 0.47924(12) 0.04639(19)
C192 C 0.2485(4) 0.45011(19) 0.0343(4)
O18 O 0.6961(3) 0.29637(13) 0.4742(2)
C193 C 0.6866(5) 0.2656(2) 0.4981(5)
O19 O 0.6291(3) 0.39474(14) 0.1183(2)
C194 C 0.6738(5) 0.3947(2) 0.1615(3)
O20 O 0.4374(3) 0.27556(15) 0.5456(2)
C195 C 0.4949(5) 0.2642(3) 0.5221(4)
O21 O 0.2959(4) 0.3618(2) 0.4789(3)
C196 C 0.3177(9) 0.3650(5) 0.5313(4)
O22 O 0.1836(5) 0.5272(3) -0.2362(4)
C197 C 0.1280(6) 0.5079(4) -0.2241(7)
O23 O 0.3656(5) 0.3015(2) 0.4643(3)
C198 C 0.3662(7) 0.2852(3) 0.4152(4)
O24 O 0.4438(4) 0.4864(3) 0.3886(3)
C199 C 0.4100(5) 0.4840(2) 0.3403(4)
O25 O 0.0678(6) 0.5869(2) 0.1735(4)
C200 C 0.0643(7) 0.5678(3) 0.2192(4)
O26 O 0.5207(6) 0.5477(3) 0.3963(4)
C201 C 0.5275(7) 0.5583(4) 0.4493(5)
O27 O 0.7774(4) 0.4331(2) 0.3262(3)
C202 C 0.7797(11) 0.4070(4) 0.2896(7)
O28 O 0.6727(10) 0.1222(5) -0.0136(8)
C203 C 0.6289(8) 0.1081(4) -0.0509(7)
O29 O 0.5515(8) 0.2867(4) -0.1240(6)
H14 H 0.5429 0.2832 -0.0922
H15 H 0.5206 0.2971 -0.1399
O30 O 0.5662(9) 0.2076(5) -0.0230(8)
H16 H 0.5938 0.2185 -0.0404
H17 H 0.5825 0.2009 0.0061
C176? C 0.4667(8) 0.1514(4) 0.9067(7)
loop_
_geom_bond_atom_site_label_1
_geom_bond_atom_site_label_2
_geom_bond_site_symmetry_1
_geom_bond_site_symmetry_2
C1 O1 1_555 1_555
N1 C1 1_555 1_555
H1 N1 1_555 1_555
C2 N1 1_555 1_555
C3 C2 1_555 1_555
C4 C3 1_555 1_555
C5 C4 1_555 1_555
C6 C5 1_555 1_555
C7 C2 1_555 1_555
C8 C5 1_555 1_555
C9 C8 1_555 1_555
C10 C9 1_555 1_555
C11 C10 1_555 1_555
C12 C11 1_555 1_555
C13 C8 1_555 1_555
C14 C8 1_555 1_555
C15 C14 1_555 1_555
C16 C15 1_555 1_555
C17 C16 1_555 1_555
C18 C17 1_555 1_555
C19 C14 1_555 1_555
N2 C17 1_555 1_555
H2 N2 1_555 1_555
C20 N2 1_555 1_555
O2 C20 1_555 1_555
C21 C20 1_555 1_555
C22 C21 1_555 1_555
C23 C22 1_555 1_555
C24 C23 1_555 1_555
C25 C24 1_555 1_555
C26 C21 1_555 1_555
C27 C25 1_555 1_555
O3 C27 1_555 1_555
N3 C27 1_555 1_555
H3 N3 1_555 1_555
C28 N3 1_555 1_555
C29 C28 1_555 1_555
C30 C29 1_555 1_555
C31 C30 1_555 1_555
C32 C31 1_555 1_555
C33 C28 1_555 1_555
C34 C31 1_555 1_555
C35 C34 1_555 1_555
C36 C35 1_555 1_555
C37 C36 1_555 1_555
C38 C37 1_555 1_555
C39 C34 1_555 1_555
C40 C34 1_555 1_555
C41 C40 1_555 1_555
C42 C41 1_555 1_555
C43 C42 1_555 1_555
C44 C43 1_555 1_555
C45 C40 1_555 1_555
N4 C43 1_555 1_555
H4 N4 1_555 1_555
C46 N4 1_555 1_555
O4 C46 1_555 1_555
C47 C46 1_555 1_555
C48 C47 1_555 1_555
C49 C48 1_555 1_555
C50 C49 1_555 1_555
C51 C50 1_555 1_555
N5 C47 1_555 1_555
C52 C51 1_555 1_555
O5 C52 1_555 1_555
N6 C52 1_555 1_555
H5 N6 1_555 1_555
C53 N6 1_555 1_555
C54 C53 1_555 1_555
C55 C54 1_555 1_555
C56 C55 1_555 1_555
C57 C56 1_555 1_555
C58 C53 1_555 1_555
C59 C56 1_555 1_555
C60 C59 1_555 1_555
C61 C60 1_555 1_555
C62 C61 1_555 1_555
C63 C62 1_555 1_555
C64 C59 1_555 1_555
C65 C59 1_555 1_555
C66 C65 1_555 1_555
C67 C66 1_555 1_555
C68 C67 1_555 1_555
C69 C68 1_555 1_555
C70 C65 1_555 1_555
N7 C68 1_555 1_555
H6 N7 1_555 1_555
C71 N7 1_555 1_555
O6 C71 1_555 1_555
C72 C71 1_555 1_555
C73 C72 1_555 1_555
C74 C73 1_555 1_555
C75 C74 1_555 1_555
C76 C75 1_555 1_555
C77 C72 1_555 1_555
C78 C76 1_555 1_555
O7 C78 1_555 1_555
N8 C78 1_555 1_555
H7 N8 1_555 1_555
C79 N8 1_555 1_555
C80 C79 1_555 1_555
C81 C80 1_555 1_555
C82 C81 1_555 1_555
C83 C82 1_555 1_555
H8 C83 1_555 1_555
C84 C79 1_555 1_555
C85 C82 1_555 1_555
C86 C85 1_555 1_555
C87 C86 1_555 1_555
C88 C87 1_555 1_555
C89 C88 1_555 1_555
C90 C85 1_555 1_555
C91 C85 1_555 1_555
C92 C91 1_555 1_555
C93 C92 1_555 1_555
C94 C93 1_555 1_555
C95 C94 1_555 1_555
C96 C91 1_555 1_555
N9 C94 1_555 1_555
H9 N9 1_555 1_555
C97 N9 1_555 1_555
O8 C97 1_555 1_555
C98 C97 1_555 1_555
C99 C98 1_555 1_555
C100 C99 1_555 1_555
C101 C100 1_555 1_555
C102 C101 1_555 1_555
N10 C98 1_555 1_555
C103 C102 1_555 1_555
O9 C103 1_555 1_555
N11 C103 1_555 1_555
H10 N11 1_555 1_555
C104 N11 1_555 1_555
C105 C104 1_555 1_555
C106 C105 1_555 1_555
C107 C106 1_555 1_555
C108 C107 1_555 1_555
C109 C104 1_555 1_555
C110 C107 1_555 1_555
C111 C110 1_555 1_555
C112 C111 1_555 1_555
C113 C112 1_555 1_555
C114 C113 1_555 1_555
C115 C110 1_555 1_555
C116 C110 1_555 1_555
C117 C116 1_555 1_555
C118 C117 1_555 1_555
C119 C118 1_555 1_555
C120 C119 1_555 1_555
C121 C116 1_555 1_555
N12 C119 1_555 1_555
H11 N12 1_555 1_555
C122 N12 1_555 1_555
O10 C122 1_555 1_555
C123 C122 1_555 1_555
C124 C123 1_555 1_555
C125 C124 1_555 1_555
C126 C125 1_555 1_555
C127 C126 1_555 1_555
C128 C123 1_555 1_555
C129 C127 1_555 1_555
O11 C129 1_555 1_555
N13 C129 1_555 1_555
H12 N13 1_555 1_555
C130 N13 1_555 1_555
C131 C130 1_555 1_555
C132 C131 1_555 1_555
C133 C132 1_555 1_555
C134 C133 1_555 1_555
C135 C130 1_555 1_555
C136 C133 1_555 1_555
C137 C136 1_555 1_555
C138 C137 1_555 1_555
C139 C138 1_555 1_555
C140 C139 1_555 1_555
C141 C136 1_555 1_555
C142 C136 1_555 1_555
C143 C142 1_555 1_555
C144 C143 1_555 1_555
C145 C144 1_555 1_555
C146 C145 1_555 1_555
C147 C142 1_555 1_555
N14 C145 1_555 1_555
H13 N14 1_555 1_555
C148 N14 1_555 1_555
O12 C148 1_555 1_555
C149 C148 1_555 1_555
C150 C149 1_555 1_555
C151 C150 1_555 1_555
C152 C151 1_555 1_555
C153 C1 1_555 1_555
N15 C149 1_555 1_555
C154 C3 1_555 1_555
C155 C7 1_555 1_555
C156 C16 1_555 1_555
C157 C18 1_555 1_555
C158 C29 1_555 1_555
C159 C33 1_555 1_555
C160 C42 1_555 1_555
C161 C44 1_555 1_555
O13 C49 1_555 1_555
C162 O13 1_555 1_555
C163 C162 1_555 1_555
C164 C163 1_555 1_555
C165 C54 1_555 1_555
C166 C58 1_555 1_555
C167 C67 1_555 1_555
C168 C69 1_555 1_555
C169 C80 1_555 1_555
C170 C84 1_555 1_555
C171 C93 1_555 1_555
C172 C95 1_555 1_555
O14 C100 1_555 1_555
C173 O14 1_555 1_555
C174 C173 1_555 1_555
C175 C174 1_555 1_555
C177 C105 1_555 1_555
C178 C109 1_555 1_555
C179 C118 1_555 1_555
C180 C120 1_555 1_555
C181 C131 1_555 1_555
C182 C135 1_555 1_555
C183 C144 1_555 1_555
C184 C146 1_555 1_555
O15 C151 1_555 1_555
C185 O15 1_555 1_555
C186 C185 1_555 1_555
C187 C186 1_555 1_555
C188 Cl1 1_555 1_555
Cl2 C188 1_555 1_555
Cl3 C188 1_555 1_555
C189 Cl4 1_555 1_555
Cl5 C189 1_555 1_555
Cl6 C189 1_555 1_555
C190 Cl7 1_555 1_555
Cl8 C190 1_555 1_555
Cl9 C190 1_555 1_555
O16 C191 1_555 1_555
O17 C192 1_555 1_555
O18 C193 1_555 1_555
O19 C194 1_555 1_555
O20 C195 1_555 1_555
O21 C196 1_555 1_555
O22 C197 1_555 1_555
O23 C198 1_555 1_555
O24 C199 1_555 1_555
O25 C200 1_555 1_555
O26 C201 1_555 1_555
O27 C202 1_555 1_555
O28 C203 1_555 1_555
O29 H14 1_555 1_555
H15 O29 1_555 1_555
O30 H16 1_555 1_555
H17 O30 1_555 1_555
C6 C7 1_555 1_555
C12 C13 1_555 1_555
C18 C19 1_555 1_555
C25 C26 1_555 1_555
C32 C33 1_555 1_555
C38 C39 1_555 1_555
C44 C45 1_555 1_555
C51 N5 1_555 1_555
C57 C58 1_555 1_555
C63 C64 1_555 1_555
C69 C70 1_555 1_555
C76 C77 1_555 1_555
C83 C84 1_555 1_555
C89 C90 1_555 1_555
C95 C96 1_555 1_555
C102 N10 1_555 1_555
C108 C109 1_555 1_555
C114 C115 1_555 1_555
C120 C121 1_555 1_555
C127 C128 1_555 1_555
C134 C135 1_555 1_555
C140 C141 1_555 1_555
C146 C147 1_555 1_555
C152 C153 1_555 1_555
C153 N15 1_555 1_555

#END
