
#######################################################################
#
#                 Cambridge Crystallographic Data Centre
#                                CCDC 
#
#######################################################################
#
# If this CIF has been generated from an entry in the Cambridge 
# Structural Database, then it will include bibliographic, chemical, 
# crystal, experimental, refinement or atomic coordinate data resulting 
# from the CCDC's data processing and validation procedures.
#
#######################################################################

data_WUTDAR
_chemical_formula_moiety         'C15 H13 Cl2 N2 1+,B1 F4 1-'
_chemical_name_systematic        
'6-Chloro-3-(4-chlorophenyl)-1-methyl-1,4-dihydroquinazolin-3-ium tetrafluoroborate'
_symmetry_cell_setting           monoclinic
_symmetry_space_group_name_H-M   'P 21/c'
_symmetry_Int_Tables_number      14
_space_group_name_Hall           '-P 2ybc'
loop_
_symmetry_equiv_pos_site_id
_symmetry_equiv_pos_as_xyz
1 x,y,z
2 -x,1/2+y,1/2-z
3 -x,-y,-z
4 x,1/2-y,1/2+z
_cell_length_a                   14.5133(19)
_cell_length_b                   16.628(3)
_cell_length_c                   13.5067(16)
_cell_angle_alpha                90
_cell_angle_beta                 90.171(2)
_cell_angle_gamma                90
_cell_volume                     3259.52
_exptl_crystal_colour            yellow
_exptl_crystal_description       block
_cell_formula_units_Z            8
loop_
_atom_site_label
_atom_site_type_symbol
_atom_site_fract_x
_atom_site_fract_y
_atom_site_fract_z
Cl1 Cl 0.33611(7) 0.10761(6) 1.05604(9)
Cl2 Cl 1.12460(7) 0.12447(7) 0.91894(9)
N1 N 0.6112(3) 0.03324(18) 0.7493(3)
N2 N 0.7268(2) 0.09684(18) 0.8396(2)
C1 C 0.6993(3) 0.0529(2) 0.7652(3)
H1 H 0.7433 0.0343 0.7209
C2 C 0.6622(3) 0.1374(2) 0.9055(3)
H2 H 0.6587 0.1938 0.8877
H3 H 0.6849 0.1339 0.9730
C3 C 0.5679(3) 0.1011(2) 0.9000(3)
C4 C 0.5432(3) 0.0527(2) 0.8218(3)
C5 C 0.4553(3) 0.0205(2) 0.8142(3)
H4 H 0.4399 -0.0129 0.7614
C6 C 0.3913(3) 0.0386(2) 0.8853(3)
H5 H 0.3317 0.0184 0.8803
C7 C 0.4155(3) 0.0866(2) 0.9642(3)
C8 C 0.5037(3) 0.1171(2) 0.9711(3)
H6 H 0.5197 0.1490 1.0250
C9 C 0.8240(3) 0.1045(3) 0.8580(3)
C10 C 0.8770(3) 0.0364(2) 0.8638(3)
H7 H 0.8504 -0.0141 0.8553
C11 C 0.9702(3) 0.0435(3) 0.8822(3)
H8 H 1.0069 -0.0023 0.8854
C12 C 1.0087(3) 0.1175(3) 0.8958(3)
C13 C 0.9556(3) 0.1852(2) 0.8898(3)
H9 H 0.9826 0.2355 0.8979
C14 C 0.8615(3) 0.1794(2) 0.8717(3)
H10 H 0.8248 0.2252 0.8689
C15 C 0.5889(3) -0.0179(2) 0.6598(3)
H11 H 0.6413 -0.0196 0.6167
H12 H 0.5374 0.0050 0.6250
H13 H 0.5738 -0.0714 0.6808
Cl3 Cl -0.16386(7) 0.34543(7) 0.63689(9)
Cl4 Cl 0.62189(7) 0.24047(7) 0.66373(9)
N3 N 0.1026(2) 0.0792(2) 0.6410(2)
N4 N 0.2249(2) 0.1668(2) 0.6652(2)
C16 C 0.1912(3) 0.0951(2) 0.6510(3)
H14 H 0.2323 0.0523 0.6478
C17 C 0.1662(3) 0.2361(2) 0.6743(3)
H15 H 0.1878 0.2774 0.6293
H16 H 0.1715 0.2570 0.7411
C18 C 0.0666(3) 0.2194(3) 0.6526(3)
C19 C 0.0374(3) 0.1421(3) 0.6371(3)
C20 C -0.0537(3) 0.1269(3) 0.6172(3)
H17 H -0.0733 0.0744 0.6056
C21 C -0.1159(3) 0.1888(3) 0.6144(3)
H18 H -0.1774 0.1789 0.5992
C22 C -0.0864(3) 0.2660(3) 0.6341(3)
C23 C 0.0047(3) 0.2818(2) 0.6520(3)
H19 H 0.0244 0.3342 0.6636
C24 C 0.3227(3) 0.1811(2) 0.6672(3)
C25 C 0.3761(3) 0.1547(2) 0.5897(3)
H20 H 0.3497 0.1258 0.5380
C26 C 0.4694(3) 0.1717(2) 0.5894(3)
H21 H 0.5068 0.1536 0.5382
C27 C 0.5058(3) 0.2158(2) 0.6661(4)
C28 C 0.4526(3) 0.2419(2) 0.7431(3)
H22 H 0.4790 0.2712 0.7945
C29 C 0.3588(3) 0.2244(2) 0.7443(3)
H23 H 0.3216 0.2417 0.7961
C30 C 0.0749(3) -0.0093(3) 0.6315(3)
H24 H 0.1269 -0.0428 0.6470
H25 H 0.0549 -0.0199 0.5649
H26 H 0.0256 -0.0208 0.6766
F1 F 0.82383(17) 0.95926(14) 0.5790(2)
F2 F 0.797(3) 0.828(2) 0.566(3)
F3 F 0.773(2) 0.8899(9) 0.7095(19)
F4 F 0.9155(14) 0.8695(17) 0.656(3)
B1 B 0.8315(5) 0.8871(4) 0.6249(6)
F5 F 0.6791(17) 0.4336(18) 0.978(2)
F6 F 0.5897(16) 0.3603(17) 0.885(2)
F7 F 0.7364(9) 0.3313(11) 0.9038(12)
F8 F 0.69971(19) 0.43056(18) 0.8162(3)
B2 B 0.6717(6) 0.3906(6) 0.9024(6)
F9? F 0.830(4) 0.9011(10) 0.7204(12)
F10? F 0.9145(17) 0.8550(11) 0.598(3)
F11? F 0.768(2) 0.837(2) 0.597(3)
F12? F 0.604(3) 0.340(2) 0.883(4)
F13? F 0.7332(17) 0.368(2) 0.954(4)
F14? F 0.630(2) 0.4606(8) 0.9398(14)
loop_
_geom_bond_atom_site_label_1
_geom_bond_atom_site_label_2
_geom_bond_site_symmetry_1
_geom_bond_site_symmetry_2
Cl1 C7 1_555 1_555
Cl2 C12 1_555 1_555
Cl3 C22 1_555 1_555
Cl4 C27 1_555 1_555
F1 B1 1_555 1_555
F2 B1 1_555 1_555
F3 B1 1_555 1_555
F4 B1 1_555 1_555
F5 B2 1_555 1_555
F6 B2 1_555 1_555
F7 B2 1_555 1_555
F8 B2 1_555 1_555
N1 C1 1_555 1_555
N2 C1 1_555 1_555
N3 C16 1_555 1_555
N4 C16 1_555 1_555
C1 H1 1_555 1_555
C2 N2 1_555 1_555
H2 C2 1_555 1_555
H3 C2 1_555 1_555
C3 C2 1_555 1_555
C4 N1 1_555 1_555
C5 C4 1_555 1_555
H4 C5 1_555 1_555
C6 C5 1_555 1_555
H5 C6 1_555 1_555
C7 C6 1_555 1_555
C8 C3 1_555 1_555
H6 C8 1_555 1_555
C9 N2 1_555 1_555
C10 C9 1_555 1_555
H7 C10 1_555 1_555
C11 C10 1_555 1_555
H8 C11 1_555 1_555
C12 C11 1_555 1_555
C13 C12 1_555 1_555
H9 C13 1_555 1_555
C14 C9 1_555 1_555
H10 C14 1_555 1_555
C15 N1 1_555 1_555
H11 C15 1_555 1_555
H12 C15 1_555 1_555
H13 C15 1_555 1_555
C16 H14 1_555 1_555
C17 N4 1_555 1_555
H15 C17 1_555 1_555
H16 C17 1_555 1_555
C18 C17 1_555 1_555
C19 N3 1_555 1_555
C20 C19 1_555 1_555
H17 C20 1_555 1_555
C21 C20 1_555 1_555
H18 C21 1_555 1_555
C22 C21 1_555 1_555
C23 C18 1_555 1_555
H19 C23 1_555 1_555
C24 N4 1_555 1_555
C25 C24 1_555 1_555
H20 C25 1_555 1_555
C26 C25 1_555 1_555
H21 C26 1_555 1_555
C27 C26 1_555 1_555
C28 C27 1_555 1_555
H22 C28 1_555 1_555
C29 C24 1_555 1_555
H23 C29 1_555 1_555
C30 N3 1_555 1_555
H24 C30 1_555 1_555
H25 C30 1_555 1_555
H26 C30 1_555 1_555
C3 C4 1_555 1_555
C7 C8 1_555 1_555
C13 C14 1_555 1_555
C18 C19 1_555 1_555
C22 C23 1_555 1_555
C28 C29 1_555 1_555

#END
