
#######################################################################
#
#                 Cambridge Crystallographic Data Centre
#                                CCDC 
#
#######################################################################
#
# If this CIF has been generated from an entry in the Cambridge 
# Structural Database, then it will include bibliographic, chemical, 
# crystal, experimental, refinement or atomic coordinate data resulting 
# from the CCDC's data processing and validation procedures.
#
#######################################################################

data_WUTQIN
_chemical_formula_moiety         'C13 H16 O3'
_chemical_name_systematic        
14-Hydroxy-12-oxatetracyclo[8.4.0.0^2,7^.0^3,13^]tetradec-4-en-11-one
_symmetry_cell_setting           orthorhombic
_symmetry_space_group_name_H-M   'P 21 21 21'
_symmetry_Int_Tables_number      19
_space_group_name_Hall           'P 2ac 2ab'
loop_
_symmetry_equiv_pos_site_id
_symmetry_equiv_pos_as_xyz
1 x,y,z
2 1/2-x,-y,1/2+z
3 1/2+x,1/2-y,-z
4 -x,1/2+y,1/2-z
_cell_length_a                   7.7711(3)
_cell_length_b                   11.0137(3)
_cell_length_c                   12.6885(3)
_cell_angle_alpha                90
_cell_angle_beta                 90
_cell_angle_gamma                90
_cell_volume                     1085.99
_cell_formula_units_Z            8
loop_
_atom_site_label
_atom_site_type_symbol
_atom_site_fract_x
_atom_site_fract_y
_atom_site_fract_z
O1 O 0.12266(17) -0.44967(13) -0.32639(10)
O2 O 0.1129(2) -0.52246(16) -0.16653(12)
O3 O 0.1081(2) -0.61794(15) -0.57810(12)
H1 H 0.1919 -0.5856 -0.6056
C1 C -0.0916(2) -0.43629(17) -0.47047(14)
H2 H -0.0903 -0.4229 -0.5468
C2 C -0.1698(3) -0.32491(19) -0.42337(15)
H3 H -0.1011 -0.2569 -0.4126
C3 C -0.3342(3) -0.3205(2) -0.39654(17)
H4 H -0.3797 -0.2478 -0.3717
C4 C -0.4493(3) -0.4296(2) -0.40512(17)
H5 H -0.4962 -0.4342 -0.4759
H6 H -0.5446 -0.4212 -0.3563
C5 C -0.3502(2) -0.5475(2) -0.38046(15)
H7 H -0.4265 -0.6159 -0.3965
C6 C -0.1917(2) -0.55800(18) -0.45262(14)
H8 H -0.2328 -0.5852 -0.5217
C7 C -0.3076(3) -0.5530(2) -0.26286(15)
H9 H -0.2509 -0.4783 -0.2421
H10 H -0.4136 -0.5596 -0.2229
C8 C -0.1916(3) -0.6601(2) -0.23619(15)
H11 H -0.2484 -0.7354 -0.2551
H12 H -0.1689 -0.6615 -0.1610
C9 C -0.0216(3) -0.64847(19) -0.29698(15)
H13 H 0.0486 -0.7197 -0.2796
C10 C 0.0752(3) -0.5367(2) -0.25837(15)
C11 C 0.0944(2) -0.46528(18) -0.43926(14)
H14 H 0.1754 -0.4157 -0.4799
C12 C -0.0503(2) -0.64904(18) -0.41698(15)
H15 H -0.0755 -0.7312 -0.4424
C13 C 0.1138(3) -0.59944(19) -0.46731(16)
H16 H 0.2173 -0.6350 -0.4358
loop_
_geom_bond_atom_site_label_1
_geom_bond_atom_site_label_2
_geom_bond_site_symmetry_1
_geom_bond_site_symmetry_2
O1 C10 1_555 1_555
O2 C10 1_555 1_555
O3 H1 1_555 1_555
C1 H2 1_555 1_555
C2 C1 1_555 1_555
H3 C2 1_555 1_555
C3 C2 1_555 1_555
H4 C3 1_555 1_555
C4 C3 1_555 1_555
H5 C4 1_555 1_555
H6 C4 1_555 1_555
C5 C4 1_555 1_555
H7 C5 1_555 1_555
C6 C1 1_555 1_555
H8 C6 1_555 1_555
C7 C5 1_555 1_555
H9 C7 1_555 1_555
H10 C7 1_555 1_555
C8 C7 1_555 1_555
H11 C8 1_555 1_555
H12 C8 1_555 1_555
C9 C8 1_555 1_555
H13 C9 1_555 1_555
C10 C9 1_555 1_555
C11 O1 1_555 1_555
H14 C11 1_555 1_555
C12 C6 1_555 1_555
H15 C12 1_555 1_555
C13 O3 1_555 1_555
H16 C13 1_555 1_555
C1 C11 1_555 1_555
C5 C6 1_555 1_555
C9 C12 1_555 1_555
C11 C13 1_555 1_555
C12 C13 1_555 1_555

#END
