
#######################################################################
#
#                 Cambridge Crystallographic Data Centre
#                                CCDC 
#
#######################################################################
#
# If this CIF has been generated from an entry in the Cambridge 
# Structural Database, then it will include bibliographic, chemical, 
# crystal, experimental, refinement or atomic coordinate data resulting 
# from the CCDC's data processing and validation procedures.
#
#######################################################################

data_WUTQAF
_chemical_formula_moiety         'C15 H9 N1 S2'
_chemical_name_systematic        2-(1-Benzothiophen-3-yl)-1,3-benzothiazole
_symmetry_cell_setting           orthorhombic
_symmetry_space_group_name_H-M   'P n a 21'
_symmetry_Int_Tables_number      33
_space_group_name_Hall           'P 2c -2n'
loop_
_symmetry_equiv_pos_site_id
_symmetry_equiv_pos_as_xyz
1 x,y,z
2 -x,-y,1/2+z
3 1/2+x,1/2-y,z
4 1/2-x,1/2+y,1/2+z
_cell_length_a                   25.831(3)
_cell_length_b                   11.8166(11)
_cell_length_c                   3.9035(4)
_cell_angle_alpha                90
_cell_angle_beta                 90
_cell_angle_gamma                90
_cell_volume                     1191.48
_exptl_crystal_colour            colorless
_exptl_crystal_description       needle
_cell_formula_units_Z            4
loop_
_atom_site_label
_atom_site_type_symbol
_atom_site_fract_x
_atom_site_fract_y
_atom_site_fract_z
S1 S 0.45757(2) 0.59409(2) 0.26380(11)
S2 S 0.39685(2) 0.20926(3) 0.26413(13)
N1 N 0.36858(4) 0.61865(10) 0.5707(3)
C1 C 0.44112(5) 0.72800(11) 0.4057(4)
C2 C 0.39201(5) 0.72460(11) 0.5622(4)
C3 C 0.37065(6) 0.82408(12) 0.6987(4)
H1 H 0.3378 0.8230 0.8076
C4 C 0.39859(6) 0.92424(13) 0.6714(5)
H2 H 0.3844 0.9923 0.7609
C5 C 0.44727(7) 0.92625(13) 0.5141(5)
H3 H 0.4655 0.9959 0.4974
C6 C 0.46954(6) 0.82844(12) 0.3817(4)
H4 H 0.5029 0.8298 0.2788
C7 C 0.39820(5) 0.54267(11) 0.4291(4)
C8 C 0.38599(5) 0.42257(11) 0.4017(4)
C9 C 0.42018(5) 0.34554(11) 0.2691(5)
H5 H 0.4536 0.3655 0.1875
C10 C 0.33865(6) 0.25211(12) 0.4447(4)
C11 C 0.33794(5) 0.36981(12) 0.5078(4)
C12 C 0.29636(7) 0.18264(14) 0.5260(5)
H6 H 0.2973 0.1036 0.4814
C13 C 0.25325(7) 0.23262(16) 0.6731(5)
H7 H 0.2243 0.1872 0.7321
C14 C 0.25183(6) 0.34911(15) 0.7361(5)
H8 H 0.2217 0.3815 0.8358
C15 C 0.29357(6) 0.41844(14) 0.6556(4)
H9 H 0.2921 0.4974 0.6998
loop_
_geom_bond_atom_site_label_1
_geom_bond_atom_site_label_2
_geom_bond_site_symmetry_1
_geom_bond_site_symmetry_2
S1 C1 1_555 1_555
S2 C9 1_555 1_555
N1 C2 1_555 1_555
C1 C2 1_555 1_555
C2 C3 1_555 1_555
C3 H1 1_555 1_555
C4 C3 1_555 1_555
H2 C4 1_555 1_555
C5 C4 1_555 1_555
H3 C5 1_555 1_555
C6 C1 1_555 1_555
H4 C6 1_555 1_555
C7 S1 1_555 1_555
C8 C7 1_555 1_555
C9 C8 1_555 1_555
H5 C9 1_555 1_555
C10 S2 1_555 1_555
C11 C8 1_555 1_555
C12 C10 1_555 1_555
H6 C12 1_555 1_555
C13 C12 1_555 1_555
H7 C13 1_555 1_555
C14 C13 1_555 1_555
H8 C14 1_555 1_555
C15 C11 1_555 1_555
H9 C15 1_555 1_555
N1 C7 1_555 1_555
C5 C6 1_555 1_555
C10 C11 1_555 1_555
C14 C15 1_555 1_555

#END
