
#######################################################################
#
#                 Cambridge Crystallographic Data Centre
#                                CCDC 
#
#######################################################################
#
# If this CIF has been generated from an entry in the Cambridge 
# Structural Database, then it will include bibliographic, chemical, 
# crystal, experimental, refinement or atomic coordinate data resulting 
# from the CCDC's data processing and validation procedures.
#
#######################################################################

data_WUTVOY
_chemical_formula_moiety         'C37 H31 N5 O4'
_chemical_name_systematic        
18,23-Dioxa-3,10,31,38,44-penta-azahexacyclo[38.3.1.0^4,9^.0^12,17^.0^24,29^.0^32,37^]tetratetraconta-1(44),4,6,8,10,12,14,16,24,26,28,30,32,34,36,40,42-heptadecaene-2,39-dione
_symmetry_cell_setting           monoclinic
_symmetry_space_group_name_H-M   'C 2/c'
_symmetry_Int_Tables_number      15
_space_group_name_Hall           '-C 2yn'
loop_
_symmetry_equiv_pos_site_id
_symmetry_equiv_pos_as_xyz
1 x,y,z
2 -x,y,1/2-z
3 1/2+x,1/2+y,z
4 1/2-x,1/2+y,1/2-z
5 -x,-y,-z
6 x,-y,1/2+z
7 1/2-x,1/2-y,-z
8 1/2+x,1/2-y,1/2+z
_cell_length_a                   29.63(3)
_cell_length_b                   10.856(9)
_cell_length_c                   23.912(19)
_cell_angle_alpha                90
_cell_angle_beta                 127.171(10)
_cell_angle_gamma                90
_cell_volume                     6128.95
_cell_formula_units_Z            8
loop_
_atom_site_label
_atom_site_type_symbol
_atom_site_fract_x
_atom_site_fract_y
_atom_site_fract_z
C1 C 0.40299(10) 0.3050(2) 0.26023(11)
H1 H 0.3779 0.3167 0.2119
C2 C 0.45889(10) 0.2822(2) 0.29212(11)
H2 H 0.4723 0.2773 0.2657
C3 C 0.49558(9) 0.2662(2) 0.36448(10)
C4 C 0.55699(9) 0.2352(2) 0.39861(11)
C5 C 0.64208(8) 0.15105(19) 0.50969(10)
C6 C 0.68123(9) 0.1615(2) 0.49596(12)
H3 H 0.6719 0.2037 0.4564
C7 C 0.73431(10) 0.1086(2) 0.54157(13)
H4 H 0.7606 0.1155 0.5325
C8 C 0.74851(10) 0.0458(2) 0.60037(13)
H5 H 0.7842 0.0105 0.6306
C9 C 0.70990(9) 0.0355(2) 0.61423(12)
H6 H 0.7198 -0.0070 0.6540
C10 C 0.65634(8) 0.08757(18) 0.56996(10)
C11 C 0.62185(8) 0.05079(18) 0.63550(10)
H7 H 0.6581 0.0278 0.6738
C12 C 0.57541(8) 0.04982(17) 0.64124(10)
C13 C 0.52024(8) 0.07490(18) 0.58234(11)
H8 H 0.5135 0.0893 0.5396
C14 C 0.47548(9) 0.07899(19) 0.58556(12)
H9 H 0.4390 0.0954 0.5455
C15 C 0.48548(10) 0.0585(2) 0.64890(13)
H10 H 0.4555 0.0620 0.6516
C16 C 0.53894(10) 0.0329(2) 0.70812(12)
H11 H 0.5449 0.0189 0.7505
C17 C 0.58436(8) 0.02769(19) 0.70505(10)
C18 C 0.65131(9) -0.0154(2) 0.82946(10)
H12 H 0.6866 -0.0604 0.8598
H13 H 0.6216 -0.0644 0.8242
C19 C 0.65617(9) 0.1049(2) 0.86423(11)
H14 H 0.6520 0.0886 0.9008
H15 H 0.6250 0.1577 0.8297
C20 C 0.71152(9) 0.1744(2) 0.89645(11)
H16 H 0.7103 0.2498 0.9173
H17 H 0.7423 0.1247 0.9341
C21 C 0.72504(8) 0.2073(2) 0.84680(11)
H18 H 0.7598 0.2548 0.8713
H19 H 0.7302 0.1329 0.8288
C22 C 0.68244(8) 0.31247(18) 0.73731(10)
C23 C 0.73190(8) 0.3051(2) 0.74294(11)
H20 H 0.7647 0.2733 0.7835
C24 C 0.73263(9) 0.3444(2) 0.68895(12)
H21 H 0.7661 0.3400 0.6936
C25 C 0.68425(9) 0.3905(2) 0.62763(12)
H22 H 0.6850 0.4174 0.5913
C26 C 0.63507(9) 0.39567(19) 0.62159(11)
H23 H 0.6023 0.4249 0.5801
C27 C 0.63275(8) 0.35868(18) 0.67546(10)
C28 C 0.57935(8) 0.36088(18) 0.66629(10)
H24 H 0.5788 0.3354 0.7030
C29 C 0.48209(8) 0.39715(18) 0.60138(10)
C30 C 0.47638(9) 0.4275(2) 0.65324(11)
H25 H 0.5085 0.4454 0.6982
C31 C 0.42411(10) 0.4314(3) 0.63932(12)
H26 H 0.4210 0.4523 0.6746
C32 C 0.37684(10) 0.4047(2) 0.57369(12)
H27 H 0.3415 0.4077 0.5643
C33 C 0.38086(8) 0.3732(2) 0.52086(11)
H28 H 0.3483 0.3541 0.4764
C34 C 0.43318(7) 0.36989(19) 0.53383(9)
C35 C 0.40255(9) 0.3028(2) 0.41622(10)
C36 C 0.42346(8) 0.29482(18) 0.37280(10)
C37 C 0.38427(9) 0.3106(2) 0.30076(10)
H29 H 0.3463 0.3245 0.2803
N1 N 0.47887(7) 0.27386(15) 0.40517(8)
N2 N 0.44145(6) 0.34082(15) 0.48337(8)
H30 H 0.4756 0.3480 0.4968
N3 N 0.53345(6) 0.39696(15) 0.60915(8)
N4 N 0.61308(7) 0.08293(16) 0.57837(8)
N5 N 0.58742(7) 0.20222(15) 0.46671(8)
H31 H 0.5713 0.2140 0.4864
O1 O 0.35334(6) 0.28091(17) 0.39079(8)
O2 O 0.57561(7) 0.23751(17) 0.36462(8)
O3 O 0.67873(5) 0.27866(14) 0.78971(7)
O4 O 0.63895(6) -0.00054(14) 0.76132(7)
loop_
_geom_bond_atom_site_label_1
_geom_bond_atom_site_label_2
_geom_bond_site_symmetry_1
_geom_bond_site_symmetry_2
C1 H1 1_555 1_555
C2 C1 1_555 1_555
H2 C2 1_555 1_555
C3 C2 1_555 1_555
C4 C3 1_555 1_555
C5 C6 1_555 1_555
C6 H3 1_555 1_555
C7 C6 1_555 1_555
H4 C7 1_555 1_555
C8 C7 1_555 1_555
H5 C8 1_555 1_555
C9 C8 1_555 1_555
H6 C9 1_555 1_555
C10 C5 1_555 1_555
C11 H7 1_555 1_555
C12 C11 1_555 1_555
C13 C12 1_555 1_555
H8 C13 1_555 1_555
C14 C13 1_555 1_555
H9 C14 1_555 1_555
C15 C14 1_555 1_555
H10 C15 1_555 1_555
C16 C15 1_555 1_555
H11 C16 1_555 1_555
C17 C12 1_555 1_555
C18 H12 1_555 1_555
H13 C18 1_555 1_555
C19 C18 1_555 1_555
H14 C19 1_555 1_555
H15 C19 1_555 1_555
C20 C19 1_555 1_555
H16 C20 1_555 1_555
H17 C20 1_555 1_555
C21 C20 1_555 1_555
H18 C21 1_555 1_555
H19 C21 1_555 1_555
C22 C23 1_555 1_555
C23 H20 1_555 1_555
C24 C23 1_555 1_555
H21 C24 1_555 1_555
C25 C24 1_555 1_555
H22 C25 1_555 1_555
C26 C25 1_555 1_555
H23 C26 1_555 1_555
C27 C22 1_555 1_555
C28 C27 1_555 1_555
H24 C28 1_555 1_555
C29 C30 1_555 1_555
C30 H25 1_555 1_555
C31 C30 1_555 1_555
H26 C31 1_555 1_555
C32 C31 1_555 1_555
H27 C32 1_555 1_555
C33 C32 1_555 1_555
H28 C33 1_555 1_555
C34 C29 1_555 1_555
C35 C36 1_555 1_555
C36 C37 1_555 1_555
C37 C1 1_555 1_555
H29 C37 1_555 1_555
N1 C3 1_555 1_555
N2 C34 1_555 1_555
H30 N2 1_555 1_555
N3 C28 1_555 1_555
N4 C10 1_555 1_555
N5 C4 1_555 1_555
H31 N5 1_555 1_555
O1 C35 1_555 1_555
O2 C4 1_555 1_555
O3 C21 1_555 1_555
O4 C17 1_555 1_555
C5 N5 1_555 1_555
C9 C10 1_555 1_555
C11 N4 1_555 1_555
C16 C17 1_555 1_555
C18 O4 1_555 1_555
C22 O3 1_555 1_555
C26 C27 1_555 1_555
C29 N3 1_555 1_555
C33 C34 1_555 1_555
C35 N2 1_555 1_555
C36 N1 1_555 1_555

#END
