
#######################################################################
#
#                 Cambridge Crystallographic Data Centre
#                                CCDC 
#
#######################################################################
#
# If this CIF has been generated from an entry in the Cambridge 
# Structural Database, then it will include bibliographic, chemical, 
# crystal, experimental, refinement or atomic coordinate data resulting 
# from the CCDC's data processing and validation procedures.
#
#######################################################################

data_WUTVAJ
_chemical_formula_moiety         'C19 H23 N2 S1 1+,C4 H5 O6 1-,C2 H6 O1,H2 O1'
_chemical_name_systematic        
'N,N-Dimethyl-2-(3-(1-(pyridin-2-yl)ethyl)-1-benzothiophen-2-yl)ethanaminium 3-carboxy-2,3-dihydroxypropanoate ethanol solvate monohydrate'
_symmetry_cell_setting           orthorhombic
_symmetry_space_group_name_H-M   'P 21 21 21'
_symmetry_Int_Tables_number      19
_space_group_name_Hall           'P 2ac 2ab'
loop_
_symmetry_equiv_pos_site_id
_symmetry_equiv_pos_as_xyz
1 x,y,z
2 1/2-x,-y,1/2+z
3 1/2+x,1/2-y,-z
4 -x,1/2+y,1/2-z
_cell_length_a                   7.0011(12)
_cell_length_b                   14.032(2)
_cell_length_c                   26.590(4)
_cell_angle_alpha                90
_cell_angle_beta                 90
_cell_angle_gamma                90
_cell_volume                     2612.19
_exptl_crystal_colour            colorless
_exptl_crystal_description       needle
_cell_formula_units_Z            4
loop_
_atom_site_label
_atom_site_type_symbol
_atom_site_fract_x
_atom_site_fract_y
_atom_site_fract_z
S1 S 0.49585(16) 0.83924(7) 0.86210(4)
C1 C 0.3146(6) 0.8238(3) 0.90619(14)
C2 C 0.1689(6) 0.7554(3) 0.90395(17)
C3 C 0.0393(6) 0.7534(3) 0.94242(16)
C4 C 0.0540(6) 0.8150(3) 0.98287(16)
C5 C 0.1940(6) 0.8834(3) 0.98424(15)
C6 C 0.3283(5) 0.8901(3) 0.94500(14)
C7 C 0.4862(6) 0.9565(2) 0.93704(14)
C8 C 0.5842(6) 0.9376(3) 0.89500(15)
C9 C 0.7619(7) 0.9874(3) 0.87623(17)
C10 C 0.7808(6) 0.9802(3) 0.82053(17)
N1 N 0.9552(5) 1.0305(2) 0.80055(12)
C11 C 1.1349(7) 0.9910(4) 0.8210(2)
C12 C 0.9562(7) 1.0270(4) 0.74507(15)
C13 C 0.5409(6) 1.0352(3) 0.97362(14)
C14 C 0.6777(7) 0.9990(4) 1.0146(2)
C15 C 0.3677(6) 1.0876(3) 0.99428(14)
N2 N 0.2375(4) 1.1136(2) 0.95975(11)
C16 C 0.0828(5) 1.1606(3) 0.97570(14)
C17 C 0.0540(6) 1.1863(3) 1.02524(14)
C18 C 0.1905(5) 1.1632(3) 1.06032(15)
C19 C 0.3501(6) 1.1121(3) 1.04469(14)
H1 H 0.166(5) 0.720(2) 0.8754(13)
H2 H -0.041(6) 0.705(3) 0.9443(13)
H3 H -0.035(5) 0.812(2) 1.0095(12)
H4 H 0.196(6) 0.924(3) 1.0110(14)
H5 H 0.744(6) 1.058(3) 0.8836(14)
H6 H 0.884(7) 0.953(3) 0.8919(16)
H7 H 0.670(6) 1.012(3) 0.8034(14)
H8 H 0.787(7) 0.914(4) 0.8130(17)
H9 H 0.951(8) 1.094(4) 0.8112(18)
H10 H 1.141(6) 1.003(3) 0.8576(17)
H11 H 1.163(7) 0.923(4) 0.8158(18)
H12 H 1.239(6) 1.021(3) 0.8047(14)
H13 H 0.963(6) 0.959(3) 0.7360(13)
H14 H 1.051(6) 1.063(3) 0.7340(14)
H15 H 0.839(6) 1.061(3) 0.7320(14)
H16 H 0.628(6) 1.086(3) 0.9574(15)
H17 H 0.783(7) 0.975(3) 0.9953(16)
H18 H 0.604(7) 0.948(3) 1.0361(17)
H19 H 0.702(6) 1.053(3) 1.0418(15)
H20 H -0.011(5) 1.180(2) 0.9494(11)
H21 H -0.062(5) 1.225(2) 1.0336(13)
H22 H 0.174(5) 1.186(3) 1.0958(14)
H23 H 0.458(5) 1.095(2) 1.0691(11)
O1 O 0.6946(3) 0.34469(17) 0.81095(9)
C20 C 0.6192(5) 0.2704(3) 0.79041(14)
O2 O 0.7033(3) 0.20305(18) 0.77102(10)
C21 C 0.4004(5) 0.2702(3) 0.79178(15)
O3 O 0.3240(4) 0.1959(2) 0.76176(11)
C22 C 0.3301(5) 0.2614(3) 0.84584(13)
O4 O 0.4071(4) 0.1788(2) 0.86681(11)
C23 C 0.1109(5) 0.2622(3) 0.84568(13)
O5 O 0.0423(4) 0.34286(19) 0.82986(10)
O6 O 0.0177(4) 0.19370(16) 0.85918(8)
H24 H 0.356(4) 0.326(2) 0.7789(11)
H25 H 0.390(6) 0.160(3) 0.7560(18)
H26 H 0.371(4) 0.320(2) 0.8642(11)
H27 H 0.345(5) 0.157(3) 0.8878(14)
H28 H -0.071(10) 0.352(5) 0.828(3)
O7 O 0.5341(4) 0.5243(2) 0.78753(9)
C24 C 0.4761(8) 0.5613(3) 0.83439(15)
C25 C 0.6426(10) 0.5843(4) 0.8674(2)
H29 H 0.578(6) 0.474(3) 0.7935(15)
H30 H 0.409(7) 0.510(3) 0.8550(17)
H31 H 0.421(6) 0.622(3) 0.8268(15)
H32 H 0.722(6) 0.534(3) 0.8732(15)
H33 H 0.605(6) 0.610(3) 0.8981(18)
H34 H 0.709(8) 0.648(4) 0.851(2)
O8 O -0.0099(7) 0.7661(3) 0.79175(13)
H35 H -0.089(9) 0.729(4) 0.782(2)
H36 H 0.083(9) 0.746(4) 0.772(2)
loop_
_geom_bond_atom_site_label_1
_geom_bond_atom_site_label_2
_geom_bond_site_symmetry_1
_geom_bond_site_symmetry_2
S1 C1 1_555 1_555
C1 C2 1_555 1_555
C2 C3 1_555 1_555
C3 C4 1_555 1_555
C4 C5 1_555 1_555
C5 C6 1_555 1_555
C6 C1 1_555 1_555
C7 C6 1_555 1_555
C8 S1 1_555 1_555
C9 C8 1_555 1_555
C10 C9 1_555 1_555
N1 C10 1_555 1_555
C11 N1 1_555 1_555
C12 N1 1_555 1_555
C13 C7 1_555 1_555
C14 C13 1_555 1_555
C15 C13 1_555 1_555
N2 C15 1_555 1_555
C16 N2 1_555 1_555
C17 C16 1_555 1_555
C18 C17 1_555 1_555
C19 C15 1_555 1_555
O1 C20 1_555 1_555
C20 O2 1_555 1_555
C21 C20 1_555 1_555
O3 C21 1_555 1_555
C22 C21 1_555 1_555
O4 C22 1_555 1_555
C23 C22 1_555 1_555
O5 C23 1_555 1_555
O6 C23 1_555 1_555
O7 C24 1_555 1_555
C24 C25 1_555 1_555
C25 H32 1_555 1_555
O8 H35 1_555 1_555
H1 C2 1_555 1_555
H2 C3 1_555 1_555
H3 C4 1_555 1_555
H4 C5 1_555 1_555
H5 C9 1_555 1_555
H6 C9 1_555 1_555
H7 C10 1_555 1_555
H8 C10 1_555 1_555
H9 N1 1_555 1_555
H10 C11 1_555 1_555
H11 C11 1_555 1_555
H12 C11 1_555 1_555
H13 C12 1_555 1_555
H14 C12 1_555 1_555
H15 C12 1_555 1_555
H16 C13 1_555 1_555
H17 C14 1_555 1_555
H18 C14 1_555 1_555
H19 C14 1_555 1_555
H20 C16 1_555 1_555
H21 C17 1_555 1_555
H22 C18 1_555 1_555
H23 C19 1_555 1_555
H24 C21 1_555 1_555
H25 O3 1_555 1_555
H26 C22 1_555 1_555
H27 O4 1_555 1_555
H28 O5 1_555 1_555
H29 O7 1_555 1_555
H30 C24 1_555 1_555
H31 C24 1_555 1_555
H33 C25 1_555 1_555
H34 C25 1_555 1_555
H36 O8 1_555 1_555
C7 C8 1_555 1_555
C18 C19 1_555 1_555

#END
