
#######################################################################
#
#                 Cambridge Crystallographic Data Centre
#                                CCDC 
#
#######################################################################
#
# If this CIF has been generated from an entry in the Cambridge 
# Structural Database, then it will include bibliographic, chemical, 
# crystal, experimental, refinement or atomic coordinate data resulting 
# from the CCDC's data processing and validation procedures.
#
#######################################################################

data_WUVJON
_chemical_formula_moiety         'C12 H19 N5 O2'
_chemical_name_systematic        
5,8-Dimethyl-4-(morpholin-4-yl)-5,6,7,8-tetrahydropyrazino[2,3-c]pyridazin-3(2H)-one
_symmetry_cell_setting           triclinic
_symmetry_space_group_name_H-M   'P -1'
_symmetry_Int_Tables_number      2
_space_group_name_Hall           '-P 1'
loop_
_symmetry_equiv_pos_site_id
_symmetry_equiv_pos_as_xyz
1 x,y,z
2 -x,-y,-z
_cell_length_a                   7.9081(11)
_cell_length_b                   9.3887(11)
_cell_length_c                   10.1211(18)
_cell_angle_alpha                101.189(10)
_cell_angle_beta                 112.835(10)
_cell_angle_gamma                102.974(10)
_cell_volume                     640.957
_exptl_crystal_colour            colorless
_exptl_crystal_description       plate
_chemical_melting_point          'above 250 deg.C'
_cell_formula_units_Z            2
_exptl_crystal_recrystallization_method acetonitrile
loop_
_atom_site_label
_atom_site_type_symbol
_atom_site_fract_x
_atom_site_fract_y
_atom_site_fract_z
O1 O 0.06441(14) 0.85341(12) 0.57344(14)
O2 O 0.28953(18) 0.52828(13) 0.86172(16)
N1 N 0.44487(17) 1.17980(13) 0.63596(14)
N2 N 0.26911(17) 1.07143(13) 0.58681(15)
N3 N 0.75670(16) 0.95569(14) 0.77698(15)
N4 N 0.77791(17) 1.24933(14) 0.74660(15)
N5 N 0.39159(15) 0.76179(12) 0.73908(13)
C1 C 0.23578(19) 0.93404(15) 0.61365(16)
C2 C 0.40643(18) 0.89339(14) 0.68918(15)
C3 C 0.58768(18) 0.98990(14) 0.72074(15)
C4 C 0.59762(19) 1.14073(15) 0.69912(15)
C5 C 0.9429(2) 1.07185(19) 0.8215(2)
C6 C 0.9362(2) 1.23140(18) 0.86911(19)
C7 C 0.7560(2) 0.79732(18) 0.7328(2)
C8 C 0.7823(3) 1.40738(19) 0.7575(3)
C9 C 0.2230(2) 0.62182(16) 0.6470(2)
C10 C 0.2597(3) 0.49196(17) 0.7092(2)
C11 C 0.4565(3) 0.66100(19) 0.9515(2)
C12 C 0.4324(3) 0.79795(17) 0.89748(18)
H1 H 0.172(3) 1.104(2) 0.545(2)
H2 H 0.976(3) 1.056(2) 0.737(3)
H3 H 1.042(3) 1.056(2) 0.903(2)
H4 H 1.053(3) 1.301(2) 0.888(2)
H5 H 0.925(3) 1.255(2) 0.963(2)
H6 H 0.739(3) 0.744(3) 0.799(3)
H7 H 0.881(4) 0.799(3) 0.742(3)
H8 H 0.664(4) 0.743(3) 0.637(3)
H9 H 0.695(3) 1.413(3) 0.657(3)
H10 H 0.907(4) 1.471(3) 0.784(3)
H11 H 0.744(4) 1.452(3) 0.837(3)
H12 H 0.085(3) 0.629(2) 0.643(2)
H13 H 0.207(3) 0.595(3) 0.544(3)
H14 H 0.374(3) 0.470(3) 0.704(2)
H15 H 0.145(3) 0.393(2) 0.660(2)
H16 H 0.575(3) 0.642(2) 0.945(2)
H17 H 0.477(3) 0.678(3) 1.055(3)
H18 H 0.546(3) 0.888(2) 0.952(2)
H19 H 0.331(3) 0.828(3) 0.914(3)
loop_
_geom_bond_atom_site_label_1
_geom_bond_atom_site_label_2
_geom_bond_site_symmetry_1
_geom_bond_site_symmetry_2
O1 C1 1_555 1_555
O2 C10 1_555 1_555
N1 N2 1_555 1_555
N2 C1 1_555 1_555
N3 C3 1_555 1_555
N4 C4 1_555 1_555
N5 C2 1_555 1_555
C1 C2 1_555 1_555
C2 C3 1_555 1_555
C3 C4 1_555 1_555
C4 N1 1_555 1_555
C5 N3 1_555 1_555
C6 N4 1_555 1_555
C7 N3 1_555 1_555
C8 N4 1_555 1_555
C9 N5 1_555 1_555
C10 C9 1_555 1_555
C11 O2 1_555 1_555
C12 N5 1_555 1_555
H1 N2 1_555 1_555
H2 C5 1_555 1_555
H3 C5 1_555 1_555
H4 C6 1_555 1_555
H5 C6 1_555 1_555
H6 C7 1_555 1_555
H7 C7 1_555 1_555
H8 C7 1_555 1_555
H9 C8 1_555 1_555
H10 C8 1_555 1_555
H11 C8 1_555 1_555
H12 C9 1_555 1_555
H13 C9 1_555 1_555
H14 C10 1_555 1_555
H15 C10 1_555 1_555
H16 C11 1_555 1_555
H17 C11 1_555 1_555
H18 C12 1_555 1_555
H19 C12 1_555 1_555
C5 C6 1_555 1_555
C11 C12 1_555 1_555

#END
