
#######################################################################
#
#                 Cambridge Crystallographic Data Centre
#                                CCDC 
#
#######################################################################
#
# If this CIF has been generated from an entry in the Cambridge 
# Structural Database, then it will include bibliographic, chemical, 
# crystal, experimental, refinement or atomic coordinate data resulting 
# from the CCDC's data processing and validation procedures.
#
#######################################################################

data_WUVTIQ
_chemical_formula_moiety         'C30 H21 F3'
_chemical_name_systematic        
3,4-Diphenyl-4-(p-trifluoromethylphenyl)-1-(p-tolyl)but-3Z-en-1-yne
_symmetry_cell_setting           triclinic
_symmetry_space_group_name_H-M   'P -1'
_symmetry_Int_Tables_number      2
_space_group_name_Hall           '-P 1'
loop_
_symmetry_equiv_pos_site_id
_symmetry_equiv_pos_as_xyz
1 x,y,z
2 -x,-y,-z
_cell_length_a                   11.115(2)
_cell_length_b                   12.946(3)
_cell_length_c                   9.819(2)
_cell_angle_alpha                94.12(1)
_cell_angle_beta                 110.78(1)
_cell_angle_gamma                110.13(1)
_cell_volume                     1209.65
_exptl_crystal_colour            colorless
_exptl_crystal_description       prismatic
_chemical_melting_point          153-156deg.C
_cell_formula_units_Z            2
loop_
_atom_site_label
_atom_site_type_symbol
_atom_site_fract_x
_atom_site_fract_y
_atom_site_fract_z
F1 F 1.375(1) 0.9341(7) 1.032(1)
F2 F 1.1864(10) 0.8904(9) 1.042(1)
F3 F 1.354(1) 0.8834(9) 1.2191(10)
C1 C 1.1018(2) 0.3959(1) 0.7895(2)
C2 C 0.9806(2) 0.3544(1) 0.6646(2)
C3 C 0.8996(2) 0.4211(2) 0.6241(2)
C4 C 0.8304(2) 0.4764(2) 0.5944(2)
C5 C 1.1586(2) 0.5167(1) 0.8669(2)
C6 C 1.1844(2) 0.5469(2) 1.0158(2)
C7 C 1.2277(2) 0.6580(2) 1.0836(2)
C8 C 1.2504(2) 0.7414(2) 1.0047(2)
C9 C 1.2288(2) 0.7131(2) 0.8575(2)
C10 C 1.1836(2) 0.6017(2) 0.7895(2)
C11 C 1.2949(3) 0.8618(2) 1.0756(3)
C12 C 1.1797(2) 0.3272(1) 0.8589(2)
C13 C 1.1110(2) 0.2200(2) 0.8756(2)
C14 C 1.1864(3) 0.1580(2) 0.9420(3)
C15 C 1.3284(3) 0.2004(2) 0.9913(3)
C16 C 1.3980(2) 0.3059(2) 0.9761(3)
C17 C 1.3249(2) 0.3696(2) 0.9119(2)
C18 C 0.9203(2) 0.2419(1) 0.5623(2)
C19 C 0.7773(2) 0.1770(2) 0.5069(2)
C20 C 0.7190(3) 0.0740(2) 0.4097(3)
C21 C 0.8018(4) 0.0351(2) 0.3641(3)
C22 C 0.9421(3) 0.0988(2) 0.4158(3)
C23 C 1.0020(2) 0.2016(2) 0.5149(2)
C24 C 0.7605(2) 0.5521(2) 0.5697(2)
C25 C 0.8053(3) 0.6454(2) 0.6803(3)
C26 C 0.7400(3) 0.7202(2) 0.6580(4)
C27 C 0.6288(3) 0.7026(3) 0.5250(4)
C28 C 0.5860(3) 0.6105(3) 0.4158(4)
C29 C 0.6482(2) 0.5346(2) 0.4351(3)
C30 C 0.5590(4) 0.7861(4) 0.5047(6)
H1 H 1.1720 0.4903 1.0720
H2 H 1.2421 0.6771 1.1850
H3 H 1.2451 0.7703 0.8028
H4 H 1.1694 0.5829 0.6881
H5 H 1.0119 0.1890 0.8414
H6 H 1.1382 0.0849 0.9532
H7 H 1.3790 0.1569 1.0360
H8 H 1.4971 0.3356 1.0099
H9 H 1.3746 0.4434 0.9040
H10 H 0.7190 0.2041 0.5366
H11 H 0.6213 0.0298 0.3740
H12 H 0.7617 -0.0360 0.2968
H13 H 0.9991 0.0721 0.3833
H14 H 1.1000 0.2449 0.5506
H15 H 0.8816 0.6585 0.7725
H16 H 0.7720 0.7842 0.7351
H17 H 0.5106 0.5986 0.3232
H18 H 0.6151 0.4706 0.3575
H19 H 0.6264 0.8591 0.5165
H20 H 0.4859 0.7637 0.4075
H21 H 0.5212 0.7878 0.5773
F4? F 1.213(1) 0.9079(8) 1.005(1)
F5? F 1.305(1) 0.8787(8) 1.211(1)
F6? F 1.419(1) 0.9225(8) 1.082(2)
loop_
_geom_bond_atom_site_label_1
_geom_bond_atom_site_label_2
_geom_bond_site_symmetry_1
_geom_bond_site_symmetry_2
F1 C11 1_555 1_555
F2 C11 1_555 1_555
F3 C11 1_555 1_555
C1 C2 1_555 1_555
C2 C3 1_555 1_555
C3 C4 1_555 1_555
C4 C24 1_555 1_555
C5 C1 1_555 1_555
C6 C5 1_555 1_555
C7 C6 1_555 1_555
C8 C7 1_555 1_555
C9 C8 1_555 1_555
C10 C5 1_555 1_555
C11 C8 1_555 1_555
C12 C1 1_555 1_555
C13 C12 1_555 1_555
C14 C13 1_555 1_555
C15 C14 1_555 1_555
C16 C15 1_555 1_555
C17 C12 1_555 1_555
C18 C2 1_555 1_555
C19 C18 1_555 1_555
C20 C19 1_555 1_555
C21 C20 1_555 1_555
C22 C21 1_555 1_555
C23 C18 1_555 1_555
C24 C25 1_555 1_555
C25 C26 1_555 1_555
C26 C27 1_555 1_555
C27 C28 1_555 1_555
C28 C29 1_555 1_555
C29 C24 1_555 1_555
C30 C27 1_555 1_555
H1 C6 1_555 1_555
H2 C7 1_555 1_555
H3 C9 1_555 1_555
H4 C10 1_555 1_555
H5 C13 1_555 1_555
H6 C14 1_555 1_555
H7 C15 1_555 1_555
H8 C16 1_555 1_555
H9 C17 1_555 1_555
H10 C19 1_555 1_555
H11 C20 1_555 1_555
H12 C21 1_555 1_555
H13 C22 1_555 1_555
H14 C23 1_555 1_555
H15 C25 1_555 1_555
H16 C26 1_555 1_555
H17 C28 1_555 1_555
H18 C29 1_555 1_555
H19 C30 1_555 1_555
H20 C30 1_555 1_555
H21 C30 1_555 1_555
C9 C10 1_555 1_555
C16 C17 1_555 1_555
C22 C23 1_555 1_555

#END
