
#######################################################################
#
#                 Cambridge Crystallographic Data Centre
#                                CCDC 
#
#######################################################################
#
# If this CIF has been generated from an entry in the Cambridge 
# Structural Database, then it will include bibliographic, chemical, 
# crystal, experimental, refinement or atomic coordinate data resulting 
# from the CCDC's data processing and validation procedures.
#
#######################################################################

data_WUVXAM01
_chemical_formula_moiety         'C10 H14 N4 S2'
_chemical_name_systematic        
1,1'-(1,2-Ethanediyl)-bis(2,3-dihydro-3-methyl-1H-imidazole-2-thione)
_symmetry_cell_setting           monoclinic
_symmetry_space_group_name_H-M   'P 21/c'
_symmetry_Int_Tables_number      14
_space_group_name_Hall           '-P 2ybc'
loop_
_symmetry_equiv_pos_site_id
_symmetry_equiv_pos_as_xyz
1 x,y,z
2 -x,1/2+y,1/2-z
3 -x,-y,-z
4 x,1/2-y,1/2+z
_cell_length_a                   4.667(2)
_cell_length_b                   19.705(10)
_cell_length_c                   7.035(3)
_cell_angle_alpha                90
_cell_angle_beta                 107.205(7)
_cell_angle_gamma                90
_cell_volume                     618.011
_exptl_crystal_colour            colorless
_exptl_crystal_description       prism
_cell_formula_units_Z            2
loop_
_atom_site_label
_atom_site_type_symbol
_atom_site_fract_x
_atom_site_fract_y
_atom_site_fract_z
S1 S 0.2385(2) 0.64177(5) -0.17259(13)
N1 N 0.5273(6) 0.64998(13) 0.2239(4)
N2 N 0.1758(6) 0.57485(13) 0.1512(4)
C1 C 0.7271(8) 0.70549(18) 0.2079(6)
H1 H 0.6889 0.7178 0.0706
H2 H 0.9319 0.6911 0.2611
H3 H 0.6915 0.7440 0.2816
C2 C 0.5213(9) 0.61965(18) 0.3994(5)
H4 H 0.6447 0.6301 0.5261
C3 C 0.3080(9) 0.57299(19) 0.3548(5)
H5 H 0.2564 0.5442 0.4441
C4 C -0.0631(7) 0.53066(15) 0.0390(5)
H6 H -0.1941 0.5556 -0.0717
H7 H -0.1812 0.5157 0.1238
C5 C 0.3153(7) 0.62195(15) 0.0692(5)
S1B S -0.2385(2) 0.35823(5) 0.17259(13)
N1B N -0.5273(6) 0.35002(13) -0.2239(4)
N2B N -0.1758(6) 0.42515(13) -0.1512(4)
C1B C -0.7271(8) 0.29451(18) -0.2079(6)
H1B H -0.6889 0.2822 -0.0706
H2B H -0.9319 0.3089 -0.2611
H3B H -0.6915 0.2560 -0.2816
C2B C -0.5213(9) 0.38035(18) -0.3994(5)
H4B H -0.6447 0.3699 -0.5261
C3B C -0.3080(9) 0.42701(19) -0.3548(5)
H5B H -0.2564 0.4558 -0.4441
C4B C 0.0631(7) 0.46934(15) -0.0390(5)
H6B H 0.1941 0.4444 0.0717
H7B H 0.1812 0.4843 -0.1238
C5B C -0.3153(7) 0.37805(15) -0.0692(5)
loop_
_geom_bond_atom_site_label_1
_geom_bond_atom_site_label_2
_geom_bond_site_symmetry_1
_geom_bond_site_symmetry_2
S1 C5 1_555 1_555
N1 C1 1_555 1_555
N2 C3 1_555 1_555
C1 H1 1_555 1_555
H2 C1 1_555 1_555
H3 C1 1_555 1_555
C2 N1 1_555 1_555
H4 C2 1_555 1_555
C3 C2 1_555 1_555
H5 C3 1_555 1_555
C4 N2 1_555 1_555
H6 C4 1_555 1_555
H7 C4 1_555 1_555
C5 N1 1_555 1_555
S1B C5B 1_555 1_555
N1B C1B 1_555 1_555
N2B C3B 1_555 1_555
C1B H1B 1_555 1_555
H2B C1B 1_555 1_555
H3B C1B 1_555 1_555
C2B N1B 1_555 1_555
H4B C2B 1_555 1_555
C3B C2B 1_555 1_555
H5B C3B 1_555 1_555
C4B C4 1_555 1_555
H6B C4B 1_555 1_555
H7B C4B 1_555 1_555
C5B N1B 1_555 1_555
N2 C5 1_555 1_555
N2B C4B 1_555 1_555
N2B C5B 1_555 1_555

#END
