
#######################################################################
#
#                 Cambridge Crystallographic Data Centre
#                                CCDC 
#
#######################################################################
#
# If this CIF has been generated from an entry in the Cambridge 
# Structural Database, then it will include bibliographic, chemical, 
# crystal, experimental, refinement or atomic coordinate data resulting 
# from the CCDC's data processing and validation procedures.
#
#######################################################################

data_WUVYIV
_chemical_formula_moiety         'C12 H9 Br1 N2 O1'
_chemical_name_systematic        N-(4-Bromophenyl)pyridine-2-carboxamide
_symmetry_cell_setting           triclinic
_symmetry_space_group_name_H-M   'P -1'
_symmetry_Int_Tables_number      2
_space_group_name_Hall           '-P 1'
loop_
_symmetry_equiv_pos_site_id
_symmetry_equiv_pos_as_xyz
1 x,y,z
2 -x,-y,-z
_cell_length_a                   6.2634(11)
_cell_length_b                   8.2355(15)
_cell_length_c                   10.9828(18)
_cell_angle_alpha                88.282(4)
_cell_angle_beta                 87.215(4)
_cell_angle_gamma                78.268(3)
_cell_volume                     553.91
_exptl_crystal_colour            yellow
_exptl_crystal_description       prism
_cell_formula_units_Z            2
_exptl_crystal_recrystallization_method ethanol/water
loop_
_atom_site_label
_atom_site_type_symbol
_atom_site_fract_x
_atom_site_fract_y
_atom_site_fract_z
Br1 Br 0.39058(6) 0.24758(4) 0.98994(3)
O1 O -0.2752(3) 0.7433(2) 0.56771(15)
N1 N 0.0951(3) 0.6821(2) 0.55046(17)
H1 H 0.2021 0.7001 0.5035
N2 N 0.0937(3) 0.8665(2) 0.34769(18)
C1 C -0.1050(4) 0.7559(3) 0.5144(2)
C2 C -0.1015(4) 0.8616(3) 0.4007(2)
C3 C -0.2958(4) 0.9464(3) 0.3559(2)
H2 H -0.4287 0.9379 0.3945
C4 C -0.2877(5) 1.0436(3) 0.2525(2)
H3 H -0.4154 1.1055 0.2216
C5 C -0.0896(5) 1.0483(3) 0.1956(2)
H4 H -0.0806 1.1105 0.1241
C6 C 0.0950(5) 0.9594(3) 0.2462(2)
H5 H 0.2291 0.9641 0.2075
C7 C 0.1552(4) 0.5799(3) 0.6536(2)
C8 C 0.3740(4) 0.5233(3) 0.6701(2)
H6 H 0.4760 0.5521 0.6136
C9 C 0.4436(4) 0.4248(3) 0.7689(2)
H7 H 0.5920 0.3863 0.7790
C10 C 0.2924(4) 0.3832(3) 0.8532(2)
C11 C 0.0749(4) 0.4384(3) 0.8386(2)
H8 H -0.0260 0.4094 0.8958
C12 C 0.0034(4) 0.5378(3) 0.7382(2)
H9 H -0.1451 0.5758 0.7280
loop_
_geom_bond_atom_site_label_1
_geom_bond_atom_site_label_2
_geom_bond_site_symmetry_1
_geom_bond_site_symmetry_2
Br1 C10 1_555 1_555
O1 C1 1_555 1_555
N1 H1 1_555 1_555
N2 C2 1_555 1_555
C1 N1 1_555 1_555
C2 C1 1_555 1_555
C3 C2 1_555 1_555
H2 C3 1_555 1_555
C4 C3 1_555 1_555
H3 C4 1_555 1_555
C5 C4 1_555 1_555
H4 C5 1_555 1_555
C6 N2 1_555 1_555
H5 C6 1_555 1_555
C7 N1 1_555 1_555
C8 C7 1_555 1_555
H6 C8 1_555 1_555
C9 C8 1_555 1_555
H7 C9 1_555 1_555
C10 C9 1_555 1_555
C11 C10 1_555 1_555
H8 C11 1_555 1_555
C12 C7 1_555 1_555
H9 C12 1_555 1_555
C5 C6 1_555 1_555
C11 C12 1_555 1_555

#END
