
#######################################################################
#
#                 Cambridge Crystallographic Data Centre
#                                CCDC 
#
#######################################################################
#
# If this CIF has been generated from an entry in the Cambridge 
# Structural Database, then it will include bibliographic, chemical, 
# crystal, experimental, refinement or atomic coordinate data resulting 
# from the CCDC's data processing and validation procedures.
#
#######################################################################

data_WUWGUS
_chemical_formula_moiety         'C38 H54 N2 O2 S2'
_chemical_name_systematic        
2,7-Didodecyl-3,8-dithioxo-2,3,7,8-tetrahydrobenzo[lmn][3,8]phenanthroline-1,6-dione
_symmetry_cell_setting           monoclinic
_symmetry_space_group_name_H-M   'P 21/n'
_symmetry_Int_Tables_number      14
_space_group_name_Hall           '-P 2yn'
loop_
_symmetry_equiv_pos_site_id
_symmetry_equiv_pos_as_xyz
1 x,y,z
2 1/2-x,1/2+y,1/2-z
3 -x,-y,-z
4 1/2+x,1/2-y,1/2+z
_cell_length_a                   4.6420(2)
_cell_length_b                   46.2015(16)
_cell_length_c                   7.8037(3)
_cell_angle_alpha                90
_cell_angle_beta                 96.678(3)
_cell_angle_gamma                90
_cell_volume                     1662.28
_exptl_crystal_colour            orange
_exptl_crystal_description       needle
_cell_formula_units_Z            2
loop_
_atom_site_label
_atom_site_type_symbol
_atom_site_fract_x
_atom_site_fract_y
_atom_site_fract_z
S1 S 0.43110(11) 0.45082(2) 0.84576(7)
O1 O 0.5967(3) 0.42822(3) 0.24844(19)
N1 N 0.5216(3) 0.44115(3) 0.5211(2)
C1 C 1.2362(4) 0.51621(4) 0.3451(3)
C2 C 1.1857(4) 0.49664(4) 0.2106(3)
H1 H 1.2817 0.4991 0.1106
C3 C 0.9968(4) 0.47334(4) 0.2189(3)
H2 H 0.9657 0.4602 0.1248
C4 C 0.8546(4) 0.46917(4) 0.3629(3)
C5 C 0.9037(4) 0.48819(4) 0.5048(3)
C6 C 0.6520(4) 0.44492(4) 0.3686(3)
C7 C 0.5713(4) 0.45845(4) 0.6671(3)
C8 C 0.3332(4) 0.41521(4) 0.5210(3)
H3 H 0.2195 0.4131 0.4062
H4 H 0.1952 0.4177 0.6075
C9 C 0.5124(4) 0.38792(4) 0.5628(3)
H5 H 0.6132 0.3894 0.6815
H6 H 0.6620 0.3864 0.4826
C10 C 0.3270(4) 0.36056(4) 0.5488(3)
H7 H 0.1975 0.3607 0.6410
H8 H 0.2036 0.3606 0.4364
C11 C 0.5077(4) 0.33314(4) 0.5638(3)
H9 H 0.6383 0.3337 0.6735
H10 H 0.6304 0.3327 0.4682
C12 C 0.3292(5) 0.30544(4) 0.5589(3)
H11 H 0.2165 0.3053 0.6591
H12 H 0.1892 0.3055 0.4530
C13 C 0.5104(5) 0.27800(4) 0.5621(3)
H13 H 0.6564 0.2784 0.6652
H14 H 0.6163 0.2778 0.4590
C14 C 0.3351(5) 0.25025(4) 0.5652(3)
H15 H 0.1820 0.2503 0.4656
H16 H 0.2381 0.2499 0.6717
C15 C 0.5159(5) 0.22292(4) 0.5586(3)
H17 H 0.6718 0.2231 0.6566
H18 H 0.6093 0.2231 0.4508
C16 C 0.3429(5) 0.19500(4) 0.5657(3)
H19 H 0.2604 0.1942 0.6771
H20 H 0.1791 0.1953 0.4724
C17 C 0.5208(4) 0.16781(4) 0.5473(3)
H21 H 0.6035 0.1687 0.4360
H22 H 0.6846 0.1675 0.6406
C18 C 0.3512(5) 0.13982(4) 0.5540(3)
H23 H 0.1794 0.1406 0.4662
H24 H 0.2810 0.1381 0.6686
C19 C 0.5283(5) 0.11309(5) 0.5224(3)
H25 H 0.4070 0.0958 0.5267
H26 H 0.6948 0.1117 0.6115
H27 H 0.5971 0.1145 0.4087
S1B S 1.56890(11) 0.54918(2) 0.15424(7)
O1B O 1.4033(3) 0.57178(3) 0.75156(19)
N1B N 1.4784(3) 0.55885(3) 0.4789(2)
C1B C 0.7638(4) 0.48379(4) 0.6549(3)
C2B C 0.8143(4) 0.50336(4) 0.7894(3)
H1B H 0.7183 0.5009 0.8894
C3B C 1.0032(4) 0.52666(4) 0.7811(3)
H2B H 1.0343 0.5398 0.8752
C4B C 1.1454(4) 0.53083(4) 0.6371(3)
C5B C 1.0963(4) 0.51181(4) 0.4952(3)
C6B C 1.3480(4) 0.55508(4) 0.6314(3)
C7B C 1.4287(4) 0.54155(4) 0.3329(3)
C8B C 1.6668(4) 0.58479(4) 0.4790(3)
H3B H 1.7805 0.5869 0.5938
H4B H 1.8048 0.5823 0.3925
C9B C 1.4876(4) 0.61208(4) 0.4372(3)
H5B H 1.3868 0.6106 0.3185
H6B H 1.3380 0.6136 0.5174
C10B C 1.6730(4) 0.63944(4) 0.4512(3)
H7B H 1.8025 0.6393 0.3590
H8B H 1.7964 0.6394 0.5636
C11B C 1.4923(4) 0.66686(4) 0.4362(3)
H9B H 1.3617 0.6663 0.3265
H10B H 1.3696 0.6673 0.5318
C12B C 1.6708(5) 0.69456(4) 0.4411(3)
H11B H 1.7835 0.6947 0.3409
H12B H 1.8108 0.6945 0.5470
C13B C 1.4896(5) 0.72200(4) 0.4379(3)
H13B H 1.3436 0.7216 0.3348
H14B H 1.3837 0.7222 0.5410
C14B C 1.6649(5) 0.74975(4) 0.4348(3)
H15B H 1.8180 0.7497 0.5344
H16B H 1.7619 0.7501 0.3283
C15B C 1.4841(5) 0.77708(4) 0.4414(3)
H17B H 1.3282 0.7769 0.3434
H18B H 1.3907 0.7769 0.5492
C16B C 1.6571(5) 0.80500(4) 0.4343(3)
H19B H 1.7396 0.8058 0.3229
H20B H 1.8209 0.8047 0.5276
C17B C 1.4792(4) 0.83219(4) 0.4527(3)
H21B H 1.3965 0.8313 0.5640
H22B H 1.3154 0.8325 0.3594
C18B C 1.6488(5) 0.86018(4) 0.4460(3)
H23B H 1.8206 0.8594 0.5338
H24B H 1.7190 0.8619 0.3314
C19B C 1.4717(5) 0.88691(5) 0.4776(3)
H25B H 1.5930 0.9042 0.4733
H26B H 1.3052 0.8883 0.3885
H27B H 1.4029 0.8855 0.5913
loop_
_geom_bond_atom_site_label_1
_geom_bond_atom_site_label_2
_geom_bond_site_symmetry_1
_geom_bond_site_symmetry_2
S1 C7 1_555 1_555
O1 C6 1_555 1_555
N1 C6 1_555 1_555
C1 C2 1_555 1_555
C2 H1 1_555 1_555
C3 C2 1_555 1_555
H2 C3 1_555 1_555
C4 C3 1_555 1_555
C5 C4 1_555 1_555
C6 C4 1_555 1_555
C7 N1 1_555 1_555
C8 N1 1_555 1_555
H3 C8 1_555 1_555
H4 C8 1_555 1_555
C9 C8 1_555 1_555
H5 C9 1_555 1_555
H6 C9 1_555 1_555
C10 C9 1_555 1_555
H7 C10 1_555 1_555
H8 C10 1_555 1_555
C11 C10 1_555 1_555
H9 C11 1_555 1_555
H10 C11 1_555 1_555
C12 C11 1_555 1_555
H11 C12 1_555 1_555
H12 C12 1_555 1_555
C13 C12 1_555 1_555
H13 C13 1_555 1_555
H14 C13 1_555 1_555
C14 C13 1_555 1_555
H15 C14 1_555 1_555
H16 C14 1_555 1_555
C15 C14 1_555 1_555
H17 C15 1_555 1_555
H18 C15 1_555 1_555
C16 C15 1_555 1_555
H19 C16 1_555 1_555
H20 C16 1_555 1_555
C17 C16 1_555 1_555
H21 C17 1_555 1_555
H22 C17 1_555 1_555
C18 C17 1_555 1_555
H23 C18 1_555 1_555
H24 C18 1_555 1_555
C19 C18 1_555 1_555
H25 C19 1_555 1_555
H26 C19 1_555 1_555
H27 C19 1_555 1_555
S1B C7B 1_555 1_555
O1B C6B 1_555 1_555
N1B C6B 1_555 1_555
C1B C5 1_555 1_555
C2B C1B 1_555 1_555
H1B C2B 1_555 1_555
C3B C2B 1_555 1_555
H2B C3B 1_555 1_555
C4B C3B 1_555 1_555
C5B C1 1_555 1_555
C6B C4B 1_555 1_555
C7B C1 1_555 1_555
C8B N1B 1_555 1_555
H3B C8B 1_555 1_555
H4B C8B 1_555 1_555
C9B C8B 1_555 1_555
H5B C9B 1_555 1_555
H6B C9B 1_555 1_555
C10B C9B 1_555 1_555
H7B C10B 1_555 1_555
H8B C10B 1_555 1_555
C11B C10B 1_555 1_555
H9B C11B 1_555 1_555
H10B C11B 1_555 1_555
C12B C11B 1_555 1_555
H11B C12B 1_555 1_555
H12B C12B 1_555 1_555
C13B C12B 1_555 1_555
H13B C13B 1_555 1_555
H14B C13B 1_555 1_555
C14B C13B 1_555 1_555
H15B C14B 1_555 1_555
H16B C14B 1_555 1_555
C15B C14B 1_555 1_555
H17B C15B 1_555 1_555
H18B C15B 1_555 1_555
C16B C15B 1_555 1_555
H19B C16B 1_555 1_555
H20B C16B 1_555 1_555
C17B C16B 1_555 1_555
H21B C17B 1_555 1_555
H22B C17B 1_555 1_555
C18B C17B 1_555 1_555
H23B C18B 1_555 1_555
H24B C18B 1_555 1_555
C19B C18B 1_555 1_555
H25B C19B 1_555 1_555
H26B C19B 1_555 1_555
H27B C19B 1_555 1_555
C5 C5B 1_555 1_555
C7 C1B 1_555 1_555
N1B C7B 1_555 1_555
C4B C5B 1_555 1_555

#END
