
#######################################################################
#
#                 Cambridge Crystallographic Data Centre
#                                CCDC 
#
#######################################################################
#
# If this CIF has been generated from an entry in the Cambridge 
# Structural Database, then it will include bibliographic, chemical, 
# crystal, experimental, refinement or atomic coordinate data resulting 
# from the CCDC's data processing and validation procedures.
#
#######################################################################

data_WUWGOM
_chemical_formula_moiety         'C38 H54 N2 O1 S3'
_chemical_name_systematic        
2,7-Didodecyl-3,6,8-trithioxo-3,6,7,8-tetrahydrobenzo[lmn][3,8]phenanthrolin-1(2H)-one
_symmetry_cell_setting           monoclinic
_symmetry_space_group_name_H-M   'P 21/n'
_symmetry_Int_Tables_number      14
_space_group_name_Hall           '-P 2yn'
loop_
_symmetry_equiv_pos_site_id
_symmetry_equiv_pos_as_xyz
1 x,y,z
2 1/2-x,1/2+y,1/2-z
3 -x,-y,-z
4 1/2+x,1/2-y,1/2+z
_cell_length_a                   7.2348(5)
_cell_length_b                   4.9094(3)
_cell_length_c                   48.847(3)
_cell_angle_alpha                90
_cell_angle_beta                 93.174(4)
_cell_angle_gamma                90
_cell_volume                     1732.31
_exptl_crystal_colour            purple
_exptl_crystal_description       needle
_cell_formula_units_Z            2
loop_
_atom_site_label
_atom_site_type_symbol
_atom_site_fract_x
_atom_site_fract_y
_atom_site_fract_z
S1 S 0.1020(4) 0.2064(6) 0.56615(5)
S2 S 0.7475(4) 0.6629(5) 0.55708(5)
N1 N 0.4280(4) 0.4019(6) 0.55842(6)
C1 C 0.3789(5) -0.2724(7) 0.47924(7)
C2 C 0.2199(5) -0.2978(8) 0.49339(7)
H1 H 0.1283 -0.4260 0.4873
C3 C 0.1907(5) -0.1393(8) 0.51643(7)
H2 H 0.0802 -0.1616 0.5258
C4 C 0.3205(5) 0.0495(7) 0.52573(7)
C5 C 0.4865(5) 0.0831(7) 0.51164(7)
C6 C 0.2898(5) 0.2179(8) 0.54990(7)
C7 C 0.5937(5) 0.4416(8) 0.54512(7)
C8 C 0.4002(6) 0.5633(8) 0.58352(7)
H3 H 0.2668 0.6031 0.5848
H4 H 0.4668 0.7388 0.5825
C9 C 0.4713(5) 0.4084(8) 0.60904(7)
H5 H 0.4195 0.2217 0.6085
H6 H 0.6078 0.3938 0.6092
C10 C 0.4170(5) 0.5511(8) 0.63506(7)
H7 H 0.2804 0.5505 0.6356
H8 H 0.4581 0.7433 0.6345
C11 C 0.5003(5) 0.4178(7) 0.66113(7)
H9 H 0.4672 0.2221 0.6609
H10 H 0.6369 0.4308 0.6612
C12 C 0.4356(5) 0.5459(7) 0.68723(7)
H11 H 0.2995 0.5268 0.6875
H12 H 0.4647 0.7430 0.6871
C13 C 0.5241(5) 0.4195(8) 0.71331(7)
H13 H 0.4976 0.2216 0.7132
H14 H 0.6600 0.4424 0.7133
C14 C 0.4564(5) 0.5427(8) 0.73948(7)
H15 H 0.3206 0.5183 0.7396
H16 H 0.4818 0.7409 0.7395
C15 C 0.5456(5) 0.4190(7) 0.76549(7)
H17 H 0.6813 0.4447 0.7654
H18 H 0.5211 0.2206 0.7654
C16 C 0.4778(5) 0.5391(8) 0.79182(7)
H19 H 0.5020 0.7376 0.7919
H20 H 0.3422 0.5130 0.7919
C17 C 0.5670(5) 0.4165(8) 0.81779(7)
H21 H 0.7025 0.4447 0.8178
H22 H 0.5442 0.2177 0.8176
C18 C 0.4975(5) 0.5344(8) 0.84409(7)
H23 H 0.3621 0.5058 0.8442
H24 H 0.5204 0.7332 0.8444
C19 C 0.5887(6) 0.4092(9) 0.86992(8)
H25 H 0.5299 0.4809 0.8860
H26 H 0.7207 0.4551 0.8711
H27 H 0.5741 0.2108 0.8693
S1B S 0.8980(4) -0.2064(6) 0.43385(5)
S2B S 0.2525(4) -0.6629(5) 0.44292(5)
N1B N 0.5720(4) -0.4019(6) 0.44158(6)
C1B C 0.6211(5) 0.2724(7) 0.52076(7)
C2B C 0.7801(5) 0.2978(8) 0.50661(7)
H1B H 0.8717 0.4260 0.5127
C3B C 0.8093(5) 0.1393(8) 0.48357(7)
H2B H 0.9198 0.1616 0.4742
C4B C 0.6795(5) -0.0495(7) 0.47427(7)
C5B C 0.5135(5) -0.0831(7) 0.48836(7)
C6B C 0.7102(5) -0.2179(8) 0.45010(7)
C7B C 0.4063(5) -0.4416(8) 0.45488(7)
C8B C 0.5998(6) -0.5633(8) 0.41648(7)
H3B H 0.7332 -0.6031 0.4152
H4B H 0.5332 -0.7388 0.4175
C9B C 0.5287(5) -0.4084(8) 0.39096(7)
H5B H 0.5805 -0.2217 0.3915
H6B H 0.3922 -0.3938 0.3908
C10B C 0.5830(5) -0.5511(8) 0.36494(7)
H7B H 0.7196 -0.5505 0.3644
H8B H 0.5419 -0.7433 0.3655
C11B C 0.4997(5) -0.4178(7) 0.33887(7)
H9B H 0.5328 -0.2221 0.3391
H10B H 0.3631 -0.4308 0.3388
C12B C 0.5644(5) -0.5459(7) 0.31277(7)
H11B H 0.7005 -0.5268 0.3125
H12B H 0.5353 -0.7430 0.3129
C13B C 0.4759(5) -0.4195(8) 0.28669(7)
H13B H 0.5024 -0.2216 0.2868
H14B H 0.3400 -0.4424 0.2867
C14B C 0.5436(5) -0.5427(8) 0.26052(7)
H15B H 0.6794 -0.5183 0.2604
H16B H 0.5182 -0.7409 0.2605
C15B C 0.4544(5) -0.4190(7) 0.23451(7)
H17B H 0.3187 -0.4447 0.2346
H18B H 0.4789 -0.2206 0.2346
C16B C 0.5222(5) -0.5391(8) 0.20818(7)
H19B H 0.4980 -0.7376 0.2081
H20B H 0.6578 -0.5130 0.2081
C17B C 0.4330(5) -0.4165(8) 0.18221(7)
H21B H 0.2975 -0.4447 0.1822
H22B H 0.4558 -0.2177 0.1824
C18B C 0.5025(5) -0.5344(8) 0.15591(7)
H23B H 0.6379 -0.5058 0.1558
H24B H 0.4796 -0.7332 0.1556
C19B C 0.4113(6) -0.4092(9) 0.13008(8)
H25B H 0.4701 -0.4809 0.1140
H26B H 0.2793 -0.4551 0.1289
H27B H 0.4259 -0.2108 0.1307
O1? O 0.141(2) 0.152(3) 0.5640(3)
O2? O 0.721(4) 0.616(6) 0.5523(5)
loop_
_geom_bond_atom_site_label_1
_geom_bond_atom_site_label_2
_geom_bond_site_symmetry_1
_geom_bond_site_symmetry_2
S1 C6 1_555 1_555
S2 C7 1_555 1_555
N1 C6 1_555 1_555
C1 C2 1_555 1_555
C2 H1 1_555 1_555
C3 C2 1_555 1_555
H2 C3 1_555 1_555
C4 C3 1_555 1_555
C5 C4 1_555 1_555
C6 C4 1_555 1_555
C7 N1 1_555 1_555
C8 N1 1_555 1_555
H3 C8 1_555 1_555
H4 C8 1_555 1_555
C9 C8 1_555 1_555
H5 C9 1_555 1_555
H6 C9 1_555 1_555
C10 C9 1_555 1_555
H7 C10 1_555 1_555
H8 C10 1_555 1_555
C11 C10 1_555 1_555
H9 C11 1_555 1_555
H10 C11 1_555 1_555
C12 C11 1_555 1_555
H11 C12 1_555 1_555
H12 C12 1_555 1_555
C13 C12 1_555 1_555
H13 C13 1_555 1_555
H14 C13 1_555 1_555
C14 C13 1_555 1_555
H15 C14 1_555 1_555
H16 C14 1_555 1_555
C15 C14 1_555 1_555
H17 C15 1_555 1_555
H18 C15 1_555 1_555
C16 C15 1_555 1_555
H19 C16 1_555 1_555
H20 C16 1_555 1_555
C17 C16 1_555 1_555
H21 C17 1_555 1_555
H22 C17 1_555 1_555
C18 C17 1_555 1_555
H23 C18 1_555 1_555
H24 C18 1_555 1_555
C19 C18 1_555 1_555
H25 C19 1_555 1_555
H26 C19 1_555 1_555
H27 C19 1_555 1_555
S1B C6B 1_555 1_555
S2B C7B 1_555 1_555
N1B C6B 1_555 1_555
C1B C5 1_555 1_555
C2B C1B 1_555 1_555
H1B C2B 1_555 1_555
C3B C2B 1_555 1_555
H2B C3B 1_555 1_555
C4B C3B 1_555 1_555
C5B C1 1_555 1_555
C6B C4B 1_555 1_555
C7B C1 1_555 1_555
C8B N1B 1_555 1_555
H3B C8B 1_555 1_555
H4B C8B 1_555 1_555
C9B C8B 1_555 1_555
H5B C9B 1_555 1_555
H6B C9B 1_555 1_555
C10B C9B 1_555 1_555
H7B C10B 1_555 1_555
H8B C10B 1_555 1_555
C11B C10B 1_555 1_555
H9B C11B 1_555 1_555
H10B C11B 1_555 1_555
C12B C11B 1_555 1_555
H11B C12B 1_555 1_555
H12B C12B 1_555 1_555
C13B C12B 1_555 1_555
H13B C13B 1_555 1_555
H14B C13B 1_555 1_555
C14B C13B 1_555 1_555
H15B C14B 1_555 1_555
H16B C14B 1_555 1_555
C15B C14B 1_555 1_555
H17B C15B 1_555 1_555
H18B C15B 1_555 1_555
C16B C15B 1_555 1_555
H19B C16B 1_555 1_555
H20B C16B 1_555 1_555
C17B C16B 1_555 1_555
H21B C17B 1_555 1_555
H22B C17B 1_555 1_555
C18B C17B 1_555 1_555
H23B C18B 1_555 1_555
H24B C18B 1_555 1_555
C19B C18B 1_555 1_555
H25B C19B 1_555 1_555
H26B C19B 1_555 1_555
H27B C19B 1_555 1_555
C5 C5B 1_555 1_555
C7 C1B 1_555 1_555
N1B C7B 1_555 1_555
C4B C5B 1_555 1_555

#END
