
#######################################################################
#
#                 Cambridge Crystallographic Data Centre
#                                CCDC 
#
#######################################################################
#
# If this CIF has been generated from an entry in the Cambridge 
# Structural Database, then it will include bibliographic, chemical, 
# crystal, experimental, refinement or atomic coordinate data resulting 
# from the CCDC's data processing and validation procedures.
#
#######################################################################

data_WUWKUV
_chemical_formula_moiety         'C22 H19 Cl1 O4'
_chemical_name_systematic        
'Methyl 2-((2-(4-chlorophenyl)-5-oxo-2,5-dihydrofuran-2-yl)(3-methylphenyl)methyl)acrylate'
_symmetry_cell_setting           orthorhombic
_symmetry_space_group_name_H-M   'P 21 21 21'
_symmetry_Int_Tables_number      19
_space_group_name_Hall           'P 2ac 2ab'
loop_
_symmetry_equiv_pos_site_id
_symmetry_equiv_pos_as_xyz
1 x,y,z
2 1/2-x,-y,1/2+z
3 -x,1/2+y,1/2-z
4 1/2+x,1/2-y,-z
_cell_length_a                   6.7271(8)
_cell_length_b                   8.4431(10)
_cell_length_c                   33.243(4)
_cell_angle_alpha                90
_cell_angle_beta                 90
_cell_angle_gamma                90
_cell_volume                     1888.12
_exptl_crystal_colour            colorless
_exptl_crystal_description       Block
_cell_formula_units_Z            4
loop_
_atom_site_label
_atom_site_type_symbol
_atom_site_fract_x
_atom_site_fract_y
_atom_site_fract_z
Cl1 Cl 0.97964(6) 0.85684(4) 0.324732(11)
O1 O 0.29858(14) 0.38351(12) 0.41266(3)
O2 O 0.08527(15) 0.42083(14) 0.46387(3)
O3 O 0.55354(15) -0.16422(12) 0.45506(3)
O4 O 0.78628(15) 0.00753(12) 0.43408(3)
C1 C 0.2520(2) 0.39358(17) 0.45301(4)
C2 C 0.4353(2) 0.36676(17) 0.47599(4)
H1 H 0.4464 0.3694 0.5045
C3 C 0.5826(2) 0.33836(16) 0.45056(4)
H2 H 0.7162 0.3173 0.4581
C4 C 0.5065(2) 0.34441(16) 0.40784(4)
C5 C 0.6157(2) 0.47440(17) 0.38501(4)
C6 C 0.5256(2) 0.61354(16) 0.37232(4)
H3 H 0.3874 0.6288 0.3768
C7 C 0.6353(2) 0.73123(17) 0.35306(4)
H4 H 0.5725 0.8255 0.3440
C8 C 0.8369(2) 0.70887(17) 0.34729(4)
C9 C 0.9308(2) 0.57079(18) 0.35935(5)
H5 H 1.0688 0.5557 0.3546
C10 C 0.8188(2) 0.45484(18) 0.37849(5)
H6 H 0.8820 0.3604 0.3873
C11 C 0.5237(2) 0.18176(15) 0.38559(4)
H7 H 0.6695 0.1635 0.3820
C12 C 0.4378(2) 0.18325(16) 0.34318(4)
C13 C 0.2403(2) 0.21830(18) 0.33426(4)
H8 H 0.1519 0.2486 0.3552
C14 C 0.1720(2) 0.20915(19) 0.29485(4)
H9 H 0.0370 0.2329 0.2890
C15 C 0.2995(3) 0.1657(2) 0.26401(5)
H10 H 0.2501 0.1569 0.2373
C16 C 0.4982(2) 0.13485(18) 0.27173(4)
C17 C 0.5643(2) 0.14425(17) 0.31151(4)
H11 H 0.7002 0.1233 0.3172
C18 C 0.6419(3) 0.0955(2) 0.23824(5)
H12 H 0.6838 0.1933 0.2248
H13 H 0.5767 0.0258 0.2187
H14 H 0.7586 0.0417 0.2495
C19 C 0.4514(2) 0.04522(16) 0.41193(4)
C20 C 0.2641(2) -0.00173(19) 0.41578(5)
H15 H 0.2323 -0.0879 0.4330
H16 H 0.1617 0.0508 0.4013
C21 C 0.6151(2) -0.03632(16) 0.43456(4)
C22 C 0.7092(2) -0.24849(18) 0.47596(5)
H17 H 0.7719 -0.1779 0.4956
H18 H 0.8089 -0.2847 0.4565
H19 H 0.6522 -0.3401 0.4899
loop_
_geom_bond_atom_site_label_1
_geom_bond_atom_site_label_2
_geom_bond_site_symmetry_1
_geom_bond_site_symmetry_2
Cl1 C8 1_555 1_555
O1 C1 1_555 1_555
O2 C1 1_555 1_555
O3 C21 1_555 1_555
O4 C21 1_555 1_555
C1 C2 1_555 1_555
C2 H1 1_555 1_555
C3 C2 1_555 1_555
H2 C3 1_555 1_555
C4 O1 1_555 1_555
C5 C4 1_555 1_555
C6 C5 1_555 1_555
H3 C6 1_555 1_555
C7 C6 1_555 1_555
H4 C7 1_555 1_555
C8 C7 1_555 1_555
C9 C8 1_555 1_555
H5 C9 1_555 1_555
C10 C5 1_555 1_555
H6 C10 1_555 1_555
C11 C4 1_555 1_555
H7 C11 1_555 1_555
C12 C11 1_555 1_555
C13 C12 1_555 1_555
H8 C13 1_555 1_555
C14 C13 1_555 1_555
H9 C14 1_555 1_555
C15 C14 1_555 1_555
H10 C15 1_555 1_555
C16 C15 1_555 1_555
C17 C12 1_555 1_555
H11 C17 1_555 1_555
C18 C16 1_555 1_555
H12 C18 1_555 1_555
H13 C18 1_555 1_555
H14 C18 1_555 1_555
C19 C11 1_555 1_555
C20 C19 1_555 1_555
H15 C20 1_555 1_555
H16 C20 1_555 1_555
C21 C19 1_555 1_555
C22 O3 1_555 1_555
H17 C22 1_555 1_555
H18 C22 1_555 1_555
H19 C22 1_555 1_555
C3 C4 1_555 1_555
C9 C10 1_555 1_555
C16 C17 1_555 1_555

#END
