
#######################################################################
#
#                 Cambridge Crystallographic Data Centre
#                                CCDC 
#
#######################################################################
#
# If this CIF has been generated from an entry in the Cambridge 
# Structural Database, then it will include bibliographic, chemical, 
# crystal, experimental, refinement or atomic coordinate data resulting 
# from the CCDC's data processing and validation procedures.
#
#######################################################################

data_WUWQOV01
_chemical_formula_moiety         'C28 H20 N2 S2'
_chemical_name_systematic        
1,1'-(2,2'-Bithiene-5,5'-diyldi-4,1-phenylene)bis(1H-pyrrole)
_symmetry_cell_setting           monoclinic
_symmetry_space_group_name_H-M   'P 21'
_symmetry_Int_Tables_number      4
_space_group_name_Hall           'P 2yb'
loop_
_symmetry_equiv_pos_site_id
_symmetry_equiv_pos_as_xyz
1 x,y,z
2 -x,1/2+y,-z
_cell_length_a                   5.761(3)
_cell_length_b                   7.331(3)
_cell_length_c                   24.6428(11)
_cell_angle_alpha                90
_cell_angle_beta                 92.519(6)
_cell_angle_gamma                90
_cell_volume                     1039.76
_exptl_crystal_colour            yellow
_exptl_crystal_description       plate
_cell_formula_units_Z            2
loop_
_atom_site_label
_atom_site_type_symbol
_atom_site_fract_x
_atom_site_fract_y
_atom_site_fract_z
S1 S 0.6048(2) 0.8356(2) 0.53542(6)
S2 S 0.9222(2) 0.9384(2) 0.37983(6)
N1 N 0.5781(7) 0.8498(7) 0.81017(17)
N2 N 1.0283(7) 0.8403(7) 0.10869(16)
C1 C 0.7088(9) 0.9202(9) 0.8536(2)
H1 H 0.8558 0.9780 0.8517
C2 C 0.5906(11) 0.8923(8) 0.8996(2)
H2 H 0.6400 0.9287 0.9353
C3 C 0.3815(10) 0.7996(9) 0.8851(2)
H3 H 0.2660 0.7615 0.9090
C4 C 0.3774(9) 0.7752(8) 0.8298(2)
H4 H 0.2572 0.7171 0.8086
C5 C 0.6385(8) 0.8552(8) 0.7548(2)
C6 C 0.4895(9) 0.7840(7) 0.7142(2)
H5 H 0.3471 0.7299 0.7237
C7 C 0.5449(9) 0.7908(7) 0.6606(2)
H6 H 0.4417 0.7385 0.6338
C8 C 0.7499(9) 0.8730(7) 0.6446(2)
C9 C 0.8989(9) 0.9428(9) 0.6856(2)
H7 H 1.0407 0.9979 0.6760
C10 C 0.8466(9) 0.9341(8) 0.7394(2)
H8 H 0.9526 0.9822 0.7664
C11 C 0.8034(9) 0.8925(7) 0.5875(2)
C12 C 1.0009(9) 0.9602(8) 0.5658(2)
H9 H 1.1321 0.9990 0.5875
C13 C 0.9926(10) 0.9673(8) 0.5087(2)
H10 H 1.1172 1.0111 0.4883
C14 C 0.7887(9) 0.9053(8) 0.4855(2)
C15 C 0.7245(9) 0.8825(7) 0.4284(2)
C16 C 0.5303(9) 0.8062(7) 0.4047(2)
H11 H 0.4020 0.7664 0.4246
C17 C 0.5379(9) 0.7917(7) 0.3467(2)
H12 H 0.4154 0.7422 0.3242
C18 C 0.7398(8) 0.8566(8) 0.3275(2)
C19 C 0.8137(8) 0.8586(8) 0.2710(2)
C20 C 0.6777(10) 0.7746(7) 0.2295(2)
H13 H 0.5341 0.7204 0.2381
C21 C 0.7463(9) 0.7684(7) 0.1768(2)
H14 H 0.6514 0.7088 0.1497
C22 C 0.9550(9) 0.8495(8) 0.1629(2)
C23 C 1.0902(9) 0.9360(9) 0.2038(2)
H15 H 1.2324 0.9920 0.1950
C24 C 1.0215(9) 0.9414(8) 0.2564(2)
H16 H 1.1160 1.0022 0.2833
C25 C 0.9234(11) 0.7436(10) 0.0659(2)
H17 H 0.7813 0.6784 0.0673
C26 C 1.0550(11) 0.7567(10) 0.0220(2)
H18 H 1.0236 0.7020 -0.0125
C27 C 1.2497(11) 0.8680(10) 0.0373(3)
H19 H 1.3713 0.9025 0.0146
C28 C 1.2309(10) 0.9157(9) 0.0898(2)
H20 H 1.3385 0.9888 0.1104
loop_
_geom_bond_atom_site_label_1
_geom_bond_atom_site_label_2
_geom_bond_site_symmetry_1
_geom_bond_site_symmetry_2
S1 C11 1_555 1_555
S2 C15 1_555 1_555
N1 C1 1_555 1_555
N2 C22 1_555 1_555
C1 H1 1_555 1_555
C2 C1 1_555 1_555
H2 C2 1_555 1_555
C3 C2 1_555 1_555
H3 C3 1_555 1_555
C4 N1 1_555 1_555
H4 C4 1_555 1_555
C5 N1 1_555 1_555
C6 C5 1_555 1_555
H5 C6 1_555 1_555
C7 C6 1_555 1_555
H6 C7 1_555 1_555
C8 C7 1_555 1_555
C9 C8 1_555 1_555
H7 C9 1_555 1_555
C10 C5 1_555 1_555
H8 C10 1_555 1_555
C11 C8 1_555 1_555
C12 C11 1_555 1_555
H9 C12 1_555 1_555
C13 C12 1_555 1_555
H10 C13 1_555 1_555
C14 S1 1_555 1_555
C15 C14 1_555 1_555
C16 C15 1_555 1_555
H11 C16 1_555 1_555
C17 C16 1_555 1_555
H12 C17 1_555 1_555
C18 S2 1_555 1_555
C19 C18 1_555 1_555
C20 C19 1_555 1_555
H13 C20 1_555 1_555
C21 C20 1_555 1_555
H14 C21 1_555 1_555
C22 C21 1_555 1_555
C23 C22 1_555 1_555
H15 C23 1_555 1_555
C24 C19 1_555 1_555
H16 C24 1_555 1_555
C25 N2 1_555 1_555
H17 C25 1_555 1_555
C26 C25 1_555 1_555
H18 C26 1_555 1_555
C27 C26 1_555 1_555
H19 C27 1_555 1_555
C28 N2 1_555 1_555
H20 C28 1_555 1_555
C3 C4 1_555 1_555
C9 C10 1_555 1_555
C13 C14 1_555 1_555
C17 C18 1_555 1_555
C23 C24 1_555 1_555
C27 C28 1_555 1_555

#END
