
#######################################################################
#
#                 Cambridge Crystallographic Data Centre
#                                CCDC 
#
#######################################################################
#
# If this CIF has been generated from an entry in the Cambridge 
# Structural Database, then it will include bibliographic, chemical, 
# crystal, experimental, refinement or atomic coordinate data resulting 
# from the CCDC's data processing and validation procedures.
#
#######################################################################

data_WUWRIR
_chemical_formula_moiety         'C15 H18 N6 O12'
_chemical_name_systematic        
"2,2',2'',2''',2'''',2'''''-(1,3,5-triazine-2,4,6-triyltrinitrilo)hexaacetic acid"
_symmetry_cell_setting           monoclinic
_symmetry_space_group_name_H-M   'C 2/c'
_symmetry_Int_Tables_number      15
_space_group_name_Hall           '-C 2yn'
loop_
_symmetry_equiv_pos_site_id
_symmetry_equiv_pos_as_xyz
1 x,y,z
2 -x,y,1/2-z
3 1/2+x,1/2+y,z
4 1/2-x,1/2+y,1/2-z
5 -x,-y,-z
6 x,-y,1/2+z
7 1/2-x,1/2-y,-z
8 1/2+x,1/2-y,1/2+z
_cell_length_a                   5.0686(13)
_cell_length_b                   21.661(6)
_cell_length_c                   17.452(4)
_cell_angle_alpha                90
_cell_angle_beta                 91.591(5)
_cell_angle_gamma                90
_cell_volume                     1915.33
_exptl_crystal_colour            colorless
_exptl_crystal_description       block
_cell_formula_units_Z            4
loop_
_atom_site_label
_atom_site_type_symbol
_atom_site_fract_x
_atom_site_fract_y
_atom_site_fract_z
C1 C 0.2971(4) 0.37836(10) 0.04659(11)
C2 C 0.4597(4) 0.33882(10) 0.10120(12)
H1 H 0.5690 0.3114 0.0717
H2 H 0.5763 0.3653 0.1314
C3 C 0.0851(4) 0.20131(9) 0.12290(11)
C4 C 0.3218(4) 0.23496(9) 0.15501(12)
H3 H 0.3513 0.2221 0.2078
H4 H 0.4748 0.2225 0.1266
C5 C -0.0446(4) 0.54009(9) 0.37437(12)
C6 C -0.1695(4) 0.51863(9) 0.29980(11)
H5 H -0.3198 0.4928 0.3112
H6 H -0.2359 0.5545 0.2722
C7 C 0.1466(4) 0.33168(9) 0.20316(10)
C8 C 0.0000 0.42157(12) 0.2500
N1 N 0.0000 0.29722(10) 0.2500
N2 N 0.1557(3) 0.39373(7) 0.19973(9)
N3 N 0.3035(3) 0.30184(7) 0.15300(9)
N4 N 0.0000 0.48462(10) 0.2500
O1 O 0.3831(3) 0.42734(7) 0.02164(8)
O2 O 0.0695(3) 0.35501(8) 0.02584(9)
H7 H -0.0073 0.3788 -0.0038
O3 O -0.0837(3) 0.22146(7) 0.08038(9)
O4 O 0.0900(3) 0.14274(7) 0.14695(10)
H8 H -0.0373 0.1242 0.1283
O5 O -0.1593(3) 0.57996(7) 0.41163(8)
O6 O 0.1763(3) 0.51499(7) 0.39541(8)
H9 H 0.2309 0.5310 0.4353
C1A C -0.2971(4) 0.37836(10) 0.45341(11)
C2A C -0.4597(4) 0.33882(10) 0.39880(12)
H1A H -0.5690 0.3114 0.4283
H2A H -0.5763 0.3653 0.3686
C3A C -0.0851(4) 0.20131(9) 0.37710(11)
C4A C -0.3218(4) 0.23496(9) 0.34499(12)
H3A H -0.3513 0.2221 0.2922
H4A H -0.4748 0.2225 0.3734
C5A C 0.0446(4) 0.54009(9) 0.12563(12)
C6A C 0.1695(4) 0.51863(9) 0.20020(11)
H5A H 0.3198 0.4928 0.1888
H6A H 0.2359 0.5545 0.2278
C7A C -0.1466(4) 0.33168(9) 0.29684(10)
N2A N -0.1557(3) 0.39373(7) 0.30027(9)
N3A N -0.3035(3) 0.30184(7) 0.34700(9)
O1A O -0.3831(3) 0.42734(7) 0.47836(8)
O2A O -0.0695(3) 0.35501(8) 0.47416(9)
H7A H 0.0073 0.3788 0.5038
O3A O 0.0837(3) 0.22146(7) 0.41962(9)
O4A O -0.0900(3) 0.14274(7) 0.35305(10)
H8A H 0.0373 0.1242 0.3717
O5A O 0.1593(3) 0.57996(7) 0.08837(8)
O6A O -0.1763(3) 0.51499(7) 0.10459(8)
H9A H -0.2309 0.5310 0.0647
loop_
_geom_bond_atom_site_label_1
_geom_bond_atom_site_label_2
_geom_bond_site_symmetry_1
_geom_bond_site_symmetry_2
C1 C2 1_555 1_555
C2 H1 1_555 1_555
H2 C2 1_555 1_555
C3 C4 1_555 1_555
C4 H3 1_555 1_555
H4 C4 1_555 1_555
C5 C6 1_555 1_555
C6 H5 1_555 1_555
H6 C6 1_555 1_555
C7 N1 1_555 1_555
C8 N2 1_555 1_555
N1 C7A 1_555 1_555
N2 C7 1_555 1_555
N3 C2 1_555 1_555
N4 C6 1_555 1_555
O1 C1 1_555 1_555
O2 C1 1_555 1_555
H7 O2 1_555 1_555
O3 C3 1_555 1_555
O4 C3 1_555 1_555
H8 O4 1_555 1_555
O5 C5 1_555 1_555
O6 C5 1_555 1_555
H9 O6 1_555 1_555
C1A C2A 1_555 1_555
C2A H1A 1_555 1_555
H2A C2A 1_555 1_555
C3A C4A 1_555 1_555
C4A H3A 1_555 1_555
H4A C4A 1_555 1_555
C5A C6A 1_555 1_555
C6A N4 1_555 1_555
H5A C6A 1_555 1_555
H6A C6A 1_555 1_555
C7A N2A 1_555 1_555
N2A C8 1_555 1_555
N3A C2A 1_555 1_555
O1A C1A 1_555 1_555
O2A C1A 1_555 1_555
H7A O2A 1_555 1_555
O3A C3A 1_555 1_555
O4A C3A 1_555 1_555
H8A O4A 1_555 1_555
O5A C5A 1_555 1_555
O6A C5A 1_555 1_555
H9A O6A 1_555 1_555
C4 N3 1_555 1_555
C7 N3 1_555 1_555
C8 N4 1_555 1_555
C4A N3A 1_555 1_555
C7A N3A 1_555 1_555

#END
