
#######################################################################
#
#                 Cambridge Crystallographic Data Centre
#                                CCDC 
#
#######################################################################
#
# If this CIF has been generated from an entry in the Cambridge 
# Structural Database, then it will include bibliographic, chemical, 
# crystal, experimental, refinement or atomic coordinate data resulting 
# from the CCDC's data processing and validation procedures.
#
#######################################################################

data_WUWZAR
_chemical_formula_moiety         'C16 H18 N4 O3 S1,H2 O1'
_chemical_name_systematic        
'2-((2-(4-(dimethylamino)benzylidene)hydrazino)carbonyl)benzenesulfonamide monohydrate'
_symmetry_cell_setting           orthorhombic
_symmetry_space_group_name_H-M   'P 21 21 21'
_symmetry_Int_Tables_number      19
_space_group_name_Hall           'P 2ac 2ab'
loop_
_symmetry_equiv_pos_site_id
_symmetry_equiv_pos_as_xyz
1 x,y,z
2 1/2-x,-y,1/2+z
3 1/2+x,1/2-y,-z
4 -x,1/2+y,1/2-z
_cell_length_a                   6.5693(2)
_cell_length_b                   7.0856(3)
_cell_length_c                   37.8187(15)
_cell_angle_alpha                90
_cell_angle_beta                 90
_cell_angle_gamma                90
_cell_volume                     1760.36
_exptl_crystal_colour            colorless
_exptl_crystal_description       block
_cell_formula_units_Z            4
loop_
_atom_site_label
_atom_site_type_symbol
_atom_site_fract_x
_atom_site_fract_y
_atom_site_fract_z
S1 S 0.59223(6) 0.31564(6) 0.055356(10)
O1 O 0.5769(2) 0.25320(18) 0.09113(3)
O2 O 0.52604(18) 0.19282(19) 0.02743(3)
O3 O 0.79321(18) 0.6370(2) 0.10287(3)
N1 N 0.8287(2) 0.3638(2) 0.04764(4)
H1 H 0.878(3) 0.449(2) 0.0613(4)
H2 H 0.851(3) 0.373(3) 0.0254(3)
N2 N 0.5251(2) 0.7076(2) 0.13854(4)
H3 H 0.3958(15) 0.729(3) 0.1404(5)
N3 N 0.6469(2) 0.7021(2) 0.16853(3)
N4 N 0.9589(2) 0.6757(2) 0.33037(4)
C1 C 0.4472(2) 0.5275(2) 0.05187(4)
C2 C 0.3099(3) 0.5385(3) 0.02417(4)
H4 H 0.3010 0.4384 0.0075
C3 C 0.1849(3) 0.6956(3) 0.02068(5)
H5 H 0.0906 0.7028 0.0017
C4 C 0.1979(3) 0.8414(3) 0.04482(5)
H6 H 0.1124 0.9488 0.0425
C5 C 0.3363(3) 0.8306(3) 0.07264(5)
H7 H 0.3451 0.9319 0.0890
C6 C 0.4619(2) 0.6741(3) 0.07687(4)
C7 C 0.6112(3) 0.6695(2) 0.10703(4)
C8 C 0.5578(3) 0.7420(2) 0.19760(4)
H8 H 0.4187 0.7784 0.1973
C9 C 0.6662(2) 0.7326(2) 0.23126(4)
C10 C 0.8663(2) 0.6638(2) 0.23387(4)
H9 H 0.9366 0.6273 0.2130
C11 C 0.9617(3) 0.6484(2) 0.26594(4)
H10 H 1.0966 0.6003 0.2669
C12 C 0.8641(2) 0.7026(3) 0.29760(4)
C13 C 0.6659(3) 0.7739(3) 0.29482(4)
H11 H 0.5964 0.8139 0.3155
C14 C 0.5699(3) 0.7868(2) 0.26227(4)
H12 H 0.4347 0.8340 0.2612
C15 C 1.1818(3) 0.6976(3) 0.33178(5)
H13 H 1.2449 0.6159 0.3140
H14 H 1.2310 0.6619 0.3553
H15 H 1.2178 0.8293 0.3270
C16 C 0.8583(3) 0.7560(3) 0.36166(5)
H16 H 0.8535 0.8938 0.3595
H17 H 0.9349 0.7215 0.3829
H18 H 0.7194 0.7063 0.3634
O4 O 0.1113(2) 0.7774(2) 0.15119(4)
H19 H 0.003(2) 0.736(3) 0.1430(5)
H20 H 0.082(3) 0.8836(18) 0.1589(5)
loop_
_geom_bond_atom_site_label_1
_geom_bond_atom_site_label_2
_geom_bond_site_symmetry_1
_geom_bond_site_symmetry_2
S1 O1 1_555 1_555
O2 S1 1_555 1_555
O3 C7 1_555 1_555
N1 S1 1_555 1_555
H1 N1 1_555 1_555
H2 N1 1_555 1_555
N2 H3 1_555 1_555
N3 N2 1_555 1_555
N4 C12 1_555 1_555
C1 S1 1_555 1_555
C2 C1 1_555 1_555
H4 C2 1_555 1_555
C3 C2 1_555 1_555
H5 C3 1_555 1_555
C4 C3 1_555 1_555
H6 C4 1_555 1_555
C5 C4 1_555 1_555
H7 C5 1_555 1_555
C6 C1 1_555 1_555
C7 N2 1_555 1_555
C8 N3 1_555 1_555
H8 C8 1_555 1_555
C9 C8 1_555 1_555
C10 C9 1_555 1_555
H9 C10 1_555 1_555
C11 C10 1_555 1_555
H10 C11 1_555 1_555
C12 C11 1_555 1_555
C13 C12 1_555 1_555
H11 C13 1_555 1_555
C14 C9 1_555 1_555
H12 C14 1_555 1_555
C15 N4 1_555 1_555
H13 C15 1_555 1_555
H14 C15 1_555 1_555
H15 C15 1_555 1_555
C16 N4 1_555 1_555
H16 C16 1_555 1_555
H17 C16 1_555 1_555
H18 C16 1_555 1_555
O4 H19 1_555 1_555
H20 O4 1_555 1_555
C5 C6 1_555 1_555
C6 C7 1_555 1_555
C13 C14 1_555 1_555

#END
