
#######################################################################
#
#                 Cambridge Crystallographic Data Centre
#                                CCDC 
#
#######################################################################
#
# If this CIF has been generated from an entry in the Cambridge 
# Structural Database, then it will include bibliographic, chemical, 
# crystal, experimental, refinement or atomic coordinate data resulting 
# from the CCDC's data processing and validation procedures.
#
#######################################################################

data_WUXCOH
_chemical_formula_moiety         'C13 H10 I1 N3 O2'
_chemical_name_systematic        
(1E)-1-(2-Iodobenzylidene)-2-(4-nitrophenyl)hydrazone
_symmetry_cell_setting           orthorhombic
_symmetry_space_group_name_H-M   'P c a 21'
_symmetry_Int_Tables_number      29
_space_group_name_Hall           'P 2c -2ac'
loop_
_symmetry_equiv_pos_site_id
_symmetry_equiv_pos_as_xyz
1 x,y,z
2 -x,-y,1/2+z
3 1/2+x,-y,z
4 1/2-x,y,1/2+z
_cell_length_a                   24.0858(11)
_cell_length_b                   5.0699(2)
_cell_length_c                   10.5080(4)
_cell_angle_alpha                90
_cell_angle_beta                 90
_cell_angle_gamma                90
_cell_volume                     1283.16
_exptl_crystal_colour            red
_exptl_crystal_description       plate
_cell_formula_units_Z            4
_exptl_crystal_recrystallization_method ethanol
loop_
_atom_site_label
_atom_site_type_symbol
_atom_site_fract_x
_atom_site_fract_y
_atom_site_fract_z
I1 I 0.876111(14) 0.80511(6) 0.99980(7)
O1 O 0.75761(18) -0.9173(10) 0.3440(4)
O2 O 0.8286(2) -0.7960(8) 0.2309(4)
N1 N 0.8383(2) 0.0228(9) 0.6790(5)
N2 N 0.88431(19) 0.1797(8) 0.6758(5)
N3 N 0.7976(2) -0.7716(10) 0.3259(5)
C1 C 0.8295(2) -0.1731(11) 0.5902(5)
C2 C 0.7819(3) -0.3277(11) 0.6028(6)
C3 C 0.7719(2) -0.5242(10) 0.5156(7)
C4 C 0.8089(2) -0.5666(12) 0.4170(5)
C5 C 0.8567(2) -0.4147(13) 0.4038(5)
C6 C 0.8674(2) -0.2158(9) 0.4942(19)
C7 C 0.9338(2) 0.5366(11) 0.7712(5)
C8 C 0.9396(2) 0.7336(11) 0.8643(6)
C9 C 0.9849(2) 0.8953(13) 0.8680(6)
C10 C 1.0273(2) 0.8620(11) 0.7729(6)
C11 C 1.0228(3) 0.6848(11) 0.6870(6)
C12 C 0.9777(2) 0.5148(11) 0.6803(6)
C13 C 0.8866(2) 0.3589(12) 0.7629(6)
H1 H 0.8136 0.0473 0.7395
H2 H 0.8570 0.3748 0.8224
H3 H 0.7567 -0.2975 0.6708
H4 H 0.7396 -0.6307 0.5229
H5 H 0.8816 -0.4445 0.3352
H6 H 0.9003 -0.1126 0.4890
H7 H 0.9883 1.0269 0.9318
H8 H 1.0590 0.9732 0.7740
H9 H 1.0514 0.6689 0.6253
H10 H 0.9761 0.3843 0.6155
loop_
_geom_bond_atom_site_label_1
_geom_bond_atom_site_label_2
_geom_bond_site_symmetry_1
_geom_bond_site_symmetry_2
I1 C8 1_555 1_555
O1 N3 1_555 1_555
O2 N3 1_555 1_555
N1 N2 1_555 1_555
N2 C13 1_555 1_555
N3 C4 1_555 1_555
C1 N1 1_555 1_555
C2 C1 1_555 1_555
C3 C2 1_555 1_555
C4 C3 1_555 1_555
C5 C4 1_555 1_555
C6 C1 1_555 1_555
C7 C8 1_555 1_555
C8 C9 1_555 1_555
C9 C10 1_555 1_555
C10 C11 1_555 1_555
C11 C12 1_555 1_555
C12 C7 1_555 1_555
C13 C7 1_555 1_555
H1 N1 1_555 1_555
H2 C13 1_555 1_555
H3 C2 1_555 1_555
H4 C3 1_555 1_555
H5 C5 1_555 1_555
H6 C6 1_555 1_555
H7 C9 1_555 1_555
H8 C10 1_555 1_555
H9 C11 1_555 1_555
H10 C12 1_555 1_555
C5 C6 1_555 1_555

#END
