
#######################################################################
#
#                 Cambridge Crystallographic Data Centre
#                                CCDC 
#
#######################################################################
#
# If this CIF has been generated from an entry in the Cambridge 
# Structural Database, then it will include bibliographic, chemical, 
# crystal, experimental, refinement or atomic coordinate data resulting 
# from the CCDC's data processing and validation procedures.
#
#######################################################################

data_WUXFUS
_chemical_formula_moiety         'C32 H44 Si1'
_chemical_name_systematic        
bis(2,3,4,5,6,7-Hexamethyl-1H-inden-1-yl)(dimethyl)silane
_symmetry_cell_setting           triclinic
_symmetry_space_group_name_H-M   'P -1'
_symmetry_Int_Tables_number      2
_space_group_name_Hall           '-P 1'
loop_
_symmetry_equiv_pos_site_id
_symmetry_equiv_pos_as_xyz
1 x,y,z
2 -x,-y,-z
_cell_length_a                   9.2291(7)
_cell_length_b                   9.7804(7)
_cell_length_c                   15.8873(12)
_cell_angle_alpha                89.600(6)
_cell_angle_beta                 81.392(6)
_cell_angle_gamma                73.234(6)
_cell_volume                     1356.64
_exptl_crystal_colour            colorless
_exptl_crystal_description       needle
_cell_formula_units_Z            2
loop_
_atom_site_label
_atom_site_type_symbol
_atom_site_fract_x
_atom_site_fract_y
_atom_site_fract_z
C1 C 0.4434(4) 0.9499(5) 0.3424(2)
C2 C 0.2803(5) 1.0015(5) 0.3265(2)
C3 C 0.1930(5) 0.9312(5) 0.3737(3)
C4 C 0.2475(5) 0.7472(5) 0.4946(3)
C5 C 0.3570(5) 0.6858(5) 0.5474(3)
C6 C 0.5018(5) 0.7117(5) 0.5362(3)
C7 C 0.5406(5) 0.7976(5) 0.4710(3)
C8 C 0.4330(5) 0.8566(4) 0.4178(2)
C9 C 0.2858(4) 0.8373(5) 0.4313(3)
C10 C 0.2299(5) 1.1139(5) 0.2632(3)
C11 C 0.0269(5) 0.9502(6) 0.3685(3)
C12 C 0.0970(6) 0.7118(6) 0.5047(3)
C13 C 0.3218(7) 0.5891(6) 0.6173(3)
C14 C 0.6171(6) 0.6422(5) 0.5936(3)
C15 C 0.6918(5) 0.8298(5) 0.4604(3)
C16 C 0.5963(5) 0.9442(5) 0.1481(2)
C17 C 0.7293(5) 0.9956(5) 0.1622(3)
C18 C 0.8586(5) 0.9233(5) 0.1118(3)
C19 C 0.9086(5) 0.7320(5) -0.0146(3)
C20 C 0.8334(6) 0.6647(5) -0.0644(3)
C21 C 0.6750(6) 0.6925(5) -0.0497(3)
C22 C 0.5848(5) 0.7848(5) 0.0187(3)
C23 C 0.6604(5) 0.8475(4) 0.0703(2)
C24 C 0.8198(5) 0.8266(5) 0.0523(3)
C25 C 0.7143(5) 1.1087(5) 0.2296(3)
C26 C 1.0155(5) 0.9356(6) 0.1172(3)
C27 C 1.0820(6) 0.6984(6) -0.0314(4)
C28 C 0.9290(7) 0.5631(6) -0.1378(3)
C29 C 0.5967(7) 0.6186(6) -0.1048(3)
C30 C 0.4138(5) 0.8208(5) 0.0333(3)
C31 C 0.7524(5) 0.7171(5) 0.2615(3)
C32 C 0.4488(6) 0.7020(5) 0.2242(3)
Si1 Si 0.55900(13) 0.82931(12) 0.24445(7)
H1 H 0.4843 1.0293 0.3522
H2 H 0.1236 1.1680 0.2794
H3 H 0.2925 1.1787 0.2586
H4 H 0.2433 1.0687 0.2078
H5 H -0.0128 1.0319 0.3347
H6 H -0.0335 0.9655 0.4249
H7 H 0.0180 0.8654 0.3427
H8 H 0.7743 0.7430 0.4452
H9 H 0.7072 0.8697 0.5125
H10 H 0.6993 0.8962 0.4153
H11 H 0.7137 0.6604 0.5733
H12 H 0.5805 0.6823 0.6503
H13 H 0.6317 0.5405 0.5935
H14 H 0.3640 0.6033 0.6667
H15 H 0.2131 0.6110 0.6334
H16 H 0.3631 0.4899 0.5987
H17 H 0.0258 0.7713 0.5493
H18 H 0.0525 0.7270 0.4536
H19 H 0.1115 0.6143 0.5187
H20 H 0.5049 1.0230 0.1413
H21 H 0.7925 1.1571 0.2152
H22 H 0.6140 1.1775 0.2359
H23 H 0.7287 1.0629 0.2828
H24 H 1.0069 1.0132 0.1563
H25 H 1.0638 0.9537 0.0620
H26 H 1.0770 0.8478 0.1365
H27 H 0.3869 0.7351 0.0463
H28 H 0.3733 0.8579 -0.0170
H29 H 0.3705 0.8888 0.0797
H30 H 0.4882 0.6430 -0.0843
H31 H 0.6133 0.6498 -0.1616
H32 H 0.6427 0.5162 -0.1049
H33 H 0.8837 0.5826 -0.1892
H34 H 1.0317 0.5711 -0.1497
H35 H 0.9380 0.4648 -0.1244
H36 H 1.1270 0.5969 -0.0376
H37 H 1.1165 0.7408 -0.0817
H38 H 1.1166 0.7318 0.0158
H39 H 0.8098 0.7750 0.2792
H40 H 0.7419 0.6477 0.3032
H41 H 0.8062 0.6658 0.2094
H42 H 0.3475 0.7526 0.2135
H43 H 0.4390 0.6443 0.2735
H44 H 0.5026 0.6378 0.1763
loop_
_geom_bond_atom_site_label_1
_geom_bond_atom_site_label_2
_geom_bond_site_symmetry_1
_geom_bond_site_symmetry_2
C1 C2 1_555 1_555
C2 C3 1_555 1_555
C3 C9 1_555 1_555
C4 C5 1_555 1_555
C5 C6 1_555 1_555
C6 C7 1_555 1_555
C7 C8 1_555 1_555
C8 C1 1_555 1_555
C9 C4 1_555 1_555
C10 C2 1_555 1_555
C11 C3 1_555 1_555
C12 C4 1_555 1_555
C13 C5 1_555 1_555
C14 C6 1_555 1_555
C15 C7 1_555 1_555
C16 C17 1_555 1_555
C17 C18 1_555 1_555
C18 C24 1_555 1_555
C19 C20 1_555 1_555
C20 C21 1_555 1_555
C21 C22 1_555 1_555
C22 C23 1_555 1_555
C23 C16 1_555 1_555
C24 C19 1_555 1_555
C25 C17 1_555 1_555
C26 C18 1_555 1_555
C27 C19 1_555 1_555
C28 C20 1_555 1_555
C29 C21 1_555 1_555
C30 C22 1_555 1_555
C31 Si1 1_555 1_555
C32 Si1 1_555 1_555
Si1 C1 1_555 1_555
H1 C1 1_555 1_555
H2 C10 1_555 1_555
H3 C10 1_555 1_555
H4 C10 1_555 1_555
H5 C11 1_555 1_555
H6 C11 1_555 1_555
H7 C11 1_555 1_555
H8 C15 1_555 1_555
H9 C15 1_555 1_555
H10 C15 1_555 1_555
H11 C14 1_555 1_555
H12 C14 1_555 1_555
H13 C14 1_555 1_555
H14 C13 1_555 1_555
H15 C13 1_555 1_555
H16 C13 1_555 1_555
H17 C12 1_555 1_555
H18 C12 1_555 1_555
H19 C12 1_555 1_555
H20 C16 1_555 1_555
H21 C25 1_555 1_555
H22 C25 1_555 1_555
H23 C25 1_555 1_555
H24 C26 1_555 1_555
H25 C26 1_555 1_555
H26 C26 1_555 1_555
H27 C30 1_555 1_555
H28 C30 1_555 1_555
H29 C30 1_555 1_555
H30 C29 1_555 1_555
H31 C29 1_555 1_555
H32 C29 1_555 1_555
H33 C28 1_555 1_555
H34 C28 1_555 1_555
H35 C28 1_555 1_555
H36 C27 1_555 1_555
H37 C27 1_555 1_555
H38 C27 1_555 1_555
H39 C31 1_555 1_555
H40 C31 1_555 1_555
H41 C31 1_555 1_555
H42 C32 1_555 1_555
H43 C32 1_555 1_555
H44 C32 1_555 1_555
C8 C9 1_555 1_555
C16 Si1 1_555 1_555
C23 C24 1_555 1_555

#END
