
#######################################################################
#
#                 Cambridge Crystallographic Data Centre
#                                CCDC 
#
#######################################################################
#
# If this CIF has been generated from an entry in the Cambridge 
# Structural Database, then it will include bibliographic, chemical, 
# crystal, experimental, refinement or atomic coordinate data resulting 
# from the CCDC's data processing and validation procedures.
#
#######################################################################

data_WUXGEB
_chemical_formula_moiety         'C8 H7 N1 O5 S1'
_chemical_name_systematic        '(4-Nitrophenylsulfinyl)acetic acid'
_symmetry_cell_setting           monoclinic
_symmetry_space_group_name_H-M   'P 21/c'
_symmetry_Int_Tables_number      14
_space_group_name_Hall           '-P 2ybc'
loop_
_symmetry_equiv_pos_site_id
_symmetry_equiv_pos_as_xyz
1 x,y,z
2 x,1/2-y,1/2+z
3 -x,-y,-z
4 -x,1/2+y,1/2-z
_cell_length_a                   13.7110(7)
_cell_length_b                   7.3037(3)
_cell_length_c                   9.3537(4)
_cell_angle_alpha                90
_cell_angle_beta                 93.088(2)
_cell_angle_gamma                90
_cell_volume                     935.329
_exptl_crystal_colour            colorless
_exptl_crystal_description       plate
_cell_formula_units_Z            4
_exptl_crystal_recrystallization_method ethanol
loop_
_atom_site_label
_atom_site_type_symbol
_atom_site_fract_x
_atom_site_fract_y
_atom_site_fract_z
S1 S 0.20558(4) 0.65399(7) 0.71021(6)
O1 O 0.17742(11) 0.5651(2) 0.84711(16)
C1 C 0.26862(16) 0.4852(3) 0.6118(2)
C2 C 0.25576(16) 0.2990(3) 0.6365(2)
C3 C 0.30936(16) 0.1737(3) 0.5611(2)
C4 C 0.37325(15) 0.2402(3) 0.4635(2)
N1 N 0.43007(13) 0.1080(2) 0.3832(2)
O2 O 0.49132(13) 0.1682(2) 0.30462(18)
O3 O 0.41335(12) -0.0562(2) 0.39842(18)
C5 C 0.38575(16) 0.4248(3) 0.4366(2)
C6 C 0.33308(17) 0.5492(3) 0.5133(2)
C7 C 0.09633(16) 0.6606(3) 0.5930(2)
C8 C 0.03000(17) 0.8074(3) 0.6458(3)
O4 O 0.05419(13) 0.9127(3) 0.74139(19)
O5 O -0.05533(12) 0.8082(2) 0.57336(19)
H1 H 0.2111 0.2583 0.7039
H2 H 0.3024 0.0458 0.5760
H3 H 0.4293 0.4651 0.3675
H4 H 0.3409 0.6770 0.4988
H5 H 0.1135 0.6878 0.4938
H6 H 0.0629 0.5404 0.5934
H7 H -0.0906 0.8914 0.6049
loop_
_geom_bond_atom_site_label_1
_geom_bond_atom_site_label_2
_geom_bond_site_symmetry_1
_geom_bond_site_symmetry_2
S1 O1 1_555 1_555
C1 S1 1_555 1_555
C2 C1 1_555 1_555
C3 C2 1_555 1_555
C4 C3 1_555 1_555
N1 C4 1_555 1_555
O2 N1 1_555 1_555
O3 N1 1_555 1_555
C5 C4 1_555 1_555
C6 C1 1_555 1_555
C7 S1 1_555 1_555
C8 C7 1_555 1_555
O4 C8 1_555 1_555
O5 C8 1_555 1_555
H1 C2 1_555 1_555
H2 C3 1_555 1_555
H3 C5 1_555 1_555
H4 C6 1_555 1_555
H5 C7 1_555 1_555
H6 C7 1_555 1_555
H7 O5 1_555 1_555
C5 C6 1_555 1_555

#END
