
#######################################################################
#
#                 Cambridge Crystallographic Data Centre
#                                CCDC 
#
#######################################################################
#
# If this CIF has been generated from an entry in the Cambridge 
# Structural Database, then it will include bibliographic, chemical, 
# crystal, experimental, refinement or atomic coordinate data resulting 
# from the CCDC's data processing and validation procedures.
#
#######################################################################

data_WUXGUR
_chemical_formula_moiety         'C20 H24 O6'
_chemical_name_systematic        
'Dimethyl 4a\b-methyl-6-methoxy-9-oxo-1,2,3,4,4a,9,10,10a\b-octahydrophenanthrene-1,1-dicarboxylate'
_symmetry_cell_setting           orthorhombic
_symmetry_space_group_name_H-M   'P 21 21 21'
_symmetry_Int_Tables_number      19
_space_group_name_Hall           'P 2ac 2ab'
loop_
_symmetry_equiv_pos_site_id
_symmetry_equiv_pos_as_xyz
1 x,y,z
2 1/2-x,-y,1/2+z
3 -x,1/2+y,1/2-z
4 1/2+x,1/2-y,-z
_cell_length_a                   9.491(4)
_cell_length_b                   13.541(5)
_cell_length_c                   14.051(6)
_cell_angle_alpha                90
_cell_angle_beta                 90
_cell_angle_gamma                90
_cell_volume                     1805.8
_exptl_crystal_colour            colorless
_exptl_crystal_description       block
_chemical_melting_point          431K
_cell_formula_units_Z            4
_exptl_crystal_recrystallization_method 'methyl acetate/light petroleum'
loop_
_atom_site_label
_atom_site_type_symbol
_atom_site_fract_x
_atom_site_fract_y
_atom_site_fract_z
O1 O 0.7636(2) 0.93442(12) 0.62722(13)
O2 O 0.66719(17) 0.36410(11) 0.89782(11)
O3 O 0.87678(17) 0.36779(11) 0.82597(13)
O4 O 0.92799(17) 0.58559(13) 0.72734(13)
O5 O 0.89428(15) 0.57374(11) 0.88402(11)
O6 O 0.7192(2) 0.71233(12) 1.01841(11)
C1 C 0.7231(2) 0.49742(14) 0.78803(13)
C2 C 0.6967(3) 0.46354(15) 0.68437(15)
H1 H 0.7832 0.4362 0.6587
H2 H 0.6264 0.4116 0.6844
C3 C 0.6474(3) 0.54649(17) 0.62057(15)
H3 H 0.6275 0.5207 0.5576
H4 H 0.7215 0.5955 0.6147
C4 C 0.5164(2) 0.59446(15) 0.66056(15)
H5 H 0.4408 0.5463 0.6609
H6 H 0.4884 0.6480 0.6188
C5 C 0.53461(18) 0.63541(14) 0.76175(14)
C6 C 0.63235(19) 0.72474(13) 0.76823(13)
C7 C 0.6540(2) 0.78668(15) 0.69113(14)
H7 H 0.6131 0.7716 0.6328
C8 C 0.7362(2) 0.87093(15) 0.69994(17)
C9 C 0.7970(3) 0.89506(16) 0.78679(19)
H8 H 0.8521 0.9516 0.7927
C10 C 0.7752(2) 0.83510(16) 0.86315(16)
H9 H 0.8156 0.8513 0.9214
C11 C 0.6933(2) 0.74956(14) 0.85579(14)
C12 C 0.6768(2) 0.68642(15) 0.94085(14)
C13 C 0.6035(2) 0.58838(15) 0.92941(14)
H10 H 0.5097 0.5937 0.9564
H11 H 0.6544 0.5393 0.9661
C14 C 0.5902(2) 0.55137(14) 0.82712(13)
C15 C 0.3881(2) 0.66906(18) 0.79588(19)
H12 H 0.3971 0.7031 0.8555
H13 H 0.3284 0.6124 0.8039
H14 H 0.3474 0.7126 0.7495
C16 C 0.7158(4) 0.9088(2) 0.53487(19)
H15 H 0.7545 0.8460 0.5170
H16 H 0.7457 0.9582 0.4902
H17 H 0.6148 0.9049 0.5349
C17 C 0.7491(2) 0.40323(14) 0.84554(14)
C18 C 0.9186(3) 0.27936(18) 0.8753(2)
H18 H 0.9128 0.2901 0.9427
H19 H 1.0137 0.2629 0.8583
H20 H 0.8571 0.2261 0.8577
C19 C 0.8599(2) 0.55814(14) 0.79327(16)
C20 C 1.0188(2) 0.63208(18) 0.9029(2)
H21 H 1.0991 0.6011 0.8741
H22 H 1.0331 0.6368 0.9704
H23 H 1.0067 0.6970 0.8768
H24 H 0.5111 0.5011 0.8268
loop_
_geom_bond_atom_site_label_1
_geom_bond_atom_site_label_2
_geom_bond_site_symmetry_1
_geom_bond_site_symmetry_2
O1 C8 1_555 1_555
O2 C17 1_555 1_555
O3 C17 1_555 1_555
O4 C19 1_555 1_555
O5 C19 1_555 1_555
O6 C12 1_555 1_555
C1 C2 1_555 1_555
C2 H1 1_555 1_555
H2 C2 1_555 1_555
C3 C2 1_555 1_555
H3 C3 1_555 1_555
H4 C3 1_555 1_555
C4 C3 1_555 1_555
H5 C4 1_555 1_555
H6 C4 1_555 1_555
C5 C4 1_555 1_555
C6 C5 1_555 1_555
C7 C6 1_555 1_555
H7 C7 1_555 1_555
C8 C7 1_555 1_555
C9 C8 1_555 1_555
H8 C9 1_555 1_555
C10 C9 1_555 1_555
H9 C10 1_555 1_555
C11 C6 1_555 1_555
C12 C11 1_555 1_555
C13 C12 1_555 1_555
H10 C13 1_555 1_555
H11 C13 1_555 1_555
C14 C1 1_555 1_555
C15 C5 1_555 1_555
H12 C15 1_555 1_555
H13 C15 1_555 1_555
H14 C15 1_555 1_555
C16 O1 1_555 1_555
H15 C16 1_555 1_555
H16 C16 1_555 1_555
H17 C16 1_555 1_555
C17 C1 1_555 1_555
C18 O3 1_555 1_555
H18 C18 1_555 1_555
H19 C18 1_555 1_555
H20 C18 1_555 1_555
C19 C1 1_555 1_555
C20 O5 1_555 1_555
H21 C20 1_555 1_555
H22 C20 1_555 1_555
H23 C20 1_555 1_555
H24 C14 1_555 1_555
C5 C14 1_555 1_555
C10 C11 1_555 1_555
C13 C14 1_555 1_555

#END
