
#######################################################################
#
#                 Cambridge Crystallographic Data Centre
#                                CCDC 
#
#######################################################################
#
# If this CIF has been generated from an entry in the Cambridge 
# Structural Database, then it will include bibliographic, chemical, 
# crystal, experimental, refinement or atomic coordinate data resulting 
# from the CCDC's data processing and validation procedures.
#
#######################################################################

data_WUXHIG
_chemical_formula_moiety         'C12 H13 Cl2 N1 O1'
_chemical_name_systematic        
(1R,1'S)-2',2'-Dichloro-N-(1-phenylethyl)cyclopropane-1'-carboxamide
_symmetry_cell_setting           monoclinic
_symmetry_space_group_name_H-M   'P 21'
_symmetry_Int_Tables_number      4
_space_group_name_Hall           'P 2yb'
loop_
_symmetry_equiv_pos_site_id
_symmetry_equiv_pos_as_xyz
1 x,y,z
2 -x,1/2+y,-z
_cell_length_a                   9.4157(3)
_cell_length_b                   9.6893(3)
_cell_length_c                   13.9473(4)
_cell_angle_alpha                90
_cell_angle_beta                 92.910(10)
_cell_angle_gamma                90
_cell_volume                     1270.79
_exptl_crystal_colour            colorless
_exptl_crystal_description       plate
_chemical_melting_point          138-140deg.C
_cell_formula_units_Z            4
_exptl_crystal_recrystallization_method hexane/methanol
loop_
_atom_site_label
_atom_site_type_symbol
_atom_site_fract_x
_atom_site_fract_y
_atom_site_fract_z
Cl1 Cl 0.90658(5) 0.95555(5) 0.14039(3)
Cl2 Cl 1.19172(5) 0.92227(5) 0.07430(3)
O1 O 1.20002(13) 1.11590(14) -0.11012(9)
N1 N 0.99728(17) 1.03222(18) -0.18427(11)
C1 C 0.9813(2) 0.8907(2) -0.32829(13)
C2 C 1.0304(2) 0.7553(3) -0.31640(15)
C3 C 0.9560(3) 0.6457(3) -0.35890(17)
C4 C 0.8311(3) 0.6693(2) -0.41342(15)
C5 C 0.7810(3) 0.8027(2) -0.42590(16)
C6 C 0.8554(2) 0.9130(2) -0.38334(16)
C7 C 1.0610(2) 1.0077(2) -0.27739(14)
C8 C 1.0652(3) 1.1418(3) -0.33433(17)
C9 C 1.07273(19) 1.08525(18) -0.10888(12)
C10 C 0.98923(19) 1.10025(19) -0.02023(12)
C11 C 1.0532(2) 1.1791(2) 0.06502(14)
C12 C 1.03969(19) 1.02698(19) 0.07068(13)
H1 H 0.910(3) 1.019(3) -0.182(2)
H2 H 1.115(3) 0.740(3) -0.2738(17)
H3 H 0.998(3) 0.555(3) -0.3507(19)
H4 H 0.779(3) 0.599(3) -0.4421(18)
H5 H 0.693(3) 0.820(3) -0.4618(18)
H6 H 0.825(3) 1.004(3) -0.3950(19)
H7 H 1.149(3) 0.985(2) -0.2617(16)
H8 H 0.976(3) 1.179(3) -0.3482(16)
H9 H 1.112(3) 1.127(3) -0.393(2)
H10 H 1.113(3) 1.211(3) -0.2974(18)
H11 H 0.886(2) 1.100(2) -0.0321(14)
H12 H 1.142(2) 1.207(2) 0.0581(14)
H13 H 0.988(2) 1.230(2) 0.1018(15)
Cl3 Cl 0.63731(5) 0.19208(5) 0.10898(4)
Cl4 Cl 0.38863(5) 0.25411(5) 0.21764(4)
O2 O 0.30541(14) 0.56336(16) 0.15745(10)
N2 N 0.52478(17) 0.65041(16) 0.19571(11)
C13 C 0.42350(19) 0.72534(19) 0.34949(13)
C14 C 0.3144(2) 0.7995(2) 0.38976(15)
C15 C 0.2760(3) 0.7734(2) 0.48309(16)
C16 C 0.3458(2) 0.6720(3) 0.53688(15)
C17 C 0.4535(2) 0.5956(2) 0.49750(15)
C18 C 0.4919(2) 0.6218(2) 0.40382(14)
C19 C 0.46959(19) 0.7669(2) 0.25029(13)
C20 C 0.5837(2) 0.8802(2) 0.25918(15)
C21 C 0.43618(18) 0.5592(2) 0.15185(12)
C22 C 0.50897(19) 0.4506(2) 0.09521(12)
C23 C 0.4174(2) 0.3562(2) 0.03031(14)
C24 C 0.4880(2) 0.3009(2) 0.11986(13)
H14 H 0.610(3) 0.645(2) 0.1827(17)
H15 H 0.265(3) 0.864(3) 0.3481(18)
H16 H 0.195(3) 0.820(3) 0.5046(19)
H17 H 0.326(3) 0.657(3) 0.6006(18)
H18 H 0.503(3) 0.520(3) 0.5356(17)
H19 H 0.566(3) 0.568(3) 0.3773(17)
H20 H 0.382(2) 0.797(2) 0.2138(15)
H21 H 0.612(2) 0.905(2) 0.1949(14)
H22 H 0.538(3) 0.964(3) 0.2847(17)
H23 H 0.674(3) 0.842(3) 0.3017(19)
H24 H 0.599(2) 0.471(2) 0.0753(14)
H25 H 0.318(3) 0.366(2) 0.0299(17)
H26 H 0.451(2) 0.326(2) -0.0243(16)
loop_
_geom_bond_atom_site_label_1
_geom_bond_atom_site_label_2
_geom_bond_site_symmetry_1
_geom_bond_site_symmetry_2
Cl1 C12 1_555 1_555
Cl2 C12 1_555 1_555
Cl3 C24 1_555 1_555
Cl4 C24 1_555 1_555
O1 C9 1_555 1_555
O2 C21 1_555 1_555
N1 C7 1_555 1_555
N2 C19 1_555 1_555
C1 C2 1_555 1_555
C2 C3 1_555 1_555
C3 C4 1_555 1_555
C4 C5 1_555 1_555
C5 C6 1_555 1_555
C6 C1 1_555 1_555
C7 C1 1_555 1_555
C8 C7 1_555 1_555
C9 N1 1_555 1_555
C10 C9 1_555 1_555
C11 C10 1_555 1_555
C12 C10 1_555 1_555
C13 C14 1_555 1_555
C14 C15 1_555 1_555
C15 C16 1_555 1_555
C16 C17 1_555 1_555
C17 C18 1_555 1_555
C18 C13 1_555 1_555
C19 C13 1_555 1_555
C20 C19 1_555 1_555
C21 N2 1_555 1_555
C22 C21 1_555 1_555
C23 C22 1_555 1_555
C24 C22 1_555 1_555
H1 N1 1_555 1_555
H2 C2 1_555 1_555
H3 C3 1_555 1_555
H4 C4 1_555 1_555
H5 C5 1_555 1_555
H6 C6 1_555 1_555
H7 C7 1_555 1_555
H8 C8 1_555 1_555
H9 C8 1_555 1_555
H10 C8 1_555 1_555
H11 C10 1_555 1_555
H12 C11 1_555 1_555
H13 C11 1_555 1_555
H14 N2 1_555 1_555
H15 C14 1_555 1_555
H16 C15 1_555 1_555
H17 C16 1_555 1_555
H18 C17 1_555 1_555
H19 C18 1_555 1_555
H20 C19 1_555 1_555
H21 C20 1_555 1_555
H22 C20 1_555 1_555
H23 C20 1_555 1_555
H24 C22 1_555 1_555
H25 C23 1_555 1_555
H26 C23 1_555 1_555
C11 C12 1_555 1_555
C23 C24 1_555 1_555

#END
