
#######################################################################
#
#                 Cambridge Crystallographic Data Centre
#                                CCDC 
#
#######################################################################
#
# If this CIF has been generated from an entry in the Cambridge 
# Structural Database, then it will include bibliographic, chemical, 
# crystal, experimental, refinement or atomic coordinate data resulting 
# from the CCDC's data processing and validation procedures.
#
#######################################################################

data_WUXNUA
_chemical_name_common            cyclotetrabenzoin
_chemical_formula_moiety         'C32 H24 O8'
_chemical_name_systematic        
3,9,15,21-tetrahydroxypentacyclo[20.2.2.2^4,7^.2^10,13^.2^16,19^]dotriaconta-1(24),4,6,10,12,16,18,22,25,27,29,31-dodecaene-2,8,14,20-tetrone
_symmetry_cell_setting           tetragonal
_symmetry_space_group_name_H-M   'P -4 21 c'
_symmetry_Int_Tables_number      114
_space_group_name_Hall           'P -4 2n'
loop_
_symmetry_equiv_pos_site_id
_symmetry_equiv_pos_as_xyz
1 x,y,z
2 1/2+x,1/2-y,1/2-z
3 -x,-y,z
4 1/2-x,1/2+y,1/2-z
5 1/2-y,1/2-x,1/2+z
6 -y,x,-z
7 y,-x,-z
8 1/2+y,1/2+x,1/2+z
_cell_length_a                   14.507(3)
_cell_length_b                   14.507(3)
_cell_length_c                   5.8300(10)
_cell_angle_alpha                90
_cell_angle_beta                 90
_cell_angle_gamma                90
_cell_volume                     1226.94
_exptl_crystal_colour            colorless
_exptl_crystal_description       needle
_cell_formula_units_Z            2
_exptl_crystal_recrystallization_method 'dimethyl sulfoxide/methanol'
loop_
_atom_site_label
_atom_site_type_symbol
_atom_site_fract_x
_atom_site_fract_y
_atom_site_fract_z
O1 O 0.82163(13) 0.54592(14) 0.1126(4)
O2 O 0.90682(14) 0.43983(15) 0.4030(4)
H1 H 0.943(3) 0.425(3) 0.524(7)
C1 C 0.64905(18) 0.72573(18) 0.6290(5)
H2 H 0.6481 0.7558 0.7738
C2 C 0.71765(18) 0.61546(17) 0.3718(5)
C3 C 0.65241(19) 0.6385(2) 0.2065(5)
H3 H 0.6534 0.6088 0.0613
C4 C 0.82736(18) 0.48357(18) 0.4897(6)
H4 H 0.8430 0.5181 0.6330
C5 C 0.58524(18) 0.75004(18) 0.4618(5)
C6 C 0.71430(19) 0.65769(19) 0.5857(5)
H5 H 0.7566 0.6401 0.7022
C7 C 0.5859(2) 0.7046(2) 0.2527(5)
H6 H 0.5405 0.7188 0.1405
C8 C 0.79245(18) 0.54986(18) 0.3091(5)
O1E O 0.45408(14) 0.82163(13) 0.8874(4)
O2E O 0.56017(15) 0.90682(14) 0.5970(4)
H1E H 0.575(3) 0.943(3) 0.476(7)
C1E C 0.27427(18) 0.64905(18) 0.3710(5)
H2E H 0.2442 0.6481 0.2262
C2E C 0.38454(17) 0.71765(18) 0.6282(5)
C3E C 0.3615(2) 0.65241(19) 0.7935(5)
H3E H 0.3912 0.6534 0.9387
C4E C 0.51643(18) 0.82736(18) 0.5103(6)
H4E H 0.4819 0.8430 0.3670
C5E C 0.24996(18) 0.58524(18) 0.5382(5)
C6E C 0.34231(19) 0.71430(19) 0.4143(5)
H5E H 0.3599 0.7566 0.2978
C7E C 0.2954(2) 0.5859(2) 0.7473(5)
H6E H 0.2812 0.5405 0.8595
C8E C 0.45014(18) 0.79245(18) 0.6909(5)
O1F O 0.54592(14) 0.17837(13) 0.8874(4)
O2F O 0.43983(15) 0.09318(14) 0.5970(4)
H1F H 0.425(3) 0.057(3) 0.476(7)
C1F C 0.72573(18) 0.35095(18) 0.3710(5)
H2F H 0.7558 0.3519 0.2262
C2F C 0.61546(17) 0.28235(18) 0.6282(5)
C3F C 0.6385(2) 0.34759(19) 0.7935(5)
H3F H 0.6088 0.3466 0.9387
C4F C 0.48357(18) 0.17264(18) 0.5103(6)
H4F H 0.5181 0.1570 0.3670
C5F C 0.75004(18) 0.41476(18) 0.5382(5)
C6F C 0.65769(19) 0.28570(19) 0.4143(5)
H5F H 0.6401 0.2434 0.2978
C7F C 0.7046(2) 0.4141(2) 0.7473(5)
H6F H 0.7188 0.4595 0.8595
C8F C 0.54986(18) 0.20755(18) 0.6909(5)
O1B O 0.17837(13) 0.45408(14) 0.1126(4)
O2B O 0.09318(14) 0.56017(15) 0.4030(4)
H1B H 0.057(3) 0.575(3) 0.524(7)
C1B C 0.35095(18) 0.27427(18) 0.6290(5)
H2B H 0.3519 0.2442 0.7738
C2B C 0.28235(18) 0.38454(17) 0.3718(5)
C3B C 0.34759(19) 0.3615(2) 0.2065(5)
H3B H 0.3466 0.3912 0.0613
C4B C 0.17264(18) 0.51643(18) 0.4897(6)
H4B H 0.1570 0.4819 0.6330
C5B C 0.41476(18) 0.24996(18) 0.4618(5)
C6B C 0.28570(19) 0.34231(19) 0.5857(5)
H5B H 0.2434 0.3599 0.7022
C7B C 0.4141(2) 0.2954(2) 0.2527(5)
H6B H 0.4595 0.2812 0.1405
C8B C 0.20755(18) 0.45014(18) 0.3091(5)
loop_
_geom_bond_atom_site_label_1
_geom_bond_atom_site_label_2
_geom_bond_site_symmetry_1
_geom_bond_site_symmetry_2
O1 C8 1_555 1_555
O2 H1 1_555 1_555
C1 H2 1_555 1_555
C2 C3 1_555 1_555
C3 H3 1_555 1_555
C4 O2 1_555 1_555
H4 C4 1_555 1_555
C5 C1 1_555 1_555
C6 C1 1_555 1_555
H5 C6 1_555 1_555
C7 C3 1_555 1_555
H6 C7 1_555 1_555
C8 C2 1_555 1_555
O1E C8E 1_555 1_555
O2E H1E 1_555 1_555
C1E H2E 1_555 1_555
C2E C3E 1_555 1_555
C3E H3E 1_555 1_555
C4E C5 1_555 1_555
H4E C4E 1_555 1_555
C5E C1E 1_555 1_555
C6E C1E 1_555 1_555
H5E C6E 1_555 1_555
C7E C3E 1_555 1_555
H6E C7E 1_555 1_555
C8E C2E 1_555 1_555
O1F C8F 1_555 1_555
O2F H1F 1_555 1_555
C1F H2F 1_555 1_555
C2F C3F 1_555 1_555
C3F H3F 1_555 1_555
C4F O2F 1_555 1_555
H4F C4F 1_555 1_555
C5F C4 1_555 1_555
C6F C1F 1_555 1_555
H5F C6F 1_555 1_555
C7F C3F 1_555 1_555
H6F C7F 1_555 1_555
C8F C2F 1_555 1_555
O1B C8B 1_555 1_555
O2B H1B 1_555 1_555
C1B H2B 1_555 1_555
C2B C3B 1_555 1_555
C3B H3B 1_555 1_555
C4B C5E 1_555 1_555
H4B C4B 1_555 1_555
C5B C4F 1_555 1_555
C6B C1B 1_555 1_555
H5B C6B 1_555 1_555
C7B C3B 1_555 1_555
H6B C7B 1_555 1_555
C8B C2B 1_555 1_555
C2 C6 1_555 1_555
C4 C8 1_555 1_555
C5 C7 1_555 1_555
O2E C4E 1_555 1_555
C2E C6E 1_555 1_555
C4E C8E 1_555 1_555
C5E C7E 1_555 1_555
C1F C5F 1_555 1_555
C2F C6F 1_555 1_555
C4F C8F 1_555 1_555
C5F C7F 1_555 1_555
O2B C4B 1_555 1_555
C1B C5B 1_555 1_555
C2B C6B 1_555 1_555
C4B C8B 1_555 1_555
C5B C7B 1_555 1_555

#END
