
#######################################################################
#
#                 Cambridge Crystallographic Data Centre
#                                CCDC 
#
#######################################################################
#
# If this CIF has been generated from an entry in the Cambridge 
# Structural Database, then it will include bibliographic, chemical, 
# crystal, experimental, refinement or atomic coordinate data resulting 
# from the CCDC's data processing and validation procedures.
#
#######################################################################

data_WUXPEM
_chemical_formula_moiety         'C21 H27 N1 O1'
_chemical_name_systematic        cis-4-(dibenzylamino)-1-methylcyclohexanol
_symmetry_cell_setting           orthorhombic
_symmetry_space_group_name_H-M   'C c c 2'
_symmetry_Int_Tables_number      37
_space_group_name_Hall           'C 2 -2c'
loop_
_symmetry_equiv_pos_site_id
_symmetry_equiv_pos_as_xyz
1 x,y,z
2 -x,-y,z
3 -x,y,1/2+z
4 x,-y,1/2+z
5 1/2+x,1/2+y,z
6 1/2-x,1/2-y,z
7 1/2-x,1/2+y,1/2+z
8 1/2+x,1/2-y,1/2+z
_cell_length_a                   23.0565(17)
_cell_length_b                   27.3947(17)
_cell_length_c                   11.6346(9)
_cell_angle_alpha                90
_cell_angle_beta                 90
_cell_angle_gamma                90
_cell_volume                     7348.71
_exptl_crystal_colour            colorless
_exptl_crystal_description       'plate like'
_cell_formula_units_Z            16
loop_
_atom_site_label
_atom_site_type_symbol
_atom_site_fract_x
_atom_site_fract_y
_atom_site_fract_z
O1 O 0.72080(7) 0.20693(6) 0.64554(14)
H1 H 0.716(2) 0.2083(17) 0.7200(11)
N1 N 0.74884(7) 0.06948(6) 0.42172(16)
C1 C 0.70886(9) 0.10891(7) 0.45393(19)
H2 H 0.6715 0.1025 0.4129
C2 C 0.69586(9) 0.10640(8) 0.58174(19)
H3 H 0.7320 0.1121 0.6257
H4 H 0.6814 0.0734 0.6012
C3 C 0.65072(9) 0.14431(8) 0.6162(2)
H5 H 0.6134 0.1364 0.5784
H6 H 0.6446 0.1428 0.7003
C4 C 0.66865(10) 0.19572(8) 0.5833(2)
C5 C 0.68300(11) 0.19830(8) 0.4556(2)
H7 H 0.6977 0.2313 0.4372
H8 H 0.6471 0.1930 0.4106
C6 C 0.72826(10) 0.16043(7) 0.4197(2)
H9 H 0.7658 0.1680 0.4571
H10 H 0.7340 0.1619 0.3354
C7 C 0.62144(11) 0.23237(9) 0.6125(3)
H11 H 0.6118 0.2299 0.6943
H12 H 0.5868 0.2254 0.5665
H13 H 0.6352 0.2654 0.5955
C8 C 0.80960(9) 0.07960(8) 0.4491(2)
H14 H 0.8115 0.1004 0.5187
H15 H 0.8274 0.0980 0.3849
C9 C 0.84393(9) 0.03328(8) 0.4698(2)
C10 C 0.82797(10) 0.00198(9) 0.5572(2)
H16 H 0.7940 0.0087 0.6007
C11 C 0.86057(11) -0.03898(8) 0.5826(2)
H17 H 0.8488 -0.0602 0.6430
C12 C 0.90967(10) -0.04909(9) 0.5212(3)
H18 H 0.9328 -0.0767 0.5396
C13 C 0.92500(10) -0.01896(9) 0.4329(3)
H19 H 0.9584 -0.0263 0.3883
C14 C 0.89275(10) 0.02208(8) 0.4075(2)
H20 H 0.9044 0.0428 0.3462
C15 C 0.74266(9) 0.05391(8) 0.30223(19)
H21 H 0.7746 0.0312 0.2829
H22 H 0.7461 0.0827 0.2514
C16 C 0.68526(9) 0.02903(7) 0.27971(19)
C17 C 0.66357(9) -0.00428(8) 0.35728(19)
H23 H 0.6838 -0.0100 0.4272
C18 C 0.61315(10) -0.02934(8) 0.3351(2)
H24 H 0.5993 -0.0526 0.3890
C19 C 0.58259(10) -0.02095(8) 0.2356(2)
H25 H 0.5474 -0.0380 0.2211
C20 C 0.60341(10) 0.01221(8) 0.1577(2)
H26 H 0.5829 0.0180 0.0882
C21 C 0.65453(10) 0.03731(8) 0.18027(19)
H27 H 0.6685 0.0605 0.1262
O2 O 0.73480(6) 0.20041(5) -0.11882(13)
H29 H 0.7490(17) 0.2295(7) -0.108(3)
N2 N 0.92213(7) 0.24247(5) 0.02968(15)
C22 C 0.87764(8) 0.20465(7) 0.01035(18)
H30 H 0.8946 0.1731 0.0377
C23 C 0.82086(9) 0.21171(7) 0.07607(18)
H31 H 0.8024 0.2427 0.0518
H32 H 0.8291 0.2138 0.1594
C24 C 0.77939(9) 0.16915(7) 0.05318(18)
H33 H 0.7958 0.1392 0.0879
H34 H 0.7420 0.1759 0.0917
C25 C 0.76815(9) 0.15984(7) -0.07429(19)
C26 C 0.82510(9) 0.15545(7) -0.13895(19)
H35 H 0.8170 0.1534 -0.2224
H36 H 0.8447 0.1249 -0.1156
C27 C 0.86566(8) 0.19850(7) -0.11668(18)
H37 H 0.9027 0.1931 -0.1578
H38 H 0.8479 0.2287 -0.1471
C28 C 0.73129(10) 0.11425(7) -0.0891(2)
H39 H 0.6944 0.1185 -0.0484
H40 H 0.7520 0.0860 -0.0575
H41 H 0.7237 0.1089 -0.1710
C29 C 0.90218(9) 0.29278(7) 0.0116(2)
H42 H 0.8854 0.3054 0.0840
H43 H 0.8712 0.2928 -0.0473
C30 C 0.95045(9) 0.32629(7) -0.02656(18)
C31 C 0.95901(9) 0.37157(7) 0.0235(2)
H44 H 0.9358 0.3810 0.0873
C32 C 1.00065(10) 0.40331(7) -0.0177(2)
H45 H 1.0057 0.4342 0.0179
C33 C 1.03462(10) 0.39064(8) -0.1091(2)
H46 H 1.0626 0.4128 -0.1386
C34 C 1.02750(11) 0.34526(8) -0.1578(2)
H47 H 1.0515 0.3357 -0.2202
C35 C 0.98598(10) 0.31344(8) -0.11707(19)
H48 H 0.9818 0.2823 -0.1518
C36 C 0.95079(9) 0.23823(7) 0.14071(19)
H49 H 0.9214 0.2414 0.2023
H50 H 0.9787 0.2654 0.1493
C37 C 0.98247(9) 0.19048(7) 0.15552(19)
C38 C 0.97507(10) 0.16209(8) 0.2520(2)
H51 H 0.9484 0.1721 0.3096
C39 C 1.00597(11) 0.11921(8) 0.2664(2)
H52 H 1.0007 0.1003 0.3341
C40 C 1.04396(10) 0.10387(8) 0.1837(2)
H53 H 1.0652 0.0744 0.1936
C41 C 1.05117(10) 0.13153(8) 0.0859(2)
H54 H 1.0772 0.1210 0.0278
C42 C 1.02062(9) 0.17469(8) 0.0719(2)
H55 H 1.0260 0.1936 0.0042
H28? H 0.736(2) 0.2361(8) 0.635(4)
H56? H 0.7352(18) 0.1941(16) -0.1925(12)
loop_
_geom_bond_atom_site_label_1
_geom_bond_atom_site_label_2
_geom_bond_site_symmetry_1
_geom_bond_site_symmetry_2
O1 H1 1_555 1_555
N1 C1 1_555 1_555
C1 H2 1_555 1_555
C2 C1 1_555 1_555
H3 C2 1_555 1_555
H4 C2 1_555 1_555
C3 C2 1_555 1_555
H5 C3 1_555 1_555
H6 C3 1_555 1_555
C4 O1 1_555 1_555
C5 C4 1_555 1_555
H7 C5 1_555 1_555
H8 C5 1_555 1_555
C6 C1 1_555 1_555
H9 C6 1_555 1_555
H10 C6 1_555 1_555
C7 C4 1_555 1_555
H11 C7 1_555 1_555
H12 C7 1_555 1_555
H13 C7 1_555 1_555
C8 N1 1_555 1_555
H14 C8 1_555 1_555
H15 C8 1_555 1_555
C9 C8 1_555 1_555
C10 C9 1_555 1_555
H16 C10 1_555 1_555
C11 C10 1_555 1_555
H17 C11 1_555 1_555
C12 C11 1_555 1_555
H18 C12 1_555 1_555
C13 C12 1_555 1_555
H19 C13 1_555 1_555
C14 C9 1_555 1_555
H20 C14 1_555 1_555
C15 N1 1_555 1_555
H21 C15 1_555 1_555
H22 C15 1_555 1_555
C16 C15 1_555 1_555
C17 C16 1_555 1_555
H23 C17 1_555 1_555
C18 C17 1_555 1_555
H24 C18 1_555 1_555
C19 C18 1_555 1_555
H25 C19 1_555 1_555
C20 C19 1_555 1_555
H26 C20 1_555 1_555
C21 C16 1_555 1_555
H27 C21 1_555 1_555
O2 H29 1_555 1_555
N2 C22 1_555 1_555
C22 H30 1_555 1_555
C23 C22 1_555 1_555
H31 C23 1_555 1_555
H32 C23 1_555 1_555
C24 C23 1_555 1_555
H33 C24 1_555 1_555
H34 C24 1_555 1_555
C25 O2 1_555 1_555
C26 C25 1_555 1_555
H35 C26 1_555 1_555
H36 C26 1_555 1_555
C27 C22 1_555 1_555
H37 C27 1_555 1_555
H38 C27 1_555 1_555
C28 C25 1_555 1_555
H39 C28 1_555 1_555
H40 C28 1_555 1_555
H41 C28 1_555 1_555
C29 N2 1_555 1_555
H42 C29 1_555 1_555
H43 C29 1_555 1_555
C30 C29 1_555 1_555
C31 C30 1_555 1_555
H44 C31 1_555 1_555
C32 C31 1_555 1_555
H45 C32 1_555 1_555
C33 C32 1_555 1_555
H46 C33 1_555 1_555
C34 C33 1_555 1_555
H47 C34 1_555 1_555
C35 C30 1_555 1_555
H48 C35 1_555 1_555
C36 N2 1_555 1_555
H49 C36 1_555 1_555
H50 C36 1_555 1_555
C37 C36 1_555 1_555
C38 C37 1_555 1_555
H51 C38 1_555 1_555
C39 C38 1_555 1_555
H52 C39 1_555 1_555
C40 C39 1_555 1_555
H53 C40 1_555 1_555
C41 C40 1_555 1_555
H54 C41 1_555 1_555
C42 C37 1_555 1_555
H55 C42 1_555 1_555
C3 C4 1_555 1_555
C5 C6 1_555 1_555
C13 C14 1_555 1_555
C20 C21 1_555 1_555
C24 C25 1_555 1_555
C26 C27 1_555 1_555
C34 C35 1_555 1_555
C41 C42 1_555 1_555

#END
