
#######################################################################
#
#                 Cambridge Crystallographic Data Centre
#                                CCDC 
#
#######################################################################
#
# If this CIF has been generated from an entry in the Cambridge 
# Structural Database, then it will include bibliographic, chemical, 
# crystal, experimental, refinement or atomic coordinate data resulting 
# from the CCDC's data processing and validation procedures.
#
#######################################################################

data_WUXPAI
_chemical_formula_moiety         'C21 H27 N1 O1'
_chemical_name_systematic        trans-4-(dibenzylamino)-1-methylcyclohexanol
_symmetry_cell_setting           trigonal
_symmetry_space_group_name_H-M   'P -3'
_symmetry_Int_Tables_number      147
_space_group_name_Hall           '-P 3'
loop_
_symmetry_equiv_pos_site_id
_symmetry_equiv_pos_as_xyz
1 x,y,z
2 -y,x-y,z
3 -x+y,-x,z
4 -x,-y,-z
5 y,-x+y,-z
6 x-y,x,-z
_cell_length_a                   18.6953(4)
_cell_length_b                   18.6953(4)
_cell_length_c                   9.2303(2)
_cell_angle_alpha                90
_cell_angle_beta                 90
_cell_angle_gamma                120
_cell_volume                     2793.9
_exptl_crystal_colour            colorless
_exptl_crystal_description       block
_cell_formula_units_Z            6
loop_
_atom_site_label
_atom_site_type_symbol
_atom_site_fract_x
_atom_site_fract_y
_atom_site_fract_z
O1 O 0.89339(6) 0.05352(6) 0.96167(11)
N1 N 0.72839(7) 0.12146(7) 0.51261(12)
C1 C 0.75958(7) 0.10130(8) 0.64363(13)
H1 H 0.7210 0.0952 0.7238
C2 C 0.76034(8) 0.01969(8) 0.63695(15)
H2 H 0.7038 -0.0262 0.6173
H3 H 0.7964 0.0220 0.5564
C3 C 0.79146(8) 0.00321(8) 0.77876(15)
H4 H 0.7936 -0.0484 0.7694
H5 H 0.7520 -0.0048 0.8572
C4 C 0.87715(8) 0.07390(8) 0.81981(14)
C5 C 0.87531(8) 0.15472(8) 0.82728(14)
H6 H 0.8389 0.1515 0.9079
H7 H 0.9316 0.2008 0.8482
C6 C 0.84443(8) 0.17291(8) 0.68645(15)
H8 H 0.8844 0.1829 0.6079
H9 H 0.8409 0.2237 0.6986
C7 C 0.94357(9) 0.08125(9) 0.71549(16)
H10 H 0.9975 0.1263 0.7467
H11 H 0.9314 0.0928 0.6178
H12 H 0.9446 0.0293 0.7148
C8 C 0.77097(8) 0.12309(9) 0.37818(14)
H13 H 0.7481 0.0661 0.3408
H14 H 0.8305 0.1456 0.3981
C9 C 0.76044(8) 0.17581(10) 0.26549(16)
C10 C 0.78518(10) 0.25791(11) 0.29717(19)
H15 H 0.8095 0.2804 0.3885
C11 C 0.77462(12) 0.30692(13) 0.1969(2)
H16 H 0.7922 0.3630 0.2190
C12 C 0.73846(12) 0.27427(14) 0.0647(2)
H17 H 0.7308 0.3078 -0.0037
C13 C 0.71338(11) 0.19296(14) 0.03151(18)
H18 H 0.6886 0.1707 -0.0596
C14 C 0.72460(10) 0.14369(11) 0.13226(16)
H19 H 0.7076 0.0879 0.1093
C15 C 0.63903(8) 0.06827(9) 0.49272(15)
H20 H 0.6254 0.0098 0.4914
H21 H 0.6231 0.0806 0.3978
C16 C 0.58972(8) 0.07961(9) 0.61004(14)
C17 C 0.58904(9) 0.15347(10) 0.62015(16)
H22 H 0.6211 0.1971 0.5546
C18 C 0.54204(11) 0.16389(12) 0.72494(19)
H23 H 0.5418 0.2145 0.7305
C19 C 0.49550(10) 0.10114(13) 0.82128(18)
H24 H 0.4632 0.1084 0.8928
C20 C 0.49615(9) 0.02795(12) 0.81325(17)
H25 H 0.4643 -0.0153 0.8796
C21 C 0.54334(9) 0.01726(10) 0.70811(15)
H26 H 0.5438 -0.0333 0.7035
H27 H 0.9447(12) 0.0887(12) 0.983(2)
loop_
_geom_bond_atom_site_label_1
_geom_bond_atom_site_label_2
_geom_bond_site_symmetry_1
_geom_bond_site_symmetry_2
O1 C4 1_555 1_555
N1 C1 1_555 1_555
C1 H1 1_555 1_555
C2 C1 1_555 1_555
H2 C2 1_555 1_555
H3 C2 1_555 1_555
C3 C2 1_555 1_555
H4 C3 1_555 1_555
H5 C3 1_555 1_555
C4 C3 1_555 1_555
C5 C4 1_555 1_555
H6 C5 1_555 1_555
H7 C5 1_555 1_555
C6 C1 1_555 1_555
H8 C6 1_555 1_555
H9 C6 1_555 1_555
C7 C4 1_555 1_555
H10 C7 1_555 1_555
H11 C7 1_555 1_555
H12 C7 1_555 1_555
C8 N1 1_555 1_555
H13 C8 1_555 1_555
H14 C8 1_555 1_555
C9 C8 1_555 1_555
C10 C9 1_555 1_555
H15 C10 1_555 1_555
C11 C10 1_555 1_555
H16 C11 1_555 1_555
C12 C11 1_555 1_555
H17 C12 1_555 1_555
C13 C12 1_555 1_555
H18 C13 1_555 1_555
C14 C9 1_555 1_555
H19 C14 1_555 1_555
C15 N1 1_555 1_555
H20 C15 1_555 1_555
H21 C15 1_555 1_555
C16 C15 1_555 1_555
C17 C16 1_555 1_555
H22 C17 1_555 1_555
C18 C17 1_555 1_555
H23 C18 1_555 1_555
C19 C18 1_555 1_555
H24 C19 1_555 1_555
C20 C19 1_555 1_555
H25 C20 1_555 1_555
C21 C16 1_555 1_555
H26 C21 1_555 1_555
H27 O1 1_555 1_555
C5 C6 1_555 1_555
C13 C14 1_555 1_555
C20 C21 1_555 1_555

#END
