
#######################################################################
#
#                 Cambridge Crystallographic Data Centre
#                                CCDC 
#
#######################################################################
#
# If this CIF has been generated from an entry in the Cambridge 
# Structural Database, then it will include bibliographic, chemical, 
# crystal, experimental, refinement or atomic coordinate data resulting 
# from the CCDC's data processing and validation procedures.
#
#######################################################################

data_WUYMOU
_chemical_formula_moiety         'C22 H18 Cl1 N5 O2'
_chemical_name_systematic        
'ethyl 4-(4-chlorophenyl)-6-methyl-2-(4-phenyl-1H-1,2,3-triazol-1-yl)pyrimidine-5-carboxylate'
_symmetry_cell_setting           triclinic
_symmetry_space_group_name_H-M   'P -1'
_symmetry_Int_Tables_number      2
_space_group_name_Hall           '-P 1'
loop_
_symmetry_equiv_pos_site_id
_symmetry_equiv_pos_as_xyz
1 x,y,z
2 -x,-y,-z
_cell_length_a                   8.3497(3)
_cell_length_b                   15.3955(5)
_cell_length_c                   18.1325(6)
_cell_angle_alpha                66.512(3)
_cell_angle_beta                 86.024(3)
_cell_angle_gamma                74.660(3)
_cell_volume                     2059.88
_exptl_crystal_colour            'light yellow'
_exptl_crystal_description       needle
_cell_formula_units_Z            4
loop_
_atom_site_label
_atom_site_type_symbol
_atom_site_fract_x
_atom_site_fract_y
_atom_site_fract_z
Cl1 Cl 0.74016(8) 0.72840(4) 0.45421(3)
O1 O 0.7173(2) 1.01193(11) 0.61457(8)
N1 N 0.81969(19) 0.74322(10) 0.81360(8)
N2 N 0.8344(2) 0.68786(11) 0.95184(8)
O2 O 0.9746(3) 1.02109(15) 0.63015(11)
C1 C 0.8125(2) 0.78922(12) 0.67078(9)
N3 N 0.8892(2) 0.83899(12) 0.87658(9)
C2 C 0.7711(2) 0.74830(12) 0.53958(10)
C3 C 0.6921(2) 0.74264(13) 0.66927(10)
H1 H 0.6253 0.7248 0.7131
N4 N 0.8648(3) 0.69465(16) 1.02135(10)
C4 C 0.6702(2) 0.72232(14) 0.60343(11)
H2 H 0.5886 0.6917 0.6025
N5 N 0.8457(3) 0.61506(16) 1.07960(10)
C5 C 0.8317(2) 0.81253(12) 0.74097(10)
C6 C 0.9155(2) 0.81174(14) 0.60619(11)
H3 H 0.9991 0.8409 0.6074
C7 C 0.8972(3) 0.90950(14) 0.80424(11)
C8 C 0.9389(4) 0.99831(17) 0.80520(14)
H4 H 0.9141 1.0019 0.8565
H5 H 0.8742 1.0562 0.7636
H6 H 1.0550 0.9934 0.7960
C9 C 0.8655(2) 0.90009(13) 0.73348(10)
C10 C 0.8957(3) 0.79156(14) 0.54011(11)
H7 H 0.9650 0.8068 0.4970
C11 C 0.7949(2) 0.60270(13) 0.96761(10)
H8 H 0.7681 0.5805 0.9304
C12 C 0.8483(2) 0.76204(13) 0.87563(10)
C13 C 0.8024(2) 0.55627(13) 1.04902(10)
C14 C 0.7715(2) 0.46165(13) 1.10155(10)
C15 C 0.8619(3) 0.98357(14) 0.65359(12)
C16 C 0.7214(3) 0.40411(15) 1.06987(12)
H9 H 0.7068 0.4258 1.0144
C17 C 0.7902(3) 0.42819(15) 1.18469(11)
H10 H 0.8236 0.4657 1.2072
C18 C 0.7118(3) 0.28280(16) 1.20177(13)
H11 H 0.6922 0.2230 1.2353
C19 C 0.6929(4) 0.31467(17) 1.11986(14)
H12 H 0.6611 0.2763 1.0979
C20 C 0.7596(3) 0.33931(16) 1.23420(12)
H13 H 0.7714 0.3178 1.2898
C21 C 0.6968(6) 1.0672(3) 0.47213(17)
H14 H 0.6725 1.1248 0.4230
H15 H 0.6159 1.0309 0.4782
H16 H 0.8056 1.0270 0.4705
C22 C 0.6919(6) 1.0942(2) 0.53637(17)
H17 H 0.5849 1.1394 0.5347
H18 H 0.7768 1.1286 0.5307
Cl2 Cl 0.43629(10) -0.08602(4) 0.85094(5)
O3 O 0.79287(15) 0.22626(9) 0.89135(7)
N6 N 0.44265(17) 0.38245(10) 0.68707(8)
N7 N 0.37750(17) 0.53683(10) 0.58603(8)
O4 O 0.5920(2) 0.29966(13) 0.95071(8)
N8 N 0.52467(18) 0.51260(10) 0.70056(8)
N9 N 0.3725(2) 0.63326(11) 0.55222(10)
C23 C 0.45413(19) 0.47334(11) 0.66326(9)
C24 C 0.50716(19) 0.32078(12) 0.76112(9)
N10 N 0.2925(2) 0.66953(12) 0.48301(10)
C25 C 0.4925(2) 0.21902(12) 0.78612(10)
C26 C 0.6529(2) 0.29044(13) 0.89178(10)
C27 C 0.5808(2) 0.35400(12) 0.80793(9)
C28 C 0.8806(2) 0.16485(15) 0.96891(10)
H19 H 0.8238 0.1153 1.0006
H20 H 0.8855 0.2043 0.9987
C29 C 0.2987(2) 0.51320(12) 0.53705(9)
H21 H 0.2847 0.4518 0.5462
C30 C 0.4626(2) 0.16209(15) 0.86442(11)
H22 H 0.4538 0.1870 0.9040
C31 C 0.5899(2) 0.45125(13) 0.77448(10)
C32 C 0.1484(2) 0.61637(13) 0.39921(9)
C33 C 0.2442(2) 0.59772(12) 0.47158(10)
C34 C 0.4455(3) 0.06859(15) 0.88422(12)
H23 H 0.4260 0.0307 0.9369
C35 C 0.0944(3) 0.71110(16) 0.34103(11)
H24 H 0.1214 0.7630 0.3468
C36 C 0.1074(3) 0.54049(16) 0.38927(12)
H25 H 0.1425 0.4769 0.4279
C37 C 0.6738(3) 0.49291(16) 0.81812(12)
H26 H 0.7167 0.5447 0.7798
H27 H 0.7635 0.4423 0.8522
H28 H 0.5950 0.5184 0.8503
C38 C 1.0503(3) 0.11807(15) 0.95220(12)
H29 H 1.1059 0.1678 0.9217
H30 H 1.0436 0.0802 0.9220
H31 H 1.1116 0.0759 1.0021
C39 C 0.0139(3) 0.5587(2) 0.32174(14)
H32 H -0.0131 0.5072 0.3153
C40 C 0.4577(3) 0.03194(14) 0.82561(14)
C41 C 0.5028(3) 0.18066(14) 0.72777(11)
H33 H 0.5217 0.2184 0.6749
C42 C 0.0003(3) 0.7279(2) 0.27442(12)
H34 H -0.0368 0.7915 0.2360
C43 C -0.0390(3) 0.6523(2) 0.26445(12)
H35 H -0.1011 0.6642 0.2192
C44 C 0.4855(3) 0.08729(15) 0.74714(14)
H36 H 0.4925 0.0622 0.7077
loop_
_geom_bond_atom_site_label_1
_geom_bond_atom_site_label_2
_geom_bond_site_symmetry_1
_geom_bond_site_symmetry_2
Cl1 C2 1_555 1_555
O1 C15 1_555 1_555
N1 C5 1_555 1_555
N2 N4 1_555 1_555
O2 C15 1_555 1_555
C1 C3 1_555 1_555
N3 C7 1_555 1_555
C2 C4 1_555 1_555
C3 H1 1_555 1_555
N4 N5 1_555 1_555
C4 C3 1_555 1_555
H2 C4 1_555 1_555
N5 C13 1_555 1_555
C5 C1 1_555 1_555
C6 C1 1_555 1_555
H3 C6 1_555 1_555
C7 C8 1_555 1_555
C8 H4 1_555 1_555
H5 C8 1_555 1_555
H6 C8 1_555 1_555
C9 C5 1_555 1_555
C10 C2 1_555 1_555
H7 C10 1_555 1_555
C11 N2 1_555 1_555
H8 C11 1_555 1_555
C12 N1 1_555 1_555
C13 C11 1_555 1_555
C14 C13 1_555 1_555
C15 C9 1_555 1_555
C16 C14 1_555 1_555
H9 C16 1_555 1_555
C17 C14 1_555 1_555
H10 C17 1_555 1_555
C18 H11 1_555 1_555
C19 C16 1_555 1_555
H12 C19 1_555 1_555
C20 C17 1_555 1_555
H13 C20 1_555 1_555
C21 H14 1_555 1_555
H15 C21 1_555 1_555
H16 C21 1_555 1_555
C22 O1 1_555 1_555
H17 C22 1_555 1_555
H18 C22 1_555 1_555
Cl2 C40 1_555 1_555
O3 C26 1_555 1_555
N6 C23 1_555 1_555
N7 N9 1_555 1_555
O4 C26 1_555 1_555
N8 C23 1_555 1_555
N9 N10 1_555 1_555
C23 N7 1_555 1_555
C24 N6 1_555 1_555
N10 C33 1_555 1_555
C25 C24 1_555 1_555
C26 C27 1_555 1_555
C27 C24 1_555 1_555
C28 O3 1_555 1_555
H19 C28 1_555 1_555
H20 C28 1_555 1_555
C29 N7 1_555 1_555
H21 C29 1_555 1_555
C30 C25 1_555 1_555
H22 C30 1_555 1_555
C31 N8 1_555 1_555
C32 C33 1_555 1_555
C33 C29 1_555 1_555
C34 C30 1_555 1_555
H23 C34 1_555 1_555
C35 C32 1_555 1_555
H24 C35 1_555 1_555
C36 C32 1_555 1_555
H25 C36 1_555 1_555
C37 C31 1_555 1_555
H26 C37 1_555 1_555
H27 C37 1_555 1_555
H28 C37 1_555 1_555
C38 C28 1_555 1_555
H29 C38 1_555 1_555
H30 C38 1_555 1_555
H31 C38 1_555 1_555
C39 C36 1_555 1_555
H32 C39 1_555 1_555
C40 C34 1_555 1_555
C41 C25 1_555 1_555
H33 C41 1_555 1_555
C42 C35 1_555 1_555
H34 C42 1_555 1_555
C43 C39 1_555 1_555
H35 C43 1_555 1_555
C44 C40 1_555 1_555
H36 C44 1_555 1_555
N2 C12 1_555 1_555
N3 C12 1_555 1_555
C6 C10 1_555 1_555
C7 C9 1_555 1_555
C18 C19 1_555 1_555
C18 C20 1_555 1_555
C21 C22 1_555 1_555
C27 C31 1_555 1_555
C41 C44 1_555 1_555
C42 C43 1_555 1_555

#END
