
#######################################################################
#
#                 Cambridge Crystallographic Data Centre
#                                CCDC 
#
#######################################################################
#
# If this CIF has been generated from an entry in the Cambridge 
# Structural Database, then it will include bibliographic, chemical, 
# crystal, experimental, refinement or atomic coordinate data resulting 
# from the CCDC's data processing and validation procedures.
#
#######################################################################

data_WUYPEN
_chemical_formula_moiety         'C22 H24 O8'
_chemical_name_systematic        
'2,4-bis(3,4-dimethoxyphenyl)cyclobutane-1,3-dicarboxylic acid'
_symmetry_cell_setting           triclinic
_symmetry_space_group_name_H-M   'P -1'
_symmetry_Int_Tables_number      2
_space_group_name_Hall           '-P 1'
loop_
_symmetry_equiv_pos_site_id
_symmetry_equiv_pos_as_xyz
1 x,y,z
2 -x,-y,-z
_cell_length_a                   5.540(4)
_cell_length_b                   8.259(5)
_cell_length_c                   11.281(9)
_cell_angle_alpha                83.61(2)
_cell_angle_beta                 83.275(17)
_cell_angle_gamma                74.48(2)
_cell_volume                     492.191
_exptl_crystal_colour            colorless
_exptl_crystal_description       Block
_cell_formula_units_Z            1
loop_
_atom_site_label
_atom_site_type_symbol
_atom_site_fract_x
_atom_site_fract_y
_atom_site_fract_z
H1 H 0.759(3) 0.374(2) 0.0836(14)
H2 H 0.825(3) 0.782(2) 0.5408(16)
H3 H 0.224(3) 0.4546(19) 0.0902(14)
H4 H 0.036(3) 1.009(2) 0.2051(17)
H5 H -0.144(3) 0.891(2) 0.2614(16)
H6 H 0.609(4) 0.846(3) 0.6465(18)
H7 H -0.165(4) 1.063(3) 0.3173(17)
H8 H 0.696(4) 0.653(3) 0.6233(17)
H9 H 0.286(4) 0.075(3) -0.021(2)
O1 O 0.47177(19) 0.80110(13) 0.51000(9)
O2 O 0.23261(18) 0.19183(12) -0.00392(9)
O3 O 0.12453(18) 0.89258(12) 0.36437(9)
O4 O 0.62600(19) 0.12875(11) 0.05079(9)
C1 C 0.3514(2) 0.68452(15) 0.22538(11)
H10 H 0.2260 0.7179 0.1730
C2 C 0.3240(2) 0.76410(15) 0.33033(11)
C3 C 0.5671(2) 0.55385(15) 0.19737(10)
C4 C 0.6059(2) 0.47094(15) 0.08196(11)
C5 C 0.7217(3) 0.58229(18) 0.38445(12)
H11 H 0.8453 0.5466 0.4376
C6 C 0.7485(2) 0.50341(16) 0.27819(11)
H12 H 0.8901 0.4159 0.2617
C7 C 0.5128(2) 0.71296(16) 0.41090(11)
C8 C 0.4278(2) 0.23154(15) 0.03121(11)
C9 C 0.3821(2) 0.41733(15) 0.04162(11)
C10 C -0.0503(3) 0.96866(19) 0.27797(14)
C11 C 0.6722(3) 0.7635(2) 0.58623(13)
H1A H 0.241(3) 0.626(2) -0.0836(14)
H2A H 0.175(3) 0.218(2) -0.5408(16)
H3A H 0.776(3) 0.5454(19) -0.0902(14)
H4A H 0.964(3) -0.009(2) -0.2051(17)
H5A H 1.144(3) 0.109(2) -0.2614(16)
H6A H 0.391(4) 0.154(3) -0.6465(18)
H7A H 1.165(4) -0.063(3) -0.3173(17)
H8A H 0.304(4) 0.347(3) -0.6233(17)
H9A H 0.714(4) 0.925(3) 0.021(2)
O1A O 0.52823(19) 0.19890(13) -0.51000(9)
O2A O 0.76739(18) 0.80817(12) 0.00392(9)
O3A O 0.87547(18) 0.10742(12) -0.36437(9)
O4A O 0.37400(19) 0.87125(11) -0.05079(9)
C1A C 0.6486(2) 0.31548(15) -0.22538(11)
H10A H 0.7740 0.2821 -0.1730
C2A C 0.6760(2) 0.23590(15) -0.33033(11)
C3A C 0.4329(2) 0.44615(15) -0.19737(10)
C4A C 0.3941(2) 0.52906(15) -0.08196(11)
C5A C 0.2783(3) 0.41771(18) -0.38445(12)
H11A H 0.1547 0.4534 -0.4376
C6A C 0.2515(2) 0.49659(16) -0.27819(11)
H12A H 0.1099 0.5841 -0.2617
C7A C 0.4872(2) 0.28704(16) -0.41090(11)
C8A C 0.5722(2) 0.76846(15) -0.03121(11)
C9A C 0.6179(2) 0.58267(15) -0.04162(11)
C10A C 1.0503(3) 0.03134(19) -0.27797(14)
C11A C 0.3278(3) 0.2365(2) -0.58623(13)
loop_
_geom_bond_atom_site_label_1
_geom_bond_atom_site_label_2
_geom_bond_site_symmetry_1
_geom_bond_site_symmetry_2
H1 C4 1_555 1_555
H2 C11 1_555 1_555
H3 C9 1_555 1_555
H4 C10 1_555 1_555
H5 C10 1_555 1_555
H6 C11 1_555 1_555
H7 C10 1_555 1_555
H8 C11 1_555 1_555
H9 O2 1_555 1_555
O1 C7 1_555 1_555
O2 C8 1_555 1_555
O3 C2 1_555 1_555
O4 C8 1_555 1_555
C1 H10 1_555 1_555
C2 C1 1_555 1_555
C3 C1 1_555 1_555
C4 C3 1_555 1_555
C5 H11 1_555 1_555
C6 C3 1_555 1_555
H12 C6 1_555 1_555
C7 C2 1_555 1_555
C8 C9 1_555 1_555
C9 C4 1_555 1_555
C10 O3 1_555 1_555
C11 O1 1_555 1_555
H1A C4A 1_555 1_555
H2A C11A 1_555 1_555
H3A C9A 1_555 1_555
H4A C10A 1_555 1_555
H5A C10A 1_555 1_555
H6A C11A 1_555 1_555
H7A C10A 1_555 1_555
H8A C11A 1_555 1_555
H9A O2A 1_555 1_555
O1A C7A 1_555 1_555
O2A C8A 1_555 1_555
O3A C2A 1_555 1_555
O4A C8A 1_555 1_555
C1A H10A 1_555 1_555
C2A C1A 1_555 1_555
C3A C1A 1_555 1_555
C4A C9 1_555 1_555
C5A H11A 1_555 1_555
C6A C3A 1_555 1_555
H12A C6A 1_555 1_555
C7A C2A 1_555 1_555
C8A C9A 1_555 1_555
C9A C4 1_555 1_555
C10A O3A 1_555 1_555
C11A O1A 1_555 1_555
C5 C6 1_555 1_555
C5 C7 1_555 1_555
C3A C4A 1_555 1_555
C4A C9A 1_555 1_555
C5A C6A 1_555 1_555
C5A C7A 1_555 1_555

#END
