
#######################################################################
#
#                 Cambridge Crystallographic Data Centre
#                                CCDC 
#
#######################################################################
#
# If this CIF has been generated from an entry in the Cambridge 
# Structural Database, then it will include bibliographic, chemical, 
# crystal, experimental, refinement or atomic coordinate data resulting 
# from the CCDC's data processing and validation procedures.
#
#######################################################################

data_WUZDEA
_chemical_formula_moiety         'C18 H20 N4 O4,0.5(C6 H6)'
_chemical_name_systematic        
"N-(2,4-Dinitrophenyl)-N'-((3aR*,4S*,8R*,8aS*)-8-methyl-3a,4,6,7,8,8a-hexahydro-3H-4,8-methanoazulen-5-ylidene)hydrazine benzene solvate"
_symmetry_cell_setting           triclinic
_symmetry_space_group_name_H-M   'P -1'
_symmetry_Int_Tables_number      2
_space_group_name_Hall           '-P 1'
loop_
_symmetry_equiv_pos_site_id
_symmetry_equiv_pos_as_xyz
1 x,y,z
2 -x,-y,-z
_cell_length_a                   7.017(2)
_cell_length_b                   10.987(4)
_cell_length_c                   12.948(4)
_cell_angle_alpha                93.988(7)
_cell_angle_beta                 104.824(6)
_cell_angle_gamma                93.071(6)
_cell_volume                     960.035
_exptl_crystal_colour            orange
_exptl_crystal_description       plate
_cell_formula_units_Z            2
_exptl_crystal_recrystallization_method benzene/1,2-dichloroethane
loop_
_atom_site_label
_atom_site_type_symbol
_atom_site_fract_x
_atom_site_fract_y
_atom_site_fract_z
O1 O 0.0428(3) 0.21438(19) 0.42989(15)
O2 O 0.0947(3) 0.2004(2) 0.27182(17)
O3 O 0.6775(3) 0.3609(2) 0.19999(16)
O4 O 0.9134(3) 0.45500(19) 0.32744(14)
N1 N 0.4217(3) 0.3228(2) 0.70484(18)
N2 N 0.3284(3) 0.3001(2) 0.59648(18)
H1 H 0.2033 0.2725 0.5760
N3 N 0.1501(4) 0.2311(2) 0.3683(2)
N4 N 0.7513(4) 0.3965(2) 0.2944(2)
C1 C 0.2332(5) 0.1673(3) 0.9673(3)
C2 C 0.1542(6) 0.0499(4) 0.9081(3)
H2 H 0.0285 0.0122 0.9071
C3 C 0.2756(6) 0.0008(4) 0.8558(3)
H3 H 0.2466 -0.0752 0.8132
C4 C 0.4633(5) 0.0796(3) 0.8720(3)
H4 H 0.4830 0.1020 0.8025
H5 H 0.5787 0.0372 0.9097
C8 C 0.4348(5) 0.1912(3) 0.9395(3)
C9 C 0.4205(4) 0.3148(3) 0.8871(2)
H10 H 0.5535 0.3596 0.8998
C10 C 0.2899(4) 0.3811(3) 0.9483(2)
H11 H 0.3623 0.4042 1.0240
H12 H 0.2411 0.4553 0.9141
C11 C 0.1198(4) 0.2839(3) 0.9398(2)
C12 C -0.0046(5) 0.3134(3) 1.0172(2)
H13 H -0.0791 0.3844 0.9954
H14 H 0.0819 0.3319 1.0897
H15 H -0.0968 0.2429 1.0163
C13 C -0.0070(4) 0.2750(3) 0.8246(2)
H16 H -0.0701 0.3530 0.8119
H17 H -0.1138 0.2096 0.8161
C14 C 0.1029(4) 0.2486(3) 0.7384(2)
H18 H 0.0970 0.1590 0.7216
H19 H 0.0340 0.2847 0.6723
C15 C 0.3160(4) 0.2978(3) 0.7702(2)
C16 C 0.4282(4) 0.3201(3) 0.5226(2)
C17 C 0.6244(4) 0.3738(3) 0.5545(2)
H20 H 0.6852 0.3934 0.6286
C18 C 0.7278(4) 0.3981(3) 0.4824(2)
H21 H 0.8592 0.4344 0.5061
C19 C 0.6405(4) 0.3693(3) 0.3726(2)
C20 C 0.4531(4) 0.3155(3) 0.3375(2)
H22 H 0.3958 0.2947 0.2632
C21 C 0.3470(4) 0.2914(3) 0.4114(2)
C22 C 0.6031(6) 1.0181(3) 0.6058(3)
H23 H 0.6747 1.0306 0.6791
C23 C 0.4045(6) 0.9797(3) 0.5784(3)
H24 H 0.3393 0.9660 0.6329
C24 C 0.6975(5) 1.0384(3) 0.5264(4)
H25 H 0.8339 1.0650 0.5452
C24A C 0.3025(5) 0.9616(3) 0.4736(4)
C22A C 0.3969(6) 0.9819(3) 0.3942(3)
H23A H 0.3253 0.9694 0.3209
C23A C 0.5955(6) 1.0203(3) 0.4216(3)
H24A H 0.6607 1.0340 0.3671
H25A H 0.1661 0.9350 0.4548
C5? C 0.259(3) 0.1443(15) 1.0611(14)
H6? H 0.1598 0.1299 1.0980
C6? C 0.445(4) 0.144(3) 1.099(2)
H7? H 0.5047 0.1230 1.1691
C7? C 0.565(2) 0.1793(15) 1.0215(12)
H8? H 0.6468 0.2569 1.0479
H9? H 0.6511 0.1143 1.0096
loop_
_geom_bond_atom_site_label_1
_geom_bond_atom_site_label_2
_geom_bond_site_symmetry_1
_geom_bond_site_symmetry_2
O1 N3 1_555 1_555
O2 N3 1_555 1_555
O3 N4 1_555 1_555
O4 N4 1_555 1_555
N1 N2 1_555 1_555
N2 H1 1_555 1_555
N3 C21 1_555 1_555
N4 C19 1_555 1_555
C1 C2 1_555 1_555
C2 H2 1_555 1_555
C3 C2 1_555 1_555
H3 C3 1_555 1_555
C4 C3 1_555 1_555
H4 C4 1_555 1_555
H5 C4 1_555 1_555
C8 C1 1_555 1_555
C9 C8 1_555 1_555
H10 C9 1_555 1_555
C10 C9 1_555 1_555
H11 C10 1_555 1_555
H12 C10 1_555 1_555
C11 C1 1_555 1_555
C12 C11 1_555 1_555
H13 C12 1_555 1_555
H14 C12 1_555 1_555
H15 C12 1_555 1_555
C13 C11 1_555 1_555
H16 C13 1_555 1_555
H17 C13 1_555 1_555
C14 C13 1_555 1_555
H18 C14 1_555 1_555
H19 C14 1_555 1_555
C15 N1 1_555 1_555
C16 N2 1_555 1_555
C17 C16 1_555 1_555
H20 C17 1_555 1_555
C18 C17 1_555 1_555
H21 C18 1_555 1_555
C19 C18 1_555 1_555
C20 C19 1_555 1_555
H22 C20 1_555 1_555
C21 C16 1_555 1_555
C22 H23 1_555 1_555
C23 C22 1_555 1_555
H24 C23 1_555 1_555
C24 C22 1_555 1_555
H25 C24 1_555 1_555
C24A C23 1_555 1_555
C22A C24A 1_555 1_555
H23A C22A 1_555 1_555
C23A C24 1_555 1_555
H24A C23A 1_555 1_555
H25A C24A 1_555 1_555
C4 C8 1_555 1_555
C9 C15 1_555 1_555
C10 C11 1_555 1_555
C14 C15 1_555 1_555
C20 C21 1_555 1_555
C22A C23A 1_555 1_555

#END
