
#######################################################################
#
#                 Cambridge Crystallographic Data Centre
#                                CCDC 
#
#######################################################################
#
# If this CIF has been generated from an entry in the Cambridge 
# Structural Database, then it will include bibliographic, chemical, 
# crystal, experimental, refinement or atomic coordinate data resulting 
# from the CCDC's data processing and validation procedures.
#
#######################################################################

data_WUZJIM
_chemical_formula_moiety         
'C1 B12 Cl11 F3 O2 S1 2-,2(C19 H18 P1 1+),C3 H6 O1'
_chemical_name_systematic        
'bis(methyl(triphenyl)phosphonium) 1-(trifluoromethanesulfinato)-2,3,4,5,6,7,8,9,10,11,12-undecachloro-closo-dodecaborate acetone solvate'
_symmetry_cell_setting           monoclinic
_symmetry_space_group_name_H-M   'P 21/c'
_symmetry_Int_Tables_number      14
_space_group_name_Hall           '-P 2ybc'
loop_
_symmetry_equiv_pos_site_id
_symmetry_equiv_pos_as_xyz
1 x,y,z
2 -x,1/2+y,1/2-z
3 -x,-y,-z
4 x,1/2-y,1/2+z
_cell_length_a                   22.3739(9)
_cell_length_b                   14.4856(5)
_cell_length_c                   18.5296(8)
_cell_angle_alpha                90
_cell_angle_beta                 108.580(5)
_cell_angle_gamma                90
_cell_volume                     5692.43
_exptl_crystal_colour            colorless
_exptl_crystal_description       plate
_cell_formula_units_Z            4
loop_
_atom_site_label
_atom_site_type_symbol
_atom_site_fract_x
_atom_site_fract_y
_atom_site_fract_z
Cl1 Cl 0.11460(5) 0.48533(7) 0.05134(6)
Cl2 Cl 0.20001(5) 0.70518(6) 0.05054(5)
Cl3 Cl 0.36349(4) 0.67363(6) 0.17211(6)
Cl4 Cl 0.38035(4) 0.43577(6) 0.24352(6)
Cl5 Cl 0.22821(4) 0.32361(5) 0.16165(5)
Cl6 Cl 0.11619(4) 0.44234(6) 0.24482(6)
Cl7 Cl 0.09890(4) 0.67940(6) 0.17122(7)
Cl8 Cl 0.25218(4) 0.79311(6) 0.24642(6)
Cl9 Cl 0.36468(5) 0.62418(7) 0.36485(6)
Cl10 Cl 0.27952(5) 0.40709(7) 0.36258(5)
Cl11 Cl 0.20096(5) 0.63041(7) 0.36614(6)
S1 S 0.24345(6) 0.48406(8) -0.01492(7)
F1 F 0.35929(14) 0.4954(3) -0.02460(19)
F2 F 0.3140(2) 0.6241(3) -0.0284(3)
F3 F 0.28591(13) 0.5321(3) -0.12203(17)
O1 O 0.28200(14) 0.49221(19) 0.06977(16)
O2 O 0.24728(18) 0.3867(2) -0.03732(19)
C1 C 0.3050(2) 0.5373(4) -0.0501(3)
B1 B 0.25866(18) 0.5230(3) 0.1299(2)
B2 B 0.21986(18) 0.6300(3) 0.1313(2)
B3 B 0.29993(17) 0.6142(3) 0.1898(2)
B4 B 0.30780(17) 0.4985(3) 0.2247(2)
B5 B 0.23351(17) 0.4433(2) 0.1877(2)
B6 B 0.17902(18) 0.5237(3) 0.1307(2)
B7 B 0.17111(17) 0.6164(3) 0.1898(2)
B8 B 0.24569(17) 0.6720(3) 0.2266(2)
B9 B 0.29996(17) 0.5906(3) 0.2837(2)
B10 B 0.25906(17) 0.4842(3) 0.2830(2)
B11 B 0.17960(16) 0.5008(3) 0.2253(2)
B12 B 0.22073(18) 0.5925(3) 0.2844(2)
P1 P -0.10217(4) 0.66252(6) 0.21894(5)
C2 C -0.18093(16) 0.6841(3) 0.2172(2)
H1 H -0.1905 0.6459 0.2557
H2 H -0.2101 0.6689 0.1668
H3 H -0.1855 0.7495 0.2281
C3 C -0.04886(15) 0.6737(2) 0.3139(2)
C4 C 0.00730(16) 0.6232(2) 0.3361(2)
H4 H 0.0168 0.5823 0.3012
C5 C 0.04883(17) 0.6329(3) 0.4090(2)
H5 H 0.0868 0.5982 0.4243
C6 C 0.03532(18) 0.6927(3) 0.4595(2)
H6 H 0.0640 0.6988 0.5096
C7 C -0.01973(18) 0.7440(3) 0.4377(2)
H7 H -0.0285 0.7856 0.4725
C8 C -0.06190(17) 0.7345(2) 0.3651(2)
H8 H -0.0998 0.7694 0.3502
C9 C -0.08265(16) 0.7455(2) 0.1582(2)
C10 C -0.02828(16) 0.7979(2) 0.1840(2)
H9 H 0.0010 0.7871 0.2331
C11 C -0.01677(19) 0.8659(3) 0.1380(2)
H10 H 0.0205 0.9021 0.1555
C12 C -0.0590(2) 0.8813(3) 0.0670(3)
H11 H -0.0511 0.9288 0.0360
C13 C -0.1126(2) 0.8289(3) 0.0404(3)
H12 H -0.1412 0.8398 -0.0091
C14 C -0.12513(19) 0.7603(3) 0.0856(2)
H13 H -0.1622 0.7237 0.0673
C15 C -0.09696(15) 0.5477(2) 0.18653(19)
C16 C -0.13468(17) 0.4793(2) 0.2018(2)
H14 H -0.1635 0.4937 0.2284
C17 C -0.12984(19) 0.3897(3) 0.1778(2)
H15 H -0.1558 0.3425 0.1875
C18 C -0.08789(18) 0.3691(3) 0.1403(2)
H16 H -0.0853 0.3077 0.1234
C19 C -0.04925(18) 0.4369(3) 0.1267(2)
H17 H -0.0194 0.4216 0.1018
C20 C -0.05387(16) 0.5265(2) 0.1492(2)
H18 H -0.0278 0.5733 0.1393
P2 P 0.57553(4) 0.64374(6) 0.20907(5)
C21 C 0.64950(17) 0.6730(3) 0.1971(2)
H19 H 0.6829 0.6351 0.2313
H20 H 0.6586 0.7384 0.2093
H21 H 0.6475 0.6615 0.1443
C22 C 0.55431(16) 0.5283(2) 0.17664(19)
C23 C 0.49128(17) 0.5042(2) 0.1416(2)
H22 H 0.4592 0.5498 0.1331
C24 C 0.47551(18) 0.4137(2) 0.1193(2)
H23 H 0.4327 0.3970 0.0954
C25 C 0.5222(2) 0.3482(3) 0.1320(2)
H24 H 0.5115 0.2864 0.1160
C26 C 0.58426(19) 0.3710(3) 0.1674(2)
H25 H 0.6159 0.3248 0.1765
C27 C 0.60065(17) 0.4608(2) 0.1898(2)
H26 H 0.6436 0.4764 0.2143
C28 C 0.58134(15) 0.6502(2) 0.3077(2)
C29 C 0.63027(18) 0.6974(3) 0.3597(2)
H27 H 0.6603 0.7300 0.3429
C30 C 0.6354(2) 0.6971(3) 0.4363(2)
H28 H 0.6687 0.7297 0.4720
C31 C 0.5921(2) 0.6494(3) 0.4606(2)
H29 H 0.5964 0.6476 0.5133
C32 C 0.5425(2) 0.6041(3) 0.4088(2)
H30 H 0.5123 0.5725 0.4258
C33 C 0.53681(17) 0.6048(2) 0.3327(2)
H31 H 0.5023 0.5741 0.2971
C34 C 0.51688(15) 0.7219(2) 0.15318(19)
C35 C 0.49506(15) 0.7926(2) 0.1882(2)
H32 H 0.5096 0.7984 0.2421
C36 C 0.45175(17) 0.8550(2) 0.1442(2)
H33 H 0.4371 0.9043 0.1679
C37 C 0.42994(19) 0.8460(3) 0.0663(2)
H34 H 0.4002 0.8888 0.0362
C38 C 0.4514(2) 0.7746(3) 0.0318(2)
H35 H 0.4357 0.7678 -0.0219
C39 C 0.49513(19) 0.7132(3) 0.0746(2)
H36 H 0.5105 0.6650 0.0504
O3 O 0.24645(15) 1.0396(2) 0.1810(2)
C40 C 0.1671(2) 0.9574(4) 0.0903(3)
H37 H 0.1637 0.8927 0.1039
H38 H 0.1556 0.9630 0.0348
H39 H 0.1386 0.9953 0.1085
C41 C 0.2334(2) 0.9898(3) 0.1261(3)
C42 C 0.2821(3) 0.9552(4) 0.0936(3)
H40 H 0.3223 0.9863 0.1186
H41 H 0.2687 0.9681 0.0389
H42 H 0.2873 0.8885 0.1020
S2? S 0.2987(3) 0.4309(6) 0.0319(4)
loop_
_geom_bond_atom_site_label_1
_geom_bond_atom_site_label_2
_geom_bond_site_symmetry_1
_geom_bond_site_symmetry_2
Cl1 B6 1_555 1_555
Cl2 B2 1_555 1_555
Cl3 B3 1_555 1_555
Cl4 B4 1_555 1_555
Cl5 B5 1_555 1_555
Cl6 B11 1_555 1_555
Cl7 B7 1_555 1_555
Cl8 B8 1_555 1_555
Cl9 B9 1_555 1_555
Cl10 B10 1_555 1_555
Cl11 B12 1_555 1_555
S1 O1 1_555 1_555
F1 C1 1_555 1_555
F2 C1 1_555 1_555
F3 C1 1_555 1_555
O1 B1 1_555 1_555
O2 S1 1_555 1_555
C1 S1 1_555 1_555
B1 B2 1_555 1_555
B2 B3 1_555 1_555
B3 B1 1_555 1_555
B4 B1 1_555 1_555
B5 B1 1_555 1_555
B6 B1 1_555 1_555
B7 B2 1_555 1_555
B8 B2 1_555 1_555
B9 B3 1_555 1_555
B10 B4 1_555 1_555
B11 B5 1_555 1_555
B12 B7 1_555 1_555
P1 C2 1_555 1_555
C2 H1 1_555 1_555
H2 C2 1_555 1_555
H3 C2 1_555 1_555
C3 P1 1_555 1_555
C4 C3 1_555 1_555
H4 C4 1_555 1_555
C5 C4 1_555 1_555
H5 C5 1_555 1_555
C6 C5 1_555 1_555
H6 C6 1_555 1_555
C7 C6 1_555 1_555
H7 C7 1_555 1_555
C8 C3 1_555 1_555
H8 C8 1_555 1_555
C9 P1 1_555 1_555
C10 C9 1_555 1_555
H9 C10 1_555 1_555
C11 C10 1_555 1_555
H10 C11 1_555 1_555
C12 C11 1_555 1_555
H11 C12 1_555 1_555
C13 C12 1_555 1_555
H12 C13 1_555 1_555
C14 C9 1_555 1_555
H13 C14 1_555 1_555
C15 P1 1_555 1_555
C16 C15 1_555 1_555
H14 C16 1_555 1_555
C17 C16 1_555 1_555
H15 C17 1_555 1_555
C18 C17 1_555 1_555
H16 C18 1_555 1_555
C19 C18 1_555 1_555
H17 C19 1_555 1_555
C20 C15 1_555 1_555
H18 C20 1_555 1_555
P2 C21 1_555 1_555
C21 H19 1_555 1_555
H20 C21 1_555 1_555
H21 C21 1_555 1_555
C22 P2 1_555 1_555
C23 C22 1_555 1_555
H22 C23 1_555 1_555
C24 C23 1_555 1_555
H23 C24 1_555 1_555
C25 C24 1_555 1_555
H24 C25 1_555 1_555
C26 C25 1_555 1_555
H25 C26 1_555 1_555
C27 C22 1_555 1_555
H26 C27 1_555 1_555
C28 P2 1_555 1_555
C29 C28 1_555 1_555
H27 C29 1_555 1_555
C30 C29 1_555 1_555
H28 C30 1_555 1_555
C31 C30 1_555 1_555
H29 C31 1_555 1_555
C32 C31 1_555 1_555
H30 C32 1_555 1_555
C33 C28 1_555 1_555
H31 C33 1_555 1_555
C34 P2 1_555 1_555
C35 C34 1_555 1_555
H32 C35 1_555 1_555
C36 C35 1_555 1_555
H33 C36 1_555 1_555
C37 C36 1_555 1_555
H34 C37 1_555 1_555
C38 C37 1_555 1_555
H35 C38 1_555 1_555
C39 C34 1_555 1_555
H36 C39 1_555 1_555
O3 C41 1_555 1_555
C40 H37 1_555 1_555
H38 C40 1_555 1_555
H39 C40 1_555 1_555
C41 C40 1_555 1_555
C42 C41 1_555 1_555
H40 C42 1_555 1_555
H41 C42 1_555 1_555
H42 C42 1_555 1_555
B2 B6 1_555 1_555
B3 B4 1_555 1_555
B3 B8 1_555 1_555
B4 B5 1_555 1_555
B4 B9 1_555 1_555
B5 B6 1_555 1_555
B5 B10 1_555 1_555
B6 B7 1_555 1_555
B6 B11 1_555 1_555
B7 B8 1_555 1_555
B7 B11 1_555 1_555
B8 B9 1_555 1_555
B8 B12 1_555 1_555
B9 B10 1_555 1_555
B9 B12 1_555 1_555
B10 B11 1_555 1_555
B10 B12 1_555 1_555
B11 B12 1_555 1_555
C7 C8 1_555 1_555
C13 C14 1_555 1_555
C19 C20 1_555 1_555
C26 C27 1_555 1_555
C32 C33 1_555 1_555
C38 C39 1_555 1_555

#END
