
#######################################################################
#
#                 Cambridge Crystallographic Data Centre
#                                CCDC 
#
#######################################################################
#
# If this CIF has been generated from an entry in the Cambridge 
# Structural Database, then it will include bibliographic, chemical, 
# crystal, experimental, refinement or atomic coordinate data resulting 
# from the CCDC's data processing and validation procedures.
#
#######################################################################

data_WUZKAF
_chemical_formula_moiety         'H3 B12 Cl11 N1 1-,2(C4 H8 O1),C8 H20 N1 1+'
_chemical_name_systematic        
'tetraethylammonium 1-ammonio-2,3,4,5,6,7,8,9,10,11,12-undecachloro-closo-dodecaborate tetrahydrofuran solvate'
_symmetry_cell_setting           orthorhombic
_symmetry_space_group_name_H-M   'P n m a'
_symmetry_Int_Tables_number      62
_space_group_name_Hall           '-P 2ac 2n'
loop_
_symmetry_equiv_pos_site_id
_symmetry_equiv_pos_as_xyz
1 x,y,z
2 1/2-x,-y,1/2+z
3 1/2+x,1/2-y,1/2-z
4 -x,1/2+y,-z
5 -x,-y,-z
6 1/2+x,y,1/2-z
7 1/2-x,1/2+y,1/2+z
8 x,1/2-y,z
_cell_length_a                   26.7513(19)
_cell_length_b                   13.8672(11)
_cell_length_c                   11.3828(6)
_cell_angle_alpha                90
_cell_angle_beta                 90
_cell_angle_gamma                90
_cell_volume                     4222.63
_exptl_crystal_colour            colorless
_exptl_crystal_description       block
_cell_formula_units_Z            4
loop_
_atom_site_label
_atom_site_type_symbol
_atom_site_fract_x
_atom_site_fract_y
_atom_site_fract_z
O1 O 0.3047(3) 0.1168(9) 0.2810(10)
C1 C 0.3363(9) 0.091(2) 0.3665(16)
H1 H 0.3234 0.0342 0.4101
H2 H 0.3418 0.1444 0.4223
C2 C 0.3845(6) 0.0656(18) 0.3011(19)
H3 H 0.4109 0.1124 0.3224
H4 H 0.3958 0.0005 0.3248
C3 C 0.3771(8) 0.068(2) 0.186(2)
H5 H 0.3772 0.0012 0.1543
H6 H 0.4042 0.1044 0.1474
C4 C 0.3334(9) 0.109(2) 0.164(2)
H7 H 0.3141 0.0701 0.1073
H8 H 0.3385 0.1741 0.1304
O2 O 0.2596(3) 0.2500 0.5686(7)
C5 C 0.2532(5) 0.1655(11) 0.6412(10)
H9 H 0.2834 0.1245 0.6388
H10 H 0.2242 0.1271 0.6142
C6 C 0.2443(6) 0.204(2) 0.7650(11)
H11 H 0.2118 0.1801 0.7946
H12 H 0.2708 0.1801 0.8181
C5G C 0.2532(5) 0.3345(11) 0.6412(10)
H9G H 0.2834 0.3755 0.6388
H10G H 0.2242 0.3729 0.6142
C6G C 0.2443(6) 0.296(2) 0.7650(11)
H11G H 0.2118 0.3199 0.7946
H12G H 0.2708 0.3199 0.8181
Cl1 Cl 0.12679(9) 0.2500 0.5347(2)
Cl2 Cl 0.15920(12) 0.03667(17) 0.3587(2)
Cl3 Cl 0.20806(8) 0.11960(14) 0.07733(18)
Cl4 Cl 0.11067(11) 0.2500 -0.0769(2)
Cl5 Cl -0.00248(12) 0.2500 0.1117(3)
Cl6 Cl 0.07671(14) 0.0388(3) 0.0948(3)
Cl7 Cl 0.02777(11) 0.1165(3) 0.3803(2)
N1 N 0.2291(3) 0.2500 0.3355(7)
B1 B 0.1767(4) 0.2500 0.2852(8)
B2 B 0.1223(4) 0.2500 0.3789(10)
B3 B 0.0737(3) 0.1846(8) 0.3018(7)
B4 B 0.0577(5) 0.2500 0.1712(11)
B5 B 0.1137(4) 0.2500 0.0790(10)
B6 B 0.1617(3) 0.1860(6) 0.1534(7)
B7 B 0.0967(3) 0.1493(7) 0.1628(7)
B8 B 0.1373(3) 0.1457(6) 0.2929(7)
Cl2G Cl 0.15920(12) 0.46333(17) 0.3587(2)
Cl3G Cl 0.20806(8) 0.38040(14) 0.07733(18)
Cl6G Cl 0.07671(14) 0.4612(3) 0.0948(3)
Cl7G Cl 0.02777(11) 0.3835(3) 0.3803(2)
B3G B 0.0737(3) 0.3154(8) 0.3018(7)
B6G B 0.1617(3) 0.3140(6) 0.1534(7)
B7G B 0.0967(3) 0.3507(7) 0.1628(7)
B8G B 0.1373(3) 0.3543(6) 0.2929(7)
H13? H 0.2326 0.3004 0.3860
H14? H 0.2517 0.2558 0.2762
H15? H 0.2346 0.1937 0.3747
N2? N 0.0436(3) -0.2500 0.2734(8)
C7? C 0.0081(6) -0.1832(12) 0.1988(13)
C8? C -0.0262(4) -0.1240(6) 0.2792(11)
C9? C 0.0138(7) -0.3124(14) 0.3523(15)
C10? C 0.0728(7) -0.1705(15) 0.3512(16)
C11? C 0.1138(7) -0.2500 0.424(2)
C12? C 0.0740(8) -0.3093(18) 0.196(2)
C13? C 0.1117(6) -0.2500 0.109(2)
loop_
_geom_bond_atom_site_label_1
_geom_bond_atom_site_label_2
_geom_bond_site_symmetry_1
_geom_bond_site_symmetry_2
Cl1 B2 1_555 1_555
Cl2 B8 1_555 1_555
Cl3 B6 1_555 1_555
Cl4 B5 1_555 1_555
Cl5 B4 1_555 1_555
Cl6 B7 1_555 1_555
Cl7 B3 1_555 1_555
N1 B1 1_555 1_555
B1 B2 1_555 1_555
B2 B3 1_555 1_555
B3 B4 1_555 1_555
B4 B5 1_555 1_555
B5 B6 1_555 1_555
B6 B1 1_555 1_555
B7 B3 1_555 1_555
B8 B1 1_555 1_555
O1 C1 1_555 1_555
C1 H1 1_555 1_555
H2 C1 1_555 1_555
C2 C1 1_555 1_555
H3 C2 1_555 1_555
H4 C2 1_555 1_555
C3 C2 1_555 1_555
H5 C3 1_555 1_555
H6 C3 1_555 1_555
C4 O1 1_555 1_555
H7 C4 1_555 1_555
H8 C4 1_555 1_555
O2 C5 1_555 1_555
C5 H9 1_555 1_555
H10 C5 1_555 1_555
C6 C5 1_555 1_555
H11 C6 1_555 1_555
H12 C6 1_555 1_555
Cl2G B8G 1_555 1_555
Cl3G B6G 1_555 1_555
Cl6G B7G 1_555 1_555
Cl7G B3G 1_555 1_555
B3G B2 1_555 1_555
B6G B1 1_555 1_555
B7G B4 1_555 1_555
B8G B1 1_555 1_555
C5G O2 1_555 1_555
H9G C5G 1_555 1_555
H10G C5G 1_555 1_555
C6G C6 1_555 1_555
H11G C6G 1_555 1_555
H12G C6G 1_555 1_555
B2 B8 1_555 1_555
B2 B8G 1_555 1_555
B3 B8 1_555 1_555
B3 B3G 1_555 1_555
B4 B7 1_555 1_555
B4 B3G 1_555 1_555
B5 B7 1_555 1_555
B5 B6G 1_555 1_555
B5 B7G 1_555 1_555
B6 B7 1_555 1_555
B6 B8 1_555 1_555
B6 B6G 1_555 1_555
B7 B8 1_555 1_555
C3 C4 1_555 1_555
B3G B7G 1_555 1_555
B3G B8G 1_555 1_555
B6G B7G 1_555 1_555
B6G B8G 1_555 1_555
B7G B8G 1_555 1_555
C5G C6G 1_555 1_555

#END
