
#######################################################################
#
#                 Cambridge Crystallographic Data Centre
#                                CCDC 
#
#######################################################################
#
# If this CIF has been generated from an entry in the Cambridge 
# Structural Database, then it will include bibliographic, chemical, 
# crystal, experimental, refinement or atomic coordinate data resulting 
# from the CCDC's data processing and validation procedures.
#
#######################################################################

data_WUZKIN
_chemical_formula_moiety         'C3 H9 B12 Cl11 N1 1-,C4 H12 N1 1+,1.5(C6 H6)'
_chemical_name_systematic        
'tetramethylammonium 1-(trimethylammonio)-2,3,4,5,6,7,8,9,10,11,12-undecachloro-closo-dodecaborate benzene solvate'
_symmetry_cell_setting           monoclinic
_symmetry_space_group_name_H-M   'P 21/c'
_symmetry_Int_Tables_number      14
_space_group_name_Hall           '-P 2ybc'
loop_
_symmetry_equiv_pos_site_id
_symmetry_equiv_pos_as_xyz
1 x,y,z
2 -x,1/2+y,1/2-z
3 -x,-y,-z
4 x,1/2-y,1/2+z
_cell_length_a                   14.3322(6)
_cell_length_b                   12.5401(4)
_cell_length_c                   19.8652(9)
_cell_angle_alpha                90
_cell_angle_beta                 109.749(5)
_cell_angle_gamma                90
_cell_volume                     3360.32
_exptl_crystal_colour            colorless
_exptl_crystal_description       block
_cell_formula_units_Z            4
loop_
_atom_site_label
_atom_site_type_symbol
_atom_site_fract_x
_atom_site_fract_y
_atom_site_fract_z
Cl1 Cl 0.65528(5) 0.26501(6) 0.41432(4)
Cl2 Cl 0.81831(6) 0.50286(5) 0.42350(4)
Cl3 Cl 1.05322(5) 0.39872(5) 0.40200(4)
Cl4 Cl 1.02449(5) 0.10312(6) 0.36862(4)
Cl5 Cl 0.77925(6) 0.02051(5) 0.37278(4)
Cl6 Cl 0.82234(6) 0.06538(6) 0.20864(4)
Cl7 Cl 0.59309(5) 0.15807(6) 0.23779(4)
Cl8 Cl 0.61826(5) 0.44658(6) 0.26781(4)
Cl9 Cl 0.86350(6) 0.52711(5) 0.26105(4)
Cl10 Cl 0.98690(5) 0.29234(6) 0.22694(4)
Cl11 Cl 0.71636(5) 0.32253(6) 0.13838(4)
N1 N 0.92215(17) 0.23420(17) 0.49776(11)
C1 C 0.9063(4) 0.3278(3) 0.53946(19)
H1 H 0.9373 0.3912 0.5274
H2 H 0.9360 0.3131 0.5907
H3 H 0.8350 0.3404 0.5275
C2 C 1.0306(3) 0.2156(4) 0.5231(2)
H4 H 1.0452 0.1530 0.4988
H5 H 1.0544 0.2032 0.5748
H6 H 1.0640 0.2782 0.5123
C3 C 0.8773(3) 0.1412(3) 0.52150(18)
H7 H 0.8052 0.1501 0.5058
H8 H 0.9037 0.1362 0.5738
H9 H 0.8934 0.0759 0.5006
B1 B 0.8754(2) 0.2547(2) 0.41326(15)
B2 B 0.7437(2) 0.2704(2) 0.36901(16)
B3 B 0.8240(2) 0.3829(2) 0.37555(16)
B4 B 0.9352(2) 0.3347(2) 0.36399(16)
B5 B 0.9223(2) 0.1935(2) 0.34826(16)
B6 B 0.8043(2) 0.1539(2) 0.35060(16)
B7 B 0.8215(2) 0.1736(2) 0.26675(16)
B8 B 0.7111(2) 0.2200(2) 0.27953(16)
B9 B 0.7239(2) 0.3594(2) 0.29497(16)
B10 B 0.8414(2) 0.3990(2) 0.29198(16)
B11 B 0.9018(2) 0.2839(2) 0.27507(15)
B12 B 0.7712(2) 0.2993(2) 0.23220(15)
N2 N 0.66087(18) -0.22439(18) 0.19095(13)
C4 C 0.7517(2) -0.2086(3) 0.1722(2)
H10 H 0.7894 -0.2753 0.1797
H11 H 0.7925 -0.1527 0.2026
H12 H 0.7331 -0.1873 0.1219
C5 C 0.5988(3) -0.1265(3) 0.1740(2)
H13 H 0.5767 -0.1132 0.1224
H14 H 0.6378 -0.0656 0.1994
H15 H 0.5409 -0.1361 0.1891
C6 C 0.6045(2) -0.3172(2) 0.1500(2)
H16 H 0.6450 -0.3819 0.1637
H17 H 0.5885 -0.3045 0.0987
H18 H 0.5431 -0.3264 0.1607
C7 C 0.6881(4) -0.2494(3) 0.2680(2)
H19 H 0.6278 -0.2574 0.2803
H20 H 0.7285 -0.1914 0.2963
H21 H 0.7261 -0.3160 0.2784
C8 C 0.5627(3) -0.0602(3) 0.42973(18)
H22 H 0.5026 -0.0245 0.4042
C9 C 0.5849(3) -0.1552(3) 0.40485(19)
H23 H 0.5407 -0.1852 0.3620
C10 C 0.6713(3) -0.2070(3) 0.44208(19)
H24 H 0.6870 -0.2731 0.4251
C11 C 0.7353(2) -0.1632(3) 0.50423(18)
H25 H 0.7950 -0.1991 0.5301
C12 C 0.7127(2) -0.0679(3) 0.52843(17)
H26 H 0.7570 -0.0376 0.5711
C13 C 0.6267(2) -0.0162(3) 0.49141(18)
H27 H 0.6112 0.0501 0.5083
C14 C 0.4965(4) 0.5843(3) 0.4570(2)
H28 H 0.4948 0.6439 0.4271
C15 C 0.5811(4) 0.5252(4) 0.4835(3)
H29 H 0.6378 0.5431 0.4712
C16 C 0.5846(3) 0.4420(3) 0.5269(2)
H30 H 0.6440 0.4019 0.5461
C14B C 0.5035(4) 0.4157(3) 0.5430(2)
H28B H 0.5052 0.3561 0.5729
C15B C 0.4189(4) 0.4748(4) 0.5165(3)
H29B H 0.3622 0.4569 0.5288
C16B C 0.4154(3) 0.5580(3) 0.4731(2)
H30B H 0.3560 0.5981 0.4539
loop_
_geom_bond_atom_site_label_1
_geom_bond_atom_site_label_2
_geom_bond_site_symmetry_1
_geom_bond_site_symmetry_2
Cl1 B2 1_555 1_555
Cl2 B3 1_555 1_555
Cl3 B4 1_555 1_555
Cl4 B5 1_555 1_555
Cl5 B6 1_555 1_555
Cl6 B7 1_555 1_555
Cl7 B8 1_555 1_555
Cl8 B9 1_555 1_555
Cl9 B10 1_555 1_555
Cl10 B11 1_555 1_555
Cl11 B12 1_555 1_555
N1 C1 1_555 1_555
C1 H1 1_555 1_555
H2 C1 1_555 1_555
H3 C1 1_555 1_555
C2 N1 1_555 1_555
H4 C2 1_555 1_555
H5 C2 1_555 1_555
H6 C2 1_555 1_555
C3 N1 1_555 1_555
H7 C3 1_555 1_555
H8 C3 1_555 1_555
H9 C3 1_555 1_555
B1 N1 1_555 1_555
B2 B1 1_555 1_555
B3 B1 1_555 1_555
B4 B1 1_555 1_555
B5 B1 1_555 1_555
B6 B1 1_555 1_555
B7 B5 1_555 1_555
B8 B2 1_555 1_555
B9 B2 1_555 1_555
B10 B3 1_555 1_555
B11 B4 1_555 1_555
B12 B7 1_555 1_555
N2 C4 1_555 1_555
C4 H10 1_555 1_555
H11 C4 1_555 1_555
H12 C4 1_555 1_555
C5 N2 1_555 1_555
H13 C5 1_555 1_555
H14 C5 1_555 1_555
H15 C5 1_555 1_555
C6 N2 1_555 1_555
H16 C6 1_555 1_555
H17 C6 1_555 1_555
H18 C6 1_555 1_555
C7 N2 1_555 1_555
H19 C7 1_555 1_555
H20 C7 1_555 1_555
H21 C7 1_555 1_555
C8 H22 1_555 1_555
C9 C8 1_555 1_555
H23 C9 1_555 1_555
C10 C9 1_555 1_555
H24 C10 1_555 1_555
C11 C10 1_555 1_555
H25 C11 1_555 1_555
C12 C11 1_555 1_555
H26 C12 1_555 1_555
C13 C8 1_555 1_555
H27 C13 1_555 1_555
C14 H28 1_555 1_555
C15 C14 1_555 1_555
H29 C15 1_555 1_555
C16 C15 1_555 1_555
H30 C16 1_555 1_555
C14B C16 1_555 1_555
H28B C14B 1_555 1_555
C15B C14B 1_555 1_555
H29B C15B 1_555 1_555
C16B C14 1_555 1_555
H30B C16B 1_555 1_555
B2 B3 1_555 1_555
B2 B6 1_555 1_555
B3 B4 1_555 1_555
B3 B9 1_555 1_555
B4 B5 1_555 1_555
B4 B10 1_555 1_555
B5 B6 1_555 1_555
B5 B11 1_555 1_555
B6 B7 1_555 1_555
B6 B8 1_555 1_555
B7 B8 1_555 1_555
B7 B11 1_555 1_555
B8 B9 1_555 1_555
B8 B12 1_555 1_555
B9 B10 1_555 1_555
B9 B12 1_555 1_555
B10 B11 1_555 1_555
B10 B12 1_555 1_555
B11 B12 1_555 1_555
C12 C13 1_555 1_555
C15B C16B 1_555 1_555

#END
