
#######################################################################
#
#                 Cambridge Crystallographic Data Centre
#                                CCDC 
#
#######################################################################
#
# If this CIF has been generated from an entry in the Cambridge 
# Structural Database, then it will include bibliographic, chemical, 
# crystal, experimental, refinement or atomic coordinate data resulting 
# from the CCDC's data processing and validation procedures.
#
#######################################################################

data_WUZLAG
_chemical_formula_moiety         'C29 H39 N2 O1 1+,C1 F3 O3 S1 1-'
_chemical_name_systematic        
'1,3-bis(2,6-Di-isopropylphenyl)-6-methyl-4-oxo-3,4-dihydropyrimidin-1-ium trifluoromethanesulfonate'
_symmetry_cell_setting           orthorhombic
_symmetry_space_group_name_H-M   'P n a 21'
_symmetry_Int_Tables_number      33
_space_group_name_Hall           'P 2c -2n'
loop_
_symmetry_equiv_pos_site_id
_symmetry_equiv_pos_as_xyz
1 x,y,z
2 -x,-y,1/2+z
3 1/2+x,1/2-y,z
4 1/2-x,1/2+y,1/2+z
_cell_length_a                   18.347(3)
_cell_length_b                   8.8852(13)
_cell_length_c                   19.019(3)
_cell_angle_alpha                90
_cell_angle_beta                 90
_cell_angle_gamma                90
_cell_volume                     3100.42
_exptl_crystal_colour            colorless
_exptl_crystal_description       block
_cell_formula_units_Z            4
loop_
_atom_site_label
_atom_site_type_symbol
_atom_site_fract_x
_atom_site_fract_y
_atom_site_fract_z
S1 S 0.02907(12) 0.1132(3) 0.49424(16)
O1 O 0.0263(8) 0.1870(18) 0.4283(5)
O2 O 0.0985(6) 0.0635(15) 0.5047(10)
O3 O -0.0335(7) 0.0228(15) 0.5159(6)
F1 F -0.0367(9) 0.345(2) 0.5476(7)
F2 F 0.0295(8) 0.2204(19) 0.6208(5)
F3 F 0.0771(11) 0.3643(14) 0.5427(9)
C1 C 0.0244(10) 0.270(3) 0.5549(9)
O4 O 0.2443(4) 0.8149(8) 0.6690(3)
N1 N 0.3192(3) 0.6784(6) 0.5969(3)
N2 N 0.3083(3) 0.6946(6) 0.4761(3)
C2 C 0.3402(3) 0.6401(7) 0.5332(3)
H1 H 0.375(3) 0.566(6) 0.522(3)
C3 C 0.2599(4) 0.7837(9) 0.6092(4)
C4 C 0.2279(4) 0.8375(9) 0.5457(4)
H2 H 0.1885 0.9047 0.5494
C5 C 0.2499(3) 0.7994(7) 0.4824(4)
C6 C 0.3542(4) 0.6081(9) 0.6578(3)
C7 C 0.4129(4) 0.6835(10) 0.6875(4)
C8 C 0.4417(5) 0.6150(12) 0.7500(5)
H3 H 0.4823 0.6580 0.7724
C9 C 0.4109(5) 0.4889(13) 0.7771(4)
H4 H 0.4289 0.4500 0.8197
C10 C 0.3549(5) 0.4170(12) 0.7446(5)
H5 H 0.3371 0.3262 0.7633
C11 C 0.3234(4) 0.4767(11) 0.6835(4)
C12 C 0.4493(5) 0.8187(11) 0.6562(5)
H6 H 0.4270 0.8370 0.6096
C13 C 0.5308(6) 0.7991(17) 0.6452(9)
H7 H 0.5541 0.7786 0.6900
H8 H 0.5510 0.8905 0.6253
H9 H 0.5394 0.7157 0.6134
C14 C 0.4344(11) 0.9596(15) 0.7025(8)
H10 H 0.3828 0.9833 0.7014
H11 H 0.4620 1.0444 0.6846
H12 H 0.4490 0.9390 0.7506
C15 C 0.2578(5) 0.3991(11) 0.6522(5)
H13 H 0.2479 0.4469 0.6062
C16 C 0.1910(5) 0.4332(16) 0.7013(8)
H14 H 0.1981 0.3841 0.7463
H15 H 0.1468 0.3956 0.6796
H16 H 0.1869 0.5410 0.7083
C17 C 0.2660(8) 0.2325(16) 0.6397(9)
H17 H 0.3030 0.2155 0.6041
H18 H 0.2200 0.1913 0.6237
H19 H 0.2804 0.1835 0.6831
C18 C 0.2150(5) 0.8475(11) 0.4155(4)
H20 H 0.1991 0.7595 0.3896
H21 H 0.2498 0.9036 0.3875
H22 H 0.1733 0.9108 0.4259
C19 C 0.3354(3) 0.6476(8) 0.4070(3)
C20 C 0.3919(4) 0.7290(9) 0.3767(4)
C21 C 0.4152(4) 0.6777(10) 0.3106(4)
H23 H 0.4540 0.7273 0.2882
C22 C 0.3832(5) 0.5576(11) 0.2780(4)
H24 H 0.3999 0.5269 0.2335
C23 C 0.3268(5) 0.4814(10) 0.3095(4)
H25 H 0.3044 0.4011 0.2857
C24 C 0.3023(4) 0.5220(8) 0.3764(4)
C25 C 0.4279(5) 0.8616(11) 0.4105(5)
H26 H 0.4049 0.8804 0.4567
C26 C 0.5104(7) 0.8292(15) 0.4217(8)
H27 H 0.5166 0.7272 0.4389
H28 H 0.5301 0.8995 0.4558
H29 H 0.5361 0.8406 0.3774
C27 C 0.4199(8) 1.0070(15) 0.3634(9)
H30 H 0.4332 0.9833 0.3153
H31 H 0.4517 1.0854 0.3812
H32 H 0.3697 1.0416 0.3648
C28 C 0.2414(4) 0.4329(10) 0.4127(5)
H33 H 0.2240 0.4928 0.4532
C29 C 0.1761(6) 0.4039(17) 0.3640(7)
H34 H 0.1871 0.3201 0.3331
H35 H 0.1666 0.4931 0.3361
H36 H 0.1335 0.3802 0.3920
C30 C 0.2713(9) 0.2864(15) 0.4405(10)
H37 H 0.2938 0.2306 0.4024
H38 H 0.2319 0.2274 0.4605
H39 H 0.3073 0.3070 0.4766
loop_
_geom_bond_atom_site_label_1
_geom_bond_atom_site_label_2
_geom_bond_site_symmetry_1
_geom_bond_site_symmetry_2
S1 O1 1_555 1_555
O2 S1 1_555 1_555
O3 S1 1_555 1_555
F1 C1 1_555 1_555
F2 C1 1_555 1_555
F3 C1 1_555 1_555
C1 S1 1_555 1_555
O4 C3 1_555 1_555
N1 C2 1_555 1_555
N2 C2 1_555 1_555
C2 H1 1_555 1_555
C3 N1 1_555 1_555
C4 C3 1_555 1_555
H2 C4 1_555 1_555
C5 N2 1_555 1_555
C6 N1 1_555 1_555
C7 C6 1_555 1_555
C8 C7 1_555 1_555
H3 C8 1_555 1_555
C9 C8 1_555 1_555
H4 C9 1_555 1_555
C10 C9 1_555 1_555
H5 C10 1_555 1_555
C11 C6 1_555 1_555
C12 C7 1_555 1_555
H6 C12 1_555 1_555
C13 C12 1_555 1_555
H7 C13 1_555 1_555
H8 C13 1_555 1_555
H9 C13 1_555 1_555
C14 C12 1_555 1_555
H10 C14 1_555 1_555
H11 C14 1_555 1_555
H12 C14 1_555 1_555
C15 C11 1_555 1_555
H13 C15 1_555 1_555
C16 C15 1_555 1_555
H14 C16 1_555 1_555
H15 C16 1_555 1_555
H16 C16 1_555 1_555
C17 C15 1_555 1_555
H17 C17 1_555 1_555
H18 C17 1_555 1_555
H19 C17 1_555 1_555
C18 C5 1_555 1_555
H20 C18 1_555 1_555
H21 C18 1_555 1_555
H22 C18 1_555 1_555
C19 N2 1_555 1_555
C20 C19 1_555 1_555
C21 C20 1_555 1_555
H23 C21 1_555 1_555
C22 C21 1_555 1_555
H24 C22 1_555 1_555
C23 C22 1_555 1_555
H25 C23 1_555 1_555
C24 C19 1_555 1_555
C25 C20 1_555 1_555
H26 C25 1_555 1_555
C26 C25 1_555 1_555
H27 C26 1_555 1_555
H28 C26 1_555 1_555
H29 C26 1_555 1_555
C27 C25 1_555 1_555
H30 C27 1_555 1_555
H31 C27 1_555 1_555
H32 C27 1_555 1_555
C28 C24 1_555 1_555
H33 C28 1_555 1_555
C29 C28 1_555 1_555
H34 C29 1_555 1_555
H35 C29 1_555 1_555
H36 C29 1_555 1_555
C30 C28 1_555 1_555
H37 C30 1_555 1_555
H38 C30 1_555 1_555
H39 C30 1_555 1_555
C4 C5 1_555 1_555
C10 C11 1_555 1_555
C23 C24 1_555 1_555

#END
