
#######################################################################
#
#                 Cambridge Crystallographic Data Centre
#                                CCDC 
#
#######################################################################
#
# If this CIF has been generated from an entry in the Cambridge 
# Structural Database, then it will include bibliographic, chemical, 
# crystal, experimental, refinement or atomic coordinate data resulting 
# from the CCDC's data processing and validation procedures.
#
#######################################################################

data_WUZLUA
_chemical_formula_moiety         'C56 H74 N4 O2 2+,2(C1 F3 O3 S1 1-)'
_chemical_name_systematic        
'4-(2-(1,3-bis(2,6-Di-isopropylphenyl)-4-hydroxy-1H-imidazol-3-ium-5-yl)vinyl)-1,3-bis(2,6-di-isopropylphenyl)-5-hydroxy-1H-imidazol-3-ium bis(trifluoromethanesulfonate)'
_symmetry_cell_setting           monoclinic
_symmetry_space_group_name_H-M   'P 21/c'
_symmetry_Int_Tables_number      14
_space_group_name_Hall           '-P 2ybc'
loop_
_symmetry_equiv_pos_site_id
_symmetry_equiv_pos_as_xyz
1 x,y,z
2 -x,1/2+y,1/2-z
3 -x,-y,-z
4 x,1/2-y,1/2+z
_cell_length_a                   12.6546(18)
_cell_length_b                   17.329(2)
_cell_length_c                   28.404(4)
_cell_angle_alpha                90
_cell_angle_beta                 98.742(2)
_cell_angle_gamma                90
_cell_volume                     6156.4
_exptl_crystal_colour            colorless
_exptl_crystal_description       sheet
_cell_formula_units_Z            4
loop_
_atom_site_label
_atom_site_type_symbol
_atom_site_fract_x
_atom_site_fract_y
_atom_site_fract_z
S1 S 0.76917(9) 0.74286(6) 0.01672(3)
O1 O 0.7474(3) 0.7204(2) 0.06245(9)
O2 O 0.7781(3) 0.82484(16) 0.01199(11)
O3 O 0.7076(3) 0.70327(18) -0.02240(10)
F1 F 0.9360(3) 0.72810(19) -0.02575(14)
F2 F 0.9706(3) 0.7418(2) 0.04988(17)
F3 F 0.9119(3) 0.6349(2) 0.02121(15)
C1 C 0.9027(5) 0.7097(3) 0.0158(2)
S2 S 0.25155(9) 0.66692(6) 0.23198(4)
O4 O 0.1657(2) 0.61793(14) 0.24033(9)
O5 O 0.2211(5) 0.7283(3) 0.2010(2)
O6 O 0.3445(3) 0.6284(2) 0.2248(2)
F4 F 0.3726(3) 0.7627(2) 0.28617(16)
F5 F 0.2134(4) 0.7507(4) 0.3002(2)
F6 F 0.3248(5) 0.6599(5) 0.31931(18)
C2 C 0.2910(5) 0.7153(4) 0.2866(3)
N1 N 0.72245(19) 0.85943(13) 0.35046(8)
N2 N 0.62143(19) 0.94811(13) 0.37285(8)
N3 N 0.75646(18) 0.87387(13) 0.15663(8)
N4 N 0.85221(19) 0.95746(13) 0.12552(8)
O7 O 0.55632(18) 1.01025(13) 0.30063(8)
H1 H 0.592(3) 1.044(2) 0.2891(13)
O8 O 0.8850(2) 1.05179(13) 0.18360(8)
H2 H 0.864(3) 1.071(2) 0.2071(13)
C3 C 0.6837(2) 0.88858(17) 0.38756(10)
H3 H 0.702(3) 0.8695(18) 0.4206(12)
C4 C 0.6827(2) 0.90147(15) 0.30969(10)
C5 C 0.6198(2) 0.95749(15) 0.32414(10)
C6 C 0.7131(2) 0.88416(16) 0.26337(10)
H4 H 0.7095 0.8324 0.2522
C7 C 0.7456(2) 0.93894(17) 0.23666(10)
H5 H 0.7476 0.9894 0.2499
C8 C 0.7787(2) 0.93343(16) 0.19018(10)
C9 C 0.8009(2) 0.89027(17) 0.11861(11)
H6 H 0.796(2) 0.8595(18) 0.0916(12)
C10 C 0.8387(2) 0.98521(16) 0.16997(10)
C11 C 0.8039(2) 0.80028(16) 0.35243(10)
C12 C 0.9099(3) 0.82551(19) 0.35548(11)
C13 C 0.9865(3) 0.7679(2) 0.35694(13)
H7 H 1.0596 0.7819 0.3591
C14 C 0.9592(3) 0.6916(2) 0.35532(13)
H8 H 1.0134 0.6534 0.3567
C15 C 0.8547(3) 0.6698(2) 0.35174(13)
H9 H 0.8375 0.6164 0.3501
C16 C 0.7726(3) 0.72349(18) 0.35036(12)
C17 C 0.9426(3) 0.9098(2) 0.35689(13)
H10 H 0.8754 0.9411 0.3527
C18 C 1.0030(3) 0.9305(3) 0.31616(15)
H11 H 1.0711 0.9025 0.3200
H12 H 1.0168 0.9861 0.3165
H13 H 0.9600 0.9161 0.2858
C19 C 1.0060(4) 0.9318(3) 0.40427(16)
H14 H 0.9651 0.9188 0.4298
H15 H 1.0203 0.9874 0.4047
H16 H 1.0739 0.9036 0.4090
C20 C 0.6573(3) 0.6981(2) 0.34546(14)
H17 H 0.6119 0.7452 0.3462
C21 C 0.6387(5) 0.6459(3) 0.38683(17)
H18 H 0.6777 0.5973 0.3851
H19 H 0.5621 0.6351 0.3848
H20 H 0.6644 0.6718 0.4171
C22 C 0.6220(4) 0.6566(3) 0.29858(17)
H21 H 0.6253 0.6922 0.2721
H22 H 0.5485 0.6380 0.2975
H23 H 0.6695 0.6126 0.2959
C23 C 0.5638(2) 0.99610(17) 0.40273(10)
C24 C 0.4562(3) 0.98095(18) 0.40247(11)
C25 C 0.4013(3) 1.0285(2) 0.43019(12)
H24 H 0.3274 1.0203 0.4310
C26 C 0.4556(3) 1.0879(2) 0.45669(13)
H25 H 0.4183 1.1200 0.4758
C27 C 0.5620(3) 1.1008(2) 0.45560(12)
H26 H 0.5971 1.1419 0.4738
C28 C 0.6194(3) 1.05521(19) 0.42852(11)
C29 C 0.3974(3) 0.91550(19) 0.37386(13)
H27 H 0.4503 0.8882 0.3570
C30 C 0.3549(5) 0.8576(3) 0.40582(18)
H28 H 0.4143 0.8358 0.4280
H29 H 0.3178 0.8162 0.3864
H30 H 0.3047 0.8832 0.4239
C31 C 0.3096(4) 0.9463(3) 0.33614(19)
H31 H 0.2558 0.9729 0.3516
H32 H 0.2759 0.9033 0.3170
H33 H 0.3403 0.9825 0.3154
C32 C 0.7379(3) 1.0703(2) 0.42828(12)
H34 H 0.7608 1.0391 0.4020
C33 C 0.8028(3) 1.0438(3) 0.47488(16)
H35 H 0.7828 1.0743 0.5012
H36 H 0.8791 1.0508 0.4735
H37 H 0.7883 0.9891 0.4800
C34 C 0.7608(4) 1.1547(3) 0.4190(2)
H38 H 0.7175 1.1711 0.3892
H39 H 0.8367 1.1610 0.4167
H40 H 0.7428 1.1863 0.4453
C35 C 0.6910(2) 0.80587(16) 0.16085(10)
C36 C 0.5810(3) 0.8161(2) 0.15525(12)
C37 C 0.5207(3) 0.7499(3) 0.15922(14)
H41 H 0.4450 0.7537 0.1559
C38 C 0.5679(4) 0.6803(3) 0.16775(15)
H42 H 0.5246 0.6362 0.1706
C39 C 0.6762(4) 0.6717(2) 0.17244(14)
H43 H 0.7065 0.6217 0.1775
C40 C 0.7442(3) 0.73563(18) 0.16992(11)
C41 C 0.5269(3) 0.8934(3) 0.14387(15)
H44 H 0.5834 0.9343 0.1478
C42 C 0.4466(4) 0.9120(3) 0.17817(19)
H45 H 0.3886 0.8740 0.1738
H46 H 0.4170 0.9637 0.1713
H47 H 0.4833 0.9100 0.2111
C43 C 0.4720(4) 0.8948(4) 0.09212(19)
H48 H 0.5255 0.8880 0.0709
H49 H 0.4356 0.9444 0.0854
H50 H 0.4195 0.8528 0.0869
C44 C 0.8641(3) 0.72740(19) 0.17568(14)
H51 H 0.8899 0.7645 0.1530
C45 C 0.9005(4) 0.6475(3) 0.16293(18)
H52 H 0.8834 0.6100 0.1865
H53 H 0.9779 0.6479 0.1628
H54 H 0.8637 0.6329 0.1313
C46 C 0.9151(4) 0.7502(3) 0.22439(18)
H55 H 0.8914 0.8021 0.2316
H56 H 0.9930 0.7498 0.2260
H57 H 0.8945 0.7135 0.2477
C47 C 0.9177(2) 0.99480(16) 0.09426(10)
C48 C 1.0232(3) 0.97201(17) 0.09774(11)
C49 C 1.0858(3) 1.01277(19) 0.06906(12)
H58 H 1.1588 0.9993 0.0700
C50 C 1.0430(3) 1.0716(2) 0.03984(12)
H59 H 1.0870 1.0988 0.0212
C51 C 0.9368(3) 1.0918(2) 0.03729(12)
H60 H 0.9084 1.1322 0.0166
C52 C 0.8706(3) 1.05362(18) 0.06470(11)
C53 C 1.0717(3) 0.90866(19) 0.13086(13)
H61 H 1.0123 0.8745 0.1378
C54 C 1.1274(4) 0.9413(3) 0.17805(14)
H62 H 1.1872 0.9740 0.1723
H63 H 1.1543 0.8988 0.1993
H64 H 1.0764 0.9720 0.1929
C55 C 1.1515(4) 0.8585(2) 0.10897(16)
H65 H 1.1187 0.8411 0.0773
H66 H 1.1711 0.8135 0.1294
H67 H 1.2158 0.8887 0.1063
C56 C 0.7538(3) 1.0745(2) 0.06122(13)
H68 H 0.7302 1.0584 0.0918
C57 C 0.6879(3) 1.0280(3) 0.02143(17)
H69 H 0.7074 1.0434 -0.0093
H70 H 0.6117 1.0380 0.0214
H71 H 0.7023 0.9729 0.0267
C58 C 0.7309(5) 1.1600(3) 0.0551(2)
H72 H 0.7720 1.1884 0.0816
H73 H 0.6544 1.1693 0.0547
H74 H 0.7514 1.1776 0.0249
loop_
_geom_bond_atom_site_label_1
_geom_bond_atom_site_label_2
_geom_bond_site_symmetry_1
_geom_bond_site_symmetry_2
S1 O1 1_555 1_555
O2 S1 1_555 1_555
O3 S1 1_555 1_555
F1 C1 1_555 1_555
F2 C1 1_555 1_555
F3 C1 1_555 1_555
C1 S1 1_555 1_555
S2 O4 1_555 1_555
O5 S2 1_555 1_555
O6 S2 1_555 1_555
F4 C2 1_555 1_555
F5 C2 1_555 1_555
F6 C2 1_555 1_555
C2 S2 1_555 1_555
N1 C3 1_555 1_555
N2 C3 1_555 1_555
N3 C8 1_555 1_555
N4 C9 1_555 1_555
O7 H1 1_555 1_555
O8 H2 1_555 1_555
C3 H3 1_555 1_555
C4 N1 1_555 1_555
C5 N2 1_555 1_555
C6 C4 1_555 1_555
H4 C6 1_555 1_555
C7 C6 1_555 1_555
H5 C7 1_555 1_555
C8 C7 1_555 1_555
C9 N3 1_555 1_555
H6 C9 1_555 1_555
C10 N4 1_555 1_555
C11 N1 1_555 1_555
C12 C11 1_555 1_555
C13 C12 1_555 1_555
H7 C13 1_555 1_555
C14 C13 1_555 1_555
H8 C14 1_555 1_555
C15 C14 1_555 1_555
H9 C15 1_555 1_555
C16 C11 1_555 1_555
C17 C12 1_555 1_555
H10 C17 1_555 1_555
C18 C17 1_555 1_555
H11 C18 1_555 1_555
H12 C18 1_555 1_555
H13 C18 1_555 1_555
C19 C17 1_555 1_555
H14 C19 1_555 1_555
H15 C19 1_555 1_555
H16 C19 1_555 1_555
C20 C16 1_555 1_555
H17 C20 1_555 1_555
C21 C20 1_555 1_555
H18 C21 1_555 1_555
H19 C21 1_555 1_555
H20 C21 1_555 1_555
C22 C20 1_555 1_555
H21 C22 1_555 1_555
H22 C22 1_555 1_555
H23 C22 1_555 1_555
C23 N2 1_555 1_555
C24 C23 1_555 1_555
C25 C24 1_555 1_555
H24 C25 1_555 1_555
C26 C25 1_555 1_555
H25 C26 1_555 1_555
C27 C26 1_555 1_555
H26 C27 1_555 1_555
C28 C23 1_555 1_555
C29 C24 1_555 1_555
H27 C29 1_555 1_555
C30 C29 1_555 1_555
H28 C30 1_555 1_555
H29 C30 1_555 1_555
H30 C30 1_555 1_555
C31 C29 1_555 1_555
H31 C31 1_555 1_555
H32 C31 1_555 1_555
H33 C31 1_555 1_555
C32 C28 1_555 1_555
H34 C32 1_555 1_555
C33 C32 1_555 1_555
H35 C33 1_555 1_555
H36 C33 1_555 1_555
H37 C33 1_555 1_555
C34 C32 1_555 1_555
H38 C34 1_555 1_555
H39 C34 1_555 1_555
H40 C34 1_555 1_555
C35 N3 1_555 1_555
C36 C35 1_555 1_555
C37 C36 1_555 1_555
H41 C37 1_555 1_555
C38 C37 1_555 1_555
H42 C38 1_555 1_555
C39 C38 1_555 1_555
H43 C39 1_555 1_555
C40 C35 1_555 1_555
C41 C36 1_555 1_555
H44 C41 1_555 1_555
C42 C41 1_555 1_555
H45 C42 1_555 1_555
H46 C42 1_555 1_555
H47 C42 1_555 1_555
C43 C41 1_555 1_555
H48 C43 1_555 1_555
H49 C43 1_555 1_555
H50 C43 1_555 1_555
C44 C40 1_555 1_555
H51 C44 1_555 1_555
C45 C44 1_555 1_555
H52 C45 1_555 1_555
H53 C45 1_555 1_555
H54 C45 1_555 1_555
C46 C44 1_555 1_555
H55 C46 1_555 1_555
H56 C46 1_555 1_555
H57 C46 1_555 1_555
C47 N4 1_555 1_555
C48 C47 1_555 1_555
C49 C48 1_555 1_555
H58 C49 1_555 1_555
C50 C49 1_555 1_555
H59 C50 1_555 1_555
C51 C50 1_555 1_555
H60 C51 1_555 1_555
C52 C47 1_555 1_555
C53 C48 1_555 1_555
H61 C53 1_555 1_555
C54 C53 1_555 1_555
H62 C54 1_555 1_555
H63 C54 1_555 1_555
H64 C54 1_555 1_555
C55 C53 1_555 1_555
H65 C55 1_555 1_555
H66 C55 1_555 1_555
H67 C55 1_555 1_555
C56 C52 1_555 1_555
H68 C56 1_555 1_555
C57 C56 1_555 1_555
H69 C57 1_555 1_555
H70 C57 1_555 1_555
H71 C57 1_555 1_555
C58 C56 1_555 1_555
H72 C58 1_555 1_555
H73 C58 1_555 1_555
H74 C58 1_555 1_555
O7 C5 1_555 1_555
O8 C10 1_555 1_555
C4 C5 1_555 1_555
C8 C10 1_555 1_555
C15 C16 1_555 1_555
C27 C28 1_555 1_555
C39 C40 1_555 1_555
C51 C52 1_555 1_555

#END
