
#######################################################################
#
#                 Cambridge Crystallographic Data Centre
#                                CCDC 
#
#######################################################################
#
# If this CIF has been generated from an entry in the Cambridge 
# Structural Database, then it will include bibliographic, chemical, 
# crystal, experimental, refinement or atomic coordinate data resulting 
# from the CCDC's data processing and validation procedures.
#
#######################################################################

data_WUZMUB
_chemical_formula_moiety         'C14 H33 B10 N1'
_chemical_name_systematic        
1-(Dicyclohexylamino)-1,2-dicarba-closo-dodecaborane
_symmetry_cell_setting           monoclinic
_symmetry_space_group_name_H-M   'P 21/n'
_symmetry_Int_Tables_number      14
_space_group_name_Hall           '-P 2yn'
loop_
_symmetry_equiv_pos_site_id
_symmetry_equiv_pos_as_xyz
1 x,y,z
2 1/2-x,1/2+y,1/2-z
3 -x,-y,-z
4 1/2+x,1/2-y,1/2+z
_cell_length_a                   9.9855(15)
_cell_length_b                   15.959(2)
_cell_length_c                   12.700(2)
_cell_angle_alpha                90
_cell_angle_beta                 110.666(3)
_cell_angle_gamma                90
_cell_volume                     1893.63
_exptl_crystal_colour            colorless
_exptl_crystal_description       block
_cell_formula_units_Z            4
loop_
_atom_site_label
_atom_site_type_symbol
_atom_site_fract_x
_atom_site_fract_y
_atom_site_fract_z
N1 N 0.90049(15) 0.23791(8) 0.37034(12)
C1 C 0.77507(17) 0.24298(10) 0.39132(13)
C2 C 0.77426(18) 0.28077(10) 0.52901(13)
H1 H 0.8731 0.3050 0.5959
C3 C 0.98416(17) 0.31042(10) 0.35423(14)
H2 H 1.0662 0.2849 0.3379
C4 C 1.05402(18) 0.36136(11) 0.46211(14)
H3 H 0.9787 0.3885 0.4842
H4 H 1.1092 0.3234 0.5238
C5 C 1.15358(19) 0.42829(11) 0.44473(15)
H5 H 1.1924 0.4629 0.5136
H6 H 1.2350 0.4010 0.4310
C6 C 1.0733(2) 0.48416(11) 0.34503(15)
H7 H 1.1398 0.5263 0.3339
H8 H 0.9960 0.5143 0.3610
C7 C 1.0092(2) 0.43226(11) 0.23808(15)
H9 H 1.0873 0.4053 0.2194
H10 H 0.9563 0.4697 0.1749
C8 C 0.90782(19) 0.36490(11) 0.25171(14)
H11 H 0.8233 0.3918 0.2609
H12 H 0.8742 0.3295 0.1833
C9 C 0.96207(17) 0.15364(10) 0.36588(13)
H13 H 0.9009 0.1122 0.3872
C10 C 1.11367(18) 0.14309(11) 0.45022(15)
H14 H 1.1148 0.1545 0.5272
H15 H 1.1781 0.1838 0.4333
C11 C 1.1670(2) 0.05403(12) 0.44441(16)
H16 H 1.2676 0.0491 0.4960
H17 H 1.1088 0.0139 0.4696
C12 C 1.1574(2) 0.03184(12) 0.32498(17)
H18 H 1.2227 0.0684 0.3024
H19 H 1.1881 -0.0269 0.3230
C13 C 1.0051(2) 0.04265(11) 0.24232(16)
H20 H 0.9411 0.0026 0.2610
H21 H 1.0021 0.0301 0.1652
C14 C 0.95214(19) 0.13174(11) 0.24644(14)
H22 H 0.8516 0.1368 0.1948
H23 H 1.0108 0.1715 0.2213
B1 B 0.6992(2) 0.33703(12) 0.40748(16)
H24 H 0.7466 0.3971 0.3911
B2 B 0.6076(2) 0.26626(12) 0.29754(16)
H25 H 0.5866 0.2801 0.2066
B3 B 0.6526(2) 0.16444(12) 0.35806(16)
H26 H 0.6641 0.1091 0.3077
B4 B 0.7637(2) 0.17806(12) 0.50358(15)
H27 H 0.8527 0.1342 0.5496
B5 B 0.6215(2) 0.32921(13) 0.51483(17)
H28 H 0.6128 0.3848 0.5659
B6 B 0.5119(2) 0.31838(13) 0.37017(17)
H29 H 0.4297 0.3667 0.3265
B7 B 0.4841(2) 0.20965(13) 0.34183(16)
H30 H 0.3821 0.1845 0.2797
B8 B 0.5804(2) 0.15315(12) 0.46668(16)
H31 H 0.5445 0.0904 0.4862
B9 B 0.6594(2) 0.22779(13) 0.57410(16)
H32 H 0.6741 0.2149 0.6642
B10 B 0.4894(2) 0.24930(13) 0.47326(17)
H33 H 0.3913 0.2512 0.4967
loop_
_geom_bond_atom_site_label_1
_geom_bond_atom_site_label_2
_geom_bond_site_symmetry_1
_geom_bond_site_symmetry_2
N1 C1 1_555 1_555
C1 C2 1_555 1_555
C2 H1 1_555 1_555
C3 N1 1_555 1_555
H2 C3 1_555 1_555
C4 C3 1_555 1_555
H3 C4 1_555 1_555
H4 C4 1_555 1_555
C5 C4 1_555 1_555
H5 C5 1_555 1_555
H6 C5 1_555 1_555
C6 C5 1_555 1_555
H7 C6 1_555 1_555
H8 C6 1_555 1_555
C7 C6 1_555 1_555
H9 C7 1_555 1_555
H10 C7 1_555 1_555
C8 C3 1_555 1_555
H11 C8 1_555 1_555
H12 C8 1_555 1_555
C9 N1 1_555 1_555
H13 C9 1_555 1_555
C10 C9 1_555 1_555
H14 C10 1_555 1_555
H15 C10 1_555 1_555
C11 C10 1_555 1_555
H16 C11 1_555 1_555
H17 C11 1_555 1_555
C12 C11 1_555 1_555
H18 C12 1_555 1_555
H19 C12 1_555 1_555
C13 C12 1_555 1_555
H20 C13 1_555 1_555
H21 C13 1_555 1_555
C14 C9 1_555 1_555
H22 C14 1_555 1_555
H23 C14 1_555 1_555
B1 C1 1_555 1_555
H24 B1 1_555 1_555
B2 C1 1_555 1_555
H25 B2 1_555 1_555
B3 C1 1_555 1_555
H26 B3 1_555 1_555
B4 C1 1_555 1_555
H27 B4 1_555 1_555
B5 C2 1_555 1_555
H28 B5 1_555 1_555
B6 B1 1_555 1_555
H29 B6 1_555 1_555
B7 B2 1_555 1_555
H30 B7 1_555 1_555
B8 B3 1_555 1_555
H31 B8 1_555 1_555
B9 C2 1_555 1_555
H32 B9 1_555 1_555
B10 B5 1_555 1_555
H33 B10 1_555 1_555
C2 B1 1_555 1_555
C2 B4 1_555 1_555
C7 C8 1_555 1_555
C13 C14 1_555 1_555
B1 B2 1_555 1_555
B1 B5 1_555 1_555
B2 B3 1_555 1_555
B2 B6 1_555 1_555
B3 B4 1_555 1_555
B3 B7 1_555 1_555
B4 B8 1_555 1_555
B4 B9 1_555 1_555
B5 B6 1_555 1_555
B5 B9 1_555 1_555
B6 B7 1_555 1_555
B6 B10 1_555 1_555
B7 B8 1_555 1_555
B7 B10 1_555 1_555
B8 B9 1_555 1_555
B8 B10 1_555 1_555
B9 B10 1_555 1_555

#END
