
#######################################################################
#
#                 Cambridge Crystallographic Data Centre
#                                CCDC 
#
#######################################################################
#
# If this CIF has been generated from an entry in the Cambridge 
# Structural Database, then it will include bibliographic, chemical, 
# crystal, experimental, refinement or atomic coordinate data resulting 
# from the CCDC's data processing and validation procedures.
#
#######################################################################

data_WUZMIP
_chemical_formula_moiety         'C28 H37 N2 O1 1+,C1 F3 O3 S1 1-'
_chemical_name_systematic        
'1,3-bis(2,6-Di-isopropylphenyl)-4-oxo-3,4-dihydropyrimidin-1-ium trifluoromethanesulfonate'
_symmetry_cell_setting           monoclinic
_symmetry_space_group_name_H-M   'P 21/n'
_symmetry_Int_Tables_number      14
_space_group_name_Hall           '-P 2yn'
loop_
_symmetry_equiv_pos_site_id
_symmetry_equiv_pos_as_xyz
1 x,y,z
2 1/2-x,1/2+y,1/2-z
3 -x,-y,-z
4 1/2+x,1/2-y,1/2+z
_cell_length_a                   12.8979(17)
_cell_length_b                   16.379(2)
_cell_length_c                   14.348(2)
_cell_angle_alpha                90
_cell_angle_beta                 105.047(2)
_cell_angle_gamma                90
_cell_volume                     2927.16
_exptl_crystal_colour            yellow
_exptl_crystal_description       block
_cell_formula_units_Z            4
loop_
_atom_site_label
_atom_site_type_symbol
_atom_site_fract_x
_atom_site_fract_y
_atom_site_fract_z
N1 N 0.73675(14) 0.27339(11) 0.85385(13)
N2 N 0.60098(14) 0.21839(11) 0.91252(13)
C1 C 0.69652(19) 0.23776(15) 0.75923(17)
C2 C 0.68945(17) 0.26243(14) 0.92488(16)
C3 C 0.55633(18) 0.18215(15) 0.82447(17)
H1 H 0.4939 0.1504 0.8165
C4 C 0.60012(19) 0.19128(15) 0.75011(17)
H2 H 0.5670 0.1667 0.6906
C5 C 0.83593(18) 0.32167(15) 0.87395(17)
C6 C 0.8284(2) 0.40407(15) 0.84871(19)
C7 C 0.9243(2) 0.44763(17) 0.8709(2)
H3 H 0.9234 0.5031 0.8541
C8 C 1.0206(2) 0.41171(18) 0.9168(2)
H4 H 1.0837 0.4432 0.9327
C9 C 1.0250(2) 0.32990(18) 0.9394(2)
H5 H 1.0912 0.3060 0.9706
C10 C 0.93193(19) 0.28178(16) 0.91654(19)
C11 C 0.7251(2) 0.44583(16) 0.7972(2)
H6 H 0.6658 0.4065 0.7935
C12 C 0.7015(3) 0.52113(19) 0.8504(2)
H7 H 0.7016 0.5064 0.9159
H8 H 0.6317 0.5429 0.8174
H9 H 0.7562 0.5621 0.8519
C13 C 0.7270(3) 0.4675(2) 0.6923(2)
H10 H 0.7837 0.5067 0.6937
H11 H 0.6585 0.4908 0.6584
H12 H 0.7401 0.4184 0.6592
C14 C 0.9418(2) 0.19028(16) 0.9349(2)
H13 H 0.8683 0.1675 0.9212
C15 C 0.9983(3) 0.1514(2) 0.8629(3)
H14 H 1.0722 0.1698 0.8776
H15 H 0.9614 0.1676 0.7977
H16 H 0.9966 0.0924 0.8682
C16 C 0.9983(3) 0.1694(2) 1.0375(2)
H17 H 1.0717 0.1891 1.0520
H18 H 0.9985 0.1106 1.0459
H19 H 0.9613 0.1949 1.0807
C17 C 0.55295(18) 0.20382(14) 0.99334(17)
C18 C 0.5996(2) 0.14392(16) 1.06055(18)
C19 C 0.5514(2) 0.13015(17) 1.1354(2)
H20 H 0.5792 0.0898 1.1818
C20 C 0.4634(2) 0.17511(17) 1.1422(2)
H21 H 0.4330 0.1659 1.1941
C21 C 0.4196(2) 0.23265(17) 1.0750(2)
H22 H 0.3593 0.2620 1.0816
C22 C 0.46209(19) 0.24938(15) 0.99628(18)
C23 C 0.6955(2) 0.09259(17) 1.0532(2)
H23 H 0.7228 0.1148 0.9999
C24 C 0.7855(3) 0.0983(2) 1.1460(3)
H24 H 0.8038 0.1551 1.1605
H25 H 0.8481 0.0692 1.1379
H26 H 0.7618 0.0741 1.1987
C25 C 0.6627(3) 0.0039(2) 1.0292(3)
H27 H 0.6305 -0.0179 1.0781
H28 H 0.7256 -0.0281 1.0278
H29 H 0.6111 0.0013 0.9666
C26 C 0.41599(19) 0.31490(17) 0.9225(2)
H30 H 0.4228 0.2958 0.8589
C27 C 0.2971(2) 0.3322(2) 0.9134(2)
H31 H 0.2582 0.2811 0.9084
H32 H 0.2679 0.3649 0.8562
H33 H 0.2898 0.3618 0.9700
C28 C 0.4786(2) 0.39468(19) 0.9463(3)
H34 H 0.4775 0.4126 1.0104
H35 H 0.4458 0.4361 0.8995
H36 H 0.5523 0.3860 0.9439
O1 O 0.74429(15) 0.24935(12) 0.69832(13)
H37 H 0.7267(18) 0.2873(14) 0.9972(17)
S1 S 0.30809(5) 0.10661(4) 0.64971(5)
C29 C 0.2115(2) 0.12648(17) 0.7194(2)
F1 F 0.25983(18) 0.15111(15) 0.80688(14)
F2 F 0.14203(17) 0.18283(13) 0.67873(17)
F3 F 0.15579(16) 0.06114(13) 0.72866(17)
O2 O 0.38594(15) 0.05553(12) 0.71224(15)
O3 O 0.34600(17) 0.18704(13) 0.63561(18)
O4 O 0.24545(17) 0.07073(16) 0.56264(16)
loop_
_geom_bond_atom_site_label_1
_geom_bond_atom_site_label_2
_geom_bond_site_symmetry_1
_geom_bond_site_symmetry_2
N1 C1 1_555 1_555
N2 C2 1_555 1_555
C1 C4 1_555 1_555
C2 N1 1_555 1_555
C3 N2 1_555 1_555
H1 C3 1_555 1_555
C4 C3 1_555 1_555
H2 C4 1_555 1_555
C5 N1 1_555 1_555
C6 C5 1_555 1_555
C7 C6 1_555 1_555
H3 C7 1_555 1_555
C8 C7 1_555 1_555
H4 C8 1_555 1_555
C9 C8 1_555 1_555
H5 C9 1_555 1_555
C10 C5 1_555 1_555
C11 C6 1_555 1_555
H6 C11 1_555 1_555
C12 C11 1_555 1_555
H7 C12 1_555 1_555
H8 C12 1_555 1_555
H9 C12 1_555 1_555
C13 C11 1_555 1_555
H10 C13 1_555 1_555
H11 C13 1_555 1_555
H12 C13 1_555 1_555
C14 C10 1_555 1_555
H13 C14 1_555 1_555
C15 C14 1_555 1_555
H14 C15 1_555 1_555
H15 C15 1_555 1_555
H16 C15 1_555 1_555
C16 C14 1_555 1_555
H17 C16 1_555 1_555
H18 C16 1_555 1_555
H19 C16 1_555 1_555
C17 N2 1_555 1_555
C18 C17 1_555 1_555
C19 C18 1_555 1_555
H20 C19 1_555 1_555
C20 C19 1_555 1_555
H21 C20 1_555 1_555
C21 C20 1_555 1_555
H22 C21 1_555 1_555
C22 C17 1_555 1_555
C23 C18 1_555 1_555
H23 C23 1_555 1_555
C24 C23 1_555 1_555
H24 C24 1_555 1_555
H25 C24 1_555 1_555
H26 C24 1_555 1_555
C25 C23 1_555 1_555
H27 C25 1_555 1_555
H28 C25 1_555 1_555
H29 C25 1_555 1_555
C26 C22 1_555 1_555
H30 C26 1_555 1_555
C27 C26 1_555 1_555
H31 C27 1_555 1_555
H32 C27 1_555 1_555
H33 C27 1_555 1_555
C28 C26 1_555 1_555
H34 C28 1_555 1_555
H35 C28 1_555 1_555
H36 C28 1_555 1_555
O1 C1 1_555 1_555
H37 C2 1_555 1_555
S1 C29 1_555 1_555
C29 F1 1_555 1_555
F2 C29 1_555 1_555
F3 C29 1_555 1_555
O2 S1 1_555 1_555
O3 S1 1_555 1_555
O4 S1 1_555 1_555
C9 C10 1_555 1_555
C21 C22 1_555 1_555

#END
