
#######################################################################
#
#                 Cambridge Crystallographic Data Centre
#                                CCDC 
#
#######################################################################
#
# If this CIF has been generated from an entry in the Cambridge 
# Structural Database, then it will include bibliographic, chemical, 
# crystal, experimental, refinement or atomic coordinate data resulting 
# from the CCDC's data processing and validation procedures.
#
#######################################################################

data_WUZPAJ
_chemical_formula_moiety         'C27 H28 N4 O2,2(C1 H4 O1)'
_chemical_name_systematic        
"4,4'-(Pentane-3,3-diylbis(1H-pyrrole-5,2-diylmethylylidenenitrilo))diphenol methanol solvate"
_symmetry_cell_setting           orthorhombic
_symmetry_space_group_name_H-M   'P c c n'
_symmetry_Int_Tables_number      56
_space_group_name_Hall           '-P 2ab 2ac'
loop_
_symmetry_equiv_pos_site_id
_symmetry_equiv_pos_as_xyz
1 x,y,z
2 1/2-x,1/2-y,z
3 -x,1/2+y,1/2-z
4 1/2+x,-y,1/2-z
5 -x,-y,-z
6 1/2+x,1/2+y,-z
7 x,1/2-y,1/2+z
8 1/2-x,y,1/2+z
_cell_length_a                   18.094(2)
_cell_length_b                   11.6890(16)
_cell_length_c                   13.3629(19)
_cell_angle_alpha                90
_cell_angle_beta                 90
_cell_angle_gamma                90
_cell_volume                     2826.26
_exptl_crystal_colour            yellow
_exptl_crystal_description       block
_cell_formula_units_Z            4
loop_
_atom_site_label
_atom_site_type_symbol
_atom_site_fract_x
_atom_site_fract_y
_atom_site_fract_z
N1 N 0.73197(11) -0.08436(16) 0.21645(14)
H1 H 0.6848 -0.0829 0.2246
N2 N 0.66830(14) 0.09280(19) 0.09288(18)
O1 O 0.53139(15) 0.4416(3) -0.1220(2)
H2 H 0.5489 0.4497 -0.1781
C1 C 0.7500 -0.2500 0.3328(2)
C2 C 0.68638(17) -0.2038(3) 0.3985(2)
H4 H 0.7035 -0.1358 0.4331
H5 H 0.6460 -0.1811 0.3552
C3 C 0.6571(2) -0.2875(3) 0.4754(3)
H6 H 0.6437 -0.3578 0.4429
H7 H 0.6143 -0.2555 0.5075
H8 H 0.6945 -0.3023 0.5246
C4 C 0.77896(14) -0.1564(2) 0.26485(18)
C5 C 0.77056(15) -0.0144(2) 0.1529(2)
C6 C 0.84403(17) -0.0434(3) 0.1620(3)
H9 H 0.8833 -0.0102 0.1277
C7 C 0.84883(16) -0.1313(3) 0.2319(2)
H10 H 0.8921 -0.1670 0.2527
C8 C 0.73667(16) 0.0713(2) 0.0920(2)
H11 H 0.7667 0.1135 0.0492
C9 C 0.63658(17) 0.1793(2) 0.0313(2)
C10 C 0.57678(18) 0.2417(3) 0.0730(3)
H12 H 0.5601 0.2234 0.1368
C11 C 0.54305(19) 0.3288(3) 0.0209(3)
H13 H 0.5043 0.3699 0.0491
C12 C 0.56789(18) 0.3533(3) -0.0730(3)
C13 C 0.62374(17) 0.2937(3) -0.1176(2)
H14 H 0.6390 0.3117 -0.1822
C14 C 0.65813(17) 0.2036(3) -0.0634(2)
H15 H 0.6956 0.1612 -0.0931
N1A N 0.76803(11) -0.41564(16) 0.21645(14)
H1A H 0.8152 -0.4171 0.2246
N2A N 0.83170(14) -0.59280(19) 0.09288(18)
O1A O 0.96861(15) -0.9416(3) -0.1220(2)
H2A H 0.9511 -0.9497 -0.1781
C2A C 0.81362(17) -0.2962(3) 0.3985(2)
H4A H 0.7965 -0.3642 0.4331
H5A H 0.8540 -0.3189 0.3552
C3A C 0.8429(2) -0.2125(3) 0.4754(3)
H6A H 0.8563 -0.1422 0.4429
H7A H 0.8857 -0.2445 0.5075
H8A H 0.8055 -0.1977 0.5246
C4A C 0.72104(14) -0.3436(2) 0.26485(18)
C5A C 0.72944(15) -0.4856(2) 0.1529(2)
C6A C 0.65597(17) -0.4566(3) 0.1620(3)
H9A H 0.6167 -0.4898 0.1277
C7A C 0.65117(16) -0.3687(3) 0.2319(2)
H10A H 0.6079 -0.3330 0.2527
C8A C 0.76333(16) -0.5713(2) 0.0920(2)
H11A H 0.7333 -0.6135 0.0492
C9A C 0.86342(17) -0.6793(2) 0.0313(2)
C10A C 0.92322(18) -0.7417(3) 0.0730(3)
H12A H 0.9399 -0.7234 0.1368
C11A C 0.95695(19) -0.8288(3) 0.0209(3)
H13A H 0.9957 -0.8699 0.0491
C12A C 0.93211(18) -0.8533(3) -0.0730(3)
C13A C 0.87626(17) -0.7937(3) -0.1176(2)
H14A H 0.8610 -0.8117 -0.1822
C14A C 0.84187(17) -0.7036(3) -0.0634(2)
H15A H 0.8044 -0.6612 -0.0931
O2 O 0.57524(11) 0.5262(2) 0.70649(16)
H3 H 0.5942 0.4777 0.6703
C15 C 0.51154(16) 0.5750(4) 0.6566(3)
H16 H 0.4692 0.5699 0.6997
H17 H 0.5020 0.5337 0.5959
H18 H 0.5211 0.6539 0.6411
loop_
_geom_bond_atom_site_label_1
_geom_bond_atom_site_label_2
_geom_bond_site_symmetry_1
_geom_bond_site_symmetry_2
N1 H1 1_555 1_555
N2 C8 1_555 1_555
O1 H2 1_555 1_555
O2 H3 1_555 1_555
C1 C2 1_555 1_555
C2 H4 1_555 1_555
H5 C2 1_555 1_555
C3 C2 1_555 1_555
H6 C3 1_555 1_555
H7 C3 1_555 1_555
H8 C3 1_555 1_555
C4 N1 1_555 1_555
C5 N1 1_555 1_555
C6 C5 1_555 1_555
H9 C6 1_555 1_555
C7 C4 1_555 1_555
H10 C7 1_555 1_555
C8 C5 1_555 1_555
H11 C8 1_555 1_555
C9 N2 1_555 1_555
C10 C9 1_555 1_555
H12 C10 1_555 1_555
C11 C10 1_555 1_555
H13 C11 1_555 1_555
C12 O1 1_555 1_555
C13 C12 1_555 1_555
H14 C13 1_555 1_555
C14 C9 1_555 1_555
H15 C14 1_555 1_555
C15 O2 1_555 1_555
H16 C15 1_555 1_555
H17 C15 1_555 1_555
H18 C15 1_555 1_555
N1A H1A 1_555 1_555
N2A C8A 1_555 1_555
O1A H2A 1_555 1_555
C2A C1 1_555 1_555
H4A C2A 1_555 1_555
H5A C2A 1_555 1_555
C3A C2A 1_555 1_555
H6A C3A 1_555 1_555
H7A C3A 1_555 1_555
H8A C3A 1_555 1_555
C4A C1 1_555 1_555
C5A N1A 1_555 1_555
C6A C5A 1_555 1_555
H9A C6A 1_555 1_555
C7A C4A 1_555 1_555
H10A C7A 1_555 1_555
C8A C5A 1_555 1_555
H11A C8A 1_555 1_555
C9A N2A 1_555 1_555
C10A C9A 1_555 1_555
H12A C10A 1_555 1_555
C11A C10A 1_555 1_555
H13A C11A 1_555 1_555
C12A O1A 1_555 1_555
C13A C12A 1_555 1_555
H14A C13A 1_555 1_555
C14A C9A 1_555 1_555
H15A C14A 1_555 1_555
C1 C4 1_555 1_555
C6 C7 1_555 1_555
C11 C12 1_555 1_555
C13 C14 1_555 1_555
N1A C4A 1_555 1_555
C6A C7A 1_555 1_555
C11A C12A 1_555 1_555
C13A C14A 1_555 1_555

#END
