
#######################################################################
#
#                 Cambridge Crystallographic Data Centre
#                                CCDC 
#
#######################################################################
#
# If this CIF has been generated from an entry in the Cambridge 
# Structural Database, then it will include bibliographic, chemical, 
# crystal, experimental, refinement or atomic coordinate data resulting 
# from the CCDC's data processing and validation procedures.
#
#######################################################################

data_WUZPEO
_chemical_formula_moiety         'C19 H17 N1 O3'
_chemical_name_systematic        
2,4-dimethyl-4-(2-oxo-2-phenylethyl)isoquinoline-1,3(2H,4H)-dione
_symmetry_cell_setting           monoclinic
_symmetry_space_group_name_H-M   'P 21/c'
_symmetry_Int_Tables_number      14
_space_group_name_Hall           '-P 2ybc'
loop_
_symmetry_equiv_pos_site_id
_symmetry_equiv_pos_as_xyz
1 x,y,z
2 -x,1/2+y,1/2-z
3 -x,-y,-z
4 x,1/2-y,1/2+z
_cell_length_a                   12.8653(12)
_cell_length_b                   9.0875(9)
_cell_length_c                   15.0355(14)
_cell_angle_alpha                90
_cell_angle_beta                 115.0140(10)
_cell_angle_gamma                90
_cell_volume                     1592.97
_exptl_crystal_colour            colorless
_exptl_crystal_description       prism
_cell_formula_units_Z            4
loop_
_atom_site_label
_atom_site_type_symbol
_atom_site_fract_x
_atom_site_fract_y
_atom_site_fract_z
O1 O 0.34597(14) 0.45117(19) 0.45270(11)
O2 O 0.08681(15) 0.39223(15) 0.29063(10)
O3 O 0.14801(15) 0.81712(16) 0.16580(11)
N1 N 0.10767(15) 0.60832(17) 0.22673(11)
C1 C 0.35747(16) 0.3393(2) 0.59923(14)
C2 C 0.47285(19) 0.3026(3) 0.63241(18)
H1 H 0.5133 0.3294 0.5963
C3 C 0.5270(2) 0.2260(3) 0.7196(2)
H2 H 0.6043 0.2024 0.7419
C4 C 0.4688(3) 0.1839(3) 0.7741(2)
H3 H 0.5067 0.1328 0.8326
C5 C 0.3553(2) 0.2174(3) 0.74181(18)
H4 H 0.3152 0.1883 0.7778
C6 C 0.30002(19) 0.2955(2) 0.65482(16)
H5 H 0.2228 0.3188 0.6334
C7 C 0.29989(16) 0.4270(2) 0.50732(14)
C8 C 0.18152(15) 0.4853(2) 0.48434(12)
H6 H 0.1829 0.5310 0.5431
H7 H 0.1291 0.4026 0.4685
C9 C 0.13361(16) 0.59613(19) 0.40085(13)
C10 C 0.01198(16) 0.6398(2) 0.39062(14)
H8 H 0.0185 0.6883 0.4495
H9 H -0.0342 0.5530 0.3803
H10 H -0.0233 0.7051 0.3358
C11 C 0.11146(16) 0.52128(19) 0.30405(13)
C12 C 0.0573(3) 0.5443(3) 0.12770(15)
H11 H 0.0598 0.6153 0.0814
H12 H -0.0209 0.5171 0.1108
H13 H 0.1002 0.4586 0.1262
C13 C 0.15181(17) 0.7495(2) 0.23769(14)
C14 C 0.20623(17) 0.81098(19) 0.33755(14)
C15 C 0.2629(2) 0.9456(2) 0.35097(17)
H14 H 0.2634 0.9952 0.2971
C16 C 0.3177(3) 1.0055(3) 0.44266(19)
H15 H 0.3558 1.0950 0.4512
C17 C 0.3159(2) 0.9312(3) 0.52299(18)
H16 H 0.3533 0.9711 0.5856
C18 C 0.2589(2) 0.7986(2) 0.51023(15)
H17 H 0.2574 0.7507 0.5643
C19 C 0.20379(16) 0.7357(2) 0.41766(13)
loop_
_geom_bond_atom_site_label_1
_geom_bond_atom_site_label_2
_geom_bond_site_symmetry_1
_geom_bond_site_symmetry_2
O1 C7 1_555 1_555
O2 C11 1_555 1_555
O3 C13 1_555 1_555
N1 C11 1_555 1_555
C1 C2 1_555 1_555
C2 H1 1_555 1_555
C3 C2 1_555 1_555
H2 C3 1_555 1_555
C4 C3 1_555 1_555
H3 C4 1_555 1_555
C5 C4 1_555 1_555
H4 C5 1_555 1_555
C6 C1 1_555 1_555
H5 C6 1_555 1_555
C7 C1 1_555 1_555
C8 C7 1_555 1_555
H6 C8 1_555 1_555
H7 C8 1_555 1_555
C9 C8 1_555 1_555
C10 C9 1_555 1_555
H8 C10 1_555 1_555
H9 C10 1_555 1_555
H10 C10 1_555 1_555
C11 C9 1_555 1_555
C12 N1 1_555 1_555
H11 C12 1_555 1_555
H12 C12 1_555 1_555
H13 C12 1_555 1_555
C13 N1 1_555 1_555
C14 C13 1_555 1_555
C15 C14 1_555 1_555
H14 C15 1_555 1_555
C16 C15 1_555 1_555
H15 C16 1_555 1_555
C17 C16 1_555 1_555
H16 C17 1_555 1_555
C18 C17 1_555 1_555
H17 C18 1_555 1_555
C19 C9 1_555 1_555
C5 C6 1_555 1_555
C14 C19 1_555 1_555
C18 C19 1_555 1_555

#END
