
#######################################################################
#
#                 Cambridge Crystallographic Data Centre
#                                CCDC 
#
#######################################################################
#
# If this CIF has been generated from an entry in the Cambridge 
# Structural Database, then it will include bibliographic, chemical, 
# crystal, experimental, refinement or atomic coordinate data resulting 
# from the CCDC's data processing and validation procedures.
#
#######################################################################

data_WUZQEO
_chemical_formula_moiety         'C16 H20 N2 O3'
_chemical_name_systematic        2,2'-(Oxybis(ethane-2,1-diyloxy))dianiline
_symmetry_cell_setting           triclinic
_symmetry_space_group_name_H-M   'P 1'
_symmetry_Int_Tables_number      1
_space_group_name_Hall           'P 1'
loop_
_symmetry_equiv_pos_site_id
_symmetry_equiv_pos_as_xyz
1 x,y,z
_cell_length_a                   7.805(3)
_cell_length_b                   7.911(4)
_cell_length_c                   12.930(6)
_cell_angle_alpha                106.190(5)
_cell_angle_beta                 92.924(5)
_cell_angle_gamma                94.710(5)
_cell_volume                     761.835
_cell_formula_units_Z            2
loop_
_atom_site_label
_atom_site_type_symbol
_atom_site_fract_x
_atom_site_fract_y
_atom_site_fract_z
C1 C 0.6160(5) -0.3450(4) 0.9434(3)
C2 C 0.5635(5) -0.3898(5) 1.0343(3)
H1 H 0.5258 -0.5068 1.0286
C3 C 0.5662(6) -0.2629(6) 1.1334(3)
H2 H 0.5301 -0.2954 1.1933
C4 C 0.6215(6) -0.0912(5) 1.1431(3)
H3 H 0.6236 -0.0063 1.2096
C5 C 0.6750(5) -0.0426(4) 1.0537(3)
H4 H 0.7146 0.0745 1.0608
C6 C 0.6696(5) -0.1660(4) 0.9551(3)
C7 C 0.7641(5) 0.0509(4) 0.8681(3)
H5 H 0.8707 0.0918 0.9134
H6 H 0.6754 0.1233 0.9002
C8 C 0.7877(5) 0.0661(4) 0.7574(3)
H7 H 0.8265 0.1873 0.7608
H8 H 0.8742 -0.0088 0.7247
C9 C 0.6035(5) 0.0888(5) 0.6073(3)
H9 H 0.6391 0.2146 0.6337
H10 H 0.4815 0.0745 0.5846
C10 C 0.6999(5) 0.0118(5) 0.5110(3)
H11 H 0.6907 -0.1161 0.4951
H12 H 0.6513 0.0416 0.4486
C11 C 0.9844(5) 0.0393(4) 0.4505(3)
C12 C 1.1460(5) 0.1346(4) 0.4718(3)
C13 C 1.2624(6) 0.1013(5) 0.3926(3)
H13 H 1.3721 0.1621 0.4053
C14 C 1.2135(7) -0.0238(7) 0.2938(4)
H14 H 1.2908 -0.0436 0.2403
C15 C 1.0566(7) -0.1172(6) 0.2738(3)
H15 H 1.0274 -0.2019 0.2079
C16 C 0.9386(5) -0.0855(5) 0.3529(3)
H16 H 0.8298 -0.1481 0.3398
N1 N 1.1919(4) 0.2561(4) 0.5736(3)
H17 H 1.2936 0.3115 0.5877
H18 H 1.1182 0.2752 0.6217
N2 N 0.6178(4) -0.4719(4) 0.8445(2)
H19 H 0.5859 -0.5811 0.8384
H20 H 0.6508 -0.4412 0.7893
O1 O 0.8774(3) 0.0821(3) 0.53390(17)
O2 O 0.7150(3) -0.1300(3) 0.86064(18)
O3 O 0.6271(3) 0.0127(3) 0.69418(18)
C17 C 0.2352(5) 0.2502(4) 0.8959(3)
C18 C 0.2453(6) 0.1750(5) 0.9802(3)
H21 H 0.3103 0.0799 0.9747
C19 C 0.1612(7) 0.2378(6) 1.0722(3)
H22 H 0.1730 0.1879 1.1290
C20 C 0.0588(7) 0.3756(6) 1.0801(3)
H23 H -0.0031 0.4143 1.1404
C21 C 0.0497(5) 0.4550(5) 0.9972(3)
H24 H -0.0163 0.5493 1.0026
C22 C 0.1384(5) 0.3941(4) 0.9067(3)
C23 C 0.1059(6) 0.6467(4) 0.8408(3)
H25 H 0.1588 0.7140 0.9114
H26 H -0.0174 0.6555 0.8410
C24 C 0.1768(6) 0.7221(5) 0.7569(3)
H27 H 0.1760 0.8497 0.7800
H28 H 0.2955 0.6961 0.7489
C25 C 0.1126(5) 0.7527(5) 0.5809(3)
H29 H 0.1776 0.8648 0.6184
H30 H 0.0028 0.7779 0.5530
C26 C 0.2086(5) 0.6599(5) 0.4884(3)
H31 H 0.1504 0.5431 0.4536
H32 H 0.2134 0.7261 0.4355
C27 C 0.4876(4) 0.5538(4) 0.4571(2)
C28 C 0.6436(5) 0.5296(4) 0.5063(3)
C29 C 0.7585(5) 0.4317(4) 0.4426(3)
H33 H 0.8609 0.4098 0.4741
C30 C 0.7207(6) 0.3653(5) 0.3304(3)
H34 H 0.7989 0.3006 0.2879
C31 C 0.5690(6) 0.3953(5) 0.2832(3)
H35 H 0.5456 0.3528 0.2088
C32 C 0.4498(5) 0.4898(5) 0.3468(3)
H36 H 0.3463 0.5093 0.3153
N3 N 0.3269(4) 0.1986(4) 0.8058(3)
H37 H 0.3941 0.1162 0.8004
H38 H 0.3169 0.2489 0.7551
N4 N 0.6777(4) 0.5976(4) 0.6176(2)
H39 H 0.7718 0.5791 0.6483
H40 H 0.6046 0.6581 0.6557
O4 O 0.1379(4) 0.4651(3) 0.82063(18)
O5 O 0.3795(3) 0.6455(3) 0.52863(18)
O6 O 0.0815(3) 0.6536(3) 0.65678(18)
loop_
_geom_bond_atom_site_label_1
_geom_bond_atom_site_label_2
_geom_bond_site_symmetry_1
_geom_bond_site_symmetry_2
C1 C2 1_555 1_555
C2 H1 1_555 1_555
C3 C2 1_555 1_555
H2 C3 1_555 1_555
C4 C3 1_555 1_555
H3 C4 1_555 1_555
C5 C4 1_555 1_555
H4 C5 1_555 1_555
C6 C1 1_555 1_555
C7 H5 1_555 1_555
H6 C7 1_555 1_555
C8 C7 1_555 1_555
H7 C8 1_555 1_555
H8 C8 1_555 1_555
C9 H9 1_555 1_555
H10 C9 1_555 1_555
C10 C9 1_555 1_555
H11 C10 1_555 1_555
H12 C10 1_555 1_555
C11 C12 1_555 1_555
C12 C13 1_555 1_555
C13 H13 1_555 1_555
C14 C13 1_555 1_555
H14 C14 1_555 1_555
C15 C14 1_555 1_555
H15 C15 1_555 1_555
C16 C11 1_555 1_555
H16 C16 1_555 1_555
N1 C12 1_555 1_555
H17 N1 1_555 1_555
H18 N1 1_555 1_555
N2 C1 1_555 1_555
H19 N2 1_555 1_555
H20 N2 1_555 1_555
O1 C10 1_555 1_555
O2 C6 1_555 1_555
O3 C8 1_555 1_555
C17 C18 1_555 1_555
C18 H21 1_555 1_555
C19 C18 1_555 1_555
H22 C19 1_555 1_555
C20 C19 1_555 1_555
H23 C20 1_555 1_555
C21 C20 1_555 1_555
H24 C21 1_555 1_555
C22 C17 1_555 1_555
C23 H25 1_555 1_555
H26 C23 1_555 1_555
C24 C23 1_555 1_555
H27 C24 1_555 1_555
H28 C24 1_555 1_555
C25 H29 1_555 1_555
H30 C25 1_555 1_555
C26 C25 1_555 1_555
H31 C26 1_555 1_555
H32 C26 1_555 1_555
C27 C28 1_555 1_555
C28 C29 1_555 1_555
C29 H33 1_555 1_555
C30 C29 1_555 1_555
H34 C30 1_555 1_555
C31 C30 1_555 1_555
H35 C31 1_555 1_555
C32 C27 1_555 1_555
H36 C32 1_555 1_555
N3 C17 1_555 1_555
H37 N3 1_555 1_555
H38 N3 1_555 1_555
N4 C28 1_555 1_555
H39 N4 1_555 1_555
H40 N4 1_555 1_555
O4 C22 1_555 1_555
O5 C26 1_555 1_555
O6 C24 1_555 1_555
C5 C6 1_555 1_555
C7 O2 1_555 1_555
C9 O3 1_555 1_555
C11 O1 1_555 1_555
C15 C16 1_555 1_555
C21 C22 1_555 1_555
C23 O4 1_555 1_555
C25 O6 1_555 1_555
C27 O5 1_555 1_555
C31 C32 1_555 1_555

#END
