
#######################################################################
#
#                 Cambridge Crystallographic Data Centre
#                                CCDC 
#
#######################################################################
#
# If this CIF has been generated from an entry in the Cambridge 
# Structural Database, then it will include bibliographic, chemical, 
# crystal, experimental, refinement or atomic coordinate data resulting 
# from the CCDC's data processing and validation procedures.
#
#######################################################################

data_WUZROA
_chemical_compound_source        
'soil-derived fungus Aspergillus sclerotiorum PSU-RSPG178'
_chemical_name_common            'alpha,beta-dehydrodihydromonacolin K'
_chemical_formula_moiety         'C24 H36 O4'
_chemical_name_systematic        
'3,7-dimethyl-8-(2-(6-oxo-3,6-dihydro-2H-pyran-2-yl)ethyl)-1,2,3,4,4a,7,8,8a-octahydronaphthalen-1-yl 2-methylbutanoate'
_chemical_properties_biological  'cytotoxic activity'
_symmetry_cell_setting           orthorhombic
_symmetry_space_group_name_H-M   'P 21 21 21'
_symmetry_Int_Tables_number      19
_space_group_name_Hall           'P 2ac 2ab'
loop_
_symmetry_equiv_pos_site_id
_symmetry_equiv_pos_as_xyz
1 x,y,z
2 1/2-x,-y,1/2+z
3 -x,1/2+y,1/2-z
4 1/2+x,1/2-y,-z
_cell_length_a                   5.7192(4)
_cell_length_b                   19.6161(13)
_cell_length_c                   19.9873(12)
_cell_angle_alpha                90
_cell_angle_beta                 90
_cell_angle_gamma                90
_cell_volume                     2242.34
_exptl_crystal_colour            colorless
_exptl_crystal_description       rod
_chemical_melting_point          '125-127 deg.C'
_cell_formula_units_Z            4
loop_
_atom_site_label
_atom_site_type_symbol
_atom_site_fract_x
_atom_site_fract_y
_atom_site_fract_z
C1 C 0.7474(9) 0.4669(3) 0.8504(3)
H1 H 0.8808 0.4829 0.8768
C2 C 0.5976(13) 0.6234(4) 0.9589(4)
C3 C 0.7824(15) 0.6376(4) 1.0107(4)
H2 H 0.9259 0.6530 0.9886
C4 C 0.8418(11) 0.4098(3) 0.8037(3)
H3 H 0.9418 0.3804 0.8311
C5 C 0.9926(12) 0.4390(4) 0.7496(3)
H4 H 1.0804 0.4089 0.7239
C6 C 0.828(2) 0.5670(6) 1.0466(5)
H5 H 0.6872 0.5537 1.0703
H6 H 0.8586 0.5327 1.0128
C7 C 1.023(2) 0.5674(7) 1.0941(5)
H7 H 1.1541 0.5909 1.0747
H8 H 1.0675 0.5213 1.1044
H9 H 0.9765 0.5902 1.1345
C8 C 1.0086(11) 0.5045(4) 0.7361(3)
H10 H 1.1100 0.5177 0.7021
C9 C 0.8768(10) 0.5585(3) 0.7712(3)
H11 H 0.9810 0.5780 0.8050
C10 C 0.8002(12) 0.6156(4) 0.7262(3)
H12 H 0.6990 0.5970 0.6918
H13 H 0.9371 0.6343 0.7042
C11 C 0.6721(11) 0.6732(3) 0.7610(4)
H14 H 0.6014 0.7014 0.7259
C12 C 0.4731(10) 0.6447(3) 0.8028(3)
H15 H 0.3474 0.6313 0.7730
H16 H 0.4139 0.6807 0.8314
C13 C 0.5365(9) 0.5832(3) 0.8470(3)
H17 H 0.3930 0.5639 0.8660
C14 C 0.6655(10) 0.5279(3) 0.8082(3)
H18 H 0.5577 0.5104 0.7743
C15 C 0.5670(10) 0.4406(3) 0.9001(3)
H19 H 0.5011 0.4789 0.9243
H20 H 0.4410 0.4187 0.8757
C16 C 0.6692(10) 0.3902(3) 0.9500(3)
H21 H 0.7609 0.3568 0.9257
H22 H 0.7748 0.4145 0.9795
C17 C 0.4912(11) 0.3530(3) 0.9922(3)
H23 H 0.3975 0.3238 0.9628
C18 C 0.3262(11) 0.3988(3) 1.0315(3)
H24 H 0.4148 0.4323 1.0566
H25 H 0.2220 0.4226 1.0012
C19 C 0.1899(12) 0.3556(4) 1.0777(4)
H26 H 0.0414 0.3696 1.0908
C20 C 0.2731(13) 0.2982(4) 1.1005(3)
H27 H 0.1789 0.2705 1.1270
C21 C 0.5092(13) 0.2768(3) 1.0854(3)
C22 C 0.8339(14) 0.7188(4) 0.8005(4)
H28 H 0.9207 0.6919 0.8320
H29 H 0.7437 0.7524 0.8240
H30 H 0.9403 0.7412 0.7705
C23 C 0.698(2) 0.6919(6) 1.0585(6)
H31 H 0.6706 0.7335 1.0344
H32 H 0.8142 0.6996 1.0923
H33 H 0.5551 0.6772 1.0792
C24 C 0.6538(14) 0.3647(3) 0.7733(4)
H34 H 0.5393 0.3926 0.7513
H35 H 0.5797 0.3386 0.8080
H36 H 0.7235 0.3344 0.7413
O1 O 0.6911(7) 0.60425(19) 0.90151(19)
O2 O 0.3921(11) 0.6267(5) 0.9676(3)
O3 O 0.6238(7) 0.30971(18) 1.03728(19)
O4 O 0.6124(10) 0.2335(2) 1.1165(2)
loop_
_geom_bond_atom_site_label_1
_geom_bond_atom_site_label_2
_geom_bond_site_symmetry_1
_geom_bond_site_symmetry_2
C1 H1 1_555 1_555
C2 C3 1_555 1_555
C3 H2 1_555 1_555
C4 C1 1_555 1_555
H3 C4 1_555 1_555
C5 C4 1_555 1_555
H4 C5 1_555 1_555
C6 C3 1_555 1_555
H5 C6 1_555 1_555
H6 C6 1_555 1_555
C7 C6 1_555 1_555
H7 C7 1_555 1_555
H8 C7 1_555 1_555
H9 C7 1_555 1_555
C8 C5 1_555 1_555
H10 C8 1_555 1_555
C9 C8 1_555 1_555
H11 C9 1_555 1_555
C10 C9 1_555 1_555
H12 C10 1_555 1_555
H13 C10 1_555 1_555
C11 C10 1_555 1_555
H14 C11 1_555 1_555
C12 C11 1_555 1_555
H15 C12 1_555 1_555
H16 C12 1_555 1_555
C13 C12 1_555 1_555
H17 C13 1_555 1_555
C14 C1 1_555 1_555
H18 C14 1_555 1_555
C15 C1 1_555 1_555
H19 C15 1_555 1_555
H20 C15 1_555 1_555
C16 C15 1_555 1_555
H21 C16 1_555 1_555
H22 C16 1_555 1_555
C17 C16 1_555 1_555
H23 C17 1_555 1_555
C18 C17 1_555 1_555
H24 C18 1_555 1_555
H25 C18 1_555 1_555
C19 C18 1_555 1_555
H26 C19 1_555 1_555
C20 C19 1_555 1_555
H27 C20 1_555 1_555
C21 C20 1_555 1_555
C22 C11 1_555 1_555
H28 C22 1_555 1_555
H29 C22 1_555 1_555
H30 C22 1_555 1_555
C23 C3 1_555 1_555
H31 C23 1_555 1_555
H32 C23 1_555 1_555
H33 C23 1_555 1_555
C24 C4 1_555 1_555
H34 C24 1_555 1_555
H35 C24 1_555 1_555
H36 C24 1_555 1_555
O1 C2 1_555 1_555
O2 C2 1_555 1_555
O3 C17 1_555 1_555
O4 C21 1_555 1_555
C9 C14 1_555 1_555
C13 C14 1_555 1_555
C13 O1 1_555 1_555
C21 O3 1_555 1_555

#END
