
#######################################################################
#
#                 Cambridge Crystallographic Data Centre
#                                CCDC 
#
#######################################################################
#
# If this CIF has been generated from an entry in the Cambridge 
# Structural Database, then it will include bibliographic, chemical, 
# crystal, experimental, refinement or atomic coordinate data resulting 
# from the CCDC's data processing and validation procedures.
#
#######################################################################

data_WUZROZ01
_chemical_formula_moiety         'C5 H6 N6,H2 O1'
_chemical_name_systematic        '9H-Purine-2,6-diamine monohydrate'
_symmetry_cell_setting           triclinic
_symmetry_space_group_name_H-M   'P -1'
_symmetry_Int_Tables_number      2
_space_group_name_Hall           '-P 1'
loop_
_symmetry_equiv_pos_site_id
_symmetry_equiv_pos_as_xyz
1 x,y,z
2 -x,-y,-z
_cell_length_a                   8.861(7)
_cell_length_b                   9.424(6)
_cell_length_c                   9.490(6)
_cell_angle_alpha                69.25(6)
_cell_angle_beta                 73.03(6)
_cell_angle_gamma                73.75(6)
_cell_volume                     694.876
_exptl_crystal_colour            colorless
_exptl_crystal_description       chunk
_cell_formula_units_Z            4
loop_
_atom_site_label
_atom_site_type_symbol
_atom_site_fract_x
_atom_site_fract_y
_atom_site_fract_z
N1 N 0.79479(19) 0.21375(18) 0.06135(18)
N2 N 1.05732(19) 0.26189(18) -0.09425(18)
C1 C 0.7804(2) 0.1386(2) -0.0296(2)
N3 N 0.9346(2) 0.3487(2) 0.1204(2)
N4 N 0.6478(2) 0.0773(2) 0.0082(2)
N5 N 0.92573(19) 0.05147(19) -0.27133(18)
N6 N 1.1401(2) 0.15405(19) -0.31118(19)
C2 C 1.0361(2) 0.1861(2) -0.1825(2)
C3 C 0.9308(2) 0.2714(2) 0.0254(2)
C4 C 0.9047(2) 0.1229(2) -0.1585(2)
C5 C 1.0678(2) 0.0732(2) -0.3591(2)
H1 H 1.028(3) 0.372(3) 0.113(3)
H2 H 1.119(3) 0.037(3) -0.449(3)
H3 H 0.637(3) 0.031(3) -0.053(3)
H4 H 0.565(3) 0.100(3) 0.086(3)
H5 H 0.866(3) 0.331(3) 0.212(3)
H6 H 1.233(3) 0.177(3) -0.350(3)
N7 N 0.70970(19) 0.30221(18) 0.43661(18)
N8 N 0.45476(19) 0.23863(18) 0.59766(18)
N9 N 0.5761(2) 0.1591(2) 0.3795(2)
C6 C 0.7218(2) 0.3781(2) 0.5290(2)
N10 N 0.57393(19) 0.45859(19) 0.77438(18)
C7 C 0.5785(2) 0.2388(2) 0.4741(2)
N11 N 0.8506(2) 0.4436(2) 0.4902(2)
N12 N 0.3660(2) 0.34563(19) 0.81569(19)
C8 C 0.5985(2) 0.3869(2) 0.6611(2)
C9 C 0.4705(2) 0.3179(2) 0.6861(2)
C10 C 0.4338(2) 0.4309(2) 0.8629(2)
H7 H 0.383(3) 0.465(3) 0.951(3)
H8 H 0.856(3) 0.502(3) 0.547(3)
H9 H 0.642(3) 0.181(3) 0.285(3)
H10 H 0.481(3) 0.144(3) 0.385(3)
H11 H 0.923(3) 0.434(3) 0.410(3)
H12 H 0.269(3) 0.321(3) 0.855(3)
O1 O 0.67488(18) -0.07070(18) -0.25571(18)
H13 H 0.772(3) -0.030(3) -0.276(3)
H14 H 0.621(4) -0.004(3) -0.300(3)
O2 O 0.81701(18) 0.61366(19) 0.73316(18)
H15 H 0.730(3) 0.564(3) 0.771(3)
H16 H 0.770(3) 0.713(3) 0.737(3)
loop_
_geom_bond_atom_site_label_1
_geom_bond_atom_site_label_2
_geom_bond_site_symmetry_1
_geom_bond_site_symmetry_2
N1 C1 1_555 1_555
N2 C2 1_555 1_555
C1 N4 1_555 1_555
N3 C3 1_555 1_555
N4 H3 1_555 1_555
N5 C4 1_555 1_555
N6 C2 1_555 1_555
C2 C4 1_555 1_555
C3 N1 1_555 1_555
C4 C1 1_555 1_555
C5 N5 1_555 1_555
H1 N3 1_555 1_555
H2 C5 1_555 1_555
H4 N4 1_555 1_555
H5 N3 1_555 1_555
H6 N6 1_555 1_555
N7 C6 1_555 1_555
N8 C7 1_555 1_555
N9 C7 1_555 1_555
C6 N11 1_555 1_555
N10 C8 1_555 1_555
C7 N7 1_555 1_555
N11 H8 1_555 1_555
N12 C9 1_555 1_555
C8 C6 1_555 1_555
C9 N8 1_555 1_555
C10 N10 1_555 1_555
H7 C10 1_555 1_555
H9 N9 1_555 1_555
H10 N9 1_555 1_555
H11 N11 1_555 1_555
H12 N12 1_555 1_555
O1 H13 1_555 1_555
H14 O1 1_555 1_555
O2 H15 1_555 1_555
H16 O2 1_555 1_555
N2 C3 1_555 1_555
N6 C5 1_555 1_555
N12 C10 1_555 1_555
C8 C9 1_555 1_555

#END
