
#######################################################################
#
#                 Cambridge Crystallographic Data Centre
#                                CCDC 
#
#######################################################################
#
# If this CIF has been generated from an entry in the Cambridge 
# Structural Database, then it will include bibliographic, chemical, 
# crystal, experimental, refinement or atomic coordinate data resulting 
# from the CCDC's data processing and validation procedures.
#
#######################################################################

data_XABDOW
_chemical_formula_moiety         'C29 H39 Mg1 O6 1+,C4 H8 O1,I1 1-'
_chemical_name_systematic        
'(9-Oxy-1H-phenalen-1-one)-tetrakis(tetrahydrofuran)-magnesium iodide tetrahydrofuran solvate'
_symmetry_cell_setting           monoclinic
_symmetry_space_group_name_H-M   'P 21/n'
_symmetry_Int_Tables_number      14
_space_group_name_Hall           '-P 2yn'
loop_
_symmetry_equiv_pos_site_id
_symmetry_equiv_pos_as_xyz
1 x,y,z
2 1/2-x,1/2+y,1/2-z
3 -x,-y,-z
4 1/2+x,1/2-y,1/2+z
_cell_length_a                   16.510(5)
_cell_length_b                   10.078(5)
_cell_length_c                   20.055(5)
_cell_angle_alpha                90
_cell_angle_beta                 90.219(5)
_cell_angle_gamma                90
_cell_volume                     3336.88
_exptl_crystal_colour            yellow
_exptl_crystal_description       block
_cell_formula_units_Z            4
_chemical_properties_physical    'Air-sensitive, Moisture-sensitive'
loop_
_atom_site_label
_atom_site_type_symbol
_atom_site_fract_x
_atom_site_fract_y
_atom_site_fract_z
Mg1 Mg 0.27692(8) 0.44294(12) 0.04508(6)
O1 O 0.33780(16) 0.5495(3) -0.02336(13)
O2 O 0.18935(16) 0.4285(3) -0.02448(13)
O3 O 0.19954(16) 0.3413(3) 0.11090(14)
O4 O 0.37293(16) 0.4683(3) 0.11267(13)
O5 O 0.33251(16) 0.2627(3) 0.02068(15)
O6 O 0.22953(18) 0.6169(3) 0.08790(14)
C1 C 0.3146(2) 0.6018(4) -0.07800(19)
C2 C 0.3674(2) 0.6969(4) -0.1099(2)
H1 H 0.4172 0.7190 -0.0887
C3 C 0.3490(2) 0.7551(4) -0.1683(2)
H2 H 0.3857 0.8175 -0.1870
C4 C 0.2751(2) 0.7249(4) -0.2031(2)
C5 C 0.2559(3) 0.7830(4) -0.2647(2)
H3 H 0.2931 0.8431 -0.2844
C6 C 0.1842(3) 0.7547(4) -0.2973(2)
H4 H 0.1726 0.7947 -0.3392
C7 C 0.1293(3) 0.6680(4) -0.2689(2)
H5 H 0.0800 0.6484 -0.2915
C8 C 0.1457(2) 0.6084(4) -0.20673(19)
C9 C 0.0879(2) 0.5225(4) -0.17564(19)
H6 H 0.0378 0.5049 -0.1974
C10 C 0.1038(2) 0.4662(4) -0.11553(19)
H7 H 0.0637 0.4112 -0.0958
C11 C 0.1790(2) 0.4866(4) -0.08053(17)
C12 C 0.2382(2) 0.5726(4) -0.11049(19)
C13 C 0.2200(2) 0.6345(3) -0.17355(19)
C14 C 0.1137(3) 0.3740(4) 0.1144(2)
H8 H 0.0934 0.4030 0.0703
H9 H 0.1045 0.4463 0.1470
C15 C 0.0713(3) 0.2489(5) 0.1363(3)
H10 H 0.0447 0.2622 0.1799
H11 H 0.0298 0.2223 0.1032
C16 C 0.1362(3) 0.1459(5) 0.1415(3)
H12 H 0.1401 0.0933 0.0999
H13 H 0.1263 0.0852 0.1794
C17 C 0.2114(3) 0.2273(4) 0.1526(2)
H14 H 0.2167 0.2535 0.2000
H15 H 0.2604 0.1775 0.1393
C18 C 0.3819(3) 0.3997(5) 0.1760(2)
H16 H 0.3824 0.3024 0.1691
H17 H 0.3367 0.4224 0.2062
C19 C 0.4606(3) 0.4449(5) 0.2048(2)
H18 H 0.5051 0.3841 0.1920
H19 H 0.4578 0.4496 0.2540
C20 C 0.4730(4) 0.5801(5) 0.1752(3)
H20 H 0.5314 0.6009 0.1713
H21 H 0.4467 0.6492 0.2027
C21 C 0.4337(3) 0.5714(5) 0.1071(2)
H22 H 0.4083 0.6571 0.0949
H23 H 0.4742 0.5481 0.0728
C22 C 0.4193(3) 0.2457(5) 0.0166(3)
H24 H 0.4412 0.2131 0.0596
H25 H 0.4458 0.3311 0.0057
C23 C 0.4338(3) 0.1474(5) -0.0368(3)
H26 H 0.4845 0.0973 -0.0288
H27 H 0.4367 0.1908 -0.0811
C24 C 0.3607(3) 0.0582(5) -0.0320(3)
H28 H 0.3694 -0.0125 0.0015
H29 H 0.3483 0.0167 -0.0756
C25 C 0.2933(3) 0.1507(4) -0.0109(3)
H30 H 0.2614 0.1801 -0.0501
H31 H 0.2565 0.1058 0.0207
C26 C 0.1926(3) 0.7242(4) 0.0514(2)
H32 H 0.1682 0.6924 0.0092
H33 H 0.2325 0.7947 0.0414
C27 C 0.1297(4) 0.7727(7) 0.0978(3)
H34 H 0.0801 0.7177 0.0945
H35 H 0.1155 0.8661 0.0880
C28 C 0.1672(3) 0.7607(5) 0.1659(3)
H36 H 0.1263 0.7343 0.1993
H37 H 0.1921 0.8458 0.1799
C29 C 0.2311(3) 0.6540(4) 0.1581(2)
H38 H 0.2851 0.6884 0.1708
H39 H 0.2184 0.5765 0.1865
I1 I 0.09960(2) 0.47929(3) 0.317046(15)
O7 O 0.6197(2) 0.5166(3) 0.46566(17)
C30 C 0.6485(3) 0.5887(5) 0.4090(3)
H40 H 0.7071 0.6076 0.4139
H41 H 0.6193 0.6741 0.4048
C31 C 0.6336(4) 0.5043(5) 0.3486(3)
H42 H 0.6147 0.5587 0.3105
H43 H 0.6834 0.4562 0.3354
C32 C 0.5698(5) 0.4108(6) 0.3706(3)
H44 H 0.5155 0.4443 0.3579
H45 H 0.5778 0.3226 0.3500
C33 C 0.5772(3) 0.4016(5) 0.4440(3)
H46 H 0.5229 0.3981 0.4646
H47 H 0.6074 0.3205 0.4567
loop_
_geom_bond_atom_site_label_1
_geom_bond_atom_site_label_2
_geom_bond_site_symmetry_1
_geom_bond_site_symmetry_2
Mg1 O1 1_555 1_555
O1 C1 1_555 1_555
O2 Mg1 1_555 1_555
O3 Mg1 1_555 1_555
O4 Mg1 1_555 1_555
O5 Mg1 1_555 1_555
O6 Mg1 1_555 1_555
C1 C2 1_555 1_555
C2 H1 1_555 1_555
C3 C2 1_555 1_555
H2 C3 1_555 1_555
C4 C3 1_555 1_555
C5 C4 1_555 1_555
H3 C5 1_555 1_555
C6 C5 1_555 1_555
H4 C6 1_555 1_555
C7 C6 1_555 1_555
H5 C7 1_555 1_555
C8 C7 1_555 1_555
C9 C8 1_555 1_555
H6 C9 1_555 1_555
C10 C9 1_555 1_555
H7 C10 1_555 1_555
C11 O2 1_555 1_555
C12 C1 1_555 1_555
C13 C4 1_555 1_555
C14 O3 1_555 1_555
H8 C14 1_555 1_555
H9 C14 1_555 1_555
C15 C14 1_555 1_555
H10 C15 1_555 1_555
H11 C15 1_555 1_555
C16 C15 1_555 1_555
H12 C16 1_555 1_555
H13 C16 1_555 1_555
C17 O3 1_555 1_555
H14 C17 1_555 1_555
H15 C17 1_555 1_555
C18 O4 1_555 1_555
H16 C18 1_555 1_555
H17 C18 1_555 1_555
C19 C18 1_555 1_555
H18 C19 1_555 1_555
H19 C19 1_555 1_555
C20 C19 1_555 1_555
H20 C20 1_555 1_555
H21 C20 1_555 1_555
C21 O4 1_555 1_555
H22 C21 1_555 1_555
H23 C21 1_555 1_555
C22 O5 1_555 1_555
H24 C22 1_555 1_555
H25 C22 1_555 1_555
C23 C22 1_555 1_555
H26 C23 1_555 1_555
H27 C23 1_555 1_555
C24 C23 1_555 1_555
H28 C24 1_555 1_555
H29 C24 1_555 1_555
C25 O5 1_555 1_555
H30 C25 1_555 1_555
H31 C25 1_555 1_555
C26 O6 1_555 1_555
H32 C26 1_555 1_555
H33 C26 1_555 1_555
C27 C26 1_555 1_555
H34 C27 1_555 1_555
H35 C27 1_555 1_555
C28 C27 1_555 1_555
H36 C28 1_555 1_555
H37 C28 1_555 1_555
C29 O6 1_555 1_555
H38 C29 1_555 1_555
H39 C29 1_555 1_555
O7 C30 1_555 1_555
C30 H40 1_555 1_555
H41 C30 1_555 1_555
C31 C30 1_555 1_555
H42 C31 1_555 1_555
H43 C31 1_555 1_555
C32 C31 1_555 1_555
H44 C32 1_555 1_555
H45 C32 1_555 1_555
C33 O7 1_555 1_555
H46 C33 1_555 1_555
H47 C33 1_555 1_555
C8 C13 1_555 1_555
C10 C11 1_555 1_555
C11 C12 1_555 1_555
C12 C13 1_555 1_555
C16 C17 1_555 1_555
C20 C21 1_555 1_555
C24 C25 1_555 1_555
C28 C29 1_555 1_555
C32 C33 1_555 1_555

#END
