
#######################################################################
#
#                 Cambridge Crystallographic Data Centre
#                                CCDC 
#
#######################################################################
#
# If this CIF has been generated from an entry in the Cambridge 
# Structural Database, then it will include bibliographic, chemical, 
# crystal, experimental, refinement or atomic coordinate data resulting 
# from the CCDC's data processing and validation procedures.
#
#######################################################################

data_XABJES
_chemical_formula_moiety         'C21 H19 N1 O1'
_chemical_name_systematic        
3-(4-(dimethylamino)phenyl)-1-(1-naphthyl)prop-2-en-1-one
_symmetry_cell_setting           monoclinic
_symmetry_space_group_name_H-M   'P 21/c'
_symmetry_Int_Tables_number      14
_space_group_name_Hall           '-P 2ybc'
loop_
_symmetry_equiv_pos_site_id
_symmetry_equiv_pos_as_xyz
1 x,y,z
2 -x,1/2+y,1/2-z
3 -x,-y,-z
4 x,1/2-y,1/2+z
_cell_length_a                   14.428(4)
_cell_length_b                   7.2739(15)
_cell_length_c                   17.186(4)
_cell_angle_alpha                90
_cell_angle_beta                 113.47(3)
_cell_angle_gamma                90
_cell_volume                     1654.42
_cell_formula_units_Z            4
loop_
_atom_site_label
_atom_site_type_symbol
_atom_site_fract_x
_atom_site_fract_y
_atom_site_fract_z
O1 O 0.7753(3) 0.6867(8) 0.5187(3)
N1 N 0.4350(4) 0.7246(9) -0.0106(3)
C1 C 0.9336(4) 0.7635(8) 0.5177(4)
C2 C 0.9930(4) 0.7220(8) 0.4731(4)
H1 H 0.9615 0.6890 0.4162
C3 C 1.0968(5) 0.7283(9) 0.5105(5)
H2 H 1.1341 0.7007 0.4786
C4 C 1.1449(5) 0.7740(10) 0.5929(5)
H3 H 1.2151 0.7700 0.6187
C5 C 1.0903(4) 0.8265(8) 0.6391(4)
C6 C 1.1414(6) 0.8873(11) 0.7256(5)
H4 H 1.2116 0.8850 0.7511
C7 C 1.0879(7) 0.9482(11) 0.7706(5)
H5 H 1.1218 0.9879 0.8263
C8 C 0.9830(6) 0.9510(11) 0.7335(4)
H6 H 0.9478 0.9940 0.7649
C9 C 0.9292(5) 0.8920(9) 0.6514(4)
H7 H 0.8589 0.8957 0.6281
C10 C 0.9823(4) 0.8252(7) 0.6026(4)
C11 C 0.8238(4) 0.7309(9) 0.4756(4)
C12 C 0.7726(4) 0.7407(9) 0.3832(4)
H8 H 0.8086 0.7849 0.3527
C13 C 0.6778(4) 0.6902(9) 0.3408(4)
H9 H 0.6452 0.6440 0.3736
C14 C 0.6175(4) 0.6964(9) 0.2505(4)
C15 C 0.6580(4) 0.7341(8) 0.1890(4)
H10 H 0.7271 0.7542 0.2070
C16 C 0.5990(4) 0.7416(8) 0.1053(4)
H11 H 0.6290 0.7626 0.0672
C17 C 0.4948(4) 0.7190(8) 0.0741(3)
C18 C 0.4535(4) 0.6785(9) 0.1328(4)
H12 H 0.3844 0.6588 0.1145
C19 C 0.5148(4) 0.6672(10) 0.2184(4)
H13 H 0.4851 0.6385 0.2560
C20 C 0.3275(5) 0.7112(12) -0.0424(5)
H14 H 0.3087 0.5874 -0.0359
H15 H 0.2988 0.7438 -0.1014
H16 H 0.3027 0.7933 -0.0114
C21 C 0.4776(5) 0.7645(10) -0.0714(4)
H17 H 0.5004 0.8898 -0.0649
H18 H 0.4271 0.7466 -0.1277
H19 H 0.5336 0.6838 -0.0623
loop_
_geom_bond_atom_site_label_1
_geom_bond_atom_site_label_2
_geom_bond_site_symmetry_1
_geom_bond_site_symmetry_2
O1 C11 1_555 1_555
N1 C17 1_555 1_555
C1 C2 1_555 1_555
C2 H1 1_555 1_555
C3 C2 1_555 1_555
H2 C3 1_555 1_555
C4 C3 1_555 1_555
H3 C4 1_555 1_555
C5 C4 1_555 1_555
C6 C5 1_555 1_555
H4 C6 1_555 1_555
C7 C6 1_555 1_555
H5 C7 1_555 1_555
C8 C7 1_555 1_555
H6 C8 1_555 1_555
C9 C8 1_555 1_555
H7 C9 1_555 1_555
C10 C1 1_555 1_555
C11 C1 1_555 1_555
C12 C11 1_555 1_555
H8 C12 1_555 1_555
C13 C12 1_555 1_555
H9 C13 1_555 1_555
C14 C13 1_555 1_555
C15 C14 1_555 1_555
H10 C15 1_555 1_555
C16 C15 1_555 1_555
H11 C16 1_555 1_555
C17 C16 1_555 1_555
C18 C17 1_555 1_555
H12 C18 1_555 1_555
C19 C14 1_555 1_555
H13 C19 1_555 1_555
C20 N1 1_555 1_555
H14 C20 1_555 1_555
H15 C20 1_555 1_555
H16 C20 1_555 1_555
C21 N1 1_555 1_555
H17 C21 1_555 1_555
H18 C21 1_555 1_555
H19 C21 1_555 1_555
C5 C10 1_555 1_555
C9 C10 1_555 1_555
C18 C19 1_555 1_555

#END
