
#######################################################################
#
#                 Cambridge Crystallographic Data Centre
#                                CCDC 
#
#######################################################################
#
# If this CIF has been generated from an entry in the Cambridge 
# Structural Database, then it will include bibliographic, chemical, 
# crystal, experimental, refinement or atomic coordinate data resulting 
# from the CCDC's data processing and validation procedures.
#
#######################################################################

data_XABPAU
_chemical_formula_moiety         'C8 H12 O4,2(C9 H9 N5)'
_chemical_name_systematic        
'cyclohexane-1,4-dicarboxylic acid bis(6-phenyl-1,3,5-triazine-2,4-diamine)'
_symmetry_cell_setting           monoclinic
_symmetry_space_group_name_H-M   'C 2/c'
_symmetry_Int_Tables_number      15
_space_group_name_Hall           '-C 2yn'
loop_
_symmetry_equiv_pos_site_id
_symmetry_equiv_pos_as_xyz
1 x,y,z
2 -x,y,1/2-z
3 1/2+x,1/2+y,z
4 1/2-x,1/2+y,1/2-z
5 -x,-y,-z
6 x,-y,1/2+z
7 1/2-x,1/2-y,-z
8 1/2+x,1/2-y,1/2+z
_cell_length_a                   33.582(6)
_cell_length_b                   6.7822(10)
_cell_length_c                   12.1075(19)
_cell_angle_alpha                90
_cell_angle_beta                 104.993(3)
_cell_angle_gamma                90
_cell_volume                     2663.73
_exptl_crystal_colour            colorless
_exptl_crystal_description       SHEET
_cell_formula_units_Z            4
loop_
_atom_site_label
_atom_site_type_symbol
_atom_site_fract_x
_atom_site_fract_y
_atom_site_fract_z
O1 O 0.43993(7) -0.1021(3) 1.08168(16)
O2 O 0.42848(7) -0.0806(3) 0.89395(16)
H1 H 0.4108(11) 0.050(5) 0.905(3)
C1 C 0.46561(8) -0.3604(4) 0.9827(2)
H2 H 0.4441 -0.4503 0.9410
C2 C 0.44404(8) -0.1688(4) 0.9926(2)
C3 C 0.48359(10) -0.4562(4) 1.0970(2)
H3 H 0.4619 -0.4753 1.1355
H4 H 0.5040 -0.3686 1.1437
C4 C 0.49635(10) -0.3466(4) 0.9133(3)
H5 H 0.5175 -0.2520 0.9485
H6 H 0.4827 -0.2986 0.8374
O1D O 0.56007(7) -0.8979(3) 0.91832(16)
O2D O 0.57152(7) -0.9194(3) 1.10605(16)
H1D H 0.5892(11) -1.050(5) 1.095(3)
C1D C 0.53439(8) -0.6396(4) 1.0173(2)
H2D H 0.5559 -0.5497 1.0590
C2D C 0.55596(8) -0.8312(4) 1.0074(2)
C3D C 0.51641(10) -0.5438(4) 0.9030(2)
H3D H 0.5381 -0.5247 0.8645
H4D H 0.4960 -0.6314 0.8563
C4D C 0.50365(10) -0.6534(4) 1.0867(3)
H5D H 0.4825 -0.7480 1.0515
H6D H 0.5173 -0.7014 1.1626
N1 N 0.38845(7) 0.2458(3) 1.09410(17)
H7 H 0.3819 0.2943 1.1526
H8 H 0.4023 0.1379 1.1004
N2 N 0.38751(7) 0.2880(3) 0.71578(16)
H9 H 0.4017 0.1813 0.7217
H10 H 0.3803 0.3489 0.6514
N3 N 0.35486(6) 0.5277(3) 0.79173(15)
N4 N 0.35557(6) 0.5061(3) 0.98830(16)
N5 N 0.38871(6) 0.2584(3) 0.90497(15)
C5 C 0.30206(10) 0.8265(5) 0.9609(2)
H11 H 0.3046 0.7443 1.0238
C6 C 0.27934(12) 0.9988(6) 0.9519(3)
H12 H 0.2668 1.0320 1.0093
C7 C 0.27522(10) 1.1202(5) 0.8600(3)
H13 H 0.2601 1.2360 0.8553
C8 C 0.29321(8) 1.0722(4) 0.7755(3)
H14 H 0.2902 1.1547 0.7124
C9 C 0.31583(8) 0.9016(4) 0.7831(2)
H15 H 0.3279 0.8692 0.7245
C10 C 0.32093(7) 0.7770(3) 0.87635(19)
C11 C 0.34514(7) 0.5930(3) 0.88572(19)
C12 C 0.37668(7) 0.3589(3) 0.80635(18)
C13 C 0.37720(7) 0.3378(3) 0.99382(19)
loop_
_geom_bond_atom_site_label_1
_geom_bond_atom_site_label_2
_geom_bond_site_symmetry_1
_geom_bond_site_symmetry_2
O1 C2 1_555 1_555
O2 H1 1_555 1_555
C1 H2 1_555 1_555
C2 O2 1_555 1_555
C3 C1 1_555 1_555
H3 C3 1_555 1_555
H4 C3 1_555 1_555
C4 C1 1_555 1_555
H5 C4 1_555 1_555
H6 C4 1_555 1_555
N1 H7 1_555 1_555
H8 N1 1_555 1_555
N2 H9 1_555 1_555
H10 N2 1_555 1_555
N3 C11 1_555 1_555
N4 C11 1_555 1_555
N5 C12 1_555 1_555
C5 H11 1_555 1_555
C6 C5 1_555 1_555
H12 C6 1_555 1_555
C7 C6 1_555 1_555
H13 C7 1_555 1_555
C8 C7 1_555 1_555
H14 C8 1_555 1_555
C9 C8 1_555 1_555
H15 C9 1_555 1_555
C10 C5 1_555 1_555
C11 C10 1_555 1_555
C12 N2 1_555 1_555
C13 N1 1_555 1_555
O1D C2D 1_555 1_555
O2D H1D 1_555 1_555
C1D H2D 1_555 1_555
C2D O2D 1_555 1_555
C3D C4 1_555 1_555
H3D C3D 1_555 1_555
H4D C3D 1_555 1_555
C4D C3 1_555 1_555
H5D C4D 1_555 1_555
H6D C4D 1_555 1_555
C1 C2 1_555 1_555
N3 C12 1_555 1_555
N4 C13 1_555 1_555
N5 C13 1_555 1_555
C9 C10 1_555 1_555
C1D C2D 1_555 1_555
C1D C3D 1_555 1_555
C1D C4D 1_555 1_555

#END
