
#######################################################################
#
#                 Cambridge Crystallographic Data Centre
#                                CCDC 
#
#######################################################################
#
# If this CIF has been generated from an entry in the Cambridge 
# Structural Database, then it will include bibliographic, chemical, 
# crystal, experimental, refinement or atomic coordinate data resulting 
# from the CCDC's data processing and validation procedures.
#
#######################################################################

data_XABSEA
_chemical_formula_moiety         '2(C24 H20 P1 1+),C6 H6 O3 S2,2(Br1 1-)'
_chemical_name_systematic        
'bis(Tetraphenylphosphonium bromide) 4-(hydroxysulfanyl)-5-sulfanylbenzene-1,2-diol'
_symmetry_cell_setting           triclinic
_symmetry_space_group_name_H-M   'P -1'
_symmetry_Int_Tables_number      2
_space_group_name_Hall           '-P 1'
loop_
_symmetry_equiv_pos_site_id
_symmetry_equiv_pos_as_xyz
1 x,y,z
2 -x,-y,-z
_cell_length_a                   10.0956(7)
_cell_length_b                   10.1702(7)
_cell_length_c                   11.9686(8)
_cell_angle_alpha                97.3930(10)
_cell_angle_beta                 103.5190(10)
_cell_angle_gamma                95.8200(10)
_cell_volume                     1173.82
_exptl_crystal_colour            pink
_exptl_crystal_description       block
_cell_formula_units_Z            1
loop_
_atom_site_label
_atom_site_type_symbol
_atom_site_fract_x
_atom_site_fract_y
_atom_site_fract_z
Br1 Br 0.01651(7) 0.14876(6) 0.31722(5)
P1 P 0.71099(5) 0.46392(5) 0.82499(4)
C7 C 0.8570(2) 0.8524(2) 0.9626(2)
H1 H 0.8792 0.9330 0.9347
C8 C 0.77512(19) 0.6163(2) 0.92553(18)
C9 C 0.6780(2) 0.3345(2) 0.90633(18)
C10 C 0.7929(2) 0.6164(2) 1.04498(19)
H2 H 0.7709 0.5360 1.0733
C11 C 0.8352(2) 0.4190(2) 0.74618(18)
C12 C 1.0226(2) 0.4801(2) 0.66190(19)
H3 H 1.0935 0.5447 0.6544
C13 C 0.5453(2) 0.2957(2) 0.9157(2)
H4 H 0.4692 0.3291 0.8707
C14 C 0.8066(2) 0.7351(2) 0.88468(18)
H5 H 0.7935 0.7355 0.8035
C15 C 0.9391(2) 0.5146(2) 0.73534(18)
H6 H 0.9526 0.6025 0.7778
C16 C 0.5554(2) 0.4851(2) 0.72269(18)
C17 C 0.3742(2) 0.3936(3) 0.5524(2)
H7 H 0.3292 0.3210 0.4930
C18 C 0.6360(3) 0.1600(2) 1.0579(2)
H8 H 0.6216 0.1010 1.1107
C19 C 0.8181(2) 0.2888(2) 0.68588(19)
H9 H 0.7496 0.2228 0.6953
C20 C 0.7901(2) 0.2837(2) 0.9713(2)
H10 H 0.8802 0.3080 0.9627
C21 C 0.5021(2) 0.6060(2) 0.72775(19)
H11 H 0.5451 0.6782 0.7882
C22 C 0.3857(2) 0.6209(3) 0.6441(2)
H12 H 0.3494 0.7036 0.6467
C23 C 0.8751(2) 0.8525(2) 1.0813(2)
H13 H 0.9094 0.9330 1.1345
C24 C 0.7682(2) 0.1978(2) 1.0481(2)
H14 H 0.8438 0.1646 1.0940
C25 C 0.8427(2) 0.7345(2) 1.12176(19)
H15 H 0.8549 0.7347 1.2029
C26 C 1.0030(2) 0.3520(2) 0.59958(18)
H16 H 1.0589 0.3297 0.5481
C27 C 0.4909(2) 0.3781(2) 0.6344(2)
H17 H 0.5272 0.2955 0.6308
C28 C 0.9016(2) 0.2562(2) 0.61234(19)
H18 H 0.8894 0.1681 0.5705
C29 C 0.3227(2) 0.5148(3) 0.5569(2)
H19 H 0.2434 0.5253 0.4996
C30 C 0.5252(2) 0.2075(3) 0.9917(2)
H20 H 0.4349 0.1798 0.9981
O1 O 0.3051(4) 0.0537(4) 0.2863(3)
O2 O 0.4340(4) 0.0047(4) 0.6824(3)
C1 C 0.3756(5) 0.0375(4) 0.3952(4)
C2 C 0.3850(5) 0.0310(4) 0.6005(4)
O3 O 0.1841(4) 0.0825(4) 0.6252(3)
C3 C 0.4190(4) 0.0113(4) 0.4800(4)
C4 C 0.3180(4) 0.0500(4) 0.4887(4)
C5 C 0.4777(6) 0.0011(5) 0.3866(5)
C6 C 0.5124(7) 0.0075(6) 0.4109(6)
S1 S 0.38696(11) 0.02287(11) 0.24557(10)
S2 S 0.31257(12) 0.05608(13) 0.71821(10)
O1A O 0.6949(4) -0.0537(4) 0.7137(3)
O2A O 0.5660(4) -0.0047(4) 0.3176(3)
C1A C 0.6244(5) -0.0375(4) 0.6048(4)
C2A C 0.6150(5) -0.0310(4) 0.3995(4)
O3A O 0.8159(4) -0.0825(4) 0.3748(3)
C3A C 0.5810(4) -0.0113(4) 0.5200(4)
C4A C 0.6820(4) -0.0500(4) 0.5113(4)
C5A C 0.5223(6) -0.0011(5) 0.6134(5)
C6A C 0.4876(7) -0.0075(6) 0.5891(6)
S1A S 0.61304(11) -0.02287(11) 0.75443(10)
S2A S 0.68743(12) -0.05608(13) 0.28179(10)
Br2? Br 0.06482(6) 0.12876(6) 0.34805(5)
loop_
_geom_bond_atom_site_label_1
_geom_bond_atom_site_label_2
_geom_bond_site_symmetry_1
_geom_bond_site_symmetry_2
O1 C1 1_555 1_555
O2 C2 1_555 1_555
C1 C3 1_555 1_555
C2 C3 1_555 1_555
O3 S2 1_555 1_555
C3 C4 1_555 1_555
C4 C1 1_555 1_555
C5 C1 1_555 1_555
C6 C1 1_555 1_555
P1 C8 1_555 1_555
C7 H1 1_555 1_555
C8 C10 1_555 1_555
C9 P1 1_555 1_555
C10 H2 1_555 1_555
C11 P1 1_555 1_555
C12 H3 1_555 1_555
C13 C9 1_555 1_555
H4 C13 1_555 1_555
C14 C7 1_555 1_555
H5 C14 1_555 1_555
C15 C11 1_555 1_555
H6 C15 1_555 1_555
C16 P1 1_555 1_555
C17 H7 1_555 1_555
C18 H8 1_555 1_555
C19 C11 1_555 1_555
H9 C19 1_555 1_555
C20 C9 1_555 1_555
H10 C20 1_555 1_555
C21 C16 1_555 1_555
H11 C21 1_555 1_555
C22 C21 1_555 1_555
H12 C22 1_555 1_555
C23 C7 1_555 1_555
H13 C23 1_555 1_555
C24 C18 1_555 1_555
H14 C24 1_555 1_555
C25 C10 1_555 1_555
H15 C25 1_555 1_555
C26 C12 1_555 1_555
H16 C26 1_555 1_555
C27 C16 1_555 1_555
H17 C27 1_555 1_555
C28 C19 1_555 1_555
H18 C28 1_555 1_555
C29 C17 1_555 1_555
H19 C29 1_555 1_555
C30 C13 1_555 1_555
H20 C30 1_555 1_555
S1 O1 1_555 1_555
S2 O2 1_555 1_555
O1A C1A 1_555 1_555
O2A C5 1_555 1_555
C1A C3A 1_555 1_555
C2A C5 1_555 1_555
O3A S2A 1_555 1_555
C3A C3 1_555 1_555
C4A C1A 1_555 1_555
C5A O2 1_555 1_555
C6A O2 1_555 1_555
S1A O2 1_555 1_555
S2A O2A 1_555 1_555
C1 S1 1_555 1_555
C2 C4 1_555 1_555
C2 S2 1_555 1_555
C2 C5A 1_555 1_555
C2 C6A 1_555 1_555
C3 C5 1_555 1_555
C3 C6 1_555 1_555
C3 C5A 1_555 1_555
C3 C6A 1_555 1_555
C5 C6 1_555 1_555
C5 S1 1_555 1_555
C5 C3A 1_555 1_555
C6 O2A 1_555 1_555
C6 C2A 1_555 1_555
C6 C3A 1_555 1_555
C8 C14 1_555 1_555
C12 C15 1_555 1_555
C17 C27 1_555 1_555
C18 C30 1_555 1_555
C20 C24 1_555 1_555
C22 C29 1_555 1_555
C23 C25 1_555 1_555
C26 C28 1_555 1_555
S1 O2A 1_555 1_555
O1A S1A 1_555 1_555
O2A C2A 1_555 1_555
C1A C5A 1_555 1_555
C1A C6A 1_555 1_555
C1A S1A 1_555 1_555
C2A C3A 1_555 1_555
C2A C4A 1_555 1_555
C2A S2A 1_555 1_555
C3A C4A 1_555 1_555
C3A C5A 1_555 1_555
C3A C6A 1_555 1_555
C5A C6A 1_555 1_555
C5A S1A 1_555 1_555

#END
