
#######################################################################
#
#                 Cambridge Crystallographic Data Centre
#                                CCDC 
#
#######################################################################
#
# If this CIF has been generated from an entry in the Cambridge 
# Structural Database, then it will include bibliographic, chemical, 
# crystal, experimental, refinement or atomic coordinate data resulting 
# from the CCDC's data processing and validation procedures.
#
#######################################################################

data_XABWOP
_chemical_name_common            
7-(1,2-dihydroxy-2-methyl-3-((triphenylsilyl)oxy)propyl)-6-iodo-5-methoxyoxepan-2-one
_chemical_formula_moiety         'C29 H33 I1 O6 Si1'
_chemical_name_systematic        
(5S,6R,7R)-7-((1S,2S)-1,2-Dihydroxy-2-methyl-3-((triphenylsilyl)oxy)propyl)-6-iodo-5-methoxyoxepan-2-one
_symmetry_cell_setting           orthorhombic
_symmetry_space_group_name_H-M   'P 21 21 21'
_symmetry_Int_Tables_number      19
_space_group_name_Hall           'P 2ac 2ab'
loop_
_symmetry_equiv_pos_site_id
_symmetry_equiv_pos_as_xyz
1 x,y,z
2 1/2+x,1/2-y,-z
3 -x,1/2+y,1/2-z
4 1/2-x,-y,1/2+z
_cell_length_a                   9.3763(4)
_cell_length_b                   10.1970(5)
_cell_length_c                   29.8641(13)
_cell_angle_alpha                90
_cell_angle_beta                 90
_cell_angle_gamma                90
_cell_volume                     2855.31
_exptl_crystal_colour            colorless
_exptl_crystal_description       block
_cell_formula_units_Z            4
_chemical_properties_physical    Light-sensitive
_exptl_crystal_recrystallization_method n-hexane/dichloromethane
loop_
_atom_site_label
_atom_site_type_symbol
_atom_site_fract_x
_atom_site_fract_y
_atom_site_fract_z
I1 I 0.94378(3) 0.84001(3) 0.259797(8)
Si1 Si 0.45677(12) 0.43193(9) 0.40270(3)
O1 O 0.5195(3) 0.5088(3) 0.35804(9)
O2 O 0.8283(4) 0.8527(4) 0.39940(10)
O3 O 0.5708(3) 0.4858(3) 0.26325(9)
H1 H 0.6519 0.4811 0.2751
O4 O 0.7952(3) 0.5818(3) 0.30855(9)
O5 O 0.9134(4) 0.4064(3) 0.32952(11)
O6 O 0.5172(3) 0.8233(3) 0.30362(9)
H2 H 0.4948 0.8734 0.2824
C1 C 0.2522(6) 0.0440(5) 0.34997(15)
H3 H 0.2143 -0.0339 0.3372
C2 C 0.1726(5) 0.1573(5) 0.34960(14)
H4 H 0.0788 0.1569 0.3375
C3 C 0.2305(5) 0.2740(4) 0.36715(14)
H5 H 0.1755 0.3523 0.3667
C4 C 0.3672(4) 0.2760(4) 0.38512(13)
C5 C 0.4206(4) 0.5553(4) 0.32483(14)
H6 H 0.3673 0.6310 0.3371
H7 H 0.3509 0.4851 0.3181
C6 C 0.4942(4) 0.5966(4) 0.28169(13)
C7 C 0.5964(4) 0.7154(4) 0.28666(13)
H8 H 0.6354 0.7389 0.2565
C8 C 0.7212(4) 0.7012(4) 0.32000(13)
H9 H 0.6805 0.6908 0.3507
C9 C 0.8171(4) 0.8210(4) 0.32000(13)
H10 H 0.7527 0.8991 0.3209
C10 C 0.9166(5) 0.8326(5) 0.36078(14)
H11 H 0.9800 0.9106 0.3568
C11 C 0.1720(5) 0.7233(5) 0.48431(16)
H12 H 0.1174 0.7832 0.5017
C12 C 0.1338(5) 0.5914(5) 0.48271(15)
H13 H 0.0526 0.5613 0.4987
C13 C 0.2155(5) 0.5034(4) 0.45752(14)
H14 H 0.1891 0.4135 0.4568
C14 C 0.3346(4) 0.5447(4) 0.43343(13)
C15 C 0.3696(4) 0.6787(4) 0.43515(14)
H15 H 0.4494 0.7100 0.4187
C16 C 0.2888(5) 0.7667(4) 0.46072(16)
H16 H 0.3148 0.8567 0.4618
C17 C 0.6144(4) 0.3946(4) 0.43876(13)
C18 C 0.6084(4) 0.4187(4) 0.48502(13)
H17 H 0.5255 0.4581 0.4974
C19 C 0.7216(5) 0.3860(4) 0.51319(14)
H18 H 0.7144 0.4007 0.5445
C20 C 0.8450(4) 0.3318(4) 0.49521(14)
H19 H 0.9239 0.3121 0.5140
C21 C 0.8523(4) 0.3067(4) 0.44977(15)
H20 H 0.9359 0.2683 0.4375
C22 C 0.7387(4) 0.3370(4) 0.42205(14)
H21 H 0.7454 0.3182 0.3910
C23 C 0.3888(5) 0.0426(4) 0.36903(15)
H22 H 0.4423 -0.0364 0.3701
C24 C 0.4453(5) 0.1581(4) 0.38636(12)
H23 H 0.5379 0.1573 0.3992
C25 C 0.8784(5) 0.5175(5) 0.33880(14)
C26 C 0.9241(5) 0.5884(5) 0.38015(14)
H24 H 0.9835 0.5291 0.3986
H25 H 0.8386 0.6121 0.3979
C27 C 1.0084(5) 0.7121(5) 0.36978(17)
H26 H 1.0691 0.6956 0.3432
H27 H 1.0724 0.7311 0.3953
C28 C 0.3805(5) 0.6302(4) 0.24731(13)
H28 H 0.4262 0.6537 0.2189
H29 H 0.3237 0.7044 0.2581
H30 H 0.3183 0.5541 0.2428
C29 C 0.8079(9) 0.9797(7) 0.4086(3)
H31 H 0.9003 1.0225 0.4131
H32 H 0.7504 0.9881 0.4358
H33 H 0.7580 1.0216 0.3835
C30? C 0.861(5) 0.947(3) 0.4297(13)
H34? H 0.8869 0.9055 0.4582
H35? H 0.7776 1.0036 0.4343
H36? H 0.9408 0.9992 0.4187
loop_
_geom_bond_atom_site_label_1
_geom_bond_atom_site_label_2
_geom_bond_site_symmetry_1
_geom_bond_site_symmetry_2
I1 C9 1_555 1_555
Si1 O1 1_555 1_555
O1 C5 1_555 1_555
O2 C10 1_555 1_555
O3 H1 1_555 1_555
O4 C8 1_555 1_555
O5 C25 1_555 1_555
O6 H2 1_555 1_555
C1 H3 1_555 1_555
C2 C1 1_555 1_555
H4 C2 1_555 1_555
C3 C2 1_555 1_555
H5 C3 1_555 1_555
C4 Si1 1_555 1_555
C5 H6 1_555 1_555
H7 C5 1_555 1_555
C6 O3 1_555 1_555
C7 O6 1_555 1_555
H8 C7 1_555 1_555
C8 C7 1_555 1_555
H9 C8 1_555 1_555
C9 C8 1_555 1_555
H10 C9 1_555 1_555
C10 C9 1_555 1_555
H11 C10 1_555 1_555
C11 H12 1_555 1_555
C12 C11 1_555 1_555
H13 C12 1_555 1_555
C13 C12 1_555 1_555
H14 C13 1_555 1_555
C14 Si1 1_555 1_555
C15 C14 1_555 1_555
H15 C15 1_555 1_555
C16 C11 1_555 1_555
H16 C16 1_555 1_555
C17 Si1 1_555 1_555
C18 C17 1_555 1_555
H17 C18 1_555 1_555
C19 C18 1_555 1_555
H18 C19 1_555 1_555
C20 C19 1_555 1_555
H19 C20 1_555 1_555
C21 C20 1_555 1_555
H20 C21 1_555 1_555
C22 C17 1_555 1_555
H21 C22 1_555 1_555
C23 C1 1_555 1_555
H22 C23 1_555 1_555
C24 C4 1_555 1_555
H23 C24 1_555 1_555
C25 O4 1_555 1_555
C26 C25 1_555 1_555
H24 C26 1_555 1_555
H25 C26 1_555 1_555
C27 C10 1_555 1_555
H26 C27 1_555 1_555
H27 C27 1_555 1_555
C28 C6 1_555 1_555
H28 C28 1_555 1_555
H29 C28 1_555 1_555
H30 C28 1_555 1_555
C29 O2 1_555 1_555
H31 C29 1_555 1_555
H32 C29 1_555 1_555
H33 C29 1_555 1_555
C3 C4 1_555 1_555
C5 C6 1_555 1_555
C6 C7 1_555 1_555
C13 C14 1_555 1_555
C15 C16 1_555 1_555
C21 C22 1_555 1_555
C23 C24 1_555 1_555
C26 C27 1_555 1_555

#END
