
#######################################################################
#
#                 Cambridge Crystallographic Data Centre
#                                CCDC 
#
#######################################################################
#
# If this CIF has been generated from an entry in the Cambridge 
# Structural Database, then it will include bibliographic, chemical, 
# crystal, experimental, refinement or atomic coordinate data resulting 
# from the CCDC's data processing and validation procedures.
#
#######################################################################

data_XABXUV
_chemical_formula_moiety         'C28 H36 O2 Si4'
_chemical_name_systematic        
2,2,4,4,13,13,15,15-Octamethyl-3,14-dioxa-2,4,13,15-tetrasilapentacyclo[14.6.2.2^5,12^.0^6,11^.0^17,22^]hexacosa-1(22),5,7,9,11,16,18,20,23,25-decaene
_symmetry_cell_setting           triclinic
_symmetry_space_group_name_H-M   'P 1'
_symmetry_Int_Tables_number      1
_space_group_name_Hall           'P 1'
loop_
_symmetry_equiv_pos_site_id
_symmetry_equiv_pos_as_xyz
1 x,y,z
_cell_length_a                   8.8856(11)
_cell_length_b                   11.7531(15)
_cell_length_c                   13.8314(17)
_cell_angle_alpha                80.406(2)
_cell_angle_beta                 89.577(2)
_cell_angle_gamma                77.731(2)
_cell_volume                     1391.14
_exptl_crystal_colour            colorless
_exptl_crystal_description       plate
_cell_formula_units_Z            2
loop_
_atom_site_label
_atom_site_type_symbol
_atom_site_fract_x
_atom_site_fract_y
_atom_site_fract_z
C1 C 0.8864(7) 0.3871(6) 0.6398(5)
C2 C 1.1150(8) 0.3713(7) 0.8616(6)
C3 C 0.8225(9) 0.3221(7) 0.7223(6)
C6 C 0.8588(7) 0.5131(6) 0.6248(5)
C7 C 1.0868(8) 0.4966(6) 0.8453(6)
C8 C 1.1566(8) 0.5567(7) 0.7650(6)
C21 C 1.2100(8) 0.3052(7) 0.7960(6)
C22 C 0.7637(8) 0.5769(7) 0.6906(6)
C25 C 0.9285(9) 0.5697(7) 0.5423(6)
H9 H 0.9118 0.6534 0.5329
C26 C 1.0509(8) 0.3104(7) 0.9431(6)
H10 H 1.0695 0.2266 0.9558
C31 C 1.2813(7) 0.3606(6) 0.7242(5)
H15 H 1.3489 0.3159 0.6841
C32 C 0.6975(8) 0.5043(7) 0.7663(6)
H16 H 0.6287 0.5420 0.8099
C33 C 1.0447(8) 0.3773(6) 0.4975(5)
H17 H 1.1056 0.3330 0.4542
C34 C 0.9550(8) 0.3812(7) 1.0071(6)
H18 H 0.9088 0.3420 1.0613
C35 C 1.0111(8) 0.5179(6) 0.4804(6)
H19 H 1.0512 0.5615 0.4260
C36 C 0.7298(7) 0.3806(6) 0.7786(5)
H20 H 0.6822 0.3381 0.8301
C37 C 0.9853(8) 0.3281(7) 0.5724(6)
H21 H 1.0084 0.2442 0.5852
C38 C 1.2585(8) 0.4826(7) 0.7070(6)
H22 H 1.3118 0.5193 0.6552
C39 C 0.9325(8) 0.4867(7) 0.9939(6)
H23 H 0.8702 0.5272 1.0389
C40 C 0.9957(9) 0.5576(8) 0.9121(6)
H24 H 0.9759 0.6413 0.9046
O3 O 0.9373(10) 0.7658(7) 0.6929(7)
O4 O 1.0767(10) 0.1162(7) 0.7768(6)
Si1 Si 0.8919(5) 0.1535(4) 0.7550(3)
Si2 Si 1.1221(5) 0.7188(3) 0.7209(3)
Si3 Si 0.7641(5) 0.7427(3) 0.6827(3)
Si4 Si 1.2477(4) 0.1469(3) 0.7926(3)
C49 C 1.3693(15) 0.1074(12) 0.6866(10)
H49 H 1.3742 0.0245 0.6817
H50 H 1.4735 0.1192 0.6970
H51 H 1.3236 0.1579 0.6258
C50 C 1.1814(15) 0.7964(10) 0.8130(9)
H52 H 1.1822 0.8779 0.7830
H53 H 1.2850 0.7562 0.8387
H54 H 1.1089 0.7967 0.8667
C51 C 0.8525(17) 0.0724(12) 0.6560(11)
H55 H 0.9034 0.0997 0.5961
H56 H 0.7412 0.0875 0.6429
H57 H 0.8923 -0.0125 0.6770
C52 C 1.3444(16) 0.0543(12) 0.9041(10)
H58 H 1.2689 0.0471 0.9556
H59 H 1.4245 0.0907 0.9264
H60 H 1.3915 -0.0242 0.8901
C53 C 1.2315(14) 0.7532(11) 0.6083(9)
H61 H 1.2177 0.7013 0.5619
H62 H 1.3412 0.7405 0.6258
H63 H 1.1933 0.8357 0.5778
C54 C 0.6772(15) 0.8362(11) 0.5658(10)
H64 H 0.6469 0.9188 0.5751
H65 H 0.5863 0.8093 0.5470
H66 H 0.7529 0.8296 0.5140
C55 C 0.6569(14) 0.7970(12) 0.7856(10)
H67 H 0.6871 0.7397 0.8459
H68 H 0.5462 0.8076 0.7724
H69 H 0.6802 0.8728 0.7935
C56 C 0.7970(16) 0.1023(13) 0.8678(11)
H70 H 0.8265 0.0160 0.8839
H71 H 0.6849 0.1267 0.8576
H72 H 0.8290 0.1370 0.9218
C4 C 0.2298(7) 0.3786(6) 0.2221(6)
H1 H 0.1822 0.3397 0.1799
C5 C 0.7115(7) 0.3132(7) 0.2221(6)
C9 C 0.7506(8) 0.4968(7) 0.2654(6)
H2 H 0.8014 0.5337 0.3075
C10 C 0.3604(8) 0.4988(7) 0.3445(6)
C11 C 0.6126(7) 0.3818(6) 0.1395(5)
C12 C 0.3911(7) 0.3752(6) 0.3594(5)
C13 C 0.4233(8) 0.5181(7) -0.0189(6)
H3 H 0.3587 0.5635 -0.0722
C14 C 0.3256(7) 0.3140(7) 0.2939(5)
C15 C 0.2650(8) 0.5659(7) 0.2644(6)
C16 C 0.4558(8) 0.3865(6) -0.0029(6)
H4 H 0.4126 0.3460 -0.0460
C17 C 0.5516(8) 0.3705(7) 0.5057(6)
H5 H 0.6147 0.3267 0.5603
C18 C 0.4901(8) 0.3093(7) 0.4412(6)
H6 H 0.5137 0.2254 0.4515
C19 C 0.5804(8) 0.5102(7) 0.1242(6)
C20 C 0.6463(8) 0.5697(7) 0.1903(6)
C23 C 0.4863(8) 0.5701(7) 0.0428(6)
H7 H 0.4664 0.6540 0.0313
C24 C 0.7798(7) 0.3751(6) 0.2789(5)
H8 H 0.8506 0.3318 0.3299
C27 C 0.5236(8) 0.4860(7) 0.4920(6)
H11 H 0.5667 0.5242 0.5369
C28 C 0.5449(8) 0.3279(7) 0.0716(6)
H12 H 0.5657 0.2441 0.0809
C29 C 0.4299(8) 0.5559(7) 0.4111(6)
H13 H 0.4136 0.6396 0.4012
C30 C 0.1963(9) 0.5056(7) 0.2065(6)
H14 H 0.1256 0.5487 0.1554
C41 C 0.1455(9) 0.8146(8) 0.3209(7)
H25 H 0.2203 0.8088 0.3741
H26 H 0.0584 0.7813 0.3470
H27 H 0.1084 0.8977 0.2916
C42 C 0.6380(10) 0.8237(8) 0.0766(7)
H28 H 0.5955 0.7993 0.0201
H29 H 0.7500 0.8127 0.0716
H30 H 0.5928 0.9071 0.0776
C43 C 0.6932(10) 0.7681(8) 0.2960(7)
H31 H 0.6551 0.8513 0.3013
H32 H 0.8042 0.7537 0.2847
H33 H 0.6739 0.7181 0.3569
C44 C 0.8372(9) 0.0662(7) 0.1616(6)
H34 H 0.8431 -0.0186 0.1826
H35 H 0.9414 0.0806 0.1523
H36 H 0.7776 0.0931 0.0996
C45 C 0.8698(8) 0.1032(7) 0.3731(6)
H37 H 0.8256 0.1482 0.4239
H38 H 0.9721 0.1185 0.3573
H39 H 0.8788 0.0186 0.3971
C46 C 0.2904(10) 0.1098(8) 0.1900(7)
H40 H 0.3189 0.1533 0.1283
H41 H 0.1784 0.1305 0.1964
H42 H 0.3231 0.0248 0.1900
C47 C 0.3430(10) 0.0567(8) 0.4102(7)
H43 H 0.3520 -0.0248 0.3993
H44 H 0.2378 0.0879 0.4293
H45 H 0.4160 0.0580 0.4626
C48 C 0.1304(9) 0.7840(8) 0.1103(7)
H46 H 0.1307 0.8676 0.0882
H47 H 0.0240 0.7744 0.1188
H48 H 0.1789 0.7378 0.0612
O1 O 0.5718(6) 0.1146(5) 0.2778(5)
O2 O 0.4044(6) 0.7682(5) 0.2052(5)
Si5 Si 0.7397(2) 0.14985(17) 0.25852(15)
Si6 Si 0.3869(2) 0.14963(17) 0.29505(15)
Si7 Si 0.2379(3) 0.73214(19) 0.22716(17)
Si8 Si 0.5916(3) 0.73225(18) 0.19167(17)
C57? C 1.326(2) 0.0810(19) 0.7043(16)
C58? C 1.121(2) 0.8120(15) 0.8332(14)
C59? C 0.795(3) 0.0784(19) 0.6746(17)
C60? C 1.290(2) 0.0423(18) 0.9274(15)
C61? C 1.161(2) 0.7897(17) 0.6206(15)
C62? C 0.623(3) 0.8279(19) 0.5856(17)
C63? C 0.597(2) 0.7596(16) 0.8048(13)
C64? C 0.725(2) 0.1380(17) 0.8768(14)
H73? H 1.3419 -0.0050 0.7109
H74? H 1.4260 0.1031 0.7078
H75? H 1.2746 0.1180 0.6409
H76? H 1.1316 0.8913 0.8030
H77? H 1.2189 0.7674 0.8644
H78? H 1.0411 0.8183 0.8826
H79? H 0.8397 0.1039 0.6117
H80? H 0.6834 0.0889 0.6657
H81? H 0.8405 -0.0051 0.6983
H82? H 1.2406 0.0760 0.9830
H83? H 1.4003 0.0421 0.9294
H84? H 1.2760 -0.0388 0.9315
H85? H 1.1469 0.7449 0.5690
H86? H 1.2716 0.7798 0.6349
H87? H 1.1159 0.8736 0.5986
H88? H 0.6369 0.9086 0.5851
H89? H 0.5129 0.8281 0.5831
H90? H 0.6723 0.7980 0.5285
H91? H 0.6553 0.7226 0.8659
H92? H 0.5043 0.7274 0.8017
H93? H 0.5669 0.8451 0.8030
H94? H 0.7378 0.0523 0.8964
H95? H 0.6153 0.1734 0.8621
H96? H 0.7607 0.1713 0.9305
O5? O 0.8781(16) 0.7653(12) 0.7176(10)
O6? O 1.0222(16) 0.1207(11) 0.7968(10)
Si9? Si 0.8370(9) 0.1698(6) 0.7670(6)
Si10? Si 1.1996(9) 0.1342(6) 0.8090(6)
Si11? Si 0.7146(10) 0.7296(7) 0.7018(6)
Si12? Si 1.0632(10) 0.7334(6) 0.7359(5)
loop_
_geom_bond_atom_site_label_1
_geom_bond_atom_site_label_2
_geom_bond_site_symmetry_1
_geom_bond_site_symmetry_2
C1 C3 1_555 1_555
C2 C7 1_555 1_555
C3 C36 1_555 1_555
C4 H1 1_555 1_555
C5 C11 1_555 1_555
C6 C1 1_555 1_555
C7 C8 1_555 1_555
C8 C38 1_555 1_555
C9 H2 1_555 1_555
C10 C12 1_555 1_555
C11 C19 1_555 1_555
C12 C14 1_555 1_555
C13 H3 1_555 1_555
C14 C4 1_555 1_555
C15 C10 1_555 1_555
C16 C13 1_555 1_555
H4 C16 1_555 1_555
C17 H5 1_555 1_555
C18 C12 1_555 1_555
H6 C18 1_555 1_555
C19 C20 1_555 1_555
C20 C9 1_555 1_555
C21 C2 1_555 1_555
C22 C6 1_555 1_555
C23 C13 1_555 1_555
H7 C23 1_555 1_555
C24 C5 1_555 1_555
H8 C24 1_555 1_555
C25 C6 1_555 1_555
H9 C25 1_555 1_555
C26 C2 1_555 1_555
H10 C26 1_555 1_555
C27 C17 1_555 1_555
H11 C27 1_555 1_555
C28 C11 1_555 1_555
H12 C28 1_555 1_555
C29 C10 1_555 1_555
H13 C29 1_555 1_555
C30 C4 1_555 1_555
H14 C30 1_555 1_555
C31 C21 1_555 1_555
H15 C31 1_555 1_555
C32 C22 1_555 1_555
H16 C32 1_555 1_555
C33 H17 1_555 1_555
C34 C26 1_555 1_555
H18 C34 1_555 1_555
C35 C25 1_555 1_555
H19 C35 1_555 1_555
C36 C32 1_555 1_555
H20 C36 1_555 1_555
C37 C1 1_555 1_555
H21 C37 1_555 1_555
C38 C31 1_555 1_555
H22 C38 1_555 1_555
C39 C34 1_555 1_555
H23 C39 1_555 1_555
C40 C7 1_555 1_555
H24 C40 1_555 1_555
C41 H25 1_555 1_555
H26 C41 1_555 1_555
H27 C41 1_555 1_555
C42 H28 1_555 1_555
H29 C42 1_555 1_555
H30 C42 1_555 1_555
C43 H31 1_555 1_555
H32 C43 1_555 1_555
H33 C43 1_555 1_555
C44 H34 1_555 1_555
H35 C44 1_555 1_555
H36 C44 1_555 1_555
C45 H37 1_555 1_555
H38 C45 1_555 1_555
H39 C45 1_555 1_555
C46 H40 1_555 1_555
H41 C46 1_555 1_555
H42 C46 1_555 1_555
C47 H43 1_555 1_555
H44 C47 1_555 1_555
H45 C47 1_555 1_555
C48 H46 1_555 1_555
H47 C48 1_555 1_555
H48 C48 1_555 1_555
O1 Si5 1_555 1_555
O2 Si7 1_555 1_555
O3 Si2 1_555 1_555
O4 Si1 1_555 1_555
Si1 C3 1_555 1_555
Si2 C8 1_555 1_555
Si3 C22 1_555 1_555
Si4 C21 1_555 1_555
C49 Si4 1_555 1_555
H49 C49 1_555 1_555
H50 C49 1_555 1_555
H51 C49 1_555 1_555
C50 Si2 1_555 1_555
H52 C50 1_555 1_555
H53 C50 1_555 1_555
H54 C50 1_555 1_555
C51 Si1 1_555 1_555
H55 C51 1_555 1_555
H56 C51 1_555 1_555
H57 C51 1_555 1_555
C52 Si4 1_555 1_555
H58 C52 1_555 1_555
H59 C52 1_555 1_555
H60 C52 1_555 1_555
C53 Si2 1_555 1_555
H61 C53 1_555 1_555
H62 C53 1_555 1_555
H63 C53 1_555 1_555
C54 Si3 1_555 1_555
H64 C54 1_555 1_555
H65 C54 1_555 1_555
H66 C54 1_555 1_555
C55 Si3 1_555 1_555
H67 C55 1_555 1_555
H68 C55 1_555 1_555
H69 C55 1_555 1_555
C56 Si1 1_555 1_555
H70 C56 1_555 1_555
H71 C56 1_555 1_555
H72 C56 1_555 1_555
Si5 C5 1_555 1_555
Si6 C14 1_555 1_555
Si7 C15 1_555 1_555
Si8 C20 1_555 1_555
C9 C24 1_555 1_555
C15 C30 1_555 1_555
C16 C28 1_555 1_555
C17 C18 1_555 1_555
C19 C23 1_555 1_555
C27 C29 1_555 1_555
C33 C35 1_555 1_555
C33 C37 1_555 1_555
C39 C40 1_555 1_555
C41 Si7 1_555 1_555
C42 Si8 1_555 1_555
C43 Si8 1_555 1_555
C44 Si5 1_555 1_555
C45 Si5 1_555 1_555
C46 Si6 1_555 1_555
C47 Si6 1_555 1_555
C48 Si7 1_555 1_555
O1 Si6 1_555 1_555
O2 Si8 1_555 1_555
O3 Si3 1_555 1_555
O4 Si4 1_555 1_555

#END
