
#######################################################################
#
#                 Cambridge Crystallographic Data Centre
#                                CCDC 
#
#######################################################################
#
# If this CIF has been generated from an entry in the Cambridge 
# Structural Database, then it will include bibliographic, chemical, 
# crystal, experimental, refinement or atomic coordinate data resulting 
# from the CCDC's data processing and validation procedures.
#
#######################################################################

data_XACJOA
_chemical_formula_moiety         'C12 H34 N6 4+,2(H2 O7 P2 2-),2(H2 O1)'
_chemical_name_systematic        
'1,10-Diaza-4,7,13,16-tetra-azoniacyclo-octadecane bis(dihydrogen pyrophosphate) dihydrate'
_symmetry_cell_setting           monoclinic
_symmetry_space_group_name_H-M   'P 21/n'
_symmetry_Int_Tables_number      14
_space_group_name_Hall           '-P 2yn'
loop_
_symmetry_equiv_pos_site_id
_symmetry_equiv_pos_as_xyz
1 x,y,z
2 1/2-x,1/2+y,1/2-z
3 -x,-y,-z
4 1/2+x,1/2-y,1/2+z
_cell_length_a                   9.201(8)
_cell_length_b                   12.617(7)
_cell_length_c                   11.838(9)
_cell_angle_alpha                90
_cell_angle_beta                 104.59(6)
_cell_angle_gamma                90
_cell_volume                     1329.95
_exptl_crystal_colour            colorless
_exptl_crystal_description       prismatic
_cell_formula_units_Z            2
loop_
_atom_site_label
_atom_site_type_symbol
_atom_site_fract_x
_atom_site_fract_y
_atom_site_fract_z
P1 P -0.2755(2) 0.1255(2) -0.0365(2)
O1 O -0.1984(7) 0.2149(5) -0.0792(5)
O2 O -0.1804(8) 0.0317(5) -0.0008(6)
O3 O -0.3414(8) 0.1725(6) 0.0630(6)
O4 O -0.4246(6) 0.0932(5) -0.1344(5)
P2 P -0.4505(2) -0.0074(2) -0.2201(2)
O5 O -0.3323(7) -0.0061(5) -0.2873(5)
O6 O -0.4561(8) -0.1038(5) -0.1495(6)
O7 O -0.6086(7) 0.0153(5) -0.2998(5)
O8 O 0.1529(12) -0.4090(6) 0.0012(6)
C1 C 0.0187(11) 0.0828(8) -0.3268(8)
N1 N 0.0412(12) 0.1534(9) -0.2279(9)
C2 C 0.1929(14) 0.1789(11) -0.1747(10)
C4 C 0.2020(11) 0.2409(7) -0.0618(8)
N3 N 0.1161(8) 0.1821(6) 0.0115(7)
C5 C 0.1456(10) 0.2236(7) 0.1331(8)
C6 C 0.0377(11) 0.1836(8) 0.2001(8)
N4 N 0.0403(10) 0.0676(6) 0.2139(7)
C7 C 0.0402(11) -0.0321(8) -0.3023(8)
H1 H -0.0823 0.1062 -0.3317
H2 H 0.0499 0.1035 -0.3965
H5 H 0.2483 0.1152 -0.1600
H6 H 0.2280 0.2224 -0.2294
H9 H 0.3084 0.2361 -0.0284
H10 H 0.1742 0.3162 -0.0657
H13 H 0.005(14) 0.1825(93) -0.0339(96)
H14 H 0.1470(82) 0.1187(69) 0.0165(62)
H15 H 0.2468(10) 0.2040(7) 0.1750(8)
H16 H 0.1406(10) 0.3004(7) 0.1302(8)
H17 H -0.0632(11) 0.2054(8) 0.1599(8)
H18 H 0.0620(11) 0.2162(8) 0.2767(8)
H19 H -0.0102(72) 0.0318(53) 0.1378(57)
H20 H 0.116(12) 0.0401(88) 0.2249(93)
H21 H 0.1467 -0.0433 -0.2733
H22 H 0.0042 -0.0689 -0.3738
C7B C -0.0402(11) 0.0321(8) 0.3023(8)
C1B C -0.0187(11) -0.0828(8) 0.3268(8)
N1B N -0.0412(12) -0.1534(9) 0.2279(9)
C2B C -0.1929(14) -0.1789(11) 0.1747(10)
C4B C -0.2020(11) -0.2409(7) 0.0618(8)
N3B N -0.1161(8) -0.1821(6) -0.0115(7)
C5B C -0.1456(10) -0.2236(7) -0.1331(8)
C6B C -0.0377(11) -0.1836(8) -0.2001(8)
N4B N -0.0403(10) -0.0676(6) -0.2139(7)
H19B H 0.0102(72) -0.0318(53) -0.1378(57)
H20B H -0.116(12) -0.0401(88) -0.2249(93)
H17B H 0.0632(11) -0.2054(8) -0.1599(8)
H18B H -0.0620(11) -0.2162(8) -0.2767(8)
H15B H -0.2468(10) -0.2040(7) -0.1750(8)
H16B H -0.1406(10) -0.3004(7) -0.1302(8)
H13B H -0.005(14) -0.1825(93) 0.0339(96)
H14B H -0.1470(82) -0.1187(69) -0.0165(62)
H9B H -0.3084 -0.2361 0.0284
H10B H -0.1742 -0.3162 0.0657
H5B H -0.2483 -0.1152 0.1600
H6B H -0.2280 -0.2224 0.2294
H1B H 0.0823 -0.1062 0.3317
H2B H -0.0499 -0.1035 0.3965
H21B H -0.1467 0.0433 0.2733
H22B H -0.0042 0.0689 0.3738
N2? N -0.1405(38) -0.1074(28) 0.2025(29)
C3? C -0.1321(49) -0.2290(36) 0.1800(35)
H3? H 0.0885 0.1038 -0.3723
H4? H -0.0812 0.0939 -0.3739
H7? H -0.0779 -0.2353 0.2312
H8? H -0.2483 -0.2157 0.2193
H11? H -0.1619 -0.3114 0.0789
H12? H -0.3071 -0.2464 0.0202
H23? H 0.1463 -0.0470 -0.3738
H24? H 0.0028 -0.0708 -0.3738
loop_
_geom_bond_atom_site_label_1
_geom_bond_atom_site_label_2
_geom_bond_site_symmetry_1
_geom_bond_site_symmetry_2
P1 O1 1_555 1_555
O2 P1 1_555 1_555
O3 P1 1_555 1_555
O4 P1 1_555 1_555
P2 O4 1_555 1_555
O5 P2 1_555 1_555
O6 P2 1_555 1_555
O7 P2 1_555 1_555
C1 N1 1_555 1_555
N1 C2 1_555 1_555
C2 C4 1_555 1_555
C4 N3 1_555 1_555
N3 C5 1_555 1_555
C5 C6 1_555 1_555
C6 N4 1_555 1_555
N4 H19 1_555 1_555
C7 C1 1_555 1_555
H1 C1 1_555 1_555
H2 C1 1_555 1_555
H5 C2 1_555 1_555
H6 C2 1_555 1_555
H9 C4 1_555 1_555
H10 C4 1_555 1_555
H13 N3 1_555 1_555
H14 N3 1_555 1_555
H15 C5 1_555 1_555
H16 C5 1_555 1_555
H17 C6 1_555 1_555
H18 C6 1_555 1_555
H20 N4 1_555 1_555
H21 C7 1_555 1_555
H22 C7 1_555 1_555
C7B N4 1_555 1_555
C1B C7B 1_555 1_555
N1B C1B 1_555 1_555
C2B N1B 1_555 1_555
C4B C2B 1_555 1_555
N3B C4B 1_555 1_555
C5B N3B 1_555 1_555
C6B C5B 1_555 1_555
N4B C7 1_555 1_555
H19B N4B 1_555 1_555
H20B N4B 1_555 1_555
H17B C6B 1_555 1_555
H18B C6B 1_555 1_555
H15B C5B 1_555 1_555
H16B C5B 1_555 1_555
H13B N3B 1_555 1_555
H14B N3B 1_555 1_555
H9B C4B 1_555 1_555
H10B C4B 1_555 1_555
H5B C2B 1_555 1_555
H6B C2B 1_555 1_555
H1B C1B 1_555 1_555
H2B C1B 1_555 1_555
H21B C7B 1_555 1_555
H22B C7B 1_555 1_555
C6B N4B 1_555 1_555

#END
