
#######################################################################
#
#                 Cambridge Crystallographic Data Centre
#                                CCDC 
#
#######################################################################
#
# If this CIF has been generated from an entry in the Cambridge 
# Structural Database, then it will include bibliographic, chemical, 
# crystal, experimental, refinement or atomic coordinate data resulting 
# from the CCDC's data processing and validation procedures.
#
#######################################################################

data_XACJUG
_chemical_formula_moiety         'C14 H38 N6 4+,2(H2 O7 P2 2-),6(H2 O1)'
_chemical_name_systematic        
'1,10-Dimethyl-1,10-diaza-4,7,13,16-tetra-azoniacyclo-octadecane dihydrogen pyrophosphate hexahydrate'
_symmetry_cell_setting           triclinic
_symmetry_space_group_name_H-M   'P -1'
_symmetry_Int_Tables_number      2
_space_group_name_Hall           '-P 1'
loop_
_symmetry_equiv_pos_site_id
_symmetry_equiv_pos_as_xyz
1 x,y,z
2 -x,-y,-z
_cell_length_a                   11.009(2)
_cell_length_b                   13.286(2)
_cell_length_c                   13.450(2)
_cell_angle_alpha                110.71(2)
_cell_angle_beta                 112.830(10)
_cell_angle_gamma                90.820(10)
_cell_volume                     1669.59
_exptl_crystal_colour            colorless
_exptl_crystal_description       prismatic
_cell_formula_units_Z            2
loop_
_atom_site_label
_atom_site_type_symbol
_atom_site_fract_x
_atom_site_fract_y
_atom_site_fract_z
O1 O 0.4440(4) 0.0441(3) 0.7481(3)
O2 O 0.0229(4) 0.3213(3) 0.4748(3)
O3 O 1.0454(4) 0.4884(4) 0.6710(3)
O4 O 0.0220(13) 0.1819(11) 0.5889(12)
O6 O 0.3671(5) -1.0046(4) -0.5748(4)
O7 O 0.2018(7) -0.9931(6) -0.4676(6)
P1 P 0.4720(1) 0.2994(1) -0.0112(2)
O8 O 0.3968(3) 0.2186(2) 0.0072(3)
O9 O 0.5368(3) 0.2420(2) -0.0963(3)
O10 O 0.5769(3) 0.3875(2) 0.0944(3)
O11 O 0.3652(3) 0.3564(3) -0.0842(3)
P2 P 0.2342(1) 0.3945(1) -0.0667(1)
O12 O 0.2235(3) 0.4937(2) -0.1046(3)
O13 O 0.2631(3) 0.4289(3) 0.0599(3)
O14 O 0.1169(3) 0.3064(3) -0.1529(3)
P3 P 0.2942(1) 0.1383(1) 0.1922(1)
O15 O 0.2510(3) 0.2325(2) 0.2804(2)
O16 O 0.1743(3) 0.0909(2) 0.0761(2)
P4 P 0.2355(1) 0.3554(1) 0.2885(1)
O17 O 0.3422(3) 0.0609(2) 0.2490(3)
O18 O 0.4124(3) 0.2003(3) 0.1886(3)
O19 O 0.3726(3) 0.4243(2) 0.3491(2)
O20 O 0.1492(3) 0.3902(3) 0.3511(3)
O21 O 0.1622(3) 0.3412(3) 0.1580(3)
H1 H 0.4025(57) 0.2116(48) 0.1230(54)
H2 H 0.2000(58) 0.3693(47) 0.1236(50)
N1 N -0.1826(3) 0.0985(3) 0.1482(3)
C1 C -0.3293(5) 0.0741(4) 0.0871(4)
C2 C -0.1340(5) 0.0778(4) 0.2546(4)
C3 C -0.1538(5) -0.0433(4) 0.2278(4)
N2 N -0.0991(4) -0.1064(3) 0.1438(3)
C4 C 0.0485(4) -0.0748(4) 0.1884(4)
C5 C 0.1056(4) -0.1563(4) 0.1154(4)
N3 N 0.0858(4) -0.1438(3) 0.0053(3)
C6 C 0.1458(5) -0.2261(3) -0.0627(4)
C7 C -0.1292(5) 0.2097(3) 0.1722(4)
H3 H -0.1128(72) -0.1860(62) 0.1351(62)
H4 H -0.1390(45) -0.0920(36) 0.0750(42)
H5 H 0.1209(56) -0.0726(50) 0.0140(48)
H6 H 0.0018(62) -0.1463(46) -0.0363(50)
H11 H -0.3604(5) -0.0004(10) 0.0706(28)
H12 H -0.3570(5) 0.0848(29) 0.0151(16)
H13 H -0.3665(5) 0.1220(20) 0.1358(14)
H14 H -0.1812(5) 0.1135(4) 0.3014(4)
H15 H -0.0395(5) 0.1088(4) 0.3000(4)
H16 H -0.1104(5) -0.0544(4) 0.3002(4)
H17 H -0.2487(5) -0.0711(4) 0.1955(4)
H18 H 0.0913(4) -0.0692(4) 0.2687(4)
H19 H 0.0681(4) -0.0035(4) 0.1882(4)
H20 H 0.2008(4) -0.1485(4) 0.1617(4)
H21 H 0.0642(4) -0.2296(4) 0.0964(4)
H22 H 0.2403(5) -0.2187(3) -0.0144(4)
H23 H 0.1025(5) -0.2993(3) -0.0836(4)
H24 H -0.0347(5) 0.2267(3) 0.2247(4)
H25 H -0.1744(5) 0.2602(3) 0.2115(4)
C7A C 0.1292(5) -0.2097(3) -0.1722(4)
N1A N 0.1826(3) -0.0985(3) -0.1482(3)
C1A C 0.3293(5) -0.0741(4) -0.0871(4)
H11A H 0.3604(5) 0.0004(10) -0.0706(28)
H12A H 0.3570(5) -0.0848(29) -0.0151(16)
H13A H 0.3665(5) -0.1220(20) -0.1358(14)
C2A C 0.1340(5) -0.0778(4) -0.2546(4)
C3A C 0.1538(5) 0.0433(4) -0.2278(4)
N2A N 0.0991(4) 0.1064(3) -0.1438(3)
C4A C -0.0485(4) 0.0748(4) -0.1884(4)
C5A C -0.1056(4) 0.1563(4) -0.1154(4)
N3A N -0.0858(4) 0.1438(3) -0.0053(3)
C6A C -0.1458(5) 0.2261(3) 0.0627(4)
H22A H -0.2403(5) 0.2187(3) 0.0144(4)
H23A H -0.1025(5) 0.2993(3) 0.0836(4)
H5A H -0.1209(56) 0.0726(50) -0.0140(48)
H6A H -0.0018(62) 0.1463(46) 0.0363(50)
H20A H -0.2008(4) 0.1485(4) -0.1617(4)
H21A H -0.0642(4) 0.2296(4) -0.0964(4)
H18A H -0.0913(4) 0.0692(4) -0.2687(4)
H19A H -0.0681(4) 0.0035(4) -0.1882(4)
H3A H 0.1128(72) 0.1860(62) -0.1351(62)
H4A H 0.1390(45) 0.0920(36) -0.0750(42)
H16A H 0.1104(5) 0.0544(4) -0.3002(4)
H17A H 0.2487(5) 0.0711(4) -0.1955(4)
H14A H 0.1812(5) -0.1135(4) -0.3014(4)
H15A H 0.0395(5) -0.1088(4) -0.3000(4)
H24A H 0.0347(5) -0.2267(3) -0.2247(4)
H25A H 0.1744(5) -0.2602(3) -0.2115(4)
C8 C 0.6785(5) 0.2908(4) 0.4467(4)
C9 C 0.6085(5) 0.2425(4) 0.4998(4)
N4 N 0.6246(4) 0.3183(3) 0.6147(3)
C10 C 0.7594(6) 0.3358(5) 0.7019(5)
C11 C 0.5229(6) 0.2796(4) 0.6462(5)
C12 C 0.5074(6) 0.3668(4) 0.7442(4)
N5 N 0.4797(4) 0.4683(3) 0.7221(3)
C13 C 0.3461(5) 0.4553(4) 0.6279(4)
C14 C 0.3075(5) 0.5627(4) 0.6224(4)
N6 N 0.6318(4) 0.3940(3) 0.4385(3)
H7 H 0.4768(64) 0.5299(55) 0.7955(58)
H8 H 0.5507(60) 0.4911(48) 0.7019(50)
H9 H 0.5269(73) 0.3899(55) 0.3999(60)
H10 H 0.6513(48) 0.4328(40) 0.4999(45)
H26 H 0.7743(5) 0.3060(4) 0.4942(4)
H27 H 0.6612(5) 0.2383(4) 0.3690(4)
H28 H 0.5138(5) 0.2206(4) 0.4479(4)
H29 H 0.6435(5) 0.1776(4) 0.5066(4)
H30 H 0.7793(14) 0.2682(8) 0.7097(23)
H31 H 0.7677(11) 0.3887(23) 0.7757(9)
H32 H 0.8210(7) 0.3622(29) 0.6783(16)
H33 H 0.5488(6) 0.2185(4) 0.6684(5)
H34 H 0.4374(6) 0.2537(4) 0.5782(5)
H35 H 0.5887(6) 0.3844(4) 0.8153(4)
H36 H 0.4346(6) 0.3394(4) 0.7566(4)
H37 H 0.2796(5) 0.4186(4) 0.6402(4)
H38 H 0.3451(5) 0.4090(4) 0.5533(4)
H39 H 0.2108(5) 0.5528(4) 0.5824(4)
H40 H 0.3346(5) 0.6163(4) 0.7015(4)
N6A N 0.3682(4) 0.6060(3) 0.5615(3)
C8A C 0.3215(5) 0.7092(4) 0.5533(4)
C9A C 0.3915(5) 0.7575(4) 0.5002(4)
N4A N 0.3754(4) 0.6817(3) 0.3853(3)
C10A C 0.2406(6) 0.6642(5) 0.2981(5)
H30A H 0.2207(14) 0.7318(8) 0.2903(23)
H31A H 0.2323(11) 0.6113(23) 0.2243(9)
H32A H 0.1790(7) 0.6378(29) 0.3217(16)
C11A C 0.4771(6) 0.7204(4) 0.3538(5)
C12A C 0.4926(6) 0.6332(4) 0.2558(4)
N5A N 0.5203(4) 0.5317(3) 0.2779(3)
C13A C 0.6539(5) 0.5447(4) 0.3721(4)
C14A C 0.6925(5) 0.4373(4) 0.3776(4)
H39A H 0.7892(5) 0.4472(4) 0.4176(4)
H40A H 0.6654(5) 0.3837(4) 0.2985(4)
H37A H 0.7204(5) 0.5814(4) 0.3598(4)
H38A H 0.6549(5) 0.5910(4) 0.4467(4)
H7A H 0.5232(64) 0.4701(55) 0.2045(58)
H8A H 0.4493(60) 0.5089(48) 0.2981(50)
H35A H 0.4113(6) 0.6156(4) 0.1847(4)
H36A H 0.5654(6) 0.6606(4) 0.2434(4)
H33A H 0.4512(6) 0.7815(4) 0.3316(5)
H34A H 0.5626(6) 0.7463(4) 0.4218(5)
H28A H 0.4862(5) 0.7794(4) 0.5521(4)
H29A H 0.3565(5) 0.8224(4) 0.4934(4)
H26A H 0.2257(5) 0.6940(4) 0.5058(4)
H27A H 0.3388(5) 0.7617(4) 0.6310(4)
H9A H 0.4731(73) 0.6101(55) 0.6001(60)
H10A H 0.3487(48) 0.5672(40) 0.5001(45)
O5? O 0.1188(29) 0.2041(14) 0.6142(16)
loop_
_geom_bond_atom_site_label_1
_geom_bond_atom_site_label_2
_geom_bond_site_symmetry_1
_geom_bond_site_symmetry_2
P1 O8 1_555 1_555
O9 P1 1_555 1_555
O10 P1 1_555 1_555
O11 P1 1_555 1_555
P2 O11 1_555 1_555
O12 P2 1_555 1_555
O13 P2 1_555 1_555
O14 P2 1_555 1_555
P3 O15 1_555 1_555
O15 P4 1_555 1_555
O16 P3 1_555 1_555
P4 O19 1_555 1_555
O17 P3 1_555 1_555
O18 P3 1_555 1_555
O20 P4 1_555 1_555
O21 P4 1_555 1_555
N1 C1 1_555 1_555
C1 H11 1_555 1_555
C2 N1 1_555 1_555
C3 C2 1_555 1_555
N2 C3 1_555 1_555
C4 N2 1_555 1_555
C5 C4 1_555 1_555
N3 C5 1_555 1_555
C6 N3 1_555 1_555
C7 N1 1_555 1_555
C8 C9 1_555 1_555
C9 N4 1_555 1_555
N4 C10 1_555 1_555
C10 H30 1_555 1_555
C11 N4 1_555 1_555
C12 C11 1_555 1_555
N5 C12 1_555 1_555
C13 N5 1_555 1_555
C14 C13 1_555 1_555
N6 C8 1_555 1_555
H1 O18 1_555 1_555
H2 O21 1_555 1_555
H3 N2 1_555 1_555
H4 N2 1_555 1_555
H5 N3 1_555 1_555
H6 N3 1_555 1_555
H7 N5 1_555 1_555
H8 N5 1_555 1_555
H9 N6 1_555 1_555
H10 N6 1_555 1_555
H12 C1 1_555 1_555
H13 C1 1_555 1_555
H14 C2 1_555 1_555
H15 C2 1_555 1_555
H16 C3 1_555 1_555
H17 C3 1_555 1_555
H18 C4 1_555 1_555
H19 C4 1_555 1_555
H20 C5 1_555 1_555
H21 C5 1_555 1_555
H22 C6 1_555 1_555
H23 C6 1_555 1_555
H24 C7 1_555 1_555
H25 C7 1_555 1_555
H26 C8 1_555 1_555
H27 C8 1_555 1_555
H28 C9 1_555 1_555
H29 C9 1_555 1_555
H31 C10 1_555 1_555
H32 C10 1_555 1_555
H33 C11 1_555 1_555
H34 C11 1_555 1_555
H35 C12 1_555 1_555
H36 C12 1_555 1_555
H37 C13 1_555 1_555
H38 C13 1_555 1_555
H39 C14 1_555 1_555
H40 C14 1_555 1_555
C7A C6 1_555 1_555
N1A C7A 1_555 1_555
C1A N1A 1_555 1_555
H11A C1A 1_555 1_555
H12A C1A 1_555 1_555
H13A C1A 1_555 1_555
C2A N1A 1_555 1_555
C3A C2A 1_555 1_555
N2A C3A 1_555 1_555
C4A N2A 1_555 1_555
C5A C4A 1_555 1_555
N3A C5A 1_555 1_555
C6A C7 1_555 1_555
H22A C6A 1_555 1_555
H23A C6A 1_555 1_555
H5A N3A 1_555 1_555
H6A N3A 1_555 1_555
H20A C5A 1_555 1_555
H21A C5A 1_555 1_555
H18A C4A 1_555 1_555
H19A C4A 1_555 1_555
H3A N2A 1_555 1_555
H4A N2A 1_555 1_555
H16A C3A 1_555 1_555
H17A C3A 1_555 1_555
H14A C2A 1_555 1_555
H15A C2A 1_555 1_555
H24A C7A 1_555 1_555
H25A C7A 1_555 1_555
N6A C14 1_555 1_555
C8A N6A 1_555 1_555
C9A C8A 1_555 1_555
N4A C9A 1_555 1_555
C10A N4A 1_555 1_555
H30A C10A 1_555 1_555
H31A C10A 1_555 1_555
H32A C10A 1_555 1_555
C11A N4A 1_555 1_555
C12A C11A 1_555 1_555
N5A C12A 1_555 1_555
C13A N5A 1_555 1_555
C14A N6 1_555 1_555
H39A C14A 1_555 1_555
H40A C14A 1_555 1_555
H37A C13A 1_555 1_555
H38A C13A 1_555 1_555
H7A N5A 1_555 1_555
H8A N5A 1_555 1_555
H35A C12A 1_555 1_555
H36A C12A 1_555 1_555
H33A C11A 1_555 1_555
H34A C11A 1_555 1_555
H28A C9A 1_555 1_555
H29A C9A 1_555 1_555
H26A C8A 1_555 1_555
H27A C8A 1_555 1_555
H9A N6A 1_555 1_555
H10A N6A 1_555 1_555
N3A C6A 1_555 1_555
C13A C14A 1_555 1_555

#END
