
#######################################################################
#
#                 Cambridge Crystallographic Data Centre
#                                CCDC 
#
#######################################################################
#
# If this CIF has been generated from an entry in the Cambridge 
# Structural Database, then it will include bibliographic, chemical, 
# crystal, experimental, refinement or atomic coordinate data resulting 
# from the CCDC's data processing and validation procedures.
#
#######################################################################

data_XACREA
_chemical_compound_source        'Valeriana officinalis'
_chemical_name_common            'Volvalerenone A'
_chemical_formula_moiety         'C14 H20 O4'
_chemical_name_systematic        
2,6a-Dihydroxy-2,6,8a-trimethyl-5,6,6a,7,8,8a-hexahydro-2H-cyclopenta[ij]isochromen-3(4H)-one
_chemical_properties_biological  'weak inhibitory activity on AChE'
_symmetry_cell_setting           monoclinic
_symmetry_space_group_name_H-M   'P 21'
_symmetry_Int_Tables_number      4
_space_group_name_Hall           'P 2yb'
loop_
_symmetry_equiv_pos_site_id
_symmetry_equiv_pos_as_xyz
1 x,y,z
2 -x,1/2+y,-z
_cell_length_a                   8.2702(16)
_cell_length_b                   8.0789(16)
_cell_length_c                   10.279(2)
_cell_angle_alpha                90
_cell_angle_beta                 97.024(3)
_cell_angle_gamma                90
_cell_volume                     681.628
_exptl_crystal_colour            colorless
_exptl_crystal_description       block
_cell_formula_units_Z            2
loop_
_atom_site_label
_atom_site_type_symbol
_atom_site_fract_x
_atom_site_fract_y
_atom_site_fract_z
C1 C 0.7800(4) 1.0247(5) 0.8489(4)
H1 H 0.7987 1.0273 0.9439
H2 H 0.8841 1.0347 0.8152
C2 C 0.6662(5) 1.1660(5) 0.7973(4)
H3 H 0.7283 1.2577 0.7680
H4 H 0.6042 1.2053 0.8653
C3 C 0.5514(4) 1.0933(4) 0.6815(4)
C4 C 0.5321(4) 0.9213(4) 0.7324(3)
C5 C 0.3891(4) 0.8496(4) 0.7425(3)
C6 C 0.3761(4) 0.6874(5) 0.8121(4)
H5 H 0.3107 0.6114 0.7546
H6 H 0.3209 0.7050 0.8890
C7 C 0.5416(6) 0.6101(6) 0.8538(5)
H7 H 0.5789 0.5555 0.7789
H8 H 0.5307 0.5265 0.9199
C8 C 0.6701(5) 0.7376(5) 0.9092(4)
H9 H 0.6257 0.7980 0.9796
C9 C 0.6948(4) 0.8623(5) 0.8013(3)
C10 C 0.2422(4) 0.9369(5) 0.6893(3)
C11 C 0.2617(5) 1.0977(5) 0.6134(4)
C12 C 0.1198(5) 1.2161(7) 0.6172(4)
H10 H 0.0206 1.1625 0.5816
H11 H 0.1367 1.3127 0.5661
H12 H 0.1124 1.2480 0.7062
C13 C 0.6305(5) 1.0993(5) 0.5550(4)
H13 H 0.6277 1.2107 0.5224
H14 H 0.5720 1.0280 0.4909
H15 H 0.7415 1.0629 0.5722
C14 C 0.8261(6) 0.6552(7) 0.9679(5)
H16 H 0.8687 0.5891 0.9023
H17 H 0.8044 0.5858 1.0396
H18 H 0.9044 0.7383 0.9991
O1 O 0.2723(4) 1.0403(4) 0.4850(2)
H19 H 0.2551 1.1172 0.4332
O2 O 0.4026(3) 1.1848(3) 0.6682(2)
O3 O 0.7805(3) 0.7813(4) 0.7051(2)
H20 H 0.8772 0.8066 0.7174
O4 O 0.1063(3) 0.8836(4) 0.7037(3)
loop_
_geom_bond_atom_site_label_1
_geom_bond_atom_site_label_2
_geom_bond_site_symmetry_1
_geom_bond_site_symmetry_2
C1 H1 1_555 1_555
H2 C1 1_555 1_555
C2 C1 1_555 1_555
H3 C2 1_555 1_555
H4 C2 1_555 1_555
C3 C2 1_555 1_555
C4 C3 1_555 1_555
C5 C4 1_555 1_555
C6 C5 1_555 1_555
H5 C6 1_555 1_555
H6 C6 1_555 1_555
C7 C6 1_555 1_555
H7 C7 1_555 1_555
H8 C7 1_555 1_555
C8 C7 1_555 1_555
H9 C8 1_555 1_555
C9 C1 1_555 1_555
C10 C5 1_555 1_555
C11 C10 1_555 1_555
C12 C11 1_555 1_555
H10 C12 1_555 1_555
H11 C12 1_555 1_555
H12 C12 1_555 1_555
C13 C3 1_555 1_555
H13 C13 1_555 1_555
H14 C13 1_555 1_555
H15 C13 1_555 1_555
C14 C8 1_555 1_555
H16 C14 1_555 1_555
H17 C14 1_555 1_555
H18 C14 1_555 1_555
O1 C11 1_555 1_555
H19 O1 1_555 1_555
O2 C3 1_555 1_555
O3 C9 1_555 1_555
H20 O3 1_555 1_555
O4 C10 1_555 1_555
C4 C9 1_555 1_555
C8 C9 1_555 1_555
C11 O2 1_555 1_555

#END
