
#######################################################################
#
#                 Cambridge Crystallographic Data Centre
#                                CCDC 
#
#######################################################################
#
# If this CIF has been generated from an entry in the Cambridge 
# Structural Database, then it will include bibliographic, chemical, 
# crystal, experimental, refinement or atomic coordinate data resulting 
# from the CCDC's data processing and validation procedures.
#
#######################################################################

data_XACTAY
_chemical_formula_moiety         'C20 H37 N1 O5 Si1'
_chemical_name_systematic        
5-(3-((t-Butyl(dimethyl)silyl)oxy)-4-methylhexan-2-yl)-3-methoxy-6-nitrocyclohex-2-en-1-one
_symmetry_cell_setting           monoclinic
_symmetry_space_group_name_H-M   'P 21'
_symmetry_Int_Tables_number      4
_space_group_name_Hall           'P 2yb'
loop_
_symmetry_equiv_pos_site_id
_symmetry_equiv_pos_as_xyz
1 x,y,z
2 -x,1/2+y,-z
_cell_length_a                   9.8105(17)
_cell_length_b                   6.7816(12)
_cell_length_c                   17.787(3)
_cell_angle_alpha                90
_cell_angle_beta                 99.443(5)
_cell_angle_gamma                90
_cell_volume                     1167.35
_exptl_crystal_colour            colorless
_exptl_crystal_description       block
_cell_formula_units_Z            2
loop_
_atom_site_label
_atom_site_type_symbol
_atom_site_fract_x
_atom_site_fract_y
_atom_site_fract_z
Si1 Si 0.03210(8) 1.04356(17) 0.67418(4)
O1 O 0.1554(2) 0.8792(3) 0.69048(11)
O2 O 0.3935(2) 1.2931(4) 0.97627(14)
O3 O 0.1226(2) 0.7283(4) 1.00392(13)
O4 O 0.5915(3) 1.1897(4) 0.85702(19)
O5 O 0.3844(3) 1.2723(4) 0.80739(15)
N1 N 0.4669(3) 1.1709(4) 0.84860(16)
C1 C 0.3005(3) 0.8826(4) 0.84895(16)
C2 C 0.3035(2) 0.8777(4) 0.70528(15)
C3 C 0.4999(3) 0.7104(5) 0.79880(19)
C4 C 0.3477(3) 0.7699(4) 0.78162(15)
C5 C 0.2546(3) 0.7389(4) 0.90578(16)
C6 C -0.1265(3) 0.9037(5) 0.69057(19)
C7 C 0.0606(3) 1.2604(5) 0.7393(2)
C8 C 0.3312(3) 0.9142(5) 0.56718(18)
C9 C 0.4094(3) 1.0155(4) 0.89553(16)
C10 C 0.0073(4) 1.1420(6) 0.5753(2)
C11 C 0.2110(3) 0.8391(5) 0.97283(17)
C12 C 0.3581(3) 0.7819(4) 0.63771(16)
C13 C 0.3520(3) 1.1245(5) 0.95860(18)
C14 C 0.3033(3) 0.5713(5) 0.62211(19)
C15 C 0.4113(4) 0.8512(6) 0.5045(2)
C16 C -0.1016(3) 0.8066(5) 0.7692(2)
C17 C 0.2562(3) 1.0202(6) 0.99582(18)
C18 C -0.1626(4) 0.7451(7) 0.6302(2)
C19 C 0.0765(4) 0.8034(7) 1.0716(2)
C20 C -0.2490(3) 1.0482(7) 0.6874(2)
H1 H 0.1369 0.7614 1.1160
H2 H -0.0140 0.7553 1.0731
H3 H 0.0748 0.9434 1.0698
H4 H 0.2237 1.0790 1.0380
H5 H 0.1789 0.6640 0.8804
H6 H 0.3297 0.6532 0.9233
H7 H 0.2238 0.9632 0.8293
H8 H 0.2973 0.6497 0.7770
H9 H 0.5136 0.5918 0.7726
H10 H 0.5271 0.6912 0.8520
H11 H 0.5538 0.8127 0.7821
H12 H 0.3630 0.4793 0.6513
H13 H 0.2979 0.5425 0.5694
H14 H 0.2137 0.5624 0.6357
H15 H 0.4980 0.9169 0.5122
H16 H 0.3615 0.8844 0.4558
H17 H 0.4258 0.7127 0.5074
H18 H 0.2354 0.9089 0.5469
H19 H 0.3559 1.0455 0.5822
H20 H 0.4556 0.7716 0.6516
H21 H 0.3359 1.0097 0.7106
H22 H 0.0194 1.2348 0.7831
H23 H 0.0197 1.3745 0.7140
H24 H 0.1569 1.2816 0.7544
H25 H 0.0644 1.2547 0.5738
H26 H -0.0866 1.1780 0.5598
H27 H 0.0321 1.0439 0.5419
H28 H -0.0649 0.6780 0.7654
H29 H -0.1864 0.7982 0.7882
H30 H -0.0378 0.8839 0.8029
H31 H -0.2227 0.7971 0.5875
H32 H -0.2064 0.6375 0.6508
H33 H -0.0796 0.7009 0.6146
H34 H -0.2514 1.0990 0.7370
H35 H -0.3332 0.9814 0.6694
H36 H -0.2375 1.1537 0.6539
H37 H 0.4837 0.9345 0.9186
loop_
_geom_bond_atom_site_label_1
_geom_bond_atom_site_label_2
_geom_bond_site_symmetry_1
_geom_bond_site_symmetry_2
Si1 O1 1_555 1_555
O1 C2 1_555 1_555
O2 C13 1_555 1_555
O3 C11 1_555 1_555
O4 N1 1_555 1_555
O5 N1 1_555 1_555
N1 C9 1_555 1_555
C1 C4 1_555 1_555
C2 C4 1_555 1_555
C3 C4 1_555 1_555
C4 H8 1_555 1_555
C5 C1 1_555 1_555
C6 Si1 1_555 1_555
C7 Si1 1_555 1_555
C8 C12 1_555 1_555
C9 C1 1_555 1_555
C10 Si1 1_555 1_555
C11 C5 1_555 1_555
C12 C2 1_555 1_555
C13 C9 1_555 1_555
C14 C12 1_555 1_555
C15 C8 1_555 1_555
C16 C6 1_555 1_555
C17 C11 1_555 1_555
C18 C6 1_555 1_555
C19 O3 1_555 1_555
C20 C6 1_555 1_555
H1 C19 1_555 1_555
H2 C19 1_555 1_555
H3 C19 1_555 1_555
H4 C17 1_555 1_555
H5 C5 1_555 1_555
H6 C5 1_555 1_555
H7 C1 1_555 1_555
H9 C3 1_555 1_555
H10 C3 1_555 1_555
H11 C3 1_555 1_555
H12 C14 1_555 1_555
H13 C14 1_555 1_555
H14 C14 1_555 1_555
H15 C15 1_555 1_555
H16 C15 1_555 1_555
H17 C15 1_555 1_555
H18 C8 1_555 1_555
H19 C8 1_555 1_555
H20 C12 1_555 1_555
H21 C2 1_555 1_555
H22 C7 1_555 1_555
H23 C7 1_555 1_555
H24 C7 1_555 1_555
H25 C10 1_555 1_555
H26 C10 1_555 1_555
H27 C10 1_555 1_555
H28 C16 1_555 1_555
H29 C16 1_555 1_555
H30 C16 1_555 1_555
H31 C18 1_555 1_555
H32 C18 1_555 1_555
H33 C18 1_555 1_555
H34 C20 1_555 1_555
H35 C20 1_555 1_555
H36 C20 1_555 1_555
H37 C9 1_555 1_555
C13 C17 1_555 1_555

#END
