
#######################################################################
#
#                 Cambridge Crystallographic Data Centre
#                                CCDC 
#
#######################################################################
#
# If this CIF has been generated from an entry in the Cambridge 
# Structural Database, then it will include bibliographic, chemical, 
# crystal, experimental, refinement or atomic coordinate data resulting 
# from the CCDC's data processing and validation procedures.
#
#######################################################################

data_XACVII
_chemical_formula_moiety         'C23 H21 Cl2 N3 O5'
_chemical_name_systematic        
'Ethyl 3,4-dicyano-4-(3,4-dichloro-2-ethoxy-5-oxo-2,5-dihydrofuran-2-yl)-2-(4,5,6,7-tetrahydro-1H-indol-2-yl)cyclobut-1-ene-1-carboxylate'
_symmetry_cell_setting           monoclinic
_symmetry_space_group_name_H-M   'P 21'
_symmetry_Int_Tables_number      4
_space_group_name_Hall           'P 2yb'
loop_
_symmetry_equiv_pos_site_id
_symmetry_equiv_pos_as_xyz
1 x,y,z
2 -x,1/2+y,-z
_cell_length_a                   8.213(2)
_cell_length_b                   7.710(2)
_cell_length_c                   18.425(5)
_cell_angle_alpha                90
_cell_angle_beta                 91.22(3)
_cell_angle_gamma                90
_cell_volume                     1166.45
_chemical_melting_point          211-212deg.C
_cell_formula_units_Z            2
loop_
_atom_site_label
_atom_site_type_symbol
_atom_site_fract_x
_atom_site_fract_y
_atom_site_fract_z
Cl1 Cl 0.1253(2) 0.2639(2) 0.09788(10)
Cl2 Cl -0.20904(19) 0.0038(3) 0.08026(11)
O1 O 0.0725(5) -0.0379(7) 0.3600(2)
O2 O 0.0748(5) 0.1534(7) 0.2677(2)
O3 O 0.1982(4) -0.2417(6) 0.1172(2)
O4 O -0.0407(5) -0.3655(8) 0.0981(3)
O5 O 0.3864(4) -0.0429(6) 0.07146(18)
N1 N 0.2354(6) -0.3489(9) 0.3953(3)
H1 H 0.1662 -0.2682 0.4038
N2 N 0.7571(7) -0.1601(12) 0.2499(5)
N3 N 0.5219(7) 0.2401(10) 0.2074(3)
C1 C 0.2570(7) -0.4904(11) 0.4367(3)
C2 C 0.1693(8) -0.5314(11) 0.5046(3)
H2 H 0.0572 -0.5612 0.4925
H3 H 0.1685 -0.4297 0.5355
C3 C 0.2487(14) -0.6802(15) 0.5451(5)
H4 H 0.3379 -0.6359 0.5751
H5 H 0.1699 -0.7321 0.577
C4 C 0.3099(14) -0.8115(15) 0.4974(5)
H6 H 0.2166 -0.8654 0.4735
H7 H 0.3613 -0.8997 0.5277
C5 C 0.4316(8) -0.7633(11) 0.4378(4)
H8 H 0.5404 -0.7513 0.4588
H9 H 0.4337 -0.8535 0.4012
C6 C 0.3763(7) -0.5903(10) 0.4034(3)
C7 C 0.4242(7) -0.5050(10) 0.3442(3)
H10 H 0.5028 -0.5438 0.3125
C8 C 0.3388(7) -0.3499(10) 0.3374(3)
C9 C 0.3367(7) -0.2179(10) 0.2826(3)
C10 C 0.4507(6) -0.2086(10) 0.2182(3)
H11 H 0.4331 -0.3039 0.1837
C11 C 0.3481(6) -0.0367(8) 0.1964(3)
C12 C 0.2495(6) -0.0774(9) 0.2656(3)
C13 C 0.1208(7) 0.0106(10) 0.3007(3)
C14 C -0.0544(10) 0.2542(13) 0.3003(5)
H12 H -0.1577 0.1944 0.2942
H13 H -0.0321 0.2688 0.3518
C15 C -0.0623(13) 0.4218(13) 0.2650(7)
H14 H -0.1472 0.4898 0.286
H15 H -0.085 0.4063 0.2141
H16 H 0.04 0.4805 0.2716
C16 C 0.6193(8) -0.1852(11) 0.2376(4)
C17 C 0.4383(9) 0.1182(11) 0.2014(4)
C18 C 0.2652(7) -0.0628(10) 0.1200(3)
C19 C 0.1146(7) 0.0525(9) 0.1077(3)
C20 C -0.0118(6) -0.0499(10) 0.0985(3)
C21 C 0.0362(7) -0.2337(12) 0.1060(4)
C22 C 0.3313(9) -0.0597(13) -0.0029(4)
H17 H 0.3067 -0.1806 -0.0128
H18 H 0.2315 0.006 -0.0098
C23 C 0.4458(10) -0.0018(19) -0.0525(4)
H19 H 0.4035 -0.0174 -0.101
H20 H 0.5446 -0.067 -0.0463
H21 H 0.4678 0.119 -0.0442
loop_
_geom_bond_atom_site_label_1
_geom_bond_atom_site_label_2
_geom_bond_site_symmetry_1
_geom_bond_site_symmetry_2
Cl1 C19 1_555 1_555
Cl2 C20 1_555 1_555
O1 C13 1_555 1_555
O2 C13 1_555 1_555
O3 C18 1_555 1_555
O4 C21 1_555 1_555
O5 C18 1_555 1_555
N1 H1 1_555 1_555
N2 C16 1_555 1_555
N3 C17 1_555 1_555
C1 N1 1_555 1_555
C2 C1 1_555 1_555
H2 C2 1_555 1_555
H3 C2 1_555 1_555
C3 C2 1_555 1_555
H4 C3 1_555 1_555
H5 C3 1_555 1_555
C4 C3 1_555 1_555
H6 C4 1_555 1_555
H7 C4 1_555 1_555
C5 C4 1_555 1_555
H8 C5 1_555 1_555
H9 C5 1_555 1_555
C6 C1 1_555 1_555
C7 C6 1_555 1_555
H10 C7 1_555 1_555
C8 N1 1_555 1_555
C9 C8 1_555 1_555
C10 C9 1_555 1_555
H11 C10 1_555 1_555
C11 C10 1_555 1_555
C12 C9 1_555 1_555
C13 C12 1_555 1_555
C14 O2 1_555 1_555
H12 C14 1_555 1_555
H13 C14 1_555 1_555
C15 C14 1_555 1_555
H14 C15 1_555 1_555
H15 C15 1_555 1_555
H16 C15 1_555 1_555
C16 C10 1_555 1_555
C17 C11 1_555 1_555
C18 C11 1_555 1_555
C19 C18 1_555 1_555
C20 C19 1_555 1_555
C21 O3 1_555 1_555
C22 O5 1_555 1_555
H17 C22 1_555 1_555
H18 C22 1_555 1_555
C23 C22 1_555 1_555
H19 C23 1_555 1_555
H20 C23 1_555 1_555
H21 C23 1_555 1_555
C5 C6 1_555 1_555
C7 C8 1_555 1_555
C11 C12 1_555 1_555
C20 C21 1_555 1_555

#END
