
#######################################################################
#
#                 Cambridge Crystallographic Data Centre
#                                CCDC 
#
#######################################################################
#
# If this CIF has been generated from an entry in the Cambridge 
# Structural Database, then it will include bibliographic, chemical, 
# crystal, experimental, refinement or atomic coordinate data resulting 
# from the CCDC's data processing and validation procedures.
#
#######################################################################

data_XACVEE
_chemical_formula_moiety         'C23 H20 Cl1 N3 O5'
_chemical_name_systematic        
'Diethyl 3-chloro-1,5-dicyano-4-oxo-7-(4,5,6,7-tetrahydro-1H-indol-2-yl)bicyclo[3.2.0]hepta-2,6-diene-2,6-dicarboxylate'
_symmetry_cell_setting           triclinic
_symmetry_space_group_name_H-M   'P -1'
_symmetry_Int_Tables_number      2
_space_group_name_Hall           '-P 1'
loop_
_symmetry_equiv_pos_site_id
_symmetry_equiv_pos_as_xyz
1 x,y,z
2 -x,-y,-z
_cell_length_a                   8.2110(10)
_cell_length_b                   11.9090(10)
_cell_length_c                   12.9420(10)
_cell_angle_alpha                108.80(2)
_cell_angle_beta                 96.10(2)
_cell_angle_gamma                106.17(2)
_cell_volume                     1123.56
_chemical_melting_point          230-231deg.C
_cell_formula_units_Z            2
loop_
_atom_site_label
_atom_site_type_symbol
_atom_site_fract_x
_atom_site_fract_y
_atom_site_fract_z
Cl1 Cl 0.05692(14) 0.66836(10) 0.52162(10)
O1 O 0.7563(4) 1.0678(2) 0.5041(2)
O2 O 0.7589(4) 1.0326(2) 0.6633(2)
O3 O 0.3999(4) 0.8279(3) 0.6843(2)
O4 O 0.2702(4) 0.4991(3) 0.2208(2)
O5 O 0.0383(5) 0.5046(3) 0.2936(3)
N1 N 0.6784(5) 0.9002(4) 0.2747(3)
H1 H 0.710(5) 0.960(3) 0.321(3)
N2 N 0.6295(5) 0.4842(3) 0.3756(3)
N3 N 0.8013(6) 0.7353(4) 0.6814(4)
C1 C 0.6890(6) 0.8818(4) 0.1698(3)
C2 C 0.7467(7) 0.9800(4) 0.1202(4)
H2 H 0.6714 1.0308 0.1299
H3 H 0.864 1.0347 0.1589
C3 C 0.7419(9) 0.9219(6) 0.0014(5)
H4 H 0.6934 0.9678 -0.036
H5 H 0.8615 0.9383 -0.0064
C4 C 0.6588(15) 0.8003(7) -0.0570(5)
H6 H 0.7246 0.7761 -0.1134
H7 H 0.5489 0.7959 -0.097
C5 C 0.6166(7) 0.6981(5) -0.0138(4)
H8 H 0.6984 0.6527 -0.0272
H9 H 0.5009 0.6396 -0.0517
C6 C 0.6254(6) 0.7539(4) 0.1099(3)
C7 C 0.5765(5) 0.6960(4) 0.1846(3)
H10 H 0.5303 0.6099 0.1677
C8 C 0.6084(5) 0.7881(3) 0.2872(3)
C9 C 0.5910(5) 0.7819(3) 0.3930(3)
C10 C 0.5043(5) 0.6685(3) 0.4242(3)
C11 C 0.5694(5) 0.7639(3) 0.5502(3)
C12 C 0.6379(5) 0.8619(3) 0.4997(3)
C13 C 0.7213(6) 0.9970(4) 0.5533(4)
C14 C 0.8529(8) 1.1646(4) 0.7270(4)
H11 H 0.9719 1.1852 0.7176
H12 H 0.799 1.2161 0.7007
C15 C 0.8497(9) 1.1886(6) 0.8416(5)
H13 H 0.911 1.276 0.8848
H14 H 0.9044 1.1381 0.8673
H15 H 0.7315 1.1681 0.8502
C16 C 0.5741(5) 0.5644(4) 0.3946(3)
C17 C 0.6992(7) 0.7475(4) 0.6232(4)
C18 C 0.4056(5) 0.7668(3) 0.5934(3)
C19 C 0.2580(5) 0.6814(3) 0.5008(3)
C20 C 0.3088(5) 0.6265(3) 0.4074(3)
C21 C 0.2052(6) 0.5363(4) 0.2960(4)
C22 C -0.0756(9) 0.3898(6) 0.1975(5)
H16 H -0.0138 0.3332 0.165
H17 H -0.1784 0.3448 0.2168
C23 C -0.1143(10) 0.4578(7) 0.1266(6)
H18 H -0.1891 0.3987 0.0567
H19 H -0.0081 0.5042 0.1132
H20 H -0.171 0.5148 0.1636
loop_
_geom_bond_atom_site_label_1
_geom_bond_atom_site_label_2
_geom_bond_site_symmetry_1
_geom_bond_site_symmetry_2
Cl1 C19 1_555 1_555
O1 C13 1_555 1_555
O2 C13 1_555 1_555
O3 C18 1_555 1_555
O4 C21 1_555 1_555
O5 C21 1_555 1_555
N1 H1 1_555 1_555
N2 C16 1_555 1_555
N3 C17 1_555 1_555
C1 N1 1_555 1_555
C2 C1 1_555 1_555
H2 C2 1_555 1_555
H3 C2 1_555 1_555
C3 C2 1_555 1_555
H4 C3 1_555 1_555
H5 C3 1_555 1_555
C4 C3 1_555 1_555
H6 C4 1_555 1_555
H7 C4 1_555 1_555
C5 C4 1_555 1_555
H8 C5 1_555 1_555
H9 C5 1_555 1_555
C6 C1 1_555 1_555
C7 C6 1_555 1_555
H10 C7 1_555 1_555
C8 N1 1_555 1_555
C9 C8 1_555 1_555
C10 C9 1_555 1_555
C11 C10 1_555 1_555
C12 C9 1_555 1_555
C13 C12 1_555 1_555
C14 O2 1_555 1_555
H11 C14 1_555 1_555
H12 C14 1_555 1_555
C15 C14 1_555 1_555
H13 C15 1_555 1_555
H14 C15 1_555 1_555
H15 C15 1_555 1_555
C16 C10 1_555 1_555
C17 C11 1_555 1_555
C18 C11 1_555 1_555
C19 C18 1_555 1_555
C20 C10 1_555 1_555
C21 C20 1_555 1_555
C22 O5 1_555 1_555
H16 C22 1_555 1_555
H17 C22 1_555 1_555
C23 C22 1_555 1_555
H18 C23 1_555 1_555
H19 C23 1_555 1_555
H20 C23 1_555 1_555
C5 C6 1_555 1_555
C7 C8 1_555 1_555
C11 C12 1_555 1_555
C19 C20 1_555 1_555

#END
