
#######################################################################
#
#                 Cambridge Crystallographic Data Centre
#                                CCDC 
#
#######################################################################
#
# If this CIF has been generated from an entry in the Cambridge 
# Structural Database, then it will include bibliographic, chemical, 
# crystal, experimental, refinement or atomic coordinate data resulting 
# from the CCDC's data processing and validation procedures.
#
#######################################################################

data_XACWED
_chemical_formula_moiety         'C19 H18 N2 O1'
_chemical_name_systematic        
trans-2-Amino-3-cyano-4-phenyl-1-(p-tolyl)cyclopent-2-en-1-ol
_symmetry_cell_setting           monoclinic
_symmetry_space_group_name_H-M   'P 21/a'
_symmetry_Int_Tables_number      14
_space_group_name_Hall           '-P 2yab'
loop_
_symmetry_equiv_pos_site_id
_symmetry_equiv_pos_as_xyz
1 x,y,z
2 1/2-x,1/2+y,-z
3 -x,-y,-z
4 1/2+x,1/2-y,z
_cell_length_a                   11.051(3)
_cell_length_b                   11.600(4)
_cell_length_c                   12.455(4)
_cell_angle_alpha                90
_cell_angle_beta                 93.95
_cell_angle_gamma                90
_cell_volume                     1592.83
_chemical_melting_point          '164-166 deg.C'
_cell_formula_units_Z            4
loop_
_atom_site_label
_atom_site_type_symbol
_atom_site_fract_x
_atom_site_fract_y
_atom_site_fract_z
O1 O 0.1134(4) 0.7577(4) 0.6890(4)
N1 N 0.3574(6) 0.8420(5) 0.5959(5)
N2 N 0.2497(6) 1.0824(6) 0.4126(6)
C1 C 0.1947(7) 0.8483(6) 0.7282(6)
C2 C 0.2569(7) 0.8958(7) 0.6298(6)
C3 C 0.1941(7) 0.9859(7) 0.5882(6)
C4 C 0.0881(7) 1.0218(7) 0.6517(6)
C5 C 0.1129(6) 0.9501(6) 0.7546(6)
C6 C 0.2240(6) 1.0395(7) 0.4908(7)
C7 C 0.0814(7) 1.1492(7) 0.6689(6)
C8 C 0.1736(7) 1.2113(8) 0.7248(7)
C9 C 0.1674(8) 1.3278(7) 0.7387(8)
C10 C 0.0674(10) 1.3899(7) 0.6945(8)
C11 C -0.0247(8) 1.3292(9) 0.6382(8)
C12 C -0.0152(8) 1.2131(8) 0.6253(6)
C13 C 0.2835(7) 0.8068(8) 0.8187(6)
C14 C 0.3730(8) 0.8827(7) 0.8591(7)
C15 C 0.4581(8) 0.8445(8) 0.9381(7)
C16 C 0.4570(8) 0.7369(9) 0.9804(7)
C17 C 0.3661(8) 0.6614(8) 0.9433(7)
C18 C 0.2799(8) 0.6975(8) 0.8620(7)
C19 C 0.5536(9) 0.6969(9) 1.0636(7)
loop_
_geom_bond_atom_site_label_1
_geom_bond_atom_site_label_2
_geom_bond_site_symmetry_1
_geom_bond_site_symmetry_2
O1 C1 1_555 1_555
N1 C2 1_555 1_555
N2 C6 1_555 1_555
C1 C2 1_555 1_555
C2 C3 1_555 1_555
C3 C4 1_555 1_555
C4 C5 1_555 1_555
C5 C1 1_555 1_555
C6 C3 1_555 1_555
C7 C4 1_555 1_555
C8 C7 1_555 1_555
C9 C8 1_555 1_555
C10 C9 1_555 1_555
C11 C10 1_555 1_555
C12 C7 1_555 1_555
C13 C1 1_555 1_555
C14 C13 1_555 1_555
C15 C14 1_555 1_555
C16 C15 1_555 1_555
C17 C16 1_555 1_555
C18 C13 1_555 1_555
C19 C16 1_555 1_555
C11 C12 1_555 1_555
C17 C18 1_555 1_555

#END
