
#######################################################################
#
#                 Cambridge Crystallographic Data Centre
#                                CCDC 
#
#######################################################################
#
# If this CIF has been generated from an entry in the Cambridge 
# Structural Database, then it will include bibliographic, chemical, 
# crystal, experimental, refinement or atomic coordinate data resulting 
# from the CCDC's data processing and validation procedures.
#
#######################################################################

data_XACXUU
_chemical_formula_moiety         'C19 H21 Cl2 N1 O3'
_chemical_name_systematic        
'Ethyl 3-ethoxy-3-(p-chlorophenyl)-2-(N-(p-chlorophenyl)amino)propanoate'
_symmetry_cell_setting           triclinic
_symmetry_space_group_name_H-M   'P -1'
_symmetry_Int_Tables_number      2
_space_group_name_Hall           '-P 1'
loop_
_symmetry_equiv_pos_site_id
_symmetry_equiv_pos_as_xyz
1 x,y,z
2 -x,-y,-z
_cell_length_a                   9.4031(3)
_cell_length_b                   10.0157(3)
_cell_length_c                   11.2358(3)
_cell_angle_alpha                71.4860(10)
_cell_angle_beta                 80.1910(10)
_cell_angle_gamma                83.216(2)
_cell_volume                     986.415
_exptl_crystal_colour            colorless
_chemical_melting_point          '83-84 deg.C'
_cell_formula_units_Z            2
loop_
_atom_site_label
_atom_site_type_symbol
_atom_site_fract_x
_atom_site_fract_y
_atom_site_fract_z
Cl1 Cl 0.2570(1) 0.8323(1) 0.9165(1)
C1 C 0.2818(3) 0.9037(2) 1.0332(2)
C2 C 0.4013(3) 0.8606(3) 1.0949(2)
C3 C 0.4197(2) 0.9210(2) 1.1856(2)
C4 C 0.3194(2) 1.0220(2) 1.2156(2)
C5 C 0.2007(3) 1.0633(3) 1.1513(2)
C6 C 0.1826(3) 1.0052(3) 1.0597(3)
C7 C 0.3356(2) 1.0864(2) 1.3168(2)
C8 C 0.2575(2) 1.0039(2) 1.4465(2)
C9 C 0.2445(2) 1.0916(2) 1.5365(2)
O1 O 0.3450(2) 1.1154(2) 1.5779(2)
O2 O 0.1099(2) 1.1394(2) 1.5628(2)
C10 C 0.0887(3) 1.2363(5) 1.6402(4)
C11 C -0.0556(4) 1.3033(4) 1.6365(4)
N1 N 0.3388(2) 0.8708(2) 1.4885(2)
C12 C 0.2872(2) 0.7566(2) 1.5859(2)
C13 C 0.3766(3) 0.6335(3) 1.6141(3)
C14 C 0.3282(5) 0.5148(3) 1.7113(3)
C15 C 0.1927(4) 0.5204(3) 1.7777(2)
C16 C 0.1036(3) 0.6392(3) 1.7503(2)
C17 C 0.1501(3) 0.7569(3) 1.6547(2)
Cl2 Cl 0.1374(1) 0.3698(1) 1.8992(1)
O3 O 0.2769(2) 1.2276(1) 1.2910(1)
C18 C 0.3642(3) 1.3230(3) 1.1902(3)
C19 C 0.3064(5) 1.4697(3) 1.1803(5)
H1 H -0.0742(10) 1.3585(22) 1.6942(18)
H2 H -0.1243(4) 1.2325(4) 1.6608(22)
H3 H -0.0643(9) 1.3636(19) 1.5521(7)
H4 H 0.4279(30) 0.8711(25) 1.4658(22)
H5 H 0.4722(28) 0.7984(27) 1.0698(23)
H6 H 0.5085(24) 0.8937(22) 1.2213(19)
H7 H 0.1314(29) 1.1297(27) 1.1697(23)
H8 H 0.1063(30) 1.0361(27) 1.0150(25)
H9 H 0.4397(21) 1.0817(18) 1.3523(16)
H10 H 0.1617(21) 0.9875(19) 1.4383(16)
H11 H 0.0854(23) 1.3657(24) 1.5644(20)
H12 H 0.1123(39) 1.1805(38) 1.7134(32)
H13 H 0.4745(29) 0.6311(25) 1.5592(23)
H14 H 0.3925(36) 0.4429(35) 1.7221(29)
H15 H 0.0032(37) 0.6432(32) 1.8031(29)
H16 H 0.0889(29) 0.8409(29) 1.6360(23)
H17 H 0.4666(31) 1.3002(26) 1.2045(22)
H18 H 0.3635(32) 1.3032(31) 1.1110(30)
H19 H 0.3621(47) 1.5230(47) 1.1314(39)
H20 H 0.2991(42) 1.4795(40) 1.2728(38)
H21 H 0.2049(45) 1.4909(37) 1.1572(30)
loop_
_geom_bond_atom_site_label_1
_geom_bond_atom_site_label_2
_geom_bond_site_symmetry_1
_geom_bond_site_symmetry_2
Cl1 C1 1_555 1_555
C1 C2 1_555 1_555
C2 C3 1_555 1_555
C3 C4 1_555 1_555
C4 C5 1_555 1_555
C5 C6 1_555 1_555
C6 C1 1_555 1_555
C7 C4 1_555 1_555
C8 C7 1_555 1_555
C9 C8 1_555 1_555
O1 C9 1_555 1_555
O2 C9 1_555 1_555
C10 O2 1_555 1_555
C11 C10 1_555 1_555
N1 C8 1_555 1_555
C12 N1 1_555 1_555
C13 C12 1_555 1_555
C14 C13 1_555 1_555
C15 C14 1_555 1_555
C16 C15 1_555 1_555
C17 C12 1_555 1_555
Cl2 C15 1_555 1_555
O3 C7 1_555 1_555
C18 O3 1_555 1_555
C19 C18 1_555 1_555
H1 C11 1_555 1_555
H2 C11 1_555 1_555
H3 C11 1_555 1_555
H4 N1 1_555 1_555
H5 C2 1_555 1_555
H6 C3 1_555 1_555
H7 C5 1_555 1_555
H8 C6 1_555 1_555
H9 C7 1_555 1_555
H10 C8 1_555 1_555
H11 C10 1_555 1_555
H12 C10 1_555 1_555
H13 C13 1_555 1_555
H14 C14 1_555 1_555
H15 C16 1_555 1_555
H16 C17 1_555 1_555
H17 C18 1_555 1_555
H18 C18 1_555 1_555
H19 C19 1_555 1_555
H20 C19 1_555 1_555
H21 C19 1_555 1_555
C16 C17 1_555 1_555

#END
