
#######################################################################
#
#                 Cambridge Crystallographic Data Centre
#                                CCDC 
#
#######################################################################
#
# If this CIF has been generated from an entry in the Cambridge 
# Structural Database, then it will include bibliographic, chemical, 
# crystal, experimental, refinement or atomic coordinate data resulting 
# from the CCDC's data processing and validation procedures.
#
#######################################################################

data_XACYUX
_chemical_formula_moiety         'C30 H48 N4 Si2'
_chemical_name_systematic        
1,3-Di-t-butyl-2-(1,3-di-t-butyl-4-phenyl-1,3,2-diazasiletidin-2-yl)-4-phenyl-1,2-dihydro-1\l^5^,3,2-diazasilete
_symmetry_cell_setting           orthorhombic
_symmetry_space_group_name_H-M   'P 21 21 21'
_symmetry_Int_Tables_number      19
_space_group_name_Hall           'P 2ac 2ab'
loop_
_symmetry_equiv_pos_site_id
_symmetry_equiv_pos_as_xyz
1 x,y,z
2 1/2-x,-y,1/2+z
3 -x,1/2+y,1/2-z
4 1/2+x,1/2-y,-z
_cell_length_a                   9.9171(2)
_cell_length_b                   11.2382(3)
_cell_length_c                   27.6449(7)
_cell_angle_alpha                90
_cell_angle_beta                 90
_cell_angle_gamma                90
_cell_volume                     3081.03
_exptl_crystal_colour            orange
_exptl_crystal_description       block
_chemical_melting_point          151.4deg.C
_cell_formula_units_Z            4
loop_
_atom_site_label
_atom_site_type_symbol
_atom_site_fract_x
_atom_site_fract_y
_atom_site_fract_z
Si1 Si 0.66502(3) 0.46363(3) 0.112623(13)
Si2 Si 0.65540(3) 0.66751(3) 0.089956(12)
H1 H 0.6172(17) 0.6662(16) 0.0405(6)
C1 C 0.89107(12) 0.40598(11) 0.11751(5)
C2 C 1.02333(12) 0.34512(12) 0.12382(5)
C3 C 1.14395(13) 0.40117(12) 0.11123(5)
H2 H 1.1423 0.4789 0.0978
C4 C 1.26675(13) 0.34366(14) 0.11831(6)
H3 H 1.3487 0.3824 0.1100
C5 C 1.26895(15) 0.22906(15) 0.13758(6)
H4 H 1.3526 0.1898 0.1426
C6 C 1.14940(15) 0.17236(13) 0.14943(5)
H5 H 1.1512 0.0937 0.1620
C7 C 1.02648(14) 0.23020(12) 0.14290(5)
H6 H 0.9448 0.1914 0.1514
C8 C 0.84837(14) 0.49758(11) 0.20151(5)
C9 C 0.94571(15) 0.60294(13) 0.19751(6)
H7 H 1.0310 0.5760 0.1833
H8 H 0.9626 0.6358 0.2298
H9 H 0.9059 0.6645 0.1769
C10 C 0.71371(14) 0.53901(14) 0.22309(5)
H10 H 0.6718 0.5972 0.2014
H11 H 0.7298 0.5758 0.2547
H12 H 0.6536 0.4705 0.2270
C11 C 0.90963(15) 0.40018(13) 0.23337(5)
H13 H 0.8480 0.3321 0.2347
H14 H 0.9240 0.4313 0.2661
H15 H 0.9961 0.3748 0.2197
C12 C 0.83078(13) 0.35289(11) 0.02987(5)
C13 C 0.71380(14) 0.39794(13) -0.00145(5)
H16 H 0.6280 0.3775 0.0140
H17 H 0.7183 0.3606 -0.0334
H18 H 0.7203 0.4845 -0.0049
C14 C 0.82007(15) 0.21799(12) 0.03575(5)
H19 H 0.8966 0.1890 0.0548
H20 H 0.8211 0.1802 0.0038
H21 H 0.7357 0.1983 0.0524
C15 C 0.96477(14) 0.38511(14) 0.00556(5)
H22 H 0.9724 0.4718 0.0030
H23 H 0.9679 0.3499 -0.0269
H24 H 1.0397 0.3542 0.0250
C16 C 0.65062(12) 0.86420(10) 0.11497(5)
H25 H 0.6227 0.9124 0.0863
C17 C 0.67103(12) 0.94464(11) 0.15837(5)
C18 C 0.70849(14) 0.89815(13) 0.20300(5)
H26 H 0.7246 0.8152 0.2062
C19 C 0.72241(16) 0.97224(15) 0.24284(6)
H27 H 0.7477 0.9399 0.2733
C20 C 0.69939(17) 1.09383(15) 0.23833(6)
H28 H 0.7096 1.1444 0.2656
C21 C 0.66179(16) 1.14107(12) 0.19435(6)
H29 H 0.6455 1.2240 0.1913
C22 C 0.64776(14) 1.06630(12) 0.15430(5)
H30 H 0.6221 1.0989 0.1240
C23 C 0.40730(12) 0.78612(12) 0.12372(5)
C24 C 0.36601(14) 0.85059(13) 0.17030(5)
H31 H 0.4010 0.8070 0.1983
H32 H 0.2674 0.8546 0.1722
H33 H 0.4032 0.9314 0.1701
C25 C 0.35907(13) 0.85755(13) 0.08003(6)
H34 H 0.3924 0.9394 0.0825
H35 H 0.2603 0.8580 0.0793
H36 H 0.3936 0.8210 0.0503
C26 C 0.34163(13) 0.66295(12) 0.12274(5)
H37 H 0.3614 0.6241 0.0918
H38 H 0.2438 0.6713 0.1265
H39 H 0.3776 0.6146 0.1493
C27 C 0.87873(12) 0.83002(12) 0.07254(5)
C28 C 0.96256(14) 0.91893(13) 0.10176(6)
H40 H 0.9057 0.9864 0.1112
H41 H 1.0378 0.9476 0.0820
H42 H 0.9978 0.8798 0.1308
C29 C 0.83216(15) 0.88873(13) 0.02523(5)
H43 H 0.7752 0.8331 0.0072
H44 H 0.9111 0.9098 0.0057
H45 H 0.7805 0.9608 0.0327
C30 C 0.96465(13) 0.72055(12) 0.06059(5)
H46 H 0.9963 0.6838 0.0907
H47 H 1.0423 0.7447 0.0410
H48 H 0.9102 0.6631 0.0424
N1 N 0.81460(10) 0.45380(10) 0.15248(4)
N2 N 0.81568(10) 0.41407(9) 0.07700(4)
N3 N 0.55342(10) 0.76580(9) 0.12289(4)
N4 N 0.76610(10) 0.78612(9) 0.10201(4)
loop_
_geom_bond_atom_site_label_1
_geom_bond_atom_site_label_2
_geom_bond_site_symmetry_1
_geom_bond_site_symmetry_2
Si1 Si2 1_555 1_555
Si2 H1 1_555 1_555
C1 C2 1_555 1_555
C2 C3 1_555 1_555
C3 H2 1_555 1_555
C4 C3 1_555 1_555
H3 C4 1_555 1_555
C5 C4 1_555 1_555
H4 C5 1_555 1_555
C6 C5 1_555 1_555
H5 C6 1_555 1_555
C7 C2 1_555 1_555
H6 C7 1_555 1_555
C8 C9 1_555 1_555
C9 H7 1_555 1_555
H8 C9 1_555 1_555
H9 C9 1_555 1_555
C10 C8 1_555 1_555
H10 C10 1_555 1_555
H11 C10 1_555 1_555
H12 C10 1_555 1_555
C11 C8 1_555 1_555
H13 C11 1_555 1_555
H14 C11 1_555 1_555
H15 C11 1_555 1_555
C12 C13 1_555 1_555
C13 H16 1_555 1_555
H17 C13 1_555 1_555
H18 C13 1_555 1_555
C14 C12 1_555 1_555
H19 C14 1_555 1_555
H20 C14 1_555 1_555
H21 C14 1_555 1_555
C15 C12 1_555 1_555
H22 C15 1_555 1_555
H23 C15 1_555 1_555
H24 C15 1_555 1_555
C16 H25 1_555 1_555
C17 C16 1_555 1_555
C18 C17 1_555 1_555
H26 C18 1_555 1_555
C19 C18 1_555 1_555
H27 C19 1_555 1_555
C20 C19 1_555 1_555
H28 C20 1_555 1_555
C21 C20 1_555 1_555
H29 C21 1_555 1_555
C22 C17 1_555 1_555
H30 C22 1_555 1_555
C23 C24 1_555 1_555
C24 H31 1_555 1_555
H32 C24 1_555 1_555
H33 C24 1_555 1_555
C25 C23 1_555 1_555
H34 C25 1_555 1_555
H35 C25 1_555 1_555
H36 C25 1_555 1_555
C26 C23 1_555 1_555
H37 C26 1_555 1_555
H38 C26 1_555 1_555
H39 C26 1_555 1_555
C27 C28 1_555 1_555
C28 H40 1_555 1_555
H41 C28 1_555 1_555
H42 C28 1_555 1_555
C29 C27 1_555 1_555
H43 C29 1_555 1_555
H44 C29 1_555 1_555
H45 C29 1_555 1_555
C30 C27 1_555 1_555
H46 C30 1_555 1_555
H47 C30 1_555 1_555
H48 C30 1_555 1_555
N1 Si1 1_555 1_555
N2 Si1 1_555 1_555
N3 Si2 1_555 1_555
N4 Si2 1_555 1_555
C1 N1 1_555 1_555
C1 N2 1_555 1_555
C6 C7 1_555 1_555
C8 N1 1_555 1_555
C12 N2 1_555 1_555
C16 N3 1_555 1_555
C16 N4 1_555 1_555
C21 C22 1_555 1_555
C23 N3 1_555 1_555
C27 N4 1_555 1_555

#END
