
#######################################################################
#
#                 Cambridge Crystallographic Data Centre
#                                CCDC 
#
#######################################################################
#
# If this CIF has been generated from an entry in the Cambridge 
# Structural Database, then it will include bibliographic, chemical, 
# crystal, experimental, refinement or atomic coordinate data resulting 
# from the CCDC's data processing and validation procedures.
#
#######################################################################

data_XADGIV
_chemical_formula_moiety         'C25 H25 N1 O3'
_chemical_name_systematic        
'ethyl 6-methoxy-1,9-dimethyl-4-(4-methylphenyl)-9H-carbazole-2-carboxylate'
_symmetry_cell_setting           monoclinic
_symmetry_space_group_name_H-M   'P 21/n'
_symmetry_Int_Tables_number      14
_space_group_name_Hall           '-P 2yn'
loop_
_symmetry_equiv_pos_site_id
_symmetry_equiv_pos_as_xyz
1 x,y,z
2 1/2-x,1/2+y,1/2-z
3 -x,-y,-z
4 1/2+x,1/2-y,1/2+z
_cell_length_a                   15.9585(18)
_cell_length_b                   7.1014(8)
_cell_length_c                   18.525(2)
_cell_angle_alpha                90
_cell_angle_beta                 108.061(2)
_cell_angle_gamma                90
_cell_volume                     1995.95
_exptl_crystal_colour            colorless
_exptl_crystal_description       block
_cell_formula_units_Z            4
loop_
_atom_site_label
_atom_site_type_symbol
_atom_site_fract_x
_atom_site_fract_y
_atom_site_fract_z
O1 O -0.24864(9) 0.9191(2) 0.76465(7)
O2 O -0.27313(9) 0.74725(19) 0.85629(8)
O3 O 0.38065(9) 0.7459(2) 0.96747(8)
N1 N 0.06747(10) 0.73459(18) 1.03369(7)
C1 C -0.08449(12) 0.7734(2) 0.93759(9)
C2 C -0.12489(11) 0.7925(2) 0.85888(9)
C3 C -0.07608(12) 0.7869(2) 0.80730(9)
H1 H -0.1060 0.7976 0.7557
C4 C 0.01345(12) 0.7665(2) 0.83011(9)
C5 C 0.05673(11) 0.7511(2) 0.90857(9)
C6 C 0.00785(12) 0.7517(2) 0.96090(9)
C7 C 0.14877(12) 0.7393(2) 0.95160(9)
C8 C 0.15208(12) 0.7300(2) 1.02829(9)
C9 C 0.23216(13) 0.7227(2) 1.08585(10)
H2 H 0.2342 0.7145 1.1365
C10 C 0.30859(13) 0.7279(3) 1.06594(11)
H3 H 0.3628 0.7238 1.1038
C11 C 0.30635(13) 0.7391(3) 0.99047(10)
C12 C 0.22682(12) 0.7436(2) 0.93305(10)
H4 H 0.2254 0.7494 0.8825
C13 C 0.05152(14) 0.7171(3) 1.10671(9)
H5 H 0.0415 0.8397 1.1243
H6 H 0.1019 0.6607 1.1428
H7 H 0.0007 0.6394 1.1011
C14 C -0.13551(13) 0.7864(3) 0.99384(10)
H8 H -0.1465 0.6620 1.0091
H9 H -0.1906 0.8491 0.9706
H10 H -0.1018 0.8563 1.0376
C15 C 0.46347(14) 0.7458(3) 1.02300(14)
H11 H 0.4680 0.8524 1.0559
H12 H 0.5087 0.7530 0.9990
H13 H 0.4705 0.6320 1.0522
C16 C -0.22102(12) 0.8275(3) 0.82177(10)
C17 C -0.36681(14) 0.7780(4) 0.82285(13)
H14 H -0.3915 0.6842 0.7840
H15 H -0.3774 0.9015 0.7994
C18 C -0.40846(16) 0.7645(3) 0.88260(15)
H16 H -0.3952 0.6443 0.9072
H17 H -0.4711 0.7775 0.8607
H18 H -0.3864 0.8628 0.9191
C19 C 0.06366(11) 0.7605(2) 0.77445(8)
C20 C 0.08444(12) 0.9223(3) 0.74282(10)
H19 H 0.0656 1.0381 0.7554
C21 C 0.13294(13) 0.9154(3) 0.69258(11)
H20 H 0.1462 1.0272 0.6724
C22 C 0.16198(12) 0.7486(3) 0.67167(10)
C23 C 0.14048(13) 0.5869(3) 0.70277(11)
H21 H 0.1589 0.4712 0.6896
C24 C 0.09200(13) 0.5917(3) 0.75327(10)
H22 H 0.0784 0.4797 0.7731
C25 C 0.21569(16) 0.7428(3) 0.61772(14)
H23 H 0.2772 0.7363 0.6461
H24 H 0.2046 0.8544 0.5870
H25 H 0.1995 0.6339 0.5857
loop_
_geom_bond_atom_site_label_1
_geom_bond_atom_site_label_2
_geom_bond_site_symmetry_1
_geom_bond_site_symmetry_2
O1 C16 1_555 1_555
O2 C16 1_555 1_555
O3 C11 1_555 1_555
N1 C6 1_555 1_555
C1 C2 1_555 1_555
C2 C3 1_555 1_555
C3 H1 1_555 1_555
C4 C3 1_555 1_555
C5 C4 1_555 1_555
C6 C1 1_555 1_555
C7 C5 1_555 1_555
C8 N1 1_555 1_555
C9 C8 1_555 1_555
H2 C9 1_555 1_555
C10 C9 1_555 1_555
H3 C10 1_555 1_555
C11 C10 1_555 1_555
C12 C7 1_555 1_555
H4 C12 1_555 1_555
C13 N1 1_555 1_555
H5 C13 1_555 1_555
H6 C13 1_555 1_555
H7 C13 1_555 1_555
C14 C1 1_555 1_555
H8 C14 1_555 1_555
H9 C14 1_555 1_555
H10 C14 1_555 1_555
C15 O3 1_555 1_555
H11 C15 1_555 1_555
H12 C15 1_555 1_555
H13 C15 1_555 1_555
C16 C2 1_555 1_555
C17 O2 1_555 1_555
H14 C17 1_555 1_555
H15 C17 1_555 1_555
C18 C17 1_555 1_555
H16 C18 1_555 1_555
H17 C18 1_555 1_555
H18 C18 1_555 1_555
C19 C4 1_555 1_555
C20 C19 1_555 1_555
H19 C20 1_555 1_555
C21 C20 1_555 1_555
H20 C21 1_555 1_555
C22 C21 1_555 1_555
C23 C22 1_555 1_555
H21 C23 1_555 1_555
C24 C19 1_555 1_555
H22 C24 1_555 1_555
C25 C22 1_555 1_555
H23 C25 1_555 1_555
H24 C25 1_555 1_555
H25 C25 1_555 1_555
C5 C6 1_555 1_555
C7 C8 1_555 1_555
C11 C12 1_555 1_555
C23 C24 1_555 1_555

#END
