
#######################################################################
#
#                 Cambridge Crystallographic Data Centre
#                                CCDC 
#
#######################################################################
#
# If this CIF has been generated from an entry in the Cambridge 
# Structural Database, then it will include bibliographic, chemical, 
# crystal, experimental, refinement or atomic coordinate data resulting 
# from the CCDC's data processing and validation procedures.
#
#######################################################################

data_XADJUK
_chemical_formula_moiety         'C26 H29 N1 O2'
_chemical_name_systematic        
17-octyl-17-azapentacyclo[6.6.5.0^2,7^.0^9,14^.0^15,19^]nonadeca-2,4,6,9,11,13-hexaene-16,18-dione
_symmetry_cell_setting           orthorhombic
_symmetry_space_group_name_H-M   'P b c a'
_symmetry_Int_Tables_number      61
_space_group_name_Hall           '-P 2ac 2ab'
loop_
_symmetry_equiv_pos_site_id
_symmetry_equiv_pos_as_xyz
1 x,y,z
2 1/2-x,-y,1/2+z
3 -x,1/2+y,1/2-z
4 1/2+x,1/2-y,-z
5 -x,-y,-z
6 1/2+x,y,1/2-z
7 x,1/2-y,1/2+z
8 1/2-x,1/2+y,z
_cell_length_a                   11.197(2)
_cell_length_b                   8.3999(17)
_cell_length_c                   44.997(9)
_cell_angle_alpha                90
_cell_angle_beta                 90
_cell_angle_gamma                90
_cell_volume                     4232.13
_exptl_crystal_colour            colorless
_exptl_crystal_description       Needle
_cell_formula_units_Z            8
loop_
_atom_site_label
_atom_site_type_symbol
_atom_site_fract_x
_atom_site_fract_y
_atom_site_fract_z
O1 O 0.27524(12) 0.01783(16) 0.15702(4)
O2 O 0.01392(13) 0.35792(16) 0.11235(3)
N1 N 0.15636(14) 0.18199(19) 0.12870(4)
C1 C 0.00191(17) -0.2099(2) 0.15716(5)
C2 C 0.05938(17) 0.2834(2) 0.13245(5)
C3 C 0.19283(16) 0.1115(2) 0.15480(5)
C4 C -0.10088(16) 0.0427(2) 0.15402(5)
C5 C -0.01868(16) -0.0586(2) 0.16827(5)
C6 C 0.04632(16) 0.0210(2) 0.19373(5)
C7 C 0.20752(17) 0.1476(3) 0.09948(5)
C8 C -0.12831(16) 0.1883(2) 0.20078(5)
C9 C 0.02080(16) 0.2790(2) 0.16470(5)
C10 C 0.11200(16) 0.1668(2) 0.17960(5)
C11 C -0.10747(16) 0.2069(2) 0.16790(5)
C12 C -0.05800(18) -0.2612(2) 0.13180(5)
C13 C -0.15976(17) -0.0082(2) 0.12867(5)
C14 C 0.12901(18) 0.0334(3) 0.08198(5)
C15 C -0.21905(18) 0.2594(3) 0.21716(5)
C16 C 0.17869(19) 0.0011(3) 0.05113(5)
C17 C 0.1585(2) -0.1619(3) 0.00351(5)
C18 C -0.14417(19) 0.1304(3) 0.26149(5)
C19 C 0.10870(19) -0.1265(3) 0.03437(5)
C20 C 0.0991(2) -0.3031(3) -0.01160(5)
C21 C -0.05225(18) 0.0595(2) 0.24518(5)
C22 C -0.13779(18) -0.1594(2) 0.11750(5)
C23 C 0.1509(2) -0.3443(3) -0.04188(5)
C24 C -0.22665(19) 0.2284(3) 0.24756(6)
C25 C -0.04533(17) 0.0888(2) 0.21487(5)
C26 C 0.1015(2) -0.4990(3) -0.05449(6)
H1 H 0.062(2) -0.281(3) 0.1666(6)
H2 H -0.1691(19) 0.279(3) 0.1586(5)
H3 H -0.043(2) -0.370(3) 0.1239(6)
H4 H 0.103(2) -0.057(3) 0.2037(6)
H5 H -0.149(2) 0.104(3) 0.2837(7)
H6 H 0.0059(19) -0.011(3) 0.2549(6)
H7 H 0.136(2) -0.251(3) -0.0565(6)
H8 H 0.0219(17) 0.391(2) 0.1732(5)
H9 H 0.292(2) 0.102(3) 0.1024(6)
H10 H 0.021(2) -0.087(3) 0.0322(6)
H11 H 0.265(2) -0.035(3) 0.0529(6)
H12 H 0.109(2) -0.229(3) 0.0472(7)
H13 H 0.179(2) 0.104(3) 0.0394(6)
H14 H 0.108(2) -0.401(3) 0.0018(6)
H15 H -0.288(2) 0.280(3) 0.2591(7)
H16 H -0.279(2) 0.334(3) 0.2078(6)
H17 H 0.013(2) -0.285(3) -0.0140(6)
H18 H 0.148(2) -0.066(3) -0.0092(7)
H19 H 0.142(2) -0.524(3) -0.0740(8)
H20 H 0.162(2) 0.222(3) 0.1939(6)
H21 H 0.2136(19) 0.250(3) 0.0894(6)
H22 H 0.047(2) 0.083(3) 0.0797(6)
H23 H -0.2154(19) 0.067(3) 0.1185(5)
H24 H 0.121(2) -0.068(3) 0.0934(6)
H25 H 0.242(2) -0.350(3) -0.0398(6)
H26 H -0.180(2) -0.193(3) 0.0997(7)
H27 H 0.250(2) -0.188(3) 0.0049(6)
H28 H 0.014(3) -0.492(3) -0.0567(7)
H29 H 0.118(2) -0.593(4) -0.0411(7)
loop_
_geom_bond_atom_site_label_1
_geom_bond_atom_site_label_2
_geom_bond_site_symmetry_1
_geom_bond_site_symmetry_2
O1 C3 1_555 1_555
O2 C2 1_555 1_555
N1 C2 1_555 1_555
C1 C5 1_555 1_555
C2 C9 1_555 1_555
C3 N1 1_555 1_555
C4 C5 1_555 1_555
C5 C6 1_555 1_555
C6 C10 1_555 1_555
C7 N1 1_555 1_555
C8 C11 1_555 1_555
C9 C10 1_555 1_555
C10 C3 1_555 1_555
C11 C4 1_555 1_555
C12 C1 1_555 1_555
C13 C4 1_555 1_555
C14 C7 1_555 1_555
C15 C8 1_555 1_555
C16 C14 1_555 1_555
C17 C19 1_555 1_555
C18 C21 1_555 1_555
C19 C16 1_555 1_555
C20 C17 1_555 1_555
C21 C25 1_555 1_555
C22 C12 1_555 1_555
C23 C20 1_555 1_555
C24 C15 1_555 1_555
C25 C6 1_555 1_555
C26 C23 1_555 1_555
H1 C1 1_555 1_555
H2 C11 1_555 1_555
H3 C12 1_555 1_555
H4 C6 1_555 1_555
H5 C18 1_555 1_555
H6 C21 1_555 1_555
H7 C23 1_555 1_555
H8 C9 1_555 1_555
H9 C7 1_555 1_555
H10 C19 1_555 1_555
H11 C16 1_555 1_555
H12 C19 1_555 1_555
H13 C16 1_555 1_555
H14 C20 1_555 1_555
H15 C24 1_555 1_555
H16 C15 1_555 1_555
H17 C20 1_555 1_555
H18 C17 1_555 1_555
H19 C26 1_555 1_555
H20 C10 1_555 1_555
H21 C7 1_555 1_555
H22 C14 1_555 1_555
H23 C13 1_555 1_555
H24 C14 1_555 1_555
H25 C23 1_555 1_555
H26 C22 1_555 1_555
H27 C17 1_555 1_555
H28 C26 1_555 1_555
H29 C26 1_555 1_555
C8 C25 1_555 1_555
C9 C11 1_555 1_555
C13 C22 1_555 1_555
C18 C24 1_555 1_555

#END
