
#######################################################################
#
#                 Cambridge Crystallographic Data Centre
#                                CCDC 
#
#######################################################################
#
# If this CIF has been generated from an entry in the Cambridge 
# Structural Database, then it will include bibliographic, chemical, 
# crystal, experimental, refinement or atomic coordinate data resulting 
# from the CCDC's data processing and validation procedures.
#
#######################################################################

data_XAFBIS
_chemical_formula_moiety         'C36 H23 N3 O1'
_chemical_name_systematic        
(3,5-bis(9H-carbazol-9-yl)phenyl)(pyridin-4-yl)methanone
_symmetry_cell_setting           monoclinic
_symmetry_space_group_name_H-M   'P 21/c'
_symmetry_Int_Tables_number      14
_space_group_name_Hall           '-P 2ybc'
loop_
_symmetry_equiv_pos_site_id
_symmetry_equiv_pos_as_xyz
1 x,y,z
2 -x,1/2+y,1/2-z
3 -x,-y,-z
4 x,1/2-y,1/2+z
_cell_length_a                   27.2477(11)
_cell_length_b                   21.3076(11)
_cell_length_c                   8.9486(4)
_cell_angle_alpha                90
_cell_angle_beta                 91.472(2)
_cell_angle_gamma                90
_cell_volume                     5193.69
_exptl_crystal_colour            'pale yellow'
_cell_formula_units_Z            8
loop_
_atom_site_label
_atom_site_type_symbol
_atom_site_fract_x
_atom_site_fract_y
_atom_site_fract_z
C1 C 0.40317(14) 0.62882(18) 0.2154(5)
C2 C 0.42371(15) 0.61194(19) 0.3525(5)
H1 H 0.4576 0.6101 0.3678
C3 C 0.39204(17) 0.5980(2) 0.4657(6)
H2 H 0.4048 0.5864 0.5590
C4 C 0.34161(16) 0.6010(2) 0.4428(6)
H3 H 0.3212 0.5908 0.5209
C5 C 0.32135(16) 0.6183(2) 0.3091(6)
H4 H 0.2874 0.6198 0.2953
C6 C 0.35198(15) 0.63389(18) 0.1928(5)
C7 C 0.34405(14) 0.65716(17) 0.0429(5)
C8 C 0.30206(16) 0.6736(2) -0.0394(6)
H5 H 0.2713 0.6698 0.0022
C9 C 0.30644(17) 0.6956(2) -0.1836(7)
H6 H 0.2784 0.7064 -0.2393
C10 C 0.35210(16) 0.70189(18) -0.2458(6)
H7 H 0.3544 0.7169 -0.3429
C11 C 0.39404(16) 0.6861(2) -0.1660(6)
H8 H 0.4247 0.6900 -0.2082
C12 C 0.38950(15) 0.66436(18) -0.0212(5)
C13 C 0.47784(13) 0.64864(18) 0.0637(5)
C14 C 0.49976(13) 0.70465(17) 0.0225(5)
H9 H 0.4803 0.7395 0.0000
C15 C 0.55043(13) 0.70904(17) 0.0145(5)
C16 C 0.57902(14) 0.65637(18) 0.0415(5)
H10 H 0.6130 0.6590 0.0373
C17 C 0.55700(13) 0.59973(18) 0.0749(5)
C18 C 0.50616(14) 0.59581(19) 0.0880(5)
H11 H 0.4915 0.5579 0.1129
C19 C 0.58621(15) 0.5413(2) 0.1019(6)
C20 C 0.63508(15) 0.53289(19) 0.0295(6)
C21 C 0.64513(16) 0.5565(2) -0.1093(6)
H12 H 0.6216 0.5795 -0.1630
C22 C 0.69046(19) 0.5456(3) -0.1668(7)
H13 H 0.6963 0.5612 -0.2619
C23 C 0.71612(18) 0.4925(2) 0.0347(8)
H14 H 0.7407 0.4704 0.0859
C24 C 0.67169(15) 0.49924(18) 0.1030(6)
H15 H 0.6665 0.4816 0.1963
C25 C 0.55810(15) 0.82554(18) 0.0423(5)
C26 C 0.52033(15) 0.8393(2) 0.1380(6)
H16 H 0.5007 0.8075 0.1753
C27 C 0.51263(18) 0.9008(2) 0.1764(6)
H17 H 0.4869 0.9111 0.2381
C28 C 0.54285(19) 0.9476(2) 0.1239(6)
H18 H 0.5368 0.9892 0.1489
C29 C 0.58226(19) 0.9332(2) 0.0345(6)
H19 H 0.6029 0.9648 0.0014
C30 C 0.59051(15) 0.87114(19) -0.0050(5)
C31 C 0.62708(14) 0.8412(2) -0.0918(6)
C32 C 0.66880(17) 0.8619(2) -0.1629(7)
H20 H 0.6785 0.9036 -0.1542
C33 C 0.69562(17) 0.8210(3) -0.2457(8)
H21 H 0.7237 0.8350 -0.2924
C34 C 0.68126(16) 0.7590(3) -0.2603(8)
H22 H 0.6990 0.7323 -0.3209
C35 C 0.64085(14) 0.7357(2) -0.1864(6)
H23 H 0.6320 0.6937 -0.1939
C36 C 0.61434(13) 0.77724(19) -0.1015(6)
N1 N 0.42595(11) 0.64619(15) 0.0820(4)
N2 N 0.57236(10) 0.76731(13) -0.0180(4)
N3 N 0.72617(17) 0.5151(2) -0.0986(7)
O1 O 0.57084(11) 0.49951(15) 0.1788(5)
C37 C 1.10977(14) 0.66328(18) 0.4694(5)
C38 C 1.10433(16) 0.6849(2) 0.3240(6)
H24 H 1.0734 0.6888 0.2783
C39 C 1.14630(16) 0.70066(19) 0.2487(6)
H25 H 1.1437 0.7152 0.1509
C40 C 1.19220(17) 0.6949(2) 0.3178(7)
H26 H 1.2200 0.7064 0.2661
C41 C 1.19734(16) 0.6726(2) 0.4599(6)
H27 H 1.2285 0.6682 0.5032
C42 C 1.15634(14) 0.65629(17) 0.5410(5)
C43 C 1.14806(14) 0.63311(18) 0.6883(5)
C44 C 1.17937(16) 0.6185(2) 0.8089(6)
H28 H 1.2132 0.6213 0.8000
C45 C 1.15931(18) 0.5998(2) 0.9414(6)
H29 H 1.1799 0.5890 1.0219
C46 C 1.10896(17) 0.5968(2) 0.9560(6)
H30 H 1.0963 0.5853 1.0475
C47 C 1.07714(16) 0.61051(19) 0.8382(6)
H31 H 1.0433 0.6083 0.8487
C48 C 1.09728(14) 0.62773(18) 0.7042(5)
C49 C 1.02297(13) 0.64675(18) 0.5440(5)
C50 C 0.99504(14) 0.59377(19) 0.5710(5)
H32 H 1.0101 0.5566 0.6015
C51 C 0.94449(13) 0.59660(18) 0.5522(5)
C52 C 0.92186(14) 0.65234(17) 0.5098(5)
H33 H 0.8878 0.6544 0.5006
C53 C 0.95000(13) 0.70478(17) 0.4811(5)
C54 C 1.00101(14) 0.70166(18) 0.4951(5)
H34 H 1.0201 0.7363 0.4718
C55 C 0.91565(15) 0.5380(2) 0.5858(5)
C56 C 0.86509(14) 0.52994(19) 0.5190(5)
C57 C 0.82971(15) 0.49914(19) 0.5994(6)
H35 H 0.8374 0.4830 0.6937
C58 C 0.78333(18) 0.4927(2) 0.5390(8)
H36 H 0.7600 0.4729 0.5965
N4 N 0.76939(16) 0.5126(2) 0.4047(8)
C59 C 0.80395(18) 0.5400(3) 0.3256(8)
H37 H 0.7956 0.5533 0.2293
C60 C 0.85165(17) 0.5500(2) 0.3777(6)
H38 H 0.8743 0.5701 0.3180
C61 C 0.88553(13) 0.7718(2) 0.3519(5)
C62 C 0.86017(14) 0.7295(2) 0.2612(6)
H39 H 0.8700 0.6878 0.2562
C63 C 0.81985(15) 0.7505(3) 0.1780(7)
H40 H 0.8034 0.7230 0.1134
C64 C 0.80353(17) 0.8129(3) 0.1899(7)
H41 H 0.7757 0.8261 0.1363
C65 C 0.82863(16) 0.8543(3) 0.2805(7)
H42 H 0.8178 0.8955 0.2883
C66 C 0.87034(15) 0.8350(2) 0.3611(6)
C67 C 0.90557(16) 0.8663(2) 0.4556(6)
C68 C 0.9115(2) 0.9286(2) 0.5043(7)
H43 H 0.8893 0.9595 0.4734
C69 C 0.9502(2) 0.9433(2) 0.5971(7)
H44 H 0.9551 0.9849 0.6254
C70 C 0.98171(19) 0.8984(2) 0.6494(6)
H45 H 1.0068 0.9096 0.7165
C71 C 0.97728(16) 0.8370(2) 0.6053(5)
H46 H 0.9989 0.8066 0.6422
C72 C 0.94017(15) 0.82122(19) 0.5056(5)
N5 N 1.07414(11) 0.64504(15) 0.5696(4)
N6 N 0.92734(10) 0.76309(15) 0.4416(4)
O2 O 0.93337(11) 0.49762(14) 0.6641(5)
loop_
_geom_bond_atom_site_label_1
_geom_bond_atom_site_label_2
_geom_bond_site_symmetry_1
_geom_bond_site_symmetry_2
C1 C2 1_555 1_555
C2 H1 1_555 1_555
C3 C2 1_555 1_555
H2 C3 1_555 1_555
C4 C3 1_555 1_555
H3 C4 1_555 1_555
C5 C4 1_555 1_555
H4 C5 1_555 1_555
C6 C1 1_555 1_555
C7 C6 1_555 1_555
C8 C7 1_555 1_555
H5 C8 1_555 1_555
C9 C8 1_555 1_555
H6 C9 1_555 1_555
C10 C9 1_555 1_555
H7 C10 1_555 1_555
C11 C10 1_555 1_555
H8 C11 1_555 1_555
C12 C7 1_555 1_555
C13 C14 1_555 1_555
C14 H9 1_555 1_555
C15 C14 1_555 1_555
C16 C15 1_555 1_555
H10 C16 1_555 1_555
C17 C16 1_555 1_555
C18 C13 1_555 1_555
H11 C18 1_555 1_555
C19 C17 1_555 1_555
C20 C19 1_555 1_555
C21 C20 1_555 1_555
H12 C21 1_555 1_555
C22 C21 1_555 1_555
H13 C22 1_555 1_555
C23 H14 1_555 1_555
C24 C20 1_555 1_555
H15 C24 1_555 1_555
C25 C26 1_555 1_555
C26 H16 1_555 1_555
C27 C26 1_555 1_555
H17 C27 1_555 1_555
C28 C27 1_555 1_555
H18 C28 1_555 1_555
C29 C28 1_555 1_555
H19 C29 1_555 1_555
C30 C25 1_555 1_555
C31 C30 1_555 1_555
C32 C31 1_555 1_555
H20 C32 1_555 1_555
C33 C32 1_555 1_555
H21 C33 1_555 1_555
C34 C33 1_555 1_555
H22 C34 1_555 1_555
C35 C34 1_555 1_555
H23 C35 1_555 1_555
C36 C31 1_555 1_555
N1 C1 1_555 1_555
N2 C15 1_555 1_555
N3 C22 1_555 1_555
O1 C19 1_555 1_555
C37 C38 1_555 1_555
C38 H24 1_555 1_555
C39 C38 1_555 1_555
H25 C39 1_555 1_555
C40 C39 1_555 1_555
H26 C40 1_555 1_555
C41 C40 1_555 1_555
H27 C41 1_555 1_555
C42 C37 1_555 1_555
C43 C42 1_555 1_555
C44 C43 1_555 1_555
H28 C44 1_555 1_555
C45 C44 1_555 1_555
H29 C45 1_555 1_555
C46 C45 1_555 1_555
H30 C46 1_555 1_555
C47 C46 1_555 1_555
H31 C47 1_555 1_555
C48 C43 1_555 1_555
C49 C50 1_555 1_555
C50 H32 1_555 1_555
C51 C50 1_555 1_555
C52 C51 1_555 1_555
H33 C52 1_555 1_555
C53 C52 1_555 1_555
C54 C49 1_555 1_555
H34 C54 1_555 1_555
C55 C51 1_555 1_555
C56 C55 1_555 1_555
C57 C56 1_555 1_555
H35 C57 1_555 1_555
C58 C57 1_555 1_555
H36 C58 1_555 1_555
N4 C58 1_555 1_555
C59 N4 1_555 1_555
H37 C59 1_555 1_555
C60 C56 1_555 1_555
H38 C60 1_555 1_555
C61 C62 1_555 1_555
C62 H39 1_555 1_555
C63 C62 1_555 1_555
H40 C63 1_555 1_555
C64 C63 1_555 1_555
H41 C64 1_555 1_555
C65 C64 1_555 1_555
H42 C65 1_555 1_555
C66 C61 1_555 1_555
C67 C66 1_555 1_555
C68 C67 1_555 1_555
H43 C68 1_555 1_555
C69 C68 1_555 1_555
H44 C69 1_555 1_555
C70 C69 1_555 1_555
H45 C70 1_555 1_555
C71 C70 1_555 1_555
H46 C71 1_555 1_555
C72 C67 1_555 1_555
N5 C37 1_555 1_555
N6 C53 1_555 1_555
O2 C55 1_555 1_555
C5 C6 1_555 1_555
C11 C12 1_555 1_555
C12 N1 1_555 1_555
C13 N1 1_555 1_555
C17 C18 1_555 1_555
C23 C24 1_555 1_555
C23 N3 1_555 1_555
C25 N2 1_555 1_555
C29 C30 1_555 1_555
C35 C36 1_555 1_555
C36 N2 1_555 1_555
C41 C42 1_555 1_555
C47 C48 1_555 1_555
C48 N5 1_555 1_555
C49 N5 1_555 1_555
C53 C54 1_555 1_555
C59 C60 1_555 1_555
C61 N6 1_555 1_555
C65 C66 1_555 1_555
C71 C72 1_555 1_555
C72 N6 1_555 1_555

#END
