
#######################################################################
#
#                 Cambridge Crystallographic Data Centre
#                                CCDC 
#
#######################################################################
#
# If this CIF has been generated from an entry in the Cambridge 
# Structural Database, then it will include bibliographic, chemical, 
# crystal, experimental, refinement or atomic coordinate data resulting 
# from the CCDC's data processing and validation procedures.
#
#######################################################################

data_XAFJOG
_chemical_formula_moiety         'C15 H11 F4 N1 O3'
_chemical_name_systematic        
(R,Z)-3-(4-Fluorophenyl)-2-(hydroxyimino)-3-(trifluoromethyl)-3,5,6,7-tetrahydrobenzofuran-4(2H)-one
_symmetry_cell_setting           orthorhombic
_symmetry_space_group_name_H-M   'P 21 21 21'
_symmetry_Int_Tables_number      19
_space_group_name_Hall           'P 2ac 2ab'
loop_
_symmetry_equiv_pos_site_id
_symmetry_equiv_pos_as_xyz
1 x,y,z
2 1/2-x,-y,1/2+z
3 -x,1/2+y,1/2-z
4 1/2+x,1/2-y,-z
_cell_length_a                   8.7967(4)
_cell_length_b                   9.2428(4)
_cell_length_c                   17.2636(8)
_cell_angle_alpha                90
_cell_angle_beta                 90
_cell_angle_gamma                90
_cell_volume                     1403.64
_exptl_crystal_colour            colorless
_exptl_crystal_description       cube
_cell_formula_units_Z            4
_exptl_crystal_recrystallization_method methanol
loop_
_atom_site_label
_atom_site_type_symbol
_atom_site_fract_x
_atom_site_fract_y
_atom_site_fract_z
F1 F -0.0196(2) 0.3849(2) 0.92412(11)
F2 F 0.08690(19) 0.25168(18) 0.56177(10)
F3 F 0.1163(2) 0.47932(19) 0.56547(12)
F4 F 0.2749(2) 0.3468(2) 0.50360(9)
N1 N 0.3115(2) 0.0742(2) 0.63873(14)
O1 O 0.53001(19) 0.21663(17) 0.64337(12)
O2 O 0.3317(2) 0.67821(18) 0.62728(13)
O3 O 0.4191(2) -0.03696(19) 0.64167(17)
H1 H 0.3759 -0.1153 0.6382
C1 C 0.3739(3) 0.1958(3) 0.64029(15)
C2 C 0.2913(3) 0.3432(2) 0.63991(13)
C3 C 0.4302(3) 0.4414(2) 0.63236(14)
C4 C 0.4417(3) 0.5986(2) 0.62403(15)
C5 C 0.6001(3) 0.6574(3) 0.61418(19)
H2 H 0.6336 0.6957 0.6636
H3 H 0.5960 0.7376 0.5780
C6 C 0.7180(3) 0.5509(3) 0.58576(19)
H4 H 0.6987 0.5286 0.5317
H5 H 0.8180 0.5946 0.5893
C7 C 0.7157(3) 0.4125(3) 0.63248(19)
H6 H 0.7794 0.3400 0.6081
H7 H 0.7537 0.4302 0.6844
C8 C 0.5554(3) 0.3616(2) 0.63570(15)
C9 C 0.2004(3) 0.3620(2) 0.71501(13)
C10 C 0.0805(3) 0.2690(3) 0.73192(16)
H8 H 0.0513 0.1998 0.6958
C11 C 0.0040(3) 0.2781(4) 0.80192(18)
H9 H -0.0773 0.2170 0.8128
C12 C 0.0508(3) 0.3789(3) 0.85444(16)
C13 C 0.1673(3) 0.4720(3) 0.83996(16)
H10 H 0.1961 0.5404 0.8766
C14 C 0.2418(3) 0.4628(3) 0.76965(14)
H11 H 0.3215 0.5259 0.7591
C15 C 0.1907(3) 0.3559(3) 0.56753(15)
loop_
_geom_bond_atom_site_label_1
_geom_bond_atom_site_label_2
_geom_bond_site_symmetry_1
_geom_bond_site_symmetry_2
F1 C12 1_555 1_555
F2 C15 1_555 1_555
F3 C15 1_555 1_555
F4 C15 1_555 1_555
N1 O3 1_555 1_555
O1 C1 1_555 1_555
O2 C4 1_555 1_555
O3 H1 1_555 1_555
C1 N1 1_555 1_555
C2 C1 1_555 1_555
C3 C2 1_555 1_555
C4 C3 1_555 1_555
C5 C4 1_555 1_555
H2 C5 1_555 1_555
H3 C5 1_555 1_555
C6 C5 1_555 1_555
H4 C6 1_555 1_555
H5 C6 1_555 1_555
C7 C6 1_555 1_555
H6 C7 1_555 1_555
H7 C7 1_555 1_555
C8 O1 1_555 1_555
C9 C2 1_555 1_555
C10 C9 1_555 1_555
H8 C10 1_555 1_555
C11 C10 1_555 1_555
H9 C11 1_555 1_555
C12 C11 1_555 1_555
C13 C12 1_555 1_555
H10 C13 1_555 1_555
C14 C9 1_555 1_555
H11 C14 1_555 1_555
C15 C2 1_555 1_555
C3 C8 1_555 1_555
C7 C8 1_555 1_555
C13 C14 1_555 1_555

#END
