
#######################################################################
#
#                 Cambridge Crystallographic Data Centre
#                                CCDC 
#
#######################################################################
#
# If this CIF has been generated from an entry in the Cambridge 
# Structural Database, then it will include bibliographic, chemical, 
# crystal, experimental, refinement or atomic coordinate data resulting 
# from the CCDC's data processing and validation procedures.
#
#######################################################################

data_XAFJUM
_chemical_formula_moiety         'C19 H15 F4 N3 O3'
_chemical_name_systematic        
5-methyl-2-phenyl-4-(1,1,1-trifluoro-2-(4-fluorophenyl)-3-nitropropan-2-yl)-1,2-dihydro-3H-pyrazol-3-one
_symmetry_cell_setting           orthorhombic
_symmetry_space_group_name_H-M   'P b c a'
_symmetry_Int_Tables_number      61
_space_group_name_Hall           '-P 2ac 2ab'
loop_
_symmetry_equiv_pos_site_id
_symmetry_equiv_pos_as_xyz
1 x,y,z
2 1/2-x,-y,1/2+z
3 -x,1/2+y,1/2-z
4 1/2+x,1/2-y,-z
5 -x,-y,-z
6 1/2+x,y,1/2-z
7 x,1/2-y,1/2+z
8 1/2-x,1/2+y,z
_cell_length_a                   10.6975(12)
_cell_length_b                   12.930(2)
_cell_length_c                   26.337(4)
_cell_angle_alpha                90
_cell_angle_beta                 90
_cell_angle_gamma                90
_cell_volume                     3642.9
_exptl_crystal_colour            colorless
_exptl_crystal_description       plate
_cell_formula_units_Z            8
_exptl_crystal_recrystallization_method methanol
loop_
_atom_site_label
_atom_site_type_symbol
_atom_site_fract_x
_atom_site_fract_y
_atom_site_fract_z
F1 F 0.1078(3) 0.3294(2) 0.17457(11)
F2 F 0.1441(3) 0.2610(2) 0.10148(11)
F3 F 0.2729(3) 0.2384(2) 0.16293(11)
F4 F 0.6849(3) 0.3495(3) -0.00402(12)
N1 N 0.3156(3) 0.5420(3) 0.25056(13)
N2 N 0.4249(3) 0.4853(3) 0.24674(13)
H1 H 0.4831 0.4830 0.2692
N3 N 0.1167(4) 0.4457(3) 0.05472(16)
O1 O 0.1294(2) 0.5506(2) 0.20495(11)
O2 O 0.0040(3) 0.4301(4) 0.05765(16)
O3 O 0.1797(3) 0.4294(3) 0.01730(13)
C1 C 0.2405(4) 0.5184(3) 0.20893(16)
C2 C 0.3149(4) 0.4535(3) 0.17700(16)
C3 C 0.4257(4) 0.4349(3) 0.20272(18)
C4 C 0.5391(4) 0.3709(4) 0.19099(19)
H2 H 0.5965 0.4109 0.1710
H3 H 0.5145 0.3104 0.1723
H4 H 0.5787 0.3504 0.2221
C5 C 0.2834(4) 0.5940(3) 0.29606(17)
C6 C 0.2050(4) 0.6791(4) 0.2940(2)
H5 H 0.1723 0.7022 0.2633
C7 C 0.1768(5) 0.7288(4) 0.3393(2)
H6 H 0.1234 0.7855 0.3388
C8 C 0.2258(5) 0.6964(5) 0.3846(2)
H7 H 0.2055 0.7307 0.4146
C9 C 0.3047(5) 0.6133(4) 0.38548(19)
H8 H 0.3395 0.5917 0.4161
C10 C 0.3329(4) 0.5614(4) 0.34148(17)
H9 H 0.3855 0.5041 0.3424
C11 C 0.2717(4) 0.4066(3) 0.12679(16)
C12 C 0.3822(4) 0.3859(3) 0.09114(16)
C13 C 0.4024(5) 0.2939(4) 0.06542(19)
H10 H 0.3471 0.2392 0.0700
C14 C 0.5025(6) 0.2818(4) 0.0332(2)
H11 H 0.5137 0.2204 0.0154
C15 C 0.5848(5) 0.3613(5) 0.0279(2)
C16 C 0.5685(5) 0.4545(5) 0.05094(19)
H12 H 0.6236 0.5090 0.0453
C17 C 0.4670(4) 0.4653(4) 0.08309(17)
H13 H 0.4553 0.5279 0.0998
C18 C 0.1815(4) 0.4860(3) 0.10174(16)
H14 H 0.1185 0.5059 0.1264
H15 H 0.2285 0.5475 0.0928
C19 C 0.1986(5) 0.3074(4) 0.14077(19)
loop_
_geom_bond_atom_site_label_1
_geom_bond_atom_site_label_2
_geom_bond_site_symmetry_1
_geom_bond_site_symmetry_2
F1 C19 1_555 1_555
F2 C19 1_555 1_555
F3 C19 1_555 1_555
F4 C15 1_555 1_555
N1 N2 1_555 1_555
N2 H1 1_555 1_555
N3 O2 1_555 1_555
O1 C1 1_555 1_555
O3 N3 1_555 1_555
C1 N1 1_555 1_555
C2 C1 1_555 1_555
C3 N2 1_555 1_555
C4 C3 1_555 1_555
H2 C4 1_555 1_555
H3 C4 1_555 1_555
H4 C4 1_555 1_555
C5 N1 1_555 1_555
C6 C5 1_555 1_555
H5 C6 1_555 1_555
C7 C6 1_555 1_555
H6 C7 1_555 1_555
C8 C7 1_555 1_555
H7 C8 1_555 1_555
C9 C8 1_555 1_555
H8 C9 1_555 1_555
C10 C5 1_555 1_555
H9 C10 1_555 1_555
C11 C2 1_555 1_555
C12 C11 1_555 1_555
C13 C12 1_555 1_555
H10 C13 1_555 1_555
C14 C13 1_555 1_555
H11 C14 1_555 1_555
C15 C14 1_555 1_555
C16 C15 1_555 1_555
H12 C16 1_555 1_555
C17 C12 1_555 1_555
H13 C17 1_555 1_555
C18 N3 1_555 1_555
H14 C18 1_555 1_555
H15 C18 1_555 1_555
C19 C11 1_555 1_555
C2 C3 1_555 1_555
C9 C10 1_555 1_555
C11 C18 1_555 1_555
C16 C17 1_555 1_555

#END
