
#######################################################################
#
#                 Cambridge Crystallographic Data Centre
#                                CCDC 
#
#######################################################################
#
# If this CIF has been generated from an entry in the Cambridge 
# Structural Database, then it will include bibliographic, chemical, 
# crystal, experimental, refinement or atomic coordinate data resulting 
# from the CCDC's data processing and validation procedures.
#
#######################################################################

data_XAFPAX
_chemical_formula_moiety         'C21 H12 I1 N1 O4,C2 H3 N1'
_chemical_name_systematic        
'Methyl 2-(3-iodo-5,10-dioxo-5,10-dihydrobenzo[g]quinolin-4-yl)benzoate acetonitrile solvate'
_symmetry_cell_setting           monoclinic
_symmetry_space_group_name_H-M   'P 21/c'
_symmetry_Int_Tables_number      14
_space_group_name_Hall           '-P 2ybc'
loop_
_symmetry_equiv_pos_site_id
_symmetry_equiv_pos_as_xyz
1 x,y,z
2 -x,1/2+y,1/2-z
3 -x,-y,-z
4 x,1/2-y,1/2+z
_cell_length_a                   10.348(2)
_cell_length_b                   21.379(4)
_cell_length_c                   9.921(2)
_cell_angle_alpha                90
_cell_angle_beta                 111.70(3)
_cell_angle_gamma                90
_cell_volume                     2039.28
_cell_formula_units_Z            4
loop_
_atom_site_label
_atom_site_type_symbol
_atom_site_fract_x
_atom_site_fract_y
_atom_site_fract_z
I1 I 0.47824(4) 0.64398(2) 0.69655(5)
O1 O 0.0610(6) 0.85609(17) 0.8735(6)
O2 O 0.4110(5) 0.5468(2) 1.1874(4)
C1 C 0.4827(9) 0.5737(4) 1.3315(7)
H1 H 0.4903 0.5428 1.4042
H2 H 0.4309 0.6089 1.3445
H3 H 0.5740 0.5872 1.3404
O3 O 0.4378(5) 0.63620(18) 1.0838(5)
C2 C 0.3927(5) 0.5835(3) 1.0743(6)
N1 N 0.2346(5) 0.7889(2) 0.7846(5)
C3 C 0.3151(5) 0.5520(2) 0.9340(6)
O4 O 0.0490(5) 0.60748(18) 0.9291(6)
C4 C 0.3112(6) 0.4864(2) 0.9252(6)
H4 H 0.3567 0.4627 1.0079
C5 C 0.2413(6) 0.4571(3) 0.7966(7)
H5 H 0.2392 0.4136 0.7925
C6 C 0.1741(6) 0.4912(3) 0.6730(7)
H6 H 0.1290 0.4710 0.5851
C7 C 0.1739(6) 0.5564(3) 0.6806(6)
H7 H 0.1268 0.5797 0.5978
C8 C 0.2436(5) 0.5865(2) 0.8106(6)
C9 C 0.2415(6) 0.6570(2) 0.8093(5)
C10 C 0.1477(6) 0.6932(2) 0.8516(5)
C11 C 0.0503(6) 0.6638(2) 0.9115(6)
C12 C -0.0472(6) 0.7041(2) 0.9498(6)
C13 C -0.1412(6) 0.6776(3) 1.0001(7)
H8 H -0.1439 0.6343 1.0076
C14 C -0.2326(7) 0.7136(3) 1.0401(7)
H9 H -0.2977 0.6951 1.0716
C15 C -0.2237(8) 0.7781(3) 1.0316(8)
H10 H -0.2825 0.8030 1.0603
C16 C -0.1315(7) 0.8057(3) 0.9825(7)
H11 H -0.1280 0.8491 0.9780
C17 C -0.0420(6) 0.7694(2) 0.9386(6)
C18 C 0.0567(6) 0.7993(2) 0.8827(6)
C19 C 0.1504(6) 0.7584(2) 0.8382(5)
C20 C 0.3221(6) 0.7544(3) 0.7471(7)
H12 H 0.3828 0.7749 0.7124
C21 C 0.3291(6) 0.6892(3) 0.7562(6)
N2 N 0.7334(8) 0.5739(3) 0.6489(8)
C22 C 0.7993(8) 0.5340(4) 0.7095(8)
C23 C 0.8836(8) 0.4825(3) 0.7898(10)
H13 H 0.9801 0.4920 0.8133
H14 H 0.8600 0.4452 0.7317
H15 H 0.8666 0.4760 0.8776
loop_
_geom_bond_atom_site_label_1
_geom_bond_atom_site_label_2
_geom_bond_site_symmetry_1
_geom_bond_site_symmetry_2
I1 C21 1_555 1_555
O1 C18 1_555 1_555
O2 C1 1_555 1_555
C1 H1 1_555 1_555
H2 C1 1_555 1_555
H3 C1 1_555 1_555
O3 C2 1_555 1_555
C2 O2 1_555 1_555
N1 C19 1_555 1_555
C3 C2 1_555 1_555
O4 C11 1_555 1_555
C4 C3 1_555 1_555
H4 C4 1_555 1_555
C5 C4 1_555 1_555
H5 C5 1_555 1_555
C6 C5 1_555 1_555
H6 C6 1_555 1_555
C7 C6 1_555 1_555
H7 C7 1_555 1_555
C8 C3 1_555 1_555
C9 C8 1_555 1_555
C10 C9 1_555 1_555
C11 C10 1_555 1_555
C12 C11 1_555 1_555
C13 C12 1_555 1_555
H8 C13 1_555 1_555
C14 C13 1_555 1_555
H9 C14 1_555 1_555
C15 C14 1_555 1_555
H10 C15 1_555 1_555
C16 C15 1_555 1_555
H11 C16 1_555 1_555
C17 C12 1_555 1_555
C18 C17 1_555 1_555
C19 C10 1_555 1_555
C20 N1 1_555 1_555
H12 C20 1_555 1_555
C21 C9 1_555 1_555
N2 C22 1_555 1_555
C22 C23 1_555 1_555
C23 H13 1_555 1_555
H14 C23 1_555 1_555
H15 C23 1_555 1_555
C7 C8 1_555 1_555
C16 C17 1_555 1_555
C18 C19 1_555 1_555
C20 C21 1_555 1_555

#END
