
#######################################################################
#
#                 Cambridge Crystallographic Data Centre
#                                CCDC 
#
#######################################################################
#
# If this CIF has been generated from an entry in the Cambridge 
# Structural Database, then it will include bibliographic, chemical, 
# crystal, experimental, refinement or atomic coordinate data resulting 
# from the CCDC's data processing and validation procedures.
#
#######################################################################

data_XAFSIG
_chemical_formula_moiety         'C18 H12 N4 O2'
_chemical_name_systematic        '4,5-Diazafluorene-9-one salicyloylhydrazone'
_symmetry_cell_setting           orthorhombic
_symmetry_space_group_name_H-M   'P 21 21 21'
_symmetry_Int_Tables_number      19
_space_group_name_Hall           'P 2ac 2ab'
loop_
_symmetry_equiv_pos_site_id
_symmetry_equiv_pos_as_xyz
1 x,y,z
2 1/2-x,-y,1/2+z
3 -x,1/2+y,1/2-z
4 1/2+x,1/2-y,-z
_cell_length_a                   4.8140(10)
_cell_length_b                   15.412(2)
_cell_length_c                   19.096(3)
_cell_angle_alpha                90
_cell_angle_beta                 90
_cell_angle_gamma                90
_cell_volume                     1416.8
_exptl_crystal_colour            yellow
_exptl_crystal_description       block
_cell_formula_units_Z            4
_exptl_crystal_recrystallization_method ethanol/dmf
loop_
_atom_site_label
_atom_site_type_symbol
_atom_site_fract_x
_atom_site_fract_y
_atom_site_fract_z
O1 O -0.1219(4) 0.42926(9) 0.99469(8)
O2 O -0.0479(3) 0.59817(8) 0.82443(7)
H1 H -0.0494 0.6408 0.7962
N1 N 0.7940(5) 0.34968(12) 0.68525(10)
N2 N 0.9544(4) 0.20928(11) 0.78969(9)
N3 N 0.2534(4) 0.37987(9) 0.89926(8)
N4 N 0.0771(4) 0.44831(10) 0.88826(9)
H2 H 0.0907 0.4832 0.8414
C1 C 0.6863(6) 0.41564(15) 0.64841(13)
H3 H 0.7588 0.4253 0.6022
C2 C 0.4828(6) 0.47008(15) 0.67168(12)
H4 H 0.4123 0.5147 0.6414
C3 C 0.3748(6) 0.45986(13) 0.73867(12)
H5 H 0.2362 0.4985 0.7570
C4 C 0.4796(5) 0.39247(12) 0.77882(10)
C5 C 0.6873(5) 0.33964(12) 0.74889(11)
C6 C 0.7668(5) 0.27231(12) 0.79944(11)
C7 C 0.9977(5) 0.15933(14) 0.84644(13)
H6 H 1.1309 0.1132 0.8422
C8 C 0.8659(5) 0.16873(13) 0.90987(12)
H7 H 0.9166 0.1325 0.9487
C9 C 0.6625(5) 0.23183(12) 0.91780(11)
H8 H 0.5598 0.2381 0.9606
C10 C 0.6151(4) 0.28556(11) 0.86051(10)
C11 C 0.4244(5) 0.35905(12) 0.85074(10)
C12 C -0.1031(5) 0.47122(12) 0.94078(11)
C13 C -0.2762(5) 0.55009(12) 0.92877(10)
C14 C -0.4831(5) 0.56509(13) 0.97843(11)
H9 H -0.5143 0.5220 1.0139
C15 C -0.6416(5) 0.63919(13) 0.97813(12)
H10 H -0.7813 0.6483 1.0132
C16 C -0.5961(5) 0.70086(14) 0.92694(13)
H11 H -0.7047 0.7531 0.9264
C17 C -0.3970(5) 0.68749(13) 0.87616(12)
H12 H -0.3670 0.7307 0.8408
C18 C -0.2408(5) 0.61260(12) 0.87575(11)
loop_
_geom_bond_atom_site_label_1
_geom_bond_atom_site_label_2
_geom_bond_site_symmetry_1
_geom_bond_site_symmetry_2
O1 C12 1_555 1_555
O2 H1 1_555 1_555
N1 C1 1_555 1_555
N2 C6 1_555 1_555
N3 N4 1_555 1_555
N4 H2 1_555 1_555
C1 H3 1_555 1_555
C2 C1 1_555 1_555
H4 C2 1_555 1_555
C3 C2 1_555 1_555
H5 C3 1_555 1_555
C4 C3 1_555 1_555
C5 N1 1_555 1_555
C6 C5 1_555 1_555
C7 N2 1_555 1_555
H6 C7 1_555 1_555
C8 C7 1_555 1_555
H7 C8 1_555 1_555
C9 C8 1_555 1_555
H8 C9 1_555 1_555
C10 C6 1_555 1_555
C11 N3 1_555 1_555
C12 N4 1_555 1_555
C13 C12 1_555 1_555
C14 C13 1_555 1_555
H9 C14 1_555 1_555
C15 C14 1_555 1_555
H10 C15 1_555 1_555
C16 C15 1_555 1_555
H11 C16 1_555 1_555
C17 C16 1_555 1_555
H12 C17 1_555 1_555
C18 O2 1_555 1_555
C4 C5 1_555 1_555
C4 C11 1_555 1_555
C9 C10 1_555 1_555
C10 C11 1_555 1_555
C13 C18 1_555 1_555
C17 C18 1_555 1_555

#END
