
#######################################################################
#
#                 Cambridge Crystallographic Data Centre
#                                CCDC 
#
#######################################################################
#
# If this CIF has been generated from an entry in the Cambridge 
# Structural Database, then it will include bibliographic, chemical, 
# crystal, experimental, refinement or atomic coordinate data resulting 
# from the CCDC's data processing and validation procedures.
#
#######################################################################

data_XAFZIN
_chemical_formula_moiety         'C6 H16 N1 1+,C9 H7 O2 1-'
_chemical_name_systematic        
'Triethylammonium 2-formyl-2-phenyl-1-ethenoxide'
_symmetry_cell_setting           monoclinic
_symmetry_space_group_name_H-M   'C 2/c'
_symmetry_Int_Tables_number      15
_space_group_name_Hall           '-C 2yn'
loop_
_symmetry_equiv_pos_site_id
_symmetry_equiv_pos_as_xyz
1 x,y,z
2 1/2+x,1/2+y,z
3 -x,y,1/2-z
4 1/2-x,1/2+y,1/2-z
5 -x,-y,-z
6 1/2-x,1/2-y,-z
7 x,-y,1/2+z
8 1/2+x,1/2-y,1/2+z
_cell_length_a                   16.534(6)
_cell_length_b                   8.592(3)
_cell_length_c                   21.152(7)
_cell_angle_alpha                90
_cell_angle_beta                 108.69
_cell_angle_gamma                90
_cell_volume                     2846.4
_cell_formula_units_Z            8
loop_
_atom_site_label
_atom_site_type_symbol
_atom_site_fract_x
_atom_site_fract_y
_atom_site_fract_z
O1 O 0.17322(7) 0.18461(13) 0.31741(6)
O2 O 0.37062(7) 0.41231(14) 0.50944(6)
C1 C 0.23682(8) 0.4895(2) 0.38024(7)
C2 C 0.22635(10) 0.5270(2) 0.31375(7)
H1 H 0.23658(10) 0.4497(2) 0.28509(7)
C3 C 0.20127(10) 0.6750(2) 0.28889(8)
H2 H 0.19513(10) 0.6982(2) 0.24367(8)
C4 C 0.18512(10) 0.7893(2) 0.32953(8)
H3 H 0.16806(10) 0.8906(2) 0.31254(8)
C5 C 0.19426(10) 0.7533(2) 0.39544(8)
H4 H 0.18283(10) 0.8305(2) 0.42362(8)
C6 C 0.21993(9) 0.6058(2) 0.42055(8)
H5 H 0.22613(9) 0.5834(2) 0.46584(8)
C7 C 0.23071(10) 0.1952(2) 0.37203(8)
H6 H 0.25396(10) 0.0998(2) 0.39263(8)
C8 C 0.26576(9) 0.3325(2) 0.40730(7)
C9 C 0.32857(10) 0.3104(2) 0.46884(8)
H7 H 0.34154(10) 0.2052(2) 0.48207(8)
N1 N 0.50288(8) 0.30089(15) 0.60889(6)
H8 H 0.45641(8) 0.34200(15) 0.57557(6)
C10 C 0.57589(10) 0.2984(2) 0.58142(8)
H9 H 0.62840(10) 0.2671(2) 0.61732(8)
H10 H 0.58491(10) 0.4049(2) 0.56715(8)
C11 C 0.56209(12) 0.1891(2) 0.52305(10)
H11 H 0.56462(12) 0.0811(2) 0.53848(10)
H12 H 0.60656(12) 0.2059(2) 0.50220(10)
H13 H 0.50590(12) 0.2087(2) 0.48994(10)
C12 C 0.47606(10) 0.1430(2) 0.62516(9)
H14 H 0.45496(10) 0.0818(2) 0.58341(9)
H15 H 0.42796(10) 0.1557(2) 0.64304(9)
C13 C 0.54634(14) 0.0518(2) 0.67517(10)
H16 H 0.52317(14) -0.0466(2) 0.68539(10)
H17 H 0.56922(14) 0.1128(2) 0.71619(10)
H18 H 0.59209(14) 0.0301(2) 0.65628(10)
C14 C 0.52013(11) 0.4089(2) 0.66765(8)
H19 H 0.57300(11) 0.3752(2) 0.70260(8)
H20 H 0.47259(11) 0.4011(2) 0.68642(8)
C15 C 0.52986(12) 0.5768(2) 0.64996(10)
H21 H 0.58292(12) 0.5889(2) 0.63919(10)
H22 H 0.53173(12) 0.6435(2) 0.68797(10)
H23 H 0.48126(12) 0.6067(2) 0.61127(10)
loop_
_geom_bond_atom_site_label_1
_geom_bond_atom_site_label_2
_geom_bond_site_symmetry_1
_geom_bond_site_symmetry_2
O1 C7 1_555 1_555
O2 C9 1_555 1_555
C1 C2 1_555 1_555
C2 H1 1_555 1_555
C3 C2 1_555 1_555
H2 C3 1_555 1_555
C4 C3 1_555 1_555
H3 C4 1_555 1_555
C5 C4 1_555 1_555
H4 C5 1_555 1_555
C6 C1 1_555 1_555
H5 C6 1_555 1_555
C7 H6 1_555 1_555
C8 C1 1_555 1_555
C9 C8 1_555 1_555
H7 C9 1_555 1_555
N1 H8 1_555 1_555
C10 N1 1_555 1_555
H9 C10 1_555 1_555
H10 C10 1_555 1_555
C11 C10 1_555 1_555
H11 C11 1_555 1_555
H12 C11 1_555 1_555
H13 C11 1_555 1_555
C12 N1 1_555 1_555
H14 C12 1_555 1_555
H15 C12 1_555 1_555
C13 C12 1_555 1_555
H16 C13 1_555 1_555
H17 C13 1_555 1_555
H18 C13 1_555 1_555
C14 N1 1_555 1_555
H19 C14 1_555 1_555
H20 C14 1_555 1_555
C15 C14 1_555 1_555
H21 C15 1_555 1_555
H22 C15 1_555 1_555
H23 C15 1_555 1_555
C5 C6 1_555 1_555
C7 C8 1_555 1_555

#END
