
#######################################################################
#
#                 Cambridge Crystallographic Data Centre
#                                CCDC 
#
#######################################################################
#
# If this CIF has been generated from an entry in the Cambridge 
# Structural Database, then it will include bibliographic, chemical, 
# crystal, experimental, refinement or atomic coordinate data resulting 
# from the CCDC's data processing and validation procedures.
#
#######################################################################

data_XAGFER
_chemical_name_common            'Dantrolene methanol solvate'
_chemical_formula_moiety         'C14 H10 N4 O5,C1 H4 O1'
_chemical_name_systematic        
'1-(((5-(4-nitrophenyl)-2-furanyl)methylene)amino)-2,4-imidazolidenedione methanol solvate'
_chemical_properties_biological  'muscle relaxant'
_symmetry_cell_setting           triclinic
_symmetry_space_group_name_H-M   'P -1'
_symmetry_Int_Tables_number      2
_space_group_name_Hall           '-P 1'
loop_
_symmetry_equiv_pos_site_id
_symmetry_equiv_pos_as_xyz
1 x,y,z
2 -x,-y,-z
_cell_length_a                   7.92(3)
_cell_length_b                   9.93(4)
_cell_length_c                   10.57(3)
_cell_angle_alpha                87.7(2)
_cell_angle_beta                 85.2(2)
_cell_angle_gamma                72.2(2)
_cell_volume                     788.621
_exptl_crystal_colour            orange
_exptl_crystal_description       platelet
_cell_formula_units_Z            2
_exptl_crystal_recrystallization_method methanol/dichloromethane
loop_
_atom_site_label
_atom_site_type_symbol
_atom_site_fract_x
_atom_site_fract_y
_atom_site_fract_z
O1 O -0.2281(5) 0.7128(4) 0.1595(4)
O2 O 0.2049(5) 0.8708(4) -0.0340(4)
O3 O 0.1245(5) 0.1758(4) 0.2394(3)
O4 O -0.4199(7) -0.2028(5) 0.4889(4)
O5 O -0.1919(6) -0.3845(5) 0.5267(5)
N1 N 0.0736(6) 0.5954(5) 0.1104(4)
N2 N -0.0409(6) 0.8244(4) 0.0602(4)
N3 N 0.0736(6) 0.4636(5) 0.1546(4)
N4 N -0.2590(8) -0.2633(6) 0.4855(5)
C1 C -0.0792(9) 0.7067(6) 0.1151(5)
C2 C 0.1327(9) 0.7891(6) 0.0185(5)
C3 C 0.2221(7) 0.6334(6) 0.0474(5)
C4 C 0.2279(8) 0.3656(7) 0.1463(5)
C5 C 0.2615(9) 0.2183(7) 0.1847(5)
C6 C 0.4116(8) 0.1048(7) 0.1732(6)
C7 C 0.3726(9) -0.0150(6) 0.2246(6)
C8 C 0.1999(8) 0.0295(6) 0.2630(5)
C9 C 0.0794(8) -0.0420(6) 0.3212(5)
C10 C -0.1038(8) 0.0262(5) 0.3421(5)
C11 C -0.2143(7) -0.0450(6) 0.3956(5)
C12 C -0.1395(8) -0.1862(6) 0.4292(5)
C13 C 0.0405(9) -0.2600(5) 0.4121(5)
C14 C 0.1500(7) -0.1870(6) 0.3584(5)
H1 H 0.3165(7) 0.6194(6) 0.1011(5)
H2 H 0.2652(7) 0.5814(6) -0.0283(5)
H3 H 0.3175(8) 0.3995(6) 0.1094(5)
H4 H 0.5238(8) 0.1076(7) 0.1363(6)
H5 H 0.4514(9) -0.1087(6) 0.2305(6)
H6 H -0.1497(7) 0.1230(6) 0.3179(5)
H7 H -0.3387(8) -0.0003(6) 0.4091(5)
H8 H 0.0847(9) -0.3559(6) 0.4389(5)
H9 H 0.2740(8) -0.2331(6) 0.3442(5)
H10 H -0.114(8) 0.922(6) 0.058(5)
O6 O -0.4329(5) 0.5394(5) 0.2204(4)
C15 C -0.387(1) 0.4406(8) 0.3197(7)
H11 H -0.432(1) 0.3636(7) 0.3081(7)
H12 H -0.262(1) 0.4072(7) 0.3209(7)
H13 H -0.438(1) 0.4855(7) 0.3975(7)
H14 H -0.33(1) 0.605(9) 0.203(8)
loop_
_geom_bond_atom_site_label_1
_geom_bond_atom_site_label_2
_geom_bond_site_symmetry_1
_geom_bond_site_symmetry_2
O1 C1 1_555 1_555
O2 C2 1_555 1_555
O3 C5 1_555 1_555
O4 N4 1_555 1_555
O5 N4 1_555 1_555
N1 N3 1_555 1_555
N2 C1 1_555 1_555
N3 C4 1_555 1_555
N4 C12 1_555 1_555
C1 N1 1_555 1_555
C2 N2 1_555 1_555
C3 N1 1_555 1_555
C4 C5 1_555 1_555
C5 C6 1_555 1_555
C6 C7 1_555 1_555
C7 C8 1_555 1_555
C8 O3 1_555 1_555
C9 C8 1_555 1_555
C10 C9 1_555 1_555
C11 C10 1_555 1_555
C12 C11 1_555 1_555
C13 C12 1_555 1_555
C14 C9 1_555 1_555
H1 C3 1_555 1_555
H2 C3 1_555 1_555
H3 C4 1_555 1_555
H4 C6 1_555 1_555
H5 C7 1_555 1_555
H6 C10 1_555 1_555
H7 C11 1_555 1_555
H8 C13 1_555 1_555
H9 C14 1_555 1_555
H10 N2 1_555 1_555
O6 C15 1_555 1_555
C15 H11 1_555 1_555
H12 C15 1_555 1_555
H13 C15 1_555 1_555
H14 O6 1_555 1_555
C2 C3 1_555 1_555
C13 C14 1_555 1_555

#END
