
#######################################################################
#
#                 Cambridge Crystallographic Data Centre
#                                CCDC 
#
#######################################################################
#
# If this CIF has been generated from an entry in the Cambridge 
# Structural Database, then it will include bibliographic, chemical, 
# crystal, experimental, refinement or atomic coordinate data resulting 
# from the CCDC's data processing and validation procedures.
#
#######################################################################

data_XAGJOG
_chemical_formula_moiety         'C20 H30 Ca1 O9 2+,C20 H24 O6,2(I5 1-),H2 O1'
_chemical_name_systematic        
'triaqua-(6,7,9,10,17,18,20,21-octahydrodibenzo[b,k][1,4,7,10,13,16]hexaoxacyclooctadecine)-calcium bis(pentaiodide) 6,7,9,10,17,18,20,21-octahydrodibenzo[b,k][1,4,7,10,13,16]hexaoxacyclooctadecine monohydrate'
_symmetry_cell_setting           monoclinic
_symmetry_space_group_name_H-M   'P 21'
_symmetry_Int_Tables_number      4
_space_group_name_Hall           'P 2yb'
loop_
_symmetry_equiv_pos_site_id
_symmetry_equiv_pos_as_xyz
1 x,y,z
2 -x,1/2+y,-z
_cell_length_a                   13.2210(18)
_cell_length_b                   18.4912(18)
_cell_length_c                   13.4403(17)
_cell_angle_alpha                90
_cell_angle_beta                 114.700(10)
_cell_angle_gamma                90
_cell_volume                     2985.16
_exptl_crystal_colour            black
_exptl_crystal_description       plate
_cell_formula_units_Z            2
loop_
_atom_site_label
_atom_site_type_symbol
_atom_site_fract_x
_atom_site_fract_y
_atom_site_fract_z
Ca1 Ca 0.0653(2) 0.38706(14) 0.0989(2)
C2 C -0.0902(13) 0.4935(8) 0.3401(12)
H1 H -0.1657 0.4822 0.3091
C3 C -0.0510(15) 0.4094(7) -0.2906(11)
H2 H -0.1257 0.3962 -0.3224
C6 C 0.1775(15) 0.4428(9) -0.1915(11)
H5 H 0.2530 0.4538 -0.1585
C8 C 0.1132(13) 0.4351(7) -0.1290(10)
C9 C 0.0032(14) 0.4206(7) -0.1793(10)
C11 C 0.3253(13) 0.3935(8) 0.3126(10)
H8 H 0.4050 0.4011 0.3400
H9 H 0.3128 0.3450 0.3325
C15 C 0.0940(14) 0.4752(7) 0.3544(11)
C16 C -0.1738(12) 0.3282(7) 0.0975(12)
H15 H -0.1344 0.2863 0.1392
H16 H -0.2517 0.3151 0.0589
C17 C -0.1642(13) 0.3867(9) 0.1728(14)
H17 H -0.2136 0.4260 0.1341
H18 H -0.1850 0.3698 0.2300
C18 C -0.2048(12) 0.3905(9) -0.0704(14)
H19 H -0.2044 0.4398 -0.0457
H20 H -0.2803 0.3720 -0.0974
C22 C 0.120(2) 0.4326(9) -0.3083(13)
H26 H 0.1588 0.4359 -0.3517
C23 C -0.0213(14) 0.4620(8) 0.3030(12)
C25 C 0.2790(11) 0.4531(8) 0.0347(11)
H28 H 0.3018 0.4939 0.0035
H29 H 0.3148 0.4097 0.0242
C26 C 0.0095(19) 0.4184(9) -0.3557(14)
H30 H -0.0271 0.4145 -0.4315
C27 C 0.2761(13) 0.4480(8) 0.3634(12)
H31 H 0.3047 0.4404 0.4418
H32 H 0.2949 0.4968 0.3504
C28 C -0.1647(11) 0.3883(7) -0.1590(12)
H33 H -0.1681 0.3394 -0.1864
H34 H -0.2097 0.4195 -0.2193
C29 C 0.0629(17) 0.5554(10) 0.4767(13)
H35 H 0.0905 0.5862 0.5369
C33 C 0.3106(13) 0.4658(10) 0.1590(11)
H40 H 0.3903 0.4724 0.1992
H41 H 0.2728 0.5080 0.1698
C34 C 0.1386(15) 0.5219(7) 0.4404(11)
H42 H 0.2145 0.5315 0.4736
C35 C -0.0473(16) 0.5436(9) 0.4260(14)
H43 H -0.0954 0.5687 0.4481
O1 O -0.0516(8) 0.4114(5) 0.2197(8)
O2 O -0.0524(8) 0.4132(5) -0.1098(7)
O3 O 0.2741(7) 0.4011(5) 0.1938(6)
O4 O 0.1597(8) 0.4452(5) -0.0160(7)
O5 O -0.1304(7) 0.3459(5) 0.0189(7)
O8 O 0.1581(8) 0.4380(5) 0.3132(8)
O13 O 0.0936(8) 0.2823(5) 0.0068(7)
O14 O 0.1009(8) 0.2870(5) 0.2192(7)
O15 O 0.0256(9) 0.5125(5) 0.0899(8)
I1 I 0.98135(10) 0.25595(6) 0.44078(8)
I3 I 0.67250(11) 0.38868(12) 0.41653(10)
I5 I 0.61097(16) 0.53032(12) 0.43861(13)
I6 I 1.21205(12) 0.26805(12) 0.51180(9)
I9 I 0.73499(14) 0.23121(12) 0.38635(18)
I2 I 0.54240(11) 0.52772(7) 0.94174(12)
I4 I 0.59551(11) 0.54838(7) 1.16044(12)
I7 I 0.50892(13) 0.34813(14) 0.63323(11)
I8 I 0.53377(15) 0.20927(17) 0.55762(15)
I10 I 0.4576(2) 0.49846(15) 0.68630(15)
C1 C 0.3696(11) 0.2493(8) 0.0599(11)
C4 C 0.3150(14) 0.2467(9) -0.0601(13)
C5 C 0.0259(16) 0.1103(8) 0.2253(14)
H3 H -0.0083 0.0734 0.2524
H4 H 0.0237 0.1559 0.2600
C7 C 0.5022(14) 0.3301(9) 0.0515(17)
H6 H 0.5649 0.3587 0.0876
C10 C 0.4604(13) 0.2919(8) 0.1120(14)
H7 H 0.4934 0.2948 0.1881
C12 C -0.088(4) 0.1715(15) -0.247(2)
H10 H -0.0533 0.1241 -0.2344
H11 H -0.1224 0.1797 -0.3258
C13 C 0.1450(15) 0.0900(8) 0.2503(13)
H12 H 0.1842 0.0771 0.3269
H13 H 0.1462 0.0487 0.2063
C14 C -0.197(2) 0.1376(9) 0.139(2)
H14 H -0.1654 0.1283 0.2138
C19 C 0.3123(14) 0.1340(7) 0.2563(13)
H21 H 0.3181 0.0899 0.2200
H22 H 0.3491 0.1264 0.3348
C20 C -0.307(3) 0.1677(13) -0.074(3)
H23 H -0.3517 0.1731 -0.1486
C21 C 0.3685(14) 0.1974(8) 0.2227(11)
H24 H 0.3625 0.2415 0.2590
H25 H 0.4468 0.1869 0.2449
C24 C 0.4563(15) 0.3284(10) -0.0589(16)
H27 H 0.4894 0.3540 -0.0970
C30 C -0.175(3) 0.1728(12) -0.205(2)
H36 H -0.2364 0.1424 -0.2506
H37 H -0.2023 0.2217 -0.2087
C31 C -0.303(2) 0.155(2) 0.085(7)
H38 H -0.3394 0.1435 0.1293
C32 C 0.3637(16) 0.2904(9) -0.1143(14)
H39 H 0.3306 0.2928 -0.1903
C36 C -0.1395(16) 0.1349(8) 0.0799(16)
C37 C -0.358(2) 0.1743(11) 0.016(4)
H44 H -0.4268 0.1935 0.0045
C38 C -0.1914(18) 0.1530(10) -0.033(2)
C39 C 0.150(2) 0.2224(14) -0.2173(12)
H45 H 0.1283 0.2728 -0.2208
H46 H 0.1878 0.2158 -0.2649
C40 C 0.063(4) 0.182(2) -0.249(3)
H47 H 0.0817 0.1330 -0.2205
H48 H 0.0257 0.1794 -0.3287
O6 O 0.3149(8) 0.2066(5) 0.1069(7)
O7 O 0.2263(11) 0.2029(8) -0.1025(8)
O9 O 0.1997(8) 0.1516(5) 0.2254(8)
O10 O -0.0302(9) 0.1164(5) 0.1127(9)
O11 O -0.1316(15) 0.1471(8) -0.0909(12)
O12 O -0.0113(15) 0.2209(11) -0.2005(10)
O16 O -0.1626(14) 0.5797(8) 0.0042(14)
loop_
_geom_bond_atom_site_label_1
_geom_bond_atom_site_label_2
_geom_bond_site_symmetry_1
_geom_bond_site_symmetry_2
Ca1 O1 1_555 1_555
I1 I6 1_555 1_555
I2 I4 1_555 1_555
I3 I5 1_555 1_555
I7 I8 1_555 1_555
I9 I1 1_555 1_555
I10 I2 1_555 1_555
C1 C4 1_555 1_555
C2 H1 1_555 1_555
C3 H2 1_555 1_555
C4 C32 1_555 1_555
C5 H3 1_555 1_555
H4 C5 1_555 1_555
C6 H5 1_555 1_555
C7 H6 1_555 1_555
C8 C6 1_555 1_555
C9 C3 1_555 1_555
C10 C1 1_555 1_555
H7 C10 1_555 1_555
C11 H8 1_555 1_555
H9 C11 1_555 1_555
C12 H10 1_555 1_555
H11 C12 1_555 1_555
C13 C5 1_555 1_555
H12 C13 1_555 1_555
H13 C13 1_555 1_555
C14 H14 1_555 1_555
C15 C23 1_555 1_555
C16 H15 1_555 1_555
H16 C16 1_555 1_555
C17 C16 1_555 1_555
H17 C17 1_555 1_555
H18 C17 1_555 1_555
C18 H19 1_555 1_555
H20 C18 1_555 1_555
C19 H21 1_555 1_555
H22 C19 1_555 1_555
C20 H23 1_555 1_555
C21 C19 1_555 1_555
H24 C21 1_555 1_555
H25 C21 1_555 1_555
C22 C6 1_555 1_555
H26 C22 1_555 1_555
C23 C2 1_555 1_555
C24 C7 1_555 1_555
H27 C24 1_555 1_555
C25 H28 1_555 1_555
H29 C25 1_555 1_555
C26 C3 1_555 1_555
H30 C26 1_555 1_555
C27 C11 1_555 1_555
H31 C27 1_555 1_555
H32 C27 1_555 1_555
C28 C18 1_555 1_555
H33 C28 1_555 1_555
H34 C28 1_555 1_555
C29 H35 1_555 1_555
C30 C12 1_555 1_555
H36 C30 1_555 1_555
H37 C30 1_555 1_555
C31 C14 1_555 1_555
H38 C31 1_555 1_555
C32 C24 1_555 1_555
H39 C32 1_555 1_555
C33 C25 1_555 1_555
H40 C33 1_555 1_555
H41 C33 1_555 1_555
C34 C15 1_555 1_555
H42 C34 1_555 1_555
C35 C2 1_555 1_555
H43 C35 1_555 1_555
C36 C14 1_555 1_555
C37 C20 1_555 1_555
H44 C37 1_555 1_555
C38 C20 1_555 1_555
C39 H45 1_555 1_555
H46 C39 1_555 1_555
C40 C39 1_555 1_555
H47 C40 1_555 1_555
H48 C40 1_555 1_555
O1 C17 1_555 1_555
O2 Ca1 1_555 1_555
O3 Ca1 1_555 1_555
O4 Ca1 1_555 1_555
O5 Ca1 1_555 1_555
O6 C1 1_555 1_555
O7 C4 1_555 1_555
O8 Ca1 1_555 1_555
O9 C13 1_555 1_555
O10 C5 1_555 1_555
O11 C30 1_555 1_555
O12 C12 1_555 1_555
O13 Ca1 1_555 1_555
O14 Ca1 1_555 1_555
O15 Ca1 1_555 1_555
I3 I9 1_555 1_555
I7 I10 1_555 1_555
C7 C10 1_555 1_555
C8 C9 1_555 1_555
C8 O4 1_555 1_555
C9 O2 1_555 1_555
C11 O3 1_555 1_555
C15 O8 1_555 1_555
C16 O5 1_555 1_555
C18 O5 1_555 1_555
C19 O9 1_555 1_555
C21 O6 1_555 1_555
C22 C26 1_555 1_555
C23 O1 1_555 1_555
C25 O4 1_555 1_555
C27 O8 1_555 1_555
C28 O2 1_555 1_555
C29 C34 1_555 1_555
C29 C35 1_555 1_555
C31 C37 1_555 1_555
C33 O3 1_555 1_555
C36 C38 1_555 1_555
C36 O10 1_555 1_555
C38 O11 1_555 1_555
C39 O7 1_555 1_555
C40 O12 1_555 1_555

#END
