
#######################################################################
#
#                 Cambridge Crystallographic Data Centre
#                                CCDC 
#
#######################################################################
#
# If this CIF has been generated from an entry in the Cambridge 
# Structural Database, then it will include bibliographic, chemical, 
# crystal, experimental, refinement or atomic coordinate data resulting 
# from the CCDC's data processing and validation procedures.
#
#######################################################################

data_XAGNOJ
_chemical_name_common            
4-(4H-1,2,4-triazol-4-yl)-3-bromophenylmethanimine
_chemical_formula_moiety         'C9 H7 Br1 N4'
_chemical_name_systematic        
N-((3-bromophenyl)methylene)-4H-1,2,4-triazol-4-amine
_symmetry_cell_setting           monoclinic
_symmetry_space_group_name_H-M   'P 21'
_symmetry_Int_Tables_number      4
_space_group_name_Hall           'P 2yb'
loop_
_symmetry_equiv_pos_site_id
_symmetry_equiv_pos_as_xyz
1 x,y,z
2 -x,1/2+y,-z
_cell_length_a                   4.3840(10)
_cell_length_b                   11.244(2)
_cell_length_c                   9.501(2)
_cell_angle_alpha                90
_cell_angle_beta                 101.80(3)
_cell_angle_gamma                90
_cell_volume                     458.442
_chemical_melting_point          '185-188 deg.C'
_cell_formula_units_Z            2
loop_
_atom_site_label
_atom_site_type_symbol
_atom_site_fract_x
_atom_site_fract_y
_atom_site_fract_z
Br1 Br 0.35336(6) 0.56849(8) 0.69853(3)
N1 N -1.2550(8) 0.7235(4) -0.0456(4)
N2 N -1.2200(8) 0.8263(3) 0.0385(4)
N3 N -0.8562(8) 0.6992(3) 0.1336(4)
N4 N -0.6004(8) 0.6572(3) 0.2343(4)
C1 C -0.4976(8) 0.5560(5) 0.2067(4)
H1 H -0.577(14) 0.507(6) 0.116(7)
C2 C -0.2318(8) 0.5010(3) 0.3047(4)
C3 C -0.1254(9) 0.3919(3) 0.2646(4)
H2 H -0.213(14) 0.358(6) 0.182(7)
C4 C 0.1269(9) 0.3346(4) 0.3551(4)
H3 H 0.201(14) 0.255(7) 0.325(7)
C5 C 0.2646(9) 0.3856(3) 0.4863(4)
H4 H 0.426(13) 0.357(5) 0.546(6)
C6 C 0.1551(8) 0.4959(3) 0.5232(4)
C7 C -0.0914(8) 0.5564(5) 0.4355(4)
H5 H -0.125(12) 0.629(5) 0.470(6)
C8 C -1.0342(9) 0.6492(4) 0.0139(4)
H6 H -1.009(12) 0.573(11) -0.047(5)
C9 C -0.9827(9) 0.8085(4) 0.1438(5)
H7 H -0.887(11) 0.858(5) 0.215(6)
loop_
_geom_bond_atom_site_label_1
_geom_bond_atom_site_label_2
_geom_bond_site_symmetry_1
_geom_bond_site_symmetry_2
Br1 C6 1_555 1_555
N1 N2 1_555 1_555
N2 C9 1_555 1_555
N3 N4 1_555 1_555
N4 C1 1_555 1_555
C1 H1 1_555 1_555
C2 C1 1_555 1_555
C3 C2 1_555 1_555
H2 C3 1_555 1_555
C4 C3 1_555 1_555
H3 C4 1_555 1_555
C5 C4 1_555 1_555
H4 C5 1_555 1_555
C6 C5 1_555 1_555
C7 C2 1_555 1_555
H5 C7 1_555 1_555
C8 N1 1_555 1_555
H6 C8 1_555 1_555
C9 N3 1_555 1_555
H7 C9 1_555 1_555
N3 C8 1_555 1_555
C6 C7 1_555 1_555

#END
