
#######################################################################
#
#                 Cambridge Crystallographic Data Centre
#                                CCDC 
#
#######################################################################
#
# If this CIF has been generated from an entry in the Cambridge 
# Structural Database, then it will include bibliographic, chemical, 
# crystal, experimental, refinement or atomic coordinate data resulting 
# from the CCDC's data processing and validation procedures.
#
#######################################################################

data_XAGNAX
_chemical_formula_moiety         'C19 H21 N1'
_chemical_name_systematic        N,N-Dibenzylbicyclo[1.1.1]pentan-1-amine
_symmetry_cell_setting           orthorhombic
_symmetry_space_group_name_H-M   'P 21 21 21'
_symmetry_Int_Tables_number      19
_space_group_name_Hall           'P 2ac 2ab'
loop_
_symmetry_equiv_pos_site_id
_symmetry_equiv_pos_as_xyz
1 x,y,z
2 1/2+x,1/2-y,-z
3 -x,1/2+y,1/2-z
4 1/2-x,-y,1/2+z
_cell_length_a                   5.8460(4)
_cell_length_b                   14.9613(9)
_cell_length_c                   16.7311(12)
_cell_angle_alpha                90
_cell_angle_beta                 90
_cell_angle_gamma                90
_cell_volume                     1463.36
_exptl_crystal_colour            colorless
_exptl_crystal_description       Plate
_cell_formula_units_Z            4
loop_
_atom_site_label
_atom_site_type_symbol
_atom_site_fract_x
_atom_site_fract_y
_atom_site_fract_z
N1 N 0.0517(3) 0.28379(11) 0.72632(10)
C1 C -0.0190(3) 0.36733(13) 0.76175(12)
C2 C -0.1386(4) 0.44464(14) 0.71665(13)
H1 H -0.2952 0.4323 0.6971
H2 H -0.0435 0.4775 0.6775
C3 C -0.1187(4) 0.47552(14) 0.80475(14)
H3 H -0.1740 0.5334 0.8275
C4 C 0.1312(4) 0.44099(14) 0.80411(14)
H4 H 0.1969 0.4246 0.8567
H5 H 0.2397 0.4739 0.7695
C5 C -0.1958(4) 0.38081(14) 0.82987(14)
H6 H -0.3560 0.3647 0.8171
H7 H -0.1477 0.3609 0.8837
C6 C 0.1577(4) 0.22433(14) 0.78598(12)
H8 H 0.2745 0.2585 0.8160
H9 H 0.2370 0.1752 0.7577
C7 C -0.0100(3) 0.18436(13) 0.84484(12)
C8 C 0.0448(4) 0.17914(13) 0.92572(13)
H10 H 0.1852 0.2035 0.9442
C9 C -0.1032(4) 0.13883(14) 0.97965(14)
H11 H -0.0632 0.1356 1.0346
C10 C -0.3095(4) 0.10322(14) 0.95352(14)
H12 H -0.4114 0.0759 0.9904
C11 C -0.3653(4) 0.10791(14) 0.87297(14)
H13 H -0.5058 0.0834 0.8546
C12 C -0.2168(4) 0.14826(13) 0.81910(13)
H14 H -0.2568 0.1512 0.7641
C13 C 0.2131(4) 0.30124(13) 0.66022(13)
H15 H 0.3614 0.3208 0.6828
H16 H 0.1529 0.3506 0.6270
C14 C 0.2520(3) 0.22044(13) 0.60794(12)
C15 C 0.0789(3) 0.19178(14) 0.55633(13)
H17 H -0.0637 0.2222 0.5554
C16 C 0.1149(4) 0.11896(14) 0.50628(13)
H18 H -0.0030 0.1001 0.4710
C17 C 0.3231(4) 0.07347(14) 0.50753(13)
H19 H 0.3468 0.0234 0.4736
C18 C 0.4954(4) 0.10178(14) 0.55866(13)
H20 H 0.6373 0.0709 0.5600
C19 C 0.4602(4) 0.17531(14) 0.60802(13)
H21 H 0.5797 0.1950 0.6422
loop_
_geom_bond_atom_site_label_1
_geom_bond_atom_site_label_2
_geom_bond_site_symmetry_1
_geom_bond_site_symmetry_2
N1 C1 1_555 1_555
C1 C2 1_555 1_555
C2 H1 1_555 1_555
H2 C2 1_555 1_555
C3 C2 1_555 1_555
H3 C3 1_555 1_555
C4 C1 1_555 1_555
H4 C4 1_555 1_555
H5 C4 1_555 1_555
C5 C1 1_555 1_555
H6 C5 1_555 1_555
H7 C5 1_555 1_555
C6 N1 1_555 1_555
H8 C6 1_555 1_555
H9 C6 1_555 1_555
C7 C6 1_555 1_555
C8 C7 1_555 1_555
H10 C8 1_555 1_555
C9 C8 1_555 1_555
H11 C9 1_555 1_555
C10 C9 1_555 1_555
H12 C10 1_555 1_555
C11 C10 1_555 1_555
H13 C11 1_555 1_555
C12 C7 1_555 1_555
H14 C12 1_555 1_555
C13 N1 1_555 1_555
H15 C13 1_555 1_555
H16 C13 1_555 1_555
C14 C13 1_555 1_555
C15 C14 1_555 1_555
H17 C15 1_555 1_555
C16 C15 1_555 1_555
H18 C16 1_555 1_555
C17 C16 1_555 1_555
H19 C17 1_555 1_555
C18 C17 1_555 1_555
H20 C18 1_555 1_555
C19 C14 1_555 1_555
H21 C19 1_555 1_555
C3 C4 1_555 1_555
C3 C5 1_555 1_555
C11 C12 1_555 1_555
C18 C19 1_555 1_555

#END
