
#######################################################################
#
#                 Cambridge Crystallographic Data Centre
#                                CCDC 
#
#######################################################################
#
# If this CIF has been generated from an entry in the Cambridge 
# Structural Database, then it will include bibliographic, chemical, 
# crystal, experimental, refinement or atomic coordinate data resulting 
# from the CCDC's data processing and validation procedures.
#
#######################################################################

data_XAGNIF
_chemical_formula_moiety         'C10 H10 O2 S1'
_chemical_name_systematic        'Bicyclo[1.1.0]but-1-yl phenyl sulfone'
_symmetry_cell_setting           monoclinic
_symmetry_space_group_name_H-M   'P 21/c'
_symmetry_Int_Tables_number      14
_space_group_name_Hall           '-P 2ybc'
loop_
_symmetry_equiv_pos_site_id
_symmetry_equiv_pos_as_xyz
1 x,y,z
2 -x,1/2+y,1/2-z
3 -x,-y,-z
4 x,1/2-y,1/2+z
_cell_length_a                   5.9300(3)
_cell_length_b                   7.2867(5)
_cell_length_c                   20.9055(13)
_cell_angle_alpha                90
_cell_angle_beta                 90.331(3)
_cell_angle_gamma                90
_cell_volume                     903.314
_exptl_crystal_colour            colorless
_exptl_crystal_description       block
_cell_formula_units_Z            4
loop_
_atom_site_label
_atom_site_type_symbol
_atom_site_fract_x
_atom_site_fract_y
_atom_site_fract_z
S1 S 0.84991(7) 0.95592(6) 0.61342(2)
O1 O 0.7354(2) 1.11379(18) 0.58735(6)
O2 O 1.0910(2) 0.94300(19) 0.60659(6)
C1 C 0.7501(3) 0.7226(2) 0.50973(8)
H1 H 0.8249 0.7976 0.4759
C2 C 0.7300(3) 0.7608(2) 0.58085(8)
C3 C 0.7875(3) 0.9439(2) 0.69575(8)
C4 C 0.9473(3) 0.8748(2) 0.73816(8)
H2 H 1.0890 0.8323 0.7232
C5 C 0.8964(3) 0.8687(2) 0.80302(9)
H3 H 1.0044 0.8226 0.8327
C6 C 0.6893(3) 0.9294(2) 0.82446(9)
H4 H 0.6555 0.9244 0.8688
C7 C 0.8538(3) 0.5945(3) 0.55734(9)
H5 H 1.0203 0.5940 0.5613
H6 H 0.7814 0.4734 0.5634
C8 C 0.5776(3) 1.0053(2) 0.71675(9)
H7 H 0.4693 1.0514 0.6872
C9 C 0.5301(3) 0.9977(3) 0.78152(9)
H8 H 0.3882 1.0393 0.7967
C10 C 0.5237(3) 0.7474(3) 0.53922(9)
H9 H 0.4273 0.6374 0.5439
H10 H 0.4411 0.8623 0.5296
loop_
_geom_bond_atom_site_label_1
_geom_bond_atom_site_label_2
_geom_bond_site_symmetry_1
_geom_bond_site_symmetry_2
S1 O1 1_555 1_555
O2 S1 1_555 1_555
C1 H1 1_555 1_555
C2 S1 1_555 1_555
C3 S1 1_555 1_555
C4 C3 1_555 1_555
H2 C4 1_555 1_555
C5 C4 1_555 1_555
H3 C5 1_555 1_555
C6 C5 1_555 1_555
H4 C6 1_555 1_555
C7 C1 1_555 1_555
H5 C7 1_555 1_555
H6 C7 1_555 1_555
C8 C3 1_555 1_555
H7 C8 1_555 1_555
C9 C6 1_555 1_555
H8 C9 1_555 1_555
C10 C1 1_555 1_555
H9 C10 1_555 1_555
H10 C10 1_555 1_555
C1 C2 1_555 1_555
C2 C7 1_555 1_555
C2 C10 1_555 1_555
C8 C9 1_555 1_555

#END
