
#######################################################################
#
#                 Cambridge Crystallographic Data Centre
#                                CCDC 
#
#######################################################################
#
# If this CIF has been generated from an entry in the Cambridge 
# Structural Database, then it will include bibliographic, chemical, 
# crystal, experimental, refinement or atomic coordinate data resulting 
# from the CCDC's data processing and validation procedures.
#
#######################################################################

data_XAGQUU
_chemical_formula_moiety         'C22 H17 F6 N3 O3 S1'
_chemical_name_systematic        
(9R*,10S*,17R*,N3S*)-4-(3-(5-Nitrothien-2-yl)hexahydro(1,3)oxazolo(3,4-a)pyridin-1-yl)-2,8-bis(trifluoromethyl)quinoline
_symmetry_cell_setting           triclinic
_symmetry_space_group_name_H-M   'P -1'
_symmetry_Int_Tables_number      2
_space_group_name_Hall           '-P 1'
loop_
_symmetry_equiv_pos_site_id
_symmetry_equiv_pos_as_xyz
1 x,y,z
2 -x,-y,-z
_cell_length_a                   9.0457(4)
_cell_length_b                   10.6524(5)
_cell_length_c                   12.9095(7)
_cell_angle_alpha                75.523(3)
_cell_angle_beta                 71.708(3)
_cell_angle_gamma                68.195(3)
_cell_volume                     1083.95
_exptl_crystal_colour            colorless
_exptl_crystal_description       rod
_cell_formula_units_Z            2
loop_
_atom_site_label
_atom_site_type_symbol
_atom_site_fract_x
_atom_site_fract_y
_atom_site_fract_z
S1 S 0.37973(7) -0.03280(5) 0.37207(5)
F1 F -0.04942(17) 1.02179(13) 0.20233(11)
F2 F -0.26950(16) 1.00106(13) 0.32186(12)
F3 F -0.10873(18) 1.07688(12) 0.36251(12)
F4 F -0.23011(18) 0.81917(13) 0.06306(12)
F5 F -0.2251(2) 0.61232(15) 0.08622(13)
O1 O 0.13168(18) 0.24541(14) 0.31144(12)
F6 F -0.01711(18) 0.66950(17) -0.01645(11)
N1 N -0.0751(2) 0.75915(17) 0.21806(15)
N2 N 0.3525(2) 0.25271(17) 0.16733(14)
C1 C 0.3077(3) 0.0275(2) 0.25499(17)
O2 O 0.6052(2) -0.41858(17) 0.37969(16)
C2 C 0.1629(3) 0.5763(2) 0.42895(17)
H1 H 0.2271 0.4871 0.4545
C3 C 0.2350(3) 0.1783(2) 0.21876(17)
H2 H 0.1676 0.1914 0.1663
C4 C -0.0602(3) 0.6554(2) 0.17455(18)
C5 C 0.0892(2) 0.5951(2) 0.34213(16)
C6 C -0.0176(3) 0.8415(2) 0.35239(18)
C7 C 0.0517(3) 0.8175(2) 0.43795(18)
H3 H 0.0380 0.8918 0.4721
O3 O 0.5568(3) -0.27743(19) 0.49205(17)
C8 C 0.1435(3) 0.6842(2) 0.47671(17)
H4 H 0.1918 0.6693 0.5361
C9 C 0.4581(3) -0.1942(2) 0.33786(19)
C10 C -0.0017(3) 0.7298(2) 0.30251(17)
C11 C 0.0236(3) 0.5172(2) 0.20823(18)
H5 H 0.0264 0.4470 0.1738
C12 C 0.1993(3) 0.3403(2) 0.32665(18)
H6 H 0.1991 0.3276 0.4061
C13 C -0.1339(3) 0.6902(2) 0.07737(19)
N3 N 0.5458(3) -0.3046(2) 0.40761(18)
C14 C 0.3771(3) 0.2977(2) 0.25686(18)
H7 H 0.4451 0.2171 0.2994
C15 C 0.1008(3) 0.4862(2) 0.29122(17)
C16 C 0.4659(3) 0.4025(2) 0.2098(2)
H8 H 0.4892 0.4285 0.2700
H9 H 0.3960 0.4857 0.1724
C17 C -0.1111(3) 0.9840(2) 0.30972(19)
C18 C 0.3410(3) -0.0745(2) 0.19613(18)
H10 H 0.3079 -0.0595 0.1299
C19 C 0.5052(3) 0.1857(2) 0.09141(19)
H11 H 0.4803 0.1568 0.0333
H12 H 0.5720 0.1036 0.1319
C20 C 0.6273(3) 0.3423(2) 0.1271(2)
H13 H 0.6800 0.4140 0.0909
H14 H 0.7030 0.2674 0.1669
C21 C 0.4288(3) -0.2034(2) 0.24365(19)
H15 H 0.4629 -0.2857 0.2140
C22 C 0.5987(3) 0.2877(3) 0.0399(2)
H16 H 0.7058 0.2429 -0.0083
H17 H 0.5357 0.3648 -0.0066
loop_
_geom_bond_atom_site_label_1
_geom_bond_atom_site_label_2
_geom_bond_site_symmetry_1
_geom_bond_site_symmetry_2
S1 C1 1_555 1_555
F1 C17 1_555 1_555
F2 C17 1_555 1_555
F3 C17 1_555 1_555
F4 C13 1_555 1_555
F5 C13 1_555 1_555
O1 C3 1_555 1_555
F6 C13 1_555 1_555
N1 C4 1_555 1_555
N2 C3 1_555 1_555
C1 C3 1_555 1_555
O2 N3 1_555 1_555
C2 H1 1_555 1_555
C3 H2 1_555 1_555
C4 C11 1_555 1_555
C5 C2 1_555 1_555
C6 C7 1_555 1_555
C7 H3 1_555 1_555
O3 N3 1_555 1_555
C8 C2 1_555 1_555
H4 C8 1_555 1_555
C9 S1 1_555 1_555
C10 N1 1_555 1_555
C11 H5 1_555 1_555
C12 O1 1_555 1_555
H6 C12 1_555 1_555
C13 C4 1_555 1_555
N3 C9 1_555 1_555
C14 N2 1_555 1_555
H7 C14 1_555 1_555
C15 C5 1_555 1_555
C16 C14 1_555 1_555
H8 C16 1_555 1_555
H9 C16 1_555 1_555
C17 C6 1_555 1_555
C18 C1 1_555 1_555
H10 C18 1_555 1_555
C19 N2 1_555 1_555
H11 C19 1_555 1_555
H12 C19 1_555 1_555
C20 C16 1_555 1_555
H13 C20 1_555 1_555
H14 C20 1_555 1_555
C21 C9 1_555 1_555
H15 C21 1_555 1_555
C22 C19 1_555 1_555
H16 C22 1_555 1_555
H17 C22 1_555 1_555
C5 C10 1_555 1_555
C6 C10 1_555 1_555
C7 C8 1_555 1_555
C11 C15 1_555 1_555
C12 C14 1_555 1_555
C12 C15 1_555 1_555
C18 C21 1_555 1_555
C20 C22 1_555 1_555

#END
