
#######################################################################
#
#                 Cambridge Crystallographic Data Centre
#                                CCDC 
#
#######################################################################
#
# If this CIF has been generated from an entry in the Cambridge 
# Structural Database, then it will include bibliographic, chemical, 
# crystal, experimental, refinement or atomic coordinate data resulting 
# from the CCDC's data processing and validation procedures.
#
#######################################################################

data_XAGWAG
_chemical_formula_moiety         'C11 H11 Cl2 N2 P1'
_chemical_name_systematic        
5,5-dichloro-1,3-dimethyl-5H-4,5-pyrazolo[1,2-a][1,2,3]benzodiazaphosphole
_symmetry_cell_setting           monoclinic
_symmetry_space_group_name_H-M   'P 21/c'
_symmetry_Int_Tables_number      14
_space_group_name_Hall           '-P 2ybc'
loop_
_symmetry_equiv_pos_site_id
_symmetry_equiv_pos_as_xyz
1 x,y,z
2 -x,1/2+y,1/2-z
3 -x,-y,-z
4 x,1/2-y,1/2+z
_cell_length_a                   14.0013(2)
_cell_length_b                   10.06929(14)
_cell_length_c                   8.45082(12)
_cell_angle_alpha                90
_cell_angle_beta                 91.6791(13)
_cell_angle_gamma                90
_cell_volume                     1190.91
_exptl_crystal_colour            colorless
_exptl_crystal_description       prism
_cell_formula_units_Z            4
loop_
_atom_site_label
_atom_site_type_symbol
_atom_site_fract_x
_atom_site_fract_y
_atom_site_fract_z
P1 P 0.78142(2) 0.12950(3) 0.21511(4)
Cl1 Cl 0.69417(2) 0.30201(3) 0.08756(4)
Cl2 Cl 0.87203(2) -0.04916(3) 0.32834(4)
N1 N 0.81915(8) 0.07776(10) 0.02617(13)
N2 N 0.76167(8) -0.01323(10) -0.05097(12)
C1 C 0.89432(9) 0.10473(12) -0.06513(15)
C2 C 0.88357(10) 0.02858(13) -0.20187(15)
H1 H 0.9261 0.0269 -0.2875
C3 C 0.79989(10) -0.04448(12) -0.19138(15)
C4 C 0.96782(9) 0.20394(13) -0.01497(16)
H2 H 0.9847 0.1912 0.0974
H3 H 0.9423 0.2937 -0.0312
H4 H 1.0249 0.1923 -0.0780
C5 C 0.75436(11) -0.13898(14) -0.30526(16)
H5 H 0.6899 -0.1078 -0.3346
H6 H 0.7504 -0.2269 -0.2562
H7 H 0.7927 -0.1446 -0.4003
C6 C 0.67947(9) 0.01813(12) 0.18179(15)
C7 C 0.68044(9) -0.04747(12) 0.03596(15)
C8 C 0.60858(10) -0.13396(13) -0.01307(16)
H8 H 0.6104 -0.1776 -0.1126
C9 C 0.53342(10) -0.15482(13) 0.08871(17)
H9 H 0.4831 -0.2136 0.0581
C10 C 0.53104(10) -0.09090(14) 0.23440(17)
H10 H 0.4792 -0.1064 0.3020
C11 C 0.60395(10) -0.00433(13) 0.28215(16)
H11 H 0.6022 0.0389 0.3820
loop_
_geom_bond_atom_site_label_1
_geom_bond_atom_site_label_2
_geom_bond_site_symmetry_1
_geom_bond_site_symmetry_2
P1 Cl1 1_555 1_555
Cl2 P1 1_555 1_555
N1 P1 1_555 1_555
N2 N1 1_555 1_555
C1 N1 1_555 1_555
C2 C1 1_555 1_555
H1 C2 1_555 1_555
C3 N2 1_555 1_555
C4 C1 1_555 1_555
H2 C4 1_555 1_555
H3 C4 1_555 1_555
H4 C4 1_555 1_555
C5 C3 1_555 1_555
H5 C5 1_555 1_555
H6 C5 1_555 1_555
H7 C5 1_555 1_555
C6 P1 1_555 1_555
C7 N2 1_555 1_555
C8 C7 1_555 1_555
H8 C8 1_555 1_555
C9 C8 1_555 1_555
H9 C9 1_555 1_555
C10 C9 1_555 1_555
H10 C10 1_555 1_555
C11 C6 1_555 1_555
H11 C11 1_555 1_555
C2 C3 1_555 1_555
C6 C7 1_555 1_555
C10 C11 1_555 1_555

#END
