
#######################################################################
#
#                 Cambridge Crystallographic Data Centre
#                                CCDC 
#
#######################################################################
#
# If this CIF has been generated from an entry in the Cambridge 
# Structural Database, then it will include bibliographic, chemical, 
# crystal, experimental, refinement or atomic coordinate data resulting 
# from the CCDC's data processing and validation procedures.
#
#######################################################################

data_XAGXAH
_chemical_formula_moiety         'C22 H22 N4 P2 2+,2(Cl1 1-)'
_chemical_name_systematic        
"1,1',3,3'-tetramethyl-5,5'-bipyrazolo[1,2-a][1,2,3]benzodiazaphosphol-4-ium bis(chloride)"
_symmetry_cell_setting           monoclinic
_symmetry_space_group_name_H-M   'C 2/c'
_symmetry_Int_Tables_number      15
_space_group_name_Hall           '-C 2yn'
loop_
_symmetry_equiv_pos_site_id
_symmetry_equiv_pos_as_xyz
1 x,y,z
2 -x,y,1/2-z
3 1/2+x,1/2+y,z
4 1/2-x,1/2+y,1/2-z
5 -x,-y,-z
6 x,-y,1/2+z
7 1/2-x,1/2-y,-z
8 1/2+x,1/2-y,1/2+z
_cell_length_a                   19.9526(13)
_cell_length_b                   8.9131(6)
_cell_length_c                   13.4041(9)
_cell_angle_alpha                90
_cell_angle_beta                 118.8360(10)
_cell_angle_gamma                90
_cell_volume                     2088.2
_exptl_crystal_colour            yellow
_exptl_crystal_description       prism
_cell_formula_units_Z            4
loop_
_atom_site_label
_atom_site_type_symbol
_atom_site_fract_x
_atom_site_fract_y
_atom_site_fract_z
Cl1 Cl 0.10207(2) 0.34798(5) 0.25385(4)
P1 P -0.00340(2) 0.14278(5) 0.16036(4)
N1 N -0.07303(8) -0.01753(16) 0.09706(12)
N2 N -0.04171(8) -0.15644(15) 0.10336(12)
C1 C -0.14913(10) -0.0306(2) 0.03419(14)
C2 C -0.16572(10) -0.1802(2) 0.00099(15)
H1 H -0.2154 -0.2214 -0.0439
C3 C -0.09790(10) -0.2581(2) 0.04432(14)
C4 C -0.20118(10) 0.0996(2) 0.00859(16)
H2 H -0.1751 0.1911 0.0053
H3 H -0.2157 0.1099 0.0685
H4 H -0.2472 0.0840 -0.0649
C5 C -0.08388(11) -0.4189(2) 0.03028(17)
H5 H -0.0543 -0.4653 0.1054
H6 H -0.0552 -0.4261 -0.0117
H7 H -0.1329 -0.4710 -0.0121
C6 C 0.06777(9) -0.00340(18) 0.17924(14)
C7 C 0.03867(10) -0.14996(19) 0.15135(15)
C8 C 0.08471(10) -0.2745(2) 0.16989(15)
H8 H 0.0636 -0.3727 0.1537
C9 C 0.16229(11) -0.2518(2) 0.21267(16)
H9 H 0.1951 -0.3356 0.2270
C10 C 0.19286(10) -0.1083(2) 0.23495(16)
H10 H 0.2460 -0.0942 0.2612
C11 C 0.14588(10) 0.0155(2) 0.21890(14)
H11 H 0.1673 0.1134 0.2352
P1A P 0.00340(2) 0.14278(5) 0.33964(4)
N1A N 0.07303(8) -0.01753(16) 0.40294(12)
N2A N 0.04171(8) -0.15644(15) 0.39664(12)
C1A C 0.14913(10) -0.0306(2) 0.46581(14)
C2A C 0.16572(10) -0.1802(2) 0.49901(15)
H1A H 0.2154 -0.2214 0.5439
C3A C 0.09790(10) -0.2581(2) 0.45568(14)
C4A C 0.20118(10) 0.0996(2) 0.49141(16)
H2A H 0.1751 0.1911 0.4947
H3A H 0.2157 0.1099 0.4315
H4A H 0.2472 0.0840 0.5649
C5A C 0.08388(11) -0.4189(2) 0.46972(17)
H5A H 0.0543 -0.4653 0.3946
H6A H 0.0552 -0.4261 0.5117
H7A H 0.1329 -0.4710 0.5121
C6A C -0.06777(9) -0.00340(18) 0.32076(14)
C7A C -0.03867(10) -0.14996(19) 0.34865(15)
C8A C -0.08471(10) -0.2745(2) 0.33011(15)
H8A H -0.0636 -0.3727 0.3463
C9A C -0.16229(11) -0.2518(2) 0.28733(16)
H9A H -0.1951 -0.3356 0.2730
C10A C -0.19286(10) -0.1083(2) 0.26505(16)
H10A H -0.2460 -0.0942 0.2388
C11A C -0.14588(10) 0.0155(2) 0.28110(14)
H11A H -0.1673 0.1134 0.2648
loop_
_geom_bond_atom_site_label_1
_geom_bond_atom_site_label_2
_geom_bond_site_symmetry_1
_geom_bond_site_symmetry_2
P1 N1 1_555 1_555
N1 N2 1_555 1_555
N2 C3 1_555 1_555
C1 N1 1_555 1_555
C2 C1 1_555 1_555
H1 C2 1_555 1_555
C3 C2 1_555 1_555
C4 C1 1_555 1_555
H2 C4 1_555 1_555
H3 C4 1_555 1_555
H4 C4 1_555 1_555
C5 C3 1_555 1_555
H5 C5 1_555 1_555
H6 C5 1_555 1_555
H7 C5 1_555 1_555
C6 P1 1_555 1_555
C7 N2 1_555 1_555
C8 C7 1_555 1_555
H8 C8 1_555 1_555
C9 C8 1_555 1_555
H9 C9 1_555 1_555
C10 C9 1_555 1_555
H10 C10 1_555 1_555
C11 C6 1_555 1_555
H11 C11 1_555 1_555
P1A P1 1_555 1_555
N1A P1A 1_555 1_555
N2A N1A 1_555 1_555
C1A N1A 1_555 1_555
C2A C1A 1_555 1_555
H1A C2A 1_555 1_555
C3A N2A 1_555 1_555
C4A C1A 1_555 1_555
H2A C4A 1_555 1_555
H3A C4A 1_555 1_555
H4A C4A 1_555 1_555
C5A C3A 1_555 1_555
H5A C5A 1_555 1_555
H6A C5A 1_555 1_555
H7A C5A 1_555 1_555
C6A P1A 1_555 1_555
C7A N2A 1_555 1_555
C8A C7A 1_555 1_555
H8A C8A 1_555 1_555
C9A C8A 1_555 1_555
H9A C9A 1_555 1_555
C10A C9A 1_555 1_555
H10A C10A 1_555 1_555
C11A C6A 1_555 1_555
H11A C11A 1_555 1_555
C6 C7 1_555 1_555
C10 C11 1_555 1_555
C2A C3A 1_555 1_555
C6A C7A 1_555 1_555
C10A C11A 1_555 1_555

#END
