
#######################################################################
#
#                 Cambridge Crystallographic Data Centre
#                                CCDC 
#
#######################################################################
#
# If this CIF has been generated from an entry in the Cambridge 
# Structural Database, then it will include bibliographic, chemical, 
# crystal, experimental, refinement or atomic coordinate data resulting 
# from the CCDC's data processing and validation procedures.
#
#######################################################################

data_XAGXUY
_chemical_formula_moiety         'C42 H48 N6,C4 H8 O2'
_chemical_name_systematic        
'3,5,9,11,15,17-Hexaaza-2,3,5,6,8,9,11,12,14,15,17,18-dodecadehydro-1,7,13(1,4)tribenzena-4,10,16(1,2)tricyclohexanacyclooctadecaphane ethyl acetate solvate'
_symmetry_cell_setting           monoclinic
_symmetry_space_group_name_H-M   'P 21'
_symmetry_Int_Tables_number      4
_space_group_name_Hall           'P 2yb'
loop_
_symmetry_equiv_pos_site_id
_symmetry_equiv_pos_as_xyz
1 x,y,z
2 -x,1/2+y,-z
_cell_length_a                   11.569(2)
_cell_length_b                   10.367(2)
_cell_length_c                   18.608(4)
_cell_angle_alpha                90
_cell_angle_beta                 104.38(3)
_cell_angle_gamma                90
_cell_volume                     2161.84
_exptl_crystal_colour            colorless
_exptl_crystal_description       prism
_chemical_melting_point          'above 360 deg.C'
_cell_formula_units_Z            2
loop_
_atom_site_label
_atom_site_type_symbol
_atom_site_fract_x
_atom_site_fract_y
_atom_site_fract_z
C1 C 0.3189(8) 0.1422(10) 0.8927(5)
H1 H 0.382(17) 0.187(72) 0.927(28)
H2 H 0.287(72) 0.0767(88) 0.919(32)
H3 H 0.257(55) 0.202(63) 0.8705(49)
C2 C 0.3679(11) 0.0804(11) 0.8329(6)
O1 O 0.4767(7) 0.1156(6) 0.8326(4)
O2 O 0.3107(6) 0.0019(8) 0.7922(4)
C3 C 0.5287(9) 0.0588(10) 0.7775(5)
H4 H 0.4869(9) 0.0887(10) 0.7286(5)
H5 H 0.5216(9) -0.0344(10) 0.7787(5)
C4 C 0.6533(9) 0.0952(11) 0.7928(5)
H6 H 0.6900(19) 0.0528(59) 0.7582(28)
H7 H 0.6931(18) 0.0699(67) 0.8424(17)
H8 H 0.6595(9) 0.1869(14) 0.7879(41)
N1 N 0.8658(5) 0.4544(6) 0.6377(4)
C5 C 0.8972(6) 0.4469(8) 0.5651(4)
H9 H 0.9701(6) 0.3961(8) 0.5699(4)
C6 C 0.7934(6) 0.3828(7) 0.5104(4)
H10 H 0.7199(6) 0.4316(7) 0.5079(4)
N2 N 0.7791(5) 0.2507(6) 0.5339(3)
C7 C 0.8188(6) 0.3785(7) 0.4337(4)
H11 H 0.8889(6) 0.3259(7) 0.4357(4)
H12 H 0.7518(6) 0.3392(7) 0.3986(4)
C8 C 0.8396(8) 0.5141(7) 0.4075(4)
H13 H 0.8585(8) 0.5093(7) 0.3596(4)
H14 H 0.7674(8) 0.5649(7) 0.4017(4)
C9 C 0.9404(8) 0.5784(9) 0.4626(5)
H15 H 0.9503(8) 0.6658(9) 0.4465(5)
H16 H 1.0140(8) 0.5318(9) 0.4650(5)
C10 C 0.9153(8) 0.5816(8) 0.5404(4)
H17 H 0.9819(8) 0.6214(8) 0.5755(4)
H18 H 0.8445(8) 0.6327(8) 0.5388(4)
C11 C 0.6836(7) 0.2200(7) 0.5478(4)
H19 H 0.6250(7) 0.2831(7) 0.5427(4)
C12 C 0.6559(7) 0.0909(7) 0.5720(4)
C13 C 0.5429(7) 0.0625(7) 0.5796(4)
H20 H 0.4837(7) 0.1254(7) 0.5694(4)
C14 C 0.5171(6) -0.0601(8) 0.6024(4)
H21 H 0.4409(6) -0.0782(8) 0.6077(4)
C15 C 0.6037(7) -0.1544(8) 0.6171(4)
C16 C 0.7154(7) -0.1239(8) 0.6090(4)
H22 H 0.7748(7) -0.1865(8) 0.6185(4)
C17 C 0.7414(7) -0.0025(8) 0.5870(4)
H23 H 0.8179(7) 0.0157(8) 0.5823(4)
C18 C 0.5785(7) -0.2833(7) 0.6426(4)
H24 H 0.6377(7) -0.3462(7) 0.6503(4)
N3 N 0.4787(6) -0.3104(6) 0.6540(3)
C19 C 0.4608(7) -0.4414(7) 0.6802(4)
H25 H 0.5358(7) -0.4900(7) 0.6898(4)
C20 C 0.4174(7) -0.4322(7) 0.7503(4)
H26 H 0.3466(7) -0.3768(7) 0.7413(4)
N4 N 0.5142(5) -0.3732(6) 0.8086(4)
C21 C 0.3867(7) -0.5639(8) 0.7753(4)
H27 H 0.3577(7) -0.5553(8) 0.8197(4)
H28 H 0.4577(7) -0.6175(8) 0.7871(4)
C22 C 0.2910(7) -0.6280(8) 0.7140(5)
H29 H 0.2732(7) -0.7130(8) 0.7302(5)
H30 H 0.2184(7) -0.5771(8) 0.7046(5)
C23 C 0.3317(8) -0.6399(8) 0.6439(5)
H31 H 0.2682(8) -0.6770(8) 0.6053(5)
H32 H 0.3999(8) -0.6974(8) 0.6521(5)
C24 C 0.3665(7) -0.5067(7) 0.6183(4)
H33 H 0.3976(7) -0.5174(7) 0.5749(4)
H34 H 0.2962(7) -0.4524(7) 0.6048(4)
C25 C 0.4852(7) -0.2901(8) 0.8512(4)
H35 H 0.4046(7) -0.2742(8) 0.8466(4)
C26 C 0.5732(6) -0.2181(7) 0.9073(4)
C27 C 0.5345(6) -0.1336(7) 0.9535(4)
H36 H 0.4535(6) -0.1283(7) 0.9514(4)
C28 C 0.6144(7) -0.0564(8) 1.0031(4)
H37 H 0.5873(7) 0.0019(8) 1.0332(4)
C29 C 0.7345(6) -0.0671(7) 1.0070(4)
C30 C 0.7733(6) -0.1537(8) 0.9634(5)
H38 H 0.8548(6) -0.1631(8) 0.9682(5)
C31 C 0.6943(7) -0.2278(8) 0.9123(4)
H39 H 0.7222(7) -0.2839(8) 0.8814(4)
C32 C 0.8230(6) 0.0163(8) 1.0566(4)
H40 H 0.9031(6) 0.0033(8) 1.0580(4)
N5 N 0.7981(5) 0.1037(7) 1.0970(3)
C33 C 0.9018(6) 0.1791(7) 1.1407(4)
H41 H 0.9766(6) 0.1366(7) 1.1387(4)
C34 C 0.8969(6) 0.3142(7) 1.1076(4)
H42 H 0.8195(6) 0.3545(7) 1.1053(4)
N6 N 0.9176(5) 0.3033(6) 1.0322(4)
C35 C 0.9979(6) 0.3958(8) 1.1537(4)
H43 H 1.0738(6) 0.3574(8) 1.1524(4)
H44 H 0.9946(6) 0.4814(8) 1.1322(4)
C36 C 0.9904(7) 0.4068(8) 1.2331(4)
H45 H 0.9172(7) 0.4504(8) 1.2353(4)
H46 H 1.0572(7) 0.4568(8) 1.2614(4)
C37 C 0.9928(6) 0.2697(8) 1.2664(4)
H47 H 1.0689(6) 0.2292(8) 1.2679(4)
H48 H 0.9841(6) 0.2755(8) 1.3169(4)
C38 C 0.8930(6) 0.1886(8) 1.2204(4)
H49 H 0.8168(6) 0.2266(8) 1.2216(4)
H50 H 0.8964(6) 0.1028(8) 1.2416(4)
C39 C 0.8407(7) 0.3524(7) 0.9791(4)
H51 H 0.7720(7) 0.3890(7) 0.9877(4)
C40 C 0.8591(7) 0.3521(7) 0.9033(4)
C41 C 0.7892(6) 0.4319(8) 0.8505(5)
H52 H 0.7291(6) 0.4804(8) 0.8626(5)
C42 C 0.8073(6) 0.4406(7) 0.7800(4)
H53 H 0.7599(6) 0.4946(7) 0.7448(4)
C43 C 0.8961(7) 0.3685(8) 0.7627(4)
C44 C 0.9640(6) 0.2853(8) 0.8144(5)
H54 H 1.0222(6) 0.2345(8) 0.8017(5)
C45 C 0.9458(7) 0.2771(8) 0.8851(5)
H55 H 0.9917(7) 0.2214(8) 0.9199(5)
C46 C 0.9203(6) 0.3772(8) 0.6877(4)
H56 H 0.9783(6) 0.3234(8) 0.6771(4)
H57? H 0.235(17) 0.124(72) 0.884(28)
H58? H 0.330(72) 0.2338(88) 0.892(32)
H59? H 0.360(55) 0.108(63) 0.9402(49)
loop_
_geom_bond_atom_site_label_1
_geom_bond_atom_site_label_2
_geom_bond_site_symmetry_1
_geom_bond_site_symmetry_2
C1 H1 1_555 1_555
H2 C1 1_555 1_555
H3 C1 1_555 1_555
C2 C1 1_555 1_555
O1 C2 1_555 1_555
O2 C2 1_555 1_555
C3 O1 1_555 1_555
H4 C3 1_555 1_555
H5 C3 1_555 1_555
C4 C3 1_555 1_555
H6 C4 1_555 1_555
H7 C4 1_555 1_555
H8 C4 1_555 1_555
N1 C5 1_555 1_555
C5 H9 1_555 1_555
C6 C5 1_555 1_555
H10 C6 1_555 1_555
N2 C6 1_555 1_555
C7 C6 1_555 1_555
H11 C7 1_555 1_555
H12 C7 1_555 1_555
C8 C7 1_555 1_555
H13 C8 1_555 1_555
H14 C8 1_555 1_555
C9 C8 1_555 1_555
H15 C9 1_555 1_555
H16 C9 1_555 1_555
C10 C5 1_555 1_555
H17 C10 1_555 1_555
H18 C10 1_555 1_555
C11 N2 1_555 1_555
H19 C11 1_555 1_555
C12 C11 1_555 1_555
C13 C12 1_555 1_555
H20 C13 1_555 1_555
C14 C13 1_555 1_555
H21 C14 1_555 1_555
C15 C14 1_555 1_555
C16 C15 1_555 1_555
H22 C16 1_555 1_555
C17 C12 1_555 1_555
H23 C17 1_555 1_555
C18 C15 1_555 1_555
H24 C18 1_555 1_555
N3 C18 1_555 1_555
C19 N3 1_555 1_555
H25 C19 1_555 1_555
C20 C19 1_555 1_555
H26 C20 1_555 1_555
N4 C20 1_555 1_555
C21 C20 1_555 1_555
H27 C21 1_555 1_555
H28 C21 1_555 1_555
C22 C21 1_555 1_555
H29 C22 1_555 1_555
H30 C22 1_555 1_555
C23 C22 1_555 1_555
H31 C23 1_555 1_555
H32 C23 1_555 1_555
C24 C19 1_555 1_555
H33 C24 1_555 1_555
H34 C24 1_555 1_555
C25 N4 1_555 1_555
H35 C25 1_555 1_555
C26 C25 1_555 1_555
C27 C26 1_555 1_555
H36 C27 1_555 1_555
C28 C27 1_555 1_555
H37 C28 1_555 1_555
C29 C28 1_555 1_555
C30 C29 1_555 1_555
H38 C30 1_555 1_555
C31 C26 1_555 1_555
H39 C31 1_555 1_555
C32 C29 1_555 1_555
H40 C32 1_555 1_555
N5 C32 1_555 1_555
C33 N5 1_555 1_555
H41 C33 1_555 1_555
C34 C33 1_555 1_555
H42 C34 1_555 1_555
N6 C34 1_555 1_555
C35 C34 1_555 1_555
H43 C35 1_555 1_555
H44 C35 1_555 1_555
C36 C35 1_555 1_555
H45 C36 1_555 1_555
H46 C36 1_555 1_555
C37 C36 1_555 1_555
H47 C37 1_555 1_555
H48 C37 1_555 1_555
C38 C33 1_555 1_555
H49 C38 1_555 1_555
H50 C38 1_555 1_555
C39 N6 1_555 1_555
H51 C39 1_555 1_555
C40 C39 1_555 1_555
C41 C40 1_555 1_555
H52 C41 1_555 1_555
C42 C41 1_555 1_555
H53 C42 1_555 1_555
C43 C42 1_555 1_555
C44 C43 1_555 1_555
H54 C44 1_555 1_555
C45 C40 1_555 1_555
H55 C45 1_555 1_555
C46 N1 1_555 1_555
H56 C46 1_555 1_555
C9 C10 1_555 1_555
C16 C17 1_555 1_555
C23 C24 1_555 1_555
C30 C31 1_555 1_555
C37 C38 1_555 1_555
C43 C46 1_555 1_555
C44 C45 1_555 1_555

#END
