
#######################################################################
#
#                 Cambridge Crystallographic Data Centre
#                                CCDC 
#
#######################################################################
#
# If this CIF has been generated from an entry in the Cambridge 
# Structural Database, then it will include bibliographic, chemical, 
# crystal, experimental, refinement or atomic coordinate data resulting 
# from the CCDC's data processing and validation procedures.
#
#######################################################################

data_XAGYOT
_chemical_formula_moiety         'C128 H128 O16,6(C3 H6 O1),5(H2 O1)'
_chemical_name_systematic        
'5,11,17,23,29,35,41,47-octakis(2-(4-Hydroxyphenyl)propan-2-yl)-49,50,51,52,53,54,55,56-octahydroxycalix(8)arene acetone solvate pentahydrate'
_symmetry_cell_setting           triclinic
_symmetry_space_group_name_H-M   'P -1'
_symmetry_Int_Tables_number      2
_space_group_name_Hall           '-P 1'
loop_
_symmetry_equiv_pos_site_id
_symmetry_equiv_pos_as_xyz
1 x,y,z
2 -x,-y,-z
_cell_length_a                   18.2322(13)
_cell_length_b                   19.7568(14)
_cell_length_c                   21.4408(15)
_cell_angle_alpha                110.9560(10)
_cell_angle_beta                 97.0350(10)
_cell_angle_gamma                107.2880(10)
_cell_volume                     6656.02
_chemical_melting_point          '292-293 deg.C.(dec.)'
_cell_formula_units_Z            2
loop_
_atom_site_label
_atom_site_type_symbol
_atom_site_fract_x
_atom_site_fract_y
_atom_site_fract_z
O1 O 0.3602(5) 0.4695(4) 0.4695(4)
O2 O 0.3163(5) 0.3443(4) 0.4956(4)
O3 O 0.3537(5) 0.2972(4) 0.5956(4)
O4 O 0.4596(6) 0.3682(4) 0.7254(4)
O5 O 0.5724(7) 0.5143(5) 0.7911(4)
O6 O 0.6104(5) 0.6466(4) 0.7670(4)
O7 O 0.5722(5) 0.6859(4) 0.6636(4)
O8 O 0.4650(5) 0.6096(4) 0.5411(4)
O9 O -0.1183(12) 0.4963(14) 0.2949(15)
O10 O -0.1075(12) 0.1944(8) 0.1176(8)
O11 O 0.3211(8) -0.1521(6) 0.6401(9)
O12 O 0.6820(10) 0.2940(8) 1.1161(8)
O13 O 0.9507(13) 1.1872(8) 1.0012(9)
O14 O 0.1486(10) 0.6963(8) 0.2148(9)
C1 C 0.3112(4) 0.4629(4) 0.4119(3)
C2 C 0.2301(4) 0.4202(4) 0.3943(4)
C3 C 0.1810(3) 0.4126(4) 0.3354(4)
C4 C 0.2128(4) 0.4478(5) 0.2940(3)
C5 C 0.2938(4) 0.4905(4) 0.3116(3)
C6 C 0.3430(3) 0.4981(4) 0.3706(3)
C7 C 0.2512(4) 0.2842(3) 0.4445(4)
C8 C 0.2478(4) 0.2078(4) 0.4228(4)
C9 C 0.1813(4) 0.1471(3) 0.3740(4)
C10 C 0.1182(3) 0.1627(3) 0.3469(4)
C11 C 0.1216(3) 0.2390(4) 0.3686(4)
C12 C 0.1881(4) 0.2998(3) 0.4174(4)
C13 C 0.3134(5) 0.2179(3) 0.5780(4)
C14 C 0.2927(5) 0.1932(4) 0.6287(3)
C15 C 0.2569(5) 0.1141(4) 0.6120(4)
C16 C 0.2420(5) 0.0597(3) 0.5447(4)
C17 C 0.2627(5) 0.0844(3) 0.4940(3)
C18 C 0.2985(5) 0.1635(4) 0.5107(3)
C19 C 0.4581(6) 0.3188(4) 0.7585(4)
C20 C 0.5276(5) 0.3263(4) 0.7998(4)
C21 C 0.5258(6) 0.2753(5) 0.8310(4)
C22 C 0.4545(7) 0.2168(4) 0.8209(4)
C23 C 0.3850(6) 0.2093(4) 0.7796(5)
C24 C 0.3868(5) 0.2602(5) 0.7484(4)
C25 C 0.5982(5) 0.5264(4) 0.8592(2)
C26 C 0.6026(5) 0.5939(3) 0.9132(3)
C27 C 0.6231(4) 0.6029(3) 0.9811(3)
C28 C 0.6391(4) 0.5445(4) 0.9950(3)
C29 C 0.6347(5) 0.4770(3) 0.9410(4)
C30 C 0.6143(5) 0.4680(3) 0.8731(3)
C31 C 0.6625(4) 0.7105(3) 0.8252(3)
C32 C 0.7243(4) 0.7672(4) 0.8190(3)
C33 C 0.7777(4) 0.8295(4) 0.8779(3)
C34 C 0.7694(4) 0.8350(4) 0.9430(3)
C35 C 0.7076(4) 0.7783(4) 0.9491(2)
C36 C 0.6542(3) 0.7161(4) 0.8902(3)
C37 C 0.6022(4) 0.7661(3) 0.6875(4)
C38 C 0.5550(3) 0.8046(3) 0.6720(3)
C39 C 0.5859(4) 0.8853(4) 0.6956(4)
C40 C 0.6641(4) 0.9274(3) 0.7348(4)
C41 C 0.7114(3) 0.8888(4) 0.7503(3)
C42 C 0.6804(4) 0.8082(4) 0.7267(4)
C43 C 0.4561(4) 0.6586(3) 0.5104(3)
C44 C 0.4456(4) 0.6354(3) 0.4395(3)
C45 C 0.4411(4) 0.6870(4) 0.4103(2)
C46 C 0.4471(4) 0.7618(3) 0.4519(3)
C47 C 0.4575(4) 0.7851(3) 0.5228(3)
C48 C 0.4620(4) 0.7335(4) 0.5520(2)
C49 C 0.1914(7) 0.3824(6) 0.4393(6)
C50 C 0.3161(7) 0.1900(6) 0.4534(6)
C51 C 0.3095(10) 0.2497(7) 0.7038(7)
C52 C 0.6062(9) 0.3914(6) 0.8143(6)
C53 C 0.5841(6) 0.6583(6) 0.8981(5)
C54 C 0.7310(7) 0.7666(7) 0.7486(6)
C55 C 0.4690(7) 0.7603(7) 0.6289(5)
C56 C 0.4300(7) 0.5500(6) 0.3923(6)
C57 C 0.1563(9) 0.4331(7) 0.2248(8)
C58 C 0.1967(11) 0.4900(9) 0.1940(8)
C59 C 0.1399(11) 0.3493(8) 0.1731(8)
C60 C 0.0395(7) 0.0937(7) 0.2974(6)
C61 C -0.0110(8) 0.0699(9) 0.3440(8)
C62 C 0.0578(9) 0.0219(7) 0.2538(9)
C63 C 0.2070(7) -0.0297(7) 0.5234(7)
C64 C 0.1788(10) -0.0484(9) 0.5825(9)
C65 C 0.2764(8) -0.0579(7) 0.5120(6)
C66 C 0.4512(13) 0.1584(7) 0.8545(8)
C67 C 0.3991(13) 0.1742(9) 0.9082(8)
C68 C 0.5319(13) 0.1669(9) 0.8923(8)
C69 C 0.6571(7) 0.5558(7) 1.0715(6)
C70 C 0.7328(8) 0.6315(7) 1.1131(7)
C71 C 0.5881(9) 0.5709(8) 1.1021(6)
C72 C 0.8254(9) 0.9042(9) 1.0081(7)
C73 C 0.9066(9) 0.9449(10) 0.9991(8)
C74 C 0.7835(11) 0.9629(10) 1.0258(9)
C75 C 0.6983(8) 1.0173(7) 0.7550(6)
C76 C 0.7238(11) 1.0311(8) 0.6940(7)
C77 C 0.6339(10) 1.0508(8) 0.7702(13)
C78 C 0.4451(7) 0.8189(6) 0.4172(6)
C79 C 0.5195(8) 0.8369(8) 0.3899(7)
C80 C 0.4466(8) 0.8979(6) 0.4689(7)
C81 C 0.0798(6) 0.4485(7) 0.2428(7)
C82 C 0.0032(7) 0.3959(6) 0.2063(6)
C83 C -0.0618(6) 0.4134(8) 0.2241(8)
C84 C -0.0502(7) 0.4836(10) 0.2784(9)
C85 C 0.0264(9) 0.5362(8) 0.3149(8)
C86 C 0.0914(6) 0.5186(6) 0.2971(7)
C87 C -0.0027(6) 0.1178(5) 0.2488(4)
C88 C 0.0311(6) 0.1297(7) 0.1971(5)
C89 C -0.0042(9) 0.1557(7) 0.1539(4)
C90 C -0.0734(10) 0.1699(6) 0.1623(6)
C91 C -0.1072(7) 0.1580(6) 0.2140(7)
C92 C -0.0719(6) 0.1320(6) 0.2573(5)
C93 C 0.1318(8) -0.0594(11) 0.4740(7)
C94 C 0.1246(9) -0.1129(12) 0.4082(8)
C95 C 0.0544(11) -0.1430(11) 0.3570(7)
C96 C -0.0086(8) -0.1197(11) 0.3717(8)
C97 C -0.0014(8) -0.0662(10) 0.4376(9)
C98 C 0.0688(9) -0.0361(9) 0.4887(7)
O15 O -0.0801(11) -0.1473(12) 0.3239(10)
C99 C 0.4101(7) 0.0728(4) 0.7965(5)
C100 C 0.4393(5) 0.0547(4) 0.7382(4)
C101 C 0.4087(6) -0.0210(5) 0.6870(4)
C102 C 0.3488(7) -0.0785(4) 0.6940(6)
C103 C 0.3196(10) -0.0603(5) 0.7523(9)
C104 C 0.3502(10) 0.0153(6) 0.8036(7)
C105 C 0.6675(5) 0.4847(4) 1.0808(5)
C106 C 0.7386(4) 0.4892(5) 1.1171(6)
C107 C 0.7429(6) 0.4255(7) 1.1288(6)
C108 C 0.6762(7) 0.3573(6) 1.1041(6)
C109 C 0.6051(6) 0.3529(4) 1.0678(5)
C110 C 0.6007(4) 0.4166(5) 1.0561(4)
C111 C 0.8275(9) 0.8979(8) 1.0780(6)
C112 C 0.8632(9) 0.8454(9) 1.0807(7)
C113 C 0.8698(10) 0.8284(9) 1.1382(9)
C114 C 0.8409(11) 0.8638(10) 1.1930(6)
C115 C 0.8052(9) 0.9162(9) 1.1903(6)
C116 C 0.7985(9) 0.9333(8) 1.1328(7)
O16 O 0.8472(10) 0.8481(10) 1.2504(9)
C117 C 0.7681(5) 1.0609(5) 0.8200(4)
C118 C 0.8421(6) 1.1072(6) 0.8197(4)
C119 C 0.9024(5) 1.1495(6) 0.8805(6)
C120 C 0.8887(8) 1.1454(7) 0.9416(5)
C121 C 0.8147(10) 1.0991(7) 0.9420(4)
C122 C 0.7544(7) 1.0568(7) 0.8811(5)
C123 C 0.3667(5) 0.7821(5) 0.3605(5)
C124 C 0.3660(7) 0.7816(6) 0.2954(5)
C125 C 0.2942(9) 0.7526(7) 0.2464(4)
C126 C 0.2231(7) 0.7240(6) 0.2625(6)
C127 C 0.2238(5) 0.7245(6) 0.3276(7)
C128 C 0.2956(6) 0.7535(6) 0.3766(5)
H1 H 0.2220 0.4136 0.4882
H2 H 0.1368 0.3825 0.4358
H3 H 0.3254 0.1487 0.4164
H4 H 0.3651 0.2373 0.4725
H5 H 0.3115 0.3010 0.7055
H6 H 0.2652 0.2303 0.7230
H7 H 0.6102 0.3999 0.7719
H8 H 0.6505 0.3755 0.8268
H9 H 0.5410 0.6336 0.8551
H10 H 0.5643 0.6870 0.9361
H11 H 0.7129 0.7120 0.7138
H12 H 0.7873 0.7930 0.7509
H13 H 0.4456 0.7144 0.6387
H14 H 0.4382 0.7945 0.6427
H15 H 0.4487 0.5481 0.3505
H16 H 0.4612 0.5296 0.4169
H17 H 0.2065 0.5436 0.2258
H18 H 0.1620 0.4774 0.1495
H19 H 0.2474 0.4851 0.1871
H20 H 0.1148 0.3126 0.1921
H21 H 0.1901 0.3442 0.1649
H22 H 0.1043 0.3377 0.1294
H23 H -0.0246 0.1138 0.3717
H24 H 0.0193 0.0554 0.3748
H25 H -0.0599 0.0253 0.3153
H26 H 0.0081 -0.0205 0.2236
H27 H 0.0843 0.0049 0.2846
H28 H 0.0927 0.0361 0.2255
H29 H 0.2206 -0.0165 0.6257
H30 H 0.1672 -0.1037 0.5715
H31 H 0.1306 -0.0369 0.5878
H32 H 0.3167 -0.0349 0.5560
H33 H 0.2999 -0.0419 0.4784
H34 H 0.2567 -0.1149 0.4945
H35 H 0.4259 0.2270 0.9448
H36 H 0.3922 0.1362 0.9286
H37 H 0.3469 0.1691 0.8845
H38 H 0.5582 0.2198 0.9289
H39 H 0.5648 0.1574 0.8596
H40 H 0.5248 0.1290 0.9127
H41 H 0.7453 0.6400 1.1617
H42 H 0.7227 0.6763 1.1096
H43 H 0.7778 0.6256 1.0939
H44 H 0.5391 0.5249 1.0774
H45 H 0.5808 0.6161 1.0971
H46 H 0.6005 0.5813 1.1511
H47 H 0.9004 0.9735 0.9710
H48 H 0.9287 0.9058 0.9761
H49 H 0.9427 0.9814 1.0445
H50 H 0.7753 0.9781 0.9875
H51 H 0.8166 1.0092 1.0678
H52 H 0.7321 0.9389 1.0334
H53 H 0.7452 1.0872 0.7061
H54 H 0.6778 1.0055 0.6538
H55 H 0.7648 1.0094 0.6828
H56 H 0.6556 1.1069 0.7827
H57 H 0.6157 1.0415 0.8086
H58 H 0.5891 1.0253 0.7290
H59 H 0.5186 0.8726 0.3681
H60 H 0.5202 0.7883 0.3559
H61 H 0.5672 0.8611 0.4284
H62 H 0.4459 0.9319 0.4451
H63 H 0.4950 0.9226 0.5068
H64 H 0.3999 0.8891 0.4875
H65 H 0.1252 0.3827 0.3222
H66 H 0.3160 0.5149 0.2826
H67 H 0.1786 0.0939 0.3586
H68 H 0.0780 0.2497 0.3498
H69 H 0.2432 0.0968 0.6472
H70 H 0.2520 0.0465 0.4475
H71 H 0.5741 0.2805 0.8595
H72 H 0.3362 0.1682 0.7720
H73 H 0.6253 0.6493 1.0187
H74 H 0.6465 0.4371 0.9514
H75 H 0.8208 0.8685 0.8735
H76 H 0.7015 0.7828 0.9939
H77 H 0.5534 0.9122 0.6858
H78 H 0.7657 0.9178 0.7771
H79 H 0.4339 0.6709 0.3613
H80 H 0.4615 0.8367 0.5514
H81 H -0.0033 0.3475 0.1683
H82 H -0.1141 0.3763 0.1969
H83 H 0.0330 0.5838 0.3517
H84 H 0.1439 0.5549 0.3231
H85 H 0.0794 0.1197 0.1921
H86 H 0.0191 0.1630 0.1187
H87 H -0.1551 0.1665 0.2204
H88 H -0.0948 0.1232 0.2938
H89 H 0.1663 -0.1322 0.3961
H90 H 0.0466 -0.1820 0.3110
H91 H -0.0434 -0.0487 0.4490
H92 H 0.0763 0.0011 0.5341
H93 H 0.4817 0.0936 0.7337
H94 H 0.4290 -0.0340 0.6464
H95 H 0.2745 -0.0995 0.7545
H96 H 0.3272 0.0280 0.8418
H97 H 0.7841 0.5349 1.1339
H98 H 0.7904 0.4266 1.1531
H99 H 0.5570 0.3058 1.0502
H100 H 0.5507 0.4141 1.0311
H101 H 0.8841 0.8196 1.0445
H102 H 0.8940 0.7928 1.1429
H103 H 0.7857 0.9435 1.2276
H104 H 0.7758 0.9703 1.1292
H105 H 0.8499 1.1119 0.7777
H106 H 0.9522 1.1834 0.8803
H107 H 0.8059 1.0951 0.9840
H108 H 0.7036 1.0236 0.8814
H109 H 0.4145 0.8004 0.2839
H110 H 0.2929 0.7509 0.2013
H111 H 0.1747 0.7035 0.3389
H112 H 0.2963 0.7530 0.4215
O17 O -0.0388(11) -0.2097(12) 0.2633(10)
O18 O 0.9550(12) 0.6530(13) 1.1444(13)
C129 C 0.9600(12) 0.6158(11) 1.1803(12)
C130 C 0.9390(20) 0.6304(19) 1.2461(17)
C131 C 0.9940(20) 0.5550(20) 1.1511(16)
O19 O 0.5499(16) 0.1685(14) 1.0905(10)
C132 C 0.5051(15) 0.1743(13) 1.1314(12)
C133 C 0.5423(18) 0.2483(17) 1.1939(16)
C134 C 0.4228(17) 0.1245(17) 1.1212(17)
O20 O -0.0782(13) 0.6408(14) 0.4098(16)
C135 C -0.0941(17) 0.7006(13) 0.4200(15)
C136 C -0.0437(19) 0.7680(20) 0.4831(16)
C137 C -0.1550(20) 0.7050(20) 0.3720(16)
O21 O 0.1512(16) 0.6645(18) 0.0847(15)
C138 C 0.1430(30) 0.6590(20) 0.0241(17)
C139 C 0.0660(30) 0.6520(20) -0.0110(20)
C140 C 0.2150(30) 0.7270(30) 0.0450(40)
O22 O 0.5885(16) 0.4919(16) 1.3387(13)
C141 C 0.6356(14) 0.4652(15) 1.3114(13)
C142 C 0.6560(20) 0.4000(20) 1.3148(18)
C143 C 0.6640(20) 0.5032(19) 1.2670(17)
O23 O -0.2420(20) 0.2853(19) 0.3088(19)
O24 O 0.7670(20) 0.2437(19) 1.1766(19)
O25 O -0.1620(20) 0.2580(20) 0.3841(19)
C144? C 0.1458(9) -0.0789(10) 0.4426(7)
C145? C 0.1495(9) -0.1456(11) 0.3933(9)
C146? C 0.0890(11) -0.1901(9) 0.3327(8)
C147? C 0.0247(9) -0.1679(10) 0.3215(8)
C148? C 0.0210(9) -0.1012(10) 0.3709(10)
C149? C 0.0816(11) -0.0568(8) 0.4314(9)
C150? C 0.8490(12) 0.8624(10) 1.0551(8)
C151? C 0.8742(11) 0.8001(10) 1.0312(7)
C152? C 0.8951(11) 0.7680(9) 1.0754(9)
C153? C 0.8909(13) 0.7983(11) 1.1436(8)
C154? C 0.8657(13) 0.8606(12) 1.1676(7)
C155? C 0.8447(12) 0.8927(9) 1.1233(9)
O26? O 0.9122(12) 0.7708(13) 1.1907(11)
O27? O -0.1525(12) 0.3730(20) 0.4280(20)
C156? C -0.1720(20) 0.3680(20) 0.4953(12)
C157? C -0.2540(20) 0.3770(20) 0.4930(20)
C158? C -0.1602(18) 0.3010(20) 0.5140(20)
C159? C -0.0610(30) 0.4079(17) 0.4370(20)
C160? C -0.0600(20) 0.3447(19) 0.3680(20)
C161? C -0.0592(18) 0.4888(18) 0.4399(19)
H113? H 0.1951 -0.1581 0.3986
H114? H 0.0907 -0.2359 0.2980
H115? H 0.0359 -0.0701 0.3470
H116? H 0.0781 -0.0103 0.4645
H117? H 0.8789 0.7804 0.9845
H118? H 0.9128 0.7253 1.0590
H119? H 0.8617 0.8810 1.2144
H120? H 0.8278 0.9361 1.1399
loop_
_geom_bond_atom_site_label_1
_geom_bond_atom_site_label_2
_geom_bond_site_symmetry_1
_geom_bond_site_symmetry_2
O1 C1 1_555 1_555
O2 C7 1_555 1_555
O3 C13 1_555 1_555
O4 C19 1_555 1_555
O5 C25 1_555 1_555
O6 C31 1_555 1_555
O7 C37 1_555 1_555
O8 C43 1_555 1_555
O9 C84 1_555 1_555
O10 C90 1_555 1_555
O11 C102 1_555 1_555
O12 C108 1_555 1_555
O13 C120 1_555 1_555
O14 C126 1_555 1_555
C1 C2 1_555 1_555
C2 C3 1_555 1_555
C3 C4 1_555 1_555
C4 C5 1_555 1_555
C5 C6 1_555 1_555
C6 C1 1_555 1_555
C7 C8 1_555 1_555
C8 C9 1_555 1_555
C9 C10 1_555 1_555
C10 C11 1_555 1_555
C11 C12 1_555 1_555
C12 C7 1_555 1_555
C13 C14 1_555 1_555
C14 C15 1_555 1_555
C15 C16 1_555 1_555
C16 C17 1_555 1_555
C17 C18 1_555 1_555
C18 C13 1_555 1_555
C19 C20 1_555 1_555
C20 C21 1_555 1_555
C21 C22 1_555 1_555
C22 C23 1_555 1_555
C23 C24 1_555 1_555
C24 C19 1_555 1_555
C25 C26 1_555 1_555
C26 C27 1_555 1_555
C27 C28 1_555 1_555
C28 C29 1_555 1_555
C29 C30 1_555 1_555
C30 C25 1_555 1_555
C31 C32 1_555 1_555
C32 C33 1_555 1_555
C33 C34 1_555 1_555
C34 C35 1_555 1_555
C35 C36 1_555 1_555
C36 C31 1_555 1_555
C37 C38 1_555 1_555
C38 C39 1_555 1_555
C39 C40 1_555 1_555
C40 C41 1_555 1_555
C41 C42 1_555 1_555
C42 C37 1_555 1_555
C43 C44 1_555 1_555
C44 C45 1_555 1_555
C45 C46 1_555 1_555
C46 C47 1_555 1_555
C47 C48 1_555 1_555
C48 C43 1_555 1_555
C49 C2 1_555 1_555
C50 C8 1_555 1_555
C51 C14 1_555 1_555
C52 C20 1_555 1_555
C53 C26 1_555 1_555
C54 C32 1_555 1_555
C55 C38 1_555 1_555
C56 C6 1_555 1_555
C57 C4 1_555 1_555
C58 C57 1_555 1_555
C59 C57 1_555 1_555
C60 C10 1_555 1_555
C61 C60 1_555 1_555
C62 C60 1_555 1_555
C63 C16 1_555 1_555
C64 C63 1_555 1_555
C65 C63 1_555 1_555
C66 C22 1_555 1_555
C67 C66 1_555 1_555
C68 C66 1_555 1_555
C69 C28 1_555 1_555
C70 C69 1_555 1_555
C71 C69 1_555 1_555
C72 C34 1_555 1_555
C73 C72 1_555 1_555
C74 C72 1_555 1_555
C75 C40 1_555 1_555
C76 C75 1_555 1_555
C77 C75 1_555 1_555
C78 C46 1_555 1_555
C79 C78 1_555 1_555
C80 C78 1_555 1_555
C81 C57 1_555 1_555
C82 C81 1_555 1_555
C83 C82 1_555 1_555
C84 C83 1_555 1_555
C85 C84 1_555 1_555
C86 C81 1_555 1_555
C87 C60 1_555 1_555
C88 C87 1_555 1_555
C89 C88 1_555 1_555
C90 C89 1_555 1_555
C91 C90 1_555 1_555
C92 C87 1_555 1_555
C93 C63 1_555 1_555
C94 C93 1_555 1_555
C95 C94 1_555 1_555
C96 C95 1_555 1_555
C97 C96 1_555 1_555
C98 C93 1_555 1_555
O15 C96 1_555 1_555
C99 C66 1_555 1_555
C100 C99 1_555 1_555
C101 C100 1_555 1_555
C102 C101 1_555 1_555
C103 C102 1_555 1_555
C104 C99 1_555 1_555
C105 C69 1_555 1_555
C106 C105 1_555 1_555
C107 C106 1_555 1_555
C108 C107 1_555 1_555
C109 C108 1_555 1_555
C110 C105 1_555 1_555
C111 C72 1_555 1_555
C112 C111 1_555 1_555
C113 C112 1_555 1_555
C114 C113 1_555 1_555
C115 C114 1_555 1_555
C116 C111 1_555 1_555
O16 C114 1_555 1_555
C117 C75 1_555 1_555
C118 C117 1_555 1_555
C119 C118 1_555 1_555
C120 C119 1_555 1_555
C121 C120 1_555 1_555
C122 C117 1_555 1_555
C123 C78 1_555 1_555
C124 C123 1_555 1_555
C125 C124 1_555 1_555
C126 C125 1_555 1_555
C127 C126 1_555 1_555
C128 C123 1_555 1_555
H1 C49 1_555 1_555
H2 C49 1_555 1_555
H3 C50 1_555 1_555
H4 C50 1_555 1_555
H5 C51 1_555 1_555
H6 C51 1_555 1_555
H7 C52 1_555 1_555
H8 C52 1_555 1_555
H9 C53 1_555 1_555
H10 C53 1_555 1_555
H11 C54 1_555 1_555
H12 C54 1_555 1_555
H13 C55 1_555 1_555
H14 C55 1_555 1_555
H15 C56 1_555 1_555
H16 C56 1_555 1_555
H17 C58 1_555 1_555
H18 C58 1_555 1_555
H19 C58 1_555 1_555
H20 C59 1_555 1_555
H21 C59 1_555 1_555
H22 C59 1_555 1_555
H23 C61 1_555 1_555
H24 C61 1_555 1_555
H25 C61 1_555 1_555
H26 C62 1_555 1_555
H27 C62 1_555 1_555
H28 C62 1_555 1_555
H29 C64 1_555 1_555
H30 C64 1_555 1_555
H31 C64 1_555 1_555
H32 C65 1_555 1_555
H33 C65 1_555 1_555
H34 C65 1_555 1_555
H35 C67 1_555 1_555
H36 C67 1_555 1_555
H37 C67 1_555 1_555
H38 C68 1_555 1_555
H39 C68 1_555 1_555
H40 C68 1_555 1_555
H41 C70 1_555 1_555
H42 C70 1_555 1_555
H43 C70 1_555 1_555
H44 C71 1_555 1_555
H45 C71 1_555 1_555
H46 C71 1_555 1_555
H47 C73 1_555 1_555
H48 C73 1_555 1_555
H49 C73 1_555 1_555
H50 C74 1_555 1_555
H51 C74 1_555 1_555
H52 C74 1_555 1_555
H53 C76 1_555 1_555
H54 C76 1_555 1_555
H55 C76 1_555 1_555
H56 C77 1_555 1_555
H57 C77 1_555 1_555
H58 C77 1_555 1_555
H59 C79 1_555 1_555
H60 C79 1_555 1_555
H61 C79 1_555 1_555
H62 C80 1_555 1_555
H63 C80 1_555 1_555
H64 C80 1_555 1_555
H65 C3 1_555 1_555
H66 C5 1_555 1_555
H67 C9 1_555 1_555
H68 C11 1_555 1_555
H69 C15 1_555 1_555
H70 C17 1_555 1_555
H71 C21 1_555 1_555
H72 C23 1_555 1_555
H73 C27 1_555 1_555
H74 C29 1_555 1_555
H75 C33 1_555 1_555
H76 C35 1_555 1_555
H77 C39 1_555 1_555
H78 C41 1_555 1_555
H79 C45 1_555 1_555
H80 C47 1_555 1_555
H81 C82 1_555 1_555
H82 C83 1_555 1_555
H83 C85 1_555 1_555
H84 C86 1_555 1_555
H85 C88 1_555 1_555
H86 C89 1_555 1_555
H87 C91 1_555 1_555
H88 C92 1_555 1_555
H89 C94 1_555 1_555
H90 C95 1_555 1_555
H91 C97 1_555 1_555
H92 C98 1_555 1_555
H93 C100 1_555 1_555
H94 C101 1_555 1_555
H95 C103 1_555 1_555
H96 C104 1_555 1_555
H97 C106 1_555 1_555
H98 C107 1_555 1_555
H99 C109 1_555 1_555
H100 C110 1_555 1_555
H101 C112 1_555 1_555
H102 C113 1_555 1_555
H103 C115 1_555 1_555
H104 C116 1_555 1_555
H105 C118 1_555 1_555
H106 C119 1_555 1_555
H107 C121 1_555 1_555
H108 C122 1_555 1_555
H109 C124 1_555 1_555
H110 C125 1_555 1_555
H111 C127 1_555 1_555
H112 C128 1_555 1_555
O18 C129 1_555 1_555
C129 C130 1_555 1_555
C131 C129 1_555 1_555
O19 C132 1_555 1_555
C132 C133 1_555 1_555
C134 C132 1_555 1_555
O20 C135 1_555 1_555
C135 C136 1_555 1_555
C137 C135 1_555 1_555
O21 C138 1_555 1_555
C138 C139 1_555 1_555
C140 C138 1_555 1_555
O22 C141 1_555 1_555
C141 C142 1_555 1_555
C143 C141 1_555 1_555
C12 C49 1_555 1_555
C18 C50 1_555 1_555
C24 C51 1_555 1_555
C30 C52 1_555 1_555
C36 C53 1_555 1_555
C42 C54 1_555 1_555
C44 C56 1_555 1_555
C48 C55 1_555 1_555
C85 C86 1_555 1_555
C91 C92 1_555 1_555
C97 C98 1_555 1_555
C103 C104 1_555 1_555
C109 C110 1_555 1_555
C115 C116 1_555 1_555
C121 C122 1_555 1_555
C127 C128 1_555 1_555

#END
