
#######################################################################
#
#                 Cambridge Crystallographic Data Centre
#                                CCDC 
#
#######################################################################
#
# If this CIF has been generated from an entry in the Cambridge 
# Structural Database, then it will include bibliographic, chemical, 
# crystal, experimental, refinement or atomic coordinate data resulting 
# from the CCDC's data processing and validation procedures.
#
#######################################################################

data_XAGZUA
_chemical_formula_moiety         'C18 H19 N3 O1 S1'
_chemical_name_systematic        
'3,5-bis(3,4-Dimethylphenyl)-1,2,4,6-thiatriazine 1-oxide'
_symmetry_cell_setting           monoclinic
_symmetry_space_group_name_H-M   'P 21/n'
_symmetry_Int_Tables_number      14
_space_group_name_Hall           '-P 2yn'
loop_
_symmetry_equiv_pos_site_id
_symmetry_equiv_pos_as_xyz
1 x,y,z
2 1/2-x,1/2+y,1/2-z
3 -x,-y,-z
4 1/2+x,1/2-y,1/2+z
_cell_length_a                   9.0127(3)
_cell_length_b                   17.0053(5)
_cell_length_c                   11.0069(2)
_cell_angle_alpha                90
_cell_angle_beta                 92.3790(10)
_cell_angle_gamma                90
_cell_volume                     1685.5
_exptl_crystal_colour            colorless
_exptl_crystal_description       column
_chemical_melting_point          '194-195 deg.C'
_cell_formula_units_Z            4
loop_
_atom_site_label
_atom_site_type_symbol
_atom_site_fract_x
_atom_site_fract_y
_atom_site_fract_z
S1 S 0.97133(8) 0.01478(4) 0.26903(5)
O1 O 1.11200(19) 0.04026(10) 0.21466(15)
N1 N 0.8335(2) 0.06248(11) 0.19067(18)
N2 N 0.9436(2) -0.08002(11) 0.22722(17)
N3 N 0.8453(2) -0.03454(11) 0.03823(19)
H1 H 0.845(3) -0.0436(14) -0.035(2)
C1 C 0.8001(3) 0.03762(13) 0.0811(2)
C2 C 0.8965(3) -0.09333(13) 0.1154(2)
H2 H 0.763(3) 0.1894(15) 0.077(2)
C3 C 0.7038(3) 0.08547(13) -0.0023(2)
C4 C 0.7007(3) 0.16701(15) 0.0131(3)
C5 C 0.6122(3) 0.21612(15) -0.0612(3)
C6 C 0.5219(3) 0.18165(16) -0.1537(2)
C7 C 0.5230(3) 0.10004(17) -0.1679(3)
H3 H 0.469(3) 0.0761(17) -0.232(2)
C8 C 0.6131(3) 0.05203(16) -0.0942(2)
H4 H 0.613(3) -0.0055(17) -0.108(3)
C9 C 0.6161(5) 0.30420(19) -0.0411(5)
H5 H 0.520(5) 0.325(2) -0.038(4)
H6 H 0.647(5) 0.331(3) -0.121(4)
H7 H 0.687(6) 0.322(3) 0.011(4)
C10 C 0.4240(4) 0.2317(3) -0.2381(4)
H8 H 0.353(5) 0.264(2) -0.199(3)
H9 H 0.487(5) 0.268(2) -0.279(4)
H10 H 0.370(4) 0.200(2) -0.297(4)
C11 C 0.8859(2) -0.17538(13) 0.06937(19)
C12 C 0.7929(3) -0.19647(15) -0.0289(2)
H11 H 0.742(3) -0.1563(16) -0.075(2)
C13 C 0.7753(3) -0.27498(15) -0.0598(2)
H12 H 0.714(3) -0.2903(15) -0.129(2)
C14 C 0.8478(3) -0.33469(14) 0.0063(2)
C15 C 0.9430(3) -0.31425(14) 0.1047(2)
C16 C 0.9618(3) -0.23482(14) 0.1338(2)
H13 H 1.023(3) -0.2221(17) 0.208(3)
C17 C 1.0223(5) -0.3764(2) 0.1822(4)
H14 H 1.085(5) -0.408(2) 0.132(4)
H15 H 1.083(4) -0.350(2) 0.247(3)
H16 H 0.956(5) -0.416(3) 0.209(4)
C18 C 0.8188(5) -0.42005(18) -0.0281(4)
H17 H 0.755(4) -0.422(2) -0.102(4)
H18 H 0.904(5) -0.445(2) -0.059(4)
H19 H 0.775(5) -0.451(2) 0.027(4)
loop_
_geom_bond_atom_site_label_1
_geom_bond_atom_site_label_2
_geom_bond_site_symmetry_1
_geom_bond_site_symmetry_2
S1 O1 1_555 1_555
N1 S1 1_555 1_555
N2 S1 1_555 1_555
N3 H1 1_555 1_555
C1 N1 1_555 1_555
C2 N2 1_555 1_555
H2 C4 1_555 1_555
C3 C1 1_555 1_555
C4 C3 1_555 1_555
C5 C4 1_555 1_555
C6 C5 1_555 1_555
C7 C6 1_555 1_555
H3 C7 1_555 1_555
C8 C3 1_555 1_555
H4 C8 1_555 1_555
C9 C5 1_555 1_555
H5 C9 1_555 1_555
H6 C9 1_555 1_555
H7 C9 1_555 1_555
C10 C6 1_555 1_555
H8 C10 1_555 1_555
H9 C10 1_555 1_555
H10 C10 1_555 1_555
C11 C2 1_555 1_555
C12 C11 1_555 1_555
H11 C12 1_555 1_555
C13 C12 1_555 1_555
H12 C13 1_555 1_555
C14 C13 1_555 1_555
C15 C14 1_555 1_555
C16 C11 1_555 1_555
H13 C16 1_555 1_555
C17 C15 1_555 1_555
H14 C17 1_555 1_555
H15 C17 1_555 1_555
H16 C17 1_555 1_555
C18 C14 1_555 1_555
H17 C18 1_555 1_555
H18 C18 1_555 1_555
H19 C18 1_555 1_555
N3 C1 1_555 1_555
N3 C2 1_555 1_555
C7 C8 1_555 1_555
C15 C16 1_555 1_555

#END
