
#######################################################################
#
#                 Cambridge Crystallographic Data Centre
#                                CCDC 
#
#######################################################################
#
# If this CIF has been generated from an entry in the Cambridge 
# Structural Database, then it will include bibliographic, chemical, 
# crystal, experimental, refinement or atomic coordinate data resulting 
# from the CCDC's data processing and validation procedures.
#
#######################################################################

data_XAHBAJ
_chemical_formula_moiety         'C14 H12 N4 O1 S1'
_chemical_name_systematic        
'1-Amino-3,5-diphenyl-1,2,4,6-thiatriazine 1-oxide'
_symmetry_cell_setting           monoclinic
_symmetry_space_group_name_H-M   'P 21/c'
_symmetry_Int_Tables_number      14
_space_group_name_Hall           '-P 2ybc'
loop_
_symmetry_equiv_pos_site_id
_symmetry_equiv_pos_as_xyz
1 x,y,z
2 -x,1/2+y,1/2-z
3 -x,-y,-z
4 x,1/2-y,1/2+z
_cell_length_a                   9.897(5)
_cell_length_b                   4.708(4)
_cell_length_c                   28.44(4)
_cell_angle_alpha                90
_cell_angle_beta                 90.72(6)
_cell_angle_gamma                90
_cell_volume                     1325.06
_chemical_melting_point          '242-243 deg.C'
_cell_formula_units_Z            4
loop_
_atom_site_label
_atom_site_type_symbol
_atom_site_fract_x
_atom_site_fract_y
_atom_site_fract_z
S1 S 0.41250(19) 0.1035(4) 0.43748(7)
C1 C 0.7567(7) 0.4346(18) 0.4046(3)
C2 C 0.8441(9) 0.320(2) 0.4380(3)
C3 C 0.9791(9) 0.400(3) 0.4391(4)
C4 C 1.0281(9) 0.583(3) 0.4071(4)
C5 C 0.9423(9) 0.703(3) 0.3741(4)
C6 C 0.8072(8) 0.622(2) 0.3723(3)
C7 C 0.6128(7) 0.3504(16) 0.4020(3)
C8 C 0.4108(7) 0.3629(16) 0.3611(3)
C9 C 0.3376(6) 0.4550(14) 0.3176(2)
C10 C 0.3926(8) 0.6563(19) 0.2876(3)
C11 C 0.3276(8) 0.733(2) 0.2462(3)
C12 C 0.2073(8) 0.606(2) 0.2342(3)
C13 C 0.1520(9) 0.408(2) 0.2630(3)
C14 C 0.2158(8) 0.3282(17) 0.3049(3)
N1 N 0.5412(5) 0.4381(14) 0.3647(2)
N2 N 0.5680(6) 0.1957(14) 0.4378(2)
N3 N 0.3396(6) 0.2158(14) 0.3915(2)
N4 N 0.3377(8) 0.2416(18) 0.4805(3)
O1 O 0.4008(6) -0.1987(10) 0.4434(2)
H1 H 0.812(8) 0.226(19) 0.468(3)
H2 H 1.037(10) 0.33(2) 0.468(4)
H3 H 1.121(13) 0.64(3) 0.409(4)
H4 H 0.974(8) 0.82(2) 0.344(3)
H5 H 0.749(7) 0.728(18) 0.348(3)
H6 H 0.476(9) 0.74(2) 0.294(3)
H7 H 0.375(11) 0.85(3) 0.221(4)
H8 H 0.177(12) 0.62(3) 0.198(5)
H9 H 0.074(8) 0.32(2) 0.253(3)
H10 H 0.169(9) 0.21(2) 0.330(3)
H11 H 0.327(7) 0.354(15) 0.476(2)
H12 H 0.347(7) 0.168(17) 0.499(2)
loop_
_geom_bond_atom_site_label_1
_geom_bond_atom_site_label_2
_geom_bond_site_symmetry_1
_geom_bond_site_symmetry_2
S1 N2 1_555 1_555
C1 C2 1_555 1_555
C2 C3 1_555 1_555
C3 C4 1_555 1_555
C4 C5 1_555 1_555
C5 C6 1_555 1_555
C6 C1 1_555 1_555
C7 C1 1_555 1_555
C8 C9 1_555 1_555
C9 C10 1_555 1_555
C10 C11 1_555 1_555
C11 C12 1_555 1_555
C12 C13 1_555 1_555
C13 C14 1_555 1_555
C14 C9 1_555 1_555
N1 C7 1_555 1_555
N2 C7 1_555 1_555
N3 S1 1_555 1_555
N4 S1 1_555 1_555
O1 S1 1_555 1_555
H1 C2 1_555 1_555
H2 C3 1_555 1_555
H3 C4 1_555 1_555
H4 C5 1_555 1_555
H5 C6 1_555 1_555
H6 C10 1_555 1_555
H7 C11 1_555 1_555
H8 C12 1_555 1_555
H9 C13 1_555 1_555
H10 C14 1_555 1_555
H11 N4 1_555 1_555
H12 N4 1_555 1_555
C8 N1 1_555 1_555
C8 N3 1_555 1_555

#END
