
#######################################################################
#
#                 Cambridge Crystallographic Data Centre
#                                CCDC 
#
#######################################################################
#
# If this CIF has been generated from an entry in the Cambridge 
# Structural Database, then it will include bibliographic, chemical, 
# crystal, experimental, refinement or atomic coordinate data resulting 
# from the CCDC's data processing and validation procedures.
#
#######################################################################

data_XAHQUV
_chemical_formula_moiety         'C19 H17 N3 O3'
_chemical_name_systematic        
3-methyl-5-nitro-1,4-diphenyl-1,4,5,6-tetrahydropyrano[2,3-c]pyrazole
_symmetry_cell_setting           orthorhombic
_symmetry_space_group_name_H-M   'P 21 21 21'
_symmetry_Int_Tables_number      19
_space_group_name_Hall           'P 2ac 2ab'
loop_
_symmetry_equiv_pos_site_id
_symmetry_equiv_pos_as_xyz
1 x,y,z
2 1/2+x,1/2-y,-z
3 -x,1/2+y,1/2-z
4 1/2-x,-y,1/2+z
_cell_length_a                   8.308(2)
_cell_length_b                   12.155(3)
_cell_length_c                   16.137(4)
_cell_angle_alpha                90
_cell_angle_beta                 90
_cell_angle_gamma                90
_cell_volume                     1629.57
_exptl_crystal_colour            colorless
_exptl_crystal_description       prism
_cell_formula_units_Z            4
loop_
_atom_site_label
_atom_site_type_symbol
_atom_site_fract_x
_atom_site_fract_y
_atom_site_fract_z
O1 O 0.14703(12) 0.30534(8) 0.01426(6)
O2 O -0.00079(15) 0.06240(11) -0.01912(8)
O3 O -0.08338(14) 0.08214(13) 0.10623(8)
N1 N 0.03575(14) 0.43561(9) 0.10726(7)
N2 N -0.00014(14) 0.44384(10) 0.19066(7)
N3 N 0.02071(15) 0.08642(10) 0.05361(8)
C1 C 0.11056(16) 0.33846(11) 0.09199(8)
C2 C 0.12767(16) 0.28203(11) 0.16455(8)
C3 C 0.19552(17) 0.16712(11) 0.16778(8)
H1 H 0.1245 0.1204 0.2034
C4 C 0.19044(17) 0.12321(11) 0.07819(9)
H2 H 0.2633 0.0579 0.0747
C5 C 0.24667(17) 0.20741(12) 0.01496(9)
H3 H 0.3591 0.2286 0.0276
H4 H 0.2452 0.1736 -0.0408
C6 C 0.05650(17) 0.35183(11) 0.22437(9)
C7 C 0.0405(2) 0.33122(13) 0.31535(9)
H5 H -0.0530 0.3713 0.3368
H6 H 0.1380 0.3566 0.3438
H7 H 0.0262 0.2523 0.3251
C8 C -0.01837(17) 0.51790(11) 0.05071(9)
C9 C 0.06604(18) 0.53805(12) -0.02185(10)
H8 H 0.1617 0.4985 -0.0342
C10 C 0.0074(2) 0.61776(13) -0.07644(11)
H9 H 0.0632 0.6318 -0.1267
C11 C -0.1308(2) 0.67645(13) -0.05812(11)
H10 H -0.1686 0.7314 -0.0952
C12 C -0.2139(2) 0.65488(14) 0.01439(11)
H11 H -0.3093 0.6947 0.0267
C13 C -0.15860(19) 0.57536(12) 0.06923(9)
H12 H -0.2160 0.5604 0.1189
C14 C 0.36843(17) 0.15994(11) 0.20008(8)
C15 C 0.47953(19) 0.24422(12) 0.18820(10)
H13 H 0.4468 0.3102 0.1616
C16 C 0.6381(2) 0.23287(14) 0.21490(10)
H14 H 0.7129 0.2908 0.2060
C17 C 0.6869(2) 0.13723(14) 0.25437(10)
H15 H 0.7951 0.1293 0.2724
C18 C 0.5776(2) 0.05380(14) 0.26728(11)
H16 H 0.6104 -0.0114 0.2950
C19 C 0.41913(19) 0.06428(13) 0.23999(9)
H17 H 0.3451 0.0058 0.2486
loop_
_geom_bond_atom_site_label_1
_geom_bond_atom_site_label_2
_geom_bond_site_symmetry_1
_geom_bond_site_symmetry_2
O1 C1 1_555 1_555
O2 N3 1_555 1_555
O3 N3 1_555 1_555
N1 N2 1_555 1_555
N2 C6 1_555 1_555
N3 C4 1_555 1_555
C1 N1 1_555 1_555
C2 C1 1_555 1_555
C3 C2 1_555 1_555
H1 C3 1_555 1_555
C4 C3 1_555 1_555
H2 C4 1_555 1_555
C5 O1 1_555 1_555
H3 C5 1_555 1_555
H4 C5 1_555 1_555
C6 C2 1_555 1_555
C7 C6 1_555 1_555
H5 C7 1_555 1_555
H6 C7 1_555 1_555
H7 C7 1_555 1_555
C8 N1 1_555 1_555
C9 C8 1_555 1_555
H8 C9 1_555 1_555
C10 C9 1_555 1_555
H9 C10 1_555 1_555
C11 C10 1_555 1_555
H10 C11 1_555 1_555
C12 C11 1_555 1_555
H11 C12 1_555 1_555
C13 C8 1_555 1_555
H12 C13 1_555 1_555
C14 C3 1_555 1_555
C15 C14 1_555 1_555
H13 C15 1_555 1_555
C16 C15 1_555 1_555
H14 C16 1_555 1_555
C17 C16 1_555 1_555
H15 C17 1_555 1_555
C18 C17 1_555 1_555
H16 C18 1_555 1_555
C19 C14 1_555 1_555
H17 C19 1_555 1_555
C4 C5 1_555 1_555
C12 C13 1_555 1_555
C18 C19 1_555 1_555

#END
