
#######################################################################
#
#                 Cambridge Crystallographic Data Centre
#                                CCDC 
#
#######################################################################
#
# If this CIF has been generated from an entry in the Cambridge 
# Structural Database, then it will include bibliographic, chemical, 
# crystal, experimental, refinement or atomic coordinate data resulting 
# from the CCDC's data processing and validation procedures.
#
#######################################################################

data_XAHTUY
_chemical_formula_moiety         'C20 H22 O9,C2 H6 O1,C1 H4 O1'
_chemical_name_systematic        'Ginkgolide K  methanol ethanol solvate'
_symmetry_cell_setting           orthorhombic
_symmetry_space_group_name_H-M   'P 2 21 21'
_symmetry_Int_Tables_number      18
_space_group_name_Hall           'P 2bc 2'
loop_
_symmetry_equiv_pos_site_id
_symmetry_equiv_pos_as_xyz
1 x,y,z
2 -x,1/2-y,1/2+z
3 x,-y,-z
4 -x,1/2+y,1/2-z
_cell_length_a                   7.700(3)
_cell_length_b                   12.785(4)
_cell_length_c                   25.557(9)
_cell_angle_alpha                90
_cell_angle_beta                 90
_cell_angle_gamma                90
_cell_volume                     2515.95
_exptl_crystal_colour            colorless
_exptl_crystal_description       Prism
_cell_formula_units_Z            4
loop_
_atom_site_label
_atom_site_type_symbol
_atom_site_fract_x
_atom_site_fract_y
_atom_site_fract_z
O1 O 0.1104(5) -0.0742(3) -0.64517(14)
O2 O -0.4223(3) 0.0492(2) -0.70075(10)
O3 O -0.1393(4) 0.2255(2) -0.74423(13)
O4 O -0.4399(3) -0.1239(2) -0.72859(11)
O5 O 0.0291(9) -0.1479(5) -0.56959(17)
O6 O 0.1317(3) -0.0417(2) -0.76787(13)
H1 H 0.126(6) -0.092(3) -0.7893(16)
O7 O -0.2880(6) 0.2572(3) -0.67126(14)
O8 O -0.3058(4) -0.2681(2) -0.75728(14)
O9 O -0.1324(3) -0.1275(2) -0.83032(12)
H2 H -0.136(8) -0.184(3) -0.846(2)
C1 C -0.1626(8) -0.0257(4) -0.61410(16)
C2 C -0.0028(10) -0.0880(4) -0.6060(2)
C3 C 0.0375(5) 0.0002(4) -0.68055(18)
H3 H 0.1105 0.0627 -0.6834
C4 C -0.0130(4) -0.0412(3) -0.73420(15)
H4 H -0.0617 -0.1118 -0.7312
C5 C -0.1571(4) 0.0378(2) -0.75069(12)
C6 C -0.2438(4) 0.0760(3) -0.69987(14)
C7 C -0.1377(6) 0.0259(3) -0.65790(15)
C8 C -0.2261(6) 0.1960(3) -0.70176(17)
C9 C -0.0824(5) 0.1376(3) -0.77629(17)
H5 H 0.0446 0.1345 -0.7783
C10 C -0.1609(5) 0.1435(3) -0.82933(16)
H6 H -0.0951 0.1020 -0.8542
H7 H -0.1656 0.2152 -0.8416
C11 C -0.3438(4) 0.0989(3) -0.82197(13)
H8 H -0.4052 0.1503 -0.8004
C12 C -0.3135(4) 0.0024(2) -0.78523(12)
C13 C -0.4551(4) -0.0144(3) -0.74422(13)
H9 H -0.5703 0.0001 -0.7589
C14 C -0.3429(4) -0.1777(3) -0.76350(15)
C15 C -0.2957(4) -0.1064(3) -0.80851(13)
H10 H -0.3836 -0.1144 -0.8359
C16 C -0.3151(11) -0.0331(5) -0.5805(2)
H11 H -0.2897 -0.0776 -0.5513
H12 H -0.3459 0.0353 -0.5681
H13 H -0.4103 -0.0619 -0.6001
C17 C -0.4515(6) 0.0909(4) -0.87336(16)
C18 C -0.3600(9) 0.0308(5) -0.91677(16)
H14 H -0.2482 0.0615 -0.9232
H15 H -0.3456 -0.0408 -0.9064
H16 H -0.4285 0.0339 -0.9481
C19 C -0.6299(6) 0.0432(5) -0.86255(19)
H17 H -0.6863 0.0817 -0.8351
H18 H -0.6993 0.0463 -0.8937
H19 H -0.6163 -0.0284 -0.8520
C20 C -0.4816(10) 0.2038(5) -0.8924(2)
H20 H -0.5393 0.2430 -0.8655
H21 H -0.3719 0.2358 -0.9002
H22 H -0.5524 0.2028 -0.9233
O10 O -0.1502(7) -0.2978(4) -0.89318(16)
H23 H -0.065(8) -0.269(10) -0.917(2)
C21 C -0.3087(16) -0.3355(9) -0.9132(4)
H24 H -0.2915 -0.4088 -0.9215
H25 H -0.3923 -0.3329 -0.8848
C22 C -0.384(4) -0.291(3) -0.9547(11)
H26 H -0.4903 -0.3274 -0.9626
H27 H -0.4087 -0.2193 -0.9473
H28 H -0.3073 -0.2957 -0.9843
O11 O -0.1044(15) -0.2034(10) -0.4695(3)
H34 H -0.0424 -0.1892 -0.4987
C24 C -0.180(3) -0.303(2) -0.4753(8)
H35 H -0.1909 -0.3360 -0.4416
H36 H -0.1082 -0.3458 -0.4974
H37 H -0.2932 -0.2965 -0.4908
H29? H -0.3895 -0.2774 -0.9154
H30? H -0.3562 -0.3854 -0.8884
C23? C -0.299(5) -0.386(4) -0.9653(12)
H31? H -0.4127 -0.4094 -0.9756
H32? H -0.2557 -0.3373 -0.9905
H33? H -0.2224 -0.4455 -0.9635
loop_
_geom_bond_atom_site_label_1
_geom_bond_atom_site_label_2
_geom_bond_site_symmetry_1
_geom_bond_site_symmetry_2
O1 C2 1_555 1_555
O2 C6 1_555 1_555
O3 C8 1_555 1_555
O4 C13 1_555 1_555
O5 C2 1_555 1_555
O6 H1 1_555 1_555
O7 C8 1_555 1_555
O8 C14 1_555 1_555
O9 H2 1_555 1_555
C1 C2 1_555 1_555
C3 O1 1_555 1_555
H3 C3 1_555 1_555
C4 O6 1_555 1_555
H4 C4 1_555 1_555
C5 C4 1_555 1_555
C6 C5 1_555 1_555
C7 C1 1_555 1_555
C8 C6 1_555 1_555
C9 O3 1_555 1_555
H5 C9 1_555 1_555
C10 C9 1_555 1_555
H6 C10 1_555 1_555
H7 C10 1_555 1_555
C11 C10 1_555 1_555
H8 C11 1_555 1_555
C12 C5 1_555 1_555
C13 O2 1_555 1_555
H9 C13 1_555 1_555
C14 O4 1_555 1_555
C15 O9 1_555 1_555
H10 C15 1_555 1_555
C16 C1 1_555 1_555
H11 C16 1_555 1_555
H12 C16 1_555 1_555
H13 C16 1_555 1_555
C17 C11 1_555 1_555
C18 C17 1_555 1_555
H14 C18 1_555 1_555
H15 C18 1_555 1_555
H16 C18 1_555 1_555
C19 C17 1_555 1_555
H17 C19 1_555 1_555
H18 C19 1_555 1_555
H19 C19 1_555 1_555
C20 C17 1_555 1_555
H20 C20 1_555 1_555
H21 C20 1_555 1_555
H22 C20 1_555 1_555
O10 H23 1_555 1_555
C21 O10 1_555 1_555
H24 C21 1_555 1_555
H25 C21 1_555 1_555
C22 C21 1_555 1_555
H26 C22 1_555 1_555
H27 C22 1_555 1_555
H28 C22 1_555 1_555
O11 H34 1_555 1_555
C24 O11 1_555 1_555
H35 C24 1_555 1_555
H36 C24 1_555 1_555
H37 C24 1_555 1_555
C3 C4 1_555 1_555
C3 C7 1_555 1_555
C5 C9 1_555 1_555
C6 C7 1_555 1_555
C11 C12 1_555 1_555
C12 C13 1_555 1_555
C12 C15 1_555 1_555
C14 C15 1_555 1_555

#END
