
#######################################################################
#
#                 Cambridge Crystallographic Data Centre
#                                CCDC 
#
#######################################################################
#
# If this CIF has been generated from an entry in the Cambridge 
# Structural Database, then it will include bibliographic, chemical, 
# crystal, experimental, refinement or atomic coordinate data resulting 
# from the CCDC's data processing and validation procedures.
#
#######################################################################

data_XAHYOW
_chemical_name_common            'bis(2-azidoethyl)ammonium nitrocyanamide'
_chemical_formula_moiety         'C4 H10 N7 1+,C1 N3 O2 1-'
_chemical_name_systematic        
'2-Azido-N-(2-azidoethyl)ethanaminium cyano(nitro)azanide'
_symmetry_cell_setting           triclinic
_symmetry_space_group_name_H-M   'P -1'
_symmetry_Int_Tables_number      2
_space_group_name_Hall           '-P 1'
loop_
_symmetry_equiv_pos_site_id
_symmetry_equiv_pos_as_xyz
1 x,y,z
2 -x,-y,-z
_cell_length_a                   7.296(3)
_cell_length_b                   7.970(3)
_cell_length_c                   10.126(4)
_cell_angle_alpha                103.976(4)
_cell_angle_beta                 94.637(5)
_cell_angle_gamma                97.667(5)
_cell_volume                     562.352
_exptl_crystal_colour            colorless
_exptl_crystal_description       plate
_cell_formula_units_Z            2
loop_
_atom_site_label
_atom_site_type_symbol
_atom_site_fract_x
_atom_site_fract_y
_atom_site_fract_z
N1 N 0.83045(17) 0.41950(16) 0.56882(11)
N2 N 0.80202(14) 0.34808(13) 0.45625(10)
N3 N 0.77745(14) 0.25328(12) 0.33798(9)
C1 C 0.71411(16) 0.33647(14) 0.22993(11)
H1 H 0.7369 0.2660 0.1397
H2 H 0.7884 0.4544 0.2461
C2 C 0.50921(16) 0.35296(13) 0.22645(11)
H3 H 0.4884 0.4369 0.3114
H4 H 0.4709 0.3988 0.1476
N4 N 0.39396(12) 0.17930(11) 0.21413(9)
H5 H 0.4271 0.0984 0.1423
H6 H 0.4202 0.1443 0.2928
C3 C 0.19011(16) 0.17993(14) 0.19150(12)
H7 H 0.1578 0.2014 0.1008
H8 H 0.1553 0.2758 0.2624
C4 C 0.08203(17) 0.00674(14) 0.19784(12)
H9 H 0.1186 -0.0184 0.2865
H10 H -0.0531 0.0121 0.1903
N5 N 0.12276(14) -0.13347(12) 0.08348(9)
N6 N 0.13488(14) -0.27511(12) 0.11086(9)
N7 N 0.15116(17) -0.41022(13) 0.12144(11)
N8 N 0.37630(16) 0.22971(14) 0.50741(10)
C5 C 0.41558(16) 0.18826(14) 0.60633(11)
N9 N 0.47735(14) 0.12684(12) 0.71071(9)
N10 N 0.39370(13) 0.18094(11) 0.82291(9)
O1 O 0.28244(12) 0.28650(11) 0.83033(9)
O2 O 0.43541(12) 0.11719(10) 0.92077(8)
loop_
_geom_bond_atom_site_label_1
_geom_bond_atom_site_label_2
_geom_bond_site_symmetry_1
_geom_bond_site_symmetry_2
N1 N2 1_555 1_555
N2 N3 1_555 1_555
N3 C1 1_555 1_555
C1 H1 1_555 1_555
H2 C1 1_555 1_555
C2 C1 1_555 1_555
H3 C2 1_555 1_555
H4 C2 1_555 1_555
N4 C2 1_555 1_555
H5 N4 1_555 1_555
H6 N4 1_555 1_555
C3 N4 1_555 1_555
H7 C3 1_555 1_555
H8 C3 1_555 1_555
C4 C3 1_555 1_555
H9 C4 1_555 1_555
H10 C4 1_555 1_555
N5 C4 1_555 1_555
N6 N5 1_555 1_555
N7 N6 1_555 1_555
N8 C5 1_555 1_555
C5 N9 1_555 1_555
N9 N10 1_555 1_555
N10 O1 1_555 1_555
O2 N10 1_555 1_555

#END
