
#######################################################################
#
#                 Cambridge Crystallographic Data Centre
#                                CCDC 
#
#######################################################################
#
# If this CIF has been generated from an entry in the Cambridge 
# Structural Database, then it will include bibliographic, chemical, 
# crystal, experimental, refinement or atomic coordinate data resulting 
# from the CCDC's data processing and validation procedures.
#
#######################################################################

data_XAJFOG01
_chemical_formula_moiety         'C25 H25 N5 O1'
_chemical_name_systematic        
2,2'-(4-(4-(Hexyloxy)phenyl)pyridine-2,6-diyl)dipyrazine
_symmetry_cell_setting           triclinic
_symmetry_space_group_name_H-M   'P -1'
_symmetry_Int_Tables_number      2
_space_group_name_Hall           '-P 1'
loop_
_symmetry_equiv_pos_site_id
_symmetry_equiv_pos_as_xyz
1 x,y,z
2 -x,-y,-z
_cell_length_a                   5.2210(7)
_cell_length_b                   11.1281(17)
_cell_length_c                   18.331(2)
_cell_angle_alpha                101.851(3)
_cell_angle_beta                 90.4776(18)
_cell_angle_gamma                93.3741(16)
_cell_volume                     1040.29
_exptl_crystal_colour            colorless
_exptl_crystal_description       'Arrowhead Plate'
_cell_formula_units_Z            2
_exptl_crystal_recrystallization_method dichloromethane/acetonitrile
loop_
_atom_site_label
_atom_site_type_symbol
_atom_site_fract_x
_atom_site_fract_y
_atom_site_fract_z
C1 C -0.7980(2) 0.84618(9) 0.95377(6)
H1 H -0.794(2) 0.9320(13) 0.9502(7)
N1 N -0.62082(16) 0.77983(7) 0.91472(5)
C2 C -0.97895(19) 0.79499(9) 0.99550(6)
H2 H -1.104(2) 0.8474(12) 1.0228(7)
N2 N -0.98191(16) 0.67661(8) 1.00058(5)
C3 C -0.80488(18) 0.60970(9) 0.96163(5)
H3 H -0.799(2) 0.5224(12) 0.9637(7)
C4 C -0.62699(17) 0.66034(8) 0.91773(5)
C5 C -0.44001(17) 0.58300(8) 0.87160(5)
N3 N -0.45162(15) 0.46393(7) 0.87520(4)
C6 C -0.26755(18) 0.63428(9) 0.82714(5)
H4 H -0.279(2) 0.7202(12) 0.8245(7)
C7 C -0.08781(17) 0.56114(8) 0.78616(5)
C8 C -0.09568(18) 0.43765(9) 0.79158(5)
H5 H 0.025(2) 0.3798(12) 0.7674(7)
C9 C -0.28231(17) 0.39292(8) 0.83492(5)
C10 C -0.30532(18) 0.26058(8) 0.83838(5)
N4 N -0.12632(17) 0.18826(8) 0.80505(5)
C11 C -0.51134(19) 0.21343(9) 0.87483(6)
H6 H -0.640(3) 0.2671(13) 0.8976(8)
N5 N -0.53616(17) 0.09513(8) 0.87971(5)
C12 C -0.3534(2) 0.02390(9) 0.84742(6)
H7 H -0.365(3) -0.0634(13) 0.8500(8)
C13 C -0.1525(2) 0.06991(9) 0.81016(6)
H8 H -0.025(3) 0.0178(13) 0.7856(8)
C14 C 0.10265(17) 0.61334(8) 0.73964(5)
C15 C 0.25408(18) 0.53854(9) 0.68906(5)
H9 H 0.237(2) 0.4491(12) 0.6807(7)
C16 C 0.43653(19) 0.58695(9) 0.64604(5)
H10 H 0.538(3) 0.5305(13) 0.6115(8)
C17 C 0.47039(18) 0.71388(9) 0.65340(5)
O1 O 0.63975(13) 0.77362(6) 0.61494(4)
C18 C 0.32091(19) 0.79059(9) 0.70380(6)
H11 H 0.349(3) 0.8805(13) 0.7087(7)
C19 C 0.14177(19) 0.74087(9) 0.74585(5)
H12 H 0.047(3) 0.7997(13) 0.7821(8)
C20 C 0.80784(19) 0.70240(9) 0.56388(6)
H13 H 0.702(2) 0.6434(12) 0.5251(7)
H14 H 0.917(2) 0.6548(11) 0.5913(7)
C21 C 0.96961(18) 0.79418(9) 0.53065(6)
H15 H 1.074(2) 0.8473(12) 0.5713(7)
H16 H 0.846(2) 0.8476(12) 0.5093(7)
C22 C 1.14765(18) 0.73380(9) 0.47031(6)
H17 H 1.045(2) 0.6757(12) 0.4310(7)
H18 H 1.271(2) 0.6834(11) 0.4922(7)
C23 C 1.30047(19) 0.82923(9) 0.43640(6)
H19 H 1.178(3) 0.8778(12) 0.4150(7)
H20 H 1.403(2) 0.8863(12) 0.4778(7)
C24 C 1.4803(2) 0.77408(10) 0.37501(6)
H21 H 1.606(2) 0.7243(11) 0.3961(7)
H22 H 1.380(2) 0.7159(12) 0.3355(7)
C25 C 1.6255(2) 0.87164(11) 0.34141(7)
H23 H 1.501(3) 0.9185(15) 0.3185(9)
H24 H 1.744(3) 0.8338(14) 0.3018(9)
H25 H 1.731(3) 0.9275(13) 0.3812(8)
loop_
_geom_bond_atom_site_label_1
_geom_bond_atom_site_label_2
_geom_bond_site_symmetry_1
_geom_bond_site_symmetry_2
C1 H1 1_555 1_555
N1 C1 1_555 1_555
C2 C1 1_555 1_555
H2 C2 1_555 1_555
N2 C2 1_555 1_555
C3 N2 1_555 1_555
H3 C3 1_555 1_555
C4 N1 1_555 1_555
C5 C4 1_555 1_555
N3 C5 1_555 1_555
C6 C5 1_555 1_555
H4 C6 1_555 1_555
C7 C6 1_555 1_555
C8 C7 1_555 1_555
H5 C8 1_555 1_555
C9 N3 1_555 1_555
C10 C9 1_555 1_555
N4 C10 1_555 1_555
C11 C10 1_555 1_555
H6 C11 1_555 1_555
N5 C11 1_555 1_555
C12 N5 1_555 1_555
H7 C12 1_555 1_555
C13 N4 1_555 1_555
H8 C13 1_555 1_555
C14 C7 1_555 1_555
C15 C14 1_555 1_555
H9 C15 1_555 1_555
C16 C15 1_555 1_555
H10 C16 1_555 1_555
C17 C16 1_555 1_555
O1 C17 1_555 1_555
C18 C17 1_555 1_555
H11 C18 1_555 1_555
C19 C14 1_555 1_555
H12 C19 1_555 1_555
C20 O1 1_555 1_555
H13 C20 1_555 1_555
H14 C20 1_555 1_555
C21 C20 1_555 1_555
H15 C21 1_555 1_555
H16 C21 1_555 1_555
C22 C21 1_555 1_555
H17 C22 1_555 1_555
H18 C22 1_555 1_555
C23 C22 1_555 1_555
H19 C23 1_555 1_555
H20 C23 1_555 1_555
C24 C23 1_555 1_555
H21 C24 1_555 1_555
H22 C24 1_555 1_555
C25 C24 1_555 1_555
H23 C25 1_555 1_555
H24 C25 1_555 1_555
H25 C25 1_555 1_555
C3 C4 1_555 1_555
C8 C9 1_555 1_555
C12 C13 1_555 1_555
C18 C19 1_555 1_555

#END
