
#######################################################################
#
#                 Cambridge Crystallographic Data Centre
#                                CCDC 
#
#######################################################################
#
# If this CIF has been generated from an entry in the Cambridge 
# Structural Database, then it will include bibliographic, chemical, 
# crystal, experimental, refinement or atomic coordinate data resulting 
# from the CCDC's data processing and validation procedures.
#
#######################################################################

data_XAJFEW
_chemical_formula_moiety         'C19 H24 N4 O7 S1'
_chemical_name_systematic        
'Dimethyl 7-(cyclohexyl(ethoxy(oxo)acetyl)amino)-5H-[1,3,4]thiadiazolo[3,2-a]pyrimidine-5,6-dicarboxylate'
_symmetry_cell_setting           monoclinic
_symmetry_space_group_name_H-M   'P 21/c'
_symmetry_Int_Tables_number      14
_space_group_name_Hall           '-P 2ybc'
loop_
_symmetry_equiv_pos_site_id
_symmetry_equiv_pos_as_xyz
1 x,y,z
2 -x,1/2+y,1/2-z
3 -x,-y,-z
4 x,1/2-y,1/2+z
_cell_length_a                   9.8355(5)
_cell_length_b                   12.8451(7)
_cell_length_c                   17.5582(10)
_cell_angle_alpha                90
_cell_angle_beta                 94.218(3)
_cell_angle_gamma                90
_cell_volume                     2212.26
_exptl_crystal_colour            colorless
_exptl_crystal_description       block
_cell_formula_units_Z            4
loop_
_atom_site_label
_atom_site_type_symbol
_atom_site_fract_x
_atom_site_fract_y
_atom_site_fract_z
S1 S 1.18566(6) 0.23618(6) 0.15358(4)
N1 N 0.68144(17) 0.17266(14) 0.13941(10)
N2 N 0.91206(17) 0.21720(15) 0.15695(10)
N3 N 1.00812(16) 0.33620(14) 0.07314(10)
O1 O 0.99109(18) 0.52984(14) 0.12368(11)
O2 O 0.68870(17) 0.33103(14) 0.25289(10)
C1 C 0.78823(19) 0.24025(17) 0.11973(12)
C2 C 0.6410(2) 0.32489(19) 0.01533(13)
O3 O 0.53148(17) 0.28631(16) 0.02526(11)
C3 C 1.0163(2) 0.26338(17) 0.12851(12)
C4 C 0.7666(2) 0.31503(17) 0.06553(12)
O4 O 0.46926(17) 0.15901(15) 0.18111(12)
O5 O 0.66310(18) 0.38129(16) -0.04627(11)
O6 O 0.48848(19) 0.38112(15) 0.19490(12)
C5 C 0.8815(2) 0.39142(17) 0.05411(13)
H1 H 0.8778 0.4115 0.0002
N4 N 1.12895(18) 0.37161(16) 0.04738(12)
C6 C 0.5715(2) 0.20965(18) 0.17239(13)
O7 O 0.7634(2) 0.52540(16) 0.11789(14)
C7 C 0.5773(2) 0.3190(2) 0.20552(13)
C8 C 0.6784(2) 0.06233(18) 0.11437(14)
H2 H 0.5816 0.0442 0.1070
C9 C 0.8698(2) 0.48977(18) 0.10272(14)
C10 C 1.2278(2) 0.3250(2) 0.08475(15)
H3 H 1.3180 0.3383 0.0754
C11 C 0.7042(3) 0.4304(2) 0.29337(19)
H4 H 0.6390 0.4358 0.3320
H5 H 0.6902 0.4881 0.2581
C12 C 0.5474(3) 0.3944(3) -0.1018(2)
H6 H 0.5176 0.3274 -0.1207
H7 H 0.5738 0.4365 -0.1434
H8 H 0.4743 0.4279 -0.0779
C13 C 0.7770(4) -0.1412(3) 0.0734(2)
H9 H 0.7575 -0.2122 0.0575
H10 H 0.8752 -0.1321 0.0774
C14 C 0.9942(4) 0.6272(2) 0.1657(2)
H11 H 0.9417 0.6786 0.1367
H12 H 1.0868 0.6506 0.1741
H13 H 0.9563 0.6168 0.2139
C15 C 0.8455(4) 0.4308(3) 0.3291(3)
H14 H 0.8563 0.3750 0.3654
H15 H 0.8632 0.4960 0.3546
H16 H 0.9084 0.4216 0.2903
C16 C 0.7366(4) -0.0097(2) 0.17472(16)
H17 H 0.6892 -0.0002 0.2207
H18 H 0.8320 0.0070 0.1867
C17 C 0.7148(5) -0.0681(3) 0.01485(19)
H19 H 0.6182 -0.0832 0.0063
H20 H 0.7564 -0.0789 -0.0329
C18 C 0.7334(4) 0.0459(2) 0.03926(17)
H21 H 0.8294 0.0638 0.0423
H22 H 0.6862 0.0909 0.0016
C19 C 0.7239(5) -0.1231(2) 0.1491(2)
H23 H 0.7736 -0.1669 0.1867
H24 H 0.6288 -0.1435 0.1470
loop_
_geom_bond_atom_site_label_1
_geom_bond_atom_site_label_2
_geom_bond_site_symmetry_1
_geom_bond_site_symmetry_2
S1 C3 1_555 1_555
N1 C1 1_555 1_555
N2 C1 1_555 1_555
N3 C3 1_555 1_555
O1 C9 1_555 1_555
O2 C7 1_555 1_555
C1 C4 1_555 1_555
C2 O3 1_555 1_555
C3 N2 1_555 1_555
C4 C2 1_555 1_555
O4 C6 1_555 1_555
O5 C2 1_555 1_555
O6 C7 1_555 1_555
C5 N3 1_555 1_555
H1 C5 1_555 1_555
N4 N3 1_555 1_555
C6 N1 1_555 1_555
O7 C9 1_555 1_555
C7 C6 1_555 1_555
C8 N1 1_555 1_555
H2 C8 1_555 1_555
C9 C5 1_555 1_555
C10 S1 1_555 1_555
H3 C10 1_555 1_555
C11 O2 1_555 1_555
H4 C11 1_555 1_555
H5 C11 1_555 1_555
C12 O5 1_555 1_555
H6 C12 1_555 1_555
H7 C12 1_555 1_555
H8 C12 1_555 1_555
C13 H9 1_555 1_555
H10 C13 1_555 1_555
C14 O1 1_555 1_555
H11 C14 1_555 1_555
H12 C14 1_555 1_555
H13 C14 1_555 1_555
C15 C11 1_555 1_555
H14 C15 1_555 1_555
H15 C15 1_555 1_555
H16 C15 1_555 1_555
C16 C8 1_555 1_555
H17 C16 1_555 1_555
H18 C16 1_555 1_555
C17 C13 1_555 1_555
H19 C17 1_555 1_555
H20 C17 1_555 1_555
C18 C8 1_555 1_555
H21 C18 1_555 1_555
H22 C18 1_555 1_555
C19 C13 1_555 1_555
H23 C19 1_555 1_555
H24 C19 1_555 1_555
C4 C5 1_555 1_555
N4 C10 1_555 1_555
C16 C19 1_555 1_555
C17 C18 1_555 1_555

#END
