
#######################################################################
#
#                 Cambridge Crystallographic Data Centre
#                                CCDC 
#
#######################################################################
#
# If this CIF has been generated from an entry in the Cambridge 
# Structural Database, then it will include bibliographic, chemical, 
# crystal, experimental, refinement or atomic coordinate data resulting 
# from the CCDC's data processing and validation procedures.
#
#######################################################################

data_XAJFOG
_chemical_formula_moiety         'C25 H25 N5 O1'
_chemical_name_systematic        
2,2'-(4-(4-(Hexyloxy)phenyl)pyridine-2,6-diyl)dipyrazine
_symmetry_cell_setting           triclinic
_symmetry_space_group_name_H-M   'P -1'
_symmetry_Int_Tables_number      2
_space_group_name_Hall           '-P 1'
loop_
_symmetry_equiv_pos_site_id
_symmetry_equiv_pos_as_xyz
1 x,y,z
2 -x,-y,-z
_cell_length_a                   8.5808(2)
_cell_length_b                   8.8979(2)
_cell_length_c                   14.4976(4)
_cell_angle_alpha                72.3759(9)
_cell_angle_beta                 89.3456(10)
_cell_angle_gamma                78.9756(10)
_cell_volume                     1034.21
_exptl_crystal_colour            colorless
_exptl_crystal_description       Parallelepiped
_cell_formula_units_Z            2
_exptl_crystal_recrystallization_method dichloromethane/methanol
loop_
_atom_site_label
_atom_site_type_symbol
_atom_site_fract_x
_atom_site_fract_y
_atom_site_fract_z
C1 C 1.05858(11) 1.24994(11) 0.05740(7)
H1 H 0.9700(14) 1.3310(14) 0.0626(8)
N1 N 1.03926(9) 1.09856(9) 0.09545(6)
C2 C 1.19638(11) 1.28731(11) 0.01233(7)
H2 H 1.2041(15) 1.3992(15) -0.0153(9)
N2 N 1.31729(10) 1.17294(10) 0.00450(6)
C3 C 1.29871(11) 1.02082(11) 0.04260(7)
H3 H 1.3845(16) 0.9373(15) 0.0381(9)
C4 C 1.16006(10) 0.98319(11) 0.08789(6)
C5 C 1.14175(11) 0.81332(11) 0.13023(6)
N3 N 1.26723(9) 0.70064(9) 0.12637(6)
C6 C 1.00119(11) 0.77789(11) 0.17221(7)
H4 H 0.9157(14) 0.8646(14) 0.1750(8)
C7 C 0.98496(11) 0.61764(11) 0.21091(6)
C8 C 1.11585(11) 0.50022(11) 0.20619(7)
H5 H 1.1144(14) 0.3889(14) 0.2306(8)
C9 C 1.25393(11) 0.54682(11) 0.16519(6)
C10 C 1.39784(11) 0.42552(11) 0.16290(6)
N4 N 1.39656(10) 0.27072(9) 0.20867(6)
C11 C 1.53145(11) 0.47311(11) 0.11470(7)
H6 H 1.5309(14) 0.5852(15) 0.0834(9)
N5 N 1.66196(9) 0.36709(10) 0.10983(6)
C12 C 1.65853(11) 0.21213(11) 0.15452(7)
H7 H 1.7535(16) 0.1326(16) 0.1507(10)
C13 C 1.52773(12) 0.16510(11) 0.20396(7)
H8 H 1.5280(15) 0.0507(16) 0.2382(9)
C14 C 0.83614(11) 0.57730(11) 0.25599(6)
C15 C 0.82869(11) 0.42207(11) 0.31414(7)
H9 H 0.9218(15) 0.3334(15) 0.3279(9)
C16 C 0.69090(11) 0.38503(11) 0.35946(7)
H10 H 0.6926(15) 0.2732(15) 0.4004(9)
C17 C 0.55600(11) 0.50572(11) 0.34741(7)
O1 O 0.41516(8) 0.48641(8) 0.38884(5)
C18 C 0.56004(11) 0.66132(11) 0.28788(7)
H11 H 0.4632(15) 0.7436(15) 0.2783(9)
C19 C 0.69708(11) 0.69560(11) 0.24312(7)
H12 H 0.6922(15) 0.8051(15) 0.2006(9)
C20 C 0.40159(12) 0.32850(12) 0.44898(7)
H13 H 0.4820(14) 0.2916(14) 0.5046(9)
H14 H 0.4208(15) 0.2529(15) 0.4095(9)
C21 C 0.23389(11) 0.34131(12) 0.48360(7)
H15 H 0.1595(15) 0.3875(15) 0.4254(9)
H16 H 0.2159(15) 0.4193(15) 0.5219(9)
C22 C 0.20005(11) 0.17871(11) 0.54332(7)
H17 H 0.2738(15) 0.1322(15) 0.6020(9)
H18 H 0.2203(15) 0.1002(15) 0.5041(9)
C23 C 0.02915(11) 0.19096(11) 0.57510(7)
H19 H 0.0100(15) 0.2639(15) 0.6157(9)
H20 H -0.0442(15) 0.2417(14) 0.5165(9)
C24 C -0.01235(12) 0.02971(12) 0.63087(7)
H21 H 0.0127(15) -0.0447(15) 0.5911(9)
H22 H 0.0543(15) -0.0188(14) 0.6908(9)
C25 C -0.18661(12) 0.04606(13) 0.65559(8)
H23 H -0.2135(16) 0.1206(16) 0.6954(10)
H24 H -0.2148(16) -0.0584(17) 0.6914(10)
H25 H -0.2568(16) 0.0919(16) 0.5949(10)
loop_
_geom_bond_atom_site_label_1
_geom_bond_atom_site_label_2
_geom_bond_site_symmetry_1
_geom_bond_site_symmetry_2
C1 H1 1_555 1_555
N1 C1 1_555 1_555
C2 C1 1_555 1_555
H2 C2 1_555 1_555
N2 C2 1_555 1_555
C3 N2 1_555 1_555
H3 C3 1_555 1_555
C4 N1 1_555 1_555
C5 C4 1_555 1_555
N3 C5 1_555 1_555
C6 C5 1_555 1_555
H4 C6 1_555 1_555
C7 C6 1_555 1_555
C8 C7 1_555 1_555
H5 C8 1_555 1_555
C9 N3 1_555 1_555
C10 C9 1_555 1_555
N4 C10 1_555 1_555
C11 C10 1_555 1_555
H6 C11 1_555 1_555
N5 C11 1_555 1_555
C12 N5 1_555 1_555
H7 C12 1_555 1_555
C13 N4 1_555 1_555
H8 C13 1_555 1_555
C14 C7 1_555 1_555
C15 C14 1_555 1_555
H9 C15 1_555 1_555
C16 C15 1_555 1_555
H10 C16 1_555 1_555
C17 C16 1_555 1_555
O1 C17 1_555 1_555
C18 C17 1_555 1_555
H11 C18 1_555 1_555
C19 C14 1_555 1_555
H12 C19 1_555 1_555
C20 O1 1_555 1_555
H13 C20 1_555 1_555
H14 C20 1_555 1_555
C21 C20 1_555 1_555
H15 C21 1_555 1_555
H16 C21 1_555 1_555
C22 C21 1_555 1_555
H17 C22 1_555 1_555
H18 C22 1_555 1_555
C23 C22 1_555 1_555
H19 C23 1_555 1_555
H20 C23 1_555 1_555
C24 C23 1_555 1_555
H21 C24 1_555 1_555
H22 C24 1_555 1_555
C25 C24 1_555 1_555
H23 C25 1_555 1_555
H24 C25 1_555 1_555
H25 C25 1_555 1_555
C3 C4 1_555 1_555
C8 C9 1_555 1_555
C12 C13 1_555 1_555
C18 C19 1_555 1_555

#END
