
#######################################################################
#
#                 Cambridge Crystallographic Data Centre
#                                CCDC 
#
#######################################################################
#
# If this CIF has been generated from an entry in the Cambridge 
# Structural Database, then it will include bibliographic, chemical, 
# crystal, experimental, refinement or atomic coordinate data resulting 
# from the CCDC's data processing and validation procedures.
#
#######################################################################

data_XAJJEZ
_chemical_formula_moiety         'C20 H24 N4 O3'
_chemical_name_systematic        
'Ethyl 2-anilino-4-(butylamino)-6-methylfuro[2,3-d]pyrimidine-5-carboxylate'
_symmetry_cell_setting           monoclinic
_symmetry_space_group_name_H-M   'P 21/n'
_symmetry_Int_Tables_number      14
_space_group_name_Hall           '-P 2yn'
loop_
_symmetry_equiv_pos_site_id
_symmetry_equiv_pos_as_xyz
1 x,y,z
2 1/2-x,1/2+y,1/2-z
3 -x,-y,-z
4 1/2+x,1/2-y,1/2+z
_cell_length_a                   8.0852(5)
_cell_length_b                   9.3902(6)
_cell_length_c                   25.3685(17)
_cell_angle_alpha                90
_cell_angle_beta                 97.4950(10)
_cell_angle_gamma                90
_cell_volume                     1909.56
_exptl_crystal_colour            colorless
_exptl_crystal_description       block
_cell_formula_units_Z            4
loop_
_atom_site_label
_atom_site_type_symbol
_atom_site_fract_x
_atom_site_fract_y
_atom_site_fract_z
C1 C 0.29750(15) 0.48511(13) 0.88002(5)
C2 C 0.2141(2) 0.40960(16) 0.83749(6)
H1 H 0.1807 0.3162 0.8421
C3 C 0.1810(3) 0.47399(18) 0.78820(6)
H2 H 0.1242 0.4228 0.7601
C4 C 0.2293(2) 0.61084(18) 0.77963(6)
H3 H 0.2091 0.6518 0.7460
C5 C 0.3087(2) 0.68600(18) 0.82208(7)
H4 H 0.3410 0.7797 0.8173
C6 C 0.3409(2) 0.62459(16) 0.87152(6)
H5 H 0.3930 0.6780 0.8998
C7 C 0.31780(16) 0.30308(13) 0.95374(5)
C8 C 0.19807(15) 0.07986(13) 0.94542(5)
C9 C 0.27109(15) 0.04864(13) 0.99785(5)
C10 C 0.36431(15) 0.15846(13) 1.02238(5)
C11 C 0.28282(15) -0.06739(13) 1.03588(5)
C12 C 0.38136(16) -0.01980(14) 1.07988(5)
C13 C 0.03296(19) 0.01222(15) 0.86067(5)
H6 H 0.1209 0.0317 0.8391
H7 H -0.0394 0.0949 0.8593
C14 C -0.06607(17) -0.11610(14) 0.83894(5)
H8 H -0.1595 -0.1296 0.8588
H9 H 0.0042 -0.2000 0.8441
C15 C -0.1316(2) -0.10233(17) 0.78035(6)
H10 H -0.2017 -0.0184 0.7751
H11 H -0.0383 -0.0896 0.7603
C16 C -0.2306(3) -0.2307(2) 0.75942(8)
H12 H -0.1613 -0.3139 0.7642
H13 H -0.2688 -0.2178 0.7223
H14 H -0.3248 -0.2422 0.7785
C17 C 0.44624(19) -0.08060(16) 1.13251(6)
H15 H 0.4170 -0.1796 1.1333
H16 H 0.3983 -0.0306 1.1598
H17 H 0.5654 -0.0709 1.1384
C18 C 0.20363(17) -0.20750(14) 1.02758(5)
C19 C 0.1539(2) -0.43235(15) 1.06418(7)
H18 H 0.1956 -0.4840 1.0355
H19 H 0.0337 -0.4245 1.0562
C20 C 0.1994(3) -0.5080(2) 1.11542(9)
H20 H 0.3184 -0.5079 1.1244
H21 H 0.1598 -0.6044 1.1121
H22 H 0.1492 -0.4605 1.1429
N1 N 0.39421(14) 0.28689(11) 1.00381(4)
N2 N 0.22236(14) 0.20821(11) 0.92430(4)
N3 N 0.34213(16) 0.43322(12) 0.93177(5)
H23 H 0.398(2) 0.4941(18) 0.9538(7)
N4 N 0.10504(16) -0.01452(13) 0.91512(5)
H24 H 0.094(2) -0.096(2) 0.9299(7)
O1 O 0.43222(12) 0.11850(9) 1.07252(3)
O2 O 0.12154(17) -0.24404(12) 0.98657(4)
O3 O 0.22938(13) -0.29136(10) 1.06986(4)
loop_
_geom_bond_atom_site_label_1
_geom_bond_atom_site_label_2
_geom_bond_site_symmetry_1
_geom_bond_site_symmetry_2
C1 C2 1_555 1_555
C2 H1 1_555 1_555
C3 C2 1_555 1_555
H2 C3 1_555 1_555
C4 C3 1_555 1_555
H3 C4 1_555 1_555
C5 C4 1_555 1_555
H4 C5 1_555 1_555
C6 C1 1_555 1_555
H5 C6 1_555 1_555
C7 N1 1_555 1_555
C8 C9 1_555 1_555
C9 C10 1_555 1_555
C10 N1 1_555 1_555
C11 C9 1_555 1_555
C12 C11 1_555 1_555
C13 H6 1_555 1_555
H7 C13 1_555 1_555
C14 C13 1_555 1_555
H8 C14 1_555 1_555
H9 C14 1_555 1_555
C15 C14 1_555 1_555
H10 C15 1_555 1_555
H11 C15 1_555 1_555
C16 C15 1_555 1_555
H12 C16 1_555 1_555
H13 C16 1_555 1_555
H14 C16 1_555 1_555
C17 C12 1_555 1_555
H15 C17 1_555 1_555
H16 C17 1_555 1_555
H17 C17 1_555 1_555
C18 C11 1_555 1_555
C19 H18 1_555 1_555
H19 C19 1_555 1_555
C20 C19 1_555 1_555
H20 C20 1_555 1_555
H21 C20 1_555 1_555
H22 C20 1_555 1_555
N2 C7 1_555 1_555
N3 C1 1_555 1_555
H23 N3 1_555 1_555
N4 C8 1_555 1_555
H24 N4 1_555 1_555
O1 C10 1_555 1_555
O2 C18 1_555 1_555
O3 C18 1_555 1_555
C5 C6 1_555 1_555
C7 N3 1_555 1_555
C8 N2 1_555 1_555
C12 O1 1_555 1_555
C13 N4 1_555 1_555
C19 O3 1_555 1_555

#END
