
#######################################################################
#
#                 Cambridge Crystallographic Data Centre
#                                CCDC 
#
#######################################################################
#
# If this CIF has been generated from an entry in the Cambridge 
# Structural Database, then it will include bibliographic, chemical, 
# crystal, experimental, refinement or atomic coordinate data resulting 
# from the CCDC's data processing and validation procedures.
#
#######################################################################

data_XAJNUT02
_chemical_formula_moiety         'C6 H2 Br1 F3'
_chemical_name_systematic        1-Bromo-2,4,6-trifluorobenzene
_symmetry_cell_setting           monoclinic
_symmetry_space_group_name_H-M   'P 21'
_symmetry_Int_Tables_number      4
_space_group_name_Hall           'P 2yb'
loop_
_symmetry_equiv_pos_site_id
_symmetry_equiv_pos_as_xyz
1 x,y,z
2 -x,1/2+y,-z
_cell_length_a                   4.1069(3)
_cell_length_b                   5.9634(7)
_cell_length_c                   13.395(3)
_cell_angle_alpha                90
_cell_angle_beta                 93.949(12)
_cell_angle_gamma                90
_cell_volume                     327.279
_exptl_crystal_colour            colorless
_exptl_crystal_description       block
_chemical_melting_point          '276.2 K'
_cell_formula_units_Z            2
loop_
_atom_site_label
_atom_site_type_symbol
_atom_site_fract_x
_atom_site_fract_y
_atom_site_fract_z
Br1 Br -0.0139(3) 0.9384(4) 0.10864(18)
F1 F 0.107(2) 0.8983(12) 0.3338(15)
C1 C -0.1452(17) 1.1293(10) 0.2100(11)
C2 C -0.0647(17) 1.0777(10) 0.3098(11)
C3 C -0.159(2) 1.2199(15) 0.3848(11)
H1 H -0.1056 1.1854 0.4516
C4 C -0.335(2) 1.4137(13) 0.3599(12)
C5 C -0.4152(18) 1.4653(9) 0.2600(12)
H2 H -0.5324 1.5950 0.2433
C6 C -0.320(2) 1.3231(12) 0.1851(11)
F2 F -0.396(3) 1.3715(14) 0.0919(16)
F3 F -0.426(2) 1.5495(15) 0.4294(16)
loop_
_geom_bond_atom_site_label_1
_geom_bond_atom_site_label_2
_geom_bond_site_symmetry_1
_geom_bond_site_symmetry_2
Br1 C1 1_555 1_555
F1 C2 1_555 1_555
C1 C2 1_555 1_555
C2 C3 1_555 1_555
C3 H1 1_555 1_555
C4 C3 1_555 1_555
C5 C4 1_555 1_555
H2 C5 1_555 1_555
C6 C1 1_555 1_555
F2 C6 1_555 1_555
F3 C4 1_555 1_555
C5 C6 1_555 1_555

#END
