
#######################################################################
#
#                 Cambridge Crystallographic Data Centre
#                                CCDC 
#
#######################################################################
#
# If this CIF has been generated from an entry in the Cambridge 
# Structural Database, then it will include bibliographic, chemical, 
# crystal, experimental, refinement or atomic coordinate data resulting 
# from the CCDC's data processing and validation procedures.
#
#######################################################################

data_XAJRIM
_chemical_formula_moiety         'C30 H26 N3 1+,F6 P1 1-'
_chemical_name_systematic        
'1-Methyl-4-(2-(1-methyl-4,5-diphenyl-1H-imidazol-2-yl)-1-phenylvinyl)pyridinium hexafluorophosphate'
_symmetry_cell_setting           monoclinic
_symmetry_space_group_name_H-M   'C 2/c'
_symmetry_Int_Tables_number      15
_space_group_name_Hall           '-C 2yn'
loop_
_symmetry_equiv_pos_site_id
_symmetry_equiv_pos_as_xyz
1 x,y,z
2 -x,y,1/2-z
3 1/2+x,1/2+y,z
4 1/2-x,1/2+y,1/2-z
5 -x,-y,-z
6 x,-y,1/2+z
7 1/2-x,1/2-y,-z
8 1/2+x,1/2-y,1/2+z
_cell_length_a                   9.6091(6)
_cell_length_b                   22.4452(16)
_cell_length_c                   25.8010(19)
_cell_angle_alpha                90
_cell_angle_beta                 96.370(7)
_cell_angle_gamma                90
_cell_volume                     5530.36
_exptl_crystal_colour            orange
_exptl_crystal_description       plate
_cell_formula_units_Z            8
loop_
_atom_site_label
_atom_site_type_symbol
_atom_site_fract_x
_atom_site_fract_y
_atom_site_fract_z
P1 P 0.23860(9) 0.74165(4) 0.17718(3)
F1 F 0.3538(2) 0.75263(11) 0.22543(7)
F2 F 0.1219(2) 0.73181(11) 0.12910(8)
F3 F 0.1209(3) 0.74215(19) 0.21455(9)
F4 F 0.2263(3) 0.81017(9) 0.16743(9)
F5 F 0.3563(3) 0.73913(12) 0.13828(9)
F6 F 0.2569(4) 0.67289(11) 0.18569(12)
N1 N 0.4244(2) 0.42874(9) 0.11016(8)
N2 N 0.7551(3) 0.67714(10) 0.17744(9)
N3 N 0.4824(2) 0.52471(9) 0.11218(8)
C1 C 0.5003(3) 0.47286(12) 0.13708(10)
C2 C 0.3938(3) 0.51314(12) 0.06780(9)
C3 C 0.3563(3) 0.45392(11) 0.06569(10)
C4 C 0.4115(3) 0.36729(12) 0.12700(12)
H1 H 0.4963 0.3452 0.1211
H2 H 0.3301 0.3488 0.1070
H3 H 0.3994 0.3665 0.1642
C5 C 0.5867(3) 0.46070(12) 0.18551(10)
H4 H 0.5793 0.4216 0.1989
C6 C 0.6767(3) 0.49732(12) 0.21439(10)
C7 C 0.7650(3) 0.47370(12) 0.26122(10)
C8 C 0.7976(3) 0.51053(14) 0.30436(11)
H5 H 0.7640 0.5504 0.3038
C9 C 0.8795(3) 0.48886(16) 0.34828(11)
H6 H 0.9003 0.5139 0.3778
C10 C 0.9304(4) 0.43170(17) 0.34933(12)
H7 H 0.9868 0.4174 0.3793
C11 C 0.8990(4) 0.39509(16) 0.30649(13)
H8 H 0.9338 0.3555 0.3070
C12 C 0.8168(3) 0.41617(13) 0.26277(12)
H9 H 0.7958 0.3908 0.2335
C13 C 0.7009(3) 0.56009(12) 0.20091(9)
C14 C 0.8367(3) 0.57979(12) 0.19614(12)
H10 H 0.9128 0.5527 0.2014
C15 C 0.8609(3) 0.63815(13) 0.18395(12)
H11 H 0.9534 0.6509 0.1801
C16 C 0.6237(3) 0.65997(12) 0.18307(11)
H12 H 0.5503 0.6885 0.1794
C17 C 0.5945(3) 0.60242(12) 0.19391(10)
H13 H 0.5005 0.5909 0.1968
C18 C 0.7839(4) 0.73996(13) 0.16475(13)
H14 H 0.8042 0.7628 0.1971
H15 H 0.7018 0.7570 0.1440
H16 H 0.8647 0.7417 0.1447
C19 C 0.3511(3) 0.56188(12) 0.03149(10)
C20 C 0.3448(3) 0.62000(13) 0.04998(11)
H17 H 0.3679 0.6275 0.0861
C21 C 0.3057(4) 0.66710(14) 0.01689(12)
H18 H 0.3013 0.7064 0.0303
C22 C 0.2730(4) 0.65648(15) -0.03599(12)
H19 H 0.2465 0.6886 -0.0590
C23 C 0.2790(3) 0.59942(15) -0.05515(11)
H20 H 0.2561 0.5924 -0.0914
C24 C 0.3182(3) 0.55182(13) -0.02222(10)
H21 H 0.3227 0.5127 -0.0360
C25 C 0.2665(3) 0.41841(12) 0.02725(10)
C26 C 0.3190(4) 0.36814(15) 0.00452(13)
H22 H 0.4146 0.3575 0.0127
C27 C 0.2327(4) 0.33359(18) -0.02991(15)
H23 H 0.2686 0.2989 -0.0448
C28 C 0.0932(4) 0.34982(18) -0.04269(14)
H24 H 0.0337 0.3262 -0.0663
C29 C 0.0410(4) 0.40062(17) -0.02086(12)
H25 H -0.0536 0.4122 -0.0301
C30 C 0.1266(3) 0.43429(14) 0.01424(11)
H26 H 0.0901 0.4685 0.0297
loop_
_geom_bond_atom_site_label_1
_geom_bond_atom_site_label_2
_geom_bond_site_symmetry_1
_geom_bond_site_symmetry_2
P1 F1 1_555 1_555
F2 P1 1_555 1_555
F3 P1 1_555 1_555
F4 P1 1_555 1_555
F5 P1 1_555 1_555
F6 P1 1_555 1_555
N1 C1 1_555 1_555
N2 C15 1_555 1_555
N3 C1 1_555 1_555
C1 C5 1_555 1_555
C2 N3 1_555 1_555
C3 N1 1_555 1_555
C4 N1 1_555 1_555
H1 C4 1_555 1_555
H2 C4 1_555 1_555
H3 C4 1_555 1_555
C5 H4 1_555 1_555
C6 C5 1_555 1_555
C7 C6 1_555 1_555
C8 C7 1_555 1_555
H5 C8 1_555 1_555
C9 C8 1_555 1_555
H6 C9 1_555 1_555
C10 C9 1_555 1_555
H7 C10 1_555 1_555
C11 C10 1_555 1_555
H8 C11 1_555 1_555
C12 C7 1_555 1_555
H9 C12 1_555 1_555
C13 C6 1_555 1_555
C14 C13 1_555 1_555
H10 C14 1_555 1_555
C15 C14 1_555 1_555
H11 C15 1_555 1_555
C16 N2 1_555 1_555
H12 C16 1_555 1_555
C17 C13 1_555 1_555
H13 C17 1_555 1_555
C18 N2 1_555 1_555
H14 C18 1_555 1_555
H15 C18 1_555 1_555
H16 C18 1_555 1_555
C19 C2 1_555 1_555
C20 C19 1_555 1_555
H17 C20 1_555 1_555
C21 C20 1_555 1_555
H18 C21 1_555 1_555
C22 C21 1_555 1_555
H19 C22 1_555 1_555
C23 C22 1_555 1_555
H20 C23 1_555 1_555
C24 C19 1_555 1_555
H21 C24 1_555 1_555
C25 C3 1_555 1_555
C26 C25 1_555 1_555
H22 C26 1_555 1_555
C27 C26 1_555 1_555
H23 C27 1_555 1_555
C28 C27 1_555 1_555
H24 C28 1_555 1_555
C29 C28 1_555 1_555
H25 C29 1_555 1_555
C30 C25 1_555 1_555
H26 C30 1_555 1_555
C2 C3 1_555 1_555
C11 C12 1_555 1_555
C16 C17 1_555 1_555
C23 C24 1_555 1_555
C29 C30 1_555 1_555

#END
