
#######################################################################
#
#                 Cambridge Crystallographic Data Centre
#                                CCDC 
#
#######################################################################
#
# If this CIF has been generated from an entry in the Cambridge 
# Structural Database, then it will include bibliographic, chemical, 
# crystal, experimental, refinement or atomic coordinate data resulting 
# from the CCDC's data processing and validation procedures.
#
#######################################################################

data_XAJXUE
_chemical_formula_moiety         'C16 H11 Cl4 N1 O2'
_chemical_name_systematic        
2,3,5-Trichloro-6-((Z)-2-chloro-2-(4-(dimethylamino)phenyl)vinyl)-1,4-benzoquinone
_symmetry_cell_setting           orthorhombic
_symmetry_space_group_name_H-M   'P 21 21 21'
_symmetry_Int_Tables_number      19
_space_group_name_Hall           'P 2ac 2ab'
loop_
_symmetry_equiv_pos_site_id
_symmetry_equiv_pos_as_xyz
1 x,y,z
2 1/2+x,1/2-y,-z
3 -x,1/2+y,1/2-z
4 1/2-x,-y,1/2+z
_cell_length_a                   7.5260(6)
_cell_length_b                   10.7844(9)
_cell_length_c                   19.6542(17)
_cell_angle_alpha                90
_cell_angle_beta                 90
_cell_angle_gamma                90
_cell_volume                     1595.2
_exptl_crystal_colour            blue
_exptl_crystal_description       needle
_chemical_melting_point          '136-137 deg.C'
_cell_formula_units_Z            4
_exptl_crystal_recrystallization_method dichloromethane/n-hexane
loop_
_atom_site_label
_atom_site_type_symbol
_atom_site_fract_x
_atom_site_fract_y
_atom_site_fract_z
Cl1 Cl 0.99145(11) 0.80744(7) 1.17093(4)
Cl2 Cl 0.80112(11) 0.43371(7) 0.90638(4)
Cl3 Cl 1.19038(11) 0.55537(8) 0.94590(4)
Cl4 Cl 0.82698(11) 0.55696(8) 1.23325(4)
O1 O 1.1425(3) 0.7659(2) 1.03586(12)
O2 O 0.8648(3) 0.3490(2) 1.14036(12)
N1 N 0.8840(4) -0.1522(3) 0.80482(15)
C1 C 0.8295(5) -0.1544(3) 0.73411(18)
H1 H 0.7049 -0.1287 0.7306
H2 H 0.8426 -0.2386 0.7161
H3 H 0.9040 -0.0973 0.7078
C2 C 0.8933(4) -0.0413(3) 0.83904(17)
C3 C 0.9751(4) -0.0302(3) 0.90336(18)
H4 H 1.0279 -0.1010 0.9238
C4 C 0.9795(4) 0.0824(3) 0.93720(17)
H5 H 1.0370 0.0873 0.9801
C5 C 0.9012(4) 0.1897(3) 0.90977(16)
C6 C 0.9086(4) 0.3093(3) 0.94633(16)
C7 C 0.9821(4) 0.3289(3) 1.00733(16)
H6 H 1.0319 0.2588 1.0295
C8 C 0.9940(4) 0.4480(3) 1.04376(14)
C9 C 0.9216(4) 0.4464(3) 1.11452(15)
C10 C 0.9197(4) 0.5649(3) 1.15347(15)
C11 C 0.9888(4) 0.6694(3) 1.12742(16)
C12 C 0.8156(4) 0.0663(3) 0.81150(15)
H7 H 0.7602 0.0624 0.7681
C13 C 0.8185(5) 0.1773(3) 0.84652(15)
H8 H 0.7623 0.2476 0.8269
C14 C 0.9651(5) -0.2621(3) 0.8335(2)
H9 H 1.0941 -0.2507 0.8358
H10 H 0.9378 -0.3338 0.8047
H11 H 0.9182 -0.2762 0.8794
C15 C 1.0741(4) 0.5519(3) 1.02068(16)
C16 C 1.0750(4) 0.6707(3) 1.05882(17)
loop_
_geom_bond_atom_site_label_1
_geom_bond_atom_site_label_2
_geom_bond_site_symmetry_1
_geom_bond_site_symmetry_2
Cl1 C11 1_555 1_555
Cl2 C6 1_555 1_555
Cl3 C15 1_555 1_555
Cl4 C10 1_555 1_555
O1 C16 1_555 1_555
O2 C9 1_555 1_555
N1 C1 1_555 1_555
C1 H1 1_555 1_555
H2 C1 1_555 1_555
H3 C1 1_555 1_555
C2 N1 1_555 1_555
C3 C2 1_555 1_555
H4 C3 1_555 1_555
C4 C3 1_555 1_555
H5 C4 1_555 1_555
C5 C4 1_555 1_555
C6 C5 1_555 1_555
C7 C6 1_555 1_555
H6 C7 1_555 1_555
C8 C7 1_555 1_555
C9 C8 1_555 1_555
C10 C9 1_555 1_555
C11 C10 1_555 1_555
C12 C2 1_555 1_555
H7 C12 1_555 1_555
C13 C5 1_555 1_555
H8 C13 1_555 1_555
C14 N1 1_555 1_555
H9 C14 1_555 1_555
H10 C14 1_555 1_555
H11 C14 1_555 1_555
C15 C8 1_555 1_555
C16 C11 1_555 1_555
C12 C13 1_555 1_555
C15 C16 1_555 1_555

#END
