
#######################################################################
#
#                 Cambridge Crystallographic Data Centre
#                                CCDC 
#
#######################################################################
#
# If this CIF has been generated from an entry in the Cambridge 
# Structural Database, then it will include bibliographic, chemical, 
# crystal, experimental, refinement or atomic coordinate data resulting 
# from the CCDC's data processing and validation procedures.
#
#######################################################################

data_XAJYEP
_chemical_formula_moiety         'C26 H31 Cl3 N2 O2'
_chemical_name_systematic        
2,6-Dichloro-3-((Z)-2-chloro-2-(4-(diisopropylamino)phenyl)vinyl)-5-((E)-2-(diethylamino)vinyl)-1,4-benzoquinone
_symmetry_cell_setting           monoclinic
_symmetry_space_group_name_H-M   'P 21/c'
_symmetry_Int_Tables_number      14
_space_group_name_Hall           '-P 2ybc'
loop_
_symmetry_equiv_pos_site_id
_symmetry_equiv_pos_as_xyz
1 x,y,z
2 -x,1/2+y,1/2-z
3 -x,-y,-z
4 x,1/2-y,1/2+z
_cell_length_a                   12.691(4)
_cell_length_b                   12.657(3)
_cell_length_c                   16.055(4)
_cell_angle_alpha                90
_cell_angle_beta                 95.633(13)
_cell_angle_gamma                90
_cell_volume                     2566.46
_exptl_crystal_colour            'metallic black'
_exptl_crystal_description       prism
_chemical_melting_point          '154-155 deg.C'
_cell_formula_units_Z            4
loop_
_atom_site_label
_atom_site_type_symbol
_atom_site_fract_x
_atom_site_fract_y
_atom_site_fract_z
Cl1 Cl 0.32161(3) 0.57032(3) 0.95472(2)
Cl2 Cl 0.39259(3) 0.17649(3) 0.84339(2)
Cl3 Cl 0.63352(3) 0.16047(3) 0.96955(2)
O1 O 0.27919(9) 0.35026(9) 0.91113(7)
O2 O 0.64627(9) 0.46849(9) 0.80966(8)
N1 N 1.02391(10) -0.05967(10) 0.78094(8)
N2 N 0.66800(10) 0.76798(10) 0.89301(8)
C1 C 1.04795(16) 0.03378(16) 0.64563(13)
H1 H 0.9739 0.0523 0.6288
H2 H 1.0859 0.0258 0.5957
H3 H 1.0812 0.0899 0.6811
C2 C 1.05243(14) -0.07015(14) 0.69441(11)
H4 H 1.1287 -0.0913 0.7001
C3 C 0.93889(12) 0.00048(11) 0.80153(10)
C4 C 0.84897(12) 0.01821(12) 0.74446(10)
H5 H 0.8472 -0.0097 0.6894
C5 C 0.76306(12) 0.07543(11) 0.76679(10)
H6 H 0.7046 0.0872 0.7262
C6 C 0.76006(12) 0.11621(11) 0.84709(10)
C7 C 0.67090(12) 0.18168(11) 0.86855(10)
C8 C 0.62224(12) 0.25625(12) 0.82064(10)
H7 H 0.6427 0.2634 0.7656
C9 C 0.53992(12) 0.32860(11) 0.84475(9)
C10 C 0.56924(12) 0.44376(12) 0.84469(9)
C11 C 0.50152(12) 0.52378(12) 0.88454(9)
C12 C 0.53596(12) 0.63007(12) 0.89754(9)
H8 H 0.4883 0.6778 0.9199
C13 C 0.63313(13) 0.66943(12) 0.88027(10)
H9 H 0.6797 0.6214 0.8570
C14 C 0.60708(13) 0.84998(12) 0.93161(10)
H10 H 0.6567 0.9020 0.9599
H11 H 0.5670 0.8171 0.9747
C15 C 0.53034(14) 0.90704(13) 0.86849(11)
H12 H 0.5696 0.9404 0.8259
H13 H 0.4923 0.9613 0.8972
H14 H 0.4795 0.8563 0.8416
C16 C 0.85590(14) 0.78238(15) 0.94894(12)
H15 H 0.8382 0.8294 0.9940
H16 H 0.9266 0.7999 0.9333
H17 H 0.8551 0.7089 0.9682
C17 C 0.77533(13) 0.79620(13) 0.87372(11)
H18 H 0.7759 0.8706 0.8548
H19 H 0.7954 0.7512 0.8274
C18 C 0.40638(12) 0.48638(12) 0.90700(9)
C19 C 0.36653(12) 0.37978(12) 0.89418(9)
C20 C 0.44149(12) 0.30262(11) 0.86050(9)
C21 C 1.10781(13) -0.08789(13) 0.84744(11)
H20 H 1.0746 -0.0872 0.9014
C22 C 1.19680(13) -0.00598(13) 0.85584(11)
H21 H 1.2347 -0.0074 0.8056
H22 H 1.2461 -0.0225 0.9050
H23 H 1.1666 0.0645 0.8624
C23 C 1.14910(14) -0.19972(13) 0.83628(12)
H24 H 1.0896 -0.2494 0.8316
H25 H 1.1986 -0.2186 0.8847
H26 H 1.1856 -0.2030 0.7853
C24 C 0.99417(16) -0.15998(16) 0.64621(13)
H27 H 1.0014 -0.2249 0.6795
H28 H 1.0247 -0.1709 0.5931
H29 H 0.9190 -0.1419 0.6350
C25 C 0.93578(13) 0.04482(12) 0.88221(10)
H30 H 0.9956 0.0374 0.9223
C26 C 0.84806(12) 0.09850(12) 0.90405(10)
H31 H 0.8477 0.1241 0.9596
loop_
_geom_bond_atom_site_label_1
_geom_bond_atom_site_label_2
_geom_bond_site_symmetry_1
_geom_bond_site_symmetry_2
Cl1 C18 1_555 1_555
Cl2 C20 1_555 1_555
Cl3 C7 1_555 1_555
O1 C19 1_555 1_555
O2 C10 1_555 1_555
N1 C2 1_555 1_555
N2 C13 1_555 1_555
C1 H1 1_555 1_555
H2 C1 1_555 1_555
H3 C1 1_555 1_555
C2 C1 1_555 1_555
H4 C2 1_555 1_555
C3 N1 1_555 1_555
C4 C3 1_555 1_555
H5 C4 1_555 1_555
C5 C4 1_555 1_555
H6 C5 1_555 1_555
C6 C5 1_555 1_555
C7 C6 1_555 1_555
C8 C7 1_555 1_555
H7 C8 1_555 1_555
C9 C8 1_555 1_555
C10 C9 1_555 1_555
C11 C10 1_555 1_555
C12 C11 1_555 1_555
H8 C12 1_555 1_555
C13 C12 1_555 1_555
H9 C13 1_555 1_555
C14 N2 1_555 1_555
H10 C14 1_555 1_555
H11 C14 1_555 1_555
C15 C14 1_555 1_555
H12 C15 1_555 1_555
H13 C15 1_555 1_555
H14 C15 1_555 1_555
C16 H15 1_555 1_555
H16 C16 1_555 1_555
H17 C16 1_555 1_555
C17 N2 1_555 1_555
H18 C17 1_555 1_555
H19 C17 1_555 1_555
C18 C11 1_555 1_555
C19 C18 1_555 1_555
C20 C9 1_555 1_555
C21 N1 1_555 1_555
H20 C21 1_555 1_555
C22 C21 1_555 1_555
H21 C22 1_555 1_555
H22 C22 1_555 1_555
H23 C22 1_555 1_555
C23 C21 1_555 1_555
H24 C23 1_555 1_555
H25 C23 1_555 1_555
H26 C23 1_555 1_555
C24 C2 1_555 1_555
H27 C24 1_555 1_555
H28 C24 1_555 1_555
H29 C24 1_555 1_555
C25 C3 1_555 1_555
H30 C25 1_555 1_555
C26 C6 1_555 1_555
H31 C26 1_555 1_555
C16 C17 1_555 1_555
C19 C20 1_555 1_555
C25 C26 1_555 1_555

#END
