
#######################################################################
#
#                 Cambridge Crystallographic Data Centre
#                                CCDC 
#
#######################################################################
#
# If this CIF has been generated from an entry in the Cambridge 
# Structural Database, then it will include bibliographic, chemical, 
# crystal, experimental, refinement or atomic coordinate data resulting 
# from the CCDC's data processing and validation procedures.
#
#######################################################################

data_XAKFUN
_chemical_formula_moiety         'C56 H38 N12,2(C3 H7 N1 O1)'
_chemical_name_systematic        
'5,10,15,20-tetrakis(4-(1H-Pyrazol-1-yl)phenyl)porphyrin N,N-dimethylformamide solvate'
_symmetry_cell_setting           triclinic
_symmetry_space_group_name_H-M   'P -1'
_symmetry_Int_Tables_number      2
_space_group_name_Hall           '-P 1'
loop_
_symmetry_equiv_pos_site_id
_symmetry_equiv_pos_as_xyz
1 x,y,z
2 -x,-y,-z
_cell_length_a                   9.313(8)
_cell_length_b                   9.376(7)
_cell_length_c                   16.163(14)
_cell_angle_alpha                84.799(16)
_cell_angle_beta                 75.786(12)
_cell_angle_gamma                74.527(9)
_cell_volume                     1318.06
_exptl_crystal_colour            purple
_exptl_crystal_description       prism
_cell_formula_units_Z            1
loop_
_atom_site_label
_atom_site_type_symbol
_atom_site_fract_x
_atom_site_fract_y
_atom_site_fract_z
N1 N 0.6442(3) 0.8937(3) 0.08159(17)
N2 N 0.3220(3) 1.0525(3) 0.10204(17)
N3 N 1.5248(3) 0.5329(3) -0.11337(19)
N4 N 1.5718(4) 0.3937(4) -0.1447(2)
N5 N 0.3801(4) 0.7970(4) 0.57653(19)
N6 N 0.4657(5) 0.6662(4) 0.6011(2)
C1 C 0.1723(4) 1.1223(4) 0.1013(2)
C2 C 0.0762(4) 1.1206(5) 0.1858(2)
H1 H -0.0289 1.1618 0.2016
C3 C 0.1673(4) 1.0478(5) 0.2380(2)
H2 H 0.1368 1.0274 0.2961
C4 C 0.3192(4) 1.0086(4) 0.1863(2)
C5 C 0.4497(4) 0.9350(4) 0.2185(2)
C6 C 0.4253(4) 0.9001(4) 0.3123(2)
C7 C 0.3725(4) 1.0113(4) 0.3726(2)
H3 H 0.3489 1.1098 0.3540
C8 C 0.3542(5) 0.9786(4) 0.4596(2)
H4 H 0.3186 1.0544 0.4985
C9 C 0.3895(4) 0.8312(4) 0.4880(2)
C10 C 0.4408(5) 0.7196(4) 0.4294(2)
H5 H 0.4634 0.6211 0.4479
C11 C 0.4584(5) 0.7547(4) 0.3429(2)
H6 H 0.4935 0.6785 0.3042
C12 C 0.3003(5) 0.8809(5) 0.6443(2)
H7 H 0.2340 0.9744 0.6428
C13 C 0.3351(5) 0.8032(5) 0.7155(3)
H8 H 0.2980 0.8320 0.7720
C14 C 0.4364(6) 0.6735(5) 0.6856(3)
H9 H 0.4801 0.5987 0.7205
C15 C 0.5996(4) 0.8880(4) 0.1695(2)
C16 C 0.7350(4) 0.8244(4) 0.2002(2)
H10 H 0.7400 0.8092 0.2572
C17 C 0.8553(4) 0.7900(4) 0.1317(2)
H11 H 0.9565 0.7462 0.1337
C18 C 0.7990(4) 0.8327(4) 0.0560(2)
C19 C 0.8855(4) 0.8195(4) -0.0289(2)
C20 C 1.0526(4) 0.7412(4) -0.0444(2)
C21 C 1.1594(4) 0.8028(4) -0.0248(3)
H12 H 1.1263 0.8928 0.0026
C22 C 1.3147(4) 0.7335(4) -0.0452(2)
H13 H 1.3847 0.7769 -0.0317
C23 C 1.3645(4) 0.5998(4) -0.0855(2)
C24 C 1.2606(4) 0.5330(4) -0.1025(2)
H14 H 1.2937 0.4409 -0.1277
C25 C 1.1064(4) 0.6038(4) -0.0818(2)
H15 H 1.0367 0.5579 -0.0933
C26 C 1.6444(5) 0.5935(5) -0.1220(3)
H16 H 1.6404 0.6870 -0.1052
C27 C 1.7730(5) 0.4899(5) -0.1605(3)
H17 H 1.8733 0.4989 -0.1756
C28 C 1.7216(5) 0.3703(5) -0.1720(3)
H18 H 1.7853 0.2826 -0.1963
N1A N 0.3558(3) 1.1063(3) -0.08159(17)
N2A N 0.6780(3) 0.9475(3) -0.10204(17)
N3A N -0.5248(3) 1.4671(3) 0.11337(19)
N4A N -0.5718(4) 1.6063(4) 0.1447(2)
N5A N 0.6199(4) 1.2030(4) -0.57653(19)
N6A N 0.5343(5) 1.3338(4) -0.6011(2)
C1A C 0.8277(4) 0.8777(4) -0.1013(2)
C2A C 0.9238(4) 0.8794(5) -0.1858(2)
H1A H 1.0289 0.8382 -0.2016
C3A C 0.8327(4) 0.9522(5) -0.2380(2)
H2A H 0.8632 0.9726 -0.2961
C4A C 0.6808(4) 0.9914(4) -0.1863(2)
C5A C 0.5503(4) 1.0650(4) -0.2185(2)
C6A C 0.5747(4) 1.0999(4) -0.3123(2)
C7A C 0.6275(4) 0.9887(4) -0.3726(2)
H3A H 0.6511 0.8902 -0.3540
C8A C 0.6458(5) 1.0214(4) -0.4596(2)
H4A H 0.6814 0.9456 -0.4985
C9A C 0.6105(4) 1.1688(4) -0.4880(2)
C10A C 0.5592(5) 1.2804(4) -0.4294(2)
H5A H 0.5366 1.3789 -0.4479
C11A C 0.5416(5) 1.2453(4) -0.3429(2)
H6A H 0.5065 1.3215 -0.3042
C12A C 0.6997(5) 1.1191(5) -0.6443(2)
H7A H 0.7660 1.0256 -0.6428
C13A C 0.6649(5) 1.1968(5) -0.7155(3)
H8A H 0.7020 1.1680 -0.7720
C14A C 0.5636(6) 1.3265(5) -0.6856(3)
H9A H 0.5199 1.4013 -0.7205
C15A C 0.4004(4) 1.1120(4) -0.1695(2)
C16A C 0.2650(4) 1.1756(4) -0.2002(2)
H10A H 0.2600 1.1908 -0.2572
C17A C 0.1447(4) 1.2100(4) -0.1317(2)
H11A H 0.0435 1.2538 -0.1337
C18A C 0.2010(4) 1.1673(4) -0.0560(2)
C19A C 0.1145(4) 1.1805(4) 0.0289(2)
C20A C -0.0526(4) 1.2588(4) 0.0444(2)
C21A C -0.1594(4) 1.1972(4) 0.0248(3)
H12A H -0.1263 1.1072 -0.0026
C22A C -0.3147(4) 1.2665(4) 0.0452(2)
H13A H -0.3847 1.2231 0.0317
C23A C -0.3645(4) 1.4002(4) 0.0855(2)
C24A C -0.2606(4) 1.4670(4) 0.1025(2)
H14A H -0.2937 1.5591 0.1277
C25A C -0.1064(4) 1.3962(4) 0.0818(2)
H15A H -0.0367 1.4421 0.0933
C26A C -0.6444(5) 1.4065(5) 0.1220(3)
H16A H -0.6404 1.3130 0.1052
C27A C -0.7730(5) 1.5101(5) 0.1605(3)
H17A H -0.8733 1.5011 0.1756
C28A C -0.7216(5) 1.6297(5) 0.1720(3)
H18A H -0.7853 1.7174 0.1963
N7 N 0.9960(8) 0.5180(7) 0.3844(4)
C29 C 0.8509(13) 0.4985(17) 0.3834(8)
H19 H 0.8558 0.3947 0.3857
H20 H 0.8222 0.5426 0.3320
H21 H 0.7762 0.5450 0.4320
C30 C 1.1309(12) 0.4108(11) 0.3857(5)
H22 H 1.2083 0.4574 0.3909
H23 H 1.1641 0.3572 0.3336
H24 H 1.1136 0.3437 0.4333
C31 C 0.9987(11) 0.6584(12) 0.3841(5)
H25 H 1.0914 0.6771 0.3849
O1 O 0.8906(7) 0.7659(6) 0.3827(3)
loop_
_geom_bond_atom_site_label_1
_geom_bond_atom_site_label_2
_geom_bond_site_symmetry_1
_geom_bond_site_symmetry_2
N1 C15 1_555 1_555
N2 C1 1_555 1_555
N3 N4 1_555 1_555
N4 C28 1_555 1_555
N5 N6 1_555 1_555
N6 C14 1_555 1_555
C1 C2 1_555 1_555
C2 H1 1_555 1_555
C3 C2 1_555 1_555
H2 C3 1_555 1_555
C4 N2 1_555 1_555
C5 C4 1_555 1_555
C6 C5 1_555 1_555
C7 C6 1_555 1_555
H3 C7 1_555 1_555
C8 C7 1_555 1_555
H4 C8 1_555 1_555
C9 N5 1_555 1_555
C10 C9 1_555 1_555
H5 C10 1_555 1_555
C11 C6 1_555 1_555
H6 C11 1_555 1_555
C12 N5 1_555 1_555
H7 C12 1_555 1_555
C13 C12 1_555 1_555
H8 C13 1_555 1_555
C14 C13 1_555 1_555
H9 C14 1_555 1_555
C15 C5 1_555 1_555
C16 C15 1_555 1_555
H10 C16 1_555 1_555
C17 C16 1_555 1_555
H11 C17 1_555 1_555
C18 N1 1_555 1_555
C19 C18 1_555 1_555
C20 C19 1_555 1_555
C21 C20 1_555 1_555
H12 C21 1_555 1_555
C22 C21 1_555 1_555
H13 C22 1_555 1_555
C23 N3 1_555 1_555
C24 C23 1_555 1_555
H14 C24 1_555 1_555
C25 C20 1_555 1_555
H15 C25 1_555 1_555
C26 N3 1_555 1_555
H16 C26 1_555 1_555
C27 C26 1_555 1_555
H17 C27 1_555 1_555
C28 C27 1_555 1_555
H18 C28 1_555 1_555
N7 C29 1_555 1_555
C29 H19 1_555 1_555
H20 C29 1_555 1_555
H21 C29 1_555 1_555
C30 N7 1_555 1_555
H22 C30 1_555 1_555
H23 C30 1_555 1_555
H24 C30 1_555 1_555
C31 N7 1_555 1_555
H25 C31 1_555 1_555
O1 C31 1_555 1_555
N1A C15A 1_555 1_555
N2A C1A 1_555 1_555
N3A N4A 1_555 1_555
N4A C28A 1_555 1_555
N5A N6A 1_555 1_555
N6A C14A 1_555 1_555
C1A C19 1_555 1_555
C2A C1A 1_555 1_555
H1A C2A 1_555 1_555
C3A C2A 1_555 1_555
H2A C3A 1_555 1_555
C4A N2A 1_555 1_555
C5A C4A 1_555 1_555
C6A C5A 1_555 1_555
C7A C6A 1_555 1_555
H3A C7A 1_555 1_555
C8A C7A 1_555 1_555
H4A C8A 1_555 1_555
C9A N5A 1_555 1_555
C10A C9A 1_555 1_555
H5A C10A 1_555 1_555
C11A C6A 1_555 1_555
H6A C11A 1_555 1_555
C12A N5A 1_555 1_555
H7A C12A 1_555 1_555
C13A C12A 1_555 1_555
H8A C13A 1_555 1_555
C14A C13A 1_555 1_555
H9A C14A 1_555 1_555
C15A C5A 1_555 1_555
C16A C15A 1_555 1_555
H10A C16A 1_555 1_555
C17A C16A 1_555 1_555
H11A C17A 1_555 1_555
C18A N1A 1_555 1_555
C19A C1 1_555 1_555
C20A C19A 1_555 1_555
C21A C20A 1_555 1_555
H12A C21A 1_555 1_555
C22A C21A 1_555 1_555
H13A C22A 1_555 1_555
C23A N3A 1_555 1_555
C24A C23A 1_555 1_555
H14A C24A 1_555 1_555
C25A C20A 1_555 1_555
H15A C25A 1_555 1_555
C26A N3A 1_555 1_555
H16A C26A 1_555 1_555
C27A C26A 1_555 1_555
H17A C27A 1_555 1_555
C28A C27A 1_555 1_555
H18A C28A 1_555 1_555
C3 C4 1_555 1_555
C8 C9 1_555 1_555
C10 C11 1_555 1_555
C17 C18 1_555 1_555
C22 C23 1_555 1_555
C24 C25 1_555 1_555
C3A C4A 1_555 1_555
C8A C9A 1_555 1_555
C10A C11A 1_555 1_555
C17A C18A 1_555 1_555
C18A C19A 1_555 1_555
C22A C23A 1_555 1_555
C24A C25A 1_555 1_555

#END
