
#######################################################################
#
#                 Cambridge Crystallographic Data Centre
#                                CCDC 
#
#######################################################################
#
# If this CIF has been generated from an entry in the Cambridge 
# Structural Database, then it will include bibliographic, chemical, 
# crystal, experimental, refinement or atomic coordinate data resulting 
# from the CCDC's data processing and validation procedures.
#
#######################################################################

data_XAKFEX
_chemical_formula_moiety         'C39 H28 N2 O4 S1'
_chemical_name_systematic        
2,7-bis(Phenoxazin-10-yl)-9,9-dimethylthioxanthene-S,S-dioxide
_symmetry_cell_setting           triclinic
_symmetry_space_group_name_H-M   'P -1'
_symmetry_Int_Tables_number      2
_space_group_name_Hall           '-P 1'
loop_
_symmetry_equiv_pos_site_id
_symmetry_equiv_pos_as_xyz
1 x,y,z
2 -x,-y,-z
_cell_length_a                   9.4809(4)
_cell_length_b                   12.3964(5)
_cell_length_c                   12.9136(5)
_cell_angle_alpha                83.4164(14)
_cell_angle_beta                 84.3822(14)
_cell_angle_gamma                75.5048(14)
_cell_volume                     1455.94
_exptl_crystal_colour            yellow
_exptl_crystal_description       tablet
_chemical_melting_point          '622 K'
_cell_formula_units_Z            2
_exptl_crystal_recrystallization_method 
2-methyltetrahydrofuran/dichloromethane
loop_
_atom_site_label
_atom_site_type_symbol
_atom_site_fract_x
_atom_site_fract_y
_atom_site_fract_z
S1 S 0.36073(4) 0.77236(3) 0.01108(2)
O1 O 0.25087(11) 0.87064(8) -0.02061(8)
O2 O 0.46928(11) 0.72525(9) -0.06818(7)
O3 O -0.10265(12) 0.28543(9) 0.32335(9)
O4 O 0.81606(12) 0.89395(10) 0.52383(8)
N1 N 0.05148(14) 0.43716(10) 0.21894(10)
N2 N 0.65415(13) 0.88205(10) 0.35652(9)
C1 C 0.27588(14) 0.66859(11) 0.07286(10)
C2 C 0.14146(15) 0.66814(12) 0.03901(11)
H1 H 0.1005 0.7208 -0.0160
C3 C 0.06776(16) 0.58994(12) 0.08634(11)
H2 H -0.0242 0.5882 0.0642
C4 C 0.13001(16) 0.51473(12) 0.16613(11)
C5 C 0.26559(15) 0.51465(11) 0.19833(10)
H3 H 0.3068 0.4604 0.2521
C6 C 0.34265(14) 0.59280(11) 0.15316(10)
C7 C 0.49181(14) 0.59395(11) 0.18934(10)
C8 C 0.50384(14) 0.71488(11) 0.19172(10)
C9 C 0.57323(14) 0.74560(11) 0.27015(10)
H4 H 0.6149 0.6901 0.3229
C10 C 0.58310(15) 0.85536(11) 0.27314(10)
C11 C 0.52583(15) 0.93840(11) 0.19667(10)
H5 H 0.5341 1.0130 0.1984
C12 C 0.45644(15) 0.91055(11) 0.11780(10)
H6 H 0.4149 0.9665 0.0654
C13 C 0.44764(14) 0.80055(11) 0.11540(10)
C14 C 0.51556(17) 0.53013(12) 0.29743(11)
H7 H 0.6128 0.5296 0.3173
H8 H 0.5079 0.4530 0.2953
H9 H 0.4414 0.5669 0.3488
C15 C 0.61372(16) 0.53259(12) 0.11296(12)
H10 H 0.6010 0.5694 0.0420
H11 H 0.6083 0.4545 0.1143
H12 H 0.7091 0.5349 0.1344
C16 C 0.07559(15) 0.32964(11) 0.18683(10)
C17 C -0.00481(15) 0.25619(11) 0.23866(11)
C18 C 0.01000(16) 0.15163(12) 0.20670(12)
H13 H -0.0465 0.1034 0.2420
C19 C 0.10766(18) 0.11667(12) 0.12276(13)
H14 H 0.1170 0.0450 0.0997
C20 C 0.19140(16) 0.18695(12) 0.07291(12)
H15 H 0.2597 0.1627 0.0164
C21 C 0.17595(15) 0.29258(12) 0.10515(11)
H16 H 0.2346 0.3399 0.0710
C22 C -0.03797(15) 0.46477(11) 0.30966(10)
C23 C -0.11027(15) 0.38636(11) 0.36210(11)
C24 C -0.19651(16) 0.40856(12) 0.45302(11)
H17 H -0.2431 0.3539 0.4885
C25 C -0.21516(16) 0.51134(13) 0.49267(11)
H18 H -0.2752 0.5274 0.5550
C26 C -0.14625(16) 0.58991(12) 0.44121(11)
H19 H -0.1594 0.6602 0.4682
C27 C -0.05770(15) 0.56696(11) 0.35021(11)
H20 H -0.0104 0.6215 0.3155
C28 C 0.80485(15) 0.87872(11) 0.33957(11)
C29 C 0.88332(16) 0.88386(12) 0.42438(11)
C30 C 1.03046(17) 0.88001(13) 0.41221(13)
H21 H 1.0815 0.8838 0.4709
C31 C 1.10417(17) 0.87050(13) 0.31392(13)
H22 H 1.2056 0.8677 0.3050
C32 C 1.02831(17) 0.86515(12) 0.22954(12)
H23 H 1.0782 0.8587 0.1622
C33 C 0.88031(16) 0.86907(12) 0.24163(11)
H24 H 0.8299 0.8651 0.1826
C34 C 0.59914(15) 0.86099(11) 0.46080(10)
C35 C 0.68401(15) 0.86365(12) 0.54224(11)
C36 C 0.63885(18) 0.83885(13) 0.64509(11)
H25 H 0.6999 0.8388 0.6992
C37 C 0.50395(19) 0.81392(13) 0.66929(12)
H26 H 0.4730 0.7952 0.7398
C38 C 0.41528(19) 0.81660(14) 0.59017(12)
H27 H 0.3212 0.8025 0.6067
C39 C 0.46214(17) 0.83970(13) 0.48631(11)
H28 H 0.4001 0.8409 0.4325
loop_
_geom_bond_atom_site_label_1
_geom_bond_atom_site_label_2
_geom_bond_site_symmetry_1
_geom_bond_site_symmetry_2
S1 O1 1_555 1_555
O2 S1 1_555 1_555
O3 C17 1_555 1_555
O4 C29 1_555 1_555
N1 C4 1_555 1_555
N2 C10 1_555 1_555
C1 S1 1_555 1_555
C2 C1 1_555 1_555
H1 C2 1_555 1_555
C3 C2 1_555 1_555
H2 C3 1_555 1_555
C4 C3 1_555 1_555
C5 C4 1_555 1_555
H3 C5 1_555 1_555
C6 C1 1_555 1_555
C7 C6 1_555 1_555
C8 C7 1_555 1_555
C9 C8 1_555 1_555
H4 C9 1_555 1_555
C10 C9 1_555 1_555
C11 C10 1_555 1_555
H5 C11 1_555 1_555
C12 C11 1_555 1_555
H6 C12 1_555 1_555
C13 S1 1_555 1_555
C14 C7 1_555 1_555
H7 C14 1_555 1_555
H8 C14 1_555 1_555
H9 C14 1_555 1_555
C15 C7 1_555 1_555
H10 C15 1_555 1_555
H11 C15 1_555 1_555
H12 C15 1_555 1_555
C16 N1 1_555 1_555
C17 C16 1_555 1_555
C18 C17 1_555 1_555
H13 C18 1_555 1_555
C19 C18 1_555 1_555
H14 C19 1_555 1_555
C20 C19 1_555 1_555
H15 C20 1_555 1_555
C21 C16 1_555 1_555
H16 C21 1_555 1_555
C22 N1 1_555 1_555
C23 O3 1_555 1_555
C24 C23 1_555 1_555
H17 C24 1_555 1_555
C25 C24 1_555 1_555
H18 C25 1_555 1_555
C26 C25 1_555 1_555
H19 C26 1_555 1_555
C27 C22 1_555 1_555
H20 C27 1_555 1_555
C28 N2 1_555 1_555
C29 C28 1_555 1_555
C30 C29 1_555 1_555
H21 C30 1_555 1_555
C31 C30 1_555 1_555
H22 C31 1_555 1_555
C32 C31 1_555 1_555
H23 C32 1_555 1_555
C33 C28 1_555 1_555
H24 C33 1_555 1_555
C34 N2 1_555 1_555
C35 O4 1_555 1_555
C36 C35 1_555 1_555
H25 C36 1_555 1_555
C37 C36 1_555 1_555
H26 C37 1_555 1_555
C38 C37 1_555 1_555
H27 C38 1_555 1_555
C39 C34 1_555 1_555
H28 C39 1_555 1_555
C5 C6 1_555 1_555
C8 C13 1_555 1_555
C12 C13 1_555 1_555
C20 C21 1_555 1_555
C22 C23 1_555 1_555
C26 C27 1_555 1_555
C32 C33 1_555 1_555
C34 C35 1_555 1_555
C38 C39 1_555 1_555

#END
