
#######################################################################
#
#                 Cambridge Crystallographic Data Centre
#                                CCDC 
#
#######################################################################
#
# If this CIF has been generated from an entry in the Cambridge 
# Structural Database, then it will include bibliographic, chemical, 
# crystal, experimental, refinement or atomic coordinate data resulting 
# from the CCDC's data processing and validation procedures.
#
#######################################################################

data_XAKJIF
_chemical_formula_moiety         'C20 H17 N1 O2 S1'
_chemical_name_systematic        
'11-phenyl-6a,9,10,10a-tetrahydroindolo[1,2-b][1,2]benzothiazole 5,5-dioxide'
_symmetry_cell_setting           triclinic
_symmetry_space_group_name_H-M   'P 1'
_symmetry_Int_Tables_number      1
_space_group_name_Hall           'P 1'
loop_
_symmetry_equiv_pos_site_id
_symmetry_equiv_pos_as_xyz
1 x,y,z
_cell_length_a                   9.2710(4)
_cell_length_b                   9.8746(5)
_cell_length_c                   9.9341(5)
_cell_angle_alpha                74.063(5)
_cell_angle_beta                 72.836(4)
_cell_angle_gamma                83.351(4)
_cell_volume                     834.942
_exptl_crystal_colour            colorless
_exptl_crystal_description       block
_cell_formula_units_Z            2
loop_
_atom_site_label
_atom_site_type_symbol
_atom_site_fract_x
_atom_site_fract_y
_atom_site_fract_z
S1 S 0.30640(8) 0.77692(8) 0.73640(8)
O1 O 0.2691(3) 0.6647(3) 0.8656(3)
O2 O 0.2173(3) 0.9052(3) 0.7388(3)
N1 N 0.4885(3) 0.8074(3) 0.6861(2)
C1 C 0.3176(3) 0.7237(3) 0.5788(3)
C2 C 0.1986(4) 0.6732(3) 0.5493(4)
H1 H 0.1072 0.6527 0.6203
C3 C 0.2201(4) 0.6547(4) 0.4118(5)
H2 H 0.1428 0.6214 0.3889
C4 C 0.3576(4) 0.6859(4) 0.3080(4)
H3 H 0.3704 0.6743 0.2153
C5 C 0.4761(3) 0.7336(3) 0.3383(3)
H4 H 0.5679 0.7520 0.2675
C6 C 0.4565(3) 0.7541(3) 0.4765(3)
C7 C 0.5552(3) 0.8153(3) 0.5329(3)
C8 C 0.6791(3) 0.8924(3) 0.4814(3)
C9 C 0.7016(3) 0.9448(3) 0.6033(3)
H5 H 0.7263 1.0445 0.5680
C10 C 0.5461(3) 0.9275(3) 0.7169(3)
H6 H 0.4827 1.0117 0.6912
C11 C 0.5501(4) 0.9084(4) 0.8701(3)
H7 H 0.4594 0.9012 0.9432
C12 C 0.6777(5) 0.9013(4) 0.9057(4)
H8 H 0.6715 0.8971 1.0019
C13 C 0.8303(4) 0.8994(4) 0.8024(4)
H9 H 0.8963 0.8326 0.8502
H10 H 0.8720 0.9920 0.7741
C14 C 0.8243(3) 0.8590(4) 0.6683(3)
H11 H 0.8046 0.7595 0.6934
H12 H 0.9216 0.8744 0.5960
C15 C 0.7918(3) 0.9161(3) 0.3372(3)
C16 C 0.8539(3) 0.8060(3) 0.2729(3)
H13 H 0.8208 0.7150 0.3186
C17 C 0.9652(3) 0.8313(4) 0.1408(3)
H14 H 1.0064 0.7569 0.0992
C18 C 1.0148(3) 0.9646(4) 0.0710(3)
H15 H 1.0883 0.9809 -0.0181
C19 C 0.9554(4) 1.0737(4) 0.1335(3)
H16 H 0.9887 1.1644 0.0864
C20 C 0.8465(3) 1.0500(3) 0.2662(3)
H17 H 0.8092 1.1246 0.3086
S2 S 0.74203(9) 1.37707(8) -0.37946(8)
O3 O 0.8392(3) 1.2535(2) -0.3844(2)
O4 O 0.8006(3) 1.5041(3) -0.4820(3)
N2 N 0.6834(3) 1.3991(2) -0.2126(2)
C21 C 0.5601(4) 1.3458(3) -0.3805(3)
C22 C 0.5186(5) 1.3294(4) -0.4972(4)
H18 H 0.5879 1.3419 -0.5886
C23 C 0.3754(6) 1.2948(4) -0.4764(4)
H19 H 0.3457 1.2842 -0.5544
C24 C 0.2718(5) 1.2749(4) -0.3393(4)
H20 H 0.1743 1.2492 -0.3261
C25 C 0.3129(4) 1.2929(3) -0.2227(4)
H21 H 0.2431 1.2814 -0.1316
C26 C 0.4600(3) 1.3287(3) -0.2433(3)
C27 C 0.5346(3) 1.3458(3) -0.1388(3)
C28 C 0.5118(3) 1.3121(3) 0.0052(3)
C29 C 0.6527(3) 1.3422(3) 0.0381(3)
H22 H 0.6759 1.2645 0.1154
C30 C 0.7754(3) 1.3466(3) -0.1067(3)
H23 H 0.8136 1.2504 -0.1097
C31 C 0.9049(3) 1.4359(3) -0.1310(4)
H24 H 0.9834 1.4424 -0.2160
C32 C 0.9136(4) 1.5056(4) -0.0387(4)
H25 H 1.0023 1.5511 -0.0568
C33 C 0.7891(4) 1.5159(4) 0.0934(4)
H26 H 0.7814 1.6108 0.1056
H27 H 0.8114 1.4516 0.1787
C34 C 0.6396(3) 1.4796(3) 0.0802(3)
H28 H 0.5633 1.4730 0.1726
H29 H 0.6075 1.5545 0.0074
C35 C 0.3724(3) 1.2634(3) 0.1230(3)
C36 C 0.2490(3) 1.3549(3) 0.1542(3)
H30 H 0.2484 1.4458 0.0948
C37 C 0.1261(3) 1.3110(4) 0.2740(3)
H31 H 0.0448 1.3734 0.2957
C38 C 0.1242(4) 1.1764(4) 0.3602(3)
H32 H 0.0416 1.1472 0.4400
C39 C 0.2442(4) 1.0852(4) 0.3284(4)
H33 H 0.2421 0.9930 0.3855
C40 C 0.3687(3) 1.1290(3) 0.2120(3)
H34 H 0.4511 1.0668 0.1936
loop_
_geom_bond_atom_site_label_1
_geom_bond_atom_site_label_2
_geom_bond_site_symmetry_1
_geom_bond_site_symmetry_2
S1 O1 1_555 1_555
O2 S1 1_555 1_555
N1 S1 1_555 1_555
C1 S1 1_555 1_555
C2 C1 1_555 1_555
H1 C2 1_555 1_555
C3 C2 1_555 1_555
H2 C3 1_555 1_555
C4 C3 1_555 1_555
H3 C4 1_555 1_555
C5 C4 1_555 1_555
H4 C5 1_555 1_555
C6 C1 1_555 1_555
C7 N1 1_555 1_555
C8 C7 1_555 1_555
C9 C8 1_555 1_555
H5 C9 1_555 1_555
C10 N1 1_555 1_555
H6 C10 1_555 1_555
C11 C10 1_555 1_555
H7 C11 1_555 1_555
C12 C11 1_555 1_555
H8 C12 1_555 1_555
C13 C12 1_555 1_555
H9 C13 1_555 1_555
H10 C13 1_555 1_555
C14 C9 1_555 1_555
H11 C14 1_555 1_555
H12 C14 1_555 1_555
C15 C8 1_555 1_555
C16 C15 1_555 1_555
H13 C16 1_555 1_555
C17 C16 1_555 1_555
H14 C17 1_555 1_555
C18 C17 1_555 1_555
H15 C18 1_555 1_555
C19 C18 1_555 1_555
H16 C19 1_555 1_555
C20 C15 1_555 1_555
H17 C20 1_555 1_555
S2 O3 1_555 1_555
O4 S2 1_555 1_555
N2 S2 1_555 1_555
C21 S2 1_555 1_555
C22 C21 1_555 1_555
H18 C22 1_555 1_555
C23 C22 1_555 1_555
H19 C23 1_555 1_555
C24 C23 1_555 1_555
H20 C24 1_555 1_555
C25 C24 1_555 1_555
H21 C25 1_555 1_555
C26 C21 1_555 1_555
C27 N2 1_555 1_555
C28 C27 1_555 1_555
C29 C28 1_555 1_555
H22 C29 1_555 1_555
C30 N2 1_555 1_555
H23 C30 1_555 1_555
C31 C30 1_555 1_555
H24 C31 1_555 1_555
C32 C31 1_555 1_555
H25 C32 1_555 1_555
C33 C32 1_555 1_555
H26 C33 1_555 1_555
H27 C33 1_555 1_555
C34 C29 1_555 1_555
H28 C34 1_555 1_555
H29 C34 1_555 1_555
C35 C28 1_555 1_555
C36 C35 1_555 1_555
H30 C36 1_555 1_555
C37 C36 1_555 1_555
H31 C37 1_555 1_555
C38 C37 1_555 1_555
H32 C38 1_555 1_555
C39 C38 1_555 1_555
H33 C39 1_555 1_555
C40 C35 1_555 1_555
H34 C40 1_555 1_555
C5 C6 1_555 1_555
C6 C7 1_555 1_555
C9 C10 1_555 1_555
C13 C14 1_555 1_555
C19 C20 1_555 1_555
C25 C26 1_555 1_555
C26 C27 1_555 1_555
C29 C30 1_555 1_555
C33 C34 1_555 1_555
C39 C40 1_555 1_555

#END
