
#######################################################################
#
#                 Cambridge Crystallographic Data Centre
#                                CCDC 
#
#######################################################################
#
# If this CIF has been generated from an entry in the Cambridge 
# Structural Database, then it will include bibliographic, chemical, 
# crystal, experimental, refinement or atomic coordinate data resulting 
# from the CCDC's data processing and validation procedures.
#
#######################################################################

data_XAKJAV
_chemical_formula_moiety         'C12 H22 O2'
_chemical_name_systematic        
endo,endo-2,3-Dihydroxy-1,3,8,8-tetramethylbicyclo(3.2.1)octane
_symmetry_cell_setting           orthorhombic
_symmetry_space_group_name_H-M   'P 21 21 21'
_symmetry_Int_Tables_number      19
_space_group_name_Hall           'P 2ac 2ab'
loop_
_symmetry_equiv_pos_site_id
_symmetry_equiv_pos_as_xyz
1 x,y,z
2 1/2-x,-y,1/2+z
3 -x,1/2+y,1/2-z
4 1/2+x,1/2-y,-z
_cell_length_a                   8.7140(2)
_cell_length_b                   9.6270(2)
_cell_length_c                   14.6190(4)
_cell_angle_alpha                90
_cell_angle_beta                 90
_cell_angle_gamma                90
_cell_volume                     1226.38
_cell_formula_units_Z            4
loop_
_atom_site_label
_atom_site_type_symbol
_atom_site_fract_x
_atom_site_fract_y
_atom_site_fract_z
O1 O 0.5489(2) 0.8702(2) 0.76501(12)
H1 H 0.4964(2) 0.7999(2) 0.76971(12)
O2 O 0.6163(2) 1.1234(2) 0.73817(11)
H2 H 0.5254(2) 1.1295(2) 0.72426(11)
C1 C 0.7986(2) 1.0741(2) 0.85947(14)
C2 C 0.6292(2) 1.0858(2) 0.83263(14)
H3 H 0.5832(2) 1.1603(2) 0.86917(14)
C3 C 0.5329(2) 0.9533(2) 0.8470(2)
C4 C 0.5871(3) 0.8665(3) 0.9274(2)
H4 H 0.5586(3) 0.7705(3) 0.9165(2)
H5 H 0.5331(3) 0.8971(3) 0.9818(2)
C5 C 0.7586(3) 0.8723(2) 0.9462(2)
H6 H 0.7840(3) 0.8166(2) 1.0002(2)
C6 C 0.8519(4) 0.8240(3) 0.8641(2)
H7 H 0.7960(4) 0.7549(3) 0.8292(2)
H8 H 0.9490(4) 0.7846(3) 0.8835(2)
C7 C 0.8774(3) 0.9554(3) 0.8075(2)
H9 H 0.8328(3) 0.9449(3) 0.7471(2)
H10 H 0.9862(3) 0.9740(3) 0.8008(2)
C8 C 0.8097(3) 1.0231(2) 0.95996(15)
C9 C 0.7146(4) 1.1045(3) 1.0290(2)
H11 H 0.7538(4) 1.1975(3) 1.0336(2)
H12 H 0.7205(4) 1.0601(3) 1.0877(2)
H13 H 0.6096(4) 1.1074(3) 1.0092(2)
C10 C 0.9759(4) 1.0276(3) 0.9969(2)
H14 H 1.0423(4) 0.9777(3) 0.9561(2)
H15 H 0.9793(4) 0.9856(3) 1.0564(2)
H16 H 1.0093(4) 1.1224(3) 1.0010(2)
C11 C 0.8732(4) 1.2161(3) 0.8434(2)
H17 H 0.9798(4) 1.2117(3) 0.8597(2)
H18 H 0.8228(4) 1.2847(3) 0.8804(2)
H19 H 0.8638(4) 1.2409(3) 0.7801(2)
C12 C 0.3631(3) 0.9905(4) 0.8563(3)
H20 H 0.3319(3) 1.0453(4) 0.8047(3)
H21 H 0.3476(3) 1.0427(4) 0.9115(3)
H22 H 0.3031(3) 0.9069(4) 0.8585(3)
loop_
_geom_bond_atom_site_label_1
_geom_bond_atom_site_label_2
_geom_bond_site_symmetry_1
_geom_bond_site_symmetry_2
O1 H1 1_555 1_555
O2 H2 1_555 1_555
C1 C2 1_555 1_555
C2 O2 1_555 1_555
H3 C2 1_555 1_555
C3 O1 1_555 1_555
C4 C3 1_555 1_555
H4 C4 1_555 1_555
H5 C4 1_555 1_555
C5 C4 1_555 1_555
H6 C5 1_555 1_555
C6 C5 1_555 1_555
H7 C6 1_555 1_555
H8 C6 1_555 1_555
C7 C1 1_555 1_555
H9 C7 1_555 1_555
H10 C7 1_555 1_555
C8 C1 1_555 1_555
C9 C8 1_555 1_555
H11 C9 1_555 1_555
H12 C9 1_555 1_555
H13 C9 1_555 1_555
C10 C8 1_555 1_555
H14 C10 1_555 1_555
H15 C10 1_555 1_555
H16 C10 1_555 1_555
C11 C1 1_555 1_555
H17 C11 1_555 1_555
H18 C11 1_555 1_555
H19 C11 1_555 1_555
C12 C3 1_555 1_555
H20 C12 1_555 1_555
H21 C12 1_555 1_555
H22 C12 1_555 1_555
C2 C3 1_555 1_555
C5 C8 1_555 1_555
C6 C7 1_555 1_555

#END
