
#######################################################################
#
#                 Cambridge Crystallographic Data Centre
#                                CCDC 
#
#######################################################################
#
# If this CIF has been generated from an entry in the Cambridge 
# Structural Database, then it will include bibliographic, chemical, 
# crystal, experimental, refinement or atomic coordinate data resulting 
# from the CCDC's data processing and validation procedures.
#
#######################################################################

data_XAKKUS
_chemical_compound_source        'leaves of Psidium guajava L.'
_chemical_name_common            'guajavadimier chloroform solvate'
_chemical_formula_moiety         'C61 H70 O8,C1 H1 Cl3'
_chemical_name_systematic        
"8-((5,7-dihydroxy-8-methyl-4-oxo-2-phenyl-3,4-dihydro-2H-chromen-6-yl)(phenyl)methyl)-7-hydroxy-2,2,4a,9a,12,12-hexamethyl-14,19-bis(methylene)-2,2a,3,4,4a,9a,10,11,11a,12,13,13a,14,15,16,16a,16b,16c,17,18,19,19a-docosahydro-1H-cyclobuta[6,7]cyclonona[1,2-b]cyclobuta[5',6']cyclonona[1',2':5,6]pyrano[4,3,2-de]chromene-6-carbaldehyde chloroform solvate"
_symmetry_cell_setting           orthorhombic
_symmetry_space_group_name_H-M   'P 21 21 21'
_symmetry_Int_Tables_number      19
_space_group_name_Hall           'P 2ac 2ab'
loop_
_symmetry_equiv_pos_site_id
_symmetry_equiv_pos_as_xyz
1 x,y,z
2 1/2-x,-y,1/2+z
3 1/2+x,1/2-y,-z
4 -x,1/2+y,1/2-z
_cell_length_a                   10.3434(4)
_cell_length_b                   17.0470(8)
_cell_length_c                   30.5673(13)
_cell_angle_alpha                90
_cell_angle_beta                 90
_cell_angle_gamma                90
_cell_volume                     5389.75
_exptl_crystal_colour            colorless
_exptl_crystal_description       needle
_cell_formula_units_Z            4
loop_
_atom_site_label
_atom_site_type_symbol
_atom_site_fract_x
_atom_site_fract_y
_atom_site_fract_z
Cl1 Cl -0.11170(11) -0.46338(6) -0.01127(3)
Cl2 Cl -0.28973(13) -0.33543(9) -0.01687(4)
Cl3 Cl -0.02573(15) -0.30745(8) 0.00936(4)
C1 C -0.1283(4) -0.3636(2) -0.02387(11)
H1 H -0.1040 -0.3555 -0.0545
O1 O -0.61387(16) -0.46538(10) -0.14079(5)
O2 O -0.38307(16) -0.69813(9) -0.12337(6)
H2 H -0.3102 -0.7164 -0.1207
O3 O 0.14545(17) -0.79826(9) -0.23928(5)
O4 O -0.15374(16) -0.45567(9) -0.12106(6)
H3 H -0.1688 -0.4089 -0.1248
O5 O 0.02377(19) -0.55155(10) -0.17687(6)
H4 H 0.0738 -0.5361 -0.1958
O6 O -0.16802(15) -0.78692(9) -0.12708(5)
C2 C -0.4957(2) -0.58264(14) -0.13388(7)
C3 C -0.3817(2) -0.45756(14) -0.13224(7)
O7 O -0.28605(18) -0.33211(10) -0.13804(7)
O8 O 0.1887(2) -0.55991(10) -0.24053(6)
C4 C -0.3755(2) -0.61925(14) -0.12692(8)
C5 C -0.4964(2) -0.50174(13) -0.13572(7)
C6 C 0.3122(2) -1.00888(15) -0.12987(8)
C7 C 0.2098(2) -0.87279(14) -0.13574(8)
H5 H 0.1468 -0.8772 -0.1124
H6 H 0.2339 -0.8180 -0.1382
C8 C -0.2634(2) -0.49683(13) -0.12540(7)
C9 C -0.2582(2) -0.57875(13) -0.12219(7)
C10 C 0.1467(2) -0.89924(13) -0.17893(7)
H7 H 0.1531 -0.9566 -0.1796
C11 C 0.0001(2) -0.87951(13) -0.18211(7)
H8 H -0.0309 -0.8982 -0.2106
C12 C 0.0106(3) -0.72202(16) -0.01254(10)
H9 H 0.0852 -0.7494 -0.0051
C13 C 0.2913(2) -1.05561(13) -0.21533(7)
H10 H 0.2000 -1.0653 -0.2086
C14 C 0.0130(2) -0.63007(14) -0.17930(8)
C15 C -0.1275(2) -0.61710(13) -0.11274(8)
H11 H -0.0683 -0.5724 -0.1108
C16 C -0.2088(2) -0.86706(13) -0.14101(7)
C17 C -0.2298(2) -1.04442(14) -0.05308(8)
H12 H -0.3218 -1.0433 -0.0455
C18 C -0.0817(2) -0.74885(13) -0.15336(8)
C19 C 0.0750(2) -0.75448(14) -0.21079(8)
C20 C -0.1091(3) -1.00443(13) -0.15855(8)
H13 H -0.1965 -1.0083 -0.1698
H14 H -0.0513 -1.0174 -0.1825
C21 C -0.0851(2) -0.91719(13) -0.14658(8)
H15 H -0.0372 -0.9157 -0.1189
C22 C -0.6176(2) -0.63041(14) -0.13704(8)
H16 H -0.6253 -0.6632 -0.1116
H17 H -0.6144 -0.6626 -0.1628
H18 H -0.6908 -0.5959 -0.1387
C23 C 0.3311(2) -0.92123(15) -0.12345(8)
H19 H 0.4033 -0.9039 -0.1412
H20 H 0.3528 -0.9113 -0.0931
C24 C 0.3680(2) -1.04616(14) -0.17065(8)
H21 H 0.4510 -1.0210 -0.1770
C25 C -0.0695(2) -0.66692(14) -0.14926(8)
C26 C 0.0852(2) -0.67192(14) -0.21115(8)
C27 C 0.3881(3) -1.13596(15) -0.17158(8)
H22 H 0.4753 -1.1521 -0.1641
H23 H 0.3249 -1.1648 -0.1545
C28 C -0.3838(2) -0.37289(14) -0.13773(8)
C29 C -0.2124(3) -1.08574(14) -0.09599(9)
C30 C 0.1714(3) -0.63145(15) -0.24058(9)
H24 H 0.2169 -0.6612 -0.2609
C31 C 0.2132(2) -0.86914(13) -0.22148(7)
C32 C -0.0084(3) -0.95939(18) 0.01883(9)
H25 H 0.0109 -0.9851 0.0460
H26 H -0.0093 -0.9036 0.0232
H27 H 0.0563 -0.9726 -0.0024
C33 C -0.2864(2) -0.86035(14) -0.18332(8)
H28 H -0.2307 -0.8432 -0.2065
H29 H -0.3550 -0.8231 -0.1794
H30 H -0.3224 -0.9106 -0.1906
C34 C -0.2102(3) -0.64232(16) -0.03532(8)
H31 H -0.2856 -0.6156 -0.0426
C35 C 0.2017(2) -0.93108(14) -0.25737(7)
H32 H 0.2133 -0.9055 -0.2855
H33 H 0.1148 -0.9524 -0.2567
C36 C -0.7527(2) -0.35468(14) -0.13065(10)
C37 C 0.2522(3) -1.05082(17) -0.09918(9)
H34 H 0.2435 -1.1048 -0.1025
H35 H 0.2190 -1.0261 -0.0745
C38 C -0.2463(3) -0.96463(18) 0.03492(9)
H36 H -0.2504 -0.9087 0.0380
H37 H -0.2279 -0.9880 0.0628
H38 H -0.3278 -0.9838 0.0243
C39 C -0.0069(2) -0.79201(13) -0.18241(8)
C40 C -0.1174(2) -0.65519(13) -0.06708(8)
C41 C -0.1706(2) -0.96234(14) -0.04559(8)
H39 H -0.0890 -0.9593 -0.0618
C42 C -0.1928(3) -0.66865(17) 0.00743(9)
H40 H -0.2565 -0.6593 0.0283
C43 C 0.2986(3) -0.99985(14) -0.25419(8)
H41 H 0.2895 -1.0311 -0.2805
H42 H 0.3850 -0.9777 -0.2546
C44 C -0.1502(3) -1.07294(15) -0.01297(9)
H43 H -0.0678 -1.0963 -0.0206
H44 H -0.1984 -1.1064 0.0068
C45 C -0.8056(3) -0.30286(17) -0.10026(11)
H45 H -0.7616 -0.2920 -0.0744
C46 C -0.5152(3) -0.33691(15) -0.14391(9)
H46 H -0.5328 -0.3313 -0.1749
H47 H -0.5165 -0.2850 -0.1309
C47 C 0.3530(2) -0.84029(15) -0.21731(9)
H48 H 0.3568 -0.7981 -0.1965
H49 H 0.3828 -0.8220 -0.2453
H50 H 0.4070 -0.8826 -0.2075
C48 C -0.1399(3) -0.98595(15) 0.00259(8)
C49 C -0.3009(2) -0.89159(13) -0.10421(8)
H51 H -0.3308 -0.9443 -0.1106
H52 H -0.3758 -0.8574 -0.1055
C50 C -0.2988(3) -1.13720(17) -0.10991(10)
H53 H -0.3714 -1.1481 -0.0930
H54 H -0.2869 -1.1624 -0.1366
C51 C -0.0934(3) -1.06887(13) -0.12335(9)
H55 H -0.0674 -1.1171 -0.1377
H56 H -0.0238 -1.0536 -0.1039
C52 C -0.2509(2) -0.89097(14) -0.05685(8)
H57 H -0.1991 -0.8442 -0.0524
H58 H -0.3241 -0.8883 -0.0371
C53 C -0.0828(3) -0.70805(16) 0.01896(9)
H59 H -0.0709 -0.7252 0.0476
C54 C 0.3607(3) -1.13646(15) -0.22119(8)
C55 C -0.0064(3) -0.69534(15) -0.05520(9)
H60 H 0.0575 -0.7046 -0.0760
C56 C -0.9896(3) -0.28391(17) -0.14674(17)
H61 H -1.0684 -0.2597 -0.1525
C57 C 0.2764(4) -1.20139(16) -0.23872(11)
H62 H 0.2544 -1.1905 -0.2686
H63 H 0.1988 -1.2048 -0.2216
H64 H 0.3223 -1.2503 -0.2371
C58 C -0.6196(2) -0.38721(13) -0.12304(8)
H65 H -0.6039 -0.3899 -0.0915
C59 C 0.4864(3) -1.13036(18) -0.24718(10)
H66 H 0.5393 -1.0896 -0.2350
H67 H 0.4670 -1.1183 -0.2772
H68 H 0.5318 -1.1794 -0.2457
C60 C -0.9247(3) -0.26731(17) -0.10865(15)
H69 H -0.9599 -0.2325 -0.0885
C61 C -0.8198(3) -0.37160(16) -0.16884(12)
H70 H -0.7852 -0.4064 -0.1891
C62 C -0.9385(3) -0.33655(18) -0.17676(16)
H71 H -0.9838 -0.3483 -0.2022
loop_
_geom_bond_atom_site_label_1
_geom_bond_atom_site_label_2
_geom_bond_site_symmetry_1
_geom_bond_site_symmetry_2
Cl1 C1 1_555 1_555
Cl2 C1 1_555 1_555
Cl3 C1 1_555 1_555
C1 H1 1_555 1_555
O1 C5 1_555 1_555
O2 H2 1_555 1_555
O3 C19 1_555 1_555
O4 H3 1_555 1_555
O5 H4 1_555 1_555
O6 C16 1_555 1_555
C2 C4 1_555 1_555
C3 C5 1_555 1_555
O7 C28 1_555 1_555
O8 C30 1_555 1_555
C4 O2 1_555 1_555
C5 C2 1_555 1_555
C6 C23 1_555 1_555
C7 H5 1_555 1_555
H6 C7 1_555 1_555
C8 O4 1_555 1_555
C9 C4 1_555 1_555
C10 C7 1_555 1_555
H7 C10 1_555 1_555
C11 C10 1_555 1_555
H8 C11 1_555 1_555
C12 H9 1_555 1_555
C13 H10 1_555 1_555
C14 O5 1_555 1_555
C15 C9 1_555 1_555
H11 C15 1_555 1_555
C16 C21 1_555 1_555
C17 H12 1_555 1_555
C18 O6 1_555 1_555
C19 C26 1_555 1_555
C20 H13 1_555 1_555
H14 C20 1_555 1_555
C21 C11 1_555 1_555
H15 C21 1_555 1_555
C22 C2 1_555 1_555
H16 C22 1_555 1_555
H17 C22 1_555 1_555
H18 C22 1_555 1_555
C23 C7 1_555 1_555
H19 C23 1_555 1_555
H20 C23 1_555 1_555
C24 C6 1_555 1_555
H21 C24 1_555 1_555
C25 C14 1_555 1_555
C26 C14 1_555 1_555
C27 C24 1_555 1_555
H22 C27 1_555 1_555
H23 C27 1_555 1_555
C28 C3 1_555 1_555
C29 C17 1_555 1_555
C30 C26 1_555 1_555
H24 C30 1_555 1_555
C31 O3 1_555 1_555
C32 H25 1_555 1_555
H26 C32 1_555 1_555
H27 C32 1_555 1_555
C33 C16 1_555 1_555
H28 C33 1_555 1_555
H29 C33 1_555 1_555
H30 C33 1_555 1_555
C34 H31 1_555 1_555
C35 C31 1_555 1_555
H32 C35 1_555 1_555
H33 C35 1_555 1_555
C36 C45 1_555 1_555
C37 C6 1_555 1_555
H34 C37 1_555 1_555
H35 C37 1_555 1_555
C38 H36 1_555 1_555
H37 C38 1_555 1_555
H38 C38 1_555 1_555
C39 C11 1_555 1_555
C40 C15 1_555 1_555
C41 C17 1_555 1_555
H39 C41 1_555 1_555
C42 C34 1_555 1_555
H40 C42 1_555 1_555
C43 C13 1_555 1_555
H41 C43 1_555 1_555
H42 C43 1_555 1_555
C44 C17 1_555 1_555
H43 C44 1_555 1_555
H44 C44 1_555 1_555
C45 H45 1_555 1_555
C46 C28 1_555 1_555
H46 C46 1_555 1_555
H47 C46 1_555 1_555
C47 C31 1_555 1_555
H48 C47 1_555 1_555
H49 C47 1_555 1_555
H50 C47 1_555 1_555
C48 C32 1_555 1_555
C49 C16 1_555 1_555
H51 C49 1_555 1_555
H52 C49 1_555 1_555
C50 C29 1_555 1_555
H53 C50 1_555 1_555
H54 C50 1_555 1_555
C51 C20 1_555 1_555
H55 C51 1_555 1_555
H56 C51 1_555 1_555
C52 C41 1_555 1_555
H57 C52 1_555 1_555
H58 C52 1_555 1_555
C53 C12 1_555 1_555
H59 C53 1_555 1_555
C54 C13 1_555 1_555
C55 C12 1_555 1_555
H60 C55 1_555 1_555
C56 H61 1_555 1_555
C57 C54 1_555 1_555
H62 C57 1_555 1_555
H63 C57 1_555 1_555
H64 C57 1_555 1_555
C58 O1 1_555 1_555
H65 C58 1_555 1_555
C59 C54 1_555 1_555
H66 C59 1_555 1_555
H67 C59 1_555 1_555
H68 C59 1_555 1_555
C60 C45 1_555 1_555
H69 C60 1_555 1_555
C61 C36 1_555 1_555
H70 C61 1_555 1_555
C62 C56 1_555 1_555
H71 C62 1_555 1_555
C3 C8 1_555 1_555
C8 C9 1_555 1_555
C10 C31 1_555 1_555
C13 C24 1_555 1_555
C15 C25 1_555 1_555
C18 C25 1_555 1_555
C18 C39 1_555 1_555
C19 C39 1_555 1_555
C20 C21 1_555 1_555
C27 C54 1_555 1_555
C29 C51 1_555 1_555
C34 C40 1_555 1_555
C35 C43 1_555 1_555
C36 C58 1_555 1_555
C38 C48 1_555 1_555
C40 C55 1_555 1_555
C41 C48 1_555 1_555
C42 C53 1_555 1_555
C44 C48 1_555 1_555
C46 C58 1_555 1_555
C49 C52 1_555 1_555
C56 C60 1_555 1_555
C61 C62 1_555 1_555

#END
