
#######################################################################
#
#                 Cambridge Crystallographic Data Centre
#                                CCDC 
#
#######################################################################
#
# If this CIF has been generated from an entry in the Cambridge 
# Structural Database, then it will include bibliographic, chemical, 
# crystal, experimental, refinement or atomic coordinate data resulting 
# from the CCDC's data processing and validation procedures.
#
#######################################################################

data_XAKKAW
_chemical_formula_moiety         'C14 H24 O2'
_chemical_name_systematic        
endo,endo-2,3-Dihydroxy-3-(prop-2-enyl)-1,8,8-trimethylbicyclo(3.2.1)octane
_symmetry_cell_setting           orthorhombic
_symmetry_space_group_name_H-M   'P 21 21 21'
_symmetry_Int_Tables_number      19
_space_group_name_Hall           'P 2ac 2ab'
loop_
_symmetry_equiv_pos_site_id
_symmetry_equiv_pos_as_xyz
1 x,y,z
2 1/2-x,-y,1/2+z
3 -x,1/2+y,1/2-z
4 1/2+x,1/2-y,-z
_cell_length_a                   6.9250(2)
_cell_length_b                   9.6530(4)
_cell_length_c                   20.3550(9)
_cell_angle_alpha                90
_cell_angle_beta                 90
_cell_angle_gamma                90
_cell_volume                     1360.67
_cell_formula_units_Z            4
loop_
_atom_site_label
_atom_site_type_symbol
_atom_site_fract_x
_atom_site_fract_y
_atom_site_fract_z
O1 O 0.5815(3) 0.1051(2) 0.29067(10)
H1 H 0.5592(3) 0.1294(2) 0.25282(10)
O2 O 0.4378(3) -0.1221(2) 0.25011(9)
H2 H 0.3854(3) -0.1784(2) 0.22578(9)
C1 C 0.4027(3) 0.0721(2) 0.32315(12)
H3 H 0.3249(3) 0.1568(2) 0.32503(12)
C2 C 0.2935(3) -0.0346(2) 0.27955(11)
C3 C 0.1565(3) -0.1261(2) 0.31868(12)
H4 H 0.0306(3) -0.0821(2) 0.31971(12)
H5 H 0.1423(3) -0.2137(2) 0.29577(12)
C4 C 0.2188(4) -0.1556(3) 0.38874(13)
H6 H 0.1214(4) -0.2121(3) 0.41113(13)
C5 C 0.4152(4) -0.2269(3) 0.3915(2)
H7 H 0.4358(4) -0.2832(3) 0.3527(2)
H8 H 0.4248(4) -0.2856(3) 0.4301(2)
C6 C 0.5649(4) -0.1074(3) 0.3948(2)
H9 H 0.6410(4) -0.1136(3) 0.4347(2)
H10 H 0.6512(4) -0.1108(3) 0.3573(2)
C7 C 0.4454(3) 0.0267(2) 0.39406(13)
C8 C 0.2521(4) -0.0188(3) 0.42666(13)
C9 C 0.5448(5) 0.1477(4) 0.4297(2)
H11 H 0.4638(5) 0.2283(4) 0.4276(2)
H12 H 0.6662(5) 0.1673(4) 0.4089(2)
H13 H 0.5666(5) 0.1231(4) 0.4748(2)
C10 C 0.0873(4) 0.0843(3) 0.4213(2)
H14 H 0.1183(4) 0.1661(3) 0.4459(2)
H15 H -0.0286(4) 0.0435(3) 0.4385(2)
H16 H 0.0679(4) 0.1085(3) 0.3760(2)
C11 C 0.2817(6) -0.0511(5) 0.5006(2)
H17 H 0.3854(6) -0.1162(5) 0.5055(2)
H18 H 0.1652(6) -0.0898(5) 0.5184(2)
H19 H 0.3128(6) 0.0328(5) 0.5236(2)
C12 C 0.1880(4) 0.0413(3) 0.22458(14)
H20 H 0.0950(4) 0.1041(3) 0.24419(14)
H21 H 0.2810(4) 0.0970(3) 0.20066(14)
C13 C 0.0849(5) -0.0492(4) 0.17692(14)
H22 H 0.1581(5) -0.1164(4) 0.15565(14)
C14 C -0.0966(6) -0.0435(4) 0.1622(2)
H23 H -0.1757(6) 0.0219(4) 0.1822(2)
H24 H -0.1479(6) -0.1049(4) 0.1316(2)
loop_
_geom_bond_atom_site_label_1
_geom_bond_atom_site_label_2
_geom_bond_site_symmetry_1
_geom_bond_site_symmetry_2
O1 H1 1_555 1_555
O2 H2 1_555 1_555
C1 O1 1_555 1_555
H3 C1 1_555 1_555
C2 O2 1_555 1_555
C3 C2 1_555 1_555
H4 C3 1_555 1_555
H5 C3 1_555 1_555
C4 C3 1_555 1_555
H6 C4 1_555 1_555
C5 C4 1_555 1_555
H7 C5 1_555 1_555
H8 C5 1_555 1_555
C6 C5 1_555 1_555
H9 C6 1_555 1_555
H10 C6 1_555 1_555
C7 C1 1_555 1_555
C8 C4 1_555 1_555
C9 C7 1_555 1_555
H11 C9 1_555 1_555
H12 C9 1_555 1_555
H13 C9 1_555 1_555
C10 C8 1_555 1_555
H14 C10 1_555 1_555
H15 C10 1_555 1_555
H16 C10 1_555 1_555
C11 C8 1_555 1_555
H17 C11 1_555 1_555
H18 C11 1_555 1_555
H19 C11 1_555 1_555
C12 C2 1_555 1_555
H20 C12 1_555 1_555
H21 C12 1_555 1_555
C13 C12 1_555 1_555
H22 C13 1_555 1_555
C14 C13 1_555 1_555
H23 C14 1_555 1_555
H24 C14 1_555 1_555
C1 C2 1_555 1_555
C6 C7 1_555 1_555
C7 C8 1_555 1_555

#END
