
#######################################################################
#
#                 Cambridge Crystallographic Data Centre
#                                CCDC 
#
#######################################################################
#
# If this CIF has been generated from an entry in the Cambridge 
# Structural Database, then it will include bibliographic, chemical, 
# crystal, experimental, refinement or atomic coordinate data resulting 
# from the CCDC's data processing and validation procedures.
#
#######################################################################

data_XAKKEA
_chemical_formula_moiety         'C18 H26 O2'
_chemical_name_systematic        
endo,endo-2,3-Dihydroxy-3-benzyl-1,8,8-trimethylbicyclo(3.2.1)octane
_symmetry_cell_setting           tetragonal
_symmetry_space_group_name_H-M   'P 41'
_symmetry_Int_Tables_number      76
_space_group_name_Hall           'P 4w'
loop_
_symmetry_equiv_pos_site_id
_symmetry_equiv_pos_as_xyz
1 x,y,z
2 -x,-y,1/2+z
3 -y,x,1/4+z
4 y,-x,3/4+z
_cell_length_a                   12.7040(4)
_cell_length_b                   12.7040(4)
_cell_length_c                   20.3120(7)
_cell_angle_alpha                90
_cell_angle_beta                 90
_cell_angle_gamma                90
_cell_volume                     3278.19
_cell_formula_units_Z            8
loop_
_atom_site_label
_atom_site_type_symbol
_atom_site_fract_x
_atom_site_fract_y
_atom_site_fract_z
O1 O 0.0368(2) 0.0114(2) 0.13530(12)
H1 H 0.0352(2) 0.0418(2) 0.09969(12)
O2 O -0.0036(2) -0.0291(2) 0.25456(14)
H2 H -0.0441(2) 0.0208(2) 0.25082(14)
C1 C 0.1039(3) 0.0681(3) 0.1797(2)
C2 C 0.1019(3) 0.0066(3) 0.2458(2)
H3 H 0.1171(3) 0.0570(3) 0.2811(2)
C3 C 0.1808(3) -0.0843(3) 0.2522(2)
C4 C 0.1648(4) -0.1650(3) 0.1965(2)
H4 H 0.1866(4) -0.2346(3) 0.2105(2)
H5 H 0.0915(4) -0.1678(3) 0.1834(2)
C5 C 0.2339(4) -0.1261(3) 0.1393(2)
H6 H 0.2877(4) -0.1775(3) 0.1287(2)
H7 H 0.1916(4) -0.1131(3) 0.1004(2)
C6 C 0.2837(3) -0.0235(3) 0.1644(2)
H8 H 0.3536(3) -0.0139(3) 0.1450(2)
C7 C 0.2141(3) 0.0719(3) 0.1496(2)
H9 H 0.2495(3) 0.1346(3) 0.1655(2)
H10 H 0.2072(3) 0.0785(3) 0.1022(2)
C8 C 0.2929(3) -0.0421(3) 0.2387(2)
C9 C 0.1665(4) -0.1342(4) 0.3202(2)
H11 H 0.2152(4) -0.1915(4) 0.3252(2)
H12 H 0.0958(4) -0.1602(4) 0.3243(2)
H13 H 0.1794(4) -0.0825(4) 0.3536(2)
C10 C 0.3779(4) -0.1260(4) 0.2513(2)
H14 H 0.3841(4) -0.1381(4) 0.2978(2)
H15 H 0.4441(4) -0.1019(4) 0.2342(2)
H16 H 0.3583(4) -0.1904(4) 0.2298(2)
C11 C 0.3251(4) 0.0556(4) 0.2781(2)
H17 H 0.3293(4) 0.0380(4) 0.3240(2)
H18 H 0.2737(4) 0.1101(4) 0.2719(2)
H19 H 0.3925(4) 0.0800(4) 0.2631(2)
C12 C 0.0575(4) 0.1797(3) 0.1890(2)
H20 H -0.0111(4) 0.1734(3) 0.2096(2)
H21 H 0.1025(4) 0.2188(3) 0.2188(2)
C13 C 0.0460(4) 0.2412(3) 0.1266(2)
C14 C 0.1243(4) 0.3083(4) 0.1037(3)
H22 H 0.1845(4) 0.3188(4) 0.1290(3)
C15 C 0.1143(5) 0.3598(5) 0.0441(4)
H23 H 0.1673(5) 0.4050(5) 0.0298(4)
C16 C 0.0287(6) 0.3450(5) 0.0067(3)
H24 H 0.0230(6) 0.3790(5) -0.0337(3)
C17 C -0.0489(5) 0.2813(5) 0.0274(3)
H25 H -0.1085(5) 0.2719(5) 0.0014(3)
C18 C -0.0406(4) 0.2294(4) 0.0869(2)
H26 H -0.0950(4) 0.1855(4) 0.1004(2)
O3 O 0.4761(2) 0.4315(2) -0.04401(12)
H27 H 0.4734(2) 0.4556(2) -0.08142(12)
O4 O 0.5280(3) 0.4175(2) 0.07605(14)
H28 H 0.5604(3) 0.4720(2) 0.06849(14)
C19 C 0.5711(3) 0.3724(3) -0.0363(2)
C20 C 0.5686(3) 0.3348(3) 0.0358(2)
H29 H 0.6418(3) 0.3234(3) 0.0493(2)
C21 C 0.5091(3) 0.2317(3) 0.0492(2)
C22 C 0.3953(4) 0.2415(5) 0.0245(2)
H30 H 0.3703(4) 0.3132(5) 0.0295(2)
H31 H 0.3492(4) 0.1950(5) 0.0491(2)
C23 C 0.3972(5) 0.2100(5) -0.0489(3)
H32 H 0.3531(5) 0.1490(5) -0.0567(3)
H33 H 0.3729(5) 0.2675(5) -0.0764(3)
C24 C 0.5131(5) 0.1847(4) -0.0630(2)
H34 H 0.5182(5) 0.1287(4) -0.0961(2)
C25 C 0.5745(4) 0.2820(4) -0.0858(2)
H35 H 0.6473(4) 0.2623(4) -0.0934(2)
H36 H 0.5456(4) 0.3062(4) -0.1274(2)
C26 C 0.5540(5) 0.1450(4) 0.0037(2)
C27 C 0.5152(4) 0.2080(4) 0.1227(2)
H37 H 0.4783(4) 0.1437(4) 0.1319(2)
H38 H 0.4837(4) 0.2646(4) 0.1470(2)
H39 H 0.5876(4) 0.2007(4) 0.1355(2)
C28 C 0.5060(7) 0.0353(4) 0.0197(3)
H40 H 0.4306(7) 0.0396(4) 0.0183(3)
H41 H 0.5279(7) 0.0137(4) 0.0629(3)
H42 H 0.5299(7) -0.0151(4) -0.0121(3)
C29 C 0.6734(6) 0.1304(5) 0.0071(4)
H43 H 0.6926(6) 0.1055(5) 0.0501(4)
H44 H 0.7074(6) 0.1965(5) -0.0012(4)
H45 H 0.6950(6) 0.0800(5) -0.0254(4)
C30 C 0.6653(4) 0.4481(3) -0.0450(2)
H46 H 0.6633(4) 0.4995(3) -0.0098(2)
H47 H 0.7297(4) 0.4078(3) -0.0400(2)
C31 C 0.6703(3) 0.5060(4) -0.1095(2)
C32 C 0.7319(4) 0.4701(4) -0.1606(3)
H48 H 0.7718(4) 0.4093(4) -0.1552(3)
C33 C 0.7351(5) 0.5239(7) -0.2207(3)
H49 H 0.7777(5) 0.4995(7) -0.2547(3)
C34 C 0.6764(6) 0.6109(7) -0.2292(3)
H50 H 0.6767(6) 0.6452(7) -0.2697(3)
C35 C 0.6164(5) 0.6494(5) -0.1790(3)
H51 H 0.5774(5) 0.7107(5) -0.1847(3)
C36 C 0.6139(4) 0.5965(4) -0.1195(2)
H52 H 0.5730(4) 0.6231(4) -0.0854(2)
loop_
_geom_bond_atom_site_label_1
_geom_bond_atom_site_label_2
_geom_bond_site_symmetry_1
_geom_bond_site_symmetry_2
O1 H1 1_555 1_555
O2 H2 1_555 1_555
C1 O1 1_555 1_555
C2 O2 1_555 1_555
H3 C2 1_555 1_555
C3 C2 1_555 1_555
C4 C3 1_555 1_555
H4 C4 1_555 1_555
H5 C4 1_555 1_555
C5 C4 1_555 1_555
H6 C5 1_555 1_555
H7 C5 1_555 1_555
C6 C5 1_555 1_555
H8 C6 1_555 1_555
C7 C1 1_555 1_555
H9 C7 1_555 1_555
H10 C7 1_555 1_555
C8 C3 1_555 1_555
C9 C3 1_555 1_555
H11 C9 1_555 1_555
H12 C9 1_555 1_555
H13 C9 1_555 1_555
C10 C8 1_555 1_555
H14 C10 1_555 1_555
H15 C10 1_555 1_555
H16 C10 1_555 1_555
C11 C8 1_555 1_555
H17 C11 1_555 1_555
H18 C11 1_555 1_555
H19 C11 1_555 1_555
C12 C1 1_555 1_555
H20 C12 1_555 1_555
H21 C12 1_555 1_555
C13 C12 1_555 1_555
C14 C13 1_555 1_555
H22 C14 1_555 1_555
C15 C14 1_555 1_555
H23 C15 1_555 1_555
C16 C15 1_555 1_555
H24 C16 1_555 1_555
C17 C16 1_555 1_555
H25 C17 1_555 1_555
C18 C13 1_555 1_555
H26 C18 1_555 1_555
O3 H27 1_555 1_555
O4 H28 1_555 1_555
C19 O3 1_555 1_555
C20 O4 1_555 1_555
H29 C20 1_555 1_555
C21 C20 1_555 1_555
C22 C21 1_555 1_555
H30 C22 1_555 1_555
H31 C22 1_555 1_555
C23 C22 1_555 1_555
H32 C23 1_555 1_555
H33 C23 1_555 1_555
C24 C23 1_555 1_555
H34 C24 1_555 1_555
C25 C19 1_555 1_555
H35 C25 1_555 1_555
H36 C25 1_555 1_555
C26 C21 1_555 1_555
C27 C21 1_555 1_555
H37 C27 1_555 1_555
H38 C27 1_555 1_555
H39 C27 1_555 1_555
C28 C26 1_555 1_555
H40 C28 1_555 1_555
H41 C28 1_555 1_555
H42 C28 1_555 1_555
C29 C26 1_555 1_555
H43 C29 1_555 1_555
H44 C29 1_555 1_555
H45 C29 1_555 1_555
C30 C19 1_555 1_555
H46 C30 1_555 1_555
H47 C30 1_555 1_555
C31 C30 1_555 1_555
C32 C31 1_555 1_555
H48 C32 1_555 1_555
C33 C32 1_555 1_555
H49 C33 1_555 1_555
C34 C33 1_555 1_555
H50 C34 1_555 1_555
C35 C34 1_555 1_555
H51 C35 1_555 1_555
C36 C31 1_555 1_555
H52 C36 1_555 1_555
C1 C2 1_555 1_555
C6 C7 1_555 1_555
C6 C8 1_555 1_555
C17 C18 1_555 1_555
C19 C20 1_555 1_555
C24 C25 1_555 1_555
C24 C26 1_555 1_555
C35 C36 1_555 1_555

#END
