
#######################################################################
#
#                 Cambridge Crystallographic Data Centre
#                                CCDC 
#
#######################################################################
#
# If this CIF has been generated from an entry in the Cambridge 
# Structural Database, then it will include bibliographic, chemical, 
# crystal, experimental, refinement or atomic coordinate data resulting 
# from the CCDC's data processing and validation procedures.
#
#######################################################################

data_XAKTEJ
_chemical_formula_moiety         'C28 H21 Cl1 N2 O2'
_chemical_name_systematic        
"Methyl 4'-((2-p-chlorophenyl-1H-benzimidazol-1-yl)methyl)biphenyl-2-carboxylate"
_symmetry_cell_setting           triclinic
_symmetry_space_group_name_H-M   'P -1'
_symmetry_Int_Tables_number      2
_space_group_name_Hall           '-P 1'
loop_
_symmetry_equiv_pos_site_id
_symmetry_equiv_pos_as_xyz
1 x,y,z
2 -x,-y,-z
_cell_length_a                   8.7001(17)
_cell_length_b                   10.681(2)
_cell_length_c                   12.929(3)
_cell_angle_alpha                99.62(3)
_cell_angle_beta                 106.66(3)
_cell_angle_gamma                91.54(3)
_cell_volume                     1131.26
_exptl_crystal_colour            colorless
_exptl_crystal_description       block
_chemical_melting_point          '154-156 deg.C'
_cell_formula_units_Z            2
_exptl_crystal_recrystallization_method 'ethyl acetate/dichloromethane'
loop_
_atom_site_label
_atom_site_type_symbol
_atom_site_fract_x
_atom_site_fract_y
_atom_site_fract_z
Cl1 Cl 0.12872(8) 0.01693(6) 0.32250(4)
O1 O -0.65912(16) -0.71770(14) -0.08839(10)
O2 O -0.42611(17) -0.62032(19) -0.07411(11)
N1 N 0.16614(15) -0.28094(13) -0.18036(11)
N2 N 0.26975(17) -0.08183(14) -0.17105(13)
C1 C -0.55234(19) -0.67085(16) -0.13058(14)
C2 C -0.61238(18) -0.68559(15) -0.25238(13)
C3 C -0.7625(2) -0.75196(18) -0.30656(15)
H1 H -0.8180 -0.7901 -0.2668
C4 C -0.8289(2) -0.7613(2) -0.41796(16)
H2 H -0.9285 -0.8060 -0.4532
C5 C -0.7479(2) -0.70438(19) -0.47772(15)
H3 H -0.7941 -0.7087 -0.5527
C6 C -0.5977(2) -0.64082(17) -0.42559(14)
H4 H -0.5436 -0.6035 -0.4666
C7 C -0.52590(18) -0.63137(15) -0.31381(13)
C8 C -0.36037(19) -0.56654(15) -0.26790(13)
C9 C -0.32731(19) -0.44200(15) -0.27827(12)
H5 H -0.4109 -0.3961 -0.3115
C10 C -0.17079(19) -0.38500(15) -0.23956(12)
H6 H -0.1511 -0.3011 -0.2462
C11 C -0.04429(18) -0.45237(15) -0.19125(13)
C12 C -0.0776(2) -0.57871(16) -0.18364(16)
H7 H 0.0065 -0.6259 -0.1531
C13 C -0.2317(2) -0.63423(17) -0.22036(16)
H8 H -0.2510 -0.7181 -0.2136
C14 C 0.12785(19) -0.39637(16) -0.14228(15)
H9 H 0.1512 -0.3768 -0.0631
H10 H 0.1983 -0.4604 -0.1591
C15 C 0.21264(19) -0.16001(15) -0.11925(14)
C16 C 0.19347(19) -0.12194(15) -0.00956(14)
C17 C 0.05172(19) -0.15208(15) 0.01311(14)
H11 H -0.0305 -0.2030 -0.0413
C18 C 0.0293(2) -0.10858(16) 0.11432(14)
H12 H -0.0670 -0.1287 0.1278
C19 C 0.1524(2) -0.03519(17) 0.19424(15)
C20 C 0.2951(3) -0.00385(19) 0.17425(17)
H13 H 0.3771 0.0465 0.2292
C21 C 0.3159(2) -0.04714(18) 0.07288(17)
H14 H 0.4122 -0.0262 0.0597
C22 C 0.19806(19) -0.27886(17) -0.27932(15)
C23 C 0.1797(2) -0.3725(2) -0.37024(16)
H15 H 0.1401 -0.4551 -0.3731
C24 C 0.2228(3) -0.3377(2) -0.45690(17)
H16 H 0.2121 -0.3986 -0.5195
C25 C 0.2819(3) -0.2140(2) -0.45337(17)
H17 H 0.3086 -0.1942 -0.5138
C26 C 0.3017(2) -0.1205(2) -0.36233(17)
H18 H 0.3407 -0.0379 -0.3603
C27 C 0.2608(2) -0.15438(17) -0.27257(15)
C28 C -0.6149(3) -0.7054(2) 0.02912(15)
H19 H -0.7012 -0.7423 0.0496
H20 H -0.5942 -0.6169 0.0624
H21 H -0.5198 -0.7489 0.0538
loop_
_geom_bond_atom_site_label_1
_geom_bond_atom_site_label_2
_geom_bond_site_symmetry_1
_geom_bond_site_symmetry_2
Cl1 C19 1_555 1_555
O1 C1 1_555 1_555
O2 C1 1_555 1_555
N1 C14 1_555 1_555
N2 C15 1_555 1_555
C1 C2 1_555 1_555
C2 C3 1_555 1_555
C3 H1 1_555 1_555
C4 C3 1_555 1_555
H2 C4 1_555 1_555
C5 C4 1_555 1_555
H3 C5 1_555 1_555
C6 C5 1_555 1_555
H4 C6 1_555 1_555
C7 C2 1_555 1_555
C8 C7 1_555 1_555
C9 C8 1_555 1_555
H5 C9 1_555 1_555
C10 C9 1_555 1_555
H6 C10 1_555 1_555
C11 C10 1_555 1_555
C12 C11 1_555 1_555
H7 C12 1_555 1_555
C13 C8 1_555 1_555
H8 C13 1_555 1_555
C14 C11 1_555 1_555
H9 C14 1_555 1_555
H10 C14 1_555 1_555
C15 N1 1_555 1_555
C16 C15 1_555 1_555
C17 C16 1_555 1_555
H11 C17 1_555 1_555
C18 C17 1_555 1_555
H12 C18 1_555 1_555
C19 C18 1_555 1_555
C20 C19 1_555 1_555
H13 C20 1_555 1_555
C21 C16 1_555 1_555
H14 C21 1_555 1_555
C22 N1 1_555 1_555
C23 C22 1_555 1_555
H15 C23 1_555 1_555
C24 C23 1_555 1_555
H16 C24 1_555 1_555
C25 C24 1_555 1_555
H17 C25 1_555 1_555
C26 C25 1_555 1_555
H18 C26 1_555 1_555
C27 N2 1_555 1_555
C28 O1 1_555 1_555
H19 C28 1_555 1_555
H20 C28 1_555 1_555
H21 C28 1_555 1_555
C6 C7 1_555 1_555
C12 C13 1_555 1_555
C20 C21 1_555 1_555
C22 C27 1_555 1_555
C26 C27 1_555 1_555

#END
