
#######################################################################
#
#                 Cambridge Crystallographic Data Centre
#                                CCDC 
#
#######################################################################
#
# If this CIF has been generated from an entry in the Cambridge 
# Structural Database, then it will include bibliographic, chemical, 
# crystal, experimental, refinement or atomic coordinate data resulting 
# from the CCDC's data processing and validation procedures.
#
#######################################################################

data_XAKVOX
_chemical_formula_moiety         'C26 H21 N1 O6'
_chemical_name_systematic        
'ethyl (2-(4-nitrophenyl)-5-oxo-3,4-diphenyl-2,5-dihydrofuran-2-yl)acetate'
_symmetry_cell_setting           monoclinic
_symmetry_space_group_name_H-M   'P 21/c'
_symmetry_Int_Tables_number      14
_space_group_name_Hall           '-P 2ybc'
loop_
_symmetry_equiv_pos_site_id
_symmetry_equiv_pos_as_xyz
1 x,y,z
2 -x,1/2+y,1/2-z
3 -x,-y,-z
4 x,1/2-y,1/2+z
_cell_length_a                   16.642(16)
_cell_length_b                   13.249(12)
_cell_length_c                   10.403(10)
_cell_angle_alpha                90
_cell_angle_beta                 106.747(13)
_cell_angle_gamma                90
_cell_volume                     2196.47
_exptl_crystal_colour            colorless
_exptl_crystal_description       block
_cell_formula_units_Z            4
loop_
_atom_site_label
_atom_site_type_symbol
_atom_site_fract_x
_atom_site_fract_y
_atom_site_fract_z
C1 C 0.26291(15) 0.60174(17) 0.3529(2)
C2 C 0.32216(14) 0.60702(15) 0.2722(2)
C3 C 0.41047(14) 0.63732(16) 0.3297(2)
C4 C 0.45295(16) 0.61343(19) 0.4617(2)
H1 H 0.4248 0.5801 0.5146
C5 C 0.53618(18) 0.6384(2) 0.5153(3)
H2 H 0.5640 0.6206 0.6034
C6 C 0.57824(18) 0.6890(2) 0.4406(3)
H3 H 0.6344 0.7060 0.4773
C7 C 0.53677(17) 0.7145(2) 0.3108(3)
H4 H 0.5651 0.7496 0.2598
C8 C 0.45343(15) 0.68885(18) 0.2545(2)
H5 H 0.4263 0.7063 0.1660
C9 C 0.28103(13) 0.57934(15) 0.14631(19)
C10 C 0.31513(14) 0.55918(16) 0.0317(2)
C11 C 0.36820(16) 0.47790(19) 0.0382(2)
H6 H 0.3826 0.4375 0.1146
C12 C 0.39993(18) 0.4560(2) -0.0667(3)
H7 H 0.4354 0.4009 -0.0611
C13 C 0.37944(18) 0.5151(2) -0.1795(3)
H8 H 0.4010 0.5004 -0.2505
C14 C 0.32696(18) 0.5963(2) -0.1873(2)
H9 H 0.3132 0.6367 -0.2636
C15 C 0.29464(16) 0.61814(18) -0.0828(2)
H10 H 0.2588 0.6729 -0.0892
C16 C 0.18927(13) 0.56115(16) 0.1353(2)
C17 C 0.13435(13) 0.64240(17) 0.0468(2)
C18 C 0.13956(15) 0.74066(18) 0.0937(2)
H11 H 0.1732 0.7548 0.1800
C19 C 0.09615(16) 0.81795(19) 0.0154(3)
H12 H 0.1003 0.8837 0.0481
C20 C 0.04720(15) 0.7966(2) -0.1102(2)
C21 C 0.03874(15) 0.7002(2) -0.1597(2)
H13 H 0.0038 0.6867 -0.2453
C22 C 0.08295(15) 0.62292(19) -0.0805(2)
H14 H 0.0779 0.5573 -0.1135
C23 C 0.15900(15) 0.45407(17) 0.0912(2)
H15 H 0.1011 0.4483 0.0923
H16 H 0.1597 0.4452 -0.0010
C24 C 0.20782(16) 0.36940(19) 0.1730(3)
C25 C 0.21329(19) 0.1894(2) 0.1828(3)
H17 H 0.1962 0.1743 0.2623
H18 H 0.2739 0.1954 0.2087
C26 C 0.1853(2) 0.1083(2) 0.0816(4)
H19 H 0.1251 0.1088 0.0482
H20 H 0.2036 0.0441 0.1225
H21 H 0.2089 0.1193 0.0088
N1 N 0.00366(15) 0.8795(2) -0.1972(3)
O1 O 0.27292(11) 0.61692(13) 0.47007(15)
O2 O 0.18512(9) 0.57616(12) 0.27088(14)
O3 O 0.26785(13) 0.37538(13) 0.2667(2)
O4 O 0.17461(12) 0.28259(13) 0.1218(2)
O5 O -0.03571(16) 0.85922(18) -0.3112(2)
O6 O 0.01006(15) 0.96462(19) -0.1500(2)
loop_
_geom_bond_atom_site_label_1
_geom_bond_atom_site_label_2
_geom_bond_site_symmetry_1
_geom_bond_site_symmetry_2
C1 C2 1_555 1_555
C2 C3 1_555 1_555
C3 C4 1_555 1_555
C4 H1 1_555 1_555
C5 C4 1_555 1_555
H2 C5 1_555 1_555
C6 C5 1_555 1_555
H3 C6 1_555 1_555
C7 C6 1_555 1_555
H4 C7 1_555 1_555
C8 C3 1_555 1_555
H5 C8 1_555 1_555
C9 C2 1_555 1_555
C10 C9 1_555 1_555
C11 C10 1_555 1_555
H6 C11 1_555 1_555
C12 C11 1_555 1_555
H7 C12 1_555 1_555
C13 C12 1_555 1_555
H8 C13 1_555 1_555
C14 C13 1_555 1_555
H9 C14 1_555 1_555
C15 C10 1_555 1_555
H10 C15 1_555 1_555
C16 C9 1_555 1_555
C17 C16 1_555 1_555
C18 C17 1_555 1_555
H11 C18 1_555 1_555
C19 C18 1_555 1_555
H12 C19 1_555 1_555
C20 C19 1_555 1_555
C21 C20 1_555 1_555
H13 C21 1_555 1_555
C22 C17 1_555 1_555
H14 C22 1_555 1_555
C23 C16 1_555 1_555
H15 C23 1_555 1_555
H16 C23 1_555 1_555
C24 C23 1_555 1_555
C25 H17 1_555 1_555
H18 C25 1_555 1_555
C26 C25 1_555 1_555
H19 C26 1_555 1_555
H20 C26 1_555 1_555
H21 C26 1_555 1_555
N1 C20 1_555 1_555
O1 C1 1_555 1_555
O2 C1 1_555 1_555
O3 C24 1_555 1_555
O4 C24 1_555 1_555
O5 N1 1_555 1_555
O6 N1 1_555 1_555
C7 C8 1_555 1_555
C14 C15 1_555 1_555
C16 O2 1_555 1_555
C21 C22 1_555 1_555
C25 O4 1_555 1_555

#END
