
#######################################################################
#
#                 Cambridge Crystallographic Data Centre
#                                CCDC 
#
#######################################################################
#
# If this CIF has been generated from an entry in the Cambridge 
# Structural Database, then it will include bibliographic, chemical, 
# crystal, experimental, refinement or atomic coordinate data resulting 
# from the CCDC's data processing and validation procedures.
#
#######################################################################

data_XAKWEO
_chemical_formula_moiety         'C34 H29 N2 O3 P1 S1,C1 H1 Cl3'
_chemical_name_systematic        
'N-[1-benzyl-3-(diphenylphosphoryl)-1H-indol-2-yl]-4-methylbenzene-1-sulfonamide chloroform solvate'
_symmetry_cell_setting           monoclinic
_symmetry_space_group_name_H-M   'C 2/c'
_symmetry_Int_Tables_number      15
_space_group_name_Hall           '-C 2yn'
loop_
_symmetry_equiv_pos_site_id
_symmetry_equiv_pos_as_xyz
1 x,y,z
2 -x,y,1/2-z
3 1/2+x,1/2+y,z
4 1/2-x,1/2+y,1/2-z
5 -x,-y,-z
6 x,-y,1/2+z
7 1/2-x,1/2-y,-z
8 1/2+x,1/2-y,1/2+z
_cell_length_a                   32.921(7)
_cell_length_b                   11.658(2)
_cell_length_c                   20.290(4)
_cell_angle_alpha                90
_cell_angle_beta                 118.58(3)
_cell_angle_gamma                90
_cell_volume                     6838.29
_exptl_crystal_colour            yellow
_exptl_crystal_description       block
_cell_formula_units_Z            8
loop_
_atom_site_label
_atom_site_type_symbol
_atom_site_fract_x
_atom_site_fract_y
_atom_site_fract_z
P1 P 0.58390(2) 0.74556(5) 0.44072(3)
S1 S 0.69406(3) 0.95921(6) 0.60017(4)
N1 N 0.67923(7) 0.68877(18) 0.65043(10)
O1 O 0.57314(6) 0.86636(15) 0.45194(10)
C1 C 0.67117(8) 0.5752(2) 0.62830(13)
C2 C 0.69345(9) 0.9566(2) 0.51327(15)
N2 N 0.65152(8) 0.87594(18) 0.59556(12)
H1 H 0.6252 0.9020 0.5622
C3 C 0.68927(9) 0.4765(3) 0.67058(15)
H2 H 0.7096 0.4804 0.7218
O2 O 0.73652(7) 0.9080(2) 0.65410(11)
C4 C 0.53457(9) 0.6528(2) 0.41279(14)
C5 C 0.62802(8) 0.68905(19) 0.52678(12)
O3 O 0.68179(11) 1.07110(19) 0.61196(15)
C6 C 0.60035(9) 0.7323(2) 0.36841(14)
C7 C 0.62647(9) 0.4643(2) 0.51607(15)
H3 H 0.6055 0.4593 0.4652
C8 C 0.63938(8) 0.5715(2) 0.55160(12)
C9 C 0.64543(10) 0.3667(2) 0.55795(17)
H4 H 0.6375 0.2954 0.5347
C10 C 0.65326(8) 0.7561(2) 0.58906(12)
C11 C 0.67617(10) 0.3730(2) 0.63426(17)
H5 H 0.6881 0.3057 0.6613
C12 C 0.68024(11) 0.7061(2) 0.77351(15)
C13 C 0.52166(11) 0.5713(3) 0.35633(18)
H6 H 0.5385 0.5625 0.3307
C14 C 0.70545(10) 0.7253(3) 0.72926(13)
H7 H 0.7126 0.8063 0.7307
H8 H 0.7345 0.6837 0.7531
C15 C 0.61919(15) 0.7113(4) 0.2500(2)
H9 H 0.6255 0.7045 0.2102
C16 C 0.50862(11) 0.6638(3) 0.44949(19)
H10 H 0.5168 0.7184 0.4872
C17 C 0.65934(12) 1.0149(3) 0.45275(19)
H11 H 0.6361 1.0536 0.4572
C18 C 0.58467(15) 0.7807(4) 0.24368(19)
H12 H 0.5674 0.8212 0.1994
C19 C 0.69380(16) 0.9603(4) 0.3023(2)
H13 H 0.7118 1.0241 0.3009
H14 H 0.6626 0.9677 0.2626
H15 H 0.7069 0.8902 0.2961
C20 C 0.63556(10) 0.6612(3) 0.37462(17)
H16 H 0.6530 0.6204 0.4187
C21 C 0.72742(13) 0.9016(3) 0.4380(2)
H17 H 0.7507 0.8635 0.4334
C22 C 0.48310(14) 0.5028(4) 0.3387(2)
H18 H 0.4743 0.4477 0.3012
C23 C 0.57474(12) 0.7921(3) 0.30246(16)
H19 H 0.5509 0.8400 0.2975
C24 C 0.66035(12) 1.0146(3) 0.38615(19)
H20 H 0.6374 1.0539 0.3455
C25 C 0.72748(11) 0.8991(3) 0.5058(2)
H21 H 0.7503 0.8591 0.5461
C26 C 0.70519(15) 0.6833(3) 0.84927(18)
H22 H 0.7372 0.6768 0.8723
C27 C 0.69405(12) 0.9585(3) 0.37700(19)
C28 C 0.63289(13) 0.7166(3) 0.74189(19)
H23 H 0.6157 0.7309 0.6907
C29 C 0.47062(13) 0.5942(4) 0.4305(2)
H24 H 0.4536 0.6019 0.4559
C30 C 0.64507(13) 0.6505(4) 0.3149(2)
H25 H 0.6687 0.6026 0.3189
C31 C 0.6348(3) 0.6834(4) 0.8581(3)
H26 H 0.6197 0.6767 0.8865
C32 C 0.6819(3) 0.6700(4) 0.8915(3)
H27 H 0.6984 0.6519 0.9423
C33 C 0.45809(14) 0.5156(4) 0.3758(3)
H28 H 0.4323 0.4697 0.3631
C34 C 0.61024(17) 0.7067(4) 0.7833(3)
H29 H 0.5783 0.7157 0.7605
C35 C 0.5186(3) 0.0816(5) 0.4073(5)
H30 H 0.5347 0.0116 0.4337
Cl1 Cl 0.46232(7) 0.0822(2) 0.38812(19)
Cl2 Cl 0.5075(3) 0.0839(5) 0.3022(3)
Cl3 Cl 0.54382(18) 0.1806(5) 0.4429(5)
Cl4? Cl 0.55853(15) 0.1147(3) 0.5228(2)
Cl5? Cl 0.5399(3) 0.1964(6) 0.3795(3)
H31? H 0.5271 0.0083 0.3935
loop_
_geom_bond_atom_site_label_1
_geom_bond_atom_site_label_2
_geom_bond_site_symmetry_1
_geom_bond_site_symmetry_2
P1 O1 1_555 1_555
S1 C2 1_555 1_555
N1 C1 1_555 1_555
C1 C3 1_555 1_555
C2 C17 1_555 1_555
N2 S1 1_555 1_555
H1 N2 1_555 1_555
C3 H2 1_555 1_555
O2 S1 1_555 1_555
C4 P1 1_555 1_555
C5 P1 1_555 1_555
O3 S1 1_555 1_555
C6 P1 1_555 1_555
C7 H3 1_555 1_555
C8 C1 1_555 1_555
C9 C7 1_555 1_555
H4 C9 1_555 1_555
C10 N1 1_555 1_555
C11 C3 1_555 1_555
H5 C11 1_555 1_555
C12 C14 1_555 1_555
C13 C4 1_555 1_555
H6 C13 1_555 1_555
C14 N1 1_555 1_555
H7 C14 1_555 1_555
H8 C14 1_555 1_555
C15 H9 1_555 1_555
C16 C4 1_555 1_555
H10 C16 1_555 1_555
C17 H11 1_555 1_555
C18 C15 1_555 1_555
H12 C18 1_555 1_555
C19 H13 1_555 1_555
H14 C19 1_555 1_555
H15 C19 1_555 1_555
C20 C6 1_555 1_555
H16 C20 1_555 1_555
C21 H17 1_555 1_555
C22 C13 1_555 1_555
H18 C22 1_555 1_555
C23 C6 1_555 1_555
H19 C23 1_555 1_555
C24 C17 1_555 1_555
H20 C24 1_555 1_555
C25 C2 1_555 1_555
H21 C25 1_555 1_555
C26 C12 1_555 1_555
H22 C26 1_555 1_555
C27 C19 1_555 1_555
C28 C12 1_555 1_555
H23 C28 1_555 1_555
C29 C16 1_555 1_555
H24 C29 1_555 1_555
C30 C15 1_555 1_555
H25 C30 1_555 1_555
C31 H26 1_555 1_555
C32 C26 1_555 1_555
H27 C32 1_555 1_555
C33 C22 1_555 1_555
H28 C33 1_555 1_555
C34 C28 1_555 1_555
H29 C34 1_555 1_555
C35 H30 1_555 1_555
Cl1 C35 1_555 1_555
Cl2 C35 1_555 1_555
Cl3 C35 1_555 1_555
N2 C10 1_555 1_555
C5 C8 1_555 1_555
C5 C10 1_555 1_555
C7 C8 1_555 1_555
C9 C11 1_555 1_555
C18 C23 1_555 1_555
C20 C30 1_555 1_555
C21 C25 1_555 1_555
C21 C27 1_555 1_555
C24 C27 1_555 1_555
C29 C33 1_555 1_555
C31 C32 1_555 1_555
C31 C34 1_555 1_555

#END
