
#######################################################################
#
#                 Cambridge Crystallographic Data Centre
#                                CCDC 
#
#######################################################################
#
# If this CIF has been generated from an entry in the Cambridge 
# Structural Database, then it will include bibliographic, chemical, 
# crystal, experimental, refinement or atomic coordinate data resulting 
# from the CCDC's data processing and validation procedures.
#
#######################################################################

data_XALBOE
_chemical_formula_moiety         'C18 H12 N2 O6 S1'
_chemical_name_systematic        
'9-nitro-6H-benzo[c]chromen-1-yl pyridine-2-sulfonate'
_symmetry_cell_setting           monoclinic
_symmetry_space_group_name_H-M   'P 21/n'
_symmetry_Int_Tables_number      14
_space_group_name_Hall           '-P 2yn'
loop_
_symmetry_equiv_pos_site_id
_symmetry_equiv_pos_as_xyz
1 x,y,z
2 1/2-x,1/2+y,1/2-z
3 -x,-y,-z
4 1/2+x,1/2-y,1/2+z
_cell_length_a                   7.9347(16)
_cell_length_b                   13.383(3)
_cell_length_c                   15.493(3)
_cell_angle_alpha                90
_cell_angle_beta                 90.928(3)
_cell_angle_gamma                90
_cell_volume                     1644.99
_exptl_crystal_colour            colorless
_exptl_crystal_description       block
_cell_formula_units_Z            4
loop_
_atom_site_label
_atom_site_type_symbol
_atom_site_fract_x
_atom_site_fract_y
_atom_site_fract_z
S1 S 0.08144(7) 1.11744(5) 0.34097(4)
N1 N 0.3908(2) 1.16732(15) 0.30162(13)
N2 N 0.1031(3) 0.89047(17) 0.04130(17)
O1 O -0.08009(19) 1.13309(14) 0.30282(12)
O2 O 0.1206(2) 1.15517(14) 0.42444(11)
O3 O 0.09773(17) 0.99812(12) 0.34158(10)
O4 O 0.1203(3) 0.88890(19) -0.03604(15)
O5 O -0.0327(3) 0.88135(18) 0.07514(14)
O6 O 0.6545(2) 0.85532(14) 0.33348(13)
C1 C 0.2379(3) 1.15475(18) 0.26687(16)
C2 C 0.1958(3) 1.16684(19) 0.18129(17)
H1 H 0.0865 1.1558 0.1609
C3 C 0.3228(4) 1.1962(2) 0.12662(18)
H2 H 0.3007 1.2059 0.0681
C4 C 0.4818(3) 1.2108(2) 0.1601(2)
H3 H 0.5688 1.2314 0.1248
C5 C 0.5108(3) 1.1947(2) 0.2466(2)
H4 H 0.6199 1.2032 0.2681
C6 C 0.2401(3) 0.95316(17) 0.38360(16)
C7 C 0.2361(3) 0.9385(2) 0.47067(18)
H5 H 0.1441 0.9597 0.5023
C8 C 0.3707(4) 0.8917(2) 0.51121(19)
H6 H 0.3672 0.8786 0.5701
C9 C 0.5094(4) 0.86432(19) 0.46535(19)
H7 H 0.6009 0.8340 0.4930
C10 C 0.5118(3) 0.88218(18) 0.37774(18)
C11 C 0.3737(3) 0.92205(17) 0.33234(16)
C12 C 0.3762(3) 0.91940(17) 0.23737(16)
C13 C 0.2338(3) 0.91084(17) 0.18404(16)
H8 H 0.1268 0.9109 0.2076
C14 C 0.2528(3) 0.90240(18) 0.09672(17)
C15 C 0.4087(3) 0.9032(2) 0.05849(19)
H9 H 0.4180 0.9005 -0.0012
C16 C 0.5502(3) 0.9081(2) 0.1110(2)
H10 H 0.6565 0.9065 0.0866
C17 C 0.5360(3) 0.91543(19) 0.19906(18)
C18 C 0.6839(3) 0.9178(2) 0.2603(2)
H11 H 0.7838 0.8950 0.2308
H12 H 0.7035 0.9859 0.2794
loop_
_geom_bond_atom_site_label_1
_geom_bond_atom_site_label_2
_geom_bond_site_symmetry_1
_geom_bond_site_symmetry_2
S1 O1 1_555 1_555
N1 C1 1_555 1_555
N2 O4 1_555 1_555
O2 S1 1_555 1_555
O3 S1 1_555 1_555
O5 N2 1_555 1_555
O6 C10 1_555 1_555
C1 S1 1_555 1_555
C2 C1 1_555 1_555
H1 C2 1_555 1_555
C3 C2 1_555 1_555
H2 C3 1_555 1_555
C4 C3 1_555 1_555
H3 C4 1_555 1_555
C5 N1 1_555 1_555
H4 C5 1_555 1_555
C6 O3 1_555 1_555
C7 C6 1_555 1_555
H5 C7 1_555 1_555
C8 C7 1_555 1_555
H6 C8 1_555 1_555
C9 C8 1_555 1_555
H7 C9 1_555 1_555
C10 C9 1_555 1_555
C11 C6 1_555 1_555
C12 C11 1_555 1_555
C13 C12 1_555 1_555
H8 C13 1_555 1_555
C14 N2 1_555 1_555
C15 C14 1_555 1_555
H9 C15 1_555 1_555
C16 C15 1_555 1_555
H10 C16 1_555 1_555
C17 C12 1_555 1_555
C18 O6 1_555 1_555
H11 C18 1_555 1_555
H12 C18 1_555 1_555
C4 C5 1_555 1_555
C10 C11 1_555 1_555
C13 C14 1_555 1_555
C16 C17 1_555 1_555
C17 C18 1_555 1_555

#END
