
#######################################################################
#
#                 Cambridge Crystallographic Data Centre
#                                CCDC 
#
#######################################################################
#
# If this CIF has been generated from an entry in the Cambridge 
# Structural Database, then it will include bibliographic, chemical, 
# crystal, experimental, refinement or atomic coordinate data resulting 
# from the CCDC's data processing and validation procedures.
#
#######################################################################

data_XALCOF
_chemical_formula_moiety         'C23 H15 Cl1 F1 N1'
_chemical_name_systematic        
4-(2-chloro-6-fluorophenyl)-2,6-diphenylpyridine
_symmetry_cell_setting           tetragonal
_symmetry_space_group_name_H-M   'P 43 21 2'
_symmetry_Int_Tables_number      96
_space_group_name_Hall           'P 4nw 2abw'
loop_
_symmetry_equiv_pos_site_id
_symmetry_equiv_pos_as_xyz
1 x,y,z
2 1/2-y,1/2+x,3/4+z
3 -x,-y,1/2+z
4 1/2+y,1/2-x,1/4+z
5 1/2+x,1/2-y,1/4-z
6 y,x,-z
7 1/2-x,1/2+y,3/4-z
8 -y,-x,1/2-z
_cell_length_a                   12.115(12)
_cell_length_b                   12.115(12)
_cell_length_c                   12.641(12)
_cell_angle_alpha                90
_cell_angle_beta                 90
_cell_angle_gamma                90
_cell_volume                     1855.36
_exptl_crystal_colour            colorless
_exptl_crystal_description       block
_cell_formula_units_Z            4
loop_
_atom_site_label
_atom_site_type_symbol
_atom_site_fract_x
_atom_site_fract_y
_atom_site_fract_z
F1 F -0.7807(7) -0.5657(8) -0.1267(7)
N1 N -0.42265(10) -0.42265(10) 0.0000
C1 C -0.27479(14) -0.42247(15) -0.18146(12)
H1 H -0.3137 -0.3568 -0.1737
C2 C -0.17935(15) -0.42508(18) -0.24413(14)
H2 H -0.1553 -0.3615 -0.2784
C3 C -0.12051(16) -0.5236(2) -0.25488(16)
H3 H -0.0566 -0.5255 -0.2956
C4 C -0.15727(19) -0.6178(2) -0.20519(18)
H4 H -0.1180 -0.6833 -0.2126
C5 C -0.25279(16) -0.61570(16) -0.14389(15)
H5 H -0.2774 -0.6801 -0.1116
C6 C -0.31185(12) -0.51801(13) -0.13050(12)
C7 C -0.41312(12) -0.51390(12) -0.06203(11)
C8 C -0.49245(13) -0.59800(13) -0.06279(12)
H6 H -0.4823 -0.6604 -0.1046
C9 C -0.58741(12) -0.58741(12) 0.0000
C10 C -0.67554(14) -0.67554(14) 0.0000
C11 C -0.77038(18) -0.6681(2) -0.06104(19)
C12 C -0.8520(2) -0.7501(3) -0.0620(3)
H7 H -0.9137 -0.7424 -0.1050
C13 C -0.8405(2) -0.8405(2) 0.0000
H8 H -0.8948 -0.8948 0.0000
F1E F -0.5657(8) -0.7807(7) 0.1267(7)
C1E C -0.42247(15) -0.27479(14) 0.18146(12)
H1E H -0.3568 -0.3137 0.1737
C2E C -0.42508(18) -0.17935(15) 0.24413(14)
H2E H -0.3615 -0.1553 0.2784
C3E C -0.5236(2) -0.12051(16) 0.25488(16)
H3E H -0.5255 -0.0566 0.2956
C4E C -0.6178(2) -0.15727(19) 0.20519(18)
H4E H -0.6833 -0.1180 0.2126
C5E C -0.61570(16) -0.25279(16) 0.14389(15)
H5E H -0.6801 -0.2774 0.1116
C6E C -0.51801(13) -0.31185(12) 0.13050(12)
C7E C -0.51390(12) -0.41312(12) 0.06203(11)
C8E C -0.59800(13) -0.49245(13) 0.06279(12)
H6E H -0.6604 -0.4823 0.1046
C11E C -0.6681(2) -0.77038(18) 0.06104(19)
C12E C -0.7501(3) -0.8520(2) 0.0620(3)
H7E H -0.7424 -0.9137 0.1050
Cl1? Cl -0.7913(2) -0.56539(19) -0.1372(2)
loop_
_geom_bond_atom_site_label_1
_geom_bond_atom_site_label_2
_geom_bond_site_symmetry_1
_geom_bond_site_symmetry_2
F1 C11 1_555 1_555
N1 C7 1_555 1_555
C1 H1 1_555 1_555
C2 C1 1_555 1_555
H2 C2 1_555 1_555
C3 C2 1_555 1_555
H3 C3 1_555 1_555
C4 C3 1_555 1_555
H4 C4 1_555 1_555
C5 C4 1_555 1_555
H5 C5 1_555 1_555
C6 C1 1_555 1_555
C7 C6 1_555 1_555
C8 C7 1_555 1_555
H6 C8 1_555 1_555
C9 C8 1_555 1_555
C10 C9 1_555 1_555
C11 C10 1_555 1_555
C12 C11 1_555 1_555
H7 C12 1_555 1_555
C13 C12 1_555 1_555
H8 C13 1_555 1_555
F1E C11E 1_555 1_555
C1E H1E 1_555 1_555
C2E C1E 1_555 1_555
H2E C2E 1_555 1_555
C3E C2E 1_555 1_555
H3E C3E 1_555 1_555
C4E C3E 1_555 1_555
H4E C4E 1_555 1_555
C5E C4E 1_555 1_555
H5E C5E 1_555 1_555
C6E C1E 1_555 1_555
C7E N1 1_555 1_555
C8E C9 1_555 1_555
H6E C8E 1_555 1_555
C11E C10 1_555 1_555
C12E C13 1_555 1_555
H7E C12E 1_555 1_555
C5 C6 1_555 1_555
C5E C6E 1_555 1_555
C6E C7E 1_555 1_555
C7E C8E 1_555 1_555
C11E C12E 1_555 1_555

#END
