
#######################################################################
#
#                 Cambridge Crystallographic Data Centre
#                                CCDC 
#
#######################################################################
#
# If this CIF has been generated from an entry in the Cambridge 
# Structural Database, then it will include bibliographic, chemical, 
# crystal, experimental, refinement or atomic coordinate data resulting 
# from the CCDC's data processing and validation procedures.
#
#######################################################################

data_XALCAR
_chemical_formula_moiety         'C20 H17 N1 O4 S1'
_chemical_name_systematic        
'8,10-dimethyl-6H-benzo[c]chromen-1-yl pyridine-2-sulfonate'
_symmetry_cell_setting           monoclinic
_symmetry_space_group_name_H-M   'P 21/n'
_symmetry_Int_Tables_number      14
_space_group_name_Hall           '-P 2yn'
loop_
_symmetry_equiv_pos_site_id
_symmetry_equiv_pos_as_xyz
1 x,y,z
2 1/2-x,1/2+y,1/2-z
3 -x,-y,-z
4 1/2+x,1/2-y,1/2+z
_cell_length_a                   8.2666(16)
_cell_length_b                   17.036(3)
_cell_length_c                   12.631(2)
_cell_angle_alpha                90
_cell_angle_beta                 96.421(4)
_cell_angle_gamma                90
_cell_volume                     1767.66
_exptl_crystal_colour            colorless
_exptl_crystal_description       block
_cell_formula_units_Z            4
loop_
_atom_site_label
_atom_site_type_symbol
_atom_site_fract_x
_atom_site_fract_y
_atom_site_fract_z
S1 S -0.25884(7) 0.11771(4) 0.09266(5)
N1 N -0.0138(2) 0.19557(12) 0.19198(16)
O1 O -0.29615(17) 0.07515(9) 0.19956(11)
O2 O -0.3531(2) 0.18651(11) 0.09061(16)
O3 O -0.2795(2) 0.06359(11) 0.00679(13)
O4 O 0.0896(2) -0.13178(9) 0.28841(14)
C1 C -0.0493(3) 0.14117(13) 0.11712(17)
C2 C 0.0605(3) 0.10443(17) 0.0618(2)
H1 H 0.0300 0.0663 0.0108
C3 C 0.2233(4) 0.1280(2) 0.0870(3)
H2 H 0.3048 0.1058 0.0514
C4 C 0.2612(4) 0.1829(2) 0.1631(3)
H3 H 0.3687 0.1985 0.1805
C5 C 0.1426(3) 0.21469(15) 0.2131(2)
H4 H 0.1710 0.2522 0.2654
C6 C -0.2557(3) -0.00536(14) 0.21225(17)
C7 C -0.3703(3) -0.05916(17) 0.1697(2)
H5 H -0.4711 -0.0424 0.1375
C8 C -0.3328(4) -0.13784(17) 0.1757(2)
H6 H -0.4112 -0.1748 0.1517
C9 C -0.1809(4) -0.16199(16) 0.2168(2)
H7 H -0.1546 -0.2151 0.2183
C10 C -0.0662(3) -0.10694(14) 0.25623(18)
C11 C -0.1049(3) -0.02689(12) 0.26465(16)
C12 C 0.0164(3) 0.02299(12) 0.32861(16)
C13 C 0.1786(3) 0.00007(13) 0.32729(17)
C14 C 0.2070(3) -0.07329(14) 0.2671(2)
H8 H 0.1973 -0.0621 0.1914
H9 H 0.3160 -0.0927 0.2885
C15 C 0.3037(3) 0.04063(14) 0.38467(18)
H10 H 0.4109 0.0252 0.3811
C16 C 0.2708(3) 0.10425(14) 0.44767(19)
C17 C 0.1112(3) 0.12270(14) 0.45397(18)
H11 H 0.0884 0.1636 0.4987
C18 C -0.0193(3) 0.08371(13) 0.39721(16)
C19 C 0.4060(4) 0.15048(18) 0.5093(3)
H12 H 0.4349 0.1941 0.4671
H13 H 0.4992 0.1172 0.5257
H14 H 0.3698 0.1695 0.5742
C20 C -0.1889(3) 0.10683(16) 0.41797(19)
H15 H -0.1863 0.1273 0.4890
H16 H -0.2587 0.0616 0.4105
H17 H -0.2298 0.1463 0.3677
loop_
_geom_bond_atom_site_label_1
_geom_bond_atom_site_label_2
_geom_bond_site_symmetry_1
_geom_bond_site_symmetry_2
S1 O1 1_555 1_555
N1 C1 1_555 1_555
O1 C6 1_555 1_555
O2 S1 1_555 1_555
O3 S1 1_555 1_555
O4 C10 1_555 1_555
C1 S1 1_555 1_555
C2 C1 1_555 1_555
H1 C2 1_555 1_555
C3 C2 1_555 1_555
H2 C3 1_555 1_555
C4 C3 1_555 1_555
H3 C4 1_555 1_555
C5 N1 1_555 1_555
H4 C5 1_555 1_555
C6 C7 1_555 1_555
C7 H5 1_555 1_555
C8 C7 1_555 1_555
H6 C8 1_555 1_555
C9 C8 1_555 1_555
H7 C9 1_555 1_555
C10 C9 1_555 1_555
C11 C6 1_555 1_555
C12 C11 1_555 1_555
C13 C12 1_555 1_555
C14 O4 1_555 1_555
H8 C14 1_555 1_555
H9 C14 1_555 1_555
C15 C13 1_555 1_555
H10 C15 1_555 1_555
C16 C15 1_555 1_555
C17 C16 1_555 1_555
H11 C17 1_555 1_555
C18 C12 1_555 1_555
C19 C16 1_555 1_555
H12 C19 1_555 1_555
H13 C19 1_555 1_555
H14 C19 1_555 1_555
C20 C18 1_555 1_555
H15 C20 1_555 1_555
H16 C20 1_555 1_555
H17 C20 1_555 1_555
C4 C5 1_555 1_555
C10 C11 1_555 1_555
C13 C14 1_555 1_555
C17 C18 1_555 1_555

#END
