
#######################################################################
#
#                 Cambridge Crystallographic Data Centre
#                                CCDC 
#
#######################################################################
#
# If this CIF has been generated from an entry in the Cambridge 
# Structural Database, then it will include bibliographic, chemical, 
# crystal, experimental, refinement or atomic coordinate data resulting 
# from the CCDC's data processing and validation procedures.
#
#######################################################################

data_XALFAT
_chemical_formula_moiety         'C15 H18 O4'
_chemical_name_systematic        
'exo-Methyl 1-methoxy-9-methyl-12-oxatricyclo[7.2.1.0^2,7^]dodeca-2,4,6-triene-10-carboxylate'
_symmetry_cell_setting           monoclinic
_symmetry_space_group_name_H-M   'C 2/c'
_symmetry_Int_Tables_number      15
_space_group_name_Hall           '-C 2yn'
loop_
_symmetry_equiv_pos_site_id
_symmetry_equiv_pos_as_xyz
1 x,y,z
2 -x,y,1/2-z
3 1/2+x,1/2+y,z
4 1/2-x,1/2+y,1/2-z
5 -x,-y,-z
6 x,-y,1/2+z
7 1/2-x,1/2-y,-z
8 1/2+x,1/2-y,1/2+z
_cell_length_a                   21.470(5)
_cell_length_b                   9.985(2)
_cell_length_c                   15.746(4)
_cell_angle_alpha                90
_cell_angle_beta                 129.264(2)
_cell_angle_gamma                90
_cell_volume                     2613.51
_exptl_crystal_colour            colorless
_exptl_crystal_description       prism
_cell_formula_units_Z            8
loop_
_atom_site_label
_atom_site_type_symbol
_atom_site_fract_x
_atom_site_fract_y
_atom_site_fract_z
O1 O 0.11681(4) 0.84899(6) 0.11823(5)
O2 O 0.10558(4) 0.62480(7) 0.34750(5)
O3 O 0.21629(4) 0.63042(8) 0.36199(6)
O4 O 0.15055(4) 0.73217(7) 0.02581(5)
C1 C 0.11036(7) 0.91466(10) 0.25868(8)
H1 H 0.1682 0.8970 0.3136
H2 H 0.0841 0.8969 0.2906
H3 H 0.1019 1.0085 0.2354
C2 C 0.07465(6) 0.82421(9) 0.16026(7)
C3 C -0.01399(6) 0.85631(10) 0.06822(8)
H4 H -0.0462 0.8239 0.0891
H5 H -0.0209 0.9546 0.0585
C4 C -0.04477(6) 0.79234(9) -0.03908(8)
C5 C -0.12674(6) 0.78877(10) -0.12841(8)
H6 H -0.1642 0.8257 -0.1216
C6 C -0.15428(6) 0.73172(10) -0.22732(8)
H7 H -0.2103 0.7295 -0.2876
C7 C -0.09986(6) 0.67803(10) -0.23771(8)
H8 H -0.1185 0.6399 -0.3055
C8 C -0.01809(6) 0.67996(9) -0.14918(8)
H9 H 0.0190 0.6417 -0.1562
C9 C 0.00985(5) 0.73782(9) -0.05004(7)
C10 C 0.09859(5) 0.73484(9) 0.05068(7)
C11 C 0.11651(6) 0.61712(9) 0.12521(8)
H10 H 0.1748 0.5974 0.1775
H11 H 0.0871 0.5356 0.0819
C12 C 0.08600(6) 0.66850(9) 0.18505(7)
H12 H 0.0327 0.6268 0.1521
C13 C 0.14419(6) 0.63886(9) 0.30644(8)
C14 C 0.15744(6) 0.60011(11) 0.46471(8)
H13 H 0.1883 0.5179 0.4818
H14 H 0.1245 0.5901 0.4876
H15 H 0.1945 0.6756 0.5039
C15 C 0.15110(6) 0.85277(10) -0.02354(9)
H16 H 0.0963 0.8727 -0.0901
H17 H 0.1863 0.8407 -0.0425
H18 H 0.1710 0.9272 0.0283
loop_
_geom_bond_atom_site_label_1
_geom_bond_atom_site_label_2
_geom_bond_site_symmetry_1
_geom_bond_site_symmetry_2
O1 C2 1_555 1_555
O2 C13 1_555 1_555
O3 C13 1_555 1_555
O4 C10 1_555 1_555
C1 H1 1_555 1_555
H2 C1 1_555 1_555
H3 C1 1_555 1_555
C2 C1 1_555 1_555
C3 C2 1_555 1_555
H4 C3 1_555 1_555
H5 C3 1_555 1_555
C4 C3 1_555 1_555
C5 C4 1_555 1_555
H6 C5 1_555 1_555
C6 C5 1_555 1_555
H7 C6 1_555 1_555
C7 C6 1_555 1_555
H8 C7 1_555 1_555
C8 C7 1_555 1_555
H9 C8 1_555 1_555
C9 C4 1_555 1_555
C10 O1 1_555 1_555
C11 C10 1_555 1_555
H10 C11 1_555 1_555
H11 C11 1_555 1_555
C12 C2 1_555 1_555
H12 C12 1_555 1_555
C13 C12 1_555 1_555
C14 O2 1_555 1_555
H13 C14 1_555 1_555
H14 C14 1_555 1_555
H15 C14 1_555 1_555
C15 O4 1_555 1_555
H16 C15 1_555 1_555
H17 C15 1_555 1_555
H18 C15 1_555 1_555
C8 C9 1_555 1_555
C9 C10 1_555 1_555
C11 C12 1_555 1_555

#END
