
#######################################################################
#
#                 Cambridge Crystallographic Data Centre
#                                CCDC 
#
#######################################################################
#
# If this CIF has been generated from an entry in the Cambridge 
# Structural Database, then it will include bibliographic, chemical, 
# crystal, experimental, refinement or atomic coordinate data resulting 
# from the CCDC's data processing and validation procedures.
#
#######################################################################

data_XALMUU
_chemical_formula_moiety         'C20 H25 O2 P1'
_chemical_name_systematic        3-(Diethylphosphoryl)-1,3-diphenylbutan-1-one
_symmetry_cell_setting           trigonal
_symmetry_space_group_name_H-M   'P 31'
_symmetry_Int_Tables_number      144
_space_group_name_Hall           'P 31'
loop_
_symmetry_equiv_pos_site_id
_symmetry_equiv_pos_as_xyz
1 x,y,z
2 -y,x-y,1/3+z
3 -x+y,-x,2/3+z
_cell_length_a                   13.410(5)
_cell_length_b                   13.410(5)
_cell_length_c                   8.943(5)
_cell_angle_alpha                90
_cell_angle_beta                 90
_cell_angle_gamma                120
_cell_volume                     1392.74
_exptl_crystal_colour            colorless
_exptl_crystal_description       block
_cell_formula_units_Z            3
loop_
_atom_site_label
_atom_site_type_symbol
_atom_site_fract_x
_atom_site_fract_y
_atom_site_fract_z
C1 C 0.8189(5) 0.9527(6) 0.2789(7)
H1 H 0.8559 1.0315 0.2970
C2 C 0.8728(6) 0.8900(7) 0.3136(9)
H2 H 0.9471 0.9273 0.3524
C3 C 0.8166(6) 0.7734(8) 0.2905(8)
H3 H 0.8526 0.7317 0.3155
C4 C 0.7096(6) 0.7184(6) 0.2320(7)
H4 H 0.6722 0.6391 0.2181
C5 C 0.6550(5) 0.7791(5) 0.1923(6)
H5 H 0.5822 0.7411 0.1492
C6 C 0.7095(4) 0.8967(5) 0.2172(6)
C7 C 0.6563(5) 0.9687(5) 0.1808(6)
C8 C 0.5316(4) 0.9065(4) 0.1333(6)
H6 H 0.4865 0.8546 0.2133
H7 H 0.5241 0.8595 0.0469
C9 C 0.4772(4) 0.9820(4) 0.0931(6)
C10 C 0.5287(4) 1.0533(4) -0.0503(6)
C11 C 0.5912(5) 1.0295(5) -0.1497(7)
H8 H 0.6040 0.9686 -0.1305
C12 C 0.6362(5) 1.0939(6) -0.2785(7)
H9 H 0.6781 1.0760 -0.3454
C13 C 0.6184(5) 1.1844(5) -0.3067(7)
H10 H 0.6502 1.2294 -0.3915
C14 C 0.5556(5) 1.2080(5) -0.2126(8)
H11 H 0.5409 1.2673 -0.2346
C15 C 0.5126(4) 1.1454(4) -0.0836(7)
H12 H 0.4718 1.1650 -0.0172
C16 C 0.4833(5) 1.0541(5) 0.2294(6)
H13 H 0.5622 1.1094 0.2505
H14 H 0.4497 1.0046 0.3143
H15 H 0.4416 1.0936 0.2088
C17 C 0.3147(5) 0.8004(5) -0.1060(6)
H16 H 0.3226 0.8504 -0.1891
H17 H 0.3801 0.7882 -0.1091
C18 C 0.2071(7) 0.6865(6) -0.1293(8)
H18 H 0.1907 0.6406 -0.0406
H19 H 0.2180 0.6472 -0.2120
H20 H 0.1439 0.6989 -0.1504
C19 C 0.2444(5) 0.9506(6) 0.0312(9)
H21 H 0.2847 1.0237 0.0832
H22 H 0.2481 0.9673 -0.0748
C20 C 0.1300(8) 0.8959(9) 0.0745(15)
H23 H 0.0833 0.8931 -0.0085
H24 H 0.1208 0.9377 0.1554
H25 H 0.1066 0.8189 0.1066
O1 O 0.7132(3) 1.0732(3) 0.1874(5)
O2 O 0.2747(3) 0.7947(3) 0.1943(4)
P1 P 0.32171(11) 0.87370(11) 0.06375(17)
loop_
_geom_bond_atom_site_label_1
_geom_bond_atom_site_label_2
_geom_bond_site_symmetry_1
_geom_bond_site_symmetry_2
C1 H1 1_555 1_555
C2 C1 1_555 1_555
H2 C2 1_555 1_555
C3 C2 1_555 1_555
H3 C3 1_555 1_555
C4 C3 1_555 1_555
H4 C4 1_555 1_555
C5 C4 1_555 1_555
H5 C5 1_555 1_555
C6 C1 1_555 1_555
C7 C6 1_555 1_555
C8 C7 1_555 1_555
H6 C8 1_555 1_555
H7 C8 1_555 1_555
C9 C8 1_555 1_555
C10 C9 1_555 1_555
C11 C10 1_555 1_555
H8 C11 1_555 1_555
C12 C11 1_555 1_555
H9 C12 1_555 1_555
C13 C12 1_555 1_555
H10 C13 1_555 1_555
C14 C13 1_555 1_555
H11 C14 1_555 1_555
C15 C10 1_555 1_555
H12 C15 1_555 1_555
C16 C9 1_555 1_555
H13 C16 1_555 1_555
H14 C16 1_555 1_555
H15 C16 1_555 1_555
C17 H16 1_555 1_555
H17 C17 1_555 1_555
C18 C17 1_555 1_555
H18 C18 1_555 1_555
H19 C18 1_555 1_555
H20 C18 1_555 1_555
C19 H21 1_555 1_555
H22 C19 1_555 1_555
C20 C19 1_555 1_555
H23 C20 1_555 1_555
H24 C20 1_555 1_555
H25 C20 1_555 1_555
O1 C7 1_555 1_555
O2 P1 1_555 1_555
P1 C9 1_555 1_555
C5 C6 1_555 1_555
C14 C15 1_555 1_555
C17 P1 1_555 1_555
C19 P1 1_555 1_555

#END
