
#######################################################################
#
#                 Cambridge Crystallographic Data Centre
#                                CCDC 
#
#######################################################################
#
# If this CIF has been generated from an entry in the Cambridge 
# Structural Database, then it will include bibliographic, chemical, 
# crystal, experimental, refinement or atomic coordinate data resulting 
# from the CCDC's data processing and validation procedures.
#
#######################################################################

data_XALNIK
_chemical_name_common            'Afatinib acetonitrile solvate dihydrate'
_chemical_formula_moiety         'C24 H25 Cl1 F1 N5 O3,0.25(C2 H3 N1),2(H2 O1)'
_chemical_name_systematic        
'N-{4-[(3-chloro-4-fluorophenyl)amino]-7-[(oxolan-3-yl)oxy]quinazolin-6-yl}-4-(dimethylamino)but-2-enamide acetonitrile solvate dihydrate'
_symmetry_cell_setting           tetragonal
_symmetry_space_group_name_H-M   'P 4 21 2'
_symmetry_Int_Tables_number      90
_space_group_name_Hall           'P 4ab 2ab'
loop_
_symmetry_equiv_pos_site_id
_symmetry_equiv_pos_as_xyz
1 x,y,z
2 -x,-y,z
3 1/2-y,1/2+x,z
4 1/2+y,1/2-x,z
5 1/2-x,1/2+y,-z
6 1/2+x,1/2-y,-z
7 y,x,-z
8 -y,-x,-z
_cell_length_a                   26.2427(4)
_cell_length_b                   26.2427(4)
_cell_length_c                   15.1639(3)
_cell_angle_alpha                90
_cell_angle_beta                 90
_cell_angle_gamma                90
_cell_volume                     10443.1
_exptl_crystal_colour            colorless
_exptl_crystal_description       needle
_cell_formula_units_Z            16
loop_
_atom_site_label
_atom_site_type_symbol
_atom_site_fract_x
_atom_site_fract_y
_atom_site_fract_z
Cl1 Cl 0.54599(6) 0.23028(6) 0.07047(8)
F1 F 0.53997(14) 0.11926(14) 0.0581(2)
N1 N 0.75215(15) 0.32939(16) -0.2041(2)
N2 N 0.69450(16) 0.27266(17) -0.1303(2)
N3 N 0.72103(16) 0.19492(16) -0.0728(2)
H1 H 0.746818 0.173820 -0.066170
C1 C 0.7073(2) 0.3151(2) -0.1742(3)
H2 H 0.680162 0.338100 -0.185363
C2 C 0.7321(2) 0.24006(19) -0.1137(3)
C3 C 0.78385(19) 0.25115(19) -0.1379(3)
C4 C 0.82582(19) 0.22136(19) -0.1152(3)
H3 H 0.820572 0.190478 -0.083829
N4 N 0.91692(16) 0.20715(16) -0.1080(2)
H4 H 0.941274 0.200066 -0.145975
C5 C 0.87443(19) 0.2355(2) -0.1371(3)
N5 N 1.04992(17) 0.12854(18) 0.1606(3)
C6 C 0.88205(19) 0.2798(2) -0.1896(3)
C7 C 0.84157(19) 0.31025(19) -0.2122(3)
H5 H 0.846941 0.340077 -0.246439
C8 C 0.79197(19) 0.2972(2) -0.1844(2)
C9 C 0.6739(2) 0.1778(2) -0.0399(3)
C10 C 0.6657(2) 0.1251(2) -0.0379(3)
H6 H 0.691093 0.102591 -0.059468
C11 C 0.6204(3) 0.1056(2) -0.0044(4)
H7 H 0.614608 0.069887 -0.003718
C12 C 0.5843(2) 0.1383(2) 0.0276(4)
C13 C 0.5921(2) 0.1902(2) 0.0279(3)
C14 C 0.6371(2) 0.2107(2) -0.0059(3)
H8 H 0.642506 0.246471 -0.005889
O1 O 0.89023(13) 0.20073(14) 0.03517(19)
C15 C 0.92164(19) 0.1904(2) -0.0238(3)
C16 C 0.96642(19) 0.1581(2) -0.0071(3)
H9 H 0.990825 0.153465 -0.052699
C17 C 0.9736(2) 0.1354(2) 0.0697(3)
H10 H 0.948054 0.139789 0.113545
C18 C 1.0186(2) 0.1035(2) 0.0928(3)
H11 H 1.006874 0.069948 0.114942
H12 H 1.039407 0.097553 0.039344
C19 C 1.0761(2) 0.1733(2) 0.1246(4)
H13 H 1.101101 0.162373 0.080490
H14 H 1.093584 0.191439 0.172349
H15 H 1.051144 0.196023 0.096980
C20 C 1.0865(2) 0.0933(2) 0.1990(4)
H16 H 1.109638 0.081026 0.152897
H17 H 1.068379 0.064377 0.225073
H18 H 1.106198 0.110843 0.244765
O2 O 0.93145(13) 0.28774(13) -0.2136(2)
C21 C 0.9410(6) 0.3289(5) -0.2758(17)
H19 H 0.915222 0.328831 -0.324386
C22 C 0.9429(4) 0.3805(5) -0.2302(6)
H20 H 0.913750 0.402123 -0.248009
H21 H 0.942657 0.376599 -0.165226
C23 C 0.9922(4) 0.4027(4) -0.2612(6)
H22 H 0.987716 0.420478 -0.318291
H23 H 1.005922 0.427143 -0.217496
O3 O 1.0252(2) 0.3599(2) -0.2706(4)
C24 C 0.9951(6) 0.3219(4) -0.3124(14)
H24 H 1.008122 0.287436 -0.298384
H25 H 0.995381 0.326476 -0.377212
O4 O 0.99752(15) 0.18082(17) 0.2950(2)
H26 H 1.011(2) 0.164(2) 0.253(3)
H27 H 0.9765(17) 0.2009(18) 0.269(3)
O5 O 0.92301(15) 0.23351(18) 0.2047(2)
H28 H 0.912(2) 0.226(2) 0.154(2)
H29 H 0.8972(16) 0.246(2) 0.228(4)
N6 N 0.500000 0.000000 0.0706(10)
C25 C 0.500000 0.000000 -0.0068(10)
C26 C 0.500000 0.000000 -0.1044(10)
Cl2 Cl 0.95744(6) 0.26892(6) -0.55731(8)
F2 F 0.96334(12) 0.37984(13) -0.5399(2)
N7 N 0.74716(16) 0.16513(17) -0.3001(2)
N8 N 0.80584(16) 0.22306(17) -0.3705(2)
N9 N 0.77931(16) 0.30174(16) -0.4234(2)
H30 H 0.753408 0.322621 -0.430670
C27 C 0.7923(2) 0.1797(2) -0.3279(3)
H31 H 0.819331 0.156553 -0.316512
C28 C 0.7685(2) 0.25621(19) -0.3862(3)
C29 C 0.71662(19) 0.24443(19) -0.3633(3)
C30 C 0.67449(19) 0.27542(19) -0.3855(3)
H32 H 0.679762 0.306750 -0.415510
N10 N 0.58392(16) 0.28961(16) -0.3930(2)
H33 H 0.559066 0.295893 -0.355643
C31 C 0.6261(2) 0.2604(2) -0.3638(3)
N11 N 0.45204(17) 0.37462(18) -0.6582(2)
C32 C 0.6177(2) 0.2159(2) -0.3129(3)
C33 C 0.6581(2) 0.1847(2) -0.2923(3)
H34 H 0.652526 0.154174 -0.260097
C34 C 0.7077(2) 0.1982(2) -0.3191(3)
C35 C 0.8275(2) 0.3199(2) -0.4520(3)
C36 C 0.8359(2) 0.3723(2) -0.4483(3)
H35 H 0.810418 0.394157 -0.424751
C37 C 0.8815(2) 0.3928(2) -0.4789(3)
H36 H 0.887333 0.428497 -0.476902
C38 C 0.9179(2) 0.3606(2) -0.5119(3)
C39 C 0.9105(2) 0.3082(2) -0.5159(3)
C40 C 0.8650(2) 0.2880(2) -0.4860(3)
H37 H 0.859325 0.252258 -0.488762
O6 O 0.61156(13) 0.29856(14) -0.53473(19)
C41 C 0.58026(19) 0.3081(2) -0.4757(3)
C42 C 0.53511(19) 0.3408(2) -0.4920(3)
H38 H 0.510440 0.344796 -0.446629
C43 C 0.5283(2) 0.36465(19) -0.5681(3)
H39 H 0.553618 0.360544 -0.612326
C44 C 0.4836(2) 0.3974(2) -0.5888(3)
H40 H 0.462781 0.402146 -0.534975
H41 H 0.495562 0.431380 -0.608348
C45 C 0.4253(2) 0.3290(2) -0.6251(3)
H42 H 0.405129 0.313979 -0.672842
H43 H 0.402741 0.338744 -0.576490
H44 H 0.450346 0.304135 -0.604111
C46 C 0.4154(2) 0.4119(2) -0.6936(4)
H45 H 0.396854 0.396662 -0.743090
H46 H 0.433746 0.442196 -0.713900
H47 H 0.391252 0.421513 -0.647204
O7 O 0.56935(19) 0.2103(2) -0.2827(3)
C47 C 0.5595(2) 0.1713(3) -0.2175(4)
H48 H 0.588006 0.168742 -0.173961
C48 C 0.5094(2) 0.1847(3) -0.1725(4)
H49 H 0.509418 0.173841 -0.109982
H50 H 0.502461 0.221710 -0.175706
C49 C 0.4716(3) 0.1550(3) -0.2253(5)
H51 H 0.440105 0.148926 -0.190939
H52 H 0.462678 0.173237 -0.280321
O8 O 0.49710(19) 0.10754(19) -0.2447(3)
C50 C 0.5490(3) 0.1204(3) -0.2617(5)
H53 H 0.555014 0.122991 -0.325968
H54 H 0.571903 0.093880 -0.237446
O9 O 0.50270(15) 0.32327(17) -0.7952(2)
H55 H 0.489(2) 0.340(2) -0.752(3)
H56 H 0.5294(15) 0.3086(19) -0.774(3)
O10 O 0.58067(15) 0.27400(17) -0.7083(2)
H57 H 0.589(2) 0.284(2) -0.657(2)
H58 H 0.6065(16) 0.262(2) -0.736(3)
N12 N 1.000000 0.500000 -0.4494(7)
C51 C 1.000000 0.500000 -0.5259(8)
C52 C 1.000000 0.500000 -0.6212(7)
C53? C 0.9418(16) 0.3249(13) -0.281(5)
H59? H 0.919160 0.318416 -0.332591
C54? C 0.9382(9) 0.3802(12) -0.2548(16)
H60? H 0.907338 0.395998 -0.280376
H61? H 0.936849 0.383724 -0.189820
C55? C 0.9853(9) 0.4050(8) -0.2906(15)
H62? H 0.975859 0.433007 -0.331212
H63? H 1.005744 0.419462 -0.241821
O11? O 1.0136(5) 0.3679(5) -0.3358(10)
C56? C 0.9974(16) 0.3185(9) -0.309(4)
H64? H 1.018320 0.306284 -0.258484
H65? H 1.000348 0.293884 -0.357681
O12? O 0.5663(7) 0.1987(7) -0.3159(11)
C57? C 0.5525(7) 0.1519(9) -0.2718(12)
H66? H 0.570895 0.122722 -0.299762
C58? C 0.5634(7) 0.1525(10) -0.1741(12)
H67? H 0.586501 0.180850 -0.158334
H68? H 0.578862 0.119913 -0.154763
C59? C 0.5114(7) 0.1598(9) -0.1336(12)
H69? H 0.510087 0.144714 -0.073751
H70? H 0.502886 0.196451 -0.129409
O13? O 0.4770(6) 0.1344(8) -0.1910(11)
C60? C 0.4952(7) 0.1431(10) -0.2782(12)
H71? H 0.478318 0.173350 -0.304025
H72? H 0.487987 0.113276 -0.316080
H73? H 0.470993 -0.018658 -0.125464
H74? H 0.530662 -0.015792 -0.125464
H75? H 0.498346 0.034450 -0.125464
H76? H 1.029352 0.481890 -0.642284
H77? H 1.001008 0.534475 -0.642284
H78? H 0.969640 0.483635 -0.642284
loop_
_geom_bond_atom_site_label_1
_geom_bond_atom_site_label_2
_geom_bond_site_symmetry_1
_geom_bond_site_symmetry_2
Cl1 C13 1_555 1_555
F1 C12 1_555 1_555
N1 C1 1_555 1_555
N2 C1 1_555 1_555
N3 H1 1_555 1_555
C1 H2 1_555 1_555
C2 N2 1_555 1_555
C3 C2 1_555 1_555
C4 C3 1_555 1_555
H3 C4 1_555 1_555
N4 H4 1_555 1_555
C5 C4 1_555 1_555
N5 C18 1_555 1_555
C6 C5 1_555 1_555
C7 C6 1_555 1_555
H5 C7 1_555 1_555
C8 N1 1_555 1_555
C9 N3 1_555 1_555
C10 C9 1_555 1_555
H6 C10 1_555 1_555
C11 C10 1_555 1_555
H7 C11 1_555 1_555
C12 C11 1_555 1_555
C13 C12 1_555 1_555
C14 C9 1_555 1_555
H8 C14 1_555 1_555
O1 C15 1_555 1_555
C15 N4 1_555 1_555
C16 C15 1_555 1_555
H9 C16 1_555 1_555
C17 C16 1_555 1_555
H10 C17 1_555 1_555
C18 C17 1_555 1_555
H11 C18 1_555 1_555
H12 C18 1_555 1_555
C19 N5 1_555 1_555
H13 C19 1_555 1_555
H14 C19 1_555 1_555
H15 C19 1_555 1_555
C20 N5 1_555 1_555
H16 C20 1_555 1_555
H17 C20 1_555 1_555
H18 C20 1_555 1_555
O2 C6 1_555 1_555
C21 O2 1_555 1_555
H19 C21 1_555 1_555
C22 C21 1_555 1_555
H20 C22 1_555 1_555
H21 C22 1_555 1_555
C23 C22 1_555 1_555
H22 C23 1_555 1_555
H23 C23 1_555 1_555
O3 C23 1_555 1_555
C24 C21 1_555 1_555
H24 C24 1_555 1_555
H25 C24 1_555 1_555
O4 H26 1_555 1_555
H27 O4 1_555 1_555
O5 H28 1_555 1_555
H29 O5 1_555 1_555
N6 C25 1_555 1_555
C25 C26 1_555 1_555
Cl2 C39 1_555 1_555
F2 C38 1_555 1_555
N7 C27 1_555 1_555
N8 C27 1_555 1_555
N9 H30 1_555 1_555
C27 H31 1_555 1_555
C28 N8 1_555 1_555
C29 C28 1_555 1_555
C30 C29 1_555 1_555
H32 C30 1_555 1_555
N10 H33 1_555 1_555
C31 C30 1_555 1_555
N11 C44 1_555 1_555
C32 C31 1_555 1_555
C33 C32 1_555 1_555
H34 C33 1_555 1_555
C34 N7 1_555 1_555
C35 N9 1_555 1_555
C36 C35 1_555 1_555
H35 C36 1_555 1_555
C37 C36 1_555 1_555
H36 C37 1_555 1_555
C38 C37 1_555 1_555
C39 C38 1_555 1_555
C40 C35 1_555 1_555
H37 C40 1_555 1_555
O6 C41 1_555 1_555
C41 N10 1_555 1_555
C42 C41 1_555 1_555
H38 C42 1_555 1_555
C43 C42 1_555 1_555
H39 C43 1_555 1_555
C44 C43 1_555 1_555
H40 C44 1_555 1_555
H41 C44 1_555 1_555
C45 N11 1_555 1_555
H42 C45 1_555 1_555
H43 C45 1_555 1_555
H44 C45 1_555 1_555
C46 N11 1_555 1_555
H45 C46 1_555 1_555
H46 C46 1_555 1_555
H47 C46 1_555 1_555
O7 C32 1_555 1_555
C47 O7 1_555 1_555
H48 C47 1_555 1_555
C48 C47 1_555 1_555
H49 C48 1_555 1_555
H50 C48 1_555 1_555
C49 C48 1_555 1_555
H51 C49 1_555 1_555
H52 C49 1_555 1_555
O8 C49 1_555 1_555
C50 C47 1_555 1_555
H53 C50 1_555 1_555
H54 C50 1_555 1_555
O9 H55 1_555 1_555
H56 O9 1_555 1_555
O10 H57 1_555 1_555
H58 O10 1_555 1_555
N12 C51 1_555 1_555
C51 C52 1_555 1_555
N3 C2 1_555 1_555
C3 C8 1_555 1_555
N4 C5 1_555 1_555
C7 C8 1_555 1_555
C13 C14 1_555 1_555
O3 C24 1_555 1_555
N9 C28 1_555 1_555
C29 C34 1_555 1_555
N10 C31 1_555 1_555
C33 C34 1_555 1_555
C39 C40 1_555 1_555
O8 C50 1_555 1_555

#END
