
#######################################################################
#
#                 Cambridge Crystallographic Data Centre
#                                CCDC 
#
#######################################################################
#
# If this CIF has been generated from an entry in the Cambridge 
# Structural Database, then it will include bibliographic, chemical, 
# crystal, experimental, refinement or atomic coordinate data resulting 
# from the CCDC's data processing and validation procedures.
#
#######################################################################

data_XALSEK
_chemical_formula_moiety         'C20 H14 N2 O4'
_chemical_name_systematic        
7-Phenyl-7,8-dihydropyrido[2',3':8,9][1,4]dioxecino[7,6-b]pyridine-5,10-dione
_symmetry_cell_setting           monoclinic
_symmetry_space_group_name_H-M   'P 21/c'
_symmetry_Int_Tables_number      14
_space_group_name_Hall           '-P 2ybc'
loop_
_symmetry_equiv_pos_site_id
_symmetry_equiv_pos_as_xyz
1 x,y,z
2 -x,1/2+y,1/2-z
3 -x,-y,-z
4 x,1/2-y,1/2+z
_cell_length_a                   8.6883(4)
_cell_length_b                   17.1238(7)
_cell_length_c                   11.0471(4)
_cell_angle_alpha                90
_cell_angle_beta                 95.9460(10)
_cell_angle_gamma                90
_cell_volume                     1634.71
_exptl_crystal_colour            colorless
_exptl_crystal_description       block
_cell_formula_units_Z            4
loop_
_atom_site_label
_atom_site_type_symbol
_atom_site_fract_x
_atom_site_fract_y
_atom_site_fract_z
O1 O 1.00964(10) -0.00296(5) 0.29754(8)
O2 O 0.77842(9) 0.05582(5) 0.30771(7)
O3 O 0.56956(10) -0.08582(6) 0.27607(9)
O4 O 0.77154(10) -0.08593(5) 0.42291(7)
N1 N 0.74346(17) -0.08387(7) -0.04358(10)
N2 N 0.92917(16) -0.19614(7) 0.08285(11)
C1 C 0.7029(2) -0.02142(10) -0.11125(13)
H1 H 0.6604 -0.0297 -0.1910
C2 C 0.7194(2) 0.05420(9) -0.07161(13)
H2 H 0.6904 0.0958 -0.1231
C3 C 0.78014(18) 0.06674(8) 0.04680(12)
H3 H 0.7921 0.1173 0.0770
C4 C 0.82346(13) 0.00313(7) 0.12088(10)
C5 C 0.80407(15) -0.07188(7) 0.07191(10)
C6 C 0.84356(14) -0.14588(7) 0.14079(11)
C7 C 0.9609(2) -0.26557(9) 0.13521(16)
H4 H 1.0194 -0.3007 0.0950
C8 C 0.9130(2) -0.28836(8) 0.24410(15)
H5 H 0.9370 -0.3377 0.2757
C9 C 0.82865(16) -0.23647(7) 0.30552(12)
H6 H 0.7970 -0.2495 0.3808
C10 C 0.79164(13) -0.16427(6) 0.25295(10)
C11 C 0.69510(13) -0.10862(6) 0.31558(10)
C12 C 0.71112(15) -0.01806(7) 0.47854(12)
H7 H 0.7264 -0.0232 0.5664
H8 H 0.6009 -0.0138 0.4543
C13 C 0.79287(13) 0.05509(7) 0.43983(10)
H9 H 0.9021 0.0545 0.4725
C14 C 0.88520(12) 0.01706(6) 0.25020(10)
C15 C 0.71297(13) 0.12644(7) 0.48339(11)
C16 C 0.76161(16) 0.15780(8) 0.59647(13)
H10 H 0.8462 0.1363 0.6433
C17 C 0.68466(18) 0.22113(9) 0.64008(15)
H11 H 0.7173 0.2416 0.7164
C18 C 0.56019(18) 0.25378(8) 0.57099(16)
H12 H 0.5098 0.2968 0.5999
C19 C 0.51068(18) 0.22260(9) 0.45907(16)
H13 H 0.4263 0.2445 0.4125
C20 C 0.58550(17) 0.15872(8) 0.41499(13)
H14 H 0.5504 0.1375 0.3397
loop_
_geom_bond_atom_site_label_1
_geom_bond_atom_site_label_2
_geom_bond_site_symmetry_1
_geom_bond_site_symmetry_2
O1 C14 1_555 1_555
O2 C13 1_555 1_555
O3 C11 1_555 1_555
O4 C11 1_555 1_555
N1 C1 1_555 1_555
N2 C6 1_555 1_555
C1 H1 1_555 1_555
C2 C1 1_555 1_555
H2 C2 1_555 1_555
C3 C2 1_555 1_555
H3 C3 1_555 1_555
C4 C3 1_555 1_555
C5 N1 1_555 1_555
C6 C5 1_555 1_555
C7 N2 1_555 1_555
H4 C7 1_555 1_555
C8 C7 1_555 1_555
H5 C8 1_555 1_555
C9 C8 1_555 1_555
H6 C9 1_555 1_555
C10 C6 1_555 1_555
C11 C10 1_555 1_555
C12 O4 1_555 1_555
H7 C12 1_555 1_555
H8 C12 1_555 1_555
C13 C12 1_555 1_555
H9 C13 1_555 1_555
C14 O2 1_555 1_555
C15 C13 1_555 1_555
C16 C15 1_555 1_555
H10 C16 1_555 1_555
C17 C16 1_555 1_555
H11 C17 1_555 1_555
C18 C17 1_555 1_555
H12 C18 1_555 1_555
C19 C18 1_555 1_555
H13 C19 1_555 1_555
C20 C15 1_555 1_555
H14 C20 1_555 1_555
C4 C5 1_555 1_555
C4 C14 1_555 1_555
C9 C10 1_555 1_555
C19 C20 1_555 1_555

#END
