
#######################################################################
#
#                 Cambridge Crystallographic Data Centre
#                                CCDC 
#
#######################################################################
#
# If this CIF has been generated from an entry in the Cambridge 
# Structural Database, then it will include bibliographic, chemical, 
# crystal, experimental, refinement or atomic coordinate data resulting 
# from the CCDC's data processing and validation procedures.
#
#######################################################################

data_XALWIQ
_chemical_formula_moiety         'C13 H15 Cl1 N1 O1 1+,C10 H15 O4 S1 1-'
_chemical_name_systematic        
'(+)-4-(4-Chlorophenyl)-1-azoniabicyclo(3.2.1)octan-6-one (1R)-(-)-10-camphorsulfonate'
_symmetry_cell_setting           monoclinic
_symmetry_space_group_name_H-M   'P 21'
_symmetry_Int_Tables_number      4
_space_group_name_Hall           'P 2yb'
loop_
_symmetry_equiv_pos_site_id
_symmetry_equiv_pos_as_xyz
1 x,y,z
2 -x,1/2+y,-z
_cell_length_a                   6.9465(8)
_cell_length_b                   10.7665(16)
_cell_length_c                   15.631(3)
_cell_angle_alpha                90
_cell_angle_beta                 96.420(14)
_cell_angle_gamma                90
_cell_volume                     1161.7
_cell_formula_units_Z            2
loop_
_atom_site_label
_atom_site_type_symbol
_atom_site_fract_x
_atom_site_fract_y
_atom_site_fract_z
Cl1 Cl 0.1331(2) 0.4778(2) 0.89635(10)
N1 N -0.8546(6) 0.3453(7) 0.5151(3)
H1 H -0.9597 0.3357 0.4753
C1 C -0.9178(8) 0.3711(10) 0.5994(4)
H2 H -1.0044 0.3058 0.6142
H3 H -0.9885 0.4490 0.5971
C2 C -0.7456(8) 0.3791(9) 0.6680(4)
H4 H -0.7884 0.4121 0.7205
H5 H -0.6954 0.2962 0.6804
C3 C -0.5851(8) 0.4602(7) 0.6413(4)
H6 H -0.6348 0.5455 0.6381
C4 C -0.4046(7) 0.4608(6) 0.7071(3)
C5 C -0.3189(8) 0.3547(7) 0.7418(3)
H7 H -0.3729 0.2781 0.7255
C6 C -0.1543(7) 0.3587(7) 0.8004(3)
H8 H -0.0974 0.2859 0.8231
C7 C -0.0781(7) 0.4703(7) 0.8238(3)
C8 C -0.1589(10) 0.5799(7) 0.7922(4)
H9 H -0.1047 0.6560 0.8098
C9 C -0.3235(10) 0.5737(7) 0.7335(4)
H10 H -0.3806 0.6468 0.7114
C10 C -0.5452(9) 0.4240(7) 0.5498(4)
H11 H -0.4334 0.4682 0.5315
C11 C -0.5243(11) 0.2878(7) 0.5443(4)
O1 O -0.3808(8) 0.2259(6) 0.5603(3)
C12 C -0.7225(12) 0.2333(7) 0.5134(5)
H12 H -0.7255 0.1996 0.4558
H13 H -0.7581 0.1687 0.5520
C13 C -0.7313(9) 0.4470(7) 0.4886(4)
H14 H -0.7868 0.5279 0.4980
H15 H -0.7085 0.4394 0.4287
S1 S -1.25302(16) 0.34531(15) 0.35694(7)
O2 O -1.1900(6) 0.4616(5) 0.3956(3)
O3 O -1.1337(6) 0.2418(5) 0.3956(3)
O4 O -1.4574(5) 0.3228(5) 0.3556(2)
C14 C -1.2002(7) 0.3434(7) 0.2487(3)
H16 H -1.0604 0.3440 0.2497
H17 H -1.2457 0.2647 0.2239
C15 C -1.2805(7) 0.4459(6) 0.1873(3)
C16 C -1.1295(12) 0.5354(8) 0.1645(5)
O5 O -0.9730(10) 0.5542(8) 0.2039(5)
C17 C -1.2073(13) 0.5987(8) 0.0799(6)
H18 H -1.1281 0.5802 0.0342
H19 H -1.2171 0.6880 0.0865
C18 C -1.4074(11) 0.5373(7) 0.0641(4)
H20 H -1.4657 0.5425 0.0041
C19 C -1.5304(13) 0.5894(11) 0.1260(5)
H21 H -1.6651 0.5667 0.1109
H22 H -1.5199 0.6792 0.1285
C20 C -1.4487(15) 0.5302(9) 0.2119(5)
H23 H -1.5468 0.4813 0.2361
H24 H -1.4005 0.5932 0.2533
C21 C -1.3655(10) 0.4046(7) 0.0950(4)
C22 C -1.2110(17) 0.3352(11) 0.0492(5)
H25 H -1.2661 0.3106 -0.0073
H26 H -1.1686 0.2628 0.0819
H27 H -1.1025 0.3890 0.0446
C23 C -1.5426(15) 0.3255(11) 0.0929(6)
H28 H -1.6397 0.3685 0.1206
H29 H -1.5106 0.2489 0.1226
H30 H -1.5914 0.3082 0.0342
loop_
_geom_bond_atom_site_label_1
_geom_bond_atom_site_label_2
_geom_bond_site_symmetry_1
_geom_bond_site_symmetry_2
Cl1 C7 1_555 1_555
N1 H1 1_555 1_555
C1 N1 1_555 1_555
H2 C1 1_555 1_555
H3 C1 1_555 1_555
C2 C1 1_555 1_555
H4 C2 1_555 1_555
H5 C2 1_555 1_555
C3 C2 1_555 1_555
H6 C3 1_555 1_555
C4 C3 1_555 1_555
C5 C4 1_555 1_555
H7 C5 1_555 1_555
C6 C5 1_555 1_555
H8 C6 1_555 1_555
C7 C6 1_555 1_555
C8 C7 1_555 1_555
H9 C8 1_555 1_555
C9 C4 1_555 1_555
H10 C9 1_555 1_555
C10 C3 1_555 1_555
H11 C10 1_555 1_555
C11 C10 1_555 1_555
O1 C11 1_555 1_555
C12 N1 1_555 1_555
H12 C12 1_555 1_555
H13 C12 1_555 1_555
C13 N1 1_555 1_555
H14 C13 1_555 1_555
H15 C13 1_555 1_555
S1 O2 1_555 1_555
O3 S1 1_555 1_555
O4 S1 1_555 1_555
C14 S1 1_555 1_555
H16 C14 1_555 1_555
H17 C14 1_555 1_555
C15 C14 1_555 1_555
C16 C15 1_555 1_555
O5 C16 1_555 1_555
C17 C16 1_555 1_555
H18 C17 1_555 1_555
H19 C17 1_555 1_555
C18 C17 1_555 1_555
H20 C18 1_555 1_555
C19 C18 1_555 1_555
H21 C19 1_555 1_555
H22 C19 1_555 1_555
C20 C15 1_555 1_555
H23 C20 1_555 1_555
H24 C20 1_555 1_555
C21 C15 1_555 1_555
C22 C21 1_555 1_555
H25 C22 1_555 1_555
H26 C22 1_555 1_555
H27 C22 1_555 1_555
C23 C21 1_555 1_555
H28 C23 1_555 1_555
H29 C23 1_555 1_555
H30 C23 1_555 1_555
C8 C9 1_555 1_555
C10 C13 1_555 1_555
C11 C12 1_555 1_555
C18 C21 1_555 1_555
C19 C20 1_555 1_555

#END
