
#######################################################################
#
#                 Cambridge Crystallographic Data Centre
#                                CCDC 
#
#######################################################################
#
# If this CIF has been generated from an entry in the Cambridge 
# Structural Database, then it will include bibliographic, chemical, 
# crystal, experimental, refinement or atomic coordinate data resulting 
# from the CCDC's data processing and validation procedures.
#
#######################################################################

data_XALYEP
_chemical_formula_moiety         'C19 H11 Cl2 F3 N4 O1'
_chemical_name_systematic        
1-(2,6-Dichloro-4-(trifluoromethyl)phenyl)-5-((4-methoxyphenyl)methylene)imino-1H-pyrazole-3-carbonitrile
_symmetry_cell_setting           triclinic
_symmetry_space_group_name_H-M   'P -1'
_symmetry_Int_Tables_number      2
_space_group_name_Hall           '-P 1'
loop_
_symmetry_equiv_pos_site_id
_symmetry_equiv_pos_as_xyz
1 x,y,z
2 -x,-y,-z
_cell_length_a                   6.7145(12)
_cell_length_b                   10.931(2)
_cell_length_c                   13.616(3)
_cell_angle_alpha                77.464(3)
_cell_angle_beta                 83.116(3)
_cell_angle_gamma                81.470(3)
_cell_volume                     960.76
_exptl_crystal_colour            colorless
_exptl_crystal_description       block
_chemical_melting_point          '408-410 K'
_cell_formula_units_Z            2
_exptl_crystal_recrystallization_method methanol
loop_
_atom_site_label
_atom_site_type_symbol
_atom_site_fract_x
_atom_site_fract_y
_atom_site_fract_z
Cl1 Cl 0.1725(2) 0.69202(16) 0.18613(11)
Cl2 Cl 0.7008(2) 1.03071(14) 0.12882(11)
F1 F 0.9684(7) 0.7064(5) -0.1000(4)
F2 F 0.7021(9) 0.7183(7) -0.1621(3)
F3 F 0.7977(9) 0.5585(4) -0.0547(4)
O1 O 1.3072(6) 0.5472(4) 0.6076(3)
N1 N 0.3408(6) 0.9099(4) 0.2325(3)
N2 N 0.1621(6) 0.9797(4) 0.2154(3)
N3 N -0.2413(8) 1.1477(5) 0.3329(4)
N4 N 0.5745(6) 0.8291(4) 0.3556(3)
C1 C 0.7839(12) 0.6794(7) -0.0775(5)
C2 C 0.6707(8) 0.7397(5) 0.0048(4)
C3 C 0.4970(8) 0.6948(5) 0.0524(3)
H1 H 0.4517 0.6267 0.0348
C4 C 0.3905(8) 0.7518(5) 0.1264(3)
C5 C 0.4524(7) 0.8522(5) 0.1536(3)
C6 C 0.6244(7) 0.8996(5) 0.1023(3)
C7 C 0.7358(7) 0.8425(5) 0.0273(3)
H2 H 0.8521 0.8737 -0.0067
C8 C 0.3947(7) 0.8980(4) 0.3285(3)
C9 C 0.2391(7) 0.9673(5) 0.3748(3)
H3 H 0.2279 0.9801 0.4406
C10 C 0.1016(7) 1.0144(5) 0.3033(3)
C11 C -0.0889(9) 1.0893(5) 0.3178(4)
C12 C 0.5927(7) 0.7931(5) 0.4503(3)
H4 H 0.4813 0.8104 0.4950
C13 C 0.7754(7) 0.7277(4) 0.4915(3)
C14 C 0.9544(7) 0.7050(5) 0.4310(3)
H5 H 0.9561 0.7320 0.3613
C15 C 1.1246(8) 0.6447(5) 0.4715(4)
H6 H 1.2419 0.6303 0.4296
C16 C 1.1264(7) 0.6034(5) 0.5761(4)
C17 C 0.9533(8) 0.6251(5) 0.6368(3)
H7 H 0.9528 0.5985 0.7065
C18 C 0.7804(8) 0.6859(5) 0.5954(3)
H8 H 0.6634 0.6997 0.6376
C19 C 1.3214(11) 0.5024(7) 0.7126(5)
H9 H 1.2795 0.5708 0.7474
H10 H 1.4588 0.4686 0.7244
H11 H 1.2355 0.4374 0.7373
loop_
_geom_bond_atom_site_label_1
_geom_bond_atom_site_label_2
_geom_bond_site_symmetry_1
_geom_bond_site_symmetry_2
Cl1 C4 1_555 1_555
Cl2 C6 1_555 1_555
F1 C1 1_555 1_555
F2 C1 1_555 1_555
F3 C1 1_555 1_555
O1 C16 1_555 1_555
N1 N2 1_555 1_555
N2 C10 1_555 1_555
N3 C11 1_555 1_555
N4 C8 1_555 1_555
C1 C2 1_555 1_555
C2 C3 1_555 1_555
C3 H1 1_555 1_555
C4 C3 1_555 1_555
C5 N1 1_555 1_555
C6 C5 1_555 1_555
C7 C2 1_555 1_555
H2 C7 1_555 1_555
C8 N1 1_555 1_555
C9 C8 1_555 1_555
H3 C9 1_555 1_555
C10 C9 1_555 1_555
C11 C10 1_555 1_555
C12 N4 1_555 1_555
H4 C12 1_555 1_555
C13 C12 1_555 1_555
C14 C13 1_555 1_555
H5 C14 1_555 1_555
C15 C14 1_555 1_555
H6 C15 1_555 1_555
C16 C15 1_555 1_555
C17 C16 1_555 1_555
H7 C17 1_555 1_555
C18 C13 1_555 1_555
H8 C18 1_555 1_555
C19 O1 1_555 1_555
H9 C19 1_555 1_555
H10 C19 1_555 1_555
H11 C19 1_555 1_555
C4 C5 1_555 1_555
C6 C7 1_555 1_555
C17 C18 1_555 1_555

#END
