
#######################################################################
#
#                 Cambridge Crystallographic Data Centre
#                                CCDC 
#
#######################################################################
#
# If this CIF has been generated from an entry in the Cambridge 
# Structural Database, then it will include bibliographic, chemical, 
# crystal, experimental, refinement or atomic coordinate data resulting 
# from the CCDC's data processing and validation procedures.
#
#######################################################################

data_XAMBUL
_chemical_formula_moiety         'C26 H40 N2 O2 Si2'
_chemical_name_systematic        
bis(2-((t-butyl(dimethyl)silyl)oxy)benzylidene)hydrazine
_symmetry_cell_setting           orthorhombic
_symmetry_space_group_name_H-M   'P b c a'
_symmetry_Int_Tables_number      61
_space_group_name_Hall           '-P 2ac 2ab'
loop_
_symmetry_equiv_pos_site_id
_symmetry_equiv_pos_as_xyz
1 x,y,z
2 1/2-x,-y,1/2+z
3 1/2+x,1/2-y,-z
4 -x,1/2+y,1/2-z
5 -x,-y,-z
6 1/2+x,y,1/2-z
7 1/2-x,1/2+y,z
8 x,1/2-y,1/2+z
_cell_length_a                   12.9586(10)
_cell_length_b                   11.1933(9)
_cell_length_c                   19.3721(15)
_cell_angle_alpha                90
_cell_angle_beta                 90
_cell_angle_gamma                90
_cell_volume                     2809.91
_exptl_crystal_colour            yellow
_exptl_crystal_description       Sheet
_cell_formula_units_Z            4
loop_
_atom_site_label
_atom_site_type_symbol
_atom_site_fract_x
_atom_site_fract_y
_atom_site_fract_z
Si1 Si 0.34716(4) 0.46514(4) 0.60688(3)
O1 O 0.37512(10) 0.34990(10) 0.55530(6)
N1 N 0.46511(11) 0.03043(12) 0.47818(8)
C1 C 0.44719(14) 0.13683(14) 0.49897(9)
H1 H 0.4813 0.1663 0.5376
C2 C 0.37317(13) 0.21254(14) 0.46227(9)
C3 C 0.33464(14) 0.17882(15) 0.39769(9)
H2 H 0.3615 0.1116 0.3759
C4 C 0.25744(15) 0.24344(16) 0.36559(10)
H3 H 0.2326 0.2199 0.3226
C5 C 0.21747(14) 0.34347(16) 0.39799(9)
H4 H 0.1642 0.3860 0.3772
C6 C 0.25589(14) 0.38061(16) 0.46088(9)
H5 H 0.2291 0.4486 0.4819
C7 C 0.33453(13) 0.31688(14) 0.49296(9)
C8 C 0.21229(17) 0.4507(2) 0.63861(12)
H6 H 0.1664 0.4425 0.6000
H7 H 0.1941 0.5206 0.6646
H8 H 0.2068 0.3814 0.6676
C9 C 0.36701(18) 0.60821(17) 0.55989(11)
H9 H 0.4311 0.6051 0.5351
H10 H 0.3689 0.6730 0.5923
H11 H 0.3113 0.6204 0.5280
C10 C 0.44279(15) 0.44923(16) 0.67955(9)
C11 C 0.41070(18) 0.53273(19) 0.73900(11)
H12 H 0.4079 0.6136 0.7225
H13 H 0.4602 0.5271 0.7757
H14 H 0.3439 0.5096 0.7558
C12 C 0.55126(16) 0.4853(2) 0.65508(12)
H15 H 0.5710 0.4363 0.6166
H16 H 0.5996 0.4744 0.6921
H17 H 0.5509 0.5677 0.6413
C13 C 0.4456(2) 0.32115(19) 0.70664(11)
H18 H 0.3774 0.2974 0.7204
H19 H 0.4912 0.3167 0.7456
H20 H 0.4699 0.2688 0.6709
Si1D Si 0.65284(4) -0.46514(4) 0.39312(3)
O1D O 0.62488(10) -0.34990(10) 0.44470(6)
N1D N 0.53489(11) -0.03043(12) 0.52182(8)
C1D C 0.55281(14) -0.13683(14) 0.50103(9)
H1D H 0.5187 -0.1663 0.4624
C2D C 0.62683(13) -0.21254(14) 0.53773(9)
C3D C 0.66536(14) -0.17882(15) 0.60231(9)
H2D H 0.6385 -0.1116 0.6241
C4D C 0.74256(15) -0.24344(16) 0.63441(10)
H3D H 0.7674 -0.2199 0.6774
C5D C 0.78253(14) -0.34347(16) 0.60201(9)
H4D H 0.8358 -0.3860 0.6228
C6D C 0.74411(14) -0.38061(16) 0.53912(9)
H5D H 0.7709 -0.4486 0.5181
C7D C 0.66547(13) -0.31688(14) 0.50704(9)
C8D C 0.78771(17) -0.4507(2) 0.36139(12)
H6D H 0.8336 -0.4425 0.4000
H7D H 0.8059 -0.5206 0.3354
H8D H 0.7932 -0.3814 0.3324
C9D C 0.63299(18) -0.60821(17) 0.44011(11)
H9D H 0.5689 -0.6051 0.4649
H10D H 0.6311 -0.6730 0.4077
H11D H 0.6887 -0.6204 0.4720
C10D C 0.55721(15) -0.44923(16) 0.32045(9)
C11D C 0.58930(18) -0.53273(19) 0.26100(11)
H12D H 0.5921 -0.6136 0.2775
H13D H 0.5398 -0.5271 0.2243
H14D H 0.6561 -0.5096 0.2442
C12D C 0.44874(16) -0.4853(2) 0.34492(12)
H15D H 0.4290 -0.4363 0.3834
H16D H 0.4004 -0.4744 0.3079
H17D H 0.4491 -0.5677 0.3587
C13D C 0.5544(2) -0.32115(19) 0.29336(11)
H18D H 0.6226 -0.2974 0.2796
H19D H 0.5088 -0.3167 0.2544
H20D H 0.5301 -0.2688 0.3291
loop_
_geom_bond_atom_site_label_1
_geom_bond_atom_site_label_2
_geom_bond_site_symmetry_1
_geom_bond_site_symmetry_2
Si1 O1 1_555 1_555
O1 C7 1_555 1_555
N1 C1 1_555 1_555
C1 H1 1_555 1_555
C2 C1 1_555 1_555
C3 C2 1_555 1_555
H2 C3 1_555 1_555
C4 C3 1_555 1_555
H3 C4 1_555 1_555
C5 C4 1_555 1_555
H4 C5 1_555 1_555
C6 C5 1_555 1_555
H5 C6 1_555 1_555
C7 C2 1_555 1_555
C8 Si1 1_555 1_555
H6 C8 1_555 1_555
H7 C8 1_555 1_555
H8 C8 1_555 1_555
C9 Si1 1_555 1_555
H9 C9 1_555 1_555
H10 C9 1_555 1_555
H11 C9 1_555 1_555
C10 Si1 1_555 1_555
C11 C10 1_555 1_555
H12 C11 1_555 1_555
H13 C11 1_555 1_555
H14 C11 1_555 1_555
C12 C10 1_555 1_555
H15 C12 1_555 1_555
H16 C12 1_555 1_555
H17 C12 1_555 1_555
C13 C10 1_555 1_555
H18 C13 1_555 1_555
H19 C13 1_555 1_555
H20 C13 1_555 1_555
Si1D O1D 1_555 1_555
O1D C7D 1_555 1_555
N1D N1 1_555 1_555
C1D N1D 1_555 1_555
H1D C1D 1_555 1_555
C2D C1D 1_555 1_555
C3D C2D 1_555 1_555
H2D C3D 1_555 1_555
C4D C3D 1_555 1_555
H3D C4D 1_555 1_555
C5D C4D 1_555 1_555
H4D C5D 1_555 1_555
C6D C5D 1_555 1_555
H5D C6D 1_555 1_555
C7D C2D 1_555 1_555
C8D Si1D 1_555 1_555
H6D C8D 1_555 1_555
H7D C8D 1_555 1_555
H8D C8D 1_555 1_555
C9D Si1D 1_555 1_555
H9D C9D 1_555 1_555
H10D C9D 1_555 1_555
H11D C9D 1_555 1_555
C10D Si1D 1_555 1_555
C11D C10D 1_555 1_555
H12D C11D 1_555 1_555
H13D C11D 1_555 1_555
H14D C11D 1_555 1_555
C12D C10D 1_555 1_555
H15D C12D 1_555 1_555
H16D C12D 1_555 1_555
H17D C12D 1_555 1_555
C13D C10D 1_555 1_555
H18D C13D 1_555 1_555
H19D C13D 1_555 1_555
H20D C13D 1_555 1_555
C6 C7 1_555 1_555
C6D C7D 1_555 1_555

#END
