
#######################################################################
#
#                 Cambridge Crystallographic Data Centre
#                                CCDC 
#
#######################################################################
#
# If this CIF has been generated from an entry in the Cambridge 
# Structural Database, then it will include bibliographic, chemical, 
# crystal, experimental, refinement or atomic coordinate data resulting 
# from the CCDC's data processing and validation procedures.
#
#######################################################################

data_XAMHIF
_chemical_formula_moiety         'C19 H18 Cl1 N1 O1'
_chemical_name_systematic        
1-(2-chlorophenyl)-5-(4-(dimethylamino)phenyl)penta-2,4-dien-1-one
_chemical_properties_biological  'anti-inflammatory activity'
_symmetry_cell_setting           monoclinic
_symmetry_space_group_name_H-M   'P 21/c'
_symmetry_Int_Tables_number      14
_space_group_name_Hall           '-P 2ybc'
loop_
_symmetry_equiv_pos_site_id
_symmetry_equiv_pos_as_xyz
1 x,y,z
2 -x,1/2+y,1/2-z
3 -x,-y,-z
4 x,1/2-y,1/2+z
_cell_length_a                   11.00289(17)
_cell_length_b                   9.52147(16)
_cell_length_c                   31.6909(5)
_cell_angle_alpha                90
_cell_angle_beta                 100.0337(15)
_cell_angle_gamma                90
_cell_volume                     3269.28
_exptl_crystal_colour            'light yellow'
_exptl_crystal_description       block
_cell_formula_units_Z            8
loop_
_atom_site_label
_atom_site_type_symbol
_atom_site_fract_x
_atom_site_fract_y
_atom_site_fract_z
Cl1 Cl 0.67591(3) 0.89081(4) 0.33503(2)
O1 O 0.65678(10) 0.54384(13) 0.34674(4)
N1 N 0.09310(13) 0.79965(16) 0.60464(4)
C1 C 0.54121(14) 0.82090(16) 0.30534(4)
C2 C 0.48170(17) 0.89560(19) 0.27024(5)
H1 H 0.5138 0.9806 0.2628
C3 C 0.37414(17) 0.8429(2) 0.24642(5)
H2 H 0.3352 0.8910 0.2223
C4 C 0.32450(16) 0.7191(2) 0.25834(5)
H3 H 0.2516 0.6843 0.2425
C5 C 0.38352(14) 0.64693(18) 0.29397(5)
H4 H 0.3484 0.5650 0.3024
C6 C 0.49453(13) 0.69489(16) 0.31740(4)
C7 C 0.56299(13) 0.60387(15) 0.35281(4)
C8 C 0.51420(13) 0.58720(16) 0.39206(4)
H5 H 0.5483 0.5179 0.4112
C9 C 0.42229(12) 0.66615(16) 0.40245(4)
H6 H 0.3858 0.7315 0.3824
C10 C 0.37609(13) 0.65766(17) 0.44196(4)
H7 H 0.4035 0.5857 0.4611
C11 C 0.29408(13) 0.75106(16) 0.45207(4)
H8 H 0.2674 0.8193 0.4315
C12 C 0.24210(12) 0.75853(15) 0.49110(4)
C13 C 0.17224(13) 0.87502(15) 0.49858(4)
H9 H 0.1583 0.9453 0.4779
C14 C 0.12301(13) 0.89000(15) 0.53548(4)
H10 H 0.0771 0.9696 0.5392
C15 C 0.14140(12) 0.78647(15) 0.56748(4)
C16 C 0.20997(14) 0.66715(15) 0.55994(4)
H11 H 0.2229 0.5959 0.5803
C17 C 0.25819(13) 0.65425(15) 0.52280(4)
H12 H 0.3027 0.5739 0.5186
C18 C 0.02561(17) 0.9250(2) 0.61198(5)
H13 H -0.0033 0.9168 0.6388
H14 H -0.0436 0.9363 0.5892
H15 H 0.0789 1.0052 0.6129
C19 C 0.13511(18) 0.71473(18) 0.64129(5)
H16 H 0.1394 0.6185 0.6326
H17 H 0.0787 0.7228 0.6611
H18 H 0.2155 0.7457 0.6548
Cl2 Cl 1.17507(4) 0.89423(4) 0.33226(2)
O2 O 1.15572(10) 0.54085(13) 0.34523(3)
N2 N 0.58534(13) 0.78557(15) 0.60385(4)
C20 C 1.03910(14) 0.82191(16) 0.30407(4)
C21 C 0.97622(17) 0.89314(19) 0.26888(5)
H19 H 1.0065 0.9779 0.2604
C22 C 0.86809(18) 0.8374(2) 0.24644(5)
H20 H 0.8265 0.8835 0.2223
C23 C 0.82153(16) 0.7136(2) 0.25965(5)
H21 H 0.7481 0.6769 0.2447
C24 C 0.88481(14) 0.64401(18) 0.29530(5)
H22 H 0.8525 0.5614 0.3045
C25 C 0.99564(12) 0.69591(15) 0.31747(4)
C26 C 1.06990(12) 0.61159(14) 0.35337(4)
C27 C 1.03720(13) 0.61416(14) 0.39569(4)
H23 H 1.0885 0.5673 0.4176
C28 C 0.93716(12) 0.68019(14) 0.40528(4)
H24 H 0.8869 0.7278 0.3832
C29 C 0.90213(13) 0.68289(14) 0.44678(4)
H25 H 0.9531 0.6405 0.4697
C30 C 0.79726(13) 0.74529(14) 0.45335(4)
H26 H 0.7504 0.7877 0.4295
C31 C 0.74777(12) 0.75506(14) 0.49278(4)
C32 C 0.63610(13) 0.82442(16) 0.49265(4)
H27 H 0.5957 0.8637 0.4672
C33 C 0.58315(13) 0.83705(16) 0.52880(4)
H28 H 0.5089 0.8851 0.5273
C34 C 0.63989(13) 0.77837(15) 0.56789(4)
C35 C 0.75327(14) 0.70870(16) 0.56845(4)
H29 H 0.7938 0.6691 0.5939
C36 C 0.80523(13) 0.69814(16) 0.53201(4)
H30 H 0.8804 0.6520 0.5335
C37 C 0.48544(16) 0.8827(2) 0.60510(5)
H31 H 0.4547 0.8707 0.6314
H32 H 0.4203 0.8649 0.5813
H33 H 0.5148 0.9771 0.6034
C38 C 0.65245(16) 0.73900(19) 0.64482(5)
H34 H 0.7217 0.8000 0.6537
H35 H 0.6813 0.6448 0.6422
H36 H 0.5989 0.7414 0.6657
loop_
_geom_bond_atom_site_label_1
_geom_bond_atom_site_label_2
_geom_bond_site_symmetry_1
_geom_bond_site_symmetry_2
Cl1 C1 1_555 1_555
O1 C7 1_555 1_555
N1 C15 1_555 1_555
C1 C2 1_555 1_555
C2 H1 1_555 1_555
C3 C2 1_555 1_555
H2 C3 1_555 1_555
C4 C3 1_555 1_555
H3 C4 1_555 1_555
C5 C4 1_555 1_555
H4 C5 1_555 1_555
C6 C1 1_555 1_555
C7 C6 1_555 1_555
C8 C7 1_555 1_555
H5 C8 1_555 1_555
C9 C8 1_555 1_555
H6 C9 1_555 1_555
C10 C9 1_555 1_555
H7 C10 1_555 1_555
C11 C10 1_555 1_555
H8 C11 1_555 1_555
C12 C11 1_555 1_555
C13 C12 1_555 1_555
H9 C13 1_555 1_555
C14 C13 1_555 1_555
H10 C14 1_555 1_555
C15 C14 1_555 1_555
C16 C15 1_555 1_555
H11 C16 1_555 1_555
C17 C12 1_555 1_555
H12 C17 1_555 1_555
C18 N1 1_555 1_555
H13 C18 1_555 1_555
H14 C18 1_555 1_555
H15 C18 1_555 1_555
C19 N1 1_555 1_555
H16 C19 1_555 1_555
H17 C19 1_555 1_555
H18 C19 1_555 1_555
Cl2 C20 1_555 1_555
O2 C26 1_555 1_555
N2 C34 1_555 1_555
C20 C21 1_555 1_555
C21 H19 1_555 1_555
C22 C21 1_555 1_555
H20 C22 1_555 1_555
C23 C22 1_555 1_555
H21 C23 1_555 1_555
C24 C23 1_555 1_555
H22 C24 1_555 1_555
C25 C20 1_555 1_555
C26 C25 1_555 1_555
C27 C26 1_555 1_555
H23 C27 1_555 1_555
C28 C27 1_555 1_555
H24 C28 1_555 1_555
C29 C28 1_555 1_555
H25 C29 1_555 1_555
C30 C29 1_555 1_555
H26 C30 1_555 1_555
C31 C30 1_555 1_555
C32 C31 1_555 1_555
H27 C32 1_555 1_555
C33 C32 1_555 1_555
H28 C33 1_555 1_555
C34 C33 1_555 1_555
C35 C34 1_555 1_555
H29 C35 1_555 1_555
C36 C31 1_555 1_555
H30 C36 1_555 1_555
C37 N2 1_555 1_555
H31 C37 1_555 1_555
H32 C37 1_555 1_555
H33 C37 1_555 1_555
C38 N2 1_555 1_555
H34 C38 1_555 1_555
H35 C38 1_555 1_555
H36 C38 1_555 1_555
C5 C6 1_555 1_555
C16 C17 1_555 1_555
C24 C25 1_555 1_555
C35 C36 1_555 1_555

#END
