
#######################################################################
#
#                 Cambridge Crystallographic Data Centre
#                                CCDC 
#
#######################################################################
#
# If this CIF has been generated from an entry in the Cambridge 
# Structural Database, then it will include bibliographic, chemical, 
# crystal, experimental, refinement or atomic coordinate data resulting 
# from the CCDC's data processing and validation procedures.
#
#######################################################################

data_XAMHAX
_chemical_formula_moiety         'C7 H3 N2 O6 1-,C7 H7 N2 1+'
_chemical_name_systematic        '1H-benzimidazol-3-ium 3,5-dinitrobenzoate'
_symmetry_cell_setting           monoclinic
_symmetry_space_group_name_H-M   'P 21/c'
_symmetry_Int_Tables_number      14
_space_group_name_Hall           '-P 2ybc'
loop_
_symmetry_equiv_pos_site_id
_symmetry_equiv_pos_as_xyz
1 x,y,z
2 -x,1/2+y,1/2-z
3 -x,-y,-z
4 x,1/2-y,1/2+z
_cell_length_a                   9.389(5)
_cell_length_b                   11.807(6)
_cell_length_c                   13.326(7)
_cell_angle_alpha                90
_cell_angle_beta                 94.824(10)
_cell_angle_gamma                90
_cell_volume                     1472.03
_exptl_crystal_colour            yellow
_exptl_crystal_description       block
_cell_formula_units_Z            4
loop_
_atom_site_label
_atom_site_type_symbol
_atom_site_fract_x
_atom_site_fract_y
_atom_site_fract_z
N1 N -0.0171(3) 0.1760(2) 0.8539(2)
H1 H -0.0668 0.2348 0.8660
C1 C -0.0180(4) 0.1220(3) 0.7668(3)
H2 H -0.0717 0.1435 0.7081
C2 C 0.0783(4) 0.1204(3) 0.9220(2)
N2 N 0.0678(3) 0.0335(2) 0.7747(2)
H3 H 0.0812 -0.0138 0.7273
C3 C 0.1220(4) 0.1427(3) 1.0219(3)
H4 H 0.0853 0.2035 1.0559
C4 C 0.1327(4) 0.0293(3) 0.8717(2)
C5 C 0.2329(5) -0.0430(4) 0.9186(3)
H5 H 0.2695 -0.1042 0.8852
C6 C 0.2211(5) 0.0715(4) 1.0681(3)
H6 H 0.2532 0.0839 1.1351
C7 C 0.2753(5) -0.0194(4) 1.0169(4)
H7 H 0.3430 -0.0659 1.0510
O1 O 0.8728(3) 1.11691(19) 0.37109(16)
O2 O 0.7408(3) 0.7828(2) 0.7128(2)
N3 N 0.8523(4) 1.0832(3) 0.4588(3)
N4 N 0.4168(4) 0.8762(3) 0.3216(2)
C8 C 0.5391(4) 0.8180(3) 0.4809(3)
H8 H 0.4717 0.7610 0.4857
C9 C 0.6506(4) 0.7659(3) 0.6462(2)
O3 O 0.9090(4) 1.1205(2) 0.53890(18)
O4 O 0.3890(3) 0.9560(3) 0.2670(2)
C10 C 0.7487(4) 0.9201(3) 0.5507(2)
H9 H 0.8191 0.9311 0.6031
C11 C 0.6468(4) 0.8363(3) 0.5563(2)
C12 C 0.7438(4) 0.9872(3) 0.4653(2)
C13 C 0.6363(4) 0.9713(3) 0.3889(2)
H10 H 0.6317 1.0166 0.3315
C14 C 0.5366(4) 0.8878(3) 0.3989(2)
O5 O 0.5634(4) 0.6913(4) 0.6483(3)
O6 O 0.3534(4) 0.7864(3) 0.3158(3)
loop_
_geom_bond_atom_site_label_1
_geom_bond_atom_site_label_2
_geom_bond_site_symmetry_1
_geom_bond_site_symmetry_2
N1 H1 1_555 1_555
C1 N1 1_555 1_555
H2 C1 1_555 1_555
C2 N1 1_555 1_555
N2 C1 1_555 1_555
H3 N2 1_555 1_555
C3 C2 1_555 1_555
H4 C3 1_555 1_555
C4 C2 1_555 1_555
C5 C4 1_555 1_555
H5 C5 1_555 1_555
C6 C3 1_555 1_555
H6 C6 1_555 1_555
C7 C5 1_555 1_555
H7 C7 1_555 1_555
O1 N3 1_555 1_555
O2 C9 1_555 1_555
N3 O3 1_555 1_555
N4 O4 1_555 1_555
C8 H8 1_555 1_555
C9 C11 1_555 1_555
C10 H9 1_555 1_555
C11 C8 1_555 1_555
C12 N3 1_555 1_555
C13 C12 1_555 1_555
H10 C13 1_555 1_555
C14 N4 1_555 1_555
O5 C9 1_555 1_555
O6 N4 1_555 1_555
N2 C4 1_555 1_555
C6 C7 1_555 1_555
C8 C14 1_555 1_555
C10 C11 1_555 1_555
C10 C12 1_555 1_555
C13 C14 1_555 1_555

#END
