
#######################################################################
#
#                 Cambridge Crystallographic Data Centre
#                                CCDC 
#
#######################################################################
#
# If this CIF has been generated from an entry in the Cambridge 
# Structural Database, then it will include bibliographic, chemical, 
# crystal, experimental, refinement or atomic coordinate data resulting 
# from the CCDC's data processing and validation procedures.
#
#######################################################################

data_XAMMAC
_chemical_formula_moiety         'C25 H25 N1 O5 S1'
_chemical_name_systematic        
4-(4-(methylsulfanyl)phenyl)-3-phenoxy-1-(3,4,5-trimethoxyphenyl)azetidin-2-one
_chemical_properties_biological  
'evaluated for anti-proliferative effects in MCF-7, HL-60 and HT-29 cancer cells'
_symmetry_cell_setting           monoclinic
_symmetry_space_group_name_H-M   'P 21/c'
_symmetry_Int_Tables_number      14
_space_group_name_Hall           '-P 2ybc'
loop_
_symmetry_equiv_pos_site_id
_symmetry_equiv_pos_as_xyz
1 x,y,z
2 -x,1/2+y,1/2-z
3 -x,-y,-z
4 x,1/2-y,1/2+z
_cell_length_a                   11.4803(5)
_cell_length_b                   11.7287(5)
_cell_length_c                   16.6012(7)
_cell_angle_alpha                90
_cell_angle_beta                 92.0610(10)
_cell_angle_gamma                90
_cell_volume                     2233.89
_exptl_crystal_colour            colorless
_exptl_crystal_description       needle
_cell_formula_units_Z            4
loop_
_atom_site_label
_atom_site_type_symbol
_atom_site_fract_x
_atom_site_fract_y
_atom_site_fract_z
C1 C 0.40151(15) 0.89063(15) 0.48394(9)
C2 C 0.48639(16) 0.79313(15) 0.46398(10)
H1 H 0.5697 0.8137 0.4763
C3 C 0.43049(15) 0.72633(15) 0.53439(10)
H2 H 0.4885 0.7075 0.5787
C4 C 0.35230(15) 0.62727(15) 0.51285(9)
C5 C 0.26020(15) 0.63958(15) 0.45689(10)
H3 H 0.2494 0.7105 0.4300
C6 C 0.18406(15) 0.55102(15) 0.43948(10)
H4 H 0.1227 0.5606 0.4001
C7 C 0.19777(15) 0.44762(15) 0.48007(9)
C8 C 0.29044(16) 0.43416(15) 0.53581(10)
H5 H 0.3010 0.3635 0.5630
C9 C 0.36721(16) 0.52299(16) 0.55180(10)
H6 H 0.4304 0.5127 0.5896
C10 C -0.00742(17) 0.38551(17) 0.39614(11)
H7 H -0.0404 0.4559 0.4175
H8 H -0.0694 0.3287 0.3883
H9 H 0.0279 0.4014 0.3444
C11 C 0.27881(15) 0.85051(14) 0.60716(9)
C12 C 0.27372(15) 0.77397(15) 0.67110(9)
H10 H 0.3294 0.7144 0.6773
C13 C 0.18550(16) 0.78647(15) 0.72581(9)
C14 C 0.10626(15) 0.87573(15) 0.71793(10)
C15 C 0.11428(15) 0.95263(15) 0.65403(10)
C16 C 0.20026(15) 0.93982(15) 0.59743(10)
H11 H 0.2049 0.9910 0.5533
C17 C 0.23259(17) 0.60908(17) 0.78848(11)
H12 H 0.2073 0.5606 0.8326
H13 H 0.3160 0.6254 0.7959
H14 H 0.2184 0.5696 0.7370
C18 C -0.08524(16) 0.83310(17) 0.75305(11)
H15 H -0.1437 0.8518 0.7925
H16 H -0.0720 0.7506 0.7529
H17 H -0.1131 0.8577 0.6993
C19 C 0.04450(18) 1.12416(17) 0.59267(11)
H18 H -0.0132 1.1841 0.6011
H19 H 0.0321 1.0916 0.5387
H20 H 0.1230 1.1567 0.5978
C20 C 0.53882(15) 0.76904(16) 0.32659(10)
C21 C 0.58150(16) 0.87837(17) 0.31791(11)
H21 H 0.5665 0.9354 0.3568
C22 C 0.64693(17) 0.90348(19) 0.25109(11)
H22 H 0.6773 0.9781 0.2445
C23 C 0.66799(17) 0.81996(19) 0.19416(11)
H23 H 0.7130 0.8375 0.1488
C24 C 0.62353(16) 0.71121(18) 0.20336(10)
H24 H 0.6377 0.6543 0.1642
C25 C 0.55834(16) 0.68512(16) 0.26966(10)
H25 H 0.5274 0.6107 0.2760
N1 N 0.36561(13) 0.83282(12) 0.55036(8)
O1 O 0.16859(11) 0.71340(11) 0.78825(7)
O2 O 0.02172(11) 0.89047(11) 0.77415(7)
O3 O 0.03220(12) 1.03665(11) 0.65176(8)
O4 O 0.37441(11) 0.98235(10) 0.45538(7)
O5 O 0.47104(11) 0.73586(11) 0.38964(7)
S1 S 0.10160(4) 0.33159(4) 0.46602(3)
loop_
_geom_bond_atom_site_label_1
_geom_bond_atom_site_label_2
_geom_bond_site_symmetry_1
_geom_bond_site_symmetry_2
C1 C2 1_555 1_555
C2 H1 1_555 1_555
C3 C2 1_555 1_555
H2 C3 1_555 1_555
C4 C3 1_555 1_555
C5 C4 1_555 1_555
H3 C5 1_555 1_555
C6 C5 1_555 1_555
H4 C6 1_555 1_555
C7 C6 1_555 1_555
C8 C7 1_555 1_555
H5 C8 1_555 1_555
C9 C4 1_555 1_555
H6 C9 1_555 1_555
C10 H7 1_555 1_555
H8 C10 1_555 1_555
H9 C10 1_555 1_555
C11 C12 1_555 1_555
C12 H10 1_555 1_555
C13 C12 1_555 1_555
C14 C13 1_555 1_555
C15 C14 1_555 1_555
C16 C11 1_555 1_555
H11 C16 1_555 1_555
C17 H12 1_555 1_555
H13 C17 1_555 1_555
H14 C17 1_555 1_555
C18 H15 1_555 1_555
H16 C18 1_555 1_555
H17 C18 1_555 1_555
C19 H18 1_555 1_555
H19 C19 1_555 1_555
H20 C19 1_555 1_555
C20 C21 1_555 1_555
C21 H21 1_555 1_555
C22 C21 1_555 1_555
H22 C22 1_555 1_555
C23 C22 1_555 1_555
H23 C23 1_555 1_555
C24 C23 1_555 1_555
H24 C24 1_555 1_555
C25 C20 1_555 1_555
H25 C25 1_555 1_555
N1 C1 1_555 1_555
O1 C13 1_555 1_555
O2 C14 1_555 1_555
O3 C15 1_555 1_555
O4 C1 1_555 1_555
O5 C2 1_555 1_555
S1 C7 1_555 1_555
C3 N1 1_555 1_555
C8 C9 1_555 1_555
C10 S1 1_555 1_555
C11 N1 1_555 1_555
C15 C16 1_555 1_555
C17 O1 1_555 1_555
C18 O2 1_555 1_555
C19 O3 1_555 1_555
C20 O5 1_555 1_555
C24 C25 1_555 1_555

#END
