
#######################################################################
#
#                 Cambridge Crystallographic Data Centre
#                                CCDC 
#
#######################################################################
#
# If this CIF has been generated from an entry in the Cambridge 
# Structural Database, then it will include bibliographic, chemical, 
# crystal, experimental, refinement or atomic coordinate data resulting 
# from the CCDC's data processing and validation procedures.
#
#######################################################################

data_XAMSAF
_chemical_formula_moiety         'C12 H16 N2 O2'
_chemical_name_systematic        
2,3-Diaza-8-oxatricyclo(8.2.2.1^3,12^)pentadeca-1,12(15)-dien-9-one
_symmetry_cell_setting           monoclinic
_symmetry_space_group_name_H-M   'P 21/c'
_symmetry_Int_Tables_number      14
_space_group_name_Hall           '-P 2ybc'
loop_
_symmetry_equiv_pos_site_id
_symmetry_equiv_pos_as_xyz
1 x,y,z
2 -x,1/2+y,1/2-z
3 -x,-y,-z
4 x,1/2-y,1/2+z
_cell_length_a                   10.403(6)
_cell_length_b                   9.202(2)
_cell_length_c                   11.985(4)
_cell_angle_alpha                90
_cell_angle_beta                 108.53(3)
_cell_angle_gamma                90
_cell_volume                     1087.83
_exptl_crystal_colour            white
_chemical_melting_point          '95-96 deg.C'
_cell_formula_units_Z            4
loop_
_atom_site_label
_atom_site_type_symbol
_atom_site_fract_x
_atom_site_fract_y
_atom_site_fract_z
O1 O 0.7472(1) 0.3858(2) 0.1283(1)
N1 N 0.5989(2) 0.3798(2) -0.1498(1)
O2 O 0.9734(2) 0.3643(2) 0.2054(1)
N2 N 0.6957(2) 0.4767(2) -0.1557(1)
C1 C 0.8217(2) 0.4179(3) -0.1179(2)
C2 C 0.6166(2) 0.1272(2) -0.0675(2)
C3 C 0.8491(2) 0.1620(2) 0.0982(2)
C4 C 0.8642(2) 0.3130(2) 0.1516(2)
C5 C 0.8078(2) 0.2775(2) -0.0892(2)
C6 C 0.6671(3) 0.6304(3) -0.1487(2)
C7 C 0.9022(2) 0.1723(3) -0.0087(2)
C8 C 0.7046(3) 0.0987(3) 0.0628(2)
C9 C 0.7542(3) 0.5360(2) 0.1675(2)
C10 C 0.6682(2) 0.2596(2) -0.1096(2)
C11 C 0.7729(2) 0.6421(3) 0.0782(2)
C12 C 0.6491(2) 0.6681(3) -0.0311(2)
H1 H 0.9018(23) 0.4736(22) -0.1122(18)
H2 H 0.5696(25) 0.6125(25) -0.0248(19)
H3 H 0.8516(25) 0.6179(24) 0.0556(19)
H4 H 0.6244(25) 0.7730(31) -0.0326(21)
H5 H 0.6699(29) 0.5545(28) 0.1855(23)
H6 H 0.7434(28) 0.6887(31) -0.1611(24)
H7 H 0.8998(24) 0.0768(28) -0.0433(20)
H8 H 0.6228(23) 0.0463(26) -0.1131(21)
H9 H 0.9082(25) 0.1020(27) 0.1581(23)
H10 H 1.0008(26) 0.2010(27) 0.0129(21)
H11 H 0.5141(27) 0.1384(25) -0.0725(22)
H12 H 0.8259(26) 0.5468(27) 0.2458(23)
H13 H 0.7126(26) -0.0055(28) 0.0745(23)
H14 H 0.6551(25) 0.1357(25) 0.1128(22)
H15 H 0.8034(23) 0.7356(25) 0.1215(21)
H16 H 0.5858(26) 0.6556(27) -0.2099(22)
loop_
_geom_bond_atom_site_label_1
_geom_bond_atom_site_label_2
_geom_bond_site_symmetry_1
_geom_bond_site_symmetry_2
O1 C4 1_555 1_555
N1 N2 1_555 1_555
O2 C4 1_555 1_555
N2 C1 1_555 1_555
C1 C5 1_555 1_555
C2 C8 1_555 1_555
C3 C4 1_555 1_555
C5 C7 1_555 1_555
C6 N2 1_555 1_555
C7 C3 1_555 1_555
C8 C3 1_555 1_555
C9 O1 1_555 1_555
C10 N1 1_555 1_555
C11 C9 1_555 1_555
C12 C6 1_555 1_555
H1 C1 1_555 1_555
H2 C12 1_555 1_555
H3 C11 1_555 1_555
H4 C12 1_555 1_555
H5 C9 1_555 1_555
H6 C6 1_555 1_555
H7 C7 1_555 1_555
H8 C2 1_555 1_555
H9 C3 1_555 1_555
H10 C7 1_555 1_555
H11 C2 1_555 1_555
H12 C9 1_555 1_555
H13 C8 1_555 1_555
H14 C8 1_555 1_555
H15 C11 1_555 1_555
H16 C6 1_555 1_555
C2 C10 1_555 1_555
C5 C10 1_555 1_555
C11 C12 1_555 1_555

#END
