
#######################################################################
#
#                 Cambridge Crystallographic Data Centre
#                                CCDC 
#
#######################################################################
#
# If this CIF has been generated from an entry in the Cambridge 
# Structural Database, then it will include bibliographic, chemical, 
# crystal, experimental, refinement or atomic coordinate data resulting 
# from the CCDC's data processing and validation procedures.
#
#######################################################################

data_XAMSEJ
_chemical_formula_moiety         'C13 H18 N2 O2'
_chemical_name_systematic        
2,3-Diaza-9-oxatricyclo(9.3.1.1^3,14^)hexadeca-1,14(16)-dien-10-one
_symmetry_cell_setting           orthorhombic
_symmetry_space_group_name_H-M   'P b c a'
_symmetry_Int_Tables_number      61
_space_group_name_Hall           '-P 2ac 2ab'
loop_
_symmetry_equiv_pos_site_id
_symmetry_equiv_pos_as_xyz
1 x,y,z
2 1/2-x,-y,1/2+z
3 1/2+x,1/2-y,-z
4 -x,1/2+y,1/2-z
5 -x,-y,-z
6 1/2+x,y,1/2-z
7 1/2-x,1/2+y,z
8 x,1/2-y,1/2+z
_cell_length_a                   9.827(3)
_cell_length_b                   10.397(3)
_cell_length_c                   24.257(10)
_cell_angle_alpha                90
_cell_angle_beta                 90
_cell_angle_gamma                90
_cell_volume                     2478.37
_exptl_crystal_colour            white
_chemical_melting_point          '67-68 deg.C'
_cell_formula_units_Z            8
loop_
_atom_site_label
_atom_site_type_symbol
_atom_site_fract_x
_atom_site_fract_y
_atom_site_fract_z
N1 N 0.2456(2) 0.3811(2) 0.1914(1)
N2 N 0.1687(2) 0.2725(2) 0.1907(1)
O1 O -0.1211(2) 0.4239(3) 0.0520(1)
O2 O 0.0089(2) 0.2537(2) 0.0699(1)
C1 C 0.0416(2) 0.3153(2) 0.1879(1)
C2 C -0.0776(2) 0.2313(3) 0.1752(1)
C3 C -0.1645(2) 0.3068(2) 0.1346(1)
C4 C -0.2114(2) 0.4326(3) 0.1612(1)
C5 C -0.0938(3) 0.5226(3) 0.1760(1)
C6 C 0.0351(2) 0.4493(2) 0.1858(1)
C7 C 0.1680(2) 0.4875(2) 0.1879(1)
C8 C 0.3887(2) 0.3694(3) 0.1764(1)
C9 C 0.4117(3) 0.3787(4) 0.1153(1)
C10 C 0.3204(3) 0.2921(4) 0.0802(1)
C11 C 0.2189(3) 0.3670(4) 0.0472(1)
C12 C 0.1020(3) 0.2886(5) 0.0247(1)
C13 C -0.0911(2) 0.3353(3) 0.0810(1)
H1 H -0.0771(23) 0.5836(25) 0.1451(11)
H2 H -0.1334(22) 0.2136(24) 0.2081(11)
H3 H 0.2066(23) 0.5688(26) 0.1850(8)
H4 H 0.4380(24) 0.4402(26) 0.1954(9)
H5 H 0.4232(26) 0.2838(29) 0.1905(10)
H6 H -0.0459(23) 0.1499(25) 0.1591(10)
H7 H -0.2737(27) 0.4823(26) 0.1380(11)
H8 H -0.2440(24) 0.2617(23) 0.1228(10)
H9 H 0.3992(24) 0.4716(27) 0.1031(10)
H10 H -0.2669(29) 0.4117(29) 0.1949(12)
H11 H -0.1191(26) 0.5786(29) 0.2081(11)
H12 H 0.0518(30) 0.3363(33) -0.0048(14)
H13 H 0.5101(31) 0.3610(26) 0.1087(11)
H14 H 0.3712(26) 0.2440(27) 0.0482(13)
H15 H 0.2711(29) 0.2259(31) 0.1056(13)
H16 H 0.2702(32) 0.4085(30) 0.0169(13)
H17 H 0.1844(38) 0.4316(40) 0.0752(16)
H18 H 0.1386(35) 0.2013(43) 0.0099(19)
loop_
_geom_bond_atom_site_label_1
_geom_bond_atom_site_label_2
_geom_bond_site_symmetry_1
_geom_bond_site_symmetry_2
N1 N2 1_555 1_555
N2 C1 1_555 1_555
O1 C13 1_555 1_555
O2 C12 1_555 1_555
C1 C2 1_555 1_555
C2 C3 1_555 1_555
C3 C4 1_555 1_555
C4 C5 1_555 1_555
C5 C6 1_555 1_555
C6 C1 1_555 1_555
C7 N1 1_555 1_555
C8 N1 1_555 1_555
C9 C8 1_555 1_555
C10 C9 1_555 1_555
C11 C10 1_555 1_555
C12 C11 1_555 1_555
C13 O2 1_555 1_555
H1 C5 1_555 1_555
H2 C2 1_555 1_555
H3 C7 1_555 1_555
H4 C8 1_555 1_555
H5 C8 1_555 1_555
H6 C2 1_555 1_555
H7 C4 1_555 1_555
H8 C3 1_555 1_555
H9 C9 1_555 1_555
H10 C4 1_555 1_555
H11 C5 1_555 1_555
H12 C12 1_555 1_555
H13 C9 1_555 1_555
H14 C10 1_555 1_555
H15 C10 1_555 1_555
H16 C11 1_555 1_555
H17 C11 1_555 1_555
H18 C12 1_555 1_555
C3 C13 1_555 1_555
C6 C7 1_555 1_555

#END
