
#######################################################################
#
#                 Cambridge Crystallographic Data Centre
#                                CCDC 
#
#######################################################################
#
# If this CIF has been generated from an entry in the Cambridge 
# Structural Database, then it will include bibliographic, chemical, 
# crystal, experimental, refinement or atomic coordinate data resulting 
# from the CCDC's data processing and validation procedures.
#
#######################################################################

data_XAMZUH
_chemical_compound_source        'Homalia trichomanoides'
_chemical_name_common            Trichomanoidin
_chemical_formula_moiety         'C50 H38 O10'
_chemical_name_systematic        
"4,4''-Dihydroxy-(1,1':4',1''-terphenyl)-2',3',5',6'-tetrayl tetrakis(phenylacetate)"
_chemical_properties_biological  'no antifungal against Candida albicans'
_symmetry_cell_setting           triclinic
_symmetry_space_group_name_H-M   'P -1'
_symmetry_Int_Tables_number      2
_space_group_name_Hall           '-P 1'
loop_
_symmetry_equiv_pos_site_id
_symmetry_equiv_pos_as_xyz
1 x,y,z
2 -x,-y,-z
_cell_length_a                   9.1542(8)
_cell_length_b                   10.5841(8)
_cell_length_c                   11.5279(16)
_cell_angle_alpha                72.570(8)
_cell_angle_beta                 71.929(9)
_cell_angle_gamma                75.576(6)
_cell_volume                     997.945
_exptl_crystal_colour            colorless
_exptl_crystal_description       prism
_chemical_melting_point          242-244deg.C
_cell_formula_units_Z            1
_exptl_crystal_recrystallization_method acetone
loop_
_atom_site_label
_atom_site_type_symbol
_atom_site_fract_x
_atom_site_fract_y
_atom_site_fract_z
C1 C 0.6573(2) 0.5261(2) 0.15559(16)
C2 C 0.5801(2) 0.5582(2) 0.26944(17)
C3 C 0.6642(2) 0.54772(18) 0.35394(17)
C4 C 0.8243(2) 0.50695(17) 0.32627(15)
C5 C 0.9000(2) 0.4745(2) 0.21167(16)
C6 C 0.8163(2) 0.4834(2) 0.12707(17)
C7 C 0.91426(19) 0.50233(17) 0.41527(15)
C8 C 1.01586(19) 0.59141(16) 0.38709(14)
C9 C 1.1464(2) 0.6834(2) 0.17791(16)
C10 C 1.1283(3) 0.7967(2) 0.06512(19)
C11 C 1.1655(3) 0.9260(2) 0.07087(17)
C12 C 1.0812(3) 0.9914(2) 0.1641(2)
C13 C 1.1156(4) 1.1108(3) 0.1663(3)
C14 C 1.2331(4) 1.1666(3) 0.0743(3)
C15 C 1.3144(4) 1.1045(3) -0.0193(4)
C16 C 1.2820(4) 0.9847(3) -0.0215(3)
C17 C 0.90067(19) 0.41021(16) 0.53140(15)
C18 C 0.8522(2) 0.20406(19) 0.52580(18)
C19 C 0.7327(3) 0.1136(2) 0.5745(3)
C20 C 0.6046(2) 0.15597(19) 0.5069(2)
C21 C 0.6337(3) 0.2040(3) 0.3783(3)
C22 C 0.5125(4) 0.2381(3) 0.3190(4)
C23 C 0.3646(4) 0.2239(3) 0.3887(4)
C24 C 0.3348(3) 0.1765(3) 0.5146(4)
C25 C 0.4530(3) 0.1431(3) 0.5743(3)
O1 O 0.5825(2) 0.53324(19) 0.06768(14)
O2 O 1.25463(17) 0.59240(16) 0.18370(12)
O3 O 1.02021(14) 0.69415(11) 0.27649(10)
O4 O 0.79809(14) 0.31832(12) 0.56951(10)
O5 O 0.97884(19) 0.18492(15) 0.45792(16)
H1 H 0.484(4) 0.554(3) 0.093(3)
H2 H 0.470(2) 0.5876(18) 0.2882(16)
H3 H 0.610(2) 0.5715(17) 0.4310(16)
H4 H 1.012(2) 0.4405(18) 0.1925(16)
H5 H 0.866(2) 0.4557(19) 0.0487(18)
H6 H 1.023(3) 0.813(2) 0.0608(19)
H7 H 1.202(3) 0.768(2) -0.008(2)
H8 H 0.994(3) 0.952(2) 0.233(2)
H9 H 1.056(3) 1.152(3) 0.236(3)
H10 H 1.256(3) 1.251(3) 0.079(3)
H11 H 1.395(4) 1.143(3) -0.082(3)
H12 H 1.346(3) 0.934(3) -0.084(2)
H13 H 0.793(3) 0.026(3) 0.560(2)
H14 H 0.688(3) 0.113(3) 0.665(3)
H15 H 0.743(3) 0.207(2) 0.328(2)
H16 H 0.547(3) 0.270(3) 0.229(3)
H17 H 0.280(4) 0.252(3) 0.344(3)
H18 H 0.227(4) 0.164(3) 0.559(3)
H19 H 0.439(3) 0.104(3) 0.668(3)
C1A C 1.3427(2) 0.4739(2) 0.84441(16)
C2A C 1.4199(2) 0.4418(2) 0.73056(17)
C3A C 1.3358(2) 0.45228(18) 0.64606(17)
C4A C 1.1757(2) 0.49305(17) 0.67373(15)
C5A C 1.1000(2) 0.5255(2) 0.78833(16)
C6A C 1.1837(2) 0.5166(2) 0.87293(17)
C7A C 1.08574(19) 0.49767(17) 0.58473(15)
C8A C 0.98414(19) 0.40859(16) 0.61291(14)
C9A C 0.8536(2) 0.3166(2) 0.82209(16)
C10A C 0.8717(3) 0.2033(2) 0.93488(19)
C11A C 0.8345(3) 0.0740(2) 0.92913(17)
C12A C 0.9188(3) 0.0086(2) 0.8359(2)
C13A C 0.8844(4) -0.1108(3) 0.8337(3)
C14A C 0.7669(4) -0.1666(3) 0.9257(3)
C15A C 0.6856(4) -0.1045(3) 1.0193(4)
C16A C 0.7180(4) 0.0153(3) 1.0215(3)
C17A C 1.09933(19) 0.58979(16) 0.46860(15)
C18A C 1.1478(2) 0.79594(19) 0.47420(18)
C19A C 1.2673(3) 0.8864(2) 0.4255(3)
C20A C 1.3954(2) 0.84403(19) 0.4931(2)
C21A C 1.3663(3) 0.7960(3) 0.6217(3)
C22A C 1.4875(4) 0.7619(3) 0.6810(4)
C23A C 1.6354(4) 0.7761(3) 0.6113(4)
C24A C 1.6652(3) 0.8235(3) 0.4854(4)
C25A C 1.5470(3) 0.8569(3) 0.4257(3)
O1A O 1.4175(2) 0.46676(19) 0.93232(14)
O2A O 0.74537(17) 0.40760(16) 0.81630(12)
O3A O 0.97979(14) 0.30585(11) 0.72351(10)
O4A O 1.20191(14) 0.68168(12) 0.43049(10)
O5A O 1.02116(19) 0.81508(15) 0.54208(16)
H1A H 1.516(4) 0.446(3) 0.907(3)
H2A H 1.530(2) 0.4124(18) 0.7118(16)
H3A H 1.390(2) 0.4285(17) 0.5690(16)
H4A H 0.988(2) 0.5595(18) 0.8075(16)
H5A H 1.134(2) 0.5443(19) 0.9513(18)
H6A H 0.977(3) 0.187(2) 0.9392(19)
H7A H 0.798(3) 0.232(2) 1.008(2)
H8A H 1.006(3) 0.048(2) 0.767(2)
H9A H 0.944(3) -0.152(3) 0.764(3)
H10A H 0.744(3) -0.251(3) 0.921(3)
H11A H 0.605(4) -0.143(3) 1.082(3)
H12A H 0.654(3) 0.066(3) 1.084(2)
H13A H 1.207(3) 0.974(3) 0.440(2)
H14A H 1.312(3) 0.887(3) 0.335(3)
H15A H 1.257(3) 0.793(2) 0.672(2)
H16A H 1.453(3) 0.730(3) 0.771(3)
H17A H 1.720(4) 0.748(3) 0.656(3)
H18A H 1.773(4) 0.836(3) 0.441(3)
H19A H 1.561(3) 0.896(3) 0.332(3)
loop_
_geom_bond_atom_site_label_1
_geom_bond_atom_site_label_2
_geom_bond_site_symmetry_1
_geom_bond_site_symmetry_2
C1 C2 1_555 1_555
C2 C3 1_555 1_555
C3 C4 1_555 1_555
C4 C5 1_555 1_555
C5 C6 1_555 1_555
C6 C1 1_555 1_555
C7 C4 1_555 1_555
C8 C7 1_555 1_555
C9 C10 1_555 1_555
C10 C11 1_555 1_555
C11 C12 1_555 1_555
C12 C13 1_555 1_555
C13 C14 1_555 1_555
C14 C15 1_555 1_555
C15 C16 1_555 1_555
C16 C11 1_555 1_555
C17 C7 1_555 1_555
C18 C19 1_555 1_555
C19 C20 1_555 1_555
C20 C21 1_555 1_555
C21 C22 1_555 1_555
C22 C23 1_555 1_555
C23 C24 1_555 1_555
C24 C25 1_555 1_555
C25 C20 1_555 1_555
O1 C1 1_555 1_555
O2 C9 1_555 1_555
O3 C8 1_555 1_555
O4 C17 1_555 1_555
O5 C18 1_555 1_555
H1 O1 1_555 1_555
H2 C2 1_555 1_555
H3 C3 1_555 1_555
H4 C5 1_555 1_555
H5 C6 1_555 1_555
H6 C10 1_555 1_555
H7 C10 1_555 1_555
H8 C12 1_555 1_555
H9 C13 1_555 1_555
H10 C14 1_555 1_555
H11 C15 1_555 1_555
H12 C16 1_555 1_555
H13 C19 1_555 1_555
H14 C19 1_555 1_555
H15 C21 1_555 1_555
H16 C22 1_555 1_555
H17 C23 1_555 1_555
H18 C24 1_555 1_555
H19 C25 1_555 1_555
C1A C2A 1_555 1_555
C2A C3A 1_555 1_555
C3A C4A 1_555 1_555
C4A C5A 1_555 1_555
C5A C6A 1_555 1_555
C6A C1A 1_555 1_555
C7A C4A 1_555 1_555
C8A C17 1_555 1_555
C9A C10A 1_555 1_555
C10A C11A 1_555 1_555
C11A C12A 1_555 1_555
C12A C13A 1_555 1_555
C13A C14A 1_555 1_555
C14A C15A 1_555 1_555
C15A C16A 1_555 1_555
C16A C11A 1_555 1_555
C17A C8 1_555 1_555
C18A C19A 1_555 1_555
C19A C20A 1_555 1_555
C20A C21A 1_555 1_555
C21A C22A 1_555 1_555
C22A C23A 1_555 1_555
C23A C24A 1_555 1_555
C24A C25A 1_555 1_555
C25A C20A 1_555 1_555
O1A C1A 1_555 1_555
O2A C9A 1_555 1_555
O3A C8A 1_555 1_555
O4A C17A 1_555 1_555
O5A C18A 1_555 1_555
H1A O1A 1_555 1_555
H2A C2A 1_555 1_555
H3A C3A 1_555 1_555
H4A C5A 1_555 1_555
H5A C6A 1_555 1_555
H6A C10A 1_555 1_555
H7A C10A 1_555 1_555
H8A C12A 1_555 1_555
H9A C13A 1_555 1_555
H10A C14A 1_555 1_555
H11A C15A 1_555 1_555
H12A C16A 1_555 1_555
H13A C19A 1_555 1_555
H14A C19A 1_555 1_555
H15A C21A 1_555 1_555
H16A C22A 1_555 1_555
H17A C23A 1_555 1_555
H18A C24A 1_555 1_555
H19A C25A 1_555 1_555
C9 O3 1_555 1_555
C18 O4 1_555 1_555
C7A C8A 1_555 1_555
C7A C17A 1_555 1_555
C9A O3A 1_555 1_555
C18A O4A 1_555 1_555

#END
