
#######################################################################
#
#                 Cambridge Crystallographic Data Centre
#                                CCDC 
#
#######################################################################
#
# If this CIF has been generated from an entry in the Cambridge 
# Structural Database, then it will include bibliographic, chemical, 
# crystal, experimental, refinement or atomic coordinate data resulting 
# from the CCDC's data processing and validation procedures.
#
#######################################################################

data_XAMZUJ
_chemical_formula_moiety         'C29 H21 N5'
_chemical_name_systematic        
2,6-bis(4-(1H-imidazol-1-yl)phenyl)-4-phenylpyridine
_symmetry_cell_setting           monoclinic
_symmetry_space_group_name_H-M   'P 2/n'
_symmetry_Int_Tables_number      13
_space_group_name_Hall           '-P 2yac'
loop_
_symmetry_equiv_pos_site_id
_symmetry_equiv_pos_as_xyz
1 x,y,z
2 1/2-x,y,1/2-z
3 -x,-y,-z
4 1/2+x,-y,1/2+z
_cell_length_a                   19.4272(5)
_cell_length_b                   10.8084(3)
_cell_length_c                   20.7906(5)
_cell_angle_alpha                90
_cell_angle_beta                 100.8370(10)
_cell_angle_gamma                90
_cell_volume                     4287.69
_exptl_crystal_colour            colorless
_exptl_crystal_description       block
_cell_formula_units_Z            8
loop_
_atom_site_label
_atom_site_type_symbol
_atom_site_fract_x
_atom_site_fract_y
_atom_site_fract_z
N1 N 0.31518(6) 0.03622(11) 0.55158(5)
N2 N 0.37003(5) 0.17561(10) 0.50072(5)
N3 N 0.49204(5) 0.37322(10) 0.25387(5)
N4 N 0.60553(5) 0.15550(10) 0.00220(5)
N5 N 0.66861(6) 0.06426(11) -0.06291(5)
C1 C 0.32060(6) 0.08409(12) 0.49475(6)
H1 H 0.2934 0.0582 0.4542
C2 C 0.36435(7) 0.09844(13) 0.59658(6)
H2 H 0.3734 0.0829 0.6424
C3 C 0.39798(7) 0.18461(13) 0.56674(6)
H3 H 0.4335 0.2399 0.5870
C4 C 0.39206(6) 0.24442(12) 0.44973(6)
C5 C 0.41920(7) 0.36295(12) 0.46248(6)
H4 H 0.4205 0.3994 0.5043
C6 C 0.44433(7) 0.42766(12) 0.41431(6)
H5 H 0.4631 0.5082 0.4236
C7 C 0.44255(6) 0.37651(12) 0.35220(6)
C8 C 0.41368(6) 0.25885(12) 0.34006(6)
H6 H 0.4112 0.2230 0.2980
C9 C 0.38848(6) 0.19267(12) 0.38801(6)
H7 H 0.3689 0.1126 0.3787
C10 C 0.47159(6) 0.44326(12) 0.30058(6)
C11 C 0.47784(6) 0.57129(12) 0.30199(6)
H8 H 0.4617 0.6173 0.3352
C12 C 0.50762(6) 0.63267(12) 0.25500(6)
C13 C 0.53198(6) 0.55968(12) 0.20860(6)
H9 H 0.5548 0.5968 0.1768
C14 C 0.52254(6) 0.43160(12) 0.20930(6)
C15 C 0.54584(6) 0.35335(11) 0.15836(6)
C16 C 0.50368(6) 0.25894(12) 0.12645(6)
H10 H 0.4605 0.2401 0.1394
C17 C 0.52382(6) 0.19227(12) 0.07610(6)
H11 H 0.4944 0.1286 0.0546
C18 C 0.58717(6) 0.21871(11) 0.05704(6)
C19 C 0.63119(6) 0.30862(12) 0.08976(6)
H12 H 0.6753 0.3246 0.0780
C20 C 0.61020(6) 0.37521(12) 0.13986(6)
H13 H 0.6404 0.4371 0.1621
C21 C 0.56026(7) 0.12770(13) -0.05547(6)
H14 H 0.5114 0.1441 -0.0658
C22 C 0.59977(7) 0.07225(13) -0.09417(6)
H15 H 0.5823 0.0428 -0.1372
C23 C 0.67000(7) 0.11576(13) -0.00543(6)
H16 H 0.7112 0.1243 0.0270
C24 C 0.51109(6) 0.77008(12) 0.25389(6)
C25 C 0.56068(6) 0.83220(12) 0.22502(6)
H17 H 0.5927 0.7861 0.2052
C26 C 0.56355(7) 0.96068(12) 0.22494(6)
H18 H 0.5974 1.0015 0.2050
C27 C 0.51730(7) 1.02980(12) 0.25374(6)
H19 H 0.5196 1.1176 0.2542
C28 C 0.46754(7) 0.96837(13) 0.28190(6)
H20 H 0.4354 1.0147 0.3015
C29 C 0.46423(7) 0.84064(12) 0.28179(6)
H21 H 0.4296 0.8004 0.3010
N6 N 0.37851(7) 0.84019(13) 0.41397(6)
N7 N 0.37369(5) 0.75529(10) 0.51061(5)
N8 N 0.2500 0.52872(14) 0.7500
C30 C 0.34293(8) 0.76724(15) 0.44633(6)
H22 H 0.3005 0.7273 0.4271
C31 C 0.43506(7) 0.87762(14) 0.45987(7)
H23 H 0.4710 0.9312 0.4511
C32 C 0.43286(7) 0.82806(13) 0.51930(7)
H24 H 0.4655 0.8409 0.5589
C33 C 0.34932(6) 0.68271(12) 0.55899(6)
C34 C 0.31537(7) 0.57122(12) 0.54140(6)
H25 H 0.3082 0.5439 0.4972
C35 C 0.29198(7) 0.49986(12) 0.58847(6)
H26 H 0.2689 0.4236 0.5762
C36 C 0.30190(6) 0.53871(11) 0.65356(6)
C37 C 0.33630(6) 0.65089(12) 0.67026(6)
H27 H 0.3437 0.6785 0.7144
C38 C 0.35987(6) 0.72268(12) 0.62359(6)
H28 H 0.3831 0.7989 0.6357
C39 C 0.27510(6) 0.46407(12) 0.70390(6)
C40 C 0.27653(6) 0.33538(12) 0.70271(6)
H29 H 0.2955 0.2934 0.6699
C41 C 0.2500 0.26808(17) 0.7500
C42 C 0.2500 0.13110(16) 0.7500
C43 C 0.24648(6) 0.06496(12) 0.69176(6)
H30 H 0.2438 0.1083 0.6516
C44 C 0.24685(7) -0.06330(13) 0.69196(6)
H31 H 0.2449 -0.1071 0.6520
C45 C 0.2500 -0.12818(18) 0.7500
H32 H 0.2500 -0.2161 0.7500
N6A N 0.12149(7) 0.84019(13) 1.08603(6)
N7A N 0.12631(5) 0.75529(10) 0.98939(5)
C30A C 0.15707(8) 0.76724(15) 1.05367(6)
H22A H 0.1995 0.7273 1.0729
C31A C 0.06494(7) 0.87762(14) 1.04013(7)
H23A H 0.0290 0.9312 1.0489
C32A C 0.06714(7) 0.82806(13) 0.98070(7)
H24A H 0.0345 0.8409 0.9411
C33A C 0.15068(6) 0.68271(12) 0.94101(6)
C34A C 0.18463(7) 0.57122(12) 0.95860(6)
H25A H 0.1918 0.5439 1.0028
C35A C 0.20802(7) 0.49986(12) 0.91153(6)
H26A H 0.2311 0.4236 0.9238
C36A C 0.19810(6) 0.53871(11) 0.84644(6)
C37A C 0.16370(6) 0.65089(12) 0.82974(6)
H27A H 0.1563 0.6785 0.7856
C38A C 0.14013(6) 0.72268(12) 0.87641(6)
H28A H 0.1169 0.7989 0.8643
C39A C 0.22490(6) 0.46407(12) 0.79610(6)
C40A C 0.22347(6) 0.33538(12) 0.79729(6)
H29A H 0.2045 0.2934 0.8301
C43A C 0.25352(6) 0.06496(12) 0.80824(6)
H30A H 0.2562 0.1083 0.8484
C44A C 0.25315(7) -0.06330(13) 0.80804(6)
H31A H 0.2551 -0.1071 0.8480
N9 N 0.41134(7) 0.29273(13) -0.07827(6)
N10 N 0.36420(6) 0.34406(10) 0.00720(5)
N11 N 0.2500 0.57238(14) 0.2500
C46 C 0.40274(8) 0.38086(14) -0.03732(7)
H33 H 0.4215 0.4618 -0.0387
C47 C 0.37679(7) 0.19268(14) -0.05897(7)
H34 H 0.3739 0.1138 -0.0795
C48 C 0.34739(7) 0.22149(13) -0.00684(7)
H35 H 0.3207 0.1685 0.0155
C49 C 0.34236(7) 0.41878(12) 0.05617(6)
C50 C 0.28367(7) 0.38389(12) 0.08111(6)
H36 H 0.2583 0.3115 0.0652
C51 C 0.26233(7) 0.45502(12) 0.12917(6)
H37 H 0.2230 0.4298 0.1469
C52 C 0.29791(7) 0.56320(12) 0.15181(6)
C53 C 0.35560(7) 0.59864(12) 0.12499(6)
H38 H 0.3796 0.6733 0.1391
C54 C 0.37828(7) 0.52630(13) 0.07804(6)
H39 H 0.4183 0.5502 0.0609
C55 C 0.27410(6) 0.63743(12) 0.20364(6)
C56 C 0.27508(7) 0.76583(12) 0.20215(6)
H40 H 0.2928 0.8076 0.1685
C57 C 0.2500 0.83339(17) 0.2500
C58 C 0.2500 0.97084(17) 0.2500
C59 C 0.21530(7) 1.03782(13) 0.29161(6)
H41 H 0.1916 0.9948 0.3208
C60 C 0.21481(8) 1.16583(14) 0.29110(7)
H42 H 0.1900 1.2094 0.3193
C61 C 0.2500 1.23110(19) 0.2500
H43 H 0.2500 1.3190 0.2500
N9A N 0.08866(7) 0.29273(13) 0.57827(6)
N10A N 0.13580(6) 0.34406(10) 0.49280(5)
C46A C 0.09726(8) 0.38086(14) 0.53732(7)
H33A H 0.0785 0.4618 0.5387
C47A C 0.12321(7) 0.19268(14) 0.55897(7)
H34A H 0.1261 0.1138 0.5795
C48A C 0.15261(7) 0.22149(13) 0.50684(7)
H35A H 0.1793 0.1685 0.4845
C49A C 0.15764(7) 0.41878(12) 0.44383(6)
C50A C 0.21633(7) 0.38389(12) 0.41889(6)
H36A H 0.2417 0.3115 0.4348
C51A C 0.23767(7) 0.45502(12) 0.37083(6)
H37A H 0.2770 0.4298 0.3531
C52A C 0.20209(7) 0.56320(12) 0.34819(6)
C53A C 0.14440(7) 0.59864(12) 0.37501(6)
H38A H 0.1204 0.6733 0.3609
C54A C 0.12172(7) 0.52630(13) 0.42196(6)
H39A H 0.0817 0.5502 0.4391
C55A C 0.22590(6) 0.63743(12) 0.29636(6)
C56A C 0.22492(7) 0.76583(12) 0.29785(6)
H40A H 0.2072 0.8076 0.3315
C59A C 0.28470(7) 1.03782(13) 0.20839(6)
H41A H 0.3084 0.9948 0.1792
C60A C 0.28519(8) 1.16583(14) 0.20890(7)
H42A H 0.3100 1.2094 0.1807
loop_
_geom_bond_atom_site_label_1
_geom_bond_atom_site_label_2
_geom_bond_site_symmetry_1
_geom_bond_site_symmetry_2
N1 C1 1_555 1_555
N2 C1 1_555 1_555
N3 C10 1_555 1_555
N4 C18 1_555 1_555
N5 C22 1_555 1_555
C1 H1 1_555 1_555
C2 N1 1_555 1_555
H2 C2 1_555 1_555
C3 N2 1_555 1_555
H3 C3 1_555 1_555
C4 N2 1_555 1_555
C5 C4 1_555 1_555
H4 C5 1_555 1_555
C6 C5 1_555 1_555
H5 C6 1_555 1_555
C7 C6 1_555 1_555
C8 C7 1_555 1_555
H6 C8 1_555 1_555
C9 C4 1_555 1_555
H7 C9 1_555 1_555
C10 C7 1_555 1_555
C11 C10 1_555 1_555
H8 C11 1_555 1_555
C12 C11 1_555 1_555
C13 C12 1_555 1_555
H9 C13 1_555 1_555
C14 N3 1_555 1_555
C15 C14 1_555 1_555
C16 C15 1_555 1_555
H10 C16 1_555 1_555
C17 C16 1_555 1_555
H11 C17 1_555 1_555
C18 C17 1_555 1_555
C19 C18 1_555 1_555
H12 C19 1_555 1_555
C20 C15 1_555 1_555
H13 C20 1_555 1_555
C21 N4 1_555 1_555
H14 C21 1_555 1_555
C22 C21 1_555 1_555
H15 C22 1_555 1_555
C23 N4 1_555 1_555
H16 C23 1_555 1_555
C24 C12 1_555 1_555
C25 C24 1_555 1_555
H17 C25 1_555 1_555
C26 C25 1_555 1_555
H18 C26 1_555 1_555
C27 C26 1_555 1_555
H19 C27 1_555 1_555
C28 C27 1_555 1_555
H20 C28 1_555 1_555
C29 C24 1_555 1_555
H21 C29 1_555 1_555
N6 C30 1_555 1_555
N7 C30 1_555 1_555
N8 C39 1_555 1_555
C30 H22 1_555 1_555
C31 N6 1_555 1_555
H23 C31 1_555 1_555
C32 N7 1_555 1_555
H24 C32 1_555 1_555
C33 N7 1_555 1_555
C34 C33 1_555 1_555
H25 C34 1_555 1_555
C35 C34 1_555 1_555
H26 C35 1_555 1_555
C36 C35 1_555 1_555
C37 C36 1_555 1_555
H27 C37 1_555 1_555
C38 C33 1_555 1_555
H28 C38 1_555 1_555
C39 C36 1_555 1_555
C40 C39 1_555 1_555
H29 C40 1_555 1_555
C41 C40 1_555 1_555
C42 C41 1_555 1_555
C43 C42 1_555 1_555
H30 C43 1_555 1_555
C44 C43 1_555 1_555
H31 C44 1_555 1_555
C45 C44 1_555 1_555
H32 C45 1_555 1_555
N9 C46 1_555 1_555
N10 C46 1_555 1_555
N11 C55 1_555 1_555
C46 H33 1_555 1_555
C47 N9 1_555 1_555
H34 C47 1_555 1_555
C48 N10 1_555 1_555
H35 C48 1_555 1_555
C49 N10 1_555 1_555
C50 C49 1_555 1_555
H36 C50 1_555 1_555
C51 C50 1_555 1_555
H37 C51 1_555 1_555
C52 C51 1_555 1_555
C53 C52 1_555 1_555
H38 C53 1_555 1_555
C54 C49 1_555 1_555
H39 C54 1_555 1_555
C55 C52 1_555 1_555
C56 C55 1_555 1_555
H40 C56 1_555 1_555
C57 C56 1_555 1_555
C58 C57 1_555 1_555
C59 C58 1_555 1_555
H41 C59 1_555 1_555
C60 C59 1_555 1_555
H42 C60 1_555 1_555
C61 C60 1_555 1_555
H43 C61 1_555 1_555
N6A C30A 1_555 1_555
N7A C30A 1_555 1_555
C30A H22A 1_555 1_555
C31A N6A 1_555 1_555
H23A C31A 1_555 1_555
C32A N7A 1_555 1_555
H24A C32A 1_555 1_555
C33A N7A 1_555 1_555
C34A C33A 1_555 1_555
H25A C34A 1_555 1_555
C35A C34A 1_555 1_555
H26A C35A 1_555 1_555
C36A C35A 1_555 1_555
C37A C36A 1_555 1_555
H27A C37A 1_555 1_555
C38A C33A 1_555 1_555
H28A C38A 1_555 1_555
C39A N8 1_555 1_555
C40A C41 1_555 1_555
H29A C40A 1_555 1_555
C43A C42 1_555 1_555
H30A C43A 1_555 1_555
C44A C45 1_555 1_555
H31A C44A 1_555 1_555
N9A C46A 1_555 1_555
N10A C46A 1_555 1_555
C46A H33A 1_555 1_555
C47A N9A 1_555 1_555
H34A C47A 1_555 1_555
C48A N10A 1_555 1_555
H35A C48A 1_555 1_555
C49A N10A 1_555 1_555
C50A C49A 1_555 1_555
H36A C50A 1_555 1_555
C51A C50A 1_555 1_555
H37A C51A 1_555 1_555
C52A C51A 1_555 1_555
C53A C52A 1_555 1_555
H38A C53A 1_555 1_555
C54A C49A 1_555 1_555
H39A C54A 1_555 1_555
C55A N11 1_555 1_555
C56A C57 1_555 1_555
H40A C56A 1_555 1_555
C59A C58 1_555 1_555
H41A C59A 1_555 1_555
C60A C61 1_555 1_555
H42A C60A 1_555 1_555
N5 C23 1_555 1_555
C2 C3 1_555 1_555
C8 C9 1_555 1_555
C13 C14 1_555 1_555
C19 C20 1_555 1_555
C28 C29 1_555 1_555
C31 C32 1_555 1_555
C37 C38 1_555 1_555
C47 C48 1_555 1_555
C53 C54 1_555 1_555
C31A C32A 1_555 1_555
C36A C39A 1_555 1_555
C37A C38A 1_555 1_555
C39A C40A 1_555 1_555
C43A C44A 1_555 1_555
C47A C48A 1_555 1_555
C52A C55A 1_555 1_555
C53A C54A 1_555 1_555
C55A C56A 1_555 1_555
C59A C60A 1_555 1_555

#END
