
#######################################################################
#
#                 Cambridge Crystallographic Data Centre
#                                CCDC 
#
#######################################################################
#
# If this CIF has been generated from an entry in the Cambridge 
# Structural Database, then it will include bibliographic, chemical, 
# crystal, experimental, refinement or atomic coordinate data resulting 
# from the CCDC's data processing and validation procedures.
#
#######################################################################

data_XAMZOC
_chemical_formula_moiety         'C37 H36 B1 N1'
_chemical_name_systematic        
6,6-Dimesityl-3-(2-phenylvinyl)-6H-5\l^5^,6\l^5^-pyrido[1,2-b][2,1]benzazaborole
_symmetry_cell_setting           monoclinic
_symmetry_space_group_name_H-M   'P 21/n'
_symmetry_Int_Tables_number      14
_space_group_name_Hall           '-P 2yn'
loop_
_symmetry_equiv_pos_site_id
_symmetry_equiv_pos_as_xyz
1 x,y,z
2 1/2-x,1/2+y,1/2-z
3 -x,-y,-z
4 1/2+x,1/2-y,1/2+z
_cell_length_a                   14.9202(16)
_cell_length_b                   14.1025(15)
_cell_length_c                   15.2798(16)
_cell_angle_alpha                90
_cell_angle_beta                 101.1110(10)
_cell_angle_gamma                90
_cell_volume                     3154.79
_exptl_crystal_description       needle
_cell_formula_units_Z            4
loop_
_atom_site_label
_atom_site_type_symbol
_atom_site_fract_x
_atom_site_fract_y
_atom_site_fract_z
B1 B 0.11904(12) 0.55452(14) 0.31988(13)
N1 N 0.12657(9) 0.52385(10) 0.21749(9)
C1 C 0.11290(10) 0.44682(12) 0.35635(12)
C2 C 0.10828(12) 0.40964(13) 0.43990(13)
H1 H 0.1013 0.4512 0.4871
C3 C 0.11369(13) 0.31263(14) 0.45492(15)
H2 H 0.1082 0.2885 0.5117
C4 C 0.12690(13) 0.25031(14) 0.38845(16)
H3 H 0.1314 0.1842 0.4002
C5 C 0.13341(12) 0.28402(13) 0.30585(15)
H4 H 0.1425 0.2418 0.2599
C6 C 0.12641(11) 0.38095(12) 0.29049(13)
C7 C 0.12900(11) 0.42840(12) 0.20676(13)
C8 C 0.13042(13) 0.39052(14) 0.12303(14)
H5 H 0.1329 0.3238 0.1152
C9 C 0.12820(13) 0.45052(15) 0.05162(14)
H6 H 0.1287 0.4247 -0.0057
C10 C 0.12528(12) 0.54858(14) 0.06203(12)
C11 C 0.12295(11) 0.58148(13) 0.14740(12)
H7 H 0.1186 0.6479 0.1563
C12 C 0.12200(13) 0.61405(15) -0.01247(13)
H8 H 0.1037 0.5889 -0.0708
C13 C 0.14277(12) 0.70740(14) -0.00573(13)
H9 H 0.1678 0.7292 0.0527
C14 C 0.13213(12) 0.77991(13) -0.07596(13)
C15 C 0.08858(12) 0.75976(14) -0.16422(13)
H10 H 0.0671 0.6974 -0.1797
C16 C 0.07689(14) 0.82936(15) -0.22802(15)
H11 H 0.0490 0.8151 -0.2878
C17 C 0.10670(14) 0.92240(16) -0.20404(18)
H12 H 0.0980 0.9713 -0.2476
C18 C 0.14697(16) 0.94159(16) -0.1205(2)
H13 H 0.1674 1.0042 -0.1050
C19 C 0.15962(13) 0.87069(16) -0.05522(15)
H14 H 0.1877 0.8860 0.0043
C20 C 0.03243(10) 0.62893(11) 0.30509(11)
C21 C -0.05903(11) 0.59786(12) 0.29663(11)
C22 C -0.13051(11) 0.66229(13) 0.29181(12)
H15 H -0.1909 0.6388 0.2875
C23 C -0.11674(11) 0.75932(12) 0.29300(12)
C24 C -0.02865(11) 0.78962(12) 0.29515(12)
H16 H -0.0175 0.8559 0.2935
C25 C 0.04471(11) 0.72813(11) 0.29956(11)
C26 C -0.08495(12) 0.49411(13) 0.29044(16)
H17 H -0.1516 0.4882 0.2748
H18 H -0.0627 0.4634 0.3481
H19 H -0.0574 0.4635 0.2445
C27 C -0.19506(13) 0.82771(15) 0.28955(16)
H20 H -0.2527 0.7954 0.2654
H21 H -0.1871 0.8815 0.2512
H22 H -0.1963 0.8507 0.3498
C28 C 0.13580(11) 0.77541(13) 0.29668(13)
H23 H 0.1257 0.8305 0.2569
H24 H 0.1760 0.7301 0.2745
H25 H 0.1644 0.7961 0.3568
C29 C 0.21421(10) 0.59583(11) 0.38182(11)
C30 C 0.30350(11) 0.58518(11) 0.36417(12)
C31 C 0.37860(12) 0.62049(13) 0.42326(13)
H26 H 0.4376 0.6124 0.4095
C32 C 0.37113(12) 0.66691(15) 0.50129(13)
C33 C 0.28514(12) 0.67449(13) 0.52042(12)
H27 H 0.2782 0.7049 0.5742
C34 C 0.20788(11) 0.63927(12) 0.46401(11)
C35 C 0.32393(12) 0.53379(14) 0.28348(15)
H28 H 0.3901 0.5317 0.2867
H29 H 0.2949 0.5673 0.2292
H30 H 0.3000 0.4690 0.2822
C36 C 0.45353(15) 0.7048(2) 0.56488(15)
H31 H 0.4870 0.7485 0.5330
H32 H 0.4934 0.6520 0.5890
H33 H 0.4336 0.7385 0.6139
C37 C 0.11933(12) 0.65255(14) 0.49728(13)
H34 H 0.0762 0.6025 0.4728
H35 H 0.0931 0.7145 0.4780
H36 H 0.1315 0.6492 0.5626
loop_
_geom_bond_atom_site_label_1
_geom_bond_atom_site_label_2
_geom_bond_site_symmetry_1
_geom_bond_site_symmetry_2
B1 N1 1_555 1_555
N1 C7 1_555 1_555
C1 B1 1_555 1_555
C2 C1 1_555 1_555
H1 C2 1_555 1_555
C3 C2 1_555 1_555
H2 C3 1_555 1_555
C4 C3 1_555 1_555
H3 C4 1_555 1_555
C5 C4 1_555 1_555
H4 C5 1_555 1_555
C6 C1 1_555 1_555
C7 C6 1_555 1_555
C8 C7 1_555 1_555
H5 C8 1_555 1_555
C9 C8 1_555 1_555
H6 C9 1_555 1_555
C10 C9 1_555 1_555
C11 N1 1_555 1_555
H7 C11 1_555 1_555
C12 C10 1_555 1_555
H8 C12 1_555 1_555
C13 C12 1_555 1_555
H9 C13 1_555 1_555
C14 C13 1_555 1_555
C15 C14 1_555 1_555
H10 C15 1_555 1_555
C16 C15 1_555 1_555
H11 C16 1_555 1_555
C17 C16 1_555 1_555
H12 C17 1_555 1_555
C18 C17 1_555 1_555
H13 C18 1_555 1_555
C19 C14 1_555 1_555
H14 C19 1_555 1_555
C20 B1 1_555 1_555
C21 C20 1_555 1_555
C22 C21 1_555 1_555
H15 C22 1_555 1_555
C23 C22 1_555 1_555
C24 C23 1_555 1_555
H16 C24 1_555 1_555
C25 C20 1_555 1_555
C26 C21 1_555 1_555
H17 C26 1_555 1_555
H18 C26 1_555 1_555
H19 C26 1_555 1_555
C27 C23 1_555 1_555
H20 C27 1_555 1_555
H21 C27 1_555 1_555
H22 C27 1_555 1_555
C28 C25 1_555 1_555
H23 C28 1_555 1_555
H24 C28 1_555 1_555
H25 C28 1_555 1_555
C29 B1 1_555 1_555
C30 C29 1_555 1_555
C31 C30 1_555 1_555
H26 C31 1_555 1_555
C32 C31 1_555 1_555
C33 C32 1_555 1_555
H27 C33 1_555 1_555
C34 C29 1_555 1_555
C35 C30 1_555 1_555
H28 C35 1_555 1_555
H29 C35 1_555 1_555
H30 C35 1_555 1_555
C36 C32 1_555 1_555
H31 C36 1_555 1_555
H32 C36 1_555 1_555
H33 C36 1_555 1_555
C37 C34 1_555 1_555
H34 C37 1_555 1_555
H35 C37 1_555 1_555
H36 C37 1_555 1_555
C5 C6 1_555 1_555
C10 C11 1_555 1_555
C18 C19 1_555 1_555
C24 C25 1_555 1_555
C33 C34 1_555 1_555

#END
