
#######################################################################
#
#                 Cambridge Crystallographic Data Centre
#                                CCDC 
#
#######################################################################
#
# If this CIF has been generated from an entry in the Cambridge 
# Structural Database, then it will include bibliographic, chemical, 
# crystal, experimental, refinement or atomic coordinate data resulting 
# from the CCDC's data processing and validation procedures.
#
#######################################################################

data_XANBEV
_chemical_formula_moiety         'C99 H96 B3 N3,C1 H2 Cl2,C6 H14'
_chemical_name_systematic        
"3,3',3''-(Benzene-1,3,5-triyltriethene-2,1-diyl)tris(6,6-dimesityl-6H-5\l^5^,6\l^5^-pyrido[1,2-b][2,1]benzazaborole) hexane dichloromethane solvate"
_symmetry_cell_setting           triclinic
_symmetry_space_group_name_H-M   'P -1'
_symmetry_Int_Tables_number      2
_space_group_name_Hall           '-P 1'
loop_
_symmetry_equiv_pos_site_id
_symmetry_equiv_pos_as_xyz
1 x,y,z
2 -x,-y,-z
_cell_length_a                   16.582(4)
_cell_length_b                   17.149(4)
_cell_length_c                   19.939(6)
_cell_angle_alpha                79.126(4)
_cell_angle_beta                 65.471(3)
_cell_angle_gamma                64.616(3)
_cell_volume                     4659.85
_exptl_crystal_description       block
_cell_formula_units_Z            2
loop_
_atom_site_label
_atom_site_type_symbol
_atom_site_fract_x
_atom_site_fract_y
_atom_site_fract_z
N1 N 0.89770(18) 0.81352(17) -0.13984(14)
N2 N 0.10216(18) 0.70914(17) 0.16156(14)
N3 N 0.41664(18) 0.72089(17) 0.59436(15)
C1 C 0.5941(2) 0.7647(2) 0.15691(19)
C2 C 0.5358(2) 0.7522(2) 0.13030(18)
H1 H 0.5527 0.7524 0.0786
C3 C 0.4524(2) 0.7392(2) 0.17790(18)
C4 C 0.4295(2) 0.7382(2) 0.25360(18)
H2 H 0.3736 0.7286 0.2865
C5 C 0.4857(2) 0.7510(2) 0.28172(19)
C6 C 0.5678(2) 0.7643(2) 0.23246(19)
H3 H 0.6071 0.7733 0.2514
C7 C 0.6807(2) 0.7812(2) 0.10859(18)
H4 H 0.7108 0.7989 0.1309
C8 C 0.7201(2) 0.7728(2) 0.03502(19)
H5 H 0.6919 0.7518 0.0135
C9 C 0.8264(2) 0.7911(2) -0.08948(18)
H6 H 0.7912 0.7729 -0.1061
C10 C 0.8025(2) 0.7934(2) -0.01453(18)
C11 C 0.8558(2) 0.8200(2) 0.00818(19)
H7 H 0.8433 0.8204 0.0592
C12 C 0.9256(2) 0.8454(2) -0.04270(18)
H8 H 0.9613 0.8638 -0.0269
C13 C 0.9451(2) 0.8448(2) -0.11729(18)
C14 C 1.0095(2) 0.8742(2) -0.17936(19)
C15 C 1.0691(2) 0.9097(2) -0.17593(19)
H9 H 1.0718 0.9147 -0.1303
C16 C 1.1243(2) 0.9374(2) -0.2417(2)
H10 H 1.1648 0.9631 -0.2414
C17 C 1.1210(3) 0.9280(2) -0.3078(2)
H11 H 1.1607 0.9457 -0.3525
C18 C 1.0608(2) 0.8933(2) -0.30953(19)
H12 H 1.0600 0.8873 -0.3556
C19 C 1.0010(2) 0.8666(2) -0.24521(18)
C20 C 0.3950(2) 0.7236(2) 0.14569(19)
H13 H 0.4260 0.7065 0.0956
C21 C 0.3044(2) 0.7311(2) 0.18009(19)
H14 H 0.2711 0.7523 0.2290
C22 C 0.1543(2) 0.7300(2) 0.18627(18)
H15 H 0.1229 0.7600 0.2314
C23 C 0.2523(3) 0.7093(2) 0.14814(19)
C24 C 0.2941(3) 0.6664(2) 0.08129(19)
H16 H 0.3602 0.6539 0.0521
C25 C 0.2431(2) 0.6423(2) 0.05704(19)
H17 H 0.2734 0.6114 0.0125
C26 C 0.1453(3) 0.6638(2) 0.09886(18)
C27 C 0.0760(2) 0.6429(2) 0.08666(19)
C28 C 0.0945(3) 0.6006(2) 0.02575(19)
H18 H 0.1558 0.5841 -0.0135
C29 C 0.0224(3) 0.5834(2) 0.0236(2)
H19 H 0.0332 0.5548 -0.0176
C30 C -0.0670(3) 0.6080(2) 0.0818(2)
H20 H -0.1166 0.5954 0.0801
C31 C -0.0848(2) 0.6505(2) 0.1425(2)
H21 H -0.1463 0.6669 0.1815
C32 C -0.0126(2) 0.6695(2) 0.14653(18)
C33 C 0.4662(3) 0.7469(2) 0.3607(2)
H22 H 0.5127 0.7508 0.3746
C34 C 0.3903(2) 0.7385(2) 0.41419(19)
H23 H 0.3428 0.7373 0.4000
C35 C 0.4346(2) 0.7301(2) 0.52205(18)
H24 H 0.4926 0.7364 0.4894
C36 C 0.3709(3) 0.7307(2) 0.49339(19)
C37 C 0.2868(2) 0.7219(2) 0.54349(19)
H25 H 0.2428 0.7197 0.5257
C38 C 0.2658(2) 0.7165(2) 0.61792(19)
H26 H 0.2068 0.7128 0.6516
C39 C 0.3320(2) 0.7163(2) 0.64317(18)
C40 C 0.3269(3) 0.7149(2) 0.71756(19)
C41 C 0.2508(2) 0.7096(2) 0.7810(2)
H27 H 0.1982 0.7037 0.7777
C42 C 0.2525(3) 0.7132(2) 0.8501(2)
H28 H 0.2012 0.7102 0.8944
C43 C 0.3312(3) 0.7214(2) 0.8517(2)
H29 H 0.3326 0.7252 0.8981
C44 C 0.4086(3) 0.7242(2) 0.78789(19)
H30 H 0.4624 0.7276 0.7914
C45 C 0.4070(2) 0.7221(2) 0.71852(18)
C46 C 1.0016(2) 0.7269(2) -0.27272(18)
C47 C 1.0244(3) 0.7271(3) -0.35022(19)
C48 C 1.0523(2) 0.6491(2) -0.24338(19)
C49 C 1.0915(3) 0.6548(3) -0.3927(2)
H31 H 1.1038 0.6572 -0.4438
C50 C 1.1403(3) 0.5804(3) -0.3631(2)
C51 C 1.1203(3) 0.5783(2) -0.2881(2)
H32 H 1.1539 0.5270 -0.2666
C52 C 1.0377(2) 0.6342(2) -0.16227(18)
H33 H 1.0484 0.6781 -0.1458
H34 H 1.0836 0.5767 -0.1555
H35 H 0.9718 0.6381 -0.1332
C53 C 1.2154(3) 0.5003(3) -0.4088(2)
H36 H 1.2131 0.5079 -0.4580
H37 H 1.2017 0.4496 -0.3845
H38 H 1.2797 0.4920 -0.4133
C54 C 0.9759(3) 0.8038(2) -0.39200(19)
H39 H 1.0226 0.8067 -0.4417
H40 H 0.9520 0.8571 -0.3658
H41 H 0.9219 0.7973 -0.3955
C55 C 0.8250(2) 0.8696(2) -0.23835(18)
C56 C 0.7747(3) 0.9598(3) -0.23208(19)
C57 C 0.6851(3) 1.0017(3) -0.2382(2)
H42 H 0.6533 1.0627 -0.2338
C58 C 0.6421(3) 0.9557(3) -0.2505(2)
C59 C 0.6871(3) 0.8679(3) -0.2538(2)
H43 H 0.6567 0.8358 -0.2609
C60 C 0.7756(3) 0.8242(3) -0.24700(18)
C61 C 0.8127(3) 1.0177(2) -0.2149(2)
H44 H 0.7649 1.0773 -0.2090
H45 H 0.8729 1.0153 -0.2556
H46 H 0.8247 0.9976 -0.1693
C62 C 0.5418(3) 1.0042(3) -0.2568(3)
H47 H 0.5236 0.9632 -0.2693
H48 H 0.5450 1.0489 -0.2953
H49 H 0.4937 1.0311 -0.2095
C63 C 0.8138(2) 0.7262(2) -0.24797(19)
H50 H 0.7597 0.7081 -0.2306
H51 H 0.8501 0.7013 -0.2156
H52 H 0.8562 0.7059 -0.2984
C64 C -0.0273(2) 0.7013(2) 0.28826(18)
C65 C -0.0560(2) 0.7619(2) 0.34056(18)
C66 C -0.0735(2) 0.7401(3) 0.4146(2)
H53 H -0.0927 0.7833 0.4481
C67 C -0.0640(3) 0.6589(3) 0.4406(2)
C68 C -0.0305(3) 0.5966(3) 0.3893(2)
H54 H -0.0208 0.5387 0.4057
C69 C -0.0109(2) 0.6158(2) 0.3154(2)
C70 C -0.0718(2) 0.8563(2) 0.32203(18)
H55 H -0.0310 0.8616 0.2706
H56 H -0.0549 0.8779 0.3544
H57 H -0.1396 0.8902 0.3292
C71 C -0.0847(3) 0.6347(3) 0.5221(2)
H58 H -0.1328 0.6855 0.5522
H59 H -0.0251 0.6142 0.5312
H60 H -0.1093 0.5889 0.5350
C72 C 0.0319(3) 0.5407(2) 0.2644(2)
H61 H 0.0483 0.4862 0.2919
H62 H 0.0902 0.5424 0.2235
H63 H -0.0153 0.5451 0.2448
C73 C -0.0853(3) 0.8241(2) 0.18468(18)
C74 C -0.0589(3) 0.8830(2) 0.12822(19)
C75 C -0.1294(3) 0.9538(2) 0.1105(2)
H64 H -0.1091 0.9914 0.0720
C76 C -0.2255(3) 0.9726(3) 0.1446(3)
C77 C -0.2522(3) 0.9165(3) 0.2004(2)
H65 H -0.3189 0.9277 0.2255
C78 C -0.1856(3) 0.8439(2) 0.2214(2)
C79 C 0.0446(3) 0.8732(2) 0.0842(2)
H66 H 0.0782 0.8608 0.1179
H67 H 0.0455 0.9268 0.0568
H68 H 0.0771 0.8256 0.0496
C80 C -0.2985(3) 1.0495(3) 0.1210(3)
H69 H -0.2735 1.0949 0.1011
H70 H -0.3590 1.0715 0.1637
H71 H -0.3101 1.0318 0.0831
C81 C -0.2282(2) 0.7932(2) 0.28615(19)
H72 H -0.1862 0.7317 0.2796
H73 H -0.2921 0.8018 0.2894
H74 H -0.2340 0.8130 0.3316
C82 C 0.5724(2) 0.6183(2) 0.63341(18)
C83 C 0.5812(2) 0.5417(2) 0.61078(18)
C84 C 0.6578(3) 0.4637(2) 0.61326(18)
H75 H 0.6624 0.4125 0.5975
C85 C 0.7266(3) 0.4585(3) 0.6377(2)
C86 C 0.7153(3) 0.5336(3) 0.6613(2)
H76 H 0.7605 0.5320 0.6796
C87 C 0.6414(3) 0.6119(3) 0.65997(19)
C88 C 0.8091(3) 0.3751(3) 0.6367(2)
H77 H 0.8399 0.3797 0.6677
H78 H 0.8561 0.3622 0.5860
H79 H 0.7855 0.3288 0.6558
C89 C 0.6430(3) 0.6887(3) 0.6869(2)
H80 H 0.6610 0.6711 0.7301
H81 H 0.5789 0.7356 0.7003
H82 H 0.6901 0.7086 0.6475
C90 C 0.5123(3) 0.5330(2) 0.5830(2)
H83 H 0.5311 0.4719 0.5750
H84 H 0.5152 0.5652 0.5365
H85 H 0.4465 0.5562 0.6198
C91 C 0.5241(3) 0.7933(2) 0.59540(18)
C92 C 0.4692(3) 0.8788(3) 0.62043(19)
C93 C 0.6130(3) 0.7790(2) 0.53668(19)
C94 C 0.5060(3) 0.9427(3) 0.5935(2)
H86 H 0.4669 0.9995 0.6122
C95 C 0.6480(3) 0.8448(3) 0.5110(2)
H87 H 0.7090 0.8326 0.4718
C96 C 0.5978(3) 0.9263(3) 0.5401(2)
C97 C 0.3650(3) 0.9072(2) 0.6735(2)
H88 H 0.3329 0.9702 0.6709
H89 H 0.3626 0.8897 0.7238
H90 H 0.3323 0.8802 0.6602
C98 C 0.6379(3) 0.9960(3) 0.5164(2)
H91 H 0.6948 0.9791 0.4705
H92 H 0.6560 1.0034 0.5550
H93 H 0.5888 1.0505 0.5084
C99 C 0.6776(2) 0.6947(2) 0.49605(19)
H94 H 0.6385 0.6634 0.4995
H95 H 0.7251 0.6596 0.5182
H96 H 0.7109 0.7065 0.4441
B1 B 0.9296(3) 0.8186(3) -0.2298(2)
B2 B -0.0121(3) 0.7278(3) 0.2024(2)
B3 B 0.4865(3) 0.7159(3) 0.6337(2)
loop_
_geom_bond_atom_site_label_1
_geom_bond_atom_site_label_2
_geom_bond_site_symmetry_1
_geom_bond_site_symmetry_2
N1 C9 1_555 1_555
N2 C22 1_555 1_555
N3 C35 1_555 1_555
C1 C2 1_555 1_555
C2 H1 1_555 1_555
C3 C2 1_555 1_555
C4 C3 1_555 1_555
H2 C4 1_555 1_555
C5 C4 1_555 1_555
C6 C1 1_555 1_555
H3 C6 1_555 1_555
C7 C1 1_555 1_555
H4 C7 1_555 1_555
C8 C7 1_555 1_555
H5 C8 1_555 1_555
C9 H6 1_555 1_555
C10 C8 1_555 1_555
C11 C10 1_555 1_555
H7 C11 1_555 1_555
C12 C11 1_555 1_555
H8 C12 1_555 1_555
C13 N1 1_555 1_555
C14 C13 1_555 1_555
C15 C14 1_555 1_555
H9 C15 1_555 1_555
C16 C15 1_555 1_555
H10 C16 1_555 1_555
C17 C16 1_555 1_555
H11 C17 1_555 1_555
C18 C17 1_555 1_555
H12 C18 1_555 1_555
C19 C14 1_555 1_555
C20 C3 1_555 1_555
H13 C20 1_555 1_555
C21 C20 1_555 1_555
H14 C21 1_555 1_555
C22 H15 1_555 1_555
C23 C21 1_555 1_555
C24 C23 1_555 1_555
H16 C24 1_555 1_555
C25 C24 1_555 1_555
H17 C25 1_555 1_555
C26 N2 1_555 1_555
C27 C26 1_555 1_555
C28 C27 1_555 1_555
H18 C28 1_555 1_555
C29 C28 1_555 1_555
H19 C29 1_555 1_555
C30 C29 1_555 1_555
H20 C30 1_555 1_555
C31 C30 1_555 1_555
H21 C31 1_555 1_555
C32 C27 1_555 1_555
C33 C5 1_555 1_555
H22 C33 1_555 1_555
C34 C33 1_555 1_555
H23 C34 1_555 1_555
C35 H24 1_555 1_555
C36 C34 1_555 1_555
C37 C36 1_555 1_555
H25 C37 1_555 1_555
C38 C37 1_555 1_555
H26 C38 1_555 1_555
C39 N3 1_555 1_555
C40 C39 1_555 1_555
C41 C40 1_555 1_555
H27 C41 1_555 1_555
C42 C41 1_555 1_555
H28 C42 1_555 1_555
C43 C42 1_555 1_555
H29 C43 1_555 1_555
C44 C43 1_555 1_555
H30 C44 1_555 1_555
C45 C40 1_555 1_555
C46 C47 1_555 1_555
C47 C49 1_555 1_555
C48 C46 1_555 1_555
C49 H31 1_555 1_555
C50 C49 1_555 1_555
C51 C48 1_555 1_555
H32 C51 1_555 1_555
C52 C48 1_555 1_555
H33 C52 1_555 1_555
H34 C52 1_555 1_555
H35 C52 1_555 1_555
C53 C50 1_555 1_555
H36 C53 1_555 1_555
H37 C53 1_555 1_555
H38 C53 1_555 1_555
C54 C47 1_555 1_555
H39 C54 1_555 1_555
H40 C54 1_555 1_555
H41 C54 1_555 1_555
C55 C56 1_555 1_555
C56 C57 1_555 1_555
C57 H42 1_555 1_555
C58 C57 1_555 1_555
C59 C58 1_555 1_555
H43 C59 1_555 1_555
C60 C55 1_555 1_555
C61 C56 1_555 1_555
H44 C61 1_555 1_555
H45 C61 1_555 1_555
H46 C61 1_555 1_555
C62 C58 1_555 1_555
H47 C62 1_555 1_555
H48 C62 1_555 1_555
H49 C62 1_555 1_555
C63 C60 1_555 1_555
H50 C63 1_555 1_555
H51 C63 1_555 1_555
H52 C63 1_555 1_555
C64 C65 1_555 1_555
C65 C66 1_555 1_555
C66 H53 1_555 1_555
C67 C66 1_555 1_555
C68 C67 1_555 1_555
H54 C68 1_555 1_555
C69 C64 1_555 1_555
C70 C65 1_555 1_555
H55 C70 1_555 1_555
H56 C70 1_555 1_555
H57 C70 1_555 1_555
C71 C67 1_555 1_555
H58 C71 1_555 1_555
H59 C71 1_555 1_555
H60 C71 1_555 1_555
C72 C69 1_555 1_555
H61 C72 1_555 1_555
H62 C72 1_555 1_555
H63 C72 1_555 1_555
C73 C74 1_555 1_555
C74 C75 1_555 1_555
C75 H64 1_555 1_555
C76 C75 1_555 1_555
C77 C76 1_555 1_555
H65 C77 1_555 1_555
C78 C73 1_555 1_555
C79 C74 1_555 1_555
H66 C79 1_555 1_555
H67 C79 1_555 1_555
H68 C79 1_555 1_555
C80 C76 1_555 1_555
H69 C80 1_555 1_555
H70 C80 1_555 1_555
H71 C80 1_555 1_555
C81 C78 1_555 1_555
H72 C81 1_555 1_555
H73 C81 1_555 1_555
H74 C81 1_555 1_555
C82 C83 1_555 1_555
C83 C84 1_555 1_555
C84 H75 1_555 1_555
C85 C84 1_555 1_555
C86 C85 1_555 1_555
H76 C86 1_555 1_555
C87 C82 1_555 1_555
C88 C85 1_555 1_555
H77 C88 1_555 1_555
H78 C88 1_555 1_555
H79 C88 1_555 1_555
C89 C87 1_555 1_555
H80 C89 1_555 1_555
H81 C89 1_555 1_555
H82 C89 1_555 1_555
C90 C83 1_555 1_555
H83 C90 1_555 1_555
H84 C90 1_555 1_555
H85 C90 1_555 1_555
C91 C92 1_555 1_555
C92 C94 1_555 1_555
C93 C91 1_555 1_555
C94 H86 1_555 1_555
C95 C93 1_555 1_555
H87 C95 1_555 1_555
C96 C94 1_555 1_555
C97 C92 1_555 1_555
H88 C97 1_555 1_555
H89 C97 1_555 1_555
H90 C97 1_555 1_555
C98 C96 1_555 1_555
H91 C98 1_555 1_555
H92 C98 1_555 1_555
H93 C98 1_555 1_555
C99 C93 1_555 1_555
H94 C99 1_555 1_555
H95 C99 1_555 1_555
H96 C99 1_555 1_555
B1 N1 1_555 1_555
B2 N2 1_555 1_555
B3 N3 1_555 1_555
C5 C6 1_555 1_555
C9 C10 1_555 1_555
C12 C13 1_555 1_555
C18 C19 1_555 1_555
C19 B1 1_555 1_555
C22 C23 1_555 1_555
C25 C26 1_555 1_555
C31 C32 1_555 1_555
C32 B2 1_555 1_555
C35 C36 1_555 1_555
C38 C39 1_555 1_555
C44 C45 1_555 1_555
C45 B3 1_555 1_555
C46 B1 1_555 1_555
C50 C51 1_555 1_555
C55 B1 1_555 1_555
C59 C60 1_555 1_555
C64 B2 1_555 1_555
C68 C69 1_555 1_555
C73 B2 1_555 1_555
C77 C78 1_555 1_555
C82 B3 1_555 1_555
C86 C87 1_555 1_555
C91 B3 1_555 1_555
C95 C96 1_555 1_555

#END
