
#######################################################################
#
#                 Cambridge Crystallographic Data Centre
#                                CCDC 
#
#######################################################################
#
# If this CIF has been generated from an entry in the Cambridge 
# Structural Database, then it will include bibliographic, chemical, 
# crystal, experimental, refinement or atomic coordinate data resulting 
# from the CCDC's data processing and validation procedures.
#
#######################################################################

data_XANCIA
_chemical_formula_moiety         'C22 H16 Cl1 N3 O1'
_chemical_name_systematic        
N-(1-(1H-Benzimidazol-2-yl)-2-(4-chlorophenyl)vinyl)benzamide
_symmetry_cell_setting           tetragonal
_symmetry_space_group_name_H-M   'I 41/a'
_symmetry_Int_Tables_number      88
_space_group_name_Hall           '-I 4ad'
loop_
_symmetry_equiv_pos_site_id
_symmetry_equiv_pos_as_xyz
1 x,y,z
2 1/2-x,-y,1/2+z
3 3/4-y,1/4+x,1/4+z
4 3/4+y,3/4-x,3/4+z
5 1/2+x,1/2+y,1/2+z
6 -x,1/2-y,z
7 1/4-y,3/4+x,3/4+z
8 1/4+y,1/4-x,1/4+z
9 -x,-y,-z
10 1/2+x,y,1/2-z
11 1/4+y,3/4-x,3/4-z
12 1/4-y,1/4+x,1/4-z
13 1/2-x,1/2-y,1/2-z
14 x,1/2+y,-z
15 3/4+y,1/4-x,1/4-z
16 3/4-y,3/4+x,3/4-z
_cell_length_a                   22.9061(19)
_cell_length_b                   22.9061(19)
_cell_length_c                   14.7776(13)
_cell_angle_alpha                90
_cell_angle_beta                 90
_cell_angle_gamma                90
_cell_volume                     7753.65
_exptl_crystal_colour            'pale yellow'
_exptl_crystal_description       block
_cell_formula_units_Z            16
loop_
_atom_site_label
_atom_site_type_symbol
_atom_site_fract_x
_atom_site_fract_y
_atom_site_fract_z
Cl1 Cl 0.01517(4) 1.16380(4) 0.00847(8)
N1 N 0.35111(11) 1.00900(10) 0.14939(17)
N2 N 0.32518(10) 0.93809(10) 0.24669(17)
H1 H 0.3032 0.9147 0.2769
N3 N 0.20432(9) 0.95265(11) 0.19482(17)
H2 H 0.1781 0.9582 0.2356
O1 O 0.23821(9) 0.89163(8) 0.08675(15)
C1 C 0.30735(13) 0.98178(13) 0.1898(2)
C2 C 0.38561(14) 0.93914(14) 0.2460(2)
C3 C 0.40110(15) 0.98260(14) 0.1851(2)
C4 C 0.45969(15) 0.99455(14) 0.1685(3)
H3 H 0.4710 1.0228 0.1269
C5 C 0.50054(15) 0.96244(17) 0.2166(3)
H4 H 0.5401 0.9696 0.2076
C6 C 0.48373(16) 0.92004(17) 0.2778(3)
H5 H 0.5125 0.8995 0.3088
C7 C 0.42620(15) 0.90695(13) 0.2945(3)
H6 H 0.4152 0.8783 0.3358
C8 C 0.24584(13) 0.99724(14) 0.1787(2)
C9 C 0.23028(13) 1.05227(13) 0.1589(2)
H7 H 0.2602 1.0794 0.1651
C10 C 0.17519(15) 1.07693(15) 0.1298(2)
C11 C 0.12510(16) 1.04522(15) 0.1097(3)
H8 H 0.1244 1.0053 0.1209
C12 C 0.07606(15) 1.07198(17) 0.0731(3)
H9 H 0.0431 1.0500 0.0596
C13 C 0.07647(16) 1.13080(19) 0.0570(3)
C14 C 0.12490(19) 1.16366(15) 0.0768(3)
H10 H 0.1251 1.2036 0.0655
C15 C 0.17326(15) 1.13684(15) 0.1136(3)
H11 H 0.2057 1.1595 0.1281
C16 C 0.20416(13) 0.90134(14) 0.1484(2)
C17 C 0.15877(13) 0.85807(13) 0.1781(3)
C18 C 0.13658(14) 0.85590(15) 0.2636(3)
H12 H 0.1477 0.8840 0.3058
C19 C 0.09773(15) 0.81250(18) 0.2886(3)
H13 H 0.0833 0.8112 0.3474
C20 C 0.08075(16) 0.77167(17) 0.2268(4)
H14 H 0.0555 0.7419 0.2443
C21 C 0.10040(17) 0.77388(17) 0.1393(4)
H15 H 0.0874 0.7469 0.0967
C22 C 0.14061(14) 0.81764(15) 0.1147(3)
H16 H 0.1549 0.8193 0.0559
loop_
_geom_bond_atom_site_label_1
_geom_bond_atom_site_label_2
_geom_bond_site_symmetry_1
_geom_bond_site_symmetry_2
Cl1 C13 1_555 1_555
N1 C1 1_555 1_555
N2 H1 1_555 1_555
N3 H2 1_555 1_555
O1 C16 1_555 1_555
C1 N2 1_555 1_555
C2 N2 1_555 1_555
C3 N1 1_555 1_555
C4 C3 1_555 1_555
H3 C4 1_555 1_555
C5 C4 1_555 1_555
H4 C5 1_555 1_555
C6 C5 1_555 1_555
H5 C6 1_555 1_555
C7 C2 1_555 1_555
H6 C7 1_555 1_555
C8 N3 1_555 1_555
C9 C8 1_555 1_555
H7 C9 1_555 1_555
C10 C9 1_555 1_555
C11 C10 1_555 1_555
H8 C11 1_555 1_555
C12 C11 1_555 1_555
H9 C12 1_555 1_555
C13 C12 1_555 1_555
C14 C13 1_555 1_555
H10 C14 1_555 1_555
C15 C10 1_555 1_555
H11 C15 1_555 1_555
C16 N3 1_555 1_555
C17 C16 1_555 1_555
C18 C17 1_555 1_555
H12 C18 1_555 1_555
C19 C18 1_555 1_555
H13 C19 1_555 1_555
C20 C19 1_555 1_555
H14 C20 1_555 1_555
C21 C20 1_555 1_555
H15 C21 1_555 1_555
C22 C17 1_555 1_555
H16 C22 1_555 1_555
C1 C8 1_555 1_555
C2 C3 1_555 1_555
C6 C7 1_555 1_555
C14 C15 1_555 1_555
C21 C22 1_555 1_555

#END
