
#######################################################################
#
#                 Cambridge Crystallographic Data Centre
#                                CCDC 
#
#######################################################################
#
# If this CIF has been generated from an entry in the Cambridge 
# Structural Database, then it will include bibliographic, chemical, 
# crystal, experimental, refinement or atomic coordinate data resulting 
# from the CCDC's data processing and validation procedures.
#
#######################################################################

data_XANFAT
_chemical_formula_moiety         'C32 H48 O1 S2 Si4 2+,2(C1 F3 O3 S1 1-)'
_chemical_name_systematic        
'bis(4-(2,5-bis(Trimethylsilyl)thiophenium-1-yl)diphenyl) ether bis(trifluoromethanesulfonate)'
_symmetry_cell_setting           triclinic
_symmetry_space_group_name_H-M   'P -1'
_symmetry_Int_Tables_number      2
_space_group_name_Hall           '-P 1'
loop_
_symmetry_equiv_pos_site_id
_symmetry_equiv_pos_as_xyz
1 x,y,z
2 -x,-y,-z
_cell_length_a                   15.703(2)
_cell_length_b                   16.650(2)
_cell_length_c                   10.085(2)
_cell_angle_alpha                90.40(1)
_cell_angle_beta                 104.29(1)
_cell_angle_gamma                112.50(1)
_cell_volume                     2345.48
_exptl_crystal_colour            colorless
_exptl_crystal_description       prismatic
_cell_formula_units_Z            2
_exptl_crystal_recrystallization_method chloroform
loop_
_atom_site_label
_atom_site_type_symbol
_atom_site_fract_x
_atom_site_fract_y
_atom_site_fract_z
S1 S 1.0703(1) 0.76872(9) 0.8963(2)
S2 S 0.4380(1) 0.22611(10) 0.7369(2)
Si1 Si 1.1062(1) 0.9425(1) 0.7394(2)
Si2 Si 1.0309(1) 0.6600(1) 1.1552(2)
Si3 Si 0.3402(1) 0.3449(1) 0.8335(2)
Si4 Si 0.5662(1) 0.1105(1) 0.7858(2)
O1 O 0.6949(3) 0.5318(3) 0.5410(4)
C1 C 1.0494(4) 0.7612(4) 1.0627(6)
C2 C 1.0592(5) 0.8405(4) 1.1065(6)
C3 C 1.0760(5) 0.9055(4) 1.0096(8)
C4 C 1.0788(4) 0.8782(4) 0.8868(7)
C5 C 1.0286(10) 0.8780(7) 0.5788(10)
C6 C 1.0800(10) 1.0406(7) 0.768(1)
C7 C 1.2333(7) 0.981(1) 0.760(1)
C8 C 0.9275(6) 0.5680(5) 1.0443(9)
C9 C 1.1420(6) 0.6408(5) 1.1871(9)
C10 C 1.0094(9) 0.6854(7) 1.3193(10)
C11 C 0.9563(4) 0.7015(3) 0.7823(6)
C12 C 0.9536(4) 0.6327(4) 0.7007(6)
C13 C 0.8643(5) 0.5755(4) 0.6202(6)
C14 C 0.7836(5) 0.5889(4) 0.6250(6)
C15 C 0.7880(4) 0.6589(4) 0.7036(6)
C16 C 0.8761(4) 0.7167(4) 0.7842(6)
C17 C 0.6404(4) 0.4610(4) 0.5945(6)
C18 C 0.6658(4) 0.4453(4) 0.7301(5)
C19 C 0.6053(4) 0.3732(4) 0.7763(5)
C20 C 0.5213(4) 0.3180(3) 0.6833(6)
C21 C 0.4961(4) 0.3321(4) 0.5477(6)
C22 C 0.5559(4) 0.4052(4) 0.5027(6)
C23 C 0.4076(4) 0.2714(4) 0.8699(6)
C24 C 0.4388(5) 0.2394(4) 0.9843(6)
C25 C 0.4925(5) 0.1866(4) 0.9715(7)
C26 C 0.5043(4) 0.1754(4) 0.8476(6)
C27 C 0.2405(6) 0.2945(6) 0.6763(10)
C28 C 0.4221(6) 0.4534(5) 0.8033(9)
C29 C 0.2997(8) 0.3533(7) 0.989(1)
C30 C 0.4825(6) -0.0061(5) 0.753(1)
C31 C 0.6741(6) 0.1297(6) 0.9261(9)
C32 C 0.5970(6) 0.1503(6) 0.6254(9)
H1 H 1.0548 0.8560 1.2083
H2 H 1.0859 0.9720 1.0357
H3 H 0.9626 0.8596 0.5814
H4 H 1.0392 0.9135 0.5040
H5 H 1.0429 0.8275 0.5663
H6 H 1.1154 1.0693 0.8592
H7 H 1.0993 1.0799 0.7001
H8 H 1.0120 1.0220 0.7564
H9 H 1.2491 0.9309 0.7455
H10 H 1.2503 1.0203 0.6915
H11 H 1.2674 1.0105 0.8509
H12 H 0.8709 0.5812 1.0280
H13 H 0.9402 0.5594 0.9573
H14 H 0.9168 0.5152 1.0897
H15 H 1.1350 0.5894 1.2352
H16 H 1.1547 0.6319 1.1000
H17 H 1.1950 0.6913 1.2431
H18 H 1.0646 0.7350 1.3728
H19 H 0.9533 0.6993 1.3005
H20 H 0.9990 0.6350 1.3707
H21 H 1.0182 0.6240 0.6997
H22 H 0.8582 0.5209 0.5545
H23 H 0.7238 0.6686 0.7025
H24 H 0.8819 0.7724 0.8471
H25 H 0.7325 0.4891 0.7996
H26 H 0.6232 0.3604 0.8822
H27 H 0.4304 0.2869 0.4776
H28 H 0.5370 0.4186 0.3972
H29 H 0.4251 0.2521 1.0806
H30 H 0.5210 0.1575 1.0577
H31 H 0.2041 0.3308 0.6551
H32 H 0.2657 0.2891 0.5996
H33 H 0.1986 0.2368 0.6910
H34 H 0.4744 0.4796 0.8857
H35 H 0.4474 0.4463 0.7274
H36 H 0.3873 0.4908 0.7808
H37 H 0.3541 0.3771 1.0683
H38 H 0.2642 0.3905 0.9757
H39 H 0.2576 0.2950 1.0029
H40 H 0.4666 -0.0256 0.8379
H41 H 0.4249 -0.0130 0.6834
H42 H 0.5129 -0.0409 0.7224
H43 H 0.6557 0.1099 1.0090
H44 H 0.7087 0.0974 0.9007
H45 H 0.7145 0.1916 0.9426
H46 H 0.6271 0.1162 0.5923
H47 H 0.5391 0.1443 0.5559
H48 H 0.6407 0.2114 0.6442
S3 S 0.7312(2) 0.8748(1) 0.7880(2)
F1 F 0.7906(6) 1.0105(4) 0.6624(7)
F2 F 0.6502(5) 0.9209(4) 0.5620(7)
F3 F 0.7654(6) 0.8885(6) 0.5548(7)
O2 O 0.6946(5) 0.9265(5) 0.8593(7)
O3 O 0.6686(4) 0.7861(4) 0.7377(6)
O4 O 0.8294(4) 0.8894(4) 0.8470(6)
C33 C 0.7412(9) 0.9227(8) 0.644(1)
S4 S 0.7656(2) 0.3849(2) 1.2213(2)
F4 F 0.617(1) 0.304(1) 1.297(2)
F5 F 0.693(1) 0.223(1) 1.266(2)
F6 F 0.755(1) 0.317(1) 1.447(2)
O5 O 0.811(1) 0.3462(9) 1.140(2)
O6 O 0.675(1) 0.389(1) 1.136(2)
O7 O 0.847(1) 0.456(1) 1.324(2)
C34 C 0.721(1) 0.298(1) 1.329(1)
F7? F 0.800(2) 0.273(1) 1.381(2)
F8? F 0.649(1) 0.242(1) 1.284(2)
F9? F 0.712(1) 0.3372(9) 1.443(1)
O8? O 0.854(2) 0.395(1) 1.264(2)
O9? O 0.766(1) 0.4641(9) 1.274(1)
O10? O 0.727(1) 0.350(1) 1.095(2)
loop_
_geom_bond_atom_site_label_1
_geom_bond_atom_site_label_2
_geom_bond_site_symmetry_1
_geom_bond_site_symmetry_2
S1 C1 1_555 1_555
S2 C20 1_555 1_555
Si1 C4 1_555 1_555
Si2 C1 1_555 1_555
Si3 C23 1_555 1_555
Si4 C26 1_555 1_555
O1 C14 1_555 1_555
C1 C2 1_555 1_555
C2 C3 1_555 1_555
C3 C4 1_555 1_555
C4 S1 1_555 1_555
C5 Si1 1_555 1_555
C6 Si1 1_555 1_555
C7 Si1 1_555 1_555
C8 Si2 1_555 1_555
C9 Si2 1_555 1_555
C10 Si2 1_555 1_555
C11 S1 1_555 1_555
C12 C11 1_555 1_555
C13 C12 1_555 1_555
C14 C13 1_555 1_555
C15 C14 1_555 1_555
C16 C11 1_555 1_555
C17 O1 1_555 1_555
C18 C17 1_555 1_555
C19 C18 1_555 1_555
C20 C19 1_555 1_555
C21 C20 1_555 1_555
C22 C17 1_555 1_555
C23 S2 1_555 1_555
C24 C23 1_555 1_555
C25 C24 1_555 1_555
C26 S2 1_555 1_555
C27 Si3 1_555 1_555
C28 Si3 1_555 1_555
C29 Si3 1_555 1_555
C30 Si4 1_555 1_555
C31 Si4 1_555 1_555
C32 Si4 1_555 1_555
H1 C2 1_555 1_555
H2 C3 1_555 1_555
H3 C5 1_555 1_555
H4 C5 1_555 1_555
H5 C5 1_555 1_555
H6 C6 1_555 1_555
H7 C6 1_555 1_555
H8 C6 1_555 1_555
H9 C7 1_555 1_555
H10 C7 1_555 1_555
H11 C7 1_555 1_555
H12 C8 1_555 1_555
H13 C8 1_555 1_555
H14 C8 1_555 1_555
H15 C9 1_555 1_555
H16 C9 1_555 1_555
H17 C9 1_555 1_555
H18 C10 1_555 1_555
H19 C10 1_555 1_555
H20 C10 1_555 1_555
H21 C12 1_555 1_555
H22 C13 1_555 1_555
H23 C15 1_555 1_555
H24 C16 1_555 1_555
H25 C18 1_555 1_555
H26 C19 1_555 1_555
H27 C21 1_555 1_555
H28 C22 1_555 1_555
H29 C24 1_555 1_555
H30 C25 1_555 1_555
H31 C27 1_555 1_555
H32 C27 1_555 1_555
H33 C27 1_555 1_555
H34 C28 1_555 1_555
H35 C28 1_555 1_555
H36 C28 1_555 1_555
H37 C29 1_555 1_555
H38 C29 1_555 1_555
H39 C29 1_555 1_555
H40 C30 1_555 1_555
H41 C30 1_555 1_555
H42 C30 1_555 1_555
H43 C31 1_555 1_555
H44 C31 1_555 1_555
H45 C31 1_555 1_555
H46 C32 1_555 1_555
H47 C32 1_555 1_555
H48 C32 1_555 1_555
S3 O2 1_555 1_555
F1 C33 1_555 1_555
F2 C33 1_555 1_555
F3 C33 1_555 1_555
O3 S3 1_555 1_555
O4 S3 1_555 1_555
C33 S3 1_555 1_555
S4 O5 1_555 1_555
F4 C34 1_555 1_555
F5 C34 1_555 1_555
F6 C34 1_555 1_555
O6 S4 1_555 1_555
O7 S4 1_555 1_555
C34 S4 1_555 1_555
C15 C16 1_555 1_555
C21 C22 1_555 1_555
C25 C26 1_555 1_555

#END
