
#######################################################################
#
#                 Cambridge Crystallographic Data Centre
#                                CCDC 
#
#######################################################################
#
# If this CIF has been generated from an entry in the Cambridge 
# Structural Database, then it will include bibliographic, chemical, 
# crystal, experimental, refinement or atomic coordinate data resulting 
# from the CCDC's data processing and validation procedures.
#
#######################################################################

data_XANKEE
_chemical_formula_moiety         '2(C17 H20 Br1 N3 O5 S1),3(H2 O1)'
_chemical_name_systematic        
"bis(3-[(5-bromo-1,2-dimethyl-2'-thioxooctahydrospiro[indole-3,5'-[1,3]oxazolidin]-4'-yl)carbonyl]-4,4-dimethyl-1,3-oxazolidin-2-one) trihydrate"
_symmetry_cell_setting           tetragonal
_symmetry_space_group_name_H-M   'P 43 21 2'
_symmetry_Int_Tables_number      96
_space_group_name_Hall           'P 4nw 2abw'
loop_
_symmetry_equiv_pos_site_id
_symmetry_equiv_pos_as_xyz
1 x,y,z
2 1/2-y,1/2+x,3/4+z
3 -x,-y,1/2+z
4 1/2+y,1/2-x,1/4+z
5 1/2+x,1/2-y,1/4-z
6 y,x,-z
7 1/2-x,1/2+y,3/4-z
8 -y,-x,1/2-z
_cell_length_a                   10.518(2)
_cell_length_b                   10.518(2)
_cell_length_c                   39.449(9)
_cell_angle_alpha                90
_cell_angle_beta                 90
_cell_angle_gamma                90
_cell_volume                     4364.18
_exptl_crystal_colour            colorless
_exptl_crystal_description       block
_cell_formula_units_Z            4
loop_
_atom_site_label
_atom_site_type_symbol
_atom_site_fract_x
_atom_site_fract_y
_atom_site_fract_z
Br1 Br 0.06874(17) 1.18474(18) 0.23011(4)
C1 C 0.2294(12) 1.0221(11) 0.1930(3)
H1 H 0.2497 1.0936 0.1785
H2 H 0.1529 0.9830 0.1841
C2 C 0.2026(12) 1.0683(11) 0.2249(3)
C3 C 0.2737(16) 1.0307(12) 0.2529(3)
H3 H 0.3165 1.1055 0.2617
H4 H 0.2145 1.0028 0.2703
C4 C 0.3610(16) 0.9396(14) 0.2492(3)
H5 H 0.3324 0.8667 0.2622
H6 H 0.4385 0.9697 0.2599
C5 C 0.3919(13) 0.8980(12) 0.2183(3)
C6 C 0.3274(10) 0.9346(10) 0.1907(2)
C7 C 0.3787(9) 0.8636(10) 0.1598(2)
C8 C 0.4778(10) 0.7735(11) 0.1760(3)
C9 C 0.3668(12) 0.9707(11) 0.1101(3)
C10 C 0.2733(10) 0.8041(11) 0.1372(2)
H7 H 0.1935 0.7936 0.1497
C11 C 0.3109(11) 0.6814(11) 0.1186(3)
C12 C 0.3168(12) 0.4427(11) 0.1177(3)
C13 C 0.2663(16) 0.3551(14) 0.1458(5)
H8 H 0.1812 0.3258 0.1403
H9 H 0.3212 0.2817 0.1485
C14 C 0.2713(12) 0.5568(15) 0.1690(4)
C15 C 0.5653(17) 0.7274(16) 0.2316(4)
H10 H 0.5947 0.6527 0.2200
H11 H 0.5202 0.7029 0.2517
H12 H 0.6367 0.7795 0.2376
C16 C 0.4585(13) 0.4285(13) 0.1132(4)
H13 H 0.4861 0.4808 0.0947
H14 H 0.4784 0.3412 0.1085
H15 H 0.5010 0.4546 0.1336
C17 C 0.2476(13) 0.4216(15) 0.0858(4)
H16 H 0.2523 0.3333 0.0797
H17 H 0.2853 0.4721 0.0681
H18 H 0.1603 0.4457 0.0886
N1 N 0.4799(9) 0.7994(9) 0.2092(2)
N2 N 0.2641(10) 0.9052(9) 0.1123(2)
N3 N 0.2863(9) 0.5701(9) 0.1333(2)
O1 O 0.5377(8) 0.6978(9) 0.1601(2)
O2 O 0.4453(7) 0.9468(7) 0.13739(17)
O3 O 0.3513(9) 0.6854(8) 0.0903(2)
O4 O 0.2652(9) 0.4324(10) 0.1768(2)
O5 O 0.2602(9) 0.6396(9) 0.1891(2)
S1 S 0.4158(4) 1.0751(4) 0.08140(8)
O6 O 0.5527(12) 0.3655(18) 0.2171(4)
O7 O 0.7626(11) 0.2374(11) 0.2500
H19? H 0.2465 0.8712 0.0919
H20? H 0.1994 0.9571 0.1179
loop_
_geom_bond_atom_site_label_1
_geom_bond_atom_site_label_2
_geom_bond_site_symmetry_1
_geom_bond_site_symmetry_2
Br1 C2 1_555 1_555
C1 H1 1_555 1_555
H2 C1 1_555 1_555
C2 C1 1_555 1_555
C3 C2 1_555 1_555
H3 C3 1_555 1_555
H4 C3 1_555 1_555
C4 C3 1_555 1_555
H5 C4 1_555 1_555
H6 C4 1_555 1_555
C5 C4 1_555 1_555
C6 C1 1_555 1_555
C7 C6 1_555 1_555
C8 C7 1_555 1_555
C9 N2 1_555 1_555
C10 C7 1_555 1_555
H7 C10 1_555 1_555
C11 C10 1_555 1_555
C12 C13 1_555 1_555
C13 H8 1_555 1_555
H9 C13 1_555 1_555
C14 N3 1_555 1_555
C15 H10 1_555 1_555
H11 C15 1_555 1_555
H12 C15 1_555 1_555
C16 C12 1_555 1_555
H13 C16 1_555 1_555
H14 C16 1_555 1_555
H15 C16 1_555 1_555
C17 C12 1_555 1_555
H16 C17 1_555 1_555
H17 C17 1_555 1_555
H18 C17 1_555 1_555
N1 C5 1_555 1_555
N2 C10 1_555 1_555
N3 C11 1_555 1_555
O1 C8 1_555 1_555
O2 C7 1_555 1_555
O3 C11 1_555 1_555
O4 C13 1_555 1_555
O5 C14 1_555 1_555
S1 C9 1_555 1_555
C5 C6 1_555 1_555
C8 N1 1_555 1_555
C9 O2 1_555 1_555
C12 N3 1_555 1_555
C14 O4 1_555 1_555
C15 N1 1_555 1_555

#END
