
#######################################################################
#
#                 Cambridge Crystallographic Data Centre
#                                CCDC 
#
#######################################################################
#
# If this CIF has been generated from an entry in the Cambridge 
# Structural Database, then it will include bibliographic, chemical, 
# crystal, experimental, refinement or atomic coordinate data resulting 
# from the CCDC's data processing and validation procedures.
#
#######################################################################

data_XANTEO
_chemical_formula_moiety         'C20 H17 N1 O5,C1 H4 O1'
_chemical_name_systematic        
'9,10-dimethoxy-5,6-dihydro[1,3]dioxolo[4,5-g]isoquinolino[3,2-a]isoquinolin-7-ium-13-olate methanol solvate'
_symmetry_cell_setting           triclinic
_symmetry_space_group_name_H-M   'P -1'
_symmetry_Int_Tables_number      2
_space_group_name_Hall           '-P 1'
loop_
_symmetry_equiv_pos_site_id
_symmetry_equiv_pos_as_xyz
1 x,y,z
2 -x,-y,-z
_cell_length_a                   9.0561(5)
_cell_length_b                   9.2618(5)
_cell_length_c                   11.3096(7)
_cell_angle_alpha                87.223(4)
_cell_angle_beta                 68.861(5)
_cell_angle_gamma                84.744(4)
_cell_volume                     880.927
_exptl_crystal_colour            colorless
_exptl_crystal_description       club
_cell_formula_units_Z            2
loop_
_atom_site_label
_atom_site_type_symbol
_atom_site_fract_x
_atom_site_fract_y
_atom_site_fract_z
O1 O 0.41023(12) 0.69538(11) 0.82050(9)
O2 O 1.05028(11) 0.45202(10) 0.81675(9)
O3 O -0.05413(12) 0.92183(11) 1.13628(10)
O4 O 1.06785(12) 0.30613(11) 0.61030(9)
N1 N 0.63870(13) 0.69326(12) 1.02238(11)
O5 O -0.01344(12) 1.08664(11) 1.26751(10)
C1 C 0.65914(17) 0.57295(15) 0.79826(13)
C2 C 0.92587(16) 0.46577(15) 0.77334(13)
C3 C 0.77288(16) 0.61721(14) 0.95616(13)
H1 H 0.8571 0.6070 0.9854
C4 C 0.37194(16) 0.81216(14) 1.06621(13)
C5 C 0.78759(16) 0.55244(14) 0.84235(13)
C6 C 0.80493(17) 0.41435(15) 0.62336(13)
H2 H 0.8097 0.3669 0.5513
C7 C 0.50872(16) 0.71996(14) 0.98557(13)
C8 C 0.12552(17) 1.00313(15) 1.20802(13)
C9 C 0.93354(17) 0.39348(15) 0.66658(13)
C10 C 0.27055(17) 1.00825(15) 1.21973(13)
H3 H 0.2859 1.0739 1.2731
C11 C 0.51881(16) 0.66498(15) 0.86682(13)
C12 C 0.22000(16) 0.80835(14) 1.05822(13)
H4 H 0.2016 0.7429 1.0062
C13 C 0.39443(17) 0.91079(14) 1.14815(13)
C14 C 0.55619(16) 0.90708(14) 1.15721(13)
H5 H 0.5477 0.9457 1.2378
H6 H 0.6238 0.9664 1.0899
C15 C 0.10122(16) 0.90427(15) 1.12966(13)
C16 C 0.67313(17) 0.50357(15) 0.68624(13)
H7 H 0.5915 0.5186 0.6544
C17 C 1.07454(19) 0.22136(16) 0.50576(14)
H8 H 1.0667 0.2846 0.4381
H9 H 0.9880 0.1601 0.5323
H10 H 1.1734 0.1626 0.4767
C18 C 0.62776(16) 0.75164(14) 1.14578(12)
H11 H 0.7327 0.7478 1.1508
H12 H 0.5620 0.6932 1.2149
C19 C 1.17871(18) 0.53511(17) 0.73964(16)
H13 H 1.2299 0.4903 0.6586
H14 H 1.2542 0.5385 0.7809
H15 H 1.1377 0.6319 0.7279
C20 C -0.13145(18) 1.02649(18) 1.23151(16)
H16 H -0.2073 0.9812 1.3046
H17 H -0.1883 1.1026 1.1992
O6 O 0.51138(14) 0.85138(12) 0.60437(10)
H18 H 0.4806 0.8010 0.6689
C21 C 0.4775(3) 0.7893(2) 0.50787(17)
H19 H 0.4657 0.8636 0.4490
H20 H 0.3807 0.7420 0.5438
H21 H 0.5629 0.7195 0.4644
loop_
_geom_bond_atom_site_label_1
_geom_bond_atom_site_label_2
_geom_bond_site_symmetry_1
_geom_bond_site_symmetry_2
O1 C11 1_555 1_555
O2 C2 1_555 1_555
O3 C15 1_555 1_555
O4 C9 1_555 1_555
N1 C3 1_555 1_555
O5 C8 1_555 1_555
C1 C5 1_555 1_555
C2 C5 1_555 1_555
C3 H1 1_555 1_555
C4 C7 1_555 1_555
C5 C3 1_555 1_555
C6 H2 1_555 1_555
C7 N1 1_555 1_555
C8 C10 1_555 1_555
C9 C2 1_555 1_555
C10 H3 1_555 1_555
C11 C1 1_555 1_555
C12 C4 1_555 1_555
H4 C12 1_555 1_555
C13 C4 1_555 1_555
C14 C13 1_555 1_555
H5 C14 1_555 1_555
H6 C14 1_555 1_555
C15 C8 1_555 1_555
C16 C1 1_555 1_555
H7 C16 1_555 1_555
C17 O4 1_555 1_555
H8 C17 1_555 1_555
H9 C17 1_555 1_555
H10 C17 1_555 1_555
C18 N1 1_555 1_555
H11 C18 1_555 1_555
H12 C18 1_555 1_555
C19 O2 1_555 1_555
H13 C19 1_555 1_555
H14 C19 1_555 1_555
H15 C19 1_555 1_555
C20 O3 1_555 1_555
H16 C20 1_555 1_555
H17 C20 1_555 1_555
O6 H18 1_555 1_555
C21 O6 1_555 1_555
H19 C21 1_555 1_555
H20 C21 1_555 1_555
H21 C21 1_555 1_555
O5 C20 1_555 1_555
C6 C9 1_555 1_555
C6 C16 1_555 1_555
C7 C11 1_555 1_555
C10 C13 1_555 1_555
C12 C15 1_555 1_555
C14 C18 1_555 1_555

#END
