
#######################################################################
#
#                 Cambridge Crystallographic Data Centre
#                                CCDC 
#
#######################################################################
#
# If this CIF has been generated from an entry in the Cambridge 
# Structural Database, then it will include bibliographic, chemical, 
# crystal, experimental, refinement or atomic coordinate data resulting 
# from the CCDC's data processing and validation procedures.
#
#######################################################################

data_XANWIV
_chemical_formula_moiety         'C11 H12 O2'
_chemical_name_systematic        '(E)-2-Benzylidenebutanoic acid'
_symmetry_cell_setting           triclinic
_symmetry_space_group_name_H-M   'P -1'
_symmetry_Int_Tables_number      2
_space_group_name_Hall           '-P 1'
loop_
_symmetry_equiv_pos_site_id
_symmetry_equiv_pos_as_xyz
1 x,y,z
2 -x,-y,-z
_cell_length_a                   8.584(4)
_cell_length_b                   9.914(5)
_cell_length_c                   11.987(6)
_cell_angle_alpha                86.06(2)
_cell_angle_beta                 77.29(2)
_cell_angle_gamma                75.91(2)
_cell_volume                     965.056
_chemical_melting_point          '104.3-105.8 deg.C'
_cell_formula_units_Z            4
loop_
_atom_site_label
_atom_site_type_symbol
_atom_site_fract_x
_atom_site_fract_y
_atom_site_fract_z
O1 O 0.5636(4) 0.3583(3) 0.6057(3)
O2 O 0.5111(4) 0.1951(4) 0.7362(3)
C1 C 0.3814(6) 0.6850(5) 0.8371(4)
C2 C 0.4697(7) 0.7883(6) 0.8182(5)
C3 C 0.4236(8) 0.9044(6) 0.8850(5)
C4 C 0.2850(8) 0.9219(6) 0.9701(5)
C5 C 0.1932(7) 0.8239(6) 0.9873(5)
C6 C 0.2407(7) 0.7053(6) 0.9222(5)
C7 C 0.4390(6) 0.5590(5) 0.7673(5)
C8 C 0.4390(5) 0.4268(5) 0.7970(4)
C9 C 0.3801(7) 0.3768(6) 0.9168(5)
C10 C 0.2176(10) 0.3344(8) 0.9350(7)
C11 C 0.5067(6) 0.3170(6) 0.7097(5)
H1 H 0.562(4) 0.770(4) 0.761(3)
H2 H 0.489(5) 0.985(5) 0.867(4)
H3 H 0.238(5) 1.005(4) 1.014(3)
H4 H 0.092(5) 0.835(4) 1.049(3)
H5 H 0.179(5) 0.645(5) 0.939(4)
H6 H 0.490(4) 0.571(3) 0.685(3)
H7 H 0.373(4) 0.450(3) 0.975(3)
H8 H 0.463(4) 0.299(3) 0.931(3)
H9 H 0.182(6) 0.300(5) 1.020(5)
H10 H 0.145(5) 0.407(4) 0.932(4)
H11 H 0.240(6) 0.249(6) 0.877(4)
H12 H 0.610(6) 0.269(6) 0.550(5)
O3 O 0.3709(4) 0.0159(3) 0.4062(3)
O4 O 0.3064(4) -0.1477(3) 0.5332(3)
C12 C 0.1015(6) 0.3517(5) 0.6137(4)
C13 C 0.1649(6) 0.4677(6) 0.5831(5)
C14 C 0.0909(8) 0.5945(6) 0.6372(5)
C15 C -0.0498(8) 0.6043(6) 0.7221(5)
C16 C -0.1153(7) 0.4913(6) 0.7512(5)
C17 C -0.0405(7) 0.3655(6) 0.6980(5)
C18 C 0.1906(6) 0.2228(6) 0.5531(5)
C19 C 0.2001(6) 0.0896(5) 0.5863(4)
C20 C 0.1254(8) 0.0386(6) 0.7013(5)
C21 C -0.0347(11) -0.0045(9) 0.7012(8)
C22 C 0.2962(6) -0.0229(6) 0.5073(5)
H13 H 0.263(4) 0.465(4) 0.527(3)
H14 H 0.138(5) 0.675(4) 0.619(4)
H15 H -0.096(4) 0.698(4) 0.762(3)
H16 H -0.208(5) 0.494(4) 0.805(3)
H17 H -0.083(4) 0.293(4) 0.719(3)
H18 H 0.254(5) 0.240(4) 0.482(3)
H19 H 0.104(5) 0.109(4) 0.762(3)
H20 H 0.190(6) -0.052(5) 0.722(4)
H21 H -0.005(6) -0.080(5) 0.640(4)
H22 H -0.113(6) 0.074(5) 0.696(5)
H23 H 0.409(7) -0.067(6) 0.352(5)
H24 H -0.068(7) -0.041(6) 0.773(5)
loop_
_geom_bond_atom_site_label_1
_geom_bond_atom_site_label_2
_geom_bond_site_symmetry_1
_geom_bond_site_symmetry_2
O1 C11 1_555 1_555
O2 C11 1_555 1_555
C1 C2 1_555 1_555
C2 C3 1_555 1_555
C3 C4 1_555 1_555
C4 C5 1_555 1_555
C5 C6 1_555 1_555
C6 C1 1_555 1_555
C7 C1 1_555 1_555
C8 C7 1_555 1_555
C9 C8 1_555 1_555
C10 C9 1_555 1_555
C11 C8 1_555 1_555
H1 C2 1_555 1_555
H2 C3 1_555 1_555
H3 C4 1_555 1_555
H4 C5 1_555 1_555
H5 C6 1_555 1_555
H6 C7 1_555 1_555
H7 C9 1_555 1_555
H8 C9 1_555 1_555
H9 C10 1_555 1_555
H10 C10 1_555 1_555
H11 C10 1_555 1_555
H12 O1 1_555 1_555
O3 C22 1_555 1_555
O4 C22 1_555 1_555
C12 C13 1_555 1_555
C13 C14 1_555 1_555
C14 C15 1_555 1_555
C15 C16 1_555 1_555
C16 C17 1_555 1_555
C17 C12 1_555 1_555
C18 C12 1_555 1_555
C19 C18 1_555 1_555
C20 C19 1_555 1_555
C21 C20 1_555 1_555
C22 C19 1_555 1_555
H13 C13 1_555 1_555
H14 C14 1_555 1_555
H15 C15 1_555 1_555
H16 C16 1_555 1_555
H17 C17 1_555 1_555
H18 C18 1_555 1_555
H19 C20 1_555 1_555
H20 C20 1_555 1_555
H21 C21 1_555 1_555
H22 C21 1_555 1_555
H23 O3 1_555 1_555
H24 C21 1_555 1_555

#END
