
#######################################################################
#
#                 Cambridge Crystallographic Data Centre
#                                CCDC 
#
#######################################################################
#
# If this CIF has been generated from an entry in the Cambridge 
# Structural Database, then it will include bibliographic, chemical, 
# crystal, experimental, refinement or atomic coordinate data resulting 
# from the CCDC's data processing and validation procedures.
#
#######################################################################

data_XANZIX
_chemical_formula_moiety         'C70 H24 O10'
_chemical_name_systematic        
bis(methoxy)-bis(t-butoxycarbonyl)-open-cage-[6,6]-fullerendione
_symmetry_cell_setting           monoclinic
_symmetry_space_group_name_H-M   'P 21/c'
_symmetry_Int_Tables_number      14
_space_group_name_Hall           '-P 2ybc'
loop_
_symmetry_equiv_pos_site_id
_symmetry_equiv_pos_as_xyz
1 x,y,z
2 -x,1/2+y,1/2-z
3 -x,-y,-z
4 x,1/2-y,1/2+z
_cell_length_a                   13.2045(18)
_cell_length_b                   19.022(3)
_cell_length_c                   18.615(3)
_cell_angle_alpha                90
_cell_angle_beta                 98.097(2)
_cell_angle_gamma                90
_cell_volume                     4629.03
_exptl_crystal_colour            red
_exptl_crystal_description       block
_cell_formula_units_Z            4
loop_
_atom_site_label
_atom_site_type_symbol
_atom_site_fract_x
_atom_site_fract_y
_atom_site_fract_z
O1 O 0.28530(14) 0.37951(10) -0.01107(9)
O2 O 0.08824(13) 0.37658(9) -0.00921(9)
O3 O 0.23946(12) 0.25902(8) 0.08555(8)
O4 O 0.23135(13) 0.50956(9) 0.06934(9)
O5 O 0.15134(12) 0.16032(8) 0.09895(9)
O6 O 0.13533(13) 0.60625(8) 0.06882(9)
O7 O 0.44958(12) 0.28533(9) 0.24448(9)
O8 O 0.44179(12) 0.22690(9) 0.19139(9)
O9 O 0.44254(12) 0.50563(9) 0.23085(9)
O10 O 0.43124(12) 0.55748(9) 0.17108(9)
C1 C 0.27117(17) 0.38310(13) 0.05128(12)
C2 C 0.27415(17) 0.32391(12) 0.10564(12)
C3 C 0.31386(16) 0.34997(12) 0.17025(12)
C4 C 0.31136(17) 0.43040(12) 0.16544(12)
C5 C 0.26972(17) 0.44776(12) 0.09834(12)
C6 C 0.16599(17) 0.22845(12) 0.12581(12)
C7 C 0.05606(17) 0.26011(11) 0.11900(12)
C8 C 0.00647(17) 0.31795(12) 0.08520(12)
C9 C -0.08432(17) 0.34438(12) 0.11155(13)
C10 C -0.08636(17) 0.42015(12) 0.10657(12)
C11 C 0.00281(17) 0.44463(12) 0.07751(12)
C12 C 0.04355(17) 0.37932(12) 0.04291(12)
C13 C 0.04746(17) 0.50678(12) 0.10301(12)
C14 C 0.15564(17) 0.54228(12) 0.10493(12)
C15 C 0.34721(16) 0.31225(12) 0.24014(12)
C16 C 0.34205(17) 0.47648(12) 0.22947(12)
C17 C 0.2395(2) 0.11597(12) 0.11337(14)
H1 H 0.2217 0.0682 0.0963
H2 H 0.2631 0.1151 0.1657
H3 H 0.2941 0.1343 0.0880
C18 C 0.2189(2) 0.65495(14) 0.07582(16)
H4 H 0.1954 0.7000 0.0541
H5 H 0.2737 0.6363 0.0509
H6 H 0.2447 0.6619 0.1273
C19 C 0.53924(19) 0.22118(14) 0.16396(15)
C20 C 0.5569(3) 0.28543(17) 0.11893(19)
H7 H 0.4979 0.2922 0.0813
H8 H 0.6187 0.2786 0.0961
H9 H 0.5654 0.3270 0.1503
C21 C 0.5231(2) 0.15477(18) 0.11897(19)
H10 H 0.5051 0.1160 0.1495
H11 H 0.5862 0.1431 0.0995
H12 H 0.4677 0.1622 0.0788
C22 C 0.6252(2) 0.21044(16) 0.22602(17)
H13 H 0.6089 0.1706 0.2557
H14 H 0.6335 0.2530 0.2559
H15 H 0.6890 0.2008 0.2065
C23 C 0.52750(19) 0.56075(14) 0.14124(14)
C24 C 0.6142(2) 0.58015(17) 0.19940(18)
H16 H 0.6252 0.5422 0.2352
H17 H 0.5972 0.6236 0.2234
H18 H 0.6767 0.5873 0.1774
C25 C 0.5038(3) 0.6199(2) 0.0866(2)
H19 H 0.4873 0.6627 0.1118
H20 H 0.4454 0.6067 0.0507
H21 H 0.5636 0.6285 0.0620
C26 C 0.5468(3) 0.49124(18) 0.10520(18)
H22 H 0.5550 0.4539 0.1418
H23 H 0.6092 0.4948 0.0825
H24 H 0.4887 0.4802 0.0681
C27 C 0.1107(2) 0.40448(13) 0.45031(12)
C28 C -0.0448(2) 0.33819(13) 0.40462(13)
C29 C 0.11514(19) 0.52247(12) 0.39679(12)
C30 C 0.0051(2) 0.40217(13) 0.43344(13)
C31 C 0.1671(2) 0.46558(13) 0.43206(12)
C32 C 0.26197(19) 0.44179(12) 0.40938(12)
C33 C 0.24594(18) 0.53296(12) 0.31479(12)
C34 C -0.0486(2) 0.46151(13) 0.39673(13)
C35 C -0.02059(19) 0.55363(12) 0.30865(13)
C36 C 0.34803(17) 0.36244(12) 0.30417(12)
C37 C 0.1719(2) 0.34298(12) 0.43992(12)
C38 C 0.0139(2) 0.27872(12) 0.39479(13)
C39 C 0.12464(19) 0.28141(12) 0.41316(12)
C40 C -0.13139(19) 0.43396(13) 0.34485(14)
C41 C 0.0054(2) 0.52024(12) 0.37878(13)
C42 C -0.13015(17) 0.31094(12) 0.16459(13)
C43 C 0.08513(18) 0.57217(11) 0.21100(13)
C44 C 0.29977(17) 0.47417(12) 0.35176(12)
C45 C 0.18144(17) 0.55414(11) 0.18815(12)
C46 C -0.15624(18) 0.46628(12) 0.27717(14)
C47 C -0.17642(17) 0.35084(13) 0.21714(14)
C48 C -0.15125(17) 0.31724(12) 0.28733(14)
C49 C 0.01448(18) 0.23028(11) 0.18032(12)
C50 C 0.00371(17) 0.54363(12) 0.15962(12)
C51 C 0.07317(19) 0.57645(11) 0.28392(13)
C52 C -0.01035(18) 0.23695(11) 0.33010(13)
C53 C 0.16797(18) 0.24084(11) 0.35898(12)
C54 C 0.19223(17) 0.22709(11) 0.20936(12)
C55 C 0.26868(16) 0.25702(11) 0.25688(12)
C56 C -0.12876(19) 0.35774(13) 0.34968(14)
C57 C 0.15666(19) 0.55704(12) 0.33777(13)
C58 C -0.09017(17) 0.25571(12) 0.27726(14)
C59 C 0.25928(17) 0.53138(12) 0.23907(12)
C60 C 0.30477(17) 0.32765(12) 0.36161(12)
C61 C -0.17891(17) 0.42402(12) 0.21257(14)
C62 C -0.08683(17) 0.52256(12) 0.18323(13)
C63 C 0.26448(19) 0.36593(12) 0.41441(12)
C64 C 0.08591(18) 0.21325(11) 0.30819(12)
C65 C -0.07720(17) 0.25211(12) 0.20138(13)
C66 C 0.25571(17) 0.26410(11) 0.33277(11)
C67 C -0.13450(17) 0.45881(12) 0.15484(13)
C68 C 0.34581(17) 0.43405(12) 0.29933(12)
C69 C -0.09940(18) 0.52750(12) 0.25919(13)
C70 C 0.09756(17) 0.20962(11) 0.23552(12)
loop_
_geom_bond_atom_site_label_1
_geom_bond_atom_site_label_2
_geom_bond_site_symmetry_1
_geom_bond_site_symmetry_2
O1 C1 1_555 1_555
O2 C12 1_555 1_555
O3 C2 1_555 1_555
O4 C5 1_555 1_555
O5 C6 1_555 1_555
O6 C14 1_555 1_555
O7 O8 1_555 1_555
O8 C19 1_555 1_555
O9 O10 1_555 1_555
O10 C23 1_555 1_555
C1 C2 1_555 1_555
C2 C3 1_555 1_555
C3 C4 1_555 1_555
C4 C5 1_555 1_555
C5 C1 1_555 1_555
C6 O3 1_555 1_555
C7 C6 1_555 1_555
C8 C7 1_555 1_555
C9 C8 1_555 1_555
C10 C9 1_555 1_555
C11 C10 1_555 1_555
C12 C8 1_555 1_555
C13 C11 1_555 1_555
C14 O4 1_555 1_555
C15 O7 1_555 1_555
C16 O9 1_555 1_555
C17 O5 1_555 1_555
H1 C17 1_555 1_555
H2 C17 1_555 1_555
H3 C17 1_555 1_555
C18 O6 1_555 1_555
H4 C18 1_555 1_555
H5 C18 1_555 1_555
H6 C18 1_555 1_555
C19 C20 1_555 1_555
C20 H7 1_555 1_555
H8 C20 1_555 1_555
H9 C20 1_555 1_555
C21 C19 1_555 1_555
H10 C21 1_555 1_555
H11 C21 1_555 1_555
H12 C21 1_555 1_555
C22 C19 1_555 1_555
H13 C22 1_555 1_555
H14 C22 1_555 1_555
H15 C22 1_555 1_555
C23 C24 1_555 1_555
C24 H16 1_555 1_555
H17 C24 1_555 1_555
H18 C24 1_555 1_555
C25 C23 1_555 1_555
H19 C25 1_555 1_555
H20 C25 1_555 1_555
H21 C25 1_555 1_555
C26 C23 1_555 1_555
H22 C26 1_555 1_555
H23 C26 1_555 1_555
H24 C26 1_555 1_555
C27 C30 1_555 1_555
C28 C30 1_555 1_555
C29 C31 1_555 1_555
C30 C34 1_555 1_555
C31 C27 1_555 1_555
C32 C31 1_555 1_555
C33 C44 1_555 1_555
C34 C40 1_555 1_555
C35 C41 1_555 1_555
C36 C15 1_555 1_555
C37 C27 1_555 1_555
C38 C28 1_555 1_555
C39 C37 1_555 1_555
C40 C46 1_555 1_555
C41 C29 1_555 1_555
C42 C9 1_555 1_555
C43 C45 1_555 1_555
C44 C32 1_555 1_555
C45 C14 1_555 1_555
C46 C61 1_555 1_555
C47 C42 1_555 1_555
C48 C47 1_555 1_555
C49 C7 1_555 1_555
C50 C13 1_555 1_555
C51 C35 1_555 1_555
C52 C38 1_555 1_555
C53 C39 1_555 1_555
C54 C6 1_555 1_555
C55 C15 1_555 1_555
C56 C28 1_555 1_555
C57 C29 1_555 1_555
C58 C48 1_555 1_555
C59 C16 1_555 1_555
C60 C36 1_555 1_555
C61 C47 1_555 1_555
C62 C50 1_555 1_555
C63 C32 1_555 1_555
C64 C52 1_555 1_555
C65 C42 1_555 1_555
C66 C53 1_555 1_555
C67 C10 1_555 1_555
C68 C16 1_555 1_555
C69 C35 1_555 1_555
C70 C49 1_555 1_555
C3 C15 1_555 1_555
C4 C16 1_555 1_555
C11 C12 1_555 1_555
C13 C14 1_555 1_555
C33 C57 1_555 1_555
C33 C59 1_555 1_555
C34 C41 1_555 1_555
C36 C68 1_555 1_555
C37 C63 1_555 1_555
C38 C39 1_555 1_555
C40 C56 1_555 1_555
C43 C50 1_555 1_555
C43 C51 1_555 1_555
C44 C68 1_555 1_555
C45 C59 1_555 1_555
C46 C69 1_555 1_555
C48 C56 1_555 1_555
C49 C65 1_555 1_555
C51 C57 1_555 1_555
C52 C58 1_555 1_555
C53 C64 1_555 1_555
C54 C55 1_555 1_555
C54 C70 1_555 1_555
C55 C66 1_555 1_555
C58 C65 1_555 1_555
C60 C63 1_555 1_555
C60 C66 1_555 1_555
C61 C67 1_555 1_555
C62 C67 1_555 1_555
C62 C69 1_555 1_555
C64 C70 1_555 1_555

#END
