
#######################################################################
#
#                 Cambridge Crystallographic Data Centre
#                                CCDC 
#
#######################################################################
#
# If this CIF has been generated from an entry in the Cambridge 
# Structural Database, then it will include bibliographic, chemical, 
# crystal, experimental, refinement or atomic coordinate data resulting 
# from the CCDC's data processing and validation procedures.
#
#######################################################################

data_XAPBOH
_chemical_formula_moiety         'C18 H18 N2 2+,2(Cl1 O4 1-)'
_chemical_name_systematic        
'2,7-diethyl-2,7-dihydrobenzo[lmn][3,8]phenanthrolinediium perchlorate'
_symmetry_cell_setting           monoclinic
_symmetry_space_group_name_H-M   'P 21/c'
_symmetry_Int_Tables_number      14
_space_group_name_Hall           '-P 2ybc'
loop_
_symmetry_equiv_pos_site_id
_symmetry_equiv_pos_as_xyz
1 x,y,z
2 -x,1/2+y,1/2-z
3 -x,-y,-z
4 x,1/2-y,1/2+z
_cell_length_a                   5.8449(13)
_cell_length_b                   13.893(3)
_cell_length_c                   11.655(3)
_cell_angle_alpha                90
_cell_angle_beta                 94.210(4)
_cell_angle_gamma                90
_cell_volume                     943.869
_exptl_crystal_colour            'light yellow'
_exptl_crystal_description       prism
_cell_formula_units_Z            2
loop_
_atom_site_label
_atom_site_type_symbol
_atom_site_fract_x
_atom_site_fract_y
_atom_site_fract_z
Cl1 Cl 0.33476(12) 0.68703(5) 0.33483(6)
O1 O 0.5797(4) 0.68281(16) 0.3479(2)
O2 O 0.2390(4) 0.60104(16) 0.3793(2)
O3 O 0.2576(5) 0.76894(18) 0.3948(3)
O4 O 0.2666(6) 0.6943(2) 0.2149(2)
N1 N 0.6169(4) 0.89978(17) 0.24051(19)
C1 C 0.4371(5) 0.9599(2) 0.2438(2)
C2 C 0.3830(5) 1.00159(19) 0.3464(2)
C3 C 0.5244(5) 0.97926(17) 0.4468(2)
C4 C 0.7145(5) 0.91788(19) 0.4408(2)
C5 C 0.7559(5) 0.8781(2) 0.3350(2)
C6 C 0.1903(5) 1.0647(2) 0.3541(2)
C7 C 0.8582(5) 0.89645(19) 0.5443(2)
C8 C 0.6601(6) 0.8522(3) 0.1284(3)
C9 C 0.8968(6) 0.8724(3) 0.0918(3)
H1 H 0.348(5) 0.973(2) 0.174(3)
H2 H 0.876(8) 0.836(3) 0.323(3)
H3 H 0.100(6) 1.082(2) 0.284(3)
H4 H 0.988(6) 0.854(2) 0.533(3)
H5 H 0.907(7) 0.848(2) 0.019(3)
H6 H 1.034(7) 0.845(3) 0.143(3)
H7 H 0.564(8) 0.877(3) 0.068(4)
H8 H 0.933(7) 0.938(3) 0.086(3)
H9 H 0.639(7) 0.784(3) 0.137(3)
N1B N 0.3831(4) 1.10022(17) 0.75949(19)
C1B C 0.5629(5) 1.0401(2) 0.7562(2)
C2B C 0.6170(5) 0.99841(19) 0.6536(2)
C3B C 0.4756(5) 1.02074(17) 0.5532(2)
C4B C 0.2855(5) 1.08212(19) 0.5592(2)
C5B C 0.2441(5) 1.1219(2) 0.6650(2)
C6B C 0.8097(5) 0.9353(2) 0.6459(2)
C7B C 0.1418(5) 1.10355(19) 0.4557(2)
C8B C 0.3399(6) 1.1478(3) 0.8716(3)
C9B C 0.1032(6) 1.1276(3) 0.9082(3)
H1B H 0.652(5) 1.027(2) 0.826(3)
H2B H 0.124(8) 1.164(3) 0.677(3)
H3B H 0.900(6) 0.918(2) 0.716(3)
H4B H 0.012(6) 1.146(2) 0.467(3)
H5B H 0.093(7) 1.152(2) 0.981(3)
H6B H -0.034(7) 1.155(3) 0.857(3)
H7B H 0.436(8) 1.123(3) 0.932(4)
H8B H 0.067(7) 1.062(3) 0.914(3)
H9B H 0.361(7) 1.216(3) 0.863(3)
loop_
_geom_bond_atom_site_label_1
_geom_bond_atom_site_label_2
_geom_bond_site_symmetry_1
_geom_bond_site_symmetry_2
Cl1 O1 1_555 1_555
O2 Cl1 1_555 1_555
O3 Cl1 1_555 1_555
O4 Cl1 1_555 1_555
N1 C1 1_555 1_555
C1 C2 1_555 1_555
C2 C3 1_555 1_555
C3 C4 1_555 1_555
C4 C5 1_555 1_555
C5 N1 1_555 1_555
C6 C2 1_555 1_555
C7 C4 1_555 1_555
C8 N1 1_555 1_555
C9 C8 1_555 1_555
H1 C1 1_555 1_555
H2 C5 1_555 1_555
H3 C6 1_555 1_555
H4 C7 1_555 1_555
H5 C9 1_555 1_555
H6 C9 1_555 1_555
H7 C8 1_555 1_555
H8 C9 1_555 1_555
H9 C8 1_555 1_555
N1B C1B 1_555 1_555
C1B C2B 1_555 1_555
C2B C3B 1_555 1_555
C3B C3 1_555 1_555
C4B C3B 1_555 1_555
C5B N1B 1_555 1_555
C6B C7 1_555 1_555
C7B C6 1_555 1_555
C8B N1B 1_555 1_555
C9B C8B 1_555 1_555
H1B C1B 1_555 1_555
H2B C5B 1_555 1_555
H3B C6B 1_555 1_555
H4B C7B 1_555 1_555
H5B C9B 1_555 1_555
H6B C9B 1_555 1_555
H7B C8B 1_555 1_555
H8B C9B 1_555 1_555
H9B C8B 1_555 1_555
C2B C6B 1_555 1_555
C4B C5B 1_555 1_555
C4B C7B 1_555 1_555

#END
