
#######################################################################
#
#                 Cambridge Crystallographic Data Centre
#                                CCDC 
#
#######################################################################
#
# If this CIF has been generated from an entry in the Cambridge 
# Structural Database, then it will include bibliographic, chemical, 
# crystal, experimental, refinement or atomic coordinate data resulting 
# from the CCDC's data processing and validation procedures.
#
#######################################################################

data_XAPBUO
_chemical_formula_moiety         'C25 H24 Br1 N5 O9'
_chemical_name_systematic        
'diethyl 1-acetyl-6-(4-bromophenyl)-4-((2,4-dinitrophenyl)hydrazono)-3,4-dihydropyridine-2,2(1H)-dicarboxylate'
_symmetry_cell_setting           monoclinic
_symmetry_space_group_name_H-M   'P 21/n'
_symmetry_Int_Tables_number      14
_space_group_name_Hall           '-P 2yn'
loop_
_symmetry_equiv_pos_site_id
_symmetry_equiv_pos_as_xyz
1 x,y,z
2 1/2-x,1/2+y,1/2-z
3 -x,-y,-z
4 1/2+x,1/2-y,1/2+z
_cell_length_a                   9.6880(3)
_cell_length_b                   21.3581(8)
_cell_length_c                   14.0274(5)
_cell_angle_alpha                90
_cell_angle_beta                 106.8200(10)
_cell_angle_gamma                90
_cell_volume                     2778.34
_exptl_crystal_colour            colorless
_exptl_crystal_description       block
_cell_formula_units_Z            4
loop_
_atom_site_label
_atom_site_type_symbol
_atom_site_fract_x
_atom_site_fract_y
_atom_site_fract_z
Br1 Br 0.25346(5) 0.000867(17) 0.79639(3)
O1 O 0.4929(3) -0.68562(11) 0.83735(19)
O2 O 0.6874(3) -0.72187(12) 0.9411(2)
O3 O 1.0382(3) -0.58074(14) 1.1298(3)
O4 O 1.0013(3) -0.48257(12) 1.1354(2)
O5 O 1.0413(3) -0.16408(12) 1.15028(18)
O6 O 1.0936(3) -0.25930(12) 1.2177(2)
O7 O 0.9655(3) -0.27160(13) 0.9467(2)
O8 O 0.8673(2) -0.17708(11) 0.94621(16)
O9 O 0.8357(3) -0.19491(14) 1.25178(17)
N1 N 0.6085(3) -0.67898(13) 0.9026(2)
N2 N 0.9614(3) -0.53535(14) 1.1048(2)
N3 N 0.7479(2) -0.20734(11) 1.08641(17)
N4 N 0.7613(3) -0.43305(11) 1.02749(19)
H1 H 0.8391 -0.4248 1.0740
N5 N 0.6683(3) -0.38582(11) 0.98309(18)
C1 C 0.8202(3) -0.54433(14) 1.0352(2)
C2 C 0.7818(4) -0.60494(14) 1.0048(2)
H2 H 0.8436 -0.6381 1.0302
C3 C 0.6512(4) -0.61522(14) 0.9366(2)
C4 C 0.5590(3) -0.56617(15) 0.8961(2)
H3 H 0.4710 -0.5742 0.8491
C5 C 0.5971(3) -0.50649(14) 0.9252(2)
H4 H 0.5349 -0.4739 0.8971
C6 C 0.7282(3) -0.49280(13) 0.9966(2)
C7 C 0.8752(3) -0.24367(14) 1.0831(2)
C8 C 0.8448(3) -0.31287(14) 1.0927(2)
H5 H 0.9238 -0.3378 1.0838
H6 H 0.8354 -0.3214 1.1585
C9 C 0.7066(3) -0.32983(14) 1.0143(2)
C10 C 0.6093(3) -0.27994(13) 0.9676(2)
H7 H 0.5333 -0.2890 0.9114
C11 C 0.6249(3) -0.22106(13) 1.0024(2)
C12 C 0.5344(3) -0.16781(13) 0.9547(2)
C13 C 0.3912(3) -0.17687(14) 0.8985(2)
H8 H 0.3512 -0.2168 0.8931
C14 C 0.3085(3) -0.12738(15) 0.8510(2)
H9 H 0.2133 -0.1337 0.8136
C15 C 0.3680(3) -0.06826(14) 0.8594(2)
C16 C 0.5081(3) -0.05797(15) 0.9138(2)
H10 H 0.5477 -0.0180 0.9182
C17 C 0.5895(3) -0.10766(14) 0.9619(2)
H11 H 0.6840 -0.1006 1.0003
C18 C 0.9073(3) -0.23296(16) 0.9831(3)
C19 C 0.8965(5) -0.1611(2) 0.8532(3)
H12 H 0.9963 -0.1701 0.8575
H13 H 0.8350 -0.1853 0.7987
C20 C 0.8678(11) -0.0957(3) 0.8370(5)
H14 H 0.8850 -0.0834 0.7756
H15 H 0.9300 -0.0724 0.8910
H16 H 0.7691 -0.0874 0.8335
C21 C 1.0153(3) -0.22366(17) 1.1626(3)
C22 C 1.1759(5) -0.1382(2) 1.2109(3)
H17 H 1.1686 -0.1270 1.2763
H18 H 1.2533 -0.1683 1.2188
C23 C 1.2027(7) -0.0833(3) 1.1590(6)
H19 H 1.2907 -0.0638 1.1970
H20 H 1.1243 -0.0543 1.1506
H21 H 1.2110 -0.0952 1.0949
C24 C 0.7332(4) -0.19021(15) 1.1782(2)
C25 C 0.5916(4) -0.16668(16) 1.1846(3)
H22 H 0.5985 -0.1570 1.2527
H23 H 0.5193 -0.1982 1.1606
H24 H 0.5657 -0.1296 1.1447
loop_
_geom_bond_atom_site_label_1
_geom_bond_atom_site_label_2
_geom_bond_site_symmetry_1
_geom_bond_site_symmetry_2
Br1 C15 1_555 1_555
O1 N1 1_555 1_555
O2 N1 1_555 1_555
O3 N2 1_555 1_555
O4 N2 1_555 1_555
O5 C21 1_555 1_555
O6 C21 1_555 1_555
O7 C18 1_555 1_555
O8 C18 1_555 1_555
O9 C24 1_555 1_555
N1 C3 1_555 1_555
N2 C1 1_555 1_555
N3 C7 1_555 1_555
N4 H1 1_555 1_555
N5 N4 1_555 1_555
C1 C2 1_555 1_555
C2 H2 1_555 1_555
C3 C2 1_555 1_555
C4 C3 1_555 1_555
H3 C4 1_555 1_555
C5 C4 1_555 1_555
H4 C5 1_555 1_555
C6 N4 1_555 1_555
C7 C8 1_555 1_555
C8 H5 1_555 1_555
H6 C8 1_555 1_555
C9 N5 1_555 1_555
C10 C9 1_555 1_555
H7 C10 1_555 1_555
C11 N3 1_555 1_555
C12 C11 1_555 1_555
C13 C12 1_555 1_555
H8 C13 1_555 1_555
C14 C13 1_555 1_555
H9 C14 1_555 1_555
C15 C14 1_555 1_555
C16 C15 1_555 1_555
H10 C16 1_555 1_555
C17 C12 1_555 1_555
H11 C17 1_555 1_555
C18 C7 1_555 1_555
C19 O8 1_555 1_555
H12 C19 1_555 1_555
H13 C19 1_555 1_555
C20 C19 1_555 1_555
H14 C20 1_555 1_555
H15 C20 1_555 1_555
H16 C20 1_555 1_555
C21 C7 1_555 1_555
C22 O5 1_555 1_555
H17 C22 1_555 1_555
H18 C22 1_555 1_555
C23 C22 1_555 1_555
H19 C23 1_555 1_555
H20 C23 1_555 1_555
H21 C23 1_555 1_555
C24 N3 1_555 1_555
C25 C24 1_555 1_555
H22 C25 1_555 1_555
H23 C25 1_555 1_555
H24 C25 1_555 1_555
C1 C6 1_555 1_555
C5 C6 1_555 1_555
C8 C9 1_555 1_555
C10 C11 1_555 1_555
C16 C17 1_555 1_555

#END
