
#######################################################################
#
#                 Cambridge Crystallographic Data Centre
#                                CCDC 
#
#######################################################################
#
# If this CIF has been generated from an entry in the Cambridge 
# Structural Database, then it will include bibliographic, chemical, 
# crystal, experimental, refinement or atomic coordinate data resulting 
# from the CCDC's data processing and validation procedures.
#
#######################################################################

data_XAPBIC
_chemical_formula_moiety         'C20 H21 F2 N1 O5'
_chemical_name_systematic        
'diethyl 2-acetamido-2-(2-(difluoromethylene)-4-phenylbut-3-yn-1-yl)malonate'
_symmetry_cell_setting           monoclinic
_symmetry_space_group_name_H-M   'P 21/c'
_symmetry_Int_Tables_number      14
_space_group_name_Hall           '-P 2ybc'
loop_
_symmetry_equiv_pos_site_id
_symmetry_equiv_pos_as_xyz
1 x,y,z
2 -x,1/2+y,1/2-z
3 -x,-y,-z
4 x,1/2-y,1/2+z
_cell_length_a                   10.7953(10)
_cell_length_b                   21.8368(19)
_cell_length_c                   9.4439(8)
_cell_angle_alpha                90
_cell_angle_beta                 113.580(2)
_cell_angle_gamma                90
_cell_volume                     2040.37
_exptl_crystal_colour            colorless
_exptl_crystal_description       block
_cell_formula_units_Z            4
loop_
_atom_site_label
_atom_site_type_symbol
_atom_site_fract_x
_atom_site_fract_y
_atom_site_fract_z
N1 N 0.28156(19) 0.21173(8) 0.3527(2)
H1 H 0.2699 0.2225 0.4364
O1 O 0.18822(17) 0.11636(8) 0.02903(18)
O2 O 0.06542(16) 0.18897(8) 0.08225(18)
O3 O 0.13034(16) 0.06298(7) 0.30457(17)
O4 O 0.13170(17) 0.14052(7) 0.46316(19)
O5 O 0.33773(18) 0.23955(7) 0.15744(18)
F1 F 0.60764(16) 0.18912(8) 0.50206(18)
F2 F 0.64334(16) 0.14700(9) 0.72089(17)
C1 C 0.3306(3) 0.01222(12) 0.8885(3)
H2 H 0.3491 0.0539 0.9179
C2 C 0.2854(3) -0.02602(13) 0.9731(3)
H3 H 0.2712 -0.0105 1.0594
C3 C 0.2609(3) -0.08646(14) 0.9331(3)
H4 H 0.2317 -0.1131 0.9933
C4 C 0.2784(3) -0.10877(13) 0.8065(4)
H5 H 0.2603 -0.1506 0.7785
C5 C 0.3222(3) -0.07055(12) 0.7196(3)
H6 H 0.3338 -0.0862 0.6318
C6 C 0.3494(2) -0.00956(11) 0.7599(3)
C7 C 0.3945(2) 0.03064(12) 0.6693(3)
C8 C 0.4303(2) 0.06528(12) 0.5951(3)
C9 C 0.4653(2) 0.10854(11) 0.5026(3)
C10 C 0.5655(3) 0.14637(13) 0.5710(3)
C11 C 0.3824(2) 0.11255(11) 0.3311(2)
H7 H 0.3588 0.0707 0.2884
H8 H 0.4368 0.1322 0.2807
C12 C 0.2511(2) 0.14980(10) 0.2940(2)
C13 C 0.1682(2) 0.14987(11) 0.1180(3)
C14 C -0.0174(3) 0.19580(14) -0.0812(3)
H9 H -0.0641 0.1569 -0.1245
H10 H 0.0393 0.2073 -0.1374
C15 C -0.1173(3) 0.24467(14) -0.0966(4)
H11 H -0.1755 0.2506 -0.2061
H12 H -0.0698 0.2829 -0.0536
H13 H -0.1727 0.2328 -0.0405
C16 C 0.1633(2) 0.11858(11) 0.3663(2)
C17 C 0.0594(2) 0.02303(11) 0.3701(3)
H14 H -0.0336 0.0382 0.3440
H15 H 0.1072 0.0215 0.4840
C18 C 0.0560(3) -0.03931(13) 0.3022(4)
H16 H 0.0090 -0.0678 0.3439
H17 H 0.1486 -0.0537 0.3287
H18 H 0.0081 -0.0372 0.1896
C19 C 0.3277(2) 0.25293(11) 0.2792(3)
C20 C 0.3632(3) 0.31494(11) 0.3496(3)
H19 H 0.3953 0.3405 0.2858
H20 H 0.4346 0.3113 0.4537
H21 H 0.2831 0.3338 0.3557
loop_
_geom_bond_atom_site_label_1
_geom_bond_atom_site_label_2
_geom_bond_site_symmetry_1
_geom_bond_site_symmetry_2
N1 H1 1_555 1_555
O1 C13 1_555 1_555
O2 C13 1_555 1_555
O3 C16 1_555 1_555
O4 C16 1_555 1_555
O5 C19 1_555 1_555
F1 C10 1_555 1_555
F2 C10 1_555 1_555
C1 H2 1_555 1_555
C2 C1 1_555 1_555
H3 C2 1_555 1_555
C3 C2 1_555 1_555
H4 C3 1_555 1_555
C4 C3 1_555 1_555
H5 C4 1_555 1_555
C5 C4 1_555 1_555
H6 C5 1_555 1_555
C6 C1 1_555 1_555
C7 C6 1_555 1_555
C8 C7 1_555 1_555
C9 C8 1_555 1_555
C10 C9 1_555 1_555
C11 C9 1_555 1_555
H7 C11 1_555 1_555
H8 C11 1_555 1_555
C12 N1 1_555 1_555
C13 C12 1_555 1_555
C14 O2 1_555 1_555
H9 C14 1_555 1_555
H10 C14 1_555 1_555
C15 C14 1_555 1_555
H11 C15 1_555 1_555
H12 C15 1_555 1_555
H13 C15 1_555 1_555
C16 C12 1_555 1_555
C17 O3 1_555 1_555
H14 C17 1_555 1_555
H15 C17 1_555 1_555
C18 C17 1_555 1_555
H16 C18 1_555 1_555
H17 C18 1_555 1_555
H18 C18 1_555 1_555
C19 N1 1_555 1_555
C20 C19 1_555 1_555
H19 C20 1_555 1_555
H20 C20 1_555 1_555
H21 C20 1_555 1_555
C5 C6 1_555 1_555
C11 C12 1_555 1_555

#END
