
#######################################################################
#
#                 Cambridge Crystallographic Data Centre
#                                CCDC 
#
#######################################################################
#
# If this CIF has been generated from an entry in the Cambridge 
# Structural Database, then it will include bibliographic, chemical, 
# crystal, experimental, refinement or atomic coordinate data resulting 
# from the CCDC's data processing and validation procedures.
#
#######################################################################

data_XAPBAT
_chemical_formula_moiety         
'C34 H48 O12,C14 H22 N4 4+,4(Cl1 O4 1-),C4 H8 O2,3(H2 O1)'
_chemical_name_systematic        
"18,18'-ethene-1,2-diylbis(2,3,5,6,8,9,11,12,14,15-decahydro-1,4,7,10,13,16-benzohexaoxacyclooctadecine) 1,1'-bis(2-ammonioethyl)-4,4'-bipyridinium tetraperchlorate 1,4-dioxane solvate trihydrate"
_symmetry_cell_setting           triclinic
_symmetry_space_group_name_H-M   'P -1'
_symmetry_Int_Tables_number      2
_space_group_name_Hall           '-P 1'
loop_
_symmetry_equiv_pos_site_id
_symmetry_equiv_pos_as_xyz
1 x,y,z
2 -x,-y,-z
_cell_length_a                   8.7194(7)
_cell_length_b                   11.7380(10)
_cell_length_c                   17.3124(15)
_cell_angle_alpha                79.194(4)
_cell_angle_beta                 80.249(3)
_cell_angle_gamma                77.874(3)
_cell_volume                     1685.98
_exptl_crystal_colour            'dark blue'
_exptl_crystal_description       block
_cell_formula_units_Z            1
loop_
_atom_site_label
_atom_site_type_symbol
_atom_site_fract_x
_atom_site_fract_y
_atom_site_fract_z
O5 O 1.2132(10) -0.2295(8) 0.7441(5)
Cl2 Cl 1.3687(5) -0.2433(3) 0.7065(3)
O6 O 1.4062(17) -0.3382(11) 0.6601(9)
O7 O 1.4001(17) -0.1391(10) 0.6526(8)
O8 O 1.4770(19) -0.2727(17) 0.7633(9)
O13 O 0.0754(5) 0.4130(4) 0.7358(3)
O14 O -0.1741(6) 0.5516(4) 0.8240(3)
O15 O -0.2926(6) 0.4089(4) 0.9675(3)
O16 O -0.2187(6) 0.1542(4) 0.9807(3)
O17 O -0.0977(6) 0.0479(4) 0.8473(3)
O18 O 0.0824(6) 0.1929(4) 0.7271(3)
C1 C 0.0864(9) 0.5282(6) 0.7497(4)
H1 H 0.0449 0.5894 0.7068
H2 H 0.1984 0.5326 0.7502
C2 C -0.0094(8) 0.5491(6) 0.8288(4)
H3 H 0.0279 0.4852 0.8712
H4 H 0.0035 0.6251 0.8415
C3 C -0.2810(11) 0.5983(7) 0.8884(5)
H5 H -0.3912 0.6063 0.8778
H6 H -0.2629 0.6782 0.8903
C4 C -0.2623(11) 0.5224(7) 0.9684(5)
H7 H -0.1534 0.5156 0.9804
H8 H -0.3372 0.5595 1.0103
C5 C -0.2635(10) 0.3293(7) 1.0386(4)
H9 H -0.3193 0.3659 1.0851
H10 H -0.1487 0.3115 1.0424
C6 C -0.3205(9) 0.2178(6) 1.0385(4)
H11 H -0.3199 0.1689 1.0917
H12 H -0.4303 0.2365 1.0256
C7 C -0.2699(9) 0.0514(6) 0.9708(5)
H13 H -0.3631 0.0736 0.9419
H14 H -0.3005 0.0057 1.0233
C8 C -0.1362(11) -0.0216(7) 0.9248(5)
H15 H -0.0426 -0.0433 0.9535
H16 H -0.1678 -0.0951 0.9182
C9 C 0.0640(9) 0.0120(6) 0.8173(5)
H17 H 0.0877 -0.0750 0.8210
H18 H 0.1313 0.0339 0.8507
C10 C 0.1031(11) 0.0651(7) 0.7356(5)
H19 H 0.0347 0.0443 0.7022
H20 H 0.2145 0.0326 0.7164
C11 C 0.1829(8) 0.2495(6) 0.6711(4)
C12 C 0.2819(11) 0.1990(7) 0.6103(5)
H21 H 0.2828 0.1194 0.6059
C13 C 0.3801(10) 0.2640(6) 0.5553(5)
H22 H 0.4457 0.2280 0.5135
C14 C 0.3845(8) 0.3805(6) 0.5602(4)
C15 C 0.2814(8) 0.4324(6) 0.6208(4)
H23 H 0.2789 0.5125 0.6245
C16 C 0.1827(7) 0.3681(6) 0.6758(4)
C17 C 0.4906(8) 0.4461(6) 0.5017(4)
H24 H 0.5528 0.4046 0.4616
O13A O 0.9246(5) 0.5870(4) 0.2642(3)
O14A O 1.1741(6) 0.4484(4) 0.1760(3)
O15A O 1.2926(6) 0.5911(4) 0.0325(3)
O16A O 1.2187(6) 0.8458(4) 0.0193(3)
O17A O 1.0977(6) 0.9521(4) 0.1527(3)
O18A O 0.9176(6) 0.8071(4) 0.2729(3)
C1A C 0.9136(9) 0.4718(6) 0.2503(4)
H1A H 0.9551 0.4106 0.2932
H2A H 0.8016 0.4674 0.2498
C2A C 1.0094(8) 0.4509(6) 0.1712(4)
H3A H 0.9721 0.5148 0.1288
H4A H 0.9965 0.3749 0.1585
C3A C 1.2810(11) 0.4017(7) 0.1116(5)
H5A H 1.3912 0.3937 0.1222
H6A H 1.2629 0.3218 0.1097
C4A C 1.2623(11) 0.4776(7) 0.0316(5)
H7A H 1.1534 0.4844 0.0196
H8A H 1.3372 0.4405 -0.0103
C5A C 1.2635(10) 0.6707(7) -0.0386(4)
H9A H 1.3193 0.6341 -0.0851
H10A H 1.1487 0.6885 -0.0424
C6A C 1.3205(9) 0.7822(6) -0.0385(4)
H11A H 1.3199 0.8311 -0.0917
H12A H 1.4303 0.7635 -0.0256
C7A C 1.2699(9) 0.9486(6) 0.0292(5)
H13A H 1.3631 0.9264 0.0581
H14A H 1.3005 0.9943 -0.0233
C8A C 1.1362(11) 1.0216(7) 0.0752(5)
H15A H 1.0426 1.0433 0.0465
H16A H 1.1678 1.0951 0.0818
C9A C 0.9360(9) 0.9880(6) 0.1827(5)
H17A H 0.9123 1.0750 0.1790
H18A H 0.8687 0.9661 0.1493
C10A C 0.8969(11) 0.9349(7) 0.2644(5)
H19A H 0.9653 0.9557 0.2978
H20A H 0.7855 0.9674 0.2836
C11A C 0.8171(8) 0.7505(6) 0.3289(4)
C12A C 0.7181(11) 0.8010(7) 0.3897(5)
H21A H 0.7172 0.8806 0.3941
C13A C 0.6199(10) 0.7360(6) 0.4447(5)
H22A H 0.5543 0.7720 0.4865
C14A C 0.6155(8) 0.6195(6) 0.4398(4)
C15A C 0.7186(8) 0.5676(6) 0.3792(4)
H23A H 0.7211 0.4875 0.3755
C16A C 0.8173(7) 0.6319(6) 0.3242(4)
C17A C 0.5094(8) 0.5539(6) 0.4983(4)
H24A H 0.4472 0.5954 0.5384
N1 N -0.1768(7) 0.3004(6) 0.8304(4)
H25 H -0.148(8) 0.241(5) 0.861(4)
H26 H -0.212(6) 0.349(6) 0.859(5)
H27 H -0.107(6) 0.318(7) 0.796(3)
N2 N -0.2681(8) 0.4201(7) 0.6660(4)
C18 C -0.3065(9) 0.2808(8) 0.7933(5)
H28 H -0.3895 0.2555 0.8358
H29 H -0.2656 0.2151 0.7625
C19 C -0.3806(10) 0.3843(9) 0.7400(5)
H30 H -0.4167 0.4518 0.7695
H31 H -0.4749 0.3657 0.7236
C20 C -0.2326(10) 0.5270(8) 0.6529(5)
H32 H -0.2786 0.5805 0.6890
C21 C -0.1295(10) 0.5610(8) 0.5871(5)
H33 H -0.1064 0.6384 0.5775
C22 C -0.0587(8) 0.4822(7) 0.5345(4)
C23 C -0.1036(11) 0.3752(8) 0.5499(5)
H34 H -0.0619 0.3203 0.5143
C24 C -0.2080(11) 0.3442(9) 0.6159(5)
H35 H -0.2370 0.2687 0.6254
N1A N 0.1768(7) 0.6996(6) 0.1696(4)
H25A H 0.148(8) 0.759(5) 0.139(4)
H26A H 0.212(6) 0.651(6) 0.141(5)
H27A H 0.107(6) 0.682(7) 0.204(3)
N2A N 0.2681(8) 0.5799(7) 0.3340(4)
C18A C 0.3065(9) 0.7192(8) 0.2067(5)
H28A H 0.3895 0.7445 0.1642
H29A H 0.2656 0.7849 0.2375
C19A C 0.3806(10) 0.6157(9) 0.2600(5)
H30A H 0.4167 0.5482 0.2305
H31A H 0.4749 0.6343 0.2764
C20A C 0.2326(10) 0.4730(8) 0.3471(5)
H32A H 0.2786 0.4195 0.3110
C21A C 0.1295(10) 0.4390(8) 0.4129(5)
H33A H 0.1064 0.3616 0.4225
C22A C 0.0587(8) 0.5178(7) 0.4655(4)
C23A C 0.1036(11) 0.6248(8) 0.4501(5)
H34A H 0.0619 0.6797 0.4857
C24A C 0.2080(11) 0.6558(9) 0.3841(5)
H35A H 0.2370 0.7313 0.3746
O19 O 0.844(3) -0.1770(16) 0.6221(14)
O20 O 0.7415(17) 0.0691(11) 0.6455(8)
C25 C 0.809(3) -0.1528(16) 0.7013(13)
H36 H 0.9099 -0.1552 0.7215
H37 H 0.7562 -0.2148 0.7353
C26 C 0.696(3) -0.0237(17) 0.7070(12)
H38 H 0.5857 -0.0299 0.7042
H39 H 0.6983 -0.0019 0.7593
C27 C 0.765(3) 0.0361(18) 0.5696(12)
H40 H 0.8020 0.1001 0.5296
H41 H 0.6622 0.0260 0.5569
C28 C 0.889(4) -0.083(2) 0.5637(16)
H42 H 0.8981 -0.1040 0.5102
H43 H 0.9945 -0.0708 0.5711
Cl1 Cl 0.2774(2) 0.25115(15) 0.89819(11)
O1 O 0.3164(6) 0.3639(4) 0.8599(3)
O2 O 0.1085(6) 0.2581(5) 0.9116(3)
O3 O 0.3484(7) 0.1627(5) 0.8482(4)
O4 O 0.3395(7) 0.2189(4) 0.9721(4)
Cl3? Cl 1.4241(17) -0.2341(10) 0.6845(8)
O9? O 1.426(2) -0.3571(11) 0.6947(12)
O10? O 1.342(3) -0.1697(17) 0.6219(11)
O11? O 1.362(3) -0.1910(18) 0.7574(10)
O12? O 1.587(2) -0.218(2) 0.6658(15)
O21? O 1.042(3) -0.1989(18) 0.5894(13)
O22? O 0.594(3) -0.057(2) 0.7981(15)
O23? O 0.686(5) -0.019(4) 0.527(2)
O24? O 0.763(5) -0.144(3) 0.753(2)
Cl4? Cl 1.3266(9) -0.2341(7) 0.6717(5)
O25? O 1.252(2) -0.257(2) 0.6125(9)
O26? O 1.452(3) -0.333(3) 0.6921(16)
O27? O 1.389(4) -0.130(3) 0.6512(17)
loop_
_geom_bond_atom_site_label_1
_geom_bond_atom_site_label_2
_geom_bond_site_symmetry_1
_geom_bond_site_symmetry_2
Cl1 O1 1_555 1_555
O2 Cl1 1_555 1_555
O3 Cl1 1_555 1_555
O4 Cl1 1_555 1_555
O5 Cl2 1_555 1_555
Cl2 O6 1_555 1_555
O7 Cl2 1_555 1_555
O8 Cl2 1_555 1_555
O13 C1 1_555 1_555
O14 C2 1_555 1_555
O15 C4 1_555 1_555
O16 C6 1_555 1_555
O17 C8 1_555 1_555
O18 C10 1_555 1_555
C1 H1 1_555 1_555
H2 C1 1_555 1_555
C2 C1 1_555 1_555
H3 C2 1_555 1_555
H4 C2 1_555 1_555
C3 O14 1_555 1_555
H5 C3 1_555 1_555
H6 C3 1_555 1_555
C4 C3 1_555 1_555
H7 C4 1_555 1_555
H8 C4 1_555 1_555
C5 O15 1_555 1_555
H9 C5 1_555 1_555
H10 C5 1_555 1_555
C6 C5 1_555 1_555
H11 C6 1_555 1_555
H12 C6 1_555 1_555
C7 O16 1_555 1_555
H13 C7 1_555 1_555
H14 C7 1_555 1_555
C8 C7 1_555 1_555
H15 C8 1_555 1_555
H16 C8 1_555 1_555
C9 O17 1_555 1_555
H17 C9 1_555 1_555
H18 C9 1_555 1_555
C10 C9 1_555 1_555
H19 C10 1_555 1_555
H20 C10 1_555 1_555
C11 O18 1_555 1_555
C12 C11 1_555 1_555
H21 C12 1_555 1_555
C13 C12 1_555 1_555
H22 C13 1_555 1_555
C14 C13 1_555 1_555
C15 C14 1_555 1_555
H23 C15 1_555 1_555
C16 O13 1_555 1_555
C17 C14 1_555 1_555
H24 C17 1_555 1_555
N1 H25 1_555 1_555
H26 N1 1_555 1_555
H27 N1 1_555 1_555
N2 C19 1_555 1_555
C18 N1 1_555 1_555
H28 C18 1_555 1_555
H29 C18 1_555 1_555
C19 C18 1_555 1_555
H30 C19 1_555 1_555
H31 C19 1_555 1_555
C20 N2 1_555 1_555
H32 C20 1_555 1_555
C21 C20 1_555 1_555
H33 C21 1_555 1_555
C22 C21 1_555 1_555
C23 C22 1_555 1_555
H34 C23 1_555 1_555
C24 N2 1_555 1_555
H35 C24 1_555 1_555
O19 C25 1_555 1_555
O20 C26 1_555 1_555
C25 H36 1_555 1_555
H37 C25 1_555 1_555
C26 C25 1_555 1_555
H38 C26 1_555 1_555
H39 C26 1_555 1_555
C27 O20 1_555 1_555
H40 C27 1_555 1_555
H41 C27 1_555 1_555
C28 O19 1_555 1_555
H42 C28 1_555 1_555
H43 C28 1_555 1_555
O13A C1A 1_555 1_555
O14A C2A 1_555 1_555
O15A C4A 1_555 1_555
O16A C6A 1_555 1_555
O17A C8A 1_555 1_555
O18A C10A 1_555 1_555
C1A H1A 1_555 1_555
H2A C1A 1_555 1_555
C2A C1A 1_555 1_555
H3A C2A 1_555 1_555
H4A C2A 1_555 1_555
C3A O14A 1_555 1_555
H5A C3A 1_555 1_555
H6A C3A 1_555 1_555
C4A C3A 1_555 1_555
H7A C4A 1_555 1_555
H8A C4A 1_555 1_555
C5A O15A 1_555 1_555
H9A C5A 1_555 1_555
H10A C5A 1_555 1_555
C6A C5A 1_555 1_555
H11A C6A 1_555 1_555
H12A C6A 1_555 1_555
C7A O16A 1_555 1_555
H13A C7A 1_555 1_555
H14A C7A 1_555 1_555
C8A C7A 1_555 1_555
H15A C8A 1_555 1_555
H16A C8A 1_555 1_555
C9A O17A 1_555 1_555
H17A C9A 1_555 1_555
H18A C9A 1_555 1_555
C10A C9A 1_555 1_555
H19A C10A 1_555 1_555
H20A C10A 1_555 1_555
C11A O18A 1_555 1_555
C12A C11A 1_555 1_555
H21A C12A 1_555 1_555
C13A C12A 1_555 1_555
H22A C13A 1_555 1_555
C14A C13A 1_555 1_555
C15A C14A 1_555 1_555
H23A C15A 1_555 1_555
C16A O13A 1_555 1_555
C17A C17 1_555 1_555
H24A C17A 1_555 1_555
N1A H25A 1_555 1_555
H26A N1A 1_555 1_555
H27A N1A 1_555 1_555
N2A C19A 1_555 1_555
C18A N1A 1_555 1_555
H28A C18A 1_555 1_555
H29A C18A 1_555 1_555
C19A C18A 1_555 1_555
H30A C19A 1_555 1_555
H31A C19A 1_555 1_555
C20A N2A 1_555 1_555
H32A C20A 1_555 1_555
C21A C20A 1_555 1_555
H33A C21A 1_555 1_555
C22A C22 1_555 1_555
C23A C22A 1_555 1_555
H34A C23A 1_555 1_555
C24A N2A 1_555 1_555
H35A C24A 1_555 1_555
C11 C16 1_555 1_555
C15 C16 1_555 1_555
C23 C24 1_555 1_555
C27 C28 1_555 1_555
C11A C16A 1_555 1_555
C14A C17A 1_555 1_555
C15A C16A 1_555 1_555
C21A C22A 1_555 1_555
C23A C24A 1_555 1_555

#END
