
#######################################################################
#
#                 Cambridge Crystallographic Data Centre
#                                CCDC 
#
#######################################################################
#
# If this CIF has been generated from an entry in the Cambridge 
# Structural Database, then it will include bibliographic, chemical, 
# crystal, experimental, refinement or atomic coordinate data resulting 
# from the CCDC's data processing and validation procedures.
#
#######################################################################

data_XAPBEY
_chemical_formula_moiety         'C20 H22 F3 N1 O5'
_chemical_name_systematic        
'(Z)-diethyl 1-acetyl-5-benzylidene-4-(trifluoromethyl)pyrrolidine-2,2-dicarboxylate'
_symmetry_cell_setting           triclinic
_symmetry_space_group_name_H-M   'P -1'
_symmetry_Int_Tables_number      2
_space_group_name_Hall           '-P 1'
loop_
_symmetry_equiv_pos_site_id
_symmetry_equiv_pos_as_xyz
1 x,y,z
2 -x,-y,-z
_cell_length_a                   8.8343(4)
_cell_length_b                   10.9242(5)
_cell_length_c                   10.9439(5)
_cell_angle_alpha                103.635(2)
_cell_angle_beta                 97.925(2)
_cell_angle_gamma                91.114(2)
_cell_volume                     1015.12
_exptl_crystal_colour            colorless
_exptl_crystal_description       block
_cell_formula_units_Z            2
loop_
_atom_site_label
_atom_site_type_symbol
_atom_site_fract_x
_atom_site_fract_y
_atom_site_fract_z
N1 N 0.7447(2) 0.22502(17) 0.30896(16)
O1 O 0.4490(2) 0.1908(2) 0.04119(17)
O2 O 0.45896(18) 0.29193(18) 0.24411(15)
O3 O 0.9137(2) 0.31681(19) 0.1216(2)
O4 O 0.6882(2) 0.40276(17) 0.08941(16)
O5 O 0.8011(2) 0.43307(16) 0.36443(16)
F1 F 0.9527(2) -0.09810(19) 0.3042(2)
F2 F 0.9625(2) -0.09665(18) 0.1105(2)
F3 F 1.02967(19) 0.07039(18) 0.2589(2)
C1 C 0.5501(3) 0.2446(3) 0.5429(3)
H1 H 0.5287 0.2737 0.4693
C2 C 0.4980(4) 0.3081(4) 0.6524(3)
H2 H 0.4417 0.3791 0.6520
C3 C 0.5287(4) 0.2670(4) 0.7616(3)
H3 H 0.4944 0.3103 0.8357
C4 C 0.6101(4) 0.1619(5) 0.7609(3)
H4 H 0.6315 0.1339 0.8351
C5 C 0.6609(3) 0.0969(3) 0.6513(3)
H5 H 0.7140 0.0242 0.6517
C6 C 0.6335(3) 0.1389(3) 0.5406(2)
C7 C 0.6880(3) 0.0651(2) 0.4257(2)
H6 H 0.6919 -0.0209 0.4208
C8 C 0.7328(3) 0.1011(2) 0.3274(2)
C9 C 0.7659(3) 0.0129(2) 0.2068(2)
H7 H 0.6947 -0.0615 0.1850
C10 C 0.7357(3) 0.0880(2) 0.1056(2)
H8 H 0.6527 0.0472 0.0402
H9 H 0.8265 0.0944 0.0662
C11 C 0.6923(3) 0.2208(2) 0.17422(19)
C12 C 0.5193(3) 0.2327(2) 0.1448(2)
C13 C 0.2931(3) 0.3064(4) 0.2228(3)
H10 H 0.2686 0.3526 0.1577
H11 H 0.2397 0.2240 0.1938
C14 C 0.2451(4) 0.3724(5) 0.3377(4)
H12 H 0.1366 0.3814 0.3237
H13 H 0.2970 0.4544 0.3653
H14 H 0.2692 0.3262 0.4017
C15 C 0.7802(3) 0.3210(2) 0.1284(2)
C16 C 0.7598(4) 0.4953(3) 0.0352(3)
H15 H 0.6812 0.5321 -0.0138
H16 H 0.8274 0.4531 -0.0222
C17 C 0.8489(5) 0.5974(3) 0.1351(4)
H17 H 0.8946 0.6559 0.0959
H18 H 0.9277 0.5615 0.1831
H19 H 0.7819 0.6408 0.1908
C18 C 0.8144(3) 0.3323(2) 0.3921(2)
C19 C 0.9116(3) 0.3178(3) 0.5116(2)
H20 H 0.9527 0.3992 0.5611
H21 H 0.9939 0.2647 0.4897
H22 H 0.8501 0.2802 0.5603
C20 C 0.9268(4) -0.0276(3) 0.2203(3)
loop_
_geom_bond_atom_site_label_1
_geom_bond_atom_site_label_2
_geom_bond_site_symmetry_1
_geom_bond_site_symmetry_2
N1 C8 1_555 1_555
O1 C12 1_555 1_555
O2 C12 1_555 1_555
O3 C15 1_555 1_555
O4 C15 1_555 1_555
O5 C18 1_555 1_555
F1 C20 1_555 1_555
F2 C20 1_555 1_555
F3 C20 1_555 1_555
C1 H1 1_555 1_555
C2 C1 1_555 1_555
H2 C2 1_555 1_555
C3 C2 1_555 1_555
H3 C3 1_555 1_555
C4 C3 1_555 1_555
H4 C4 1_555 1_555
C5 C4 1_555 1_555
H5 C5 1_555 1_555
C6 C1 1_555 1_555
C7 C6 1_555 1_555
H6 C7 1_555 1_555
C8 C7 1_555 1_555
C9 C8 1_555 1_555
H7 C9 1_555 1_555
C10 C9 1_555 1_555
H8 C10 1_555 1_555
H9 C10 1_555 1_555
C11 N1 1_555 1_555
C12 C11 1_555 1_555
C13 O2 1_555 1_555
H10 C13 1_555 1_555
H11 C13 1_555 1_555
C14 C13 1_555 1_555
H12 C14 1_555 1_555
H13 C14 1_555 1_555
H14 C14 1_555 1_555
C15 C11 1_555 1_555
C16 O4 1_555 1_555
H15 C16 1_555 1_555
H16 C16 1_555 1_555
C17 C16 1_555 1_555
H17 C17 1_555 1_555
H18 C17 1_555 1_555
H19 C17 1_555 1_555
C18 N1 1_555 1_555
C19 C18 1_555 1_555
H20 C19 1_555 1_555
H21 C19 1_555 1_555
H22 C19 1_555 1_555
C20 C9 1_555 1_555
C5 C6 1_555 1_555
C10 C11 1_555 1_555

#END
