
#######################################################################
#
#                 Cambridge Crystallographic Data Centre
#                                CCDC 
#
#######################################################################
#
# If this CIF has been generated from an entry in the Cambridge 
# Structural Database, then it will include bibliographic, chemical, 
# crystal, experimental, refinement or atomic coordinate data resulting 
# from the CCDC's data processing and validation procedures.
#
#######################################################################

data_XAPCUO
_chemical_formula_moiety         'C23 H17 N1 O2'
_chemical_name_systematic        
4-(1-Anthryl)-4-azatricyclo[5.2.1.0^2,6^]dec-8-ene-3,5-dione
_symmetry_cell_setting           monoclinic
_symmetry_space_group_name_H-M   'P 21/c'
_symmetry_Int_Tables_number      14
_space_group_name_Hall           '-P 2ybc'
loop_
_symmetry_equiv_pos_site_id
_symmetry_equiv_pos_as_xyz
1 x,y,z
2 -x,1/2+y,1/2-z
3 -x,-y,-z
4 x,1/2-y,1/2+z
_cell_length_a                   21.1065(15)
_cell_length_b                   6.0864(4)
_cell_length_c                   12.9348(10)
_cell_angle_alpha                90
_cell_angle_beta                 90.950(4)
_cell_angle_gamma                90
_cell_volume                     1661.41
_exptl_crystal_colour            'light brown'
_exptl_crystal_description       needle
_cell_formula_units_Z            4
loop_
_atom_site_label
_atom_site_type_symbol
_atom_site_fract_x
_atom_site_fract_y
_atom_site_fract_z
O1 O 0.26021(10) 0.4162(3) 0.13214(16)
O2 O 0.34043(9) 1.0308(3) 0.28738(17)
N1 N 0.28674(10) 0.7282(4) 0.22401(17)
C1 C 0.28909(13) 0.5868(5) 0.1391(2)
C2 C 0.33423(13) 0.6822(5) 0.0629(2)
H1 H 0.3120 0.7124 -0.0046
C3 C 0.35853(12) 0.8968(5) 0.1118(2)
H2 H 0.3456 1.0274 0.0695
C4 C 0.32928(12) 0.9028(5) 0.2175(2)
C5 C 0.39603(13) 0.5486(5) 0.0455(2)
H3 H 0.3926 0.4216 -0.0033
C6 C 0.42352(13) 0.4991(5) 0.1522(3)
H4 H 0.4249 0.3594 0.1848
C7 C 0.44529(13) 0.6862(5) 0.1914(2)
H5 H 0.4656 0.7039 0.2570
C8 C 0.43197(13) 0.8662(5) 0.1136(2)
H6 H 0.4579 1.0030 0.1211
C9 C 0.43949(14) 0.7379(5) 0.0127(2)
H7 H 0.4837 0.6900 0.0013
H8 H 0.4230 0.8185 -0.0485
C10 C 0.24937(12) 0.6804(5) 0.3137(2)
C11 C 0.26105(14) 0.4944(5) 0.3683(2)
H9 H 0.2937 0.3971 0.3476
C12 C 0.22443(14) 0.4452(5) 0.4566(2)
H10 H 0.2322 0.3139 0.4944
C13 C 0.17864(14) 0.5848(5) 0.4866(2)
H11 H 0.1556 0.5524 0.5472
C14 C 0.16388(13) 0.7792(5) 0.4301(2)
C15 C 0.11472(13) 0.9178(5) 0.4577(2)
H12 H 0.0926 0.8891 0.5196
C16 C 0.09679(13) 1.0981(5) 0.3973(2)
C17 C 0.04584(14) 1.2403(6) 0.4239(3)
H13 H 0.0230 1.2131 0.4852
C18 C 0.02963(15) 1.4119(6) 0.3637(3)
H14 H -0.0043 1.5048 0.3831
C19 C 0.06273(15) 1.4556(6) 0.2714(3)
H15 H 0.0502 1.5755 0.2288
C20 C 0.11222(14) 1.3275(5) 0.2436(3)
H16 H 0.1346 1.3606 0.1824
C21 C 0.13106(13) 1.1442(5) 0.3051(2)
C22 C 0.18243(13) 1.0102(5) 0.2790(2)
H17 H 0.2062 1.0443 0.2193
C23 C 0.19944(12) 0.8283(5) 0.3386(2)
loop_
_geom_bond_atom_site_label_1
_geom_bond_atom_site_label_2
_geom_bond_site_symmetry_1
_geom_bond_site_symmetry_2
O1 C1 1_555 1_555
O2 C4 1_555 1_555
N1 C1 1_555 1_555
C1 C2 1_555 1_555
C2 H1 1_555 1_555
C3 C2 1_555 1_555
H2 C3 1_555 1_555
C4 N1 1_555 1_555
C5 C2 1_555 1_555
H3 C5 1_555 1_555
C6 C5 1_555 1_555
H4 C6 1_555 1_555
C7 C6 1_555 1_555
H5 C7 1_555 1_555
C8 C3 1_555 1_555
H6 C8 1_555 1_555
C9 C5 1_555 1_555
H7 C9 1_555 1_555
H8 C9 1_555 1_555
C10 N1 1_555 1_555
C11 C10 1_555 1_555
H9 C11 1_555 1_555
C12 C11 1_555 1_555
H10 C12 1_555 1_555
C13 C12 1_555 1_555
H11 C13 1_555 1_555
C14 C13 1_555 1_555
C15 C14 1_555 1_555
H12 C15 1_555 1_555
C16 C15 1_555 1_555
C17 C16 1_555 1_555
H13 C17 1_555 1_555
C18 C17 1_555 1_555
H14 C18 1_555 1_555
C19 C18 1_555 1_555
H15 C19 1_555 1_555
C20 C19 1_555 1_555
H16 C20 1_555 1_555
C21 C16 1_555 1_555
C22 C21 1_555 1_555
H17 C22 1_555 1_555
C23 C10 1_555 1_555
C3 C4 1_555 1_555
C7 C8 1_555 1_555
C8 C9 1_555 1_555
C14 C23 1_555 1_555
C20 C21 1_555 1_555
C22 C23 1_555 1_555

#END
