
#######################################################################
#
#                 Cambridge Crystallographic Data Centre
#                                CCDC 
#
#######################################################################
#
# If this CIF has been generated from an entry in the Cambridge 
# Structural Database, then it will include bibliographic, chemical, 
# crystal, experimental, refinement or atomic coordinate data resulting 
# from the CCDC's data processing and validation procedures.
#
#######################################################################

data_XAPCIC
_chemical_formula_moiety         'C43 H29 N1 O2,C1 H2 Cl2'
_chemical_name_systematic        
'15-(1-Anthryl)-3,10-diphenyl-15-azapentacyclo[10.5.1.0^2,11^.0^4,9^.0^13,17^]octadeca-2(11),3,5,7,9-pentaene-14,16-dione dichloromethane solvate'
_symmetry_cell_setting           triclinic
_symmetry_space_group_name_H-M   'P -1'
_symmetry_Int_Tables_number      2
_space_group_name_Hall           '-P 1'
loop_
_symmetry_equiv_pos_site_id
_symmetry_equiv_pos_as_xyz
1 x,y,z
2 -x,-y,-z
_cell_length_a                   9.1481(6)
_cell_length_b                   13.7312(9)
_cell_length_c                   14.6068(9)
_cell_angle_alpha                74.5560(10)
_cell_angle_beta                 73.6130(10)
_cell_angle_gamma                79.9020(10)
_cell_volume                     1686.74
_exptl_crystal_colour            'light brown'
_exptl_crystal_description       plate
_cell_formula_units_Z            2
loop_
_atom_site_label
_atom_site_type_symbol
_atom_site_fract_x
_atom_site_fract_y
_atom_site_fract_z
O1 O 0.01373(17) 0.00234(10) 0.20953(10)
O2 O 0.18966(15) 0.02782(10) 0.46425(9)
N1 N 0.12721(17) -0.00320(11) 0.33319(11)
C1 C 0.0268(2) 0.03963(14) 0.27220(13)
C2 C -0.0526(2) 0.13776(13) 0.29812(12)
H1 H -0.1664 0.1370 0.3189
C3 C 0.01063(19) 0.14809(13) 0.38205(12)
H2 H -0.0739 0.1537 0.4418
C4 C 0.1195(2) 0.05297(13) 0.40162(12)
C5 C -0.0052(2) 0.23388(13) 0.21504(13)
H3 H -0.0637 0.2540 0.1632
C6 C -0.0240(2) 0.31103(14) 0.27862(13)
H4 H -0.1296 0.3201 0.3198
H5 H 0.0097 0.3777 0.2396
C7 C 0.09020(19) 0.24828(13) 0.33846(12)
H6 H 0.1098 0.2804 0.3872
C8 C 0.22719(19) 0.22888(12) 0.25604(12)
C9 C 0.16747(19) 0.22034(13) 0.17875(12)
C10 C 0.2596(2) 0.20307(13) 0.09197(12)
C11 C 0.4224(2) 0.19076(13) 0.08076(12)
C12 C 0.5262(2) 0.17249(15) -0.00670(13)
H7 H 0.4872 0.1691 -0.0595
C13 C 0.6817(2) 0.15956(16) -0.01724(14)
H8 H 0.7491 0.1477 -0.0768
C14 C 0.7410(2) 0.16388(15) 0.06010(14)
H9 H 0.8486 0.1535 0.0533
C15 C 0.6439(2) 0.18302(14) 0.14537(13)
H10 H 0.6856 0.1865 0.1969
C16 C 0.4829(2) 0.19772(13) 0.15846(12)
C17 C 0.3814(2) 0.21946(13) 0.24765(12)
C18 C 0.1946(2) 0.20024(14) 0.00967(12)
C19 C 0.1846(2) 0.10859(15) -0.01037(14)
H11 H 0.2197 0.0465 0.0285
C20 C 0.1236(2) 0.10711(17) -0.08668(14)
H12 H 0.1157 0.0440 -0.0991
C21 C 0.0745(2) 0.19679(18) -0.14454(14)
H13 H 0.0331 0.1955 -0.1969
C22 C 0.0855(3) 0.28811(18) -0.12642(15)
H14 H 0.0528 0.3499 -0.1670
C23 C 0.1442(2) 0.29057(16) -0.04884(15)
H15 H 0.1498 0.3539 -0.0359
C24 C 0.44718(19) 0.23581(14) 0.32464(12)
C25 C 0.4755(2) 0.33326(15) 0.32079(14)
H16 H 0.4489 0.3888 0.2714
C26 C 0.5428(2) 0.34988(18) 0.38901(16)
H17 H 0.5621 0.4166 0.3859
C27 C 0.5814(2) 0.2697(2) 0.46110(15)
H18 H 0.6274 0.2812 0.5075
C28 C 0.5534(2) 0.17347(19) 0.46569(15)
H19 H 0.5800 0.1184 0.5155
C29 C 0.4865(2) 0.15591(16) 0.39811(14)
H20 H 0.4673 0.0889 0.4020
C30 C 0.2374(2) -0.08929(14) 0.31736(12)
C31 C 0.3880(2) -0.07439(16) 0.28056(14)
H21 H 0.4185 -0.0085 0.2684
C32 C 0.4995(2) -0.15667(17) 0.26033(14)
H22 H 0.6050 -0.1464 0.2376
C33 C 0.4565(2) -0.24994(16) 0.27332(14)
H23 H 0.5322 -0.3040 0.2578
C34 C 0.2996(2) -0.26825(14) 0.30988(13)
C35 C 0.2517(2) -0.36267(15) 0.32098(14)
H24 H 0.3261 -0.4164 0.3030
C36 C 0.0988(2) -0.38071(14) 0.35745(14)
C37 C 0.0484(3) -0.47651(16) 0.36639(16)
H25 H 0.1211 -0.5304 0.3469
C38 C -0.1011(3) -0.49129(17) 0.40214(17)
H26 H -0.1325 -0.5555 0.4078
C39 C -0.2118(3) -0.41192(17) 0.43134(17)
H27 H -0.3166 -0.4234 0.4559
C40 C -0.1697(2) -0.31984(16) 0.42469(15)
H28 H -0.2453 -0.2677 0.4451
C41 C -0.0132(2) -0.30043(14) 0.38737(13)
C42 C 0.0330(2) -0.20564(14) 0.37626(12)
H29 H -0.0410 -0.1527 0.3964
C43 C 0.1857(2) -0.18681(14) 0.33628(12)
C44 C 0.2916(3) 0.58293(19) 1.0108(2)
H30 H 0.2124 0.6354 1.0352
H31 H 0.3922 0.6100 0.9907
Cl1 Cl 0.29420(9) 0.47255(5) 1.10581(5)
Cl2 Cl 0.25306(12) 0.55736(6) 0.90954(7)
loop_
_geom_bond_atom_site_label_1
_geom_bond_atom_site_label_2
_geom_bond_site_symmetry_1
_geom_bond_site_symmetry_2
O1 C1 1_555 1_555
O2 C4 1_555 1_555
N1 C1 1_555 1_555
C1 C2 1_555 1_555
C2 H1 1_555 1_555
C3 C2 1_555 1_555
H2 C3 1_555 1_555
C4 N1 1_555 1_555
C5 C2 1_555 1_555
H3 C5 1_555 1_555
C6 C5 1_555 1_555
H4 C6 1_555 1_555
H5 C6 1_555 1_555
C7 C3 1_555 1_555
H6 C7 1_555 1_555
C8 C7 1_555 1_555
C9 C5 1_555 1_555
C10 C9 1_555 1_555
C11 C10 1_555 1_555
C12 C11 1_555 1_555
H7 C12 1_555 1_555
C13 C12 1_555 1_555
H8 C13 1_555 1_555
C14 C13 1_555 1_555
H9 C14 1_555 1_555
C15 C14 1_555 1_555
H10 C15 1_555 1_555
C16 C11 1_555 1_555
C17 C8 1_555 1_555
C18 C10 1_555 1_555
C19 C18 1_555 1_555
H11 C19 1_555 1_555
C20 C19 1_555 1_555
H12 C20 1_555 1_555
C21 C20 1_555 1_555
H13 C21 1_555 1_555
C22 C21 1_555 1_555
H14 C22 1_555 1_555
C23 C18 1_555 1_555
H15 C23 1_555 1_555
C24 C17 1_555 1_555
C25 C24 1_555 1_555
H16 C25 1_555 1_555
C26 C25 1_555 1_555
H17 C26 1_555 1_555
C27 C26 1_555 1_555
H18 C27 1_555 1_555
C28 C27 1_555 1_555
H19 C28 1_555 1_555
C29 C24 1_555 1_555
H20 C29 1_555 1_555
C30 N1 1_555 1_555
C31 C30 1_555 1_555
H21 C31 1_555 1_555
C32 C31 1_555 1_555
H22 C32 1_555 1_555
C33 C32 1_555 1_555
H23 C33 1_555 1_555
C34 C33 1_555 1_555
C35 C34 1_555 1_555
H24 C35 1_555 1_555
C36 C35 1_555 1_555
C37 C36 1_555 1_555
H25 C37 1_555 1_555
C38 C37 1_555 1_555
H26 C38 1_555 1_555
C39 C38 1_555 1_555
H27 C39 1_555 1_555
C40 C39 1_555 1_555
H28 C40 1_555 1_555
C41 C36 1_555 1_555
C42 C41 1_555 1_555
H29 C42 1_555 1_555
C43 C30 1_555 1_555
C44 H30 1_555 1_555
H31 C44 1_555 1_555
Cl1 C44 1_555 1_555
Cl2 C44 1_555 1_555
C3 C4 1_555 1_555
C6 C7 1_555 1_555
C8 C9 1_555 1_555
C15 C16 1_555 1_555
C16 C17 1_555 1_555
C22 C23 1_555 1_555
C28 C29 1_555 1_555
C34 C43 1_555 1_555
C40 C41 1_555 1_555
C42 C43 1_555 1_555

#END
