
#######################################################################
#
#                 Cambridge Crystallographic Data Centre
#                                CCDC 
#
#######################################################################
#
# If this CIF has been generated from an entry in the Cambridge 
# Structural Database, then it will include bibliographic, chemical, 
# crystal, experimental, refinement or atomic coordinate data resulting 
# from the CCDC's data processing and validation procedures.
#
#######################################################################

data_XAPDAV
_chemical_formula_moiety         'C23 H17 N1 O2,C1 H1 Cl3'
_chemical_name_systematic        
'4-(2-Anthryl)-4-azatricyclo[5.2.1.0^2,6^]dec-8-ene-3,5-dione chloroform solvate'
_symmetry_cell_setting           monoclinic
_symmetry_space_group_name_H-M   'P 21/c'
_symmetry_Int_Tables_number      14
_space_group_name_Hall           '-P 2ybc'
loop_
_symmetry_equiv_pos_site_id
_symmetry_equiv_pos_as_xyz
1 x,y,z
2 -x,1/2+y,1/2-z
3 -x,-y,-z
4 x,1/2-y,1/2+z
_cell_length_a                   14.0259(6)
_cell_length_b                   6.2593(3)
_cell_length_c                   24.8603(11)
_cell_angle_alpha                90
_cell_angle_beta                 103.114(2)
_cell_angle_gamma                90
_cell_volume                     2125.62
_exptl_crystal_colour            'light brown'
_exptl_crystal_description       needle
_cell_formula_units_Z            4
loop_
_atom_site_label
_atom_site_type_symbol
_atom_site_fract_x
_atom_site_fract_y
_atom_site_fract_z
O1 O 0.47567(13) 0.8403(3) 0.77222(8)
O2 O 0.69901(13) 0.4005(3) 0.87973(7)
N1 N 0.60253(14) 0.6358(3) 0.81996(8)
C1 C 0.50400(18) 0.6909(4) 0.80217(10)
C2 C 0.44463(18) 0.5384(4) 0.82776(9)
H1 H 0.3981 0.4564 0.7986
C3 C 0.52041(18) 0.3876(4) 0.86332(10)
H2 H 0.5092 0.2361 0.8507
C4 C 0.61817(18) 0.4671(4) 0.85665(9)
C5 C 0.39039(19) 0.6375(4) 0.86992(11)
H3 H 0.3258 0.7064 0.8540
C6 C 0.4648(2) 0.7730(5) 0.90859(11)
H4 H 0.4650 0.9246 0.9107
C7 C 0.5301(2) 0.6427(5) 0.93918(10)
H5 H 0.5857 0.6846 0.9667
C8 C 0.50061(19) 0.4183(4) 0.92248(10)
H6 H 0.5272 0.3047 0.9501
C9 C 0.38843(19) 0.4412(4) 0.90685(11)
H7 H 0.3553 0.3165 0.8862
H8 H 0.3601 0.4724 0.9390
C10 C 0.67797(16) 0.7429(4) 0.79953(9)
C11 C 0.70728(17) 0.9484(4) 0.82015(10)
H9 H 0.6804 1.0089 0.8485
C12 C 0.77392(18) 1.0596(4) 0.79944(10)
H10 H 0.7934 1.1979 0.8135
C13 C 0.81505(17) 0.9715(4) 0.75687(10)
C14 C 0.88453(17) 1.0810(4) 0.73519(10)
H11 H 0.9045 1.2197 0.7487
C15 C 0.92541(17) 0.9912(4) 0.69398(10)
C16 C 0.99936(18) 1.1000(4) 0.67309(11)
H12 H 1.0203 1.2385 0.6864
C17 C 1.0396(2) 1.0048(5) 0.63411(11)
H13 H 1.0895 1.0766 0.6210
C18 C 1.0082(2) 0.8018(5) 0.61315(11)
H14 H 1.0365 0.7393 0.5856
C19 C 0.93793(19) 0.6935(5) 0.63168(11)
H15 H 0.9172 0.5570 0.6168
C20 C 0.89535(17) 0.7839(4) 0.67325(10)
C21 C 0.82545(17) 0.6735(4) 0.69499(10)
H16 H 0.8049 0.5355 0.6811
C22 C 0.78530(16) 0.7619(4) 0.73658(9)
C23 C 0.71479(17) 0.6505(4) 0.75950(9)
H17 H 0.6939 0.5116 0.7466
C24 C 0.7924(2) 1.1155(5) 0.98438(12)
H18 H 0.7623 1.1873 0.9486
Cl1 Cl 0.70032(6) 1.07132(15) 1.02062(4)
Cl2 Cl 0.84222(9) 0.87544(17) 0.96998(4)
Cl3 Cl 0.88099(8) 1.28424(18) 1.02233(4)
loop_
_geom_bond_atom_site_label_1
_geom_bond_atom_site_label_2
_geom_bond_site_symmetry_1
_geom_bond_site_symmetry_2
O1 C1 1_555 1_555
O2 C4 1_555 1_555
N1 C1 1_555 1_555
C1 C2 1_555 1_555
C2 H1 1_555 1_555
C3 C2 1_555 1_555
H2 C3 1_555 1_555
C4 N1 1_555 1_555
C5 C2 1_555 1_555
H3 C5 1_555 1_555
C6 C5 1_555 1_555
H4 C6 1_555 1_555
C7 C6 1_555 1_555
H5 C7 1_555 1_555
C8 C3 1_555 1_555
H6 C8 1_555 1_555
C9 C5 1_555 1_555
H7 C9 1_555 1_555
H8 C9 1_555 1_555
C10 N1 1_555 1_555
C11 C10 1_555 1_555
H9 C11 1_555 1_555
C12 C11 1_555 1_555
H10 C12 1_555 1_555
C13 C12 1_555 1_555
C14 C13 1_555 1_555
H11 C14 1_555 1_555
C15 C14 1_555 1_555
C16 C15 1_555 1_555
H12 C16 1_555 1_555
C17 C16 1_555 1_555
H13 C17 1_555 1_555
C18 C17 1_555 1_555
H14 C18 1_555 1_555
C19 C18 1_555 1_555
H15 C19 1_555 1_555
C20 C15 1_555 1_555
C21 C20 1_555 1_555
H16 C21 1_555 1_555
C22 C13 1_555 1_555
C23 C10 1_555 1_555
H17 C23 1_555 1_555
C24 H18 1_555 1_555
Cl1 C24 1_555 1_555
Cl2 C24 1_555 1_555
Cl3 C24 1_555 1_555
C3 C4 1_555 1_555
C7 C8 1_555 1_555
C8 C9 1_555 1_555
C19 C20 1_555 1_555
C21 C22 1_555 1_555
C22 C23 1_555 1_555

#END
