
#######################################################################
#
#                 Cambridge Crystallographic Data Centre
#                                CCDC 
#
#######################################################################
#
# If this CIF has been generated from an entry in the Cambridge 
# Structural Database, then it will include bibliographic, chemical, 
# crystal, experimental, refinement or atomic coordinate data resulting 
# from the CCDC's data processing and validation procedures.
#
#######################################################################

data_XAPFAX
_chemical_formula_moiety         'C17 H20 O3'
_chemical_name_systematic        
1,1-Dimethyl-1,3,4b,10,11,11a-hexahydro-2H,6H-cyclopenta[c]naphtho[1,2-b]furan-6,7(6aH)-dione
_symmetry_cell_setting           monoclinic
_symmetry_space_group_name_H-M   'P 21'
_symmetry_Int_Tables_number      4
_space_group_name_Hall           'P 2yb'
loop_
_symmetry_equiv_pos_site_id
_symmetry_equiv_pos_as_xyz
1 x,y,z
2 -x,1/2+y,-z
_cell_length_a                   6.6621(6)
_cell_length_b                   6.6337(6)
_cell_length_c                   16.6396(14)
_cell_angle_alpha                90
_cell_angle_beta                 98.936(5)
_cell_angle_gamma                90
_cell_volume                     726.451
_cell_formula_units_Z            2
loop_
_atom_site_label
_atom_site_type_symbol
_atom_site_fract_x
_atom_site_fract_y
_atom_site_fract_z
C1 C -0.4357(4) 0.4833(4) 0.05613(16)
C2 C -0.3137(3) 0.4947(4) 0.14160(14)
H1 H -0.3586 0.3964 0.1790
C3 C -0.3230(5) 0.7101(5) 0.17123(16)
C4 C 0.0166(4) 0.6382(4) 0.18256(16)
H2 H 0.1298 0.6891 0.1572
C5 C -0.0920(3) 0.4654(4) 0.13037(13)
C6 C -0.1037(4) 0.4966(5) 0.03982(14)
H3 H 0.0104 0.5141 0.0147
C7 C -0.2906(4) 0.4967(5) -0.00022(15)
H4 H -0.3246 0.5043 -0.0565
C8 C 0.0938(4) 0.5728(4) 0.26869(15)
C9 C 0.0394(4) 0.6620(5) 0.33271(17)
H5 H -0.0467 0.7729 0.3242
C10 C 0.1085(5) 0.5947(6) 0.41842(19)
H6 H -0.0059 0.5976 0.4481
H7 H 0.2103 0.6878 0.4447
C11 C 0.1966(5) 0.3845(6) 0.42202(18)
H8 H 0.0863 0.2878 0.4125
H9 H 0.2702 0.3608 0.4762
C12 C 0.3388(4) 0.3490(5) 0.36051(16)
C13 C 0.2231(4) 0.3864(4) 0.27368(15)
H10 H 0.3245 0.4055 0.2375
C14 C 0.0805(5) 0.2139(4) 0.23823(16)
H11 H 0.1541 0.0872 0.2429
H12 H -0.0320 0.2026 0.2686
C15 C 0.0013(4) 0.2566(4) 0.15037(15)
H13 H -0.1008 0.1560 0.1313
H14 H 0.1122 0.2389 0.1195
C16 C 0.5158(5) 0.5005(7) 0.37546(19)
H15 H 0.4656 0.6338 0.3618
H16 H 0.6160 0.4657 0.3422
H17 H 0.5760 0.4966 0.4317
C17 C 0.4290(6) 0.1391(6) 0.3695(2)
H18 H 0.5142 0.1274 0.4214
H19 H 0.5083 0.1153 0.3270
H20 H 0.3216 0.0415 0.3659
O1 O -0.6181(3) 0.4700(5) 0.04121(14)
O2 O -0.4707(4) 0.8029(4) 0.18110(14)
O3 O -0.1364(3) 0.7919(3) 0.18088(12)
loop_
_geom_bond_atom_site_label_1
_geom_bond_atom_site_label_2
_geom_bond_site_symmetry_1
_geom_bond_site_symmetry_2
C1 C2 1_555 1_555
C2 H1 1_555 1_555
C3 C2 1_555 1_555
C4 H2 1_555 1_555
C5 C2 1_555 1_555
C6 C5 1_555 1_555
H3 C6 1_555 1_555
C7 C1 1_555 1_555
H4 C7 1_555 1_555
C8 C4 1_555 1_555
C9 C8 1_555 1_555
H5 C9 1_555 1_555
C10 C9 1_555 1_555
H6 C10 1_555 1_555
H7 C10 1_555 1_555
C11 C10 1_555 1_555
H8 C11 1_555 1_555
H9 C11 1_555 1_555
C12 C11 1_555 1_555
C13 C8 1_555 1_555
H10 C13 1_555 1_555
C14 C13 1_555 1_555
H11 C14 1_555 1_555
H12 C14 1_555 1_555
C15 C5 1_555 1_555
H13 C15 1_555 1_555
H14 C15 1_555 1_555
C16 C12 1_555 1_555
H15 C16 1_555 1_555
H16 C16 1_555 1_555
H17 C16 1_555 1_555
C17 C12 1_555 1_555
H18 C17 1_555 1_555
H19 C17 1_555 1_555
H20 C17 1_555 1_555
O1 C1 1_555 1_555
O2 C3 1_555 1_555
O3 C3 1_555 1_555
C4 C5 1_555 1_555
C4 O3 1_555 1_555
C6 C7 1_555 1_555
C12 C13 1_555 1_555
C14 C15 1_555 1_555

#END
