
#######################################################################
#
#                 Cambridge Crystallographic Data Centre
#                                CCDC 
#
#######################################################################
#
# If this CIF has been generated from an entry in the Cambridge 
# Structural Database, then it will include bibliographic, chemical, 
# crystal, experimental, refinement or atomic coordinate data resulting 
# from the CCDC's data processing and validation procedures.
#
#######################################################################

data_XAPGIG
_chemical_name_common            
'tris(tetramethylcucurbit[6]uril) bis(diethyl viologen) tetranitrate tetracontahydrate'
_chemical_formula_moiety         
'3(C40 H44 N24 O12),2(C14 H18 N2 2+),4(N1 O3 1-),40(H2 O1)'
_chemical_name_systematic        
"tris(tetramethylcucurbit[6]uril) bis(4,4'-diethyl-4,4'-bipyridinium) tetranitrate tetracontahydrate"
_symmetry_cell_setting           triclinic
_symmetry_space_group_name_H-M   'P -1'
_symmetry_Int_Tables_number      2
_space_group_name_Hall           '-P 1'
loop_
_symmetry_equiv_pos_site_id
_symmetry_equiv_pos_as_xyz
1 x,y,z
2 -x,-y,-z
_cell_length_a                   15.398(13)
_cell_length_b                   16.552(14)
_cell_length_c                   22.17(3)
_cell_angle_alpha                107.914(15)
_cell_angle_beta                 108.623(15)
_cell_angle_gamma                96.654(11)
_cell_volume                     4949.27
_exptl_crystal_colour            colorless
_exptl_crystal_description       block
_cell_formula_units_Z            1
loop_
_atom_site_label
_atom_site_type_symbol
_atom_site_fract_x
_atom_site_fract_y
_atom_site_fract_z
C1 C 1.0405(7) 0.0109(7) 0.4342(5)
C2 C 0.9035(6) -0.0587(5) 0.3339(4)
C3 C 0.9806(7) -0.1182(6) 0.3315(5)
C4 C 0.9454(6) -0.0696(6) 0.2368(5)
C5 C 0.8083(6) -0.1036(6) 0.3285(5)
H1 H 0.7789 -0.1517 0.2855
H2 H 0.7690 -0.0627 0.3314
H3 H 0.8167 -0.1248 0.3652
C6 C 0.9448(8) -0.2091(7) 0.3316(7)
H4 H 0.9346 -0.2025 0.3732
H5 H 0.9908 -0.2429 0.3285
H6 H 0.8865 -0.2384 0.2932
C7 C 1.1485(8) -0.0920(9) 0.4208(6)
H7 H 1.1782 -0.0632 0.4701
H8 H 1.1330 -0.1545 0.4103
C8 C 1.0490(6) -0.1755(6) 0.2402(5)
H9 H 1.0212 -0.1911 0.1910
H10 H 1.0435 -0.2292 0.2492
C9 C 1.2950(8) -0.0088(9) 0.4245(6)
C10 C 1.2191(7) -0.1301(7) 0.3306(6)
H11 H 1.2158 -0.1888 0.3325
C11 C 1.3147(6) -0.0937(7) 0.3293(5)
H12 H 1.3557 -0.1345 0.3326
C12 C 1.1920(6) -0.1135(5) 0.2233(5)
C13 C 1.4499(7) 0.0377(8) 0.4155(5)
H13 H 1.4702 0.0656 0.4648
H14 H 1.4910 -0.0005 0.4063
C14 C 1.3509(7) -0.0531(6) 0.2357(5)
H15 H 1.3194 -0.0734 0.1864
H16 H 1.4041 -0.0797 0.2451
C15 C 1.4753(8) 0.1928(8) 0.4276(6)
C16 C 1.4686(7) 0.0895(6) 0.3215(5)
H17 H 1.5229 0.0646 0.3199
C17 C 1.4849(6) 0.1836(6) 0.3186(5)
H18 H 1.5426 0.1986 0.3105
C18 C 1.3499(6) 0.0957(6) 0.2256(6)
C19 C 1.5287(6) 0.3344(6) 0.4146(5)
H19 H 1.5783 0.3483 0.3988
H20 H 1.5567 0.3531 0.4641
C20 C 1.3933(6) 0.2484(5) 0.2356(5)
H21 H 1.4542 0.2716 0.2358
H22 H 1.3496 0.2229 0.1883
C21 C 1.4083(7) 0.4117(7) 0.4348(5)
C22 C 1.4225(6) 0.3980(6) 0.3311(5)
C23 C 1.3533(6) 0.4591(5) 0.3439(5)
C24 C 1.2719(6) 0.3352(6) 0.2427(4)
C25 C 1.5030(7) 0.4410(6) 0.3191(6)
H23 H 1.4797 0.4492 0.2763
H24 H 1.5472 0.4047 0.3180
H25 H 1.5337 0.4967 0.3555
C26 C 1.3891(7) 0.5573(6) 0.3508(6)
H26 H 1.3945 0.5573 0.3088
H27 H 1.4495 0.5830 0.3875
H28 H 1.3447 0.5906 0.3602
C27 C 1.2890(7) 0.4997(8) 0.4406(5)
H29 H 1.2981 0.5589 0.4412
H30 H 1.3129 0.5028 0.4876
C28 C 1.1819(6) 0.4479(7) 0.2608(5)
H31 H 1.1510 0.4225 0.2114
H32 H 1.2016 0.5106 0.2735
C29 C 1.1475(7) 0.4316(7) 0.4481(5)
C30 C 1.1231(6) 0.4800(6) 0.3590(5)
H33 H 1.1358 0.5429 0.3684
C31 C 1.0235(7) 0.4437(6) 0.3595(5)
H34 H 0.9868 0.4882 0.3637
C32 C 1.0280(6) 0.3736(6) 0.2496(5)
C33 C 0.9838(7) 0.3870(6) 0.4437(5)
H35 H 0.9330 0.4168 0.4366
H36 H 1.0150 0.4021 0.4926
C34 C 0.8808(6) 0.3200(6) 0.2662(5)
H37 H 0.8423 0.3586 0.2801
H38 H 0.8581 0.2981 0.2166
C35 C 0.9694(7) 0.2360(6) 0.4464(5)
C36 C 0.8597(7) 0.2518(6) 0.3502(5)
H39 H 0.8058 0.2756 0.3551
C37 C 0.8435(6) 0.1526(7) 0.3426(5)
H40 H 0.7791 0.1307 0.3384
C38 C 0.8669(6) 0.1630(5) 0.2468(5)
C39 C 0.9118(7) 0.0810(6) 0.4310(5)
H41 H 0.9471 0.1034 0.4800
H42 H 0.8475 0.0545 0.4228
C40 C 0.8279(5) 0.0154(5) 0.2485(4)
H43 H 0.8152 0.0020 0.2003
H44 H 0.7691 -0.0052 0.2525
N1 N 0.9526(5) 0.0148(5) 0.3981(4)
N2 N 1.0594(5) -0.0630(6) 0.3954(4)
N3 N 0.8958(5) -0.0330(4) 0.2739(4)
N4 N 0.9949(5) -0.1219(5) 0.2714(4)
N5 N 1.2148(6) -0.0719(7) 0.3897(5)
N6 N 1.3523(6) -0.0154(6) 0.3879(5)
N7 N 1.1494(5) -0.1339(5) 0.2641(4)
N8 N 1.2873(5) -0.0849(5) 0.2621(4)
N9 N 1.4599(7) 0.1043(6) 0.3868(5)
N10 N 1.4906(6) 0.2391(6) 0.3855(5)
N11 N 1.3878(5) 0.0420(4) 0.2614(4)
N12 N 1.4022(5) 0.1787(5) 0.2637(4)
N13 N 1.4546(5) 0.3850(5) 0.3956(4)
N14 N 1.3426(5) 0.4531(6) 0.4047(4)
N15 N 1.3609(5) 0.3207(5) 0.2716(4)
N16 N 1.2655(5) 0.4144(5) 0.2811(4)
N17 N 1.1891(5) 0.4585(6) 0.4095(4)
N18 N 1.0485(6) 0.4174(5) 0.4189(4)
N19 N 1.1122(5) 0.4302(5) 0.2913(4)
N20 N 0.9788(5) 0.3707(4) 0.2938(4)
N21 N 0.9441(5) 0.2938(4) 0.4119(4)
N22 N 0.9113(5) 0.1548(5) 0.4066(4)
N23 N 0.8689(5) 0.2482(4) 0.2877(4)
N24 N 0.8571(5) 0.1080(5) 0.2828(4)
O1 O 1.0971(5) 0.0614(5) 0.4898(3)
O2 O 1.3138(5) 0.0504(7) 0.4821(4)
O3 O 1.4846(6) 0.2228(6) 0.4842(5)
O4 O 1.4210(5) 0.4082(5) 0.4915(4)
O5 O 1.1873(5) 0.4154(6) 0.4995(4)
O6 O 1.0296(5) 0.2556(4) 0.5028(3)
O7 O 0.9446(5) -0.0694(4) 0.1824(3)
O8 O 1.1508(5) -0.1204(4) 0.1657(4)
O9 O 1.2849(5) 0.0673(4) 0.1703(4)
O10 O 1.2118(4) 0.2851(4) 0.1891(3)
O11 O 0.9971(5) 0.3329(4) 0.1875(4)
O12 O 0.8674(5) 0.1416(4) 0.1900(3)
C41 C 0.3649(6) 0.3108(6) 0.0909(5)
C42 C 0.2881(6) 0.1932(6) -0.0137(5)
C43 C 0.2203(7) 0.2570(5) -0.0040(5)
C44 C 0.2399(7) 0.2376(6) -0.1070(6)
C45 C 0.2523(8) 0.0973(6) -0.0212(7)
H45 H 0.2442 0.0971 0.0200
H46 H 0.2977 0.0643 -0.0289
H47 H 0.1931 0.0714 -0.0592
C46 C 0.1295(7) 0.2155(7) -0.0032(7)
H48 H 0.1421 0.1988 0.0360
H49 H 0.0979 0.1646 -0.0441
H50 H 0.0901 0.2564 -0.0009
C47 C 0.2474(8) 0.4029(6) 0.0959(5)
H51 H 0.2818 0.4215 0.1448
H52 H 0.1808 0.3851 0.0869
C48 C 0.1417(9) 0.3379(6) -0.0815(6)
H53 H 0.0888 0.3300 -0.0674
H54 H 0.1166 0.3215 -0.1308
C49 C 0.3246(8) 0.5550(6) 0.1149(5)
C50 C 0.2193(6) 0.5792(5) 0.0205(5)
H55 H 0.1715 0.6119 0.0262
C51 C 0.1891(6) 0.4836(6) 0.0151(5)
H56 H 0.1266 0.4713 0.0172
C52 C 0.2047(8) 0.4818(7) -0.0877(6)
C53 C 0.3522(6) 0.7079(5) 0.1161(5)
H57 H 0.3029 0.7397 0.1142
H58 H 0.3878 0.7192 0.1638
C54 C 0.2405(6) 0.6378(6) -0.0678(5)
H59 H 0.2000 0.6758 -0.0565
H60 H 0.2207 0.6139 -0.1173
C55 C 0.5071(8) 0.7720(7) 0.1233(5)
C56 C 0.4712(7) 0.8122(6) 0.0268(7)
H61 H 0.4725 0.8738 0.0338
C57 C 0.3791(6) 0.7635(6) 0.0280(6)
H62 H 0.3349 0.8011 0.0319
C58 C 0.3891(8) 0.6990(9) -0.0804(6)
C59 C 0.3566(8) 0.1463(7) -0.1079(6)
H63 H 0.3579 0.0931 -0.0981
H64 H 0.3290 0.1297 -0.1571
C60 C 0.4618(7) 0.2058(8) 0.0647(6)
H65 H 0.4897 0.2249 0.1142
H66 H 0.4465 0.1425 0.0465
N25 N 0.3762(5) 0.2343(5) 0.0464(4)
N26 N 0.2782(6) 0.3280(4) 0.0602(4)
N27 N 0.2980(6) 0.1919(5) -0.0782(4)
N28 N 0.2005(6) 0.2798(5) -0.0641(4)
N29 N 0.2632(6) 0.4766(5) 0.0738(4)
N30 N 0.3082(5) 0.6151(5) 0.0817(4)
N31 N 0.1902(6) 0.4299(5) -0.0503(4)
N32 N 0.2303(5) 0.5683(5) -0.0437(4)
N33 N 0.4147(5) 0.7419(5) 0.0879(4)
N34 N 0.4541(5) 0.1982(5) -0.0824(4)
N35 N 0.3419(5) 0.6910(5) -0.0366(5)
N36 N 0.5312(6) 0.2371(6) 0.0409(4)
O13 O 0.4199(5) 0.3560(4) 0.1496(3)
O14 O 0.3873(6) 0.5722(4) 0.1713(4)
O15 O 0.5536(7) 0.7682(8) 0.1764(4)
O16 O 0.2254(6) 0.2358(5) -0.1662(4)
O17 O 0.3635(5) 0.6569(7) -0.1401(4)
O18 O 0.1942(8) 0.4533(5) -0.1459(4)
C41A C 0.6351(6) 0.6892(6) -0.0909(5)
C42A C 0.7119(6) 0.8068(6) 0.0137(5)
C43A C 0.7797(7) 0.7430(5) 0.0040(5)
C44A C 0.7601(7) 0.7624(6) 0.1070(6)
C45A C 0.7477(8) 0.9027(6) 0.0212(7)
H45A H 0.7558 0.9029 -0.0200
H46A H 0.7023 0.9357 0.0289
H47A H 0.8069 0.9286 0.0592
C46A C 0.8705(7) 0.7845(7) 0.0032(7)
H48A H 0.8579 0.8012 -0.0360
H49A H 0.9021 0.8354 0.0441
H50A H 0.9099 0.7436 0.0009
C47A C 0.7526(8) 0.5971(6) -0.0959(5)
H51A H 0.7182 0.5785 -0.1448
H52A H 0.8192 0.6149 -0.0869
C48A C 0.8583(9) 0.6621(6) 0.0815(6)
H53A H 0.9112 0.6700 0.0674
H54A H 0.8834 0.6785 0.1308
C49A C 0.6754(8) 0.4450(6) -0.1149(5)
C50A C 0.7807(6) 0.4208(5) -0.0205(5)
H55A H 0.8285 0.3881 -0.0262
C51A C 0.8109(6) 0.5164(6) -0.0151(5)
H56A H 0.8734 0.5287 -0.0172
C52A C 0.7953(8) 0.5182(7) 0.0877(6)
C53A C 0.6478(6) 0.2921(5) -0.1161(5)
H57A H 0.6971 0.2603 -0.1142
H58A H 0.6122 0.2808 -0.1638
C54A C 0.7595(6) 0.3622(6) 0.0678(5)
H59A H 0.8000 0.3242 0.0565
H60A H 0.7793 0.3861 0.1173
C55A C 0.4929(8) 0.2280(7) -0.1233(5)
C56A C 0.5288(7) 0.1878(6) -0.0268(7)
H61A H 0.5275 0.1262 -0.0338
C57A C 0.6209(6) 0.2365(6) -0.0280(6)
H62A H 0.6651 0.1989 -0.0319
C58A C 0.6109(8) 0.3010(9) 0.0804(6)
C59A C 0.6434(8) 0.8537(7) 0.1079(6)
H63A H 0.6421 0.9069 0.0981
H64A H 0.6710 0.8703 0.1571
C60A C 0.5382(7) 0.7942(8) -0.0647(6)
H65A H 0.5103 0.7751 -0.1142
H66A H 0.5535 0.8575 -0.0465
N25A N 0.6238(5) 0.7657(5) -0.0464(4)
N26A N 0.7218(6) 0.6720(4) -0.0602(4)
N27A N 0.7020(6) 0.8081(5) 0.0782(4)
N28A N 0.7995(6) 0.7202(5) 0.0641(4)
N29A N 0.7368(6) 0.5234(5) -0.0738(4)
N30A N 0.6918(5) 0.3849(5) -0.0817(4)
N31A N 0.8098(6) 0.5701(5) 0.0503(4)
N32A N 0.7697(5) 0.4317(5) 0.0437(4)
N33A N 0.5853(5) 0.2581(5) -0.0879(4)
N34A N 0.5459(5) 0.8018(5) 0.0824(4)
N35A N 0.6581(5) 0.3090(5) 0.0366(5)
N36A N 0.4688(6) 0.7629(6) -0.0409(4)
O13A O 0.5801(5) 0.6440(4) -0.1496(3)
O14A O 0.6127(6) 0.4278(4) -0.1713(4)
O15A O 0.4464(7) 0.2318(8) -0.1764(4)
O16A O 0.7746(6) 0.7642(5) 0.1662(4)
O17A O 0.6365(5) 0.3431(7) 0.1401(4)
O18A O 0.8058(8) 0.5467(5) 0.1459(4)
C61 C 1.0202(8) 0.1475(7) 0.1331(5)
H67 H 1.0074 0.2018 0.1493
C62 C 0.9909(8) 0.1028(7) 0.0656(6)
H68 H 0.9545 0.1257 0.0356
C63 C 1.0129(5) 0.0233(5) 0.0386(5)
C64 C 1.0578(6) -0.0105(6) 0.0874(6)
H69 H 1.0692 -0.0659 0.0731
C65 C 1.0842(7) 0.0341(6) 0.1529(5)
H70 H 1.1152 0.0096 0.1836
C66 C 1.0956(9) 0.1594(8) 0.2500(6)
H71 H 1.1161 0.2209 0.2586
H72 H 1.0388 0.1526 0.2599
C67 C 1.1637(14) 0.1396(12) 0.2972(7)
H73 H 1.1722 0.1767 0.3425
H74 H 1.2220 0.1486 0.2904
H75 H 1.1443 0.0796 0.2916
N37 N 1.0689(5) 0.1124(5) 0.1775(4)
C61A C 0.9798(8) -0.1475(7) -0.1331(5)
H67A H 0.9926 -0.2018 -0.1493
C62A C 1.0091(8) -0.1028(7) -0.0656(6)
H68A H 1.0455 -0.1257 -0.0356
C63A C 0.9871(5) -0.0233(5) -0.0386(5)
C64A C 0.9422(6) 0.0105(6) -0.0874(6)
H69A H 0.9308 0.0659 -0.0731
C65A C 0.9158(7) -0.0341(6) -0.1529(5)
H70A H 0.8848 -0.0096 -0.1836
C66A C 0.9044(9) -0.1594(8) -0.2500(6)
H71A H 0.8839 -0.2209 -0.2586
H72A H 0.9612 -0.1526 -0.2599
C67A C 0.8363(14) -0.1396(12) -0.2972(7)
H73A H 0.8278 -0.1767 -0.3425
H74A H 0.7780 -0.1486 -0.2904
H75A H 0.8557 -0.0796 -0.2916
N37A N 0.9311(5) -0.1124(5) -0.1775(4)
C68 C 0.6381(11) 0.6098(10) 0.1440(8)
H76 H 0.6849 0.6613 0.1685
C69 C 0.5970(12) 0.5847(9) 0.0746(8)
H77 H 0.6195 0.6155 0.0518
C70 C 0.5229(6) 0.5143(6) 0.0395(5)
C71 C 0.5006(13) 0.4673(9) 0.0747(9)
H78 H 0.4554 0.4145 0.0523
C72 C 0.5448(11) 0.4982(9) 0.1421(8)
H79 H 0.5217 0.4683 0.1652
C73 C 0.6663(11) 0.5930(11) 0.2528(8)
H80 H 0.6640 0.5435 0.2674
H81 H 0.7318 0.6171 0.2623
C74 C 0.6334(18) 0.6545(11) 0.2899(11)
H82 H 0.6716 0.6724 0.3377
H83 H 0.5693 0.6305 0.2822
H84 H 0.6361 0.7041 0.2762
N38 N 0.6132(6) 0.5621(6) 0.1788(5)
C68A C 0.3619(11) 0.3902(10) -0.1440(8)
H76A H 0.3151 0.3387 -0.1685
C69A C 0.4030(12) 0.4153(9) -0.0746(8)
H77A H 0.3805 0.3845 -0.0518
C70A C 0.4771(6) 0.4857(6) -0.0395(5)
C71A C 0.4994(13) 0.5327(9) -0.0747(9)
H78A H 0.5446 0.5855 -0.0523
C72A C 0.4552(11) 0.5018(9) -0.1421(8)
H79A H 0.4783 0.5317 -0.1652
C73A C 0.3337(11) 0.4070(11) -0.2528(8)
H80A H 0.3360 0.4565 -0.2674
H81A H 0.2682 0.3829 -0.2623
C74A C 0.3666(18) 0.3455(11) -0.2899(11)
H82A H 0.3284 0.3276 -0.3377
H83A H 0.4307 0.3695 -0.2822
H84A H 0.3639 0.2959 -0.2762
N38A N 0.3868(6) 0.4379(6) -0.1788(5)
N39 N 0.0868(11) 0.5994(8) 0.1278(7)
O19 O 0.0241(9) 0.5496(9) 0.0858(10)
O20 O 0.1175(13) 0.6754(10) 0.1402(11)
O21 O 0.1523(15) 0.5663(14) 0.1625(10)
O22 O 0.0026(6) 0.3738(6) 0.0740(4)
O23 O 0.8781(7) 0.2241(6) -0.0330(4)
O24 O 0.6744(6) 0.0315(7) 0.4106(5)
O25 O 1.5490(8) -0.1306(8) 0.3075(6)
O26 O 0.7633(8) 0.4510(8) 0.3668(5)
O27 O 0.2616(9) 0.8537(7) -0.0689(5)
O28 O 0.5718(13) 1.0264(8) 0.0518(8)
O29 O 0.2417(9) 0.9192(8) 0.0508(6)
O30 O 0.8787(9) 0.6007(7) 0.3693(5)
O31 O 0.9563(15) 0.5645(10) 0.2696(6)
O32 O 1.3053(16) -0.3021(9) 0.2736(9)
O33 O 1.1453(16) -0.3352(8) 0.3262(12)
O34 O 1.485(3) -0.2149(12) 0.3890(10)
O35 O 0.6421(5) 0.2975(7) 0.2558(4)
N40? N 0.7597(16) 0.2789(13) 0.4916(18)
N41? N 1.5828(14) 0.0593(17) 0.2030(11)
N42? N 0.717(2) 0.785(3) 0.501(2)
O36? O 1.6303(16) 0.1184(13) 0.2247(12)
O37? O 0.7068(9) 0.2218(11) 0.4310(10)
O38? O 0.7843(11) 0.3457(14) 0.4805(7)
O39? O 0.751(3) 0.220(3) 0.5180(16)
O40? O 0.7952(12) 0.7825(12) 0.4936(9)
O41? O 0.6166(12) 0.6999(10) 0.4431(9)
O42? O 1.5126(17) 0.071(3) 0.1606(14)
O43? O 1.584(2) -0.0190(13) 0.224(2)
O44? O 0.706(2) 0.713(2) 0.512(3)
loop_
_geom_bond_atom_site_label_1
_geom_bond_atom_site_label_2
_geom_bond_site_symmetry_1
_geom_bond_site_symmetry_2
C1 N1 1_555 1_555
C2 C3 1_555 1_555
C3 C6 1_555 1_555
C4 N3 1_555 1_555
C5 C2 1_555 1_555
H1 C5 1_555 1_555
H2 C5 1_555 1_555
H3 C5 1_555 1_555
C6 H4 1_555 1_555
H5 C6 1_555 1_555
H6 C6 1_555 1_555
C7 H7 1_555 1_555
H8 C7 1_555 1_555
C8 H9 1_555 1_555
H10 C8 1_555 1_555
C9 N5 1_555 1_555
C10 H11 1_555 1_555
C11 C10 1_555 1_555
H12 C11 1_555 1_555
C12 N7 1_555 1_555
C13 H13 1_555 1_555
H14 C13 1_555 1_555
C14 H15 1_555 1_555
H16 C14 1_555 1_555
C15 N9 1_555 1_555
C16 H17 1_555 1_555
C17 C16 1_555 1_555
H18 C17 1_555 1_555
C18 N11 1_555 1_555
C19 H19 1_555 1_555
H20 C19 1_555 1_555
C20 H21 1_555 1_555
H22 C20 1_555 1_555
C21 N13 1_555 1_555
C22 C23 1_555 1_555
C23 C26 1_555 1_555
C24 N15 1_555 1_555
C25 C22 1_555 1_555
H23 C25 1_555 1_555
H24 C25 1_555 1_555
H25 C25 1_555 1_555
C26 H26 1_555 1_555
H27 C26 1_555 1_555
H28 C26 1_555 1_555
C27 H29 1_555 1_555
H30 C27 1_555 1_555
C28 H31 1_555 1_555
H32 C28 1_555 1_555
C29 N17 1_555 1_555
C30 H33 1_555 1_555
C31 C30 1_555 1_555
H34 C31 1_555 1_555
C32 N19 1_555 1_555
C33 H35 1_555 1_555
H36 C33 1_555 1_555
C34 H37 1_555 1_555
H38 C34 1_555 1_555
C35 N21 1_555 1_555
C36 H39 1_555 1_555
C37 C36 1_555 1_555
H40 C37 1_555 1_555
C38 N23 1_555 1_555
C39 H41 1_555 1_555
H42 C39 1_555 1_555
C40 H43 1_555 1_555
H44 C40 1_555 1_555
N1 C2 1_555 1_555
N2 C1 1_555 1_555
N3 C2 1_555 1_555
N4 C3 1_555 1_555
N5 C7 1_555 1_555
N6 C9 1_555 1_555
N7 C8 1_555 1_555
N8 C11 1_555 1_555
N9 C13 1_555 1_555
N10 C15 1_555 1_555
N11 C14 1_555 1_555
N12 C17 1_555 1_555
N13 C19 1_555 1_555
N14 C21 1_555 1_555
N15 C20 1_555 1_555
N16 C23 1_555 1_555
N17 C27 1_555 1_555
N18 C29 1_555 1_555
N19 C28 1_555 1_555
N20 C31 1_555 1_555
N21 C33 1_555 1_555
N22 C35 1_555 1_555
N23 C34 1_555 1_555
N24 C37 1_555 1_555
O1 C1 1_555 1_555
O2 C9 1_555 1_555
O3 C15 1_555 1_555
O4 C21 1_555 1_555
O5 C29 1_555 1_555
O6 C35 1_555 1_555
O7 C4 1_555 1_555
O8 C12 1_555 1_555
O9 C18 1_555 1_555
O10 C24 1_555 1_555
O11 C32 1_555 1_555
O12 C38 1_555 1_555
C41 N25 1_555 1_555
C42 C43 1_555 1_555
C43 C46 1_555 1_555
C44 N27 1_555 1_555
C45 C42 1_555 1_555
H45 C45 1_555 1_555
H46 C45 1_555 1_555
H47 C45 1_555 1_555
C46 H48 1_555 1_555
H49 C46 1_555 1_555
H50 C46 1_555 1_555
C47 H51 1_555 1_555
H52 C47 1_555 1_555
C48 H53 1_555 1_555
H54 C48 1_555 1_555
C49 N29 1_555 1_555
C50 H55 1_555 1_555
C51 C50 1_555 1_555
H56 C51 1_555 1_555
C52 N31 1_555 1_555
C53 H57 1_555 1_555
H58 C53 1_555 1_555
C54 H59 1_555 1_555
H60 C54 1_555 1_555
C55 N33 1_555 1_555
C56 H61 1_555 1_555
C57 C56 1_555 1_555
H62 C57 1_555 1_555
C58 N35 1_555 1_555
C59 H63 1_555 1_555
H64 C59 1_555 1_555
C60 H65 1_555 1_555
H66 C60 1_555 1_555
N25 C42 1_555 1_555
N26 C41 1_555 1_555
N27 C42 1_555 1_555
N28 C43 1_555 1_555
N29 C47 1_555 1_555
N30 C49 1_555 1_555
N31 C48 1_555 1_555
N32 C50 1_555 1_555
N33 C53 1_555 1_555
N34 C59 1_555 1_555
N35 C54 1_555 1_555
N36 C60 1_555 1_555
O13 C41 1_555 1_555
O14 C49 1_555 1_555
O15 C55 1_555 1_555
O16 C44 1_555 1_555
O17 C58 1_555 1_555
O18 C52 1_555 1_555
C61 H67 1_555 1_555
C62 C61 1_555 1_555
H68 C62 1_555 1_555
C63 C62 1_555 1_555
C64 C63 1_555 1_555
H69 C64 1_555 1_555
C65 C64 1_555 1_555
H70 C65 1_555 1_555
C66 H71 1_555 1_555
H72 C66 1_555 1_555
C67 C66 1_555 1_555
H73 C67 1_555 1_555
H74 C67 1_555 1_555
H75 C67 1_555 1_555
N37 C61 1_555 1_555
C68 H76 1_555 1_555
C69 C68 1_555 1_555
H77 C69 1_555 1_555
C70 C69 1_555 1_555
C71 C70 1_555 1_555
H78 C71 1_555 1_555
C72 C71 1_555 1_555
H79 C72 1_555 1_555
C73 H80 1_555 1_555
H81 C73 1_555 1_555
C74 C73 1_555 1_555
H82 C74 1_555 1_555
H83 C74 1_555 1_555
H84 C74 1_555 1_555
N38 C68 1_555 1_555
N39 O19 1_555 1_555
O20 N39 1_555 1_555
O21 N39 1_555 1_555
C41A N25A 1_555 1_555
C42A C43A 1_555 1_555
C43A C46A 1_555 1_555
C44A N27A 1_555 1_555
C45A C42A 1_555 1_555
H45A C45A 1_555 1_555
H46A C45A 1_555 1_555
H47A C45A 1_555 1_555
C46A H48A 1_555 1_555
H49A C46A 1_555 1_555
H50A C46A 1_555 1_555
C47A H51A 1_555 1_555
H52A C47A 1_555 1_555
C48A H53A 1_555 1_555
H54A C48A 1_555 1_555
C49A N29A 1_555 1_555
C50A H55A 1_555 1_555
C51A C50A 1_555 1_555
H56A C51A 1_555 1_555
C52A N31A 1_555 1_555
C53A H57A 1_555 1_555
H58A C53A 1_555 1_555
C54A H59A 1_555 1_555
H60A C54A 1_555 1_555
C55A N34 1_555 1_555
C56A N34 1_555 1_555
H61A C56A 1_555 1_555
C57A C56A 1_555 1_555
H62A C57A 1_555 1_555
C58A N36 1_555 1_555
C59A H63A 1_555 1_555
H64A C59A 1_555 1_555
C60A H65A 1_555 1_555
H66A C60A 1_555 1_555
N25A C42A 1_555 1_555
N26A C41A 1_555 1_555
N27A C42A 1_555 1_555
N28A C43A 1_555 1_555
N29A C47A 1_555 1_555
N30A C49A 1_555 1_555
N31A C48A 1_555 1_555
N32A C50A 1_555 1_555
N33A C53A 1_555 1_555
N34A C55 1_555 1_555
N35A C54A 1_555 1_555
N36A C56 1_555 1_555
O13A C41A 1_555 1_555
O14A C49A 1_555 1_555
O15A C55A 1_555 1_555
O16A C44A 1_555 1_555
O17A C58A 1_555 1_555
O18A C52A 1_555 1_555
C61A H67A 1_555 1_555
C62A C61A 1_555 1_555
H68A C62A 1_555 1_555
C63A C63 1_555 1_555
C64A C63A 1_555 1_555
H69A C64A 1_555 1_555
C65A C64A 1_555 1_555
H70A C65A 1_555 1_555
C66A H71A 1_555 1_555
H72A C66A 1_555 1_555
C67A C66A 1_555 1_555
H73A C67A 1_555 1_555
H74A C67A 1_555 1_555
H75A C67A 1_555 1_555
N37A C61A 1_555 1_555
C68A H76A 1_555 1_555
C69A C68A 1_555 1_555
H77A C69A 1_555 1_555
C70A C70 1_555 1_555
C71A C70A 1_555 1_555
H78A C71A 1_555 1_555
C72A C71A 1_555 1_555
H79A C72A 1_555 1_555
C73A H80A 1_555 1_555
H81A C73A 1_555 1_555
C74A C73A 1_555 1_555
H82A C74A 1_555 1_555
H83A C74A 1_555 1_555
H84A C74A 1_555 1_555
N38A C68A 1_555 1_555
C3 N2 1_555 1_555
C4 N4 1_555 1_555
C7 N2 1_555 1_555
C8 N4 1_555 1_555
C10 N5 1_555 1_555
C10 N7 1_555 1_555
C11 N6 1_555 1_555
C12 N8 1_555 1_555
C13 N6 1_555 1_555
C14 N8 1_555 1_555
C16 N9 1_555 1_555
C16 N11 1_555 1_555
C17 N10 1_555 1_555
C18 N12 1_555 1_555
C19 N10 1_555 1_555
C20 N12 1_555 1_555
C22 N13 1_555 1_555
C22 N15 1_555 1_555
C23 N14 1_555 1_555
C24 N16 1_555 1_555
C27 N14 1_555 1_555
C28 N16 1_555 1_555
C30 N17 1_555 1_555
C30 N19 1_555 1_555
C31 N18 1_555 1_555
C32 N20 1_555 1_555
C33 N18 1_555 1_555
C34 N20 1_555 1_555
C36 N21 1_555 1_555
C36 N23 1_555 1_555
C37 N22 1_555 1_555
C38 N24 1_555 1_555
C39 N1 1_555 1_555
C39 N22 1_555 1_555
C40 N3 1_555 1_555
C40 N24 1_555 1_555
C43 N26 1_555 1_555
C44 N28 1_555 1_555
C47 N26 1_555 1_555
C48 N28 1_555 1_555
C50 N30 1_555 1_555
C51 N29 1_555 1_555
C51 N31 1_555 1_555
C52 N32 1_555 1_555
C53 N30 1_555 1_555
C54 N32 1_555 1_555
C56 N34A 1_555 1_555
C57 N33 1_555 1_555
C57 N35 1_555 1_555
C58 N36A 1_555 1_555
C59 N27 1_555 1_555
C60 N25 1_555 1_555
N36 C56A 1_555 1_555
C65 N37 1_555 1_555
C66 N37 1_555 1_555
C72 N38 1_555 1_555
C73 N38 1_555 1_555
C43A N26A 1_555 1_555
C44A N28A 1_555 1_555
C47A N26A 1_555 1_555
C48A N28A 1_555 1_555
C50A N30A 1_555 1_555
C51A N29A 1_555 1_555
C51A N31A 1_555 1_555
C52A N32A 1_555 1_555
C53A N30A 1_555 1_555
C54A N32A 1_555 1_555
C55A N33A 1_555 1_555
C57A N33A 1_555 1_555
C57A N35A 1_555 1_555
C58A N35A 1_555 1_555
C59A N27A 1_555 1_555
C59A N34A 1_555 1_555
C60A N25A 1_555 1_555
C60A N36A 1_555 1_555
C62A C63A 1_555 1_555
C65A N37A 1_555 1_555
C66A N37A 1_555 1_555
C69A C70A 1_555 1_555
C72A N38A 1_555 1_555
C73A N38A 1_555 1_555

#END
