
#######################################################################
#
#                 Cambridge Crystallographic Data Centre
#                                CCDC 
#
#######################################################################
#
# If this CIF has been generated from an entry in the Cambridge 
# Structural Database, then it will include bibliographic, chemical, 
# crystal, experimental, refinement or atomic coordinate data resulting 
# from the CCDC's data processing and validation procedures.
#
#######################################################################

data_XAPHUU
_chemical_formula_moiety         'C17 H19 N1 O7'
_chemical_name_systematic        
11,12-dihydroxy-2,2-dimethyl-3b,4,10b,11,12,12a-hexahydrobis[1,3]dioxolo[4,5-c:4',5'-j]phenanthridin-5(3aH)-one
_symmetry_cell_setting           orthorhombic
_symmetry_space_group_name_H-M   'P 21 21 2'
_symmetry_Int_Tables_number      18
_space_group_name_Hall           'P 2 2ab'
loop_
_symmetry_equiv_pos_site_id
_symmetry_equiv_pos_as_xyz
1 x,y,z
2 -x,-y,z
3 1/2-x,1/2+y,-z
4 1/2+x,1/2-y,-z
_cell_length_a                   19.5766(15)
_cell_length_b                   8.3899(7)
_cell_length_c                   9.3442(7)
_cell_angle_alpha                90
_cell_angle_beta                 90
_cell_angle_gamma                90
_cell_volume                     1534.74
_exptl_crystal_colour            colorless
_exptl_crystal_description       block
_cell_formula_units_Z            4
loop_
_atom_site_label
_atom_site_type_symbol
_atom_site_fract_x
_atom_site_fract_y
_atom_site_fract_z
N1 N -0.00112(12) 0.2505(3) 1.06768(19)
H1 H -0.0065(16) 0.254(4) 1.162(3)
O1 O -0.11077(9) 0.3269(3) 1.04799(18)
O2 O 0.14942(10) 0.0458(3) 0.7052(2)
H2 H 0.200(2) 0.046(6) 0.689(5)
O3 O 0.25789(9) 0.1400(3) 0.84396(19)
H3 H 0.291(2) 0.149(5) 0.897(4)
O4 O 0.22613(9) 0.1159(2) 1.15108(17)
O5 O 0.12311(9) 0.1922(2) 1.23709(16)
O6 O -0.13548(10) 0.4382(2) 0.50795(19)
O7 O -0.04069(9) 0.3288(2) 0.39579(18)
C1 C -0.05585(13) 0.2961(3) 0.9900(3)
C2 C -0.04674(12) 0.3025(3) 0.8322(2)
C3 C -0.10019(13) 0.3699(3) 0.7529(3)
H4 H -0.1403 0.4097 0.7977
C4 C -0.09165(12) 0.3754(3) 0.6082(3)
C5 C -0.03497(13) 0.3114(3) 0.5412(2)
C6 C 0.01776(12) 0.2415(3) 0.6166(3)
H5 H 0.0560 0.1958 0.5694
C7 C 0.01215(11) 0.2414(3) 0.7665(2)
C8 C 0.06786(12) 0.1681(3) 0.8585(2)
H6 H 0.0573 0.0519 0.8670
C9 C 0.14037(12) 0.1812(3) 0.7948(2)
H7 H 0.1432 0.2798 0.7350
C10 C 0.19629(12) 0.1876(3) 0.9109(2)
H8 H 0.2012 0.3000 0.9451
C11 C 0.17927(12) 0.0811(3) 1.0378(2)
H9 H 0.1818 -0.0339 1.0103
C12 C 0.18770(13) 0.1287(3) 1.2812(2)
C13 C 0.10848(12) 0.1216(3) 1.1026(2)
H10 H 0.0817 0.0213 1.1171
C14 C 0.06787(12) 0.2365(3) 1.0104(2)
H11 H 0.0905 0.3434 1.0105
C15 C -0.09926(13) 0.4318(3) 0.3760(2)
H12 H -0.0841 0.5399 0.3478
H13 H -0.1291 0.3891 0.2996
C16 C 0.22120(15) 0.2499(4) 1.3766(3)
H14 H 0.1934 0.2653 1.4627
H15 H 0.2253 0.3513 1.3253
H16 H 0.2667 0.2121 1.4040
C17 C 0.17871(16) -0.0334(3) 1.3495(3)
H17 H 0.1572 -0.1061 1.2808
H18 H 0.1496 -0.0236 1.4344
H19 H 0.2234 -0.0756 1.3774
loop_
_geom_bond_atom_site_label_1
_geom_bond_atom_site_label_2
_geom_bond_site_symmetry_1
_geom_bond_site_symmetry_2
N1 H1 1_555 1_555
O1 C1 1_555 1_555
O2 H2 1_555 1_555
O3 H3 1_555 1_555
O4 C11 1_555 1_555
O5 C12 1_555 1_555
O6 C4 1_555 1_555
O7 C5 1_555 1_555
C1 N1 1_555 1_555
C2 C1 1_555 1_555
C3 C2 1_555 1_555
H4 C3 1_555 1_555
C4 C3 1_555 1_555
C5 C4 1_555 1_555
C6 C5 1_555 1_555
H5 C6 1_555 1_555
C7 C2 1_555 1_555
C8 C7 1_555 1_555
H6 C8 1_555 1_555
C9 O2 1_555 1_555
H7 C9 1_555 1_555
C10 O3 1_555 1_555
H8 C10 1_555 1_555
C11 C10 1_555 1_555
H9 C11 1_555 1_555
C12 O4 1_555 1_555
C13 O5 1_555 1_555
H10 C13 1_555 1_555
C14 N1 1_555 1_555
H11 C14 1_555 1_555
C15 O6 1_555 1_555
H12 C15 1_555 1_555
H13 C15 1_555 1_555
C16 C12 1_555 1_555
H14 C16 1_555 1_555
H15 C16 1_555 1_555
H16 C16 1_555 1_555
C17 C12 1_555 1_555
H17 C17 1_555 1_555
H18 C17 1_555 1_555
H19 C17 1_555 1_555
O7 C15 1_555 1_555
C6 C7 1_555 1_555
C8 C9 1_555 1_555
C8 C14 1_555 1_555
C9 C10 1_555 1_555
C11 C13 1_555 1_555
C13 C14 1_555 1_555

#END
