
#######################################################################
#
#                 Cambridge Crystallographic Data Centre
#                                CCDC 
#
#######################################################################
#
# If this CIF has been generated from an entry in the Cambridge 
# Structural Database, then it will include bibliographic, chemical, 
# crystal, experimental, refinement or atomic coordinate data resulting 
# from the CCDC's data processing and validation procedures.
#
#######################################################################

data_XAPKIK
_chemical_name_common            '(Methoxyimino)(phenyl)acetic acid'
_chemical_formula_moiety         'C9 H9 N1 O3'
_chemical_name_systematic        '(Z)-2-(methoxyimino)-2-phenylacetic acid'
_symmetry_cell_setting           monoclinic
_symmetry_space_group_name_H-M   'P 21/n'
_symmetry_Int_Tables_number      14
_space_group_name_Hall           '-P 2yn'
loop_
_symmetry_equiv_pos_site_id
_symmetry_equiv_pos_as_xyz
1 x,y,z
2 1/2-x,1/2+y,1/2-z
3 -x,-y,-z
4 1/2+x,1/2-y,1/2+z
_cell_length_a                   5.5752(2)
_cell_length_b                   10.7315(4)
_cell_length_c                   15.6446(6)
_cell_angle_alpha                90
_cell_angle_beta                 97.931(1)
_cell_angle_gamma                90
_cell_volume                     927.067
_exptl_crystal_colour            colorless
_exptl_crystal_description       needle
_cell_formula_units_Z            4
loop_
_atom_site_label
_atom_site_type_symbol
_atom_site_fract_x
_atom_site_fract_y
_atom_site_fract_z
O1 O 0.3463(3) 0.52046(15) 0.89678(9)
H1 H 0.3637 0.4797 0.9415
O2 O 0.6339(3) 0.63696(15) 0.97121(9)
O3 O 0.1873(3) 0.79512(15) 0.90543(9)
N1 N 0.3115(3) 0.80007(16) 0.83360(10)
C1 C 0.4580(3) 0.70813(17) 0.83335(11)
C2 C 0.4813(3) 0.61479(18) 0.90597(11)
C3 C 0.0227(5) 0.8965(2) 0.90142(18)
H2 H 0.1112 0.9728 0.9129
H3 H -0.0849 0.8850 0.9437
H4 H -0.0694 0.9002 0.8449
C4 C 0.6018(3) 0.69382(18) 0.76181(11)
C5 C 0.7957(4) 0.61197(19) 0.76826(13)
H5 H 0.8341 0.5643 0.8179
C6 C 0.9328(4) 0.6007(2) 0.70123(15)
H6 H 1.0635 0.5461 0.7062
C7 C 0.6840(4) 0.7511(3) 0.62035(15)
H7 H 0.6464 0.7981 0.5704
C8 C 0.5462(4) 0.7637(2) 0.68657(13)
H8 H 0.4163 0.8189 0.6811
C9 C 0.8759(4) 0.6700(2) 0.62737(15)
H9 H 0.9673 0.6619 0.5822
loop_
_geom_bond_atom_site_label_1
_geom_bond_atom_site_label_2
_geom_bond_site_symmetry_1
_geom_bond_site_symmetry_2
O1 H1 1_555 1_555
O2 C2 1_555 1_555
O3 N1 1_555 1_555
N1 C1 1_555 1_555
C1 C2 1_555 1_555
C2 O1 1_555 1_555
C3 O3 1_555 1_555
H2 C3 1_555 1_555
H3 C3 1_555 1_555
H4 C3 1_555 1_555
C4 C1 1_555 1_555
C5 C4 1_555 1_555
H5 C5 1_555 1_555
C6 C5 1_555 1_555
H6 C6 1_555 1_555
C7 H7 1_555 1_555
C8 C4 1_555 1_555
H8 C8 1_555 1_555
C9 C6 1_555 1_555
H9 C9 1_555 1_555
C7 C8 1_555 1_555
C7 C9 1_555 1_555

#END
