
#######################################################################
#
#                 Cambridge Crystallographic Data Centre
#                                CCDC 
#
#######################################################################
#
# If this CIF has been generated from an entry in the Cambridge 
# Structural Database, then it will include bibliographic, chemical, 
# crystal, experimental, refinement or atomic coordinate data resulting 
# from the CCDC's data processing and validation procedures.
#
#######################################################################

data_XAPKOQ
_chemical_name_common            '(Methoxyimino)(phenyl)acetic acid'
_chemical_formula_moiety         'C9 H9 N1 O3'
_chemical_name_systematic        '(E)-2-(methoxyimino)-2-phenylacetic acid'
_symmetry_cell_setting           triclinic
_symmetry_space_group_name_H-M   'P -1'
_symmetry_Int_Tables_number      2
_space_group_name_Hall           '-P 1'
loop_
_symmetry_equiv_pos_site_id
_symmetry_equiv_pos_as_xyz
1 x,y,z
2 -x,-y,-z
_cell_length_a                   8.8229(2)
_cell_length_b                   16.0103(3)
_cell_length_c                   18.0884(4)
_cell_angle_alpha                106.619(1)
_cell_angle_beta                 100.916(1)
_cell_angle_gamma                103.973(1)
_cell_volume                     2282.33
_exptl_crystal_colour            colorless
_exptl_crystal_description       prism
_cell_formula_units_Z            10
loop_
_atom_site_label
_atom_site_type_symbol
_atom_site_fract_x
_atom_site_fract_y
_atom_site_fract_z
O1 O 1.08867(16) 0.82089(12) 0.26538(8)
H1 H 1.0949 0.8128 0.2193
N1 N 1.03658(19) 0.83933(12) 0.40267(10)
O2 O 0.83169(15) 0.80608(10) 0.20912(8)
C1 C 0.7454(2) 0.82565(13) 0.35653(10)
C2 C 0.9408(2) 0.81704(12) 0.26751(11)
C3 C 0.9097(2) 0.82788(12) 0.34772(11)
O3 O 1.00655(18) 0.85145(12) 0.47693(8)
C4 C 0.6649(2) 0.76435(15) 0.38801(12)
H2 H 0.7139 0.7244 0.4034
C5 C 0.6694(3) 0.88362(15) 0.33318(14)
H3 H 0.7208 0.9241 0.3109
C6 C 0.4387(3) 0.82139(19) 0.37473(14)
H4 H 0.3365 0.8205 0.3815
C7 C 0.5121(3) 0.76270(18) 0.39638(14)
H5 H 0.4584 0.7211 0.4170
C8 C 0.5166(3) 0.88162(18) 0.34293(16)
H6 H 0.4667 0.9214 0.3278
C9 C 1.1559(3) 0.8710(2) 0.53504(15)
H7 H 1.1999 0.8213 0.5201
H8 H 1.1369 0.8781 0.5867
H9 H 1.2316 0.9267 0.5375
N2 N 1.07462(18) 0.22412(11) 0.07054(9)
O4 O 1.12279(16) 0.20470(12) -0.06808(8)
H10 H 1.1306 0.2026 -0.1130
O5 O 0.86895(16) 0.19840(10) -0.12062(8)
O6 O 1.04859(16) 0.23738(10) 0.14570(8)
C10 C 0.9512(2) 0.22029(12) 0.01788(11)
C11 C 0.9786(2) 0.20678(12) -0.06354(10)
C12 C 0.7921(2) 0.22893(13) 0.02894(10)
C13 C 1.1978(2) 0.25163(15) 0.20229(12)
H11 H 1.2381 0.2011 0.1842
H12 H 1.1792 0.2559 0.2536
H13 H 1.2762 0.3075 0.2071
C14 C 0.6919(2) 0.16586(15) 0.05180(12)
H14 H 0.7241 0.1176 0.0607
C15 C 0.5440(2) 0.17462(17) 0.06139(13)
H15 H 0.4769 0.1318 0.0764
C16 C 0.7418(3) 0.29991(17) 0.01622(15)
H16 H 0.8071 0.3423 0.0001
C17 C 0.4955(3) 0.24532(19) 0.04904(14)
H17 H 0.3957 0.2507 0.0554
C18 C 0.5948(3) 0.3084(2) 0.02726(17)
H18 H 0.5630 0.3575 0.0198
O7 O 0.86422(15) 0.00291(9) 0.04932(8)
N3 N 1.07989(18) 0.03320(11) 0.24091(9)
O8 O 1.12132(16) 0.01191(11) 0.09924(8)
H19 H 1.1279 0.0116 0.0546
C19 C 0.7980(2) 0.03833(13) 0.20087(11)
O9 O 1.05254(16) 0.04634(10) 0.31595(8)
C20 C 0.9546(2) 0.02821(12) 0.18780(11)
C21 C 0.9762(2) 0.01267(12) 0.10519(11)
C22 C 0.7945(3) 0.11870(15) 0.25482(12)
H20 H 0.8911 0.1662 0.2831
C23 C 1.1977(3) 0.05504(16) 0.37316(13)
H21 H 1.2258 -0.0005 0.3573
H22 H 1.1794 0.0658 0.4252
H23 H 1.2849 0.1056 0.3752
C24 C 0.6496(3) 0.12913(19) 0.26706(15)
H24 H 0.6486 0.1833 0.3034
C25 C 0.6532(2) -0.03128(16) 0.15869(14)
H25 H 0.6532 -0.0854 0.1218
C26 C 0.5067(3) 0.0593(2) 0.22541(16)
H26 H 0.4089 0.0661 0.2339
C27 C 0.5078(3) -0.0201(2) 0.17156(17)
H27 H 0.4106 -0.0670 0.1433
O10 O 0.14372(16) 0.39201(11) 0.56259(8)
O11 O -0.02948(16) 0.37390(11) 0.30174(8)
N4 N -0.06118(18) 0.37691(11) 0.37445(9)
C28 C 0.2273(2) 0.38305(13) 0.41673(10)
C29 C 0.0344(2) 0.38408(13) 0.50651(11)
C30 C 0.0638(2) 0.38108(12) 0.42699(11)
C31 C 0.4701(2) 0.45452(17) 0.38754(13)
H28 H 0.5296 0.5012 0.3737
O12 O -0.11393(16) 0.37795(14) 0.50997(9)
H29 H -0.1210 0.3784 0.5546
C32 C 0.2942(2) 0.31668(15) 0.42957(12)
H30 H 0.2361 0.2703 0.4442
C33 C 0.3169(2) 0.45231(14) 0.39556(12)
H31 H 0.2735 0.4972 0.3868
C34 C -0.1765(3) 0.36251(17) 0.24480(13)
H32 H -0.2531 0.3035 0.2339
H33 H -0.1533 0.3665 0.1959
H34 H -0.2217 0.4098 0.2664
C35 C 0.4471(3) 0.31939(18) 0.42060(14)
H35 H 0.4909 0.2743 0.4287
C36 C 0.5355(2) 0.38836(18) 0.39979(13)
H36 H 0.6387 0.3900 0.3941
N5 N -0.06991(18) 0.58104(11) 0.15239(9)
O13 O -0.11606(16) 0.60254(12) 0.29218(9)
H37 H -0.1211 0.6094 0.3382
O14 O 0.13784(16) 0.60912(10) 0.34429(8)
C37 C 0.0291(2) 0.60073(12) 0.28761(11)
O15 O -0.04175(17) 0.56682(11) 0.07786(8)
C38 C 0.0543(2) 0.58645(12) 0.20604(11)
C39 C 0.2138(2) 0.57960(13) 0.19489(11)
C40 C 0.3143(2) 0.64694(15) 0.17639(13)
H38 H 0.2814 0.6961 0.1702
C41 C -0.1870(3) 0.55576(17) 0.02039(13)
H39 H -0.2664 0.4985 0.0115
H40 H -0.1635 0.5561 -0.0292
H41 H -0.2287 0.6053 0.0402
C42 C 0.2646(3) 0.50738(17) 0.20383(15)
H42 H 0.1988 0.4624 0.2171
C43 C 0.4633(3) 0.64101(19) 0.16716(14)
H43 H 0.5308 0.6865 0.1551
C44 C 0.4131(3) 0.5016(2) 0.19308(17)
H44 H 0.4456 0.4518 0.1977
C45 C 0.5129(3) 0.5689(2) 0.17562(14)
H45 H 0.6139 0.5655 0.1696
loop_
_geom_bond_atom_site_label_1
_geom_bond_atom_site_label_2
_geom_bond_site_symmetry_1
_geom_bond_site_symmetry_2
O1 H1 1_555 1_555
N1 C3 1_555 1_555
O2 C2 1_555 1_555
C1 C3 1_555 1_555
C2 O1 1_555 1_555
C3 C2 1_555 1_555
O3 N1 1_555 1_555
C4 C1 1_555 1_555
H2 C4 1_555 1_555
C5 C1 1_555 1_555
H3 C5 1_555 1_555
C6 H4 1_555 1_555
C7 C4 1_555 1_555
H5 C7 1_555 1_555
C8 C5 1_555 1_555
H6 C8 1_555 1_555
C9 O3 1_555 1_555
H7 C9 1_555 1_555
H8 C9 1_555 1_555
H9 C9 1_555 1_555
N2 O6 1_555 1_555
O4 H10 1_555 1_555
O5 C11 1_555 1_555
O6 C13 1_555 1_555
C10 N2 1_555 1_555
C11 O4 1_555 1_555
C12 C10 1_555 1_555
C13 H11 1_555 1_555
H12 C13 1_555 1_555
H13 C13 1_555 1_555
C14 C12 1_555 1_555
H14 C14 1_555 1_555
C15 C14 1_555 1_555
H15 C15 1_555 1_555
C16 C12 1_555 1_555
H16 C16 1_555 1_555
C17 C15 1_555 1_555
H17 C17 1_555 1_555
C18 C16 1_555 1_555
H18 C18 1_555 1_555
O7 C21 1_555 1_555
N3 O9 1_555 1_555
O8 H19 1_555 1_555
C19 C20 1_555 1_555
O9 C23 1_555 1_555
C20 N3 1_555 1_555
C21 O8 1_555 1_555
C22 C19 1_555 1_555
H20 C22 1_555 1_555
C23 H21 1_555 1_555
H22 C23 1_555 1_555
H23 C23 1_555 1_555
C24 C22 1_555 1_555
H24 C24 1_555 1_555
C25 C19 1_555 1_555
H25 C25 1_555 1_555
C26 C24 1_555 1_555
H26 C26 1_555 1_555
C27 C25 1_555 1_555
H27 C27 1_555 1_555
O10 C29 1_555 1_555
O11 N4 1_555 1_555
N4 C30 1_555 1_555
C28 C30 1_555 1_555
C29 C30 1_555 1_555
C31 H28 1_555 1_555
O12 C29 1_555 1_555
H29 O12 1_555 1_555
C32 C28 1_555 1_555
H30 C32 1_555 1_555
C33 C28 1_555 1_555
H31 C33 1_555 1_555
C34 O11 1_555 1_555
H32 C34 1_555 1_555
H33 C34 1_555 1_555
H34 C34 1_555 1_555
C35 C32 1_555 1_555
H35 C35 1_555 1_555
C36 C31 1_555 1_555
H36 C36 1_555 1_555
N5 O15 1_555 1_555
O13 H37 1_555 1_555
O14 C37 1_555 1_555
C37 O13 1_555 1_555
O15 C41 1_555 1_555
C38 N5 1_555 1_555
C39 C38 1_555 1_555
C40 C39 1_555 1_555
H38 C40 1_555 1_555
C41 H39 1_555 1_555
H40 C41 1_555 1_555
H41 C41 1_555 1_555
C42 C39 1_555 1_555
H42 C42 1_555 1_555
C43 C40 1_555 1_555
H43 C43 1_555 1_555
C44 C42 1_555 1_555
H44 C44 1_555 1_555
C45 C43 1_555 1_555
H45 C45 1_555 1_555
C6 C7 1_555 1_555
C6 C8 1_555 1_555
C10 C11 1_555 1_555
C17 C18 1_555 1_555
C20 C21 1_555 1_555
C26 C27 1_555 1_555
C31 C33 1_555 1_555
C35 C36 1_555 1_555
C37 C38 1_555 1_555
C44 C45 1_555 1_555

#END
