
#######################################################################
#
#                 Cambridge Crystallographic Data Centre
#                                CCDC 
#
#######################################################################
#
# If this CIF has been generated from an entry in the Cambridge 
# Structural Database, then it will include bibliographic, chemical, 
# crystal, experimental, refinement or atomic coordinate data resulting 
# from the CCDC's data processing and validation procedures.
#
#######################################################################

data_XAPKEG
_chemical_name_common            'Methyl (methoxyimino)(phenyl)acetate'
_chemical_formula_moiety         'C10 H11 N1 O3'
_chemical_name_systematic        '(E)-methyl 2-(methoxyimino)-2-phenylacetate'
_symmetry_cell_setting           monoclinic
_symmetry_space_group_name_H-M   'P 21/n'
_symmetry_Int_Tables_number      14
_space_group_name_Hall           '-P 2yn'
loop_
_symmetry_equiv_pos_site_id
_symmetry_equiv_pos_as_xyz
1 x,y,z
2 1/2-x,1/2+y,1/2-z
3 -x,-y,-z
4 1/2+x,1/2-y,1/2+z
_cell_length_a                   5.6386(3)
_cell_length_b                   25.7679(13)
_cell_length_c                   7.2748(3)
_cell_angle_alpha                90
_cell_angle_beta                 105.553(2)
_cell_angle_gamma                90
_cell_volume                     1018.29
_exptl_crystal_colour            colorless
_exptl_crystal_description       plate
_cell_formula_units_Z            4
loop_
_atom_site_label
_atom_site_type_symbol
_atom_site_fract_x
_atom_site_fract_y
_atom_site_fract_z
C1 C 0.1403(4) 0.10069(8) 0.6994(3)
C2 C -0.0651(4) 0.06210(9) 0.6526(3)
C3 C -0.2479(5) -0.01135(11) 0.7504(4)
H1 H -0.4045 0.0055 0.7318
H2 H -0.2214 -0.0345 0.8572
H3 H -0.2462 -0.0306 0.6379
O1 O -0.0547(3) 0.02727(6) 0.7869(2)
O2 O -0.2236(3) 0.06344(7) 0.5056(2)
N1 N 0.3172(4) 0.09078(8) 0.8472(3)
O3 O 0.4985(3) 0.12873(7) 0.8804(2)
C4 C 0.6826(5) 0.11659(13) 1.0531(4)
H4 H 0.6104 0.1173 1.1585
H5 H 0.8129 0.1417 1.0736
H6 H 0.7480 0.0826 1.0428
C5 C 0.2754(4) 0.15288(9) 0.4566(4)
H7 H 0.3984 0.1286 0.4603
C6 C 0.1190(4) 0.14681(8) 0.5715(3)
C7 C -0.0629(5) 0.18303(9) 0.5651(3)
H8 H -0.1704 0.1788 0.6411
C8 C 0.0686(5) 0.23162(10) 0.3308(4)
H9 H 0.0515 0.2601 0.2498
C9 C -0.0863(5) 0.22572(9) 0.4461(4)
H10 H -0.2072 0.2504 0.4442
C10 C 0.2492(5) 0.19541(10) 0.3350(4)
H11 H 0.3538 0.1993 0.2565
loop_
_geom_bond_atom_site_label_1
_geom_bond_atom_site_label_2
_geom_bond_site_symmetry_1
_geom_bond_site_symmetry_2
C1 C2 1_555 1_555
C2 O1 1_555 1_555
C3 H1 1_555 1_555
H2 C3 1_555 1_555
H3 C3 1_555 1_555
O1 C3 1_555 1_555
O2 C2 1_555 1_555
N1 C1 1_555 1_555
O3 N1 1_555 1_555
C4 O3 1_555 1_555
H4 C4 1_555 1_555
H5 C4 1_555 1_555
H6 C4 1_555 1_555
C5 H7 1_555 1_555
C6 C1 1_555 1_555
C7 C6 1_555 1_555
H8 C7 1_555 1_555
C8 H9 1_555 1_555
C9 C7 1_555 1_555
H10 C9 1_555 1_555
C10 C5 1_555 1_555
H11 C10 1_555 1_555
C5 C6 1_555 1_555
C8 C9 1_555 1_555
C8 C10 1_555 1_555

#END
