
#######################################################################
#
#                 Cambridge Crystallographic Data Centre
#                                CCDC 
#
#######################################################################
#
# If this CIF has been generated from an entry in the Cambridge 
# Structural Database, then it will include bibliographic, chemical, 
# crystal, experimental, refinement or atomic coordinate data resulting 
# from the CCDC's data processing and validation procedures.
#
#######################################################################

data_XAPLUY
_chemical_formula_moiety         'C29 H26 B1 N1 O2'
_chemical_name_systematic        
(3-(4-(Dimethylamino)phenyl)-3-oxo-1-phenylpropenolato)-diphenyl-boron
_symmetry_cell_setting           monoclinic
_symmetry_space_group_name_H-M   'P 21/c'
_symmetry_Int_Tables_number      14
_space_group_name_Hall           '-P 2ybc'
loop_
_symmetry_equiv_pos_site_id
_symmetry_equiv_pos_as_xyz
1 x,y,z
2 -x,1/2+y,1/2-z
3 -x,-y,-z
4 x,1/2-y,1/2+z
_cell_length_a                   13.6354(11)
_cell_length_b                   11.3314(9)
_cell_length_c                   16.0917(13)
_cell_angle_alpha                90
_cell_angle_beta                 109.8770(10)
_cell_angle_gamma                90
_cell_volume                     2338.18
_exptl_crystal_colour            yellow
_exptl_crystal_description       block
_cell_formula_units_Z            4
loop_
_atom_site_label
_atom_site_type_symbol
_atom_site_fract_x
_atom_site_fract_y
_atom_site_fract_z
B1 B 0.80171(16) 0.92720(18) 0.14226(14)
O1 O 0.80527(9) 1.04197(10) 0.09358(8)
O2 O 0.71064(9) 0.93785(10) 0.17726(8)
C1 C 0.90376(13) 0.91847(15) 0.22869(11)
C2 C 0.93761(15) 1.01623(17) 0.28411(13)
H1 H 0.9048(14) 1.0938(16) 0.2633(11)
C3 C 1.01643(16) 1.0090(2) 0.36529(13)
H2 H 1.0345(17) 1.0794(19) 0.4031(14)
C4 C 1.06553(16) 0.90229(19) 0.39345(13)
H3 H 1.1188(15) 0.8940(16) 0.4504(12)
C5 C 1.03630(16) 0.80487(19) 0.33958(13)
H4 H 1.0701(15) 0.7304(17) 0.3570(12)
C6 C 0.95644(15) 0.81286(17) 0.25808(12)
H5 H 0.9379(15) 0.7414(18) 0.2188(12)
C7 C 0.78161(11) 0.81994(10) 0.07055(7)
C8 C 0.70145(10) 0.73860(13) 0.05749(10)
H6 H 0.6571 0.7440 0.0903
C9 C 0.68762(13) 0.64913(12) -0.00455(12)
H7 H 0.6340 0.5947 -0.0133
C10 C 0.75394(17) 0.64099(12) -0.05353(9)
H8 H 0.7447 0.5811 -0.0950
C11 C 0.83410(15) 0.72233(16) -0.04046(9)
H9 H 0.8785 0.7169 -0.0732
C12 C 0.84794(11) 0.81180(13) 0.02158(9)
H10 H 0.9016 0.8662 0.0303
C13 C 0.81016(17) 1.17068(18) -0.05003(12)
H11 H 0.8639(15) 1.1126(17) -0.0238(12)
C14 C 0.81656(19) 1.24572(19) -0.11557(13)
H12 H 0.8779(17) 1.2411(18) -0.1328(13)
C15 C 0.73797(19) 1.32610(19) -0.15344(14)
H13 H 0.7470(16) 1.3778(18) -0.1982(13)
C16 C 0.65238(19) 1.33102(19) -0.12655(14)
H14 H 0.5993(18) 1.381(2) -0.1533(14)
C17 C 0.64518(17) 1.25622(17) -0.06114(12)
H15 H 0.5865(17) 1.2612(18) -0.0424(13)
C18 C 0.72385(14) 1.17495(15) -0.02191(11)
C19 C 0.71707(14) 1.09196(15) 0.04680(11)
C20 C 0.62620(15) 1.06902(16) 0.06239(11)
H16 H 0.5638(15) 1.1071(16) 0.0293(12)
C21 C 0.62742(14) 0.99854(15) 0.13466(10)
C22 C 0.54200(14) 0.99130(15) 0.16859(10)
C23 C 0.54439(15) 0.90821(17) 0.23420(11)
H17 H 0.6053(14) 0.8566(15) 0.2556(11)
C24 C 0.46670(15) 0.90139(18) 0.26930(12)
H18 H 0.4703(14) 0.8450(16) 0.3108(12)
C25 C 0.37981(15) 0.97759(17) 0.24055(12)
C26 C 0.37731(16) 1.06167(17) 0.17493(12)
H19 H 0.3195(15) 1.1113(17) 0.1539(12)
C27 C 0.45606(14) 1.06720(17) 0.14038(12)
H20 H 0.4531(14) 1.1280(16) 0.0955(12)
N1 N 0.30181(14) 0.97143(16) 0.27500(11)
C28 C 0.3082(3) 0.8887(3) 0.3462(2)
H21 H 0.377(2) 0.903(2) 0.3950(18)
H22 H 0.255(3) 0.907(3) 0.3681(19)
H23 H 0.306(2) 0.807(3) 0.3271(19)
C29 C 0.2085(2) 1.0437(3) 0.24071(19)
H24 H 0.1771(18) 1.038(2) 0.1760(17)
H25 H 0.225(2) 1.131(3) 0.2528(16)
H26 H 0.158(2) 1.021(2) 0.2665(18)
loop_
_geom_bond_atom_site_label_1
_geom_bond_atom_site_label_2
_geom_bond_site_symmetry_1
_geom_bond_site_symmetry_2
B1 O1 1_555 1_555
O1 C19 1_555 1_555
O2 B1 1_555 1_555
C1 B1 1_555 1_555
C2 C1 1_555 1_555
H1 C2 1_555 1_555
C3 C2 1_555 1_555
H2 C3 1_555 1_555
C4 C3 1_555 1_555
H3 C4 1_555 1_555
C5 C4 1_555 1_555
H4 C5 1_555 1_555
C6 C1 1_555 1_555
H5 C6 1_555 1_555
C7 B1 1_555 1_555
C8 C7 1_555 1_555
H6 C8 1_555 1_555
C9 C8 1_555 1_555
H7 C9 1_555 1_555
C10 C9 1_555 1_555
H8 C10 1_555 1_555
C11 C10 1_555 1_555
H9 C11 1_555 1_555
C12 C7 1_555 1_555
H10 C12 1_555 1_555
C13 H11 1_555 1_555
C14 C13 1_555 1_555
H12 C14 1_555 1_555
C15 C14 1_555 1_555
H13 C15 1_555 1_555
C16 C15 1_555 1_555
H14 C16 1_555 1_555
C17 C16 1_555 1_555
H15 C17 1_555 1_555
C18 C13 1_555 1_555
C19 C18 1_555 1_555
C20 C19 1_555 1_555
H16 C20 1_555 1_555
C21 O2 1_555 1_555
C22 C21 1_555 1_555
C23 C22 1_555 1_555
H17 C23 1_555 1_555
C24 C23 1_555 1_555
H18 C24 1_555 1_555
C25 C24 1_555 1_555
C26 C25 1_555 1_555
H19 C26 1_555 1_555
C27 C22 1_555 1_555
H20 C27 1_555 1_555
N1 C25 1_555 1_555
C28 N1 1_555 1_555
H21 C28 1_555 1_555
H22 C28 1_555 1_555
H23 C28 1_555 1_555
C29 N1 1_555 1_555
H24 C29 1_555 1_555
H25 C29 1_555 1_555
H26 C29 1_555 1_555
C5 C6 1_555 1_555
C11 C12 1_555 1_555
C17 C18 1_555 1_555
C20 C21 1_555 1_555
C26 C27 1_555 1_555

#END
