
#######################################################################
#
#                 Cambridge Crystallographic Data Centre
#                                CCDC 
#
#######################################################################
#
# If this CIF has been generated from an entry in the Cambridge 
# Structural Database, then it will include bibliographic, chemical, 
# crystal, experimental, refinement or atomic coordinate data resulting 
# from the CCDC's data processing and validation procedures.
#
#######################################################################

data_XAPMAF
_chemical_formula_moiety         'C29 H26 B1 N1 O2,C1 H2 Cl2'
_chemical_name_systematic        
'(3-(4-(Dimethylamino)phenyl)-3-oxo-1-phenylpropenolato)-diphenyl-boron dichloromethane solvate'
_symmetry_cell_setting           triclinic
_symmetry_space_group_name_H-M   'P -1'
_symmetry_Int_Tables_number      2
_space_group_name_Hall           '-P 1'
loop_
_symmetry_equiv_pos_site_id
_symmetry_equiv_pos_as_xyz
1 x,y,z
2 -x,-y,-z
_cell_length_a                   8.4580(17)
_cell_length_b                   11.701(2)
_cell_length_c                   14.857(3)
_cell_angle_alpha                81.35(3)
_cell_angle_beta                 75.09(3)
_cell_angle_gamma                71.60(3)
_cell_volume                     1344.37
_exptl_crystal_colour            red
_exptl_crystal_description       block
_cell_formula_units_Z            2
loop_
_atom_site_label
_atom_site_type_symbol
_atom_site_fract_x
_atom_site_fract_y
_atom_site_fract_z
B1 B 0.6257(3) 0.6643(2) 0.19476(15)
O1 O 0.56641(17) 0.56508(12) 0.17053(9)
O2 O 0.67861(17) 0.73583(11) 0.10527(8)
C1 C 0.4676(2) 0.75270(18) 0.26121(13)
C2 C 0.4342(3) 0.8770(2) 0.25040(16)
H1 H 0.5018 0.9108 0.2008
C3 C 0.3048(4) 0.9526(2) 0.3102(2)
H2 H 0.2866 1.0357 0.3008
C4 C 0.2031(4) 0.9054(3) 0.38348(19)
H3 H 0.1160 0.9561 0.4243
C5 C 0.2302(3) 0.7837(3) 0.39631(17)
H4 H 0.1607 0.7511 0.4457
C6 C 0.3610(3) 0.7083(2) 0.33600(15)
H5 H 0.3779 0.6253 0.3459
C7 C 0.7895(2) 0.60275(16) 0.24075(13)
C8 C 0.9393(3) 0.6371(2) 0.21218(16)
H6 H 0.9474 0.6960 0.1631
C9 C 1.0761(3) 0.5868(3) 0.25423(19)
H7 H 1.1738 0.6124 0.2337
C10 C 1.0676(4) 0.4994(3) 0.3259(2)
H8 H 1.1597 0.4646 0.3542
C11 C 0.9219(4) 0.4636(2) 0.35577(18)
H9 H 0.9152 0.4047 0.4050
C12 C 0.7853(3) 0.5136(2) 0.31383(15)
H10 H 0.6883 0.4872 0.3349
C13 C 0.5329(3) 0.3420(2) 0.16593(18)
H11 H 0.4928 0.3791 0.2218
C14 C 0.5029(4) 0.2342(2) 0.1603(2)
H12 H 0.4430 0.1989 0.2127
C15 C 0.5605(4) 0.1789(2) 0.0786(2)
H13 H 0.5403 0.1060 0.0755
C16 C 0.6476(3) 0.2307(2) 0.0013(2)
H14 H 0.6863 0.1931 -0.0544
C17 C 0.6784(3) 0.33838(19) 0.00553(17)
H15 H 0.7371 0.3734 -0.0475
C18 C 0.6228(2) 0.39486(17) 0.08815(14)
C19 C 0.6548(2) 0.50994(17) 0.09551(13)
C20 C 0.7658(2) 0.55887(17) 0.02799(14)
H16 H 0.8406 0.5127 -0.0198
C21 C 0.7667(2) 0.67717(16) 0.03097(12)
C22 C 0.8549(2) 0.74382(16) -0.04326(13)
C23 C 0.8591(3) 0.85889(18) -0.03003(14)
H17 H 0.8025 0.8916 0.0269
C24 C 0.9437(3) 0.92455(19) -0.09820(15)
H18 H 0.9436 1.0006 -0.0869
C25 C 1.0307(3) 0.87840(19) -0.18526(14)
C26 C 1.0252(3) 0.76368(18) -0.19899(14)
H19 H 1.0806 0.7310 -0.2561
C27 C 0.9406(3) 0.69947(17) -0.13054(14)
H20 H 0.9396 0.6238 -0.1421
N1 N 1.1178(3) 0.94196(18) -0.25318(13)
C28 C 1.2160(4) 0.8906(3) -0.34053(19)
H21 H 1.2996 0.8163 -0.3281
H22 H 1.2726 0.9464 -0.3786
H23 H 1.1408 0.8752 -0.3728
C29 C 1.1139(5) 1.0630(3) -0.2416(2)
H24 H 0.9977 1.1134 -0.2296
H25 H 1.1781 1.0943 -0.2976
H26 H 1.1634 1.0618 -0.1900
C30 C 0.3551(5) 0.2580(3) 0.53229(19)
H27 H 0.2586 0.2991 0.5791
H28 H 0.4415 0.2063 0.5644
Cl1 Cl 0.43772(11) 0.36426(7) 0.45822(5)
Cl2 Cl 0.28909(16) 0.16917(11) 0.47499(7)
loop_
_geom_bond_atom_site_label_1
_geom_bond_atom_site_label_2
_geom_bond_site_symmetry_1
_geom_bond_site_symmetry_2
B1 O1 1_555 1_555
O1 C19 1_555 1_555
O2 B1 1_555 1_555
C1 B1 1_555 1_555
C2 C1 1_555 1_555
H1 C2 1_555 1_555
C3 C2 1_555 1_555
H2 C3 1_555 1_555
C4 C3 1_555 1_555
H3 C4 1_555 1_555
C5 C4 1_555 1_555
H4 C5 1_555 1_555
C6 C1 1_555 1_555
H5 C6 1_555 1_555
C7 B1 1_555 1_555
C8 C7 1_555 1_555
H6 C8 1_555 1_555
C9 C8 1_555 1_555
H7 C9 1_555 1_555
C10 C9 1_555 1_555
H8 C10 1_555 1_555
C11 C10 1_555 1_555
H9 C11 1_555 1_555
C12 C7 1_555 1_555
H10 C12 1_555 1_555
C13 H11 1_555 1_555
C14 C13 1_555 1_555
H12 C14 1_555 1_555
C15 C14 1_555 1_555
H13 C15 1_555 1_555
C16 C15 1_555 1_555
H14 C16 1_555 1_555
C17 C16 1_555 1_555
H15 C17 1_555 1_555
C18 C13 1_555 1_555
C19 C18 1_555 1_555
C20 C19 1_555 1_555
H16 C20 1_555 1_555
C21 O2 1_555 1_555
C22 C21 1_555 1_555
C23 C22 1_555 1_555
H17 C23 1_555 1_555
C24 C23 1_555 1_555
H18 C24 1_555 1_555
C25 C24 1_555 1_555
C26 C25 1_555 1_555
H19 C26 1_555 1_555
C27 C22 1_555 1_555
H20 C27 1_555 1_555
N1 C25 1_555 1_555
C28 N1 1_555 1_555
H21 C28 1_555 1_555
H22 C28 1_555 1_555
H23 C28 1_555 1_555
C29 N1 1_555 1_555
H24 C29 1_555 1_555
H25 C29 1_555 1_555
H26 C29 1_555 1_555
C30 H27 1_555 1_555
H28 C30 1_555 1_555
Cl1 C30 1_555 1_555
Cl2 C30 1_555 1_555
C5 C6 1_555 1_555
C11 C12 1_555 1_555
C17 C18 1_555 1_555
C20 C21 1_555 1_555
C26 C27 1_555 1_555

#END
