
#######################################################################
#
#                 Cambridge Crystallographic Data Centre
#                                CCDC 
#
#######################################################################
#
# If this CIF has been generated from an entry in the Cambridge 
# Structural Database, then it will include bibliographic, chemical, 
# crystal, experimental, refinement or atomic coordinate data resulting 
# from the CCDC's data processing and validation procedures.
#
#######################################################################

data_XAPSOZ
_chemical_formula_moiety         'C19 H22 O3'
_chemical_name_systematic        1,5-bis(2-methoxyphenyl)pentan-3-one
_symmetry_cell_setting           monoclinic
_symmetry_space_group_name_H-M   'C 2/c'
_symmetry_Int_Tables_number      15
_space_group_name_Hall           '-C 2yn'
loop_
_symmetry_equiv_pos_site_id
_symmetry_equiv_pos_as_xyz
1 x,y,z
2 -x,y,1/2-z
3 1/2+x,1/2+y,z
4 1/2-x,1/2+y,1/2-z
5 -x,-y,-z
6 x,-y,1/2+z
7 1/2-x,1/2-y,-z
8 1/2+x,1/2-y,1/2+z
_cell_length_a                   28.543(6)
_cell_length_b                   7.3090(15)
_cell_length_c                   16.361(3)
_cell_angle_alpha                90
_cell_angle_beta                 105.04(3)
_cell_angle_gamma                90
_cell_volume                     3296.32
_exptl_crystal_description       block
_cell_formula_units_Z            8
loop_
_atom_site_label
_atom_site_type_symbol
_atom_site_fract_x
_atom_site_fract_y
_atom_site_fract_z
O1 O 0.18763(8) 0.1838(3) 0.73903(15)
C1 C 0.13866(13) 0.1557(4) 0.71559(19)
O2 O 0.17949(8) 0.7584(3) 0.58619(16)
C2 C 0.11580(14) 0.0075(5) 0.7415(2)
H1 H 0.1340 -0.0819 0.7762
O3 O 0.18888(9) 1.3246(3) 0.43949(16)
C3 C 0.06585(15) -0.0067(5) 0.7156(2)
H2 H 0.0506 -0.1060 0.7332
C4 C 0.03853(13) 0.1234(5) 0.6644(2)
H3 H 0.0049 0.1131 0.6469
C5 C 0.06193(12) 0.2706(5) 0.6393(2)
H4 H 0.0434 0.3587 0.6043
C6 C 0.11176(11) 0.2919(4) 0.66432(18)
C7 C 0.13818(11) 0.4544(4) 0.6403(2)
H5 H 0.1571 0.5113 0.6919
H6 H 0.1608 0.4096 0.6098
C8 C 0.10703(11) 0.5998(4) 0.5870(2)
H7 H 0.0876 0.5439 0.5355
H8 H 0.0850 0.6486 0.6178
C9 C 0.13577(12) 0.7549(5) 0.5637(2)
C10 C 0.10686(11) 0.9059(4) 0.51194(19)
H9 H 0.0858 0.9598 0.5434
H10 H 0.0864 0.8543 0.4603
C11 C 0.13826(11) 1.0547(4) 0.4892(2)
H11 H 0.1594 1.1019 0.5412
H12 H 0.1588 0.9995 0.4571
C12 C 0.11202(12) 1.2138(4) 0.43911(18)
C13 C 0.06233(12) 1.2340(5) 0.4153(2)
H13 H 0.0431 1.1461 0.4318
C14 C 0.04030(13) 1.3817(5) 0.3675(2)
H14 H 0.0067 1.3913 0.3518
C15 C 0.06788(15) 1.5133(5) 0.3434(2)
H15 H 0.0530 1.6122 0.3112
C16 C 0.11794(15) 1.4995(5) 0.3670(2)
H16 H 0.1368 1.5901 0.3512
C17 C 0.14007(13) 1.3506(5) 0.4142(2)
C18 C 0.21794(13) 0.0469(5) 0.7880(3)
H17 H 0.2512 0.0847 0.7994
H18 H 0.2137 -0.0662 0.7571
H19 H 0.2093 0.0300 0.8404
C19 C 0.22007(14) 1.4630(6) 0.4217(3)
H20 H 0.2533 1.4258 0.4433
H21 H 0.2147 1.5753 0.4483
H22 H 0.2132 1.4808 0.3617
loop_
_geom_bond_atom_site_label_1
_geom_bond_atom_site_label_2
_geom_bond_site_symmetry_1
_geom_bond_site_symmetry_2
O1 C1 1_555 1_555
C1 C2 1_555 1_555
O2 C9 1_555 1_555
C2 H1 1_555 1_555
O3 C17 1_555 1_555
C3 C2 1_555 1_555
H2 C3 1_555 1_555
C4 C3 1_555 1_555
H3 C4 1_555 1_555
C5 C4 1_555 1_555
H4 C5 1_555 1_555
C6 C1 1_555 1_555
C7 C6 1_555 1_555
H5 C7 1_555 1_555
H6 C7 1_555 1_555
C8 C7 1_555 1_555
H7 C8 1_555 1_555
H8 C8 1_555 1_555
C9 C8 1_555 1_555
C10 C9 1_555 1_555
H9 C10 1_555 1_555
H10 C10 1_555 1_555
C11 C10 1_555 1_555
H11 C11 1_555 1_555
H12 C11 1_555 1_555
C12 C11 1_555 1_555
C13 C12 1_555 1_555
H13 C13 1_555 1_555
C14 C13 1_555 1_555
H14 C14 1_555 1_555
C15 C14 1_555 1_555
H15 C15 1_555 1_555
C16 C15 1_555 1_555
H16 C16 1_555 1_555
C17 C12 1_555 1_555
C18 O1 1_555 1_555
H17 C18 1_555 1_555
H18 C18 1_555 1_555
H19 C18 1_555 1_555
C19 O3 1_555 1_555
H20 C19 1_555 1_555
H21 C19 1_555 1_555
H22 C19 1_555 1_555
C5 C6 1_555 1_555
C16 C17 1_555 1_555

#END
