
#######################################################################
#
#                 Cambridge Crystallographic Data Centre
#                                CCDC 
#
#######################################################################
#
# If this CIF has been generated from an entry in the Cambridge 
# Structural Database, then it will include bibliographic, chemical, 
# crystal, experimental, refinement or atomic coordinate data resulting 
# from the CCDC's data processing and validation procedures.
#
#######################################################################

data_XAPSIT
_chemical_formula_moiety         'C27 H23 N1 O2'
_chemical_name_systematic        'biphenyl-4-yl dibenzylcarbamate'
_symmetry_cell_setting           triclinic
_symmetry_space_group_name_H-M   'P -1'
_symmetry_Int_Tables_number      2
_space_group_name_Hall           '-P 1'
loop_
_symmetry_equiv_pos_site_id
_symmetry_equiv_pos_as_xyz
1 x,y,z
2 -x,-y,-z
_cell_length_a                   10.4147(5)
_cell_length_b                   10.8221(8)
_cell_length_c                   11.4326(7)
_cell_angle_alpha                63.221(7)
_cell_angle_beta                 63.896(5)
_cell_angle_gamma                74.519(5)
_cell_volume                     1029.22
_exptl_crystal_colour            colorless
_exptl_crystal_description       block
_cell_formula_units_Z            2
_exptl_crystal_recrystallization_method 'petroleum ether/ethyl acetate'
loop_
_atom_site_label
_atom_site_type_symbol
_atom_site_fract_x
_atom_site_fract_y
_atom_site_fract_z
O1 O 0.23801(8) 0.84443(8) 0.46782(8)
O2 O 0.07597(9) 0.95988(9) 0.36102(9)
N1 N 0.26996(9) 1.06193(9) 0.30840(9)
C1 C 0.39550(11) 1.05994(11) 0.33546(11)
H1 H 0.4730 1.0985 0.2460
H2 H 0.4267 0.9644 0.3831
C2 C 0.36698(11) 1.14106(11) 0.42448(11)
C3 C 0.37029(13) 1.15529(13) -0.00740(13)
H3 H 0.3388 1.0668 0.0381
C4 C 0.47091(12) 1.21922(12) 0.39540(12)
H4 H 0.5580 1.2223 0.3204
C5 C 0.16340(11) 0.67152(12) 0.69588(11)
H5 H 0.2115 0.7132 0.7188
C6 C 0.32533(11) 1.24201(11) 0.06612(11)
C7 C 0.22251(12) 1.19612(12) 0.21773(12)
H6 H 0.2115 1.2658 0.2536
H7 H 0.1293 1.1900 0.2218
C8 C 0.23765(12) 1.13721(13) 0.53755(12)
H8 H 0.1673 1.0842 0.5591
C9 C 0.01756(12) 0.55055(12) 0.62887(12)
H9 H -0.0331 0.5111 0.6064
C10 C 0.09651(11) 0.55178(12) 0.79532(11)
H10 H 0.1018 0.5126 0.8843
C11 C -0.17598(12) 0.33316(12) 0.87265(12)
H11 H -0.2153 0.3972 0.8068
C12 C 0.50894(14) 1.33106(16) -0.21712(13)
H12 H 0.5697 1.3608 -0.3116
C13 C 0.00458(12) 0.26155(12) 0.97169(12)
H13 H 0.0877 0.2771 0.9725
C14 C -0.24234(13) 0.21221(13) 0.97115(13)
H14 H -0.3251 0.1957 0.9705
C15 C 0.44646(13) 1.29315(13) 0.47722(13)
H15 H 0.5174 1.3447 0.4572
C16 C 0.18399(11) 0.95723(12) 0.37725(11)
C17 C 0.46158(14) 1.19978(15) -0.14776(13)
H16 H 0.4912 1.1408 -0.1957
C18 C 0.08690(12) 0.66859(12) 0.52692(11)
H17 H 0.0852 0.7063 0.4366
C19 C -0.06184(14) 0.14091(13) 1.07044(13)
H18 H -0.0232 0.0766 1.1368
C20 C 0.15864(11) 0.72917(11) 0.56221(11)
C21 C 0.02126(11) 0.48884(11) 0.76450(11)
C22 C 0.21307(13) 1.21173(14) 0.61811(13)
H19 H 0.1260 1.2090 0.6930
C23 C 0.31714(13) 1.29023(13) 0.58812(13)
H20 H 0.3001 1.3405 0.6422
C24 C -0.05132(11) 0.36009(11) 0.87094(11)
C25 C 0.37452(13) 1.37337(12) -0.00441(13)
H21 H 0.3462 1.4324 0.0434
C26 C 0.46550(14) 1.41777(14) -0.14537(14)
H22 H 0.4972 1.5063 -0.1915
C27 C -0.18547(14) 0.11614(13) 1.07035(13)
H23 H -0.2301 0.0354 1.1366
loop_
_geom_bond_atom_site_label_1
_geom_bond_atom_site_label_2
_geom_bond_site_symmetry_1
_geom_bond_site_symmetry_2
O1 C16 1_555 1_555
O2 C16 1_555 1_555
N1 C1 1_555 1_555
C1 H1 1_555 1_555
H2 C1 1_555 1_555
C2 C1 1_555 1_555
C3 H3 1_555 1_555
C4 C2 1_555 1_555
H4 C4 1_555 1_555
C5 H5 1_555 1_555
C6 C3 1_555 1_555
C7 N1 1_555 1_555
H6 C7 1_555 1_555
H7 C7 1_555 1_555
C8 C2 1_555 1_555
H8 C8 1_555 1_555
C9 H9 1_555 1_555
C10 C5 1_555 1_555
H10 C10 1_555 1_555
C11 H11 1_555 1_555
C12 H12 1_555 1_555
C13 H13 1_555 1_555
C14 C11 1_555 1_555
H14 C14 1_555 1_555
C15 C4 1_555 1_555
H15 C15 1_555 1_555
C16 N1 1_555 1_555
C17 C3 1_555 1_555
H16 C17 1_555 1_555
C18 C9 1_555 1_555
H17 C18 1_555 1_555
C19 C13 1_555 1_555
H18 C19 1_555 1_555
C20 O1 1_555 1_555
C21 C9 1_555 1_555
C22 C8 1_555 1_555
H19 C22 1_555 1_555
C23 C15 1_555 1_555
H20 C23 1_555 1_555
C24 C11 1_555 1_555
C25 C6 1_555 1_555
H21 C25 1_555 1_555
C26 C12 1_555 1_555
H22 C26 1_555 1_555
C27 C14 1_555 1_555
H23 C27 1_555 1_555
C5 C20 1_555 1_555
C6 C7 1_555 1_555
C10 C21 1_555 1_555
C12 C17 1_555 1_555
C13 C24 1_555 1_555
C18 C20 1_555 1_555
C19 C27 1_555 1_555
C21 C24 1_555 1_555
C22 C23 1_555 1_555
C25 C26 1_555 1_555

#END
