
#######################################################################
#
#                 Cambridge Crystallographic Data Centre
#                                CCDC 
#
#######################################################################
#
# If this CIF has been generated from an entry in the Cambridge 
# Structural Database, then it will include bibliographic, chemical, 
# crystal, experimental, refinement or atomic coordinate data resulting 
# from the CCDC's data processing and validation procedures.
#
#######################################################################

data_XAPSAJ
_chemical_formula_moiety         'C14 H15 Cl1 N2 O1'
_chemical_name_systematic        4-(4-t-Butylphenoxy)-2-chloropyrimidine
_symmetry_cell_setting           monoclinic
_symmetry_space_group_name_H-M   'C 2/c'
_symmetry_Int_Tables_number      15
_space_group_name_Hall           '-C 2yn'
loop_
_symmetry_equiv_pos_site_id
_symmetry_equiv_pos_as_xyz
1 x,y,z
2 1/2+x,1/2+y,z
3 -x,y,1/2-z
4 1/2-x,1/2+y,1/2-z
5 -x,-y,-z
6 1/2-x,1/2-y,-z
7 x,-y,1/2+z
8 1/2+x,1/2-y,1/2+z
_cell_length_a                   20.692(11)
_cell_length_b                   12.456(6)
_cell_length_c                   11.792(6)
_cell_angle_alpha                90
_cell_angle_beta                 114.510(8)
_cell_angle_gamma                90
_cell_volume                     2765.39
_exptl_crystal_colour            yellow
_exptl_crystal_description       block
_cell_formula_units_Z            8
_exptl_crystal_recrystallization_method ethanol
loop_
_atom_site_label
_atom_site_type_symbol
_atom_site_fract_x
_atom_site_fract_y
_atom_site_fract_z
Cl1 Cl 0.40694(5) 1.22543(6) 0.25627(7)
O1 O 0.38020(12) 0.84917(15) 0.31959(18)
N1 N 0.39398(12) 1.02521(17) 0.3017(2)
N2 N 0.41741(13) 1.14932(17) 0.4668(2)
C1 C 0.40606(14) 1.1210(2) 0.3531(3)
C2 C 0.41597(16) 1.0671(2) 0.5384(3)
H1 H 0.4236 1.0817 0.6204
C3 C 0.40400(15) 0.9630(2) 0.4990(3)
H2 H 0.4035 0.9072 0.5511
C4 C 0.39272(14) 0.9461(2) 0.3766(3)
C5 C 0.37069(18) 0.7597(2) 0.3837(3)
C6 C 0.30387(17) 0.7328(2) 0.3701(3)
H3 H 0.2654 0.7764 0.3240
C7 C 0.29395(15) 0.6402(2) 0.4257(3)
H4 H 0.2484 0.6225 0.4164
C8 C 0.34992(14) 0.5727(2) 0.4948(2)
C9 C 0.41660(15) 0.6037(2) 0.5063(3)
H5 H 0.4554 0.5607 0.5523
C10 C 0.42759(16) 0.6963(2) 0.4520(3)
H6 H 0.4731 0.7152 0.4618
C11 C 0.33683(15) 0.4698(2) 0.5517(2)
C12 C 0.3003(3) 0.4941(3) 0.6372(5)
H7 H 0.3313 0.5361 0.7067
H8 H 0.2890 0.4280 0.6669
H9 H 0.2573 0.5336 0.5920
C13 C 0.4038(2) 0.4055(3) 0.6253(5)
H10 H 0.4352 0.4476 0.6943
H11 H 0.4269 0.3876 0.5721
H12 H 0.3913 0.3408 0.6558
C14 C 0.2884(3) 0.3951(3) 0.4465(4)
H13 H 0.2446 0.4313 0.3980
H14 H 0.2787 0.3311 0.4821
H15 H 0.3118 0.3764 0.3939
C15? C 0.3797(12) 0.487(2) 0.6911(10)
H16? H 0.4294 0.4884 0.7093
H17? H 0.3703 0.4298 0.7365
H18? H 0.3664 0.5543 0.7153
C16? C 0.3649(14) 0.3776(17) 0.503(3)
H19? H 0.3445 0.3117 0.5151
H20? H 0.4156 0.3745 0.5471
H21? H 0.3524 0.3879 0.4157
C17? C 0.2591(6) 0.453(2) 0.526(3)
H22? H 0.2553 0.3981 0.5795
H23? H 0.2332 0.4320 0.4403
H24? H 0.2398 0.5190 0.5406
loop_
_geom_bond_atom_site_label_1
_geom_bond_atom_site_label_2
_geom_bond_site_symmetry_1
_geom_bond_site_symmetry_2
Cl1 C1 1_555 1_555
O1 C4 1_555 1_555
N1 C1 1_555 1_555
N2 C1 1_555 1_555
C2 N2 1_555 1_555
H1 C2 1_555 1_555
C3 C2 1_555 1_555
H2 C3 1_555 1_555
C4 N1 1_555 1_555
C5 O1 1_555 1_555
C6 C5 1_555 1_555
H3 C6 1_555 1_555
C7 C6 1_555 1_555
H4 C7 1_555 1_555
C8 C7 1_555 1_555
C9 C8 1_555 1_555
H5 C9 1_555 1_555
C10 C5 1_555 1_555
H6 C10 1_555 1_555
C11 C8 1_555 1_555
C12 C11 1_555 1_555
H7 C12 1_555 1_555
H8 C12 1_555 1_555
H9 C12 1_555 1_555
C13 C11 1_555 1_555
H10 C13 1_555 1_555
H11 C13 1_555 1_555
H12 C13 1_555 1_555
C14 C11 1_555 1_555
H13 C14 1_555 1_555
H14 C14 1_555 1_555
H15 C14 1_555 1_555
C3 C4 1_555 1_555
C9 C10 1_555 1_555

#END
