
#######################################################################
#
#                 Cambridge Crystallographic Data Centre
#                                CCDC 
#
#######################################################################
#
# If this CIF has been generated from an entry in the Cambridge 
# Structural Database, then it will include bibliographic, chemical, 
# crystal, experimental, refinement or atomic coordinate data resulting 
# from the CCDC's data processing and validation procedures.
#
#######################################################################

data_XAPWUG
_chemical_formula_moiety         'C10 H8 N2,2(C8 H5 Cl3 O3)'
_chemical_name_systematic        
"4,4'-Bipyridine (2,4,5-trichlorophenoxy)acetic acid"
_symmetry_cell_setting           monoclinic
_symmetry_space_group_name_H-M   'P 21/a'
_symmetry_Int_Tables_number      14
_space_group_name_Hall           '-P 2yab'
loop_
_symmetry_equiv_pos_site_id
_symmetry_equiv_pos_as_xyz
1 x,y,z
2 1/2-x,1/2+y,-z
3 -x,-y,-z
4 1/2+x,1/2-y,z
_cell_length_a                   13.504(3)
_cell_length_b                   8.322(4)
_cell_length_c                   13.732(3)
_cell_angle_alpha                90
_cell_angle_beta                 114.24(1)
_cell_angle_gamma                90
_cell_volume                     1407.15
_exptl_crystal_colour            colorless
_exptl_crystal_description       prisms
_chemical_melting_point          '141-143 deg.C'
_cell_formula_units_Z            2
_exptl_crystal_recrystallization_method water/ethanol
loop_
_atom_site_label
_atom_site_type_symbol
_atom_site_fract_x
_atom_site_fract_y
_atom_site_fract_z
N1 N 0.2627(2) 0.9302(4) 1.0438(2)
C1 C 0.3513(4) 0.9943(7) 1.1182(4)
C2 C 0.4449(4) 1.0245(6) 1.1043(3)
C3 C 0.4505(2) 0.9856(4) 1.0091(2)
C4 C 0.3583(3) 0.9203(5) 0.9322(3)
C5 C 0.2683(3) 0.8934(6) 0.9532(3)
H1 H 0.3440(5) 1.0280(7) 1.1780(5)
H2 H 0.5010(4) 1.0650(6) 1.1550(4)
H3 H 0.3600(3) 0.8870(5) 0.8610(4)
H4 H 0.2050(3) 0.8540(4) 0.9010(3)
C3B C 0.5495(2) 1.0144(4) 0.9909(2)
C2B C 0.5551(4) 0.9755(6) 0.8957(3)
C1B C 0.6487(4) 1.0057(7) 0.8818(4)
N1B N 0.7373(2) 1.0698(4) 0.9562(2)
C5B C 0.7317(3) 1.1066(6) 1.0468(3)
C4B C 0.6417(3) 1.0797(5) 1.0678(3)
H3B H 0.6400(3) 1.1130(5) 1.1390(4)
H4B H 0.7950(3) 1.1460(4) 1.0990(3)
H1B H 0.6560(5) 0.9720(7) 0.8220(5)
H2B H 0.4990(4) 0.9350(6) 0.8450(4)
C6 C 0.4625(2) 0.5862(4) 0.6431(3)
C7 C 0.5107(2) 0.6811(4) 0.5902(3)
Cl1 Cl 0.6421(1) 0.7513(1) 0.6592(1)
C8 C 0.4562(3) 0.7196(4) 0.4846(3)
C9 C 0.3508(3) 0.6644(4) 0.4276(3)
Cl2 Cl 0.2837(1) 0.7124(1) 0.2941(1)
C10 C 0.3014(2) 0.5724(4) 0.4802(3)
Cl3 Cl 0.1687(1) 0.5077(1) 0.4128(1)
C11 C 0.3573(2) 0.5332(4) 0.5868(3)
O1 O 0.5245(2) 0.5556(3) 0.7486(2)
C12 C 0.4936(3) 0.4316(5) 0.8004(3)
C13 C 0.4113(2) 0.4808(4) 0.8420(3)
O2 O 0.3589(2) 0.6020(3) 0.8142(2)
O3 O 0.4032(2) 0.3744(3) 0.9086(2)
H5 H 0.3420(4) 0.3990(6) 0.9270(4)
H6 H 0.4840(3) 0.7780(4) 0.4460(3)
H7 H 0.3260(3) 0.4770(4) 0.6200(3)
H8 H 0.4670(2) 0.3380(4) 0.7570(3)
H9 H 0.5580(3) 0.3970(5) 0.8590(3)
loop_
_geom_bond_atom_site_label_1
_geom_bond_atom_site_label_2
_geom_bond_site_symmetry_1
_geom_bond_site_symmetry_2
N1 C1 1_555 1_555
C1 C2 1_555 1_555
C2 C3 1_555 1_555
C3 C4 1_555 1_555
C4 C5 1_555 1_555
C5 N1 1_555 1_555
H1 C1 1_555 1_555
H2 C2 1_555 1_555
H3 C4 1_555 1_555
H4 C5 1_555 1_555
C6 C7 1_555 1_555
C7 Cl1 1_555 1_555
C8 C7 1_555 1_555
C9 C8 1_555 1_555
Cl2 C9 1_555 1_555
C10 C9 1_555 1_555
Cl3 C10 1_555 1_555
C11 C6 1_555 1_555
O1 C6 1_555 1_555
C12 O1 1_555 1_555
C13 C12 1_555 1_555
O2 C13 1_555 1_555
O3 C13 1_555 1_555
H5 O3 1_555 1_555
H6 C8 1_555 1_555
H7 C11 1_555 1_555
H8 C12 1_555 1_555
H9 C12 1_555 1_555
C3B C3 1_555 1_555
C2B C3B 1_555 1_555
C1B C2B 1_555 1_555
N1B C1B 1_555 1_555
C5B N1B 1_555 1_555
C4B C3B 1_555 1_555
H3B C4B 1_555 1_555
H4B C5B 1_555 1_555
H1B C1B 1_555 1_555
H2B C2B 1_555 1_555
C10 C11 1_555 1_555
C5B C4B 1_555 1_555

#END
