
#######################################################################
#
#                 Cambridge Crystallographic Data Centre
#                                CCDC 
#
#######################################################################
#
# If this CIF has been generated from an entry in the Cambridge 
# Structural Database, then it will include bibliographic, chemical, 
# crystal, experimental, refinement or atomic coordinate data resulting 
# from the CCDC's data processing and validation procedures.
#
#######################################################################

data_XAPWOA
_chemical_formula_moiety         'C9 H6 N2 O2,C8 H5 Cl3 O3'
_chemical_name_systematic        
'5-Nitroquinoline (2,4,5-trichlorophenoxy)acetic acid'
_symmetry_cell_setting           triclinic
_symmetry_space_group_name_H-M   'P -1'
_symmetry_Int_Tables_number      2
_space_group_name_Hall           '-P 1'
loop_
_symmetry_equiv_pos_site_id
_symmetry_equiv_pos_as_xyz
1 x,y,z
2 -x,-y,-z
_cell_length_a                   8.657(4)
_cell_length_b                   14.433(5)
_cell_length_c                   7.779(2)
_cell_angle_alpha                97.21(3)
_cell_angle_beta                 109.17(3)
_cell_angle_gamma                77.81(3)
_cell_volume                     895.7
_exptl_crystal_colour            colorless
_exptl_crystal_description       prisms
_chemical_melting_point          '129.5-131.5 deg.C'
_cell_formula_units_Z            2
_exptl_crystal_recrystallization_method water/ethanol
loop_
_atom_site_label
_atom_site_type_symbol
_atom_site_fract_x
_atom_site_fract_y
_atom_site_fract_z
N1 N 0.5129(3) 0.0765(2) -0.6706(3)
C1 C 0.4818(4) 0.0038(3) -0.7883(5)
C2 C 0.5891(5) -0.0826(3) -0.7760(5)
C3 C 0.7328(4) -0.0968(2) -0.6351(5)
C4 C 0.9150(4) -0.0224(2) -0.3428(4)
N2 N 1.0457(4) -0.1071(2) -0.2959(4)
O1 O 1.0353(4) -0.1789(2) -0.3930(5)
O2 O 1.1657(4) -0.1011(3) -0.1616(4)
C5 C 0.9404(4) 0.0556(3) -0.2270(5)
C6 C 0.8270(4) 0.1412(3) -0.2577(5)
C7 C 0.6875(4) 0.1457(2) -0.4050(5)
C8 C 0.6573(3) 0.0659(2) -0.5279(4)
C9 C 0.7720(4) -0.0216(2) -0.5014(4)
H1 H 0.3890(4) 0.0190(2) -0.8800(5)
H2 H 0.5670(4) -0.1310(3) -0.8510(5)
H3 H 0.8050(4) -0.1560(2) -0.6290(4)
H4 H 1.0400(5) 0.0530(2) -0.1250(5)
H5 H 0.8440(5) 0.1990(3) -0.1810(5)
H6 H 0.6150(4) 0.2030(2) -0.4250(5)
C10 C 0.1673(4) 0.5598(2) 0.0061(4)
C11 C 0.2641(4) 0.5353(2) 0.1828(5)
Cl1 Cl 0.2275(1) 0.6046(1) 0.3681(1)
C12 C 0.3903(4) 0.4558(2) 0.2091(5)
C13 C 0.4174(4) 0.3986(2) 0.0623(5)
Cl2 Cl 0.5756(1) 0.3000(1) 0.1032(2)
C14 C 0.3184(4) 0.4212(2) -0.1112(5)
Cl3 Cl 0.3441(1) 0.3514(1) -0.3016(2)
C15 C 0.1952(4) 0.5016(2) -0.1392(5)
O3 O 0.0488(3) 0.6404(2) -0.0070(3)
C16 C -0.0546(4) 0.6628(2) -0.1838(5)
C17 C -0.1784(4) 0.7518(2) -0.1679(4)
O4 O -0.1666(3) 0.8043(2) -0.0364(4)
O5 O -0.3005(3) 0.7637(2) -0.3210(3)
H7 H 0.4480(5) 0.4390(3) 0.3320(5)
H8 H 0.1210(5) 0.5160(3) -0.2590(6)
H9 H -0.1110(4) 0.6110(3) -0.2430(5)
H10 H 0.0080(5) 0.6840(3) -0.2630(5)
H11 H -0.3840(5) 0.8300(3) -0.3110(5)
loop_
_geom_bond_atom_site_label_1
_geom_bond_atom_site_label_2
_geom_bond_site_symmetry_1
_geom_bond_site_symmetry_2
N1 C1 1_555 1_555
C1 C2 1_555 1_555
C2 C3 1_555 1_555
C3 C9 1_555 1_555
C4 N2 1_555 1_555
N2 O1 1_555 1_555
O2 N2 1_555 1_555
C5 C4 1_555 1_555
C6 C5 1_555 1_555
C7 C6 1_555 1_555
C8 N1 1_555 1_555
C9 C4 1_555 1_555
H1 C1 1_555 1_555
H2 C2 1_555 1_555
H3 C3 1_555 1_555
H4 C5 1_555 1_555
H5 C6 1_555 1_555
H6 C7 1_555 1_555
C10 C11 1_555 1_555
C11 Cl1 1_555 1_555
C12 C11 1_555 1_555
C13 C12 1_555 1_555
Cl2 C13 1_555 1_555
C14 C13 1_555 1_555
Cl3 C14 1_555 1_555
C15 C10 1_555 1_555
O3 C10 1_555 1_555
C16 O3 1_555 1_555
C17 C16 1_555 1_555
O4 C17 1_555 1_555
O5 C17 1_555 1_555
H7 C12 1_555 1_555
H8 C15 1_555 1_555
H9 C16 1_555 1_555
H10 C16 1_555 1_555
H11 O5 1_555 1_555
C7 C8 1_555 1_555
C8 C9 1_555 1_555
C14 C15 1_555 1_555

#END
