
#######################################################################
#
#                 Cambridge Crystallographic Data Centre
#                                CCDC 
#
#######################################################################
#
# If this CIF has been generated from an entry in the Cambridge 
# Structural Database, then it will include bibliographic, chemical, 
# crystal, experimental, refinement or atomic coordinate data resulting 
# from the CCDC's data processing and validation procedures.
#
#######################################################################

data_XAPXER
_chemical_formula_moiety         'C7 H7 N2 S1 1+,C8 H4 Cl3 O3 1-'
_chemical_name_systematic        
'2-Aminobenzothiazole (2,4,5-trichlorophenoxy)acetic acid'
_symmetry_cell_setting           orthorhombic
_symmetry_space_group_name_H-M   'P b c a'
_symmetry_Int_Tables_number      61
_space_group_name_Hall           '-P 2ac 2ab'
loop_
_symmetry_equiv_pos_site_id
_symmetry_equiv_pos_as_xyz
1 x,y,z
2 1/2-x,-y,1/2+z
3 1/2+x,1/2-y,-z
4 -x,1/2+y,1/2-z
5 -x,-y,-z
6 1/2+x,y,1/2-z
7 1/2-x,1/2+y,z
8 x,1/2-y,1/2+z
_cell_length_a                   37.01(8)
_cell_length_b                   12.64(9)
_cell_length_c                   7.10(6)
_cell_angle_alpha                90
_cell_angle_beta                 90
_cell_angle_gamma                90
_cell_volume                     3321.43
_exptl_crystal_colour            colorless
_exptl_crystal_description       prisms
_chemical_melting_point          '171-173 deg.C'
_cell_formula_units_Z            8
_exptl_crystal_recrystallization_method water/ethanol
loop_
_atom_site_label
_atom_site_type_symbol
_atom_site_fract_x
_atom_site_fract_y
_atom_site_fract_z
S1 S 0.6664(1) 0.5474(2) -0.0120(4)
C1 C 0.7109(2) 0.5851(6) 0.0428(13)
N1 N 0.7360(2) 0.5171(6) 0.0805(13)
N2 N 0.7146(2) 0.6885(5) 0.0458(11)
C2 C 0.6799(3) 0.8543(7) 0.0074(13)
C3 C 0.6457(3) 0.8977(8) -0.0206(14)
C4 C 0.6163(3) 0.8297(9) -0.0464(15)
C5 C 0.6198(2) 0.7229(8) -0.0514(14)
C6 C 0.6537(2) 0.6796(7) -0.0202(12)
C7 C 0.6829(2) 0.7458(7) 0.0081(13)
H1 H 0.7573 0.5386 0.1107
H2 H 0.7314 0.4505 0.0754
H3 H 0.7349 0.7188 0.0691
H4 H 0.7001 0.8972 0.0249
H5 H 0.6425 0.9707 -0.0221
H6 H 0.5934 0.8589 -0.0606
H7 H 0.6000 0.6797 -0.0752
C8 C 0.6002(2) 0.2471(7) 0.2293(13)
C9 C 0.5736(2) 0.1709(7) 0.2447(13)
Cl1 Cl 0.5855(1) 0.0377(2) 0.2454(4)
C10 C 0.5377(2) 0.1980(9) 0.2613(14)
C11 C 0.5274(2) 0.3027(8) 0.2566(14)
Cl2 Cl 0.4825(1) 0.3341(3) 0.2773(5)
C12 C 0.5537(3) 0.3791(8) 0.2396(14)
Cl3 Cl 0.5428(1) 0.5109(2) 0.2290(5)
C13 C 0.5905(2) 0.3517(7) 0.2268(14)
O1 O 0.6345(2) 0.2097(4) 0.2163(10)
C14 C 0.6630(2) 0.2846(7) 0.1832(16)
C15 C 0.6990(2) 0.2273(7) 0.1548(15)
O2 O 0.7006(2) 0.1313(5) 0.1596(13)
O3 O 0.7252(2) 0.2915(5) 0.1295(11)
H8 H 0.5203 0.1455 0.2756
H9 H 0.6081 0.4041 0.2166
H10 H 0.6649 0.3323 0.2898
H11 H 0.6575 0.3263 0.0722
loop_
_geom_bond_atom_site_label_1
_geom_bond_atom_site_label_2
_geom_bond_site_symmetry_1
_geom_bond_site_symmetry_2
S1 C1 1_555 1_555
C1 N1 1_555 1_555
N1 H1 1_555 1_555
N2 C1 1_555 1_555
C2 C3 1_555 1_555
C3 C4 1_555 1_555
C4 C5 1_555 1_555
C5 C6 1_555 1_555
C6 S1 1_555 1_555
C7 N2 1_555 1_555
H2 N1 1_555 1_555
H3 N2 1_555 1_555
H4 C2 1_555 1_555
H5 C3 1_555 1_555
H6 C4 1_555 1_555
H7 C5 1_555 1_555
C8 C9 1_555 1_555
C9 Cl1 1_555 1_555
C10 C9 1_555 1_555
C11 C10 1_555 1_555
Cl2 C11 1_555 1_555
C12 C11 1_555 1_555
Cl3 C12 1_555 1_555
C13 C8 1_555 1_555
O1 C8 1_555 1_555
C14 O1 1_555 1_555
C15 C14 1_555 1_555
O2 C15 1_555 1_555
O3 C15 1_555 1_555
H8 C10 1_555 1_555
H9 C13 1_555 1_555
H10 C14 1_555 1_555
H11 C14 1_555 1_555
C2 C7 1_555 1_555
C6 C7 1_555 1_555
C12 C13 1_555 1_555

#END
