
#######################################################################
#
#                 Cambridge Crystallographic Data Centre
#                                CCDC 
#
#######################################################################
#
# If this CIF has been generated from an entry in the Cambridge 
# Structural Database, then it will include bibliographic, chemical, 
# crystal, experimental, refinement or atomic coordinate data resulting 
# from the CCDC's data processing and validation procedures.
#
#######################################################################

data_XAPXOE
_chemical_formula_moiety         'C23 H16 Cl1 F1 N2 O4 S1'
_chemical_name_systematic        
5-chloro-5'-fluoro-1'-methyl-1-[(4-methylphenyl)sulfonyl]-2,3'-spirobi[indole]-2',3(1H,1'H)-dione
_symmetry_cell_setting           orthorhombic
_symmetry_space_group_name_H-M   'P 21 21 21'
_symmetry_Int_Tables_number      19
_space_group_name_Hall           'P 2ac 2ab'
loop_
_symmetry_equiv_pos_site_id
_symmetry_equiv_pos_as_xyz
1 x,y,z
2 1/2-x,-y,1/2+z
3 -x,1/2+y,1/2-z
4 1/2+x,1/2-y,-z
_cell_length_a                   9.0392(6)
_cell_length_b                   14.7080(9)
_cell_length_c                   15.6959(10)
_cell_angle_alpha                90
_cell_angle_beta                 90
_cell_angle_gamma                90
_cell_volume                     2086.75
_exptl_crystal_colour            colorless
_exptl_crystal_description       Prism
_cell_formula_units_Z            4
loop_
_atom_site_label
_atom_site_type_symbol
_atom_site_fract_x
_atom_site_fract_y
_atom_site_fract_z
S1 S 0.22654(3) 0.054093(18) 0.812248(16)
Cl1 Cl -0.10915(4) 0.24508(2) 0.441666(19)
F1 F 0.77837(9) 0.04922(6) 0.63147(6)
O1 O 0.31465(9) 0.13478(6) 0.81924(6)
O2 O 0.28468(10) -0.03132(6) 0.84094(5)
O3 O 0.07833(9) -0.15805(6) 0.71740(6)
O4 O 0.20879(10) -0.08545(6) 0.51689(5)
N1 N 0.18798(11) 0.03503(6) 0.71050(6)
N2 N 0.32994(11) -0.18624(7) 0.71164(6)
C1 C 0.05276(12) 0.07541(8) 0.85787(7)
C2 C 0.02878(13) 0.15624(8) 0.90096(8)
H1 H 0.1055 0.2001 0.9058
C3 C -0.10932(14) 0.17231(9) 0.93711(8)
H2 H -0.1265 0.2275 0.9669
C4 C -0.22237(14) 0.10875(9) 0.93029(8)
C5 C -0.19517(14) 0.02715(9) 0.88736(9)
H3 H -0.2716 -0.0169 0.8830
C6 C -0.05774(14) 0.00957(9) 0.85100(8)
H4 H -0.0395 -0.0461 0.8221
C7 C -0.37312(15) 0.12833(11) 0.96640(9)
H5 H -0.3885 0.1942 0.9689
H6 H -0.3803 0.1028 1.0239
H7 H -0.4488 0.1008 0.9299
C8 C 0.12228(12) 0.09647(7) 0.65328(7)
C9 C 0.06182(13) 0.18170(8) 0.67027(7)
H8 H 0.0677 0.2082 0.7254
C10 C -0.00752(13) 0.22637(8) 0.60302(8)
H9 H -0.0515 0.2842 0.6125
C11 C -0.01363(13) 0.18777(8) 0.52196(8)
C12 C 0.05058(12) 0.10464(8) 0.50386(7)
H10 H 0.0478 0.0794 0.4482
C13 C 0.11962(11) 0.05958(8) 0.57123(7)
C14 C 0.19233(11) -0.02958(7) 0.57271(7)
C15 C 0.25261(11) -0.04227(7) 0.66498(7)
C16 C 0.41908(12) -0.04829(8) 0.66550(7)
C17 C 0.52470(13) 0.01501(8) 0.64344(8)
H11 H 0.4988 0.0737 0.6232
C18 C 0.67122(13) -0.01178(9) 0.65250(9)
C19 C 0.71314(13) -0.09610(9) 0.68143(8)
H12 H 0.8150 -0.1109 0.6868
C20 C 0.60505(13) -0.16005(8) 0.70295(8)
H13 H 0.6313 -0.2187 0.7233
C21 C 0.45834(12) -0.13483(8) 0.69362(7)
C22 C 0.20516(12) -0.13585(8) 0.70182(7)
C23 C 0.33164(14) -0.27504(8) 0.75265(8)
H14 H 0.2332 -0.3026 0.7486
H15 H 0.3588 -0.2680 0.8127
H16 H 0.4040 -0.3142 0.7242
loop_
_geom_bond_atom_site_label_1
_geom_bond_atom_site_label_2
_geom_bond_site_symmetry_1
_geom_bond_site_symmetry_2
S1 O1 1_555 1_555
Cl1 C11 1_555 1_555
F1 C18 1_555 1_555
O2 S1 1_555 1_555
O3 C22 1_555 1_555
O4 C14 1_555 1_555
N1 S1 1_555 1_555
N2 C21 1_555 1_555
C1 S1 1_555 1_555
C2 C1 1_555 1_555
H1 C2 1_555 1_555
C3 C2 1_555 1_555
H2 C3 1_555 1_555
C4 C3 1_555 1_555
C5 C4 1_555 1_555
H3 C5 1_555 1_555
C6 C1 1_555 1_555
H4 C6 1_555 1_555
C7 C4 1_555 1_555
H5 C7 1_555 1_555
H6 C7 1_555 1_555
H7 C7 1_555 1_555
C8 N1 1_555 1_555
C9 C8 1_555 1_555
H8 C9 1_555 1_555
C10 C9 1_555 1_555
H9 C10 1_555 1_555
C11 C10 1_555 1_555
C12 C11 1_555 1_555
H10 C12 1_555 1_555
C13 C8 1_555 1_555
C14 C13 1_555 1_555
C15 N1 1_555 1_555
C16 C15 1_555 1_555
C17 C16 1_555 1_555
H11 C17 1_555 1_555
C18 C17 1_555 1_555
C19 C18 1_555 1_555
H12 C19 1_555 1_555
C20 C19 1_555 1_555
H13 C20 1_555 1_555
C21 C16 1_555 1_555
C22 N2 1_555 1_555
C23 N2 1_555 1_555
H14 C23 1_555 1_555
H15 C23 1_555 1_555
H16 C23 1_555 1_555
C5 C6 1_555 1_555
C12 C13 1_555 1_555
C14 C15 1_555 1_555
C15 C22 1_555 1_555
C20 C21 1_555 1_555

#END
