
#######################################################################
#
#                 Cambridge Crystallographic Data Centre
#                                CCDC 
#
#######################################################################
#
# If this CIF has been generated from an entry in the Cambridge 
# Structural Database, then it will include bibliographic, chemical, 
# crystal, experimental, refinement or atomic coordinate data resulting 
# from the CCDC's data processing and validation procedures.
#
#######################################################################

data_XAQDOL
_chemical_compound_source        'fungus Aspergillus tennesseensis'
_chemical_name_common            'versicoamide G methanol solvate hydrate'
_chemical_formula_moiety         'C33 H37 N3 O8,1.19(C1 H4 O1),0.31(H2 O1)'
_chemical_name_systematic        
"4a-hydroxy-2-(hydroxymethyl)-2-methoxy-12,12,16,16-tetramethyl-2,3,4a,9,10,11,11a,12,13,16,19c,19d-dodecahydro-4H,6H,8H-5,10a-methanoindolizino[6,7-h]pyrano[3,2-a]pyrano[2',3':4,5]pyrrolo[3,2-g]carbazole-4,6,20-trione methanol solvate hydrate"
_chemical_properties_biological  
'weak antiproliferative activity against the H460 cell line'
_symmetry_cell_setting           monoclinic
_symmetry_space_group_name_H-M   'P 21'
_symmetry_Int_Tables_number      4
_space_group_name_Hall           'P 2yb'
loop_
_symmetry_equiv_pos_site_id
_symmetry_equiv_pos_as_xyz
1 x,y,z
2 -x,1/2+y,-z
_cell_length_a                   15.7527(6)
_cell_length_b                   8.9786(3)
_cell_length_c                   24.0362(9)
_cell_angle_alpha                90
_cell_angle_beta                 108.197(4)
_cell_angle_gamma                90
_cell_volume                     3229.59
_cell_formula_units_Z            4
loop_
_atom_site_label
_atom_site_type_symbol
_atom_site_fract_x
_atom_site_fract_y
_atom_site_fract_z
O9 O -0.36035(10) -0.14897(19) -0.16101(7)
O10 O -0.33109(11) 0.0310(2) -0.22314(8)
O11 O -0.33265(11) -0.1451(2) 0.06053(7)
O12 O -0.82879(11) -0.1098(2) -0.20729(8)
O13 O -0.24609(11) 0.1060(2) -0.04500(8)
H38 H -0.1929 0.1349 -0.0313
O14 O -0.32890(13) -0.3791(2) -0.22660(8)
H39 H -0.3742 -0.4021 -0.2172
O15 O -0.14020(11) 0.0997(2) -0.11461(8)
N4 N -0.56485(12) -0.4020(2) -0.10267(8)
H40 H -0.5855 -0.4923 -0.1007
O16 O -0.07877(11) -0.1823(2) -0.02695(8)
C34 C -0.61496(15) -0.2806(3) -0.12829(9)
C35 C -0.24956(15) -0.0182(3) -0.07964(10)
C36 C -0.46927(14) -0.2100(3) -0.09083(9)
N5 N -0.22898(12) -0.1568(2) -0.04572(8)
C37 C -0.70698(15) -0.2707(3) -0.15796(10)
C38 C -0.47597(15) -0.3579(3) -0.08028(9)
C39 C -0.73865(15) -0.1301(3) -0.17992(10)
C40 C -0.59161(15) -0.0189(3) -0.14563(9)
H41 H -0.5533 0.0647 -0.1421
N6 N -0.20769(13) -0.2744(3) 0.06012(9)
C41 C -0.19132(15) -0.0027(3) -0.12015(10)
C42 C -0.28621(15) -0.2065(3) 0.03506(10)
C43 C -0.76919(16) -0.3958(3) -0.17081(11)
H42 H -0.7539 -0.4870 -0.1501
C44 C -0.55721(14) -0.1568(3) -0.12244(9)
C45 C -0.87344(17) -0.2337(3) -0.24456(12)
C46 C -0.31253(16) -0.1147(3) -0.20084(10)
C47 C -0.38541(14) -0.1206(3) -0.06805(9)
H43 H -0.3958 -0.0412 -0.0417
C48 C -0.22490(16) -0.4614(3) -0.01653(10)
H44 H -0.2368 -0.5406 0.0087
H45 H -0.1969 -0.5078 -0.0438
C49 C -0.15562(16) -0.2839(3) 0.12215(10)
H46 H -0.1941 -0.3086 0.1465
H47 H -0.1236 -0.1896 0.1363
C50 C -0.68282(15) -0.0062(3) -0.17396(10)
H48 H -0.7074 0.0873 -0.1894
C51 C -0.31379(15) -0.3851(3) -0.05163(10)
H49 H -0.3148 -0.3848 -0.0934
C52 C -0.34955(14) -0.0458(3) -0.11425(10)
H50 H -0.3814 0.0498 -0.1286
C53 C -0.33851(17) -0.2330(3) -0.24895(11)
H51 H -0.4014 -0.2172 -0.2731
H52 H -0.3007 -0.2210 -0.2747
C54 C -0.21150(16) -0.1162(3) -0.16845(11)
H53 H -0.1929 -0.2163 -0.1519
H54 H -0.1781 -0.0921 -0.1960
C55 C -0.40108(15) -0.4646(3) -0.05081(10)
C56 C -0.14881(15) -0.2188(3) -0.01926(10)
C57 C -0.42285(18) 0.0658(3) -0.25358(12)
H55 H -0.4378 0.0327 -0.2944
H56 H -0.4319 0.1736 -0.2526
H57 H -0.4615 0.0149 -0.2346
C58 C -0.40547(16) -0.5029(3) 0.01058(10)
H58 H -0.4009 -0.4112 0.0335
H59 H -0.3560 -0.5696 0.0303
H60 H -0.4624 -0.5523 0.0071
C59 C -0.84780(16) -0.3798(3) -0.21221(12)
H61 H -0.8884 -0.4611 -0.2216
C60 C -0.16116(16) -0.3438(3) 0.02163(11)
C61 C -0.07385(17) -0.4007(4) 0.06468(11)
H62 H -0.0587 -0.5004 0.0529
H63 H -0.0241 -0.3315 0.0667
C62 C -0.41071(17) -0.6090(3) -0.08684(12)
H64 H -0.4649 -0.6617 -0.0863
H65 H -0.3585 -0.6726 -0.0698
H66 H -0.4149 -0.5844 -0.1273
C63 C -0.8469(2) -0.2313(4) -0.30006(13)
H67 H -0.8702 -0.1408 -0.3224
H68 H -0.8716 -0.3190 -0.3239
H69 H -0.7816 -0.2326 -0.2898
C64 C -0.97288(18) -0.2019(3) -0.25758(16)
H70 H -0.9868 -0.1939 -0.2207
H71 H -1.0077 -0.2832 -0.2811
H72 H -0.9880 -0.1081 -0.2793
C65 C -0.0917(3) -0.4082(6) 0.12248(16)
H73 H -0.1183 -0.5055 0.1270
H74 H -0.0354 -0.3953 0.1552
C66 C -0.30761(14) -0.2187(3) -0.03230(9)
O17 O -0.91039(12) -0.2856(2) -0.02064(8)
H75 H -0.9565 -0.2562 -0.0135
C67 C -0.9349(3) -0.3571(6) -0.07573(17)
H76 H -0.9619 -0.2843 -0.1066
H77 H -0.9782 -0.4362 -0.0766
H78 H -0.8817 -0.4003 -0.0823
O18 O -0.58485(14) -0.8286(3) -0.52491(9)
H79 H -0.5337 -0.8673 -0.5143
C68 C -0.6419(2) -0.9131(5) -0.57020(16)
H80 H -0.6282 -0.8940 -0.6066
H81 H -0.7040 -0.8854 -0.5753
H82 H -0.6334 -1.0192 -0.5604
O19 O -0.5364(3) -0.1243(4) -0.41614(17)
H83 H -0.5101 -0.2067 -0.4086
C69 C -0.6071(8) -0.1178(12) -0.3889(5)
H84 H -0.6523 -0.0450 -0.4096
H85 H -0.5817 -0.0879 -0.3478
H86 H -0.6349 -0.2162 -0.3909
O1 O -0.68313(10) -0.52053(19) -0.34215(7)
O2 O -0.56478(11) -0.6332(2) -0.27078(7)
O3 O -0.86899(11) -0.7222(2) -0.54663(7)
N1 N -0.98910(13) -0.4392(2) -0.41192(9)
H1 H -1.0304 -0.3700 -0.4238
O4 O -0.64452(12) -0.8190(2) -0.43309(8)
H2 H -0.6187 -0.8273 -0.4587
O5 O -0.56187(11) -0.4946(2) -0.49181(8)
C1 C -0.63637(16) -0.6733(3) -0.41245(10)
O6 O -0.47845(12) -0.7119(2) -0.37849(8)
O7 O -0.50757(12) -0.3533(3) -0.22676(8)
H3 H -0.5071 -0.2815 -0.2042
O8 O -1.08441(12) -0.7334(2) -0.26998(8)
N2 N -0.67705(12) -0.5663(2) -0.45902(8)
C2 C -0.77475(15) -0.5541(3) -0.47128(10)
C3 C -0.59315(15) -0.5047(3) -0.30506(10)
C4 C -0.69991(15) -0.6558(3) -0.37490(10)
H4 H -0.6962 -0.7439 -0.3488
C5 C -1.02609(16) -0.6917(3) -0.29957(10)
C6 C -0.91600(15) -0.4583(3) -0.43183(10)
C7 C -0.89184(16) -0.7537(3) -0.32340(10)
H5 H -0.8408 -0.8149 -0.3183
C8 C -0.98613(15) -0.5464(3) -0.37067(10)
C9 C -0.94940(17) -0.7802(3) -0.29119(10)
H6 H -0.9370 -0.8586 -0.2633
N3 N -0.78454(14) -0.5388(3) -0.56984(9)
C10 C -1.12900(16) -0.4920(3) -0.34663(11)
H7 H -1.1504 -0.4242 -0.3783
C11 C -0.90968(15) -0.6355(3) -0.36373(9)
C12 C -0.64140(16) -0.4974(3) -0.49652(10)
C13 C -0.81666(15) -0.6166(3) -0.53350(10)
C14 C -1.04644(15) -0.5741(3) -0.33907(10)
C15 C -0.52985(16) -0.4919(3) -0.34210(10)
H8 H -0.5454 -0.4033 -0.3678
H9 H -0.4674 -0.4811 -0.3164
C16 C -0.86733(15) -0.5781(3) -0.40446(10)
C17 C -0.79601(15) -0.3852(3) -0.46978(10)
H10 H -0.7598 -0.3481 -0.4303
C18 C -0.59377(16) -0.3657(3) -0.26892(11)
H11 H -0.6069 -0.2766 -0.2944
H12 H -0.6401 -0.3744 -0.2492
C19 C -0.71189(19) -0.5035(3) -0.63922(11)
H13 H -0.7202 -0.4726 -0.6801
H14 H -0.6636 -0.5788 -0.6275
C20 C -0.53943(16) -0.6308(3) -0.37837(10)
C21 C -0.79239(15) -0.6456(3) -0.42196(10)
H15 H -0.8107 -0.7482 -0.4372
C22 C -0.89489(16) -0.3541(3) -0.47550(11)
C23 C -1.21700(19) -0.6978(3) -0.24464(12)
H16 H -1.2545 -0.7448 -0.2807
H17 H -1.2529 -0.6269 -0.2305
H18 H -1.1931 -0.7744 -0.2148
C24 C -0.96074(16) -0.3776(3) -0.53718(11)
H19 H -0.9559 -0.4802 -0.5498
H20 H -0.9466 -0.3083 -0.5645
H21 H -1.0218 -0.3594 -0.5366
C25 C -0.69077(18) -0.3684(3) -0.59747(11)
H22 H -0.6265 -0.3428 -0.5859
H23 H -0.7262 -0.2803 -0.6160
C26 C -0.61321(18) -0.6658(4) -0.23082(12)
H24 H -0.6771 -0.6491 -0.2502
H25 H -0.5924 -0.6005 -0.1966
H26 H -0.6033 -0.7700 -0.2183
C27 C -1.14016(17) -0.6158(3) -0.25690(11)
C28 C -0.71705(16) -0.4207(3) -0.54476(11)
C29 C -0.79860(18) -0.5639(3) -0.63241(11)
H27 H -0.8511 -0.5081 -0.6570
H28 H -0.8063 -0.6710 -0.6424
C30 C -0.90164(19) -0.1901(3) -0.45819(13)
H29 H -0.9636 -0.1673 -0.4608
H30 H -0.8828 -0.1249 -0.4848
H31 H -0.8629 -0.1739 -0.4180
C31 C -1.17434(17) -0.5129(3) -0.30875(11)
H32 H -1.2293 -0.4619 -0.3145
C32 C -0.75997(16) -0.3041(3) -0.51502(11)
H33 H -0.8095 -0.2531 -0.5447
H34 H -0.7151 -0.2285 -0.4950
C33 C -1.08476(19) -0.5322(4) -0.20247(12)
H35 H -1.0679 -0.6003 -0.1689
H36 H -1.1200 -0.4498 -0.1944
H37 H -1.0307 -0.4926 -0.2090
H87? H -0.1550 -0.1881 0.1427
H88? H -0.0777 -0.5089 0.0714
H89? H -0.0233 -0.3825 0.0493
C70? C -0.0622(5) -0.3220(11) 0.1162(3)
H90? H -0.0287 -0.2291 0.1157
H91? H -0.0275 -0.3826 0.1501
H92? H -0.1777 -0.3639 0.1424
loop_
_geom_bond_atom_site_label_1
_geom_bond_atom_site_label_2
_geom_bond_site_symmetry_1
_geom_bond_site_symmetry_2
O1 C3 1_555 1_555
O2 C3 1_555 1_555
O3 C13 1_555 1_555
N1 H1 1_555 1_555
O4 H2 1_555 1_555
O5 C12 1_555 1_555
C1 O4 1_555 1_555
O6 C20 1_555 1_555
O7 H3 1_555 1_555
O8 C5 1_555 1_555
N2 C1 1_555 1_555
C2 N2 1_555 1_555
C3 C15 1_555 1_555
C4 O1 1_555 1_555
H4 C4 1_555 1_555
C5 C9 1_555 1_555
C6 N1 1_555 1_555
C7 H5 1_555 1_555
C8 N1 1_555 1_555
C9 C7 1_555 1_555
H6 C9 1_555 1_555
N3 C13 1_555 1_555
C10 H7 1_555 1_555
C11 C7 1_555 1_555
C12 N2 1_555 1_555
C13 C2 1_555 1_555
C14 C5 1_555 1_555
C15 H8 1_555 1_555
H9 C15 1_555 1_555
C16 C6 1_555 1_555
C17 C2 1_555 1_555
H10 C17 1_555 1_555
C18 O7 1_555 1_555
H11 C18 1_555 1_555
H12 C18 1_555 1_555
C19 H13 1_555 1_555
H14 C19 1_555 1_555
C20 C1 1_555 1_555
C21 C2 1_555 1_555
H15 C21 1_555 1_555
C22 C6 1_555 1_555
C23 H16 1_555 1_555
H17 C23 1_555 1_555
H18 C23 1_555 1_555
C24 C22 1_555 1_555
H19 C24 1_555 1_555
H20 C24 1_555 1_555
H21 C24 1_555 1_555
C25 C19 1_555 1_555
H22 C25 1_555 1_555
H23 C25 1_555 1_555
C26 O2 1_555 1_555
H24 C26 1_555 1_555
H25 C26 1_555 1_555
H26 C26 1_555 1_555
C27 O8 1_555 1_555
C28 N3 1_555 1_555
C29 N3 1_555 1_555
H27 C29 1_555 1_555
H28 C29 1_555 1_555
C30 C22 1_555 1_555
H29 C30 1_555 1_555
H30 C30 1_555 1_555
H31 C30 1_555 1_555
C31 C10 1_555 1_555
H32 C31 1_555 1_555
C32 C17 1_555 1_555
H33 C32 1_555 1_555
H34 C32 1_555 1_555
C33 C27 1_555 1_555
H35 C33 1_555 1_555
H36 C33 1_555 1_555
H37 C33 1_555 1_555
O9 C46 1_555 1_555
O10 C46 1_555 1_555
O11 C42 1_555 1_555
O12 C39 1_555 1_555
O13 H38 1_555 1_555
O14 H39 1_555 1_555
O15 C41 1_555 1_555
N4 H40 1_555 1_555
O16 C56 1_555 1_555
C34 N4 1_555 1_555
C35 O13 1_555 1_555
C36 C38 1_555 1_555
N5 C35 1_555 1_555
C37 C34 1_555 1_555
C38 N4 1_555 1_555
C39 C37 1_555 1_555
C40 H41 1_555 1_555
N6 C42 1_555 1_555
C41 C35 1_555 1_555
C42 C66 1_555 1_555
C43 C37 1_555 1_555
H42 C43 1_555 1_555
C44 C34 1_555 1_555
C45 O12 1_555 1_555
C46 C53 1_555 1_555
C47 C36 1_555 1_555
H43 C47 1_555 1_555
C48 H44 1_555 1_555
H45 C48 1_555 1_555
C49 N6 1_555 1_555
H46 C49 1_555 1_555
H47 C49 1_555 1_555
C50 C39 1_555 1_555
H48 C50 1_555 1_555
C51 C48 1_555 1_555
H49 C51 1_555 1_555
C52 O9 1_555 1_555
H50 C52 1_555 1_555
C53 O14 1_555 1_555
H51 C53 1_555 1_555
H52 C53 1_555 1_555
C54 C41 1_555 1_555
H53 C54 1_555 1_555
H54 C54 1_555 1_555
C55 C38 1_555 1_555
C56 N5 1_555 1_555
C57 O10 1_555 1_555
H55 C57 1_555 1_555
H56 C57 1_555 1_555
H57 C57 1_555 1_555
C58 C55 1_555 1_555
H58 C58 1_555 1_555
H59 C58 1_555 1_555
H60 C58 1_555 1_555
C59 C43 1_555 1_555
H61 C59 1_555 1_555
C60 N6 1_555 1_555
C61 C60 1_555 1_555
H62 C61 1_555 1_555
H63 C61 1_555 1_555
C62 C55 1_555 1_555
H64 C62 1_555 1_555
H65 C62 1_555 1_555
H66 C62 1_555 1_555
C63 C45 1_555 1_555
H67 C63 1_555 1_555
H68 C63 1_555 1_555
H69 C63 1_555 1_555
C64 C45 1_555 1_555
H70 C64 1_555 1_555
H71 C64 1_555 1_555
H72 C64 1_555 1_555
C65 C49 1_555 1_555
H73 C65 1_555 1_555
H74 C65 1_555 1_555
C66 N5 1_555 1_555
O17 H75 1_555 1_555
C67 O17 1_555 1_555
H76 C67 1_555 1_555
H77 C67 1_555 1_555
H78 C67 1_555 1_555
O18 H79 1_555 1_555
C68 O18 1_555 1_555
H80 C68 1_555 1_555
H81 C68 1_555 1_555
H82 C68 1_555 1_555
O19 H83 1_555 1_555
C69 O19 1_555 1_555
H84 C69 1_555 1_555
H85 C69 1_555 1_555
H86 C69 1_555 1_555
C1 C4 1_555 1_555
C3 C18 1_555 1_555
C4 C21 1_555 1_555
C8 C11 1_555 1_555
C8 C14 1_555 1_555
C10 C14 1_555 1_555
C11 C16 1_555 1_555
C12 C28 1_555 1_555
C15 C20 1_555 1_555
C16 C21 1_555 1_555
C17 C22 1_555 1_555
C19 C29 1_555 1_555
C23 C27 1_555 1_555
C25 C28 1_555 1_555
C27 C31 1_555 1_555
C28 C32 1_555 1_555
C35 C52 1_555 1_555
C36 C44 1_555 1_555
C40 C44 1_555 1_555
C40 C50 1_555 1_555
C45 C59 1_555 1_555
C46 C54 1_555 1_555
C47 C52 1_555 1_555
C47 C66 1_555 1_555
C48 C60 1_555 1_555
C51 C55 1_555 1_555
C51 C66 1_555 1_555
C56 C60 1_555 1_555
C61 C65 1_555 1_555

#END
