
#######################################################################
#
#                 Cambridge Crystallographic Data Centre
#                                CCDC 
#
#######################################################################
#
# If this CIF has been generated from an entry in the Cambridge 
# Structural Database, then it will include bibliographic, chemical, 
# crystal, experimental, refinement or atomic coordinate data resulting 
# from the CCDC's data processing and validation procedures.
#
#######################################################################

data_XAQFUR
_chemical_formula_moiety         'C14 H17 Br1 O2'
_chemical_name_systematic        3-(p-Bromophenyl)octahydroisobenzofuran-1-ol
_symmetry_cell_setting           orthorhombic
_symmetry_space_group_name_H-M   'P 21 21 21'
_symmetry_Int_Tables_number      19
_space_group_name_Hall           'P 2ac 2ab'
loop_
_symmetry_equiv_pos_site_id
_symmetry_equiv_pos_as_xyz
1 x,y,z
2 1/2-x,-y,1/2+z
3 -x,1/2+y,1/2-z
4 1/2+x,1/2-y,-z
_cell_length_a                   5.554(3)
_cell_length_b                   10.954(5)
_cell_length_c                   20.878(9)
_cell_angle_alpha                90
_cell_angle_beta                 90
_cell_angle_gamma                90
_cell_volume                     1270.19
_exptl_crystal_colour            colorless
_exptl_crystal_description       columnar
_cell_formula_units_Z            4
loop_
_atom_site_label
_atom_site_type_symbol
_atom_site_fract_x
_atom_site_fract_y
_atom_site_fract_z
Br1 Br 0.26443(13) 0.11641(5) 0.92797(2)
C1 C 0.3643(9) 0.4899(5) 0.9314(3)
H1 H 0.2769 0.5588 0.9464
C2 C 0.2710(11) 0.3760(5) 0.94121(19)
H2 H 0.1228 0.3659 0.9633
C3 C 0.3958(10) 0.2757(5) 0.9184(3)
C4 C 0.6131(11) 0.2894(5) 0.8884(2)
H3 H 0.7009 0.2204 0.8738
C5 C 0.7020(10) 0.4062(4) 0.8796(2)
H4 H 0.8522 0.4163 0.8585
C6 C 0.5800(10) 0.5086(5) 0.9006(2)
C7 C 0.6708(8) 0.6342(4) 0.88578(19)
H5 H 0.8467 0.6300 0.8759
C8 C 0.5389(9) 0.6965(5) 0.8299(2)
H6 H 0.3683 0.6673 0.8305
C9 C 0.6414(10) 0.6688(5) 0.7640(2)
H7 H 0.5200 0.6898 0.7311
H8 H 0.6742 0.5801 0.7607
C10 C 0.8733(11) 0.7391(5) 0.7503(3)
H9 H 1.0051 0.7057 0.7769
H10 H 0.9183 0.7282 0.7048
C11 C 0.8442(10) 0.8741(6) 0.7643(2)
H11 H 0.7195 0.9088 0.7358
H12 H 0.9978 0.9167 0.7554
C12 C 0.7727(12) 0.8958(5) 0.8336(2)
H13 H 0.7533 0.9844 0.8411
H14 H 0.9018 0.8656 0.8622
C13 C 0.5379(10) 0.8305(5) 0.8492(2)
H15 H 0.3989 0.8737 0.8290
C14 C 0.4988(10) 0.8185(5) 0.9212(2)
H16 H 0.5611 0.8927 0.9436
O1 O 0.6333(6) 0.7144(3) 0.94002(14)
O2 O 0.2546(9) 0.8051(3) 0.93299(15)
H17 H 0.2324 0.7941 0.9724
loop_
_geom_bond_atom_site_label_1
_geom_bond_atom_site_label_2
_geom_bond_site_symmetry_1
_geom_bond_site_symmetry_2
Br1 C3 1_555 1_555
C1 H1 1_555 1_555
C2 C1 1_555 1_555
H2 C2 1_555 1_555
C3 C2 1_555 1_555
C4 C3 1_555 1_555
H3 C4 1_555 1_555
C5 C4 1_555 1_555
H4 C5 1_555 1_555
C6 C1 1_555 1_555
C7 C6 1_555 1_555
H5 C7 1_555 1_555
C8 C7 1_555 1_555
H6 C8 1_555 1_555
C9 C8 1_555 1_555
H7 C9 1_555 1_555
H8 C9 1_555 1_555
C10 C9 1_555 1_555
H9 C10 1_555 1_555
H10 C10 1_555 1_555
C11 C10 1_555 1_555
H11 C11 1_555 1_555
H12 C11 1_555 1_555
C12 C11 1_555 1_555
H13 C12 1_555 1_555
H14 C12 1_555 1_555
C13 C8 1_555 1_555
H15 C13 1_555 1_555
C14 C13 1_555 1_555
H16 C14 1_555 1_555
O1 C7 1_555 1_555
O2 C14 1_555 1_555
H17 O2 1_555 1_555
C5 C6 1_555 1_555
C12 C13 1_555 1_555
C14 O1 1_555 1_555

#END
