
#######################################################################
#
#                 Cambridge Crystallographic Data Centre
#                                CCDC 
#
#######################################################################
#
# If this CIF has been generated from an entry in the Cambridge 
# Structural Database, then it will include bibliographic, chemical, 
# crystal, experimental, refinement or atomic coordinate data resulting 
# from the CCDC's data processing and validation procedures.
#
#######################################################################

data_XAQGAY
_chemical_formula_moiety         'C30 H38 Br1 N1 O5'
_chemical_name_systematic        
2-(N-(t-Butyloxycarbonyl)-N-(4-methoxyphenyl)aminomethylene)-1-(1-(ethoxycarbonyl)-2-(4-bromophenyl)ethyl)cyclohexane
_symmetry_cell_setting           monoclinic
_symmetry_space_group_name_H-M   'P 21'
_symmetry_Int_Tables_number      4
_space_group_name_Hall           'P 2yb'
loop_
_symmetry_equiv_pos_site_id
_symmetry_equiv_pos_as_xyz
1 x,y,z
2 -x,1/2+y,-z
_cell_length_a                   12.374(7)
_cell_length_b                   6.317(4)
_cell_length_c                   18.860(11)
_cell_angle_alpha                90
_cell_angle_beta                 94.881(10)
_cell_angle_gamma                90
_cell_volume                     1468.88
_exptl_crystal_colour            colorless
_exptl_crystal_description       acicular
_cell_formula_units_Z            2
loop_
_atom_site_label
_atom_site_type_symbol
_atom_site_fract_x
_atom_site_fract_y
_atom_site_fract_z
Br1 Br 0.59489(6) 0.45468(16) 0.49145(4)
C1 C 0.7634(4) 0.9555(15) 0.4103(3)
H1 H 0.7798 1.0978 0.4236
C2 C 0.7008(5) 0.8387(11) 0.4521(3)
H2 H 0.6724 0.8994 0.4928
C3 C 0.6791(5) 0.6225(12) 0.4330(3)
C4 C 0.7170(5) 0.5411(9) 0.3732(3)
H3 H 0.7014 0.3983 0.3603
C5 C 0.7772(5) 0.6628(10) 0.3315(3)
H4 H 0.8018 0.6036 0.2894
C6 C 0.8040(5) 0.8764(9) 0.3495(3)
C7 C 0.8757(5) 1.0050(10) 0.3053(3)
H5 H 0.8733 1.1544 0.3226
C8 C 0.9956(4) 0.9345(14) 0.3137(3)
H6 H 1.0007 0.7945 0.2895
C9 C 1.0409(5) 0.9067(10) 0.3918(3)
H7 H 1.1125 0.8363 0.3929
H8 H 0.9918 0.8124 0.4161
C10 C 1.0537(6) 1.1169(11) 0.4335(3)
H9 H 1.0866 1.0895 0.4823
H10 H 0.9817 1.1825 0.4370
C11 C 1.1275(5) 1.2693(10) 0.3940(3)
H11 H 1.1323 1.4074 0.4190
H12 H 1.2015 1.2093 0.3951
C12 C 1.0827(5) 1.3034(9) 0.3166(3)
H13 H 1.0113 1.3746 0.3150
H14 H 1.1328 1.3943 0.2918
C13 C 1.0710(5) 1.0878(10) 0.2798(3)
C14 C 1.1297(5) 1.0422(10) 0.2268(4)
H15 H 1.1743 1.1509 0.2104
C15 C 1.0437(5) 0.7770(10) 0.1421(3)
C16 C 0.9999(5) 0.9104(11) 0.0890(3)
H16 H 1.0313 1.0465 0.0847
C17 C 0.9127(5) 0.8550(10) 0.0420(3)
H17 H 0.8849 0.9512 0.0063
C18 C 0.8666(5) 0.6562(12) 0.0479(3)
C19 C 0.9075(5) 0.5193(10) 0.1000(3)
H18 H 0.8750 0.3840 0.1037
C20 C 0.9944(5) 0.5730(10) 0.1469(3)
H19 H 1.0216 0.4752 0.1823
C21 C 0.8371(4) 1.0081(9) 0.2256(3)
H20 H 0.8945 1.0734 0.1994
H21 H 0.8280 0.8601 0.2089
C22 C 0.7327(6) 1.1251(11) 0.2068(4)
C23 C 0.6106(9) 1.244(2) 0.1084(5)
H22 H 0.6276 1.3964 0.1140
H23 H 0.5461 1.2115 0.1341
C24 C 0.5907(9) 1.1854(19) 0.0303(5)
H24 H 0.6571 1.2088 0.0066
H25 H 0.5323 1.2738 0.0078
H26 H 0.5698 1.0360 0.0260
C25 C 1.2261(6) 0.7267(13) 0.1969(4)
C26 C 1.4104(6) 0.7268(14) 0.2575(5)
C27 C 1.4675(5) 0.8994(12) 0.3030(4)
H27 H 1.4704 1.0295 0.2749
H28 H 1.5413 0.8536 0.3186
H29 H 1.4273 0.9261 0.3447
C28 C 1.3937(6) 0.5271(11) 0.3026(5)
H30 H 1.3409 0.5576 0.3371
H31 H 1.4629 0.4856 0.3279
H32 H 1.3666 0.4113 0.2713
C29 C 1.4706(6) 0.6800(15) 0.1930(5)
H33 H 1.4401 0.5529 0.1691
H34 H 1.5475 0.6563 0.2078
H35 H 1.4634 0.8003 0.1601
C30 C 0.7378(5) 0.7089(12) -0.0532(4)
H36 H 0.7145 0.8455 -0.0352
H37 H 0.6757 0.6374 -0.0785
H38 H 0.7941 0.7322 -0.0859
O1 O 0.7032(6) 1.1142(14) 0.1354(3)
O2 O 0.6868(4) 1.2408(8) 0.2442(2)
O3 O 1.3039(4) 0.8236(7) 0.2384(2)
O4 O 1.2369(4) 0.5520(7) 0.1671(3)
O5 O 0.7799(4) 0.5814(7) 0.0044(2)
N1 N 1.1313(5) 0.8374(9) 0.1917(3)
O6? O 0.681(2) 1.020(3) 0.1500(9)
C31? C 0.5767(19) 1.106(5) 0.1194(12)
H39? H 0.5353 1.1677 0.1571
H40? H 0.5324 0.9940 0.0944
C32? C 0.606(3) 1.276(4) 0.068(2)
H41? H 0.6324 1.4020 0.0940
H42? H 0.5424 1.3123 0.0357
H43? H 0.6637 1.2226 0.0394
loop_
_geom_bond_atom_site_label_1
_geom_bond_atom_site_label_2
_geom_bond_site_symmetry_1
_geom_bond_site_symmetry_2
Br1 C3 1_555 1_555
C1 H1 1_555 1_555
C2 C1 1_555 1_555
H2 C2 1_555 1_555
C3 C2 1_555 1_555
C4 C3 1_555 1_555
H3 C4 1_555 1_555
C5 C4 1_555 1_555
H4 C5 1_555 1_555
C6 C1 1_555 1_555
C7 C6 1_555 1_555
H5 C7 1_555 1_555
C8 C7 1_555 1_555
H6 C8 1_555 1_555
C9 C8 1_555 1_555
H7 C9 1_555 1_555
H8 C9 1_555 1_555
C10 C9 1_555 1_555
H9 C10 1_555 1_555
H10 C10 1_555 1_555
C11 C10 1_555 1_555
H11 C11 1_555 1_555
H12 C11 1_555 1_555
C12 C11 1_555 1_555
H13 C12 1_555 1_555
H14 C12 1_555 1_555
C13 C8 1_555 1_555
C14 C13 1_555 1_555
H15 C14 1_555 1_555
C15 C16 1_555 1_555
C16 H16 1_555 1_555
C17 C16 1_555 1_555
H17 C17 1_555 1_555
C18 C17 1_555 1_555
C19 C18 1_555 1_555
H18 C19 1_555 1_555
C20 C15 1_555 1_555
H19 C20 1_555 1_555
C21 C7 1_555 1_555
H20 C21 1_555 1_555
H21 C21 1_555 1_555
C22 C21 1_555 1_555
C23 H22 1_555 1_555
H23 C23 1_555 1_555
C24 C23 1_555 1_555
H24 C24 1_555 1_555
H25 C24 1_555 1_555
H26 C24 1_555 1_555
C25 O3 1_555 1_555
C26 C27 1_555 1_555
C27 H27 1_555 1_555
H28 C27 1_555 1_555
H29 C27 1_555 1_555
C28 C26 1_555 1_555
H30 C28 1_555 1_555
H31 C28 1_555 1_555
H32 C28 1_555 1_555
C29 C26 1_555 1_555
H33 C29 1_555 1_555
H34 C29 1_555 1_555
H35 C29 1_555 1_555
C30 H36 1_555 1_555
H37 C30 1_555 1_555
H38 C30 1_555 1_555
O1 C22 1_555 1_555
O2 C22 1_555 1_555
O3 C26 1_555 1_555
O4 C25 1_555 1_555
O5 C18 1_555 1_555
N1 C14 1_555 1_555
C5 C6 1_555 1_555
C12 C13 1_555 1_555
C15 N1 1_555 1_555
C19 C20 1_555 1_555
C23 O1 1_555 1_555
C25 N1 1_555 1_555
C30 O5 1_555 1_555

#END
