
#######################################################################
#
#                 Cambridge Crystallographic Data Centre
#                                CCDC 
#
#######################################################################
#
# If this CIF has been generated from an entry in the Cambridge 
# Structural Database, then it will include bibliographic, chemical, 
# crystal, experimental, refinement or atomic coordinate data resulting 
# from the CCDC's data processing and validation procedures.
#
#######################################################################

data_XAQGAX
_chemical_formula_moiety         'C21 H20 O5'
_chemical_name_systematic        
5-Methoxy-5'-(4-methoxyphenyl)spiro(isobenzofuran-1,1'-cyclohexane)-3,3'-dione
_symmetry_cell_setting           monoclinic
_symmetry_space_group_name_H-M   'P 21/c'
_symmetry_Int_Tables_number      14
_space_group_name_Hall           '-P 2ybc'
loop_
_symmetry_equiv_pos_site_id
_symmetry_equiv_pos_as_xyz
1 x,y,z
2 -x,1/2+y,1/2-z
3 -x,-y,-z
4 x,1/2-y,1/2+z
_cell_length_a                   13.8303(7)
_cell_length_b                   9.9914(6)
_cell_length_c                   25.9317(14)
_cell_angle_alpha                90
_cell_angle_beta                 93.7580(10)
_cell_angle_gamma                90
_cell_volume                     3575.64
_exptl_crystal_colour            colorless
_exptl_crystal_description       'irregular block'
_cell_formula_units_Z            8
_exptl_crystal_recrystallization_method chlorobutane/hexanes
loop_
_atom_site_label
_atom_site_type_symbol
_atom_site_fract_x
_atom_site_fract_y
_atom_site_fract_z
O1 O 0.2672(2) 0.3786(2) 0.2392(1)
O2 O 0.1351(2) 0.2704(3) 0.2623(1)
O3 O 0.3113(4) 0.1401(5) 0.4458(2)
O4 O 0.3441(2) 0.7115(2) 0.1933(1)
O5 O 0.6382(3) 0.0636(3) 0.0371(1)
C1 C 0.3679(2) 0.4025(3) 0.2597(1)
C2 C 0.2183(3) 0.3063(3) 0.2730(2)
C3 C 0.2812(3) 0.2848(3) 0.3195(1)
C4 C 0.3694(3) 0.3438(3) 0.3130(1)
C5 C 0.2615(4) 0.2158(4) 0.3634(2)
C6 C 0.3309(5) 0.2090(5) 0.4018(2)
C7 C 0.4221(4) 0.2718(5) 0.3975(1)
C8 C 0.4418(3) 0.3404(4) 0.3523(1)
C9 C 0.3647(9) 0.0747(7) 0.4729(2)
C10 C 0.3853(2) 0.5530(3) 0.2592(1)
C11 C 0.3875(2) 0.6094(3) 0.2059(1)
C12 C 0.4474(3) 0.5337(3) 0.1693(1)
C13 C 0.4231(2) 0.3833(3) 0.1688(1)
C14 C 0.4330(2) 0.3289(3) 0.2239(1)
C15 C 0.4832(3) 0.3044(3) 0.1327(1)
C16 C 0.4392(3) 0.2326(4) 0.0920(1)
C17 C 0.4914(4) 0.1543(4) 0.0604(1)
C18 C 0.5904(4) 0.1464(3) 0.0692(1)
C19 C 0.6374(3) 0.2200(3) 0.1084(1)
C20 C 0.5827(3) 0.2987(3) 0.1398(1)
C21 C 0.7388(5) 0.0377(6) 0.0499(2)
H1 H 0.2017 0.1750 0.3665
H2 H 0.4689 0.2675 0.4249
H3 H 0.5012 0.3819 0.3488
H4 H 0.3306 0.0400 0.5011
H5 H 0.4177 0.1293 0.4863
H6 H 0.3892 0.0019 0.4534
H7 H 0.3345 0.5971 0.2769
H8 H 0.4465 0.5722 0.2781
H9 H 0.5156 0.5457 0.1795
H10 H 0.4357 0.5697 0.1347
H11 H 0.3550 0.3739 0.1563
H12 H 0.4165 0.2346 0.2235
H13 H 0.4999 0.3374 0.2373
H14 H 0.3723 0.2375 0.0859
H15 H 0.4602 0.1071 0.0332
H16 H 0.7045 0.2169 0.1137
H17 H 0.6140 0.3486 0.1661
H18 H 0.7635 -0.0207 0.0245
H19 H 0.7463 -0.0040 0.0833
H20 H 0.7741 0.1205 0.0506
O6 O 0.2295(2) 0.9009(2) 0.2711(1)
O7 O 0.3565(2) 1.0092(2) 0.2426(1)
O8 O 0.1560(5) 1.0952(5) 0.0587(2)
O9 O 0.1610(2) 0.5695(2) 0.3270(1)
O10 O -0.1857(2) 1.2039(3) 0.4611(1)
C22 C 0.1296(2) 0.8663(3) 0.2526(1)
C23 C 0.2748(3) 0.9682(3) 0.2346(2)
C24 C 0.2082(3) 0.9784(3) 0.1882(1)
C25 C 0.1232(3) 0.9143(3) 0.1979(1)
C26 C 0.2196(4) 1.0394(4) 0.1408(2)
C27 C 0.1418(5) 1.0321(5) 0.1035(2)
C28 C 0.0589(4) 0.9620(5) 0.1135(2)
C29 C 0.0483(3) 0.9050(4) 0.1602(2)
C30 C 0.1297(11) 1.1550(17) 0.0329(3)
C31 C 0.1171(3) 0.7159(3) 0.2572(1)
C32 C 0.1150(3) 0.6675(3) 0.3117(2)
C33 C 0.0517(3) 0.7453(3) 0.3458(2)
C34 C 0.0693(3) 0.8973(3) 0.3427(1)
C35 C 0.0617(2) 0.9421(3) 0.2861(1)
C36 C 0.0005(3) 0.9749(3) 0.3747(1)
C37 C 0.0314(3) 1.0370(4) 0.4206(2)
C38 C -0.0315(4) 1.1114(4) 0.4487(1)
C39 C -0.1288(3) 1.1248(4) 0.4311(1)
C40 C -0.1599(3) 1.0636(4) 0.3867(1)
C41 C -0.0966(3) 0.9897(3) 0.3590(1)
C42 C -0.2802(3) 1.2309(5) 0.4409(2)
H21 H 0.2767 1.0834 0.1341
H22 H 0.0095 0.9537 0.0877
H23 H -0.0087 0.8604 0.1668
H24 H 0.1793 1.1803 0.0106
H25 H 0.1054 1.2334 0.0491
H26 H 0.0778 1.1116 0.0130
H27 H 0.0571 0.6900 0.2383
H28 H 0.1698 0.6719 0.2411
H29 H 0.0641 0.7160 0.3813
H30 H -0.0157 0.7266 0.3357
H31 H 0.1356 0.9152 0.3568
H32 H -0.0044 0.9294 0.2722
H33 H 0.0763 1.0369 0.2846
H34 H 0.0959 1.0287 0.4328
H35 H -0.0089 1.1525 0.4794
H36 H -0.2245 1.0712 0.3747
H37 H -0.1201 0.9483 0.3286
H38 H -0.3125 1.2862 0.4647
H39 H -0.3150 1.1482 0.4358
H40 H -0.2780 1.2766 0.4084
loop_
_geom_bond_atom_site_label_1
_geom_bond_atom_site_label_2
_geom_bond_site_symmetry_1
_geom_bond_site_symmetry_2
O1 C1 1_555 1_555
O2 C2 1_555 1_555
O3 C6 1_555 1_555
O4 C11 1_555 1_555
O5 C18 1_555 1_555
C1 C4 1_555 1_555
C2 O1 1_555 1_555
C3 C2 1_555 1_555
C4 C3 1_555 1_555
C5 C3 1_555 1_555
C6 C5 1_555 1_555
C7 C6 1_555 1_555
C8 C4 1_555 1_555
C9 O3 1_555 1_555
C10 C1 1_555 1_555
C11 C10 1_555 1_555
C12 C11 1_555 1_555
C13 C12 1_555 1_555
C14 C1 1_555 1_555
C15 C13 1_555 1_555
C16 C15 1_555 1_555
C17 C16 1_555 1_555
C18 C17 1_555 1_555
C19 C18 1_555 1_555
C20 C15 1_555 1_555
C21 O5 1_555 1_555
H1 C5 1_555 1_555
H2 C7 1_555 1_555
H3 C8 1_555 1_555
H4 C9 1_555 1_555
H5 C9 1_555 1_555
H6 C9 1_555 1_555
H7 C10 1_555 1_555
H8 C10 1_555 1_555
H9 C12 1_555 1_555
H10 C12 1_555 1_555
H11 C13 1_555 1_555
H12 C14 1_555 1_555
H13 C14 1_555 1_555
H14 C16 1_555 1_555
H15 C17 1_555 1_555
H16 C19 1_555 1_555
H17 C20 1_555 1_555
H18 C21 1_555 1_555
H19 C21 1_555 1_555
H20 C21 1_555 1_555
O6 C22 1_555 1_555
O7 C23 1_555 1_555
O8 C27 1_555 1_555
O9 C32 1_555 1_555
O10 C39 1_555 1_555
C22 C25 1_555 1_555
C23 O6 1_555 1_555
C24 C23 1_555 1_555
C25 C24 1_555 1_555
C26 C24 1_555 1_555
C27 C26 1_555 1_555
C28 C27 1_555 1_555
C29 C25 1_555 1_555
C30 O8 1_555 1_555
C31 C22 1_555 1_555
C32 C31 1_555 1_555
C33 C32 1_555 1_555
C34 C33 1_555 1_555
C35 C22 1_555 1_555
C36 C34 1_555 1_555
C37 C36 1_555 1_555
C38 C37 1_555 1_555
C39 C38 1_555 1_555
C40 C39 1_555 1_555
C41 C36 1_555 1_555
C42 O10 1_555 1_555
H21 C26 1_555 1_555
H22 C28 1_555 1_555
H23 C29 1_555 1_555
H24 C30 1_555 1_555
H25 C30 1_555 1_555
H26 C30 1_555 1_555
H27 C31 1_555 1_555
H28 C31 1_555 1_555
H29 C33 1_555 1_555
H30 C33 1_555 1_555
H31 C34 1_555 1_555
H32 C35 1_555 1_555
H33 C35 1_555 1_555
H34 C37 1_555 1_555
H35 C38 1_555 1_555
H36 C40 1_555 1_555
H37 C41 1_555 1_555
H38 C42 1_555 1_555
H39 C42 1_555 1_555
H40 C42 1_555 1_555
C7 C8 1_555 1_555
C13 C14 1_555 1_555
C19 C20 1_555 1_555
C28 C29 1_555 1_555
C34 C35 1_555 1_555
C40 C41 1_555 1_555

#END
