
#######################################################################
#
#                 Cambridge Crystallographic Data Centre
#                                CCDC 
#
#######################################################################
#
# If this CIF has been generated from an entry in the Cambridge 
# Structural Database, then it will include bibliographic, chemical, 
# crystal, experimental, refinement or atomic coordinate data resulting 
# from the CCDC's data processing and validation procedures.
#
#######################################################################

data_XAQGEC
_chemical_formula_moiety         'C40 H45 Br1 N2 O4 S1'
_chemical_name_systematic        
't-Butyl ((E)-(2-(((4-bromobenzyl)((4-methylphenyl)sulfinyl)amino)-(phenyl)methyl)cyclohexylidene)methyl)(4-methoxyphenyl)carbamate'
_symmetry_cell_setting           orthorhombic
_symmetry_space_group_name_H-M   'P 21 21 21'
_symmetry_Int_Tables_number      19
_space_group_name_Hall           'P 2ac 2ab'
loop_
_symmetry_equiv_pos_site_id
_symmetry_equiv_pos_as_xyz
1 x,y,z
2 1/2-x,-y,1/2+z
3 -x,1/2+y,1/2-z
4 1/2+x,1/2-y,-z
_cell_length_a                   8.5839(16)
_cell_length_b                   14.514(3)
_cell_length_c                   30.157(6)
_cell_angle_alpha                90
_cell_angle_beta                 90
_cell_angle_gamma                90
_cell_volume                     3757.16
_exptl_crystal_colour            colorless
_exptl_crystal_description       prism
_cell_formula_units_Z            4
loop_
_atom_site_label
_atom_site_type_symbol
_atom_site_fract_x
_atom_site_fract_y
_atom_site_fract_z
Br1 Br 0.06388(6) 0.59536(4) 0.919279(14)
C1 C 0.0817(4) 0.5765(2) 0.78269(10)
H1 H 0.0238 0.5463 0.7601
C2 C 0.0363(4) 0.5674(2) 0.82649(12)
H2 H -0.0523 0.5313 0.8339
C3 C 0.1197(4) 0.6108(3) 0.85921(11)
C4 C 0.2444(4) 0.6662(3) 0.84879(12)
H3 H 0.2995 0.6979 0.8715
C5 C 0.2891(4) 0.6753(3) 0.80447(11)
H4 H 0.3747 0.7138 0.7971
C6 C 0.2104(4) 0.6291(2) 0.77125(11)
C7 C 0.2676(4) 0.6338(2) 0.72412(11)
H5 H 0.3428 0.6852 0.7214
H6 H 0.3234 0.5760 0.7170
C8 C 0.0603(3) 0.73926(19) 0.69667(10)
H7 H 0.0218 0.7414 0.7280
C9 C -0.0859(3) 0.74509(19) 0.66736(10)
H8 H -0.0536 0.7372 0.6357
C10 C -0.1679(4) 0.8391(2) 0.67211(10)
H9 H -0.0918 0.8889 0.6663
H10 H -0.2515 0.8438 0.6496
C11 C -0.2382(4) 0.8528(2) 0.71796(11)
H11 H -0.2924 0.9130 0.7192
H12 H -0.1542 0.8533 0.7405
C12 C -0.3534(4) 0.7757(2) 0.72838(11)
H13 H -0.4429 0.7794 0.7078
H14 H -0.3933 0.7834 0.7589
C13 C -0.2758(4) 0.6809(2) 0.72400(11)
H15 H -0.1946 0.6741 0.7471
H16 H -0.3545 0.6320 0.7286
C14 C -0.2029(3) 0.6703(2) 0.67867(10)
C15 C -0.2562(3) 0.6060(2) 0.65149(10)
H17 H -0.3283 0.5632 0.6636
C16 C -0.2182(4) 0.6746(2) 0.57741(10)
C17 C -0.3454(4) 0.7339(2) 0.57954(11)
H18 H -0.4315 0.7194 0.5981
C18 C -0.3465(4) 0.8138(3) 0.55467(11)
H19 H -0.4338 0.8539 0.5562
C19 C -0.2231(4) 0.8362(2) 0.52768(11)
C20 C -0.0959(4) 0.7768(2) 0.52500(11)
H20 H -0.0102 0.7914 0.5064
C21 C -0.0951(4) 0.6960(2) 0.54968(11)
H21 H -0.0091 0.6550 0.5475
C22 C 0.2191(4) 0.4976(2) 0.64793(10)
C23 C 0.1012(4) 0.4386(2) 0.66163(10)
H22 H 0.0036 0.4626 0.6710
C24 C 0.1268(4) 0.3446(2) 0.66156(11)
H23 H 0.0458 0.3043 0.6707
C25 C 0.2693(4) 0.3080(2) 0.64827(11)
C26 C 0.3862(4) 0.3681(2) 0.63545(11)
H24 H 0.4849 0.3444 0.6269
C27 C 0.3611(4) 0.4625(2) 0.63496(11)
H25 H 0.4418 0.5030 0.6257
C28 C 0.1704(4) 0.8210(2) 0.69180(12)
C29 C 0.2167(4) 0.8680(2) 0.73011(13)
H26 H 0.1750 0.8505 0.7581
C30 C 0.3231(5) 0.9399(3) 0.72766(19)
H27 H 0.3556 0.9705 0.7539
C31 C 0.3815(5) 0.9668(3) 0.6874(2)
H28 H 0.4541 1.0161 0.6858
C32 C 0.3352(5) 0.9228(3) 0.64925(17)
H29 H 0.3751 0.9421 0.6214
C33 C 0.2300(4) 0.8498(2) 0.65140(13)
H30 H 0.1989 0.8195 0.6249
C34 C -0.2157(4) 0.5059(2) 0.58987(12)
C35 C -0.1553(4) 0.4168(2) 0.52337(12)
C36 C -0.2884(5) 0.3487(3) 0.52542(14)
H31 H -0.3835 0.3778 0.5141
H32 H -0.3047 0.3294 0.5562
H33 H -0.2633 0.2947 0.5073
C37 C -0.1308(6) 0.4502(3) 0.47527(13)
H34 H -0.0430 0.4933 0.4743
H35 H -0.2254 0.4813 0.4649
H36 H -0.1086 0.3972 0.4561
C38 C -0.0057(5) 0.3786(3) 0.54229(15)
H37 H -0.0256 0.3534 0.5719
H38 H 0.0718 0.4280 0.5444
H39 H 0.0337 0.3298 0.5229
C39 C -0.1035(5) 0.9452(3) 0.47905(12)
H40 H -0.0878 0.9017 0.4546
H41 H -0.0105 0.9461 0.4979
H42 H -0.1218 1.0070 0.4670
C40 C 0.2959(4) 0.2043(2) 0.64637(13)
H43 H 0.2240 0.1768 0.6249
H44 H 0.2773 0.1776 0.6757
H45 H 0.4035 0.1919 0.6373
N1 N 0.1412(3) 0.64736(17) 0.69179(8)
N2 N -0.2168(3) 0.59422(18) 0.60580(8)
O1 O 0.3388(3) 0.65402(15) 0.62559(9)
O2 O -0.2347(3) 0.91738(17) 0.50463(8)
O3 O -0.1964(3) 0.50387(15) 0.54560(7)
O4 O -0.2321(3) 0.43880(17) 0.61377(8)
S1 S 0.18498(10) 0.61829(6) 0.63928(3)
loop_
_geom_bond_atom_site_label_1
_geom_bond_atom_site_label_2
_geom_bond_site_symmetry_1
_geom_bond_site_symmetry_2
Br1 C3 1_555 1_555
C1 H1 1_555 1_555
C2 C1 1_555 1_555
H2 C2 1_555 1_555
C3 C2 1_555 1_555
C4 C3 1_555 1_555
H3 C4 1_555 1_555
C5 C4 1_555 1_555
H4 C5 1_555 1_555
C6 C1 1_555 1_555
C7 C6 1_555 1_555
H5 C7 1_555 1_555
H6 C7 1_555 1_555
C8 H7 1_555 1_555
C9 C8 1_555 1_555
H8 C9 1_555 1_555
C10 C9 1_555 1_555
H9 C10 1_555 1_555
H10 C10 1_555 1_555
C11 C10 1_555 1_555
H11 C11 1_555 1_555
H12 C11 1_555 1_555
C12 C11 1_555 1_555
H13 C12 1_555 1_555
H14 C12 1_555 1_555
C13 C12 1_555 1_555
H15 C13 1_555 1_555
H16 C13 1_555 1_555
C14 C9 1_555 1_555
C15 C14 1_555 1_555
H17 C15 1_555 1_555
C16 C17 1_555 1_555
C17 H18 1_555 1_555
C18 C17 1_555 1_555
H19 C18 1_555 1_555
C19 C18 1_555 1_555
C20 C19 1_555 1_555
H20 C20 1_555 1_555
C21 C16 1_555 1_555
H21 C21 1_555 1_555
C22 C23 1_555 1_555
C23 H22 1_555 1_555
C24 C23 1_555 1_555
H23 C24 1_555 1_555
C25 C24 1_555 1_555
C26 C25 1_555 1_555
H24 C26 1_555 1_555
C27 C22 1_555 1_555
H25 C27 1_555 1_555
C28 C8 1_555 1_555
C29 C28 1_555 1_555
H26 C29 1_555 1_555
C30 C29 1_555 1_555
H27 C30 1_555 1_555
C31 C30 1_555 1_555
H28 C31 1_555 1_555
C32 C31 1_555 1_555
H29 C32 1_555 1_555
C33 C28 1_555 1_555
H30 C33 1_555 1_555
C34 N2 1_555 1_555
C35 C36 1_555 1_555
C36 H31 1_555 1_555
H32 C36 1_555 1_555
H33 C36 1_555 1_555
C37 C35 1_555 1_555
H34 C37 1_555 1_555
H35 C37 1_555 1_555
H36 C37 1_555 1_555
C38 C35 1_555 1_555
H37 C38 1_555 1_555
H38 C38 1_555 1_555
H39 C38 1_555 1_555
C39 H40 1_555 1_555
H41 C39 1_555 1_555
H42 C39 1_555 1_555
C40 C25 1_555 1_555
H43 C40 1_555 1_555
H44 C40 1_555 1_555
H45 C40 1_555 1_555
N1 C7 1_555 1_555
N2 C15 1_555 1_555
O1 S1 1_555 1_555
O2 C19 1_555 1_555
O3 C34 1_555 1_555
O4 C34 1_555 1_555
S1 C22 1_555 1_555
C5 C6 1_555 1_555
C8 N1 1_555 1_555
C13 C14 1_555 1_555
C16 N2 1_555 1_555
C20 C21 1_555 1_555
C26 C27 1_555 1_555
C32 C33 1_555 1_555
C35 O3 1_555 1_555
C39 O2 1_555 1_555
N1 S1 1_555 1_555

#END
