
#######################################################################
#
#                 Cambridge Crystallographic Data Centre
#                                CCDC 
#
#######################################################################
#
# If this CIF has been generated from an entry in the Cambridge 
# Structural Database, then it will include bibliographic, chemical, 
# crystal, experimental, refinement or atomic coordinate data resulting 
# from the CCDC's data processing and validation procedures.
#
#######################################################################

data_XAQGUS
_chemical_formula_moiety         'C15 H20 N4 O2 S1'
_chemical_name_systematic        
'(R,R,R)-2-(2-Nitro-1-phenylethyl)cyclopentanecarbaldehyde thiosemicarbazone'
_symmetry_cell_setting           monoclinic
_symmetry_space_group_name_H-M   'P 21'
_symmetry_Int_Tables_number      4
_space_group_name_Hall           'P 2yb'
loop_
_symmetry_equiv_pos_site_id
_symmetry_equiv_pos_as_xyz
1 x,y,z
2 -x,1/2+y,-z
_cell_length_a                   5.4049(19)
_cell_length_b                   8.413(3)
_cell_length_c                   17.658(6)
_cell_angle_alpha                90
_cell_angle_beta                 92.230(6)
_cell_angle_gamma                90
_cell_volume                     802.326
_exptl_crystal_colour            colorless
_exptl_crystal_description       columnar
_cell_formula_units_Z            2
loop_
_atom_site_label
_atom_site_type_symbol
_atom_site_fract_x
_atom_site_fract_y
_atom_site_fract_z
C1 C 0.5115(4) 0.6542(3) 0.92735(13)
H1 H 0.372(4) 0.717(3) 0.9091(12)
C2 C 0.5612(5) 0.6433(3) 1.00420(14)
H2 H 0.461(5) 0.694(3) 1.0373(13)
C3 C 0.7613(4) 0.5571(4) 1.03170(12)
H3 H 0.794(4) 0.561(3) 1.0849(13)
C4 C 0.9086(5) 0.4801(3) 0.98172(14)
H4 H 1.030(5) 0.421(3) 1.0011(15)
C5 C 0.8598(4) 0.4917(3) 0.90435(13)
H5 H 0.961(4) 0.442(3) 0.8731(12)
C6 C 0.6598(4) 0.5803(3) 0.87612(11)
C7 C 0.6201(4) 0.6107(2) 0.79167(12)
H6 H 0.455(4) 0.668(3) 0.7846(11)
C8 C 0.8282(4) 0.7157(3) 0.75919(12)
H8 H 0.9679 0.6448 0.7454
C9 C 0.9329(8) 0.8495(4) 0.8091(3)
H9 H 1.0949 0.8864 0.7915
H10 H 0.9520 0.8157 0.8627
C10 C 0.7348(8) 0.9789(5) 0.7989(2)
H11 H 0.8052 1.0849 0.8109
H12 H 0.5952 0.9587 0.8323
C11 C 0.6483(19) 0.9694(9) 0.7152(5)
H13 H 0.7231 1.0561 0.6859
H14 H 0.4658 0.9784 0.7100
C12 C 0.7348(4) 0.8057(3) 0.68653(12)
H15 H 0.5889 0.7478 0.6635
C13 C 0.9336(4) 0.8127(3) 0.63001(12)
H17 H 0.982(4) 0.710(3) 0.6118(12)
C14 C 1.3202(4) 1.0695(3) 0.53567(11)
C15 C 0.6048(4) 0.4582(3) 0.74412(14)
H18 H 0.605(4) 0.480(3) 0.6891(13)
H19 H 0.732(4) 0.385(3) 0.7593(13)
N1 N 1.0338(3) 0.9418(2) 0.61182(10)
N2 N 1.2167(4) 0.9343(3) 0.55909(11)
H20 H 1.264(4) 0.850(3) 0.5429(14)
N3 N 1.2327(5) 1.2030(3) 0.56306(14)
H21 H 1.103(5) 1.204(3) 0.5956(15)
H22 H 1.298(5) 1.294(3) 0.5505(15)
N4 N 0.3667(4) 0.3723(2) 0.75531(13)
O1 O 0.3541(4) 0.2801(2) 0.80770(12)
O2 O 0.1912(3) 0.4044(2) 0.71162(11)
S1 S 1.54958(11) 1.06399(7) 0.47298(3)
H7? H 0.9864 0.6567 0.7525
H16? H 0.5902 0.7467 0.6634
C16? C 0.854(4) 0.8536(13) 0.8169(8)
H23? H 0.7216 0.8450 0.8540
H24? H 1.0154 0.8455 0.8450
C17? C 0.835(3) 1.0152(15) 0.7768(9)
H25? H 0.9948 1.0488 0.7565
H26? H 0.7719 1.0993 0.8102
C18? C 0.645(7) 0.969(3) 0.714(2)
H27? H 0.6430 1.0476 0.6718
H28? H 0.4762 0.9614 0.7334
loop_
_geom_bond_atom_site_label_1
_geom_bond_atom_site_label_2
_geom_bond_site_symmetry_1
_geom_bond_site_symmetry_2
C1 H1 1_555 1_555
C2 C1 1_555 1_555
H2 C2 1_555 1_555
C3 C2 1_555 1_555
H3 C3 1_555 1_555
C4 C3 1_555 1_555
H4 C4 1_555 1_555
C5 C4 1_555 1_555
H5 C5 1_555 1_555
C6 C1 1_555 1_555
C7 C6 1_555 1_555
H6 C7 1_555 1_555
C8 C7 1_555 1_555
H8 C8 1_555 1_555
C9 C8 1_555 1_555
H9 C9 1_555 1_555
H10 C9 1_555 1_555
C10 C9 1_555 1_555
H11 C10 1_555 1_555
H12 C10 1_555 1_555
C11 C10 1_555 1_555
H13 C11 1_555 1_555
H14 C11 1_555 1_555
C12 C8 1_555 1_555
H15 C12 1_555 1_555
C13 C12 1_555 1_555
H17 C13 1_555 1_555
C14 N2 1_555 1_555
C15 C7 1_555 1_555
H18 C15 1_555 1_555
H19 C15 1_555 1_555
N1 C13 1_555 1_555
N2 N1 1_555 1_555
H20 N2 1_555 1_555
N3 C14 1_555 1_555
H21 N3 1_555 1_555
H22 N3 1_555 1_555
N4 C15 1_555 1_555
O1 N4 1_555 1_555
O2 N4 1_555 1_555
S1 C14 1_555 1_555
C5 C6 1_555 1_555
C11 C12 1_555 1_555

#END
