
#######################################################################
#
#                 Cambridge Crystallographic Data Centre
#                                CCDC 
#
#######################################################################
#
# If this CIF has been generated from an entry in the Cambridge 
# Structural Database, then it will include bibliographic, chemical, 
# crystal, experimental, refinement or atomic coordinate data resulting 
# from the CCDC's data processing and validation procedures.
#
#######################################################################

data_XAQHAZ
_chemical_formula_moiety         'C25 H27 N1 O1'
_chemical_name_systematic        
N-(1-(Phenyl)ethyl)-2-methyl-3,4-diphenylbutanamide
_symmetry_cell_setting           monoclinic
_symmetry_space_group_name_H-M   'P 21'
_symmetry_Int_Tables_number      4
_space_group_name_Hall           'P 2yb'
loop_
_symmetry_equiv_pos_site_id
_symmetry_equiv_pos_as_xyz
1 x,y,z
2 -x,1/2+y,-z
_cell_length_a                   8.870(2)
_cell_length_b                   5.2473(14)
_cell_length_c                   21.735(6)
_cell_angle_alpha                90
_cell_angle_beta                 97.428(6)
_cell_angle_gamma                90
_cell_volume                     1003.13
_exptl_crystal_colour            colorless
_exptl_crystal_description       tabular
_cell_formula_units_Z            2
loop_
_atom_site_label
_atom_site_type_symbol
_atom_site_fract_x
_atom_site_fract_y
_atom_site_fract_z
C1 C 0.6549(4) 1.1539(6) 0.44384(14)
H1 H 0.5928 1.2789 0.4214
C2 C 0.6569(4) 1.1357(8) 0.50776(16)
H2 H 0.5964 1.2471 0.5288
C3 C 0.7471(5) 0.9553(8) 0.54023(17)
H3 H 0.7492 0.9430 0.5839
C4 C 0.8331(5) 0.7947(8) 0.51052(17)
H4 H 0.8946 0.6698 0.5333
C5 C 0.8311(4) 0.8134(7) 0.44647(16)
H5 H 0.8918 0.7013 0.4257
C6 C 0.7412(3) 0.9939(5) 0.41281(13)
C7 C 0.7445(3) 1.0183(6) 0.34363(13)
H6 H 0.7875 0.8571 0.3286
C8 C 0.4952(3) 0.8615(5) 0.29540(13)
C9 C 0.3343(3) 0.9425(6) 0.26976(13)
H7 H 0.3370 1.1231 0.2552
C10 C 0.2682(3) 0.7744(5) 0.21483(12)
H8 H 0.2723 0.5933 0.2293
C11 C 0.3687(3) 0.7968(6) 0.16216(13)
H9 H 0.3562 0.9707 0.1446
H10 H 0.4762 0.7791 0.1806
C12 C 0.3391(3) 0.6086(5) 0.10952(13)
C13 C 0.4510(4) 0.4369(6) 0.09833(14)
H11 H 0.5449 0.4365 0.1249
C14 C 0.4294(4) 0.2646(7) 0.04914(14)
H12 H 0.5074 0.1475 0.0425
C15 C 0.2945(4) 0.2660(7) 0.01042(14)
H13 H 0.2790 0.1501 -0.0234
C16 C 0.1820(4) 0.4347(7) 0.02045(15)
H14 H 0.0881 0.4330 -0.0061
C17 C 0.2040(3) 0.6070(6) 0.06886(14)
H15 H 0.1261 0.7258 0.0745
C18 C 0.8449(3) 1.2387(6) 0.32797(14)
H16 H 0.7992 1.4004 0.3385
H17 H 0.8542 1.2356 0.2835
H18 H 0.9459 1.2217 0.3519
C19 C 0.2394(4) 0.9301(9) 0.32398(14)
H19 H 0.1417 1.0155 0.3122
H20 H 0.2943 1.0153 0.3603
H21 H 0.2215 0.7515 0.3341
C20 C 0.1030(3) 0.8413(5) 0.19455(12)
C21 C 0.0610(3) 1.0586(5) 0.16016(13)
H22 H 0.1376 1.1692 0.1487
C22 C -0.0904(3) 1.1170(6) 0.14221(14)
H23 H -0.1170 1.2644 0.1178
C23 C -0.2030(4) 0.9608(6) 0.15969(14)
H24 H -0.3071 0.9993 0.1471
C24 C -0.1632(3) 0.7502(7) 0.19536(14)
H25 H -0.2401 0.6447 0.2085
C25 C -0.0115(3) 0.6902(5) 0.21242(13)
H26 H 0.0144 0.5426 0.2368
N1 N 0.5926(3) 1.0543(5) 0.30972(11)
H27 H 0.569(3) 1.210(5) 0.3035(14)
O1 O 0.5292(2) 0.6371(4) 0.30431(10)
loop_
_geom_bond_atom_site_label_1
_geom_bond_atom_site_label_2
_geom_bond_site_symmetry_1
_geom_bond_site_symmetry_2
C1 H1 1_555 1_555
C2 C1 1_555 1_555
H2 C2 1_555 1_555
C3 C2 1_555 1_555
H3 C3 1_555 1_555
C4 C3 1_555 1_555
H4 C4 1_555 1_555
C5 C4 1_555 1_555
H5 C5 1_555 1_555
C6 C1 1_555 1_555
C7 C6 1_555 1_555
H6 C7 1_555 1_555
C8 C9 1_555 1_555
C9 H7 1_555 1_555
C10 C9 1_555 1_555
H8 C10 1_555 1_555
C11 C10 1_555 1_555
H9 C11 1_555 1_555
H10 C11 1_555 1_555
C12 C11 1_555 1_555
C13 C12 1_555 1_555
H11 C13 1_555 1_555
C14 C13 1_555 1_555
H12 C14 1_555 1_555
C15 C14 1_555 1_555
H13 C15 1_555 1_555
C16 C15 1_555 1_555
H14 C16 1_555 1_555
C17 C12 1_555 1_555
H15 C17 1_555 1_555
C18 C7 1_555 1_555
H16 C18 1_555 1_555
H17 C18 1_555 1_555
H18 C18 1_555 1_555
C19 C9 1_555 1_555
H19 C19 1_555 1_555
H20 C19 1_555 1_555
H21 C19 1_555 1_555
C20 C10 1_555 1_555
C21 C20 1_555 1_555
H22 C21 1_555 1_555
C22 C21 1_555 1_555
H23 C22 1_555 1_555
C23 C22 1_555 1_555
H24 C23 1_555 1_555
C24 C23 1_555 1_555
H25 C24 1_555 1_555
C25 C20 1_555 1_555
H26 C25 1_555 1_555
N1 C7 1_555 1_555
H27 N1 1_555 1_555
O1 C8 1_555 1_555
C5 C6 1_555 1_555
C8 N1 1_555 1_555
C16 C17 1_555 1_555
C24 C25 1_555 1_555

#END
