
#######################################################################
#
#                 Cambridge Crystallographic Data Centre
#                                CCDC 
#
#######################################################################
#
# If this CIF has been generated from an entry in the Cambridge 
# Structural Database, then it will include bibliographic, chemical, 
# crystal, experimental, refinement or atomic coordinate data resulting 
# from the CCDC's data processing and validation procedures.
#
#######################################################################

data_XAQNEJ
_chemical_compound_source        'Artemisia ordosica Kraschen'
_chemical_name_common            Capillarin
_chemical_formula_moiety         'C13 H10 O2'
_chemical_name_systematic        3-(2-Butynyl)isocoumarin
_chemical_properties_biological  
'antifeedant, antifungal and antitumour activity'
_symmetry_cell_setting           triclinic
_symmetry_space_group_name_H-M   'P -1'
_symmetry_Int_Tables_number      2
_space_group_name_Hall           '-P 1'
loop_
_symmetry_equiv_pos_site_id
_symmetry_equiv_pos_as_xyz
1 x,y,z
2 -x,-y,-z
_cell_length_a                   7.226(6)
_cell_length_b                   7.297(6)
_cell_length_c                   11.042(8)
_cell_angle_alpha                74.695(12)
_cell_angle_beta                 78.479(12)
_cell_angle_gamma                62.063(10)
_cell_volume                     494.15
_exptl_crystal_colour            colorless
_exptl_crystal_description       platelet
_chemical_melting_point          123-125deg.C
_cell_formula_units_Z            2
_exptl_crystal_recrystallization_method petroleum/acetone
loop_
_atom_site_label
_atom_site_type_symbol
_atom_site_fract_x
_atom_site_fract_y
_atom_site_fract_z
O1 O -0.0421(2) 0.1453(2) 0.68328(14)
O2 O 0.21369(18) 0.17805(18) 0.73914(10)
C1 C 0.1064(3) 0.1835(3) 0.64754(17)
C2 C 0.1841(2) 0.2337(2) 0.51719(15)
C3 C 0.0792(3) 0.2453(3) 0.41999(19)
H1 H -0.0402 0.2218 0.4386
C4 C 0.1529(3) 0.2915(3) 0.29701(19)
H2 H 0.0823 0.3012 0.2321
C5 C 0.3309(3) 0.3234(3) 0.26955(17)
H3 H 0.3802 0.3534 0.1858
C6 C 0.4366(3) 0.3118(3) 0.36288(16)
H4 H 0.5570 0.3334 0.3425
C7 C 0.3637(2) 0.2675(2) 0.48918(14)
C8 C 0.4667(2) 0.2540(2) 0.59214(15)
H5 H 0.5872 0.2754 0.5758
C9 C 0.3910(2) 0.2111(2) 0.71008(15)
C10 C 0.4805(3) 0.1924(3) 0.82585(16)
H6 H 0.4870 0.0656 0.8853
H7 H 0.6229 0.1779 0.8037
C11 C 0.3554(3) 0.3765(3) 0.88645(15)
C12 C 0.2569(3) 0.5313(3) 0.92905(16)
C13 C 0.1361(3) 0.7268(3) 0.97782(19)
H8 H 0.2212 0.7402 1.0284
H9 H 0.0129 0.7231 1.0284
H10 H 0.0951 0.8455 0.9087
loop_
_geom_bond_atom_site_label_1
_geom_bond_atom_site_label_2
_geom_bond_site_symmetry_1
_geom_bond_site_symmetry_2
O1 C1 1_555 1_555
O2 C1 1_555 1_555
C1 C2 1_555 1_555
C2 C3 1_555 1_555
C3 H1 1_555 1_555
C4 C3 1_555 1_555
H2 C4 1_555 1_555
C5 C4 1_555 1_555
H3 C5 1_555 1_555
C6 C5 1_555 1_555
H4 C6 1_555 1_555
C7 C2 1_555 1_555
C8 C7 1_555 1_555
H5 C8 1_555 1_555
C9 O2 1_555 1_555
C10 C9 1_555 1_555
H6 C10 1_555 1_555
H7 C10 1_555 1_555
C11 C10 1_555 1_555
C12 C11 1_555 1_555
C13 C12 1_555 1_555
H8 C13 1_555 1_555
H9 C13 1_555 1_555
H10 C13 1_555 1_555
C6 C7 1_555 1_555
C8 C9 1_555 1_555

#END
