
#######################################################################
#
#                 Cambridge Crystallographic Data Centre
#                                CCDC 
#
#######################################################################
#
# If this CIF has been generated from an entry in the Cambridge 
# Structural Database, then it will include bibliographic, chemical, 
# crystal, experimental, refinement or atomic coordinate data resulting 
# from the CCDC's data processing and validation procedures.
#
#######################################################################

data_XAQVAM
_chemical_formula_moiety         '2(C1 H6 N3 1+),C12 H8 O6 S2 2-,C6 H5 Cl1'
_chemical_name_systematic        
"bis(Guanidinium) 4,4'-biphenyldisulfonate chlorobenzene clathrate"
_symmetry_cell_setting           triclinic
_symmetry_space_group_name_H-M   'P -1'
_symmetry_Int_Tables_number      2
_space_group_name_Hall           '-P 1'
loop_
_symmetry_equiv_pos_site_id
_symmetry_equiv_pos_as_xyz
1 x,y,z
2 -x,-y,-z
_cell_length_a                   6.1605(1)
_cell_length_b                   7.2654(2)
_cell_length_c                   13.8699(3)
_cell_angle_alpha                95.756(1)
_cell_angle_beta                 93.969(2)
_cell_angle_gamma                92.532(1)
_cell_volume                     615.367
_exptl_crystal_colour            colorless
_exptl_crystal_description       plate
_cell_formula_units_Z            1
loop_
_atom_site_label
_atom_site_type_symbol
_atom_site_fract_x
_atom_site_fract_y
_atom_site_fract_z
C7 C -0.0435(3) 0.7505(3) 0.8997(1)
N1 N -0.1382(3) 0.5832(2) 0.9014(1)
N2 N 0.1705(3) 0.7687(2) 0.8972(1)
N3 N -0.1614(3) 0.8995(2) 0.8983(1)
Cl1 Cl 0.1796(6) 0.3542(7) 0.3682(3)
C8 C 0.0642(9) 0.4573(6) 0.4698(3)
C9 C -0.1407(24) 0.5265(24) 0.4642(8)
C10 C 0.2264(10) 0.3948(7) 0.4545(5)
C11 C 0.1019(24) 0.3897(22) 0.3572(10)
C12 C -0.0915(10) 0.4545(7) 0.3604(5)
C13 C 0.1824(25) 0.4649(25) 0.5603(9)
C8A C -0.0642(9) 0.5427(6) 0.5302(3)
Cl1A Cl -0.1796(6) 0.6458(7) 0.6318(3)
C10A C -0.2264(10) 0.6052(7) 0.5455(5)
C9A C 0.1407(24) 0.4735(24) 0.5358(8)
C11A C -0.1019(24) 0.6103(22) 0.6428(10)
C12A C 0.0915(10) 0.5455(7) 0.6396(5)
C13A C -0.1824(25) 0.5351(25) 0.4397(9)
S1 S 0.3283(1) 0.2501(1) 0.8598(1)
O1 O 0.0910(2) 0.2365(2) 0.8624(1)
O2 O 0.4151(2) 0.4418(2) 0.8745(1)
O3 O 0.4371(2) 0.1312(2) 0.9243(1)
C1 C 0.3845(3) 0.1652(2) 0.7400(1)
C2 C 0.2311(3) 0.0539(3) 0.6805(2)
C3 C 0.2781(3) -0.0115(3) 0.5875(2)
C4 C 0.4764(3) 0.0325(2) 0.5509(1)
C5 C 0.6288(3) 0.1426(3) 0.6128(2)
C6 C 0.5844(3) 0.2085(3) 0.7061(2)
C4A C 0.5236(3) -0.0325(2) 0.4491(1)
C3A C 0.7219(3) 0.0115(3) 0.4125(2)
C2A C 0.7689(3) -0.0539(3) 0.3195(2)
C1A C 0.6155(3) -0.1652(2) 0.2600(1)
S1A S 0.6717(1) -0.2501(1) 0.1402(1)
O1A O 0.9090(2) -0.2365(2) 0.1376(1)
O2A O 0.5849(2) -0.4418(2) 0.1255(1)
O3A O 0.5629(2) -0.1312(2) 0.0757(1)
C6A C 0.4156(3) -0.2085(3) 0.2939(2)
C5A C 0.3712(3) -0.1426(3) 0.3872(2)
loop_
_geom_bond_atom_site_label_1
_geom_bond_atom_site_label_2
_geom_bond_site_symmetry_1
_geom_bond_site_symmetry_2
S1 O1 1_555 1_555
O2 S1 1_555 1_555
O3 S1 1_555 1_555
C1 S1 1_555 1_555
C2 C1 1_555 1_555
C3 C2 1_555 1_555
C4 C3 1_555 1_555
C5 C4 1_555 1_555
C6 C1 1_555 1_555
C7 N1 1_555 1_555
N2 C7 1_555 1_555
N3 C7 1_555 1_555
Cl1 C8 1_555 1_555
C8 C9 1_555 1_555
C9 C12 1_555 1_555
C10 Cl1 1_555 1_555
C11 Cl1 1_555 1_555
C12 C8 1_555 1_555
C13 C8 1_555 1_555
C4A C4 1_555 1_555
C3A C4A 1_555 1_555
C2A C3A 1_555 1_555
C1A C2A 1_555 1_555
S1A C1A 1_555 1_555
O1A S1A 1_555 1_555
O2A S1A 1_555 1_555
O3A S1A 1_555 1_555
C6A C1A 1_555 1_555
C5A C4A 1_555 1_555
C8A C8 1_555 1_555
Cl1A C8A 1_555 1_555
C10A C9 1_555 1_555
C9A C8 1_555 1_555
C11A C8A 1_555 1_555
C12A C13 1_555 1_555
C13A C8 1_555 1_555
C5 C6 1_555 1_555
C8 C10 1_555 1_555
C8 C11 1_555 1_555
C9 C8A 1_555 1_555
C9 C13A 1_555 1_555
C10 C9A 1_555 1_555
C10 C11 1_555 1_555
C10 C13 1_555 1_555
C11 C12 1_555 1_555
C12 C13A 1_555 1_555
C13 C8A 1_555 1_555
C13 C9A 1_555 1_555
C6A C5A 1_555 1_555
C8A C10A 1_555 1_555
C8A C9A 1_555 1_555
C8A C12A 1_555 1_555
C8A C13A 1_555 1_555
Cl1A C10A 1_555 1_555
Cl1A C11A 1_555 1_555
C10A C11A 1_555 1_555
C10A C13A 1_555 1_555
C9A C12A 1_555 1_555
C11A C12A 1_555 1_555

#END
