
#######################################################################
#
#                 Cambridge Crystallographic Data Centre
#                                CCDC 
#
#######################################################################
#
# If this CIF has been generated from an entry in the Cambridge 
# Structural Database, then it will include bibliographic, chemical, 
# crystal, experimental, refinement or atomic coordinate data resulting 
# from the CCDC's data processing and validation procedures.
#
#######################################################################

data_XAQVOA
_chemical_formula_moiety         '2(C1 H6 N3 1+),C12 H8 O6 S2 2-,C8 H10'
_chemical_name_systematic        
"bis(Guanidinium) 4,4'-biphenyldisulfonate p-xylene clathrate"
_symmetry_cell_setting           triclinic
_symmetry_space_group_name_H-M   'P -1'
_symmetry_Int_Tables_number      2
_space_group_name_Hall           '-P 1'
loop_
_symmetry_equiv_pos_site_id
_symmetry_equiv_pos_as_xyz
1 x,y,z
2 -x,-y,-z
_cell_length_a                   6.0964(2)
_cell_length_b                   7.3002(2)
_cell_length_c                   14.6979(1)
_cell_angle_alpha                101.927(1)
_cell_angle_beta                 91.077(2)
_cell_angle_gamma                93.525(2)
_cell_volume                     638.464
_exptl_crystal_colour            colorless
_exptl_crystal_description       plate
_cell_formula_units_Z            1
loop_
_atom_site_label
_atom_site_type_symbol
_atom_site_fract_x
_atom_site_fract_y
_atom_site_fract_z
S1 S 0.6781(1) 0.2812(1) 0.6422(1)
O1 O 0.5659(3) 0.4009(2) 0.5909(1)
O2 O 0.9168(3) 0.2998(2) 0.6360(1)
O3 O 0.5929(3) 0.0856(2) 0.6176(1)
C1 C 0.6215(4) 0.3604(3) 0.7613(2)
C2 C 0.4308(5) 0.4449(5) 0.7870(2)
C3 C 0.3842(5) 0.4988(5) 0.8802(2)
C4 C 0.5262(4) 0.4699(3) 0.9499(2)
C5 C 0.7166(4) 0.3837(4) 0.9224(2)
C6 C 0.7645(4) 0.3288(4) 0.8291(2)
H1 H 0.3303(5) 0.4664(5) 0.7408(2)
H2 H 0.2515(5) 0.5571(5) 0.8968(2)
H3 H 0.8171(4) 0.3615(4) 0.9685(2)
H4 H 0.8963(4) 0.2693(4) 0.8121(2)
C4A C 0.4738(4) 0.5301(3) 1.0501(2)
C3A C 0.6158(5) 0.5012(5) 1.1198(2)
C2A C 0.5692(5) 0.5551(5) 1.2130(2)
C1A C 0.3785(4) 0.6396(3) 1.2387(2)
S1A S 0.3219(1) 0.7188(1) 1.3578(1)
O1A O 0.4341(3) 0.5991(2) 1.4091(1)
O2A O 0.0832(3) 0.7002(2) 1.3640(1)
O3A O 0.4071(3) 0.9144(2) 1.3824(1)
C6A C 0.2355(4) 0.6712(4) 1.1709(2)
C5A C 0.2834(4) 0.6163(4) 1.0776(2)
H3A H 0.1829(4) 0.6385(4) 1.0315(2)
H4A H 0.1037(4) 0.7307(4) 1.1879(2)
H1A H 0.6697(5) 0.5336(5) 1.2592(2)
H2A H 0.7485(5) 0.4429(5) 1.1032(2)
C7 C 1.0459(4) 0.7790(3) 0.5963(2)
N1 N 0.8333(3) 0.7618(3) 0.6118(2)
N2 N 1.1642(3) 0.6295(3) 0.5905(1)
N3 N 1.1385(3) 0.9433(3) 0.5890(1)
H5 H 0.7538(3) 0.8599(3) 0.6173(2)
H6 H 0.7714(3) 0.6522(3) 0.6167(2)
H7 H 1.3065(3) 0.6395(3) 0.5817(1)
H8 H 1.1001(3) 0.5208(3) 0.5955(1)
H9 H 1.0589(3) 1.0413(3) 0.5945(1)
H10 H 1.2799(3) 0.9549(3) 0.5787(1)
C8 C 1.2595(6) 0.9587(5) 0.8326(2)
C9 C 1.1256(5) 0.9780(4) 0.9190(2)
C10 C 0.9122(5) 0.8978(4) 0.9166(2)
C11 C 1.2104(5) 1.0807(4) 1.0042(2)
H11 H 1.4164(6) 0.9742(32) 0.8503(2)
H12 H 1.2230(28) 1.0552(20) 0.7984(8)
H13 H 1.2261(29) 0.8342(12) 0.7930(8)
H14 H 0.8496(5) 0.8269(4) 0.8594(2)
H15 H 1.3557(5) 1.1372(4) 1.0079(2)
C11A C 0.7896(5) 0.9193(4) 0.9958(2)
C9A C 0.8744(5) 1.0220(4) 1.0810(2)
C8A C 0.7405(6) 1.0413(5) 1.1674(2)
H11A H 0.5836(6) 1.0258(32) 1.1497(2)
H12A H 0.7770(28) 0.9448(20) 1.2016(8)
H13A H 0.7739(29) 1.1658(12) 1.2070(8)
C10A C 1.0878(5) 1.1022(4) 1.0834(2)
H14A H 1.1504(5) 1.1731(4) 1.1406(2)
H15A H 0.6443(5) 0.8628(4) 0.9921(2)
loop_
_geom_bond_atom_site_label_1
_geom_bond_atom_site_label_2
_geom_bond_site_symmetry_1
_geom_bond_site_symmetry_2
S1 O1 1_555 1_555
O2 S1 1_555 1_555
O3 S1 1_555 1_555
C1 S1 1_555 1_555
C2 C1 1_555 1_555
C3 C2 1_555 1_555
C4 C3 1_555 1_555
C5 C4 1_555 1_555
C6 C1 1_555 1_555
C7 N1 1_555 1_555
N1 H5 1_555 1_555
N2 C7 1_555 1_555
N3 C7 1_555 1_555
C8 C9 1_555 1_555
C9 C10 1_555 1_555
C10 H14 1_555 1_555
C11 C9 1_555 1_555
H1 C2 1_555 1_555
H2 C3 1_555 1_555
H3 C5 1_555 1_555
H4 C6 1_555 1_555
H6 N1 1_555 1_555
H7 N2 1_555 1_555
H8 N2 1_555 1_555
H9 N3 1_555 1_555
H10 N3 1_555 1_555
H11 C8 1_555 1_555
H12 C8 1_555 1_555
H13 C8 1_555 1_555
H15 C11 1_555 1_555
C4A C4 1_555 1_555
C3A C4A 1_555 1_555
C2A C3A 1_555 1_555
C1A C2A 1_555 1_555
S1A C1A 1_555 1_555
O1A S1A 1_555 1_555
O2A S1A 1_555 1_555
O3A S1A 1_555 1_555
C6A C1A 1_555 1_555
C5A C4A 1_555 1_555
H3A C5A 1_555 1_555
H4A C6A 1_555 1_555
H1A C2A 1_555 1_555
H2A C3A 1_555 1_555
C11A C10 1_555 1_555
C9A C11A 1_555 1_555
C8A C9A 1_555 1_555
H11A C8A 1_555 1_555
H12A C8A 1_555 1_555
H13A C8A 1_555 1_555
C10A C11 1_555 1_555
H14A C10A 1_555 1_555
H15A C11A 1_555 1_555
C5 C6 1_555 1_555
C6A C5A 1_555 1_555
C9A C10A 1_555 1_555

#END
