
#######################################################################
#
#                 Cambridge Crystallographic Data Centre
#                                CCDC 
#
#######################################################################
#
# If this CIF has been generated from an entry in the Cambridge 
# Structural Database, then it will include bibliographic, chemical, 
# crystal, experimental, refinement or atomic coordinate data resulting 
# from the CCDC's data processing and validation procedures.
#
#######################################################################

data_XAQWER
_chemical_formula_moiety         '2(C1 H6 N3 1+),C12 H8 O6 S2 2-,C7 H7 Br1'
_chemical_name_systematic        
"bis(Guanidinium) 4,4'-biphenyldisulfonate 4-bromotoluene clathrate"
_symmetry_cell_setting           triclinic
_symmetry_space_group_name_H-M   'P -1'
_symmetry_Int_Tables_number      2
_space_group_name_Hall           '-P 1'
loop_
_symmetry_equiv_pos_site_id
_symmetry_equiv_pos_as_xyz
1 x,y,z
2 -x,-y,-z
_cell_length_a                   6.1150(4)
_cell_length_b                   7.3474(4)
_cell_length_c                   14.3770(8)
_cell_angle_alpha                98.620(1)
_cell_angle_beta                 90.193(2)
_cell_angle_gamma                94.611(1)
_cell_volume                     636.508
_exptl_crystal_colour            colorless
_exptl_crystal_description       block
_cell_formula_units_Z            1
loop_
_atom_site_label
_atom_site_type_symbol
_atom_site_fract_x
_atom_site_fract_y
_atom_site_fract_z
C7 C 0.4632(6) 0.7346(5) 0.4020(2)
N1 N 0.6768(5) 0.7575(4) 0.3883(2)
N2 N 0.3453(5) 0.8803(4) 0.4076(2)
N3 N 0.3698(5) 0.5679(4) 0.4074(2)
H5 H 0.7564(5) 0.6620(4) 0.3829(2)
H6 H 0.7393(5) 0.8684(4) 0.3847(2)
H7 H 0.2025(5) 0.8667(4) 0.4150(2)
H8 H 0.4102(5) 0.9902(4) 0.4038(2)
H9 H 0.4497(5) 0.4726(4) 0.4019(2)
H10 H 0.2277(5) 0.5523(4) 0.4165(2)
Br1 Br 0.7646(5) 0.3284(3) -0.1584(2)
C8 C 0.5941(15) 0.4337(9) -0.0564(6)
C9 C 0.3948(16) 0.4994(12) -0.0741(6)
C10 C 0.7284(16) 0.4248(14) 0.0008(7)
C11 C 0.6550(17) 0.4135(16) -0.0907(6)
C12 C 0.4551(17) 0.4794(15) -0.1083(6)
C13 C 0.6678(15) 0.4449(12) 0.0351(6)
C14 C 0.8001(49) 0.3276(22) -0.1688(22)
H11 H 0.3431(16) 0.4920(12) -0.1370(6)
H12 H 0.8653(16) 0.3799(14) 0.0134(7)
H13 H 0.4032(17) 0.4721(15) -0.1712(6)
H14 H 0.8047(15) 0.4000(12) 0.0475(6)
H15 H 0.7293(49) 0.3279(22) -0.2300(22)
H16 H 0.9427(49) 0.3994(22) -0.1661(22)
H17 H 0.8213(49) 0.2002(22) -0.1604(22)
C10A C 0.2716(16) 0.5752(14) -0.0008(7)
C8A C 0.4059(15) 0.5663(9) 0.0564(6)
Br1A Br 0.2354(5) 0.6716(3) 0.1584(2)
C11A C 0.3450(17) 0.5865(16) 0.0907(6)
C9A C 0.6052(16) 0.5006(12) 0.0741(6)
C13A C 0.3322(15) 0.5551(12) -0.0351(6)
C12A C 0.5449(17) 0.5206(15) 0.1083(6)
H14A H 0.1953(15) 0.6000(12) -0.0475(6)
H12A H 0.1347(16) 0.6201(14) -0.0134(7)
C14A C 0.1999(49) 0.6724(22) 0.1688(22)
H15A H 0.2707(49) 0.6721(22) 0.2300(22)
H16A H 0.0573(49) 0.6006(22) 0.1661(22)
H17A H 0.1787(49) 0.7998(22) 0.1604(22)
H11A H 0.6569(16) 0.5080(12) 0.1370(6)
H13A H 0.5968(17) 0.5279(15) 0.1712(6)
S1 S 0.8303(1) 0.2399(1) 0.3584(1)
O1 O 0.9409(4) 0.1252(3) 0.4150(2)
O2 O 0.9173(4) 0.4335(3) 0.3752(2)
O3 O 0.5916(4) 0.2197(3) 0.3668(2)
C1 C 0.8867(6) 0.1575(5) 0.2392(2)
C2 C 1.0906(7) 0.1957(7) 0.2031(3)
C3 C 1.1335(7) 0.1327(7) 0.1109(3)
C4 C 0.9768(6) 0.0315(4) 0.0501(2)
C5 C 0.7746(6) -0.0068(6) 0.0887(3)
C6 C 0.7279(6) 0.0555(7) 0.1809(3)
H1 H 1.2020(7) 0.2660(7) 0.2423(3)
H2 H 1.2761(7) 0.1595(7) 0.0878(3)
H3 H 0.6636(6) -0.0789(6) 0.0500(3)
H4 H 0.5859(6) 0.0282(7) 0.2044(3)
C4A C 1.0232(6) -0.0315(4) -0.0501(2)
C3A C 0.8665(7) -0.1327(7) -0.1109(3)
C2A C 0.9094(7) -0.1957(7) -0.2031(3)
C1A C 1.1133(6) -0.1575(5) -0.2392(2)
S1A S 1.1697(1) -0.2399(1) -0.3584(1)
O1A O 1.0591(4) -0.1252(3) -0.4150(2)
O2A O 1.0827(4) -0.4335(3) -0.3752(2)
O3A O 1.4084(4) -0.2197(3) -0.3668(2)
C6A C 1.2721(6) -0.0555(7) -0.1809(3)
C5A C 1.2254(6) 0.0068(6) -0.0887(3)
H3A H 1.3364(6) 0.0789(6) -0.0500(3)
H4A H 1.4141(6) -0.0282(7) -0.2044(3)
H1A H 0.7980(7) -0.2660(7) -0.2423(3)
H2A H 0.7239(7) -0.1595(7) -0.0878(3)
loop_
_geom_bond_atom_site_label_1
_geom_bond_atom_site_label_2
_geom_bond_site_symmetry_1
_geom_bond_site_symmetry_2
S1 O1 1_555 1_555
O2 S1 1_555 1_555
O3 S1 1_555 1_555
C1 S1 1_555 1_555
C2 C1 1_555 1_555
C3 C2 1_555 1_555
C4 C3 1_555 1_555
C5 C4 1_555 1_555
C6 C1 1_555 1_555
C7 N1 1_555 1_555
N1 H5 1_555 1_555
N2 C7 1_555 1_555
N3 C7 1_555 1_555
Br1 C8 1_555 1_555
C8 C9 1_555 1_555
C9 C12 1_555 1_555
C10 C8 1_555 1_555
C11 Br1 1_555 1_555
C12 C8 1_555 1_555
C13 C8 1_555 1_555
C14 Br1 1_555 1_555
H1 C2 1_555 1_555
H2 C3 1_555 1_555
H3 C5 1_555 1_555
H4 C6 1_555 1_555
H6 N1 1_555 1_555
H7 N2 1_555 1_555
H8 N2 1_555 1_555
H9 N3 1_555 1_555
H10 N3 1_555 1_555
H11 C9 1_555 1_555
H12 C10 1_555 1_555
H13 C12 1_555 1_555
H14 C10 1_555 1_555
H15 Br1 1_555 1_555
H16 Br1 1_555 1_555
H17 Br1 1_555 1_555
C4A C4 1_555 1_555
C3A C4A 1_555 1_555
C2A C3A 1_555 1_555
C1A C2A 1_555 1_555
S1A C1A 1_555 1_555
O1A S1A 1_555 1_555
O2A S1A 1_555 1_555
O3A S1A 1_555 1_555
C6A C1A 1_555 1_555
C5A C4A 1_555 1_555
H3A C5A 1_555 1_555
H4A C6A 1_555 1_555
H1A C2A 1_555 1_555
H2A C3A 1_555 1_555
C10A C9 1_555 1_555
C8A C10A 1_555 1_555
Br1A C8A 1_555 1_555
C11A C10A 1_555 1_555
C9A C10 1_555 1_555
C13A C9 1_555 1_555
C12A C13 1_555 1_555
H14A C10A 1_555 1_555
H12A C10A 1_555 1_555
C14A Br1A 1_555 1_555
H15A Br1A 1_555 1_555
H16A Br1A 1_555 1_555
H17A Br1A 1_555 1_555
H11A C9A 1_555 1_555
H13A C12A 1_555 1_555
C5 C6 1_555 1_555
C8 C11 1_555 1_555
C10 C13 1_555 1_555
C10 C11 1_555 1_555
C11 C14 1_555 1_555
C11 C12 1_555 1_555
C12 H11 1_555 1_555
C12 C13A 1_555 1_555
C13 H14 1_555 1_555
C13 C9A 1_555 1_555
C14 H15 1_555 1_555
C14 H17 1_555 1_555
C14 H16 1_555 1_555
H11 H13 1_555 1_555
H12 H14 1_555 1_555
C6A C5A 1_555 1_555
C10A C13A 1_555 1_555
C8A C11A 1_555 1_555
C8A C9A 1_555 1_555
C8A C12A 1_555 1_555
C8A C13A 1_555 1_555
Br1A C11A 1_555 1_555
C11A C14A 1_555 1_555
C11A C12A 1_555 1_555
C9A C12A 1_555 1_555
C13A H14A 1_555 1_555
C12A H11A 1_555 1_555
H14A H12A 1_555 1_555
C14A H16A 1_555 1_555
C14A H15A 1_555 1_555
C14A H17A 1_555 1_555
H11A H13A 1_555 1_555

#END
