
#######################################################################
#
#                 Cambridge Crystallographic Data Centre
#                                CCDC 
#
#######################################################################
#
# If this CIF has been generated from an entry in the Cambridge 
# Structural Database, then it will include bibliographic, chemical, 
# crystal, experimental, refinement or atomic coordinate data resulting 
# from the CCDC's data processing and validation procedures.
#
#######################################################################

data_XAQWOB
_chemical_formula_moiety         '2(C1 H6 N3 1+),C12 H8 O6 S2 2-,C8 H10'
_chemical_name_systematic        
"bis(Guanidinium) 4,4'-biphenyldisulfonate o-xylene clathrate"
_symmetry_cell_setting           triclinic
_symmetry_space_group_name_H-M   'P -1'
_symmetry_Int_Tables_number      2
_space_group_name_Hall           '-P 1'
loop_
_symmetry_equiv_pos_site_id
_symmetry_equiv_pos_as_xyz
1 x,y,z
2 -x,-y,-z
_cell_length_a                   9.1969(1)
_cell_length_b                   9.9280(2)
_cell_length_c                   14.2622(1)
_cell_angle_alpha                83.001(1)
_cell_angle_beta                 83.020(1)
_cell_angle_gamma                80.443(1)
_cell_volume                     1267.75
_exptl_crystal_colour            colorless
_exptl_crystal_description       block
_cell_formula_units_Z            2
loop_
_atom_site_label
_atom_site_type_symbol
_atom_site_fract_x
_atom_site_fract_y
_atom_site_fract_z
S1 S 0.2071(1) 0.0507(1) 0.8667(1)
O1 O 0.2065(2) 0.1619(1) 0.9244(1)
O2 O 0.3333(1) -0.0591(1) 0.8783(1)
O3 O 0.0668(1) -0.0030(1) 0.8789(1)
C1 C 0.2289(2) 0.1222(2) 0.7465(1)
C2 C 0.3505(2) 0.0732(2) 0.6863(1)
C3 C 0.3629(2) 0.1262(2) 0.5913(1)
C4 C 0.2537(2) 0.2272(2) 0.5544(1)
C5 C 0.1345(2) 0.2779(2) 0.6180(1)
C6 C 0.1215(2) 0.2263(2) 0.7125(1)
C7 C 0.2628(2) 0.2765(2) 0.4513(1)
C8 C 0.1361(2) 0.3412(2) 0.4096(1)
C9 C 0.1434(2) 0.3906(2) 0.3140(1)
C10 C 0.2785(2) 0.3751(2) 0.2583(1)
C11 C 0.4052(2) 0.3068(2) 0.2975(1)
C12 C 0.3967(2) 0.2591(2) 0.3931(1)
S2 S 0.2902(1) 0.4466(1) 0.1376(1)
O4 O 0.4295(1) 0.5019(1) 0.1203(1)
O5 O 0.2866(1) 0.3359(1) 0.0802(1)
O6 O 0.1617(1) 0.5546(1) 0.1302(1)
H1 H 0.4252(2) 0.0037(2) 0.7097(1)
H2 H 0.4474(2) 0.0930(2) 0.5505(1)
H3 H 0.0609(2) 0.3495(2) 0.5956(1)
H4 H 0.0393(2) 0.2618(2) 0.7543(1)
H5 H 0.0432(2) 0.3516(2) 0.4474(1)
H6 H 0.0563(2) 0.4348(2) 0.2868(1)
H7 H 0.4971(2) 0.2931(2) 0.2590(1)
H8 H 0.4839(2) 0.2134(2) 0.4196(1)
C13 C 0.6459(2) 0.1193(2) 0.8981(1)
N1 N 0.5256(2) 0.2136(2) 0.8979(1)
N2 N 0.6329(2) -0.0124(2) 0.8985(1)
N3 N 0.7777(2) 0.1575(2) 0.8953(1)
H9 H 0.5336(2) 0.3010(2) 0.8960(1)
H10 H 0.4377(2) 0.1887(2) 0.8997(1)
H11 H 0.7125(2) -0.0753(2) 0.8970(1)
H12 H 0.5446(2) -0.0365(2) 0.9004(1)
H13 H 0.7850(2) 0.2451(2) 0.8934(1)
H14 H 0.8580(2) 0.0954(2) 0.8954(1)
C14 C 0.8510(2) 0.3826(2) 0.0973(1)
N4 N 0.7199(2) 0.3455(2) 0.0955(1)
N5 N 0.9704(2) 0.2878(2) 0.1006(1)
N6 N 0.8641(2) 0.5142(2) 0.0982(1)
H15 H 0.7124(2) 0.2581(2) 0.0966(1)
H16 H 0.6402(2) 0.4081(2) 0.0933(1)
H17 H 0.9622(2) 0.2005(2) 0.1016(1)
H18 H 1.0579(2) 0.3119(2) 0.1018(1)
H19 H 0.7848(2) 0.5776(2) 0.0977(1)
H20 H 0.9519(2) 0.5377(2) 0.0994(1)
C15 C 0.8171(3) 0.2213(3) 0.3657(2)
C16 C 0.8291(2) 0.1271(3) 0.4452(2)
C17 C 0.7761(2) 0.1626(2) 0.5361(2)
C18 C 0.7081(2) 0.2988(2) 0.5464(2)
C19 C 0.6990(2) 0.3932(2) 0.4655(2)
C20 C 0.7525(3) 0.3554(3) 0.3760(2)
C21 C 0.7914(3) 0.0579(2) 0.6218(2)
C22 C 0.6458(3) 0.3408(3) 0.6428(2)
H21 H 0.8530(3) 0.1941(3) 0.3044(2)
H22 H 0.8749(2) 0.0354(3) 0.4377(2)
H23 H 0.6551(2) 0.4856(2) 0.4721(2)
H24 H 0.7449(3) 0.4213(3) 0.3219(2)
H25 H 0.8342(17) -0.0321(4) 0.6012(2)
H26 H 0.6935(3) 0.0527(12) 0.6567(7)
H27 H 0.8563(15) 0.0853(9) 0.6633(6)
H28 H 0.6028(17) 0.4382(5) 0.6368(2)
H29 H 0.7252(5) 0.3258(16) 0.6846(4)
H30 H 0.5687(13) 0.2857(12) 0.6697(5)
loop_
_geom_bond_atom_site_label_1
_geom_bond_atom_site_label_2
_geom_bond_site_symmetry_1
_geom_bond_site_symmetry_2
S1 O1 1_555 1_555
O2 S1 1_555 1_555
O3 S1 1_555 1_555
C1 S1 1_555 1_555
C2 C1 1_555 1_555
C3 C2 1_555 1_555
C4 C3 1_555 1_555
C5 C4 1_555 1_555
C6 C1 1_555 1_555
C7 C4 1_555 1_555
C8 C7 1_555 1_555
C9 C8 1_555 1_555
C10 C9 1_555 1_555
C11 C10 1_555 1_555
C12 C7 1_555 1_555
S2 C10 1_555 1_555
O4 S2 1_555 1_555
O5 S2 1_555 1_555
O6 S2 1_555 1_555
C13 N1 1_555 1_555
N1 H9 1_555 1_555
N2 C13 1_555 1_555
N3 C13 1_555 1_555
C14 N4 1_555 1_555
N4 H15 1_555 1_555
N5 C14 1_555 1_555
N6 C14 1_555 1_555
C15 C16 1_555 1_555
C16 C17 1_555 1_555
C17 C18 1_555 1_555
C18 C19 1_555 1_555
C19 C20 1_555 1_555
C20 C15 1_555 1_555
C21 C17 1_555 1_555
C22 C18 1_555 1_555
H1 C2 1_555 1_555
H2 C3 1_555 1_555
H3 C5 1_555 1_555
H4 C6 1_555 1_555
H5 C8 1_555 1_555
H6 C9 1_555 1_555
H7 C11 1_555 1_555
H8 C12 1_555 1_555
H10 N1 1_555 1_555
H11 N2 1_555 1_555
H12 N2 1_555 1_555
H13 N3 1_555 1_555
H14 N3 1_555 1_555
H16 N4 1_555 1_555
H17 N5 1_555 1_555
H18 N5 1_555 1_555
H19 N6 1_555 1_555
H20 N6 1_555 1_555
H21 C15 1_555 1_555
H22 C16 1_555 1_555
H23 C19 1_555 1_555
H24 C20 1_555 1_555
H25 C21 1_555 1_555
H26 C21 1_555 1_555
H27 C21 1_555 1_555
H28 C22 1_555 1_555
H29 C22 1_555 1_555
H30 C22 1_555 1_555
C5 C6 1_555 1_555
C11 C12 1_555 1_555

#END
