
#######################################################################
#
#                 Cambridge Crystallographic Data Centre
#                                CCDC 
#
#######################################################################
#
# If this CIF has been generated from an entry in the Cambridge 
# Structural Database, then it will include bibliographic, chemical, 
# crystal, experimental, refinement or atomic coordinate data resulting 
# from the CCDC's data processing and validation procedures.
#
#######################################################################

data_XARBUN
_chemical_name_common            
'(4-Formylphenyl)-alpha-nitronyl aminoxyl radical, (4-formylphenyl)-alpha-nitronyl nitroxide radical'
_chemical_formula_moiety         'C14 H17 N2 O3'
_chemical_name_systematic        
'2-(4-Formylphenyl)-4,4,5,5-tetramethyl-1,3-dioxyimidazoline radical'
_symmetry_cell_setting           triclinic
_symmetry_space_group_name_H-M   'P -1'
_symmetry_Int_Tables_number      2
_space_group_name_Hall           '-P 1'
loop_
_symmetry_equiv_pos_site_id
_symmetry_equiv_pos_as_xyz
1 x,y,z
2 -x,-y,-z
_cell_length_a                   7.860(2)
_cell_length_b                   12.660(4)
_cell_length_c                   7.375(2)
_cell_angle_alpha                103.40(4)
_cell_angle_beta                 105.37(3)
_cell_angle_gamma                93.61(3)
_cell_volume                     682.277
_cell_formula_units_Z            2
_exptl_crystal_recrystallization_method 'hexane/ethyl acetate'
loop_
_atom_site_label
_atom_site_type_symbol
_atom_site_fract_x
_atom_site_fract_y
_atom_site_fract_z
N1 N 0.5963(3) 0.7329(2) 0.2609(3)
N2 N 0.8162(3) 0.7155(2) 0.1357(3)
O1 O 0.8854(3) 0.1915(2) 0.3543(4)
O2 O 0.9502(3) 0.6793(2) 0.0858(3)
O3 O 0.4750(3) 0.7126(2) 0.3389(3)
C1 C 0.8353(4) 0.2689(2) 0.4428(5)
C2 C 0.8018(3) 0.3706(2) 0.3823(4)
C3 C 0.7411(4) 0.4528(2) 0.4958(4)
C4 C 0.7060(4) 0.5474(2) 0.4392(4)
C5 C 0.7396(3) 0.5629(2) 0.2720(4)
C6 C 0.8001(4) 0.4792(2) 0.1576(4)
C7 C 0.8310(4) 0.3854(2) 0.2114(4)
C8 C 0.7156(3) 0.6665(2) 0.2208(4)
C9 C 0.6314(4) 0.8430(2) 0.2255(4)
C10 C 0.7535(4) 0.8184(2) 0.0926(4)
C11 C 0.7234(5) 0.9197(2) 0.4261(5)
C12 C 0.4564(4) 0.8805(3) 0.1399(5)
C13 C 0.9126(4) 0.9033(3) 0.1384(5)
C14 C 0.6556(5) 0.7872(3) -0.1236(4)
H1 H 0.8158(4) 0.2645(2) 0.5600(5)
H2 H 0.7235(4) 0.4446(2) 0.6119(4)
H3 H 0.6595(4) 0.6012(2) 0.5140(4)
H4 H 0.8197(4) 0.4877(2) 0.0426(4)
H5 H 0.8723(4) 0.3303(2) 0.1333(4)
H6 H 0.8346(5) 0.8957(2) 0.4809(5)
H7 H 0.6485(5) 0.9186(2) 0.5097(5)
H8 H 0.7450(5) 0.9928(2) 0.4139(5)
H9 H 0.3983(4) 0.8323(3) 0.0139(5)
H10 H 0.4777(4) 0.9536(3) 0.1274(5)
H11 H 0.3819(4) 0.8795(3) 0.2238(5)
H12 H 0.9724(4) 0.9217(3) 0.2754(5)
H13 H 0.8740(4) 0.9677(3) 0.1017(5)
H14 H 0.9928(4) 0.8744(3) 0.0673(5)
H15 H 0.5551(5) 0.7330(3) -0.1495(4)
H16 H 0.7346(5) 0.7578(3) -0.1961(4)
H17 H 0.6154(5) 0.8509(3) -0.1619(4)
loop_
_geom_bond_atom_site_label_1
_geom_bond_atom_site_label_2
_geom_bond_site_symmetry_1
_geom_bond_site_symmetry_2
N1 O3 1_555 1_555
N2 O2 1_555 1_555
O1 C1 1_555 1_555
C1 C2 1_555 1_555
C2 C3 1_555 1_555
C3 C4 1_555 1_555
C4 C5 1_555 1_555
C5 C6 1_555 1_555
C6 C7 1_555 1_555
C7 C2 1_555 1_555
C8 N1 1_555 1_555
C9 N1 1_555 1_555
C10 N2 1_555 1_555
C11 C9 1_555 1_555
C12 C9 1_555 1_555
C13 C10 1_555 1_555
C14 C10 1_555 1_555
H1 C1 1_555 1_555
H2 C3 1_555 1_555
H3 C4 1_555 1_555
H4 C6 1_555 1_555
H5 C7 1_555 1_555
H6 C11 1_555 1_555
H7 C11 1_555 1_555
H8 C11 1_555 1_555
H9 C12 1_555 1_555
H10 C12 1_555 1_555
H11 C12 1_555 1_555
H12 C13 1_555 1_555
H13 C13 1_555 1_555
H14 C13 1_555 1_555
H15 C14 1_555 1_555
H16 C14 1_555 1_555
H17 C14 1_555 1_555
N2 C8 1_555 1_555
C5 C8 1_555 1_555
C9 C10 1_555 1_555

#END
