
#######################################################################
#
#                 Cambridge Crystallographic Data Centre
#                                CCDC 
#
#######################################################################
#
# If this CIF has been generated from an entry in the Cambridge 
# Structural Database, then it will include bibliographic, chemical, 
# crystal, experimental, refinement or atomic coordinate data resulting 
# from the CCDC's data processing and validation procedures.
#
#######################################################################

data_XARBAU
_chemical_formula_moiety         'C36 H39 N5 2+,2(C7 H7 O3 S1 1-),C1 H1 Cl3'
_chemical_name_systematic        
'20,21-Diethyl-15,16,25,26,30,31-hexamethyl-4,11,27-triaza-28,29-diazoniaheptacyclo(22.2.1.1^3,6^.1^9,12^.1^14,17^.1^19,22^.0^5,10^) henitriaconta-1,3(31),5,7,9,12(30),13,15,17(29),18,20,22(28),23,25-tetradecaene bis(p-toluenesulfonate) chloroform solvate'
_symmetry_cell_setting           triclinic
_symmetry_space_group_name_H-M   'P -1'
_symmetry_Int_Tables_number      2
_space_group_name_Hall           '-P 1'
loop_
_symmetry_equiv_pos_site_id
_symmetry_equiv_pos_as_xyz
1 x,y,z
2 -x,-y,-z
_cell_length_a                   10.2266(8)
_cell_length_b                   12.7492(10)
_cell_length_c                   19.9972(16)
_cell_angle_alpha                108.042(2)
_cell_angle_beta                 95.074(2)
_cell_angle_gamma                102.586(2)
_cell_volume                     2385.08
_exptl_crystal_colour            green
_exptl_crystal_description       plate
_cell_formula_units_Z            2
loop_
_atom_site_label
_atom_site_type_symbol
_atom_site_fract_x
_atom_site_fract_y
_atom_site_fract_z
Cl1 Cl 0.7067(2) 0.3633(2) 0.31697(11)
Cl2 Cl 0.9629(2) 0.33885(19) 0.27356(11)
Cl3 Cl 0.9234(2) 0.35897(18) 0.41778(10)
C51 C 0.8453(7) 0.3048(6) 0.3275(4)
H54 H 0.8113 0.2199 0.3126
S1 S 0.58578(18) 0.98825(16) 0.24142(9)
O1 O 0.5499(6) 0.8678(4) 0.2070(3)
O2 O 0.5490(6) 1.0131(6) 0.3112(3)
O3 O 0.7220(5) 1.0423(5) 0.2434(3)
C37 C 0.4036(8) 1.0583(7) 0.0801(4)
H40 H 0.4067 1.0419 0.0306
C38 C 0.4867(7) 1.0187(6) 0.1198(4)
H41 H 0.5459 0.9760 0.0975
C39 C 0.4837(6) 1.0413(5) 0.1921(3)
C40 C 0.3967(7) 1.1045(6) 0.2224(4)
H42 H 0.3927 1.1213 0.2718
C41 C 0.3157(7) 1.1434(6) 0.1818(5)
H43 H 0.2574 1.1871 0.2041
C42 C 0.3166(8) 1.1210(7) 0.1105(5)
C43 C 0.2296(7) 1.1620(7) 0.0642(5)
H44 H 0.1737 1.2051 0.0931
H45 H 0.1704 1.0962 0.0256
H46 H 0.2881 1.2115 0.0437
S2 S 0.30834(18) 0.52899(17) 0.19994(9)
O4 O 0.1649(4) 0.4987(4) 0.1738(2)
O5 O 0.3829(4) 0.4558(4) 0.1584(2)
O6 O 0.3732(4) 0.6507(4) 0.2122(2)
C44 C 0.2611(6) 0.5560(6) 0.4024(4)
H47 H 0.2211 0.6003 0.4382
C45 C 0.2606(6) 0.5739(6) 0.3380(3)
H48 H 0.2175 0.6284 0.3293
C46 C 0.3233(6) 0.5122(6) 0.2849(3)
C47 C 0.3846(7) 0.4348(6) 0.2991(4)
H49 H 0.4296 0.3940 0.2644
C48 C 0.3822(8) 0.4144(7) 0.3633(4)
H50 H 0.4240 0.3589 0.3717
C49 C 0.3190(7) 0.4748(6) 0.4156(4)
C50 C 0.3090(7) 0.4473(7) 0.4828(4)
H51 H 0.2621 0.4976 0.5135
H52 H 0.4005 0.4588 0.5079
H53 H 0.2579 0.3676 0.4710
N1 N 0.5912(6) 0.6554(5) 0.1268(3)
H1 H 0.5170 0.6731 0.1405
N2 N 0.6393(6) 0.7097(5) 0.2906(3)
H2 H 0.5617 0.7255 0.2809
N3 N 0.3688(5) 0.7318(4) 0.0713(3)
H3 H 0.4052 0.7389 0.1145
N4 N 0.4561(5) 0.8306(4) 0.3718(3)
H4 H 0.4734 0.8232 0.3284
N5 N 0.2378(5) 0.8308(4) 0.2283(3)
H5 H 0.3087 0.8020 0.2249
C1 C 0.9100(6) 0.5915(5) 0.1632(4)
H6 H 0.9754 0.5646 0.1363
C2 C 0.9293(6) 0.6138(6) 0.2350(3)
H7 H 1.0084 0.6025 0.2574
C3 C 0.8332(6) 0.6535(6) 0.2772(4)
C4 C 0.7149(7) 0.6679(6) 0.2424(4)
C5 C 0.6937(7) 0.6434(6) 0.1691(4)
C6 C 0.7914(6) 0.6084(5) 0.1274(3)
C7 C 0.8242(6) 0.6880(6) 0.3487(3)
C8 C 0.7026(7) 0.7236(6) 0.3572(3)
C9 C 0.9233(6) 0.6860(6) 0.4084(3)
H8 H 0.9984 0.6576 0.3889
H9 H 0.8769 0.6356 0.4322
H10 H 0.9589 0.7634 0.4429
C10 C 0.6489(6) 0.7660(6) 0.4180(3)
H11 H 0.6960 0.7662 0.4612
C11 C 0.5339(6) 0.8085(6) 0.4239(3)
C12 C 0.4692(7) 0.8322(5) 0.4859(3)
C13 C 0.3558(7) 0.8682(5) 0.4700(3)
C14 C 0.3492(7) 0.8655(6) 0.3984(4)
C15 C 0.5135(7) 0.8114(6) 0.5518(3)
H12 H 0.4545 0.8345 0.5867
H13 H 0.6076 0.8559 0.5717
H14 H 0.5078 0.7299 0.5409
C16 C 0.2573(6) 0.9003(6) 0.5177(3)
H15 H 0.2856 0.8944 0.5642
H16 H 0.1668 0.8488 0.4965
H17 H 0.2543 0.9791 0.5239
C17 C 0.2407(6) 0.8886(5) 0.3607(3)
H18 H 0.1848 0.9210 0.3923
C18 C 0.1930(6) 0.8778(6) 0.2917(3)
C19 C 0.0711(6) 0.9112(5) 0.2725(3)
C20 C 0.0479(6) 0.8837(6) 0.2008(4)
C21 C 0.1565(7) 0.8357(6) 0.1720(3)
C22 C -0.0700(6) 0.8970(6) 0.1559(4)
H19 H -0.0929 0.8337 0.1096
H20 H -0.1501 0.8902 0.1802
C23 C -0.0430(7) 1.0087(6) 0.1421(4)
H21 H -0.1235 1.0114 0.1128
H22 H 0.0346 1.0155 0.1168
H23 H -0.0225 1.0720 0.1875
C24 C -0.0093(7) 0.9686(7) 0.3249(4)
H24 H -0.0215 0.9296 0.3606
H25 H -0.1006 0.9597 0.2993
C25 C 0.0556(8) 1.0938(7) 0.3634(4)
H26 H -0.0019 1.1257 0.3968
H27 H 0.0655 1.1337 0.3287
H28 H 0.1453 1.1035 0.3899
C26 C 0.1648(6) 0.8035(6) 0.0998(3)
H29 H 0.0906 0.8152 0.0735
C27 C 0.2507(7) 0.7590(6) 0.0549(4)
C28 C 0.2313(7) 0.7367(6) -0.0217(3)
C29 C 0.3367(6) 0.6964(5) -0.0486(3)
C30 C 0.4233(6) 0.6912(5) 0.0097(3)
C31 C 0.1144(6) 0.7549(6) -0.0640(3)
H30 H 0.1247 0.7339 -0.1143
H31 H 0.1134 0.8354 -0.0458
H32 H 0.0289 0.7072 -0.0593
C32 C 0.3582(6) 0.6653(6) -0.1250(3)
H33 H 0.2838 0.6771 -0.1539
H34 H 0.3599 0.5849 -0.1430
H35 H 0.4448 0.7136 -0.1279
C33 C 0.5391(6) 0.6503(5) 0.0045(3)
H36 H 0.5653 0.6302 -0.0412
C34 C 0.6208(6) 0.6355(6) 0.0587(3)
C35 C 0.7467(6) 0.6026(5) 0.0586(3)
C36 C 0.8153(6) 0.5687(6) -0.0050(3)
H37 H 0.8998 0.5509 0.0091
H38 H 0.8360 0.6317 -0.0238
H39 H 0.7550 0.5012 -0.0419
loop_
_geom_bond_atom_site_label_1
_geom_bond_atom_site_label_2
_geom_bond_site_symmetry_1
_geom_bond_site_symmetry_2
Cl1 C51 1_555 1_555
Cl2 C51 1_555 1_555
Cl3 C51 1_555 1_555
S1 O1 1_555 1_555
S2 O4 1_555 1_555
O2 S1 1_555 1_555
O3 S1 1_555 1_555
O5 S2 1_555 1_555
O6 S2 1_555 1_555
N1 H1 1_555 1_555
N2 H2 1_555 1_555
N3 H3 1_555 1_555
N4 H4 1_555 1_555
N5 H5 1_555 1_555
C1 H6 1_555 1_555
C2 C1 1_555 1_555
H7 C2 1_555 1_555
C3 C2 1_555 1_555
C4 N2 1_555 1_555
C5 N1 1_555 1_555
C6 C1 1_555 1_555
C7 C3 1_555 1_555
C8 N2 1_555 1_555
C9 C7 1_555 1_555
H8 C9 1_555 1_555
H9 C9 1_555 1_555
H10 C9 1_555 1_555
C10 C8 1_555 1_555
H11 C10 1_555 1_555
C11 N4 1_555 1_555
C12 C11 1_555 1_555
C13 C12 1_555 1_555
C14 N4 1_555 1_555
C15 C12 1_555 1_555
H12 C15 1_555 1_555
H13 C15 1_555 1_555
H14 C15 1_555 1_555
C16 C13 1_555 1_555
H15 C16 1_555 1_555
H16 C16 1_555 1_555
H17 C16 1_555 1_555
C17 C14 1_555 1_555
H18 C17 1_555 1_555
C18 N5 1_555 1_555
C19 C18 1_555 1_555
C20 C19 1_555 1_555
C21 N5 1_555 1_555
C22 C20 1_555 1_555
H19 C22 1_555 1_555
H20 C22 1_555 1_555
C23 C22 1_555 1_555
H21 C23 1_555 1_555
H22 C23 1_555 1_555
H23 C23 1_555 1_555
C24 C19 1_555 1_555
H24 C24 1_555 1_555
H25 C24 1_555 1_555
C25 C24 1_555 1_555
H26 C25 1_555 1_555
H27 C25 1_555 1_555
H28 C25 1_555 1_555
C26 C21 1_555 1_555
H29 C26 1_555 1_555
C27 N3 1_555 1_555
C28 C27 1_555 1_555
C29 C28 1_555 1_555
C30 N3 1_555 1_555
C31 C28 1_555 1_555
H30 C31 1_555 1_555
H31 C31 1_555 1_555
H32 C31 1_555 1_555
C32 C29 1_555 1_555
H33 C32 1_555 1_555
H34 C32 1_555 1_555
H35 C32 1_555 1_555
C33 C30 1_555 1_555
H36 C33 1_555 1_555
C34 N1 1_555 1_555
C35 C6 1_555 1_555
C36 C35 1_555 1_555
H37 C36 1_555 1_555
H38 C36 1_555 1_555
H39 C36 1_555 1_555
C37 H40 1_555 1_555
C38 C37 1_555 1_555
H41 C38 1_555 1_555
C39 S1 1_555 1_555
C40 C39 1_555 1_555
H42 C40 1_555 1_555
C41 C40 1_555 1_555
H43 C41 1_555 1_555
C42 C37 1_555 1_555
C43 C42 1_555 1_555
H44 C43 1_555 1_555
H45 C43 1_555 1_555
H46 C43 1_555 1_555
C44 H47 1_555 1_555
C45 C44 1_555 1_555
H48 C45 1_555 1_555
C46 S2 1_555 1_555
C47 C46 1_555 1_555
H49 C47 1_555 1_555
C48 C47 1_555 1_555
H50 C48 1_555 1_555
C49 C44 1_555 1_555
C50 C49 1_555 1_555
H51 C50 1_555 1_555
H52 C50 1_555 1_555
H53 C50 1_555 1_555
C51 H54 1_555 1_555
C3 C4 1_555 1_555
C4 C5 1_555 1_555
C5 C6 1_555 1_555
C7 C8 1_555 1_555
C10 C11 1_555 1_555
C13 C14 1_555 1_555
C17 C18 1_555 1_555
C20 C21 1_555 1_555
C26 C27 1_555 1_555
C29 C30 1_555 1_555
C33 C34 1_555 1_555
C34 C35 1_555 1_555
C38 C39 1_555 1_555
C41 C42 1_555 1_555
C45 C46 1_555 1_555
C48 C49 1_555 1_555

#END
