
#######################################################################
#
#                 Cambridge Crystallographic Data Centre
#                                CCDC 
#
#######################################################################
#
# If this CIF has been generated from an entry in the Cambridge 
# Structural Database, then it will include bibliographic, chemical, 
# crystal, experimental, refinement or atomic coordinate data resulting 
# from the CCDC's data processing and validation procedures.
#
#######################################################################

data_XARGEE
_chemical_formula_moiety         'C22 H23 N3 O1 S1'
_chemical_name_systematic        
2-(Adamantan-1-yl)-5-(2-(2-methylphenyl)-1,3-thiazol-4-yl)-1,3,4-oxadiazole
_chemical_properties_biological  'anti-HIV-1 and HIV-2 activity'
_symmetry_cell_setting           monoclinic
_symmetry_space_group_name_H-M   'P 21/c'
_symmetry_Int_Tables_number      14
_space_group_name_Hall           '-P 2ybc'
loop_
_symmetry_equiv_pos_site_id
_symmetry_equiv_pos_as_xyz
1 x,y,z
2 -x,1/2+y,1/2-z
3 -x,-y,-z
4 x,1/2-y,1/2+z
_cell_length_a                   16.8868(5)
_cell_length_b                   9.5584(3)
_cell_length_c                   12.3345(4)
_cell_angle_alpha                90
_cell_angle_beta                 109.184(4)
_cell_angle_gamma                90
_cell_volume                     1880.36
_exptl_crystal_colour            colorless
_exptl_crystal_description       block
_cell_formula_units_Z            4
loop_
_atom_site_label
_atom_site_type_symbol
_atom_site_fract_x
_atom_site_fract_y
_atom_site_fract_z
S1 S 0.277501(14) 0.34837(2) 0.129561(18)
O1 O 0.05313(4) 0.35274(7) 0.25414(5)
N1 N 0.05935(5) 0.33644(9) 0.43516(7)
N2 N 0.14213(5) 0.33961(9) 0.43127(7)
N3 N 0.28146(5) 0.36904(8) 0.33906(7)
C1 C 0.01000(6) 0.34468(9) 0.33049(8)
C2 C 0.13448(6) 0.34892(9) 0.32384(8)
C3 C -0.08302(5) 0.34799(9) 0.28410(7)
C4 C -0.11949(6) 0.33857(9) 0.38294(8)
H1 H -0.1011 0.2504 0.4260
H2 H -0.0988 0.4178 0.4365
C5 C -0.21540(6) 0.34278(9) 0.33377(8)
H3 H -0.2391 0.3366 0.3981
C6 C -0.24733(6) 0.21937(10) 0.25209(8)
H4 H -0.3093 0.2212 0.2213
H5 H -0.2298 0.1303 0.2941
C7 C -0.21154(6) 0.22848(10) 0.15304(8)
H6 H -0.2325 0.1479 0.0995
C8 C -0.23881(6) 0.36648(10) 0.08777(8)
H7 H -0.2153 0.3727 0.0242
H8 H -0.3007 0.3696 0.0544
C9 C -0.20775(6) 0.49009(9) 0.16982(8)
H9 H -0.2264 0.5797 0.1272
C10 C -0.11178(5) 0.48681(9) 0.21853(8)
H10 H -0.0913 0.5669 0.2712
H11 H -0.0881 0.4947 0.1553
C11 C -0.11558(6) 0.22404(9) 0.20148(7)
H12 H -0.0921 0.2292 0.1379
H13 H -0.0972 0.1349 0.2429
C12 C -0.24377(6) 0.47979(10) 0.26850(8)
H14 H -0.2241 0.5600 0.3213
H15 H -0.3058 0.4830 0.2376
C13 C 0.19933(6) 0.35312(9) 0.27076(7)
C14 C 0.18473(6) 0.34076(9) 0.15557(8)
H16 H 0.1312 0.3296 0.0989
C15 C 0.32980(6) 0.37102(9) 0.27534(8)
C16 C 0.42094(5) 0.39548(10) 0.31868(8)
C17 C 0.47357(6) 0.32345(10) 0.41471(8)
C18 C 0.55816(6) 0.35979(11) 0.45420(9)
H17 H 0.5947 0.3126 0.5192
C19 C 0.59065(6) 0.46263(12) 0.40154(9)
H18 H 0.6484 0.4865 0.4314
C20 C 0.53851(6) 0.53039(12) 0.30520(9)
H19 H 0.5605 0.5994 0.2676
C21 C 0.45412(6) 0.49670(11) 0.26420(8)
H20 H 0.4183 0.5431 0.1981
C22 C 0.44174(7) 0.20979(11) 0.47402(9)
H21 H 0.4893 0.1626 0.5299
H22 H 0.4095 0.1418 0.4171
H23 H 0.4057 0.2509 0.5137
loop_
_geom_bond_atom_site_label_1
_geom_bond_atom_site_label_2
_geom_bond_site_symmetry_1
_geom_bond_site_symmetry_2
S1 C14 1_555 1_555
O1 C1 1_555 1_555
N1 N2 1_555 1_555
N2 C2 1_555 1_555
N3 C13 1_555 1_555
C1 N1 1_555 1_555
C2 O1 1_555 1_555
C3 C1 1_555 1_555
C4 C3 1_555 1_555
H1 C4 1_555 1_555
H2 C4 1_555 1_555
C5 C4 1_555 1_555
H3 C5 1_555 1_555
C6 C5 1_555 1_555
H4 C6 1_555 1_555
H5 C6 1_555 1_555
C7 C6 1_555 1_555
H6 C7 1_555 1_555
C8 C7 1_555 1_555
H7 C8 1_555 1_555
H8 C8 1_555 1_555
C9 C8 1_555 1_555
H9 C9 1_555 1_555
C10 C3 1_555 1_555
H10 C10 1_555 1_555
H11 C10 1_555 1_555
C11 C3 1_555 1_555
H12 C11 1_555 1_555
H13 C11 1_555 1_555
C12 C5 1_555 1_555
H14 C12 1_555 1_555
H15 C12 1_555 1_555
C13 C2 1_555 1_555
C14 C13 1_555 1_555
H16 C14 1_555 1_555
C15 S1 1_555 1_555
C16 C15 1_555 1_555
C17 C16 1_555 1_555
C18 C17 1_555 1_555
H17 C18 1_555 1_555
C19 C18 1_555 1_555
H18 C19 1_555 1_555
C20 C19 1_555 1_555
H19 C20 1_555 1_555
C21 C16 1_555 1_555
H20 C21 1_555 1_555
C22 C17 1_555 1_555
H21 C22 1_555 1_555
H22 C22 1_555 1_555
H23 C22 1_555 1_555
N3 C15 1_555 1_555
C7 C11 1_555 1_555
C9 C10 1_555 1_555
C9 C12 1_555 1_555
C20 C21 1_555 1_555

#END
