
#######################################################################
#
#                 Cambridge Crystallographic Data Centre
#                                CCDC 
#
#######################################################################
#
# If this CIF has been generated from an entry in the Cambridge 
# Structural Database, then it will include bibliographic, chemical, 
# crystal, experimental, refinement or atomic coordinate data resulting 
# from the CCDC's data processing and validation procedures.
#
#######################################################################

data_XARHEG
_chemical_formula_moiety         'C26 H14 Br2 O1'
_chemical_name_systematic        
2,7-dibromo-10'H-spiro[fluorene-9,9'-phenanthren]-10'-one
_symmetry_cell_setting           monoclinic
_symmetry_space_group_name_H-M   'P 21/c'
_symmetry_Int_Tables_number      14
_space_group_name_Hall           '-P 2ybc'
loop_
_symmetry_equiv_pos_site_id
_symmetry_equiv_pos_as_xyz
1 x,y,z
2 -x,1/2+y,1/2-z
3 -x,-y,-z
4 x,1/2-y,1/2+z
_cell_length_a                   17.5110(10)
_cell_length_b                   8.9191(7)
_cell_length_c                   25.2761(15)
_cell_angle_alpha                90
_cell_angle_beta                 92.179(2)
_cell_angle_gamma                90
_cell_volume                     3944.83
_exptl_crystal_colour            colorless
_exptl_crystal_description       prism
_cell_formula_units_Z            8
loop_
_atom_site_label
_atom_site_type_symbol
_atom_site_fract_x
_atom_site_fract_y
_atom_site_fract_z
Br1 Br 0.58632(2) 0.45391(3) 0.53916(2)
Br2 Br 1.17959(2) 0.52190(3) 0.62371(2)
O1 O 0.88959(10) 0.17311(18) 0.55147(6)
C1 C 0.87687(13) 0.3717(2) 0.61400(9)
C2 C 0.89106(13) 0.2074(2) 0.59816(9)
C3 C 0.91023(12) 0.0977(3) 0.64026(9)
C4 C 0.93583(13) -0.0449(3) 0.62497(10)
H1 H 0.9399 -0.0677 0.5885
C5 C 0.95512(15) -0.1518(3) 0.66266(10)
H2 H 0.9726 -0.2479 0.6523
C6 C 0.94871(16) -0.1173(3) 0.71570(11)
H3 H 0.9623 -0.1903 0.7418
C7 C 0.92282(16) 0.0221(3) 0.73140(10)
H4 H 0.9186 0.0429 0.7680
C8 C 0.90270(13) 0.1329(3) 0.69407(9)
C9 C 0.87267(13) 0.2809(3) 0.70961(9)
C10 C 0.85475(15) 0.3109(3) 0.76247(10)
H5 H 0.8625 0.2351 0.7885
C11 C 0.82627(16) 0.4481(3) 0.77695(10)
H6 H 0.8144 0.4656 0.8128
C12 C 0.81468(16) 0.5607(3) 0.74001(10)
H7 H 0.7955 0.6555 0.7503
C13 C 0.83150(14) 0.5335(3) 0.68758(10)
H8 H 0.8236 0.6103 0.6619
C14 C 0.85986(13) 0.3944(3) 0.67232(9)
C15 C 0.81596(13) 0.4414(2) 0.57728(9)
C16 C 0.73893(13) 0.4104(3) 0.57548(9)
H9 H 0.7181 0.3371 0.5981
C17 C 0.69262(13) 0.4903(3) 0.53939(9)
C18 C 0.72257(14) 0.5961(3) 0.50532(9)
H10 H 0.6899 0.6465 0.4802
C19 C 0.80014(14) 0.6276(3) 0.50815(9)
H11 H 0.8210 0.7007 0.4855
C20 C 0.84714(13) 0.5506(3) 0.54469(9)
C21 C 0.92914(13) 0.5620(2) 0.55759(9)
C22 C 0.98559(13) 0.6525(3) 0.53700(9)
H12 H 0.9732 0.7227 0.5097
C23 C 1.06016(14) 0.6384(3) 0.55690(10)
H13 H 1.0994 0.6990 0.5432
C24 C 1.07723(13) 0.5356(3) 0.59686(10)
C25 C 1.02210(13) 0.4439(3) 0.61843(9)
H14 H 1.0348 0.3738 0.6457
C26 C 0.94788(13) 0.4597(2) 0.59830(9)
Br3 Br 0.11825(2) 0.06102(3) 0.58188(2)
Br4 Br 0.72200(2) -0.00951(3) 0.61494(2)
O2 O 0.44110(9) 0.33247(19) 0.57462(6)
C27 C 0.42160(12) 0.1372(2) 0.63726(9)
C28 C 0.42082(12) 0.3019(3) 0.61883(9)
C29 C 0.38932(13) 0.4159(3) 0.65432(9)
C30 C 0.37581(14) 0.5601(3) 0.63376(10)
H15 H 0.3881 0.5825 0.5983
C31 C 0.34463(15) 0.6697(3) 0.66509(11)
H16 H 0.3355 0.7674 0.6513
C32 C 0.32685(15) 0.6360(3) 0.71668(11)
H17 H 0.3054 0.7111 0.7382
C33 C 0.34006(15) 0.4940(3) 0.73721(10)
H18 H 0.3269 0.4728 0.7725
C34 C 0.37253(13) 0.3811(3) 0.70678(9)
C35 C 0.39221(13) 0.2317(3) 0.72944(9)
C36 C 0.38903(15) 0.2040(3) 0.78410(10)
H19 H 0.3728 0.2818 0.8068
C37 C 0.40892(15) 0.0663(3) 0.80551(10)
H20 H 0.4060 0.0497 0.8425
C38 C 0.43320(14) -0.0476(3) 0.77287(10)
H21 H 0.4465 -0.1427 0.7874
C39 C 0.43804(13) -0.0223(3) 0.71900(9)
H22 H 0.4554 -0.1003 0.6968
C40 C 0.41770(13) 0.1161(3) 0.69691(9)
C41 C 0.35281(13) 0.0666(2) 0.60646(9)
C42 C 0.27603(13) 0.0989(3) 0.61086(9)
H23 H 0.2590 0.1693 0.6361
C43 C 0.22452(13) 0.0234(3) 0.57650(9)
C44 C 0.24804(14) -0.0779(3) 0.53878(9)
H24 H 0.2115 -0.1262 0.5158
C45 C 0.32557(14) -0.1082(3) 0.53493(10)
H25 H 0.3425 -0.1773 0.5093
C46 C 0.37807(14) -0.0363(3) 0.56894(9)
C47 C 0.46145(13) -0.0465(3) 0.57357(9)
C48 C 0.51275(14) -0.1339(3) 0.54643(10)
H26 H 0.4950 -0.2014 0.5196
C49 C 0.59027(14) -0.1209(3) 0.55918(10)
H27 H 0.6262 -0.1797 0.5411
C50 C 0.61495(13) -0.0219(3) 0.59844(10)
C51 C 0.56498(13) 0.0679(3) 0.62596(9)
H28 H 0.5831 0.1360 0.6525
C52 C 0.48773(13) 0.0537(2) 0.61306(9)
loop_
_geom_bond_atom_site_label_1
_geom_bond_atom_site_label_2
_geom_bond_site_symmetry_1
_geom_bond_site_symmetry_2
Br1 C17 1_555 1_555
Br2 C24 1_555 1_555
O1 C2 1_555 1_555
C1 C2 1_555 1_555
C2 C3 1_555 1_555
C3 C4 1_555 1_555
C4 H1 1_555 1_555
C5 C4 1_555 1_555
H2 C5 1_555 1_555
C6 C5 1_555 1_555
H3 C6 1_555 1_555
C7 C6 1_555 1_555
H4 C7 1_555 1_555
C8 C3 1_555 1_555
C9 C8 1_555 1_555
C10 C9 1_555 1_555
H5 C10 1_555 1_555
C11 C10 1_555 1_555
H6 C11 1_555 1_555
C12 C11 1_555 1_555
H7 C12 1_555 1_555
C13 C12 1_555 1_555
H8 C13 1_555 1_555
C14 C1 1_555 1_555
C15 C1 1_555 1_555
C16 C15 1_555 1_555
H9 C16 1_555 1_555
C17 C16 1_555 1_555
C18 C17 1_555 1_555
H10 C18 1_555 1_555
C19 C18 1_555 1_555
H11 C19 1_555 1_555
C20 C15 1_555 1_555
C21 C20 1_555 1_555
C22 C21 1_555 1_555
H12 C22 1_555 1_555
C23 C22 1_555 1_555
H13 C23 1_555 1_555
C24 C23 1_555 1_555
C25 C24 1_555 1_555
H14 C25 1_555 1_555
C26 C1 1_555 1_555
Br3 C43 1_555 1_555
Br4 C50 1_555 1_555
O2 C28 1_555 1_555
C27 C28 1_555 1_555
C28 C29 1_555 1_555
C29 C30 1_555 1_555
C30 H15 1_555 1_555
C31 C30 1_555 1_555
H16 C31 1_555 1_555
C32 C31 1_555 1_555
H17 C32 1_555 1_555
C33 C32 1_555 1_555
H18 C33 1_555 1_555
C34 C29 1_555 1_555
C35 C34 1_555 1_555
C36 C35 1_555 1_555
H19 C36 1_555 1_555
C37 C36 1_555 1_555
H20 C37 1_555 1_555
C38 C37 1_555 1_555
H21 C38 1_555 1_555
C39 C38 1_555 1_555
H22 C39 1_555 1_555
C40 C27 1_555 1_555
C41 C27 1_555 1_555
C42 C41 1_555 1_555
H23 C42 1_555 1_555
C43 C42 1_555 1_555
C44 C43 1_555 1_555
H24 C44 1_555 1_555
C45 C44 1_555 1_555
H25 C45 1_555 1_555
C46 C41 1_555 1_555
C47 C46 1_555 1_555
C48 C47 1_555 1_555
H26 C48 1_555 1_555
C49 C48 1_555 1_555
H27 C49 1_555 1_555
C50 C49 1_555 1_555
C51 C50 1_555 1_555
H28 C51 1_555 1_555
C52 C27 1_555 1_555
C7 C8 1_555 1_555
C9 C14 1_555 1_555
C13 C14 1_555 1_555
C19 C20 1_555 1_555
C21 C26 1_555 1_555
C25 C26 1_555 1_555
C33 C34 1_555 1_555
C35 C40 1_555 1_555
C39 C40 1_555 1_555
C45 C46 1_555 1_555
C47 C52 1_555 1_555
C51 C52 1_555 1_555

#END
