
#######################################################################
#
#                 Cambridge Crystallographic Data Centre
#                                CCDC 
#
#######################################################################
#
# If this CIF has been generated from an entry in the Cambridge 
# Structural Database, then it will include bibliographic, chemical, 
# crystal, experimental, refinement or atomic coordinate data resulting 
# from the CCDC's data processing and validation procedures.
#
#######################################################################

data_XARREN
_chemical_formula_moiety         'C19 H15 N1 O4'
_chemical_name_systematic        
'(E)-p-Nitrobenzyl 6-phenylhex-5-yn-3(E)-enoate'
_symmetry_cell_setting           monoclinic
_symmetry_space_group_name_H-M   'P 21/a'
_symmetry_Int_Tables_number      14
_space_group_name_Hall           '-P 2yab'
loop_
_symmetry_equiv_pos_site_id
_symmetry_equiv_pos_as_xyz
1 x,y,z
2 1/2-x,1/2+y,-z
3 -x,-y,-z
4 1/2+x,1/2-y,z
_cell_length_a                   9.133(2)
_cell_length_b                   17.467(2)
_cell_length_c                   10.186(2)
_cell_angle_alpha                90
_cell_angle_beta                 92.36(1)
_cell_angle_gamma                90
_cell_volume                     1623.55
_exptl_crystal_colour            yellow
_exptl_crystal_description       prismatic
_cell_formula_units_Z            4
_exptl_crystal_recrystallization_method 'petroleum ether/ethyl acetate'
loop_
_atom_site_label
_atom_site_type_symbol
_atom_site_fract_x
_atom_site_fract_y
_atom_site_fract_z
O1 O -0.0850(3) 0.8027(2) 0.5639(3)
O2 O 0.0998(2) 0.8783(1) 0.5162(2)
O3 O 0.7979(3) 0.9378(2) 0.3255(4)
O4 O 0.7497(3) 0.8758(2) 0.1463(4)
N1 N 0.7181(4) 0.8989(2) 0.2537(5)
C1 C -0.0233(4) 0.8618(2) 0.5775(4)
C2 C -0.0688(4) 0.9261(2) 0.6630(4)
C3 C -0.2092(4) 0.9083(2) 0.7272(4)
C4 C -0.3127(4) 0.9557(2) 0.7500(3)
C5 C -0.4495(4) 0.9350(2) 0.8029(3)
C6 C -0.5654(4) 0.9161(2) 0.8423(3)
C7 C -0.7024(3) 0.8874(2) 0.8875(3)
C8 C -0.7869(4) 0.9314(2) 0.9689(3)
C9 C -0.9164(4) 0.9015(2) 1.0146(4)
C10 C -0.9604(4) 0.8296(2) 0.9803(4)
C11 C -0.8778(4) 0.7861(2) 0.8979(4)
C12 C -0.7492(4) 0.8148(2) 0.8525(4)
C13 C 0.1538(4) 0.8186(2) 0.4324(4)
C14 C 0.3005(4) 0.8423(2) 0.3866(4)
C15 C 0.4000(4) 0.8804(2) 0.4672(4)
C16 C 0.5370(4) 0.8996(2) 0.4248(4)
C17 C 0.5717(4) 0.8790(2) 0.2999(4)
C18 C 0.4758(4) 0.8410(2) 0.2177(4)
C19 C 0.3399(4) 0.8221(2) 0.2616(4)
H1 H 0.0099 0.9338 0.7246
H2 H -0.0802 0.9703 0.6104
H3 H -0.2251 0.8550 0.7395
H4 H -0.3023 1.0057 0.7163
H5 H -0.7480 0.9819 0.9960
H6 H -0.9775 0.9363 1.0748
H7 H -1.0404 0.8088 1.0077
H8 H -0.9077 0.7370 0.8729
H9 H -0.6866 0.7859 0.7909
H10 H 0.1666 0.7712 0.4875
H11 H 0.0842 0.8045 0.3681
H12 H 0.3742 0.8947 0.5527
H13 H 0.6073 0.9226 0.4811
H14 H 0.5087 0.8265 0.1349
H15 H 0.2720 0.7984 0.2005
loop_
_geom_bond_atom_site_label_1
_geom_bond_atom_site_label_2
_geom_bond_site_symmetry_1
_geom_bond_site_symmetry_2
O1 C1 1_555 1_555
O2 C1 1_555 1_555
O3 N1 1_555 1_555
O4 N1 1_555 1_555
N1 C17 1_555 1_555
C1 C2 1_555 1_555
C2 C3 1_555 1_555
C3 C4 1_555 1_555
C4 C5 1_555 1_555
C5 C6 1_555 1_555
C6 C7 1_555 1_555
C7 C8 1_555 1_555
C8 C9 1_555 1_555
C9 C10 1_555 1_555
C10 C11 1_555 1_555
C11 C12 1_555 1_555
C12 C7 1_555 1_555
C13 O2 1_555 1_555
C14 C13 1_555 1_555
C15 C14 1_555 1_555
C16 C15 1_555 1_555
C17 C16 1_555 1_555
C18 C17 1_555 1_555
C19 C14 1_555 1_555
H1 C2 1_555 1_555
H2 C2 1_555 1_555
H3 C3 1_555 1_555
H4 C4 1_555 1_555
H5 C8 1_555 1_555
H6 C9 1_555 1_555
H7 C10 1_555 1_555
H8 C11 1_555 1_555
H9 C12 1_555 1_555
H10 C13 1_555 1_555
H11 C13 1_555 1_555
H12 C15 1_555 1_555
H13 C16 1_555 1_555
H14 C18 1_555 1_555
H15 C19 1_555 1_555
C18 C19 1_555 1_555

#END
