
#######################################################################
#
#                 Cambridge Crystallographic Data Centre
#                                CCDC 
#
#######################################################################
#
# If this CIF has been generated from an entry in the Cambridge 
# Structural Database, then it will include bibliographic, chemical, 
# crystal, experimental, refinement or atomic coordinate data resulting 
# from the CCDC's data processing and validation procedures.
#
#######################################################################

data_XARVAN
_chemical_formula_moiety         'C102 H36 O14,6(C1 H1 Cl3)'
_chemical_name_systematic        
"out,out-(+-)-1,2:67,68-(Dibenzo-18-crown-6-3,3'-diyl-bis(methoxycarbonyl(ethoxycarbonyl)methylene))C70fullerene chloroform solvate"
_symmetry_cell_setting           monoclinic
_symmetry_space_group_name_H-M   'P 21/n'
_symmetry_Int_Tables_number      14
_space_group_name_Hall           '-P 2yn'
loop_
_symmetry_equiv_pos_site_id
_symmetry_equiv_pos_as_xyz
1 x,y,z
2 1/2-x,1/2+y,1/2-z
3 -x,-y,-z
4 1/2+x,1/2-y,1/2+z
_cell_length_a                   14.395(4)
_cell_length_b                   33.405(9)
_cell_length_c                   19.277(6)
_cell_angle_alpha                90
_cell_angle_beta                 108.67(2)
_cell_angle_gamma                90
_cell_volume                     8781.85
_exptl_crystal_colour            black
_cell_formula_units_Z            4
loop_
_atom_site_label
_atom_site_type_symbol
_atom_site_fract_x
_atom_site_fract_y
_atom_site_fract_z
C1 C 1.0155(4) 0.0839(2) 0.4575(3)
C2 C 1.0478(5) 0.1196(2) 0.4145(3)
C3 C 1.0773(5) 0.1574(2) 0.4569(3)
C4 C 1.0688(5) 0.1633(2) 0.5250(4)
C5 C 1.0396(4) 0.1307(2) 0.5640(3)
C6 C 1.0203(4) 0.0934(2) 0.5345(3)
C7 C 1.0578(4) 0.05890(19) 0.5793(3)
C8 C 1.0891(4) 0.03039(19) 0.5369(3)
C9 C 1.0718(4) 0.04591(19) 0.4643(3)
C10 C 1.1405(4) 0.03989(19) 0.4303(3)
C11 C 1.1693(5) 0.0720(2) 0.3910(3)
C12 C 1.1295(5) 0.1100(2) 0.3863(3)
C13 C 1.1933(5) 0.1439(2) 0.3985(3)
C14 C 1.1618(5) 0.1730(2) 0.4406(4)
C15 C 1.2311(5) 0.1967(2) 0.4926(4)
C16 C 1.2202(5) 0.2035(2) 0.5625(4)
C17 C 1.1414(5) 0.1867(2) 0.5791(4)
C18 C 1.1556(5) 0.1693(2) 0.6508(3)
C19 C 1.0947(4) 0.1348(2) 0.6417(3)
C20 C 1.1230(4) 0.1015(2) 0.6880(3)
C21 C 1.1038(4) 0.0619(2) 0.6559(3)
C22 C 1.1674(5) 0.0301(2) 0.6890(3)
C23 C 1.1988(5) 0.0013(2) 0.6476(3)
C24 C 1.1676(5) 0.00366(19) 0.5697(4)
C25 C 1.2386(5) -0.00389(19) 0.5321(4)
C26 C 1.2258(5) 0.0158(2) 0.4649(3)
C27 C 1.3065(5) 0.0322(2) 0.4481(4)
C28 C 1.2742(5) 0.0672(2) 0.4034(3)
C29 C 1.3338(5) 0.1001(2) 0.4114(3)
C30 C 1.2946(5) 0.1388(2) 0.4091(3)
C31 C 1.3654(5) 0.1634(2) 0.4634(4)
C32 C 1.3344(5) 0.1911(2) 0.5032(4)
C33 C 1.3873(5) 0.1953(2) 0.5812(4)
C34 C 1.3170(5) 0.20262(19) 0.6179(4)
C35 C 1.3316(5) 0.18803(19) 0.6892(3)
C36 C 1.2488(5) 0.1713(2) 0.7070(3)
C37 C 1.2672(4) 0.1413(2) 0.7616(3)
C38 C 1.2063(4) 0.1070(2) 0.7524(3)
C39 C 1.2653(4) 0.0736(2) 0.7883(3)
C40 C 1.2463(5) 0.0358(2) 0.7580(3)
C41 C 1.3267(5) 0.0104(2) 0.7577(3)
C42 C 1.2980(5) -0.0107(2) 0.6888(4)
C43 C 1.3653(5) -0.0182(2) 0.6533(4)
C44 C 1.3365(5) -0.0135(2) 0.5751(4)
C45 C 1.4169(5) 0.0032(2) 0.5577(4)
C46 C 1.4034(5) 0.0299(2) 0.4981(4)
C47 C 1.4670(5) 0.0649(3) 0.5077(4)
C48 C 1.4308(5) 0.1000(2) 0.4661(4)
C49 C 1.4489(5) 0.1385(2) 0.4969(4)
C50 C 1.5063(5) 0.1440(2) 0.5716(4)
C51 C 1.4732(5) 0.1732(2) 0.6148(4)
C52 C 1.4966(4) 0.1663(2) 0.6915(3)
C53 C 1.4259(5) 0.17379(19) 0.7276(3)
C54 C 1.4439(4) 0.14648(19) 0.7883(3)
C55 C 1.3666(4) 0.1297(2) 0.8042(3)
C56 C 1.3652(4) 0.0874(2) 0.8214(3)
C57 C 1.4424(5) 0.0623(2) 0.8230(3)
C58 C 1.4224(5) 0.0239(2) 0.7881(3)
C59 C 1.4935(5) 0.0166(2) 0.7512(4)
C60 C 1.4656(5) -0.0046(2) 0.6855(4)
C61 C 1.4971(5) 0.0092(2) 0.6261(4)
C62 C 1.5559(5) 0.0424(2) 0.6352(4)
C63 C 1.5400(5) 0.0714(2) 0.5772(4)
C64 C 1.5583(5) 0.1102(2) 0.6079(4)
C65 C 1.5879(4) 0.1060(2) 0.6876(3)
C66 C 1.5594(4) 0.1342(2) 0.7276(3)
C67 C 1.5368(5) 0.1243(2) 0.7956(3)
C68 C 1.5361(5) 0.0779(2) 0.8149(3)
C69 C 1.5580(4) 0.0501(2) 0.7619(3)
C70 C 1.5872(4) 0.0640(2) 0.7045(4)
C71 C 0.9452(5) 0.1022(2) 0.3896(3)
C72 C 0.9164(5) 0.0795(2) 0.3180(4)
O1 O 0.9633(4) 0.05328(17) 0.3038(2)
O2 O 0.8329(4) 0.09412(15) 0.2733(2)
C73 C 0.7991(6) 0.0769(3) 0.2001(4)
H1 H 0.7976 0.0482 0.2030
H2 H 0.8422 0.0844 0.1733
C74 C 0.6984(9) 0.0929(4) 0.1637(6)
H3 H 0.6728 0.0823 0.1149
H4 H 0.6565 0.0852 0.1913
H5 H 0.7013 0.1215 0.1616
C75 C 0.8634(5) 0.1271(3) 0.4010(3)
O3 O 0.8577(4) 0.16265(18) 0.3951(3)
O4 O 0.8000(3) 0.10338(14) 0.4182(2)
C76 C 0.7266(5) 0.1233(2) 0.4451(4)
H6 H 0.6689 0.1071 0.4355
H7 H 0.7086 0.1485 0.4204
C77 C 0.7714(5) 0.1304(2) 0.5249(4)
C78 C 0.7780(5) 0.0993(2) 0.5736(4)
H8 H 0.7471 0.0743 0.5557
C79 C 0.8290(5) 0.1036(2) 0.6477(4)
H9 H 0.8335 0.0818 0.6812
C80 C 0.8740(5) 0.1396(2) 0.6733(4)
C81 C 0.8657(5) 0.1720(2) 0.6248(4)
C82 C 0.8152(5) 0.1670(2) 0.5517(4)
H10 H 0.8097 0.1890 0.5185
O5 O 0.9109(4) 0.20621(15) 0.6572(3)
C83 C 0.9160(6) 0.2395(2) 0.6120(4)
H11 H 0.8519 0.2458 0.5793
H12 H 0.9575 0.2330 0.5833
C84 C 0.9588(7) 0.2738(3) 0.6609(5)
H13 H 0.9212 0.2777 0.6935
H14 H 0.9524 0.2976 0.6317
O6 O 1.0563(4) 0.26929(17) 0.7027(3)
C85 C 1.0740(6) 0.2457(3) 0.7684(4)
H15 H 1.0632 0.2178 0.7565
H16 H 1.0310 0.2540 0.7948
C86 C 1.1765(6) 0.2522(2) 0.8130(4)
H17 H 1.1853 0.2790 0.8319
H18 H 1.2188 0.2480 0.7840
O7 O 1.1972(4) 0.22410(15) 0.8715(3)
C87 C 1.2941(5) 0.2156(2) 0.9081(4)
C88 C 1.3106(5) 0.1803(2) 0.9490(4)
O8 O 1.2285(3) 0.15985(15) 0.9501(3)
C89 C 1.2400(5) 0.1201(2) 0.9788(4)
H19 H 1.2820 0.1201 1.0288
H20 H 1.2692 0.1034 0.9508
C90 C 1.1407(5) 0.1041(2) 0.9734(4)
H21 H 1.1078 0.1239 0.9932
H22 H 1.1482 0.0805 1.0032
O9 O 1.0803(4) 0.09485(16) 0.9013(3)
C91 C 1.0395(5) 0.1283(2) 0.8569(4)
H23 H 1.0892 0.1419 0.8427
H24 H 1.0118 0.1466 0.8832
C92 C 0.9617(5) 0.1132(2) 0.7904(4)
H25 H 0.9087 0.1019 0.8040
H26 H 0.9880 0.0930 0.7666
O10 O 0.9296(4) 0.14695(15) 0.7446(3)
C93 C 1.4056(5) 0.1678(2) 0.9841(3)
H27 H 1.4174 0.1432 1.0113
C94 C 1.4846(5) 0.1910(2) 0.9801(3)
C95 C 1.4660(6) 0.2264(2) 0.9410(4)
H28 H 1.5199 0.2425 0.9382
C96 C 1.3703(5) 0.2388(2) 0.9053(4)
H29 H 1.3583 0.2637 0.8794
C97 C 1.5875(5) 0.1757(2) 1.0108(4)
H30 H 1.5910 0.1564 1.0484
H31 H 1.6319 0.1972 1.0316
O11 O 1.6139(3) 0.15674(15) 0.9512(2)
C98 C 1.5873(5) 0.1187(2) 0.9360(3)
O12 O 1.5553(4) 0.09697(15) 0.9716(2)
C99 C 1.6058(5) 0.1070(2) 0.8653(3)
C100 C 1.7133(5) 0.1030(2) 0.8747(4)
O13 O 1.7628(3) 0.0963(2) 0.9429(3)
O14 O 1.7482(4) 0.1038(2) 0.8269(3)
C101 C 1.8692(6) 0.0911(4) 0.9601(5)
H32 H 1.8823 0.0680 0.9334
H33 H 1.8971 0.1149 0.9446
C102 C 1.9093(10) 0.0858(8) 1.0284(10)
H34 H 1.9791 0.0832 1.0405
H35 H 1.8945 0.1086 1.0535
H36 H 1.8830 0.0621 1.0430
Cl1 Cl 0.29476(18) 0.00660(9) 0.09027(12)
Cl2 Cl 0.2706(3) 0.00335(10) -0.06248(13)
Cl3 Cl 0.4423(2) 0.03873(8) 0.03543(19)
C103 C 0.3548(6) 0.0013(3) 0.0261(4)
H37 H 0.3871 -0.0243 0.0330
Cl4 Cl 0.79045(18) 0.00724(8) 0.74723(14)
Cl5 Cl 0.8720(3) -0.06524(9) 0.81564(19)
Cl6 Cl 0.9907(2) 0.00703(9) 0.83897(17)
C104 C 0.8985(6) -0.0208(3) 0.7795(5)
H38 H 0.9190 -0.0274 0.7381
Cl7 Cl 0.9924(5) 0.22607(15) 0.2722(3)
Cl8 Cl 0.8360(5) 0.19304(19) 0.1492(7)
Cl9 Cl 1.0082(3) 0.15098(11) 0.2100(2)
C105 C 0.9487(15) 0.1920(6) 0.210(2)
H39 H 0.9763 0.2053 0.1751
Cl10 Cl 0.2987(3) 0.14221(16) 0.2082(3)
Cl11 Cl 0.4844(3) 0.14753(15) 0.31341(19)
Cl12 Cl 0.4404(6) 0.0949(2) 0.1831(3)
C106 C 0.3971(13) 0.1155(5) 0.2464(8)
H40 H 0.3792 0.0939 0.2726
Cl13 Cl 0.5981(2) 0.22531(9) 0.4925(2)
Cl14 Cl 0.4626(3) 0.28888(12) 0.4816(3)
Cl15 Cl 0.6571(4) 0.29448(18) 0.5817(3)
C107 C 0.5818(7) 0.2758(3) 0.4964(6)
H41 H 0.6026 0.2881 0.4588
Cl16 Cl 0.2050(3) 0.29237(11) 0.35577(17)
Cl17 Cl 0.2030(3) 0.28265(15) 0.2057(2)
Cl18 Cl 0.3159(4) 0.23117(14) 0.3152(3)
C108 C 0.2778(11) 0.2797(4) 0.2960(6)
H42 H 0.3331 0.2973 0.3046
loop_
_geom_bond_atom_site_label_1
_geom_bond_atom_site_label_2
_geom_bond_site_symmetry_1
_geom_bond_site_symmetry_2
C1 C2 1_555 1_555
C2 C3 1_555 1_555
C3 C4 1_555 1_555
C4 C5 1_555 1_555
C5 C6 1_555 1_555
C6 C1 1_555 1_555
C7 C6 1_555 1_555
C8 C7 1_555 1_555
C9 C1 1_555 1_555
C10 C9 1_555 1_555
C11 C10 1_555 1_555
C12 C2 1_555 1_555
C13 C12 1_555 1_555
C14 C3 1_555 1_555
C15 C14 1_555 1_555
C16 C15 1_555 1_555
C17 C4 1_555 1_555
C18 C17 1_555 1_555
C19 C5 1_555 1_555
C20 C19 1_555 1_555
C21 C7 1_555 1_555
C22 C21 1_555 1_555
C23 C22 1_555 1_555
C24 C8 1_555 1_555
C25 C24 1_555 1_555
C26 C10 1_555 1_555
C27 C26 1_555 1_555
C28 C11 1_555 1_555
C29 C28 1_555 1_555
C30 C13 1_555 1_555
C31 C30 1_555 1_555
C32 C15 1_555 1_555
C33 C32 1_555 1_555
C34 C16 1_555 1_555
C35 C34 1_555 1_555
C36 C18 1_555 1_555
C37 C36 1_555 1_555
C38 C20 1_555 1_555
C39 C38 1_555 1_555
C40 C22 1_555 1_555
C41 C40 1_555 1_555
C42 C23 1_555 1_555
C43 C42 1_555 1_555
C44 C25 1_555 1_555
C45 C44 1_555 1_555
C46 C27 1_555 1_555
C47 C46 1_555 1_555
C48 C29 1_555 1_555
C49 C31 1_555 1_555
C50 C49 1_555 1_555
C51 C33 1_555 1_555
C52 C51 1_555 1_555
C53 C35 1_555 1_555
C54 C53 1_555 1_555
C55 C37 1_555 1_555
C56 C39 1_555 1_555
C57 C56 1_555 1_555
C58 C41 1_555 1_555
C59 C58 1_555 1_555
C60 C43 1_555 1_555
C61 C45 1_555 1_555
C62 C61 1_555 1_555
C63 C47 1_555 1_555
C64 C50 1_555 1_555
C65 C64 1_555 1_555
C66 C52 1_555 1_555
C67 C54 1_555 1_555
C68 C57 1_555 1_555
C69 C59 1_555 1_555
C70 C62 1_555 1_555
C71 C1 1_555 1_555
C72 C71 1_555 1_555
O1 C72 1_555 1_555
O2 C72 1_555 1_555
C73 O2 1_555 1_555
H1 C73 1_555 1_555
H2 C73 1_555 1_555
C74 C73 1_555 1_555
H3 C74 1_555 1_555
H4 C74 1_555 1_555
H5 C74 1_555 1_555
C75 C71 1_555 1_555
O3 C75 1_555 1_555
O4 C75 1_555 1_555
C76 O4 1_555 1_555
H6 C76 1_555 1_555
H7 C76 1_555 1_555
C77 C76 1_555 1_555
C78 C77 1_555 1_555
H8 C78 1_555 1_555
C79 C78 1_555 1_555
H9 C79 1_555 1_555
C80 C79 1_555 1_555
C81 C80 1_555 1_555
C82 C77 1_555 1_555
H10 C82 1_555 1_555
O5 C81 1_555 1_555
C83 O5 1_555 1_555
H11 C83 1_555 1_555
H12 C83 1_555 1_555
C84 C83 1_555 1_555
H13 C84 1_555 1_555
H14 C84 1_555 1_555
O6 C84 1_555 1_555
C85 O6 1_555 1_555
H15 C85 1_555 1_555
H16 C85 1_555 1_555
C86 C85 1_555 1_555
H17 C86 1_555 1_555
H18 C86 1_555 1_555
O7 C86 1_555 1_555
C87 O7 1_555 1_555
C88 C87 1_555 1_555
O8 C88 1_555 1_555
C89 O8 1_555 1_555
H19 C89 1_555 1_555
H20 C89 1_555 1_555
C90 C89 1_555 1_555
H21 C90 1_555 1_555
H22 C90 1_555 1_555
O9 C90 1_555 1_555
C91 O9 1_555 1_555
H23 C91 1_555 1_555
H24 C91 1_555 1_555
C92 C91 1_555 1_555
H25 C92 1_555 1_555
H26 C92 1_555 1_555
O10 C80 1_555 1_555
C93 C88 1_555 1_555
H27 C93 1_555 1_555
C94 C93 1_555 1_555
C95 C94 1_555 1_555
H28 C95 1_555 1_555
C96 C87 1_555 1_555
H29 C96 1_555 1_555
C97 C94 1_555 1_555
H30 C97 1_555 1_555
H31 C97 1_555 1_555
O11 C97 1_555 1_555
C98 O11 1_555 1_555
O12 C98 1_555 1_555
C99 C67 1_555 1_555
C100 C99 1_555 1_555
O13 C100 1_555 1_555
O14 C100 1_555 1_555
C101 O13 1_555 1_555
H32 C101 1_555 1_555
H33 C101 1_555 1_555
C102 C101 1_555 1_555
H34 C102 1_555 1_555
H35 C102 1_555 1_555
H36 C102 1_555 1_555
Cl1 C103 1_555 1_555
Cl2 C103 1_555 1_555
Cl3 C103 1_555 1_555
C103 H37 1_555 1_555
Cl4 C104 1_555 1_555
Cl5 C104 1_555 1_555
Cl6 C104 1_555 1_555
C104 H38 1_555 1_555
Cl7 C105 1_555 1_555
Cl8 C105 1_555 1_555
Cl9 C105 1_555 1_555
C105 H39 1_555 1_555
Cl10 C106 1_555 1_555
Cl11 C106 1_555 1_555
Cl12 C106 1_555 1_555
C106 H40 1_555 1_555
Cl13 C107 1_555 1_555
Cl14 C107 1_555 1_555
Cl15 C107 1_555 1_555
C107 H41 1_555 1_555
Cl16 C108 1_555 1_555
Cl17 C108 1_555 1_555
Cl18 C108 1_555 1_555
C108 H42 1_555 1_555
C2 C71 1_555 1_555
C8 C9 1_555 1_555
C11 C12 1_555 1_555
C13 C14 1_555 1_555
C16 C17 1_555 1_555
C18 C19 1_555 1_555
C20 C21 1_555 1_555
C23 C24 1_555 1_555
C25 C26 1_555 1_555
C27 C28 1_555 1_555
C29 C30 1_555 1_555
C31 C32 1_555 1_555
C33 C34 1_555 1_555
C35 C36 1_555 1_555
C37 C38 1_555 1_555
C39 C40 1_555 1_555
C41 C42 1_555 1_555
C43 C44 1_555 1_555
C45 C46 1_555 1_555
C47 C48 1_555 1_555
C48 C49 1_555 1_555
C50 C51 1_555 1_555
C52 C53 1_555 1_555
C54 C55 1_555 1_555
C55 C56 1_555 1_555
C57 C58 1_555 1_555
C59 C60 1_555 1_555
C60 C61 1_555 1_555
C62 C63 1_555 1_555
C63 C64 1_555 1_555
C65 C66 1_555 1_555
C65 C70 1_555 1_555
C66 C67 1_555 1_555
C67 C68 1_555 1_555
C68 C69 1_555 1_555
C68 C99 1_555 1_555
C69 C70 1_555 1_555
C81 C82 1_555 1_555
C92 O10 1_555 1_555
C95 C96 1_555 1_555
C98 C99 1_555 1_555

#END
