
#######################################################################
#
#                 Cambridge Crystallographic Data Centre
#                                CCDC 
#
#######################################################################
#
# If this CIF has been generated from an entry in the Cambridge 
# Structural Database, then it will include bibliographic, chemical, 
# crystal, experimental, refinement or atomic coordinate data resulting 
# from the CCDC's data processing and validation procedures.
#
#######################################################################

data_XASBIF
_chemical_formula_moiety         'C42 H26'
_chemical_name_systematic        
2,6-diphenyl-9,10-bis(phenylethynyl)anthracene
_symmetry_cell_setting           monoclinic
_symmetry_space_group_name_H-M   'P 21/c'
_symmetry_Int_Tables_number      14
_space_group_name_Hall           '-P 2ybc'
loop_
_symmetry_equiv_pos_site_id
_symmetry_equiv_pos_as_xyz
1 x,y,z
2 -x,1/2+y,1/2-z
3 -x,-y,-z
4 x,1/2-y,1/2+z
_cell_length_a                   17.727(13)
_cell_length_b                   3.932(3)
_cell_length_c                   20.797(15)
_cell_angle_alpha                90
_cell_angle_beta                 111.119(16)
_cell_angle_gamma                90
_cell_volume                     1352.24
_exptl_crystal_colour            red
_exptl_crystal_description       Prism
_cell_formula_units_Z            2
_exptl_crystal_preparation       Fiber
loop_
_atom_site_label
_atom_site_type_symbol
_atom_site_fract_x
_atom_site_fract_y
_atom_site_fract_z
C1 C 0.12854(12) 0.2500(6) -0.13451(10)
H1 H 0.1496 0.1357 -0.1646
C2 C 0.04591(13) 0.3030(6) -0.15471(12)
H2 H 0.0107 0.2253 -0.1985
C3 C 0.01453(13) 0.4695(6) -0.11105(12)
H3 H -0.0422 0.5021 -0.1245
C4 C 0.06621(13) 0.5877(6) -0.04798(12)
H4 H 0.0447 0.7052 -0.0185
C5 C 0.14920(12) 0.5373(6) -0.02701(10)
H5 H 0.1840 0.6206 0.0164
C6 C 0.18133(11) 0.3637(5) -0.06998(10)
C7 C 0.26668(12) 0.2917(5) -0.04724(9)
C8 C 0.33689(12) 0.2170(5) -0.02890(10)
C9 C 0.41936(11) 0.1122(5) -0.01339(9)
C10 C 0.48041(11) 0.1801(5) 0.05134(10)
C11 C 0.46451(12) 0.3611(5) 0.10472(10)
H6 H 0.4111 0.4359 0.0974
C12 C 0.52510(12) 0.4280(5) 0.16613(10)
H7 H 0.5127 0.5463 0.2009
C13 C 0.60666(11) 0.3251(5) 0.17957(10)
C14 C 0.62267(11) 0.1459(5) 0.12945(10)
H8 H 0.6763 0.0700 0.1382
C15 C 0.56155(11) 0.0695(5) 0.06466(9)
C16 C 0.67418(12) 0.4147(5) 0.24457(10)
C17 C 0.75276(12) 0.4601(6) 0.24479(10)
H9 H 0.7622 0.4355 0.2029
C18 C 0.81700(12) 0.5397(6) 0.30450(11)
H10 H 0.8698 0.5660 0.3033
C19 C 0.80414(13) 0.5811(6) 0.36611(11)
H11 H 0.8479 0.6344 0.4073
C20 C 0.72664(13) 0.5437(6) 0.36667(11)
H12 H 0.7174 0.5753 0.4085
C21 C 0.66245(12) 0.4605(6) 0.30699(10)
H13 H 0.6099 0.4344 0.3085
C1B C 0.87146(12) -0.2500(6) 0.13451(10)
H1B H 0.8504 -0.1357 0.1646
C2B C 0.95409(13) -0.3030(6) 0.15471(12)
H2B H 0.9893 -0.2253 0.1985
C3B C 0.98547(13) -0.4695(6) 0.11105(12)
H3B H 1.0422 -0.5021 0.1245
C4B C 0.93379(13) -0.5877(6) 0.04798(12)
H4B H 0.9553 -0.7052 0.0185
C5B C 0.85080(12) -0.5373(6) 0.02701(10)
H5B H 0.8160 -0.6206 -0.0164
C6B C 0.81867(11) -0.3637(5) 0.06998(10)
C7B C 0.73332(12) -0.2917(5) 0.04724(9)
C8B C 0.66311(12) -0.2170(5) 0.02890(10)
C9B C 0.58064(11) -0.1122(5) 0.01339(9)
C10B C 0.51959(11) -0.1801(5) -0.05134(10)
C11B C 0.53549(12) -0.3611(5) -0.10472(10)
H6B H 0.5889 -0.4359 -0.0974
C12B C 0.47490(12) -0.4280(5) -0.16613(10)
H7B H 0.4873 -0.5463 -0.2009
C13B C 0.39334(11) -0.3251(5) -0.17957(10)
C14B C 0.37733(11) -0.1459(5) -0.12945(10)
H8B H 0.3237 -0.0700 -0.1382
C15B C 0.43845(11) -0.0695(5) -0.06466(9)
C16B C 0.32582(12) -0.4147(5) -0.24457(10)
C17B C 0.24724(12) -0.4601(6) -0.24479(10)
H9B H 0.2378 -0.4355 -0.2029
C18B C 0.18300(12) -0.5397(6) -0.30450(11)
H10B H 0.1302 -0.5660 -0.3033
C19B C 0.19586(13) -0.5811(6) -0.36611(11)
H11B H 0.1521 -0.6344 -0.4073
C20B C 0.27336(13) -0.5437(6) -0.36667(11)
H12B H 0.2826 -0.5753 -0.4085
C21B C 0.33755(12) -0.4605(6) -0.30699(10)
H13B H 0.3901 -0.4344 -0.3085
loop_
_geom_bond_atom_site_label_1
_geom_bond_atom_site_label_2
_geom_bond_site_symmetry_1
_geom_bond_site_symmetry_2
C1 H1 1_555 1_555
C2 C1 1_555 1_555
H2 C2 1_555 1_555
C3 C2 1_555 1_555
H3 C3 1_555 1_555
C4 C3 1_555 1_555
H4 C4 1_555 1_555
C5 C4 1_555 1_555
H5 C5 1_555 1_555
C6 C1 1_555 1_555
C7 C6 1_555 1_555
C8 C7 1_555 1_555
C9 C8 1_555 1_555
C10 C9 1_555 1_555
C11 C10 1_555 1_555
H6 C11 1_555 1_555
C12 C11 1_555 1_555
H7 C12 1_555 1_555
C13 C12 1_555 1_555
C14 C13 1_555 1_555
H8 C14 1_555 1_555
C15 C10 1_555 1_555
C16 C13 1_555 1_555
C17 C16 1_555 1_555
H9 C17 1_555 1_555
C18 C17 1_555 1_555
H10 C18 1_555 1_555
C19 C18 1_555 1_555
H11 C19 1_555 1_555
C20 C19 1_555 1_555
H12 C20 1_555 1_555
C21 C16 1_555 1_555
H13 C21 1_555 1_555
C1B H1B 1_555 1_555
C2B C1B 1_555 1_555
H2B C2B 1_555 1_555
C3B C2B 1_555 1_555
H3B C3B 1_555 1_555
C4B C3B 1_555 1_555
H4B C4B 1_555 1_555
C5B C4B 1_555 1_555
H5B C5B 1_555 1_555
C6B C1B 1_555 1_555
C7B C6B 1_555 1_555
C8B C7B 1_555 1_555
C9B C15 1_555 1_555
C10B C9B 1_555 1_555
C11B C10B 1_555 1_555
H6B C11B 1_555 1_555
C12B C11B 1_555 1_555
H7B C12B 1_555 1_555
C13B C12B 1_555 1_555
C14B C13B 1_555 1_555
H8B C14B 1_555 1_555
C15B C9 1_555 1_555
C16B C13B 1_555 1_555
C17B C16B 1_555 1_555
H9B C17B 1_555 1_555
C18B C17B 1_555 1_555
H10B C18B 1_555 1_555
C19B C18B 1_555 1_555
H11B C19B 1_555 1_555
C20B C19B 1_555 1_555
H12B C20B 1_555 1_555
C21B C16B 1_555 1_555
H13B C21B 1_555 1_555
C5 C6 1_555 1_555
C14 C15 1_555 1_555
C20 C21 1_555 1_555
C5B C6B 1_555 1_555
C8B C9B 1_555 1_555
C10B C15B 1_555 1_555
C14B C15B 1_555 1_555
C20B C21B 1_555 1_555

#END
