
#######################################################################
#
#                 Cambridge Crystallographic Data Centre
#                                CCDC 
#
#######################################################################
#
# If this CIF has been generated from an entry in the Cambridge 
# Structural Database, then it will include bibliographic, chemical, 
# crystal, experimental, refinement or atomic coordinate data resulting 
# from the CCDC's data processing and validation procedures.
#
#######################################################################

data_XASFUV
_chemical_formula_moiety         'C32 H40 O5'
_chemical_name_systematic        
'diethyl 7,9-di-t-butyl-8-oxo-4-(2-phenylethenyl)spiro[4.5]deca-2,6,9-triene-1,1-dicarboxylate'
_symmetry_cell_setting           monoclinic
_symmetry_space_group_name_H-M   'P 21/c'
_symmetry_Int_Tables_number      14
_space_group_name_Hall           '-P 2ybc'
loop_
_symmetry_equiv_pos_site_id
_symmetry_equiv_pos_as_xyz
1 x,y,z
2 -x,1/2+y,1/2-z
3 -x,-y,-z
4 x,1/2-y,1/2+z
_cell_length_a                   12.654(3)
_cell_length_b                   21.405(5)
_cell_length_c                   11.307(3)
_cell_angle_alpha                90
_cell_angle_beta                 97.659(4)
_cell_angle_gamma                90
_cell_volume                     3035.28
_exptl_crystal_description       block
_cell_formula_units_Z            4
loop_
_atom_site_label
_atom_site_type_symbol
_atom_site_fract_x
_atom_site_fract_y
_atom_site_fract_z
C1 C 0.1600(3) -0.17162(15) 0.2725(3)
H1 H 0.1614 -0.1583 0.1944
C2 C 0.0793(3) -0.21073(17) 0.2976(4)
H2 H 0.0278 -0.2242 0.2365
C3 C 0.0749(3) -0.22975(17) 0.4122(5)
H3 H 0.0197 -0.2554 0.4297
C4 C 0.1514(4) -0.21108(19) 0.4999(4)
H4 H 0.1489 -0.2242 0.5779
C5 C 0.2332(3) -0.17267(16) 0.4751(3)
H5 H 0.2856 -0.1607 0.5364
C6 C 0.2383(2) -0.15188(12) 0.3607(2)
C7 C 0.3260(2) -0.11051(12) 0.3385(2)
H6 H 0.3836 -0.1084 0.3987
C8 C 0.3327(2) -0.07605(11) 0.2438(2)
H7 H 0.2773 -0.0796 0.1813
C9 C 0.42064(19) -0.03174(10) 0.2265(2)
H8 H 0.4479 -0.0428 0.1521
C10 C 0.51294(19) -0.02779(12) 0.3232(2)
H9 H 0.5427 -0.0623 0.3651
C11 C 0.54763(19) 0.02954(12) 0.3429(2)
H10 H 0.6033 0.0404 0.4016
C12 C 0.48718(18) 0.07556(11) 0.2599(2)
C13 C 0.38087(18) 0.03813(10) 0.21624(18)
C14 C 0.30740(18) 0.04840(11) 0.3081(2)
H11 H 0.3298 0.0337 0.3847
C15 C 0.21379(19) 0.07641(11) 0.2899(2)
C16 C 0.1777(2) 0.10122(14) 0.1683(2)
C17 C 0.23624(19) 0.08220(11) 0.0684(2)
C18 C 0.32939(19) 0.05373(11) 0.0938(2)
H12 H 0.3653 0.0427 0.0303
C19 C 0.1426(2) 0.08539(14) 0.3880(2)
C20 C 0.1368(4) 0.1542(2) 0.4177(5)
H13 H 0.2074 0.1699 0.4424
H14 H 0.1051 0.1767 0.3485
H15 H 0.0943 0.1597 0.4812
C21 C 0.0325(3) 0.0594(3) 0.3489(4)
H16 H 0.0377 0.0158 0.3304
H17 H -0.0106 0.0645 0.4120
H18 H 0.0003 0.0814 0.2793
C22 C 0.1864(3) 0.0499(2) 0.5005(3)
H19 H 0.1904 0.0062 0.4826
H20 H 0.2564 0.0652 0.5297
H21 H 0.1402 0.0559 0.5603
C23 C 0.1892(2) 0.09882(13) -0.0596(2)
C24 C 0.0769(3) 0.0723(2) -0.0884(4)
H22 H 0.0330 0.0881 -0.0322
H23 H 0.0474 0.0845 -0.1676
H24 H 0.0797 0.0275 -0.0835
C25 C 0.1864(3) 0.16989(16) -0.0739(3)
H25 H 0.2573 0.1863 -0.0556
H26 H 0.1584 0.1804 -0.1545
H27 H 0.1416 0.1876 -0.0204
C26 C 0.2585(4) 0.0736(2) -0.1491(3)
H28 H 0.3293 0.0902 -0.1313
H29 H 0.2611 0.0288 -0.1441
H30 H 0.2288 0.0858 -0.2282
C27 C 0.4625(2) 0.13678(11) 0.3194(2)
C28 C 0.3923(3) 0.23823(14) 0.2777(3)
H31 H 0.3248 0.2519 0.2349
H32 H 0.3857 0.2371 0.3621
C29 C 0.5573(2) 0.08991(12) 0.1626(2)
C30 C 0.7001(3) 0.15503(19) 0.1171(4)
H33 H 0.6642 0.1527 0.0358
H34 H 0.7200 0.1982 0.1340
C31 C 0.7927(5) 0.1170(3) 0.1290(7)
H35 H 0.8397 0.1311 0.0745
H36 H 0.8284 0.1198 0.2092
H37 H 0.7727 0.0744 0.1112
O1 O 0.1021(2) 0.13639(16) 0.1514(2)
O2 O 0.47956(18) 0.14707(9) 0.42403(17)
O3 O 0.41767(16) 0.17654(8) 0.23782(16)
O4 O 0.55463(17) 0.06411(11) 0.06969(18)
O5 O 0.62735(16) 0.13357(10) 0.20069(19)
C32 C 0.4746(10) 0.2812(4) 0.2570(12)
H38 H 0.4574 0.3221 0.2837
H39 H 0.5413 0.2678 0.3002
H40 H 0.4805 0.2825 0.1733
H41? H 0.3276 0.2367 0.3149
H42? H 0.4497 0.2533 0.3362
C33? C 0.3784(12) 0.2784(4) 0.1801(9)
H43? H 0.3616 0.3195 0.2061
H44? H 0.4429 0.2800 0.1441
H45? H 0.3212 0.2634 0.1228
loop_
_geom_bond_atom_site_label_1
_geom_bond_atom_site_label_2
_geom_bond_site_symmetry_1
_geom_bond_site_symmetry_2
C1 H1 1_555 1_555
C2 C1 1_555 1_555
H2 C2 1_555 1_555
C3 C2 1_555 1_555
H3 C3 1_555 1_555
C4 C3 1_555 1_555
H4 C4 1_555 1_555
C5 C4 1_555 1_555
H5 C5 1_555 1_555
C6 C1 1_555 1_555
C7 C6 1_555 1_555
H6 C7 1_555 1_555
C8 C7 1_555 1_555
H7 C8 1_555 1_555
C9 C8 1_555 1_555
H8 C9 1_555 1_555
C10 C9 1_555 1_555
H9 C10 1_555 1_555
C11 C10 1_555 1_555
H10 C11 1_555 1_555
C12 C11 1_555 1_555
C13 C9 1_555 1_555
C14 C13 1_555 1_555
H11 C14 1_555 1_555
C15 C14 1_555 1_555
C16 C15 1_555 1_555
C17 C16 1_555 1_555
C18 C13 1_555 1_555
H12 C18 1_555 1_555
C19 C15 1_555 1_555
C20 C19 1_555 1_555
H13 C20 1_555 1_555
H14 C20 1_555 1_555
H15 C20 1_555 1_555
C21 C19 1_555 1_555
H16 C21 1_555 1_555
H17 C21 1_555 1_555
H18 C21 1_555 1_555
C22 C19 1_555 1_555
H19 C22 1_555 1_555
H20 C22 1_555 1_555
H21 C22 1_555 1_555
C23 C17 1_555 1_555
C24 C23 1_555 1_555
H22 C24 1_555 1_555
H23 C24 1_555 1_555
H24 C24 1_555 1_555
C25 C23 1_555 1_555
H25 C25 1_555 1_555
H26 C25 1_555 1_555
H27 C25 1_555 1_555
C26 C23 1_555 1_555
H28 C26 1_555 1_555
H29 C26 1_555 1_555
H30 C26 1_555 1_555
C27 C12 1_555 1_555
C28 H31 1_555 1_555
H32 C28 1_555 1_555
C29 C12 1_555 1_555
C30 H33 1_555 1_555
H34 C30 1_555 1_555
C31 C30 1_555 1_555
H35 C31 1_555 1_555
H36 C31 1_555 1_555
H37 C31 1_555 1_555
O1 C16 1_555 1_555
O2 C27 1_555 1_555
O3 C27 1_555 1_555
O4 C29 1_555 1_555
O5 C29 1_555 1_555
C32 C28 1_555 1_555
H38 C32 1_555 1_555
H39 C32 1_555 1_555
H40 C32 1_555 1_555
C5 C6 1_555 1_555
C12 C13 1_555 1_555
C17 C18 1_555 1_555
C28 O3 1_555 1_555
C30 O5 1_555 1_555

#END
