
#######################################################################
#
#                 Cambridge Crystallographic Data Centre
#                                CCDC 
#
#######################################################################
#
# If this CIF has been generated from an entry in the Cambridge 
# Structural Database, then it will include bibliographic, chemical, 
# crystal, experimental, refinement or atomic coordinate data resulting 
# from the CCDC's data processing and validation procedures.
#
#######################################################################

data_XASGEG
_chemical_formula_moiety         'C11 H14 Br1 F1 O2'
_chemical_name_systematic        
3-bromo-2-(4-fluoro-3,5-dimethylphenyl)propane-1,2-diol
_symmetry_cell_setting           orthorhombic
_symmetry_space_group_name_H-M   'P 21 21 21'
_symmetry_Int_Tables_number      19
_space_group_name_Hall           'P 2ac 2ab'
loop_
_symmetry_equiv_pos_site_id
_symmetry_equiv_pos_as_xyz
1 x,y,z
2 1/2-x,-y,1/2+z
3 -x,1/2+y,1/2-z
4 1/2+x,1/2-y,-z
_cell_length_a                   5.651(2)
_cell_length_b                   16.364(7)
_cell_length_c                   38.4918(16)
_cell_angle_alpha                90
_cell_angle_beta                 90
_cell_angle_gamma                90
_cell_volume                     3559.45
_exptl_crystal_colour            colorless
_exptl_crystal_description       rod
_cell_formula_units_Z            12
loop_
_atom_site_label
_atom_site_type_symbol
_atom_site_fract_x
_atom_site_fract_y
_atom_site_fract_z
Br1 Br 0.87275(17) 0.77379(6) 0.43743(2)
F1 F 0.8201(11) 0.9018(3) 0.28377(14)
O1 O 1.0369(10) 0.6131(3) 0.39013(15)
H1 H 0.8996 0.6229 0.3956
O2 O 1.5303(10) 0.6108(3) 0.40187(15)
H2 H 1.4613 0.5667 0.4027
C1 C 1.1660(14) 0.6879(4) 0.38763(19)
C2 C 1.1777(14) 0.7290(5) 0.42310(19)
H3 H 1.2935 0.7727 0.4223
H4 H 1.2300 0.6894 0.4402
C3 C 1.4174(15) 0.6623(5) 0.3771(2)
H5 H 1.4102 0.6339 0.3550
H6 H 1.5127 0.7110 0.3739
C4 C 1.0727(15) 0.7442(5) 0.35938(18)
C5 C 0.9044(14) 0.7187(5) 0.33519(19)
H7 H 0.8499 0.6652 0.3362
C6 C 0.8137(15) 0.7711(6) 0.3094(2)
C7 C 0.9049(18) 0.8487(5) 0.3089(2)
C8 C 1.0755(18) 0.8786(5) 0.3313(2)
C9 C 1.1566(16) 0.8250(5) 0.3567(2)
H8 H 1.2700 0.8431 0.3724
C10 C 0.6150(16) 0.7450(6) 0.2855(2)
H9 H 0.6078 0.6864 0.2846
H10 H 0.6435 0.7659 0.2625
H11 H 0.4676 0.7660 0.2940
C11 C 1.171(2) 0.9641(5) 0.3287(2)
H12 H 1.0444 1.0025 0.3315
H13 H 1.2429 0.9717 0.3063
H14 H 1.2875 0.9726 0.3465
Br2 Br 0.56368(17) 0.48144(7) 0.26780(2)
F2 F 0.5611(12) 0.0957(3) 0.31300(15)
O3 O 0.7254(10) 0.4708(3) 0.34941(13)
H15 H 0.5876 0.4745 0.3430
O4 O 1.2206(10) 0.4968(3) 0.34377(14)
H16 H 1.1349 0.5264 0.3555
C12 C 0.8581(13) 0.4244(5) 0.32441(19)
C13 C 0.8695(14) 0.4720(5) 0.28996(19)
H17 H 0.9778 0.4445 0.2743
H18 H 0.9315 0.5263 0.2944
C14 C 1.1093(15) 0.4191(5) 0.3392(2)
H19 H 1.1033 0.3913 0.3614
H20 H 1.2054 0.3862 0.3237
C15 C 0.7685(15) 0.3371(5) 0.3203(2)
C16 C 0.6068(16) 0.3043(5) 0.3437(2)
H21 H 0.5483 0.3370 0.3615
C17 C 0.5303(15) 0.2233(6) 0.3412(2)
C18 C 0.6302(19) 0.1753(5) 0.3152(2)
C19 C 0.7950(16) 0.2043(5) 0.2915(2)
C20 C 0.8628(16) 0.2853(5) 0.2947(2)
H22 H 0.9748 0.3062 0.2794
C21 C 0.341(2) 0.1882(6) 0.3652(3)
H23 H 0.3109 0.2261 0.3838
H24 H 0.3958 0.1374 0.3748
H25 H 0.1984 0.1791 0.3523
C22 C 0.9003(18) 0.1478(5) 0.2646(2)
H26 H 0.9298 0.1779 0.2436
H27 H 0.7916 0.1041 0.2598
H28 H 1.0464 0.1257 0.2731
Br3 Br 0.17865(17) 0.28098(6) 0.45967(3)
F3 F 0.0520(11) 0.5506(4) 0.57434(13)
O5 O 0.3518(10) 0.4510(3) 0.42152(13)
H29 H 0.2091 0.4441 0.4241
O6 O 0.8492(11) 0.4290(4) 0.41851(14)
H30 H 0.7988 0.4518 0.4011
C23 C 0.4743(14) 0.4252(5) 0.45237(19)
C24 C 0.4896(14) 0.3308(5) 0.4531(2)
H31 H 0.5937 0.3139 0.4718
H32 H 0.5571 0.3116 0.4314
C25 C 0.7265(14) 0.4587(5) 0.44830(19)
H33 H 0.7188 0.5178 0.4470
H34 H 0.8168 0.4447 0.4689
C26 C 0.3680(14) 0.4618(5) 0.4854(2)
C27 C 0.1996(15) 0.5242(5) 0.4836(2)
H35 H 0.1587 0.5457 0.4621
C28 C 0.0917(16) 0.5547(5) 0.5134(2)
C29 C 0.1659(16) 0.5226(6) 0.5448(2)
C30 C 0.3351(19) 0.4639(6) 0.5483(2)
C31 C 0.4361(17) 0.4336(5) 0.5180(2)
H36 H 0.5520 0.3934 0.5196
C32 C -0.1016(18) 0.6192(6) 0.5118(3)
H37 H -0.2433 0.5981 0.5223
H38 H -0.1324 0.6330 0.4880
H39 H -0.0512 0.6671 0.5242
C33 C 0.412(3) 0.4349(8) 0.5841(2)
H40 H 0.4654 0.4808 0.5976
H41 H 0.5389 0.3962 0.5818
H42 H 0.2809 0.4094 0.5957
loop_
_geom_bond_atom_site_label_1
_geom_bond_atom_site_label_2
_geom_bond_site_symmetry_1
_geom_bond_site_symmetry_2
Br1 C2 1_555 1_555
F1 C7 1_555 1_555
O1 H1 1_555 1_555
O2 H2 1_555 1_555
C1 O1 1_555 1_555
C2 C1 1_555 1_555
H3 C2 1_555 1_555
H4 C2 1_555 1_555
C3 O2 1_555 1_555
H5 C3 1_555 1_555
H6 C3 1_555 1_555
C4 C1 1_555 1_555
C5 C4 1_555 1_555
H7 C5 1_555 1_555
C6 C5 1_555 1_555
C7 C6 1_555 1_555
C8 C7 1_555 1_555
C9 C4 1_555 1_555
H8 C9 1_555 1_555
C10 C6 1_555 1_555
H9 C10 1_555 1_555
H10 C10 1_555 1_555
H11 C10 1_555 1_555
C11 C8 1_555 1_555
H12 C11 1_555 1_555
H13 C11 1_555 1_555
H14 C11 1_555 1_555
Br2 C13 1_555 1_555
F2 C18 1_555 1_555
O3 H15 1_555 1_555
O4 H16 1_555 1_555
C12 O3 1_555 1_555
C13 C12 1_555 1_555
H17 C13 1_555 1_555
H18 C13 1_555 1_555
C14 O4 1_555 1_555
H19 C14 1_555 1_555
H20 C14 1_555 1_555
C15 C12 1_555 1_555
C16 C15 1_555 1_555
H21 C16 1_555 1_555
C17 C16 1_555 1_555
C18 C17 1_555 1_555
C19 C18 1_555 1_555
C20 C15 1_555 1_555
H22 C20 1_555 1_555
C21 C17 1_555 1_555
H23 C21 1_555 1_555
H24 C21 1_555 1_555
H25 C21 1_555 1_555
C22 C19 1_555 1_555
H26 C22 1_555 1_555
H27 C22 1_555 1_555
H28 C22 1_555 1_555
Br3 C24 1_555 1_555
F3 C29 1_555 1_555
O5 H29 1_555 1_555
O6 H30 1_555 1_555
C23 O5 1_555 1_555
C24 C23 1_555 1_555
H31 C24 1_555 1_555
H32 C24 1_555 1_555
C25 O6 1_555 1_555
H33 C25 1_555 1_555
H34 C25 1_555 1_555
C26 C23 1_555 1_555
C27 C26 1_555 1_555
H35 C27 1_555 1_555
C28 C27 1_555 1_555
C29 C28 1_555 1_555
C30 C29 1_555 1_555
C31 C26 1_555 1_555
H36 C31 1_555 1_555
C32 C28 1_555 1_555
H37 C32 1_555 1_555
H38 C32 1_555 1_555
H39 C32 1_555 1_555
C33 C30 1_555 1_555
H40 C33 1_555 1_555
H41 C33 1_555 1_555
H42 C33 1_555 1_555
C1 C3 1_555 1_555
C8 C9 1_555 1_555
C12 C14 1_555 1_555
C19 C20 1_555 1_555
C23 C25 1_555 1_555
C30 C31 1_555 1_555

#END
