
#######################################################################
#
#                 Cambridge Crystallographic Data Centre
#                                CCDC 
#
#######################################################################
#
# If this CIF has been generated from an entry in the Cambridge 
# Structural Database, then it will include bibliographic, chemical, 
# crystal, experimental, refinement or atomic coordinate data resulting 
# from the CCDC's data processing and validation procedures.
#
#######################################################################

data_XASHEH
_chemical_formula_moiety         'C62 H58 N2 O4 S4'
_chemical_name_systematic        
4,7,11,14-tetrakis(2-thienyl)-2,9-bis(undec-5-en-6-yl)isoquinolino[4',5',6':6,5,10]anthra[2,1,9-def]isoquinoline-1,3,8,10(2H,9H)-tetrone
_symmetry_cell_setting           monoclinic
_symmetry_space_group_name_H-M   'P 21/n'
_symmetry_Int_Tables_number      14
_space_group_name_Hall           '-P 2yn'
loop_
_symmetry_equiv_pos_site_id
_symmetry_equiv_pos_as_xyz
1 x,y,z
2 1/2-x,1/2+y,1/2-z
3 -x,-y,-z
4 1/2+x,1/2-y,1/2+z
_cell_length_a                   6.251(3)
_cell_length_b                   20.123(8)
_cell_length_c                   21.102(9)
_cell_angle_alpha                90
_cell_angle_beta                 93.575(13)
_cell_angle_gamma                90
_cell_volume                     2649.23
_exptl_crystal_colour            red
_exptl_crystal_description       needle
_cell_formula_units_Z            2
loop_
_atom_site_label
_atom_site_type_symbol
_atom_site_fract_x
_atom_site_fract_y
_atom_site_fract_z
C1 C -0.1983(13) 0.3342(4) 0.2555(3)
C2 C -0.3080(14) 0.3905(4) 0.2564(3)
C3 C 0.0198(12) 0.4215(3) 0.3074(3)
C4 C 0.1844(12) 0.4579(3) 0.3474(3)
C5 C 0.3099(11) 0.5105(3) 0.3271(3)
C6 C 0.3020(13) 0.5295(4) 0.2585(4)
C7 C 0.5301(12) 0.6258(4) 0.2853(3)
C8 C 0.5755(11) 0.5999(3) 0.3511(3)
C9 C 0.7216(11) 0.6306(3) 0.3939(3)
C10 C 0.7435(11) 0.6065(3) 0.4562(3)
H1 H 0.8465 0.6273 0.4848
C11 C 0.6262(11) 0.5550(3) 0.4788(3)
C12 C 0.4770(11) 0.5221(3) 0.4355(3)
C13 C 0.3526(11) 0.4688(3) 0.4550(3)
C14 C 0.2092(12) 0.4379(3) 0.4116(3)
H2 H 0.1249 0.4021 0.4255
C15 C 0.4533(11) 0.5443(3) 0.3707(3)
C16 C 0.8644(12) 0.6863(3) 0.3797(3)
C17 C 1.1611(15) 0.7541(5) 0.3502(5)
C18 C 1.0445(18) 0.7894(5) 0.3859(5)
C19 C 0.3806(15) 0.6118(4) 0.1746(3)
C20 C 0.2122(15) 0.6637(4) 0.1693(4)
H3 H 0.0793 0.6444 0.1846
H4 H 0.2566 0.7002 0.1987
C21 C 0.1589(14) 0.6932(4) 0.1064(3)
H5 H 0.1169 0.6570 0.0764
H6 H 0.2896 0.7142 0.0914
C22 C -0.0176(15) 0.7441(4) 0.1041(4)
H7 H -0.1477 0.7227 0.1191
H8 H 0.0244 0.7797 0.1348
C23 C -0.0767(15) 0.7760(5) 0.0421(4)
H9 H -0.1208 0.7407 0.0113
H10 H 0.0532 0.7973 0.0268
C24 C -0.2505(14) 0.8268(4) 0.0413(4)
H11 H -0.3834 0.8059 0.0535
H12 H -0.2726 0.8454 -0.0016
H13 H -0.2096 0.8624 0.0713
C25 C 0.663(2) 0.5352(7) 0.1361(5)
C26 C 0.708(3) 0.4980(8) 0.0866(6)
H14 H 0.7501 0.5294 0.0535
H15 H 0.5701 0.4781 0.0706
C27 C 0.870(3) 0.4421(8) 0.0874(6)
H16 H 0.9890 0.4585 0.1166
H17 H 0.8016 0.4062 0.1110
C28 C 0.969(4) 0.4101(8) 0.0433(8)
H18 H 0.9189 0.3640 0.0411
H19 H 1.1242 0.4107 0.0539
H20 H 0.9385 0.4317 0.0022
C29 C -0.1918(9) 0.4482(3) 0.2878(2)
C30 C 0.8565(8) 0.7559(2) 0.4107(2)
C31 C 0.463(3) 0.5724(11) 0.1257(8)
N1 N 0.4121(10) 0.5868(3) 0.2422(3)
O1 O 0.2089(10) 0.4967(3) 0.2179(2)
O2 O 0.5971(10) 0.6805(3) 0.2704(2)
S1 S 0.0445(4) 0.33954(11) 0.29022(11)
S2 S 1.0673(5) 0.67954(14) 0.33533(14)
H21 H -0.443(9) 0.401(2) 0.236(3)
H22 H 1.275(9) 0.764(3) 0.324(3)
H23 H 1.069(12) 0.830(4) 0.408(5)
H24 H -0.239(9) 0.292(2) 0.239(4)
C1B C 1.1983(13) 0.6658(4) 0.7445(3)
C2B C 1.3080(14) 0.6095(4) 0.7436(3)
C3B C 0.9802(12) 0.5785(3) 0.6926(3)
C4B C 0.8156(12) 0.5421(3) 0.6526(3)
C5B C 0.6901(11) 0.4895(3) 0.6729(3)
C6B C 0.6980(13) 0.4705(4) 0.7415(4)
C7B C 0.4699(12) 0.3742(4) 0.7147(3)
C8B C 0.4245(11) 0.4001(3) 0.6489(3)
C9B C 0.2784(11) 0.3694(3) 0.6061(3)
C10B C 0.2565(11) 0.3935(3) 0.5438(3)
H1B H 0.1535 0.3727 0.5152
C11B C 0.3738(11) 0.4450(3) 0.5212(3)
C12B C 0.5230(11) 0.4779(3) 0.5645(3)
C13B C 0.6474(11) 0.5312(3) 0.5450(3)
C14B C 0.7908(12) 0.5621(3) 0.5884(3)
H2B H 0.8751 0.5979 0.5745
C15B C 0.5467(11) 0.4557(3) 0.6293(3)
C16B C 0.1356(12) 0.3137(3) 0.6203(3)
C17B C -0.1611(15) 0.2459(5) 0.6498(5)
C18B C -0.0445(18) 0.2106(5) 0.6141(5)
C19B C 0.6194(15) 0.3882(4) 0.8254(3)
C20B C 0.7878(15) 0.3363(4) 0.8307(4)
H3B H 0.9207 0.3556 0.8154
H4B H 0.7434 0.2998 0.8013
C21B C 0.8411(14) 0.3068(4) 0.8936(3)
H5B H 0.8831 0.3430 0.9236
H6B H 0.7104 0.2858 0.9086
C22B C 1.0176(15) 0.2559(4) 0.8959(4)
H7B H 1.1477 0.2773 0.8809
H8B H 0.9756 0.2203 0.8652
C23B C 1.0767(15) 0.2240(5) 0.9579(4)
H9B H 1.1208 0.2593 0.9887
H10B H 0.9468 0.2027 0.9732
C24B C 1.2505(14) 0.1732(4) 0.9587(4)
H11B H 1.3834 0.1941 0.9465
H12B H 1.2726 0.1546 1.0016
H13B H 1.2096 0.1376 0.9287
C25B C 0.337(2) 0.4648(7) 0.8639(5)
C26B C 0.292(3) 0.5020(8) 0.9134(6)
H14B H 0.2499 0.4706 0.9465
H15B H 0.4299 0.5219 0.9294
C27B C 0.130(3) 0.5579(8) 0.9126(6)
H16B H 0.0110 0.5415 0.8834
H17B H 0.1984 0.5938 0.8890
C28B C 0.031(4) 0.5899(8) 0.9567(8)
H18B H 0.0811 0.6360 0.9589
H19B H -0.1242 0.5893 0.9461
H20B H 0.0615 0.5683 0.9978
C29B C 1.1918(9) 0.5518(3) 0.7122(2)
C30B C 0.1435(8) 0.2441(2) 0.5893(2)
C31B C 0.537(3) 0.4276(11) 0.8743(8)
N1B N 0.5879(10) 0.4132(3) 0.7578(3)
O1B O 0.7911(10) 0.5033(3) 0.7821(2)
O2B O 0.4029(10) 0.3195(3) 0.7296(2)
S1B S 0.9555(4) 0.66046(11) 0.70978(11)
S2B S -0.0673(5) 0.32046(14) 0.66467(14)
H21B H 1.443(9) 0.599(2) 0.764(3)
H22B H -0.275(9) 0.236(3) 0.676(3)
H23B H -0.069(12) 0.170(4) 0.592(5)
H24B H 1.239(9) 0.708(2) 0.761(4)
C32? C 0.0445(4) 0.33954(11) 0.29022(11)
C33? C 1.0673(5) 0.67954(14) 0.33533(14)
S3? S -0.1918(9) 0.4482(3) 0.2878(2)
S4? S 0.8565(8) 0.7559(2) 0.4107(2)
C34? C 0.581(4) 0.6117(12) 0.1427(9)
loop_
_geom_bond_atom_site_label_1
_geom_bond_atom_site_label_2
_geom_bond_site_symmetry_1
_geom_bond_site_symmetry_2
C1 C2 1_555 1_555
C2 C29 1_555 1_555
C3 C4 1_555 1_555
C4 C5 1_555 1_555
C5 C6 1_555 1_555
C6 N1 1_555 1_555
C7 C8 1_555 1_555
C8 C9 1_555 1_555
C9 C10 1_555 1_555
C10 H1 1_555 1_555
C11 C10 1_555 1_555
C12 C11 1_555 1_555
C13 C12 1_555 1_555
C14 C4 1_555 1_555
H2 C14 1_555 1_555
C15 C5 1_555 1_555
C16 C9 1_555 1_555
C17 C18 1_555 1_555
C18 C30 1_555 1_555
C19 C20 1_555 1_555
C20 H3 1_555 1_555
H4 C20 1_555 1_555
C21 C20 1_555 1_555
H5 C21 1_555 1_555
H6 C21 1_555 1_555
C22 C21 1_555 1_555
H7 C22 1_555 1_555
H8 C22 1_555 1_555
C23 C22 1_555 1_555
H9 C23 1_555 1_555
H10 C23 1_555 1_555
C24 C23 1_555 1_555
H11 C24 1_555 1_555
H12 C24 1_555 1_555
H13 C24 1_555 1_555
C25 C26 1_555 1_555
C26 H14 1_555 1_555
H15 C26 1_555 1_555
C27 C26 1_555 1_555
H16 C27 1_555 1_555
H17 C27 1_555 1_555
C28 C27 1_555 1_555
H18 C28 1_555 1_555
H19 C28 1_555 1_555
H20 C28 1_555 1_555
C29 C3 1_555 1_555
C30 C16 1_555 1_555
C31 C19 1_555 1_555
N1 C7 1_555 1_555
O1 C6 1_555 1_555
O2 C7 1_555 1_555
S1 C1 1_555 1_555
S2 C16 1_555 1_555
H21 C2 1_555 1_555
H22 C17 1_555 1_555
H23 C18 1_555 1_555
H24 C1 1_555 1_555
C1B C2B 1_555 1_555
C2B C29B 1_555 1_555
C3B C4B 1_555 1_555
C4B C5B 1_555 1_555
C5B C6B 1_555 1_555
C6B N1B 1_555 1_555
C7B C8B 1_555 1_555
C8B C9B 1_555 1_555
C9B C10B 1_555 1_555
C10B H1B 1_555 1_555
C11B C13 1_555 1_555
C12B C11B 1_555 1_555
C13B C11 1_555 1_555
C14B C4B 1_555 1_555
H2B C14B 1_555 1_555
C15B C5B 1_555 1_555
C16B C9B 1_555 1_555
C17B C18B 1_555 1_555
C18B C30B 1_555 1_555
C19B C20B 1_555 1_555
C20B H3B 1_555 1_555
H4B C20B 1_555 1_555
C21B C20B 1_555 1_555
H5B C21B 1_555 1_555
H6B C21B 1_555 1_555
C22B C21B 1_555 1_555
H7B C22B 1_555 1_555
H8B C22B 1_555 1_555
C23B C22B 1_555 1_555
H9B C23B 1_555 1_555
H10B C23B 1_555 1_555
C24B C23B 1_555 1_555
H11B C24B 1_555 1_555
H12B C24B 1_555 1_555
H13B C24B 1_555 1_555
C25B C26B 1_555 1_555
C26B H14B 1_555 1_555
H15B C26B 1_555 1_555
C27B C26B 1_555 1_555
H16B C27B 1_555 1_555
H17B C27B 1_555 1_555
C28B C27B 1_555 1_555
H18B C28B 1_555 1_555
H19B C28B 1_555 1_555
H20B C28B 1_555 1_555
C29B C3B 1_555 1_555
C30B C16B 1_555 1_555
C31B C19B 1_555 1_555
N1B C7B 1_555 1_555
O1B C6B 1_555 1_555
O2B C7B 1_555 1_555
S1B C1B 1_555 1_555
S2B C16B 1_555 1_555
H21B C2B 1_555 1_555
H22B C17B 1_555 1_555
H23B C18B 1_555 1_555
H24B C1B 1_555 1_555
C3 S1 1_555 1_555
C8 C15 1_555 1_555
C12 C15 1_555 1_555
C13 C14 1_555 1_555
C17 S2 1_555 1_555
C19 N1 1_555 1_555
C25 C31 1_555 1_555
C3B S1B 1_555 1_555
C8B C15B 1_555 1_555
C10B C11B 1_555 1_555
C12B C13B 1_555 1_555
C12B C15B 1_555 1_555
C13B C14B 1_555 1_555
C17B S2B 1_555 1_555
C19B N1B 1_555 1_555
C25B C31B 1_555 1_555

#END
