
#######################################################################
#
#                 Cambridge Crystallographic Data Centre
#                                CCDC 
#
#######################################################################
#
# If this CIF has been generated from an entry in the Cambridge 
# Structural Database, then it will include bibliographic, chemical, 
# crystal, experimental, refinement or atomic coordinate data resulting 
# from the CCDC's data processing and validation procedures.
#
#######################################################################

data_XASLAH
_chemical_formula_moiety         'C26 H26 N2'
_chemical_name_systematic        2,2'-ethene-1,2-diylbis(8-isopropylquinoline)
_symmetry_cell_setting           monoclinic
_symmetry_space_group_name_H-M   'P 21/n'
_symmetry_Int_Tables_number      14
_space_group_name_Hall           '-P 2yn'
loop_
_symmetry_equiv_pos_site_id
_symmetry_equiv_pos_as_xyz
1 x,y,z
2 1/2-x,1/2+y,1/2-z
3 -x,-y,-z
4 1/2+x,1/2-y,1/2+z
_cell_length_a                   14.287(3)
_cell_length_b                   4.7174(9)
_cell_length_c                   15.288(3)
_cell_angle_alpha                90
_cell_angle_beta                 100.963(3)
_cell_angle_gamma                90
_cell_volume                     1011.57
_exptl_crystal_colour            colorless
_exptl_crystal_description       block
_cell_formula_units_Z            2
loop_
_atom_site_label
_atom_site_type_symbol
_atom_site_fract_x
_atom_site_fract_y
_atom_site_fract_z
N1 N 0.83141(7) 1.1217(2) -0.00756(7)
C1 C 0.95846(9) 1.4350(3) -0.01430(8)
H1 H 0.9198(12) 1.486(3) -0.0733(11)
C2 C 0.91462(8) 1.2216(3) 0.03460(8)
C3 C 0.95826(9) 1.1275(3) 0.12149(8)
H2 H 1.0181 1.2020 0.1499
C4 C 0.91290(9) 0.9296(3) 0.16310(9)
H3 H 0.9410 0.8656 0.2211
C5 C 0.82400(9) 0.8192(3) 0.12018(8)
C6 C 0.77396(10) 0.6096(3) 0.15933(9)
H4 H 0.7997 0.5373 0.2169
C7 C 0.68851(10) 0.5124(3) 0.11369(10)
H5 H 0.6552 0.3702 0.1394
C8 C 0.64928(9) 0.6207(3) 0.02893(10)
H6 H 0.5892 0.5512 -0.0008
C9 C 0.69474(9) 0.8235(3) -0.01253(9)
C10 C 0.78536(8) 0.9235(3) 0.03373(8)
C11 C 0.65407(9) 0.9399(3) -0.10400(9)
H7 H 0.6768 1.1401 -0.1053
C12 C 0.69277(14) 0.7798(4) -0.17544(11)
H8 H 0.7626 0.7880 -0.1626
H9 H 0.6687 0.8664 -0.2336
H10 H 0.6721 0.5816 -0.1762
C13 C 0.54550(10) 0.9485(5) -0.12413(11)
H11 H 0.5205 0.7547 -0.1305
H12 H 0.5236 1.0530 -0.1797
H13 H 0.5226 1.0435 -0.0752
N1B N 1.16859(7) 1.8783(2) 0.00756(7)
C1B C 1.04154(9) 1.5650(3) 0.01430(8)
H1B H 1.0802(12) 1.514(3) 0.0733(11)
C2B C 1.08538(8) 1.7784(3) -0.03460(8)
C3B C 1.04174(9) 1.8725(3) -0.12149(8)
H2B H 0.9819 1.7980 -0.1499
C4B C 1.08710(9) 2.0704(3) -0.16310(9)
H3B H 1.0590 2.1344 -0.2211
C5B C 1.17600(9) 2.1808(3) -0.12018(8)
C6B C 1.22604(10) 2.3904(3) -0.15933(9)
H4B H 1.2003 2.4627 -0.2169
C7B C 1.31149(10) 2.4876(3) -0.11369(10)
H5B H 1.3448 2.6298 -0.1394
C8B C 1.35072(9) 2.3793(3) -0.02893(10)
H6B H 1.4108 2.4488 0.0008
C9B C 1.30526(9) 2.1765(3) 0.01253(9)
C10B C 1.21464(8) 2.0765(3) -0.03373(8)
C11B C 1.34593(9) 2.0601(3) 0.10400(9)
H7B H 1.3232 1.8599 0.1053
C12B C 1.30723(14) 2.2202(4) 0.17544(11)
H8B H 1.2374 2.2120 0.1626
H9B H 1.3313 2.1336 0.2336
H10B H 1.3279 2.4184 0.1762
C13B C 1.45450(10) 2.0515(5) 0.12413(11)
H11B H 1.4795 2.2453 0.1305
H12B H 1.4764 1.9470 0.1797
H13B H 1.4774 1.9565 0.0752
loop_
_geom_bond_atom_site_label_1
_geom_bond_atom_site_label_2
_geom_bond_site_symmetry_1
_geom_bond_site_symmetry_2
N1 C2 1_555 1_555
C1 H1 1_555 1_555
C2 C1 1_555 1_555
C3 C2 1_555 1_555
H2 C3 1_555 1_555
C4 C3 1_555 1_555
H3 C4 1_555 1_555
C5 C4 1_555 1_555
C6 C5 1_555 1_555
H4 C6 1_555 1_555
C7 C6 1_555 1_555
H5 C7 1_555 1_555
C8 C7 1_555 1_555
H6 C8 1_555 1_555
C9 C8 1_555 1_555
C10 N1 1_555 1_555
C11 C9 1_555 1_555
H7 C11 1_555 1_555
C12 C11 1_555 1_555
H8 C12 1_555 1_555
H9 C12 1_555 1_555
H10 C12 1_555 1_555
C13 C11 1_555 1_555
H11 C13 1_555 1_555
H12 C13 1_555 1_555
H13 C13 1_555 1_555
N1B C2B 1_555 1_555
C1B C1 1_555 1_555
H1B C1B 1_555 1_555
C2B C1B 1_555 1_555
C3B C2B 1_555 1_555
H2B C3B 1_555 1_555
C4B C3B 1_555 1_555
H3B C4B 1_555 1_555
C5B C4B 1_555 1_555
C6B C5B 1_555 1_555
H4B C6B 1_555 1_555
C7B C6B 1_555 1_555
H5B C7B 1_555 1_555
C8B C7B 1_555 1_555
H6B C8B 1_555 1_555
C9B C8B 1_555 1_555
C10B N1B 1_555 1_555
C11B C9B 1_555 1_555
H7B C11B 1_555 1_555
C12B C11B 1_555 1_555
H8B C12B 1_555 1_555
H9B C12B 1_555 1_555
H10B C12B 1_555 1_555
C13B C11B 1_555 1_555
H11B C13B 1_555 1_555
H12B C13B 1_555 1_555
H13B C13B 1_555 1_555
C5 C10 1_555 1_555
C9 C10 1_555 1_555
C5B C10B 1_555 1_555
C9B C10B 1_555 1_555

#END
