
#######################################################################
#
#                 Cambridge Crystallographic Data Centre
#                                CCDC 
#
#######################################################################
#
# If this CIF has been generated from an entry in the Cambridge 
# Structural Database, then it will include bibliographic, chemical, 
# crystal, experimental, refinement or atomic coordinate data resulting 
# from the CCDC's data processing and validation procedures.
#
#######################################################################

data_XASRUG
_chemical_name_common            
cis-N,N'-bis(2-Hydroxycyclohexyl)ethane-1,2-diamine
_chemical_formula_moiety         'C14 H28 N2 O2'
_chemical_name_systematic        
cis-2,2'-(Ethane-1,2-diyldiimino)dicyclohexanol
_symmetry_cell_setting           monoclinic
_symmetry_space_group_name_H-M   'C 2/c'
_symmetry_Int_Tables_number      15
_space_group_name_Hall           '-C 2yc'
loop_
_symmetry_equiv_pos_site_id
_symmetry_equiv_pos_as_xyz
1 x,y,z
2 -x,y,1/2-z
3 1/2-x,1/2+y,1/2-z
4 1/2+x,1/2+y,z
5 -x,-y,-z
6 x,-y,1/2+z
7 1/2+x,1/2-y,1/2+z
8 1/2-x,1/2-y,-z
_cell_length_a                   10.1679(9)
_cell_length_b                   15.5587(10)
_cell_length_c                   9.9072(7)
_cell_angle_alpha                90
_cell_angle_beta                 116.534(10)
_cell_angle_gamma                90
_cell_volume                     1402.23
_exptl_crystal_description       plate
_cell_formula_units_Z            4
loop_
_atom_site_label
_atom_site_type_symbol
_atom_site_fract_x
_atom_site_fract_y
_atom_site_fract_z
O1 O 0.10143(10) 0.40193(6) 0.12154(8)
N1 N 0.14106(11) 0.49542(6) 0.39113(10)
C1 C 0.19494(12) 0.37173(7) 0.26927(12)
H1 H 0.1365 0.3338 0.3038
C2 C 0.25912(13) 0.44537(7) 0.38127(12)
H2 H 0.3157 0.4840 0.3455
C3 C 0.31594(13) 0.31880(8) 0.26037(13)
H3 H 0.3714 0.3551 0.2214
H4 H 0.2716 0.2707 0.1888
C4 C 0.36333(14) 0.40994(8) 0.53574(12)
H5 H 0.3067 0.3751 0.5752
H6 H 0.4085 0.4584 0.6062
C5 C 0.08353(13) 0.56976(8) 0.28890(13)
H7 H 0.1205 0.5677 0.2119
H8 H 0.1194 0.6236 0.3472
C6 C 0.42090(14) 0.28303(9) 0.41368(13)
H9 H 0.5019 0.2520 0.4052
H10 H 0.3680 0.2415 0.4476
C7 C 0.48440(14) 0.35465(9) 0.52967(14)
H11 H 0.5494 0.3912 0.5036
H12 H 0.5445 0.3293 0.6304
H13 H 0.1706(14) 0.5141(8) 0.4813(14)
H14 H 0.0215(19) 0.4246(10) 0.1211(14)
O1A O -0.10143(10) 0.40193(6) 0.37846(8)
N1A N -0.14106(11) 0.49542(6) 0.10887(10)
C1A C -0.19494(12) 0.37173(7) 0.23073(12)
H1A H -0.1365 0.3338 0.1962
C2A C -0.25912(13) 0.44537(7) 0.11873(12)
H2A H -0.3157 0.4840 0.1545
C3A C -0.31594(13) 0.31880(8) 0.23963(13)
H3A H -0.3714 0.3551 0.2786
H4A H -0.2716 0.2707 0.3112
C4A C -0.36333(14) 0.40994(8) -0.03574(12)
H5A H -0.3067 0.3751 -0.0752
H6A H -0.4085 0.4584 -0.1062
C5A C -0.08353(13) 0.56976(8) 0.21110(13)
H7A H -0.1205 0.5677 0.2881
H8A H -0.1194 0.6236 0.1528
C6A C -0.42090(14) 0.28303(9) 0.08632(13)
H9A H -0.5019 0.2520 0.0948
H10A H -0.3680 0.2415 0.0524
C7A C -0.48440(14) 0.35465(9) -0.02967(14)
H11A H -0.5494 0.3912 -0.0036
H12A H -0.5445 0.3293 -0.1304
H13A H -0.1706(14) 0.5141(8) 0.0187(14)
H14A H -0.0215(19) 0.4246(10) 0.3789(14)
loop_
_geom_bond_atom_site_label_1
_geom_bond_atom_site_label_2
_geom_bond_site_symmetry_1
_geom_bond_site_symmetry_2
O1 C1 1_555 1_555
N1 C2 1_555 1_555
C1 H1 1_555 1_555
C2 C1 1_555 1_555
H2 C2 1_555 1_555
C3 C1 1_555 1_555
H3 C3 1_555 1_555
H4 C3 1_555 1_555
C4 C2 1_555 1_555
H5 C4 1_555 1_555
H6 C4 1_555 1_555
C5 N1 1_555 1_555
H7 C5 1_555 1_555
H8 C5 1_555 1_555
C6 C3 1_555 1_555
H9 C6 1_555 1_555
H10 C6 1_555 1_555
C7 C4 1_555 1_555
H11 C7 1_555 1_555
H12 C7 1_555 1_555
H13 N1 1_555 1_555
H14 O1 1_555 1_555
O1A C1A 1_555 1_555
N1A C2A 1_555 1_555
C1A H1A 1_555 1_555
C2A C1A 1_555 1_555
H2A C2A 1_555 1_555
C3A C1A 1_555 1_555
H3A C3A 1_555 1_555
H4A C3A 1_555 1_555
C4A C2A 1_555 1_555
H5A C4A 1_555 1_555
H6A C4A 1_555 1_555
C5A C5 1_555 1_555
H7A C5A 1_555 1_555
H8A C5A 1_555 1_555
C6A C3A 1_555 1_555
H9A C6A 1_555 1_555
H10A C6A 1_555 1_555
C7A C4A 1_555 1_555
H11A C7A 1_555 1_555
H12A C7A 1_555 1_555
H13A N1A 1_555 1_555
H14A O1A 1_555 1_555
C6 C7 1_555 1_555
N1A C5A 1_555 1_555
C6A C7A 1_555 1_555

#END
