
#######################################################################
#
#                 Cambridge Crystallographic Data Centre
#                                CCDC 
#
#######################################################################
#
# If this CIF has been generated from an entry in the Cambridge 
# Structural Database, then it will include bibliographic, chemical, 
# crystal, experimental, refinement or atomic coordinate data resulting 
# from the CCDC's data processing and validation procedures.
#
#######################################################################

data_XASSAN
_chemical_name_common            
trans-N,N'-bis(2-Hydroxycyclohexyl)ethane-1,2-diamine
_chemical_formula_moiety         'C14 H28 N2 O2'
_chemical_name_systematic        
trans-2,2'-(Ethane-1,2-diyldiimino)dicyclohexanol
_symmetry_cell_setting           monoclinic
_symmetry_space_group_name_H-M   'P 21/c'
_symmetry_Int_Tables_number      14
_space_group_name_Hall           '-P 2ybc'
loop_
_symmetry_equiv_pos_site_id
_symmetry_equiv_pos_as_xyz
1 x,y,z
2 -x,1/2+y,1/2-z
3 -x,-y,-z
4 x,1/2-y,1/2+z
_cell_length_a                   12.2894(6)
_cell_length_b                   8.1139(4)
_cell_length_c                   7.1355(4)
_cell_angle_alpha                90
_cell_angle_beta                 102.915(5)
_cell_angle_gamma                90
_cell_volume                     693.517
_exptl_crystal_description       plate
_cell_formula_units_Z            2
loop_
_atom_site_label
_atom_site_type_symbol
_atom_site_fract_x
_atom_site_fract_y
_atom_site_fract_z
C1 C 0.81844(10) 0.98810(15) 0.24018(17)
H1 H 0.8427 0.8769 0.2941
O1 O 0.89159(7) 1.10969(13) 0.55104(12)
N1 N 0.91127(9) 1.06286(14) 0.17005(15)
C2 C 0.79364(10) 1.09528(16) 0.40186(17)
H2 H 0.7714 1.2076 0.3494
C3 C 0.61895(10) 0.89214(18) 0.16017(18)
H3 H 0.5513 0.8832 0.0551
H4 H 0.6403 0.7797 0.2088
C4 C 0.71367(10) 0.96736(16) 0.08206(18)
H5 H 0.7303 0.8953 -0.0200
H6 H 0.6900 1.0761 0.0242
C5 C 0.69825(11) 1.02299(18) 0.47988(18)
H7 H 0.6809 1.0981 0.5786
H8 H 0.7221 0.9161 0.5426
C6 C 0.59315(11) 0.99709(18) 0.32192(19)
H9 H 0.5354 0.9419 0.3765
H10 H 0.5634 1.1052 0.2701
C7 C 0.94673(10) 0.96486(16) 0.02014(18)
H11 H 0.8873 0.9662 -0.0991
H12 H 0.9592 0.8491 0.0633
H13 H 0.9680(12) 1.0641(16) 0.266(2)
H14 H 0.8958(14) 1.213(3) 0.595(2)
C1B C 1.18156(10) 1.01190(15) -0.24018(17)
H1B H 1.1573 1.1231 -0.2941
O1B O 1.10841(7) 0.89031(13) -0.55104(12)
N1B N 1.08873(9) 0.93714(14) -0.17005(15)
C2B C 1.20636(10) 0.90472(16) -0.40186(17)
H2B H 1.2286 0.7924 -0.3494
C3B C 1.38105(10) 1.10786(18) -0.16017(18)
H3B H 1.4487 1.1168 -0.0551
H4B H 1.3597 1.2203 -0.2088
C4B C 1.28633(10) 1.03264(16) -0.08206(18)
H5B H 1.2697 1.1047 0.0200
H6B H 1.3100 0.9239 -0.0242
C5B C 1.30175(11) 0.97701(18) -0.47988(18)
H7B H 1.3191 0.9019 -0.5786
H8B H 1.2779 1.0839 -0.5426
C6B C 1.40685(11) 1.00291(18) -0.32192(19)
H9B H 1.4646 1.0581 -0.3765
H10B H 1.4366 0.8948 -0.2701
C7B C 1.05327(10) 1.03514(16) -0.02014(18)
H11B H 1.1127 1.0338 0.0991
H12B H 1.0408 1.1509 -0.0633
H13B H 1.0320(12) 0.9359(16) -0.266(2)
H14B H 1.1042(14) 0.787(3) -0.595(2)
loop_
_geom_bond_atom_site_label_1
_geom_bond_atom_site_label_2
_geom_bond_site_symmetry_1
_geom_bond_site_symmetry_2
C1 H1 1_555 1_555
O1 C2 1_555 1_555
N1 C1 1_555 1_555
C2 C1 1_555 1_555
H2 C2 1_555 1_555
C3 H3 1_555 1_555
H4 C3 1_555 1_555
C4 C1 1_555 1_555
H5 C4 1_555 1_555
H6 C4 1_555 1_555
C5 C2 1_555 1_555
H7 C5 1_555 1_555
H8 C5 1_555 1_555
C6 C3 1_555 1_555
H9 C6 1_555 1_555
H10 C6 1_555 1_555
C7 N1 1_555 1_555
H11 C7 1_555 1_555
H12 C7 1_555 1_555
H13 N1 1_555 1_555
H14 O1 1_555 1_555
C1B H1B 1_555 1_555
O1B C2B 1_555 1_555
N1B C1B 1_555 1_555
C2B C1B 1_555 1_555
H2B C2B 1_555 1_555
C3B H3B 1_555 1_555
H4B C3B 1_555 1_555
C4B C1B 1_555 1_555
H5B C4B 1_555 1_555
H6B C4B 1_555 1_555
C5B C2B 1_555 1_555
H7B C5B 1_555 1_555
H8B C5B 1_555 1_555
C6B C3B 1_555 1_555
H9B C6B 1_555 1_555
H10B C6B 1_555 1_555
C7B C7 1_555 1_555
H11B C7B 1_555 1_555
H12B C7B 1_555 1_555
H13B N1B 1_555 1_555
H14B O1B 1_555 1_555
C3 C4 1_555 1_555
C5 C6 1_555 1_555
N1B C7B 1_555 1_555
C3B C4B 1_555 1_555
C5B C6B 1_555 1_555

#END
