
#######################################################################
#
#                 Cambridge Crystallographic Data Centre
#                                CCDC 
#
#######################################################################
#
# If this CIF has been generated from an entry in the Cambridge 
# Structural Database, then it will include bibliographic, chemical, 
# crystal, experimental, refinement or atomic coordinate data resulting 
# from the CCDC's data processing and validation procedures.
#
#######################################################################

data_XASSUF
_chemical_formula_moiety         'C36 H51 N1'
_chemical_name_systematic        2,6-bis(2,4,6-Tri-isopropylphenyl)aniline
_symmetry_cell_setting           orthorhombic
_symmetry_space_group_name_H-M   'P n m a'
_symmetry_Int_Tables_number      62
_space_group_name_Hall           '-P 2ac 2n'
loop_
_symmetry_equiv_pos_site_id
_symmetry_equiv_pos_as_xyz
1 x,y,z
2 1/2-x,-y,1/2+z
3 -x,1/2+y,-z
4 1/2+x,1/2-y,1/2-z
5 -x,-y,-z
6 1/2+x,y,1/2-z
7 x,1/2-y,z
8 1/2-x,1/2+y,1/2+z
_cell_length_a                   8.5860(17)
_cell_length_b                   25.579(5)
_cell_length_c                   14.512(3)
_cell_angle_alpha                90
_cell_angle_beta                 90
_cell_angle_gamma                90
_cell_volume                     3187.14
_exptl_crystal_colour            colorless
_exptl_crystal_description       block
_chemical_melting_point          169-172deg.C
_cell_formula_units_Z            4
loop_
_atom_site_label
_atom_site_type_symbol
_atom_site_fract_x
_atom_site_fract_y
_atom_site_fract_z
H1 H 0.305(6) 0.7163(18) 0.111(4)
N1 N 0.3476(7) 0.7500 0.0864(4)
C1 C 0.4555(6) 0.7500 0.0160(4)
C2 C 0.5100(4) 0.79740(15) -0.0198(3)
C3 C 0.6184(5) 0.79690(17) -0.0902(3)
H2 H 0.6562 0.8291 -0.1142
C4 C 0.2239(5) 0.84483(18) -0.0912(3)
H3 H 0.2705 0.8095 -0.1018
C5 C 0.4515(4) 0.84779(15) 0.0210(3)
C6 C 0.2576(5) 0.91588(16) 0.0288(3)
H4 H 0.1634 0.9309 0.0069
C7 C 0.3372(5) 0.94056(16) 0.1002(3)
C8 C 0.4745(5) 0.91765(17) 0.1309(3)
H5 H 0.5296 0.9339 0.1799
C9 C 0.6880(5) 0.85024(17) 0.1286(3)
H6 H 0.7183 0.8204 0.0877
C10 C 0.6732(6) 0.8291(2) 0.2265(4)
H7 H 0.7716 0.8126 0.2448
H8 H 0.5893 0.8031 0.2288
H9 H 0.6493 0.8579 0.2687
C11 C 0.0510(5) 0.8372(2) -0.0724(4)
H10 H -0.0004 0.8714 -0.0691
H11 H 0.0374 0.8187 -0.0138
H12 H 0.0046 0.8166 -0.1223
C12 C 0.6731(7) 0.7500 -0.1266(4)
H13 H 0.7467 0.7500 -0.1754
C13 C 0.2854(5) 0.99188(16) 0.1435(3)
H14 H 0.3024 0.9884 0.2114
C14 C 0.3897(6) 1.03632(17) 0.1110(4)
H15 H 0.3764 1.0412 0.0445
H16 H 0.4987 1.0277 0.1243
H17 H 0.3611 1.0686 0.1433
C15 C 0.1160(5) 1.00512(19) 0.1303(4)
H18 H 0.0879 1.0343 0.1706
H19 H 0.0520 0.9746 0.1456
H20 H 0.0978 1.0150 0.0659
C16 C 0.5346(5) 0.87196(16) 0.0931(3)
C17 C 0.3114(4) 0.87003(15) -0.0116(3)
C18 C 0.2480(7) 0.8767(2) -0.1782(4)
H21 H 0.2132 0.9127 -0.1677
H22 H 0.1877 0.8613 -0.2286
H23 H 0.3588 0.8767 -0.1944
C19 C 0.8160(5) 0.89088(19) 0.1232(4)
H24 H 0.8223 0.9046 0.0602
H25 H 0.9157 0.8748 0.1399
H26 H 0.7929 0.9195 0.1658
H1F H 0.305(6) 0.7837(18) 0.111(4)
C3F C 0.6184(5) 0.70310(17) -0.0902(3)
C2F C 0.5100(4) 0.70260(15) -0.0198(3)
C5F C 0.4515(4) 0.65221(15) 0.0210(3)
C16F C 0.5346(5) 0.62804(16) 0.0931(3)
C8F C 0.4745(5) 0.58235(17) 0.1309(3)
C7F C 0.3372(5) 0.55944(16) 0.1002(3)
C6F C 0.2576(5) 0.58412(16) 0.0288(3)
H4F H 0.1634 0.5691 0.0069
C17F C 0.3114(4) 0.62997(15) -0.0116(3)
C4F C 0.2239(5) 0.65517(18) -0.0912(3)
H3F H 0.2705 0.6905 -0.1018
C11F C 0.0510(5) 0.6628(2) -0.0724(4)
H10F H -0.0004 0.6286 -0.0691
H11F H 0.0374 0.6813 -0.0138
H12F H 0.0046 0.6834 -0.1223
C18F C 0.2480(7) 0.6233(2) -0.1782(4)
H21F H 0.2132 0.5873 -0.1677
H22F H 0.1877 0.6387 -0.2286
H23F H 0.3588 0.6233 -0.1944
C13F C 0.2854(5) 0.50812(16) 0.1435(3)
H14F H 0.3024 0.5116 0.2114
C14F C 0.3897(6) 0.46368(17) 0.1110(4)
H15F H 0.3764 0.4588 0.0445
H16F H 0.4987 0.4723 0.1243
H17F H 0.3611 0.4314 0.1433
C15F C 0.1160(5) 0.49488(19) 0.1303(4)
H18F H 0.0879 0.4657 0.1706
H19F H 0.0520 0.5254 0.1456
H20F H 0.0978 0.4850 0.0659
H5F H 0.5296 0.5661 0.1799
C9F C 0.6880(5) 0.64976(17) 0.1286(3)
H6F H 0.7183 0.6796 0.0877
C10F C 0.6732(6) 0.6709(2) 0.2265(4)
H7F H 0.7716 0.6874 0.2448
H8F H 0.5893 0.6969 0.2288
H9F H 0.6493 0.6421 0.2687
C19F C 0.8160(5) 0.60912(19) 0.1232(4)
H24F H 0.8223 0.5954 0.0602
H25F H 0.9157 0.6252 0.1399
H26F H 0.7929 0.5805 0.1658
H2F H 0.6562 0.6709 -0.1142
loop_
_geom_bond_atom_site_label_1
_geom_bond_atom_site_label_2
_geom_bond_site_symmetry_1
_geom_bond_site_symmetry_2
H1 N1 1_555 1_555
N1 C1 1_555 1_555
C1 C2 1_555 1_555
C2 C3 1_555 1_555
C3 H2 1_555 1_555
C4 H3 1_555 1_555
C5 C2 1_555 1_555
C6 H4 1_555 1_555
C7 C6 1_555 1_555
C8 C7 1_555 1_555
H5 C8 1_555 1_555
C9 H6 1_555 1_555
C10 C9 1_555 1_555
H7 C10 1_555 1_555
H8 C10 1_555 1_555
H9 C10 1_555 1_555
C11 C4 1_555 1_555
H10 C11 1_555 1_555
H11 C11 1_555 1_555
H12 C11 1_555 1_555
C12 C3 1_555 1_555
H13 C12 1_555 1_555
C13 C7 1_555 1_555
H14 C13 1_555 1_555
C14 C13 1_555 1_555
H15 C14 1_555 1_555
H16 C14 1_555 1_555
H17 C14 1_555 1_555
C15 C13 1_555 1_555
H18 C15 1_555 1_555
H19 C15 1_555 1_555
H20 C15 1_555 1_555
C16 C5 1_555 1_555
C17 C4 1_555 1_555
C18 C4 1_555 1_555
H21 C18 1_555 1_555
H22 C18 1_555 1_555
H23 C18 1_555 1_555
C19 C9 1_555 1_555
H24 C19 1_555 1_555
H25 C19 1_555 1_555
H26 C19 1_555 1_555
H1F N1 1_555 1_555
C3F C12 1_555 1_555
C2F C1 1_555 1_555
C5F C2F 1_555 1_555
C16F C5F 1_555 1_555
C8F C16F 1_555 1_555
C7F C8F 1_555 1_555
C6F C7F 1_555 1_555
H4F C6F 1_555 1_555
C17F C5F 1_555 1_555
C4F C17F 1_555 1_555
H3F C4F 1_555 1_555
C11F C4F 1_555 1_555
H10F C11F 1_555 1_555
H11F C11F 1_555 1_555
H12F C11F 1_555 1_555
C18F C4F 1_555 1_555
H21F C18F 1_555 1_555
H22F C18F 1_555 1_555
H23F C18F 1_555 1_555
C13F C7F 1_555 1_555
H14F C13F 1_555 1_555
C14F C13F 1_555 1_555
H15F C14F 1_555 1_555
H16F C14F 1_555 1_555
H17F C14F 1_555 1_555
C15F C13F 1_555 1_555
H18F C15F 1_555 1_555
H19F C15F 1_555 1_555
H20F C15F 1_555 1_555
H5F C8F 1_555 1_555
C9F C16F 1_555 1_555
H6F C9F 1_555 1_555
C10F C9F 1_555 1_555
H7F C10F 1_555 1_555
H8F C10F 1_555 1_555
H9F C10F 1_555 1_555
C19F C9F 1_555 1_555
H24F C19F 1_555 1_555
H25F C19F 1_555 1_555
H26F C19F 1_555 1_555
H2F C3F 1_555 1_555
C5 C17 1_555 1_555
C6 C17 1_555 1_555
C8 C16 1_555 1_555
C9 C16 1_555 1_555
C3F C2F 1_555 1_555
C6F C17F 1_555 1_555

#END
