
#######################################################################
#
#                 Cambridge Crystallographic Data Centre
#                                CCDC 
#
#######################################################################
#
# If this CIF has been generated from an entry in the Cambridge 
# Structural Database, then it will include bibliographic, chemical, 
# crystal, experimental, refinement or atomic coordinate data resulting 
# from the CCDC's data processing and validation procedures.
#
#######################################################################

data_XASTOD
_chemical_formula_moiety         'C19 H20 N4 S2,0.34(H2 O1)'
_chemical_name_systematic        
'(4-t-butyl-5-((5-(pyrrolidin-1-yl)-2-thienyl)methylene)-1,3-thiazol-2(5H)-ylidene)malononitrile hydrate'
_symmetry_cell_setting           triclinic
_symmetry_space_group_name_H-M   'P -1'
_symmetry_Int_Tables_number      2
_space_group_name_Hall           '-P 1'
loop_
_symmetry_equiv_pos_site_id
_symmetry_equiv_pos_as_xyz
1 x,y,z
2 -x,-y,-z
_cell_length_a                   6.7620(4)
_cell_length_b                   9.8326(7)
_cell_length_c                   15.0722(10)
_cell_angle_alpha                76.998(4)
_cell_angle_beta                 82.280(4)
_cell_angle_gamma                88.894(4)
_cell_volume                     967.517
_exptl_crystal_colour            blue
_exptl_crystal_description       needle
_cell_formula_units_Z            2
loop_
_atom_site_label
_atom_site_type_symbol
_atom_site_fract_x
_atom_site_fract_y
_atom_site_fract_z
C1 C 0.3188(2) 0.82535(15) 0.25969(10)
C2 C 0.1674(3) 0.88207(17) 0.84170(11)
C3 C 0.1355(3) 0.63257(17) 0.91199(11)
H1 H 0.0403 0.9307 0.8310
H2 H 0.2787 0.9377 0.8012
C4 C 0.1991(12) 0.8578(7) 0.9439(5)
H3 H 0.3419 0.8451 0.9516
H4 H 0.1456 0.9356 0.9714
C5 C 0.0781(11) 0.7223(5) 0.9853(3)
H5 H -0.0670 0.7408 0.9927
H6 H 0.1171 0.6755 1.0457
H7 H 0.2604 0.5807 0.9223
H8 H 0.0275 0.5658 0.9124
C6 C 0.1827(2) 0.71479(15) 0.74276(10)
C7 C 0.1862(2) 0.58302(15) 0.71920(11)
H9 H 0.1724 0.4964 0.7629
C8 C 0.2119(2) 0.59528(15) 0.62624(11)
H10 H 0.2184 0.5165 0.5993
C9 C 0.2282(2) 0.73408(14) 0.57296(10)
C10 C 0.2546(2) 0.76902(14) 0.47844(10)
H11 H 0.2620 0.6919 0.4499
C11 C 0.2724(2) 0.90016(14) 0.41758(10)
C12 C 0.3004(2) 0.93181(14) 0.32030(10)
C13 C 0.29358(19) 1.14902(14) 0.34124(9)
C14 C 0.2992(2) 1.29578(14) 0.31786(10)
C15 C 0.2799(2) 1.37183(14) 0.38832(10)
C16 C 0.3222(2) 1.36939(15) 0.22511(11)
C17 C 0.1259(2) 0.73665(16) 0.27759(12)
H12 H 0.0119 0.7980 0.2659
H13 H 0.1065 0.6840 0.3416
H14 H 0.1367 0.6716 0.2366
C18 C 0.5008(2) 0.73109(16) 0.27852(11)
H15 H 0.5133 0.6651 0.2381
H16 H 0.4824 0.6794 0.3428
H17 H 0.6220 0.7890 0.2666
C19 C 0.3502(2) 0.89895(17) 0.15761(11)
H18 H 0.2349 0.9576 0.1430
H19 H 0.3646 0.8290 0.1201
H20 H 0.4711 0.9573 0.1445
N1 N 0.16230(19) 0.74055(13) 0.82565(9)
N2 N 0.31133(17) 1.06837(12) 0.27913(8)
N3 N 0.2636(2) 1.43003(14) 0.44717(10)
N4 N 0.3399(2) 1.43143(15) 0.14962(10)
S1 S 0.20978(5) 0.85153(3) 0.64642(2)
S2 S 0.26180(5) 1.05724(3) 0.45479(2)
O1 O 0.5899(7) 0.6653(4) 1.0238(3)
H29 H 0.4990 0.6012 1.0733
H30 H 0.5774 0.6338 0.9690
H21? H 0.0688 0.9431 0.8095
H22? H 0.3020 0.9251 0.8223
C20? C 0.1120(14) 0.8531(9) 0.9452(6)
H23? H 0.1740 0.9232 0.9713
H24? H -0.0345 0.8543 0.9621
C21? C 0.1937(16) 0.7092(5) 0.9791(4)
H25? H 0.3405 0.7121 0.9774
H26? H 0.1319 0.6666 1.0424
H27? H 0.2236 0.5520 0.9079
H28? H -0.0048 0.5994 0.9283
loop_
_geom_bond_atom_site_label_1
_geom_bond_atom_site_label_2
_geom_bond_site_symmetry_1
_geom_bond_site_symmetry_2
C1 C12 1_555 1_555
C2 H1 1_555 1_555
C3 C5 1_555 1_555
H2 C2 1_555 1_555
C4 C2 1_555 1_555
H3 C4 1_555 1_555
H4 C4 1_555 1_555
C5 C4 1_555 1_555
H5 C5 1_555 1_555
H6 C5 1_555 1_555
H7 C3 1_555 1_555
H8 C3 1_555 1_555
C6 C7 1_555 1_555
C7 H9 1_555 1_555
C8 C7 1_555 1_555
H10 C8 1_555 1_555
C9 C8 1_555 1_555
C10 C9 1_555 1_555
H11 C10 1_555 1_555
C11 C10 1_555 1_555
C12 C11 1_555 1_555
C13 C14 1_555 1_555
C14 C15 1_555 1_555
C15 N3 1_555 1_555
C16 C14 1_555 1_555
C17 C1 1_555 1_555
H12 C17 1_555 1_555
H13 C17 1_555 1_555
H14 C17 1_555 1_555
C18 C1 1_555 1_555
H15 C18 1_555 1_555
H16 C18 1_555 1_555
H17 C18 1_555 1_555
C19 C1 1_555 1_555
H18 C19 1_555 1_555
H19 C19 1_555 1_555
H20 C19 1_555 1_555
N1 C2 1_555 1_555
N2 C12 1_555 1_555
N4 C16 1_555 1_555
S1 C6 1_555 1_555
S2 C11 1_555 1_555
O1 H29 1_555 1_555
H30 O1 1_555 1_555
C3 N1 1_555 1_555
C6 N1 1_555 1_555
C9 S1 1_555 1_555
C13 N2 1_555 1_555
C13 S2 1_555 1_555

#END
