
#######################################################################
#
#                 Cambridge Crystallographic Data Centre
#                                CCDC 
#
#######################################################################
#
# If this CIF has been generated from an entry in the Cambridge 
# Structural Database, then it will include bibliographic, chemical, 
# crystal, experimental, refinement or atomic coordinate data resulting 
# from the CCDC's data processing and validation procedures.
#
#######################################################################

data_XASTIU
_chemical_formula_moiety         'C36 H51 As1'
_chemical_name_systematic        
2,6-bis(2,4,6-Tri-isopropylphenyl)phenylarsine
_symmetry_cell_setting           orthorhombic
_symmetry_space_group_name_H-M   'P n m a'
_symmetry_Int_Tables_number      62
_space_group_name_Hall           '-P 2ac 2n'
loop_
_symmetry_equiv_pos_site_id
_symmetry_equiv_pos_as_xyz
1 x,y,z
2 1/2-x,-y,1/2+z
3 -x,1/2+y,-z
4 1/2+x,1/2-y,1/2-z
5 -x,-y,-z
6 1/2+x,y,1/2-z
7 x,1/2-y,z
8 1/2-x,1/2+y,1/2+z
_cell_length_a                   8.167(2)
_cell_length_b                   25.828(7)
_cell_length_c                   16.083(5)
_cell_angle_alpha                90
_cell_angle_beta                 90
_cell_angle_gamma                90
_cell_volume                     3392.5
_exptl_crystal_colour            colorless
_exptl_crystal_description       needle
_chemical_melting_point          225-226deg.C
_cell_formula_units_Z            4
loop_
_atom_site_label
_atom_site_type_symbol
_atom_site_fract_x
_atom_site_fract_y
_atom_site_fract_z
As1 As 0.24712(6) 0.7500 0.08126(3)
C1 C 0.4211(4) 0.7500 -0.00346(18)
C2 C 0.4833(3) 0.79695(8) -0.03294(13)
C3 C 0.6047(3) 0.79602(9) -0.09287(15)
H1 H 0.648(3) 0.8273(10) -0.1104(15)
C4 C 0.2198(4) 0.85263(12) -0.1200(2)
H2 H 0.253(4) 0.8205(14) -0.130(2)
C5 C 0.4214(3) 0.84776(8) 0.00046(14)
C6 C 0.2350(3) 0.91923(10) -0.0061(2)
H3 H 0.152(4) 0.9357(11) -0.0280(17)
C7 C 0.2978(4) 0.94057(10) 0.0643(2)
C8 C 0.4253(4) 0.91495(11) 0.10307(19)
H4 H 0.477(4) 0.9249(11) 0.1499(19)
C9 C 0.6344(4) 0.84327(12) 0.11538(19)
H5 H 0.651(4) 0.8091(12) 0.0934(19)
C10 C 0.6072(5) 0.83399(15) 0.2069(2)
H6 H 0.5041 0.8169 0.2149
H7 H 0.6066 0.8665 0.2357
H8 H 0.6937 0.8126 0.2283
C11 C 0.0358(5) 0.84395(17) -0.1137(3)
H9 H 0.0132 0.8203 -0.0691
H10 H -0.0040 0.8297 -0.1650
H11 H -0.0178 0.8764 -0.1031
C12 C 0.6645(5) 0.7500 -0.1228(3)
H12 H 0.751(4) 0.7500 -0.163(3)
C13 C 0.2313(4) 0.99130(13) 0.0991(3)
H13 H 0.150(4) 1.0013(15) 0.065(2)
C14 C 0.3448(6) 1.03321(12) 0.0979(3)
H14 H 0.2906 1.0644 0.1152
H15 H 0.3866 1.0376 0.0426
H16 H 0.4336 1.0259 0.1352
C15 C 0.1285(5) 0.98409(13) 0.1708(3)
H17 H 0.0776 1.0164 0.1852
H18 H 0.1938 0.9722 0.2166
H19 H 0.0456 0.9589 0.1584
H20 H 0.147(5) 0.7039(11) 0.060(3)
C16 C 0.4900(3) 0.86858(9) 0.07225(15)
C17 C 0.2936(3) 0.87326(9) -0.03988(17)
C18 C 0.2583(5) 0.88739(18) -0.1927(2)
H21 H 0.3747 0.8919 -0.1969
H22 H 0.2072 0.9205 -0.1845
H23 H 0.2176 0.8720 -0.2429
C19 C 0.7901(5) 0.8747(2) 0.1024(3)
H24 H 0.8117 0.8779 0.0440
H25 H 0.8803 0.8574 0.1288
H26 H 0.7766 0.9085 0.1262
C3F C 0.6047(3) 0.70398(9) -0.09287(15)
C2F C 0.4833(3) 0.70305(8) -0.03294(13)
C5F C 0.4214(3) 0.65224(8) 0.00046(14)
C16F C 0.4900(3) 0.63142(9) 0.07225(15)
C8F C 0.4253(4) 0.58505(11) 0.10307(19)
C7F C 0.2978(4) 0.55943(10) 0.0643(2)
C6F C 0.2350(3) 0.58077(10) -0.0061(2)
H3F H 0.152(4) 0.5643(11) -0.0280(17)
C17F C 0.2936(3) 0.62674(9) -0.03988(17)
C4F C 0.2198(4) 0.64737(12) -0.1200(2)
H2F H 0.253(4) 0.6795(14) -0.130(2)
C11F C 0.0358(5) 0.65605(17) -0.1137(3)
H9F H 0.0132 0.6797 -0.0691
H10F H -0.0040 0.6703 -0.1650
H11F H -0.0178 0.6236 -0.1031
C18F C 0.2583(5) 0.61261(18) -0.1927(2)
H21F H 0.3747 0.6081 -0.1969
H22F H 0.2072 0.5795 -0.1845
H23F H 0.2176 0.6280 -0.2429
C13F C 0.2313(4) 0.50870(13) 0.0991(3)
H13F H 0.150(4) 0.4987(15) 0.065(2)
C14F C 0.3448(6) 0.46679(12) 0.0979(3)
H14F H 0.2906 0.4356 0.1152
H15F H 0.3866 0.4624 0.0426
H16F H 0.4336 0.4741 0.1352
C15F C 0.1285(5) 0.51591(13) 0.1708(3)
H17F H 0.0776 0.4836 0.1852
H18F H 0.1938 0.5278 0.2166
H19F H 0.0456 0.5411 0.1584
H4F H 0.477(4) 0.5751(11) 0.1499(19)
C9F C 0.6344(4) 0.65673(12) 0.11538(19)
H5F H 0.651(4) 0.6909(12) 0.0934(19)
C10F C 0.6072(5) 0.66601(15) 0.2069(2)
H6F H 0.5041 0.6831 0.2149
H7F H 0.6066 0.6335 0.2357
H8F H 0.6937 0.6874 0.2283
C19F C 0.7901(5) 0.6253(2) 0.1024(3)
H24F H 0.8117 0.6221 0.0440
H25F H 0.8803 0.6426 0.1288
H26F H 0.7766 0.5915 0.1262
H1F H 0.648(3) 0.6727(10) -0.1104(15)
H20F H 0.147(5) 0.7961(11) 0.060(3)
loop_
_geom_bond_atom_site_label_1
_geom_bond_atom_site_label_2
_geom_bond_site_symmetry_1
_geom_bond_site_symmetry_2
As1 C1 1_555 1_555
C1 C2 1_555 1_555
C2 C3 1_555 1_555
C3 H1 1_555 1_555
C4 H2 1_555 1_555
C5 C2 1_555 1_555
C6 H3 1_555 1_555
C7 C6 1_555 1_555
C8 C7 1_555 1_555
H4 C8 1_555 1_555
C9 H5 1_555 1_555
C10 C9 1_555 1_555
H6 C10 1_555 1_555
H7 C10 1_555 1_555
H8 C10 1_555 1_555
C11 C4 1_555 1_555
H9 C11 1_555 1_555
H10 C11 1_555 1_555
H11 C11 1_555 1_555
C12 C3 1_555 1_555
H12 C12 1_555 1_555
C13 C7 1_555 1_555
H13 C13 1_555 1_555
C14 C13 1_555 1_555
H14 C14 1_555 1_555
H15 C14 1_555 1_555
H16 C14 1_555 1_555
C15 C13 1_555 1_555
H17 C15 1_555 1_555
H18 C15 1_555 1_555
H19 C15 1_555 1_555
H20 As1 1_555 1_555
C16 C5 1_555 1_555
C17 C4 1_555 1_555
C18 C4 1_555 1_555
H21 C18 1_555 1_555
H22 C18 1_555 1_555
H23 C18 1_555 1_555
C19 C9 1_555 1_555
H24 C19 1_555 1_555
H25 C19 1_555 1_555
H26 C19 1_555 1_555
C3F C12 1_555 1_555
C2F C1 1_555 1_555
C5F C2F 1_555 1_555
C16F C5F 1_555 1_555
C8F C16F 1_555 1_555
C7F C8F 1_555 1_555
C6F C7F 1_555 1_555
H3F C6F 1_555 1_555
C17F C5F 1_555 1_555
C4F C17F 1_555 1_555
H2F C4F 1_555 1_555
C11F C4F 1_555 1_555
H9F C11F 1_555 1_555
H10F C11F 1_555 1_555
H11F C11F 1_555 1_555
C18F C4F 1_555 1_555
H21F C18F 1_555 1_555
H22F C18F 1_555 1_555
H23F C18F 1_555 1_555
C13F C7F 1_555 1_555
H13F C13F 1_555 1_555
C14F C13F 1_555 1_555
H14F C14F 1_555 1_555
H15F C14F 1_555 1_555
H16F C14F 1_555 1_555
C15F C13F 1_555 1_555
H17F C15F 1_555 1_555
H18F C15F 1_555 1_555
H19F C15F 1_555 1_555
H4F C8F 1_555 1_555
C9F C16F 1_555 1_555
H5F C9F 1_555 1_555
C10F C9F 1_555 1_555
H6F C10F 1_555 1_555
H7F C10F 1_555 1_555
H8F C10F 1_555 1_555
C19F C9F 1_555 1_555
H24F C19F 1_555 1_555
H25F C19F 1_555 1_555
H26F C19F 1_555 1_555
H1F C3F 1_555 1_555
H20F As1 1_555 1_555
C5 C17 1_555 1_555
C6 C17 1_555 1_555
C8 C16 1_555 1_555
C9 C16 1_555 1_555
C3F C2F 1_555 1_555
C6F C17F 1_555 1_555

#END
