
#######################################################################
#
#                 Cambridge Crystallographic Data Centre
#                                CCDC 
#
#######################################################################
#
# If this CIF has been generated from an entry in the Cambridge 
# Structural Database, then it will include bibliographic, chemical, 
# crystal, experimental, refinement or atomic coordinate data resulting 
# from the CCDC's data processing and validation procedures.
#
#######################################################################

data_XASYOG
_chemical_formula_moiety         'C27 H23 N1'
_chemical_name_systematic        trans-4-(N,N-Diphenylaminomethyl)stilbene
_symmetry_cell_setting           monoclinic
_symmetry_space_group_name_H-M   'P 21'
_symmetry_Int_Tables_number      4
_space_group_name_Hall           'P 2yb'
loop_
_symmetry_equiv_pos_site_id
_symmetry_equiv_pos_as_xyz
1 x,y,z
2 -x,1/2+y,-z
_cell_length_a                   8.9367(7)
_cell_length_b                   5.8108(4)
_cell_length_c                   19.5331(15)
_cell_angle_alpha                90
_cell_angle_beta                 92.800(2)
_cell_angle_gamma                90
_cell_volume                     1013.13
_exptl_crystal_colour            colorless
_exptl_crystal_description       equant
_chemical_melting_point          133-134deg.C
_cell_formula_units_Z            2
_exptl_crystal_recrystallization_method hexane/dichloromethane
loop_
_atom_site_label
_atom_site_type_symbol
_atom_site_fract_x
_atom_site_fract_y
_atom_site_fract_z
N1 N 0.32063(13) 0.6235(2) 0.36105(5)
C1 C 0.27075(14) 0.7538(2) 0.41731(6)
C2 C 0.13518(16) 0.8673(3) 0.41164(8)
C3 C 0.08445(19) 0.9889(3) 0.46689(11)
C4 C 0.1690(2) 0.9990(3) 0.52718(10)
C5 C 0.3019(2) 0.8843(4) 0.53355(8)
C6 C 0.35412(16) 0.7598(3) 0.47891(7)
C7 C 0.45884(15) 0.6620(3) 0.33352(6)
C8 C 0.54183(16) 0.8600(3) 0.34977(7)
C9 C 0.68022(17) 0.8947(4) 0.32232(9)
C10 C 0.73696(17) 0.7377(4) 0.27746(9)
C11 C 0.65452(19) 0.5466(4) 0.26006(8)
C12 C 0.51638(16) 0.5067(3) 0.28711(7)
C13 C 0.22576(16) 0.4330(3) 0.33756(7)
C14 C 0.14648(14) 0.4634(2) 0.26765(6)
C15 C 0.16324(14) 0.6581(2) 0.22762(7)
C16 C 0.08638(14) 0.6792(2) 0.16474(7)
C17 C -0.01044(14) 0.5092(3) 0.13983(6)
C18 C -0.02562(15) 0.3117(3) 0.17991(7)
C19 C 0.05199(15) 0.2905(2) 0.24240(7)
C20 C -0.09381(15) 0.5446(3) 0.07390(7)
C21 C -0.19914(16) 0.4112(3) 0.04604(7)
C22 C -0.28751(15) 0.4514(2) -0.01827(7)
C23 C -0.27214(15) 0.6475(3) -0.05866(7)
C24 C -0.35885(18) 0.6768(3) -0.11809(7)
C25 C -0.46182(18) 0.5118(3) -0.13901(7)
C26 C -0.47853(18) 0.3182(3) -0.09963(8)
C27 C -0.39265(17) 0.2881(3) -0.04029(7)
H1 H 0.0769 0.8517 0.3666
H2 H -0.0155 1.0645 0.4591
H3 H 0.1326 1.0705 0.5671
H4 H 0.3616 0.8837 0.5746
H5 H 0.4505 0.6783 0.4831
H6 H 0.5032 0.9657 0.3818
H7 H 0.7354 1.0303 0.3346
H8 H 0.8290 0.7728 0.2566
H9 H 0.6937 0.4357 0.2260
H10 H 0.4619 0.3660 0.2721
H11 H 0.1516 0.4172 0.3681
H12 H 0.2814 0.2872 0.3345
H13 H 0.2320 0.7784 0.2413
H14 H 0.1031 0.8193 0.1359
H15 H -0.0892 0.1879 0.1636
H16 H 0.0431 0.1573 0.2678
H17 H -0.0642 0.6847 0.0461
H18 H -0.2254 0.2603 0.0707
H19 H -0.1999 0.7652 -0.0454
H20 H -0.3487 0.8095 -0.1442
H21 H -0.5224 0.5355 -0.1791
H22 H -0.5498 0.2052 -0.1121
H23 H -0.4022 0.1567 -0.0132
loop_
_geom_bond_atom_site_label_1
_geom_bond_atom_site_label_2
_geom_bond_site_symmetry_1
_geom_bond_site_symmetry_2
N1 C1 1_555 1_555
C1 C2 1_555 1_555
C2 C3 1_555 1_555
C3 C4 1_555 1_555
C4 C5 1_555 1_555
C5 C6 1_555 1_555
C6 C1 1_555 1_555
C7 N1 1_555 1_555
C8 C7 1_555 1_555
C9 C8 1_555 1_555
C10 C9 1_555 1_555
C11 C10 1_555 1_555
C12 C7 1_555 1_555
C13 N1 1_555 1_555
C14 C13 1_555 1_555
C15 C14 1_555 1_555
C16 C15 1_555 1_555
C17 C16 1_555 1_555
C18 C17 1_555 1_555
C19 C14 1_555 1_555
C20 C17 1_555 1_555
C21 C20 1_555 1_555
C22 C21 1_555 1_555
C23 C22 1_555 1_555
C24 C23 1_555 1_555
C25 C24 1_555 1_555
C26 C25 1_555 1_555
C27 C22 1_555 1_555
H1 C2 1_555 1_555
H2 C3 1_555 1_555
H3 C4 1_555 1_555
H4 C5 1_555 1_555
H5 C6 1_555 1_555
H6 C8 1_555 1_555
H7 C9 1_555 1_555
H8 C10 1_555 1_555
H9 C11 1_555 1_555
H10 C12 1_555 1_555
H11 C13 1_555 1_555
H12 C13 1_555 1_555
H13 C15 1_555 1_555
H14 C16 1_555 1_555
H15 C18 1_555 1_555
H16 C19 1_555 1_555
H17 C20 1_555 1_555
H18 C21 1_555 1_555
H19 C23 1_555 1_555
H20 C24 1_555 1_555
H21 C25 1_555 1_555
H22 C26 1_555 1_555
H23 C27 1_555 1_555
C11 C12 1_555 1_555
C18 C19 1_555 1_555
C26 C27 1_555 1_555

#END
