
#######################################################################
#
#                 Cambridge Crystallographic Data Centre
#                                CCDC 
#
#######################################################################
#
# If this CIF has been generated from an entry in the Cambridge 
# Structural Database, then it will include bibliographic, chemical, 
# crystal, experimental, refinement or atomic coordinate data resulting 
# from the CCDC's data processing and validation procedures.
#
#######################################################################

data_XASZID
_chemical_name_common            'Non-natural Gabosine'
_chemical_formula_moiety         'C7 H10 O4'
_chemical_name_systematic        
(4R,5R,6R)-4,5,6-trihydroxy-3-methylcyclohex-2-enone
_symmetry_cell_setting           orthorhombic
_symmetry_space_group_name_H-M   'P 21 21 21'
_symmetry_Int_Tables_number      19
_space_group_name_Hall           'P 2ac 2ab'
loop_
_symmetry_equiv_pos_site_id
_symmetry_equiv_pos_as_xyz
1 x,y,z
2 1/2-x,-y,1/2+z
3 -x,1/2+y,1/2-z
4 1/2+x,1/2-y,-z
_cell_length_a                   4.6455(3)
_cell_length_b                   10.4686(5)
_cell_length_c                   15.0844(8)
_cell_angle_alpha                90
_cell_angle_beta                 90
_cell_angle_gamma                90
_cell_volume                     733.583
_exptl_crystal_colour            colorless
_exptl_crystal_description       plate
_chemical_melting_point          '460.7 K'
_cell_formula_units_Z            4
_exptl_crystal_recrystallization_method 'ethyl acetate/hexane'
loop_
_atom_site_label
_atom_site_type_symbol
_atom_site_fract_x
_atom_site_fract_y
_atom_site_fract_z
O1 O 0.4798(9) 0.1771(3) 0.3685(2)
C1 C 0.3974(10) 0.4968(4) 0.4431(3)
O2 O 0.1637(6) 0.2599(3) 0.22634(19)
H1 H 0.3261 0.2421 0.2090
C2 C 0.4599(12) 0.3724(4) 0.4438(3)
H2 H 0.5553 0.3392 0.4929
C3 C 0.3864(10) 0.2861(4) 0.3717(3)
O3 O 0.5536(6) 0.4721(2) 0.25015(19)
H3 H 0.5845 0.5361 0.2203
C4 C 0.1826(9) 0.3378(4) 0.3026(3)
H4 H -0.0094 0.3402 0.3295
O4 O 0.3295(7) 0.6826(2) 0.35221(19)
H5 H 0.2083 0.7212 0.3232
C5 C 0.2667(9) 0.4750(4) 0.2820(3)
H6 H 0.1395 0.5091 0.2359
C6 C 0.2362(9) 0.5543(3) 0.3659(3)
H7 H 0.0315 0.5567 0.3816
C7 C 0.4694(16) 0.5821(5) 0.5197(3)
H8 H 0.5846 0.6523 0.4992
H9 H 0.5747 0.5345 0.5633
H10 H 0.2949 0.6142 0.5455
loop_
_geom_bond_atom_site_label_1
_geom_bond_atom_site_label_2
_geom_bond_site_symmetry_1
_geom_bond_site_symmetry_2
O1 C3 1_555 1_555
C1 C2 1_555 1_555
O2 H1 1_555 1_555
C2 H2 1_555 1_555
C3 C2 1_555 1_555
O3 H3 1_555 1_555
C4 O2 1_555 1_555
H4 C4 1_555 1_555
O4 H5 1_555 1_555
C5 O3 1_555 1_555
H6 C5 1_555 1_555
C6 C1 1_555 1_555
H7 C6 1_555 1_555
C7 C1 1_555 1_555
H8 C7 1_555 1_555
H9 C7 1_555 1_555
H10 C7 1_555 1_555
C3 C4 1_555 1_555
C4 C5 1_555 1_555
O4 C6 1_555 1_555
C5 C6 1_555 1_555

#END
