
#######################################################################
#
#                 Cambridge Crystallographic Data Centre
#                                CCDC 
#
#######################################################################
#
# If this CIF has been generated from an entry in the Cambridge 
# Structural Database, then it will include bibliographic, chemical, 
# crystal, experimental, refinement or atomic coordinate data resulting 
# from the CCDC's data processing and validation procedures.
#
#######################################################################

data_XATBEZ
_chemical_formula_moiety         'C14 H18 Br1 Cl3 N2 Si1'
_chemical_name_systematic        Bromo-trichloro-bis(3,4-lutidine-N)-silicon
_symmetry_cell_setting           orthorhombic
_symmetry_space_group_name_H-M   'C m c a'
_symmetry_Int_Tables_number      64
_space_group_name_Hall           '-C 2ac 2'
loop_
_symmetry_equiv_pos_site_id
_symmetry_equiv_pos_as_xyz
1 x,y,z
2 1/2+x,1/2+y,z
3 x,1/2+y,1/2-z
4 x,1/2-y,1/2+z
5 -x,y,z
6 1/2+x,y,1/2-z
7 1/2+x,-y,1/2+z
8 1/2-x,1/2+y,z
9 -x,-y,-z
10 1/2-x,1/2-y,-z
11 -x,1/2-y,1/2+z
12 -x,1/2+y,1/2-z
13 x,-y,-z
14 1/2-x,-y,1/2+z
15 1/2-x,y,1/2-z
16 1/2+x,1/2-y,-z
_cell_length_a                   7.3310(10)
_cell_length_b                   17.053(2)
_cell_length_c                   13.1740(10)
_cell_angle_alpha                90
_cell_angle_beta                 90
_cell_angle_gamma                90
_cell_volume                     1646.95
_exptl_crystal_colour            colorless
_exptl_crystal_description       block
_cell_formula_units_Z            4
loop_
_atom_site_label
_atom_site_type_symbol
_atom_site_fract_x
_atom_site_fract_y
_atom_site_fract_z
Si1 Si 0.5000 0.5000 0.0000
Cl1 Cl 0.2924(5) 0.4240(3) 0.0665(4)
N1 N 0.5000 0.5644(2) 0.1252(3)
C1 C 0.5000 0.6437(3) 0.1201(4)
H1 H 0.5000 0.6675 0.0549
C2 C 0.5000 0.6920(3) 0.2043(4)
C3 C 0.5000 0.7797(3) 0.1908(4)
H2 H 0.5000 0.7917 0.1204
H3 H 0.3927 0.8011 0.2216
C4 C 0.5000 0.6574(3) 0.3011(4)
C5 C 0.5000 0.7057(3) 0.3967(4)
H4 H 0.5000 0.6724 0.4543
H5 H 0.3927 0.7377 0.3979
C6 C 0.5000 0.5754(3) 0.3062(4)
H6 H 0.5000 0.5500 0.3704
C7 C 0.5000 0.5313(3) 0.2183(4)
H7 H 0.5000 0.4758 0.2235
Cl1D Cl 0.7076(5) 0.4240(3) 0.0665(4)
Cl1H Cl 0.7076(5) 0.5760(3) -0.0665(4)
Cl1L Cl 0.2924(5) 0.5760(3) -0.0665(4)
H3D H 0.6073 0.8011 0.2216
H5D H 0.6073 0.7377 0.3979
N1H N 0.5000 0.4356(2) -0.1252(3)
C1H C 0.5000 0.3563(3) -0.1201(4)
H1H H 0.5000 0.3325 -0.0549
C2H C 0.5000 0.3080(3) -0.2043(4)
C3H C 0.5000 0.2203(3) -0.1908(4)
H2H H 0.5000 0.2083 -0.1204
H3H H 0.6073 0.1989 -0.2216
H3L H 0.3927 0.1989 -0.2216
C4H C 0.5000 0.3426(3) -0.3011(4)
C5H C 0.5000 0.2943(3) -0.3967(4)
H4H H 0.5000 0.3276 -0.4543
H5H H 0.6073 0.2623 -0.3979
H5L H 0.3927 0.2623 -0.3979
C6H C 0.5000 0.4246(3) -0.3062(4)
H6H H 0.5000 0.4500 -0.3704
C7H C 0.5000 0.4687(3) -0.2183(4)
H7H H 0.5000 0.5242 -0.2235
Br1? Br 0.2614(8) 0.4225(4) 0.0683(7)
loop_
_geom_bond_atom_site_label_1
_geom_bond_atom_site_label_2
_geom_bond_site_symmetry_1
_geom_bond_site_symmetry_2
Si1 Cl1 1_555 1_555
N1 Si1 1_555 1_555
C1 N1 1_555 1_555
H1 C1 1_555 1_555
C2 C1 1_555 1_555
C3 C2 1_555 1_555
H2 C3 1_555 1_555
H3 C3 1_555 1_555
C4 C2 1_555 1_555
C5 C4 1_555 1_555
H4 C5 1_555 1_555
H5 C5 1_555 1_555
C6 C4 1_555 1_555
H6 C6 1_555 1_555
C7 N1 1_555 1_555
H7 C7 1_555 1_555
Cl1D Si1 1_555 1_555
Cl1H Si1 1_555 1_555
Cl1L Si1 1_555 1_555
H3D C3 1_555 1_555
H5D C5 1_555 1_555
N1H Si1 1_555 1_555
C1H N1H 1_555 1_555
H1H C1H 1_555 1_555
C2H C1H 1_555 1_555
C3H C2H 1_555 1_555
H2H C3H 1_555 1_555
H3H C3H 1_555 1_555
H3L C3H 1_555 1_555
C4H C2H 1_555 1_555
C5H C4H 1_555 1_555
H4H C5H 1_555 1_555
H5H C5H 1_555 1_555
H5L C5H 1_555 1_555
C6H C4H 1_555 1_555
H6H C6H 1_555 1_555
C7H N1H 1_555 1_555
H7H C7H 1_555 1_555
C6 C7 1_555 1_555
C6H C7H 1_555 1_555

#END
