
#######################################################################
#
#                 Cambridge Crystallographic Data Centre
#                                CCDC 
#
#######################################################################
#
# If this CIF has been generated from an entry in the Cambridge 
# Structural Database, then it will include bibliographic, chemical, 
# crystal, experimental, refinement or atomic coordinate data resulting 
# from the CCDC's data processing and validation procedures.
#
#######################################################################

data_XATBOJ
_chemical_formula_moiety         'C14 H18 Br3 Cl1 N2 Si1'
_chemical_name_systematic        Tribromo-chloro-bis(3,4-lutidine-N)-silicon
_symmetry_cell_setting           orthorhombic
_symmetry_space_group_name_H-M   'C m c a'
_symmetry_Int_Tables_number      64
_space_group_name_Hall           '-C 2ac 2'
loop_
_symmetry_equiv_pos_site_id
_symmetry_equiv_pos_as_xyz
1 x,y,z
2 1/2+x,1/2+y,z
3 x,1/2+y,1/2-z
4 x,1/2-y,1/2+z
5 -x,y,z
6 1/2+x,y,1/2-z
7 1/2+x,-y,1/2+z
8 1/2-x,1/2+y,z
9 -x,-y,-z
10 1/2-x,1/2-y,-z
11 -x,1/2-y,1/2+z
12 -x,1/2+y,1/2-z
13 x,-y,-z
14 1/2-x,-y,1/2+z
15 1/2-x,y,1/2-z
16 1/2+x,1/2-y,-z
_cell_length_a                   7.442(2)
_cell_length_b                   17.567(4)
_cell_length_c                   13.168(3)
_cell_angle_alpha                90
_cell_angle_beta                 90
_cell_angle_gamma                90
_cell_volume                     1721.5
_exptl_crystal_colour            colorless
_exptl_crystal_description       block
_cell_formula_units_Z            4
loop_
_atom_site_label
_atom_site_type_symbol
_atom_site_fract_x
_atom_site_fract_y
_atom_site_fract_z
Si1 Si 0.0000 0.0000 0.0000
Br1 Br 0.2264(3) 0.07762(13) 0.0728(2)
N1 N 0.0000 -0.06466(14) 0.1240(2)
C1 C 0.0000 -0.14179(18) 0.1174(2)
H1 H 0.0000 -0.1643 0.0517
C2 C 0.0000 -0.18948(18) 0.2012(2)
C3 C 0.0000 -0.27447(19) 0.1855(3)
H2 H 0.0000 -0.2858 0.1126
H3 H -0.1075 -0.2964 0.2169
C4 C 0.0000 -0.15639(19) 0.2983(2)
C5 C 0.0000 -0.2053(2) 0.3927(3)
H4 H 0.0000 -0.1728 0.4532
H5 H -0.1075 -0.2375 0.3929
C6 C 0.0000 -0.07779(19) 0.3050(2)
H6 H 0.0000 -0.0540 0.3698
C7 C 0.0000 -0.03368(19) 0.2185(3)
H7 H 0.0000 0.0202 0.2251
Br1D Br -0.2264(3) 0.07762(13) 0.0728(2)
Br1H Br -0.2264(3) -0.07762(13) -0.0728(2)
Br1L Br 0.2264(3) -0.07762(13) -0.0728(2)
H3D H 0.1075 -0.2964 0.2169
H5D H 0.1075 -0.2375 0.3929
N1H N 0.0000 0.06466(14) -0.1240(2)
C1H C 0.0000 0.14179(18) -0.1174(2)
H1H H 0.0000 0.1643 -0.0517
C2H C 0.0000 0.18948(18) -0.2012(2)
C3H C 0.0000 0.27447(19) -0.1855(3)
H2H H 0.0000 0.2858 -0.1126
H3H H 0.1075 0.2964 -0.2169
H3L H -0.1075 0.2964 -0.2169
C4H C 0.0000 0.15639(19) -0.2983(2)
C5H C 0.0000 0.2053(2) -0.3927(3)
H4H H 0.0000 0.1728 -0.4532
H5H H 0.1075 0.2375 -0.3929
H5L H -0.1075 0.2375 -0.3929
C6H C 0.0000 0.07779(19) -0.3050(2)
H6H H 0.0000 0.0540 -0.3698
C7H C 0.0000 0.03368(19) -0.2185(3)
H7H H 0.0000 -0.0202 -0.2251
Cl1? Cl 0.216(2) 0.0699(10) 0.0663(16)
loop_
_geom_bond_atom_site_label_1
_geom_bond_atom_site_label_2
_geom_bond_site_symmetry_1
_geom_bond_site_symmetry_2
Si1 Br1 1_555 1_555
N1 Si1 1_555 1_555
C1 N1 1_555 1_555
H1 C1 1_555 1_555
C2 C1 1_555 1_555
C3 C2 1_555 1_555
H2 C3 1_555 1_555
H3 C3 1_555 1_555
C4 C2 1_555 1_555
C5 C4 1_555 1_555
H4 C5 1_555 1_555
H5 C5 1_555 1_555
C6 C4 1_555 1_555
H6 C6 1_555 1_555
C7 N1 1_555 1_555
H7 C7 1_555 1_555
Br1D Si1 1_555 1_555
Br1H Si1 1_555 1_555
Br1L Si1 1_555 1_555
H3D C3 1_555 1_555
H5D C5 1_555 1_555
N1H Si1 1_555 1_555
C1H N1H 1_555 1_555
H1H C1H 1_555 1_555
C2H C1H 1_555 1_555
C3H C2H 1_555 1_555
H2H C3H 1_555 1_555
H3H C3H 1_555 1_555
H3L C3H 1_555 1_555
C4H C2H 1_555 1_555
C5H C4H 1_555 1_555
H4H C5H 1_555 1_555
H5H C5H 1_555 1_555
H5L C5H 1_555 1_555
C6H C4H 1_555 1_555
H6H C6H 1_555 1_555
C7H N1H 1_555 1_555
H7H C7H 1_555 1_555
C6 C7 1_555 1_555
C6H C7H 1_555 1_555

#END
