
#######################################################################
#
#                 Cambridge Crystallographic Data Centre
#                                CCDC 
#
#######################################################################
#
# If this CIF has been generated from an entry in the Cambridge 
# Structural Database, then it will include bibliographic, chemical, 
# crystal, experimental, refinement or atomic coordinate data resulting 
# from the CCDC's data processing and validation procedures.
#
#######################################################################

data_XATKOS01
_chemical_formula_moiety         'C16 H14 N2 S3'
_chemical_name_systematic        2,5-bis(Benzylsulfanyl)-1,3,4-thiadiazole
_symmetry_cell_setting           orthorhombic
_symmetry_space_group_name_H-M   'P b c a'
_symmetry_Int_Tables_number      61
_space_group_name_Hall           '-P 2ac 2ab'
loop_
_symmetry_equiv_pos_site_id
_symmetry_equiv_pos_as_xyz
1 x,y,z
2 1/2-x,-y,1/2+z
3 -x,1/2+y,1/2-z
4 1/2+x,1/2-y,-z
5 -x,-y,-z
6 1/2+x,y,1/2-z
7 x,1/2-y,1/2+z
8 1/2-x,1/2+y,z
_cell_length_a                   8.7530(18)
_cell_length_b                   10.365(2)
_cell_length_c                   36.082(7)
_cell_angle_alpha                90
_cell_angle_beta                 90
_cell_angle_gamma                90
_cell_volume                     3273.53
_exptl_crystal_colour            colorless
_exptl_crystal_description       Prismatic
_cell_formula_units_Z            8
_exptl_crystal_recrystallization_method ethanol
loop_
_atom_site_label
_atom_site_type_symbol
_atom_site_fract_x
_atom_site_fract_y
_atom_site_fract_z
S1 S 0.16320(11) 0.48004(13) 0.34433(2)
S2 S 0.09938(10) 0.47800(10) 0.42792(2)
S3 S 0.19967(11) 0.58336(11) 0.50188(3)
N1 N 0.3103(3) 0.6097(4) 0.39699(9)
N2 N 0.3230(3) 0.6367(4) 0.43475(8)
C1 C -0.0004(5) 0.1997(5) 0.30422(14)
H1 H 0.0624 0.1522 0.3199
C2 C -0.0447(6) 0.1483(7) 0.27022(17)
H2 H -0.0124 0.0664 0.2632
C3 C -0.1363(7) 0.2195(8) 0.24723(15)
H3 H -0.1646 0.1864 0.2243
C4 C -0.1864(6) 0.3391(7) 0.25774(15)
H4 H -0.2501 0.3862 0.2422
C5 C -0.1426(5) 0.3894(5) 0.29131(13)
H5 H -0.1765 0.4709 0.2983
C6 C -0.0495(4) 0.3207(4) 0.31461(10)
C7 C -0.0010(4) 0.3757(4) 0.35135(10)
H6 H 0.0255 0.3063 0.3682
H7 H -0.0843 0.4245 0.3622
C8 C 0.2007(4) 0.5303(4) 0.38952(9)
C9 C 0.2201(4) 0.5752(4) 0.45384(10)
C10 C 0.3434(5) 0.7043(5) 0.51259(12)
H8 H 0.4433 0.6741 0.5048
H9 H 0.3209 0.7836 0.4994
C11 C 0.3432(4) 0.7289(4) 0.55381(11)
C12 C 0.4530(5) 0.6731(5) 0.57614(12)
H10 H 0.5249 0.6175 0.5659
C13 C 0.4568(6) 0.6998(5) 0.61393(13)
H11 H 0.5316 0.6624 0.6288
C14 C 0.3515(6) 0.7802(5) 0.62925(12)
H12 H 0.3549 0.7980 0.6545
C15 C 0.2399(5) 0.8353(5) 0.60745(12)
H13 H 0.1675 0.8900 0.6179
C16 C 0.2364(4) 0.8086(4) 0.56982(11)
H14 H 0.1606 0.8452 0.5552
loop_
_geom_bond_atom_site_label_1
_geom_bond_atom_site_label_2
_geom_bond_site_symmetry_1
_geom_bond_site_symmetry_2
S1 C7 1_555 1_555
S2 C8 1_555 1_555
S3 C9 1_555 1_555
N1 N2 1_555 1_555
N2 C9 1_555 1_555
C1 H1 1_555 1_555
C2 C1 1_555 1_555
H2 C2 1_555 1_555
C3 C2 1_555 1_555
H3 C3 1_555 1_555
C4 C3 1_555 1_555
H4 C4 1_555 1_555
C5 C4 1_555 1_555
H5 C5 1_555 1_555
C6 C1 1_555 1_555
C7 C6 1_555 1_555
H6 C7 1_555 1_555
H7 C7 1_555 1_555
C8 S1 1_555 1_555
C9 S2 1_555 1_555
C10 S3 1_555 1_555
H8 C10 1_555 1_555
H9 C10 1_555 1_555
C11 C10 1_555 1_555
C12 C11 1_555 1_555
H10 C12 1_555 1_555
C13 C12 1_555 1_555
H11 C13 1_555 1_555
C14 C13 1_555 1_555
H12 C14 1_555 1_555
C15 C14 1_555 1_555
H13 C15 1_555 1_555
C16 C11 1_555 1_555
H14 C16 1_555 1_555
N1 C8 1_555 1_555
C5 C6 1_555 1_555
C15 C16 1_555 1_555

#END
