
#######################################################################
#
#                 Cambridge Crystallographic Data Centre
#                                CCDC 
#
#######################################################################
#
# If this CIF has been generated from an entry in the Cambridge 
# Structural Database, then it will include bibliographic, chemical, 
# crystal, experimental, refinement or atomic coordinate data resulting 
# from the CCDC's data processing and validation procedures.
#
#######################################################################

data_XATKOV
_chemical_formula_moiety         'C24 H16'
_chemical_name_systematic        2-phenyltetracene
_symmetry_cell_setting           monoclinic
_symmetry_space_group_name_H-M   'P 21'
_symmetry_Int_Tables_number      4
_space_group_name_Hall           'P 2yb'
loop_
_symmetry_equiv_pos_site_id
_symmetry_equiv_pos_as_xyz
1 x,y,z
2 -x,1/2+y,-z
_cell_length_a                   6.1567(7)
_cell_length_b                   7.2515(8)
_cell_length_c                   16.757(2)
_cell_angle_alpha                90
_cell_angle_beta                 95.203(5)
_cell_angle_gamma                90
_cell_volume                     745.039
_exptl_crystal_colour            purple
_exptl_crystal_description       'thin plate'
_cell_formula_units_Z            2
loop_
_atom_site_label
_atom_site_type_symbol
_atom_site_fract_x
_atom_site_fract_y
_atom_site_fract_z
C1 C -1.489(2) -0.414(2) -1.4796(8)
H1 H -1.6176 -0.4490 -1.5094
C2 C -1.314(4) -0.395(4) -1.5162(12)
H2 H -1.3082 -0.4280 -1.5696
C3 C -1.113(2) -0.315(2) -1.4650(9)
H3 H -0.9774 -0.3034 -1.4850
C4 C -1.146(2) -0.265(2) -1.3915(9)
H4 H -1.0293 -0.2134 -1.3600
C5 C -1.351(2) -0.283(3) -1.3565(8)
C6 C -1.493(2) -0.389(3) -1.4125(8)
H5 H -1.6084 -0.4460 -1.3900
C7 C -1.378(3) -0.255(3) -1.2766(10)
C8 C -1.220(3) -0.287(3) -1.2109(10)
H6 H -1.0850 -0.3322 -1.2229
C9 C -1.247(3) -0.260(3) -1.1319(11)
C10 C -1.465(3) -0.173(3) -1.1111(9)
C11 C -1.609(3) -0.145(3) -1.1742(10)
H7 H -1.7424 -0.0943 -1.1638
C12 C -1.582(3) -0.180(3) -1.2492(11)
H8 H -1.6984 -0.1576 -1.2874
C13 C -1.092(3) -0.294(3) -1.0705(10)
H9 H -0.9597 -0.3443 -1.0824
C14 C -1.121(3) -0.256(3) -0.9897(11)
C15 C -1.331(2) -0.177(2) -0.9684(10)
C16 C -1.481(4) -0.135(3) -1.0333(11)
H10 H -1.6069 -0.0734 -1.0214
C17 C -0.963(3) -0.288(3) -0.9256(11)
H11 H -0.8281 -0.3348 -0.9369
C18 C -0.997(3) -0.253(3) -0.8449(11)
C19 C -1.199(3) -0.172(3) -0.8268(10)
C20 C -1.350(3) -0.140(3) -0.8900(10)
H12 H -1.4803 -0.0856 -0.8781
C21 C -0.821(2) -0.301(2) -0.7842(9)
H13 H -0.6906 -0.3507 -0.7983
C22 C -0.852(5) -0.272(5) -0.7106(16)
H14 H -0.7424 -0.3008 -0.6706
C23 C -1.062(3) -0.192(2) -0.6883(10)
H15 H -1.0844 -0.1726 -0.6347
C24 C -1.219(4) -0.147(3) -0.7469(10)
H16 H -1.3482 -0.0959 -0.7321
loop_
_geom_bond_atom_site_label_1
_geom_bond_atom_site_label_2
_geom_bond_site_symmetry_1
_geom_bond_site_symmetry_2
C1 H1 1_555 1_555
C2 C1 1_555 1_555
H2 C2 1_555 1_555
C3 C2 1_555 1_555
H3 C3 1_555 1_555
C4 C3 1_555 1_555
H4 C4 1_555 1_555
C5 C4 1_555 1_555
C6 C1 1_555 1_555
H5 C6 1_555 1_555
C7 C5 1_555 1_555
C8 C7 1_555 1_555
H6 C8 1_555 1_555
C9 C8 1_555 1_555
C10 C9 1_555 1_555
C11 C10 1_555 1_555
H7 C11 1_555 1_555
C12 C7 1_555 1_555
H8 C12 1_555 1_555
C13 C9 1_555 1_555
H9 C13 1_555 1_555
C14 C13 1_555 1_555
C15 C14 1_555 1_555
C16 C10 1_555 1_555
H10 C16 1_555 1_555
C17 C14 1_555 1_555
H11 C17 1_555 1_555
C18 C17 1_555 1_555
C19 C18 1_555 1_555
C20 C15 1_555 1_555
H12 C20 1_555 1_555
C21 C18 1_555 1_555
H13 C21 1_555 1_555
C22 C21 1_555 1_555
H14 C22 1_555 1_555
C23 C22 1_555 1_555
H15 C23 1_555 1_555
C24 C19 1_555 1_555
H16 C24 1_555 1_555
C5 C6 1_555 1_555
C11 C12 1_555 1_555
C15 C16 1_555 1_555
C19 C20 1_555 1_555
C23 C24 1_555 1_555

#END
