
#######################################################################
#
#                 Cambridge Crystallographic Data Centre
#                                CCDC 
#
#######################################################################
#
# If this CIF has been generated from an entry in the Cambridge 
# Structural Database, then it will include bibliographic, chemical, 
# crystal, experimental, refinement or atomic coordinate data resulting 
# from the CCDC's data processing and validation procedures.
#
#######################################################################

data_XATMIP
_chemical_formula_moiety         'C22 H8 I2 O2'
_chemical_name_systematic        2,9-bis(Iodo)anthanthrone
_symmetry_cell_setting           monoclinic
_symmetry_space_group_name_H-M   'P 21/c'
_symmetry_Int_Tables_number      14
_space_group_name_Hall           '-P 2ybc'
loop_
_symmetry_equiv_pos_site_id
_symmetry_equiv_pos_as_xyz
1 x,y,z
2 -x,1/2+y,1/2-z
3 -x,-y,-z
4 x,1/2-y,1/2+z
_cell_length_a                   4.2020(10)
_cell_length_b                   20.956(4)
_cell_length_c                   9.276(2)
_cell_angle_alpha                90
_cell_angle_beta                 100.63(3)
_cell_angle_gamma                90
_cell_volume                     802.8
_cell_formula_units_Z            2
_exptl_crystal_recrystallization_method o-dichlorobenzene
loop_
_atom_site_label
_atom_site_type_symbol
_atom_site_fract_x
_atom_site_fract_y
_atom_site_fract_z
C1 C -0.6628(17) -0.0254(3) -0.3520(8)
H1 H -0.7587 0.0052 -0.4187
C2 C -0.7525(17) -0.0890(3) -0.3744(8)
H2 H -0.9064 -0.1010 -0.4553
C3 C -0.6104(15) -0.1337(3) -0.2753(8)
H3 H -0.6739 -0.1761 -0.2893
C4 C -0.3734(14) -0.1181(3) -0.1537(7)
C5 C -0.2822(14) -0.0524(3) -0.1318(7)
C6 C -0.0458(14) -0.0333(3) -0.0101(7)
C7 C -0.2124(15) -0.1637(3) -0.0509(8)
C8 C 0.0110(15) -0.1448(3) 0.0646(7)
H4 H 0.1107 -0.1752 0.1310
C9 C 0.0971(14) -0.0801(3) 0.0869(7)
C10 C 0.3481(16) -0.0621(3) 0.2157(7)
C11 C -0.4364(14) -0.0068(3) -0.2338(7)
O1 O 0.4750(13) -0.1019(2) 0.3044(6)
I1 I -0.31891(11) -0.26105(2) -0.08029(6)
C1B C 0.6628(17) 0.0254(3) 0.3520(8)
H1B H 0.7587 -0.0052 0.4187
C2B C 0.7525(17) 0.0890(3) 0.3744(8)
H2B H 0.9064 0.1010 0.4553
C3B C 0.6104(15) 0.1337(3) 0.2753(8)
H3B H 0.6739 0.1761 0.2893
C4B C 0.3734(14) 0.1181(3) 0.1537(7)
C5B C 0.2822(14) 0.0524(3) 0.1318(7)
C6B C 0.0458(14) 0.0333(3) 0.0101(7)
C7B C 0.2124(15) 0.1637(3) 0.0509(8)
C8B C -0.0110(15) 0.1448(3) -0.0646(7)
H4B H -0.1107 0.1752 -0.1310
C9B C -0.0971(14) 0.0801(3) -0.0869(7)
C10B C -0.3481(16) 0.0621(3) -0.2157(7)
C11B C 0.4364(14) 0.0068(3) 0.2338(7)
O1B O -0.4750(13) 0.1019(2) -0.3044(6)
I1B I 0.31891(11) 0.26105(2) 0.08029(6)
loop_
_geom_bond_atom_site_label_1
_geom_bond_atom_site_label_2
_geom_bond_site_symmetry_1
_geom_bond_site_symmetry_2
C1 H1 1_555 1_555
C2 C1 1_555 1_555
H2 C2 1_555 1_555
C3 C2 1_555 1_555
H3 C3 1_555 1_555
C4 C3 1_555 1_555
C5 C4 1_555 1_555
C6 C5 1_555 1_555
C7 C4 1_555 1_555
C8 C7 1_555 1_555
H4 C8 1_555 1_555
C9 C6 1_555 1_555
C10 C9 1_555 1_555
C11 C1 1_555 1_555
O1 C10 1_555 1_555
I1 C7 1_555 1_555
C1B H1B 1_555 1_555
C2B C1B 1_555 1_555
H2B C2B 1_555 1_555
C3B C2B 1_555 1_555
H3B C3B 1_555 1_555
C4B C3B 1_555 1_555
C5B C4B 1_555 1_555
C6B C6 1_555 1_555
C7B C4B 1_555 1_555
C8B C7B 1_555 1_555
H4B C8B 1_555 1_555
C9B C6B 1_555 1_555
C10B C11 1_555 1_555
C11B C10 1_555 1_555
O1B C10B 1_555 1_555
I1B C7B 1_555 1_555
C5 C11 1_555 1_555
C8 C9 1_555 1_555
C1B C11B 1_555 1_555
C5B C6B 1_555 1_555
C5B C11B 1_555 1_555
C8B C9B 1_555 1_555
C9B C10B 1_555 1_555

#END
