
#######################################################################
#
#                 Cambridge Crystallographic Data Centre
#                                CCDC 
#
#######################################################################
#
# If this CIF has been generated from an entry in the Cambridge 
# Structural Database, then it will include bibliographic, chemical, 
# crystal, experimental, refinement or atomic coordinate data resulting 
# from the CCDC's data processing and validation procedures.
#
#######################################################################

data_XATVUK
_chemical_formula_moiety         'C3 H8 N1 O3 1+,H2 O4 P1 1-'
_chemical_name_systematic        'L-Serine phosphate'
_symmetry_cell_setting           monoclinic
_symmetry_space_group_name_H-M   'P 1 1 21'
_symmetry_Int_Tables_number      4
_space_group_name_Hall           'P 2c'
loop_
_symmetry_equiv_pos_site_id
_symmetry_equiv_pos_as_xyz
1 x,y,z
2 -x,-y,1/2+z
_cell_length_a                   9.134(5)
_cell_length_b                   9.489(5)
_cell_length_c                   4.615(5)
_cell_angle_alpha                90
_cell_angle_beta                 90
_cell_angle_gamma                99.54(1)
_cell_volume                     394.462
_cell_formula_units_Z            2
loop_
_atom_site_label
_atom_site_type_symbol
_atom_site_fract_x
_atom_site_fract_y
_atom_site_fract_z
P1 P 0.43388(2) 0.79911(2) 0.70174(7)
O1 O 0.35697(8) 0.72732(8) 0.4419(2)
O2 O 0.58746(7) 0.88023(8) 0.6463(2)
O3 O 0.33155(8) 0.89883(8) 0.8307(3)
O4 O 0.44552(9) 0.68102(7) 0.9351(3)
H1 H 0.370(2) 0.9563(19) 0.955(7)
H2 H 0.413(2) 0.693(2) 1.088(6)
O5 O -0.02974(9) 0.11195(9) 0.8997(3)
O6 O -0.09911(8) 0.30888(8) 0.7168(4)
C1 C -0.01213(9) 0.21464(9) 0.7413(3)
C2 C 0.12008(9) 0.24718(9) 0.5409(3)
C3 C 0.20541(12) 0.39629(10) 0.5851(4)
O7 O 0.25781(12) 0.40275(9) 0.8690(3)
N1 N 0.21870(9) 0.14158(9) 0.5975(3)
H3 H -0.161(2) 0.290(2) 0.794(6)
H4 H 0.0909(15) 0.2373(16) 0.335(4)
H5 H 0.1411(19) 0.4743(19) 0.552(5)
H6 H 0.278(2) 0.403(2) 0.453(7)
H7 H 0.326(2) 0.486(2) 0.919(10)
H8 H 0.2634(15) 0.1572(16) 0.761(5)
H9 H 0.284(2) 0.145(2) 0.463(7)
H10 H 0.1592(15) 0.0473(16) 0.617(5)
loop_
_geom_bond_atom_site_label_1
_geom_bond_atom_site_label_2
_geom_bond_site_symmetry_1
_geom_bond_site_symmetry_2
P1 O1 1_555 1_555
O2 P1 1_555 1_555
O3 P1 1_555 1_555
O4 P1 1_555 1_555
O5 C1 1_555 1_555
O6 C1 1_555 1_555
C1 C2 1_555 1_555
C2 C3 1_555 1_555
C3 O7 1_555 1_555
O7 H7 1_555 1_555
N1 C2 1_555 1_555
H1 O3 1_555 1_555
H2 O4 1_555 1_555
H3 O6 1_555 1_555
H4 C2 1_555 1_555
H5 C3 1_555 1_555
H6 C3 1_555 1_555
H8 N1 1_555 1_555
H9 N1 1_555 1_555
H10 N1 1_555 1_555

#END
