
#######################################################################
#
#                 Cambridge Crystallographic Data Centre
#                                CCDC 
#
#######################################################################
#
# If this CIF has been generated from an entry in the Cambridge 
# Structural Database, then it will include bibliographic, chemical, 
# crystal, experimental, refinement or atomic coordinate data resulting 
# from the CCDC's data processing and validation procedures.
#
#######################################################################

data_XAVFOS
_chemical_formula_moiety         'C8 H12 I2 O2'
_chemical_name_systematic        
4-(2-iodoethyl)-5-(iodomethyl)-5-methyloxolan-2-one
_symmetry_cell_setting           orthorhombic
_symmetry_space_group_name_H-M   'P 21 21 21'
_symmetry_Int_Tables_number      19
_space_group_name_Hall           'P 2ac 2ab'
loop_
_symmetry_equiv_pos_site_id
_symmetry_equiv_pos_as_xyz
1 x,y,z
2 1/2-x,-y,1/2+z
3 -x,1/2+y,1/2-z
4 1/2+x,1/2-y,-z
_cell_length_a                   7.2879(3)
_cell_length_b                   11.3154(5)
_cell_length_c                   13.6084(5)
_cell_angle_alpha                90
_cell_angle_beta                 90
_cell_angle_gamma                90
_cell_volume                     1122.22
_exptl_crystal_description       block
_cell_formula_units_Z            4
loop_
_atom_site_label
_atom_site_type_symbol
_atom_site_fract_x
_atom_site_fract_y
_atom_site_fract_z
I1 I 0.26542(7) 0.86818(5) 0.98366(4)
I2 I 0.22233(9) 0.59202(5) 0.45537(4)
O1 O 0.4943(7) 0.8369(5) 0.7811(4)
O2 O 0.7782(8) 0.7662(5) 0.7649(4)
C1 C 0.3041(11) 0.7974(7) 0.7655(6)
C2 C 0.6153(10) 0.7516(7) 0.7546(6)
C3 C 0.5158(9) 0.6483(8) 0.7124(6)
H1 H 0.5060 0.5849 0.7601
H2 H 0.5775 0.6188 0.6542
C4 C 0.3281(10) 0.6978(7) 0.6871(6)
H3 H 0.3387 0.7364 0.6229
C5 C 0.2317(12) 0.7490(6) 0.8611(5)
H4 H 0.2946 0.6755 0.8757
H5 H 0.1023 0.7313 0.8534
C6 C 0.1937(11) 0.9003(7) 0.7266(6)
H6 H 0.1872 0.9611 0.7757
H7 H 0.0720 0.8742 0.7106
H8 H 0.2518 0.9312 0.6687
C7 C 0.1742(11) 0.6083(7) 0.6795(6)
H9 H 0.1601 0.5689 0.7424
H10 H 0.0605 0.6494 0.6653
C8 C 0.2070(11) 0.5162(6) 0.6008(5)
H11 H 0.1082 0.4587 0.6026
H12 H 0.3206 0.4749 0.6149
loop_
_geom_bond_atom_site_label_1
_geom_bond_atom_site_label_2
_geom_bond_site_symmetry_1
_geom_bond_site_symmetry_2
I1 C5 1_555 1_555
I2 C8 1_555 1_555
O1 C1 1_555 1_555
O2 C2 1_555 1_555
C1 C4 1_555 1_555
C2 O1 1_555 1_555
C3 C2 1_555 1_555
H1 C3 1_555 1_555
H2 C3 1_555 1_555
C4 C3 1_555 1_555
H3 C4 1_555 1_555
C5 C1 1_555 1_555
H4 C5 1_555 1_555
H5 C5 1_555 1_555
C6 C1 1_555 1_555
H6 C6 1_555 1_555
H7 C6 1_555 1_555
H8 C6 1_555 1_555
C7 C4 1_555 1_555
H9 C7 1_555 1_555
H10 C7 1_555 1_555
C8 C7 1_555 1_555
H11 C8 1_555 1_555
H12 C8 1_555 1_555

#END
