
#######################################################################
#
#                 Cambridge Crystallographic Data Centre
#                                CCDC 
#
#######################################################################
#
# If this CIF has been generated from an entry in the Cambridge 
# Structural Database, then it will include bibliographic, chemical, 
# crystal, experimental, refinement or atomic coordinate data resulting 
# from the CCDC's data processing and validation procedures.
#
#######################################################################

data_XAVFEG
_chemical_formula_moiety         'C15 H12 N4'
_chemical_name_systematic        bis(Benzimidazol-2-yl)methane
_symmetry_cell_setting           tetragonal
_symmetry_space_group_name_H-M   'I 41/a'
_symmetry_Int_Tables_number      88
_space_group_name_Hall           '-I 4ad'
loop_
_symmetry_equiv_pos_site_id
_symmetry_equiv_pos_as_xyz
1 x,y,z
2 3/4-y,1/4+x,1/4+z
3 1/2+x,1/2+y,1/2+z
4 1/4-y,3/4+x,3/4+z
5 1/4+y,1/4-x,1/4+z
6 1/2-x,-y,1/2+z
7 3/4+y,3/4-x,3/4+z
8 -x,1/2-y,z
9 -x,-y,-z
10 1/4+y,3/4-x,3/4-z
11 1/2-x,1/2-y,1/2-z
12 3/4+y,1/4-x,1/4-z
13 3/4-y,3/4+x,3/4-z
14 1/2+x,y,1/2-z
15 1/4-y,1/4+x,1/4-z
16 x,1/2+y,-z
_cell_length_a                   18.296(4)
_cell_length_b                   18.296(4)
_cell_length_c                   15.728(3)
_cell_angle_alpha                90
_cell_angle_beta                 90
_cell_angle_gamma                90
_cell_volume                     5264.85
_exptl_crystal_colour            orange
_exptl_crystal_description       block
_cell_formula_units_Z            16
_exptl_crystal_recrystallization_method methanol
loop_
_atom_site_label
_atom_site_type_symbol
_atom_site_fract_x
_atom_site_fract_y
_atom_site_fract_z
N1 N 0.57166(10) 0.30536(8) 0.09757(10)
N2 N 0.58129(8) 0.42431(7) 0.11565(8)
H1 H 0.5790 0.4704 0.1049
N3 N 0.41074(8) 0.42962(7) -0.06625(8)
N4 N 0.41095(8) 0.32348(7) 0.00088(8)
H2 H 0.4271 0.2856 0.0273
C1 C 0.60520(9) 0.39271(9) 0.18957(11)
C2 C 0.63143(12) 0.42248(11) 0.26529(12)
H3 H 0.6354 0.4727 0.2728
C3 C 0.65094(15) 0.37490(13) 0.32774(14)
H4 H 0.6693 0.3931 0.3786
C4 C 0.64421(17) 0.30066(14) 0.31753(17)
H5 H 0.6575 0.2699 0.3620
C5 C 0.61850(17) 0.27091(12) 0.24371(17)
H6 H 0.6142 0.2206 0.2372
C6 C 0.59899(11) 0.31847(10) 0.17871(12)
C7 C 0.56216(9) 0.37014(8) 0.06352(10)
C8 C 0.53220(10) 0.38310(11) -0.02331(10)
H7 H 0.5526 0.3470 -0.0617
H8 H 0.5481 0.4309 -0.0427
C9 C 0.45082(9) 0.37953(8) -0.02848(9)
C10 C 0.33919(10) 0.40476(9) -0.06135(10)
C11 C 0.27477(12) 0.43470(11) -0.09232(13)
H9 H 0.2745 0.4795 -0.1203
C12 C 0.21142(12) 0.39574(13) -0.08007(14)
H10 H 0.1675 0.4146 -0.1000
C13 C 0.21165(12) 0.32914(13) -0.03878(14)
H11 H 0.1679 0.3040 -0.0321
C14 C 0.27489(11) 0.29906(11) -0.00732(12)
H12 H 0.2748 0.2544 0.0208
C15 C 0.33900(9) 0.33830(9) -0.01940(9)
loop_
_geom_bond_atom_site_label_1
_geom_bond_atom_site_label_2
_geom_bond_site_symmetry_1
_geom_bond_site_symmetry_2
N1 C6 1_555 1_555
N2 H1 1_555 1_555
N3 C9 1_555 1_555
N4 H2 1_555 1_555
C1 N2 1_555 1_555
C2 C1 1_555 1_555
H3 C2 1_555 1_555
C3 C2 1_555 1_555
H4 C3 1_555 1_555
C4 C3 1_555 1_555
H5 C4 1_555 1_555
C5 C4 1_555 1_555
H6 C5 1_555 1_555
C6 C1 1_555 1_555
C7 N1 1_555 1_555
C8 C7 1_555 1_555
H7 C8 1_555 1_555
H8 C8 1_555 1_555
C9 N4 1_555 1_555
C10 N3 1_555 1_555
C11 C10 1_555 1_555
H9 C11 1_555 1_555
C12 C11 1_555 1_555
H10 C12 1_555 1_555
C13 C12 1_555 1_555
H11 C13 1_555 1_555
C14 C13 1_555 1_555
H12 C14 1_555 1_555
C15 N4 1_555 1_555
N2 C7 1_555 1_555
C5 C6 1_555 1_555
C8 C9 1_555 1_555
C10 C15 1_555 1_555
C14 C15 1_555 1_555

#END
