
#######################################################################
#
#                 Cambridge Crystallographic Data Centre
#                                CCDC 
#
#######################################################################
#
# If this CIF has been generated from an entry in the Cambridge 
# Structural Database, then it will include bibliographic, chemical, 
# crystal, experimental, refinement or atomic coordinate data resulting 
# from the CCDC's data processing and validation procedures.
#
#######################################################################

data_XAVHOU
_chemical_formula_moiety         'C27 H33 N1 O2'
_chemical_name_systematic        
(4-methyl-7,20-epoxyatid-16-en-21-yl)(phenyl)methanone
_symmetry_cell_setting           monoclinic
_symmetry_space_group_name_H-M   'P 21/c'
_symmetry_Int_Tables_number      14
_space_group_name_Hall           '-P 2ybc'
loop_
_symmetry_equiv_pos_site_id
_symmetry_equiv_pos_as_xyz
1 x,y,z
2 -x,1/2+y,1/2-z
3 -x,-y,-z
4 x,1/2-y,1/2+z
_cell_length_a                   14.2284(5)
_cell_length_b                   12.1551(6)
_cell_length_c                   13.2469(5)
_cell_angle_alpha                90
_cell_angle_beta                 109.221(4)
_cell_angle_gamma                90
_cell_volume                     2163.31
_cell_formula_units_Z            4
_exptl_crystal_recrystallization_method 'petroleum ether/dichloromethane'
loop_
_atom_site_label
_atom_site_type_symbol
_atom_site_fract_x
_atom_site_fract_y
_atom_site_fract_z
O1 O -0.18306(8) -0.53889(11) -0.13417(10)
O2 O -0.00917(12) -0.62601(14) 0.19035(12)
N1 N -0.13316(10) -0.56011(13) 0.04954(12)
C1 C -0.19668(15) -0.37362(17) 0.07422(17)
C2 C -0.27753(13) -0.39074(16) -0.03553(15)
H1 H -0.3357 -0.3470 -0.0365
C3 C -0.24952(15) -0.35819(17) -0.13522(17)
H2 H -0.2972 -0.3051 -0.1776
H3 H -0.1842 -0.3242 -0.1127
C4 C -0.24895(13) -0.45918(17) -0.20274(15)
H4 H -0.2238 -0.4389 -0.2607
C5 C -0.35034(13) -0.51393(17) -0.24947(13)
C6 C -0.33962(14) -0.62828(18) -0.29526(16)
H5 H -0.3066 -0.6207 -0.3484
H6 H -0.2987 -0.6750 -0.2383
C7 C -0.44165(16) -0.6821(2) -0.34654(17)
H7 H -0.4387 -0.7594 -0.3278
H8 H -0.4621 -0.6759 -0.4238
C8 C -0.51568(15) -0.6219(2) -0.30418(16)
H9 H -0.5795 -0.6608 -0.3247
C9 C -0.52885(15) -0.5074(2) -0.35044(14)
C10 C -0.42983(14) -0.45223(19) -0.33862(15)
H10 H -0.4317 -0.3753 -0.3198
H11 H -0.4154 -0.4567 -0.4051
C11 C -0.39294(12) -0.52296(15) -0.15650(13)
H12 H -0.4334 -0.4566 -0.1621
C12 C -0.30909(12) -0.51243(15) -0.04749(13)
C13 C -0.34670(14) -0.54977(18) 0.04274(14)
H13 H -0.4119 -0.5177 0.0307
H14 H -0.3549 -0.6290 0.0384
C14 C -0.28063(17) -0.5204(2) 0.15567(15)
H15 H -0.3185 -0.5280 0.2043
H16 H -0.2250 -0.5711 0.1783
C15 C -0.24153(17) -0.4035(2) 0.16136(17)
H17 H -0.1911 -0.3927 0.2306
H18 H -0.2957 -0.3531 0.1565
C16 C -0.21604(12) -0.57558(15) -0.04904(13)
H19 H -0.2319 -0.6542 -0.0585
C17 C -0.10636(14) -0.44559(17) 0.08122(17)
H20 H -0.0721 -0.4147 0.0355
H21 H -0.0607 -0.4443 0.1541
C18 C -0.46753(14) -0.61815(18) -0.18039(15)
H22 H -0.5178 -0.6055 -0.1469
H23 H -0.4339 -0.6869 -0.1538
C19 C -0.16252(18) -0.25339(19) 0.0895(2)
H24 H -0.2191 -0.2065 0.0800
H25 H -0.1311 -0.2347 0.0378
H26 H -0.1160 -0.2436 0.1602
C20 C -0.61625(19) -0.4601(3) -0.39635(19)
H27 H -0.6749(19) -0.509(2) -0.4045(19)
H28 H -0.624(2) -0.387(3) -0.427(3)
C21 C -0.07411(13) -0.64302(18) 0.10445(15)
C22 C -0.08998(12) -0.75692(16) 0.05963(14)
C23 C -0.09741(14) -0.8432(2) 0.12549(17)
H29 H -0.0949 -0.8290 0.1953
C24 C -0.10856(15) -0.9502(2) 0.0875(2)
H30 H -0.1141 -1.0075 0.1317
C25 C -0.11147(15) -0.9717(2) -0.0148(2)
H31 H -0.1201 -1.0435 -0.0404
C26 C -0.10170(14) -0.88797(19) -0.07961(18)
H32 H -0.1019 -0.9033 -0.1485
C27 C -0.09159(13) -0.78087(18) -0.04310(15)
H33 H -0.0858 -0.7243 -0.0879
loop_
_geom_bond_atom_site_label_1
_geom_bond_atom_site_label_2
_geom_bond_site_symmetry_1
_geom_bond_site_symmetry_2
O1 C4 1_555 1_555
O2 C21 1_555 1_555
N1 C16 1_555 1_555
C1 C2 1_555 1_555
C2 H1 1_555 1_555
C3 C2 1_555 1_555
H2 C3 1_555 1_555
H3 C3 1_555 1_555
C4 C3 1_555 1_555
H4 C4 1_555 1_555
C5 C4 1_555 1_555
C6 C5 1_555 1_555
H5 C6 1_555 1_555
H6 C6 1_555 1_555
C7 C6 1_555 1_555
H7 C7 1_555 1_555
H8 C7 1_555 1_555
C8 C7 1_555 1_555
H9 C8 1_555 1_555
C9 C8 1_555 1_555
C10 C5 1_555 1_555
H10 C10 1_555 1_555
H11 C10 1_555 1_555
C11 C5 1_555 1_555
H12 C11 1_555 1_555
C12 C2 1_555 1_555
C13 C12 1_555 1_555
H13 C13 1_555 1_555
H14 C13 1_555 1_555
C14 C13 1_555 1_555
H15 C14 1_555 1_555
H16 C14 1_555 1_555
C15 C1 1_555 1_555
H17 C15 1_555 1_555
H18 C15 1_555 1_555
C16 O1 1_555 1_555
H19 C16 1_555 1_555
C17 N1 1_555 1_555
H20 C17 1_555 1_555
H21 C17 1_555 1_555
C18 C8 1_555 1_555
H22 C18 1_555 1_555
H23 C18 1_555 1_555
C19 C1 1_555 1_555
H24 C19 1_555 1_555
H25 C19 1_555 1_555
H26 C19 1_555 1_555
C20 C9 1_555 1_555
H27 C20 1_555 1_555
H28 C20 1_555 1_555
C21 N1 1_555 1_555
C22 C21 1_555 1_555
C23 C22 1_555 1_555
H29 C23 1_555 1_555
C24 C23 1_555 1_555
H30 C24 1_555 1_555
C25 C24 1_555 1_555
H31 C25 1_555 1_555
C26 C25 1_555 1_555
H32 C26 1_555 1_555
C27 C22 1_555 1_555
H33 C27 1_555 1_555
C1 C17 1_555 1_555
C9 C10 1_555 1_555
C11 C12 1_555 1_555
C11 C18 1_555 1_555
C12 C16 1_555 1_555
C14 C15 1_555 1_555
C26 C27 1_555 1_555

#END
