
#######################################################################
#
#                 Cambridge Crystallographic Data Centre
#                                CCDC 
#
#######################################################################
#
# If this CIF has been generated from an entry in the Cambridge 
# Structural Database, then it will include bibliographic, chemical, 
# crystal, experimental, refinement or atomic coordinate data resulting 
# from the CCDC's data processing and validation procedures.
#
#######################################################################

data_XAVHUA
_chemical_formula_moiety         'C27 H35 N1 O3'
_chemical_name_systematic        
'(7,19-dihydroxy-4-methylatid-16-en-21-yl)(phenyl)methanone unknown solvate'
_symmetry_cell_setting           triclinic
_symmetry_space_group_name_H-M   'P -1'
_symmetry_Int_Tables_number      2
_space_group_name_Hall           '-P 1'
loop_
_symmetry_equiv_pos_site_id
_symmetry_equiv_pos_as_xyz
1 x,y,z
2 -x,-y,-z
_cell_length_a                   10.0779(9)
_cell_length_b                   11.9811(13)
_cell_length_c                   12.547(3)
_cell_angle_alpha                118.346(16)
_cell_angle_beta                 98.142(12)
_cell_angle_gamma                105.875(9)
_cell_volume                     1214.73
_exptl_crystal_description       block
_cell_formula_units_Z            2
_exptl_crystal_recrystallization_method 'petroleum ether/dichloromethane'
loop_
_atom_site_label
_atom_site_type_symbol
_atom_site_fract_x
_atom_site_fract_y
_atom_site_fract_z
O1 O -0.8789(2) -0.5470(2) -0.6284(2)
H1 H -0.8484 -0.6037 -0.6281
O2 O -1.1642(2) -0.2676(2) -0.4245(2)
H2 H -1.2386 -0.2592 -0.4490
O3 O -0.4260(2) -0.2610(2) -0.5149(2)
N1 N -0.6707(2) -0.3709(2) -0.5951(2)
C1 C -0.8064(3) -0.4894(3) -0.6882(3)
H3 H -0.7833 -0.5589 -0.7560
C2 C -0.9073(3) -0.4438(3) -0.7474(3)
C3 C -0.9358(3) -0.3241(3) -0.6446(3)
H4 H -0.9862 -0.2924 -0.6903
C4 C -1.0341(3) -0.3578(3) -0.5731(3)
H5 H -1.1265 -0.4319 -0.6341
H6 H -0.9889 -0.3888 -0.5248
C5 C -1.0604(3) -0.2329(3) -0.4834(3)
H7 H -1.1024 -0.2017 -0.5341
C6 C -0.9196(3) -0.1139(3) -0.3810(3)
C7 C -0.9476(3) 0.0185(3) -0.3033(3)
H8 H -0.9836 0.0448 -0.3600
H9 H -1.0213 0.0005 -0.2650
C8 C -0.8098(3) 0.1343(3) -0.2001(3)
C9 C -0.6814(3) 0.0947(3) -0.2132(3)
H10 H -0.5914 0.1733 -0.1496
C10 C -0.7042(3) -0.0243(3) -0.1933(3)
H11 H -0.6970 0.0083 -0.1048
H12 H -0.6288 -0.0594 -0.2118
C11 C -0.8540(3) -0.1403(3) -0.2807(3)
H13 H -0.9179 -0.1435 -0.2303
H14 H -0.8442 -0.2281 -0.3232
C12 C -0.6735(3) 0.0456(3) -0.3470(3)
H15 H -0.5897 0.0210 -0.3549
H16 H -0.6608 0.1197 -0.3618
C13 C -0.8128(3) -0.0802(3) -0.4486(3)
H17 H -0.8594 -0.0464 -0.4943
C14 C -0.7876(3) -0.2017(3) -0.5536(3)
C15 C -0.7183(3) -0.1507(3) -0.6326(3)
H18 H -0.7765 -0.1089 -0.6567
H19 H -0.6222 -0.0793 -0.5782
C16 C -0.7034(3) -0.2595(3) -0.7526(3)
H20 H -0.6189 -0.2769 -0.7292
H21 H -0.6868 -0.2242 -0.8071
C17 C -0.8367(3) -0.3948(3) -0.8279(3)
H22 H -0.8092 -0.4661 -0.8867
H23 H -0.9098 -0.3855 -0.8788
C18 C -0.6897(3) -0.2513(3) -0.4963(3)
H24 H -0.5950 -0.1766 -0.4436
H25 H -0.7323 -0.2756 -0.4418
C19 C -1.0479(3) -0.5702(3) -0.8397(3)
H26 H -1.1145 -0.5440 -0.8760
H27 H -1.0914 -0.6076 -0.7943
H28 H -1.0262 -0.6385 -0.9068
C20 C -0.8043(6) 0.2529(4) -0.1110(4)
C21 C -0.5360(3) -0.3665(3) -0.5925(3)
C22 C -0.5154(3) -0.4901(3) -0.6891(3)
C23 C -0.5481(4) -0.6074(4) -0.6854(4)
H29 H -0.5935 -0.6146 -0.6281
C24 C -0.5135(5) -0.7139(4) -0.7667(5)
H30 H -0.5337 -0.7920 -0.7625
C25 C -0.4498(5) -0.7057(5) -0.8533(5)
H31 H -0.4275 -0.7781 -0.9086
C26 C -0.4193(4) -0.5895(5) -0.8577(4)
H32 H -0.3780 -0.5840 -0.9177
C27 C -0.4489(3) -0.4824(4) -0.7752(3)
H33 H -0.4238 -0.4027 -0.7770
H34 H -0.890(4) 0.268(3) -0.113(3)
H35 H -0.715(4) 0.323(4) -0.059(3)
loop_
_geom_bond_atom_site_label_1
_geom_bond_atom_site_label_2
_geom_bond_site_symmetry_1
_geom_bond_site_symmetry_2
O1 H1 1_555 1_555
O2 H2 1_555 1_555
O3 C21 1_555 1_555
N1 C1 1_555 1_555
C1 O1 1_555 1_555
H3 C1 1_555 1_555
C2 C1 1_555 1_555
C3 C2 1_555 1_555
H4 C3 1_555 1_555
C4 C3 1_555 1_555
H5 C4 1_555 1_555
H6 C4 1_555 1_555
C5 O2 1_555 1_555
H7 C5 1_555 1_555
C6 C5 1_555 1_555
C7 C6 1_555 1_555
H8 C7 1_555 1_555
H9 C7 1_555 1_555
C8 C7 1_555 1_555
C9 C8 1_555 1_555
H10 C9 1_555 1_555
C10 C9 1_555 1_555
H11 C10 1_555 1_555
H12 C10 1_555 1_555
C11 C6 1_555 1_555
H13 C11 1_555 1_555
H14 C11 1_555 1_555
C12 C9 1_555 1_555
H15 C12 1_555 1_555
H16 C12 1_555 1_555
C13 C6 1_555 1_555
H17 C13 1_555 1_555
C14 C3 1_555 1_555
C15 C14 1_555 1_555
H18 C15 1_555 1_555
H19 C15 1_555 1_555
C16 C15 1_555 1_555
H20 C16 1_555 1_555
H21 C16 1_555 1_555
C17 C2 1_555 1_555
H22 C17 1_555 1_555
H23 C17 1_555 1_555
C18 N1 1_555 1_555
H24 C18 1_555 1_555
H25 C18 1_555 1_555
C19 C2 1_555 1_555
H26 C19 1_555 1_555
H27 C19 1_555 1_555
H28 C19 1_555 1_555
C20 C8 1_555 1_555
C21 N1 1_555 1_555
C22 C21 1_555 1_555
C23 C22 1_555 1_555
H29 C23 1_555 1_555
C24 C23 1_555 1_555
H30 C24 1_555 1_555
C25 C24 1_555 1_555
H31 C25 1_555 1_555
C26 C25 1_555 1_555
H32 C26 1_555 1_555
C27 C22 1_555 1_555
H33 C27 1_555 1_555
H34 C20 1_555 1_555
H35 C20 1_555 1_555
C4 C5 1_555 1_555
C10 C11 1_555 1_555
C12 C13 1_555 1_555
C13 C14 1_555 1_555
C14 C18 1_555 1_555
C16 C17 1_555 1_555
C26 C27 1_555 1_555

#END
