
#######################################################################
#
#                 Cambridge Crystallographic Data Centre
#                                CCDC 
#
#######################################################################
#
# If this CIF has been generated from an entry in the Cambridge 
# Structural Database, then it will include bibliographic, chemical, 
# crystal, experimental, refinement or atomic coordinate data resulting 
# from the CCDC's data processing and validation procedures.
#
#######################################################################

data_XAVJAI
_chemical_formula_moiety         'C25 H37 N1 O3 S2'
_chemical_name_systematic        
"methyl 19-hydroxy-11,19-dimethyl-13H-spiro[13-azapentacyclo[9.3.3.2^4,7^.0^1,10^.0^2,7^]nonadec-5-ene-8,2'-[1,3]dithiane]-13-carboxylate"
_symmetry_cell_setting           monoclinic
_symmetry_space_group_name_H-M   'P 21/c'
_symmetry_Int_Tables_number      14
_space_group_name_Hall           '-P 2ybc'
loop_
_symmetry_equiv_pos_site_id
_symmetry_equiv_pos_as_xyz
1 x,y,z
2 -x,1/2+y,1/2-z
3 -x,-y,-z
4 x,1/2-y,1/2+z
_cell_length_a                   12.869(5)
_cell_length_b                   15.770(3)
_cell_length_c                   13.240(8)
_cell_angle_alpha                90
_cell_angle_beta                 118.35(6)
_cell_angle_gamma                90
_cell_volume                     2364.71
_cell_formula_units_Z            4
_exptl_crystal_recrystallization_method 'petroleum ether/dichloromethane'
loop_
_atom_site_label
_atom_site_type_symbol
_atom_site_fract_x
_atom_site_fract_y
_atom_site_fract_z
S1 S 0.35443(6) 0.57295(4) 0.65457(6)
S2 S 0.34614(5) 0.55923(3) 0.42600(5)
O1 O -0.24552(14) 0.81598(11) 0.32168(17)
O2 O -0.09790(14) 0.91100(10) 0.39089(15)
O3 O 0.60013(17) 0.82446(12) 0.6762(2)
H1 H 0.6124 0.7801 0.7124
N1 N -0.06096(15) 0.77626(10) 0.36070(16)
C1 C -0.09541(19) 0.68656(14) 0.3335(2)
H2 H -0.1804 0.6833 0.2864
H3 H -0.0745 0.6562 0.4042
C2 C -0.03677(19) 0.64305(14) 0.2703(2)
C3 C 0.09683(17) 0.65708(12) 0.33681(18)
H4 H 0.1309 0.6316 0.2917
C4 C 0.15578(17) 0.61510(13) 0.45448(18)
H5 H 0.1312 0.5563 0.4467
H6 H 0.1298 0.6431 0.5039
C5 C 0.28993(18) 0.61901(13) 0.51031(18)
C6 C 0.33192(17) 0.71325(13) 0.52122(18)
C7 C 0.46199(18) 0.71958(13) 0.5454(2)
H7 H 0.5116 0.6869 0.6136
H8 H 0.4686 0.6949 0.4816
C8 C 0.5074(2) 0.81220(15) 0.5629(3)
C9 C 0.4052(2) 0.87064(15) 0.5502(2)
H9 H 0.4308 0.9300 0.5650
C10 C 0.3015(2) 0.85995(13) 0.4303(2)
H10 H 0.3246 0.8780 0.3738
H11 H 0.2365 0.8955 0.4222
C11 C 0.26014(17) 0.76520(12) 0.40780(18)
H12 H 0.2864 0.7437 0.3542
C12 C 0.12470(17) 0.75301(13) 0.34616(18)
C13 C 0.06440(18) 0.79825(13) 0.4086(2)
H13 H 0.1052 0.7830 0.4892
H14 H 0.0716 0.8591 0.4032
C14 C -0.0806(2) 0.67961(17) 0.1490(2)
H15 H -0.0469 0.6464 0.1101
H16 H -0.1657 0.6730 0.1066
C15 C -0.0506(2) 0.77276(16) 0.1452(2)
H17 H -0.0696 0.7879 0.0673
H18 H -0.0982 0.8078 0.1677
C16 C 0.0789(2) 0.79014(15) 0.2245(2)
H19 H 0.0915 0.8510 0.2307
H20 H 0.1248 0.7666 0.1907
C17 C 0.32449(19) 0.76112(15) 0.6174(2)
H21 H 0.2945 0.7368 0.6621
C18 C 0.3642(2) 0.84046(15) 0.6325(2)
H22 H 0.3663 0.8749 0.6905
C19 C -0.0694(2) 0.54812(15) 0.2582(3)
H23 H -0.0264 0.5185 0.2265
H24 H -0.1526 0.5417 0.2083
H25 H -0.0494 0.5251 0.3324
C20 C 0.5549(3) 0.83655(18) 0.4802(3)
H26 H 0.5770 0.8953 0.4903
H27 H 0.4948 0.8272 0.4026
H28 H 0.6227 0.8024 0.4959
C21 C 0.3032(3) 0.46302(16) 0.6241(3)
H29 H 0.3308 0.4330 0.6963
H30 H 0.2176 0.4628 0.5862
C22 C 0.3437(2) 0.41538(16) 0.5502(3)
H31 H 0.3184 0.3568 0.5442
H32 H 0.4293 0.4158 0.5877
C23 C 0.2973(2) 0.45140(14) 0.4305(3)
H33 H 0.2117 0.4506 0.3928
H34 H 0.3222 0.4148 0.3871
C24 C -0.1430(2) 0.83260(14) 0.3552(2)
C25 C -0.1791(2) 0.97493(16) 0.3905(3)
H35 H -0.2363 0.9876 0.3128
H36 H -0.1361 1.0254 0.4272
H37 H -0.2187 0.9540 0.4313
loop_
_geom_bond_atom_site_label_1
_geom_bond_atom_site_label_2
_geom_bond_site_symmetry_1
_geom_bond_site_symmetry_2
S1 C5 1_555 1_555
S2 C5 1_555 1_555
O1 C24 1_555 1_555
O2 C24 1_555 1_555
O3 H1 1_555 1_555
N1 C1 1_555 1_555
C1 H2 1_555 1_555
H3 C1 1_555 1_555
C2 C1 1_555 1_555
C3 C2 1_555 1_555
H4 C3 1_555 1_555
C4 C3 1_555 1_555
H5 C4 1_555 1_555
H6 C4 1_555 1_555
C5 C4 1_555 1_555
C6 C5 1_555 1_555
C7 C6 1_555 1_555
H7 C7 1_555 1_555
H8 C7 1_555 1_555
C8 O3 1_555 1_555
C9 C8 1_555 1_555
H9 C9 1_555 1_555
C10 C9 1_555 1_555
H10 C10 1_555 1_555
H11 C10 1_555 1_555
C11 C6 1_555 1_555
H12 C11 1_555 1_555
C12 C3 1_555 1_555
C13 N1 1_555 1_555
H13 C13 1_555 1_555
H14 C13 1_555 1_555
C14 C2 1_555 1_555
H15 C14 1_555 1_555
H16 C14 1_555 1_555
C15 C14 1_555 1_555
H17 C15 1_555 1_555
H18 C15 1_555 1_555
C16 C12 1_555 1_555
H19 C16 1_555 1_555
H20 C16 1_555 1_555
C17 C6 1_555 1_555
H21 C17 1_555 1_555
C18 C9 1_555 1_555
H22 C18 1_555 1_555
C19 C2 1_555 1_555
H23 C19 1_555 1_555
H24 C19 1_555 1_555
H25 C19 1_555 1_555
C20 C8 1_555 1_555
H26 C20 1_555 1_555
H27 C20 1_555 1_555
H28 C20 1_555 1_555
C21 S1 1_555 1_555
H29 C21 1_555 1_555
H30 C21 1_555 1_555
C22 C21 1_555 1_555
H31 C22 1_555 1_555
H32 C22 1_555 1_555
C23 S2 1_555 1_555
H33 C23 1_555 1_555
H34 C23 1_555 1_555
C24 N1 1_555 1_555
C25 O2 1_555 1_555
H35 C25 1_555 1_555
H36 C25 1_555 1_555
H37 C25 1_555 1_555
C7 C8 1_555 1_555
C10 C11 1_555 1_555
C11 C12 1_555 1_555
C12 C13 1_555 1_555
C15 C16 1_555 1_555
C17 C18 1_555 1_555
C22 C23 1_555 1_555

#END
