
#######################################################################
#
#                 Cambridge Crystallographic Data Centre
#                                CCDC 
#
#######################################################################
#
# If this CIF has been generated from an entry in the Cambridge 
# Structural Database, then it will include bibliographic, chemical, 
# crystal, experimental, refinement or atomic coordinate data resulting 
# from the CCDC's data processing and validation procedures.
#
#######################################################################

data_XAVLAI
_chemical_formula_moiety         'C26 H30 O10'
_chemical_name_systematic        
'(2RS,3SR)-meso-Diethyl 2,3-bis(3,4-dimethoxybenzoyl)succinate'
_symmetry_cell_setting           triclinic
_symmetry_space_group_name_H-M   'P -1'
_symmetry_Int_Tables_number      2
_space_group_name_Hall           '-P 1'
loop_
_symmetry_equiv_pos_site_id
_symmetry_equiv_pos_as_xyz
1 x,y,z
2 -x,-y,-z
_cell_length_a                   8.5045(10)
_cell_length_b                   8.5868(10)
_cell_length_c                   9.0850(11)
_cell_angle_alpha                80.306(2)
_cell_angle_beta                 75.645(2)
_cell_angle_gamma                75.245(2)
_cell_volume                     617.602
_exptl_crystal_colour            colorless
_exptl_crystal_description       block
_cell_formula_units_Z            1
_exptl_crystal_recrystallization_method 'methanol/ethyl acetate'
loop_
_atom_site_label
_atom_site_type_symbol
_atom_site_fract_x
_atom_site_fract_y
_atom_site_fract_z
C1 C 0.1862(3) 0.3223(2) 0.3486(2)
H1 H 0.2946 0.2538 0.3194
H2 H 0.1356 0.3547 0.2616
H3 H 0.1181 0.2640 0.4277
C2 C 0.2224(3) 0.8657(2) 0.5539(2)
H4 H 0.1509 0.8745 0.6535
H5 H 0.1828 0.9558 0.4841
H6 H 0.3336 0.8661 0.5592
C3 C 0.26736(19) 0.43624(19) 0.53013(17)
C4 C 0.27992(19) 0.57737(19) 0.58281(18)
C5 C 0.3491(2) 0.5628(2) 0.70841(18)
H7 H 0.3594 0.6551 0.7427
C6 C 0.40328(19) 0.41121(19) 0.78359(18)
H8 H 0.4502 0.4027 0.8676
C7 C 0.38818(18) 0.27226(19) 0.73467(17)
C8 C 0.32020(19) 0.28753(19) 0.60581(17)
H9 H 0.3109 0.1950 0.5713
C9 C 0.4371(2) 0.1073(2) 0.81095(19)
C10 C 0.5136(2) 0.07973(19) 0.95268(18)
H10 H 0.4619 0.1696 1.0150
C11 C 0.6994(2) 0.0729(2) 0.89667(18)
C12 C 0.9123(2) 0.2176(2) 0.8534(2)
H11 H 0.9273 0.2601 0.7462
H12 H 0.9868 0.1119 0.8625
C13 C 0.9488(3) 0.3280(3) 0.9419(3)
H13 H 0.8618 0.4247 0.9484
H14 H 1.0531 0.3558 0.8920
H15 H 0.9551 0.2755 1.0429
O1 O 0.20140(16) 0.46252(14) 0.40393(14)
O2 O 0.22213(15) 0.71867(14) 0.50181(14)
O3 O 0.4202(2) -0.01003(16) 0.76366(17)
O4 O 0.79541(18) -0.04036(18) 0.83980(19)
O5 O 0.74006(15) 0.20440(15) 0.91485(16)
C1A C 0.8138(3) -0.3223(2) 1.6514(2)
H1A H 0.7054 -0.2538 1.6806
H2A H 0.8644 -0.3547 1.7384
H3A H 0.8819 -0.2640 1.5723
C2A C 0.7776(3) -0.8657(2) 1.4461(2)
H4A H 0.8491 -0.8745 1.3465
H5A H 0.8172 -0.9558 1.5159
H6A H 0.6664 -0.8661 1.4408
C3A C 0.73264(19) -0.43624(19) 1.46987(17)
C4A C 0.72008(19) -0.57737(19) 1.41719(18)
C5A C 0.6509(2) -0.5628(2) 1.29159(18)
H7A H 0.6406 -0.6551 1.2573
C6A C 0.59672(19) -0.41121(19) 1.21641(18)
H8A H 0.5498 -0.4027 1.1324
C7A C 0.61182(18) -0.27226(19) 1.26533(17)
C8A C 0.67980(19) -0.28753(19) 1.39419(17)
H9A H 0.6891 -0.1950 1.4287
C9A C 0.5629(2) -0.1073(2) 1.18905(19)
C10A C 0.4864(2) -0.07973(19) 1.04732(18)
H10A H 0.5381 -0.1696 0.9850
C11A C 0.3006(2) -0.0729(2) 1.10333(18)
C12A C 0.0877(2) -0.2176(2) 1.1466(2)
H11A H 0.0727 -0.2601 1.2538
H12A H 0.0132 -0.1119 1.1375
C13A C 0.0512(3) -0.3280(3) 1.0581(3)
H13A H 0.1382 -0.4247 1.0516
H14A H -0.0531 -0.3558 1.1080
H15A H 0.0449 -0.2755 0.9571
O1A O 0.79860(16) -0.46252(14) 1.59607(14)
O2A O 0.77787(15) -0.71867(14) 1.49819(14)
O3A O 0.5798(2) 0.01003(16) 1.23634(17)
O4A O 0.20459(18) 0.04036(18) 1.16020(19)
O5A O 0.25994(15) -0.20440(15) 1.08515(16)
loop_
_geom_bond_atom_site_label_1
_geom_bond_atom_site_label_2
_geom_bond_site_symmetry_1
_geom_bond_site_symmetry_2
C1 H1 1_555 1_555
H2 C1 1_555 1_555
H3 C1 1_555 1_555
C2 H4 1_555 1_555
H5 C2 1_555 1_555
H6 C2 1_555 1_555
C3 C4 1_555 1_555
C4 C5 1_555 1_555
C5 H7 1_555 1_555
C6 C5 1_555 1_555
H8 C6 1_555 1_555
C7 C6 1_555 1_555
C8 C3 1_555 1_555
H9 C8 1_555 1_555
C9 C7 1_555 1_555
C10 C9 1_555 1_555
H10 C10 1_555 1_555
C11 C10 1_555 1_555
C12 H11 1_555 1_555
H12 C12 1_555 1_555
C13 C12 1_555 1_555
H13 C13 1_555 1_555
H14 C13 1_555 1_555
H15 C13 1_555 1_555
O1 C1 1_555 1_555
O2 C2 1_555 1_555
O3 C9 1_555 1_555
O4 C11 1_555 1_555
O5 C11 1_555 1_555
C1A H1A 1_555 1_555
H2A C1A 1_555 1_555
H3A C1A 1_555 1_555
C2A H4A 1_555 1_555
H5A C2A 1_555 1_555
H6A C2A 1_555 1_555
C3A C4A 1_555 1_555
C4A C5A 1_555 1_555
C5A H7A 1_555 1_555
C6A C5A 1_555 1_555
H8A C6A 1_555 1_555
C7A C6A 1_555 1_555
C8A C3A 1_555 1_555
H9A C8A 1_555 1_555
C9A C7A 1_555 1_555
C10A C10 1_555 1_555
H10A C10A 1_555 1_555
C11A C10A 1_555 1_555
C12A H11A 1_555 1_555
H12A C12A 1_555 1_555
C13A C12A 1_555 1_555
H13A C13A 1_555 1_555
H14A C13A 1_555 1_555
H15A C13A 1_555 1_555
O1A C1A 1_555 1_555
O2A C2A 1_555 1_555
O3A C9A 1_555 1_555
O4A C11A 1_555 1_555
O5A C11A 1_555 1_555
C3 O1 1_555 1_555
C4 O2 1_555 1_555
C7 C8 1_555 1_555
C12 O5 1_555 1_555
C3A O1A 1_555 1_555
C4A O2A 1_555 1_555
C7A C8A 1_555 1_555
C9A C10A 1_555 1_555
C12A O5A 1_555 1_555

#END
