
#######################################################################
#
#                 Cambridge Crystallographic Data Centre
#                                CCDC 
#
#######################################################################
#
# If this CIF has been generated from an entry in the Cambridge 
# Structural Database, then it will include bibliographic, chemical, 
# crystal, experimental, refinement or atomic coordinate data resulting 
# from the CCDC's data processing and validation procedures.
#
#######################################################################

data_XAVLIQ
_chemical_formula_moiety         'C10 H9 N1 O2 S2'
_chemical_name_systematic        
'Phenyl 1,3-thiazolidine-2-thione-3-carboxylate'
_chemical_properties_biological  'potential biological activity'
_symmetry_cell_setting           monoclinic
_symmetry_space_group_name_H-M   'P 21/c'
_symmetry_Int_Tables_number      14
_space_group_name_Hall           '-P 2ybc'
loop_
_symmetry_equiv_pos_site_id
_symmetry_equiv_pos_as_xyz
1 x,y,z
2 -x,1/2+y,1/2-z
3 -x,-y,-z
4 x,1/2-y,1/2+z
_cell_length_a                   11.5465(6)
_cell_length_b                   8.9066(4)
_cell_length_c                   11.9102(6)
_cell_angle_alpha                90
_cell_angle_beta                 116.112(2)
_cell_angle_gamma                90
_cell_volume                     1099.83
_exptl_crystal_colour            yellow
_exptl_crystal_description       block
_chemical_melting_point          '386-388 K'
_cell_formula_units_Z            4
_exptl_crystal_recrystallization_method ethanol
loop_
_atom_site_label
_atom_site_type_symbol
_atom_site_fract_x
_atom_site_fract_y
_atom_site_fract_z
S1 S -0.02440(10) 0.4486(2) 0.21700(10)
S2 S -0.24450(10) 0.6318(2) 0.0616(2)
O1 O 0.1860(3) 0.5967(4) 0.1794(4)
O2 O 0.1439(3) 0.8042(3) 0.0627(3)
N1 N -0.0216(3) 0.6831(3) 0.0709(3)
C1 C -0.2325(5) 0.7870(10) -0.0230(10)
C2 C -0.1068(4) 0.7922(5) -0.0237(4)
C3 C -0.0828(4) 0.5889(4) 0.1186(4)
C4 C 0.1123(4) 0.6845(4) 0.1113(4)
C5 C 0.2761(4) 0.8273(4) 0.0987(4)
C6 C 0.3241(5) 0.7911(6) 0.0150(5)
C7 C 0.4495(6) 0.8240(7) 0.0441(7)
C8 C 0.5264(6) 0.8924(7) 0.1558(7)
C9 C 0.4782(6) 0.9293(7) 0.2379(6)
C10 C 0.3510(5) 0.8942(6) 0.2106(5)
H1 H -0.2992 0.7797 -0.1083
H2 H -0.2445 0.8782 0.0150
H3 H -0.0709 0.8925 -0.0032
H4 H -0.1153 0.7641 -0.1056
H5 H 0.2692 0.7423 -0.0634
H6 H 0.4843 0.7972 -0.0139
H7 H 0.6151 0.9168 0.1754
H8 H 0.5323 0.9796 0.3157
H9 H 0.3159 0.9175 0.2691
loop_
_geom_bond_atom_site_label_1
_geom_bond_atom_site_label_2
_geom_bond_site_symmetry_1
_geom_bond_site_symmetry_2
S1 C3 1_555 1_555
S2 C1 1_555 1_555
O1 C4 1_555 1_555
O2 C4 1_555 1_555
N1 C2 1_555 1_555
C1 C2 1_555 1_555
C2 H3 1_555 1_555
C3 S2 1_555 1_555
C4 N1 1_555 1_555
C5 O2 1_555 1_555
C6 C5 1_555 1_555
C7 C6 1_555 1_555
C8 C7 1_555 1_555
C9 C8 1_555 1_555
C10 C5 1_555 1_555
H1 C1 1_555 1_555
H2 C1 1_555 1_555
H4 C2 1_555 1_555
H5 C6 1_555 1_555
H6 C7 1_555 1_555
H7 C8 1_555 1_555
H8 C9 1_555 1_555
H9 C10 1_555 1_555
N1 C3 1_555 1_555
C9 C10 1_555 1_555

#END
