
#######################################################################
#
#                 Cambridge Crystallographic Data Centre
#                                CCDC 
#
#######################################################################
#
# If this CIF has been generated from an entry in the Cambridge 
# Structural Database, then it will include bibliographic, chemical, 
# crystal, experimental, refinement or atomic coordinate data resulting 
# from the CCDC's data processing and validation procedures.
#
#######################################################################

data_XAVLAJ
_chemical_formula_moiety         'C7 H11 N2 O2 1+,I1 1-'
_chemical_name_systematic        
'3-(2-Methoxy-2-oxoethyl)-1-methyl-1H-imidazol-3-ium iodide'
_symmetry_cell_setting           monoclinic
_symmetry_space_group_name_H-M   'P 21/c'
_symmetry_Int_Tables_number      14
_space_group_name_Hall           '-P 2ybc'
loop_
_symmetry_equiv_pos_site_id
_symmetry_equiv_pos_as_xyz
1 x,y,z
2 -x,1/2+y,1/2-z
3 -x,-y,-z
4 x,1/2-y,1/2+z
_cell_length_a                   9.192(4)
_cell_length_b                   12.018(5)
_cell_length_c                   10.514(4)
_cell_angle_alpha                90
_cell_angle_beta                 113.854(3)
_cell_angle_gamma                90
_cell_volume                     1062.26
_exptl_crystal_colour            colorless
_exptl_crystal_description       block
_cell_formula_units_Z            4
loop_
_atom_site_label
_atom_site_type_symbol
_atom_site_fract_x
_atom_site_fract_y
_atom_site_fract_z
I1 I 0.71529(4) 0.91828(3) 0.41041(3)
C1 C 0.4238(8) 0.7521(6) 0.5493(6)
H1 H 0.4161 0.8206 0.5932
H2 H 0.5192 0.7524 0.5328
H3 H 0.4267 0.6907 0.6088
C2 C 0.2538(6) 0.6552(5) 0.3245(5)
H4 H 0.3178 0.5933 0.3331
C3 C 0.1151(6) 0.6761(4) 0.2202(5)
H5 H 0.0648 0.6323 0.1416
C4 C 0.1643(7) 0.8119(5) 0.3696(5)
H6 H 0.1552 0.8769 0.4138
C5 C -0.0915(6) 0.8256(5) 0.1655(5)
H7 H -0.1099 0.8873 0.2167
H8 H -0.1756 0.7716 0.1492
C6 C -0.1010(6) 0.8676(4) 0.0280(5)
C7 C -0.2734(9) 0.9469(7) -0.1828(7)
H9 H -0.2013 1.0058 -0.1795
H10 H -0.3809 0.9732 -0.2275
H11 H -0.2582 0.8853 -0.2344
N1 N 0.2853(5) 0.7407(4) 0.4166(4)
N2 N 0.0596(5) 0.7746(3) 0.2498(4)
O1 O 0.0032(4) 0.8587(3) -0.0114(4)
O2 O -0.2424(5) 0.9110(3) -0.0415(5)
loop_
_geom_bond_atom_site_label_1
_geom_bond_atom_site_label_2
_geom_bond_site_symmetry_1
_geom_bond_site_symmetry_2
C1 H1 1_555 1_555
H2 C1 1_555 1_555
H3 C1 1_555 1_555
C2 H4 1_555 1_555
C3 C2 1_555 1_555
H5 C3 1_555 1_555
C4 H6 1_555 1_555
C5 H7 1_555 1_555
H8 C5 1_555 1_555
C6 C5 1_555 1_555
C7 H9 1_555 1_555
H10 C7 1_555 1_555
H11 C7 1_555 1_555
N1 C1 1_555 1_555
N2 C3 1_555 1_555
O1 C6 1_555 1_555
O2 C6 1_555 1_555
C2 N1 1_555 1_555
C4 N1 1_555 1_555
C4 N2 1_555 1_555
C5 N2 1_555 1_555
C7 O2 1_555 1_555

#END
