
#######################################################################
#
#                 Cambridge Crystallographic Data Centre
#                                CCDC 
#
#######################################################################
#
# If this CIF has been generated from an entry in the Cambridge 
# Structural Database, then it will include bibliographic, chemical, 
# crystal, experimental, refinement or atomic coordinate data resulting 
# from the CCDC's data processing and validation procedures.
#
#######################################################################

data_XAVPAM
_chemical_formula_moiety         'C30 H28 N2 O2'
_chemical_name_systematic        
3,5,3',5'-Tetramethyl-N,N'-bis(salicylidene)biphenyl-4,4'-diamine
_symmetry_cell_setting           monoclinic
_symmetry_space_group_name_H-M   'P 21/c'
_symmetry_Int_Tables_number      14
_space_group_name_Hall           '-P 2ybc'
loop_
_symmetry_equiv_pos_site_id
_symmetry_equiv_pos_as_xyz
1 x,y,z
2 -x,1/2+y,1/2-z
3 -x,-y,-z
4 x,1/2-y,1/2+z
_cell_length_a                   10.693(5)
_cell_length_b                   12.896(6)
_cell_length_c                   17.673(8)
_cell_angle_alpha                90
_cell_angle_beta                 90.871(9)
_cell_angle_gamma                90
_cell_volume                     2436.77
_exptl_crystal_colour            'pale yellow'
_exptl_crystal_description       block
_chemical_melting_point          '480 K'
_cell_formula_units_Z            4
_exptl_crystal_recrystallization_method methanol
loop_
_atom_site_label
_atom_site_type_symbol
_atom_site_fract_x
_atom_site_fract_y
_atom_site_fract_z
C1 C 0.6992(3) 0.2741(3) 0.34697(19)
C2 C 0.7802(4) 0.2645(3) 0.4090(2)
H1 H 0.8663 0.2672 0.4022
C3 C 0.7335(4) 0.2513(3) 0.4793(2)
H2 H 0.7885 0.2455 0.5204
C4 C 0.6079(4) 0.2463(3) 0.4912(2)
H3 H 0.5774 0.2362 0.5397
C5 C 0.5265(3) 0.2566(3) 0.42996(19)
H4 H 0.4407 0.2540 0.4376
C6 C 0.5711(3) 0.2706(3) 0.35743(18)
C7 C 0.4819(3) 0.2835(3) 0.29432(18)
H5 H 0.3967 0.2826 0.3041
C8 C 0.4275(3) 0.3144(3) 0.16633(17)
C9 C 0.3404(3) 0.2387(3) 0.14418(17)
C10 C 0.2643(3) 0.2604(3) 0.08110(18)
H6 H 0.2068 0.2106 0.0651
C11 C 0.2709(3) 0.3534(3) 0.04119(17)
C12 C 0.3586(3) 0.4267(3) 0.06545(17)
H7 H 0.3636 0.4897 0.0400
C13 C 0.4395(3) 0.4080(3) 0.12718(17)
C14 C 0.5418(3) 0.4847(3) 0.14726(19)
H8 H 0.5358 0.5036 0.1996
H9 H 0.5326 0.5455 0.1164
H10 H 0.6219 0.4537 0.1385
C15 C 0.3310(3) 0.1349(3) 0.18256(18)
H11 H 0.4134 0.1081 0.1923
H12 H 0.2856 0.0877 0.1503
H13 H 0.2879 0.1426 0.2295
C16 C 0.1930(3) 0.3732(3) -0.02820(17)
C17 C 0.1702(3) 0.2936(3) -0.08082(17)
H14 H 0.1985 0.2270 -0.0700
C18 C 0.1064(3) 0.3116(3) -0.14875(17)
C19 C 0.0625(3) 0.4115(3) -0.16283(17)
C20 C 0.0810(3) 0.4927(3) -0.11198(17)
C21 C 0.1468(3) 0.4710(3) -0.04497(17)
H15 H 0.1601 0.5242 -0.0103
C22 C 0.0360(3) 0.6009(3) -0.12849(18)
H16 H 0.0871 0.6314 -0.1667
H17 H 0.0415 0.6418 -0.0832
H18 H -0.0493 0.5985 -0.1461
C23 C 0.0860(3) 0.2257(3) -0.20559(18)
H19 H 0.1374 0.1673 -0.1921
H20 H 0.1079 0.2498 -0.2550
H21 H -0.0004 0.2053 -0.2058
C24 C -0.1144(3) 0.4369(3) -0.24260(17)
H22 H -0.1630 0.4283 -0.1999
C25 C -0.1761(3) 0.4566(2) -0.31533(18)
C26 C -0.3064(3) 0.4673(3) -0.3194(2)
H23 H -0.3532 0.4586 -0.2760
C27 C -0.3664(4) 0.4907(3) -0.3870(2)
H24 H -0.4528 0.4984 -0.3889
C28 C -0.2977(4) 0.5024(3) -0.4513(2)
H25 H -0.3384 0.5179 -0.4968
C29 C -0.1692(3) 0.4914(3) -0.44978(19)
H26 H -0.1236 0.4990 -0.4938
C30 C -0.1091(3) 0.4688(3) -0.38156(18)
N1 N 0.5174(2) 0.2961(2) 0.22647(15)
N2 N 0.0043(3) 0.4310(2) -0.23580(14)
O1 O 0.7480(2) 0.2884(3) 0.27771(13)
H27 H 0.6914 0.2987 0.2468
O2 O 0.0173(2) 0.4599(3) -0.38157(13)
H28 H 0.0437 0.4559 -0.3379
loop_
_geom_bond_atom_site_label_1
_geom_bond_atom_site_label_2
_geom_bond_site_symmetry_1
_geom_bond_site_symmetry_2
C1 C2 1_555 1_555
C2 H1 1_555 1_555
C3 C2 1_555 1_555
H2 C3 1_555 1_555
C4 C3 1_555 1_555
H3 C4 1_555 1_555
C5 C4 1_555 1_555
H4 C5 1_555 1_555
C6 C1 1_555 1_555
C7 C6 1_555 1_555
H5 C7 1_555 1_555
C8 C9 1_555 1_555
C9 C10 1_555 1_555
C10 H6 1_555 1_555
C11 C10 1_555 1_555
C12 C11 1_555 1_555
H7 C12 1_555 1_555
C13 C8 1_555 1_555
C14 C13 1_555 1_555
H8 C14 1_555 1_555
H9 C14 1_555 1_555
H10 C14 1_555 1_555
C15 C9 1_555 1_555
H11 C15 1_555 1_555
H12 C15 1_555 1_555
H13 C15 1_555 1_555
C16 C11 1_555 1_555
C17 C16 1_555 1_555
H14 C17 1_555 1_555
C18 C17 1_555 1_555
C19 C18 1_555 1_555
C20 C19 1_555 1_555
C21 C16 1_555 1_555
H15 C21 1_555 1_555
C22 C20 1_555 1_555
H16 C22 1_555 1_555
H17 C22 1_555 1_555
H18 C22 1_555 1_555
C23 C18 1_555 1_555
H19 C23 1_555 1_555
H20 C23 1_555 1_555
H21 C23 1_555 1_555
C24 H22 1_555 1_555
C25 C24 1_555 1_555
C26 C25 1_555 1_555
H23 C26 1_555 1_555
C27 C26 1_555 1_555
H24 C27 1_555 1_555
C28 C27 1_555 1_555
H25 C28 1_555 1_555
C29 C28 1_555 1_555
H26 C29 1_555 1_555
C30 C25 1_555 1_555
N1 C7 1_555 1_555
N2 C19 1_555 1_555
O1 C1 1_555 1_555
H27 O1 1_555 1_555
O2 C30 1_555 1_555
H28 O2 1_555 1_555
C5 C6 1_555 1_555
C8 N1 1_555 1_555
C12 C13 1_555 1_555
C20 C21 1_555 1_555
C24 N2 1_555 1_555
C29 C30 1_555 1_555

#END
