
#######################################################################
#
#                 Cambridge Crystallographic Data Centre
#                                CCDC 
#
#######################################################################
#
# If this CIF has been generated from an entry in the Cambridge 
# Structural Database, then it will include bibliographic, chemical, 
# crystal, experimental, refinement or atomic coordinate data resulting 
# from the CCDC's data processing and validation procedures.
#
#######################################################################

data_XAVQUH
_chemical_formula_moiety         'C26 H32 Br1 N1 O4'
_chemical_name_systematic        
'(Z,R,R)-t-Butyl ((E)-(2-((4-bromophenyl)(hydroxy)methyl)cyclohexylidene)methyl)(4-methoxyphenyl)carbamate'
_symmetry_cell_setting           monoclinic
_symmetry_space_group_name_H-M   'P 21/n'
_symmetry_Int_Tables_number      14
_space_group_name_Hall           '-P 2yn'
loop_
_symmetry_equiv_pos_site_id
_symmetry_equiv_pos_as_xyz
1 x,y,z
2 1/2-x,1/2+y,1/2-z
3 -x,-y,-z
4 1/2+x,1/2-y,1/2+z
_cell_length_a                   6.149(2)
_cell_length_b                   24.262(8)
_cell_length_c                   16.606(5)
_cell_angle_alpha                90
_cell_angle_beta                 99.240(6)
_cell_angle_gamma                90
_cell_volume                     2445.25
_exptl_crystal_colour            colorless
_exptl_crystal_description       tabular
_cell_formula_units_Z            4
loop_
_atom_site_label
_atom_site_type_symbol
_atom_site_fract_x
_atom_site_fract_y
_atom_site_fract_z
Br1 Br 0.07647(6) 0.074691(14) 0.14123(2)
C1 C 0.5446(5) 0.19459(12) 0.12197(17)
H1 H 0.6973 0.1997 0.1411
C2 C 0.4428(5) 0.14744(12) 0.14357(17)
H2 H 0.5239 0.1204 0.1773
C3 C 0.2203(5) 0.14016(11) 0.11515(18)
C4 C 0.1006(5) 0.17929(13) 0.06692(18)
H3 H -0.0520 0.1739 0.0479
C5 C 0.2049(4) 0.22619(12) 0.04661(17)
H4 H 0.1221 0.2534 0.0139
C6 C 0.4291(4) 0.23483(11) 0.07286(16)
C7 C 0.5389(4) 0.28606(11) 0.04728(17)
H5 H 0.4256 0.3087 0.0119
C8 C 0.6471(4) 0.32209(11) 0.11940(17)
H6 H 0.7825 0.3028 0.1470
C9 C 0.7154(4) 0.37866(12) 0.08989(18)
H7 H 0.8113 0.3974 0.1353
H8 H 0.8019 0.3732 0.0451
C10 C 0.5164(5) 0.41544(12) 0.0596(2)
H9 H 0.5689 0.4527 0.0477
H10 H 0.4353 0.4000 0.0083
C11 C 0.3606(5) 0.42018(13) 0.1218(2)
H11 H 0.2272 0.4407 0.0972
H12 H 0.4335 0.4414 0.1695
C12 C 0.2925(5) 0.36391(12) 0.15045(19)
H13 H 0.2031 0.3686 0.1946
H14 H 0.2024 0.3442 0.1046
C13 C 0.4971(4) 0.33132(11) 0.18129(19)
C14 C 0.5459(4) 0.31936(11) 0.26006(19)
H15 H 0.4405 0.3284 0.2939
C15 C 0.7406(4) 0.23577(11) 0.31738(16)
C16 C 0.9089(4) 0.20075(12) 0.30471(17)
H16 H 1.0340 0.2149 0.2847
C17 C 0.8951(5) 0.14525(13) 0.32120(17)
H17 H 1.0115 0.1213 0.3127
C18 C 0.7121(5) 0.12404(12) 0.35022(18)
C19 C 0.5458(5) 0.15897(13) 0.36339(16)
H18 H 0.4212 0.1450 0.3839
C20 C 0.5603(4) 0.21485(12) 0.34658(17)
H19 H 0.4443 0.2389 0.3553
C21 C 0.5270(6) 0.04431(14) 0.3891(2)
H20 H 0.5024 0.0623 0.4397
H21 H 0.5529 0.0049 0.3991
H22 H 0.3968 0.0493 0.3472
C22 C 0.9191(5) 0.32507(12) 0.33565(17)
C23 C 0.9910(4) 0.42270(12) 0.36851(17)
C24 C 1.2393(5) 0.42341(12) 0.3733(2)
H23 H 1.3019 0.3896 0.3996
H24 H 1.3006 0.4554 0.4052
H25 H 1.2761 0.4258 0.3181
C25 C 0.8881(5) 0.47374(13) 0.3265(2)
H26 H 0.9300 0.4767 0.2721
H27 H 0.9400 0.5063 0.3588
H28 H 0.7273 0.4713 0.3212
C26 C 0.9243(6) 0.41592(13) 0.45149(19)
H29 H 0.7633 0.4164 0.4460
H30 H 0.9858 0.4462 0.4870
H31 H 0.9806 0.3807 0.4753
N1 N 0.7483(4) 0.29346(9) 0.29786(13)
O1 O 0.7113(3) 0.27297(8) 0.00177(11)
H32 H 0.6607 0.2531 -0.0383
O2 O 0.7135(4) 0.06814(8) 0.36197(13)
O3 O 0.8882(3) 0.37810(8) 0.31478(11)
O4 O 1.0800(3) 0.30683(8) 0.38052(12)
loop_
_geom_bond_atom_site_label_1
_geom_bond_atom_site_label_2
_geom_bond_site_symmetry_1
_geom_bond_site_symmetry_2
Br1 C3 1_555 1_555
C1 H1 1_555 1_555
C2 C1 1_555 1_555
H2 C2 1_555 1_555
C3 C2 1_555 1_555
C4 C3 1_555 1_555
H3 C4 1_555 1_555
C5 C4 1_555 1_555
H4 C5 1_555 1_555
C6 C1 1_555 1_555
C7 C6 1_555 1_555
H5 C7 1_555 1_555
C8 C7 1_555 1_555
H6 C8 1_555 1_555
C9 C8 1_555 1_555
H7 C9 1_555 1_555
H8 C9 1_555 1_555
C10 C9 1_555 1_555
H9 C10 1_555 1_555
H10 C10 1_555 1_555
C11 C10 1_555 1_555
H11 C11 1_555 1_555
H12 C11 1_555 1_555
C12 C11 1_555 1_555
H13 C12 1_555 1_555
H14 C12 1_555 1_555
C13 C8 1_555 1_555
C14 C13 1_555 1_555
H15 C14 1_555 1_555
C15 C16 1_555 1_555
C16 H16 1_555 1_555
C17 C16 1_555 1_555
H17 C17 1_555 1_555
C18 C17 1_555 1_555
C19 C18 1_555 1_555
H18 C19 1_555 1_555
C20 C15 1_555 1_555
H19 C20 1_555 1_555
C21 H20 1_555 1_555
H21 C21 1_555 1_555
H22 C21 1_555 1_555
C22 N1 1_555 1_555
C23 C24 1_555 1_555
C24 H23 1_555 1_555
H24 C24 1_555 1_555
H25 C24 1_555 1_555
C25 C23 1_555 1_555
H26 C25 1_555 1_555
H27 C25 1_555 1_555
H28 C25 1_555 1_555
C26 C23 1_555 1_555
H29 C26 1_555 1_555
H30 C26 1_555 1_555
H31 C26 1_555 1_555
N1 C14 1_555 1_555
O1 C7 1_555 1_555
H32 O1 1_555 1_555
O2 C18 1_555 1_555
O3 C22 1_555 1_555
O4 C22 1_555 1_555
C5 C6 1_555 1_555
C12 C13 1_555 1_555
C15 N1 1_555 1_555
C19 C20 1_555 1_555
C21 O2 1_555 1_555
C23 O3 1_555 1_555

#END
