
#######################################################################
#
#                 Cambridge Crystallographic Data Centre
#                                CCDC 
#
#######################################################################
#
# If this CIF has been generated from an entry in the Cambridge 
# Structural Database, then it will include bibliographic, chemical, 
# crystal, experimental, refinement or atomic coordinate data resulting 
# from the CCDC's data processing and validation procedures.
#
#######################################################################

data_XAVTOG
_chemical_name_common            'mycophenolic acid minoxidil'
_chemical_formula_moiety         'C17 H20 O6,C9 H15 N5 O1'
_chemical_name_systematic        
'6-amino-2-iminio-4-(piperidin-1-yl)pyrimidin-1(2H)-olate 6-(4-hydroxy-6-methoxy-7-methyl-3-oxo-1,3-dihydro-2-benzofuran-5-yl)-4-methylhex-4-enoic acid'
_symmetry_cell_setting           triclinic
_symmetry_space_group_name_H-M   'P -1'
_symmetry_Int_Tables_number      2
_space_group_name_Hall           '-P 1'
loop_
_symmetry_equiv_pos_site_id
_symmetry_equiv_pos_as_xyz
1 x,y,z
2 -x,-y,-z
_cell_length_a                   8.9944(10)
_cell_length_b                   11.1012(16)
_cell_length_c                   15.114(2)
_cell_angle_alpha                89.869(12)
_cell_angle_beta                 73.456(11)
_cell_angle_gamma                68.119(13)
_cell_volume                     1333.24
_exptl_crystal_colour            colorless
_exptl_crystal_description       block
_cell_formula_units_Z            2
loop_
_atom_site_label
_atom_site_type_symbol
_atom_site_fract_x
_atom_site_fract_y
_atom_site_fract_z
C1 C -0.2711(4) 0.8710(3) 0.5098(2)
C2 C -0.3140(5) 0.8329(3) 0.4277(2)
H1 H -0.4345 0.8555 0.4455
H2 H -0.2591 0.7387 0.4124
C3 C -0.2638(5) 0.8964(3) 0.3415(2)
H3 H -0.3284 0.9899 0.3542
H4 H -0.1458 0.8817 0.3270
C4 C -0.2921(4) 0.8440(3) 0.2583(2)
C5 C -0.1627(4) 0.7531(3) 0.1964(2)
H5 H -0.0609 0.7248 0.2095
C6 C -0.1595(4) 0.6898(3) 0.1071(2)
H6 H -0.2725 0.7190 0.1022
H7 H -0.1160 0.5955 0.1064
C7 C -0.4673(4) 0.9010(3) 0.2526(2)
H8 H -0.4746 0.8544 0.2016
H9 H -0.4961 0.9914 0.2429
H10 H -0.5438 0.8941 0.3094
C8 C -0.0471(4) 0.7281(3) 0.0262(2)
C9 C -0.1139(4) 0.8355(3) -0.0190(2)
C10 C -0.0161(4) 0.8873(3) -0.0855(2)
C11 C 0.1545(4) 0.8220(3) -0.1049(2)
C12 C 0.2252(4) 0.7133(3) -0.0635(2)
C13 C 0.1261(4) 0.6647(3) 0.0028(2)
C14 C -0.0940(5) 1.0065(3) -0.1295(2)
H11 H -0.0087 1.0366 -0.1626
H12 H -0.1786 1.0741 -0.0822
H13 H -0.1444 0.9850 -0.1720
C15 C -0.3658(5) 0.8437(4) -0.0409(3)
H14 H -0.3429 0.8632 -0.1041
H15 H -0.4851 0.8796 -0.0108
H16 H -0.3225 0.7506 -0.0400
C16 C 0.4065(4) 0.6693(4) -0.0981(2)
C17 C 0.2966(4) 0.8528(3) -0.1663(2)
H17 H 0.2950 0.8517 -0.2302
H18 H 0.2890 0.9380 -0.1454
O1 O -0.2349(3) 0.9663(2) 0.51520(15)
O2 O -0.2787(4) 0.7954(3) 0.57350(17)
H19 H -0.2401 0.8129 0.6125
O3 O -0.2860(3) 0.9000(2) 0.00730(15)
O4 O 0.1891(3) 0.5612(2) 0.04836(17)
H20 H 0.2919 0.5356 0.0324
O5 O 0.4465(3) 0.7515(2) -0.15802(15)
O6 O 0.5142(3) 0.5777(3) -0.08070(19)
C18 C 0.0183(4) 0.6350(3) 0.7292(2)
C19 C 0.0961(4) 0.7915(3) 0.6425(2)
C20 C 0.1799(4) 0.5621(3) 0.7185(2)
H21 H 0.2094 0.4835 0.7440
C21 C 0.3011(4) 0.6033(3) 0.6701(2)
C22 C 0.5181(5) 0.4069(4) 0.6977(4)
H22 H 0.4393 0.4207 0.7595
H23 H 0.5022 0.3433 0.6615
C23 C 0.8143(6) 0.3613(5) 0.6120(4)
H24 H 0.9134 0.3548 0.6286
H25 H 0.8473 0.2877 0.5661
C24 C 0.7547(8) 0.4854(6) 0.5691(6)
C25 C 0.5868(12) 0.5903(9) 0.6254(7)
C26 C 0.6807(10) 0.3066(8) 0.6371(8)
H26 H -0.083(5) 0.530(4) 0.804(3)
H27 H -0.205(6) 0.658(4) 0.780(3)
H28 H 0.130(5) 0.923(4) 0.569(3)
H29 H -0.057(5) 0.935(3) 0.613(2)
N1 N -0.0251(3) 0.7492(2) 0.69095(17)
N2 N -0.1104(5) 0.6032(4) 0.7755(2)
N3 N 0.0432(5) 0.9050(3) 0.6082(2)
N4 N 0.2592(4) 0.7197(3) 0.6325(2)
N5 N 0.4651(4) 0.5291(3) 0.6577(2)
O7 O -0.1911(3) 0.8266(2) 0.70744(15)
C27? C 0.6713(19) 0.3503(14) 0.7061(14)
C28? C 0.6046(19) 0.5437(15) 0.5753(10)
H30? H 0.701(12) 0.546(7) 0.625(4)
H31? H 0.831(5) 0.525(4) 0.539(3)
loop_
_geom_bond_atom_site_label_1
_geom_bond_atom_site_label_2
_geom_bond_site_symmetry_1
_geom_bond_site_symmetry_2
C1 C2 1_555 1_555
C2 H1 1_555 1_555
H2 C2 1_555 1_555
C3 C2 1_555 1_555
H3 C3 1_555 1_555
H4 C3 1_555 1_555
C4 C3 1_555 1_555
C5 C4 1_555 1_555
H5 C5 1_555 1_555
C6 C5 1_555 1_555
H6 C6 1_555 1_555
H7 C6 1_555 1_555
C7 C4 1_555 1_555
H8 C7 1_555 1_555
H9 C7 1_555 1_555
H10 C7 1_555 1_555
C8 C6 1_555 1_555
C9 C8 1_555 1_555
C10 C9 1_555 1_555
C11 C10 1_555 1_555
C12 C11 1_555 1_555
C13 C8 1_555 1_555
C14 C10 1_555 1_555
H11 C14 1_555 1_555
H12 C14 1_555 1_555
H13 C14 1_555 1_555
C15 H14 1_555 1_555
H15 C15 1_555 1_555
H16 C15 1_555 1_555
C16 C12 1_555 1_555
C17 C11 1_555 1_555
H17 C17 1_555 1_555
H18 C17 1_555 1_555
O1 C1 1_555 1_555
O2 C1 1_555 1_555
H19 O2 1_555 1_555
O3 C9 1_555 1_555
O4 C13 1_555 1_555
H20 O4 1_555 1_555
O5 C16 1_555 1_555
O6 C16 1_555 1_555
C18 C20 1_555 1_555
C19 N1 1_555 1_555
C20 H21 1_555 1_555
C21 C20 1_555 1_555
C22 H22 1_555 1_555
H23 C22 1_555 1_555
C23 H24 1_555 1_555
H25 C23 1_555 1_555
C24 C23 1_555 1_555
C25 C24 1_555 1_555
C26 C22 1_555 1_555
H26 N2 1_555 1_555
H27 N2 1_555 1_555
H28 N3 1_555 1_555
H29 N3 1_555 1_555
N1 C18 1_555 1_555
N2 C18 1_555 1_555
N3 C19 1_555 1_555
N4 C19 1_555 1_555
N5 C21 1_555 1_555
O7 N1 1_555 1_555
C12 C13 1_555 1_555
C15 O3 1_555 1_555
C17 O5 1_555 1_555
C21 N4 1_555 1_555
C22 N5 1_555 1_555
C23 C26 1_555 1_555
C25 N5 1_555 1_555

#END
