
#######################################################################
#
#                 Cambridge Crystallographic Data Centre
#                                CCDC 
#
#######################################################################
#
# If this CIF has been generated from an entry in the Cambridge 
# Structural Database, then it will include bibliographic, chemical, 
# crystal, experimental, refinement or atomic coordinate data resulting 
# from the CCDC's data processing and validation procedures.
#
#######################################################################

data_XAWBON
_chemical_formula_moiety         'C8 H10 Cl1 N1 O1'
_chemical_name_systematic        
(1R,2R,4R)-2-Chlorobicyclo(2.2.1)hept-5-ene-exo-2-carboxamide
_symmetry_cell_setting           monoclinic
_symmetry_space_group_name_H-M   'P 21'
_symmetry_Int_Tables_number      4
_space_group_name_Hall           'P 2yb'
loop_
_symmetry_equiv_pos_site_id
_symmetry_equiv_pos_as_xyz
1 x,y,z
2 -x,1/2+y,-z
_cell_length_a                   10.1628(13)
_cell_length_b                   6.8521(11)
_cell_length_c                   11.9639(14)
_cell_angle_alpha                90
_cell_angle_beta                 98.923(10)
_cell_angle_gamma                90
_cell_volume                     823.042
_exptl_crystal_colour            white
_exptl_crystal_description       prism
_chemical_melting_point          '112-114 deg.C'
_cell_formula_units_Z            4
loop_
_atom_site_label
_atom_site_type_symbol
_atom_site_fract_x
_atom_site_fract_y
_atom_site_fract_z
Cl1 Cl 0.65678(19) -0.2681(3) -0.34571(9)
N1 N 0.6118(3) -0.2640(7) -0.0706(2)
O1 O 0.8231(3) -0.2452(5) -0.0978(2)
C1 C 0.6791(4) -0.4412(5) -0.2309(3)
C2 C 0.5573(3) -0.5762(6) -0.2370(3)
C3 C 0.5344(4) -0.6654(6) -0.3538(3)
C4 C 0.6301(4) -0.7878(7) -0.3610(3)
C5 C 0.7212(4) -0.7838(6) -0.2507(4)
C6 C 0.7919(4) -0.5857(6) -0.2418(4)
C7 C 0.6219(4) -0.7472(7) -0.1699(3)
C8 C 0.7105(4) -0.3096(5) -0.1258(3)
H1 H 0.4810 -0.5160 -0.2152
H2 H 0.4629 -0.6363 -0.4125
H3 H 0.6404 -0.8669 -0.4243
H4 H 0.7801 -0.8920 -0.2388
H5 H 0.8290 -0.5605 -0.3085
H6 H 0.8600 -0.5797 -0.1778
H7 H 0.5631 -0.8540 -0.1665
H8 H 0.6628 -0.7137 -0.0955
H25 H 0.629(4) -0.166(6) -0.016(3)
H27 H 0.530(4) -0.303(7) -0.087(3)
Cl2 Cl 0.9027(2) 0.5270(4) 0.12524(18)
N2 N 0.8894(4) 0.0988(6) 0.0723(3)
O2 O 0.6780(2) 0.0941(5) 0.1013(2)
C9 C 0.8256(6) 0.3412(9) 0.1997(4)
C10 C 0.9171(6) 0.272(1) 0.3092(5)
C11 C 0.9586(7) 0.4521(11) 0.3771(5)
C12 C 0.8528(8) 0.5188(12) 0.4165(7)
C13 C 0.7386(9) 0.3878(12) 0.3738(7)
C14 C 0.7045(8) 0.4219(16) 0.2466(6)
C15 C 0.8103(8) 0.196(1) 0.3729(6)
C16 C 0.7897(6) 0.166(1) 0.1193(6)
H9 H 0.9892 0.190 0.2983
H10 H 1.0441 0.5115 0.3870
H11 H 0.8501 0.6281 0.4649
H12 H 0.6650 0.4031 0.4131
H13 H 0.6931 0.5567 0.2293
H14 H 0.6258 0.3530 0.2165
H15 H 0.8442 0.152 0.4470
H16 H 0.7565 0.097 0.3335
H26 H 0.873(4) 0.022(6) 0.008(3)
H28 H 0.968(4) 0.149(6) 0.094(3)
Cl3? Cl 0.8423(5) 0.0749(6) 0.3500(3)
C17? C 0.8266(8) 0.2631(8) 0.2437(5)
C18? C 0.7144(11) 0.4140(15) 0.2575(8)
C19? C 0.7502(11) 0.4857(16) 0.3798(7)
C20? C 0.8556(12) 0.599(2) 0.3866(8)
C21? C 0.8989(9) 0.5965(14) 0.2734(8)
C22? C 0.9513(7) 0.3910(12) 0.2546(8)
C23? C 0.7652(9) 0.5843(12) 0.1984(7)
C24? C 0.7945(7) 0.1447(12) 0.1324(7)
H17? H 0.6261 0.3668 0.2372
H18? H 0.7052 0.4516 0.4410
H19? H 0.8925 0.676 0.4498
H20? H 0.9591 0.6982 0.2623
H21? H 1.0114 0.3540 0.3201
H22? H 0.9953 0.3846 0.1902
H23? H 0.7116 0.6976 0.1995
H24? H 0.7747 0.5544 0.1225
loop_
_geom_bond_atom_site_label_1
_geom_bond_atom_site_label_2
_geom_bond_site_symmetry_1
_geom_bond_site_symmetry_2
Cl1 C1 1_555 1_555
Cl2 C9 1_555 1_555
N1 C8 1_555 1_555
O1 C8 1_555 1_555
N2 C16 1_555 1_555
O2 C16 1_555 1_555
C1 C2 1_555 1_555
C2 C3 1_555 1_555
C3 C4 1_555 1_555
C4 C5 1_555 1_555
C5 C6 1_555 1_555
C6 C1 1_555 1_555
C7 C2 1_555 1_555
C8 C1 1_555 1_555
C9 C10 1_555 1_555
C10 C11 1_555 1_555
C11 C12 1_555 1_555
C12 C13 1_555 1_555
C13 C14 1_555 1_555
C14 C9 1_555 1_555
C15 C10 1_555 1_555
C16 C9 1_555 1_555
H1 C2 1_555 1_555
H2 C3 1_555 1_555
H3 C4 1_555 1_555
H4 C5 1_555 1_555
H5 C6 1_555 1_555
H6 C6 1_555 1_555
H7 C7 1_555 1_555
H8 C7 1_555 1_555
H9 C10 1_555 1_555
H10 C11 1_555 1_555
H11 C12 1_555 1_555
H12 C13 1_555 1_555
H13 C14 1_555 1_555
H14 C14 1_555 1_555
H15 C15 1_555 1_555
H16 C15 1_555 1_555
H25 N1 1_555 1_555
H26 N2 1_555 1_555
H27 N1 1_555 1_555
H28 N2 1_555 1_555
C5 C7 1_555 1_555
C13 C15 1_555 1_555

#END
