
#######################################################################
#
#                 Cambridge Crystallographic Data Centre
#                                CCDC 
#
#######################################################################
#
# If this CIF has been generated from an entry in the Cambridge 
# Structural Database, then it will include bibliographic, chemical, 
# crystal, experimental, refinement or atomic coordinate data resulting 
# from the CCDC's data processing and validation procedures.
#
#######################################################################

data_XAWBUV
_chemical_formula_moiety         'C32 H38 O6'
_chemical_name_systematic        
1-(2-(3,4-dimethoxy-2-(prop-1-en-1-yl)benzyl)-4,5-dimethoxybenzyl)-3,4-dimethoxy-2-(prop-1-en-1-yl)benzene
_symmetry_cell_setting           monoclinic
_symmetry_space_group_name_H-M   'C 2/c'
_symmetry_Int_Tables_number      15
_space_group_name_Hall           '-C 2yn'
loop_
_symmetry_equiv_pos_site_id
_symmetry_equiv_pos_as_xyz
1 x,y,z
2 -x,y,1/2-z
3 1/2+x,1/2+y,z
4 1/2-x,1/2+y,1/2-z
5 -x,-y,-z
6 x,-y,1/2+z
7 1/2-x,1/2-y,-z
8 1/2+x,1/2-y,1/2+z
_cell_length_a                   26.873(11)
_cell_length_b                   8.423(3)
_cell_length_c                   13.594(6)
_cell_angle_alpha                90
_cell_angle_beta                 111.434(16)
_cell_angle_gamma                90
_cell_volume                     2864.21
_exptl_crystal_colour            colorless
_cell_formula_units_Z            4
loop_
_atom_site_label
_atom_site_type_symbol
_atom_site_fract_x
_atom_site_fract_y
_atom_site_fract_z
O1 O 0.69128(6) 0.7498(2) 0.00451(12)
O2 O 0.72421(6) 0.73286(18) 0.21262(12)
O3 O 0.53342(6) 1.22380(18) 0.19883(12)
C1 C 0.67378(10) 0.7771(3) -0.10677(18)
H1 H 0.6490 0.8672 -0.1258
H2 H 0.6556 0.6821 -0.1447
H3 H 0.7047 0.8007 -0.1261
C2 C 0.65255(9) 0.7174(3) 0.04471(18)
C3 C 0.66983(8) 0.7101(3) 0.15470(18)
C4 C 0.63562(9) 0.6807(3) 0.20898(17)
C5 C 0.58044(8) 0.6553(3) 0.14744(17)
C6 C 0.53860(9) 0.6332(3) 0.19589(18)
H4 H 0.5540 0.5694 0.2612
H5 H 0.5083 0.5726 0.1460
C7 C 0.51758(8) 0.7889(3) 0.22279(17)
C8 C 0.56440(9) 0.6609(3) 0.03832(18)
H6 H 0.5278 0.6426 -0.0026
C9 C 0.59882(9) 0.6917(3) -0.01445(18)
H7 H 0.5859 0.6951 -0.0895
C10 C 0.73767(9) 0.8988(3) 0.2295(2)
H8 H 0.7192 0.9456 0.2727
H9 H 0.7266 0.9535 0.1612
H10 H 0.7764 0.9101 0.2661
C11 C 0.65970(9) 0.6754(3) 0.32556(18)
H11 H 0.6946 0.6315 0.3535
C12 C 0.64012(10) 0.7223(3) 0.39699(19)
H12 H 0.6050 0.7653 0.3725
C13 C 0.66968(10) 0.7123(3) 0.51403(18)
H13 H 0.6501 0.6430 0.5453
H14 H 0.6728 0.8186 0.5450
H15 H 0.7055 0.6686 0.5284
C14 C 0.53408(9) 0.9340(3) 0.19541(17)
H16 H 0.5576 0.9341 0.1575
C15 C 0.51731(8) 1.0776(3) 0.22172(17)
C16 C 0.56761(9) 1.2214(3) 0.13868(18)
H17 H 0.5489 1.1700 0.0704
H18 H 0.6003 1.1620 0.1776
H19 H 0.5770 1.3304 0.1271
O1A O 0.30872(6) 0.7498(2) 0.49549(12)
O2A O 0.27579(6) 0.73286(18) 0.28738(12)
O3A O 0.46658(6) 1.22380(18) 0.30117(12)
C1A C 0.32622(10) 0.7771(3) 0.60677(18)
H1A H 0.3510 0.8672 0.6258
H2A H 0.3444 0.6821 0.6447
H3A H 0.2953 0.8007 0.6261
C2A C 0.34745(9) 0.7174(3) 0.45529(18)
C3A C 0.33017(8) 0.7101(3) 0.34530(18)
C4A C 0.36438(9) 0.6807(3) 0.29102(17)
C5A C 0.41956(8) 0.6553(3) 0.35256(17)
C6A C 0.46140(9) 0.6332(3) 0.30411(18)
H4A H 0.4460 0.5694 0.2388
H5A H 0.4917 0.5726 0.3540
C7A C 0.48242(8) 0.7889(3) 0.27721(17)
C8A C 0.43560(9) 0.6609(3) 0.46168(18)
H6A H 0.4722 0.6426 0.5026
C9A C 0.40118(9) 0.6917(3) 0.51445(18)
H7A H 0.4141 0.6951 0.5895
C10A C 0.26233(9) 0.8988(3) 0.2705(2)
H8A H 0.2808 0.9456 0.2273
H9A H 0.2734 0.9535 0.3388
H10A H 0.2236 0.9101 0.2339
C11A C 0.34030(9) 0.6754(3) 0.17444(18)
H11A H 0.3054 0.6315 0.1465
C12A C 0.35988(10) 0.7223(3) 0.10301(19)
H12A H 0.3950 0.7653 0.1275
C13A C 0.33032(10) 0.7123(3) -0.01403(18)
H13A H 0.3499 0.6430 -0.0453
H14A H 0.3272 0.8186 -0.0450
H15A H 0.2945 0.6686 -0.0284
C14A C 0.46592(9) 0.9340(3) 0.30459(17)
H16A H 0.4424 0.9341 0.3425
C15A C 0.48269(8) 1.0776(3) 0.27828(17)
C16A C 0.43239(9) 1.2214(3) 0.36132(18)
H17A H 0.4511 1.1700 0.4296
H18A H 0.3997 1.1620 0.3224
H19A H 0.4230 1.3304 0.3729
loop_
_geom_bond_atom_site_label_1
_geom_bond_atom_site_label_2
_geom_bond_site_symmetry_1
_geom_bond_site_symmetry_2
O1 C1 1_555 1_555
O2 C3 1_555 1_555
O3 C15 1_555 1_555
C1 H1 1_555 1_555
H2 C1 1_555 1_555
H3 C1 1_555 1_555
C2 O1 1_555 1_555
C3 C2 1_555 1_555
C4 C3 1_555 1_555
C5 C4 1_555 1_555
C6 C5 1_555 1_555
H4 C6 1_555 1_555
H5 C6 1_555 1_555
C7 C6 1_555 1_555
C8 C5 1_555 1_555
H6 C8 1_555 1_555
C9 C2 1_555 1_555
H7 C9 1_555 1_555
C10 O2 1_555 1_555
H8 C10 1_555 1_555
H9 C10 1_555 1_555
H10 C10 1_555 1_555
C11 C4 1_555 1_555
H11 C11 1_555 1_555
C12 C11 1_555 1_555
H12 C12 1_555 1_555
C13 C12 1_555 1_555
H13 C13 1_555 1_555
H14 C13 1_555 1_555
H15 C13 1_555 1_555
C14 C7 1_555 1_555
H16 C14 1_555 1_555
C15 C14 1_555 1_555
C16 O3 1_555 1_555
H17 C16 1_555 1_555
H18 C16 1_555 1_555
H19 C16 1_555 1_555
O1A C1A 1_555 1_555
O2A C3A 1_555 1_555
O3A C15A 1_555 1_555
C1A H1A 1_555 1_555
H2A C1A 1_555 1_555
H3A C1A 1_555 1_555
C2A O1A 1_555 1_555
C3A C2A 1_555 1_555
C4A C3A 1_555 1_555
C5A C4A 1_555 1_555
C6A C5A 1_555 1_555
H4A C6A 1_555 1_555
H5A C6A 1_555 1_555
C7A C7 1_555 1_555
C8A C5A 1_555 1_555
H6A C8A 1_555 1_555
C9A C2A 1_555 1_555
H7A C9A 1_555 1_555
C10A O2A 1_555 1_555
H8A C10A 1_555 1_555
H9A C10A 1_555 1_555
H10A C10A 1_555 1_555
C11A C4A 1_555 1_555
H11A C11A 1_555 1_555
C12A C11A 1_555 1_555
H12A C12A 1_555 1_555
C13A C12A 1_555 1_555
H13A C13A 1_555 1_555
H14A C13A 1_555 1_555
H15A C13A 1_555 1_555
C14A C7A 1_555 1_555
H16A C14A 1_555 1_555
C15A C15 1_555 1_555
C16A O3A 1_555 1_555
H17A C16A 1_555 1_555
H18A C16A 1_555 1_555
H19A C16A 1_555 1_555
C8 C9 1_555 1_555
C6A C7A 1_555 1_555
C8A C9A 1_555 1_555
C14A C15A 1_555 1_555

#END
