
#######################################################################
#
#                 Cambridge Crystallographic Data Centre
#                                CCDC 
#
#######################################################################
#
# If this CIF has been generated from an entry in the Cambridge 
# Structural Database, then it will include bibliographic, chemical, 
# crystal, experimental, refinement or atomic coordinate data resulting 
# from the CCDC's data processing and validation procedures.
#
#######################################################################

data_XAWGIO
_chemical_formula_moiety         'C31 H39 N1 O6,C1 H4 O1'
_chemical_name_systematic        
"6-ethyl-12-hexyl-4-hydroxy-10-methoxy-11a-methyl-7,8,9,10,11b,12-hexahydro-15H-5,15a-epoxy-1,14a-methanobenzo[3',4']cycloundeca[1',2':3,4]cyclopenta[1,2-b]pyrrole-11,13,17(11aH,14H)-trione methanol solvate"
_symmetry_cell_setting           orthorhombic
_symmetry_space_group_name_H-M   'P 21 21 21'
_symmetry_Int_Tables_number      19
_space_group_name_Hall           'P 2ac 2ab'
loop_
_symmetry_equiv_pos_site_id
_symmetry_equiv_pos_as_xyz
1 x,y,z
2 1/2-x,-y,1/2+z
3 -x,1/2+y,1/2-z
4 1/2+x,1/2-y,-z
_cell_length_a                   8.5601(9)
_cell_length_b                   14.9864(13)
_cell_length_c                   23.2722(18)
_cell_angle_alpha                90
_cell_angle_beta                 90
_cell_angle_gamma                90
_cell_volume                     2985.48
_cell_formula_units_Z            4
loop_
_atom_site_label
_atom_site_type_symbol
_atom_site_fract_x
_atom_site_fract_y
_atom_site_fract_z
N1 N 0.7176(7) 0.4599(4) 0.2691(2)
H1 H 0.7449 0.4053 0.2741
O1 O 0.3515(6) 0.5671(3) 0.12193(16)
O2 O 0.5484(6) 0.5290(3) -0.05426(17)
H2 H 0.6079 0.5102 -0.0791
O3 O 0.9214(6) 0.4365(4) 0.1788(2)
O4 O 0.7363(7) 0.5018(3) 0.36371(17)
O5 O 0.5013(7) 0.7637(3) 0.2385(2)
O6 O 0.1936(6) 0.7711(3) 0.2230(2)
C1 C 0.3684(9) 0.5753(4) 0.0610(3)
C2 C 0.5294(9) 0.5394(4) 0.0478(3)
C3 C 0.6121(9) 0.5152(5) -0.0018(3)
C4 C 0.7543(9) 0.4753(4) 0.0047(3)
H3 H 0.8085 0.4586 -0.0283
C5 C 0.8228(9) 0.4580(4) 0.0575(2)
H4 H 0.9198 0.4304 0.0599
C6 C 0.7423(9) 0.4833(4) 0.1073(3)
C7 C 0.6008(9) 0.5240(4) 0.1005(3)
C8 C 0.7966(10) 0.4675(5) 0.1666(3)
C9 C 0.6762(9) 0.4958(4) 0.2130(3)
C10 C 0.6854(9) 0.6010(4) 0.2234(2)
H5 H 0.7915 0.6216 0.2149
C11 C 0.6542(9) 0.6108(4) 0.2893(2)
H6 H 0.5420 0.6180 0.2963
C12 C 0.7099(9) 0.5188(5) 0.3125(3)
C13 C 0.5061(9) 0.4833(4) 0.1952(2)
H7 H 0.4862 0.4240 0.1803
H8 H 0.4344 0.4962 0.2264
C14 C 0.5003(9) 0.5542(4) 0.1483(3)
C15 C 0.5707(9) 0.6417(4) 0.1787(3)
C16 C 0.4527(9) 0.7080(5) 0.2051(3)
C17 C 0.2807(9) 0.7144(5) 0.1855(3)
H9 H 0.2335 0.6548 0.1843
C18 C 0.2728(9) 0.7580(4) 0.1259(3)
H10 H 0.2827 0.8221 0.1305
H11 H 0.3615 0.7378 0.1035
C19 C 0.1232(9) 0.7386(5) 0.0920(3)
H12 H 0.1185 0.7789 0.0594
H13 H 0.0341 0.7514 0.1164
C20 C 0.1084(9) 0.6421(5) 0.0698(3)
H14 H 0.0951 0.6025 0.1023
H15 H 0.0152 0.6377 0.0462
C21 C 0.2452(10) 0.6114(5) 0.0354(3)
C22 C 0.2415(10) 0.6331(5) -0.0293(3)
H16 H 0.2220 0.6964 -0.0343
H17 H 0.3428 0.6198 -0.0460
C23 C 0.1165(10) 0.5804(5) -0.0609(3)
H18 H 0.0162 0.5930 -0.0444
H19 H 0.1382 0.5177 -0.0576
H20 H 0.1163 0.5970 -0.1007
C24 C 0.6662(9) 0.6995(4) 0.1356(2)
H21 H 0.7138 0.7484 0.1557
H22 H 0.5978 0.7222 0.1064
H23 H 0.7460 0.6635 0.1182
C25 C 0.1597(12) 0.7311(6) 0.2774(3)
H24 H 0.2549 0.7236 0.2987
H25 H 0.1118 0.6739 0.2715
H26 H 0.0897 0.7688 0.2986
C26 C 0.7448(10) 0.6871(5) 0.3181(3)
H27 H 0.8498 0.6669 0.3268
H28 H 0.7530 0.7367 0.2914
C27 C 0.6671(11) 0.7195(5) 0.3733(3)
H29 H 0.6651 0.6722 0.4017
H30 H 0.5606 0.7383 0.3658
C28 C 0.766(13) 0.800(5) 0.396(2)
H31 H 0.8736 0.7801 0.3998
H32 H 0.7649 0.8462 0.3665
C29 C 0.713(3) 0.8398(18) 0.4522(9)
H33 H 0.6026 0.8547 0.4494
H34 H 0.7698 0.8947 0.4590
C30 C 0.737(3) 0.7770(19) 0.5031(8)
H35 H 0.6834 0.7211 0.4958
H36 H 0.8476 0.7642 0.5072
C31 C 0.676(7) 0.818(4) 0.5585(19)
H37 H 0.5663 0.8301 0.5546
H38 H 0.7309 0.8722 0.5664
H39 H 0.6915 0.7766 0.5896
O7 O 0.1401(12) 0.5028(6) 0.2609(3)
H51 H 0.0814 0.4842 0.2357
C36 C 0.1471(17) 0.4427(9) 0.3042(4)
H52 H 0.2205 0.3966 0.2945
H53 H 0.0458 0.4168 0.3100
H54 H 0.1801 0.4720 0.3388
H40? H 0.6391 0.6674 0.3958
H41? H 0.5701 0.7486 0.3627
C32? C 0.752(14) 0.783(6) 0.412(2)
H42? H 0.7591 0.8413 0.3938
H43? H 0.8578 0.7619 0.4187
C33? C 0.668(4) 0.793(2) 0.4706(10)
H44? H 0.5696 0.8241 0.4654
H45? H 0.6470 0.7349 0.4868
C34? C 0.773(3) 0.846(2) 0.5112(8)
H46? H 0.8809 0.8280 0.5058
H47? H 0.7662 0.9094 0.5017
C35? C 0.728(8) 0.833(5) 0.574(2)
H48? H 0.7571 0.7743 0.5856
H49? H 0.6177 0.8410 0.5779
H50? H 0.7821 0.8764 0.5970
loop_
_geom_bond_atom_site_label_1
_geom_bond_atom_site_label_2
_geom_bond_site_symmetry_1
_geom_bond_site_symmetry_2
N1 H1 1_555 1_555
O1 C1 1_555 1_555
O2 H2 1_555 1_555
O3 C8 1_555 1_555
O4 C12 1_555 1_555
O5 C16 1_555 1_555
O6 C17 1_555 1_555
C1 C2 1_555 1_555
C2 C3 1_555 1_555
C3 O2 1_555 1_555
C4 C3 1_555 1_555
H3 C4 1_555 1_555
C5 C4 1_555 1_555
H4 C5 1_555 1_555
C6 C5 1_555 1_555
C7 C2 1_555 1_555
C8 C6 1_555 1_555
C9 N1 1_555 1_555
C10 C9 1_555 1_555
H5 C10 1_555 1_555
C11 C10 1_555 1_555
H6 C11 1_555 1_555
C12 N1 1_555 1_555
C13 C9 1_555 1_555
H7 C13 1_555 1_555
H8 C13 1_555 1_555
C14 O1 1_555 1_555
C15 C10 1_555 1_555
C16 C15 1_555 1_555
C17 C16 1_555 1_555
H9 C17 1_555 1_555
C18 C17 1_555 1_555
H10 C18 1_555 1_555
H11 C18 1_555 1_555
C19 C18 1_555 1_555
H12 C19 1_555 1_555
H13 C19 1_555 1_555
C20 C19 1_555 1_555
H14 C20 1_555 1_555
H15 C20 1_555 1_555
C21 C1 1_555 1_555
C22 C21 1_555 1_555
H16 C22 1_555 1_555
H17 C22 1_555 1_555
C23 C22 1_555 1_555
H18 C23 1_555 1_555
H19 C23 1_555 1_555
H20 C23 1_555 1_555
C24 C15 1_555 1_555
H21 C24 1_555 1_555
H22 C24 1_555 1_555
H23 C24 1_555 1_555
C25 O6 1_555 1_555
H24 C25 1_555 1_555
H25 C25 1_555 1_555
H26 C25 1_555 1_555
C26 C11 1_555 1_555
H27 C26 1_555 1_555
H28 C26 1_555 1_555
C27 C26 1_555 1_555
H29 C27 1_555 1_555
H30 C27 1_555 1_555
C28 C27 1_555 1_555
H31 C28 1_555 1_555
H32 C28 1_555 1_555
C29 C28 1_555 1_555
H33 C29 1_555 1_555
H34 C29 1_555 1_555
C30 C29 1_555 1_555
H35 C30 1_555 1_555
H36 C30 1_555 1_555
C31 C30 1_555 1_555
H37 C31 1_555 1_555
H38 C31 1_555 1_555
H39 C31 1_555 1_555
O7 H51 1_555 1_555
C36 O7 1_555 1_555
H52 C36 1_555 1_555
H53 C36 1_555 1_555
H54 C36 1_555 1_555
C6 C7 1_555 1_555
C7 C14 1_555 1_555
C8 C9 1_555 1_555
C11 C12 1_555 1_555
C13 C14 1_555 1_555
C14 C15 1_555 1_555
C20 C21 1_555 1_555

#END
