
#######################################################################
#
#                 Cambridge Crystallographic Data Centre
#                                CCDC 
#
#######################################################################
#
# If this CIF has been generated from an entry in the Cambridge 
# Structural Database, then it will include bibliographic, chemical, 
# crystal, experimental, refinement or atomic coordinate data resulting 
# from the CCDC's data processing and validation procedures.
#
#######################################################################

data_XAWHAH
_chemical_formula_moiety         'C70 H74 N6 O12 S4,C1 H4 O1'
_chemical_name_systematic        
"dimethyl 2,2'-((37,43,49,54-tetra-t-butyl-18,61-dioxo-3,11,25,33-tetraoxa-40,46,51,57-tetrathia-6,7,8,28,29,30-hexa-azaundecacyclo[33.15.7.1^6,9^.1^16,20^.1^27,30^.1^41,45^.1^52,56^.0^2,47^.0^12,17^.0^19,24^.0^34,39^]dohexaconta-1,7,9(62),12,14,16,19,21,23,27(60),28,34,36,38,41(59),42,44,47,49,52(58),53,55-docosaene-58,59-diyl)bis(oxy))diacetate methanol solvate"
_symmetry_cell_setting           triclinic
_symmetry_space_group_name_H-M   'P -1'
_symmetry_Int_Tables_number      2
_space_group_name_Hall           '-P 1'
loop_
_symmetry_equiv_pos_site_id
_symmetry_equiv_pos_as_xyz
1 x,y,z
2 -x,-y,-z
_cell_length_a                   15.083(4)
_cell_length_b                   15.371(4)
_cell_length_c                   16.395(4)
_cell_angle_alpha                66.767(3)
_cell_angle_beta                 81.148(4)
_cell_angle_gamma                80.089(4)
_cell_volume                     3425.11
_exptl_crystal_colour            yellow
_exptl_crystal_description       block
_cell_formula_units_Z            2
loop_
_atom_site_label
_atom_site_type_symbol
_atom_site_fract_x
_atom_site_fract_y
_atom_site_fract_z
C1 C -0.0298(3) 0.4549(3) 0.3376(3)
C2 C 0.0183(2) 0.3598(2) 0.3362(2)
C3 C -0.0273(2) 0.2829(3) 0.3532(2)
H1 H -0.0910 0.2893 0.3668
C4 C 0.0168(2) 0.1963(2) 0.3512(2)
C5 C 0.1105(2) 0.1860(2) 0.3314(2)
C6 C 0.1573(2) 0.2626(2) 0.3145(2)
C7 C 0.1117(2) 0.3482(2) 0.3166(2)
H2 H 0.1449 0.3999 0.3044
C8 C 0.1780(3) 0.0336(2) 0.4119(2)
H3 H 0.1225 0.0111 0.4501
H4 H 0.2106 0.0610 0.4423
C9 C 0.2372(2) -0.0470(2) 0.3933(2)
H5 H 0.2066 -0.0682 0.3564
H6 H 0.2947 -0.0248 0.3597
C10 C 0.2890(2) -0.1251(3) 0.5476(2)
H7 H 0.3051 -0.0715 0.5546
C11 C 0.2945(2) -0.2162(3) 0.6067(2)
C12 C 0.3313(3) -0.2582(3) 0.6958(2)
H8 H 0.3264 -0.2091 0.7217
H9 H 0.2976 -0.3110 0.7374
C13 C 0.4719(3) -0.3403(2) 0.7516(2)
C14 C 0.4461(3) -0.3378(3) 0.8360(2)
H10 H 0.3909 -0.3019 0.8468
C15 C 0.5012(3) -0.3880(3) 0.9041(2)
H11 H 0.4854 -0.3840 0.9610
C16 C 0.5792(3) -0.4439(3) 0.8893(2)
H12 H 0.6155 -0.4801 0.9368
C17 C 0.6045(3) -0.4475(2) 0.8066(2)
C18 C 0.5521(3) -0.3948(2) 0.7351(2)
C19 C 0.5864(3) -0.3933(3) 0.6452(2)
C20 C 0.6496(2) -0.4779(3) 0.6406(2)
C21 C 0.7029(3) -0.5304(3) 0.7114(2)
C22 C 0.6897(3) -0.5075(3) 0.7929(2)
C23 C 0.7653(3) -0.6070(3) 0.7076(3)
H13 H 0.8027 -0.6412 0.7546
C24 C 0.7724(3) -0.6327(3) 0.6354(3)
H14 H 0.8149 -0.6852 0.6331
C25 C 0.7187(3) -0.5836(3) 0.5657(3)
H15 H 0.7228 -0.6039 0.5174
C26 C 0.6586(3) -0.5045(3) 0.5672(2)
C27 C 0.6093(3) -0.4766(3) 0.4257(2)
H16 H 0.5880 -0.5393 0.4420
H17 H 0.6723 -0.4792 0.3981
C28 C 0.5500(3) -0.3997(3) 0.3631(2)
C29 C 0.5078(4) -0.3176(3) 0.3678(3)
H18 H 0.5072 -0.2956 0.4145
C30 C 0.2864(2) -0.0296(2) 0.1161(2)
C31 C 0.3499(2) 0.0225(3) 0.0515(2)
C32 C 0.3385(2) 0.0517(3) -0.0381(2)
H19 H 0.3828 0.0858 -0.0812
C33 C 0.2654(2) 0.0329(3) -0.0671(2)
C34 C 0.2010(2) -0.0149(3) -0.0018(2)
H20 H 0.1492 -0.0275 -0.0199
C35 C 0.2094(2) -0.0448(3) 0.0886(2)
C36 C 0.2535(3) 0.0644(3) -0.1669(2)
C37 C 0.1666(3) 0.1349(4) -0.1883(3)
H21 H 0.1617 0.1607 -0.2526
H22 H 0.1686 0.1871 -0.1689
H23 H 0.1140 0.1017 -0.1568
C38 C 0.3323(3) 0.1147(4) -0.2264(3)
H24 H 0.3889 0.0723 -0.2120
H25 H 0.3349 0.1730 -0.2164
H26 H 0.3236 0.1313 -0.2891
C39 C 0.2454(4) -0.0212(4) -0.1877(3)
H27 H 0.2994 -0.0676 -0.1718
H28 H 0.2397 -0.0008 -0.2515
H29 H 0.1918 -0.0506 -0.1533
C40 C 0.2238(3) 0.3555(3) -0.1068(3)
H30 H 0.2722 0.3168 -0.1292
H31 H 0.1972 0.4081 -0.1572
H32 H 0.1771 0.3156 -0.0702
C41 C 0.1931(3) 0.4699(3) -0.0300(3)
H33 H 0.1400 0.4398 0.0048
H34 H 0.1751 0.5204 -0.0860
H35 H 0.2190 0.4975 0.0043
C42 C 0.3452(3) 0.4447(3) -0.1045(3)
H36 H 0.3688 0.4747 -0.0710
H37 H 0.3272 0.4934 -0.1614
H38 H 0.3921 0.3971 -0.1160
C43 C 0.2628(3) 0.3959(3) -0.0502(2)
C44 C 0.2932(2) 0.3142(2) 0.0349(2)
C45 C 0.3496(2) 0.2358(2) 0.0277(2)
H39 H 0.3672 0.2342 -0.0299
C46 C 0.3811(2) 0.1598(2) 0.1008(2)
C47 C 0.3600(2) 0.1622(2) 0.1855(2)
C48 C 0.3027(2) 0.2403(2) 0.1948(2)
C49 C 0.2693(2) 0.3142(2) 0.1198(2)
H40 H 0.2291 0.3660 0.1273
C50 C 0.4753(3) 0.1024(3) 0.2801(3)
H41 H 0.4644 0.1587 0.2971
H42 H 0.5192 0.1165 0.2265
C51 C 0.5147(3) 0.0198(4) 0.3533(3)
C52 C -0.1594(4) 0.2657(3) 0.0388(4)
H43 H -0.1842 0.2114 0.0373
H44 H -0.1783 0.3235 -0.0116
H45 H -0.1820 0.2743 0.0948
C53 C -0.0171(4) 0.3317(3) 0.0332(3)
H46 H -0.0331 0.3884 -0.0194
H47 H 0.0489 0.3175 0.0321
H48 H -0.0417 0.3435 0.0873
C54 C -0.0197(5) 0.2341(3) -0.0559(3)
H49 H -0.0435 0.1798 -0.0583
H50 H 0.0465 0.2224 -0.0593
H51 H -0.0385 0.2922 -0.1062
C55 C -0.0568(3) 0.2466(3) 0.0324(3)
C56 C -0.0273(3) 0.1583(3) 0.1136(2)
C57 C 0.0233(2) 0.0767(3) 0.1072(2)
H52 H 0.0399 0.0739 0.0499
C58 C 0.0506(2) -0.0017(2) 0.1822(2)
C59 C 0.0238(2) 0.0006(2) 0.2666(2)
C60 C -0.0236(2) 0.0838(2) 0.2735(2)
C61 C -0.0490(2) 0.1600(3) 0.1984(2)
H53 H -0.0824 0.2157 0.2047
C62 C 0.0145(3) -0.1622(3) 0.3694(3)
H54 H 0.0504 -0.2119 0.4158
H55 H 0.0223 -0.1810 0.3172
C63 C -0.0821(3) -0.1607(3) 0.4042(2)
C64 C -0.1991(3) -0.2598(4) 0.4652(3)
H56 H -0.2034 -0.2841 0.5305
H57 H -0.2191 -0.3057 0.4463
H58 H -0.2377 -0.1987 0.4429
N1 N 0.25583(18) -0.1267(2) 0.47705(18)
N2 N 0.2402(2) -0.2142(2) 0.4908(2)
N3 N 0.2654(2) -0.2702(2) 0.5710(2)
N4 N 0.4667(3) -0.2732(3) 0.2928(3)
N5 N 0.4814(3) -0.3265(3) 0.2435(2)
N6 N 0.5331(3) -0.4033(3) 0.2867(2)
O1 O 0.29851(17) -0.06204(17) 0.20484(15)
O2 O 0.60380(19) -0.4534(2) 0.50219(16)
O3 O 0.5690(2) -0.32478(19) 0.57787(17)
O4 O 0.7467(2) -0.5363(2) 0.84542(19)
O5 O 0.42199(19) -0.2922(2) 0.68082(16)
O6 O 0.15611(15) 0.10294(15) 0.32624(13)
O7 O 0.05019(16) -0.07360(17) 0.34333(15)
O8 O -0.1324(2) -0.0916(2) 0.40831(19)
O9 O -0.1073(2) -0.2463(2) 0.4301(2)
O10 O 0.39313(15) 0.08778(16) 0.25886(14)
S1 S 0.27764(6) 0.24798(7) 0.30161(6)
S2 S 0.12213(6) -0.10220(7) 0.16910(6)
S3 S -0.04519(6) 0.09820(7) 0.37783(6)
S4 S 0.44225(6) 0.05722(7) 0.08331(6)
C65 C -0.0066(5) 0.5348(4) 0.2421(5)
H59 H -0.0411 0.5961 0.2388
H60 H -0.0226 0.5169 0.1956
H61 H 0.0582 0.5405 0.2333
C66 C -0.1335(6) 0.4603(6) 0.3452(8)
H62 H -0.1543 0.4127 0.4024
H63 H -0.1512 0.4475 0.2963
H64 H -0.1609 0.5242 0.3416
C67 C 0.0005(7) 0.4787(6) 0.4041(6)
H65 H -0.0082 0.4272 0.4626
H66 H -0.0343 0.5381 0.4056
H67 H 0.0648 0.4869 0.3896
C68 C 0.5128(4) -0.1284(4) 0.4613(4)
H68 H 0.5711 -0.1560 0.4409
H69 H 0.4741 -0.1789 0.4936
H70 H 0.5224 -0.0977 0.5010
O11 O 0.5913(3) 0.0271(3) 0.3718(3)
O12 O 0.4691(9) -0.0575(7) 0.3845(8)
C69 C 0.4324(5) -0.1693(4) 0.2464(5)
H71 H 0.4460 -0.1311 0.2784
H72 H 0.4611 -0.1443 0.1844
C70 C 0.3333(4) -0.1652(4) 0.2470(5)
H73 H 0.3051 -0.1929 0.3089
H74 H 0.3198 -0.2010 0.2127
C77 C 0.6253(4) 0.2378(4) 0.9639(4)
H91 H 0.6842 0.2309 0.9309
H92 H 0.5919 0.1852 0.9720
H93 H 0.6340 0.2367 1.0223
O15 O 0.5784(4) 0.3204(3) 0.9183(3)
H94 H 0.5725 0.3222 0.8675
C71? C -0.0746(10) 0.4280(9) 0.4451(8)
H75? H -0.0258 0.4033 0.4845
H76? H -0.1156 0.3797 0.4608
H77? H -0.1081 0.4857 0.4519
C72? C 0.0328(12) 0.5281(11) 0.3276(12)
H78? H -0.0031 0.5830 0.3378
H79? H 0.0640 0.5493 0.2673
H80? H 0.0775 0.4986 0.3714
C73? C -0.1014(16) 0.4891(15) 0.2841(15)
H81? H -0.1448 0.4424 0.3049
H82? H -0.0782 0.4995 0.2222
H83? H -0.1314 0.5495 0.2877
C74? C 0.5962(11) -0.0946(11) 0.4709(10)
H84? H 0.5455 -0.1226 0.5128
H85? H 0.6417 -0.0874 0.5038
H86? H 0.6234 -0.1366 0.4393
O13? O 0.474(2) -0.041(2) 0.393(2)
O14? O 0.5642(9) -0.0025(10) 0.4075(9)
C75? C 0.3730(9) -0.2141(13) 0.2869(15)
H87? H 0.3305 -0.2450 0.2698
H88? H 0.3498 -0.2120 0.3460
C76? C 0.3772(13) -0.1260(12) 0.2273(12)
H89? H 0.4085 -0.1312 0.1715
H90? H 0.4168 -0.0960 0.2488
loop_
_geom_bond_atom_site_label_1
_geom_bond_atom_site_label_2
_geom_bond_site_symmetry_1
_geom_bond_site_symmetry_2
C1 C2 1_555 1_555
C2 C3 1_555 1_555
C3 H1 1_555 1_555
C4 C3 1_555 1_555
C5 C4 1_555 1_555
C6 C5 1_555 1_555
C7 C2 1_555 1_555
H2 C7 1_555 1_555
C8 H3 1_555 1_555
H4 C8 1_555 1_555
C9 C8 1_555 1_555
H5 C9 1_555 1_555
H6 C9 1_555 1_555
C10 H7 1_555 1_555
C11 C10 1_555 1_555
C12 C11 1_555 1_555
H8 C12 1_555 1_555
H9 C12 1_555 1_555
C13 C14 1_555 1_555
C14 H10 1_555 1_555
C15 C14 1_555 1_555
H11 C15 1_555 1_555
C16 C15 1_555 1_555
H12 C16 1_555 1_555
C17 C16 1_555 1_555
C18 C13 1_555 1_555
C19 C18 1_555 1_555
C20 C19 1_555 1_555
C21 C20 1_555 1_555
C22 C17 1_555 1_555
C23 C21 1_555 1_555
H13 C23 1_555 1_555
C24 C23 1_555 1_555
H14 C24 1_555 1_555
C25 C24 1_555 1_555
H15 C25 1_555 1_555
C26 C20 1_555 1_555
C27 H16 1_555 1_555
H17 C27 1_555 1_555
C28 C27 1_555 1_555
C29 C28 1_555 1_555
H18 C29 1_555 1_555
C30 C31 1_555 1_555
C31 C32 1_555 1_555
C32 H19 1_555 1_555
C33 C32 1_555 1_555
C34 C33 1_555 1_555
H20 C34 1_555 1_555
C35 C30 1_555 1_555
C36 C33 1_555 1_555
C37 C36 1_555 1_555
H21 C37 1_555 1_555
H22 C37 1_555 1_555
H23 C37 1_555 1_555
C38 C36 1_555 1_555
H24 C38 1_555 1_555
H25 C38 1_555 1_555
H26 C38 1_555 1_555
C39 C36 1_555 1_555
H27 C39 1_555 1_555
H28 C39 1_555 1_555
H29 C39 1_555 1_555
C40 H30 1_555 1_555
H31 C40 1_555 1_555
H32 C40 1_555 1_555
C41 H33 1_555 1_555
H34 C41 1_555 1_555
H35 C41 1_555 1_555
C42 H36 1_555 1_555
H37 C42 1_555 1_555
H38 C42 1_555 1_555
C43 C40 1_555 1_555
C44 C43 1_555 1_555
C45 C44 1_555 1_555
H39 C45 1_555 1_555
C46 C45 1_555 1_555
C47 C46 1_555 1_555
C48 C47 1_555 1_555
C49 C44 1_555 1_555
H40 C49 1_555 1_555
C50 H41 1_555 1_555
H42 C50 1_555 1_555
C51 C50 1_555 1_555
C52 H43 1_555 1_555
H44 C52 1_555 1_555
H45 C52 1_555 1_555
C53 H46 1_555 1_555
H47 C53 1_555 1_555
H48 C53 1_555 1_555
C54 H49 1_555 1_555
H50 C54 1_555 1_555
H51 C54 1_555 1_555
C55 C52 1_555 1_555
C56 C55 1_555 1_555
C57 C56 1_555 1_555
H52 C57 1_555 1_555
C58 C57 1_555 1_555
C59 C58 1_555 1_555
C60 C59 1_555 1_555
C61 C56 1_555 1_555
H53 C61 1_555 1_555
C62 H54 1_555 1_555
H55 C62 1_555 1_555
C63 C62 1_555 1_555
C64 H56 1_555 1_555
H57 C64 1_555 1_555
H58 C64 1_555 1_555
N1 C9 1_555 1_555
N2 N1 1_555 1_555
N3 C11 1_555 1_555
N4 C29 1_555 1_555
N5 N4 1_555 1_555
N6 C28 1_555 1_555
O1 C30 1_555 1_555
O2 C26 1_555 1_555
O3 C19 1_555 1_555
O4 C22 1_555 1_555
O5 C12 1_555 1_555
O6 C5 1_555 1_555
O7 C59 1_555 1_555
O8 C63 1_555 1_555
O9 C63 1_555 1_555
O10 C47 1_555 1_555
S1 C6 1_555 1_555
S2 C35 1_555 1_555
S3 C4 1_555 1_555
S4 C31 1_555 1_555
C65 C1 1_555 1_555
H59 C65 1_555 1_555
H60 C65 1_555 1_555
H61 C65 1_555 1_555
C66 C1 1_555 1_555
H62 C66 1_555 1_555
H63 C66 1_555 1_555
H64 C66 1_555 1_555
C67 C1 1_555 1_555
H65 C67 1_555 1_555
H66 C67 1_555 1_555
H67 C67 1_555 1_555
C68 H68 1_555 1_555
H69 C68 1_555 1_555
H70 C68 1_555 1_555
O11 C51 1_555 1_555
O12 C51 1_555 1_555
C69 N4 1_555 1_555
H71 C69 1_555 1_555
H72 C69 1_555 1_555
C70 O1 1_555 1_555
H73 C70 1_555 1_555
H74 C70 1_555 1_555
C77 H91 1_555 1_555
H92 C77 1_555 1_555
H93 C77 1_555 1_555
O15 C77 1_555 1_555
H94 O15 1_555 1_555
C6 C7 1_555 1_555
C8 O6 1_555 1_555
C10 N1 1_555 1_555
C13 O5 1_555 1_555
C17 C18 1_555 1_555
C21 C22 1_555 1_555
C25 C26 1_555 1_555
C27 O2 1_555 1_555
C34 C35 1_555 1_555
C41 C43 1_555 1_555
C42 C43 1_555 1_555
C46 S4 1_555 1_555
C48 C49 1_555 1_555
C48 S1 1_555 1_555
C50 O10 1_555 1_555
C53 C55 1_555 1_555
C54 C55 1_555 1_555
C58 S2 1_555 1_555
C60 C61 1_555 1_555
C60 S3 1_555 1_555
C62 O7 1_555 1_555
C64 O9 1_555 1_555
N2 N3 1_555 1_555
N5 N6 1_555 1_555
C68 O12 1_555 1_555
C69 C70 1_555 1_555

#END
