
#######################################################################
#
#                 Cambridge Crystallographic Data Centre
#                                CCDC 
#
#######################################################################
#
# If this CIF has been generated from an entry in the Cambridge 
# Structural Database, then it will include bibliographic, chemical, 
# crystal, experimental, refinement or atomic coordinate data resulting 
# from the CCDC's data processing and validation procedures.
#
#######################################################################

data_XAWHEL
_chemical_formula_moiety         'C24 H19 N3 O1'
_chemical_name_systematic        
2-methoxy-10-methyl-4-phenyl-6,11-dihydro-5H-pyrido[2,3-a]carbazole-3-carbonitrile
_symmetry_cell_setting           monoclinic
_symmetry_space_group_name_H-M   'P 21/c'
_symmetry_Int_Tables_number      14
_space_group_name_Hall           '-P 2ybc'
loop_
_symmetry_equiv_pos_site_id
_symmetry_equiv_pos_as_xyz
1 x,y,z
2 -x,1/2+y,1/2-z
3 -x,-y,-z
4 x,1/2-y,1/2+z
_cell_length_a                   10.0881(4)
_cell_length_b                   15.1974(6)
_cell_length_c                   12.2090(5)
_cell_angle_alpha                90
_cell_angle_beta                 98.801(3)
_cell_angle_gamma                90
_cell_volume                     1849.76
_exptl_crystal_colour            orange
_exptl_crystal_description       block
_cell_formula_units_Z            4
loop_
_atom_site_label
_atom_site_type_symbol
_atom_site_fract_x
_atom_site_fract_y
_atom_site_fract_z
O1 O 1.04024(9) 0.53330(6) 0.28283(7)
N1 N 0.82343(11) 0.73915(7) -0.01473(10)
N2 N 0.92701(10) 0.59146(7) 0.12060(9)
N3 N 1.00390(11) 0.31701(7) 0.30110(10)
C1 C 0.76369(12) 0.78977(8) -0.10198(11)
C2 C 0.75578(13) 0.88196(9) -0.11098(12)
C3 C 0.68631(13) 0.91412(9) -0.20961(12)
H1 H 0.6777 0.9747 -0.2187
C4 C 0.62841(13) 0.85919(9) -0.29633(12)
H2 H 0.5844 0.8841 -0.3615
C5 C 0.63559(13) 0.76905(9) -0.28661(11)
H3 H 0.5973 0.7328 -0.3443
C6 C 0.70245(12) 0.73310(9) -0.18693(11)
C7 C 0.72259(12) 0.64549(8) -0.14561(11)
C8 C 0.79622(12) 0.65216(8) -0.04181(11)
C9 C 0.83822(12) 0.57755(8) 0.02789(10)
C10 C 0.77952(12) 0.49549(8) -0.00401(10)
C11 C 0.66802(13) 0.49151(8) -0.10297(11)
H4 H 0.5830 0.5019 -0.0773
H5 H 0.6652 0.4326 -0.1339
C12 C 0.68270(13) 0.55756(9) -0.19496(11)
H6 H 0.7502 0.5370 -0.2376
H7 H 0.5983 0.5627 -0.2446
C13 C 0.81706(12) 0.42348(8) 0.06456(10)
C14 C 0.91076(12) 0.43714(8) 0.16093(10)
C15 C 0.95866(12) 0.52316(8) 0.18580(10)
C16 C 0.81837(16) 0.93998(9) -0.01902(13)
H8 H 0.7756 0.9305 0.0450
H9 H 0.8077 1.0004 -0.0416
H10 H 0.9122 0.9265 -0.0012
C17 C 0.75499(12) 0.33478(8) 0.04063(10)
C18 C 0.65513(13) 0.30538(9) 0.09930(12)
H11 H 0.6298 0.3402 0.1552
C19 C 0.59317(13) 0.22445(9) 0.07481(12)
H12 H 0.5275 0.2050 0.1148
C20 C 0.62964(13) 0.17316(8) -0.00916(11)
H13 H 0.5873 0.1195 -0.0265
C21 C 0.72897(13) 0.20142(8) -0.06748(11)
H14 H 0.7534 0.1665 -0.1237
C22 C 0.79246(13) 0.28169(8) -0.04247(11)
H15 H 0.8600 0.3000 -0.0813
C23 C 0.95953(12) 0.36810(8) 0.23636(11)
C24 C 1.08201(14) 0.62217(9) 0.31263(12)
H16 H 1.1437 0.6420 0.2654
H17 H 1.1251 0.6235 0.3884
H18 H 1.0050 0.6601 0.3039
H19 H 0.8644(16) 0.7566(11) 0.0478(15)
loop_
_geom_bond_atom_site_label_1
_geom_bond_atom_site_label_2
_geom_bond_site_symmetry_1
_geom_bond_site_symmetry_2
O1 C15 1_555 1_555
N1 C1 1_555 1_555
N2 C9 1_555 1_555
N3 C23 1_555 1_555
C1 C2 1_555 1_555
C2 C3 1_555 1_555
C3 H1 1_555 1_555
C4 C3 1_555 1_555
H2 C4 1_555 1_555
C5 C4 1_555 1_555
H3 C5 1_555 1_555
C6 C1 1_555 1_555
C7 C6 1_555 1_555
C8 N1 1_555 1_555
C9 C8 1_555 1_555
C10 C9 1_555 1_555
C11 C10 1_555 1_555
H4 C11 1_555 1_555
H5 C11 1_555 1_555
C12 C7 1_555 1_555
H6 C12 1_555 1_555
H7 C12 1_555 1_555
C13 C10 1_555 1_555
C14 C13 1_555 1_555
C15 N2 1_555 1_555
C16 C2 1_555 1_555
H8 C16 1_555 1_555
H9 C16 1_555 1_555
H10 C16 1_555 1_555
C17 C13 1_555 1_555
C18 C17 1_555 1_555
H11 C18 1_555 1_555
C19 C18 1_555 1_555
H12 C19 1_555 1_555
C20 C19 1_555 1_555
H13 C20 1_555 1_555
C21 C20 1_555 1_555
H14 C21 1_555 1_555
C22 C17 1_555 1_555
H15 C22 1_555 1_555
C23 C14 1_555 1_555
C24 O1 1_555 1_555
H16 C24 1_555 1_555
H17 C24 1_555 1_555
H18 C24 1_555 1_555
H19 N1 1_555 1_555
C5 C6 1_555 1_555
C7 C8 1_555 1_555
C11 C12 1_555 1_555
C14 C15 1_555 1_555
C21 C22 1_555 1_555

#END
