
#######################################################################
#
#                 Cambridge Crystallographic Data Centre
#                                CCDC 
#
#######################################################################
#
# If this CIF has been generated from an entry in the Cambridge 
# Structural Database, then it will include bibliographic, chemical, 
# crystal, experimental, refinement or atomic coordinate data resulting 
# from the CCDC's data processing and validation procedures.
#
#######################################################################

data_XAWKOY
_chemical_name_common            
'expanded rosarin P!3$P!6$ C60fullerene n-heptane solvate'
_chemical_formula_moiety         'C84 H87 N9,C60,C7 H16'
_chemical_name_systematic        
'3,4,8,9,17,18,22,23,31,32,36,37-dodecaethyl-6,20,34-triphenyl-43,44,45,46,47,48,49,50,51-nona-azadecacyclo[37.3.1.1^2,5^.1^7,10^.1^11,15^.1^16,19^.1^21,24^.1^25,29^.1^30,33^.1^35,38^]henpentaconta-1(43),2(51),3,5,7,9,11(49),12,14,16(48),17,19,21,23,25(46),26,28,30,32,34,36,38(44),39,41-tetracosaene C60fullerene n-heptane solvate'
_symmetry_cell_setting           triclinic
_symmetry_space_group_name_H-M   'P -1'
_symmetry_Int_Tables_number      2
_space_group_name_Hall           '-P 1'
loop_
_symmetry_equiv_pos_site_id
_symmetry_equiv_pos_as_xyz
1 x,y,z
2 -x,-y,-z
_cell_length_a                   16.7655(7)
_cell_length_b                   17.4824(9)
_cell_length_c                   20.3823(9)
_cell_angle_alpha                112.270(4)
_cell_angle_beta                 99.654(4)
_cell_angle_gamma                108.913(4)
_cell_volume                     4933.58
_exptl_crystal_colour            black
_exptl_crystal_description       prisms
_cell_formula_units_Z            2
loop_
_atom_site_label
_atom_site_type_symbol
_atom_site_fract_x
_atom_site_fract_y
_atom_site_fract_z
C89 C 0.2768(3) 0.5371(3) 0.7186(3)
C90 C 0.2021(3) 0.4556(4) 0.6601(3)
C91 C 0.1421(2) 0.3989(3) 0.6799(2)
C92 C 0.1547(2) 0.4212(3) 0.7561(2)
C93 C 0.2270(3) 0.5001(3) 0.8128(2)
C94 C 0.2885(3) 0.5586(3) 0.7921(3)
C95 C 0.3525(4) 0.5433(3) 0.6843(3)
C96 C 0.3215(3) 0.4683(3) 0.6114(2)
C97 C 0.2280(3) 0.4143(4) 0.5965(3)
C98 C 0.1917(3) 0.3193(3) 0.5581(3)
C99 C 0.1307(3) 0.2573(3) 0.5794(3)
C100 C 0.1075(3) 0.2978(4) 0.6384(3)
C101 C 0.1039(2) 0.2598(3) 0.6949(2)
C102 C 0.1316(2) 0.3382(3) 0.7654(2)
C103 C 0.1825(3) 0.3447(3) 0.8292(2)
C104 C 0.2576(4) 0.4306(4) 0.8841(3)
C105 C 0.2808(4) 0.5024(4) 0.8774(3)
C106 C 0.3786(3) 0.5617(3) 0.8960(3)
C107 C 0.3804(3) 0.5954(3) 0.8448(3)
C108 C 0.4467(3) 0.6067(2) 0.8148(2)
C109 C 0.4314(4) 0.5764(3) 0.7292(4)
C110 C 0.4645(3) 0.4583(3) 0.6356(3)
C111 C 0.3738(3) 0.4220(3) 0.5853(2)
C112 C 0.3362(3) 0.3256(3) 0.5464(2)
C113 C 0.2495(3) 0.2749(3) 0.5320(2)
C114 C 0.2246(3) 0.1921(3) 0.5418(2)
C115 C 0.1526(2) 0.1818(2) 0.5734(2)
C116 C 0.1541(2) 0.1478(2) 0.6255(2)
C117 C 0.1279(3) 0.1893(3) 0.6894(2)
C118 C 0.1801(3) 0.1952(3) 0.7556(3)
C119 C 0.2067(3) 0.2719(3) 0.8248(2)
C120 C 0.2974(3) 0.3084(3) 0.8749(2)
C121 C 0.3341(4) 0.4043(3) 0.9132(2)
C122 C 0.4197(4) 0.4554(4) 0.9266(2)
C123 C 0.4448(4) 0.5387(3) 0.9181(2)
C124 C 0.5189(3) 0.5496(3) 0.8879(2)
C125 C 0.5183(2) 0.5840(2) 0.8352(2)
C126 C 0.5444(2) 0.5425(3) 0.7719(3)
C127 C 0.4908(3) 0.5358(3) 0.7050(3)
C128 C 0.4887(3) 0.3862(3) 0.6308(3)
C129 C 0.4134(4) 0.2997(4) 0.5760(3)
C130 C 0.3893(4) 0.2271(4) 0.5818(3)
C131 C 0.2919(3) 0.1692(3) 0.5632(2)
C132 C 0.2915(3) 0.1358(3) 0.6151(3)
C133 C 0.2250(3) 0.1247(2) 0.6456(2)
C134 C 0.2381(4) 0.1522(3) 0.7286(3)
C135 C 0.3139(5) 0.1858(3) 0.7761(3)
C136 C 0.3500(3) 0.2613(3) 0.8483(2)
C137 C 0.4418(3) 0.3138(4) 0.8620(3)
C138 C 0.4785(3) 0.4102(4) 0.9011(3)
C139 C 0.5400(4) 0.4730(4) 0.8786(3)
C140 C 0.5617(3) 0.4301(4) 0.8227(3)
C141 C 0.5683(2) 0.4713(3) 0.7658(3)
C142 C 0.5398(3) 0.3924(3) 0.6943(3)
C143 C 0.5164(2) 0.3091(3) 0.7034(3)
C144 C 0.4445(3) 0.2303(3) 0.6467(3)
C145 C 0.3826(3) 0.1721(3) 0.6666(4)
C146 C 0.3935(3) 0.1919(3) 0.7394(3)
C147 C 0.4669(3) 0.2724(4) 0.7984(3)
C148 C 0.5291(2) 0.3312(3) 0.7796(3)
C1 C 0.47654(18) 0.84263(18) 0.99676(15)
C2 C 0.48868(19) 0.85542(17) 1.07385(15)
C3 C 0.40623(19) 0.80820(18) 1.07416(15)
C4 C 0.34483(18) 0.76984(17) 0.99896(15)
C5 C 0.24845(18) 0.70860(18) 0.96727(15)
C6 C 0.19175(19) 0.71610(19) 0.91404(16)
H1 H 0.2140 0.7625 0.8997
C7 C 0.1023(2) 0.6547(2) 0.88232(17)
H2 H 0.0615 0.6601 0.8478
C8 C 0.07365(18) 0.58539(18) 0.90207(16)
H3 H 0.0127 0.5425 0.8814
C9 C 0.13554(18) 0.57935(17) 0.95274(15)
C10 C 0.10976(17) 0.49797(18) 0.96465(15)
C11 C 0.14694(17) 0.48439(18) 1.02617(15)
C12 C 0.09884(17) 0.39294(18) 1.00586(15)
C13 C 0.03613(17) 0.35197(18) 0.93077(15)
C14 C -0.01993(17) 0.26039(18) 0.87880(15)
C15 C -0.06450(18) 0.22965(18) 0.80162(14)
C16 C -0.10916(19) 0.14053(19) 0.73711(15)
C17 C -0.12847(19) 0.15445(19) 0.67437(16)
C18 C -0.09742(18) 0.24971(19) 0.70031(15)
C19 C -0.09366(18) 0.30483(19) 0.66049(15)
C20 C -0.0861(2) 0.3940(2) 0.69757(16)
H4 H -0.0917 0.4165 0.7461
C21 C -0.0703(2) 0.4491(2) 0.66273(17)
H5 H -0.0658 0.5095 0.6866
C22 C -0.06128(19) 0.41457(19) 0.59252(16)
H6 H -0.0478 0.4516 0.5682
C23 C -0.07237(17) 0.32424(18) 0.55822(14)
C24 C -0.05632(17) 0.28729(18) 0.48619(14)
C25 C -0.10287(18) 0.19583(18) 0.42337(15)
C26 C -0.05990(18) 0.19528(18) 0.37178(15)
C27 C 0.01313(17) 0.28667(18) 0.40460(14)
C28 C 0.07952(17) 0.32324(18) 0.37799(14)
C29 C 0.14826(18) 0.41497(18) 0.41895(14)
C30 C 0.22817(18) 0.46107(19) 0.40805(15)
C31 C 0.27476(18) 0.54800(19) 0.47157(15)
C32 C 0.22223(17) 0.55439(18) 0.51882(14)
C33 C 0.23568(18) 0.62558(18) 0.59313(14)
C34 C 0.16042(17) 0.63056(18) 0.61238(15)
H7 H 0.1019 0.5921 0.5769
C35 C 0.17358(18) 0.6930(2) 0.68437(16)
H8 H 0.1242 0.6996 0.6987
C36 C 0.25934(18) 0.74558(18) 0.73513(15)
H9 H 0.2696 0.7883 0.7850
C37 C 0.33106(17) 0.73515(17) 0.71221(15)
C38 C 0.42055(18) 0.78150(17) 0.76771(15)
C39 C 0.50740(18) 0.80648(19) 0.76230(16)
C40 C 0.56753(18) 0.84563(19) 0.83543(16)
C41 C 0.51631(18) 0.84243(18) 0.88387(15)
C42 C 0.53909(18) 0.86464(18) 0.96257(15)
C43 C 0.5707(2) 0.91542(19) 1.14331(15)
H10 H 0.6240 0.9118 1.1301
H11 H 0.5645 0.8930 1.1809
C44 C 0.5837(2) 1.0144(2) 1.17729(19)
H12 H 0.5931 1.0378 1.1411
H13 H 0.6358 1.0512 1.2233
H14 H 0.5304 1.0180 1.1893
C45 C 0.3799(2) 0.8034(2) 1.13969(16)
H15 H 0.4336 0.8184 1.1797
H16 H 0.3370 0.7401 1.1237
C46 C 0.3381(3) 0.8676(3) 1.1716(2)
H17 H 0.3811 0.9307 1.1893
H18 H 0.3215 0.8611 1.2136
H19 H 0.2846 0.8528 1.1324
C47 C 0.22180(18) 0.55540(19) 1.09799(16)
H20 H 0.2742 0.5855 1.0859
H21 H 0.2393 0.5253 1.1267
C48 C 0.1954(2) 0.6277(2) 1.14675(17)
H22 H 0.1790 0.6584 1.1189
H23 H 0.2460 0.6727 1.1928
H24 H 0.1444 0.5984 1.1598
C49 C 0.11732(19) 0.3504(2) 1.05521(16)
H25 H 0.0637 0.2938 1.0401
H26 H 0.1288 0.3930 1.1080
C50 C 0.1974(2) 0.3273(2) 1.0504(2)
H27 H 0.1849 0.2821 0.9989
H28 H 0.2082 0.3023 1.0849
H29 H 0.2504 0.3828 1.0643
C51 C -0.03645(18) 0.19073(17) 0.90654(14)
C52 C -0.10543(19) 0.17620(19) 0.93683(15)
H30 H -0.1400 0.2102 0.9391
C53 C -0.1238(2) 0.1125(2) 0.96359(16)
H31 H -0.1715 0.1023 0.9833
C54 C -0.0731(2) 0.0642(2) 0.96158(16)
H32 H -0.0862 0.0202 0.9795
C55 C -0.0027(2) 0.0794(2) 0.93342(18)
H33 H 0.0332 0.0471 0.9334
C56 C 0.0151(2) 0.1419(2) 0.90530(17)
H34 H 0.0625 0.1514 0.8852
C57 C -0.1332(2) 0.04629(19) 0.73099(16)
H35 H -0.0900 0.0507 0.7734
H36 H -0.1276 0.0067 0.6838
C58 C -0.2274(2) 0.0021(2) 0.7317(2)
H37 H -0.2308 0.0357 0.7813
H38 H -0.2422 -0.0614 0.7208
H39 H -0.2700 0.0037 0.6934
C59 C -0.1704(2) 0.0810(2) 0.59351(17)
H40 H -0.2034 0.1011 0.5635
H41 H -0.2139 0.0247 0.5907
C60 C -0.1002(2) 0.0595(2) 0.55974(17)
H42 H -0.0578 0.1148 0.5614
H43 H -0.1300 0.0116 0.5075
H44 H -0.0681 0.0386 0.5888
C61 C -0.1858(2) 0.12100(19) 0.41520(16)
H45 H -0.1747 0.1099 0.4593
H46 H -0.1995 0.0641 0.3699
C62 C -0.2667(2) 0.1437(3) 0.4087(2)
H47 H -0.2542 0.1992 0.4539
H48 H -0.3190 0.0928 0.4034
H49 H -0.2788 0.1536 0.3645
C63 C -0.0856(2) 0.1125(2) 0.29802(17)
H50 H -0.0625 0.1323 0.2628
H51 H -0.1515 0.0804 0.2759
C64 C -0.0487(3) 0.0467(2) 0.3073(2)
H52 H 0.0166 0.0784 0.3296
H53 H -0.0653 -0.0051 0.2580
H54 H -0.0736 0.0245 0.3402
C65 C 0.07896(17) 0.26582(18) 0.30184(15)
C66 C 0.03730(18) 0.27283(18) 0.24068(15)
H55 H 0.0110 0.3148 0.2484
C67 C 0.03353(19) 0.2194(2) 0.16855(16)
H56 H 0.0044 0.2243 0.1271
C68 C 0.0726(2) 0.1590(2) 0.15760(16)
H57 H 0.0707 0.1224 0.1085
C69 C 0.1144(2) 0.1516(2) 0.21797(17)
H58 H 0.1407 0.1096 0.2099
C70 C 0.11845(19) 0.2050(2) 0.29030(16)
H59 H 0.1479 0.2000 0.3316
C71 C 0.2624(13) 0.4296(17) 0.3397(13)
H60 H 0.2387 0.3622 0.3142
H61 H 0.3284 0.4552 0.3580
C72 C 0.2314(4) 0.4625(4) 0.2819(3)
H62 H 0.1660 0.4374 0.2639
H63 H 0.2524 0.4412 0.2393
H64 H 0.2566 0.5294 0.3067
C73 C 0.3665(19) 0.619(3) 0.487(2)
H65 H 0.3762 0.6788 0.5265
H66 H 0.3699 0.6239 0.4411
C74 C 0.4411(4) 0.5915(4) 0.5144(3)
H67 H 0.4377 0.5863 0.5601
H68 H 0.4998 0.6384 0.5249
H69 H 0.4324 0.5327 0.4750
C75 C 0.5305(2) 0.7941(2) 0.69182(17)
H70 H 0.5946 0.8069 0.7029
H71 H 0.4956 0.7294 0.6534
C76 C 0.5129(3) 0.8536(3) 0.6596(2)
H72 H 0.4491 0.8397 0.6465
H73 H 0.5303 0.8421 0.6145
H74 H 0.5478 0.9179 0.6969
C77 C 0.66693(19) 0.8749(2) 0.85364(18)
H75 H 0.6978 0.9221 0.9068
H76 H 0.6881 0.9023 0.8218
C78 C 0.6908(2) 0.7940(3) 0.8406(2)
H77 H 0.6675 0.7650 0.8703
H78 H 0.7559 0.8157 0.8559
H79 H 0.6642 0.7494 0.7872
C79 C 0.63616(18) 0.90839(19) 1.00832(15)
C80 C 0.6769(2) 0.8546(2) 1.02000(17)
H80 H 0.6436 0.7902 0.9971
C81 C 0.7654(2) 0.8939(2) 1.06465(18)
H81 H 0.7928 0.8566 1.0718
C82 C 0.8142(2) 0.9884(2) 1.09915(17)
H82 H 0.8748 1.0158 1.1303
C83 C 0.7740(2) 1.0424(2) 1.08781(17)
H83 H 0.8072 1.1068 1.1115
C84 C 0.68560(19) 1.0032(2) 1.04215(16)
H84 H 0.6588 1.0404 1.0339
N1 N 0.38567(15) 0.79209(15) 0.95456(13)
N2 N 0.22086(15) 0.64177(15) 0.98756(12)
N3 N 0.04506(15) 0.42007(15) 0.90909(12)
N4 N -0.05991(15) 0.29263(16) 0.77530(12)
N5 N -0.09075(14) 0.26917(15) 0.59053(12)
N6 N 0.01021(14) 0.34015(15) 0.47482(12)
N7 N 0.14749(15) 0.47521(15) 0.48603(12)
N8 N 0.31974(14) 0.67763(15) 0.64088(12)
N9 N 0.42884(15) 0.80496(15) 0.84068(12)
H85 H -0.022(3) 0.356(4) 0.805(3)
H86 H 0.106(3) 0.455(3) 0.505(2)
H87 H 0.387(3) 0.782(3) 0.863(2)
C85? C 0.2666(17) 0.427(2) 0.3529(17)
H88? H 0.3000 0.4764 0.3424
H89? H 0.2181 0.3779 0.3057
C86? C 0.3317(5) 0.3874(5) 0.3778(4)
H90? H 0.3803 0.4356 0.4242
H91? H 0.3567 0.3655 0.3382
H92? H 0.2985 0.3367 0.3866
C87? C 0.359(2) 0.621(3) 0.482(3)
H93? H 0.3982 0.5931 0.4617
H94? H 0.3909 0.6623 0.5366
C88? C 0.3410(5) 0.6766(5) 0.4421(5)
H95? H 0.3134 0.6364 0.3878
H96? H 0.3975 0.7263 0.4522
H97? H 0.3006 0.7022 0.4610
loop_
_geom_bond_atom_site_label_1
_geom_bond_atom_site_label_2
_geom_bond_site_symmetry_1
_geom_bond_site_symmetry_2
C1 C2 1_555 1_555
C2 C3 1_555 1_555
C3 C4 1_555 1_555
C4 C5 1_555 1_555
C5 C6 1_555 1_555
C6 H1 1_555 1_555
C7 C6 1_555 1_555
H2 C7 1_555 1_555
C8 C7 1_555 1_555
H3 C8 1_555 1_555
C9 C8 1_555 1_555
C10 C9 1_555 1_555
C11 C10 1_555 1_555
C12 C11 1_555 1_555
C13 C12 1_555 1_555
C14 C13 1_555 1_555
C15 C14 1_555 1_555
C16 C15 1_555 1_555
C17 C16 1_555 1_555
C18 C17 1_555 1_555
C19 C18 1_555 1_555
C20 C19 1_555 1_555
H4 C20 1_555 1_555
C21 C20 1_555 1_555
H5 C21 1_555 1_555
C22 C21 1_555 1_555
H6 C22 1_555 1_555
C23 C22 1_555 1_555
C24 C23 1_555 1_555
C25 C24 1_555 1_555
C26 C25 1_555 1_555
C27 C26 1_555 1_555
C28 C27 1_555 1_555
C29 C28 1_555 1_555
C30 C29 1_555 1_555
C31 C30 1_555 1_555
C32 C31 1_555 1_555
C33 C32 1_555 1_555
C34 C33 1_555 1_555
H7 C34 1_555 1_555
C35 C34 1_555 1_555
H8 C35 1_555 1_555
C36 C35 1_555 1_555
H9 C36 1_555 1_555
C37 C36 1_555 1_555
C38 C37 1_555 1_555
C39 C38 1_555 1_555
C40 C39 1_555 1_555
C41 C40 1_555 1_555
C42 C1 1_555 1_555
C43 C2 1_555 1_555
H10 C43 1_555 1_555
H11 C43 1_555 1_555
C44 C43 1_555 1_555
H12 C44 1_555 1_555
H13 C44 1_555 1_555
H14 C44 1_555 1_555
C45 C3 1_555 1_555
H15 C45 1_555 1_555
H16 C45 1_555 1_555
C46 C45 1_555 1_555
H17 C46 1_555 1_555
H18 C46 1_555 1_555
H19 C46 1_555 1_555
C47 C11 1_555 1_555
H20 C47 1_555 1_555
H21 C47 1_555 1_555
C48 C47 1_555 1_555
H22 C48 1_555 1_555
H23 C48 1_555 1_555
H24 C48 1_555 1_555
C49 C12 1_555 1_555
H25 C49 1_555 1_555
H26 C49 1_555 1_555
C50 C49 1_555 1_555
H27 C50 1_555 1_555
H28 C50 1_555 1_555
H29 C50 1_555 1_555
C51 C14 1_555 1_555
C52 C51 1_555 1_555
H30 C52 1_555 1_555
C53 C52 1_555 1_555
H31 C53 1_555 1_555
C54 C53 1_555 1_555
H32 C54 1_555 1_555
C55 C54 1_555 1_555
H33 C55 1_555 1_555
C56 C51 1_555 1_555
H34 C56 1_555 1_555
C57 C16 1_555 1_555
H35 C57 1_555 1_555
H36 C57 1_555 1_555
C58 C57 1_555 1_555
H37 C58 1_555 1_555
H38 C58 1_555 1_555
H39 C58 1_555 1_555
C59 C17 1_555 1_555
H40 C59 1_555 1_555
H41 C59 1_555 1_555
C60 C59 1_555 1_555
H42 C60 1_555 1_555
H43 C60 1_555 1_555
H44 C60 1_555 1_555
C61 C25 1_555 1_555
H45 C61 1_555 1_555
H46 C61 1_555 1_555
C62 C61 1_555 1_555
H47 C62 1_555 1_555
H48 C62 1_555 1_555
H49 C62 1_555 1_555
C63 C26 1_555 1_555
H50 C63 1_555 1_555
H51 C63 1_555 1_555
C64 C63 1_555 1_555
H52 C64 1_555 1_555
H53 C64 1_555 1_555
H54 C64 1_555 1_555
C65 C28 1_555 1_555
C66 C65 1_555 1_555
H55 C66 1_555 1_555
C67 C66 1_555 1_555
H56 C67 1_555 1_555
C68 C67 1_555 1_555
H57 C68 1_555 1_555
C69 C68 1_555 1_555
H58 C69 1_555 1_555
C70 C65 1_555 1_555
H59 C70 1_555 1_555
C71 C30 1_555 1_555
H60 C71 1_555 1_555
H61 C71 1_555 1_555
C72 C71 1_555 1_555
H62 C72 1_555 1_555
H63 C72 1_555 1_555
H64 C72 1_555 1_555
C73 C31 1_555 1_555
H65 C73 1_555 1_555
H66 C73 1_555 1_555
C74 C73 1_555 1_555
H67 C74 1_555 1_555
H68 C74 1_555 1_555
H69 C74 1_555 1_555
C75 C39 1_555 1_555
H70 C75 1_555 1_555
H71 C75 1_555 1_555
C76 C75 1_555 1_555
H72 C76 1_555 1_555
H73 C76 1_555 1_555
H74 C76 1_555 1_555
C77 C40 1_555 1_555
H75 C77 1_555 1_555
H76 C77 1_555 1_555
C78 C77 1_555 1_555
H77 C78 1_555 1_555
H78 C78 1_555 1_555
H79 C78 1_555 1_555
C79 C42 1_555 1_555
C80 C79 1_555 1_555
H80 C80 1_555 1_555
C81 C80 1_555 1_555
H81 C81 1_555 1_555
C82 C81 1_555 1_555
H82 C82 1_555 1_555
C83 C82 1_555 1_555
H83 C83 1_555 1_555
C84 C79 1_555 1_555
H84 C84 1_555 1_555
N1 C1 1_555 1_555
N2 C5 1_555 1_555
N3 C10 1_555 1_555
N4 C15 1_555 1_555
N5 C19 1_555 1_555
N6 C24 1_555 1_555
N7 C29 1_555 1_555
N8 C33 1_555 1_555
N9 C38 1_555 1_555
H85 N4 1_555 1_555
H86 N7 1_555 1_555
H87 N9 1_555 1_555
C89 C90 1_555 1_555
C90 C91 1_555 1_555
C91 C92 1_555 1_555
C92 C93 1_555 1_555
C93 C94 1_555 1_555
C94 C89 1_555 1_555
C95 C89 1_555 1_555
C96 C95 1_555 1_555
C97 C90 1_555 1_555
C98 C97 1_555 1_555
C99 C98 1_555 1_555
C100 C91 1_555 1_555
C101 C100 1_555 1_555
C102 C92 1_555 1_555
C103 C102 1_555 1_555
C104 C103 1_555 1_555
C105 C93 1_555 1_555
C106 C105 1_555 1_555
C107 C94 1_555 1_555
C108 C107 1_555 1_555
C109 C95 1_555 1_555
C110 C111 1_555 1_555
C111 C96 1_555 1_555
C112 C111 1_555 1_555
C113 C98 1_555 1_555
C114 C113 1_555 1_555
C115 C99 1_555 1_555
C116 C115 1_555 1_555
C117 C101 1_555 1_555
C118 C117 1_555 1_555
C119 C103 1_555 1_555
C120 C119 1_555 1_555
C121 C104 1_555 1_555
C122 C121 1_555 1_555
C123 C106 1_555 1_555
C124 C123 1_555 1_555
C125 C108 1_555 1_555
C126 C125 1_555 1_555
C127 C109 1_555 1_555
C128 C110 1_555 1_555
C129 C112 1_555 1_555
C130 C129 1_555 1_555
C131 C114 1_555 1_555
C132 C131 1_555 1_555
C133 C116 1_555 1_555
C134 C118 1_555 1_555
C135 C134 1_555 1_555
C136 C120 1_555 1_555
C137 C136 1_555 1_555
C138 C122 1_555 1_555
C139 C124 1_555 1_555
C140 C139 1_555 1_555
C141 C126 1_555 1_555
C142 C128 1_555 1_555
C143 C142 1_555 1_555
C144 C130 1_555 1_555
C145 C132 1_555 1_555
C146 C135 1_555 1_555
C147 C137 1_555 1_555
C148 C140 1_555 1_555
C4 N1 1_555 1_555
C9 N2 1_555 1_555
C13 N3 1_555 1_555
C18 N4 1_555 1_555
C23 N5 1_555 1_555
C27 N6 1_555 1_555
C32 N7 1_555 1_555
C37 N8 1_555 1_555
C41 C42 1_555 1_555
C41 N9 1_555 1_555
C55 C56 1_555 1_555
C69 C70 1_555 1_555
C83 C84 1_555 1_555
C96 C97 1_555 1_555
C99 C100 1_555 1_555
C101 C102 1_555 1_555
C104 C105 1_555 1_555
C106 C107 1_555 1_555
C108 C109 1_555 1_555
C110 C127 1_555 1_555
C112 C113 1_555 1_555
C114 C115 1_555 1_555
C116 C117 1_555 1_555
C118 C119 1_555 1_555
C120 C121 1_555 1_555
C122 C123 1_555 1_555
C124 C125 1_555 1_555
C126 C127 1_555 1_555
C128 C129 1_555 1_555
C130 C131 1_555 1_555
C132 C133 1_555 1_555
C133 C134 1_555 1_555
C135 C136 1_555 1_555
C137 C138 1_555 1_555
C138 C139 1_555 1_555
C140 C141 1_555 1_555
C141 C142 1_555 1_555
C143 C144 1_555 1_555
C143 C148 1_555 1_555
C144 C145 1_555 1_555
C145 C146 1_555 1_555
C146 C147 1_555 1_555
C147 C148 1_555 1_555

#END
