
#######################################################################
#
#                 Cambridge Crystallographic Data Centre
#                                CCDC 
#
#######################################################################
#
# If this CIF has been generated from an entry in the Cambridge 
# Structural Database, then it will include bibliographic, chemical, 
# crystal, experimental, refinement or atomic coordinate data resulting 
# from the CCDC's data processing and validation procedures.
#
#######################################################################

data_XAWMOZ
_chemical_formula_moiety         'C70 H114 K2 N4 O8'
_chemical_name_systematic        
(\m~2~-N,N',N'',N'''-tetrakis(2,6-di-isopropylphenyl)benzene-1,2,4,5-tetraminato)-tetrakis(1,2-bis(methoxy)ethane)-di-potassium
_symmetry_cell_setting           monoclinic
_symmetry_space_group_name_H-M   'C 2/c'
_symmetry_Int_Tables_number      15
_space_group_name_Hall           '-C 2yn'
loop_
_symmetry_equiv_pos_site_id
_symmetry_equiv_pos_as_xyz
1 x,y,z
2 -x,y,1/2-z
3 1/2+x,1/2+y,z
4 1/2-x,1/2+y,1/2-z
5 -x,-y,-z
6 x,-y,1/2+z
7 1/2-x,1/2-y,-z
8 1/2+x,1/2-y,1/2+z
_cell_length_a                   23.760(16)
_cell_length_b                   14.801(10)
_cell_length_c                   23.697(16)
_cell_angle_alpha                90
_cell_angle_beta                 118.156(8)
_cell_angle_gamma                90
_cell_volume                     7347.42
_exptl_crystal_colour            'deep red'
_exptl_crystal_description       block
_cell_formula_units_Z            4
loop_
_atom_site_label
_atom_site_type_symbol
_atom_site_fract_x
_atom_site_fract_y
_atom_site_fract_z
K1 K 0.08181(5) 0.24699(6) 0.48796(5)
O1 O 0.0740(2) 0.0819(3) 0.5388(2)
O2 O 0.19657(17) 0.1538(2) 0.58234(18)
O3 O 0.09159(19) 0.1518(3) 0.3865(2)
O4 O 0.0585(2) 0.3321(3) 0.3743(2)
N1 N -0.01693(12) 0.31242(17) 0.51149(13)
H1 H 0.0048 0.3022 0.5375
N2 N 0.10130(12) 0.38220(18) 0.57657(13)
H2 H 0.0878 0.3498 0.5890
C1 C -0.01029(14) 0.4056(2) 0.50340(14)
C2 C 0.05192(14) 0.4427(2) 0.53798(15)
C3 C -0.06054(14) 0.4641(2) 0.46622(15)
H3 H -0.1014 0.4403 0.4433
C4 C -0.07803(15) 0.2741(2) 0.48994(17)
C5 C -0.09780(18) 0.2440(2) 0.53447(19)
C6 C -0.1581(2) 0.2062(3) 0.5128(2)
H4 H -0.1708 0.1867 0.5423
C7 C -0.1994(2) 0.1969(3) 0.4484(3)
H5 H -0.2401 0.1736 0.4346
C8 C -0.17970(18) 0.2227(3) 0.4046(2)
H6 H -0.2072 0.2151 0.3612
C9 C -0.11931(16) 0.2601(2) 0.42408(17)
C10 C -0.0540(2) 0.2562(3) 0.6055(2)
H7 H -0.0102 0.2490 0.6122
C11 C -0.0592(3) 0.3513(4) 0.6259(3)
H8 H -0.0511 0.3937 0.5999
H9 H -0.0285 0.3596 0.6700
H10 H -0.1014 0.3608 0.6206
C12 C -0.0629(4) 0.1872(4) 0.6487(3)
H11 H -0.0309 0.1966 0.6922
H12 H -0.0589 0.1273 0.6355
H13 H -0.1044 0.1944 0.6454
C13 C -0.09745(18) 0.2793(3) 0.37482(17)
H14 H -0.0600 0.3188 0.3948
C14 C -0.0767(2) 0.1913(3) 0.3562(2)
H15 H -0.0459 0.1611 0.3941
H16 H -0.0580 0.2047 0.3290
H17 H -0.1132 0.1530 0.3337
C15 C -0.1476(2) 0.3271(4) 0.3147(2)
H18 H -0.1827 0.2869 0.2913
H19 H -0.1288 0.3443 0.2882
H20 H -0.1626 0.3800 0.3269
C16 C 0.16149(15) 0.4151(2) 0.62362(16)
C17 C 0.20647(16) 0.4478(2) 0.60558(18)
C18 C 0.26643(18) 0.4747(3) 0.6540(2)
H21 H 0.2962 0.4978 0.6427
C19 C 0.2825(2) 0.4679(3) 0.7174(2)
H22 H 0.3230 0.4849 0.7487
C20 C 0.2386(2) 0.4360(3) 0.7346(2)
H23 H 0.2500 0.4308 0.7778
C21 C 0.17733(17) 0.4111(3) 0.68868(17)
C22 C 0.19296(17) 0.4498(3) 0.53666(19)
H24 H 0.1469 0.4414 0.5099
C23 C 0.2111(2) 0.5394(3) 0.5170(2)
H25 H 0.1908 0.5885 0.5269
H26 H 0.1973 0.5388 0.4718
H27 H 0.2566 0.5471 0.5399
C24 C 0.2268(2) 0.3715(3) 0.5224(2)
H28 H 0.2721 0.3794 0.5466
H29 H 0.2144 0.3707 0.4776
H30 H 0.2149 0.3154 0.5342
C25 C 0.1287(2) 0.3797(3) 0.7087(2)
H31 H 0.0865 0.3910 0.6723
C26 C 0.1332(3) 0.2788(4) 0.7212(3)
H32 H 0.1286 0.2471 0.6839
H33 H 0.0999 0.2606 0.7309
H34 H 0.1740 0.2648 0.7568
C27 C 0.1315(3) 0.4320(5) 0.7658(3)
H35 H 0.1682 0.4132 0.8043
H36 H 0.0936 0.4200 0.7694
H37 H 0.1343 0.4955 0.7595
C28 C 0.0349(3) 0.0740(4) 0.5684(4)
H38 H 0.0234 0.0118 0.5684
H39 H -0.0031 0.1094 0.5453
H40 H 0.0576 0.0954 0.6117
C29 C 0.1353(3) 0.0325(5) 0.5798(4)
H41 H 0.1452 0.0385 0.6243
H42 H 0.1290 -0.0313 0.5691
C30 C 0.1843(4) 0.0615(5) 0.5734(4)
H43 H 0.1772 0.0458 0.5308
H44 H 0.2221 0.0293 0.6037
C31 C 0.2380(3) 0.1794(4) 0.6447(3)
H45 H 0.2187 0.1672 0.6715
H46 H 0.2469 0.2428 0.6459
H47 H 0.2771 0.1459 0.6600
C32 C 0.0695(4) 0.0657(5) 0.3627(5)
H48 H 0.0954 0.0404 0.3456
H49 H 0.0260 0.0694 0.3296
H50 H 0.0718 0.0279 0.3967
C33 C 0.0921(5) 0.2043(6) 0.3397(4)
H51 H 0.0585 0.1823 0.2993
H52 H 0.1322 0.1928 0.3394
C34 C 0.0853(4) 0.2965(5) 0.3399(3)
H53 H 0.1273 0.3232 0.3555
H54 H 0.0599 0.3159 0.2959
C35 C 0.0379(3) 0.4202(4) 0.3649(3)
H55 H 0.0726 0.4593 0.3711
H56 H 0.0231 0.4357 0.3950
H57 H 0.0037 0.4272 0.3222
K1D K -0.08181(5) 0.75301(6) 0.51204(5)
O1D O -0.0740(2) 0.9181(3) 0.4612(2)
O2D O -0.19657(17) 0.8462(2) 0.41766(18)
O3D O -0.09159(19) 0.8482(3) 0.6135(2)
O4D O -0.0585(2) 0.6679(3) 0.6257(2)
N1D N 0.01693(12) 0.68758(17) 0.48851(13)
H1D H -0.0048 0.6978 0.4625
N2D N -0.10130(12) 0.61780(18) 0.42343(13)
H2D H -0.0878 0.6502 0.4110
C1D C 0.01029(14) 0.5944(2) 0.49660(14)
C2D C -0.05192(14) 0.5573(2) 0.46202(15)
C3D C 0.06054(14) 0.5359(2) 0.53378(15)
H3D H 0.1014 0.5597 0.5567
C4D C 0.07803(15) 0.7259(2) 0.51006(17)
C5D C 0.09780(18) 0.7560(2) 0.46553(19)
C6D C 0.1581(2) 0.7938(3) 0.4872(2)
H4D H 0.1708 0.8133 0.4577
C7D C 0.1994(2) 0.8031(3) 0.5516(3)
H5D H 0.2401 0.8264 0.5654
C8D C 0.17970(18) 0.7773(3) 0.5954(2)
H6D H 0.2072 0.7849 0.6388
C9D C 0.11931(16) 0.7399(2) 0.57592(17)
C10D C 0.0540(2) 0.7438(3) 0.3945(2)
H7D H 0.0102 0.7510 0.3878
C11D C 0.0592(3) 0.6487(4) 0.3741(3)
H8D H 0.0511 0.6063 0.4001
H9D H 0.0285 0.6404 0.3300
H10D H 0.1014 0.6392 0.3794
C12D C 0.0629(4) 0.8128(4) 0.3513(3)
H11D H 0.0309 0.8034 0.3078
H12D H 0.0589 0.8727 0.3645
H13D H 0.1044 0.8056 0.3546
C13D C 0.09745(18) 0.7207(3) 0.62518(17)
H14D H 0.0600 0.6812 0.6052
C14D C 0.0767(2) 0.8087(3) 0.6438(2)
H15D H 0.0459 0.8389 0.6059
H16D H 0.0580 0.7953 0.6710
H17D H 0.1132 0.8470 0.6663
C15D C 0.1476(2) 0.6729(4) 0.6853(2)
H18D H 0.1827 0.7131 0.7087
H19D H 0.1288 0.6557 0.7118
H20D H 0.1626 0.6200 0.6731
C16D C -0.16149(15) 0.5849(2) 0.37638(16)
C17D C -0.20647(16) 0.5522(2) 0.39442(18)
C18D C -0.26643(18) 0.5253(3) 0.3460(2)
H21D H -0.2962 0.5022 0.3573
C19D C -0.2825(2) 0.5321(3) 0.2826(2)
H22D H -0.3230 0.5151 0.2513
C20D C -0.2386(2) 0.5640(3) 0.2654(2)
H23D H -0.2500 0.5692 0.2222
C21D C -0.17733(17) 0.5889(3) 0.31132(17)
C22D C -0.19296(17) 0.5502(3) 0.46334(19)
H24D H -0.1469 0.5586 0.4901
C23D C -0.2111(2) 0.4606(3) 0.4830(2)
H25D H -0.1908 0.4115 0.4731
H26D H -0.1973 0.4612 0.5282
H27D H -0.2566 0.4529 0.4601
C24D C -0.2268(2) 0.6285(3) 0.4776(2)
H28D H -0.2721 0.6206 0.4534
H29D H -0.2144 0.6293 0.5224
H30D H -0.2149 0.6846 0.4658
C25D C -0.1287(2) 0.6203(3) 0.2913(2)
H31D H -0.0865 0.6090 0.3277
C26D C -0.1332(3) 0.7212(4) 0.2788(3)
H32D H -0.1286 0.7529 0.3161
H33D H -0.0999 0.7394 0.2691
H34D H -0.1740 0.7352 0.2432
C27D C -0.1315(3) 0.5680(5) 0.2342(3)
H35D H -0.1682 0.5868 0.1957
H36D H -0.0936 0.5800 0.2306
H37D H -0.1343 0.5045 0.2405
C28D C -0.0349(3) 0.9260(4) 0.4316(4)
H38D H -0.0234 0.9882 0.4316
H39D H 0.0031 0.8906 0.4547
H40D H -0.0576 0.9046 0.3883
C29D C -0.1353(3) 0.9675(5) 0.4202(4)
H41D H -0.1452 0.9615 0.3757
H42D H -0.1290 1.0313 0.4309
C30D C -0.1843(4) 0.9385(5) 0.4266(4)
H43D H -0.1772 0.9542 0.4692
H44D H -0.2221 0.9707 0.3963
C31D C -0.2380(3) 0.8206(4) 0.3553(3)
H45D H -0.2187 0.8328 0.3285
H46D H -0.2469 0.7572 0.3541
H47D H -0.2771 0.8541 0.3400
C32D C -0.0695(4) 0.9343(5) 0.6373(5)
H48D H -0.0954 0.9596 0.6544
H49D H -0.0260 0.9306 0.6704
H50D H -0.0718 0.9721 0.6033
C33D C -0.0921(5) 0.7957(6) 0.6603(4)
H51D H -0.0585 0.8177 0.7007
H52D H -0.1322 0.8072 0.6606
C34D C -0.0853(4) 0.7035(5) 0.6601(3)
H53D H -0.1273 0.6768 0.6445
H54D H -0.0599 0.6841 0.7041
C35D C -0.0379(3) 0.5798(4) 0.6351(3)
H55D H -0.0726 0.5407 0.6289
H56D H -0.0231 0.5643 0.6050
H57D H -0.0037 0.5728 0.6778
loop_
_geom_bond_atom_site_label_1
_geom_bond_atom_site_label_2
_geom_bond_site_symmetry_1
_geom_bond_site_symmetry_2
K1 O1 1_555 1_555
O1 C28 1_555 1_555
O2 K1 1_555 1_555
O3 K1 1_555 1_555
O4 K1 1_555 1_555
N1 K1 1_555 1_555
H1 N1 1_555 1_555
N2 K1 1_555 1_555
H2 N2 1_555 1_555
C1 N1 1_555 1_555
C2 N2 1_555 1_555
C3 C1 1_555 1_555
H3 C3 1_555 1_555
C4 N1 1_555 1_555
C5 C4 1_555 1_555
C6 C5 1_555 1_555
H4 C6 1_555 1_555
C7 C6 1_555 1_555
H5 C7 1_555 1_555
C8 C7 1_555 1_555
H6 C8 1_555 1_555
C9 C4 1_555 1_555
C10 C5 1_555 1_555
H7 C10 1_555 1_555
C11 C10 1_555 1_555
H8 C11 1_555 1_555
H9 C11 1_555 1_555
H10 C11 1_555 1_555
C12 C10 1_555 1_555
H11 C12 1_555 1_555
H12 C12 1_555 1_555
H13 C12 1_555 1_555
C13 C9 1_555 1_555
H14 C13 1_555 1_555
C14 C13 1_555 1_555
H15 C14 1_555 1_555
H16 C14 1_555 1_555
H17 C14 1_555 1_555
C15 C13 1_555 1_555
H18 C15 1_555 1_555
H19 C15 1_555 1_555
H20 C15 1_555 1_555
C16 N2 1_555 1_555
C17 C16 1_555 1_555
C18 C17 1_555 1_555
H21 C18 1_555 1_555
C19 C18 1_555 1_555
H22 C19 1_555 1_555
C20 C19 1_555 1_555
H23 C20 1_555 1_555
C21 C16 1_555 1_555
C22 C17 1_555 1_555
H24 C22 1_555 1_555
C23 C22 1_555 1_555
H25 C23 1_555 1_555
H26 C23 1_555 1_555
H27 C23 1_555 1_555
C24 C22 1_555 1_555
H28 C24 1_555 1_555
H29 C24 1_555 1_555
H30 C24 1_555 1_555
C25 C21 1_555 1_555
H31 C25 1_555 1_555
C26 C25 1_555 1_555
H32 C26 1_555 1_555
H33 C26 1_555 1_555
H34 C26 1_555 1_555
C27 C25 1_555 1_555
H35 C27 1_555 1_555
H36 C27 1_555 1_555
H37 C27 1_555 1_555
C28 H38 1_555 1_555
H39 C28 1_555 1_555
H40 C28 1_555 1_555
C29 O1 1_555 1_555
H41 C29 1_555 1_555
H42 C29 1_555 1_555
C30 O2 1_555 1_555
H43 C30 1_555 1_555
H44 C30 1_555 1_555
C31 O2 1_555 1_555
H45 C31 1_555 1_555
H46 C31 1_555 1_555
H47 C31 1_555 1_555
C32 O3 1_555 1_555
H48 C32 1_555 1_555
H49 C32 1_555 1_555
H50 C32 1_555 1_555
C33 O3 1_555 1_555
H51 C33 1_555 1_555
H52 C33 1_555 1_555
C34 O4 1_555 1_555
H53 C34 1_555 1_555
H54 C34 1_555 1_555
C35 O4 1_555 1_555
H55 C35 1_555 1_555
H56 C35 1_555 1_555
H57 C35 1_555 1_555
K1D O1D 1_555 1_555
O1D C28D 1_555 1_555
O2D K1D 1_555 1_555
O3D K1D 1_555 1_555
O4D K1D 1_555 1_555
N1D K1D 1_555 1_555
H1D N1D 1_555 1_555
N2D K1D 1_555 1_555
H2D N2D 1_555 1_555
C1D N1D 1_555 1_555
C2D C3 1_555 1_555
C3D C2 1_555 1_555
H3D C3D 1_555 1_555
C4D N1D 1_555 1_555
C5D C4D 1_555 1_555
C6D C5D 1_555 1_555
H4D C6D 1_555 1_555
C7D C6D 1_555 1_555
H5D C7D 1_555 1_555
C8D C7D 1_555 1_555
H6D C8D 1_555 1_555
C9D C4D 1_555 1_555
C10D C5D 1_555 1_555
H7D C10D 1_555 1_555
C11D C10D 1_555 1_555
H8D C11D 1_555 1_555
H9D C11D 1_555 1_555
H10D C11D 1_555 1_555
C12D C10D 1_555 1_555
H11D C12D 1_555 1_555
H12D C12D 1_555 1_555
H13D C12D 1_555 1_555
C13D C9D 1_555 1_555
H14D C13D 1_555 1_555
C14D C13D 1_555 1_555
H15D C14D 1_555 1_555
H16D C14D 1_555 1_555
H17D C14D 1_555 1_555
C15D C13D 1_555 1_555
H18D C15D 1_555 1_555
H19D C15D 1_555 1_555
H20D C15D 1_555 1_555
C16D N2D 1_555 1_555
C17D C16D 1_555 1_555
C18D C17D 1_555 1_555
H21D C18D 1_555 1_555
C19D C18D 1_555 1_555
H22D C19D 1_555 1_555
C20D C19D 1_555 1_555
H23D C20D 1_555 1_555
C21D C16D 1_555 1_555
C22D C17D 1_555 1_555
H24D C22D 1_555 1_555
C23D C22D 1_555 1_555
H25D C23D 1_555 1_555
H26D C23D 1_555 1_555
H27D C23D 1_555 1_555
C24D C22D 1_555 1_555
H28D C24D 1_555 1_555
H29D C24D 1_555 1_555
H30D C24D 1_555 1_555
C25D C21D 1_555 1_555
H31D C25D 1_555 1_555
C26D C25D 1_555 1_555
H32D C26D 1_555 1_555
H33D C26D 1_555 1_555
H34D C26D 1_555 1_555
C27D C25D 1_555 1_555
H35D C27D 1_555 1_555
H36D C27D 1_555 1_555
H37D C27D 1_555 1_555
C28D H38D 1_555 1_555
H39D C28D 1_555 1_555
H40D C28D 1_555 1_555
C29D O1D 1_555 1_555
H41D C29D 1_555 1_555
H42D C29D 1_555 1_555
C30D O2D 1_555 1_555
H43D C30D 1_555 1_555
H44D C30D 1_555 1_555
C31D O2D 1_555 1_555
H45D C31D 1_555 1_555
H46D C31D 1_555 1_555
H47D C31D 1_555 1_555
C32D O3D 1_555 1_555
H48D C32D 1_555 1_555
H49D C32D 1_555 1_555
H50D C32D 1_555 1_555
C33D O3D 1_555 1_555
H51D C33D 1_555 1_555
H52D C33D 1_555 1_555
C34D O4D 1_555 1_555
H53D C34D 1_555 1_555
H54D C34D 1_555 1_555
C35D O4D 1_555 1_555
H55D C35D 1_555 1_555
H56D C35D 1_555 1_555
H57D C35D 1_555 1_555
C1 C2 1_555 1_555
C8 C9 1_555 1_555
C20 C21 1_555 1_555
C29 C30 1_555 1_555
C33 C34 1_555 1_555
N2D C2D 1_555 1_555
C1D C2D 1_555 1_555
C1D C3D 1_555 1_555
C8D C9D 1_555 1_555
C20D C21D 1_555 1_555
C29D C30D 1_555 1_555
C33D C34D 1_555 1_555

#END
