
#######################################################################
#
#                 Cambridge Crystallographic Data Centre
#                                CCDC 
#
#######################################################################
#
# If this CIF has been generated from an entry in the Cambridge 
# Structural Database, then it will include bibliographic, chemical, 
# crystal, experimental, refinement or atomic coordinate data resulting 
# from the CCDC's data processing and validation procedures.
#
#######################################################################

data_XAWMAL
_chemical_formula_moiety         'C54 H74 N4,C6 H6'
_chemical_name_systematic        
"N,N',N'',N'''-tetrakis(2,6-diisopropylphenyl)benzene-1,2,4,5-tetramine benzene solvate"
_symmetry_cell_setting           monoclinic
_symmetry_space_group_name_H-M   'C 2/c'
_symmetry_Int_Tables_number      15
_space_group_name_Hall           '-C 2yn'
loop_
_symmetry_equiv_pos_site_id
_symmetry_equiv_pos_as_xyz
1 x,y,z
2 -x,y,1/2-z
3 1/2+x,1/2+y,z
4 1/2-x,1/2+y,1/2-z
5 -x,-y,-z
6 x,-y,1/2+z
7 1/2-x,1/2-y,-z
8 1/2+x,1/2-y,1/2+z
_cell_length_a                   23.025(4)
_cell_length_b                   15.090(2)
_cell_length_c                   15.758(2)
_cell_angle_alpha                90
_cell_angle_beta                 93.277(2)
_cell_angle_gamma                90
_cell_volume                     5466.12
_exptl_crystal_colour            colorless
_exptl_crystal_description       block
_cell_formula_units_Z            4
loop_
_atom_site_label
_atom_site_type_symbol
_atom_site_fract_x
_atom_site_fract_y
_atom_site_fract_z
N1 N 0.30537(9) 0.40634(13) 0.06072(14)
H1 H 0.3344 0.4268 0.0348
N2 N 0.13634(10) 0.20592(17) 0.04266(17)
C1 C 0.27681(10) 0.32790(15) 0.03076(15)
C2 C 0.19389(10) 0.22885(16) 0.02247(15)
C3 C 0.22114(10) 0.30548(16) 0.05243(16)
H2 H 0.2016 0.3429 0.0880
C4 C 0.28585(11) 0.45156(16) 0.13412(17)
C5 C 0.31075(12) 0.43015(18) 0.21472(19)
C6 C 0.29232(15) 0.4776(2) 0.2843(2)
H3 H 0.3091 0.4655 0.3381
C7 C 0.25026(16) 0.5414(2) 0.2751(2)
H4 H 0.2386 0.5720 0.3224
C8 C 0.22520(14) 0.5602(2) 0.1961(2)
H5 H 0.1959 0.6025 0.1907
C9 C 0.24295(12) 0.51680(17) 0.12374(18)
C10 C 0.35697(14) 0.3589(2) 0.2265(2)
H6 H 0.3564 0.3251 0.1734
C11 C 0.3456(2) 0.2940(3) 0.2961(4)
H7 H 0.3753 0.2492 0.2983
H8 H 0.3083 0.2668 0.2847
H9 H 0.3461 0.3245 0.3495
C12 C 0.41613(17) 0.3973(3) 0.2397(4)
H10 H 0.4226 0.4390 0.1952
H11 H 0.4445 0.3508 0.2387
H12 H 0.4196 0.4269 0.2936
C13 C 0.21775(14) 0.5432(2) 0.0362(2)
H13 H 0.2221 0.4926 -0.0018
C14 C 0.15316(17) 0.5671(3) 0.0340(3)
H14 H 0.1321 0.5209 0.0606
H15 H 0.1386 0.5737 -0.0240
H16 H 0.1482 0.6218 0.0639
C15 C 0.2531(2) 0.6194(3) 0.0030(2)
H17 H 0.2488 0.6706 0.0383
H18 H 0.2395 0.6331 -0.0542
H19 H 0.2934 0.6028 0.0039
C16 C 0.09994(11) 0.27280(18) 0.07644(18)
C17 C 0.10054(12) 0.2871(2) 0.16406(19)
C18 C 0.06582(16) 0.3543(2) 0.1939(2)
H20 H 0.0664 0.3658 0.2519
C19 C 0.03077(17) 0.4041(3) 0.1390(3)
H21 H 0.0076 0.4486 0.1600
C20 C 0.02986(15) 0.3885(2) 0.0536(2)
H22 H 0.0057 0.4223 0.0171
C21 C 0.06433(13) 0.3231(2) 0.0201(2)
C22 C 0.06289(17) 0.3091(3) -0.0753(2)
H23 H 0.0809 0.2515 -0.0856
C23 C 0.0011(2) 0.3066(4) -0.1155(3)
H24 H -0.0168 0.3634 -0.1094
H25 H -0.0209 0.2624 -0.0876
H26 H 0.0023 0.2923 -0.1747
C24 C 0.0980(2) 0.3789(3) -0.1183(3)
H27 H 0.0815 0.4363 -0.1091
H28 H 0.0975 0.3670 -0.1781
H29 H 0.1374 0.3778 -0.0948
C25 C 0.13695(15) 0.2309(2) 0.2270(2)
H30 H 0.1660 0.1999 0.1950
C26 C 0.1003(2) 0.1617(3) 0.2663(3)
H31 H 0.0712 0.1900 0.2982
H32 H 0.1244 0.1250 0.3035
H33 H 0.0817 0.1259 0.2224
C27 C 0.1695(2) 0.2850(3) 0.2952(3)
H34 H 0.1890 0.3334 0.2693
H35 H 0.1977 0.2482 0.3254
H36 H 0.1426 0.3078 0.3341
H37 H 0.1362(16) 0.161(2) 0.062(2)
N1F N 0.19463(9) 0.09366(13) -0.06072(14)
H1F H 0.1656 0.0732 -0.0348
N2F N 0.36366(10) 0.29408(17) -0.04266(17)
C1F C 0.22319(10) 0.17210(15) -0.03076(15)
C2F C 0.30611(10) 0.27115(16) -0.02247(15)
C3F C 0.27886(10) 0.19452(16) -0.05243(16)
H2F H 0.2984 0.1571 -0.0880
C4F C 0.21415(11) 0.04844(16) -0.13412(17)
C5F C 0.18925(12) 0.06985(18) -0.21472(19)
C6F C 0.20768(15) 0.0224(2) -0.2843(2)
H3F H 0.1909 0.0345 -0.3381
C7F C 0.24974(16) -0.0414(2) -0.2751(2)
H4F H 0.2614 -0.0720 -0.3224
C8F C 0.27480(14) -0.0602(2) -0.1961(2)
H5F H 0.3041 -0.1025 -0.1907
C9F C 0.25705(12) -0.01680(17) -0.12374(18)
C10F C 0.14303(14) 0.1411(2) -0.2265(2)
H6F H 0.1436 0.1749 -0.1734
C11F C 0.1544(2) 0.2060(3) -0.2961(4)
H7F H 0.1247 0.2508 -0.2983
H8F H 0.1917 0.2332 -0.2847
H9F H 0.1539 0.1755 -0.3495
C12F C 0.08387(17) 0.1027(3) -0.2397(4)
H10F H 0.0774 0.0610 -0.1952
H11F H 0.0555 0.1492 -0.2387
H12F H 0.0804 0.0731 -0.2936
C13F C 0.28225(14) -0.0432(2) -0.0362(2)
H13F H 0.2779 0.0074 0.0018
C14F C 0.34684(17) -0.0671(3) -0.0340(3)
H14F H 0.3679 -0.0209 -0.0606
H15F H 0.3614 -0.0737 0.0240
H16F H 0.3518 -0.1218 -0.0639
C15F C 0.2469(2) -0.1194(3) -0.0030(2)
H17F H 0.2512 -0.1706 -0.0383
H18F H 0.2605 -0.1331 0.0542
H19F H 0.2066 -0.1028 -0.0039
C16F C 0.40006(11) 0.22720(18) -0.07644(18)
C17F C 0.39946(12) 0.2129(2) -0.16406(19)
C18F C 0.43418(16) 0.1457(2) -0.1939(2)
H20F H 0.4336 0.1342 -0.2519
C19F C 0.46923(17) 0.0959(3) -0.1390(3)
H21F H 0.4924 0.0514 -0.1600
C20F C 0.47014(15) 0.1115(2) -0.0536(2)
H22F H 0.4943 0.0777 -0.0171
C21F C 0.43567(13) 0.1769(2) -0.0201(2)
C22F C 0.43711(17) 0.1909(3) 0.0753(2)
H23F H 0.4191 0.2485 0.0856
C23F C 0.4989(2) 0.1934(4) 0.1155(3)
H24F H 0.5168 0.1366 0.1094
H25F H 0.5209 0.2376 0.0876
H26F H 0.4977 0.2077 0.1747
C24F C 0.4020(2) 0.1211(3) 0.1183(3)
H27F H 0.4185 0.0637 0.1091
H28F H 0.4025 0.1330 0.1781
H29F H 0.3626 0.1222 0.0948
C25F C 0.36305(15) 0.2691(2) -0.2270(2)
H30F H 0.3340 0.3001 -0.1950
C26F C 0.3997(2) 0.3383(3) -0.2663(3)
H31F H 0.4288 0.3100 -0.2982
H32F H 0.3756 0.3750 -0.3035
H33F H 0.4183 0.3741 -0.2224
C27F C 0.3305(2) 0.2150(3) -0.2952(3)
H34F H 0.3110 0.1666 -0.2693
H35F H 0.3023 0.2518 -0.3254
H36F H 0.3574 0.1922 -0.3341
H37F H 0.3638(16) 0.339(2) -0.062(2)
C28 C 0.0069(4) 0.0668(6) 0.0397(8)
H38 H 0.0128 0.1165 0.0739
C29 C 0.0461(7) -0.0492(8) -0.0195(8)
H39 H 0.0759 -0.0877 -0.0321
C30 C 0.0562(5) 0.0243(7) 0.0192(6)
H40 H 0.0935 0.0463 0.0319
C28D C -0.0069(4) -0.0668(6) -0.0397(8)
H38D H -0.0128 -0.1165 -0.0739
C29D C -0.0461(7) 0.0492(8) 0.0195(8)
H39D H -0.0759 0.0877 0.0321
C30D C -0.0562(5) -0.0243(7) -0.0192(6)
H40D H -0.0935 -0.0463 -0.0319
loop_
_geom_bond_atom_site_label_1
_geom_bond_atom_site_label_2
_geom_bond_site_symmetry_1
_geom_bond_site_symmetry_2
N1 H1 1_555 1_555
N2 C2 1_555 1_555
C1 N1 1_555 1_555
C2 C3 1_555 1_555
C3 C1 1_555 1_555
H2 C3 1_555 1_555
C4 N1 1_555 1_555
C5 C4 1_555 1_555
C6 C5 1_555 1_555
H3 C6 1_555 1_555
C7 C6 1_555 1_555
H4 C7 1_555 1_555
C8 C7 1_555 1_555
H5 C8 1_555 1_555
C9 C4 1_555 1_555
C10 C5 1_555 1_555
H6 C10 1_555 1_555
C11 C10 1_555 1_555
H7 C11 1_555 1_555
H8 C11 1_555 1_555
H9 C11 1_555 1_555
C12 C10 1_555 1_555
H10 C12 1_555 1_555
H11 C12 1_555 1_555
H12 C12 1_555 1_555
C13 C9 1_555 1_555
H13 C13 1_555 1_555
C14 C13 1_555 1_555
H14 C14 1_555 1_555
H15 C14 1_555 1_555
H16 C14 1_555 1_555
C15 C13 1_555 1_555
H17 C15 1_555 1_555
H18 C15 1_555 1_555
H19 C15 1_555 1_555
C16 N2 1_555 1_555
C17 C16 1_555 1_555
C18 C17 1_555 1_555
H20 C18 1_555 1_555
C19 C18 1_555 1_555
H21 C19 1_555 1_555
C20 C19 1_555 1_555
H22 C20 1_555 1_555
C21 C16 1_555 1_555
C22 C21 1_555 1_555
H23 C22 1_555 1_555
C23 C22 1_555 1_555
H24 C23 1_555 1_555
H25 C23 1_555 1_555
H26 C23 1_555 1_555
C24 C22 1_555 1_555
H27 C24 1_555 1_555
H28 C24 1_555 1_555
H29 C24 1_555 1_555
C25 C17 1_555 1_555
H30 C25 1_555 1_555
C26 C25 1_555 1_555
H31 C26 1_555 1_555
H32 C26 1_555 1_555
H33 C26 1_555 1_555
C27 C25 1_555 1_555
H34 C27 1_555 1_555
H35 C27 1_555 1_555
H36 C27 1_555 1_555
H37 N2 1_555 1_555
C28 H38 1_555 1_555
C29 H39 1_555 1_555
C30 C28 1_555 1_555
H40 C30 1_555 1_555
N1F H1F 1_555 1_555
N2F C2F 1_555 1_555
C1F C2 1_555 1_555
C2F C1 1_555 1_555
C3F C1F 1_555 1_555
H2F C3F 1_555 1_555
C4F N1F 1_555 1_555
C5F C4F 1_555 1_555
C6F C5F 1_555 1_555
H3F C6F 1_555 1_555
C7F C6F 1_555 1_555
H4F C7F 1_555 1_555
C8F C7F 1_555 1_555
H5F C8F 1_555 1_555
C9F C4F 1_555 1_555
C10F C5F 1_555 1_555
H6F C10F 1_555 1_555
C11F C10F 1_555 1_555
H7F C11F 1_555 1_555
H8F C11F 1_555 1_555
H9F C11F 1_555 1_555
C12F C10F 1_555 1_555
H10F C12F 1_555 1_555
H11F C12F 1_555 1_555
H12F C12F 1_555 1_555
C13F C9F 1_555 1_555
H13F C13F 1_555 1_555
C14F C13F 1_555 1_555
H14F C14F 1_555 1_555
H15F C14F 1_555 1_555
H16F C14F 1_555 1_555
C15F C13F 1_555 1_555
H17F C15F 1_555 1_555
H18F C15F 1_555 1_555
H19F C15F 1_555 1_555
C16F N2F 1_555 1_555
C17F C16F 1_555 1_555
C18F C17F 1_555 1_555
H20F C18F 1_555 1_555
C19F C18F 1_555 1_555
H21F C19F 1_555 1_555
C20F C19F 1_555 1_555
H22F C20F 1_555 1_555
C21F C16F 1_555 1_555
C22F C21F 1_555 1_555
H23F C22F 1_555 1_555
C23F C22F 1_555 1_555
H24F C23F 1_555 1_555
H25F C23F 1_555 1_555
H26F C23F 1_555 1_555
C24F C22F 1_555 1_555
H27F C24F 1_555 1_555
H28F C24F 1_555 1_555
H29F C24F 1_555 1_555
C25F C17F 1_555 1_555
H30F C25F 1_555 1_555
C26F C25F 1_555 1_555
H31F C26F 1_555 1_555
H32F C26F 1_555 1_555
H33F C26F 1_555 1_555
C27F C25F 1_555 1_555
H34F C27F 1_555 1_555
H35F C27F 1_555 1_555
H36F C27F 1_555 1_555
H37F N2F 1_555 1_555
C28D C29 1_555 1_555
H38D C28D 1_555 1_555
C29D C28 1_555 1_555
H39D C29D 1_555 1_555
C30D C28D 1_555 1_555
H40D C30D 1_555 1_555
C8 C9 1_555 1_555
C20 C21 1_555 1_555
C29 C30 1_555 1_555
N1F C1F 1_555 1_555
C2F C3F 1_555 1_555
C8F C9F 1_555 1_555
C20F C21F 1_555 1_555
C29D C30D 1_555 1_555

#END
