
#######################################################################
#
#                 Cambridge Crystallographic Data Centre
#                                CCDC 
#
#######################################################################
#
# If this CIF has been generated from an entry in the Cambridge 
# Structural Database, then it will include bibliographic, chemical, 
# crystal, experimental, refinement or atomic coordinate data resulting 
# from the CCDC's data processing and validation procedures.
#
#######################################################################

data_XAWREV
_chemical_formula_moiety         'C38 H31 B1 F2 N4'
_chemical_name_systematic        
4,4'-{[5,5-difluoro-1,9-dimethyl-10-(2,4,6-trimethylphenyl)-5H-6\l^5^,5\l^5^-dipyrrolo[1,2-c:2',1'-f][1,3,2]diazaborinine-3,7-diyl]bis(ethene-2,1-diyl)}dibenzonitrile
_symmetry_cell_setting           monoclinic
_symmetry_space_group_name_H-M   'P 21/m'
_symmetry_Int_Tables_number      11
_space_group_name_Hall           '-P 2yb'
loop_
_symmetry_equiv_pos_site_id
_symmetry_equiv_pos_as_xyz
1 x,y,z
2 -x,1/2+y,-z
3 -x,-y,-z
4 x,1/2-y,z
_cell_length_a                   8.0763(4)
_cell_length_b                   18.6613(11)
_cell_length_c                   10.3428(5)
_cell_angle_alpha                90
_cell_angle_beta                 91.980(2)
_cell_angle_gamma                90
_cell_volume                     1557.88
_exptl_crystal_colour            'dark purple'
_exptl_crystal_description       platelet
_cell_formula_units_Z            2
loop_
_atom_site_label
_atom_site_type_symbol
_atom_site_fract_x
_atom_site_fract_y
_atom_site_fract_z
C1 C 0.4459(2) 0.61416(11) 0.7160(2)
C2 C 0.5226(3) 0.57038(11) 0.8113(2)
H1 H 0.5297 0.5196 0.8083
C3 C 0.5854(2) 0.61291(11) 0.9091(2)
C4 C 0.5487(2) 0.68505(11) 0.87223(18)
C5 C 0.5900(3) 0.7500 0.9319(3)
C6 C 0.6733(3) 0.58669(12) 1.0302(2)
H2 H 0.6804 0.5343 1.0280
H3 H 0.6117 0.6016 1.1056
H4 H 0.7851 0.6070 1.0359
C7 C 0.6856(3) 0.7500 1.0578(3)
C8 C 0.6050(4) 0.7500 1.1745(3)
C9 C 0.6980(4) 0.7500 1.2896(3)
H5 H 0.6429 0.7500 1.3693
C10 C 0.8704(4) 0.7500 1.2911(3)
C11 C 0.9478(4) 0.7500 1.1739(3)
H6 H 1.0654 0.7500 1.1739
C12 C 0.8597(4) 0.7500 1.0562(3)
C13 C 0.4171(4) 0.7500 1.1766(4)
C14 C 0.9705(6) 0.7500 1.4168(4)
C15 C 0.9468(4) 0.7500 0.9307(3)
C16 C 0.3568(3) 0.59354(12) 0.5993(2)
H7 H 0.3195 0.6303 0.5418
C17 C 0.3233(3) 0.52554(12) 0.5669(2)
H8 H 0.3664 0.4894 0.6234
C18 C 0.2269(3) 0.50171(11) 0.4533(2)
C19 C 0.1775(3) 0.43034(12) 0.4440(2)
H9 H 0.2120 0.3976 0.5099
C20 C 0.0796(3) 0.40607(12) 0.3410(2)
H10 H 0.0453 0.3574 0.3372
C21 C 0.0319(3) 0.45337(12) 0.2433(2)
C22 C 0.0822(3) 0.52457(13) 0.2492(2)
H11 H 0.0504 0.5568 0.1818
C23 C 0.1782(3) 0.54799(12) 0.3530(2)
H12 H 0.2121 0.5967 0.3566
C24 C -0.0699(3) 0.42857(13) 0.1344(2)
B1 B 0.3956(4) 0.7500 0.6795(3)
N1 N 0.4631(2) 0.68354(9) 0.75298(16)
N2 N -0.1489(3) 0.40893(12) 0.0479(2)
F1 F 0.2241(2) 0.7500 0.67459(18)
F2 F 0.4508(3) 0.7500 0.55339(17)
H13 H 0.374(5) 0.7500 1.269(4)
H14 H 0.372(4) 0.7057(16) 1.131(3)
H15 H 1.041(4) 0.7065(17) 1.429(3)
H16 H 0.903(6) 0.7500 1.489(5)
H17 H 1.065(5) 0.7500 0.943(4)
H18 H 0.914(3) 0.7072(14) 0.876(2)
C1C C 0.4459(2) 0.88584(11) 0.7160(2)
C2C C 0.5226(3) 0.92962(11) 0.8113(2)
H1C H 0.5297 0.9804 0.8083
C3C C 0.5854(2) 0.88709(11) 0.9091(2)
C4C C 0.5487(2) 0.81495(11) 0.87223(18)
C6C C 0.6733(3) 0.91331(12) 1.0302(2)
H2C H 0.6804 0.9657 1.0280
H3C H 0.6117 0.8984 1.1056
H4C H 0.7851 0.8930 1.0359
C16C C 0.3568(3) 0.90646(12) 0.5993(2)
H7C H 0.3195 0.8697 0.5418
C17C C 0.3233(3) 0.97446(12) 0.5669(2)
H8C H 0.3664 1.0106 0.6234
C18C C 0.2269(3) 0.99829(11) 0.4533(2)
C19C C 0.1775(3) 1.06966(12) 0.4440(2)
H9C H 0.2120 1.1024 0.5099
C20C C 0.0796(3) 1.09393(12) 0.3410(2)
H10C H 0.0453 1.1426 0.3372
C21C C 0.0319(3) 1.04663(12) 0.2433(2)
C22C C 0.0822(3) 0.97543(13) 0.2492(2)
H11C H 0.0504 0.9432 0.1818
C23C C 0.1782(3) 0.95201(12) 0.3530(2)
H12C H 0.2121 0.9033 0.3566
C24C C -0.0699(3) 1.07143(13) 0.1344(2)
N1C N 0.4631(2) 0.81646(9) 0.75298(16)
N2C N -0.1489(3) 1.09107(12) 0.0479(2)
H14C H 0.372(4) 0.7943(16) 1.131(3)
H15C H 1.041(4) 0.7935(17) 1.429(3)
H18C H 0.914(3) 0.7928(14) 0.876(2)
loop_
_geom_bond_atom_site_label_1
_geom_bond_atom_site_label_2
_geom_bond_site_symmetry_1
_geom_bond_site_symmetry_2
C1 C2 1_555 1_555
C2 H1 1_555 1_555
C3 C2 1_555 1_555
C4 C3 1_555 1_555
C5 C4 1_555 1_555
C6 C3 1_555 1_555
H2 C6 1_555 1_555
H3 C6 1_555 1_555
H4 C6 1_555 1_555
C7 C5 1_555 1_555
C8 C7 1_555 1_555
C9 C8 1_555 1_555
H5 C9 1_555 1_555
C10 C9 1_555 1_555
C11 C10 1_555 1_555
H6 C11 1_555 1_555
C12 C7 1_555 1_555
C13 C8 1_555 1_555
C14 C10 1_555 1_555
C15 C12 1_555 1_555
C16 C1 1_555 1_555
H7 C16 1_555 1_555
C17 C16 1_555 1_555
H8 C17 1_555 1_555
C18 C17 1_555 1_555
C19 C18 1_555 1_555
H9 C19 1_555 1_555
C20 C19 1_555 1_555
H10 C20 1_555 1_555
C21 C20 1_555 1_555
C22 C21 1_555 1_555
H11 C22 1_555 1_555
C23 C18 1_555 1_555
H12 C23 1_555 1_555
C24 C21 1_555 1_555
B1 N1 1_555 1_555
N1 C1 1_555 1_555
N2 C24 1_555 1_555
F1 B1 1_555 1_555
F2 B1 1_555 1_555
H13 C13 1_555 1_555
H14 C13 1_555 1_555
H15 C14 1_555 1_555
H16 C14 1_555 1_555
H17 C15 1_555 1_555
H18 C15 1_555 1_555
C1C C2C 1_555 1_555
C2C H1C 1_555 1_555
C3C C2C 1_555 1_555
C4C C5 1_555 1_555
C6C C3C 1_555 1_555
H2C C6C 1_555 1_555
H3C C6C 1_555 1_555
H4C C6C 1_555 1_555
C16C C1C 1_555 1_555
H7C C16C 1_555 1_555
C17C C16C 1_555 1_555
H8C C17C 1_555 1_555
C18C C17C 1_555 1_555
C19C C18C 1_555 1_555
H9C C19C 1_555 1_555
C20C C19C 1_555 1_555
H10C C20C 1_555 1_555
C21C C20C 1_555 1_555
C22C C21C 1_555 1_555
H11C C22C 1_555 1_555
C23C C18C 1_555 1_555
H12C C23C 1_555 1_555
C24C C21C 1_555 1_555
N1C B1 1_555 1_555
N2C C24C 1_555 1_555
H14C C13 1_555 1_555
H15C C14 1_555 1_555
H18C C15 1_555 1_555
C4 N1 1_555 1_555
C11 C12 1_555 1_555
C22 C23 1_555 1_555
C1C N1C 1_555 1_555
C3C C4C 1_555 1_555
C4C N1C 1_555 1_555
C22C C23C 1_555 1_555

#END
