
#######################################################################
#
#                 Cambridge Crystallographic Data Centre
#                                CCDC 
#
#######################################################################
#
# If this CIF has been generated from an entry in the Cambridge 
# Structural Database, then it will include bibliographic, chemical, 
# crystal, experimental, refinement or atomic coordinate data resulting 
# from the CCDC's data processing and validation procedures.
#
#######################################################################

data_XAWTAT
_chemical_formula_moiety         'C34 H23 N3 S1,C1 H1 Cl3'
_chemical_name_systematic        
'N,N-diphenyl-4-[9-(thiophen-2-yl)-1,10-phenanthrolin-2-yl]aniline chloroform solvate'
_symmetry_cell_setting           monoclinic
_symmetry_space_group_name_H-M   'P 21/c'
_symmetry_Int_Tables_number      14
_space_group_name_Hall           '-P 2ybc'
loop_
_symmetry_equiv_pos_site_id
_symmetry_equiv_pos_as_xyz
1 x,y,z
2 -x,1/2+y,1/2-z
3 -x,-y,-z
4 x,1/2-y,1/2+z
_cell_length_a                   19.463(3)
_cell_length_b                   9.1246(14)
_cell_length_c                   18.883(3)
_cell_angle_alpha                90
_cell_angle_beta                 115.842(3)
_cell_angle_gamma                90
_cell_volume                     3018.12
_exptl_crystal_colour            yellow
_exptl_crystal_description       block
_cell_formula_units_Z            4
loop_
_atom_site_label
_atom_site_type_symbol
_atom_site_fract_x
_atom_site_fract_y
_atom_site_fract_z
C1 C 0.2898(2) 0.3293(4) 0.6751(2)
C2 C 0.2798(2) 0.4075(5) 0.7342(2)
H1 H 0.3221 0.4372 0.7792
C3 C 0.2086(3) 0.4396(5) 0.7255(2)
H2 H 0.2020 0.4937 0.7639
C4 C 0.1445(2) 0.3908(4) 0.6584(2)
C5 C 0.0676(3) 0.4251(5) 0.6443(3)
H3 H 0.0587 0.4816 0.6804
C6 C 0.0086(2) 0.3758(5) 0.5791(3)
H4 H -0.0407 0.4032 0.5693
C7 C 0.0197(2) 0.2830(4) 0.5247(2)
C8 C -0.0409(2) 0.2221(5) 0.4576(3)
H5 H -0.0911 0.2467 0.4460
C9 C -0.0266(2) 0.1290(5) 0.4106(2)
H6 H -0.0667 0.0907 0.3661
C10 C 0.0492(2) 0.0893(4) 0.4286(2)
C11 C 0.0942(2) 0.2429(4) 0.5377(2)
C12 C 0.1588(2) 0.3043(4) 0.6045(2)
C13 C 0.0670(2) -0.0190(4) 0.3833(2)
C14 C 0.0177(3) -0.0910(5) 0.3152(2)
H7 H -0.0345 -0.0727 0.2889
C15 C 0.0562(3) -0.1945(5) 0.2909(3)
H8 H 0.0317 -0.2523 0.2463
C16 C 0.1318(3) -0.2032(5) 0.3377(3)
H9 H 0.1650 -0.2667 0.3295
C17 C 0.36604(19) 0.3028(4) 0.67852(19)
C18 C 0.3770(2) 0.1933(4) 0.6331(2)
H10 H 0.3372 0.1290 0.6052
C19 C 0.4453(2) 0.1781(4) 0.62852(19)
H11 H 0.4516 0.1029 0.5986
C20 C 0.50538(19) 0.2754(4) 0.6687(2)
C21 C 0.4954(2) 0.3827(4) 0.71517(19)
H12 H 0.5350 0.4475 0.7427
C22 C 0.4276(2) 0.3949(4) 0.7212(2)
H13 H 0.4228 0.4655 0.7543
C23 C 0.64273(19) 0.3178(4) 0.7217(2)
C24 C 0.6865(2) 0.4229(4) 0.7072(2)
H14 H 0.6725 0.4565 0.6562
C25 C 0.7514(2) 0.4773(5) 0.7692(3)
H15 H 0.7809 0.5476 0.7596
C26 C 0.7728(2) 0.4284(5) 0.8452(2)
H16 H 0.8157 0.4669 0.8866
C27 C 0.7302(2) 0.3229(4) 0.8589(2)
H17 H 0.7446 0.2886 0.9098
C28 C 0.6656(2) 0.2666(4) 0.7974(2)
H18 H 0.6374 0.1939 0.8072
C29 C 0.5706(2) 0.2459(4) 0.5830(2)
C30 C 0.5110(2) 0.3055(4) 0.5176(2)
H19 H 0.4727 0.3579 0.5232
C31 C 0.5088(3) 0.2867(5) 0.4437(2)
H20 H 0.4686 0.3260 0.3997
C32 C 0.5656(3) 0.2105(5) 0.4352(3)
H21 H 0.5641 0.1989 0.3856
C33 C 0.6244(2) 0.1518(4) 0.5001(2)
H22 H 0.6631 0.1005 0.4946
C34 C 0.6264(2) 0.1683(4) 0.5736(2)
H23 H 0.6660 0.1264 0.6172
N1 N 0.22980(16) 0.2765(3) 0.61230(16)
N2 N 0.10843(16) 0.1473(3) 0.49044(17)
N3 N 0.57392(16) 0.2639(3) 0.65957(16)
S1 S 0.15838(7) -0.08220(14) 0.41417(7)
C35 C 0.2361(2) 0.3440(5) 0.4491(2)
H24 H 0.2280 0.2888 0.4894
Cl1 Cl 0.14819(8) 0.37843(19) 0.36959(9)
Cl2 Cl 0.29385(9) 0.24194(16) 0.41806(8)
Cl3 Cl 0.28388(11) 0.50742(15) 0.48997(9)
loop_
_geom_bond_atom_site_label_1
_geom_bond_atom_site_label_2
_geom_bond_site_symmetry_1
_geom_bond_site_symmetry_2
C1 C2 1_555 1_555
C2 H1 1_555 1_555
C3 C2 1_555 1_555
H2 C3 1_555 1_555
C4 C3 1_555 1_555
C5 C4 1_555 1_555
H3 C5 1_555 1_555
C6 C5 1_555 1_555
H4 C6 1_555 1_555
C7 C6 1_555 1_555
C8 C7 1_555 1_555
H5 C8 1_555 1_555
C9 C8 1_555 1_555
H6 C9 1_555 1_555
C10 C9 1_555 1_555
C11 C7 1_555 1_555
C12 C4 1_555 1_555
C13 C10 1_555 1_555
C14 C13 1_555 1_555
H7 C14 1_555 1_555
C15 C14 1_555 1_555
H8 C15 1_555 1_555
C16 C15 1_555 1_555
H9 C16 1_555 1_555
C17 C1 1_555 1_555
C18 C17 1_555 1_555
H10 C18 1_555 1_555
C19 C18 1_555 1_555
H11 C19 1_555 1_555
C20 C19 1_555 1_555
C21 C20 1_555 1_555
H12 C21 1_555 1_555
C22 C17 1_555 1_555
H13 C22 1_555 1_555
C23 C24 1_555 1_555
C24 H14 1_555 1_555
C25 C24 1_555 1_555
H15 C25 1_555 1_555
C26 C25 1_555 1_555
H16 C26 1_555 1_555
C27 C26 1_555 1_555
H17 C27 1_555 1_555
C28 C23 1_555 1_555
H18 C28 1_555 1_555
C29 C30 1_555 1_555
C30 H19 1_555 1_555
C31 C30 1_555 1_555
H20 C31 1_555 1_555
C32 C31 1_555 1_555
H21 C32 1_555 1_555
C33 C32 1_555 1_555
H22 C33 1_555 1_555
C34 C29 1_555 1_555
H23 C34 1_555 1_555
N1 C1 1_555 1_555
N2 C10 1_555 1_555
N3 C20 1_555 1_555
S1 C13 1_555 1_555
C35 H24 1_555 1_555
Cl1 C35 1_555 1_555
Cl2 C35 1_555 1_555
Cl3 C35 1_555 1_555
C11 C12 1_555 1_555
C11 N2 1_555 1_555
C12 N1 1_555 1_555
C16 S1 1_555 1_555
C21 C22 1_555 1_555
C23 N3 1_555 1_555
C27 C28 1_555 1_555
C29 N3 1_555 1_555
C33 C34 1_555 1_555

#END
