
#######################################################################
#
#                 Cambridge Crystallographic Data Centre
#                                CCDC 
#
#######################################################################
#
# If this CIF has been generated from an entry in the Cambridge 
# Structural Database, then it will include bibliographic, chemical, 
# crystal, experimental, refinement or atomic coordinate data resulting 
# from the CCDC's data processing and validation procedures.
#
#######################################################################

data_XAXBIK
_chemical_formula_moiety         'C26 H21 Br1 Cl1 N5 O5 S1'
_chemical_name_systematic        
5-bromo-5''-chloro-1,1''-dimethyl-7'-(3-methyl-4-nitro-1,2-oxazol-5-yl)-7',7a'-dihydro-1'H,3'H-dispiro[indole-3,5'-pyrrolo[1,2-c][1,3]thiazole-6',3''-indole]-2,2''(1H,1''H)-dione
_symmetry_cell_setting           triclinic
_symmetry_space_group_name_H-M   'P -1'
_symmetry_Int_Tables_number      2
_space_group_name_Hall           '-P 1'
loop_
_symmetry_equiv_pos_site_id
_symmetry_equiv_pos_as_xyz
1 x,y,z
2 -x,-y,-z
_cell_length_a                   10.1992(15)
_cell_length_b                   15.149(2)
_cell_length_c                   18.413(3)
_cell_angle_alpha                109.908(2)
_cell_angle_beta                 93.499(3)
_cell_angle_gamma                91.277(3)
_cell_volume                     2667.14
_exptl_crystal_colour            colorless
_exptl_crystal_description       block
_cell_formula_units_Z            4
loop_
_atom_site_label
_atom_site_type_symbol
_atom_site_fract_x
_atom_site_fract_y
_atom_site_fract_z
Br1 Br -0.25566(7) 0.78043(6) 0.54208(5)
Cl1 Cl 0.4664(2) 0.29682(15) 0.27823(14)
S1 S 0.4560(2) 0.91061(13) 0.53299(11)
O1 O 0.5402(5) 0.6148(4) 0.3029(3)
O2 O 0.3210(6) 0.5965(5) 0.0816(3)
O3 O 0.2054(6) 0.6523(5) 0.1820(4)
O4 O 0.0455(5) 0.7143(4) 0.3338(3)
O5 O 0.4413(5) 0.5960(4) 0.4837(3)
N1 N 0.3004(6) 0.7628(4) 0.4676(3)
N2 N 0.6061(7) 0.5612(5) 0.2368(4)
N3 N 0.3081(7) 0.6196(5) 0.1514(4)
N4 N 0.0392(6) 0.5520(4) 0.2867(4)
N5 N 0.2444(6) 0.5722(4) 0.5312(4)
C1 C 0.5725(9) 0.5085(6) 0.0968(5)
H1 H 0.5984 0.5551 0.0736
H2 H 0.4990 0.4683 0.0650
H3 H 0.6472 0.4699 0.0995
C2 C 0.5314(8) 0.5577(5) 0.1764(4)
C3 C 0.4136(7) 0.6050(5) 0.1996(4)
C4 C 0.4232(7) 0.6394(5) 0.2786(4)
C5 C 0.3370(7) 0.6925(5) 0.3390(4)
H4 H 0.2866 0.7360 0.3186
C6 C 0.2329(7) 0.6271(5) 0.3614(4)
C7 C 0.2391(7) 0.6702(5) 0.4542(4)
C8 C 0.1110(7) 0.6716(5) 0.4919(4)
C9 C 0.0009(7) 0.7242(5) 0.4942(4)
H5 H -0.0050 0.7681 0.4677
C10 C -0.1014(7) 0.7103(5) 0.5371(4)
C11 C 0.3468(8) 0.8193(5) 0.5459(4)
H6 H 0.3957 0.7813 0.5719
H7 H 0.2727 0.8476 0.5768
C12 C 0.4574(7) 0.8507(5) 0.4298(4)
H8 H 0.3989 0.8807 0.4011
H9 H 0.5475 0.8515 0.4128
C13 C 0.4081(7) 0.7514(5) 0.4167(4)
H10 H 0.4792 0.7152 0.4318
C14 C 0.0942(7) 0.6390(5) 0.3263(4)
C15 C -0.0904(8) 0.5373(6) 0.2455(5)
H11 H -0.1310 0.5979 0.2554
H12 H -0.1456 0.4963 0.2635
H13 H -0.0816 0.5076 0.1898
C16 C 0.1298(7) 0.4820(5) 0.2813(4)
C17 C 0.1126(8) 0.3876(5) 0.2390(4)
H14 H 0.0315 0.3624 0.2105
C18 C 0.2177(8) 0.3298(5) 0.2389(4)
H15 H 0.2089 0.2643 0.2106
C19 C 0.3355(8) 0.3696(5) 0.2812(4)
C20 C 0.3517(7) 0.4647(5) 0.3246(4)
H16 H 0.4326 0.4900 0.3534
C21 C 0.2477(7) 0.5217(5) 0.3251(4)
C22 C 0.3232(7) 0.6082(5) 0.4896(4)
C23 C 0.1192(7) 0.6113(5) 0.5354(4)
C24 C 0.0189(7) 0.5984(5) 0.5777(4)
H17 H 0.0268 0.5571 0.6064
C25 C -0.0950(7) 0.6477(5) 0.5774(4)
H18 H -0.1675 0.6385 0.6045
C26 C 0.2896(8) 0.5136(6) 0.5750(5)
H19 H 0.3674 0.4811 0.5526
H20 H 0.2196 0.4671 0.5728
H21 H 0.3122 0.5529 0.6290
Br2 Br 0.20402(8) 0.71422(7) -0.05646(5)
Cl2 Cl 0.9750(3) 1.18564(17) 0.25022(15)
S2 S 0.91435(19) 0.58231(13) -0.04938(12)
O6 O 0.9262(5) 0.9014(4) 0.0327(3)
O7 O 0.5456(5) 0.7459(4) 0.1497(3)
O8 O 1.0550(5) 0.8496(4) 0.2010(3)
O9 O 0.8382(7) 0.8945(5) 0.4122(3)
O10 O 0.7173(6) 0.8287(5) 0.3042(4)
N6 N 0.7293(7) 0.9216(5) -0.0256(4)
N7 N 0.7764(6) 0.7220(4) 0.0232(3)
N8 N 0.5410(6) 0.9070(5) 0.1990(4)
N9 N 1.1330(7) 0.9013(5) 0.2708(4)
N10 N 0.8219(7) 0.8630(5) 0.3413(4)
C27 C 1.1128(8) 0.9615(6) 0.4094(5)
H22 H 1.1972 0.9936 0.4094
H23 H 1.1255 0.9158 0.4359
H24 H 1.0505 1.0076 0.4363
C28 C 1.0591(7) 0.9112(5) 0.3271(5)
C29 C 0.9329(7) 0.8686(5) 0.2975(4)
C30 C 0.9352(7) 0.8304(5) 0.2188(4)
C31 C 0.8357(7) 0.7800(5) 0.1549(4)
H25 H 0.7876 0.7322 0.1710
C32 C 0.7302(7) 0.8461(5) 0.1366(4)
C33 C 0.7240(7) 0.8155(5) 0.0444(4)
C34 C 0.5898(7) 0.8170(5) 0.0030(4)
C35 C 0.4730(7) 0.7648(6) -0.0038(4)
H26 H 0.4655 0.7188 0.0204
C36 C 0.3666(8) 0.7827(6) -0.0481(5)
C37 C 0.6000(8) 0.8818(5) -0.0365(4)
C38 C 0.8081(8) 0.8848(5) 0.0182(4)
C39 C 0.8903(7) 0.7283(5) 0.0769(4)
H27 H 0.9631 0.7673 0.0672
C40 C 0.7480(7) 0.9503(5) 0.1796(4)
C41 C 0.6315(8) 0.9823(5) 0.2139(4)
C42 C 0.5947(7) 0.8238(6) 0.1617(4)
C43 C 0.4124(9) 0.9130(8) 0.2311(5)
H28 H 0.3665 0.8510 0.2116
H29 H 0.3602 0.9579 0.2154
H30 H 0.4242 0.9341 0.2877
C44 C 0.6184(9) 1.0766(6) 0.2586(4)
H31 H 0.5386 1.0975 0.2815
C45 C 0.7255(10) 1.1385(6) 0.2686(5)
H32 H 0.7195 1.2031 0.2982
C46 C 0.8413(9) 1.1063(6) 0.2353(5)
C47 C 0.8564(8) 1.0132(5) 0.1908(5)
H33 H 0.9371 0.9928 0.1688
C48 C 0.9287(7) 0.6274(5) 0.0564(5)
H34 H 0.8685 0.5916 0.0776
H35 H 1.0199 0.6240 0.0767
C49 C 0.8113(7) 0.6768(5) -0.0548(4)
H36 H 0.8604 0.7213 -0.0732
H37 H 0.7320 0.6515 -0.0903
C50 C 0.7763(10) 0.9824(6) -0.0658(5)
H38 H 0.8650 1.0078 -0.0443
H39 H 0.7170 1.0341 -0.0592
H40 H 0.7785 0.9461 -0.1211
C51 C 0.4951(9) 0.8974(6) -0.0802(5)
H41 H 0.5032 0.9412 -0.1065
C52 C 0.3769(9) 0.8477(6) -0.0850(5)
H42 H 0.3025 0.8585 -0.1140
loop_
_geom_bond_atom_site_label_1
_geom_bond_atom_site_label_2
_geom_bond_site_symmetry_1
_geom_bond_site_symmetry_2
Br1 C10 1_555 1_555
Cl1 C19 1_555 1_555
S1 C11 1_555 1_555
O1 N2 1_555 1_555
O2 N3 1_555 1_555
O3 N3 1_555 1_555
O4 C14 1_555 1_555
O5 C22 1_555 1_555
N1 C7 1_555 1_555
N2 C2 1_555 1_555
N3 C3 1_555 1_555
N4 C14 1_555 1_555
N5 C22 1_555 1_555
C1 H1 1_555 1_555
H2 C1 1_555 1_555
H3 C1 1_555 1_555
C2 C1 1_555 1_555
C3 C2 1_555 1_555
C4 O1 1_555 1_555
C5 C4 1_555 1_555
H4 C5 1_555 1_555
C6 C5 1_555 1_555
C7 C6 1_555 1_555
C8 C7 1_555 1_555
C9 C8 1_555 1_555
H5 C9 1_555 1_555
C10 C9 1_555 1_555
C11 N1 1_555 1_555
H6 C11 1_555 1_555
H7 C11 1_555 1_555
C12 S1 1_555 1_555
H8 C12 1_555 1_555
H9 C12 1_555 1_555
C13 N1 1_555 1_555
H10 C13 1_555 1_555
C14 C6 1_555 1_555
C15 N4 1_555 1_555
H11 C15 1_555 1_555
H12 C15 1_555 1_555
H13 C15 1_555 1_555
C16 N4 1_555 1_555
C17 C16 1_555 1_555
H14 C17 1_555 1_555
C18 C17 1_555 1_555
H15 C18 1_555 1_555
C19 C18 1_555 1_555
C20 C19 1_555 1_555
H16 C20 1_555 1_555
C21 C6 1_555 1_555
C22 C7 1_555 1_555
C23 N5 1_555 1_555
C24 C23 1_555 1_555
H17 C24 1_555 1_555
C25 C10 1_555 1_555
H18 C25 1_555 1_555
C26 N5 1_555 1_555
H19 C26 1_555 1_555
H20 C26 1_555 1_555
H21 C26 1_555 1_555
Br2 C36 1_555 1_555
Cl2 C46 1_555 1_555
S2 C48 1_555 1_555
O6 C38 1_555 1_555
O7 C42 1_555 1_555
O8 N9 1_555 1_555
O9 N10 1_555 1_555
O10 N10 1_555 1_555
N6 C37 1_555 1_555
N7 C33 1_555 1_555
N8 C41 1_555 1_555
N9 C28 1_555 1_555
N10 C29 1_555 1_555
C27 H22 1_555 1_555
H23 C27 1_555 1_555
H24 C27 1_555 1_555
C28 C27 1_555 1_555
C29 C28 1_555 1_555
C30 O8 1_555 1_555
C31 C30 1_555 1_555
H25 C31 1_555 1_555
C32 C31 1_555 1_555
C33 C32 1_555 1_555
C34 C33 1_555 1_555
C35 C34 1_555 1_555
H26 C35 1_555 1_555
C36 C35 1_555 1_555
C37 C34 1_555 1_555
C38 N6 1_555 1_555
C39 N7 1_555 1_555
H27 C39 1_555 1_555
C40 C32 1_555 1_555
C41 C40 1_555 1_555
C42 N8 1_555 1_555
C43 N8 1_555 1_555
H28 C43 1_555 1_555
H29 C43 1_555 1_555
H30 C43 1_555 1_555
C44 C41 1_555 1_555
H31 C44 1_555 1_555
C45 C44 1_555 1_555
H32 C45 1_555 1_555
C46 C45 1_555 1_555
C47 C40 1_555 1_555
H33 C47 1_555 1_555
C48 C39 1_555 1_555
H34 C48 1_555 1_555
H35 C48 1_555 1_555
C49 S2 1_555 1_555
H36 C49 1_555 1_555
H37 C49 1_555 1_555
C50 N6 1_555 1_555
H38 C50 1_555 1_555
H39 C50 1_555 1_555
H40 C50 1_555 1_555
C51 C37 1_555 1_555
H41 C51 1_555 1_555
C52 C36 1_555 1_555
H42 C52 1_555 1_555
C3 C4 1_555 1_555
C5 C13 1_555 1_555
C8 C23 1_555 1_555
C12 C13 1_555 1_555
C16 C21 1_555 1_555
C20 C21 1_555 1_555
C24 C25 1_555 1_555
N7 C49 1_555 1_555
C29 C30 1_555 1_555
C31 C39 1_555 1_555
C32 C42 1_555 1_555
C33 C38 1_555 1_555
C46 C47 1_555 1_555
C51 C52 1_555 1_555

#END
