
#######################################################################
#
#                 Cambridge Crystallographic Data Centre
#                                CCDC 
#
#######################################################################
#
# If this CIF has been generated from an entry in the Cambridge 
# Structural Database, then it will include bibliographic, chemical, 
# crystal, experimental, refinement or atomic coordinate data resulting 
# from the CCDC's data processing and validation procedures.
#
#######################################################################

data_XAXBUW
_chemical_formula_moiety         'C26 H21 Br2 N5 O5 S1'
_chemical_name_systematic        
5,5''-dibromo-1,1''-dimethyl-7'-(3-methyl-4-nitro-1,2-oxazol-5-yl)-7',7a'-dihydro-1'H,3'H-dispiro[indole-3,5'-pyrrolo[1,2-c][1,3]thiazole-6',3''-indole]-2,2''(1H,1''H)-dione
_symmetry_cell_setting           monoclinic
_symmetry_space_group_name_H-M   'P 21/n'
_symmetry_Int_Tables_number      14
_space_group_name_Hall           '-P 2yn'
loop_
_symmetry_equiv_pos_site_id
_symmetry_equiv_pos_as_xyz
1 x,y,z
2 1/2-x,1/2+y,1/2-z
3 -x,-y,-z
4 1/2+x,1/2-y,1/2+z
_cell_length_a                   15.292(4)
_cell_length_b                   10.083(3)
_cell_length_c                   19.000(5)
_cell_angle_alpha                90
_cell_angle_beta                 112.468(4)
_cell_angle_gamma                90
_cell_volume                     2707.22
_exptl_crystal_colour            colorless
_exptl_crystal_description       block
_cell_formula_units_Z            4
loop_
_atom_site_label
_atom_site_type_symbol
_atom_site_fract_x
_atom_site_fract_y
_atom_site_fract_z
Br1 Br 0.29254(11) 0.19898(15) 1.05703(9)
Br2 Br -0.22188(12) 0.8372(2) 0.72473(11)
S1 S 0.4107(2) 0.9190(4) 1.0442(3)
O1 O 0.1666(9) 0.6705(12) 0.6975(7)
O2 O 0.2702(8) 0.5289(11) 0.8590(7)
O3 O 0.1110(8) 1.0036(10) 0.7975(5)
N1 N 0.0486(9) 1.0643(13) 0.7285(7)
O4 O 0.1035(8) 0.7812(12) 0.5926(6)
C1 C 0.2350(9) 0.4597(13) 1.0024(7)
H1 H 0.2776 0.4507 0.9772
C2 C 0.1815(9) 0.5731(13) 0.9948(7)
C3 C 0.1055(8) 0.7833(13) 0.9724(7)
N2 N 0.2684(7) 0.7666(10) 0.9729(7)
C4 C -0.1368(12) 0.5868(17) 0.7271(8)
H2 H -0.1997 0.5587 0.6980
C5 C 0.1617(10) 0.3723(16) 1.0876(10)
H3 H 0.1555 0.3025 1.1190
C6 C 0.2241(10) 0.3595(15) 1.0483(8)
C7 C 0.1774(8) 0.7011(13) 0.9515(7)
C8 C 0.1497(9) 0.6887(13) 0.8617(7)
C9 C 0.2083(10) 0.8057(14) 0.8431(8)
H4 H 0.2570 0.7653 0.8265
C10 C 0.1443(10) 0.8883(13) 0.7801(9)
C11 C 0.1081(10) 0.8760(15) 0.7017(8)
N3 N 0.1284(9) 0.7692(13) 0.6610(8)
N4 N 0.0772(7) 0.7121(12) 1.0203(6)
C12 C 0.0212(10) 0.7664(16) 1.0618(8)
H5 H -0.0021 0.8548 1.0420
H6 H 0.0611 0.7728 1.1161
H7 H -0.0326 0.7078 1.0549
C13 C 0.1214(9) 0.5874(15) 1.0331(7)
C14 C 0.1108(9) 0.4869(14) 1.0793(7)
H8 H 0.0686 0.4977 1.1049
O5 O 0.0815(7) 0.8995(10) 0.9505(5)
C15 C 0.2598(9) 0.8767(13) 0.9202(8)
H9 H 0.2206 0.9504 0.9279
C16 C 0.1868(9) 0.5572(14) 0.8457(8)
N5 N 0.1130(9) 0.4749(12) 0.8102(7)
C17 C 0.1250(15) 0.3439(19) 0.7850(11)
H10 H 0.1084 0.3448 0.7299
H11 H 0.0837 0.2816 0.7973
H12 H 0.1911 0.3162 0.8109
C18 C 0.0284(12) 0.5436(14) 0.7877(8)
C19 C -0.0621(12) 0.4996(16) 0.7447(8)
H13 H -0.0726 0.4103 0.7275
C20 C -0.1180(10) 0.7186(16) 0.7530(8)
C21 C -0.0302(10) 0.7639(15) 0.7998(8)
H14 H -0.0207 0.8516 0.8196
C22 C 0.0430(10) 0.6751(13) 0.8163(7)
C23 C 0.0504(11) 0.9887(14) 0.6721(8)
C24 C -0.0058(12) 1.0272(19) 0.5913(8)
H15 H -0.0419 1.1080 0.5903
H16 H -0.0496 0.9553 0.5656
H17 H 0.0372 1.0434 0.5649
C25 C 0.3602(10) 0.9197(15) 0.9397(10)
H18 H 0.3630 1.0095 0.9195
H19 H 0.3941 0.8569 0.9190
C26 C 0.3165(10) 0.8167(15) 1.0499(9)
H20 H 0.3423 0.7429 1.0864
H21 H 0.2728 0.8696 1.0660
loop_
_geom_bond_atom_site_label_1
_geom_bond_atom_site_label_2
_geom_bond_site_symmetry_1
_geom_bond_site_symmetry_2
Br1 C6 1_555 1_555
Br2 C20 1_555 1_555
S1 C25 1_555 1_555
O1 N3 1_555 1_555
O2 C16 1_555 1_555
O3 N1 1_555 1_555
N1 C23 1_555 1_555
O4 N3 1_555 1_555
C1 H1 1_555 1_555
C2 C1 1_555 1_555
C3 C7 1_555 1_555
N2 C7 1_555 1_555
C4 H2 1_555 1_555
C5 H3 1_555 1_555
C6 C1 1_555 1_555
C7 C2 1_555 1_555
C8 C7 1_555 1_555
C9 C8 1_555 1_555
H4 C9 1_555 1_555
C10 O3 1_555 1_555
C11 C10 1_555 1_555
N3 C11 1_555 1_555
N4 C3 1_555 1_555
C12 N4 1_555 1_555
H5 C12 1_555 1_555
H6 C12 1_555 1_555
H7 C12 1_555 1_555
C13 C2 1_555 1_555
C14 C5 1_555 1_555
H8 C14 1_555 1_555
O5 C3 1_555 1_555
C15 N2 1_555 1_555
H9 C15 1_555 1_555
C16 C8 1_555 1_555
N5 C16 1_555 1_555
C17 N5 1_555 1_555
H10 C17 1_555 1_555
H11 C17 1_555 1_555
H12 C17 1_555 1_555
C18 N5 1_555 1_555
C19 C4 1_555 1_555
H13 C19 1_555 1_555
C20 C4 1_555 1_555
C21 C20 1_555 1_555
H14 C21 1_555 1_555
C22 C8 1_555 1_555
C23 C11 1_555 1_555
C24 C23 1_555 1_555
H15 C24 1_555 1_555
H16 C24 1_555 1_555
H17 C24 1_555 1_555
C25 C15 1_555 1_555
H18 C25 1_555 1_555
H19 C25 1_555 1_555
C26 S1 1_555 1_555
H20 C26 1_555 1_555
H21 C26 1_555 1_555
N2 C26 1_555 1_555
C5 C6 1_555 1_555
C9 C10 1_555 1_555
C9 C15 1_555 1_555
N4 C13 1_555 1_555
C13 C14 1_555 1_555
C18 C19 1_555 1_555
C18 C22 1_555 1_555
C21 C22 1_555 1_555

#END
