
#######################################################################
#
#                 Cambridge Crystallographic Data Centre
#                                CCDC 
#
#######################################################################
#
# If this CIF has been generated from an entry in the Cambridge 
# Structural Database, then it will include bibliographic, chemical, 
# crystal, experimental, refinement or atomic coordinate data resulting 
# from the CCDC's data processing and validation procedures.
#
#######################################################################

data_XAXFOU
_chemical_formula_moiety         'C18 H12 Br1 Cl1 F3 N1 O2'
_chemical_name_systematic        
3-bromo-4-chloro-8-(2,5-dimethoxyphenyl)-2-(trifluoromethyl)quinoline
_chemical_properties_biological  
'Nucleotide pyrophosphatase h-NPP1 inhibition activity'
_symmetry_cell_setting           monoclinic
_symmetry_space_group_name_H-M   'P 21/n'
_symmetry_Int_Tables_number      14
_space_group_name_Hall           '-P 2yn'
loop_
_symmetry_equiv_pos_site_id
_symmetry_equiv_pos_as_xyz
1 x,y,z
2 1/2-x,1/2+y,1/2-z
3 -x,-y,-z
4 1/2+x,1/2-y,1/2+z
_cell_length_a                   12.1546(3)
_cell_length_b                   8.3387(2)
_cell_length_c                   17.5782(5)
_cell_angle_alpha                90
_cell_angle_beta                 106.6889(8)
_cell_angle_gamma                90
_cell_volume                     1706.57
_exptl_crystal_colour            yellow
_exptl_crystal_description       prism
_chemical_melting_point          '156 deg.C'
_cell_formula_units_Z            4
loop_
_atom_site_label
_atom_site_type_symbol
_atom_site_fract_x
_atom_site_fract_y
_atom_site_fract_z
Br1 Br -0.22717(2) 0.39330(2) 0.79673(2)
C1 C 0.10342(14) 0.12211(19) 0.79028(10)
C2 C 0.19962(14) 0.0306(2) 0.78448(9)
C3 C 0.26932(15) -0.0403(2) 0.85209(10)
H1 H 0.3340 -0.1012 0.8490
C4 C 0.24590(16) -0.0235(2) 0.92575(10)
H2 H 0.2953 -0.0732 0.9716
C5 C 0.15392(16) 0.0625(2) 0.93252(10)
H3 H 0.1396 0.0726 0.9827
C6 C 0.07951(15) 0.1371(2) 0.86460(10)
C7 C -0.01996(15) 0.2245(2) 0.86540(10)
C8 C -0.09018(14) 0.2879(2) 0.79642(10)
C9 C -0.05586(14) 0.2701(2) 0.72641(10)
C10 C -0.12606(14) 0.3368(2) 0.64688(10)
C11 C 0.22435(13) 0.01174(19) 0.70689(9)
C12 C 0.14970(14) -0.07202(19) 0.64409(10)
C13 C 0.17584(15) -0.0876(2) 0.57257(10)
H4 H 0.1255 -0.1452 0.5300
C14 C 0.27494(15) -0.0197(2) 0.56293(10)
H5 H 0.2918 -0.0296 0.5136
C15 C 0.34957(14) 0.0629(2) 0.62512(10)
C16 C 0.32486(14) 0.07739(19) 0.69719(10)
H6 H 0.3767 0.1323 0.7401
C17 C -0.02874(17) -0.2076(3) 0.59336(12)
H7 H -0.0513 -0.1298 0.5499
H8 H -0.0964 -0.2390 0.6095
H9 H 0.0044 -0.3025 0.5755
C18 C 0.51826(14) 0.2234(2) 0.66993(11)
H10 H 0.4731 0.3096 0.6843
H11 H 0.5787 0.2701 0.6501
H12 H 0.5533 0.1576 0.7168
Cl1 Cl -0.05054(4) 0.25133(6) 0.95402(3)
F1 F -0.15731(11) 0.48930(14) 0.65045(7)
F2 F -0.22263(9) 0.25275(15) 0.61749(7)
F3 F -0.06873(9) 0.33138(15) 0.59287(6)
N1 N 0.03620(11) 0.19234(16) 0.72297(8)
O1 O 0.05394(10) -0.13713(15) 0.65890(7)
O2 O 0.44515(11) 0.12599(16) 0.60974(8)
loop_
_geom_bond_atom_site_label_1
_geom_bond_atom_site_label_2
_geom_bond_site_symmetry_1
_geom_bond_site_symmetry_2
Br1 C8 1_555 1_555
C1 C2 1_555 1_555
C2 C3 1_555 1_555
C3 H1 1_555 1_555
C4 C3 1_555 1_555
H2 C4 1_555 1_555
C5 C4 1_555 1_555
H3 C5 1_555 1_555
C6 C1 1_555 1_555
C7 C6 1_555 1_555
C8 C7 1_555 1_555
C9 C8 1_555 1_555
C10 C9 1_555 1_555
C11 C2 1_555 1_555
C12 C11 1_555 1_555
C13 C12 1_555 1_555
H4 C13 1_555 1_555
C14 C13 1_555 1_555
H5 C14 1_555 1_555
C15 C14 1_555 1_555
C16 C11 1_555 1_555
H6 C16 1_555 1_555
C17 H7 1_555 1_555
H8 C17 1_555 1_555
H9 C17 1_555 1_555
C18 H10 1_555 1_555
H11 C18 1_555 1_555
H12 C18 1_555 1_555
Cl1 C7 1_555 1_555
F1 C10 1_555 1_555
F2 C10 1_555 1_555
F3 C10 1_555 1_555
N1 C1 1_555 1_555
O1 C12 1_555 1_555
O2 C15 1_555 1_555
C5 C6 1_555 1_555
C9 N1 1_555 1_555
C15 C16 1_555 1_555
C17 O1 1_555 1_555
C18 O2 1_555 1_555

#END
