
#######################################################################
#
#                 Cambridge Crystallographic Data Centre
#                                CCDC 
#
#######################################################################
#
# If this CIF has been generated from an entry in the Cambridge 
# Structural Database, then it will include bibliographic, chemical, 
# crystal, experimental, refinement or atomic coordinate data resulting 
# from the CCDC's data processing and validation procedures.
#
#######################################################################

data_XAXKEP
_chemical_formula_moiety         'C13 H8 Br1 F1 N2 O2 S1'
_chemical_name_systematic        
5-bromo-1-((4-fluorophenyl)sulfonyl)-1H-indazole
_symmetry_cell_setting           monoclinic
_symmetry_space_group_name_H-M   'P 21/c'
_symmetry_Int_Tables_number      14
_space_group_name_Hall           '-P 2ybc'
loop_
_symmetry_equiv_pos_site_id
_symmetry_equiv_pos_as_xyz
1 x,y,z
2 -x,1/2+y,1/2-z
3 -x,-y,-z
4 x,1/2-y,1/2+z
_cell_length_a                   14.899(3)
_cell_length_b                   4.9485(9)
_cell_length_c                   19.736(3)
_cell_angle_alpha                90
_cell_angle_beta                 112.652(12)
_cell_angle_gamma                90
_cell_volume                     1342.85
_exptl_crystal_description       block
_cell_formula_units_Z            4
loop_
_atom_site_label
_atom_site_type_symbol
_atom_site_fract_x
_atom_site_fract_y
_atom_site_fract_z
Br1 Br 0.44896(3) 0.27868(7) 1.173753(19)
S1 S 0.22471(6) 1.19637(13) 0.86122(4)
F1 F 0.13910(18) 0.4460(4) 0.61943(11)
N1 N 0.21376(15) 1.0033(5) 0.92730(12)
N2 N 0.12107(16) 0.9498(5) 0.92365(13)
O1 O 0.15016(15) 1.3940(4) 0.84400(11)
O2 O 0.32450(18) 1.2680(4) 0.88893(14)
C1 C 0.28248(19) 0.8437(5) 0.98006(14)
C2 C 0.3821(2) 0.8233(6) 1.00196(18)
H1 H 0.4157 0.9221 0.9792
C3 C 0.4294(2) 0.6492(7) 1.05925(17)
H2 H 0.4965 0.6296 1.0758
C4 C 0.37836(19) 0.5035(5) 1.09246(14)
C5 C 0.2800(2) 0.5173(6) 1.07024(15)
H3 H 0.2469 0.4153 1.0928
C6 C 0.2308(2) 0.6917(6) 1.01196(16)
C7 C 0.1326(3) 0.7698(6) 0.97362(18)
H4 H 0.0812 0.6981 0.9836
C8 C 0.19947(18) 0.9788(5) 0.78639(13)
C9 C 0.2742(2) 0.8366(6) 0.77882(18)
H5 H 0.3378 0.8626 0.8118
C10 C 0.2541(3) 0.6558(7) 0.7222(2)
H6 H 0.3033 0.5556 0.7162
C11 C 0.1590(3) 0.6276(7) 0.67476(18)
C12 C 0.0843(3) 0.7688(6) 0.68014(19)
H7 H 0.0210 0.7454 0.6461
C13 C 0.10467(19) 0.9474(6) 0.73727(15)
H8 H 0.0550 1.0467 0.7429
loop_
_geom_bond_atom_site_label_1
_geom_bond_atom_site_label_2
_geom_bond_site_symmetry_1
_geom_bond_site_symmetry_2
Br1 C4 1_555 1_555
S1 N1 1_555 1_555
F1 C11 1_555 1_555
N1 N2 1_555 1_555
N2 C7 1_555 1_555
O1 S1 1_555 1_555
O2 S1 1_555 1_555
C1 N1 1_555 1_555
C2 C1 1_555 1_555
H1 C2 1_555 1_555
C3 C2 1_555 1_555
H2 C3 1_555 1_555
C4 C3 1_555 1_555
C5 C4 1_555 1_555
H3 C5 1_555 1_555
C6 C1 1_555 1_555
C7 C6 1_555 1_555
H4 C7 1_555 1_555
C8 S1 1_555 1_555
C9 C8 1_555 1_555
H5 C9 1_555 1_555
C10 C9 1_555 1_555
H6 C10 1_555 1_555
C11 C10 1_555 1_555
C12 C11 1_555 1_555
H7 C12 1_555 1_555
C13 C8 1_555 1_555
H8 C13 1_555 1_555
C5 C6 1_555 1_555
C12 C13 1_555 1_555

#END
