
#######################################################################
#
#                 Cambridge Crystallographic Data Centre
#                                CCDC 
#
#######################################################################
#
# If this CIF has been generated from an entry in the Cambridge 
# Structural Database, then it will include bibliographic, chemical, 
# crystal, experimental, refinement or atomic coordinate data resulting 
# from the CCDC's data processing and validation procedures.
#
#######################################################################

data_XAXKIT
_chemical_formula_moiety         'C42 H33 N1 O6,C1 H2 Cl2'
_chemical_name_systematic        
"methyl 4'-(bis(4'-(methoxycarbonyl)biphenyl-4-yl)amino)biphenyl-4-carboxylate dichloromethane solvate"
_symmetry_cell_setting           monoclinic
_symmetry_space_group_name_H-M   'P 21/c'
_symmetry_Int_Tables_number      14
_space_group_name_Hall           '-P 2ybc'
loop_
_symmetry_equiv_pos_site_id
_symmetry_equiv_pos_as_xyz
1 x,y,z
2 -x,1/2+y,1/2-z
3 -x,-y,-z
4 x,1/2-y,1/2+z
_cell_length_a                   14.3596(6)
_cell_length_b                   10.8125(6)
_cell_length_c                   24.7814(11)
_cell_angle_alpha                90
_cell_angle_beta                 104.824(4)
_cell_angle_gamma                90
_cell_volume                     3719.58
_exptl_crystal_colour            'yellow greenish'
_exptl_crystal_description       needle-like
_cell_formula_units_Z            4
loop_
_atom_site_label
_atom_site_type_symbol
_atom_site_fract_x
_atom_site_fract_y
_atom_site_fract_z
O1 O 0.60252(18) -0.2785(2) 0.53313(12)
O2 O 0.44356(19) -0.3030(2) 0.51569(12)
O3 O -0.1280(2) 1.1730(3) 0.56247(12)
O4 O 1.10387(19) 1.1684(3) 0.84873(14)
N1 N 0.48960(18) 0.6106(2) 0.68798(12)
O5 O -0.16975(19) 1.1096(3) 0.63815(14)
C1 C 0.5059(2) 0.1236(3) 0.60116(12)
C2 C 0.5020(2) 0.2491(3) 0.62359(12)
C3 C 0.4945(2) 0.4912(3) 0.66584(13)
O6 O 1.1875(2) 0.9954(3) 0.85263(18)
C4 C 0.5744(2) 0.6765(3) 0.71384(12)
C5 C 0.5132(2) -0.1144(3) 0.55621(13)
C6 C 0.3996(2) 0.6739(3) 0.67754(14)
C7 C 0.2268(2) 0.8072(3) 0.65693(14)
C8 C 0.7474(2) 0.8012(3) 0.76145(13)
C9 C 0.5139(2) -0.2409(3) 0.53252(13)
C10 C 0.4225(2) 0.2913(3) 0.64009(14)
H1 H 0.3700 0.2390 0.6369
C11 C 0.2883(2) 0.8015(3) 0.70984(14)
H2 H 0.2720 0.8429 0.7390
C12 C 0.5939(2) 0.0675(3) 0.60126(14)
H3 H 0.6511 0.1091 0.6169
C13 C 0.5741(2) 0.4521(3) 0.64885(14)
H4 H 0.6256 0.5056 0.6511
C14 C 0.5774(2) 0.3330(3) 0.62847(13)
H5 H 0.6320 0.3082 0.6177
C15 C 0.5864(2) 0.7990(3) 0.70120(13)
H6 H 0.5363 0.8406 0.6767
C16 C 0.1392(2) 0.8836(3) 0.64446(14)
C17 C 0.4189(2) 0.4089(3) 0.66115(13)
H7 H 0.3647 0.4334 0.6724
C18 C 0.5969(2) -0.0478(3) 0.57856(15)
H8 H 0.6562 -0.0820 0.5781
C19 C 0.6705(2) 0.8600(3) 0.72412(13)
H9 H 0.6768 0.9423 0.7147
C20 C 0.8401(2) 0.8642(3) 0.78356(13)
C21 C 0.4226(2) 0.0556(3) 0.57837(15)
H10 H 0.3629 0.0902 0.5773
C22 C 0.6494(2) 0.6185(3) 0.75250(14)
H11 H 0.6418 0.5374 0.7630
C23 C 0.3741(2) 0.7353(3) 0.72048(14)
H12 H 0.4143 0.7323 0.7564
C24 C 1.0173(2) 0.9868(3) 0.82324(14)
C25 C 0.7339(2) 0.6790(3) 0.77516(14)
H13 H 0.7834 0.6376 0.8002
C26 C 0.4270(2) -0.0620(3) 0.55725(14)
H14 H 0.3703 -0.1063 0.5435
C27 C 0.3378(2) 0.6764(3) 0.62479(14)
H15 H 0.3535 0.6334 0.5958
C28 C 0.9277(2) 0.8012(3) 0.79220(15)
H16 H 0.9273 0.7171 0.7844
C29 C 0.2535(2) 0.7417(3) 0.61475(14)
H17 H 0.2129 0.7425 0.5789
C30 C 0.0847(2) 0.8993(3) 0.68263(15)
H18 H 0.1044 0.8615 0.7174
C31 C 1.1113(3) 1.0484(4) 0.84340(16)
C32 C 0.0019(2) 0.9695(3) 0.67027(15)
H19 H -0.0343 0.9766 0.6963
C33 C -0.0276(2) 1.0289(3) 0.62001(15)
C34 C -0.1164(3) 1.1047(3) 0.60872(17)
C35 C 1.0142(2) 0.8603(3) 0.81190(15)
H20 H 1.0713 0.8157 0.8178
C36 C 0.9313(2) 1.0501(4) 0.81487(16)
H21 H 0.9322 1.1343 0.8225
C37 C 0.8448(2) 0.9915(3) 0.79556(17)
H22 H 0.7881 1.0367 0.7903
C38 C 0.6104(3) -0.4017(3) 0.51239(19)
H23 H 0.5758 -0.4061 0.4738
H24 H 0.5837 -0.4600 0.5335
H25 H 0.6770 -0.4209 0.5161
C39 C 0.1073(3) 0.9449(4) 0.59310(16)
H26 H 0.1424 0.9370 0.5665
C40 C 0.0258(3) 1.0158(4) 0.58119(17)
H27 H 0.0061 1.0555 0.5468
C41 C -0.2098(3) 1.2575(5) 0.5502(2)
H28 H -0.2101 1.3040 0.5171
H29 H -0.2048 1.3131 0.5810
H30 H -0.2685 1.2110 0.5443
C42 C 1.1912(3) 1.2376(5) 0.8688(2)
H31 H 1.1852 1.3165 0.8505
H32 H 1.2441 1.1928 0.8611
H33 H 1.2028 1.2498 0.9084
Cl1 Cl 0.0385(8) 0.3355(14) 0.4830(4)
Cl2 Cl 0.1760(6) 0.3341(15) 0.5554(5)
C43 C 0.0654(13) 0.399(3) 0.5406(9)
H34 H 0.0266 0.3716 0.5651
H35 H 0.0665 0.4883 0.5385
loop_
_geom_bond_atom_site_label_1
_geom_bond_atom_site_label_2
_geom_bond_site_symmetry_1
_geom_bond_site_symmetry_2
O1 C9 1_555 1_555
O2 C9 1_555 1_555
O3 C34 1_555 1_555
O4 C31 1_555 1_555
N1 C3 1_555 1_555
O5 C34 1_555 1_555
C1 C2 1_555 1_555
C2 C10 1_555 1_555
C3 C13 1_555 1_555
O6 C31 1_555 1_555
C4 N1 1_555 1_555
C5 C9 1_555 1_555
C6 N1 1_555 1_555
C7 C11 1_555 1_555
C8 C19 1_555 1_555
C10 H1 1_555 1_555
C11 H2 1_555 1_555
C12 C1 1_555 1_555
H3 C12 1_555 1_555
C13 H4 1_555 1_555
C14 C2 1_555 1_555
H5 C14 1_555 1_555
C15 C4 1_555 1_555
H6 C15 1_555 1_555
C16 C7 1_555 1_555
C17 C3 1_555 1_555
H7 C17 1_555 1_555
C18 C5 1_555 1_555
H8 C18 1_555 1_555
C19 C15 1_555 1_555
H9 C19 1_555 1_555
C20 C8 1_555 1_555
C21 C1 1_555 1_555
H10 C21 1_555 1_555
C22 C4 1_555 1_555
H11 C22 1_555 1_555
C23 C6 1_555 1_555
H12 C23 1_555 1_555
C24 C31 1_555 1_555
C25 C8 1_555 1_555
H13 C25 1_555 1_555
C26 C5 1_555 1_555
H14 C26 1_555 1_555
C27 C6 1_555 1_555
H15 C27 1_555 1_555
C28 C20 1_555 1_555
H16 C28 1_555 1_555
C29 C7 1_555 1_555
H17 C29 1_555 1_555
C30 C16 1_555 1_555
H18 C30 1_555 1_555
C32 C30 1_555 1_555
H19 C32 1_555 1_555
C33 C32 1_555 1_555
C34 C33 1_555 1_555
C35 C24 1_555 1_555
H20 C35 1_555 1_555
C36 C24 1_555 1_555
H21 C36 1_555 1_555
C37 C20 1_555 1_555
H22 C37 1_555 1_555
C38 O1 1_555 1_555
H23 C38 1_555 1_555
H24 C38 1_555 1_555
H25 C38 1_555 1_555
C39 C16 1_555 1_555
H26 C39 1_555 1_555
C40 C33 1_555 1_555
H27 C40 1_555 1_555
C41 O3 1_555 1_555
H28 C41 1_555 1_555
H29 C41 1_555 1_555
H30 C41 1_555 1_555
C42 O4 1_555 1_555
H31 C42 1_555 1_555
H32 C42 1_555 1_555
H33 C42 1_555 1_555
Cl1 C43 1_555 1_555
Cl2 C43 1_555 1_555
C43 H34 1_555 1_555
H35 C43 1_555 1_555
C10 C17 1_555 1_555
C11 C23 1_555 1_555
C12 C18 1_555 1_555
C13 C14 1_555 1_555
C21 C26 1_555 1_555
C22 C25 1_555 1_555
C27 C29 1_555 1_555
C28 C35 1_555 1_555
C36 C37 1_555 1_555
C39 C40 1_555 1_555

#END
