
#######################################################################
#
#                 Cambridge Crystallographic Data Centre
#                                CCDC 
#
#######################################################################
#
# If this CIF has been generated from an entry in the Cambridge 
# Structural Database, then it will include bibliographic, chemical, 
# crystal, experimental, refinement or atomic coordinate data resulting 
# from the CCDC's data processing and validation procedures.
#
#######################################################################

data_XAXTIB
_chemical_formula_moiety         'C15 H17 N1 O2 S1'
_chemical_name_systematic        
3-(Cyclopropylidenemethyl)-1-((4-methylphenyl)sulfonyl)-2,5-dihydro-1H-pyrrole
_symmetry_cell_setting           monoclinic
_symmetry_space_group_name_H-M   'P 21/c'
_symmetry_Int_Tables_number      14
_space_group_name_Hall           '-P 2ybc'
loop_
_symmetry_equiv_pos_site_id
_symmetry_equiv_pos_as_xyz
1 x,y,z
2 -x,1/2+y,1/2-z
3 -x,-y,-z
4 x,1/2-y,1/2+z
_cell_length_a                   15.0592(17)
_cell_length_b                   7.1418(8)
_cell_length_c                   13.2370(15)
_cell_angle_alpha                90
_cell_angle_beta                 96.584(2)
_cell_angle_gamma                90
_cell_volume                     1414.25
_exptl_crystal_colour            colorless
_exptl_crystal_description       prismatic
_chemical_melting_point          '145-147 deg.C'
_cell_formula_units_Z            4
loop_
_atom_site_label
_atom_site_type_symbol
_atom_site_fract_x
_atom_site_fract_y
_atom_site_fract_z
S1 S 0.71436(4) 0.17147(8) 0.75732(4)
N1 N 0.78155(12) 0.0192(3) 0.81453(14)
O1 O 0.69107(12) 0.1048(3) 0.65676(12)
O2 O 0.75671(12) 0.3491(2) 0.77413(14)
C1 C 0.82648(15) 0.0603(3) 0.91721(18)
H1 H 0.7877 0.1309 0.9569
H2 H 0.8813 0.1300 0.9137
C2 C 0.76208(16) -0.1834(3) 0.80318(19)
H3 H 0.7851 -0.2344 0.7435
H4 H 0.6984 -0.2078 0.7989
C3 C 0.81006(16) -0.2609(4) 0.8980(2)
H5 H 0.8150 -0.3884 0.9119
C4 C 0.84524(14) -0.1296(3) 0.96107(18)
C5 C 0.89371(17) -0.1531(4) 1.0618(2)
H6 H 0.9037 -0.2742 1.0864
C6 C 0.92402(17) -0.0137(4) 1.1196(2)
C7 C 0.93290(19) 0.1860(5) 1.1315(2)
H7 H 0.8797 0.2575 1.1410
H8 H 0.9754 0.2498 1.0938
C8 C 0.9690(2) 0.0541(5) 1.2151(2)
H9 H 1.0333 0.0381 1.2277
H10 H 0.9375 0.0458 1.2749
C9 C 0.61661(13) 0.1767(3) 0.81850(15)
C10 C 0.54145(14) 0.0791(3) 0.77832(16)
H11 H 0.5421 0.0105 0.7187
C11 C 0.46549(15) 0.0843(3) 0.82741(18)
H12 H 0.4147 0.0203 0.7997
C12 C 0.46330(15) 0.1830(3) 0.91713(17)
C13 C 0.53961(15) 0.2761(3) 0.95635(17)
H13 H 0.5398 0.3403 1.0175
C14 C 0.61542(14) 0.2769(3) 0.90769(16)
H14 H 0.6655 0.3443 0.9345
C15 C 0.37970(17) 0.1897(4) 0.9688(2)
H15 H 0.3481 0.3039 0.9510
H16 H 0.3951 0.1846 1.0411
H17 H 0.3423 0.0848 0.9472
loop_
_geom_bond_atom_site_label_1
_geom_bond_atom_site_label_2
_geom_bond_site_symmetry_1
_geom_bond_site_symmetry_2
S1 N1 1_555 1_555
N1 C1 1_555 1_555
O1 S1 1_555 1_555
O2 S1 1_555 1_555
C1 H1 1_555 1_555
H2 C1 1_555 1_555
C2 N1 1_555 1_555
H3 C2 1_555 1_555
H4 C2 1_555 1_555
C3 C2 1_555 1_555
H5 C3 1_555 1_555
C4 C1 1_555 1_555
C5 C4 1_555 1_555
H6 C5 1_555 1_555
C6 C5 1_555 1_555
C7 C6 1_555 1_555
H7 C7 1_555 1_555
H8 C7 1_555 1_555
C8 C6 1_555 1_555
H9 C8 1_555 1_555
H10 C8 1_555 1_555
C9 S1 1_555 1_555
C10 C9 1_555 1_555
H11 C10 1_555 1_555
C11 C10 1_555 1_555
H12 C11 1_555 1_555
C12 C11 1_555 1_555
C13 C12 1_555 1_555
H13 C13 1_555 1_555
C14 C9 1_555 1_555
H14 C14 1_555 1_555
C15 C12 1_555 1_555
H15 C15 1_555 1_555
H16 C15 1_555 1_555
H17 C15 1_555 1_555
C3 C4 1_555 1_555
C7 C8 1_555 1_555
C13 C14 1_555 1_555

#END
