
#######################################################################
#
#                 Cambridge Crystallographic Data Centre
#                                CCDC 
#
#######################################################################
#
# If this CIF has been generated from an entry in the Cambridge 
# Structural Database, then it will include bibliographic, chemical, 
# crystal, experimental, refinement or atomic coordinate data resulting 
# from the CCDC's data processing and validation procedures.
#
#######################################################################

data_XAXTEX
_chemical_formula_moiety         'C21 H21 N1 O2 S1'
_chemical_name_systematic        
3-((4-Methylphenyl)sulfonyl)-6-phenyl-3-azaspiro[bicyclo[4.1.0]heptane-7,1'-cyclopropane]-4-ene
_symmetry_cell_setting           orthorhombic
_symmetry_space_group_name_H-M   'P 21 21 21'
_symmetry_Int_Tables_number      19
_space_group_name_Hall           'P 2ac 2ab'
loop_
_symmetry_equiv_pos_site_id
_symmetry_equiv_pos_as_xyz
1 x,y,z
2 1/2-x,-y,1/2+z
3 -x,1/2+y,1/2-z
4 1/2+x,1/2-y,-z
_cell_length_a                   6.4478(8)
_cell_length_b                   7.9827(10)
_cell_length_c                   35.414(4)
_cell_angle_alpha                90
_cell_angle_beta                 90
_cell_angle_gamma                90
_cell_volume                     1822.79
_exptl_crystal_colour            colorless
_exptl_crystal_description       prismatic
_chemical_melting_point          '121-123 deg.C'
_cell_formula_units_Z            4
loop_
_atom_site_label
_atom_site_type_symbol
_atom_site_fract_x
_atom_site_fract_y
_atom_site_fract_z
S1 S 0.47651(13) 1.09535(9) 0.16335(2)
N1 N 0.5767(4) 0.9496(3) 0.13665(6)
O1 O 0.2685(3) 1.0458(3) 0.17102(7)
O2 O 0.5178(5) 1.2503(2) 0.14516(6)
C1 C 0.5217(5) 0.7805(3) 0.14322(8)
H1 H 0.4378 0.7543 0.1637
C2 C 0.5860(4) 0.6611(3) 0.12117(9)
H2 H 0.5439 0.5520 0.1264
C3 C 0.7233(4) 0.6896(3) 0.08805(8)
C4 C 0.6480(5) 0.8197(4) 0.06087(8)
C5 C 0.6021(7) 0.8331(5) 0.02041(9)
H3 H 0.5674 0.7312 0.0069
H4 H 0.6775 0.9159 0.0058
C6 C 0.4518(6) 0.8948(5) 0.04994(9)
H5 H 0.4364 1.0149 0.0530
H6 H 0.3263 0.8303 0.0541
C7 C 0.8203(5) 0.8634(3) 0.08734(9)
H7 H 0.9584 0.8698 0.0759
C8 C 0.7852(5) 0.9775(4) 0.12007(8)
H8 H 0.8905 0.9575 0.1391
H9 H 0.7972 1.0930 0.1118
C9 C 0.8391(4) 0.5404(3) 0.07369(7)
C10 C 1.0399(5) 0.5051(4) 0.08507(8)
H10 H 1.1088 0.5800 0.1008
C11 C 1.1393(5) 0.3620(5) 0.07360(10)
H11 H 1.2732 0.3395 0.0819
C12 C 1.0408(6) 0.2516(4) 0.04972(9)
H12 H 1.1079 0.1545 0.0418
C13 C 0.8460(6) 0.2850(4) 0.03781(10)
H13 H 0.7798 0.2108 0.0215
C14 C 0.7442(5) 0.4278(4) 0.04949(9)
H14 H 0.6101 0.4487 0.0410
C15 C 0.6157(5) 1.0928(3) 0.20629(7)
C16 C 0.8068(5) 1.1681(4) 0.20777(10)
H15 H 0.8615 1.2196 0.1864
C17 C 0.9168(6) 1.1671(4) 0.24095(11)
H16 H 1.0464 1.2180 0.2419
C18 C 0.8385(6) 1.0919(4) 0.27292(9)
C19 C 0.6473(6) 1.0161(4) 0.27093(9)
H17 H 0.5926 0.9645 0.2923
C20 C 0.5356(5) 1.0153(4) 0.23776(8)
H18 H 0.4069 0.9629 0.2367
C21 C 0.9600(8) 1.0939(6) 0.30978(12)
H19 H 1.0996 1.0575 0.3052
H20 H 0.8953 1.0198 0.3276
H21 H 0.9617 1.2055 0.3198
loop_
_geom_bond_atom_site_label_1
_geom_bond_atom_site_label_2
_geom_bond_site_symmetry_1
_geom_bond_site_symmetry_2
S1 N1 1_555 1_555
N1 C1 1_555 1_555
O1 S1 1_555 1_555
O2 S1 1_555 1_555
C1 H1 1_555 1_555
C2 C1 1_555 1_555
H2 C2 1_555 1_555
C3 C2 1_555 1_555
C4 C3 1_555 1_555
C5 C4 1_555 1_555
H3 C5 1_555 1_555
H4 C5 1_555 1_555
C6 C4 1_555 1_555
H5 C6 1_555 1_555
H6 C6 1_555 1_555
C7 C3 1_555 1_555
H7 C7 1_555 1_555
C8 N1 1_555 1_555
H8 C8 1_555 1_555
H9 C8 1_555 1_555
C9 C3 1_555 1_555
C10 C9 1_555 1_555
H10 C10 1_555 1_555
C11 C10 1_555 1_555
H11 C11 1_555 1_555
C12 C11 1_555 1_555
H12 C12 1_555 1_555
C13 C12 1_555 1_555
H13 C13 1_555 1_555
C14 C9 1_555 1_555
H14 C14 1_555 1_555
C15 S1 1_555 1_555
C16 C15 1_555 1_555
H15 C16 1_555 1_555
C17 C16 1_555 1_555
H16 C17 1_555 1_555
C18 C17 1_555 1_555
C19 C18 1_555 1_555
H17 C19 1_555 1_555
C20 C15 1_555 1_555
H18 C20 1_555 1_555
C21 C18 1_555 1_555
H19 C21 1_555 1_555
H20 C21 1_555 1_555
H21 C21 1_555 1_555
C4 C7 1_555 1_555
C5 C6 1_555 1_555
C7 C8 1_555 1_555
C13 C14 1_555 1_555
C19 C20 1_555 1_555

#END
