
#######################################################################
#
#                 Cambridge Crystallographic Data Centre
#                                CCDC 
#
#######################################################################
#
# If this CIF has been generated from an entry in the Cambridge 
# Structural Database, then it will include bibliographic, chemical, 
# crystal, experimental, refinement or atomic coordinate data resulting 
# from the CCDC's data processing and validation procedures.
#
#######################################################################

data_XAXTOH
_chemical_formula_moiety         'C21 H25 N1 O3 S1'
_chemical_name_systematic        
4-Methyl-N-((2,2,5-trimethyl-4-phenyl-2,3-dihydrofuran-3-yl)methyl)benzenesulfonamide
_symmetry_cell_setting           monoclinic
_symmetry_space_group_name_H-M   'P 21/c'
_symmetry_Int_Tables_number      14
_space_group_name_Hall           '-P 2ybc'
loop_
_symmetry_equiv_pos_site_id
_symmetry_equiv_pos_as_xyz
1 x,y,z
2 -x,1/2+y,1/2-z
3 -x,-y,-z
4 x,1/2-y,1/2+z
_cell_length_a                   14.9258(12)
_cell_length_b                   6.2105(5)
_cell_length_c                   21.8000(18)
_cell_angle_alpha                90
_cell_angle_beta                 104.544(2)
_cell_angle_gamma                90
_cell_volume                     1956.03
_exptl_crystal_colour            colorless
_exptl_crystal_description       prismatic
_chemical_melting_point          '123-125 deg.C'
_cell_formula_units_Z            4
loop_
_atom_site_label
_atom_site_type_symbol
_atom_site_fract_x
_atom_site_fract_y
_atom_site_fract_z
S1 S 0.48754(3) 0.74112(8) 0.42159(2)
N1 N 0.41315(11) 0.7329(3) 0.46297(8)
O1 O 0.12692(10) 0.6894(3) 0.49167(7)
O2 O 0.50582(9) 0.5303(2) 0.40255(6)
O3 O 0.56311(9) 0.8655(3) 0.45810(7)
C1 C 0.32526(12) 0.6199(3) 0.44043(9)
H1 H 0.3226 0.5025 0.4693
H2 H 0.3229 0.5579 0.3992
C2 C 0.24109(12) 0.7630(3) 0.43496(8)
H3 H 0.2509 0.8984 0.4145
C3 C 0.21097(14) 0.8156(4) 0.49670(10)
C4 C 0.09662(13) 0.6196(4) 0.43049(10)
C5 C 0.15524(12) 0.6545(3) 0.39504(9)
C6 C 0.14284(11) 0.6036(3) 0.32777(9)
C7 C 0.17045(14) 0.7484(4) 0.28744(9)
H4 H 0.2006 0.8745 0.3040
C8 C 0.15399(16) 0.7087(5) 0.22342(11)
H5 H 0.1730 0.8078 0.1973
C9 C 0.10974(17) 0.5238(6) 0.19813(12)
H6 H 0.0969 0.4990 0.1547
C10 C 0.08453(17) 0.3752(5) 0.23752(13)
H7 H 0.0554 0.2483 0.2207
C11 C 0.10210(15) 0.4129(4) 0.30184(11)
H8 H 0.0864 0.3091 0.3281
C12 C 0.00229(14) 0.5244(5) 0.41615(11)
H9 H -0.0186 0.4968 0.3715
H10 H -0.0394 0.6230 0.4287
H11 H 0.0039 0.3917 0.4390
C13 C 0.1850(2) 1.0503(5) 0.49787(15)
H12 H 0.1379 1.0843 0.4602
H13 H 0.2386 1.1380 0.4996
H14 H 0.1620 1.0780 0.5345
C14 C 0.27661(17) 0.7500(5) 0.55859(10)
H15 H 0.2482 0.7764 0.5928
H16 H 0.3326 0.8325 0.5651
H17 H 0.2908 0.5996 0.5573
C15 C 0.43571(12) 0.8830(3) 0.35160(9)
C16 C 0.43181(13) 0.7920(3) 0.29303(9)
H18 H 0.4549 0.6541 0.2904
C17 C 0.39365(14) 0.9062(4) 0.23867(10)
H19 H 0.3921 0.8451 0.1995
C18 C 0.35749(14) 1.1101(3) 0.24125(10)
C19 C 0.36113(16) 1.1971(3) 0.30020(11)
H20 H 0.3365 1.3334 0.3027
C20 C 0.40024(15) 1.0874(3) 0.35528(10)
H21 H 0.4028 1.1497 0.3945
C21 C 0.31621(19) 1.2344(4) 0.18170(12)
H22 H 0.3503 1.2046 0.1508
H23 H 0.3191 1.3857 0.1910
H24 H 0.2528 1.1922 0.1653
H25 H 0.4222(15) 0.822(3) 0.4896(9)
loop_
_geom_bond_atom_site_label_1
_geom_bond_atom_site_label_2
_geom_bond_site_symmetry_1
_geom_bond_site_symmetry_2
S1 N1 1_555 1_555
N1 C1 1_555 1_555
O1 C3 1_555 1_555
O2 S1 1_555 1_555
O3 S1 1_555 1_555
C1 H1 1_555 1_555
H2 C1 1_555 1_555
C2 C1 1_555 1_555
H3 C2 1_555 1_555
C3 C2 1_555 1_555
C4 O1 1_555 1_555
C5 C2 1_555 1_555
C6 C5 1_555 1_555
C7 C6 1_555 1_555
H4 C7 1_555 1_555
C8 C7 1_555 1_555
H5 C8 1_555 1_555
C9 C8 1_555 1_555
H6 C9 1_555 1_555
C10 C9 1_555 1_555
H7 C10 1_555 1_555
C11 C6 1_555 1_555
H8 C11 1_555 1_555
C12 C4 1_555 1_555
H9 C12 1_555 1_555
H10 C12 1_555 1_555
H11 C12 1_555 1_555
C13 C3 1_555 1_555
H12 C13 1_555 1_555
H13 C13 1_555 1_555
H14 C13 1_555 1_555
C14 C3 1_555 1_555
H15 C14 1_555 1_555
H16 C14 1_555 1_555
H17 C14 1_555 1_555
C15 S1 1_555 1_555
C16 C15 1_555 1_555
H18 C16 1_555 1_555
C17 C16 1_555 1_555
H19 C17 1_555 1_555
C18 C17 1_555 1_555
C19 C18 1_555 1_555
H20 C19 1_555 1_555
C20 C15 1_555 1_555
H21 C20 1_555 1_555
C21 C18 1_555 1_555
H22 C21 1_555 1_555
H23 C21 1_555 1_555
H24 C21 1_555 1_555
H25 N1 1_555 1_555
C4 C5 1_555 1_555
C10 C11 1_555 1_555
C19 C20 1_555 1_555

#END
