
#######################################################################
#
#                 Cambridge Crystallographic Data Centre
#                                CCDC 
#
#######################################################################
#
# If this CIF has been generated from an entry in the Cambridge 
# Structural Database, then it will include bibliographic, chemical, 
# crystal, experimental, refinement or atomic coordinate data resulting 
# from the CCDC's data processing and validation procedures.
#
#######################################################################

data_XAXVOJ
_chemical_formula_moiety         'C44 H30 Cl2 N2 O6'
_chemical_name_systematic        
2,17-Dibutyl-20,21-dichloro-5,14-dioxa-2,17-diazadibenzo[cd,lm]dibenzo[6,7:8,9]cyclodeca[1,2,3,4-ghi]perylene-1,3,16,18(2H,17H)-tetrone
_symmetry_cell_setting           triclinic
_symmetry_space_group_name_H-M   'P -1'
_symmetry_Int_Tables_number      2
_space_group_name_Hall           '-P 1'
loop_
_symmetry_equiv_pos_site_id
_symmetry_equiv_pos_as_xyz
1 x,y,z
2 -x,-y,-z
_cell_length_a                   10.8770(12)
_cell_length_b                   12.4536(13)
_cell_length_c                   14.3313(15)
_cell_angle_alpha                81.992(5)
_cell_angle_beta                 70.009(5)
_cell_angle_gamma                68.587(4)
_cell_volume                     1698.16
_exptl_crystal_colour            orange
_exptl_crystal_description       plate
_cell_formula_units_Z            2
loop_
_atom_site_label
_atom_site_type_symbol
_atom_site_fract_x
_atom_site_fract_y
_atom_site_fract_z
Cl1 Cl 1.19549(4) 0.34014(3) 0.32691(3)
Cl2 Cl 1.27594(3) 0.07881(3) 0.36220(3)
O1 O 1.22399(13) 0.53837(12) 0.61555(9)
O2 O 0.93495(12) 0.45330(10) 0.90739(8)
O3 O 0.50320(11) 0.10977(10) 0.43836(9)
O4 O 0.95139(12) -0.07789(10) 0.25897(9)
O5 O 0.69621(11) 0.22253(9) 0.80508(8)
O6 O 0.53204(11) 0.31674(9) 0.70015(8)
C1 C 1.03536(14) 0.27955(13) 0.50412(10)
C2 C 0.95823(14) 0.30848(13) 0.60587(10)
C3 C 0.83573(14) 0.28003(13) 0.65448(11)
C4 C 0.77321(14) 0.24712(13) 0.59267(10)
C5 C 0.86422(14) 0.19516(12) 0.49997(10)
C6 C 1.00400(14) 0.19604(13) 0.46150(10)
C7 C 1.09814(14) 0.11346(13) 0.39065(11)
C8 C 1.05522(15) 0.04664(13) 0.34548(11)
H1 H 1.1220 -0.0089 0.2975
C9 C 0.91600(15) 0.06191(13) 0.37091(11)
C10 C 0.81851(14) 0.13607(12) 0.44870(10)
C11 C 0.67617(15) 0.14894(13) 0.47842(11)
C12 C 0.58423(15) 0.21538(13) 0.55846(11)
H2 H 0.4873 0.2300 0.5746
C13 C 0.63227(15) 0.26171(13) 0.61649(10)
C14 C 0.78580(14) 0.28340(13) 0.75779(11)
C15 C 0.83441(15) 0.33520(13) 0.81190(11)
H3 H 0.7968 0.3384 0.8822
C16 C 0.93725(15) 0.38149(13) 0.76219(11)
C17 C 1.00173(14) 0.36757(13) 0.65882(11)
C18 C 1.10540(15) 0.41581(13) 0.60685(11)
C19 C 1.16308(15) 0.40512(14) 0.50537(11)
H4 H 1.2264 0.4438 0.4694
C20 C 1.12858(15) 0.33732(13) 0.45505(10)
C21 C 1.14430(16) 0.48691(14) 0.65947(12)
N1 N 1.08449(13) 0.49161(12) 0.76264(10)
C22 C 0.98318(15) 0.44331(13) 0.81773(11)
C23 C 0.62616(15) 0.09007(13) 0.42394(11)
N2 N 0.72833(13) 0.00825(11) 0.35497(10)
C24 C 0.87019(16) -0.00815(13) 0.32304(12)
C25 C 0.68343(17) -0.06540(14) 0.31112(12)
H5 H 0.5939 -0.0705 0.3571
H6 H 0.7532 -0.1442 0.3032
C26 C 0.66572(18) -0.01991(14) 0.21100(13)
H7 H 0.7542 -0.0124 0.1655
H8 H 0.5934 0.0577 0.2191
C27 C 0.62395(18) -0.09970(15) 0.16507(13)
H9 H 0.5319 -0.1021 0.2083
H10 H 0.6145 -0.0672 0.0998
C28 C 0.72778(19) -0.22216(16) 0.15103(14)
H11 H 0.6954 -0.2688 0.1215
H12 H 0.7361 -0.2557 0.2156
H13 H 0.8188 -0.2208 0.1070
C29 C 1.12524(16) 0.55796(15) 0.81760(12)
H14 H 1.2206 0.5576 0.7801
H15 H 1.1267 0.5198 0.8828
C30 C 1.02684(18) 0.68201(15) 0.83402(13)
H16 H 0.9313 0.6824 0.8707
H17 H 1.0263 0.7205 0.7688
C31 C 1.0677(2) 0.74968(17) 0.89173(15)
H18 H 1.1592 0.7561 0.8517
H19 H 1.0780 0.7067 0.9537
C32 C 0.9618(3) 0.87044(18) 0.91797(15)
H20 H 0.9932 0.9099 0.9551
H21 H 0.8714 0.8648 0.9588
H22 H 0.9528 0.9143 0.8569
C33 C 0.48818(15) 0.36958(14) 0.89679(11)
C34 C 0.58858(16) 0.25979(14) 0.89032(11)
C35 C 0.57878(17) 0.17859(15) 0.96708(12)
H23 H 0.6487 0.1045 0.9608
C36 C 0.46530(18) 0.20726(17) 1.05321(12)
H24 H 0.4565 0.1522 1.1058
C37 C 0.36537(17) 0.31603(17) 1.06219(12)
H25 H 0.2884 0.3358 1.1213
C38 C 0.37702(16) 0.39651(15) 0.98526(12)
H26 H 0.3082 0.4713 0.9928
C39 C 0.49389(15) 0.45564(14) 0.81429(11)
C40 C 0.52143(14) 0.42622(13) 0.71517(11)
C41 C 0.52849(15) 0.50803(14) 0.63961(12)
H27 H 0.5506 0.4869 0.5731
C42 C 0.50344(16) 0.62082(14) 0.66057(13)
H28 H 0.5086 0.6767 0.6083
C43 C 0.47090(17) 0.65259(15) 0.75752(13)
H29 H 0.4518 0.7304 0.7717
C44 C 0.46633(16) 0.57095(14) 0.83361(12)
H30 H 0.4442 0.5933 0.8997
loop_
_geom_bond_atom_site_label_1
_geom_bond_atom_site_label_2
_geom_bond_site_symmetry_1
_geom_bond_site_symmetry_2
Cl1 C20 1_555 1_555
Cl2 C7 1_555 1_555
O1 C21 1_555 1_555
O2 C22 1_555 1_555
O3 C23 1_555 1_555
O4 C24 1_555 1_555
O5 C14 1_555 1_555
O6 C13 1_555 1_555
C1 C2 1_555 1_555
C2 C3 1_555 1_555
C3 C4 1_555 1_555
C4 C5 1_555 1_555
C5 C6 1_555 1_555
C6 C1 1_555 1_555
C7 C6 1_555 1_555
C8 C7 1_555 1_555
H1 C8 1_555 1_555
C9 C8 1_555 1_555
C10 C5 1_555 1_555
C11 C10 1_555 1_555
C12 C11 1_555 1_555
H2 C12 1_555 1_555
C13 C4 1_555 1_555
C14 C3 1_555 1_555
C15 C14 1_555 1_555
H3 C15 1_555 1_555
C16 C15 1_555 1_555
C17 C2 1_555 1_555
C18 C17 1_555 1_555
C19 C18 1_555 1_555
H4 C19 1_555 1_555
C20 C1 1_555 1_555
C21 C18 1_555 1_555
N1 C21 1_555 1_555
C22 C16 1_555 1_555
C23 C11 1_555 1_555
N2 C23 1_555 1_555
C24 C9 1_555 1_555
C25 N2 1_555 1_555
H5 C25 1_555 1_555
H6 C25 1_555 1_555
C26 C25 1_555 1_555
H7 C26 1_555 1_555
H8 C26 1_555 1_555
C27 C26 1_555 1_555
H9 C27 1_555 1_555
H10 C27 1_555 1_555
C28 C27 1_555 1_555
H11 C28 1_555 1_555
H12 C28 1_555 1_555
H13 C28 1_555 1_555
C29 N1 1_555 1_555
H14 C29 1_555 1_555
H15 C29 1_555 1_555
C30 C29 1_555 1_555
H16 C30 1_555 1_555
H17 C30 1_555 1_555
C31 C30 1_555 1_555
H18 C31 1_555 1_555
H19 C31 1_555 1_555
C32 C31 1_555 1_555
H20 C32 1_555 1_555
H21 C32 1_555 1_555
H22 C32 1_555 1_555
C33 C34 1_555 1_555
C34 O5 1_555 1_555
C35 C34 1_555 1_555
H23 C35 1_555 1_555
C36 C35 1_555 1_555
H24 C36 1_555 1_555
C37 C36 1_555 1_555
H25 C37 1_555 1_555
C38 C33 1_555 1_555
H26 C38 1_555 1_555
C39 C33 1_555 1_555
C40 O6 1_555 1_555
C41 C40 1_555 1_555
H27 C41 1_555 1_555
C42 C41 1_555 1_555
H28 C42 1_555 1_555
C43 C42 1_555 1_555
H29 C43 1_555 1_555
C44 C39 1_555 1_555
H30 C44 1_555 1_555
C9 C10 1_555 1_555
C12 C13 1_555 1_555
C16 C17 1_555 1_555
C19 C20 1_555 1_555
N1 C22 1_555 1_555
N2 C24 1_555 1_555
C37 C38 1_555 1_555
C39 C40 1_555 1_555
C43 C44 1_555 1_555

#END
