
#######################################################################
#
#                 Cambridge Crystallographic Data Centre
#                                CCDC 
#
#######################################################################
#
# If this CIF has been generated from an entry in the Cambridge 
# Structural Database, then it will include bibliographic, chemical, 
# crystal, experimental, refinement or atomic coordinate data resulting 
# from the CCDC's data processing and validation procedures.
#
#######################################################################

data_XAXVIE
_chemical_formula_moiety         'C22 H19 N3 O2'
_chemical_name_systematic        
3a-methyl-7-(pyrimidin-2-yl)-5,5a,6,7,11c,11d-hexahydro[1]benzofuro[3,4-bc]carbazol-1(3aH)-one
_symmetry_cell_setting           orthorhombic
_symmetry_space_group_name_H-M   'P 21 21 21'
_symmetry_Int_Tables_number      19
_space_group_name_Hall           'P 2ac 2ab'
loop_
_symmetry_equiv_pos_site_id
_symmetry_equiv_pos_as_xyz
1 x,y,z
2 1/2-x,-y,1/2+z
3 1/2+x,1/2-y,-z
4 -x,1/2+y,1/2-z
_cell_length_a                   9.5040(8)
_cell_length_b                   11.7466(7)
_cell_length_c                   16.2090(10)
_cell_angle_alpha                90
_cell_angle_beta                 90
_cell_angle_gamma                90
_cell_volume                     1809.57
_exptl_crystal_colour            white
_exptl_crystal_description       block
_cell_formula_units_Z            4
loop_
_atom_site_label
_atom_site_type_symbol
_atom_site_fract_x
_atom_site_fract_y
_atom_site_fract_z
N1 N 0.4268(3) 0.9532(2) 1.03893(16)
C1 C 0.4013(4) 0.8618(3) 0.98458(19)
O1 O 0.4494(3) 0.5246(2) 1.06806(18)
N2 N 0.4448(3) 1.1478(2) 1.0604(2)
C2 C 0.3646(4) 0.7983(3) 1.1140(2)
C3 C 0.4027(3) 0.9133(3) 1.1193(2)
C4 C 0.3185(4) 0.6592(3) 0.9888(2)
H1 H 0.2361 0.6301 1.0185
N3 N 0.5771(4) 1.0548(2) 0.9554(2)
C5 C 0.3618(4) 0.7702(3) 1.0279(2)
C6 C 0.4857(4) 1.0582(3) 1.0163(2)
O2 O 0.3824(3) 0.6866(3) 0.76235(16)
C7 C 0.4404(4) 0.5782(3) 1.0037(2)
C8 C 0.3346(4) 0.7375(3) 1.1855(2)
H2 H 0.3090 0.6611 1.1828
C9 C 0.3940(4) 0.8707(3) 0.89277(19)
H3 H 0.4817 0.8451 0.8684
H4 H 0.3785 0.9492 0.8766
C10 C 0.2786(4) 0.6727(3) 0.8970(2)
H5 H 0.1839 0.6408 0.8907
C11 C 0.4138(4) 0.9687(3) 1.1950(2)
H6 H 0.4402 1.0448 1.1986
C12 C 0.5484(4) 0.5733(3) 0.9413(3)
H7 H 0.6403 0.5564 0.9568
C13 C 0.2810(5) 0.7740(4) 0.7710(3)
H8 H 0.1905 0.7497 0.7497
H9 H 0.3103 0.8420 0.7418
C14 C 0.2724(4) 0.7963(3) 0.8630(2)
H10 H 0.1821 0.8316 0.8769
C15 C 0.5201(4) 0.5921(3) 0.8626(3)
H11 H 0.5935 0.5936 0.8247
C16 C 0.5042(6) 1.2467(3) 1.0375(3)
H12 H 0.4804 1.3127 1.0659
C17 C 0.3436(5) 0.7927(4) 1.2604(3)
H13 H 0.3224 0.7535 1.3087
C18 C 0.5980(6) 1.2536(3) 0.9742(3)
H14 H 0.6379 1.3228 0.9591
C19 C 0.3118(5) 0.4979(4) 0.8053(3)
H15 H 0.2236 0.5110 0.7781
H16 H 0.2973 0.4498 0.8524
H17 H 0.3757 0.4616 0.7678
C20 C 0.3735(4) 0.6109(3) 0.8332(2)
C21 C 0.6313(5) 1.1560(3) 0.9337(3)
H18 H 0.6937 1.1594 0.8896
C22 C 0.3837(5) 0.9051(4) 1.2646(2)
H19 H 0.3907 0.9396 1.3161
loop_
_geom_bond_atom_site_label_1
_geom_bond_atom_site_label_2
_geom_bond_site_symmetry_1
_geom_bond_site_symmetry_2
N1 C1 1_555 1_555
C1 C5 1_555 1_555
O1 C7 1_555 1_555
N2 C6 1_555 1_555
C2 C3 1_555 1_555
C3 N1 1_555 1_555
C4 H1 1_555 1_555
N3 C6 1_555 1_555
C5 C2 1_555 1_555
C6 N1 1_555 1_555
O2 C13 1_555 1_555
C7 C4 1_555 1_555
C8 C2 1_555 1_555
H2 C8 1_555 1_555
C9 C1 1_555 1_555
H3 C9 1_555 1_555
H4 C9 1_555 1_555
C10 C4 1_555 1_555
H5 C10 1_555 1_555
C11 C3 1_555 1_555
H6 C11 1_555 1_555
C12 C7 1_555 1_555
H7 C12 1_555 1_555
C13 H8 1_555 1_555
H9 C13 1_555 1_555
C14 C9 1_555 1_555
H10 C14 1_555 1_555
C15 C12 1_555 1_555
H11 C15 1_555 1_555
C16 N2 1_555 1_555
H12 C16 1_555 1_555
C17 C8 1_555 1_555
H13 C17 1_555 1_555
C18 C16 1_555 1_555
H14 C18 1_555 1_555
C19 H15 1_555 1_555
H16 C19 1_555 1_555
H17 C19 1_555 1_555
C20 O2 1_555 1_555
C21 N3 1_555 1_555
H18 C21 1_555 1_555
C22 C11 1_555 1_555
H19 C22 1_555 1_555
C4 C5 1_555 1_555
C10 C14 1_555 1_555
C10 C20 1_555 1_555
C13 C14 1_555 1_555
C15 C20 1_555 1_555
C17 C22 1_555 1_555
C18 C21 1_555 1_555
C19 C20 1_555 1_555

#END
