
#######################################################################
#
#                 Cambridge Crystallographic Data Centre
#                                CCDC 
#
#######################################################################
#
# If this CIF has been generated from an entry in the Cambridge 
# Structural Database, then it will include bibliographic, chemical, 
# crystal, experimental, refinement or atomic coordinate data resulting 
# from the CCDC's data processing and validation procedures.
#
#######################################################################

data_XAXYOM
_chemical_name_common            
'1,1,4,4-tetrakis(Dimethylamino)but-2-yne-1,4-diylium bis(tetrafluoroborate)'
_chemical_formula_moiety         'C12 H24 N4 2+,2(B1 F4 1-)'
_chemical_name_systematic        
"N,N,N',N',N'',N'',N''',N'''-Octamethylacetylenebis(carboxamidinium) bis(tetrafluoroborate)"
_symmetry_cell_setting           tetragonal
_symmetry_space_group_name_H-M   'I 41 c d'
_symmetry_Int_Tables_number      110
_space_group_name_Hall           'I 4bw -2c'
loop_
_symmetry_equiv_pos_site_id
_symmetry_equiv_pos_as_xyz
1 x,y,z
2 -x,y,1/2+z
3 1/2-x,1/2-y,1/2+z
4 1/2+x,1/2-y,z
5 -y,1/2-x,3/4+z
6 1/2+y,-x,3/4+z
7 -y,1/2+x,1/4+z
8 1/2+y,x,1/4+z
9 1/2+x,1/2+y,1/2+z
10 1/2-x,1/2+y,z
11 -x,-y,z
12 x,-y,1/2+z
13 1/2-y,-x,1/4+z
14 y,1/2-x,1/4+z
15 1/2-y,x,3/4+z
16 y,1/2+x,3/4+z
_cell_length_a                   12.3001(3)
_cell_length_b                   12.3001(3)
_cell_length_c                   25.1324(9)
_cell_angle_alpha                90
_cell_angle_beta                 90
_cell_angle_gamma                90
_cell_volume                     3802.34
_exptl_crystal_colour            colorless
_exptl_crystal_description       block
_cell_formula_units_Z            8
loop_
_atom_site_label
_atom_site_type_symbol
_atom_site_fract_x
_atom_site_fract_y
_atom_site_fract_z
B1 B 0.2482(3) 0.0581(3) 0.3791(2)
F1 F 0.1601(2) 0.0805(2) 0.34719(9)
F2 F 0.2801(2) 0.1530(2) 0.40259(9)
F3 F 0.2205(2) -0.0125(2) 0.41848(9)
F4 F 0.3314(2) 0.0181(2) 0.35003(9)
N1 N 0.4972(2) 0.2258(2) 0.45811(9)
N2 N 0.3638(2) 0.1793(2) 0.52160(9)
C1 C 0.4457(3) 0.1563(2) 0.48963(12)
C2 C 0.4829(2) 0.0449(2) 0.48767(12)
C3 C 0.5611(3) 0.1863(3) 0.41302(13)
H1 H 0.6294 0.1586 0.4256
H2 H 0.5738 0.2450 0.3886
H3 H 0.5219 0.1294 0.3953
C4 C 0.5036(3) 0.3439(2) 0.46761(14)
H4 H 0.4598 0.3813 0.4419
H5 H 0.5778 0.3673 0.4644
H6 H 0.4774 0.3599 0.5027
C5 C 0.2960(3) 0.2775(3) 0.51702(14)
H7 H 0.3200 0.3308 0.5424
H8 H 0.2215 0.2592 0.5240
H9 H 0.3023 0.3067 0.4817
C6 C 0.3264(3) 0.0995(3) 0.56103(15)
H10 H 0.2583 0.0691 0.5497
H11 H 0.3170 0.1347 0.5948
H12 H 0.3794 0.0426 0.5644
N1J N 0.5028(2) -0.2258(2) 0.45811(9)
N2J N 0.6362(2) -0.1793(2) 0.52160(9)
C1J C 0.5543(3) -0.1563(2) 0.48963(12)
C2J C 0.5171(2) -0.0449(2) 0.48767(12)
C3J C 0.4389(3) -0.1863(3) 0.41302(13)
H1J H 0.3706 -0.1586 0.4256
H2J H 0.4262 -0.2450 0.3886
H3J H 0.4781 -0.1294 0.3953
C4J C 0.4964(3) -0.3439(2) 0.46761(14)
H4J H 0.5402 -0.3813 0.4419
H5J H 0.4222 -0.3673 0.4644
H6J H 0.5226 -0.3599 0.5027
C5J C 0.7040(3) -0.2775(3) 0.51702(14)
H7J H 0.6800 -0.3308 0.5424
H8J H 0.7785 -0.2592 0.5240
H9J H 0.6977 -0.3067 0.4817
C6J C 0.6736(3) -0.0995(3) 0.56103(15)
H10J H 0.7417 -0.0691 0.5497
H11J H 0.6830 -0.1347 0.5948
H12J H 0.6206 -0.0426 0.5644
loop_
_geom_bond_atom_site_label_1
_geom_bond_atom_site_label_2
_geom_bond_site_symmetry_1
_geom_bond_site_symmetry_2
B1 F1 1_555 1_555
F2 B1 1_555 1_555
F3 B1 1_555 1_555
F4 B1 1_555 1_555
N1 C1 1_555 1_555
N2 C1 1_555 1_555
C1 C2 1_555 1_555
C2 C2J 1_555 1_555
C3 N1 1_555 1_555
H1 C3 1_555 1_555
H2 C3 1_555 1_555
H3 C3 1_555 1_555
C4 N1 1_555 1_555
H4 C4 1_555 1_555
H5 C4 1_555 1_555
H6 C4 1_555 1_555
C5 N2 1_555 1_555
H7 C5 1_555 1_555
H8 C5 1_555 1_555
H9 C5 1_555 1_555
C6 N2 1_555 1_555
H10 C6 1_555 1_555
H11 C6 1_555 1_555
H12 C6 1_555 1_555
N1J C1J 1_555 1_555
N2J C1J 1_555 1_555
C1J C2J 1_555 1_555
C3J N1J 1_555 1_555
H1J C3J 1_555 1_555
H2J C3J 1_555 1_555
H3J C3J 1_555 1_555
C4J N1J 1_555 1_555
H4J C4J 1_555 1_555
H5J C4J 1_555 1_555
H6J C4J 1_555 1_555
C5J N2J 1_555 1_555
H7J C5J 1_555 1_555
H8J C5J 1_555 1_555
H9J C5J 1_555 1_555
C6J N2J 1_555 1_555
H10J C6J 1_555 1_555
H11J C6J 1_555 1_555
H12J C6J 1_555 1_555

#END
