
#######################################################################
#
#                 Cambridge Crystallographic Data Centre
#                                CCDC 
#
#######################################################################
#
# If this CIF has been generated from an entry in the Cambridge 
# Structural Database, then it will include bibliographic, chemical, 
# crystal, experimental, refinement or atomic coordinate data resulting 
# from the CCDC's data processing and validation procedures.
#
#######################################################################

data_XAXYUS
_chemical_name_common            
"Bicyclo[2.2.1]hept-2,5-diene-2,3-diylbis(N,N,N',N'-tetramethylmethyliumdiamine) bis(tetrafluoroborate)"
_chemical_formula_moiety         'C17 H30 N4 2+,2(B1 F4 1-)'
_chemical_name_systematic        
"N,N,N',N',N'',N'',N''',N'''-Octamethylbicyclo[2.2.1]hepta-2,5-diene-2,3-bis(carboxamidinium) bis(tetrafluoroborate)"
_symmetry_cell_setting           orthorhombic
_symmetry_space_group_name_H-M   'P n a 21'
_symmetry_Int_Tables_number      33
_space_group_name_Hall           'P 2c -2n'
loop_
_symmetry_equiv_pos_site_id
_symmetry_equiv_pos_as_xyz
1 x,y,z
2 -x,-y,1/2+z
3 1/2-x,1/2+y,1/2+z
4 1/2+x,1/2-y,z
_cell_length_a                   18.8469(8)
_cell_length_b                   17.4592(6)
_cell_length_c                   13.2365(3)
_cell_angle_alpha                90
_cell_angle_beta                 90
_cell_angle_gamma                90
_cell_volume                     4355.49
_exptl_crystal_colour            colorless
_exptl_crystal_description       block
_cell_formula_units_Z            8
loop_
_atom_site_label
_atom_site_type_symbol
_atom_site_fract_x
_atom_site_fract_y
_atom_site_fract_z
N1 N 0.47644(17) 0.58551(18) 0.4696(3)
N2 N 0.53945(16) 0.63017(19) 0.6080(2)
N3 N 0.74421(16) 0.66836(19) 0.5519(3)
N4 N 0.65300(17) 0.71272(18) 0.4456(3)
C1 C 0.40570(19) 0.5948(3) 0.5126(4)
H1 H 0.4079 0.5871 0.5859
H2 H 0.3735 0.5570 0.4827
H3 H 0.3882 0.6465 0.4982
C2 C 0.4768(2) 0.5622(3) 0.3619(3)
H4 H 0.5257 0.5617 0.3368
H5 H 0.4487 0.5987 0.3224
H6 H 0.4562 0.5109 0.3554
C3 C 0.5871(2) 0.6104(2) 0.6921(3)
H7 H 0.6094 0.5607 0.6788
H8 H 0.5597 0.6075 0.7549
H9 H 0.6238 0.6498 0.6986
C4 C 0.4957(2) 0.6982(2) 0.6277(3)
H10 H 0.4747 0.7162 0.5643
H11 H 0.5254 0.7388 0.6566
H12 H 0.4579 0.6851 0.6755
C5 C 0.53557(19) 0.5892(2) 0.5222(3)
C6 C 0.5994(2) 0.5478(2) 0.4868(3)
C7 C 0.66517(19) 0.5761(2) 0.4763(3)
C8 C 0.68910(19) 0.6562(2) 0.4907(3)
C9 C 0.7888(2) 0.7382(2) 0.5425(4)
H13 H 0.7821 0.7608 0.4754
H14 H 0.8388 0.7245 0.5516
H15 H 0.7748 0.7754 0.5944
C10 C 0.7702(2) 0.6123(2) 0.6253(3)
H16 H 0.7357 0.5706 0.6319
H17 H 0.7767 0.6372 0.6910
H18 H 0.8157 0.5915 0.6022
C11 C 0.6134(2) 0.7022(2) 0.3521(3)
H19 H 0.6308 0.6564 0.3170
H20 H 0.6198 0.7471 0.3087
H21 H 0.5629 0.6959 0.3677
C12 C 0.6472(2) 0.7881(2) 0.4900(3)
H22 H 0.6593 0.7854 0.5619
H23 H 0.5984 0.8068 0.4826
H24 H 0.6798 0.8232 0.4557
C13 C 0.7124(2) 0.5090(2) 0.4404(3)
H25 H 0.7589 0.5232 0.4092
C14 C 0.6571(2) 0.4681(3) 0.3693(4)
H26 H 0.6412 0.5005 0.3122
H27 H 0.6733 0.4175 0.3448
C15 C 0.6015(2) 0.4629(2) 0.4573(3)
H28 H 0.5551 0.4375 0.4418
C16 C 0.7151(2) 0.4519(2) 0.5278(3)
H29 H 0.7555 0.4375 0.5664
C17 C 0.6479(2) 0.4259(3) 0.5384(4)
H30 H 0.6321 0.3906 0.5881
N5 N 0.09070(18) 0.47130(18) 0.6209(3)
N6 N -0.02108(16) 0.41502(18) 0.6279(3)
N7 N 0.24316(17) 0.32145(19) 0.5264(3)
N8 N 0.16199(17) 0.29603(19) 0.6531(3)
C18 C 0.0947(2) 0.4962(3) 0.7262(3)
H31 H 0.0677 0.4608 0.7689
H32 H 0.0747 0.5479 0.7324
H33 H 0.1444 0.4968 0.7481
C19 C 0.1459(2) 0.5053(2) 0.5564(3)
H34 H 0.1345 0.4958 0.4853
H35 H 0.1919 0.4822 0.5725
H36 H 0.1481 0.5607 0.5685
C20 C -0.0561(2) 0.4743(2) 0.6865(3)
H37 H -0.0613 0.4571 0.7566
H38 H -0.1030 0.4847 0.6578
H39 H -0.0275 0.5212 0.6849
C21 C -0.0671(3) 0.3492(3) 0.6058(4)
H40 H -0.0380 0.3057 0.5842
H41 H -0.1003 0.3628 0.5517
H42 H -0.0937 0.3353 0.6666
C22 C 0.04194(19) 0.4224(2) 0.5852(3)
C23 C 0.05997(19) 0.3747(2) 0.4977(3)
C24 C 0.11884(19) 0.3308(2) 0.4858(3)
C25 C 0.17722(19) 0.3150(2) 0.5590(3)
C26 C 0.2998(2) 0.2703(3) 0.5660(4)
H43 H 0.3283 0.2981 0.6159
H44 H 0.3303 0.2536 0.5102
H45 H 0.2781 0.2254 0.5980
C27 C 0.2634(2) 0.3707(3) 0.4405(3)
H46 H 0.2934 0.3415 0.3938
H47 H 0.2897 0.4152 0.4654
H48 H 0.2206 0.3879 0.4052
C28 C 0.0965(2) 0.2550(3) 0.6828(4)
H49 H 0.0701 0.2402 0.6222
H50 H 0.0670 0.2887 0.7247
H51 H 0.1091 0.2091 0.7214
C29 C 0.2110(2) 0.3091(3) 0.7363(4)
H52 H 0.2411 0.3534 0.7208
H53 H 0.2407 0.2637 0.7458
H54 H 0.1841 0.3192 0.7982
C30 C 0.1134(2) 0.2927(3) 0.3815(3)
H55 H 0.1584 0.2725 0.3517
C31 C 0.0768(2) 0.3606(2) 0.3242(3)
H56 H 0.1060 0.4077 0.3229
H57 H 0.0613 0.3468 0.2551
C32 C 0.0161(2) 0.3647(3) 0.3991(3)
H58 H -0.0214 0.4038 0.3856
C33 C -0.0074(2) 0.2785(3) 0.3958(3)
H59 H -0.0547 0.2597 0.3994
C34 C 0.0508(2) 0.2372(3) 0.3871(3)
H60 H 0.0533 0.1829 0.3847
B1 B 0.4404(2) 0.4078(3) 0.6103(3)
F1 F 0.37325(14) 0.42646(15) 0.6479(2)
F2 F 0.48968(15) 0.46294(16) 0.6387(2)
F3 F 0.45989(14) 0.33772(15) 0.6482(2)
F4 F 0.43607(13) 0.40479(17) 0.5051(2)
B2 B 0.9524(2) 0.6124(3) 0.4591(4)
F5 F 0.9753(2) 0.6687(2) 0.3951(3)
F6 F 0.88127(16) 0.5991(2) 0.4355(2)
F7 F 0.95710(18) 0.63765(16) 0.5579(2)
F8 F 0.9932(2) 0.5478(2) 0.4449(3)
B3 B 0.8121(3) 0.3262(3) 0.2778(4)
F9 F 0.77645(16) 0.37751(18) 0.2167(2)
F10 F 0.8268(2) 0.3576(3) 0.3710(3)
F11 F 0.7797(3) 0.2567(3) 0.2729(5)
F12 F 0.87895(18) 0.3180(2) 0.2325(3)
B4 B 0.7471(2) 0.4255(3) 0.8037(4)
F13 F 0.74744(19) 0.4192(3) 0.9107(3)
F14 F 0.6863(2) 0.4620(4) 0.7680(4)
F15 F 0.7899(3) 0.4891(4) 0.7946(4)
F16 F 0.7796(3) 0.3749(3) 0.7401(6)
loop_
_geom_bond_atom_site_label_1
_geom_bond_atom_site_label_2
_geom_bond_site_symmetry_1
_geom_bond_site_symmetry_2
N1 C1 1_555 1_555
N2 C3 1_555 1_555
N3 C8 1_555 1_555
N4 C8 1_555 1_555
C1 H1 1_555 1_555
H2 C1 1_555 1_555
H3 C1 1_555 1_555
C2 N1 1_555 1_555
H4 C2 1_555 1_555
H5 C2 1_555 1_555
H6 C2 1_555 1_555
C3 H7 1_555 1_555
H8 C3 1_555 1_555
H9 C3 1_555 1_555
C4 N2 1_555 1_555
H10 C4 1_555 1_555
H11 C4 1_555 1_555
H12 C4 1_555 1_555
C5 N1 1_555 1_555
C6 C5 1_555 1_555
C7 C6 1_555 1_555
C8 C7 1_555 1_555
C9 N3 1_555 1_555
H13 C9 1_555 1_555
H14 C9 1_555 1_555
H15 C9 1_555 1_555
C10 N3 1_555 1_555
H16 C10 1_555 1_555
H17 C10 1_555 1_555
H18 C10 1_555 1_555
C11 N4 1_555 1_555
H19 C11 1_555 1_555
H20 C11 1_555 1_555
H21 C11 1_555 1_555
C12 N4 1_555 1_555
H22 C12 1_555 1_555
H23 C12 1_555 1_555
H24 C12 1_555 1_555
C13 C7 1_555 1_555
H25 C13 1_555 1_555
C14 C13 1_555 1_555
H26 C14 1_555 1_555
H27 C14 1_555 1_555
C15 C6 1_555 1_555
H28 C15 1_555 1_555
C16 C13 1_555 1_555
H29 C16 1_555 1_555
C17 C15 1_555 1_555
H30 C17 1_555 1_555
N5 C18 1_555 1_555
N6 C20 1_555 1_555
N7 C25 1_555 1_555
N8 C25 1_555 1_555
C18 H31 1_555 1_555
H32 C18 1_555 1_555
H33 C18 1_555 1_555
C19 N5 1_555 1_555
H34 C19 1_555 1_555
H35 C19 1_555 1_555
H36 C19 1_555 1_555
C20 H37 1_555 1_555
H38 C20 1_555 1_555
H39 C20 1_555 1_555
C21 N6 1_555 1_555
H40 C21 1_555 1_555
H41 C21 1_555 1_555
H42 C21 1_555 1_555
C22 N5 1_555 1_555
C23 C22 1_555 1_555
C24 C23 1_555 1_555
C25 C24 1_555 1_555
C26 N7 1_555 1_555
H43 C26 1_555 1_555
H44 C26 1_555 1_555
H45 C26 1_555 1_555
C27 N7 1_555 1_555
H46 C27 1_555 1_555
H47 C27 1_555 1_555
H48 C27 1_555 1_555
C28 N8 1_555 1_555
H49 C28 1_555 1_555
H50 C28 1_555 1_555
H51 C28 1_555 1_555
C29 N8 1_555 1_555
H52 C29 1_555 1_555
H53 C29 1_555 1_555
H54 C29 1_555 1_555
C30 C24 1_555 1_555
H55 C30 1_555 1_555
C31 C30 1_555 1_555
H56 C31 1_555 1_555
H57 C31 1_555 1_555
C32 C23 1_555 1_555
H58 C32 1_555 1_555
C33 C32 1_555 1_555
H59 C33 1_555 1_555
C34 C30 1_555 1_555
H60 C34 1_555 1_555
B1 F1 1_555 1_555
F2 B1 1_555 1_555
F3 B1 1_555 1_555
F4 B1 1_555 1_555
B2 F5 1_555 1_555
F6 B2 1_555 1_555
F7 B2 1_555 1_555
F8 B2 1_555 1_555
B3 F9 1_555 1_555
F10 B3 1_555 1_555
F11 B3 1_555 1_555
F12 B3 1_555 1_555
B4 F13 1_555 1_555
F14 B4 1_555 1_555
F15 B4 1_555 1_555
F16 B4 1_555 1_555
N2 C5 1_555 1_555
C14 C15 1_555 1_555
C16 C17 1_555 1_555
N6 C22 1_555 1_555
C31 C32 1_555 1_555
C33 C34 1_555 1_555

#END
