
#######################################################################
#
#                 Cambridge Crystallographic Data Centre
#                                CCDC 
#
#######################################################################
#
# If this CIF has been generated from an entry in the Cambridge 
# Structural Database, then it will include bibliographic, chemical, 
# crystal, experimental, refinement or atomic coordinate data resulting 
# from the CCDC's data processing and validation procedures.
#
#######################################################################

data_XAYDAC
_chemical_formula_moiety         'C8 H10 O2'
_chemical_name_systematic        4-Ethynyl-4-hydroxycyclohexan-1-one
_symmetry_cell_setting           monoclinic
_symmetry_space_group_name_H-M   'P 21/c'
_symmetry_Int_Tables_number      14
_space_group_name_Hall           '-P 2ybc'
loop_
_symmetry_equiv_pos_site_id
_symmetry_equiv_pos_as_xyz
1 x,y,z
2 -x,1/2+y,1/2-z
3 -x,-y,-z
4 x,1/2-y,1/2+z
_cell_length_a                   6.5500(10)
_cell_length_b                   16.931(3)
_cell_length_c                   6.4930(10)
_cell_angle_alpha                90
_cell_angle_beta                 95.42(3)
_cell_angle_gamma                90
_cell_volume                     716.842
_exptl_crystal_colour            colorless
_exptl_crystal_description       plate
_cell_formula_units_Z            4
_exptl_crystal_recrystallization_method 'ethyl acetate'
loop_
_atom_site_label
_atom_site_type_symbol
_atom_site_fract_x
_atom_site_fract_y
_atom_site_fract_z
O1 O 0.4972(2) 0.38506(9) -0.5079(2)
O2 O 0.2961(2) 0.45098(9) 0.1289(2)
H1 H 0.360(5) 0.4335(18) 0.237(5)
C1 C 0.0925(3) 0.41199(14) -0.1794(3)
H2 H -0.013(3) 0.4514(13) -0.157(3)
H3 H 0.021(3) 0.3653(13) -0.246(3)
C2 C 0.2469(3) 0.44804(14) -0.3163(3)
H4 H 0.184(4) 0.4621(15) -0.460(4)
H5 H 0.304(4) 0.4972(15) -0.251(4)
C3 C 0.4263(3) 0.39445(12) -0.3407(3)
C4 C 0.5206(3) 0.35429(14) -0.1475(3)
H6 H 0.617(4) 0.3136(14) -0.187(3)
H7 H 0.598(3) 0.3968(13) -0.075(3)
C5 C 0.3612(3) 0.32087(13) -0.0117(3)
H8 H 0.433(4) 0.3040(14) 0.127(4)
H9 H 0.289(3) 0.2733(13) -0.077(3)
C6 C 0.1996(3) 0.38333(12) 0.0280(3)
C7 C 0.0450(3) 0.35136(13) 0.1602(3)
C8 C -0.0786(4) 0.33061(15) 0.2714(4)
H10 H -0.178(4) 0.3135(17) 0.364(4)
loop_
_geom_bond_atom_site_label_1
_geom_bond_atom_site_label_2
_geom_bond_site_symmetry_1
_geom_bond_site_symmetry_2
O1 C3 1_555 1_555
O2 H1 1_555 1_555
C1 H2 1_555 1_555
H3 C1 1_555 1_555
C2 C1 1_555 1_555
H4 C2 1_555 1_555
H5 C2 1_555 1_555
C3 C2 1_555 1_555
C4 C3 1_555 1_555
H6 C4 1_555 1_555
H7 C4 1_555 1_555
C5 C4 1_555 1_555
H8 C5 1_555 1_555
H9 C5 1_555 1_555
C6 O2 1_555 1_555
C7 C6 1_555 1_555
C8 C7 1_555 1_555
H10 C8 1_555 1_555
C1 C6 1_555 1_555
C5 C6 1_555 1_555

#END
