
#######################################################################
#
#                 Cambridge Crystallographic Data Centre
#                                CCDC 
#
#######################################################################
#
# If this CIF has been generated from an entry in the Cambridge 
# Structural Database, then it will include bibliographic, chemical, 
# crystal, experimental, refinement or atomic coordinate data resulting 
# from the CCDC's data processing and validation procedures.
#
#######################################################################

data_XAYFIO
_chemical_formula_moiety         'C18 H14 B1 F2 N3'
_chemical_name_systematic        
5,5-Difluoro-12-methyl-7-(1H-pyrrol-2-yl)-5H-6\l^5^,5\l^5^-pyrrolo[1',2':3,4][1,3,2]diazaborinino[6,1-a]isoindole
_symmetry_cell_setting           monoclinic
_symmetry_space_group_name_H-M   'C 2/c'
_symmetry_Int_Tables_number      15
_space_group_name_Hall           '-C 2yn'
loop_
_symmetry_equiv_pos_site_id
_symmetry_equiv_pos_as_xyz
1 x,y,z
2 -x,y,1/2-z
3 1/2+x,1/2+y,z
4 1/2-x,1/2+y,1/2-z
5 -x,-y,-z
6 x,-y,1/2+z
7 1/2-x,1/2-y,-z
8 1/2+x,1/2-y,1/2+z
_cell_length_a                   27.768(2)
_cell_length_b                   7.4158(6)
_cell_length_c                   16.7367(13)
_cell_angle_alpha                90
_cell_angle_beta                 119.696(1)
_cell_angle_gamma                90
_cell_volume                     2993.82
_exptl_crystal_colour            purple
_cell_formula_units_Z            8
_exptl_crystal_recrystallization_method dichloromethane
loop_
_atom_site_label
_atom_site_type_symbol
_atom_site_fract_x
_atom_site_fract_y
_atom_site_fract_z
B1 B 0.14091(7) 0.0673(2) 0.04802(12)
C1 C 0.20302(6) 0.4329(2) 0.12389(10)
C2 C 0.24658(7) 0.5492(2) 0.17498(12)
H1 H 0.2569 0.5931 0.2333
C3 C 0.27213(8) 0.5889(3) 0.12383(14)
H2 H 0.3028 0.6633 0.1420
C4 C 0.24440(8) 0.4997(2) 0.04262(14)
H3 H 0.2525 0.5034 -0.0051
C5 C 0.16319(6) 0.3603(2) 0.14550(9)
C6 C 0.14552(6) 0.4447(2) 0.20443(10)
C7 C 0.15988(7) 0.6101(2) 0.25075(11)
H4 H 0.1866 0.6837 0.2493
C8 C 0.13365(8) 0.6610(3) 0.29826(12)
H5 H 0.1429 0.7697 0.3302
C9 C 0.09342(9) 0.5519(3) 0.29915(13)
H6 H 0.0762 0.5896 0.3318
C10 C 0.07813(8) 0.3900(3) 0.25334(12)
H7 H 0.0509 0.3190 0.2546
C11 C 0.10450(6) 0.3344(2) 0.20466(10)
C12 C 0.09801(6) 0.1798(2) 0.14764(10)
C13 C 0.06617(6) 0.0268(2) 0.12764(10)
C14 C 0.06964(6) -0.1112(2) 0.07205(11)
C15 C 0.04297(7) -0.2772(2) 0.04248(13)
H8 H 0.0160 -0.3231 0.0543
C16 C 0.06394(7) -0.3615(2) -0.00778(13)
H9 H 0.0535 -0.4739 -0.0359
C17 C 0.10282(7) -0.2486(2) -0.00831(12)
H10 H 0.1235 -0.2722 -0.0371
C18 C 0.02762(7) -0.0004(3) 0.16577(14)
H11 H 0.0485 0.0021 0.2317
H12 H 0.0093 -0.1148 0.1457
H13 H 0.0005 0.0942 0.1442
F1 F 0.19598(4) 0.02357(13) 0.08317(7)
F2 F 0.12079(4) 0.14653(14) -0.03895(6)
N1 N 0.20324(5) 0.40512(18) 0.04316(9)
H14 H 0.1803 0.3369 -0.0009
N2 N 0.13460(4) 0.20550(16) 0.11262(8)
N3 N 0.10650(5) -0.09677(17) 0.03975(9)
loop_
_geom_bond_atom_site_label_1
_geom_bond_atom_site_label_2
_geom_bond_site_symmetry_1
_geom_bond_site_symmetry_2
B1 F1 1_555 1_555
C1 C2 1_555 1_555
C2 H1 1_555 1_555
C3 C2 1_555 1_555
H2 C3 1_555 1_555
C4 C3 1_555 1_555
H3 C4 1_555 1_555
C5 C1 1_555 1_555
C6 C5 1_555 1_555
C7 C6 1_555 1_555
H4 C7 1_555 1_555
C8 C7 1_555 1_555
H5 C8 1_555 1_555
C9 C8 1_555 1_555
H6 C9 1_555 1_555
C10 C9 1_555 1_555
H7 C10 1_555 1_555
C11 C6 1_555 1_555
C12 C11 1_555 1_555
C13 C12 1_555 1_555
C14 C13 1_555 1_555
C15 C14 1_555 1_555
H8 C15 1_555 1_555
C16 C15 1_555 1_555
H9 C16 1_555 1_555
C17 C16 1_555 1_555
H10 C17 1_555 1_555
C18 C13 1_555 1_555
H11 C18 1_555 1_555
H12 C18 1_555 1_555
H13 C18 1_555 1_555
F2 B1 1_555 1_555
N1 C1 1_555 1_555
H14 N1 1_555 1_555
N2 B1 1_555 1_555
N3 B1 1_555 1_555
C4 N1 1_555 1_555
C5 N2 1_555 1_555
C10 C11 1_555 1_555
C12 N2 1_555 1_555
C14 N3 1_555 1_555
C17 N3 1_555 1_555

#END
