
#######################################################################
#
#                 Cambridge Crystallographic Data Centre
#                                CCDC 
#
#######################################################################
#
# If this CIF has been generated from an entry in the Cambridge 
# Structural Database, then it will include bibliographic, chemical, 
# crystal, experimental, refinement or atomic coordinate data resulting 
# from the CCDC's data processing and validation procedures.
#
#######################################################################

data_XAYFOU
_chemical_formula_moiety         'C19 H16 B1 F2 N3'
_chemical_name_systematic        
5,5-Difluoro-1,3-dimethyl-7-(1H-pyrrol-2-yl)-5H-6\l^5^,5\l^5^-pyrrolo[1',2':3,4][1,3,2]diazaborinino[6,1-a]isoindole
_symmetry_cell_setting           monoclinic
_symmetry_space_group_name_H-M   'P 21/n'
_symmetry_Int_Tables_number      14
_space_group_name_Hall           '-P 2yn'
loop_
_symmetry_equiv_pos_site_id
_symmetry_equiv_pos_as_xyz
1 x,y,z
2 1/2-x,1/2+y,1/2-z
3 -x,-y,-z
4 1/2+x,1/2-y,1/2+z
_cell_length_a                   10.1992(12)
_cell_length_b                   7.0097(8)
_cell_length_c                   22.155(3)
_cell_angle_alpha                90
_cell_angle_beta                 94.6710(10)
_cell_angle_gamma                90
_cell_volume                     1578.67
_exptl_crystal_colour            purple
_exptl_crystal_description       block
_cell_formula_units_Z            4
_exptl_crystal_recrystallization_method dichloromethane
loop_
_atom_site_label
_atom_site_type_symbol
_atom_site_fract_x
_atom_site_fract_y
_atom_site_fract_z
B1 B 0.8386(3) 0.2540(4) 0.07217(12)
C1 C 0.7996(3) 0.3133(5) 0.26949(13)
H1 H 0.7225 0.3645 0.2824
F1 F 0.77774(13) 0.4204(2) 0.09202(6)
N1 N 0.8408(2) 0.3297(4) 0.21297(10)
H2 H 0.7996 0.3901 0.1834
C2 C 0.8884(3) 0.2111(5) 0.30347(12)
H3 H 0.8842 0.1799 0.3441
F2 F 0.77237(13) 0.0967(2) 0.09240(6)
N2 N 0.98585(19) 0.2485(2) 0.09921(8)
C3 C 0.9887(3) 0.1595(5) 0.26723(11)
H4 H 1.0627 0.0871 0.2792
N3 N 0.8364(2) 0.2567(3) 0.00295(9)
C4 C 0.9577(2) 0.2360(3) 0.21003(11)
C5 C 1.0338(2) 0.2327(3) 0.15792(10)
C6 C 1.1747(2) 0.2144(3) 0.16024(11)
C7 C 1.2740(3) 0.1892(5) 0.20746(12)
H5 H 1.2533 0.1855 0.2476
C8 C 1.4022(3) 0.1703(5) 0.19323(13)
H6 H 1.4681 0.1486 0.2240
C9 C 1.4351(3) 0.1833(5) 0.13315(14)
H7 H 1.5226 0.1715 0.1248
C10 C 1.3402(3) 0.2131(4) 0.08638(12)
H8 H 1.3627 0.2254 0.0467
C11 C 1.2093(2) 0.2242(3) 0.10010(11)
C12 C 1.0906(2) 0.2440(3) 0.06217(10)
C13 C 1.0718(2) 0.2483(3) 0.00021(10)
H9 H 1.1448 0.2468 -0.0224
C14 C 0.9469(2) 0.2549(3) -0.02989(10)
C15 C 0.9058(3) 0.2586(3) -0.09188(11)
C16 C 0.9933(3) 0.2569(3) -0.14270(11)
H10 H 0.9668 0.1561 -0.1704
H11 H 1.0826 0.2366 -0.1269
H12 H 0.9867 0.3770 -0.1636
C17 C 0.7699(3) 0.2635(4) -0.09575(12)
H13 H 0.7151 0.2673 -0.1314
C18 C 0.7288(3) 0.2620(3) -0.03760(12)
C19 C 0.5922(3) 0.2619(5) -0.01875(15)
H14 H 0.5765 0.1453 0.0022
H15 H 0.5311 0.2723 -0.0539
H16 H 0.5809 0.3682 0.0077
loop_
_geom_bond_atom_site_label_1
_geom_bond_atom_site_label_2
_geom_bond_site_symmetry_1
_geom_bond_site_symmetry_2
B1 F1 1_555 1_555
C1 H1 1_555 1_555
N1 C1 1_555 1_555
H2 N1 1_555 1_555
C2 C1 1_555 1_555
H3 C2 1_555 1_555
F2 B1 1_555 1_555
N2 B1 1_555 1_555
C3 C2 1_555 1_555
H4 C3 1_555 1_555
N3 B1 1_555 1_555
C4 N1 1_555 1_555
C5 N2 1_555 1_555
C6 C5 1_555 1_555
C7 C6 1_555 1_555
H5 C7 1_555 1_555
C8 C7 1_555 1_555
H6 C8 1_555 1_555
C9 C8 1_555 1_555
H7 C9 1_555 1_555
C10 C9 1_555 1_555
H8 C10 1_555 1_555
C11 C6 1_555 1_555
C12 N2 1_555 1_555
C13 C12 1_555 1_555
H9 C13 1_555 1_555
C14 N3 1_555 1_555
C15 C14 1_555 1_555
C16 C15 1_555 1_555
H10 C16 1_555 1_555
H11 C16 1_555 1_555
H12 C16 1_555 1_555
C17 C15 1_555 1_555
H13 C17 1_555 1_555
C18 N3 1_555 1_555
C19 C18 1_555 1_555
H14 C19 1_555 1_555
H15 C19 1_555 1_555
H16 C19 1_555 1_555
C3 C4 1_555 1_555
C4 C5 1_555 1_555
C10 C11 1_555 1_555
C11 C12 1_555 1_555
C13 C14 1_555 1_555
C17 C18 1_555 1_555

#END
