
#######################################################################
#
#                 Cambridge Crystallographic Data Centre
#                                CCDC 
#
#######################################################################
#
# If this CIF has been generated from an entry in the Cambridge 
# Structural Database, then it will include bibliographic, chemical, 
# crystal, experimental, refinement or atomic coordinate data resulting 
# from the CCDC's data processing and validation procedures.
#
#######################################################################

data_XAYFUA
_chemical_formula_moiety         'C33 H32 B1 F2 N3 O3'
_chemical_name_systematic        
"Ethyl (4-(2-(7-(3,5-dimethyl-1H-pyrrol-2-yl)-5,5-difluoro-1,3-dimethyl-5H-6\l^5^,5\l^5^-pyrrolo[1',2':3,4][1,3,2]diazaborinino[6,1-a]isoindol-12-yl)vinyl)phenoxy)acetate"
_symmetry_cell_setting           triclinic
_symmetry_space_group_name_H-M   'P -1'
_symmetry_Int_Tables_number      2
_space_group_name_Hall           '-P 1'
loop_
_symmetry_equiv_pos_site_id
_symmetry_equiv_pos_as_xyz
1 x,y,z
2 -x,-y,-z
_cell_length_a                   10.248(6)
_cell_length_b                   11.011(7)
_cell_length_c                   13.670(9)
_cell_angle_alpha                73.817(8)
_cell_angle_beta                 79.085(9)
_cell_angle_gamma                86.538(9)
_cell_volume                     1454.56
_exptl_crystal_colour            purple
_cell_formula_units_Z            2
_exptl_crystal_recrystallization_method dichloromethane
loop_
_atom_site_label
_atom_site_type_symbol
_atom_site_fract_x
_atom_site_fract_y
_atom_site_fract_z
B1 B 0.7303(5) 1.3756(4) 0.4698(4)
C1 C 0.8296(5) 1.5649(4) 0.5667(4)
H1 H 0.8440 1.5973 0.4926
H2 H 0.8854 1.6088 0.5943
H3 H 0.7381 1.5774 0.5947
C2 C 0.8626(4) 1.4264(4) 0.5953(3)
C3 C 0.9355(4) 1.3613(5) 0.6683(4)
H4 H 0.9763 1.3971 0.7088
C4 C 0.9385(4) 1.2348(5) 0.6722(3)
C5 C 1.0102(5) 1.1330(5) 0.7424(4)
H5 H 1.0797 1.0968 0.7012
H6 H 0.9485 1.0682 0.7837
H7 H 1.0481 1.1691 0.7869
C6 C 0.8645(4) 1.2223(4) 0.5972(3)
C7 C 0.8281(4) 1.1172(4) 0.5694(3)
C8 C 0.7506(4) 1.1294(4) 0.4947(3)
C9 C 0.7045(4) 1.0401(4) 0.4499(3)
C10 C 0.7089(5) 0.9057(4) 0.4720(4)
H8 H 0.7553 0.8571 0.5218
C11 C 0.6430(5) 0.8503(5) 0.4180(4)
H9 H 0.6453 0.7626 0.4324
C12 C 0.5727(5) 0.9180(5) 0.3429(4)
H10 H 0.5271 0.8760 0.3096
C13 C 0.5711(4) 1.0472(4) 0.3179(3)
H11 H 0.5258 1.0940 0.2666
C14 C 0.6382(4) 1.1081(4) 0.3705(3)
C15 C 0.6456(4) 1.2403(4) 0.3646(3)
C16 C 0.5982(4) 1.3440(4) 0.2884(3)
C17 C 0.6133(4) 1.3616(4) 0.1824(3)
C18 C 0.6819(5) 1.2779(4) 0.1180(3)
H12 H 0.7248 1.2088 0.1607
H13 H 0.7471 1.3259 0.0631
H14 H 0.6177 1.2455 0.0891
C19 C 0.5613(4) 1.4823(4) 0.1415(3)
H15 H 0.5586 1.5196 0.0719
C20 C 0.5152(4) 1.5362(4) 0.2211(3)
C21 C 0.4509(5) 1.6612(4) 0.2201(4)
H16 H 0.4024 1.6586 0.2880
H17 H 0.3909 1.6805 0.1716
H18 H 0.5178 1.7253 0.2000
C22 C 0.8796(4) 0.9907(4) 0.6215(3)
H19 H 0.9699 0.9742 0.6044
C23 C 0.8065(4) 0.9015(4) 0.6895(3)
H20 H 0.7160 0.9184 0.7035
C24 C 0.8518(4) 0.7778(4) 0.7460(3)
C25 C 0.9839(4) 0.7477(4) 0.7469(3)
H21 H 1.0477 0.8086 0.7109
C26 C 1.0249(4) 0.6288(4) 0.8001(3)
H22 H 1.1149 0.6102 0.7987
C27 C 0.9312(4) 0.5393(4) 0.8548(3)
C28 C 0.7976(4) 0.5669(4) 0.8548(3)
H23 H 0.7342 0.5056 0.8904
C29 C 0.7587(4) 0.6848(4) 0.8021(3)
H24 H 0.6687 0.7031 0.8039
C30 C 1.0939(4) 0.3818(4) 0.9036(3)
H25 H 1.1405 0.4312 0.9346
H26 H 1.1362 0.3950 0.8317
C31 C 1.0985(6) 0.2429(5) 0.9610(4)
C32 C 1.2330(17) 0.0496(11) 0.9736(14)
H27 H 1.1486 0.0108 1.0100
H28 H 1.2688 0.0102 0.9188
C33 C 1.3240(18) 0.0377(16) 1.0431(13)
H29 H 1.4039 0.0826 1.0068
H30 H 1.3447 -0.0501 1.0703
H31 H 1.2843 0.0724 1.0990
O1 O 1.2166(10) 0.1917(16) 0.9301(13)
F1 F 0.6060(2) 1.4163(2) 0.51036(18)
F2 F 0.7857(2) 1.4662(2) 0.38147(18)
N1 N 0.8199(3) 1.3443(3) 0.5504(2)
N2 N 0.7089(3) 1.2504(3) 0.4406(2)
N3 N 0.5387(3) 1.4522(3) 0.3101(3)
H32 H 0.5195 1.4645 0.3707
O2 O 0.9594(3) 0.4190(3) 0.9102(2)
O3 O 1.0072(4) 0.1820(3) 1.0119(3)
C34? C 1.249(2) 0.0948(16) 1.0297(13)
C35? C 1.300(3) 0.006(2) 0.976(2)
H33? H 1.3097 0.1004 1.0747
H34? H 1.1650 0.0638 1.0734
H35? H 1.2442 0.0033 0.9274
H36? H 1.3024 -0.0762 1.0240
H37? H 1.3883 0.0295 0.9391
O4? O 1.2283(13) 0.2172(19) 0.9675(15)
loop_
_geom_bond_atom_site_label_1
_geom_bond_atom_site_label_2
_geom_bond_site_symmetry_1
_geom_bond_site_symmetry_2
B1 F1 1_555 1_555
C1 H1 1_555 1_555
H2 C1 1_555 1_555
H3 C1 1_555 1_555
C2 C1 1_555 1_555
C3 C2 1_555 1_555
H4 C3 1_555 1_555
C4 C3 1_555 1_555
C5 C4 1_555 1_555
H5 C5 1_555 1_555
H6 C5 1_555 1_555
H7 C5 1_555 1_555
C6 C4 1_555 1_555
C7 C6 1_555 1_555
C8 C7 1_555 1_555
C9 C8 1_555 1_555
C10 C9 1_555 1_555
H8 C10 1_555 1_555
C11 C10 1_555 1_555
H9 C11 1_555 1_555
C12 C11 1_555 1_555
H10 C12 1_555 1_555
C13 C12 1_555 1_555
H11 C13 1_555 1_555
C14 C9 1_555 1_555
C15 C14 1_555 1_555
C16 C15 1_555 1_555
C17 C16 1_555 1_555
C18 C17 1_555 1_555
H12 C18 1_555 1_555
H13 C18 1_555 1_555
H14 C18 1_555 1_555
C19 C17 1_555 1_555
H15 C19 1_555 1_555
C20 C19 1_555 1_555
C21 C20 1_555 1_555
H16 C21 1_555 1_555
H17 C21 1_555 1_555
H18 C21 1_555 1_555
C22 C7 1_555 1_555
H19 C22 1_555 1_555
C23 C22 1_555 1_555
H20 C23 1_555 1_555
C24 C23 1_555 1_555
C25 C24 1_555 1_555
H21 C25 1_555 1_555
C26 C25 1_555 1_555
H22 C26 1_555 1_555
C27 C26 1_555 1_555
C28 C27 1_555 1_555
H23 C28 1_555 1_555
C29 C24 1_555 1_555
H24 C29 1_555 1_555
C30 H25 1_555 1_555
H26 C30 1_555 1_555
C31 C30 1_555 1_555
C32 H27 1_555 1_555
H28 C32 1_555 1_555
C33 C32 1_555 1_555
H29 C33 1_555 1_555
H30 C33 1_555 1_555
H31 C33 1_555 1_555
O1 C31 1_555 1_555
F2 B1 1_555 1_555
N1 B1 1_555 1_555
N2 B1 1_555 1_555
N3 C16 1_555 1_555
H32 N3 1_555 1_555
O2 C27 1_555 1_555
O3 C31 1_555 1_555
C2 N1 1_555 1_555
C6 N1 1_555 1_555
C8 N2 1_555 1_555
C13 C14 1_555 1_555
C15 N2 1_555 1_555
C20 N3 1_555 1_555
C28 C29 1_555 1_555
C30 O2 1_555 1_555
C32 O1 1_555 1_555

#END
