
#######################################################################
#
#                 Cambridge Crystallographic Data Centre
#                                CCDC 
#
#######################################################################
#
# If this CIF has been generated from an entry in the Cambridge 
# Structural Database, then it will include bibliographic, chemical, 
# crystal, experimental, refinement or atomic coordinate data resulting 
# from the CCDC's data processing and validation procedures.
#
#######################################################################

data_XAYFIP
_chemical_formula_moiety         'C12 H15 Cl1 N4 O2 S1'
_chemical_name_systematic        
2-chloro-5-({2-[(dimethyl-\l^4^-sulfanylidene)(nitro)methyl]-4,5-dihydro-1H-imidazol-1-yl}methyl)pyridine
_symmetry_cell_setting           monoclinic
_symmetry_space_group_name_H-M   'P 21/c'
_symmetry_Int_Tables_number      14
_space_group_name_Hall           '-P 2ybc'
loop_
_symmetry_equiv_pos_site_id
_symmetry_equiv_pos_as_xyz
1 x,y,z
2 -x,1/2+y,1/2-z
3 -x,-y,-z
4 x,1/2-y,1/2+z
_cell_length_a                   8.6799(12)
_cell_length_b                   18.273(2)
_cell_length_c                   9.3017(12)
_cell_angle_alpha                90
_cell_angle_beta                 107.089(3)
_cell_angle_gamma                90
_cell_volume                     1410.19
_exptl_crystal_colour            colorless
_exptl_crystal_description       prismatic
_cell_formula_units_Z            4
_exptl_crystal_recrystallization_method dichloromethane
loop_
_atom_site_label
_atom_site_type_symbol
_atom_site_fract_x
_atom_site_fract_y
_atom_site_fract_z
Cl1 Cl 0.63621(9) -0.08715(4) -0.16988(8)
S1 S 1.22024(6) 0.38633(3) 0.18773(6)
N1 N 0.8688(2) 0.36792(11) 0.0289(2)
N2 N 0.8781(2) 0.24548(10) 0.05860(19)
N3 N 0.7192(2) 0.00537(11) 0.0518(2)
N4 N 1.2063(2) 0.27647(10) -0.00706(18)
O1 O 1.34948(18) 0.29146(9) -0.00018(19)
O2 O 1.13320(18) 0.22561(9) -0.08933(16)
C1 C 1.1289(2) 0.31555(11) 0.0739(2)
C2 C 0.9558(2) 0.30997(11) 0.0526(2)
C3 C 0.7045(3) 0.34316(15) 0.0157(3)
H1 H 0.6380 0.3450 -0.0882
H2 H 0.6558 0.3737 0.0757
C4 C 0.7210(3) 0.26558(14) 0.0728(3)
H3 H 0.7194 0.2632 0.1766
H4 H 0.6364 0.2345 0.0114
C5 C 0.9548(3) 0.18051(12) 0.1355(2)
H5 H 0.9466 0.1802 0.2373
H6 H 1.0683 0.1810 0.1414
C6 C 0.8776(3) 0.11277(12) 0.0548(2)
C7 C 0.8874(3) 0.09556(13) -0.0869(3)
H7 H 0.9433 0.1260 -0.1343
C8 C 0.8145(3) 0.03360(14) -0.1567(3)
H8 H 0.8202 0.0205 -0.2516
C9 C 0.7325(3) -0.00850(12) -0.0817(3)
C10 C 0.7931(3) 0.06610(13) 0.1174(3)
H9 H 0.7864 0.0773 0.2129
C11 C 1.4113(3) 0.35443(14) 0.3008(3)
H10 H 1.3964 0.3125 0.3574
H11 H 1.4641 0.3925 0.3686
H12 H 1.4763 0.3412 0.2374
C12 C 1.2803(3) 0.45193(14) 0.0728(3)
H13 H 1.3313 0.4273 0.0078
H14 H 1.3546 0.4859 0.1355
H15 H 1.1872 0.4779 0.0132
loop_
_geom_bond_atom_site_label_1
_geom_bond_atom_site_label_2
_geom_bond_site_symmetry_1
_geom_bond_site_symmetry_2
Cl1 C9 1_555 1_555
S1 C1 1_555 1_555
N1 C2 1_555 1_555
N2 C2 1_555 1_555
N3 C9 1_555 1_555
N4 O1 1_555 1_555
O2 N4 1_555 1_555
C1 N4 1_555 1_555
C2 C1 1_555 1_555
C3 N1 1_555 1_555
H1 C3 1_555 1_555
H2 C3 1_555 1_555
C4 N2 1_555 1_555
H3 C4 1_555 1_555
H4 C4 1_555 1_555
C5 N2 1_555 1_555
H5 C5 1_555 1_555
H6 C5 1_555 1_555
C6 C5 1_555 1_555
C7 C6 1_555 1_555
H7 C7 1_555 1_555
C8 C7 1_555 1_555
H8 C8 1_555 1_555
C9 C8 1_555 1_555
C10 N3 1_555 1_555
H9 C10 1_555 1_555
C11 S1 1_555 1_555
H10 C11 1_555 1_555
H11 C11 1_555 1_555
H12 C11 1_555 1_555
C12 S1 1_555 1_555
H13 C12 1_555 1_555
H14 C12 1_555 1_555
H15 C12 1_555 1_555
C3 C4 1_555 1_555
C6 C10 1_555 1_555

#END
