
#######################################################################
#
#                 Cambridge Crystallographic Data Centre
#                                CCDC 
#
#######################################################################
#
# If this CIF has been generated from an entry in the Cambridge 
# Structural Database, then it will include bibliographic, chemical, 
# crystal, experimental, refinement or atomic coordinate data resulting 
# from the CCDC's data processing and validation procedures.
#
#######################################################################

data_XAYGIN
_chemical_name_common            'Marchantin M trimethyl ether'
_chemical_formula_moiety         'C31 H30 O5'
_chemical_name_systematic        
4,17,20-Trimethoxy-2,15-dioxapentacyclo(22.2.2.1^3,7^.1^10,14^.0^16,21^)triaconta-1(26),3,5,7(29),10,12,14(30),16,18,20,24,27-dodecaene
_symmetry_cell_setting           monoclinic
_symmetry_space_group_name_H-M   'P 21/n'
_symmetry_Int_Tables_number      14
_space_group_name_Hall           '-P 2yn'
loop_
_symmetry_equiv_pos_site_id
_symmetry_equiv_pos_as_xyz
1 x,y,z
2 1/2-x,1/2+y,1/2-z
3 -x,-y,-z
4 1/2+x,1/2-y,1/2+z
_cell_length_a                   14.937(3)
_cell_length_b                   9.316(5)
_cell_length_c                   18.262(2)
_cell_angle_alpha                90
_cell_angle_beta                 98.877(12)
_cell_angle_gamma                90
_cell_volume                     2510.77
_exptl_crystal_colour            colorless
_exptl_crystal_description       prism
_cell_formula_units_Z            4
_exptl_crystal_recrystallization_method hexane/chloroform
loop_
_atom_site_label
_atom_site_type_symbol
_atom_site_fract_x
_atom_site_fract_y
_atom_site_fract_z
O1 O 0.73707(12) 0.3860(2) 0.03557(10)
C1 C 0.65537(18) 0.3836(3) 0.06455(14)
C2 C 0.6071(2) 0.2550(4) 0.06483(19)
C3 C 0.5254(2) 0.2570(4) 0.0919(2)
H1 H 0.4935 0.1720 0.0948
C4 C 0.4913(2) 0.3825(4) 0.11447(17)
H2 H 0.4365 0.3822 0.1327
C5 C 0.53717(17) 0.5090(3) 0.11052(14)
C6 C 0.62140(16) 0.5127(3) 0.08456(13)
C7 C 0.66607(17) 0.6546(3) 0.07574(14)
H3 H 0.6217 0.7178 0.0479
H4 H 0.7141 0.6397 0.0463
C8 C 0.70659(16) 0.7313(3) 0.14760(16)
H5 H 0.7068 0.8337 0.1381
H6 H 0.6674 0.7145 0.1844
C9 C 0.80115(16) 0.6859(3) 0.17947(13)
C10 C 0.81970(17) 0.5622(3) 0.22019(16)
H7 H 0.7719 0.5054 0.2302
C11 C 0.90758(17) 0.5202(3) 0.24657(15)
H8 H 0.9186 0.4358 0.2737
C12 C 0.97823(16) 0.6040(3) 0.23242(14)
C13 C 0.96241(18) 0.7289(3) 0.19423(15)
H9 H 1.0106 0.7870 0.1863
C14 C 0.87404(18) 0.7693(3) 0.16706(15)
H10 H 0.8636 0.8539 0.1400
O2 O 1.06715(11) 0.5643(2) 0.26161(10)
C15 C 1.11334(16) 0.4803(3) 0.21717(14)
C16 C 1.19503(17) 0.4218(3) 0.25149(15)
C17 C 1.24424(19) 0.3371(3) 0.2103(2)
H11 H 1.2991 0.2981 0.2324
C18 C 1.21306(18) 0.3098(3) 0.13704(18)
H12 H 1.2474 0.2521 0.1104
C19 C 1.13254(17) 0.3652(3) 0.10176(15)
C20 C 1.08300(17) 0.4518(3) 0.14389(14)
H13 H 1.0282 0.4909 0.1216
C21 C 1.09538(18) 0.3283(3) 0.02324(15)
H14 H 1.1455 0.3129 -0.0039
H15 H 1.0607 0.4094 0.0008
C22 C 1.03505(17) 0.1957(3) 0.01500(15)
H16 H 1.0124 0.1808 -0.0371
H17 H 1.0712 0.1126 0.0327
C23 C 0.95513(17) 0.2065(3) 0.05718(14)
C24 C 0.87992(16) 0.2865(3) 0.02916(13)
H18 H 0.8771 0.3309 -0.0167
C25 C 0.80829(16) 0.3011(3) 0.06906(14)
C26 C 0.81165(17) 0.2364(3) 0.13696(14)
H19 H 0.7639 0.2465 0.1637
C27 C 0.88635(18) 0.1565(3) 0.16490(15)
H20 H 0.8889 0.1117 0.2107
C28 C 0.95829(18) 0.1422(3) 0.12528(15)
H21 H 1.0089 0.0888 0.1450
O3 O 0.6354(4) 0.1114(5) 0.0583(3)
C29 C 0.6391(6) 0.0839(11) -0.0174(4)
H22 H 0.6448 -0.0175 -0.0248
H23 H 0.6904 0.1324 -0.0317
H24 H 0.5846 0.1181 -0.0471
O4 O 0.50610(12) 0.6407(2) 0.12934(11)
C30 C 0.42074(19) 0.6454(5) 0.1550(2)
H25 H 0.4068 0.7428 0.1662
H26 H 0.4234 0.5878 0.1989
H27 H 0.3745 0.6088 0.1173
O5 O 1.21803(12) 0.4541(2) 0.32551(11)
C31 C 1.2981(2) 0.3910(4) 0.3634(2)
H28 H 1.3068 0.4203 0.4144
H29 H 1.3490 0.4215 0.3409
H30 H 1.2930 0.2883 0.3605
O6? O 0.6523(4) 0.1580(6) 0.0230(4)
C32? C 0.5984(6) 0.0340(7) 0.0015(6)
H31? H 0.6293 -0.0263 -0.0292
H32? H 0.5411 0.0630 -0.0257
H33? H 0.5887 -0.0182 0.0449
loop_
_geom_bond_atom_site_label_1
_geom_bond_atom_site_label_2
_geom_bond_site_symmetry_1
_geom_bond_site_symmetry_2
O1 C1 1_555 1_555
C1 C2 1_555 1_555
C2 C3 1_555 1_555
C3 H1 1_555 1_555
C4 C3 1_555 1_555
H2 C4 1_555 1_555
C5 C4 1_555 1_555
C6 C1 1_555 1_555
C7 C6 1_555 1_555
H3 C7 1_555 1_555
H4 C7 1_555 1_555
C8 C7 1_555 1_555
H5 C8 1_555 1_555
H6 C8 1_555 1_555
C9 C8 1_555 1_555
C10 C9 1_555 1_555
H7 C10 1_555 1_555
C11 C10 1_555 1_555
H8 C11 1_555 1_555
C12 C11 1_555 1_555
C13 C12 1_555 1_555
H9 C13 1_555 1_555
C14 C9 1_555 1_555
H10 C14 1_555 1_555
O2 C12 1_555 1_555
C15 O2 1_555 1_555
C16 C15 1_555 1_555
C17 C16 1_555 1_555
H11 C17 1_555 1_555
C18 C17 1_555 1_555
H12 C18 1_555 1_555
C19 C18 1_555 1_555
C20 C15 1_555 1_555
H13 C20 1_555 1_555
C21 C19 1_555 1_555
H14 C21 1_555 1_555
H15 C21 1_555 1_555
C22 C21 1_555 1_555
H16 C22 1_555 1_555
H17 C22 1_555 1_555
C23 C22 1_555 1_555
C24 C23 1_555 1_555
H18 C24 1_555 1_555
C25 O1 1_555 1_555
C26 C25 1_555 1_555
H19 C26 1_555 1_555
C27 C26 1_555 1_555
H20 C27 1_555 1_555
C28 C23 1_555 1_555
H21 C28 1_555 1_555
O3 C2 1_555 1_555
C29 O3 1_555 1_555
H22 C29 1_555 1_555
H23 C29 1_555 1_555
H24 C29 1_555 1_555
O4 C5 1_555 1_555
C30 O4 1_555 1_555
H25 C30 1_555 1_555
H26 C30 1_555 1_555
H27 C30 1_555 1_555
O5 C16 1_555 1_555
C31 O5 1_555 1_555
H28 C31 1_555 1_555
H29 C31 1_555 1_555
H30 C31 1_555 1_555
C5 C6 1_555 1_555
C13 C14 1_555 1_555
C19 C20 1_555 1_555
C24 C25 1_555 1_555
C27 C28 1_555 1_555

#END
