
#######################################################################
#
#                 Cambridge Crystallographic Data Centre
#                                CCDC 
#
#######################################################################
#
# If this CIF has been generated from an entry in the Cambridge 
# Structural Database, then it will include bibliographic, chemical, 
# crystal, experimental, refinement or atomic coordinate data resulting 
# from the CCDC's data processing and validation procedures.
#
#######################################################################

data_XAYLUH
_chemical_formula_moiety         'C14 H8 N2,C6 F3 I3'
_chemical_name_systematic        
"4,4'-(buta-1,3-diyne-1,4-diyl)dipyridine 1,3,5-trifluoro-2,4,6-triiodobenzene"
_symmetry_cell_setting           monoclinic
_symmetry_space_group_name_H-M   'P 21/c'
_symmetry_Int_Tables_number      14
_space_group_name_Hall           '-P 2ybc'
loop_
_symmetry_equiv_pos_site_id
_symmetry_equiv_pos_as_xyz
1 x,y,z
2 -x,1/2+y,1/2-z
3 -x,-y,-z
4 x,1/2-y,1/2+z
_cell_length_a                   6.6699(5)
_cell_length_b                   34.308(3)
_cell_length_c                   9.1378(10)
_cell_angle_alpha                90
_cell_angle_beta                 102.639(5)
_cell_angle_gamma                90
_cell_volume                     2040.34
_exptl_crystal_colour            colorless
_exptl_crystal_description       block
_cell_formula_units_Z            4
loop_
_atom_site_label
_atom_site_type_symbol
_atom_site_fract_x
_atom_site_fract_y
_atom_site_fract_z
I1 I 0.37327(4) 0.28764(2) 0.56675(3)
I2 I -0.25107(4) 0.19489(2) 0.81522(3)
I3 I -0.18614(5) 0.36843(2) 0.91372(3)
F1 F 0.1169(4) 0.21727(7) 0.6580(3)
F2 F -0.3116(4) 0.28037(8) 0.9272(3)
F3 F 0.1619(4) 0.35295(8) 0.7277(3)
C1 C 0.1453(6) 0.28480(13) 0.6912(5)
C2 C 0.0762(6) 0.31842(12) 0.7499(5)
C3 C -0.0774(6) 0.31782(13) 0.8289(5)
C4 C -0.1629(6) 0.28194(12) 0.8488(5)
C5 C -0.1026(6) 0.24766(12) 0.7915(4)
C6 C 0.0531(6) 0.25001(13) 0.7145(5)
N1 N -0.5093(6) 0.62670(11) 0.6445(5)
N2 N 0.6056(7) 0.43251(12) 0.0302(5)
C7 C -0.5774(7) 0.60686(15) 0.5178(6)
H1 H -0.7169 0.6077 0.4737
C8 C -0.4496(7) 0.58499(14) 0.4491(6)
H2 H -0.5031 0.5712 0.3616
C9 C -0.2409(7) 0.58396(12) 0.5124(5)
C10 C -0.1674(7) 0.60527(14) 0.6420(6)
H3 H -0.0280 0.6057 0.6865
C11 C -0.3080(8) 0.62596(14) 0.7035(6)
H4 H -0.2590 0.6401 0.7909
C12 C -0.1049(7) 0.56124(14) 0.4431(6)
C13 C 0.0001(7) 0.54198(14) 0.3812(6)
C14 C 0.1216(7) 0.51920(15) 0.3109(6)
C15 C 0.2256(7) 0.49989(14) 0.2463(6)
C16 C 0.3529(7) 0.47692(13) 0.1724(5)
C17 C 0.2712(8) 0.45408(16) 0.0478(6)
H5 H 0.1301 0.4534 0.0092
C18 C 0.4016(9) 0.43258(16) -0.0173(6)
H6 H 0.3445 0.4171 -0.0995
C19 C 0.6826(8) 0.45409(15) 0.1494(7)
H7 H 0.8245 0.4543 0.1841
C20 C 0.5653(8) 0.47644(15) 0.2257(7)
H8 H 0.6268 0.4907 0.3101
loop_
_geom_bond_atom_site_label_1
_geom_bond_atom_site_label_2
_geom_bond_site_symmetry_1
_geom_bond_site_symmetry_2
I1 C1 1_555 1_555
I2 C5 1_555 1_555
I3 C3 1_555 1_555
F1 C6 1_555 1_555
F2 C4 1_555 1_555
F3 C2 1_555 1_555
C1 C2 1_555 1_555
C2 C3 1_555 1_555
C3 C4 1_555 1_555
C4 C5 1_555 1_555
C5 C6 1_555 1_555
C6 C1 1_555 1_555
N1 C7 1_555 1_555
N2 C18 1_555 1_555
C7 H1 1_555 1_555
C8 C7 1_555 1_555
H2 C8 1_555 1_555
C9 C8 1_555 1_555
C10 C9 1_555 1_555
H3 C10 1_555 1_555
C11 N1 1_555 1_555
H4 C11 1_555 1_555
C12 C9 1_555 1_555
C13 C12 1_555 1_555
C14 C13 1_555 1_555
C15 C14 1_555 1_555
C16 C15 1_555 1_555
C17 C16 1_555 1_555
H5 C17 1_555 1_555
C18 C17 1_555 1_555
H6 C18 1_555 1_555
C19 N2 1_555 1_555
H7 C19 1_555 1_555
C20 C16 1_555 1_555
H8 C20 1_555 1_555
C10 C11 1_555 1_555
C19 C20 1_555 1_555

#END
