
#######################################################################
#
#                 Cambridge Crystallographic Data Centre
#                                CCDC 
#
#######################################################################
#
# If this CIF has been generated from an entry in the Cambridge 
# Structural Database, then it will include bibliographic, chemical, 
# crystal, experimental, refinement or atomic coordinate data resulting 
# from the CCDC's data processing and validation procedures.
#
#######################################################################

data_XAYPAQ
_chemical_formula_moiety         'C11 H6 F2 N2 O2'
_chemical_name_systematic        2-(2,4-Difluorophenyl)-5-nitropyridine
_symmetry_cell_setting           orthorhombic
_symmetry_space_group_name_H-M   'P n a 21'
_symmetry_Int_Tables_number      33
_space_group_name_Hall           'P 2c -2n'
loop_
_symmetry_equiv_pos_site_id
_symmetry_equiv_pos_as_xyz
1 x,y,z
2 -x,-y,1/2+z
3 1/2+x,1/2-y,z
4 1/2-x,1/2+y,1/2+z
_cell_length_a                   22.185(4)
_cell_length_b                   3.7457(6)
_cell_length_c                   11.894(2)
_cell_angle_alpha                90
_cell_angle_beta                 90
_cell_angle_gamma                90
_cell_volume                     988.372
_exptl_crystal_colour            colorless
_exptl_crystal_description       block
_cell_formula_units_Z            4
loop_
_atom_site_label
_atom_site_type_symbol
_atom_site_fract_x
_atom_site_fract_y
_atom_site_fract_z
F1 F 0.43717(7) 0.8814(4) 0.19399(11)
F2 F 0.64096(6) 0.8761(5) 0.29027(14)
N1 N 0.39001(8) 0.6832(5) 0.52314(14)
N2 N 0.23174(9) 0.3925(7) 0.5480(2)
C1 C 0.33559(10) 0.6124(6) 0.56308(18)
H1 H 0.3278 0.6546 0.6388
C2 C 0.29008(9) 0.4788(6) 0.4966(2)
C3 C 0.29993(10) 0.4202(6) 0.38367(19)
H2 H 0.2696 0.3316 0.3376
C4 C 0.35623(9) 0.4973(6) 0.34139(19)
H3 H 0.3644 0.4647 0.2654
C5 C 0.40050(9) 0.6236(5) 0.41293(17)
C6 C 0.46353(9) 0.6929(5) 0.37757(17)
C7 C 0.48022(10) 0.8139(6) 0.27144(19)
C8 C 0.53882(12) 0.8781(6) 0.2407(2)
H4 H 0.5485 0.9618 0.1693
C9 C 0.58240(10) 0.8137(6) 0.3194(2)
C10 C 0.57000(11) 0.6967(7) 0.4255(2)
H5 H 0.6007 0.6581 0.4773
C11 C 0.51028(9) 0.6372(6) 0.45341(19)
H6 H 0.5011 0.5571 0.5254
O1 O 0.19644(9) 0.2185(6) 0.49287(19)
O2 O 0.22205(9) 0.4973(7) 0.6427(2)
loop_
_geom_bond_atom_site_label_1
_geom_bond_atom_site_label_2
_geom_bond_site_symmetry_1
_geom_bond_site_symmetry_2
F1 C7 1_555 1_555
F2 C9 1_555 1_555
N1 C1 1_555 1_555
N2 C2 1_555 1_555
C1 H1 1_555 1_555
C2 C1 1_555 1_555
C3 C2 1_555 1_555
H2 C3 1_555 1_555
C4 C3 1_555 1_555
H3 C4 1_555 1_555
C5 N1 1_555 1_555
C6 C5 1_555 1_555
C7 C6 1_555 1_555
C8 C7 1_555 1_555
H4 C8 1_555 1_555
C9 C8 1_555 1_555
C10 C9 1_555 1_555
H5 C10 1_555 1_555
C11 C6 1_555 1_555
H6 C11 1_555 1_555
O1 N2 1_555 1_555
O2 N2 1_555 1_555
C4 C5 1_555 1_555
C10 C11 1_555 1_555

#END
