
#######################################################################
#
#                 Cambridge Crystallographic Data Centre
#                                CCDC 
#
#######################################################################
#
# If this CIF has been generated from an entry in the Cambridge 
# Structural Database, then it will include bibliographic, chemical, 
# crystal, experimental, refinement or atomic coordinate data resulting 
# from the CCDC's data processing and validation procedures.
#
#######################################################################

data_XAYRUN
_chemical_formula_moiety         'C27 H20 Cl1 N3 O3'
_chemical_name_systematic        
5'-(4-chlorophenyl)-1,3'-dimethyl-1'-phenyl-1'H-spiro[indole-3,4'-pyrano[2,3-c]pyrazole]-2,6'(1H,5'H)-dione
_symmetry_cell_setting           orthorhombic
_symmetry_space_group_name_H-M   'P 21 21 21'
_symmetry_Int_Tables_number      19
_space_group_name_Hall           'P 2ac 2ab'
loop_
_symmetry_equiv_pos_site_id
_symmetry_equiv_pos_as_xyz
1 x,y,z
2 1/2-x,-y,1/2+z
3 -x,1/2+y,1/2-z
4 1/2+x,1/2-y,-z
_cell_length_a                   9.80390(10)
_cell_length_b                   14.3544(2)
_cell_length_c                   16.1407(2)
_cell_angle_alpha                90
_cell_angle_beta                 90
_cell_angle_gamma                90
_cell_volume                     2271.47
_exptl_crystal_colour            colorless
_exptl_crystal_description       block
_cell_formula_units_Z            4
loop_
_atom_site_label
_atom_site_type_symbol
_atom_site_fract_x
_atom_site_fract_y
_atom_site_fract_z
C1 C 0.97267(12) 0.59025(8) 0.12427(7)
C2 C 0.91658(11) 0.49123(7) 0.11538(6)
C3 C 0.78238(11) 0.47709(7) 0.16741(6)
C4 C 0.69064(11) 0.55523(8) 0.14374(7)
C5 C 0.54799(11) 0.57057(8) 0.14140(7)
C6 C 0.74489(11) 0.63930(8) 0.12129(7)
C7 C 1.02521(11) 0.41885(7) 0.13125(7)
C8 C 1.04721(12) 0.34845(8) 0.07289(7)
C9 C 1.15211(13) 0.28358(8) 0.08312(8)
C10 C 1.23309(12) 0.28957(8) 0.15335(8)
C11 C 1.20819(12) 0.35511(9) 0.21461(7)
C12 C 1.10503(11) 0.42000(8) 0.20302(7)
C13 C 0.81076(11) 0.46791(7) 0.25889(6)
C14 C 0.85043(12) 0.53347(8) 0.31689(7)
C15 C 0.87760(14) 0.50331(9) 0.39774(7)
C16 C 0.86764(14) 0.40936(9) 0.41780(7)
C17 C 0.82624(12) 0.34243(8) 0.35997(7)
C18 C 0.79655(11) 0.37435(8) 0.28088(7)
C19 C 0.73196(11) 0.37858(8) 0.14444(7)
C20 C 0.73064(14) 0.22245(8) 0.21186(8)
C21 C 0.43672(13) 0.50349(9) 0.16029(8)
C22 C 0.64759(11) 0.79783(8) 0.08916(7)
C23 C 0.76228(13) 0.83820(8) 0.05308(8)
C24 C 0.76578(14) 0.93486(9) 0.04369(8)
C25 C 0.65639(15) 0.98957(9) 0.06823(8)
C26 C 0.54016(15) 0.94780(9) 0.10044(8)
C27 C 0.53516(13) 0.85185(9) 0.11159(8)
Cl1 Cl 1.37382(3) 0.21622(2) 0.16457(2)
H1 H 0.858(2) 0.5974(15) 0.3020(13)
H2 H 0.905(2) 0.5506(16) 0.4373(14)
H3 H 0.891(2) 0.3927(15) 0.4754(14)
H4 H 0.821(2) 0.2803(15) 0.3740(13)
H5 H 0.885(2) 0.4837(15) 0.0576(13)
H6 H 1.090(2) 0.4671(14) 0.2465(14)
H7 H 1.264(2) 0.3597(14) 0.2644(14)
H8 H 1.170(2) 0.2387(15) 0.0410(14)
H9 H 0.992(2) 0.3417(15) 0.0259(13)
H10 H 0.837(2) 0.7991(16) 0.0385(13)
H11 H 0.841(2) 0.9629(15) 0.0201(13)
H12 H 0.652(2) 1.0583(16) 0.0616(13)
H13 H 0.454(2) 0.9852(15) 0.1186(14)
H14 H 0.461(2) 0.8256(15) 0.1351(14)
H15 H 0.702(2) 0.2037(16) 0.1571(13)
H16 H 0.665(2) 0.2080(15) 0.2534(14)
H17 H 0.812(2) 0.1888(15) 0.2240(13)
H18 H 0.446(2) 0.4468(16) 0.1267(14)
H19 H 0.343(2) 0.5299(15) 0.1492(13)
H20 H 0.444(2) 0.4803(15) 0.2153(14)
N1 N 0.64312(10) 0.70071(7) 0.10601(6)
N2 N 0.51915(10) 0.65769(7) 0.11882(6)
N3 N 0.74985(10) 0.32274(7) 0.21227(6)
O1 O 1.08962(9) 0.61081(6) 0.13326(6)
O2 O 0.87954(9) 0.66315(6) 0.11759(5)
O3 O 0.69049(10) 0.35435(7) 0.07673(6)
loop_
_geom_bond_atom_site_label_1
_geom_bond_atom_site_label_2
_geom_bond_site_symmetry_1
_geom_bond_site_symmetry_2
C1 C2 1_555 1_555
C2 C3 1_555 1_555
C3 C4 1_555 1_555
C4 C5 1_555 1_555
C5 C21 1_555 1_555
C6 C4 1_555 1_555
C7 C2 1_555 1_555
C8 C7 1_555 1_555
C9 C8 1_555 1_555
C10 C9 1_555 1_555
C11 C10 1_555 1_555
C12 C7 1_555 1_555
C13 C3 1_555 1_555
C14 C13 1_555 1_555
C15 C14 1_555 1_555
C16 C15 1_555 1_555
C17 C16 1_555 1_555
C18 C13 1_555 1_555
C19 C3 1_555 1_555
C20 H15 1_555 1_555
C21 H18 1_555 1_555
C22 C23 1_555 1_555
C23 C24 1_555 1_555
C24 C25 1_555 1_555
C25 C26 1_555 1_555
C26 C27 1_555 1_555
C27 C22 1_555 1_555
Cl1 C10 1_555 1_555
H1 C14 1_555 1_555
H2 C15 1_555 1_555
H3 C16 1_555 1_555
H4 C17 1_555 1_555
H5 C2 1_555 1_555
H6 C12 1_555 1_555
H7 C11 1_555 1_555
H8 C9 1_555 1_555
H9 C8 1_555 1_555
H10 C23 1_555 1_555
H11 C24 1_555 1_555
H12 C25 1_555 1_555
H13 C26 1_555 1_555
H14 C27 1_555 1_555
H16 C20 1_555 1_555
H17 C20 1_555 1_555
H19 C21 1_555 1_555
H20 C21 1_555 1_555
N1 C6 1_555 1_555
N2 C5 1_555 1_555
N3 C18 1_555 1_555
O1 C1 1_555 1_555
O2 C1 1_555 1_555
O3 C19 1_555 1_555
C6 O2 1_555 1_555
C11 C12 1_555 1_555
C17 C18 1_555 1_555
C19 N3 1_555 1_555
C20 N3 1_555 1_555
C22 N1 1_555 1_555
N1 N2 1_555 1_555

#END
