
#######################################################################
#
#                 Cambridge Crystallographic Data Centre
#                                CCDC 
#
#######################################################################
#
# If this CIF has been generated from an entry in the Cambridge 
# Structural Database, then it will include bibliographic, chemical, 
# crystal, experimental, refinement or atomic coordinate data resulting 
# from the CCDC's data processing and validation procedures.
#
#######################################################################

data_XAYVOK
_chemical_formula_moiety         'C24 H28 N2 O4'
_chemical_name_systematic        
2-((E)-((3-((E)-(2-Hydroxybenzylidene)aminomethyl)-1,4-dioxaspiro[4.5]decan-2-yl)methyl)iminomethyl)phenol
_symmetry_cell_setting           monoclinic
_symmetry_space_group_name_H-M   'P 21'
_symmetry_Int_Tables_number      4
_space_group_name_Hall           'P 2yb'
loop_
_symmetry_equiv_pos_site_id
_symmetry_equiv_pos_as_xyz
1 x,y,z
2 -x,1/2+y,-z
_cell_length_a                   5.7443(8)
_cell_length_b                   21.558(3)
_cell_length_c                   9.0075(11)
_cell_angle_alpha                90
_cell_angle_beta                 95.074(6)
_cell_angle_gamma                90
_cell_volume                     1111.08
_exptl_crystal_colour            colorless
_exptl_crystal_description       block
_chemical_melting_point          '360.45-361.25 K'
_cell_formula_units_Z            2
_exptl_crystal_recrystallization_method ethanol
loop_
_atom_site_label
_atom_site_type_symbol
_atom_site_fract_x
_atom_site_fract_y
_atom_site_fract_z
O1 O 0.7032(5) 0.0442(2) 0.2755(3)
N1 N 0.4452(7) 0.19135(19) 0.6142(4)
N2 N 0.7647(7) -0.01611(17) 0.5564(4)
O2 O 0.3731(6) -0.0730(2) 0.5143(5)
H1 H 0.4865 -0.0579 0.4784
O3 O 0.1145(9) 0.1775(2) 0.7908(5)
C1 C 0.2202(10) 0.2762(2) 0.6925(5)
C2 C 0.8210(8) -0.0504(2) 0.6661(5)
H2 H 0.9640 -0.0443 0.7209
C3 C 0.7982(8) 0.0768(2) 0.4043(5)
H3 H 0.9080 0.1086 0.3760
C4 C 0.5846(8) 0.1074(2) 0.4606(5)
H4 H 0.5118 0.0790 0.5278
C5 C 0.4466(9) -0.1094(2) 0.6303(6)
C6 C 0.6671(8) -0.0998(2) 0.7097(5)
C7 C 0.0807(9) 0.2405(2) 0.7772(5)
C8 C 0.9224(7) 0.0312(2) 0.5111(5)
H5 H 1.0488 0.0118 0.4636
H6 H 0.9898 0.0533 0.5985
C9 C 0.4048(11) 0.2486(3) 0.6123(6)
H7 H 0.4955 0.2744 0.5579
C10 C 0.6410(11) 0.1678(3) 0.5390(7)
C11 C 0.5053(8) 0.0777(3) 0.2129(5)
C12 C 0.4141(10) 0.0380(3) -0.0967(5)
H8 H 0.4493 0.0136 -0.1824
H9 H 0.2772 0.0630 -0.1254
C13 C -0.1293(12) 0.3299(3) 0.8382(8)
H10 H -0.2521 0.3474 0.8844
C14 C 0.3642(11) -0.0043(3) 0.0280(6)
H11 H 0.4974 -0.0312 0.0527
H12 H 0.2301 -0.0301 -0.0024
C15 C 0.3780(13) -0.1954(3) 0.7878(8)
H13 H 0.2854 -0.2288 0.8112
C16 C 0.1847(16) 0.3400(3) 0.6869(7)
H14 H 0.2806 0.3647 0.6336
C17 C 0.3060(11) -0.1579(3) 0.6720(7)
H15 H 0.1612 -0.1646 0.6198
C18 C 0.6157(11) 0.0792(3) -0.0503(6)
H16 H 0.6461 0.1062 -0.1326
H17 H 0.7540 0.0541 -0.0260
C19 C -0.0925(11) 0.2673(3) 0.8512(7)
H18 H -0.1835 0.2433 0.9094
C20 C 0.7323(12) -0.1387(4) 0.8281(7)
H19 H 0.8785 -0.1336 0.8798
C21 C 0.3153(9) 0.0337(3) 0.1633(6)
H20 H 0.1719 0.0569 0.1403
H21 H 0.2906 0.0057 0.2447
C22 C 0.5689(10) 0.1184(3) 0.0836(6)
H22 H 0.4417 0.1469 0.0562
H23 H 0.7069 0.1426 0.1149
C23 C 0.0057(15) 0.3675(3) 0.7606(7)
H24 H -0.0195 0.4101 0.7565
C24 C 0.5884(14) -0.1845(4) 0.8717(8)
H25 H 0.6310 -0.2080 0.9564
H26 H 0.682(10) 0.196(3) 0.479(7)
H27 H 0.802(9) 0.158(2) 0.614(6)
H28 H 0.237(13) 0.175(4) 0.752(9)
O4 O 0.4339(7) 0.1163(3) 0.3301(4)
loop_
_geom_bond_atom_site_label_1
_geom_bond_atom_site_label_2
_geom_bond_site_symmetry_1
_geom_bond_site_symmetry_2
O1 C3 1_555 1_555
N1 C9 1_555 1_555
N2 C2 1_555 1_555
O2 H1 1_555 1_555
O3 C7 1_555 1_555
C1 C7 1_555 1_555
C2 H2 1_555 1_555
C3 H3 1_555 1_555
C4 C3 1_555 1_555
H4 C4 1_555 1_555
C5 O2 1_555 1_555
C6 C2 1_555 1_555
C7 C19 1_555 1_555
C8 N2 1_555 1_555
H5 C8 1_555 1_555
H6 C8 1_555 1_555
C9 C1 1_555 1_555
H7 C9 1_555 1_555
C10 N1 1_555 1_555
C11 O1 1_555 1_555
C12 H8 1_555 1_555
H9 C12 1_555 1_555
C13 H10 1_555 1_555
C14 C12 1_555 1_555
H11 C14 1_555 1_555
H12 C14 1_555 1_555
C15 H13 1_555 1_555
C16 C1 1_555 1_555
H14 C16 1_555 1_555
C17 C5 1_555 1_555
H15 C17 1_555 1_555
C18 C12 1_555 1_555
H16 C18 1_555 1_555
H17 C18 1_555 1_555
C19 C13 1_555 1_555
H18 C19 1_555 1_555
C20 C6 1_555 1_555
H19 C20 1_555 1_555
C21 C11 1_555 1_555
H20 C21 1_555 1_555
H21 C21 1_555 1_555
C22 C11 1_555 1_555
H22 C22 1_555 1_555
H23 C22 1_555 1_555
C23 C13 1_555 1_555
H24 C23 1_555 1_555
C24 C15 1_555 1_555
H25 C24 1_555 1_555
H26 C10 1_555 1_555
H27 C10 1_555 1_555
H28 O3 1_555 1_555
O4 C4 1_555 1_555
C3 C8 1_555 1_555
C4 C10 1_555 1_555
C5 C6 1_555 1_555
C11 O4 1_555 1_555
C14 C21 1_555 1_555
C15 C17 1_555 1_555
C16 C23 1_555 1_555
C18 C22 1_555 1_555
C20 C24 1_555 1_555

#END
