
#######################################################################
#
#                 Cambridge Crystallographic Data Centre
#                                CCDC 
#
#######################################################################
#
# If this CIF has been generated from an entry in the Cambridge 
# Structural Database, then it will include bibliographic, chemical, 
# crystal, experimental, refinement or atomic coordinate data resulting 
# from the CCDC's data processing and validation procedures.
#
#######################################################################

data_XAYYED
_chemical_formula_moiety         'C31 H37 Cl1 N4 O3'
_chemical_name_systematic        
'Ethyl 3-(4-chlorophenyl)-2-(dipentylamino)-4-oxo-5-phenyl-4,5-dihydro-3H-pyrrolo[3,2-d]pyrimidine-7-carboxylate'
_symmetry_cell_setting           triclinic
_symmetry_space_group_name_H-M   'P -1'
_symmetry_Int_Tables_number      2
_space_group_name_Hall           '-P 1'
loop_
_symmetry_equiv_pos_site_id
_symmetry_equiv_pos_as_xyz
1 x,y,z
2 -x,-y,-z
_cell_length_a                   9.661(3)
_cell_length_b                   12.422(4)
_cell_length_c                   14.007(4)
_cell_angle_alpha                72.110(5)
_cell_angle_beta                 82.697(6)
_cell_angle_gamma                70.184(5)
_cell_volume                     1504.47
_exptl_crystal_colour            colorless
_exptl_crystal_description       block
_cell_formula_units_Z            2
_exptl_crystal_recrystallization_method ethanol/dichloromethane
loop_
_atom_site_label
_atom_site_type_symbol
_atom_site_fract_x
_atom_site_fract_y
_atom_site_fract_z
C1 C 0.5649(3) -0.2757(2) 0.17362(19)
C2 C 0.5823(3) -0.2786(2) 0.27016(19)
H1 H 0.6727 -0.3194 0.3008
C3 C 0.4628(3) -0.2197(2) 0.32125(18)
H2 H 0.4721 -0.2216 0.3871
C4 C 0.3302(2) -0.15846(19) 0.27457(16)
C5 C 0.3144(3) -0.1581(2) 0.17863(18)
H3 H 0.2240 -0.1178 0.1479
C6 C 0.4326(3) -0.2176(3) 0.1273(2)
H4 H 0.4223 -0.2181 0.0623
C7 C 0.1369(2) 0.02435(19) 0.29938(16)
C8 C -0.0692(2) 0.00511(18) 0.39051(15)
C9 C -0.0072(2) -0.11672(18) 0.42804(15)
C10 C 0.1361(2) -0.17963(19) 0.39785(16)
C11 C 0.3656(3) 0.0775(2) 0.25637(19)
H5 H 0.3991 0.0072 0.3128
H6 H 0.3620 0.1463 0.2768
C12 C 0.4759(3) 0.0666(3) 0.1695(2)
H7 H 0.4629 0.0104 0.1390
H8 H 0.4550 0.1435 0.1192
C13 C 0.6346(3) 0.0259(3) 0.1994(2)
H9 H 0.6489 -0.0405 0.2600
H10 H 0.6529 0.0905 0.2154
C14 C 0.7479(3) -0.0127(4) 0.1196(3)
H11 H 0.7158 -0.0627 0.0920
H12 H 0.7497 0.0578 0.0655
C15 C 0.8970(4) -0.0774(4) 0.1548(3)
H13 H 0.9267 -0.0326 0.1886
H14 H 0.9627 -0.0886 0.0986
H15 H 0.9000 -0.1537 0.2004
C16 C 0.1306(3) 0.2113(2) 0.1768(2)
H16 H 0.1981 0.2542 0.1420
H17 H 0.0733 0.2519 0.2249
C17 C 0.0288(4) 0.2168(3) 0.1022(2)
H18 H -0.0349 0.1701 0.1364
H19 H 0.0868 0.1799 0.0520
C18 C -0.0650(4) 0.3403(3) 0.0502(3)
H20 H -0.0011 0.3863 0.0149
H21 H -0.1211 0.3776 0.1006
C19 C -0.1715(7) 0.3471(4) -0.0243(4)
H22 H -0.1143 0.3089 -0.0740
H23 H -0.2340 0.3000 0.0115
C20 C -0.2658(8) 0.4638(5) -0.0773(5)
H24 H -0.3324 0.4994 -0.0303
H25 H -0.3209 0.4558 -0.1257
H26 H -0.2067 0.5134 -0.1110
C21 C -0.2389(2) -0.07124(19) 0.48391(16)
H27 H -0.3270 -0.0786 0.5160
C22 C -0.0964(2) -0.28502(19) 0.53985(16)
C23 C -0.1896(3) -0.3390(2) 0.5213(2)
H28 H -0.2614 -0.2964 0.4732
C24 C -0.1771(4) -0.4547(3) 0.5732(3)
H29 H -0.2385 -0.4917 0.5598
C25 C -0.0728(4) -0.5153(3) 0.6453(3)
H30 H -0.0638 -0.5939 0.6813
C26 C 0.0186(4) -0.4612(3) 0.6650(2)
H31 H 0.0882 -0.5031 0.7146
C27 C 0.0080(3) -0.3454(2) 0.61195(18)
H32 H 0.0705 -0.3089 0.6247
C28 C -0.3371(3) 0.1472(2) 0.41352(18)
O1 O -0.3074(8) 0.2389(6) 0.3374(4)
C29 C -0.4238(12) 0.3582(9) 0.3102(8)
H33 H -0.5180 0.3480 0.3066
H34 H -0.4004 0.4054 0.2448
C30 C -0.4335(10) 0.4226(8) 0.3879(7)
H35 H -0.4741 0.3836 0.4497
H36 H -0.4957 0.5038 0.3643
H37 H -0.3369 0.4213 0.3991
C31 C -0.2180(2) 0.03478(19) 0.42781(16)
Cl1 Cl 0.71506(9) -0.34780(9) 0.10790(6)
N1 N 0.20328(18) -0.09956(15) 0.32853(13)
N2 N 0.00551(19) 0.07781(15) 0.32903(13)
N3 N -0.11308(19) -0.16311(15) 0.48561(13)
N4 N 0.2161(2) 0.09019(17) 0.23112(15)
O2 O 0.19808(19) -0.28622(14) 0.41939(15)
O3 O -0.45802(18) 0.15757(16) 0.45300(16)
C32? C -0.4027(9) 0.3551(6) 0.3531(7)
C33? C -0.4826(14) 0.3907(12) 0.2571(9)
H38? H -0.3579 0.4150 0.3506
H39? H -0.4738 0.3540 0.4087
H40? H -0.4127 0.3869 0.2021
H41? H -0.5492 0.4707 0.2461
H42? H -0.5371 0.3373 0.2620
O4? O -0.2896(9) 0.2395(7) 0.3724(5)
loop_
_geom_bond_atom_site_label_1
_geom_bond_atom_site_label_2
_geom_bond_site_symmetry_1
_geom_bond_site_symmetry_2
C1 C2 1_555 1_555
C2 H1 1_555 1_555
C3 C2 1_555 1_555
H2 C3 1_555 1_555
C4 C3 1_555 1_555
C5 C4 1_555 1_555
H3 C5 1_555 1_555
C6 C1 1_555 1_555
H4 C6 1_555 1_555
C7 N1 1_555 1_555
C8 C9 1_555 1_555
C9 C10 1_555 1_555
C10 N1 1_555 1_555
C11 H5 1_555 1_555
H6 C11 1_555 1_555
C12 C11 1_555 1_555
H7 C12 1_555 1_555
H8 C12 1_555 1_555
C13 C12 1_555 1_555
H9 C13 1_555 1_555
H10 C13 1_555 1_555
C14 C13 1_555 1_555
H11 C14 1_555 1_555
H12 C14 1_555 1_555
C15 C14 1_555 1_555
H13 C15 1_555 1_555
H14 C15 1_555 1_555
H15 C15 1_555 1_555
C16 H16 1_555 1_555
H17 C16 1_555 1_555
C17 C16 1_555 1_555
H18 C17 1_555 1_555
H19 C17 1_555 1_555
C18 C17 1_555 1_555
H20 C18 1_555 1_555
H21 C18 1_555 1_555
C19 C18 1_555 1_555
H22 C19 1_555 1_555
H23 C19 1_555 1_555
C20 C19 1_555 1_555
H24 C20 1_555 1_555
H25 C20 1_555 1_555
H26 C20 1_555 1_555
C21 H27 1_555 1_555
C22 C23 1_555 1_555
C23 H28 1_555 1_555
C24 C23 1_555 1_555
H29 C24 1_555 1_555
C25 C24 1_555 1_555
H30 C25 1_555 1_555
C26 C25 1_555 1_555
H31 C26 1_555 1_555
C27 C22 1_555 1_555
H32 C27 1_555 1_555
C28 O1 1_555 1_555
O1 C29 1_555 1_555
C29 H33 1_555 1_555
H34 C29 1_555 1_555
C30 C29 1_555 1_555
H35 C30 1_555 1_555
H36 C30 1_555 1_555
H37 C30 1_555 1_555
C31 C8 1_555 1_555
Cl1 C1 1_555 1_555
N1 C4 1_555 1_555
N2 C7 1_555 1_555
N3 C9 1_555 1_555
N4 C7 1_555 1_555
O2 C10 1_555 1_555
O3 C28 1_555 1_555
C5 C6 1_555 1_555
C8 N2 1_555 1_555
C11 N4 1_555 1_555
C16 N4 1_555 1_555
C21 C31 1_555 1_555
C21 N3 1_555 1_555
C22 N3 1_555 1_555
C26 C27 1_555 1_555
C28 C31 1_555 1_555

#END
