
#######################################################################
#
#                 Cambridge Crystallographic Data Centre
#                                CCDC 
#
#######################################################################
#
# If this CIF has been generated from an entry in the Cambridge 
# Structural Database, then it will include bibliographic, chemical, 
# crystal, experimental, refinement or atomic coordinate data resulting 
# from the CCDC's data processing and validation procedures.
#
#######################################################################

data_XAYZON
_chemical_name_common            Dimethyldaidzein
_chemical_formula_moiety         'C17 H14 O4'
_chemical_name_systematic        4',7-Dimethoxyisoflavone
_chemical_properties_biological  
'Daidzein inhibits cancer cell growth, accelerates formation of bone cells, helps balance female hormones'
_symmetry_cell_setting           monoclinic
_symmetry_space_group_name_H-M   'P 21/c'
_symmetry_Int_Tables_number      14
_space_group_name_Hall           '-P 2ybc'
loop_
_symmetry_equiv_pos_site_id
_symmetry_equiv_pos_as_xyz
1 x,y,z
2 -x,1/2+y,1/2-z
3 -x,-y,-z
4 x,1/2-y,1/2+z
_cell_length_a                   11.166(2)
_cell_length_b                   8.462(1)
_cell_length_c                   15.070(2)
_cell_angle_alpha                90
_cell_angle_beta                 109.34(1)
_cell_angle_gamma                90
_cell_volume                     1343.56
_exptl_crystal_colour            colorless
_exptl_crystal_description       cube
_chemical_melting_point          '431-432 K'
_cell_formula_units_Z            4
_exptl_crystal_recrystallization_method 'ethyl acetate'
loop_
_atom_site_label
_atom_site_type_symbol
_atom_site_fract_x
_atom_site_fract_y
_atom_site_fract_z
O1 O 0.28079(9) 0.48054(11) 0.56144(7)
O2 O 0.22027(9) 0.86765(11) 0.70206(7)
O3 O -0.07536(10) 0.60973(13) 0.29401(7)
O4 O 0.68408(10) 0.68726(12) 1.07593(7)
C1 C 0.18141(12) 0.57987(15) 0.51867(10)
C2 C 0.10932(13) 0.54124(16) 0.42725(10)
H1 H 0.1305 0.4552 0.3970
C3 C 0.00571(13) 0.63347(16) 0.38254(9)
C4 C -0.02504(14) 0.76320(17) 0.42922(10)
H2 H -0.0960 0.8245 0.3990
C5 C 0.04896(14) 0.79902(16) 0.51860(10)
H3 H 0.0279 0.8854 0.5486
C6 C 0.15638(12) 0.70851(14) 0.56652(9)
C7 C 0.23718(12) 0.74692(15) 0.66195(9)
C8 C 0.33887(12) 0.63223(15) 0.70469(9)
C9 C 0.35154(13) 0.50896(16) 0.65198(10)
H4 H 0.4151 0.4363 0.6806
C10 C 0.42684(12) 0.64889(15) 0.80308(9)
C11 C 0.54996(13) 0.58589(16) 0.83042(10)
H5 H 0.5772 0.5344 0.7860
C12 C 0.63110(13) 0.59846(16) 0.92125(10)
H6 H 0.7117 0.5539 0.9377
C13 C 0.59418(13) 0.67677(16) 0.98855(10)
C14 C 0.47339(14) 0.73862(18) 0.96391(10)
H7 H 0.4470 0.7901 1.0087
C15 C 0.39111(13) 0.72412(16) 0.87230(10)
H8 H 0.3097 0.7660 0.8568
C16 C -0.04704(15) 0.48597(19) 0.23922(10)
H9 H 0.0339 0.5058 0.2320
H10 H -0.1115 0.4826 0.1784
H11 H -0.0445 0.3866 0.2705
C17 C 0.65143(16) 0.7724(2) 1.14598(11)
H12 H 0.6324 0.8800 1.1261
H13 H 0.7214 0.7701 1.2039
H14 H 0.5785 0.7247 1.1552
loop_
_geom_bond_atom_site_label_1
_geom_bond_atom_site_label_2
_geom_bond_site_symmetry_1
_geom_bond_site_symmetry_2
O1 C1 1_555 1_555
O2 C7 1_555 1_555
O3 C3 1_555 1_555
O4 C13 1_555 1_555
C1 C2 1_555 1_555
C2 H1 1_555 1_555
C3 C2 1_555 1_555
C4 C3 1_555 1_555
H2 C4 1_555 1_555
C5 C4 1_555 1_555
H3 C5 1_555 1_555
C6 C1 1_555 1_555
C7 C6 1_555 1_555
C8 C7 1_555 1_555
C9 O1 1_555 1_555
H4 C9 1_555 1_555
C10 C8 1_555 1_555
C11 C10 1_555 1_555
H5 C11 1_555 1_555
C12 C11 1_555 1_555
H6 C12 1_555 1_555
C13 C12 1_555 1_555
C14 C13 1_555 1_555
H7 C14 1_555 1_555
C15 C10 1_555 1_555
H8 C15 1_555 1_555
C16 O3 1_555 1_555
H9 C16 1_555 1_555
H10 C16 1_555 1_555
H11 C16 1_555 1_555
C17 O4 1_555 1_555
H12 C17 1_555 1_555
H13 C17 1_555 1_555
H14 C17 1_555 1_555
C5 C6 1_555 1_555
C8 C9 1_555 1_555
C14 C15 1_555 1_555

#END
