
#######################################################################
#
#                 Cambridge Crystallographic Data Centre
#                                CCDC 
#
#######################################################################
#
# If this CIF has been generated from an entry in the Cambridge 
# Structural Database, then it will include bibliographic, chemical, 
# crystal, experimental, refinement or atomic coordinate data resulting 
# from the CCDC's data processing and validation procedures.
#
#######################################################################

data_XAYZEF
_chemical_formula_moiety         'C28 H25 N3 O1'
_chemical_name_systematic        
2-benzyl-N-methyl-N,3,3-triphenyl-2,3-dihydro-1,2,4-oxadiazol-5-amine
_symmetry_cell_setting           orthorhombic
_symmetry_space_group_name_H-M   'P b c a'
_symmetry_Int_Tables_number      61
_space_group_name_Hall           '-P 2ac 2ab'
loop_
_symmetry_equiv_pos_site_id
_symmetry_equiv_pos_as_xyz
1 x,y,z
2 1/2-x,-y,1/2+z
3 1/2+x,1/2-y,-z
4 -x,1/2+y,1/2-z
5 -x,-y,-z
6 1/2+x,y,1/2-z
7 1/2-x,1/2+y,z
8 x,1/2-y,1/2+z
_cell_length_a                   20.8249(4)
_cell_length_b                   8.55531(17)
_cell_length_c                   24.3304(5)
_cell_angle_alpha                90
_cell_angle_beta                 90
_cell_angle_gamma                90
_cell_volume                     4334.79
_exptl_crystal_colour            colorless
_exptl_crystal_description       prism
_cell_formula_units_Z            8
loop_
_atom_site_label
_atom_site_type_symbol
_atom_site_fract_x
_atom_site_fract_y
_atom_site_fract_z
O1 O 0.36091(4) 0.85403(10) 0.32457(4)
N1 N 0.40364(5) 0.73323(12) 0.34660(4)
N2 N 0.40731(5) 0.96393(12) 0.39984(4)
N3 N 0.35096(5) 1.11965(13) 0.33509(5)
C1 C 0.37555(5) 0.98485(15) 0.35536(5)
C2 C 0.33271(6) 1.13529(15) 0.27844(6)
C3 C 0.47637(6) 0.73811(15) 0.42793(5)
C4 C 0.41271(5) 0.79247(14) 0.40408(5)
C5 C 0.35783(6) 0.73258(14) 0.44083(5)
C6 C 0.35687(6) 0.78025(15) 0.49576(5)
H1 H 0.3889 0.8463 0.5088
C7 C 0.44640(6) 0.69253(15) 0.25345(5)
C8 C 0.51803(6) 0.84261(16) 0.45294(5)
H2 H 0.5076 0.9482 0.4546
C9 C 0.49222(6) 0.57971(16) 0.42640(5)
H3 H 0.4636 0.5084 0.4111
C10 C 0.55034(6) 0.52773(16) 0.44751(5)
H4 H 0.5613 0.4226 0.4450
C11 C 0.30936(6) 0.63452(15) 0.42178(5)
H5 H 0.3092 0.6025 0.3853
C12 C 0.47165(7) 0.70276(18) 0.15662(6)
H6 H 0.4970 0.7406 0.1281
C13 C 0.37170(6) 1.07668(16) 0.23688(5)
H7 H 0.4101 1.0272 0.2457
C14 C 0.35270(7) 1.25997(16) 0.36936(6)
H8 H 0.3722 1.2356 0.4041
H9 H 0.3097 1.2969 0.3753
H10 H 0.3773 1.3396 0.3512
C15 C 0.39747(6) 0.58686(16) 0.24186(6)
H11 H 0.3726 0.5467 0.2703
C16 C 0.57559(6) 0.78957(16) 0.47571(6)
H12 H 0.6029 0.8597 0.4932
C17 C 0.38552(7) 0.54099(18) 0.18809(6)
H13 H 0.3526 0.4706 0.1807
C18 C 0.26056(6) 0.63215(16) 0.51189(6)
H14 H 0.2282 0.5988 0.5355
C19 C 0.46132(6) 0.74258(15) 0.31161(5)
H15 H 0.4946 0.6758 0.3266
H16 H 0.4773 0.8491 0.3114
C20 C 0.26089(6) 0.58400(16) 0.45750(6)
H17 H 0.2288 0.5178 0.4447
C21 C 0.30885(6) 0.73063(16) 0.53120(6)
H18 H 0.3089 0.7629 0.5677
C22 C 0.48347(6) 0.75034(16) 0.21028(5)
H19 H 0.5163 0.8212 0.2174
C23 C 0.42223(7) 0.59910(19) 0.14540(6)
H20 H 0.4138 0.5689 0.1094
C24 C 0.59225(6) 0.63317(17) 0.47240(5)
H21 H 0.6312 0.5987 0.4867
C25 C 0.35336(7) 1.09189(18) 0.18214(6)
H22 H 0.3789 1.0500 0.1545
C26 C 0.27656(7) 1.21423(18) 0.26514(7)
H23 H 0.2508 1.2555 0.2928
C27 C 0.29692(8) 1.1697(2) 0.16889(7)
H24 H 0.2846 1.1802 0.1323
C28 C 0.25908(7) 1.2313(2) 0.21018(8)
H25 H 0.2216 1.2846 0.2012
H26? H 0.3853 0.6367 0.3458
loop_
_geom_bond_atom_site_label_1
_geom_bond_atom_site_label_2
_geom_bond_site_symmetry_1
_geom_bond_site_symmetry_2
O1 N1 1_555 1_555
N1 C4 1_555 1_555
N2 C1 1_555 1_555
N3 C1 1_555 1_555
C1 O1 1_555 1_555
C2 N3 1_555 1_555
C3 C4 1_555 1_555
C4 N2 1_555 1_555
C5 C4 1_555 1_555
C6 C5 1_555 1_555
H1 C6 1_555 1_555
C7 C15 1_555 1_555
C8 C3 1_555 1_555
H2 C8 1_555 1_555
C9 C3 1_555 1_555
H3 C9 1_555 1_555
C10 C9 1_555 1_555
H4 C10 1_555 1_555
C11 C5 1_555 1_555
H5 C11 1_555 1_555
C12 H6 1_555 1_555
C13 C2 1_555 1_555
H7 C13 1_555 1_555
C14 N3 1_555 1_555
H8 C14 1_555 1_555
H9 C14 1_555 1_555
H10 C14 1_555 1_555
C15 H11 1_555 1_555
C16 C8 1_555 1_555
H12 C16 1_555 1_555
C17 C15 1_555 1_555
H13 C17 1_555 1_555
C18 H14 1_555 1_555
C19 N1 1_555 1_555
H15 C19 1_555 1_555
H16 C19 1_555 1_555
C20 C11 1_555 1_555
H17 C20 1_555 1_555
C21 C6 1_555 1_555
H18 C21 1_555 1_555
C22 C7 1_555 1_555
H19 C22 1_555 1_555
C23 C12 1_555 1_555
H20 C23 1_555 1_555
C24 C10 1_555 1_555
H21 C24 1_555 1_555
C25 C13 1_555 1_555
H22 C25 1_555 1_555
C26 C2 1_555 1_555
H23 C26 1_555 1_555
C27 C25 1_555 1_555
H24 C27 1_555 1_555
C28 C26 1_555 1_555
H25 C28 1_555 1_555
C7 C19 1_555 1_555
C12 C22 1_555 1_555
C16 C24 1_555 1_555
C17 C23 1_555 1_555
C18 C20 1_555 1_555
C18 C21 1_555 1_555
C27 C28 1_555 1_555

#END
