
#######################################################################
#
#                 Cambridge Crystallographic Data Centre
#                                CCDC 
#
#######################################################################
#
# If this CIF has been generated from an entry in the Cambridge 
# Structural Database, then it will include bibliographic, chemical, 
# crystal, experimental, refinement or atomic coordinate data resulting 
# from the CCDC's data processing and validation procedures.
#
#######################################################################

data_XAZBUX
_chemical_formula_moiety         'C20 H19 Br1 F2 N3 O2 1+,N1 O3 1-'
_chemical_name_systematic        
'1-((Z)-1-(3-(4-Bromophenoxy)propoxy)-1-(2,4-difluorophenyl)prop-1-en-2-yl)-1H-1,2,4-triazol-4-ium nitrate'
_symmetry_cell_setting           triclinic
_symmetry_space_group_name_H-M   'P -1'
_symmetry_Int_Tables_number      2
_space_group_name_Hall           '-P 1'
loop_
_symmetry_equiv_pos_site_id
_symmetry_equiv_pos_as_xyz
1 x,y,z
2 -x,-y,-z
_cell_length_a                   8.3030(17)
_cell_length_b                   8.4260(17)
_cell_length_c                   16.170(3)
_cell_angle_alpha                91.10(3)
_cell_angle_beta                 95.80(3)
_cell_angle_gamma                102.30(3)
_cell_volume                     1098.68
_exptl_crystal_colour            colorless
_exptl_crystal_description       plate
_cell_formula_units_Z            2
_exptl_crystal_recrystallization_method 'ethyl acetate/ethanol'
loop_
_atom_site_label
_atom_site_type_symbol
_atom_site_fract_x
_atom_site_fract_y
_atom_site_fract_z
Br1 Br 0.98343(10) 0.93868(9) 0.81164(4)
O1 O 0.5622(4) 0.7633(4) 0.2460(2)
N1 N 0.6426(5) 0.4746(5) 0.2587(2)
F1 F -0.0592(5) 0.7759(6) -0.0124(3)
C1 C 0.1701(7) 0.5970(7) 0.1459(3)
H1 H 0.1495 0.5219 0.1871
O2 O 0.7624(4) 1.0648(4) 0.4584(2)
F2 F 0.5119(5) 0.8501(5) 0.0607(2)
N2 N 0.7812(5) 0.4226(5) 0.2392(3)
C2 C 0.0372(7) 0.6312(8) 0.0959(4)
H2 H -0.0714 0.5805 0.1027
N3 N 0.7821(5) 0.4579(5) 0.3707(3)
H3 H 0.8152 0.4614 0.4230
C3 C 0.0711(8) 0.7408(8) 0.0371(4)
C4 C 0.2289(8) 0.8143(8) 0.0214(4)
H4 H 0.2481 0.8853 -0.0216
C5 C 0.3555(7) 0.7772(7) 0.0724(3)
C6 C 0.3333(6) 0.6713(6) 0.1366(3)
C7 C 0.4737(6) 0.6405(6) 0.1930(3)
C8 C 0.5168(6) 0.4976(6) 0.1943(3)
C9 C 0.8628(7) 0.4159(6) 0.3118(4)
H5 H 0.9642 0.3854 0.3204
C10 C 0.6445(6) 0.4938(6) 0.3394(3)
H6 H 0.5645 0.5261 0.3681
C11 C 0.4530(8) 0.3536(7) 0.1346(4)
H7 H 0.3712 0.3784 0.0935
H8 H 0.4040 0.2615 0.1645
H9 H 0.5432 0.3289 0.1077
C12 C 0.4855(7) 0.8956(6) 0.2671(3)
H10 H 0.3866 0.8547 0.2941
H11 H 0.4542 0.9490 0.2172
C13 C 0.6100(7) 1.0130(6) 0.3248(3)
H12 H 0.5696 1.1117 0.3321
H13 H 0.7131 1.0415 0.2997
C14 C 0.6429(7) 0.9442(6) 0.4086(3)
H14 H 0.5411 0.9168 0.4348
H15 H 0.6851 0.8463 0.4023
C15 C 0.8075(6) 1.0270(6) 0.5371(3)
C16 C 0.9266(7) 1.1447(6) 0.5838(4)
H16 H 0.9712 1.2414 0.5598
C17 C 0.9793(7) 1.1207(7) 0.6646(4)
H17 H 1.0592 1.2002 0.6952
C18 C 0.9121(7) 0.9758(7) 0.7007(3)
C19 C 0.7945(7) 0.8595(7) 0.6547(4)
H18 H 0.7494 0.7628 0.6786
C20 C 0.7436(7) 0.8845(6) 0.5745(4)
H19 H 0.6643 0.8041 0.5441
O3 O 0.8591(4) 0.5077(4) 0.5425(2)
N4 N 0.7288(6) 0.4501(5) 0.5751(3)
O4 O 0.7345(5) 0.4623(5) 0.6516(3)
O5 O 0.6014(5) 0.3882(5) 0.5316(3)
loop_
_geom_bond_atom_site_label_1
_geom_bond_atom_site_label_2
_geom_bond_site_symmetry_1
_geom_bond_site_symmetry_2
Br1 C18 1_555 1_555
O1 C7 1_555 1_555
N1 N2 1_555 1_555
F1 C3 1_555 1_555
C1 H1 1_555 1_555
O2 C14 1_555 1_555
F2 C5 1_555 1_555
N2 C9 1_555 1_555
C2 C1 1_555 1_555
H2 C2 1_555 1_555
N3 H3 1_555 1_555
C3 C2 1_555 1_555
C4 C3 1_555 1_555
H4 C4 1_555 1_555
C5 C4 1_555 1_555
C6 C1 1_555 1_555
C7 C6 1_555 1_555
C8 N1 1_555 1_555
C9 N3 1_555 1_555
H5 C9 1_555 1_555
C10 N1 1_555 1_555
H6 C10 1_555 1_555
C11 C8 1_555 1_555
H7 C11 1_555 1_555
H8 C11 1_555 1_555
H9 C11 1_555 1_555
C12 O1 1_555 1_555
H10 C12 1_555 1_555
H11 C12 1_555 1_555
C13 C12 1_555 1_555
H12 C13 1_555 1_555
H13 C13 1_555 1_555
C14 C13 1_555 1_555
H14 C14 1_555 1_555
H15 C14 1_555 1_555
C15 O2 1_555 1_555
C16 C15 1_555 1_555
H16 C16 1_555 1_555
C17 C16 1_555 1_555
H17 C17 1_555 1_555
C18 C17 1_555 1_555
C19 C18 1_555 1_555
H18 C19 1_555 1_555
C20 C15 1_555 1_555
H19 C20 1_555 1_555
O3 N4 1_555 1_555
N4 O4 1_555 1_555
O5 N4 1_555 1_555
N3 C10 1_555 1_555
C5 C6 1_555 1_555
C7 C8 1_555 1_555
C19 C20 1_555 1_555

#END
