
#######################################################################
#
#                 Cambridge Crystallographic Data Centre
#                                CCDC 
#
#######################################################################
#
# If this CIF has been generated from an entry in the Cambridge 
# Structural Database, then it will include bibliographic, chemical, 
# crystal, experimental, refinement or atomic coordinate data resulting 
# from the CCDC's data processing and validation procedures.
#
#######################################################################

data_XAZCOT
_chemical_formula_moiety         'C18 H17 N1 O2'
_chemical_name_systematic        
3,5-dimethyl-3-(2-oxo-2-phenylethyl)isoindolin-1-one
_symmetry_cell_setting           triclinic
_symmetry_space_group_name_H-M   'P -1'
_symmetry_Int_Tables_number      2
_space_group_name_Hall           '-P 1'
loop_
_symmetry_equiv_pos_site_id
_symmetry_equiv_pos_as_xyz
1 x,y,z
2 -x,-y,-z
_cell_length_a                   7.3719(3)
_cell_length_b                   8.0356(3)
_cell_length_c                   12.4786(5)
_cell_angle_alpha                82.255(2)
_cell_angle_beta                 78.930(2)
_cell_angle_gamma                86.099(2)
_cell_volume                     718.155
_exptl_crystal_colour            colorless
_exptl_crystal_description       block
_cell_formula_units_Z            2
loop_
_atom_site_label
_atom_site_type_symbol
_atom_site_fract_x
_atom_site_fract_y
_atom_site_fract_z
C1 C 0.34195(18) 0.03215(17) 0.27912(10)
H1 H 0.3695 0.0580 0.2013
C2 C 0.32846(16) 0.15979(15) 0.34566(10)
H2 H 0.3494 0.2725 0.3134
C3 C -0.04455(17) 0.26225(16) 0.89419(10)
H3 H -0.1402 0.2393 0.8577
C4 C 0.02647(17) 0.51344(16) 0.67160(10)
H4 H -0.0963 0.4661 0.6917
H5 H 0.0585 0.5396 0.5914
H6 H 0.0254 0.6165 0.7058
O1 O 0.55709(13) 0.48853(12) 0.81856(7)
O2 O 0.33573(12) 0.39902(11) 0.48686(7)
C5 C 0.25449(18) -0.04385(16) 0.50667(10)
H7 H 0.2219 -0.0699 0.5843
C6 C 0.31530(17) -0.13258(17) 0.32627(11)
H8 H 0.3263 -0.2197 0.2807
C7 C 0.11644(16) 0.33227(15) 0.83514(9)
C8 C 0.23951(19) 0.33402(17) 1.00137(10)
H9 H 0.3346 0.3594 1.0376
C9 C 0.0788(2) 0.26147(17) 1.05980(10)
H10 H 0.0654 0.2351 1.1374
C10 C -0.06412(18) 0.22585(16) 1.00858(10)
N1 N 0.34916(14) 0.45916(13) 0.70643(8)
H11 H 0.4135 0.5078 0.6447
C11 C 0.27268(19) -0.17090(16) 0.43966(12)
H12 H 0.2559 -0.2843 0.4716
C12 C 0.28406(15) 0.12206(14) 0.46001(9)
C13 C 0.27607(15) 0.26270(14) 0.52847(9)
C14 C 0.19463(16) 0.22959(15) 0.65017(9)
H13 H 0.2758 0.1449 0.6855
H14 H 0.0725 0.1803 0.6585
C15 C 0.16990(16) 0.38553(15) 0.71210(9)
C16 C 0.25611(16) 0.36816(15) 0.88766(9)
C17 C -0.2395(2) 0.15229(19) 1.07538(12)
H15 H -0.3462 0.2067 1.0465
H16 H -0.2501 0.1710 1.1524
H17 H -0.2361 0.0313 1.0707
C18 C 0.40743(16) 0.44580(14) 0.80456(10)
loop_
_geom_bond_atom_site_label_1
_geom_bond_atom_site_label_2
_geom_bond_site_symmetry_1
_geom_bond_site_symmetry_2
C1 H1 1_555 1_555
C2 C1 1_555 1_555
H2 C2 1_555 1_555
C3 H3 1_555 1_555
C4 H4 1_555 1_555
H5 C4 1_555 1_555
H6 C4 1_555 1_555
O1 C18 1_555 1_555
O2 C13 1_555 1_555
C5 H7 1_555 1_555
C6 C1 1_555 1_555
H8 C6 1_555 1_555
C7 C3 1_555 1_555
C8 H9 1_555 1_555
C9 C8 1_555 1_555
H10 C9 1_555 1_555
C10 C3 1_555 1_555
N1 H11 1_555 1_555
C11 C5 1_555 1_555
H12 C11 1_555 1_555
C12 C2 1_555 1_555
C13 C12 1_555 1_555
C14 C13 1_555 1_555
H13 C14 1_555 1_555
H14 C14 1_555 1_555
C15 C4 1_555 1_555
C16 C7 1_555 1_555
C17 C10 1_555 1_555
H15 C17 1_555 1_555
H16 C17 1_555 1_555
H17 C17 1_555 1_555
C18 N1 1_555 1_555
C5 C12 1_555 1_555
C6 C11 1_555 1_555
C7 C15 1_555 1_555
C8 C16 1_555 1_555
C9 C10 1_555 1_555
N1 C15 1_555 1_555
C14 C15 1_555 1_555
C16 C18 1_555 1_555

#END
