
#######################################################################
#
#                 Cambridge Crystallographic Data Centre
#                                CCDC 
#
#######################################################################
#
# If this CIF has been generated from an entry in the Cambridge 
# Structural Database, then it will include bibliographic, chemical, 
# crystal, experimental, refinement or atomic coordinate data resulting 
# from the CCDC's data processing and validation procedures.
#
#######################################################################

data_XAZDOT01
_chemical_formula_moiety         'C6 H7 Cl1 N1 1+,Br1 1-'
_chemical_name_systematic        '4-Chloroanilinium bromide'
_symmetry_cell_setting           triclinic
_symmetry_space_group_name_H-M   'P -1'
_symmetry_Int_Tables_number      2
_space_group_name_Hall           '-P 1'
loop_
_symmetry_equiv_pos_site_id
_symmetry_equiv_pos_as_xyz
1 x,y,z
2 -x,-y,-z
_cell_length_a                   4.4980(6)
_cell_length_b                   6.1858(8)
_cell_length_c                   14.4538(18)
_cell_angle_alpha                90.9386(17)
_cell_angle_beta                 94.9448(17)
_cell_angle_gamma                100.0386(13)
_cell_volume                     394.326
_exptl_crystal_colour            colorless
_exptl_crystal_description       plate
_cell_formula_units_Z            2
loop_
_atom_site_label
_atom_site_type_symbol
_atom_site_fract_x
_atom_site_fract_y
_atom_site_fract_z
Br1 Br 0.59094(19) 0.74119(13) 0.92282(10)
C1 C 0.003(2) 0.2663(17) 0.8041(11)
C2 C 0.140(2) 0.0955(19) 0.7824(12)
H1 H 0.1630 -0.0124 0.8252
C3 C 0.243(3) 0.085(3) 0.6966(18)
H2 H 0.3435 -0.0270 0.6806
C4 C 0.196(3) 0.240(5) 0.6359(15)
C5 C 0.059(4) 0.413(3) 0.6583(16)
H3 H 0.0335 0.5188 0.6149
C6 C -0.039(3) 0.429(2) 0.7452(13)
H4 H -0.1304 0.5455 0.7627
Cl1 Cl 0.3177(11) 0.2273(13) 0.5220(5)
N1 N -0.1052(17) 0.2753(11) 0.8971(8)
H5 H -0.2228 0.1482 0.9074
H6 H -0.2110 0.3836 0.9004
H7 H 0.0528 0.2994 0.9398
loop_
_geom_bond_atom_site_label_1
_geom_bond_atom_site_label_2
_geom_bond_site_symmetry_1
_geom_bond_site_symmetry_2
C1 C2 1_555 1_555
C2 H1 1_555 1_555
C3 C2 1_555 1_555
H2 C3 1_555 1_555
C4 C3 1_555 1_555
C5 C4 1_555 1_555
H3 C5 1_555 1_555
C6 C1 1_555 1_555
H4 C6 1_555 1_555
Cl1 C4 1_555 1_555
N1 C1 1_555 1_555
H5 N1 1_555 1_555
H6 N1 1_555 1_555
H7 N1 1_555 1_555
C5 C6 1_555 1_555

#END
