
#######################################################################
#
#                 Cambridge Crystallographic Data Centre
#                                CCDC 
#
#######################################################################
#
# If this CIF has been generated from an entry in the Cambridge 
# Structural Database, then it will include bibliographic, chemical, 
# crystal, experimental, refinement or atomic coordinate data resulting 
# from the CCDC's data processing and validation procedures.
#
#######################################################################

data_XAZGAI
_chemical_formula_moiety         'C8 H5 N1 O4'
_chemical_name_systematic        5-Nitro-1-benzofuran-2(3H)-one
_symmetry_cell_setting           monoclinic
_symmetry_space_group_name_H-M   'P 21/c'
_symmetry_Int_Tables_number      14
_space_group_name_Hall           '-P 2ybc'
loop_
_symmetry_equiv_pos_site_id
_symmetry_equiv_pos_as_xyz
1 x,y,z
2 -x,1/2+y,1/2-z
3 -x,-y,-z
4 x,1/2-y,1/2+z
_cell_length_a                   7.4510(15)
_cell_length_b                   8.9150(18)
_cell_length_c                   11.249(2)
_cell_angle_alpha                90
_cell_angle_beta                 93.45(3)
_cell_angle_gamma                90
_cell_volume                     745.868
_exptl_crystal_colour            yellow
_exptl_crystal_description       block
_chemical_melting_point          '453 K'
_cell_formula_units_Z            4
loop_
_atom_site_label
_atom_site_type_symbol
_atom_site_fract_x
_atom_site_fract_y
_atom_site_fract_z
N1 N 0.8821(2) 0.70812(19) 1.15062(16)
O1 O 0.6163(2) 0.01034(17) 0.87673(13)
C1 C 0.6559(3) 0.1292(2) 0.91761(18)
O2 O 0.62020(18) 0.25817(15) 0.85172(12)
C2 C 0.6802(2) 0.3797(2) 0.91898(15)
O3 O 0.9499(2) 0.67114(19) 1.24720(15)
C3 C 0.7562(2) 0.33732(19) 1.02933(14)
O4 O 0.8753(3) 0.83771(18) 1.11869(17)
C4 C 0.7447(3) 0.1713(2) 1.03692(16)
H1 H 0.6724 0.1404 1.1015
H2 H 0.8632 0.1266 1.0482
C5 C 0.6656(3) 0.5261(2) 0.88133(16)
H3 H 0.6133 0.5509 0.8068
C6 C 0.7322(2) 0.6344(2) 0.95957(16)
H4 H 0.7259 0.7352 0.9385
C7 C 0.8087(2) 0.59213(19) 1.06991(15)
C8 C 0.8230(2) 0.4451(2) 1.10729(15)
H5 H 0.8755 0.4201 1.1818
loop_
_geom_bond_atom_site_label_1
_geom_bond_atom_site_label_2
_geom_bond_site_symmetry_1
_geom_bond_site_symmetry_2
N1 O3 1_555 1_555
O1 C1 1_555 1_555
C1 O2 1_555 1_555
O2 C2 1_555 1_555
C2 C3 1_555 1_555
C3 C4 1_555 1_555
O4 N1 1_555 1_555
C4 C1 1_555 1_555
H1 C4 1_555 1_555
H2 C4 1_555 1_555
C5 C2 1_555 1_555
H3 C5 1_555 1_555
C6 C5 1_555 1_555
H4 C6 1_555 1_555
C7 N1 1_555 1_555
C8 C3 1_555 1_555
H5 C8 1_555 1_555
C6 C7 1_555 1_555
C7 C8 1_555 1_555

#END
