
#######################################################################
#
#                 Cambridge Crystallographic Data Centre
#                                CCDC 
#
#######################################################################
#
# If this CIF has been generated from an entry in the Cambridge 
# Structural Database, then it will include bibliographic, chemical, 
# crystal, experimental, refinement or atomic coordinate data resulting 
# from the CCDC's data processing and validation procedures.
#
#######################################################################

data_XAZHIR
_chemical_formula_moiety         'C12 H13 Cl1 O4'
_chemical_name_systematic        
'2-(2-Chlorophenyl)-5-methyl-1,3-dioxane-5-carboxylic acid'
_symmetry_cell_setting           monoclinic
_symmetry_space_group_name_H-M   'P 21/c'
_symmetry_Int_Tables_number      14
_space_group_name_Hall           '-P 2ybc'
loop_
_symmetry_equiv_pos_site_id
_symmetry_equiv_pos_as_xyz
1 x,y,z
2 -x,1/2+y,1/2-z
3 -x,-y,-z
4 x,1/2-y,1/2+z
_cell_length_a                   9.4452(3)
_cell_length_b                   13.9413(5)
_cell_length_c                   9.37059(18)
_cell_angle_alpha                90
_cell_angle_beta                 102.145(2)
_cell_angle_gamma                90
_cell_volume                     1206.29
_exptl_crystal_colour            colorless
_exptl_crystal_description       block
_chemical_melting_point          '424.2 K'
_cell_formula_units_Z            4
_exptl_crystal_recrystallization_method 'ethyl acetate'
loop_
_atom_site_label
_atom_site_type_symbol
_atom_site_fract_x
_atom_site_fract_y
_atom_site_fract_z
Cl1 Cl 0.64679(5) 0.45963(3) 0.15200(5)
O1 O 0.83817(12) 0.26839(8) 0.27910(12)
C1 C 0.95610(17) 0.13397(12) 0.18663(17)
C2 C 0.96031(17) 0.24125(12) 0.22005(18)
H1 H 1.0508 0.2569 0.2909
H2 H 0.9596 0.2779 0.1294
C3 C 0.80794(17) 0.11189(12) 0.08981(17)
H3 H 0.8003 0.1430 -0.0065
H4 H 0.7978 0.0418 0.0741
C4 C 0.54853(18) 0.37904(12) 0.23610(19)
C5 C 0.50347(18) 0.22009(12) 0.31020(18)
H5 H 0.5253 0.1535 0.3151
C6 C 0.3595(2) 0.35127(14) 0.3641(2)
H6 H 0.2832 0.3748 0.4062
C7 C 0.39209(19) 0.25432(14) 0.3718(2)
H7 H 0.3385 0.2115 0.4190
C8 C 0.43677(19) 0.41421(14) 0.2957(2)
H8 H 0.4135 0.4806 0.2897
C9 C 0.70735(17) 0.24594(11) 0.17837(18)
H9 H 0.7062 0.2786 0.0831
O2 O 0.69428(12) 0.14595(8) 0.15653(12)
C10 C 0.58361(17) 0.28173(12) 0.24141(18)
O3 O 1.05941(15) 0.10910(10) 0.43964(14)
O4 O 0.91722(14) -0.00573(9) 0.32146(14)
C11 C 0.97688(17) 0.07531(12) 0.32671(17)
C12 C 1.07850(19) 0.10862(13) 0.10860(19)
H10 H 1.1703 0.1340 0.1645
H11 H 1.0580 0.1369 0.0107
H12 H 1.0854 0.0388 0.1008
H13 H 1.073(2) 0.0772(17) 0.502(3)
loop_
_geom_bond_atom_site_label_1
_geom_bond_atom_site_label_2
_geom_bond_site_symmetry_1
_geom_bond_site_symmetry_2
Cl1 C4 1_555 1_555
O1 C2 1_555 1_555
C1 C2 1_555 1_555
C2 H1 1_555 1_555
H2 C2 1_555 1_555
C3 C1 1_555 1_555
H3 C3 1_555 1_555
H4 C3 1_555 1_555
C4 C8 1_555 1_555
C5 H5 1_555 1_555
C6 H6 1_555 1_555
C7 C5 1_555 1_555
H7 C7 1_555 1_555
C8 C6 1_555 1_555
H8 C8 1_555 1_555
C9 O1 1_555 1_555
H9 C9 1_555 1_555
O2 C3 1_555 1_555
C10 C4 1_555 1_555
O3 C11 1_555 1_555
O4 C11 1_555 1_555
C11 C1 1_555 1_555
C12 C1 1_555 1_555
H10 C12 1_555 1_555
H11 C12 1_555 1_555
H12 C12 1_555 1_555
H13 O3 1_555 1_555
C5 C10 1_555 1_555
C6 C7 1_555 1_555
C9 O2 1_555 1_555
C9 C10 1_555 1_555

#END
