
#######################################################################
#
#                 Cambridge Crystallographic Data Centre
#                                CCDC 
#
#######################################################################
#
# If this CIF has been generated from an entry in the Cambridge 
# Structural Database, then it will include bibliographic, chemical, 
# crystal, experimental, refinement or atomic coordinate data resulting 
# from the CCDC's data processing and validation procedures.
#
#######################################################################

data_XAZPOF
_chemical_formula_moiety         'C15 H13 F1 N2 O1'
_chemical_name_systematic        
N'-(3-Fluorobenzylidene)-2-methylbenzohydrazide
_symmetry_cell_setting           triclinic
_symmetry_space_group_name_H-M   'P -1'
_symmetry_Int_Tables_number      2
_space_group_name_Hall           '-P 1'
loop_
_symmetry_equiv_pos_site_id
_symmetry_equiv_pos_as_xyz
1 x,y,z
2 -x,-y,-z
_cell_length_a                   7.8516(13)
_cell_length_b                   8.1466(13)
_cell_length_c                   21.158(3)
_cell_angle_alpha                86.668(2)
_cell_angle_beta                 85.806(2)
_cell_angle_gamma                79.772(2)
_cell_volume                     1326.87
_exptl_crystal_colour            colorless
_exptl_crystal_description       block
_cell_formula_units_Z            4
loop_
_atom_site_label
_atom_site_type_symbol
_atom_site_fract_x
_atom_site_fract_y
_atom_site_fract_z
F1 F 0.49294(13) -0.42660(13) 0.33943(6)
N1 N 0.86796(15) 0.01129(14) 0.27473(6)
N2 N 0.95208(15) 0.13387(14) 0.24586(6)
O1 O 0.70015(12) 0.31769(12) 0.24076(5)
C1 C 0.72163(19) -0.27856(18) 0.31576(7)
H1 H 0.6494 -0.1987 0.2922
C2 C 0.6609(2) -0.41226(19) 0.34545(8)
C3 C 0.7605(2) -0.5331(2) 0.38078(8)
H2 H 0.7146 -0.6222 0.4004
C4 C 0.9300(2) -0.5191(2) 0.38638(8)
H3 H 1.0003 -0.5993 0.4105
C5 C 0.9978(2) -0.38669(19) 0.35649(8)
H4 H 1.1137 -0.3798 0.3600
C6 C 0.89381(18) -0.26449(17) 0.32148(6)
C7 C 0.96683(18) -0.12343(17) 0.29124(6)
H5 H 1.0863 -0.1325 0.2841
C8 C 0.85819(17) 0.28570(17) 0.23110(6)
C9 C 0.96279(17) 0.41235(16) 0.20355(6)
C10 C 0.8958(2) 0.53546(18) 0.15847(7)
C11 C 1.0015(2) 0.6487(2) 0.13572(9)
H6 H 0.9606 0.7303 0.1053
C12 C 1.1644(3) 0.6444(2) 0.15654(9)
H7 H 1.2315 0.7221 0.1401
C13 C 1.2274(2) 0.5256(2) 0.20142(9)
H8 H 1.3368 0.5227 0.2160
C14 C 1.12632(19) 0.41004(18) 0.22478(7)
H9 H 1.1688 0.3293 0.2553
C15 C 0.7180(3) 0.5522(3) 0.13424(10)
H10 H 0.6322 0.5901 0.1673
H11 H 0.7008 0.4457 0.1212
H12 H 0.7075 0.6314 0.0987
H25 H 1.0634(14) 0.108(3) 0.2319(9)
F2 F 0.1795(2) -0.2449(2) 0.48808(6)
N3 N 0.38019(14) 0.05746(15) 0.28693(5)
N4 N 0.46524(15) 0.09877(15) 0.23035(5)
O2 O 0.27172(13) 0.01591(14) 0.17023(5)
C16 C 0.2917(2) -0.0634(2) 0.41323(7)
H13 H 0.2941 -0.1400 0.3821
C17 C 0.2317(2) -0.0961(3) 0.47414(9)
C18 C 0.2250(3) 0.0105(3) 0.52174(9)
H14 H 0.1828 -0.0163 0.5625
C19 C 0.2823(3) 0.1588(3) 0.50772(9)
H15 H 0.2789 0.2338 0.5395
C20 C 0.3458(2) 0.1984(3) 0.44652(8)
H16 H 0.3855 0.2987 0.4376
C21 C 0.34927(18) 0.0876(2) 0.39894(7)
C22 C 0.41875(18) 0.1272(2) 0.33473(7)
H17 H 0.4926 0.2051 0.3289
C23 C 0.40720(17) 0.06825(16) 0.17440(6)
C24 C 0.52512(18) 0.10606(17) 0.11860(7)
C25 C 0.4604(2) 0.1922(2) 0.06360(7)
C26 C 0.5812(3) 0.2257(3) 0.01535(9)
H18 H 0.5419 0.2832 -0.0215
C27 C 0.7564(3) 0.1768(3) 0.02029(10)
H19 H 0.8334 0.2020 -0.0129
C28 C 0.8183(2) 0.0910(2) 0.07389(9)
H20 H 0.9370 0.0567 0.0772
C29 C 0.70265(19) 0.0561(2) 0.12286(8)
H21 H 0.7441 -0.0017 0.1594
C30 C 0.2710(2) 0.2514(3) 0.05541(9)
H22 H 0.2566 0.3456 0.0257
H23 H 0.2133 0.2834 0.0955
H24 H 0.2219 0.1629 0.0398
H26 H 0.551(2) 0.157(2) 0.2320(10)
loop_
_geom_bond_atom_site_label_1
_geom_bond_atom_site_label_2
_geom_bond_site_symmetry_1
_geom_bond_site_symmetry_2
F1 C2 1_555 1_555
F2 C17 1_555 1_555
N1 N2 1_555 1_555
N2 C8 1_555 1_555
N3 N4 1_555 1_555
N4 C23 1_555 1_555
O1 C8 1_555 1_555
O2 C23 1_555 1_555
C1 H1 1_555 1_555
C2 C1 1_555 1_555
C3 C2 1_555 1_555
H2 C3 1_555 1_555
C4 C3 1_555 1_555
H3 C4 1_555 1_555
C5 C4 1_555 1_555
H4 C5 1_555 1_555
C6 C1 1_555 1_555
C7 N1 1_555 1_555
H5 C7 1_555 1_555
C8 C9 1_555 1_555
C9 C10 1_555 1_555
C10 C11 1_555 1_555
C11 H6 1_555 1_555
C12 C11 1_555 1_555
H7 C12 1_555 1_555
C13 C12 1_555 1_555
H8 C13 1_555 1_555
C14 C9 1_555 1_555
H9 C14 1_555 1_555
C15 C10 1_555 1_555
H10 C15 1_555 1_555
H11 C15 1_555 1_555
H12 C15 1_555 1_555
C16 H13 1_555 1_555
C17 C16 1_555 1_555
C18 C17 1_555 1_555
H14 C18 1_555 1_555
C19 C18 1_555 1_555
H15 C19 1_555 1_555
C20 C19 1_555 1_555
H16 C20 1_555 1_555
C21 C16 1_555 1_555
C22 N3 1_555 1_555
H17 C22 1_555 1_555
C23 C24 1_555 1_555
C24 C25 1_555 1_555
C25 C26 1_555 1_555
C26 H18 1_555 1_555
C27 C26 1_555 1_555
H19 C27 1_555 1_555
C28 C27 1_555 1_555
H20 C28 1_555 1_555
C29 C24 1_555 1_555
H21 C29 1_555 1_555
C30 C25 1_555 1_555
H22 C30 1_555 1_555
H23 C30 1_555 1_555
H24 C30 1_555 1_555
H25 N2 1_555 1_555
H26 N4 1_555 1_555
C5 C6 1_555 1_555
C6 C7 1_555 1_555
C13 C14 1_555 1_555
C20 C21 1_555 1_555
C21 C22 1_555 1_555
C28 C29 1_555 1_555

#END
