
#######################################################################
#
#                 Cambridge Crystallographic Data Centre
#                                CCDC 
#
#######################################################################
#
# If this CIF has been generated from an entry in the Cambridge 
# Structural Database, then it will include bibliographic, chemical, 
# crystal, experimental, refinement or atomic coordinate data resulting 
# from the CCDC's data processing and validation procedures.
#
#######################################################################

data_XAZSOI
_chemical_name_common            
3,3,5,5-Tetramethyl-2,6-diphenylpiperidin-4-one
_chemical_formula_moiety         'C21 H25 N1 O1'
_chemical_name_systematic        
3,3,5,5-Tetramethyl-r-2,c-6-diphenylpiperidin-4-one
_symmetry_cell_setting           triclinic
_symmetry_space_group_name_H-M   'P -1'
_symmetry_Int_Tables_number      2
_space_group_name_Hall           '-P 1'
loop_
_symmetry_equiv_pos_site_id
_symmetry_equiv_pos_as_xyz
1 x,y,z
2 -x,-y,-z
_cell_length_a                   6.9227(11)
_cell_length_b                   11.540(2)
_cell_length_c                   12.472(2)
_cell_angle_alpha                64.771(4)
_cell_angle_beta                 80.755(5)
_cell_angle_gamma                72.675(4)
_cell_volume                     859.772
_exptl_crystal_colour            colorless
_exptl_crystal_description       block
_cell_formula_units_Z            2
loop_
_atom_site_label
_atom_site_type_symbol
_atom_site_fract_x
_atom_site_fract_y
_atom_site_fract_z
C1 C 0.7201(4) 0.4000(2) 0.1945(2)
H1 H 0.7165 0.4280 0.1087
C2 C 0.9321(4) 0.3963(2) 0.2220(2)
C3 C 1.0898(4) 0.2903(2) 0.1901(2)
C4 C 1.0442(4) 0.1603(2) 0.2102(2)
C5 C 0.8169(4) 0.1810(2) 0.1951(2)
H2 H 0.7920 0.2263 0.1100
C6 C 0.5498(4) 0.4960(2) 0.2302(2)
C7 C 0.4653(4) 0.4602(3) 0.3438(2)
H3 H 0.5133 0.3750 0.4003
C8 C 0.3102(5) 0.5492(3) 0.3749(3)
H4 H 0.2544 0.5234 0.4518
C9 C 0.2383(5) 0.6751(3) 0.2932(3)
H5 H 0.1351 0.7354 0.3144
C10 C 0.3196(5) 0.7116(3) 0.1799(3)
H6 H 0.2705 0.7970 0.1239
C11 C 0.4734(4) 0.6232(2) 0.1478(3)
H7 H 0.5265 0.6493 0.0703
C12 C 0.7552(4) 0.0522(2) 0.2417(2)
C13 C 0.7551(4) -0.0084(3) 0.1664(3)
H8 H 0.7920 0.0311 0.0866
C14 C 0.7008(5) -0.1267(3) 0.2086(3)
H9 H 0.7004 -0.1655 0.1568
C15 C 0.6482(5) -0.1867(3) 0.3250(3)
H10 H 0.6137 -0.2669 0.3532
C16 C 0.6461(4) -0.1284(3) 0.4009(3)
H11 H 0.6098 -0.1689 0.4807
C17 C 0.6982(4) -0.0093(2) 0.3588(2)
H12 H 0.6945 0.0300 0.4108
C18 C 0.9507(5) 0.3605(3) 0.3540(3)
H13 H 0.9024 0.2832 0.4010
H14 H 0.8713 0.4332 0.3736
H15 H 1.0900 0.3429 0.3700
C19 C 0.9807(4) 0.5297(3) 0.1504(3)
H16 H 1.1159 0.5236 0.1653
H17 H 0.8867 0.5960 0.1733
H18 H 0.9702 0.5535 0.0675
C20 C 1.1125(5) 0.0629(3) 0.3352(3)
H19 H 1.2464 0.0646 0.3447
H20 H 1.1131 -0.0249 0.3467
H21 H 1.0207 0.0879 0.3927
C21 C 1.1721(5) 0.1079(3) 0.1211(3)
H22 H 1.1335 0.1695 0.0422
H23 H 1.1507 0.0238 0.1359
H24 H 1.3126 0.0973 0.1293
N1 N 0.6901(3) 0.26610(18) 0.25244(18)
O1 O 1.2574(3) 0.30563(19) 0.1531(2)
H25 H 0.554(4) 0.268(2) 0.251(2)
loop_
_geom_bond_atom_site_label_1
_geom_bond_atom_site_label_2
_geom_bond_site_symmetry_1
_geom_bond_site_symmetry_2
C1 H1 1_555 1_555
C2 C1 1_555 1_555
C3 C2 1_555 1_555
C4 C3 1_555 1_555
C5 C4 1_555 1_555
H2 C5 1_555 1_555
C6 C1 1_555 1_555
C7 C6 1_555 1_555
H3 C7 1_555 1_555
C8 C7 1_555 1_555
H4 C8 1_555 1_555
C9 C8 1_555 1_555
H5 C9 1_555 1_555
C10 C9 1_555 1_555
H6 C10 1_555 1_555
C11 C6 1_555 1_555
H7 C11 1_555 1_555
C12 C5 1_555 1_555
C13 C12 1_555 1_555
H8 C13 1_555 1_555
C14 C13 1_555 1_555
H9 C14 1_555 1_555
C15 C14 1_555 1_555
H10 C15 1_555 1_555
C16 C15 1_555 1_555
H11 C16 1_555 1_555
C17 C12 1_555 1_555
H12 C17 1_555 1_555
C18 C2 1_555 1_555
H13 C18 1_555 1_555
H14 C18 1_555 1_555
H15 C18 1_555 1_555
C19 C2 1_555 1_555
H16 C19 1_555 1_555
H17 C19 1_555 1_555
H18 C19 1_555 1_555
C20 C4 1_555 1_555
H19 C20 1_555 1_555
H20 C20 1_555 1_555
H21 C20 1_555 1_555
C21 C4 1_555 1_555
H22 C21 1_555 1_555
H23 C21 1_555 1_555
H24 C21 1_555 1_555
N1 C1 1_555 1_555
O1 C3 1_555 1_555
H25 N1 1_555 1_555
C5 N1 1_555 1_555
C10 C11 1_555 1_555
C16 C17 1_555 1_555

#END
