
#######################################################################
#
#                 Cambridge Crystallographic Data Centre
#                                CCDC 
#
#######################################################################
#
# If this CIF has been generated from an entry in the Cambridge 
# Structural Database, then it will include bibliographic, chemical, 
# crystal, experimental, refinement or atomic coordinate data resulting 
# from the CCDC's data processing and validation procedures.
#
#######################################################################

data_XAZTIC
_chemical_formula_moiety         'C12 H9 N1 O3'
_chemical_name_systematic        '2-Formylquinolin-8-yl acetate'
_symmetry_cell_setting           monoclinic
_symmetry_space_group_name_H-M   'C 2/c'
_symmetry_Int_Tables_number      15
_space_group_name_Hall           '-C 2yn'
loop_
_symmetry_equiv_pos_site_id
_symmetry_equiv_pos_as_xyz
1 x,y,z
2 1/2+x,1/2+y,z
3 -x,y,1/2-z
4 1/2-x,1/2+y,1/2-z
5 -x,-y,-z
6 1/2-x,1/2-y,-z
7 x,-y,1/2+z
8 1/2+x,1/2-y,1/2+z
_cell_length_a                   19.743(3)
_cell_length_b                   7.8630(10)
_cell_length_c                   14.771(2)
_cell_angle_alpha                90
_cell_angle_beta                 111.66(2)
_cell_angle_gamma                90
_cell_volume                     2131.13
_exptl_crystal_colour            colorless
_exptl_crystal_description       block
_chemical_melting_point          '367-368 K'
_cell_formula_units_Z            8
loop_
_atom_site_label
_atom_site_type_symbol
_atom_site_fract_x
_atom_site_fract_y
_atom_site_fract_z
O1 O 0.49901(9) 0.3345(2) 0.06274(13)
O2 O 0.36311(8) 0.76088(17) 0.29079(10)
O3 O 0.38384(8) 0.98008(19) 0.20739(11)
N1 N 0.38935(8) 0.57120(19) 0.15299(11)
C1 C 0.47836(12) 0.4333(3) 0.10849(17)
H1 H 0.5132 0.4880 0.1609
C2 C 0.40071(11) 0.4739(2) 0.08687(14)
C3 C 0.34551(12) 0.4121(3) 0.00338(15)
H2 H 0.3567 0.3458 -0.0413
C4 C 0.27550(12) 0.4505(2) -0.01135(15)
H3 H 0.2381 0.4111 -0.0667
C5 C 0.25934(10) 0.5498(2) 0.05699(15)
C6 C 0.18791(11) 0.5936(3) 0.04871(18)
H4 H 0.1483 0.5557 -0.0045
C7 C 0.17674(12) 0.6905(3) 0.1177(2)
H5 H 0.1294 0.7187 0.1111
C8 C 0.23503(13) 0.7488(3) 0.19863(18)
H6 H 0.2263 0.8141 0.2457
C9 C 0.30466(11) 0.7102(2) 0.20868(15)
C10 C 0.31877(10) 0.6083(2) 0.13869(13)
C11 C 0.40329(12) 0.8948(3) 0.27912(16)
C12 C 0.47099(13) 0.9152(3) 0.36568(15)
H7 H 0.5071 0.8365 0.3619
H8 H 0.4611 0.8929 0.4235
H9 H 0.4888 1.0293 0.3678
loop_
_geom_bond_atom_site_label_1
_geom_bond_atom_site_label_2
_geom_bond_site_symmetry_1
_geom_bond_site_symmetry_2
O1 C1 1_555 1_555
O2 C9 1_555 1_555
O3 C11 1_555 1_555
N1 C2 1_555 1_555
C1 H1 1_555 1_555
C2 C1 1_555 1_555
C3 C2 1_555 1_555
H2 C3 1_555 1_555
C4 C3 1_555 1_555
H3 C4 1_555 1_555
C5 C4 1_555 1_555
C6 C5 1_555 1_555
H4 C6 1_555 1_555
C7 C6 1_555 1_555
H5 C7 1_555 1_555
C8 C7 1_555 1_555
H6 C8 1_555 1_555
C9 C8 1_555 1_555
C10 N1 1_555 1_555
C11 O2 1_555 1_555
C12 C11 1_555 1_555
H7 C12 1_555 1_555
H8 C12 1_555 1_555
H9 C12 1_555 1_555
C5 C10 1_555 1_555
C9 C10 1_555 1_555

#END
