
#######################################################################
#
#                 Cambridge Crystallographic Data Centre
#                                CCDC 
#
#######################################################################
#
# If this CIF has been generated from an entry in the Cambridge 
# Structural Database, then it will include bibliographic, chemical, 
# crystal, experimental, refinement or atomic coordinate data resulting 
# from the CCDC's data processing and validation procedures.
#
#######################################################################

data_XAZVEC
_chemical_formula_moiety         'C26 H25 B1 Br1 N3'
_chemical_name_systematic        
N-(6-(2-bromophenyl)pyridin-2-yl)-6,6-diethyl-6H-5\l^5^,6\l^5^-pyrido[1,2-b][2,1]benzazaborol-4-amine
_symmetry_cell_setting           monoclinic
_symmetry_space_group_name_H-M   'P 21/n'
_symmetry_Int_Tables_number      14
_space_group_name_Hall           '-P 2yn'
loop_
_symmetry_equiv_pos_site_id
_symmetry_equiv_pos_as_xyz
1 x,y,z
2 1/2-x,1/2+y,1/2-z
3 -x,-y,-z
4 1/2+x,1/2-y,1/2+z
_cell_length_a                   10.2546(7)
_cell_length_b                   13.0723(8)
_cell_length_c                   17.1818(10)
_cell_angle_alpha                90
_cell_angle_beta                 102.293(3)
_cell_angle_gamma                90
_cell_volume                     2250.43
_exptl_crystal_colour            colorless
_exptl_crystal_description       block
_cell_formula_units_Z            4
loop_
_atom_site_label
_atom_site_type_symbol
_atom_site_fract_x
_atom_site_fract_y
_atom_site_fract_z
Br1 Br 0.83943(2) 0.38615(2) 0.015507(15)
C1 C 0.33638(19) 0.11119(15) 0.13758(12)
N1 N 0.46930(17) 0.09056(14) 0.16454(11)
H1 H 0.487(2) 0.0319(18) 0.1797(13)
B1 B 0.3008(2) -0.08781(17) 0.16956(15)
N2 N 0.25586(16) 0.02930(12) 0.14016(10)
C2 C 0.2819(2) 0.20512(15) 0.10932(12)
H2 H 0.3380 0.2624 0.1071
N3 N 0.56734(16) 0.24740(13) 0.14400(9)
C3 C 0.1455(2) 0.21368(16) 0.08465(12)
H3 H 0.1075 0.2774 0.0651
C4 C 0.0631(2) 0.13083(15) 0.08801(13)
H4 H -0.0310 0.1370 0.0713
C5 C 0.1209(2) 0.03892(15) 0.11619(12)
C6 C 0.0560(2) -0.05927(16) 0.12504(12)
C7 C -0.0803(2) -0.07837(18) 0.10983(13)
H5 H -0.1429 -0.0255 0.0915
C8 C -0.1227(2) -0.17724(19) 0.12224(14)
H6 H -0.2153 -0.1925 0.1130
C9 C -0.0290(3) -0.25313(19) 0.14820(14)
H7 H -0.0585 -0.3206 0.1556
C10 C 0.1063(2) -0.23282(17) 0.16358(13)
H8 H 0.1684 -0.2861 0.1815
C11 C 0.1522(2) -0.13415(15) 0.15290(13)
C12 C 0.5818(2) 0.15160(16) 0.16974(12)
C13 C 0.6792(2) 0.30357(16) 0.14794(12)
C14 C 0.8055(2) 0.26558(17) 0.17777(13)
H9 H 0.8822 0.3071 0.1799
C15 C 0.8176(2) 0.16522(18) 0.20450(13)
H10 H 0.9034 0.1371 0.2251
C16 C 0.7060(2) 0.10663(17) 0.20123(13)
H11 H 0.7125 0.0379 0.2196
C17 C 0.6540(2) 0.41066(16) 0.11937(12)
C18 C 0.7180(2) 0.45858(17) 0.06538(13)
C19 C 0.6868(2) 0.55787(17) 0.03975(14)
H12 H 0.7331 0.5895 0.0038
C20 C 0.5888(2) 0.61056(17) 0.06640(14)
H13 H 0.5668 0.6784 0.0485
C21 C 0.5219(2) 0.56449(17) 0.11952(13)
H14 H 0.4534 0.6002 0.1377
C22 C 0.5560(2) 0.46629(17) 0.14550(13)
H15 H 0.5110 0.4356 0.1825
C23 C 0.3964(2) -0.13853(16) 0.11517(13)
H16 H 0.4891 -0.1154 0.1363
H17 H 0.3948 -0.2137 0.1217
C24 C 0.3603(3) -0.11421(19) 0.02610(13)
H18 H 0.2675 -0.1340 0.0044
H19 H 0.4195 -0.1524 -0.0013
H20 H 0.3709 -0.0407 0.0181
C25 C 0.3707(2) -0.08932(16) 0.26349(13)
H21 H 0.3847 -0.1615 0.2806
H22 H 0.4598 -0.0572 0.2702
C26 C 0.2954(3) -0.03590(18) 0.31934(14)
H23 H 0.2855 0.0369 0.3056
H24 H 0.3452 -0.0432 0.3744
H25 H 0.2069 -0.0670 0.3139
loop_
_geom_bond_atom_site_label_1
_geom_bond_atom_site_label_2
_geom_bond_site_symmetry_1
_geom_bond_site_symmetry_2
Br1 C18 1_555 1_555
C1 N1 1_555 1_555
N1 H1 1_555 1_555
B1 N2 1_555 1_555
N2 C1 1_555 1_555
C2 C1 1_555 1_555
H2 C2 1_555 1_555
N3 C12 1_555 1_555
C3 C2 1_555 1_555
H3 C3 1_555 1_555
C4 C3 1_555 1_555
H4 C4 1_555 1_555
C5 N2 1_555 1_555
C6 C5 1_555 1_555
C7 C6 1_555 1_555
H5 C7 1_555 1_555
C8 C7 1_555 1_555
H6 C8 1_555 1_555
C9 C8 1_555 1_555
H7 C9 1_555 1_555
C10 C9 1_555 1_555
H8 C10 1_555 1_555
C11 B1 1_555 1_555
C12 N1 1_555 1_555
C13 N3 1_555 1_555
C14 C13 1_555 1_555
H9 C14 1_555 1_555
C15 C14 1_555 1_555
H10 C15 1_555 1_555
C16 C12 1_555 1_555
H11 C16 1_555 1_555
C17 C13 1_555 1_555
C18 C17 1_555 1_555
C19 C18 1_555 1_555
H12 C19 1_555 1_555
C20 C19 1_555 1_555
H13 C20 1_555 1_555
C21 C20 1_555 1_555
H14 C21 1_555 1_555
C22 C17 1_555 1_555
H15 C22 1_555 1_555
C23 B1 1_555 1_555
H16 C23 1_555 1_555
H17 C23 1_555 1_555
C24 C23 1_555 1_555
H18 C24 1_555 1_555
H19 C24 1_555 1_555
H20 C24 1_555 1_555
C25 B1 1_555 1_555
H21 C25 1_555 1_555
H22 C25 1_555 1_555
C26 C25 1_555 1_555
H23 C26 1_555 1_555
H24 C26 1_555 1_555
H25 C26 1_555 1_555
C4 C5 1_555 1_555
C6 C11 1_555 1_555
C10 C11 1_555 1_555
C15 C16 1_555 1_555
C21 C22 1_555 1_555

#END
