
#######################################################################
#
#                 Cambridge Crystallographic Data Centre
#                                CCDC 
#
#######################################################################
#
# If this CIF has been generated from an entry in the Cambridge 
# Structural Database, then it will include bibliographic, chemical, 
# crystal, experimental, refinement or atomic coordinate data resulting 
# from the CCDC's data processing and validation procedures.
#
#######################################################################

data_XAZYUU
_chemical_name_common            
'5-(2-Chlorophenoxy)-1,3-dimethyl-1H-pyrazole-4-carbaldehyde oxime'
_chemical_formula_moiety         'C12 H12 Cl1 N3 O2'
_chemical_name_systematic        
1-(5-(2-Chlorophenoxy)-1,3-dimethyl-1H-pyrazol-4-yl)-N-hydroxymethanimine
_symmetry_cell_setting           monoclinic
_symmetry_space_group_name_H-M   'P 21/c'
_symmetry_Int_Tables_number      14
_space_group_name_Hall           '-P 2ybc'
loop_
_symmetry_equiv_pos_site_id
_symmetry_equiv_pos_as_xyz
1 x,y,z
2 -x,1/2+y,1/2-z
3 -x,-y,-z
4 x,1/2-y,1/2+z
_cell_length_a                   11.108(2)
_cell_length_b                   14.998(3)
_cell_length_c                   8.0839(16)
_cell_angle_alpha                90
_cell_angle_beta                 104.94(3)
_cell_angle_gamma                90
_cell_volume                     1301.23
_exptl_crystal_colour            colorless
_exptl_crystal_description       prism
_cell_formula_units_Z            4
loop_
_atom_site_label
_atom_site_type_symbol
_atom_site_fract_x
_atom_site_fract_y
_atom_site_fract_z
Cl1 Cl 0.95727(9) 0.11946(8) -0.10002(12)
O1 O 0.78065(18) 0.08065(15) 0.0915(3)
N1 N 0.5175(2) 0.13782(17) 0.2347(3)
N2 N 0.5840(2) -0.14771(16) 0.2182(4)
N3 N 0.6218(2) 0.15655(17) 0.1805(3)
C1 C 0.6784(3) 0.0805(2) 0.1570(4)
C2 C 0.6468(3) -0.0833(2) 0.1825(4)
H1 H 0.7180 -0.0960 0.1466
O2 O 0.6382(2) -0.22945(15) 0.1961(4)
H2 H 0.5990 -0.2700 0.2262
C3 C 0.8951(3) 0.10481(19) 0.2006(4)
C4 C 0.9878(3) 0.1260(2) 0.1212(4)
C5 C 0.6126(2) 0.0091(2) 0.1949(4)
C6 C 0.5111(3) 0.0494(2) 0.2418(4)
C7 C 0.9187(3) 0.1079(2) 0.3747(4)
H3 H 0.8565 0.0936 0.4281
C8 C 1.1039(3) 0.1516(2) 0.2186(5)
H4 H 1.1660 0.1663 0.1651
C9 C 1.0363(3) 0.1327(3) 0.4714(5)
H5 H 1.0533 0.1337 0.5903
C10 C 0.4042(3) 0.0054(2) 0.2915(4)
H6 H 0.3653 0.0475 0.3508
H7 H 0.4344 -0.0444 0.3650
H8 H 0.3444 -0.0150 0.1904
C11 C 1.1281(3) 0.1556(2) 0.3924(5)
H9 H 1.2060 0.1737 0.4574
C12 C 0.6535(4) 0.2479(2) 0.1475(5)
H10 H 0.7002 0.2747 0.2523
H11 H 0.5785 0.2813 0.1026
H12 H 0.7027 0.2479 0.0658
loop_
_geom_bond_atom_site_label_1
_geom_bond_atom_site_label_2
_geom_bond_site_symmetry_1
_geom_bond_site_symmetry_2
Cl1 C4 1_555 1_555
O1 C1 1_555 1_555
N1 N3 1_555 1_555
N2 C2 1_555 1_555
N3 C1 1_555 1_555
C1 C5 1_555 1_555
C2 H1 1_555 1_555
O2 N2 1_555 1_555
H2 O2 1_555 1_555
C3 O1 1_555 1_555
C4 C3 1_555 1_555
C5 C2 1_555 1_555
C6 N1 1_555 1_555
C7 C3 1_555 1_555
H3 C7 1_555 1_555
C8 C4 1_555 1_555
H4 C8 1_555 1_555
C9 C7 1_555 1_555
H5 C9 1_555 1_555
C10 C6 1_555 1_555
H6 C10 1_555 1_555
H7 C10 1_555 1_555
H8 C10 1_555 1_555
C11 C8 1_555 1_555
H9 C11 1_555 1_555
C12 N3 1_555 1_555
H10 C12 1_555 1_555
H11 C12 1_555 1_555
H12 C12 1_555 1_555
C5 C6 1_555 1_555
C9 C11 1_555 1_555

#END
