
#######################################################################
#
#                 Cambridge Crystallographic Data Centre
#                                CCDC 
#
#######################################################################
#
# If this CIF has been generated from an entry in the Cambridge 
# Structural Database, then it will include bibliographic, chemical, 
# crystal, experimental, refinement or atomic coordinate data resulting 
# from the CCDC's data processing and validation procedures.
#
#######################################################################

data_XAZYUT
_chemical_formula_moiety         'C17 H12 F1 N3 O1 S2'
_chemical_name_systematic        
3-(5-(4-Fluorophenyl)-1,3,4-thiadiazol-2-yl)-2-phenylthiazolidin-4-one
_symmetry_cell_setting           triclinic
_symmetry_space_group_name_H-M   'P -1'
_symmetry_Int_Tables_number      2
_space_group_name_Hall           '-P 1'
loop_
_symmetry_equiv_pos_site_id
_symmetry_equiv_pos_as_xyz
1 x,y,z
2 -x,-y,-z
_cell_length_a                   6.4630(13)
_cell_length_b                   10.911(2)
_cell_length_c                   11.371(2)
_cell_angle_alpha                97.91(3)
_cell_angle_beta                 94.37(3)
_cell_angle_gamma                99.12(3)
_cell_volume                     780.24
_exptl_crystal_colour            colorless
_exptl_crystal_description       block
_chemical_melting_point          '513-514 K'
_cell_formula_units_Z            2
_exptl_crystal_recrystallization_method acetone
loop_
_atom_site_label
_atom_site_type_symbol
_atom_site_fract_x
_atom_site_fract_y
_atom_site_fract_z
S1 S 0.65853(12) 0.68470(7) 1.06982(6)
S2 S 0.18588(10) 0.95190(6) 0.83849(6)
F1 F -0.1368(3) 1.28285(19) 0.42948(16)
O1 O 0.1416(3) 0.8111(2) 1.02083(17)
N1 N 0.4508(3) 0.81054(18) 0.93715(18)
N2 N 0.5542(4) 0.9207(2) 0.7836(2)
N3 N 0.4842(4) 0.9964(2) 0.7067(2)
C1 C 0.4056(5) 0.4820(3) 0.6787(3)
H1 H 0.2747 0.4359 0.6475
C2 C 0.5844(5) 0.4540(3) 0.6299(2)
H2 H 0.5749 0.3906 0.5651
C3 C 0.7769(5) 0.5214(3) 0.6786(3)
H3 H 0.8988 0.5023 0.6473
C4 C 0.7913(4) 0.6162(3) 0.7727(3)
H4 H 0.9228 0.6613 0.8041
C5 C 0.6122(4) 0.6458(2) 0.8216(2)
C6 C 0.4187(4) 0.5772(3) 0.7731(3)
H5 H 0.2966 0.5956 0.8045
C7 C 0.6358(4) 0.7475(2) 0.9292(2)
H6 H 0.7612 0.8100 0.9258
C8 C 0.3817(5) 0.6786(3) 1.0845(3)
H7 H 0.3047 0.5952 1.0538
H8 H 0.3587 0.6986 1.1678
C9 C 0.3082(4) 0.7733(3) 1.0143(2)
C10 C 0.4145(4) 0.8900(2) 0.8552(2)
C11 C 0.2976(4) 1.0201(2) 0.7235(2)
C12 C 0.1855(4) 1.0935(2) 0.6490(2)
C13 C 0.2627(4) 1.1211(2) 0.5431(2)
H9 H 0.3871 1.0955 0.5219
C14 C 0.1566(4) 1.1862(3) 0.4688(2)
H10 H 0.2083 1.2056 0.3982
C15 C -0.0285(4) 1.2215(2) 0.5031(2)
C16 C -0.1093(4) 1.1956(3) 0.6061(2)
H11 H -0.2346 1.2207 0.6263
C17 C -0.0018(4) 1.1314(2) 0.6795(2)
H12 H -0.0547 1.1133 0.7501
loop_
_geom_bond_atom_site_label_1
_geom_bond_atom_site_label_2
_geom_bond_site_symmetry_1
_geom_bond_site_symmetry_2
S1 C7 1_555 1_555
S2 C10 1_555 1_555
F1 C15 1_555 1_555
O1 C9 1_555 1_555
N1 C7 1_555 1_555
N2 N3 1_555 1_555
N3 C11 1_555 1_555
C1 H1 1_555 1_555
C2 C1 1_555 1_555
H2 C2 1_555 1_555
C3 C2 1_555 1_555
H3 C3 1_555 1_555
C4 C3 1_555 1_555
H4 C4 1_555 1_555
C5 C4 1_555 1_555
C6 C1 1_555 1_555
H5 C6 1_555 1_555
C7 C5 1_555 1_555
H6 C7 1_555 1_555
C8 S1 1_555 1_555
H7 C8 1_555 1_555
H8 C8 1_555 1_555
C9 N1 1_555 1_555
C10 N1 1_555 1_555
C11 S2 1_555 1_555
C12 C11 1_555 1_555
C13 C12 1_555 1_555
H9 C13 1_555 1_555
C14 C13 1_555 1_555
H10 C14 1_555 1_555
C15 C14 1_555 1_555
C16 C15 1_555 1_555
H11 C16 1_555 1_555
C17 C12 1_555 1_555
H12 C17 1_555 1_555
N2 C10 1_555 1_555
C5 C6 1_555 1_555
C8 C9 1_555 1_555
C16 C17 1_555 1_555

#END
