
#######################################################################
#
#                 Cambridge Crystallographic Data Centre
#                                CCDC 
#
#######################################################################
#
# If this CIF has been generated from an entry in the Cambridge 
# Structural Database, then it will include bibliographic, chemical, 
# crystal, experimental, refinement or atomic coordinate data resulting 
# from the CCDC's data processing and validation procedures.
#
#######################################################################

data_XAZZOQ
_chemical_formula_moiety         'C19 H25 N6 1+,N1 O3 1-'
_chemical_name_systematic        
'4-t-butyl-2-(4-t-butyl-6-(1H-tetrazol-5-yl)pyridin-2-yl)pyridin-1-ium nitrate'
_symmetry_cell_setting           monoclinic
_symmetry_space_group_name_H-M   'P 21/n'
_symmetry_Int_Tables_number      14
_space_group_name_Hall           '-P 2yn'
loop_
_symmetry_equiv_pos_site_id
_symmetry_equiv_pos_as_xyz
1 x,y,z
2 1/2-x,1/2+y,1/2-z
3 -x,-y,-z
4 1/2+x,1/2-y,1/2+z
_cell_length_a                   10.986(2)
_cell_length_b                   14.179(3)
_cell_length_c                   13.626(3)
_cell_angle_alpha                90
_cell_angle_beta                 98.60(3)
_cell_angle_gamma                90
_cell_volume                     2098.66
_exptl_crystal_colour            colorless
_exptl_crystal_description       prism
_cell_formula_units_Z            4
loop_
_atom_site_label
_atom_site_type_symbol
_atom_site_fract_x
_atom_site_fract_y
_atom_site_fract_z
O1 O 0.71898(19) 0.04986(15) 0.69330(17)
O2 O 0.7671(3) 0.0229(2) 0.8485(2)
O3 O 0.8617(2) 0.12924(16) 0.77982(19)
N1 N 0.78125(16) 0.07139(13) 0.77207(14)
N2 N 0.48144(17) 0.10577(13) 0.57181(14)
N3 N 0.67772(17) 0.21251(13) 0.57598(15)
H1 H 0.6729 0.1609 0.6111
N4 N 0.5121(2) -0.05322(14) 0.69500(16)
H2 H 0.5789 -0.0182 0.7010
N5 N 0.4994(2) -0.13566(15) 0.74325(18)
N6 N 0.3876(2) -0.16410(15) 0.71397(18)
N7 N 0.3265(2) -0.10256(14) 0.64731(16)
C1 C 0.4642(2) 0.18347(15) 0.51481(17)
C2 C 0.3512(2) 0.20669(16) 0.46031(18)
H3 H 0.3431 0.2625 0.4214
C3 C 0.2494(2) 0.14833(16) 0.46255(18)
C4 C 0.2682(2) 0.06724(16) 0.52090(18)
H4 H 0.2022 0.0247 0.5246
C5 C 0.3839(2) 0.04941(15) 0.57342(17)
C6 C 0.5770(2) 0.24195(16) 0.51462(17)
C7 C 0.5864(2) 0.32037(15) 0.45712(17)
H5 H 0.5161 0.3415 0.4135
C8 C 0.6975(2) 0.36984(15) 0.46153(18)
C9 C 0.7966(2) 0.33780(17) 0.52924(19)
H6 H 0.8728 0.3707 0.5366
C10 C 0.7844(2) 0.25903(18) 0.5852(2)
H7 H 0.8525 0.2374 0.6309
C11 C 0.4062(2) -0.03449(15) 0.63720(18)
C12 C 0.1237(2) 0.17479(17) 0.4047(2)
C13 C 0.1362(3) 0.1842(2) 0.2937(2)
H8 H 0.1978 0.2325 0.2857
H9 H 0.0567 0.2024 0.2560
H10 H 0.1622 0.1236 0.2690
C14 C 0.0859(3) 0.2703(2) 0.4425(3)
H11 H 0.0809 0.2659 0.5136
H12 H 0.0053 0.2884 0.4064
H13 H 0.1471 0.3180 0.4317
C15 C 0.0260(3) 0.1012(3) 0.4153(3)
H14 H 0.0527 0.0398 0.3933
H15 H -0.0516 0.1193 0.3744
H16 H 0.0138 0.0970 0.4850
C16 C 0.7078(2) 0.45277(16) 0.39132(19)
C17 C 0.6852(3) 0.4152(2) 0.2845(2)
H17 H 0.7464 0.3666 0.2766
H18 H 0.6925 0.4671 0.2382
H19 H 0.6024 0.3880 0.2706
C18 C 0.6105(3) 0.52743(18) 0.4050(2)
H20 H 0.5282 0.4999 0.3886
H21 H 0.6185 0.5811 0.3610
H22 H 0.6228 0.5490 0.4741
C19 C 0.8352(2) 0.4993(2) 0.4113(2)
H23 H 0.8533 0.5177 0.4813
H24 H 0.8361 0.5554 0.3693
H25 H 0.8977 0.4546 0.3960
loop_
_geom_bond_atom_site_label_1
_geom_bond_atom_site_label_2
_geom_bond_site_symmetry_1
_geom_bond_site_symmetry_2
O1 N1 1_555 1_555
O2 N1 1_555 1_555
O3 N1 1_555 1_555
N2 C1 1_555 1_555
N3 H1 1_555 1_555
N4 H2 1_555 1_555
N5 N4 1_555 1_555
N6 N5 1_555 1_555
N7 N6 1_555 1_555
C1 C2 1_555 1_555
C2 H3 1_555 1_555
C3 C2 1_555 1_555
C4 C3 1_555 1_555
H4 C4 1_555 1_555
C5 N2 1_555 1_555
C6 N3 1_555 1_555
C7 C6 1_555 1_555
H5 C7 1_555 1_555
C8 C7 1_555 1_555
C9 C8 1_555 1_555
H6 C9 1_555 1_555
C10 N3 1_555 1_555
H7 C10 1_555 1_555
C11 N4 1_555 1_555
C12 C3 1_555 1_555
C13 C12 1_555 1_555
H8 C13 1_555 1_555
H9 C13 1_555 1_555
H10 C13 1_555 1_555
C14 C12 1_555 1_555
H11 C14 1_555 1_555
H12 C14 1_555 1_555
H13 C14 1_555 1_555
C15 C12 1_555 1_555
H14 C15 1_555 1_555
H15 C15 1_555 1_555
H16 C15 1_555 1_555
C16 C8 1_555 1_555
C17 C16 1_555 1_555
H17 C17 1_555 1_555
H18 C17 1_555 1_555
H19 C17 1_555 1_555
C18 C16 1_555 1_555
H20 C18 1_555 1_555
H21 C18 1_555 1_555
H22 C18 1_555 1_555
C19 C16 1_555 1_555
H23 C19 1_555 1_555
H24 C19 1_555 1_555
H25 C19 1_555 1_555
N7 C11 1_555 1_555
C1 C6 1_555 1_555
C4 C5 1_555 1_555
C5 C11 1_555 1_555
C9 C10 1_555 1_555

#END
