
#######################################################################
#
#                 Cambridge Crystallographic Data Centre
#                                CCDC 
#
#######################################################################
#
# If this CIF has been generated from an entry in the Cambridge 
# Structural Database, then it will include bibliographic, chemical, 
# crystal, experimental, refinement or atomic coordinate data resulting 
# from the CCDC's data processing and validation procedures.
#
#######################################################################

data_XEBBAI
_chemical_formula_moiety         'C11 H8 N4 O1,H2 O1'
_chemical_name_systematic        
'2-Amino-3-(4-hydroxybenzylideneamino)butenedinitrile monohydrate'
_symmetry_cell_setting           monoclinic
_symmetry_space_group_name_H-M   'P 21/n'
_symmetry_Int_Tables_number      14
_space_group_name_Hall           '-P 2yn'
loop_
_symmetry_equiv_pos_site_id
_symmetry_equiv_pos_as_xyz
1 x,y,z
2 1/2-x,1/2+y,1/2-z
3 -x,-y,-z
4 1/2+x,1/2-y,1/2+z
_cell_length_a                   9.848(2)
_cell_length_b                   7.0388(15)
_cell_length_c                   16.473(3)
_cell_angle_alpha                90
_cell_angle_beta                 90.604(3)
_cell_angle_gamma                90
_cell_volume                     1141.81
_exptl_crystal_colour            yellow
_exptl_crystal_description       prism
_cell_formula_units_Z            4
_exptl_crystal_recrystallization_method acetonitrile
loop_
_atom_site_label
_atom_site_type_symbol
_atom_site_fract_x
_atom_site_fract_y
_atom_site_fract_z
N1 N 0.15384(11) 0.02846(15) 0.45425(6)
O1 O 0.01828(11) 0.41676(15) 0.11294(6)
H1 H -0.0076 0.3519 0.0744
C1 C 0.18530(13) -0.08908(19) 0.51945(7)
C2 C 0.13287(13) -0.03927(19) 0.38325(7)
H2 H 0.1379 -0.1700 0.3758
C3 C 0.10147(12) 0.08086(19) 0.31369(7)
C4 C 0.10162(15) 0.2776(2) 0.31899(8)
H3 H 0.1207 0.3359 0.3685
C5 C 0.07016(16) -0.0016(2) 0.23923(8)
H4 H 0.0692 -0.1333 0.2347
C6 C 0.24004(14) -0.1223(2) 0.66272(8)
C7 C 0.04374(13) 0.3024(2) 0.17805(8)
C8 C 0.20193(13) -0.00669(19) 0.59391(7)
C9 C 0.20000(15) -0.2904(2) 0.51078(8)
N2 N 0.27179(15) -0.2099(2) 0.71749(8)
N3 N 0.18443(13) 0.17866(17) 0.60808(7)
H5 H 0.1613 0.2534 0.5690
H6 H 0.1963 0.2231 0.6563
C10 C 0.04046(15) 0.1075(2) 0.17185(8)
H7 H 0.0184 0.0499 0.1226
C11 C 0.07373(16) 0.3871(2) 0.25154(8)
H8 H 0.0751 0.5189 0.2556
N4 N 0.21026(18) -0.4505(2) 0.50026(8)
O2 O 0.44395(12) 0.25802(15) 0.47460(6)
H9 H 0.3651 0.3197 0.4772
H10 H 0.4335 0.1756 0.4345
loop_
_geom_bond_atom_site_label_1
_geom_bond_atom_site_label_2
_geom_bond_site_symmetry_1
_geom_bond_site_symmetry_2
N1 C1 1_555 1_555
O1 H1 1_555 1_555
C1 C8 1_555 1_555
C2 N1 1_555 1_555
H2 C2 1_555 1_555
C3 C2 1_555 1_555
C4 C3 1_555 1_555
H3 C4 1_555 1_555
C5 C3 1_555 1_555
H4 C5 1_555 1_555
C6 C8 1_555 1_555
C7 O1 1_555 1_555
C8 N3 1_555 1_555
C9 C1 1_555 1_555
N2 C6 1_555 1_555
N3 H5 1_555 1_555
H6 N3 1_555 1_555
C10 C5 1_555 1_555
H7 C10 1_555 1_555
C11 C4 1_555 1_555
H8 C11 1_555 1_555
N4 C9 1_555 1_555
O2 H9 1_555 1_555
H10 O2 1_555 1_555
C7 C10 1_555 1_555
C7 C11 1_555 1_555

#END
