
#######################################################################
#
#                 Cambridge Crystallographic Data Centre
#                                CCDC 
#
#######################################################################
#
# If this CIF has been generated from an entry in the Cambridge 
# Structural Database, then it will include bibliographic, chemical, 
# crystal, experimental, refinement or atomic coordinate data resulting 
# from the CCDC's data processing and validation procedures.
#
#######################################################################

data_XEBCUD
_chemical_formula_moiety         'C19 H12 Cl1 N3 O2,C3 H7 N1 O1'
_chemical_name_systematic        
'5-(4-Chlorophenyl)-7-phenylpyrido(2,3-d)pyrimidine-2,8-dione dimethylformamide solvate'
_symmetry_cell_setting           triclinic
_symmetry_space_group_name_H-M   'P -1'
_symmetry_Int_Tables_number      2
_space_group_name_Hall           '-P 1'
loop_
_symmetry_equiv_pos_site_id
_symmetry_equiv_pos_as_xyz
1 x,y,z
2 -x,-y,-z
_cell_length_a                   7.6985(7)
_cell_length_b                   11.7486(10)
_cell_length_c                   12.0533(8)
_cell_angle_alpha                72.813(7)
_cell_angle_beta                 72.868(7)
_cell_angle_gamma                80.952(8)
_cell_volume                     992.338
_exptl_crystal_colour            yellow
_exptl_crystal_description       block
_chemical_melting_point          '561-562 K'
_cell_formula_units_Z            2
loop_
_atom_site_label
_atom_site_type_symbol
_atom_site_fract_x
_atom_site_fract_y
_atom_site_fract_z
Cl1 Cl 0.57870(6) 0.95527(3) -0.15544(4)
O1 O 0.10252(16) 0.11383(10) -0.11274(10)
O2 O -0.13089(15) 0.12178(9) 0.27640(9)
N1 N 0.21692(16) 0.43535(11) -0.01589(11)
N2 N 0.15117(18) 0.27352(11) -0.05992(12)
N3 N -0.00401(18) 0.11818(11) 0.08356(11)
C1 C 0.14080(19) 0.33150(13) 0.02656(13)
C2 C 0.05626(19) 0.27981(13) 0.14822(13)
C3 C 0.0590(2) 0.34168(13) 0.23152(13)
C4 C 0.1344(2) 0.45117(13) 0.18655(13)
H1 H 0.1332 0.4965 0.2403
C5 C 0.21216(19) 0.49591(13) 0.06327(13)
C6 C 0.0853(2) 0.16524(13) -0.03480(14)
C7 C -0.0336(2) 0.16887(13) 0.17831(13)
C8 C 0.0020(2) 0.29399(13) 0.36496(13)
C9 C 0.0675(2) 0.18041(14) 0.42067(14)
H2 H 0.1371 0.1291 0.3730
C10 C 0.0319(3) 0.14159(15) 0.54506(15)
H3 H 0.0784 0.0644 0.5822
C11 C -0.0712(3) 0.21528(17) 0.61498(15)
H4 H -0.0957 0.1890 0.7002
C12 C -0.1385(3) 0.32735(17) 0.56050(16)
H5 H -0.2109 0.3774 0.6087
C13 C -0.1015(2) 0.36754(15) 0.43619(14)
H6 H -0.1467 0.4453 0.3996
C14 C 0.3011(2) 0.61039(13) 0.01195(13)
C15 C 0.3047(2) 0.68494(15) 0.08179(15)
H7 H 0.2481 0.6626 0.1658
C16 C 0.3890(2) 0.79098(15) 0.03159(15)
H8 H 0.3906 0.8411 0.0804
C17 C 0.4706(2) 0.82264(13) -0.09039(14)
C18 C 0.4695(2) 0.75115(14) -0.16211(14)
H9 H 0.5261 0.7742 -0.2461
C19 C 0.3850(2) 0.64539(14) -0.11087(14)
H10 H 0.3843 0.5958 -0.1603
H18 H 0.204(3) 0.3098(17) -0.1371(18)
H19 H -0.048(2) 0.0478(18) 0.0981(16)
O3 O 0.3099(2) 0.35699(11) 0.69366(11)
N4 N 0.4391(2) 0.25959(13) 0.54872(12)
C20 C 0.3779(3) 0.26608(16) 0.66121(15)
H11 H 0.3870 0.1945 0.7225
C21 C 0.5190(3) 0.14834(18) 0.51910(18)
H12 H 0.5227 0.0857 0.5932
H13 H 0.6431 0.1593 0.4671
H14 H 0.4450 0.1249 0.4769
C22 C 0.4229(3) 0.36358(17) 0.45025(16)
H15 H 0.3271 0.3544 0.4158
H16 H 0.5392 0.3715 0.3881
H17 H 0.3917 0.4352 0.4802
loop_
_geom_bond_atom_site_label_1
_geom_bond_atom_site_label_2
_geom_bond_site_symmetry_1
_geom_bond_site_symmetry_2
Cl1 C17 1_555 1_555
O1 C6 1_555 1_555
O2 C7 1_555 1_555
O3 C20 1_555 1_555
N1 C1 1_555 1_555
N2 C1 1_555 1_555
N3 C6 1_555 1_555
N4 C20 1_555 1_555
C1 C2 1_555 1_555
C2 C3 1_555 1_555
C3 C4 1_555 1_555
C4 H1 1_555 1_555
C5 N1 1_555 1_555
C6 N2 1_555 1_555
C7 N3 1_555 1_555
C8 C3 1_555 1_555
C9 C8 1_555 1_555
H2 C9 1_555 1_555
C10 C9 1_555 1_555
H3 C10 1_555 1_555
C11 C10 1_555 1_555
H4 C11 1_555 1_555
C12 C11 1_555 1_555
H5 C12 1_555 1_555
C13 C8 1_555 1_555
H6 C13 1_555 1_555
C14 C5 1_555 1_555
C15 C14 1_555 1_555
H7 C15 1_555 1_555
C16 C15 1_555 1_555
H8 C16 1_555 1_555
C17 C16 1_555 1_555
C18 C17 1_555 1_555
H9 C18 1_555 1_555
C19 C14 1_555 1_555
H10 C19 1_555 1_555
C20 H11 1_555 1_555
C21 N4 1_555 1_555
H12 C21 1_555 1_555
H13 C21 1_555 1_555
H14 C21 1_555 1_555
C22 N4 1_555 1_555
H15 C22 1_555 1_555
H16 C22 1_555 1_555
H17 C22 1_555 1_555
H18 N2 1_555 1_555
H19 N3 1_555 1_555
C2 C7 1_555 1_555
C4 C5 1_555 1_555
C12 C13 1_555 1_555
C18 C19 1_555 1_555

#END
