
#######################################################################
#
#                 Cambridge Crystallographic Data Centre
#                                CCDC 
#
#######################################################################
#
# If this CIF has been generated from an entry in the Cambridge 
# Structural Database, then it will include bibliographic, chemical, 
# crystal, experimental, refinement or atomic coordinate data resulting 
# from the CCDC's data processing and validation procedures.
#
#######################################################################

data_XEBFIU
_chemical_formula_moiety         'C20 H16 O6'
_chemical_name_systematic        
10-(4-Methoxyphenyl)-3,7-dimethyl-1H,9H,10H-dipyrano(3,4-e:4',3'-b)pyran-1,9-dione
_symmetry_cell_setting           monoclinic
_symmetry_space_group_name_H-M   'P 21/n'
_symmetry_Int_Tables_number      14
_space_group_name_Hall           '-P 2yn'
loop_
_symmetry_equiv_pos_site_id
_symmetry_equiv_pos_as_xyz
1 x,y,z
2 1/2-x,1/2+y,1/2-z
3 -x,-y,-z
4 1/2+x,1/2-y,1/2+z
_cell_length_a                   9.7018(18)
_cell_length_b                   11.090(2)
_cell_length_c                   15.757(3)
_cell_angle_alpha                90
_cell_angle_beta                 96.839(3)
_cell_angle_gamma                90
_cell_volume                     1683.28
_exptl_crystal_colour            white
_exptl_crystal_description       block
_chemical_melting_point          '543-547 K'
_cell_formula_units_Z            4
_exptl_crystal_recrystallization_method '95% aqueous ethanol'
loop_
_atom_site_label
_atom_site_type_symbol
_atom_site_fract_x
_atom_site_fract_y
_atom_site_fract_z
O1 O 0.82707(13) 0.55628(11) -0.04357(8)
O2 O 0.74813(15) 0.32411(11) -0.24483(7)
O3 O 0.63160(13) 0.54594(10) 0.17234(7)
O4 O 0.60047(15) 0.21674(12) -0.17867(8)
O5 O 0.51944(13) 0.37755(11) 0.13227(8)
O6 O 0.91852(13) -0.08130(10) 0.11778(8)
C1 C 0.79581(18) 0.47364(15) -0.10813(10)
C2 C 0.8620(2) 0.49493(17) -0.18260(11)
H1 H 0.9202 0.5610 -0.1858
C3 C 0.8389(2) 0.41787(17) -0.24777(12)
C4 C 0.6799(2) 0.30108(16) -0.17385(11)
C5 C 0.71179(17) 0.37862(14) -0.10115(10)
C6 C 0.65411(17) 0.34547(14) -0.01951(10)
H2 H 0.5545 0.3291 -0.0324
C7 C 0.67434(17) 0.45191(14) 0.03999(10)
C8 C 0.60241(18) 0.45149(14) 0.11480(10)
C9 C 0.71912(19) 0.63809(15) 0.15820(11)
C10 C 0.78125(19) 0.64192(15) 0.08683(11)
H3 H 0.8388 0.7060 0.0765
C11 C 0.75723(18) 0.54584(15) 0.02731(10)
C12 C 0.9028(3) 0.4187(2) -0.32896(13)
H4 H 0.9667 0.4849 -0.3285
H5 H 0.8314 0.4275 -0.3763
H6 H 0.9514 0.3443 -0.3345
C13 C 0.7334(2) 0.72668(18) 0.22933(12)
H7 H 0.7964 0.7894 0.2172
H8 H 0.7688 0.6868 0.2815
H9 H 0.6443 0.7611 0.2353
C14 C 0.72676(16) 0.23203(13) 0.01929(9)
C15 C 0.86783(17) 0.23303(15) 0.04708(11)
H10 H 0.9176 0.3040 0.0431
C16 C 0.93654(18) 0.13113(15) 0.08060(11)
H11 H 1.0312 0.1338 0.0991
C17 C 0.86272(17) 0.02542(14) 0.08618(10)
C18 C 0.72209(18) 0.02300(15) 0.05892(11)
H12 H 0.6722 -0.0480 0.0629
C19 C 0.65530(17) 0.12563(14) 0.02581(10)
H13 H 0.5606 0.1229 0.0076
C20 C 1.0572(2) -0.08063(18) 0.15811(14)
H14 H 1.0830 -0.1606 0.1772
H15 H 1.0645 -0.0269 0.2062
H16 H 1.1182 -0.0539 0.1182
loop_
_geom_bond_atom_site_label_1
_geom_bond_atom_site_label_2
_geom_bond_site_symmetry_1
_geom_bond_site_symmetry_2
O1 C1 1_555 1_555
O2 C3 1_555 1_555
O3 C8 1_555 1_555
O4 C4 1_555 1_555
O5 C8 1_555 1_555
O6 C17 1_555 1_555
C1 C2 1_555 1_555
C2 H1 1_555 1_555
C3 C2 1_555 1_555
C4 O2 1_555 1_555
C5 C1 1_555 1_555
C6 C5 1_555 1_555
H2 C6 1_555 1_555
C7 C6 1_555 1_555
C8 C7 1_555 1_555
C9 O3 1_555 1_555
C10 C9 1_555 1_555
H3 C10 1_555 1_555
C11 O1 1_555 1_555
C12 C3 1_555 1_555
H4 C12 1_555 1_555
H5 C12 1_555 1_555
H6 C12 1_555 1_555
C13 C9 1_555 1_555
H7 C13 1_555 1_555
H8 C13 1_555 1_555
H9 C13 1_555 1_555
C14 C6 1_555 1_555
C15 C14 1_555 1_555
H10 C15 1_555 1_555
C16 C15 1_555 1_555
H11 C16 1_555 1_555
C17 C16 1_555 1_555
C18 C17 1_555 1_555
H12 C18 1_555 1_555
C19 C14 1_555 1_555
H13 C19 1_555 1_555
C20 O6 1_555 1_555
H14 C20 1_555 1_555
H15 C20 1_555 1_555
H16 C20 1_555 1_555
C4 C5 1_555 1_555
C7 C11 1_555 1_555
C10 C11 1_555 1_555
C18 C19 1_555 1_555

#END
