
#######################################################################
#
#                 Cambridge Crystallographic Data Centre
#                                CCDC 
#
#######################################################################
#
# If this CIF has been generated from an entry in the Cambridge 
# Structural Database, then it will include bibliographic, chemical, 
# crystal, experimental, refinement or atomic coordinate data resulting 
# from the CCDC's data processing and validation procedures.
#
#######################################################################

data_XEBFIV
_chemical_name_common            
2,2'-Ethane-1,2-diylbis(1,1,3,3-tetramethylguanidine)
_chemical_formula_moiety         'C12 H28 N6'
_chemical_name_systematic        
N,N,N',N'-Tetramethyl-N''-[2-(N',N',N'',N''-tetramethylguanidino)ethyl]guanidine
_symmetry_cell_setting           monoclinic
_symmetry_space_group_name_H-M   'P 21/n'
_symmetry_Int_Tables_number      14
_space_group_name_Hall           '-P 2yn'
loop_
_symmetry_equiv_pos_site_id
_symmetry_equiv_pos_as_xyz
1 x,y,z
2 1/2-x,1/2+y,1/2-z
3 -x,-y,-z
4 1/2+x,1/2-y,1/2+z
_cell_length_a                   8.4189(6)
_cell_length_b                   8.5894(6)
_cell_length_c                   11.0089(8)
_cell_angle_alpha                90
_cell_angle_beta                 106.858(5)
_cell_angle_gamma                90
_cell_volume                     761.879
_exptl_crystal_colour            colorless
_exptl_crystal_description       polyhedral
_cell_formula_units_Z            2
loop_
_atom_site_label
_atom_site_type_symbol
_atom_site_fract_x
_atom_site_fract_y
_atom_site_fract_z
N1 N -0.04772(12) 0.18588(12) 0.32603(9)
N2 N 0.20678(12) 0.08543(13) 0.31899(10)
N3 N -0.01179(12) 0.13388(11) 0.12955(9)
C1 C 0.05014(13) 0.13573(13) 0.25085(10)
C2 C -0.22265(16) 0.20743(17) 0.26375(13)
H1 H -0.2392 0.3035 0.2173
H2 H -0.2819 0.2105 0.3262
H3 H -0.2631 0.1226 0.2064
C3 C 0.01949(17) 0.29870(15) 0.42638(12)
H4 H 0.1384 0.2914 0.4535
H5 H -0.0228 0.2775 0.4968
H6 H -0.0128 0.4017 0.3950
C4 C 0.24173(19) 0.01111(18) 0.44203(13)
H7 H 0.2972 0.0835 0.5069
H8 H 0.3116 -0.0778 0.4444
H9 H 0.1396 -0.0216 0.4563
C5 C 0.35164(16) 0.12927(18) 0.28218(14)
H10 H 0.3186 0.1914 0.2065
H11 H 0.4073 0.0373 0.2663
H12 H 0.4254 0.1883 0.3492
C6 C 0.06621(15) 0.04024(13) 0.05215(10)
H13 H 0.1385 -0.0369 0.1049
H14 H 0.1331 0.1064 0.0150
N1B N 0.04772(12) -0.18588(12) -0.32603(9)
N2B N -0.20678(12) -0.08543(13) -0.31899(10)
N3B N 0.01179(12) -0.13388(11) -0.12955(9)
C1B C -0.05014(13) -0.13573(13) -0.25085(10)
C2B C 0.22265(16) -0.20743(17) -0.26375(13)
H1B H 0.2392 -0.3035 -0.2173
H2B H 0.2819 -0.2105 -0.3262
H3B H 0.2631 -0.1226 -0.2064
C3B C -0.01949(17) -0.29870(15) -0.42638(12)
H4B H -0.1384 -0.2914 -0.4535
H5B H 0.0228 -0.2775 -0.4968
H6B H 0.0128 -0.4017 -0.3950
C4B C -0.24173(19) -0.01111(18) -0.44203(13)
H7B H -0.2972 -0.0835 -0.5069
H8B H -0.3116 0.0778 -0.4444
H9B H -0.1396 0.0216 -0.4563
C5B C -0.35164(16) -0.12927(18) -0.28218(14)
H10B H -0.3186 -0.1914 -0.2065
H11B H -0.4073 -0.0373 -0.2663
H12B H -0.4254 -0.1883 -0.3492
C6B C -0.06621(15) -0.04024(13) -0.05215(10)
H13B H -0.1385 0.0369 -0.1049
H14B H -0.1331 -0.1064 -0.0150
loop_
_geom_bond_atom_site_label_1
_geom_bond_atom_site_label_2
_geom_bond_site_symmetry_1
_geom_bond_site_symmetry_2
N1 C1 1_555 1_555
N2 C1 1_555 1_555
N3 C1 1_555 1_555
C2 N1 1_555 1_555
H1 C2 1_555 1_555
H2 C2 1_555 1_555
H3 C2 1_555 1_555
C3 N1 1_555 1_555
H4 C3 1_555 1_555
H5 C3 1_555 1_555
H6 C3 1_555 1_555
C4 N2 1_555 1_555
H7 C4 1_555 1_555
H8 C4 1_555 1_555
H9 C4 1_555 1_555
C5 N2 1_555 1_555
H10 C5 1_555 1_555
H11 C5 1_555 1_555
H12 C5 1_555 1_555
C6 N3 1_555 1_555
H13 C6 1_555 1_555
H14 C6 1_555 1_555
N1B C1B 1_555 1_555
N2B C1B 1_555 1_555
N3B C1B 1_555 1_555
C2B N1B 1_555 1_555
H1B C2B 1_555 1_555
H2B C2B 1_555 1_555
H3B C2B 1_555 1_555
C3B N1B 1_555 1_555
H4B C3B 1_555 1_555
H5B C3B 1_555 1_555
H6B C3B 1_555 1_555
C4B N2B 1_555 1_555
H7B C4B 1_555 1_555
H8B C4B 1_555 1_555
H9B C4B 1_555 1_555
C5B N2B 1_555 1_555
H10B C5B 1_555 1_555
H11B C5B 1_555 1_555
H12B C5B 1_555 1_555
C6B C6 1_555 1_555
H13B C6B 1_555 1_555
H14B C6B 1_555 1_555
N3B C6B 1_555 1_555

#END
