
#######################################################################
#
#                 Cambridge Crystallographic Data Centre
#                                CCDC 
#
#######################################################################
#
# If this CIF has been generated from an entry in the Cambridge 
# Structural Database, then it will include bibliographic, chemical, 
# crystal, experimental, refinement or atomic coordinate data resulting 
# from the CCDC's data processing and validation procedures.
#
#######################################################################

data_XEBFOA
_chemical_formula_moiety         'C7 H4 N2 O6,C9 H7 N1'
_chemical_name_systematic        '3,5-Dinitrobenzoic acid quinoline'
_symmetry_cell_setting           monoclinic
_symmetry_space_group_name_H-M   'P 21/c'
_symmetry_Int_Tables_number      14
_space_group_name_Hall           '-P 2ybc'
loop_
_symmetry_equiv_pos_site_id
_symmetry_equiv_pos_as_xyz
1 x,y,z
2 -x,1/2+y,1/2-z
3 -x,-y,-z
4 x,1/2-y,1/2+z
_cell_length_a                   7.03580(10)
_cell_length_b                   14.3980(3)
_cell_length_c                   14.6002(2)
_cell_angle_alpha                90
_cell_angle_beta                 90.1750(10)
_cell_angle_gamma                90
_cell_volume                     1479.01
_exptl_crystal_colour            colorless
_exptl_crystal_description       block
_chemical_melting_point          '419-421 K'
_cell_formula_units_Z            4
_exptl_crystal_recrystallization_method ethanol/water
loop_
_atom_site_label
_atom_site_type_symbol
_atom_site_fract_x
_atom_site_fract_y
_atom_site_fract_z
O1 O -0.31401(11) 0.98505(5) 0.08177(5)
O2 O -0.03232(11) 0.95559(5) 0.13448(7)
O3 O 0.17857(9) 0.63718(4) 0.18772(4)
O4 O -0.00812(9) 0.52130(4) 0.13711(5)
H1 H 0.088(2) 0.4878(13) 0.1509(15)
O5 O -0.62653(9) 0.59072(5) 0.00605(5)
O6 O -0.73098(9) 0.73275(5) 0.00127(5)
N1 N -0.18889(11) 0.93127(5) 0.10641(5)
N2 N -0.60903(10) 0.67429(5) 0.01951(5)
C1 C -0.22832(11) 0.83093(5) 0.10228(5)
C2 C -0.08846(11) 0.76953(5) 0.13057(5)
H2 H 0.0313(19) 0.7926(9) 0.1531(9)
C3 C -0.12201(10) 0.67437(5) 0.12261(5)
C4 C -0.29261(11) 0.64236(5) 0.08534(5)
H3 H -0.3143(19) 0.5772(10) 0.0760(9)
C5 C -0.42896(10) 0.70729(6) 0.05966(5)
C6 C -0.40238(11) 0.80229(6) 0.06743(5)
H4 H -0.493(2) 0.8460(10) 0.0469(9)
C7 C 0.03170(11) 0.60863(5) 0.15275(5)
N3 N 0.28155(10) 0.41459(5) 0.17217(5)
C8 C 0.44142(12) 0.45415(6) 0.19947(6)
H5 H 0.4366(19) 0.5226(10) 0.2050(9)
C9 C 0.60862(11) 0.40396(6) 0.22022(6)
H6 H 0.721(2) 0.4395(10) 0.2403(10)
C10 C 0.60637(11) 0.30920(6) 0.21134(5)
H7 H 0.718(2) 0.2733(10) 0.2241(10)
C11 C 0.43814(11) 0.26431(5) 0.18115(5)
C12 C 0.42687(12) 0.16698(6) 0.16800(6)
H8 H 0.540(2) 0.1292(9) 0.1786(10)
C13 C 0.25987(13) 0.12703(6) 0.13892(6)
H9 H 0.253(2) 0.0602(10) 0.1280(10)
C14 C 0.09811(12) 0.18285(6) 0.12081(6)
H10 H -0.016(2) 0.1548(10) 0.1007(10)
C15 C 0.10584(11) 0.27759(6) 0.13095(5)
H11 H -0.0030(19) 0.3159(9) 0.1163(9)
C16 C 0.27623(10) 0.31990(5) 0.16185(5)
loop_
_geom_bond_atom_site_label_1
_geom_bond_atom_site_label_2
_geom_bond_site_symmetry_1
_geom_bond_site_symmetry_2
O1 N1 1_555 1_555
O2 N1 1_555 1_555
O3 C7 1_555 1_555
O4 H1 1_555 1_555
O5 N2 1_555 1_555
O6 N2 1_555 1_555
N1 C1 1_555 1_555
N2 C5 1_555 1_555
N3 C8 1_555 1_555
C1 C2 1_555 1_555
C2 H2 1_555 1_555
C3 C2 1_555 1_555
C4 C3 1_555 1_555
H3 C4 1_555 1_555
C5 C4 1_555 1_555
C6 C1 1_555 1_555
H4 C6 1_555 1_555
C7 O4 1_555 1_555
C8 H5 1_555 1_555
C9 C8 1_555 1_555
H6 C9 1_555 1_555
C10 C9 1_555 1_555
H7 C10 1_555 1_555
C11 C10 1_555 1_555
C12 C11 1_555 1_555
H8 C12 1_555 1_555
C13 C12 1_555 1_555
H9 C13 1_555 1_555
C14 C13 1_555 1_555
H10 C14 1_555 1_555
C15 C14 1_555 1_555
H11 C15 1_555 1_555
C16 N3 1_555 1_555
C3 C7 1_555 1_555
C5 C6 1_555 1_555
C11 C16 1_555 1_555
C15 C16 1_555 1_555

#END
