
#######################################################################
#
#                 Cambridge Crystallographic Data Centre
#                                CCDC 
#
#######################################################################
#
# If this CIF has been generated from an entry in the Cambridge 
# Structural Database, then it will include bibliographic, chemical, 
# crystal, experimental, refinement or atomic coordinate data resulting 
# from the CCDC's data processing and validation procedures.
#
#######################################################################

data_XEBHIW
_chemical_formula_moiety         'C8 H10 Cl1 N1 O1'
_chemical_name_systematic        
(1S,2S,4S)-2-Chlorobicyclo(2.2.1)hept-5-ene-exo-2-carboxamide
_symmetry_cell_setting           monoclinic
_symmetry_space_group_name_H-M   'P 21'
_symmetry_Int_Tables_number      4
_space_group_name_Hall           'P 2yb'
loop_
_symmetry_equiv_pos_site_id
_symmetry_equiv_pos_as_xyz
1 x,y,z
2 -x,1/2+y,-z
_cell_length_a                   10.0660(10)
_cell_length_b                   6.8038(8)
_cell_length_c                   11.9210(10)
_cell_angle_alpha                90
_cell_angle_beta                 98.930(4)
_cell_angle_gamma                90
_cell_volume                     806.538
_exptl_crystal_colour            colorless
_exptl_crystal_description       needle
_chemical_melting_point          '112-114 deg.C'
_cell_formula_units_Z            4
loop_
_atom_site_label
_atom_site_type_symbol
_atom_site_fract_x
_atom_site_fract_y
_atom_site_fract_z
C1 C 0.3187(2) 0.2247(4) 0.7318(2)
C2 C 0.4422(2) 0.3629(4) 0.7388(2)
H1 H 0.5235 0.3065 0.7119
C3 C 0.4644(3) 0.4500(5) 0.8571(2)
H2 H 0.5372 0.4215 0.9156
C4 C 0.3656(3) 0.5715(5) 0.8643(3)
H3 H 0.3542 0.6472 0.9291
C5 C 0.2730(3) 0.5710(5) 0.7525(3)
H4 H 0.2133 0.6883 0.7359
C6 C 0.2031(3) 0.3692(4) 0.7431(3)
H5 H 0.1322 0.3632 0.6756
H6 H 0.1625 0.3405 0.8118
C7 C 0.3757(3) 0.5346(5) 0.6710(3)
H7 H 0.3328 0.4968 0.5936
H8 H 0.4375 0.6470 0.6674
C8 C 0.2876(2) 0.0921(4) 0.6261(2)
N1 N 0.3874(2) 0.0512(4) 0.56924(19)
O1 O 0.17425(17) 0.0251(3) 0.59836(16)
Cl2 Cl 0.34238(11) 0.04811(13) 0.84667(6)
H26 H 0.379(2) -0.042(5) 0.522(2)
H27 H 0.469(2) 0.102(4) 0.589(2)
C9 C 0.8229(5) -0.0576(9) 0.6999(5)
C10 C 0.9173(5) 0.0085(8) 0.8080(4)
H9 H 0.9906 0.1016 0.7958
C11 C 0.9610(4) -0.1733(8) 0.8766(4)
H10 H 1.0490 -0.2276 0.8895
C12 C 0.8564(10) -0.2414(15) 0.9148(9)
H11 H 0.8545 -0.3553 0.9606
C13 C 0.7371(10) -0.1082(13) 0.8738(10)
H12 H 0.6611 -0.1130 0.9187
C14 C 0.6992(11) -0.1440(15) 0.7433(10)
H13 H 0.6884 -0.2857 0.7255
H14 H 0.6159 -0.0734 0.7115
C15 C 0.8101(6) 0.0908(11) 0.8727(5)
H15 H 0.7540 0.1938 0.8300
H16 H 0.8474 0.1383 0.9496
Cl1 Cl 0.90005(13) -0.24983(19) 0.62447(12)
N2 N 0.8903(2) 0.1817(4) 0.5705(2)
O2 O 0.67529(16) 0.1946(3) 0.59944(15)
C23 C 0.790(6) 0.1155(15) 0.6169(10)
H25 H 0.871(2) 0.261(4) 0.517(2)
H28 H 0.977(4) 0.121(7) 0.592(3)
C16? C 0.8231(6) 0.0259(11) 0.7446(6)
C17? C 0.7129(16) -0.1258(18) 0.7623(15)
H17? H 0.6174 -0.0860 0.7364
C18? C 0.7474(17) -0.201(2) 0.8840(16)
H18? H 0.7020 -0.1649 0.9451
C19? C 0.8488(14) -0.322(2) 0.8911(12)
H19? H 0.8836 -0.4010 0.9547
C20? C 0.9001(8) -0.3133(12) 0.7787(10)
H20? H 0.9606 -0.4230 0.7625
C21? C 0.9492(6) -0.1033(11) 0.7588(8)
H21? H 1.0148 -0.0588 0.8244
H22? H 0.9924 -0.0983 0.6897
C22? C 0.7642(8) -0.3021(13) 0.7034(9)
H23? H 0.7091 -0.4214 0.7087
H24? H 0.7718 -0.2750 0.6230
Cl3? Cl 0.8312(3) 0.2163(4) 0.85003(18)
C24? C 0.791(9) 0.142(2) 0.6326(15)
loop_
_geom_bond_atom_site_label_1
_geom_bond_atom_site_label_2
_geom_bond_site_symmetry_1
_geom_bond_site_symmetry_2
C1 C2 1_555 1_555
C2 H1 1_555 1_555
C3 C2 1_555 1_555
H2 C3 1_555 1_555
C4 C3 1_555 1_555
H3 C4 1_555 1_555
C5 C4 1_555 1_555
H4 C5 1_555 1_555
C6 C1 1_555 1_555
H5 C6 1_555 1_555
H6 C6 1_555 1_555
C7 C2 1_555 1_555
H7 C7 1_555 1_555
H8 C7 1_555 1_555
C8 C1 1_555 1_555
C9 C10 1_555 1_555
C10 H9 1_555 1_555
C11 C10 1_555 1_555
H10 C11 1_555 1_555
C12 C11 1_555 1_555
H11 C12 1_555 1_555
C13 C12 1_555 1_555
H12 C13 1_555 1_555
C14 C9 1_555 1_555
H13 C14 1_555 1_555
H14 C14 1_555 1_555
C15 C10 1_555 1_555
H15 C15 1_555 1_555
H16 C15 1_555 1_555
Cl1 C9 1_555 1_555
N1 C8 1_555 1_555
N2 C23 1_555 1_555
O1 C8 1_555 1_555
O2 C23 1_555 1_555
Cl2 C1 1_555 1_555
C23 C9 1_555 1_555
H25 N2 1_555 1_555
H26 N1 1_555 1_555
H27 N1 1_555 1_555
H28 N2 1_555 1_555
C5 C6 1_555 1_555
C5 C7 1_555 1_555
C13 C14 1_555 1_555
C13 C15 1_555 1_555

#END
