
#######################################################################
#
#                 Cambridge Crystallographic Data Centre
#                                CCDC 
#
#######################################################################
#
# If this CIF has been generated from an entry in the Cambridge 
# Structural Database, then it will include bibliographic, chemical, 
# crystal, experimental, refinement or atomic coordinate data resulting 
# from the CCDC's data processing and validation procedures.
#
#######################################################################

data_XEBMAU
_chemical_formula_moiety         'C17 H12 Br1 Cl1 N2 O1'
_chemical_name_systematic        
3-(4-Bromophenyl)-1-(4-chlorobenzyl)-1H-pyrazole-5-carbaldehyde
_symmetry_cell_setting           triclinic
_symmetry_space_group_name_H-M   'P -1'
_symmetry_Int_Tables_number      2
_space_group_name_Hall           '-P 1'
loop_
_symmetry_equiv_pos_site_id
_symmetry_equiv_pos_as_xyz
1 x,y,z
2 -x,-y,-z
_cell_length_a                   6.759(5)
_cell_length_b                   10.061(5)
_cell_length_c                   12.263(5)
_cell_angle_alpha                109.080(5)
_cell_angle_beta                 94.521(5)
_cell_angle_gamma                93.098(5)
_cell_volume                     782.823
_exptl_crystal_colour            colorless
_exptl_crystal_description       block
_cell_formula_units_Z            2
loop_
_atom_site_label
_atom_site_type_symbol
_atom_site_fract_x
_atom_site_fract_y
_atom_site_fract_z
Br1 Br 1.33740(5) -0.03239(4) -0.36464(3)
C1 C 0.2091(4) 0.4007(3) 0.0013(3)
H1 H 0.1666 0.4399 -0.0546
C2 C 0.3841(4) 0.3206(3) -0.0184(2)
C3 C 0.4976(4) 0.2937(3) -0.1103(2)
H2 H 0.4800 0.3243 -0.1740
C4 C 0.6443(4) 0.2110(2) -0.0884(2)
C5 C 0.4145(4) 0.2593(3) 0.1680(2)
H3 H 0.4587 0.1766 0.1837
H4 H 0.2711 0.2569 0.1693
C6 C 0.5106(4) 0.3908(3) 0.2619(2)
C7 C 0.3960(4) 0.4906(3) 0.3274(2)
H5 H 0.2582 0.4783 0.3110
C8 C 0.4806(5) 0.6079(3) 0.4166(2)
H6 H 0.4013 0.6738 0.4601
C9 C 0.7135(5) 0.4130(4) 0.2855(3)
H7 H 0.7940 0.3483 0.2415
C10 C 0.7995(5) 0.5311(4) 0.3743(3)
H8 H 0.9374 0.5459 0.3893
C11 C 0.6828(5) 0.6255(3) 0.4398(2)
C12 C 0.8084(4) 0.1521(3) -0.1560(2)
C13 C 0.9331(4) 0.0666(3) -0.1209(2)
H9 H 0.9110 0.0459 -0.0541
C14 C 1.0906(5) 0.0105(3) -0.1818(3)
H10 H 1.1735 -0.0465 -0.1562
C15 C 0.8436(5) 0.1785(3) -0.2571(3)
H11 H 0.7611 0.2351 -0.2835
C16 C 0.9981(5) 0.1229(3) -0.3193(3)
H12 H 1.0186 0.1408 -0.3875
C17 C 1.1211(4) 0.0411(3) -0.2803(2)
Cl1 Cl 0.79191(16) 0.76908(10) 0.55587(7)
N1 N 0.4642(3) 0.2545(2) 0.05291(18)
N2 N 0.6237(3) 0.1883(2) 0.01222(19)
O1 O 0.1149(3) 0.4203(3) 0.0836(2)
loop_
_geom_bond_atom_site_label_1
_geom_bond_atom_site_label_2
_geom_bond_site_symmetry_1
_geom_bond_site_symmetry_2
Br1 C17 1_555 1_555
C1 H1 1_555 1_555
C2 C1 1_555 1_555
C3 C2 1_555 1_555
H2 C3 1_555 1_555
C4 C3 1_555 1_555
C5 H3 1_555 1_555
H4 C5 1_555 1_555
C6 C5 1_555 1_555
C7 C6 1_555 1_555
H5 C7 1_555 1_555
C8 C7 1_555 1_555
H6 C8 1_555 1_555
C9 C6 1_555 1_555
H7 C9 1_555 1_555
C10 C9 1_555 1_555
H8 C10 1_555 1_555
C11 C8 1_555 1_555
C12 C4 1_555 1_555
C13 C12 1_555 1_555
H9 C13 1_555 1_555
C14 C13 1_555 1_555
H10 C14 1_555 1_555
C15 C12 1_555 1_555
H11 C15 1_555 1_555
C16 C15 1_555 1_555
H12 C16 1_555 1_555
C17 C14 1_555 1_555
Cl1 C11 1_555 1_555
N1 C2 1_555 1_555
N2 C4 1_555 1_555
O1 C1 1_555 1_555
C5 N1 1_555 1_555
C10 C11 1_555 1_555
C16 C17 1_555 1_555
N1 N2 1_555 1_555

#END
