
#######################################################################
#
#                 Cambridge Crystallographic Data Centre
#                                CCDC 
#
#######################################################################
#
# If this CIF has been generated from an entry in the Cambridge 
# Structural Database, then it will include bibliographic, chemical, 
# crystal, experimental, refinement or atomic coordinate data resulting 
# from the CCDC's data processing and validation procedures.
#
#######################################################################

data_XEBNOK
_chemical_formula_moiety         'C22 H20 O6'
_chemical_name_systematic        
'4-((E)-3-oxobut-1-en-1-yl)phenyl (E)-3-(4-acetoxy-3-methoxyphenyl)acrylate'
_symmetry_cell_setting           monoclinic
_symmetry_space_group_name_H-M   'P 21/c'
_symmetry_Int_Tables_number      14
_space_group_name_Hall           '-P 2ybc'
loop_
_symmetry_equiv_pos_site_id
_symmetry_equiv_pos_as_xyz
1 x,y,z
2 -x,1/2+y,1/2-z
3 -x,-y,-z
4 x,1/2-y,1/2+z
_cell_length_a                   22.6222(13)
_cell_length_b                   7.6843(4)
_cell_length_c                   10.9077(7)
_cell_angle_alpha                90
_cell_angle_beta                 95.314(2)
_cell_angle_gamma                90
_cell_volume                     1888
_exptl_crystal_colour            colorless
_exptl_crystal_description       Prism
_cell_formula_units_Z            4
loop_
_atom_site_label
_atom_site_type_symbol
_atom_site_fract_x
_atom_site_fract_y
_atom_site_fract_z
O1 O 0.60250(10) 0.0651(4) 0.7022(2)
O2 O 0.54118(9) 0.1386(3) 0.84428(18)
O3 O 0.90397(9) -0.0559(3) 1.0289(2)
O4 O 0.89138(9) 0.0710(3) 1.25598(18)
O5 O 0.93925(10) 0.2830(3) 1.1666(2)
O6 O 0.22473(10) 0.1608(4) 0.3101(2)
C1 C 0.59558(14) 0.1080(4) 0.8044(3)
C2 C 0.64131(13) 0.1338(4) 0.9045(3)
H1 H 0.6320 0.1898 0.9758
C3 C 0.69624(13) 0.0790(4) 0.8962(3)
H2 H 0.7036 0.0287 0.8216
C4 C 0.74681(12) 0.0876(4) 0.9899(3)
C5 C 0.80078(12) 0.0156(4) 0.9622(3)
H3 H 0.8037 -0.0322 0.8846
C6 C 0.84973(13) 0.0136(4) 1.0472(3)
C7 C 0.84424(13) 0.0832(4) 1.1630(3)
C8 C 0.79223(13) 0.1570(4) 1.1913(3)
H4 H 0.7897 0.2055 1.2688
C9 C 0.74338(13) 0.1598(4) 1.1054(3)
H5 H 0.7081 0.2102 1.1251
C10 C 0.91421(14) -0.1036(5) 0.9062(3)
H6 H 0.8910 -0.2045 0.8820
H7 H 0.9556 -0.1292 0.9027
H8 H 0.9030 -0.0091 0.8514
C11 C 0.93775(14) 0.1805(5) 1.2486(3)
C12 C 0.98328(14) 0.1552(5) 1.3538(3)
H9 H 1.0143 0.2398 1.3497
H10 H 0.9997 0.0404 1.3502
H11 H 0.9653 0.1691 1.4296
C13 C 0.48748(13) 0.1179(4) 0.7701(3)
C14 C 0.44018(13) 0.0811(4) 0.8353(3)
H12 H 0.4460 0.0623 0.9198
C15 C 0.38385(14) 0.0719(5) 0.7754(3)
H13 H 0.3518 0.0493 0.8206
C16 C 0.37415(13) 0.0955(4) 0.6506(3)
C17 C 0.42307(14) 0.1266(5) 0.5855(3)
H14 H 0.4176 0.1390 0.5004
C18 C 0.47984(14) 0.1398(5) 0.6448(3)
H15 H 0.5121 0.1629 0.6004
C19 C 0.31273(13) 0.0915(4) 0.5908(3)
H16 H 0.2829 0.0679 0.6415
C20 C 0.29584(14) 0.1175(4) 0.4741(3)
H17 H 0.3255 0.1387 0.4225
C21 C 0.23411(13) 0.1164(4) 0.4170(3)
C22 C 0.18461(14) 0.0576(5) 0.4879(3)
H18 H 0.1475 0.0965 0.4472
H19 H 0.1897 0.1054 0.5694
H20 H 0.1847 -0.0672 0.4926
loop_
_geom_bond_atom_site_label_1
_geom_bond_atom_site_label_2
_geom_bond_site_symmetry_1
_geom_bond_site_symmetry_2
O1 C1 1_555 1_555
O2 C1 1_555 1_555
O3 C6 1_555 1_555
O4 C7 1_555 1_555
O5 C11 1_555 1_555
O6 C21 1_555 1_555
C1 C2 1_555 1_555
C2 H1 1_555 1_555
C3 C2 1_555 1_555
H2 C3 1_555 1_555
C4 C3 1_555 1_555
C5 C4 1_555 1_555
H3 C5 1_555 1_555
C6 C5 1_555 1_555
C7 C6 1_555 1_555
C8 C7 1_555 1_555
H4 C8 1_555 1_555
C9 C4 1_555 1_555
H5 C9 1_555 1_555
C10 O3 1_555 1_555
H6 C10 1_555 1_555
H7 C10 1_555 1_555
H8 C10 1_555 1_555
C11 O4 1_555 1_555
C12 C11 1_555 1_555
H9 C12 1_555 1_555
H10 C12 1_555 1_555
H11 C12 1_555 1_555
C13 O2 1_555 1_555
C14 C13 1_555 1_555
H12 C14 1_555 1_555
C15 C14 1_555 1_555
H13 C15 1_555 1_555
C16 C15 1_555 1_555
C17 C16 1_555 1_555
H14 C17 1_555 1_555
C18 C13 1_555 1_555
H15 C18 1_555 1_555
C19 C16 1_555 1_555
H16 C19 1_555 1_555
C20 C19 1_555 1_555
H17 C20 1_555 1_555
C21 C20 1_555 1_555
C22 C21 1_555 1_555
H18 C22 1_555 1_555
H19 C22 1_555 1_555
H20 C22 1_555 1_555
C8 C9 1_555 1_555
C17 C18 1_555 1_555

#END
