
#######################################################################
#
#                 Cambridge Crystallographic Data Centre
#                                CCDC 
#
#######################################################################
#
# If this CIF has been generated from an entry in the Cambridge 
# Structural Database, then it will include bibliographic, chemical, 
# crystal, experimental, refinement or atomic coordinate data resulting 
# from the CCDC's data processing and validation procedures.
#
#######################################################################

data_XEBNAU
_chemical_name_common            'Argentain B 3-oxime'
_chemical_formula_moiety         'C30 H49 N1 O3'
_chemical_name_systematic        
(16\b,24R)-16,24-Epoxy-25-hydroxycycloartan-3-oxime
_chemical_properties_biological  
'Some activity against HCT-15, K562, PC-3 and U251 human cancer cell lines'
_symmetry_cell_setting           orthorhombic
_symmetry_space_group_name_H-M   'P 21 21 21'
_symmetry_Int_Tables_number      19
_space_group_name_Hall           'P 2ac 2ab'
loop_
_symmetry_equiv_pos_site_id
_symmetry_equiv_pos_as_xyz
1 x,y,z
2 1/2-x,-y,1/2+z
3 -x,1/2+y,1/2-z
4 1/2+x,1/2-y,-z
_cell_length_a                   10.827(2)
_cell_length_b                   13.366(3)
_cell_length_c                   19.105(4)
_cell_angle_alpha                90
_cell_angle_beta                 90
_cell_angle_gamma                90
_cell_volume                     2764.75
_chemical_melting_point          224-227deg.C
_cell_formula_units_Z            4
loop_
_atom_site_label
_atom_site_type_symbol
_atom_site_fract_x
_atom_site_fract_y
_atom_site_fract_z
N1 N 0.5535(4) 0.9637(3) 0.6079(2)
O1 O 0.5912(4) 0.8706(3) 0.5776(2)
H1 H 0.656(5) 0.893(4) 0.535(3)
O2 O -0.2433(3) 1.0698(2) 0.97309(17)
O3 O -0.4833(5) 1.1645(4) 0.9389(2)
H2 H -0.530(5) 1.223(4) 0.943(3)
C1 C 0.3273(5) 0.8469(4) 0.7143(3)
H3 H 0.3088 0.7853 0.7381
H4 H 0.2836 0.8472 0.6706
C2 C 0.4649(5) 0.8554(4) 0.6988(3)
H5 H 0.4908 0.8011 0.6694
H6 H 0.5091 0.8510 0.7422
C3 C 0.4944(4) 0.9532(4) 0.6646(2)
C4 C 0.4500(5) 1.0487(3) 0.7005(2)
C5 C 0.3099(5) 1.0338(3) 0.7174(2)
H7 H 0.2699 1.0266 0.6728
C6 C 0.2481(6) 1.1230(4) 0.7518(3)
H8 H 0.2604 1.1818 0.7237
H9 H 0.2859 1.1341 0.7966
C7 C 0.1113(5) 1.1027(4) 0.7631(4)
H10 H 0.0752 1.0837 0.7192
H11 H 0.0710 1.1625 0.7791
C8 C 0.0894(5) 1.0204(4) 0.8147(3)
H12 H 0.1220 1.0470 0.8575
C9 C 0.1673(4) 0.9266(3) 0.8012(2)
C10 C 0.2831(4) 0.9354(4) 0.7570(2)
C11 C 0.1000(5) 0.8253(3) 0.7998(3)
H13 H 0.1587 0.7748 0.8128
H14 H 0.0755 0.8122 0.7523
C12 C -0.0136(5) 0.8121(4) 0.8473(3)
H15 H 0.0026 0.7611 0.8815
H16 H -0.0818 0.7899 0.8192
C13 C -0.0542(4) 0.9087(3) 0.8841(2)
C14 C -0.0474(4) 0.9959(4) 0.8308(2)
C15 C -0.1164(4) 1.0784(4) 0.8699(3)
H17 H -0.1440 1.1285 0.8374
H18 H -0.0648 1.1095 0.9045
C16 C -0.2248(4) 1.0258(3) 0.9057(2)
H19 H -0.2979 1.0351 0.8780
C17 C -0.1925(4) 0.9122(4) 0.9087(2)
H20 H -0.2397 0.8787 0.8731
C18 C 0.0312(4) 0.9263(4) 0.9467(2)
H21 H 0.1159 0.9232 0.9319
H22 H 0.0145 0.9911 0.9662
H23 H 0.0165 0.8759 0.9816
C19 C 0.2984(5) 0.9276(4) 0.8341(3)
H24 H 0.3299 0.8658 0.8525
H25 H 0.3239 0.9866 0.8588
C20 C -0.2267(5) 0.8629(4) 0.9777(3)
H26 H -0.1846 0.8985 1.0143
C21 C -0.1897(5) 0.7521(4) 0.9821(3)
H27 H -0.1030 0.7458 0.9728
H28 H -0.2073 0.7270 1.0281
H29 H -0.2355 0.7143 0.9481
C22 C -0.3660(5) 0.8669(4) 0.9924(3)
H30 H -0.3785 0.8500 1.0407
H31 H -0.4060 0.8165 0.9647
C23 C -0.4316(5) 0.9670(4) 0.9809(3)
H32 H -0.5136 0.9658 0.9999
H33 H -0.4382 0.9765 0.9313
C24 C -0.3608(4) 1.0560(4) 1.0088(3)
H34 H -0.3423 1.0411 1.0568
C25 C -0.4352(5) 1.1539(4) 1.0076(3)
C26 C -0.5408(6) 1.1480(5) 1.0607(3)
H35 H -0.5889 1.2083 1.0598
H36 H -0.5924 1.0921 1.0489
H37 H -0.5072 1.1386 1.1067
C27 C -0.3543(6) 1.2424(5) 1.0272(4)
H38 H -0.2873 1.2489 0.9946
H39 H -0.4016 1.3032 1.0277
H40 H -0.3218 1.2299 1.0731
C28 C -0.1177(5) 0.9722(5) 0.7622(3)
H41 H -0.2027 0.9579 0.7724
H42 H -0.1130 1.0281 0.7308
H43 H -0.0802 0.9148 0.7408
C29 C 0.5281(5) 1.0641(5) 0.7659(3)
H44 H 0.6133 1.0728 0.7533
H45 H 0.4995 1.1224 0.7903
H46 H 0.5199 1.0065 0.7955
C30 C 0.4660(6) 1.1394(4) 0.6522(3)
H47 H 0.5520 1.1493 0.6423
H48 H 0.4221 1.1281 0.6093
H49 H 0.4335 1.1978 0.6750
loop_
_geom_bond_atom_site_label_1
_geom_bond_atom_site_label_2
_geom_bond_site_symmetry_1
_geom_bond_site_symmetry_2
N1 O1 1_555 1_555
O1 H1 1_555 1_555
O2 C16 1_555 1_555
O3 H2 1_555 1_555
C1 H3 1_555 1_555
H4 C1 1_555 1_555
C2 C1 1_555 1_555
H5 C2 1_555 1_555
H6 C2 1_555 1_555
C3 N1 1_555 1_555
C4 C3 1_555 1_555
C5 C4 1_555 1_555
H7 C5 1_555 1_555
C6 C5 1_555 1_555
H8 C6 1_555 1_555
H9 C6 1_555 1_555
C7 C6 1_555 1_555
H10 C7 1_555 1_555
H11 C7 1_555 1_555
C8 C7 1_555 1_555
H12 C8 1_555 1_555
C9 C8 1_555 1_555
C10 C1 1_555 1_555
C11 C9 1_555 1_555
H13 C11 1_555 1_555
H14 C11 1_555 1_555
C12 C11 1_555 1_555
H15 C12 1_555 1_555
H16 C12 1_555 1_555
C13 C12 1_555 1_555
C14 C8 1_555 1_555
C15 C14 1_555 1_555
H17 C15 1_555 1_555
H18 C15 1_555 1_555
C16 C15 1_555 1_555
H19 C16 1_555 1_555
C17 C13 1_555 1_555
H20 C17 1_555 1_555
C18 C13 1_555 1_555
H21 C18 1_555 1_555
H22 C18 1_555 1_555
H23 C18 1_555 1_555
C19 C9 1_555 1_555
H24 C19 1_555 1_555
H25 C19 1_555 1_555
C20 C17 1_555 1_555
H26 C20 1_555 1_555
C21 C20 1_555 1_555
H27 C21 1_555 1_555
H28 C21 1_555 1_555
H29 C21 1_555 1_555
C22 C20 1_555 1_555
H30 C22 1_555 1_555
H31 C22 1_555 1_555
C23 C22 1_555 1_555
H32 C23 1_555 1_555
H33 C23 1_555 1_555
C24 O2 1_555 1_555
H34 C24 1_555 1_555
C25 O3 1_555 1_555
C26 C25 1_555 1_555
H35 C26 1_555 1_555
H36 C26 1_555 1_555
H37 C26 1_555 1_555
C27 C25 1_555 1_555
H38 C27 1_555 1_555
H39 C27 1_555 1_555
H40 C27 1_555 1_555
C28 C14 1_555 1_555
H41 C28 1_555 1_555
H42 C28 1_555 1_555
H43 C28 1_555 1_555
C29 C4 1_555 1_555
H44 C29 1_555 1_555
H45 C29 1_555 1_555
H46 C29 1_555 1_555
C30 C4 1_555 1_555
H47 C30 1_555 1_555
H48 C30 1_555 1_555
H49 C30 1_555 1_555
C2 C3 1_555 1_555
C5 C10 1_555 1_555
C9 C10 1_555 1_555
C10 C19 1_555 1_555
C13 C14 1_555 1_555
C16 C17 1_555 1_555
C23 C24 1_555 1_555
C24 C25 1_555 1_555

#END
