
#######################################################################
#
#                 Cambridge Crystallographic Data Centre
#                                CCDC 
#
#######################################################################
#
# If this CIF has been generated from an entry in the Cambridge 
# Structural Database, then it will include bibliographic, chemical, 
# crystal, experimental, refinement or atomic coordinate data resulting 
# from the CCDC's data processing and validation procedures.
#
#######################################################################

data_XEBPIF
_chemical_name_common            
'4-(3-Fluoroanilino)thieno[2,3-b]pyridine-6-carboxylic acid'
_chemical_formula_moiety         'C14 H9 F1 N2 O2 S1'
_chemical_name_systematic        
'4-((3-Fluorophenyl)amino)thieno[2,3-b]pyridine-5-carboxylic acid'
_symmetry_cell_setting           orthorhombic
_symmetry_space_group_name_H-M   'P n a 21'
_symmetry_Int_Tables_number      33
_space_group_name_Hall           'P 2c -2n'
loop_
_symmetry_equiv_pos_site_id
_symmetry_equiv_pos_as_xyz
1 x,y,z
2 -x,-y,1/2+z
3 1/2-x,1/2+y,1/2+z
4 1/2+x,1/2-y,z
_cell_length_a                   17.0666(6)
_cell_length_b                   8.7147(3)
_cell_length_c                   7.9931(2)
_cell_angle_alpha                90
_cell_angle_beta                 90
_cell_angle_gamma                90
_cell_volume                     1188.82
_exptl_crystal_colour            'dark orange'
_exptl_crystal_description       blade
_cell_formula_units_Z            4
loop_
_atom_site_label
_atom_site_type_symbol
_atom_site_fract_x
_atom_site_fract_y
_atom_site_fract_z
S1 S 0.02466(3) 0.49277(6) 0.56709(9)
O1 O 0.26956(9) 0.89190(18) 1.0209(2)
H1 H 0.2865(16) 0.959(2) 1.090(3)
O2 O 0.17443(8) 1.06688(18) 1.0208(2)
N1 N 0.15569(10) 0.5951(2) 0.7157(2)
N2 N 0.03616(11) 0.9821(2) 0.9068(3)
H2 H 0.0711(11) 1.041(3) 0.956(3)
C1 C 0.18990(13) 0.7023(2) 0.8094(3)
H3 H 0.2445 0.6918 0.8298
C2 C 0.15232(12) 0.8288(2) 0.8800(2)
C3 C 0.07089(13) 0.8526(2) 0.8490(3)
C4 C 0.03239(12) 0.7380(2) 0.7525(3)
C5 C -0.04725(13) 0.7259(2) 0.6927(3)
H4 H -0.0872 0.7977 0.7195
C6 C -0.05889(12) 0.6029(2) 0.5952(3)
H5 H -0.1081 0.5784 0.5464
C7 C 0.07779(12) 0.6170(2) 0.6923(3)
C8 C 0.19891(12) 0.9401(3) 0.9793(3)
C9 C -0.04436(13) 1.0256(3) 0.9067(3)
C10 C -0.06524(14) 1.1599(3) 0.8256(3)
H6 H -0.0279 1.2153 0.7613
C11 C -0.19667(14) 1.1360(3) 0.9319(4)
H7 H -0.2487 1.1741 0.9406
C12 C -0.09947(13) 0.9457(3) 1.0002(3)
H8 H -0.0857 0.8531 1.0554
C13 C -0.14136(15) 1.2115(3) 0.8400(3)
C14 C -0.17454(14) 1.0032(3) 1.0113(3)
H9 H -0.2122 0.9491 1.0761
F1 F -0.16627(15) 1.3395(3) 0.7761(3)
C15? C -0.14136(15) 1.2115(3) 0.8400(3)
C16? C -0.17454(14) 1.0032(3) 1.0113(3)
F2? F -0.23113(18) 0.9534(4) 1.1023(4)
H10? H -0.1559 1.3032 0.7838
loop_
_geom_bond_atom_site_label_1
_geom_bond_atom_site_label_2
_geom_bond_site_symmetry_1
_geom_bond_site_symmetry_2
S1 C6 1_555 1_555
O1 H1 1_555 1_555
O2 C8 1_555 1_555
N1 C1 1_555 1_555
N2 H2 1_555 1_555
C1 H3 1_555 1_555
C2 C1 1_555 1_555
C3 N2 1_555 1_555
C4 C3 1_555 1_555
C5 C4 1_555 1_555
H4 C5 1_555 1_555
C6 C5 1_555 1_555
H5 C6 1_555 1_555
C7 S1 1_555 1_555
C8 O1 1_555 1_555
C9 N2 1_555 1_555
C10 C9 1_555 1_555
H6 C10 1_555 1_555
C11 H7 1_555 1_555
C12 C9 1_555 1_555
H8 C12 1_555 1_555
C13 C10 1_555 1_555
C14 C11 1_555 1_555
H9 C14 1_555 1_555
F1 C13 1_555 1_555
N1 C7 1_555 1_555
C2 C3 1_555 1_555
C2 C8 1_555 1_555
C4 C7 1_555 1_555
C11 C13 1_555 1_555
C12 C14 1_555 1_555

#END
