
#######################################################################
#
#                 Cambridge Crystallographic Data Centre
#                                CCDC 
#
#######################################################################
#
# If this CIF has been generated from an entry in the Cambridge 
# Structural Database, then it will include bibliographic, chemical, 
# crystal, experimental, refinement or atomic coordinate data resulting 
# from the CCDC's data processing and validation procedures.
#
#######################################################################

data_XEBQEC
_chemical_name_common            
"N,N,N',N',N''-Pentamethyl-N''-[3-(1,3,3-trimethylureido)propyl]guanidinium tetraphenylborate"
_chemical_formula_moiety         'C13 H30 N5 O1 1+,C24 H20 B1 1-'
_chemical_name_systematic        
'N-Methyl-N-(2,4,8,10-tetramethyl-9-oxo-2,4,8,10-tetraazaundecan-3-ylidene)methanaminium tetraphenylborate'
_symmetry_cell_setting           monoclinic
_symmetry_space_group_name_H-M   'P 21/n'
_symmetry_Int_Tables_number      14
_space_group_name_Hall           '-P 2yn'
loop_
_symmetry_equiv_pos_site_id
_symmetry_equiv_pos_as_xyz
1 x,y,z
2 1/2-x,1/2+y,1/2-z
3 -x,-y,-z
4 1/2+x,1/2-y,1/2+z
_cell_length_a                   16.6807(7)
_cell_length_b                   9.7766(4)
_cell_length_c                   21.6911(9)
_cell_angle_alpha                90
_cell_angle_beta                 110.743(3)
_cell_angle_gamma                90
_cell_volume                     3308.1
_exptl_crystal_colour            colorless
_exptl_crystal_description       polyhedral
_chemical_melting_point          '426 K'
_cell_formula_units_Z            4
_exptl_crystal_recrystallization_method acetonitrile
loop_
_atom_site_label
_atom_site_type_symbol
_atom_site_fract_x
_atom_site_fract_y
_atom_site_fract_z
C1 C 0.00142(6) 0.43833(10) 0.28523(5)
N1 N 0.04589(5) 0.54738(9) 0.27727(4)
N2 N 0.01497(5) 0.39040(9) 0.34611(4)
N3 N -0.05660(5) 0.37668(9) 0.23291(4)
C2 C 0.00943(6) 0.65341(11) 0.22761(5)
H1 H -0.0523 0.6378 0.2060
H2 H 0.0371 0.6501 0.1946
H3 H 0.0190 0.7434 0.2489
C3 C 0.13425(6) 0.57032(12) 0.32099(5)
H4 H 0.1354 0.6410 0.3533
H5 H 0.1686 0.6003 0.2950
H6 H 0.1580 0.4851 0.3440
C4 C 0.03473(7) 0.48174(12) 0.40317(5)
H7 H 0.0946 0.4689 0.4319
H8 H -0.0030 0.4605 0.4277
H9 H 0.0259 0.5769 0.3880
C5 C 0.01339(7) 0.24405(11) 0.35967(5)
H10 H -0.0403 0.2213 0.3662
H11 H 0.0620 0.2211 0.3996
H12 H 0.0174 0.1917 0.3223
C6 C -0.13342(6) 0.31226(11) 0.23767(5)
H13 H -0.1259 0.2128 0.2403
H14 H -0.1832 0.3356 0.1986
H15 H -0.1426 0.3453 0.2773
C7 C -0.05146(6) 0.38013(10) 0.16672(5)
H16 H 0.0013 0.4294 0.1688
H17 H -0.1011 0.4318 0.1369
C8 C -0.05061(6) 0.23790(11) 0.13824(5)
H18 H -0.0525 0.2467 0.0923
H19 H -0.1026 0.1877 0.1373
C9 C 0.02876(6) 0.15555(10) 0.17809(5)
H20 H 0.0315 0.1485 0.2243
H21 H 0.0239 0.0618 0.1599
N4 N 0.10752(5) 0.21848(9) 0.17680(4)
C10 C 0.12466(7) 0.20148(12) 0.11575(5)
H22 H 0.0953 0.2736 0.0846
H23 H 0.1037 0.1119 0.0965
H24 H 0.1865 0.2075 0.1252
C11 C 0.16660(6) 0.26634(10) 0.23433(5)
O1 O 0.16215(5) 0.24141(9) 0.28856(4)
N5 N 0.23374(6) 0.34149(10) 0.22769(5)
C12 C 0.30581(7) 0.36738(14) 0.28860(7)
H25 H 0.2910 0.4416 0.3130
H26 H 0.3562 0.3937 0.2780
H27 H 0.3186 0.2843 0.3156
C13 C 0.21641(8) 0.45323(13) 0.17992(7)
H28 H 0.1569 0.4474 0.1494
H29 H 0.2552 0.4462 0.1551
H30 H 0.2255 0.5410 0.2032
B1 B 0.27778(7) 0.66069(11) 0.56100(5)
C14 C 0.25827(6) 0.49830(10) 0.54196(4)
C15 C 0.22288(6) 0.40787(11) 0.57578(5)
H31 H 0.2108 0.4410 0.6128
C16 C 0.20468(7) 0.27111(11) 0.55717(5)
H32 H 0.1813 0.2133 0.5817
C17 C 0.22064(7) 0.21925(11) 0.50295(5)
H33 H 0.2096 0.1259 0.4908
C18 C 0.25315(7) 0.30673(12) 0.46684(5)
H34 H 0.2631 0.2737 0.4290
C19 C 0.27107(6) 0.44254(11) 0.48620(5)
H35 H 0.2929 0.5003 0.4606
C20 C 0.36740(6) 0.71189(10) 0.55261(4)
C21 C 0.43511(6) 0.62355(11) 0.55543(5)
H36 H 0.4270 0.5278 0.5578
C22 C 0.51385(6) 0.67076(11) 0.55480(5)
H37 H 0.5577 0.6073 0.5565
C23 C 0.52831(6) 0.81001(11) 0.55176(5)
H38 H 0.5818 0.8427 0.5515
C24 C 0.46291(6) 0.90079(11) 0.54911(5)
H39 H 0.4717 0.9964 0.5471
C25 C 0.38455(6) 0.85204(11) 0.54939(5)
H40 H 0.3409 0.9162 0.5473
C26 C 0.19311(6) 0.74476(10) 0.51335(5)
C27 C 0.18843(6) 0.82027(11) 0.45734(5)
H41 H 0.2381 0.8266 0.4457
C28 C 0.11366(7) 0.88671(11) 0.41778(5)
H42 H 0.1133 0.9368 0.3802
C29 C 0.03995(7) 0.87970(12) 0.43334(5)
H43 H -0.0107 0.9260 0.4071
C30 C 0.04144(7) 0.80373(13) 0.48794(5)
H44 H -0.0087 0.7967 0.4989
C31 C 0.11627(6) 0.73815(12) 0.52643(5)
H45 H 0.1156 0.6864 0.5633
C32 C 0.29464(6) 0.69109(10) 0.63942(5)
C33 C 0.26863(6) 0.81209(11) 0.66204(5)
H46 H 0.2345 0.8758 0.6306
C34 C 0.29113(7) 0.84212(12) 0.72909(5)
H47 H 0.2725 0.9252 0.7423
C35 C 0.34055(7) 0.75121(12) 0.77639(5)
H48 H 0.3561 0.7715 0.8220
C36 C 0.36696(7) 0.62986(12) 0.75598(5)
H49 H 0.4002 0.5659 0.7877
C37 C 0.34463(6) 0.60215(11) 0.68907(5)
H50 H 0.3641 0.5192 0.6764
loop_
_geom_bond_atom_site_label_1
_geom_bond_atom_site_label_2
_geom_bond_site_symmetry_1
_geom_bond_site_symmetry_2
C1 N1 1_555 1_555
N1 C2 1_555 1_555
N2 C1 1_555 1_555
N3 C1 1_555 1_555
C2 H1 1_555 1_555
H2 C2 1_555 1_555
H3 C2 1_555 1_555
C3 N1 1_555 1_555
H4 C3 1_555 1_555
H5 C3 1_555 1_555
H6 C3 1_555 1_555
C4 N2 1_555 1_555
H7 C4 1_555 1_555
H8 C4 1_555 1_555
H9 C4 1_555 1_555
C5 N2 1_555 1_555
H10 C5 1_555 1_555
H11 C5 1_555 1_555
H12 C5 1_555 1_555
C6 N3 1_555 1_555
H13 C6 1_555 1_555
H14 C6 1_555 1_555
H15 C6 1_555 1_555
C7 N3 1_555 1_555
H16 C7 1_555 1_555
H17 C7 1_555 1_555
C8 C7 1_555 1_555
H18 C8 1_555 1_555
H19 C8 1_555 1_555
C9 C8 1_555 1_555
H20 C9 1_555 1_555
H21 C9 1_555 1_555
N4 C9 1_555 1_555
C10 N4 1_555 1_555
H22 C10 1_555 1_555
H23 C10 1_555 1_555
H24 C10 1_555 1_555
C11 N4 1_555 1_555
O1 C11 1_555 1_555
N5 C11 1_555 1_555
C12 N5 1_555 1_555
H25 C12 1_555 1_555
H26 C12 1_555 1_555
H27 C12 1_555 1_555
C13 N5 1_555 1_555
H28 C13 1_555 1_555
H29 C13 1_555 1_555
H30 C13 1_555 1_555
B1 C14 1_555 1_555
C14 C15 1_555 1_555
C15 H31 1_555 1_555
C16 C15 1_555 1_555
H32 C16 1_555 1_555
C17 C16 1_555 1_555
H33 C17 1_555 1_555
C18 C17 1_555 1_555
H34 C18 1_555 1_555
C19 C14 1_555 1_555
H35 C19 1_555 1_555
C20 B1 1_555 1_555
C21 C20 1_555 1_555
H36 C21 1_555 1_555
C22 C21 1_555 1_555
H37 C22 1_555 1_555
C23 C22 1_555 1_555
H38 C23 1_555 1_555
C24 C23 1_555 1_555
H39 C24 1_555 1_555
C25 C20 1_555 1_555
H40 C25 1_555 1_555
C26 B1 1_555 1_555
C27 C26 1_555 1_555
H41 C27 1_555 1_555
C28 C27 1_555 1_555
H42 C28 1_555 1_555
C29 C28 1_555 1_555
H43 C29 1_555 1_555
C30 C29 1_555 1_555
H44 C30 1_555 1_555
C31 C26 1_555 1_555
H45 C31 1_555 1_555
C32 B1 1_555 1_555
C33 C32 1_555 1_555
H46 C33 1_555 1_555
C34 C33 1_555 1_555
H47 C34 1_555 1_555
C35 C34 1_555 1_555
H48 C35 1_555 1_555
C36 C35 1_555 1_555
H49 C36 1_555 1_555
C37 C32 1_555 1_555
H50 C37 1_555 1_555
C18 C19 1_555 1_555
C24 C25 1_555 1_555
C30 C31 1_555 1_555
C36 C37 1_555 1_555

#END
