
#######################################################################
#
#                 Cambridge Crystallographic Data Centre
#                                CCDC 
#
#######################################################################
#
# If this CIF has been generated from an entry in the Cambridge 
# Structural Database, then it will include bibliographic, chemical, 
# crystal, experimental, refinement or atomic coordinate data resulting 
# from the CCDC's data processing and validation procedures.
#
#######################################################################

data_XEBVIL
_chemical_name_common            N'-Benzylidene-3-phenylacrylohydrazide
_chemical_formula_moiety         'C16 H14 N2 O1'
_chemical_name_systematic        
(2E)-N'-[(E)-Benzylidene]-3-phenylprop-2-enohydrazide
_symmetry_cell_setting           orthorhombic
_symmetry_space_group_name_H-M   'P b c a'
_symmetry_Int_Tables_number      61
_space_group_name_Hall           '-P 2ac 2ab'
loop_
_symmetry_equiv_pos_site_id
_symmetry_equiv_pos_as_xyz
1 x,y,z
2 1/2-x,-y,1/2+z
3 -x,1/2+y,1/2-z
4 1/2+x,1/2-y,-z
5 -x,-y,-z
6 1/2+x,y,1/2-z
7 x,1/2-y,1/2+z
8 1/2-x,1/2+y,z
_cell_length_a                   11.473(19)
_cell_length_b                   7.507(13)
_cell_length_c                   30.50(5)
_cell_angle_alpha                90
_cell_angle_beta                 90
_cell_angle_gamma                90
_cell_volume                     2626.9
_exptl_crystal_colour            colorless
_exptl_crystal_description       needle
_cell_formula_units_Z            8
loop_
_atom_site_label
_atom_site_type_symbol
_atom_site_fract_x
_atom_site_fract_y
_atom_site_fract_z
O1 O 0.38302(13) 0.0885(2) 0.60236(5)
N1 N 0.23795(16) 0.2057(3) 0.66603(6)
N2 N 0.25029(17) 0.2886(3) 0.62606(6)
H1 H 0.209(2) 0.385(2) 0.6201(8)
C1 C 0.14001(19) 0.2034(3) 0.73493(7)
C2 C 0.21991(19) 0.0947(3) 0.75586(7)
H2 H 0.2886 0.0588 0.7409
C3 C 0.2010(2) 0.0384(3) 0.79800(7)
H3 H 0.2554 -0.0392 0.8117
C4 C 0.1040(2) 0.0931(3) 0.82057(8)
H4 H 0.0924 0.0559 0.8500
C5 C 0.0236(2) 0.2021(4) 0.80048(8)
H5 H -0.0442 0.2389 0.8159
C6 C 0.0418(2) 0.2580(3) 0.75771(8)
H6 H -0.0134 0.3341 0.7439
C7 C 0.15938(19) 0.2706(3) 0.69056(7)
H7 H 0.1121 0.3649 0.6799
C8 C 0.3245(2) 0.2246(3) 0.59613(7)
C9 C 0.32566(19) 0.3248(3) 0.55473(7)
H8 H 0.2785 0.4282 0.5518
C10 C 0.3909(2) 0.2735(3) 0.52168(7)
H9 H 0.4399 0.1736 0.5268
C11 C 0.39690(19) 0.3527(3) 0.47781(7)
C12 C 0.3407(2) 0.5093(4) 0.46697(8)
H10 H 0.2972 0.5710 0.4887
C13 C 0.3468(2) 0.5770(4) 0.42517(9)
H11 H 0.3079 0.6851 0.4181
C14 C 0.4090(2) 0.4885(4) 0.39369(8)
H12 H 0.4134 0.5354 0.3648
C15 C 0.4645(2) 0.3332(4) 0.40364(8)
H13 H 0.5069 0.2716 0.3816
C16 C 0.4593(2) 0.2651(4) 0.44565(8)
H14 H 0.4988 0.1574 0.4525
loop_
_geom_bond_atom_site_label_1
_geom_bond_atom_site_label_2
_geom_bond_site_symmetry_1
_geom_bond_site_symmetry_2
O1 C8 1_555 1_555
N1 N2 1_555 1_555
N2 H1 1_555 1_555
C1 C2 1_555 1_555
C2 H2 1_555 1_555
C3 C2 1_555 1_555
H3 C3 1_555 1_555
C4 C3 1_555 1_555
H4 C4 1_555 1_555
C5 C4 1_555 1_555
H5 C5 1_555 1_555
C6 C1 1_555 1_555
H6 C6 1_555 1_555
C7 N1 1_555 1_555
H7 C7 1_555 1_555
C8 N2 1_555 1_555
C9 C8 1_555 1_555
H8 C9 1_555 1_555
C10 C9 1_555 1_555
H9 C10 1_555 1_555
C11 C10 1_555 1_555
C12 C11 1_555 1_555
H10 C12 1_555 1_555
C13 C12 1_555 1_555
H11 C13 1_555 1_555
C14 C13 1_555 1_555
H12 C14 1_555 1_555
C15 C14 1_555 1_555
H13 C15 1_555 1_555
C16 C11 1_555 1_555
H14 C16 1_555 1_555
C1 C7 1_555 1_555
C5 C6 1_555 1_555
C15 C16 1_555 1_555

#END
