
#######################################################################
#
#                 Cambridge Crystallographic Data Centre
#                                CCDC 
#
#######################################################################
#
# If this CIF has been generated from an entry in the Cambridge 
# Structural Database, then it will include bibliographic, chemical, 
# crystal, experimental, refinement or atomic coordinate data resulting 
# from the CCDC's data processing and validation procedures.
#
#######################################################################

data_XEBWIN
_chemical_formula_moiety         'C26 H30 Br1 N3 O2,C3 H6 O1'
_chemical_name_systematic        
"2,2'-(3-((3-bromophenyl)imino)-5-t-butyl-3H-pyrrolo[3,2,1-ij]cinnoline-2,8-diyl)dipropan-2-ol acetone solvate"
_symmetry_cell_setting           monoclinic
_symmetry_space_group_name_H-M   'P 21/c'
_symmetry_Int_Tables_number      14
_space_group_name_Hall           '-P 2ybc'
loop_
_symmetry_equiv_pos_site_id
_symmetry_equiv_pos_as_xyz
1 x,y,z
2 -x,1/2+y,1/2-z
3 -x,-y,-z
4 x,1/2-y,1/2+z
_cell_length_a                   9.440(2)
_cell_length_b                   23.577(5)
_cell_length_c                   13.061(3)
_cell_angle_alpha                90
_cell_angle_beta                 107.585(3)
_cell_angle_gamma                90
_cell_volume                     2771.1
_exptl_crystal_colour            brown
_exptl_crystal_description       block
_cell_formula_units_Z            4
loop_
_atom_site_label
_atom_site_type_symbol
_atom_site_fract_x
_atom_site_fract_y
_atom_site_fract_z
Br1 Br 0.67957(3) 0.699662(11) -0.05050(2)
O1 O 1.42839(15) 0.39691(7) 0.44705(13)
H1 H 1.4705 0.4109 0.4046
O2 O 0.57330(16) 0.44978(6) 0.31254(14)
H2 H 0.5545 0.4831 0.2897
N1 N 1.07007(17) 0.47548(7) 0.34452(14)
N2 N 0.94860(17) 0.44162(7) 0.32677(14)
N3 N 0.65705(18) 0.54488(7) 0.23383(15)
C1 C 0.9296(2) 0.56349(8) 0.30330(16)
C2 C 0.9476(2) 0.62269(8) 0.30649(16)
H3 H 0.8617 0.6461 0.2850
C3 C 1.0880(2) 0.64831(9) 0.34033(16)
C4 C 1.2169(2) 0.61460(9) 0.37300(17)
H4 H 1.3122 0.6319 0.3959
C5 C 1.2040(2) 0.55577(9) 0.37155(17)
C6 C 1.0606(2) 0.53296(8) 0.33693(16)
C7 C 1.3036(2) 0.50769(9) 0.40031(17)
H5 H 1.4089 0.5096 0.4262
C8 C 1.2215(2) 0.45948(9) 0.38416(16)
C9 C 0.8195(2) 0.46641(8) 0.29562(16)
C10 C 0.7940(2) 0.52861(8) 0.27402(16)
C11 C 1.0961(2) 0.71338(9) 0.33796(19)
C12 C 1.0550(4) 0.73237(12) 0.2203(2)
H6 H 1.1316 0.7196 0.1890
H7 H 1.0480 0.7738 0.2167
H8 H 0.9591 0.7158 0.1802
C13 C 0.9858(3) 0.73958(11) 0.3895(3)
H9 H 0.8848 0.7275 0.3498
H10 H 0.9923 0.7810 0.3873
H11 H 1.0098 0.7270 0.4643
C14 C 1.2502(3) 0.73574(11) 0.3986(2)
H12 H 1.2775 0.7229 0.4735
H13 H 1.2495 0.7773 0.3965
H14 H 1.3228 0.7214 0.3649
C15 C 1.2706(2) 0.39797(9) 0.39804(17)
C16 C 1.2294(3) 0.36841(10) 0.28944(19)
H15 H 1.2810 0.3868 0.2436
H16 H 1.1218 0.3710 0.2553
H17 H 1.2589 0.3284 0.2995
C17 C 1.2063(2) 0.36751(11) 0.4764(2)
H18 H 1.2471 0.3290 0.4889
H19 H 1.0979 0.3656 0.4463
H20 H 1.2325 0.3883 0.5445
C18 C 0.6858(2) 0.42601(9) 0.27189(18)
C19 C 0.7270(2) 0.36988(9) 0.3299(2)
H21 H 0.7686 0.3767 0.4072
H22 H 0.8010 0.3505 0.3036
H23 H 0.6381 0.3461 0.3165
C20 C 0.6237(3) 0.41683(11) 0.1510(2)
H24 H 0.5341 0.3933 0.1353
H25 H 0.6983 0.3977 0.1249
H26 H 0.5989 0.4536 0.1149
C21 C 0.6214(2) 0.60077(9) 0.19575(17)
C22 C 0.6578(2) 0.61914(9) 0.10539(18)
H27 H 0.7057 0.5943 0.0690
C23 C 0.6231(2) 0.67397(10) 0.06957(18)
C24 C 0.5528(3) 0.71139(10) 0.1194(2)
H28 H 0.5324 0.7493 0.0946
C25 C 0.5131(3) 0.69179(11) 0.2068(2)
H29 H 0.4630 0.7165 0.2417
C26 C 0.5448(2) 0.63677(10) 0.2447(2)
H30 H 0.5144 0.6238 0.3036
O3 O 0.1056(3) 0.51654(12) -0.07579(17)
C27 C 0.2557(4) 0.51139(15) 0.1036(3)
H31 H 0.2078 0.5025 0.1586
H32 H 0.3394 0.5372 0.1338
H33 H 0.2919 0.4763 0.0799
C28 C 0.1468(3) 0.53887(13) 0.0110(2)
C29 C 0.0895(5) 0.59525(16) 0.0327(4)
H34 H 0.1714 0.6227 0.0522
H35 H 0.0467 0.5917 0.0921
H36 H 0.0129 0.6084 -0.0317
loop_
_geom_bond_atom_site_label_1
_geom_bond_atom_site_label_2
_geom_bond_site_symmetry_1
_geom_bond_site_symmetry_2
Br1 C23 1_555 1_555
O1 H1 1_555 1_555
O2 H2 1_555 1_555
N1 N2 1_555 1_555
N2 C9 1_555 1_555
N3 C10 1_555 1_555
C1 C2 1_555 1_555
C2 H3 1_555 1_555
C3 C2 1_555 1_555
C4 C3 1_555 1_555
H4 C4 1_555 1_555
C5 C4 1_555 1_555
C6 N1 1_555 1_555
C7 C5 1_555 1_555
H5 C7 1_555 1_555
C8 N1 1_555 1_555
C9 C10 1_555 1_555
C10 C1 1_555 1_555
C11 C3 1_555 1_555
C12 C11 1_555 1_555
H6 C12 1_555 1_555
H7 C12 1_555 1_555
H8 C12 1_555 1_555
C13 C11 1_555 1_555
H9 C13 1_555 1_555
H10 C13 1_555 1_555
H11 C13 1_555 1_555
C14 C11 1_555 1_555
H12 C14 1_555 1_555
H13 C14 1_555 1_555
H14 C14 1_555 1_555
C15 O1 1_555 1_555
C16 C15 1_555 1_555
H15 C16 1_555 1_555
H16 C16 1_555 1_555
H17 C16 1_555 1_555
C17 C15 1_555 1_555
H18 C17 1_555 1_555
H19 C17 1_555 1_555
H20 C17 1_555 1_555
C18 O2 1_555 1_555
C19 C18 1_555 1_555
H21 C19 1_555 1_555
H22 C19 1_555 1_555
H23 C19 1_555 1_555
C20 C18 1_555 1_555
H24 C20 1_555 1_555
H25 C20 1_555 1_555
H26 C20 1_555 1_555
C21 N3 1_555 1_555
C22 C21 1_555 1_555
H27 C22 1_555 1_555
C23 C22 1_555 1_555
C24 C23 1_555 1_555
H28 C24 1_555 1_555
C25 C24 1_555 1_555
H29 C25 1_555 1_555
C26 C21 1_555 1_555
H30 C26 1_555 1_555
O3 C28 1_555 1_555
C27 H31 1_555 1_555
H32 C27 1_555 1_555
H33 C27 1_555 1_555
C28 C27 1_555 1_555
C29 C28 1_555 1_555
H34 C29 1_555 1_555
H35 C29 1_555 1_555
H36 C29 1_555 1_555
C1 C6 1_555 1_555
C5 C6 1_555 1_555
C7 C8 1_555 1_555
C8 C15 1_555 1_555
C9 C18 1_555 1_555
C25 C26 1_555 1_555

#END
