
#######################################################################
#
#                 Cambridge Crystallographic Data Centre
#                                CCDC 
#
#######################################################################
#
# If this CIF has been generated from an entry in the Cambridge 
# Structural Database, then it will include bibliographic, chemical, 
# crystal, experimental, refinement or atomic coordinate data resulting 
# from the CCDC's data processing and validation procedures.
#
#######################################################################

data_XEBWAF
_chemical_formula_moiety         'C23 H22 O7'
_chemical_name_systematic        
'2-methoxy-4-(3-oxobut-1-en-1-yl)phenyl 3-(4-acetoxy-3-methoxyphenyl)acrylate'
_symmetry_cell_setting           monoclinic
_symmetry_space_group_name_H-M   'P 21/c'
_symmetry_Int_Tables_number      14
_space_group_name_Hall           '-P 2ybc'
loop_
_symmetry_equiv_pos_site_id
_symmetry_equiv_pos_as_xyz
1 x,y,z
2 -x,1/2+y,1/2-z
3 -x,-y,-z
4 x,1/2-y,1/2+z
_cell_length_a                   5.9945(4)
_cell_length_b                   36.2260(19)
_cell_length_c                   9.6239(8)
_cell_angle_alpha                90
_cell_angle_beta                 91.083(6)
_cell_angle_gamma                90
_cell_volume                     2089.52
_exptl_crystal_colour            colorless
_exptl_crystal_description       block
_cell_formula_units_Z            4
loop_
_atom_site_label
_atom_site_type_symbol
_atom_site_fract_x
_atom_site_fract_y
_atom_site_fract_z
O1 O 0.3053(4) 0.07737(5) 0.1117(2)
O2 O 0.6736(3) 0.08000(6) 0.2755(2)
C1 C 0.3518(5) 0.11062(8) 0.1699(3)
O3 O 1.0784(4) -0.11695(6) 0.3901(2)
O4 O 1.4468(4) -0.11294(6) 0.2397(3)
C2 C 1.1204(6) -0.08377(8) 0.3304(3)
C3 C 0.5409(5) 0.11198(8) 0.2583(3)
O5 O 0.4277(5) 0.05554(6) 0.4188(3)
C4 C 0.5934(6) 0.05221(8) 0.3556(3)
C5 C 0.7306(6) 0.01842(8) 0.3541(3)
H1 H 0.6800 -0.0017 0.4043
C6 C 1.3770(6) -0.14207(9) 0.1636(4)
C7 C 0.2306(5) 0.14248(8) 0.1484(3)
H2 H 0.1041 0.1418 0.0910
O6 O 1.2085(5) -0.14155(7) 0.0969(3)
C8 C 0.2935(5) 0.17577(8) 0.2108(3)
C9 C 1.3070(5) -0.08183(9) 0.2475(4)
C10 C 0.9149(6) 0.01455(9) 0.2887(3)
H3 H 0.9672 0.0353 0.2425
C11 C 1.0529(5) -0.01931(8) 0.2791(3)
C12 C 0.1689(6) 0.20979(8) 0.1855(4)
H4 H 0.2302 0.2311 0.2242
C13 C 0.9905(5) -0.05215(8) 0.3454(3)
H5 H 0.8632 -0.0528 0.3991
C14 C 0.4816(6) 0.17612(9) 0.2978(4)
H6 H 0.5263 0.1980 0.3404
C15 C 0.1236(6) 0.07660(9) 0.0130(3)
H7 H 0.1534 0.0934 -0.0616
H8 H -0.0113 0.0838 0.0578
H9 H 0.1068 0.0521 -0.0235
C16 C 0.6024(6) 0.14410(9) 0.3213(4)
H10 H 0.7267 0.1445 0.3806
C17 C 1.2396(6) -0.01854(9) 0.2006(4)
H11 H 1.2815 0.0033 0.1573
C18 C 1.3670(6) -0.04998(9) 0.1849(5)
H12 H 1.4943 -0.0493 0.1313
C19 C 1.5378(7) -0.17323(9) 0.1774(4)
H13 H 1.6861 -0.1644 0.1614
H14 H 1.5004 -0.1919 0.1103
H15 H 1.5306 -0.1834 0.2692
C20 C 0.8895(6) -0.11918(10) 0.4770(4)
H16 H 0.7579 -0.1123 0.4248
H17 H 0.9092 -0.1027 0.5544
H18 H 0.8740 -0.1440 0.5104
C21 C -0.0205(6) 0.21416(8) 0.1142(4)
H19 H -0.0866 0.1930 0.0771
C22 C -0.0371(8) 0.28397(10) 0.1401(7)
H20 H -0.0218 0.2830 0.2395
H21 H -0.1328 0.3042 0.1139
H22 H 0.1070 0.2874 0.1002
C23 C -0.1347(7) 0.24913(9) 0.0888(5)
O7 O -0.3136(6) 0.24969(8) 0.0271(5)
loop_
_geom_bond_atom_site_label_1
_geom_bond_atom_site_label_2
_geom_bond_site_symmetry_1
_geom_bond_site_symmetry_2
O1 C1 1_555 1_555
O2 C3 1_555 1_555
C1 C3 1_555 1_555
O3 C2 1_555 1_555
O4 C6 1_555 1_555
C2 C9 1_555 1_555
C3 C16 1_555 1_555
O5 C4 1_555 1_555
C4 O2 1_555 1_555
C5 C4 1_555 1_555
H1 C5 1_555 1_555
C6 O6 1_555 1_555
C7 C1 1_555 1_555
H2 C7 1_555 1_555
C8 C7 1_555 1_555
C9 O4 1_555 1_555
C10 C5 1_555 1_555
H3 C10 1_555 1_555
C11 C10 1_555 1_555
C12 C8 1_555 1_555
H4 C12 1_555 1_555
C13 C2 1_555 1_555
H5 C13 1_555 1_555
C14 C8 1_555 1_555
H6 C14 1_555 1_555
C15 O1 1_555 1_555
H7 C15 1_555 1_555
H8 C15 1_555 1_555
H9 C15 1_555 1_555
C16 C14 1_555 1_555
H10 C16 1_555 1_555
C17 C11 1_555 1_555
H11 C17 1_555 1_555
C18 C9 1_555 1_555
H12 C18 1_555 1_555
C19 C6 1_555 1_555
H13 C19 1_555 1_555
H14 C19 1_555 1_555
H15 C19 1_555 1_555
C20 O3 1_555 1_555
H16 C20 1_555 1_555
H17 C20 1_555 1_555
H18 C20 1_555 1_555
C21 C12 1_555 1_555
H19 C21 1_555 1_555
C22 H20 1_555 1_555
H21 C22 1_555 1_555
H22 C22 1_555 1_555
C23 C21 1_555 1_555
O7 C23 1_555 1_555
C11 C13 1_555 1_555
C17 C18 1_555 1_555
C22 C23 1_555 1_555

#END
