
#######################################################################
#
#                 Cambridge Crystallographic Data Centre
#                                CCDC 
#
#######################################################################
#
# If this CIF has been generated from an entry in the Cambridge 
# Structural Database, then it will include bibliographic, chemical, 
# crystal, experimental, refinement or atomic coordinate data resulting 
# from the CCDC's data processing and validation procedures.
#
#######################################################################

data_XEBWOS
_chemical_formula_moiety         'C25 H24 F1 N3 O5'
_chemical_name_systematic        
'7-(4-(1,3-Benzodioxol-5-ylmethyl)piperazin-1-yl)-1-cyclopropyl-6-fluoro-4-oxo-1,4-dihydroquinoline-3-carboxylic acid'
_symmetry_cell_setting           triclinic
_symmetry_space_group_name_H-M   'P -1'
_symmetry_Int_Tables_number      2
_space_group_name_Hall           '-P 1'
loop_
_symmetry_equiv_pos_site_id
_symmetry_equiv_pos_as_xyz
1 x,y,z
2 -x,-y,-z
_cell_length_a                   8.6200(5)
_cell_length_b                   9.7068(9)
_cell_length_c                   13.7680(13)
_cell_angle_alpha                79.089(8)
_cell_angle_beta                 76.000(6)
_cell_angle_gamma                87.939(6)
_cell_volume                     1097.52
_exptl_crystal_colour            colorless
_exptl_crystal_description       block
_cell_formula_units_Z            2
loop_
_atom_site_label
_atom_site_type_symbol
_atom_site_fract_x
_atom_site_fract_y
_atom_site_fract_z
F1 F 0.57863(9) 0.83866(7) -0.04072(5)
O1 O 0.99664(10) 0.51558(9) -0.18920(7)
O2 O 1.16469(11) 0.30144(10) -0.21487(7)
H1 H 1.115(2) 0.395(2) -0.2171(14)
O3 O 1.11852(12) 0.10674(10) -0.09798(8)
N1 N 0.25302(12) 0.83641(10) 0.31959(8)
N2 N 0.75205(12) 0.29596(10) 0.08703(8)
C1 C 0.71154(14) 0.43605(12) 0.05691(9)
C2 C 0.79299(14) 0.51058(13) -0.03849(9)
C3 C 0.59360(14) 0.50087(13) 0.12175(9)
H2 H 0.5426 0.4500 0.1851
C4 C 0.95480(14) 0.30413(13) -0.06705(10)
N3 N 0.43402(12) 0.70790(10) 0.15591(8)
C5 C 0.55067(14) 0.63977(12) 0.09375(9)
O4 O 0.41707(12) 1.17463(10) 0.53985(8)
O5 O 0.31968(13) 1.39049(10) 0.47811(8)
C6 C 0.20577(14) 0.70110(13) 0.30375(10)
H3 H 0.1285 0.7158 0.2620
H4 H 0.1548 0.6445 0.3690
C7 C 0.92076(14) 0.44720(13) -0.10431(9)
C8 C 0.74649(14) 0.64957(13) -0.06867(9)
H5 H 0.7969 0.7009 -0.1320
C9 C 0.62876(14) 0.70857(12) -0.00577(9)
C10 C 0.14668(15) 1.29718(14) 0.38467(10)
H6 H 0.1062 1.3835 0.3603
C11 C 0.26908(14) 1.03395(13) 0.45990(10)
H7 H 0.3100 0.9483 0.4851
C12 C 0.10290(15) 1.17255(14) 0.36068(10)
H8 H 0.0319 1.1768 0.3190
C13 C 1.08468(15) 0.22684(14) -0.12629(10)
C14 C 0.34835(14) 0.62297(13) 0.25215(9)
H9 H 0.4203 0.5994 0.2970
H10 H 0.3119 0.5362 0.2393
C15 C 0.86751(15) 0.23478(13) 0.02508(10)
H11 H 0.8892 0.1407 0.0458
C16 C 0.25223(15) 1.28555(13) 0.44597(10)
C17 C 0.11331(14) 0.90959(13) 0.36969(10)
H12 H 0.0564 0.8482 0.4311
H13 H 0.0415 0.9323 0.3246
C18 C 0.16168(14) 1.04287(13) 0.39686(9)
C19 C 0.47789(14) 0.84670(12) 0.17178(10)
H14 H 0.5293 0.9037 0.1068
H15 H 0.5528 0.8348 0.2151
C20 C 0.32998(15) 0.91944(13) 0.22088(10)
H16 H 0.3590 1.0111 0.2297
H17 H 0.2559 0.9326 0.1770
C21 C 0.31084(14) 1.15687(14) 0.48255(10)
C22 C 0.66294(15) 0.21667(13) 0.18405(10)
H18 H 0.5509 0.1960 0.1879
C23 C 0.69772(16) 0.24489(14) 0.28023(10)
H19 H 0.6086 0.2430 0.3391
H20 H 0.7815 0.3124 0.2739
C24 C 0.74586(17) 0.10871(14) 0.24508(10)
H21 H 0.8587 0.0942 0.2178
H22 H 0.6859 0.0248 0.2829
C25 C 0.40629(18) 1.31863(15) 0.54924(11)
H23 H 0.5125 1.3593 0.5346
H24 H 0.3511 1.3271 0.6181
loop_
_geom_bond_atom_site_label_1
_geom_bond_atom_site_label_2
_geom_bond_site_symmetry_1
_geom_bond_site_symmetry_2
F1 C9 1_555 1_555
O1 C7 1_555 1_555
O2 H1 1_555 1_555
O3 C13 1_555 1_555
N1 C6 1_555 1_555
N2 C1 1_555 1_555
C1 C2 1_555 1_555
C2 C7 1_555 1_555
C3 C1 1_555 1_555
H2 C3 1_555 1_555
C4 C7 1_555 1_555
N3 C5 1_555 1_555
C5 C3 1_555 1_555
O4 C21 1_555 1_555
O5 C16 1_555 1_555
C6 H3 1_555 1_555
H4 C6 1_555 1_555
C8 C2 1_555 1_555
H5 C8 1_555 1_555
C9 C5 1_555 1_555
C10 H6 1_555 1_555
C11 H7 1_555 1_555
C12 C10 1_555 1_555
H8 C12 1_555 1_555
C13 O2 1_555 1_555
C14 N3 1_555 1_555
H9 C14 1_555 1_555
H10 C14 1_555 1_555
C15 N2 1_555 1_555
H11 C15 1_555 1_555
C16 C10 1_555 1_555
C17 N1 1_555 1_555
H12 C17 1_555 1_555
H13 C17 1_555 1_555
C18 C11 1_555 1_555
C19 N3 1_555 1_555
H14 C19 1_555 1_555
H15 C19 1_555 1_555
C20 N1 1_555 1_555
H16 C20 1_555 1_555
H17 C20 1_555 1_555
C21 C11 1_555 1_555
C22 N2 1_555 1_555
H18 C22 1_555 1_555
C23 C22 1_555 1_555
H19 C23 1_555 1_555
H20 C23 1_555 1_555
C24 C22 1_555 1_555
H21 C24 1_555 1_555
H22 C24 1_555 1_555
C25 O4 1_555 1_555
H23 C25 1_555 1_555
H24 C25 1_555 1_555
C4 C13 1_555 1_555
C4 C15 1_555 1_555
O5 C25 1_555 1_555
C6 C14 1_555 1_555
C8 C9 1_555 1_555
C12 C18 1_555 1_555
C16 C21 1_555 1_555
C17 C18 1_555 1_555
C19 C20 1_555 1_555
C23 C24 1_555 1_555

#END
