
#######################################################################
#
#                 Cambridge Crystallographic Data Centre
#                                CCDC 
#
#######################################################################
#
# If this CIF has been generated from an entry in the Cambridge 
# Structural Database, then it will include bibliographic, chemical, 
# crystal, experimental, refinement or atomic coordinate data resulting 
# from the CCDC's data processing and validation procedures.
#
#######################################################################

data_XEBXAF
_chemical_formula_moiety         'C18 H36 N3 O1 P1,C6 H14 N1 1+,C2 H3 O2 1-'
_chemical_name_systematic        
"Cyclohexylammonium acetate N,N',N''-tricyclohexylphosphoric triamide"
_symmetry_cell_setting           monoclinic
_symmetry_space_group_name_H-M   'P 21/c'
_symmetry_Int_Tables_number      14
_space_group_name_Hall           '-P 2ybc'
loop_
_symmetry_equiv_pos_site_id
_symmetry_equiv_pos_as_xyz
1 x,y,z
2 -x,1/2+y,1/2-z
3 -x,-y,-z
4 x,1/2-y,1/2+z
_cell_length_a                   12.7663(8)
_cell_length_b                   10.9011(7)
_cell_length_c                   21.2791(13)
_cell_angle_alpha                90
_cell_angle_beta                 104.523(3)
_cell_angle_gamma                90
_cell_volume                     2866.72
_exptl_crystal_colour            colorless
_exptl_crystal_description       block
_cell_formula_units_Z            4
loop_
_atom_site_label
_atom_site_type_symbol
_atom_site_fract_x
_atom_site_fract_y
_atom_site_fract_z
P1 P 0.03749(3) 0.03310(4) 0.110490(19)
O1 O -0.03516(9) -0.06943(10) 0.07941(5)
N1 N -0.03942(11) 0.14670(13) 0.12349(6)
H1 H -0.0051(14) 0.2092(15) 0.1427(9)
N2 N 0.12192(11) 0.06325(12) 0.06552(7)
H2 H 0.0942(14) 0.0571(17) 0.0240(7)
N3 N 0.11772(11) 0.01218(13) 0.18250(7)
H3 H 0.0902(15) 0.0241(18) 0.2140(8)
C1 C 0.21703(13) -0.06129(15) 0.19470(8)
H7 H 0.2472 -0.0528 0.1558
C2 C 0.19909(15) -0.19790(16) 0.20397(9)
H8 H 0.1455 -0.2303 0.1656
H9 H 0.1701 -0.2100 0.2425
C3 C 0.30587(16) -0.26732(17) 0.21303(9)
H10 H 0.2940 -0.3549 0.2216
H11 H 0.3301 -0.2625 0.1724
C4 C 0.39406(16) -0.21611(18) 0.26870(9)
H12 H 0.3752 -0.2326 0.3103
H13 H 0.4632 -0.2582 0.2699
C5 C 0.40827(15) -0.07895(19) 0.26147(9)
H14 H 0.4379 -0.0634 0.2235
H15 H 0.4608 -0.0473 0.3005
C6 C 0.30118(14) -0.01101(17) 0.25267(9)
H16 H 0.2747 -0.0201 0.2924
H17 H 0.3124 0.0775 0.2461
C7 C 0.21298(13) 0.14884(15) 0.08461(8)
H18 H 0.2431 0.1405 0.1325
C8 C 0.30137(13) 0.11132(16) 0.05214(8)
H19 H 0.2731 0.1162 0.0044
H20 H 0.3223 0.0251 0.0635
C9 C 0.40097(15) 0.19339(17) 0.07308(10)
H21 H 0.4355 0.1792 0.1196
H22 H 0.4538 0.1712 0.0480
C10 C 0.37214(15) 0.32891(17) 0.06253(9)
H23 H 0.4371 0.3793 0.0810
H24 H 0.3485 0.3460 0.0154
C11 C 0.28244(15) 0.36423(16) 0.09441(9)
H25 H 0.2623 0.4511 0.0845
H26 H 0.3090 0.3560 0.1421
C12 C 0.18287(14) 0.28355(15) 0.07060(9)
H27 H 0.1533 0.2954 0.0233
H28 H 0.1264 0.3074 0.0928
C13 C -0.13969(13) 0.17719(15) 0.07496(8)
H29 H -0.1773 0.0984 0.0591
C14 C -0.12088(14) 0.24561(16) 0.01597(8)
H30 H -0.0792 0.3214 0.0306
H31 H -0.0775 0.1935 -0.0061
C15 C -0.22712(15) 0.27884(16) -0.03186(8)
H32 H -0.2644 0.2028 -0.0508
H33 H -0.2119 0.3280 -0.0677
C16 C -0.30106(15) 0.35149(18) 0.00041(9)
H34 H -0.3711 0.3664 -0.0313
H35 H -0.2677 0.4320 0.0148
C17 C -0.32031(15) 0.28178(18) 0.05861(9)
H36 H -0.3604 0.2052 0.0435
H37 H -0.3651 0.3324 0.0804
C18 C -0.21338(14) 0.25052(16) 0.10695(8)
H38 H -0.1765 0.3273 0.1251
H39 H -0.2281 0.2024 0.1433
O2 O -0.03699(11) 0.56848(11) 0.20581(6)
O3 O 0.03597(10) 0.39451(11) 0.18349(6)
C19 C 0.00103(13) 0.50061(15) 0.16902(8)
C20 C 0.00121(17) 0.55092(16) 0.10254(9)
H40 H 0.0599 0.5127 0.0874
H41 H 0.0121 0.6399 0.1054
H42 H -0.0682 0.5326 0.0719
N4 N 0.90968(12) 0.80813(14) 0.19022(7)
H4 H 0.9261(15) 0.8438(17) 0.1561(8)
H5 H 0.9447(14) 0.8426(17) 0.2274(8)
H6 H 0.9338(15) 0.7323(14) 0.1928(9)
C21 C 0.79125(14) 0.81068(15) 0.18393(8)
H43 H 0.7770 0.7760 0.2245
C22 C 0.73229(14) 0.73242(16) 0.12695(8)
H44 H 0.7564 0.6462 0.1344
H45 H 0.7505 0.7613 0.0869
C23 C 0.61009(15) 0.73912(18) 0.11812(9)
H46 H 0.5911 0.6999 0.1558
H47 H 0.5736 0.6929 0.0787
C24 C 0.56931(16) 0.87123(19) 0.11199(10)
H48 H 0.5791 0.9072 0.0711
H49 H 0.4911 0.8723 0.1102
C25 C 0.63031(15) 0.94796(19) 0.16928(10)
H50 H 0.6056 1.0342 0.1629
H51 H 0.6137 0.9174 0.2095
C26 C 0.75158(15) 0.94279(16) 0.17677(9)
H52 H 0.7890 0.9905 0.2155
H53 H 0.7691 0.9802 0.1383
loop_
_geom_bond_atom_site_label_1
_geom_bond_atom_site_label_2
_geom_bond_site_symmetry_1
_geom_bond_site_symmetry_2
P1 O1 1_555 1_555
O2 C19 1_555 1_555
O3 C19 1_555 1_555
N1 P1 1_555 1_555
H1 N1 1_555 1_555
N2 P1 1_555 1_555
H2 N2 1_555 1_555
N3 P1 1_555 1_555
H3 N3 1_555 1_555
N4 H4 1_555 1_555
H5 N4 1_555 1_555
H6 N4 1_555 1_555
C1 N3 1_555 1_555
H7 C1 1_555 1_555
C2 C1 1_555 1_555
H8 C2 1_555 1_555
H9 C2 1_555 1_555
C3 C2 1_555 1_555
H10 C3 1_555 1_555
H11 C3 1_555 1_555
C4 C3 1_555 1_555
H12 C4 1_555 1_555
H13 C4 1_555 1_555
C5 C4 1_555 1_555
H14 C5 1_555 1_555
H15 C5 1_555 1_555
C6 C1 1_555 1_555
H16 C6 1_555 1_555
H17 C6 1_555 1_555
C7 N2 1_555 1_555
H18 C7 1_555 1_555
C8 C7 1_555 1_555
H19 C8 1_555 1_555
H20 C8 1_555 1_555
C9 C8 1_555 1_555
H21 C9 1_555 1_555
H22 C9 1_555 1_555
C10 C9 1_555 1_555
H23 C10 1_555 1_555
H24 C10 1_555 1_555
C11 C10 1_555 1_555
H25 C11 1_555 1_555
H26 C11 1_555 1_555
C12 C7 1_555 1_555
H27 C12 1_555 1_555
H28 C12 1_555 1_555
C13 N1 1_555 1_555
H29 C13 1_555 1_555
C14 C13 1_555 1_555
H30 C14 1_555 1_555
H31 C14 1_555 1_555
C15 C14 1_555 1_555
H32 C15 1_555 1_555
H33 C15 1_555 1_555
C16 C15 1_555 1_555
H34 C16 1_555 1_555
H35 C16 1_555 1_555
C17 C16 1_555 1_555
H36 C17 1_555 1_555
H37 C17 1_555 1_555
C18 C13 1_555 1_555
H38 C18 1_555 1_555
H39 C18 1_555 1_555
C19 C20 1_555 1_555
C20 H40 1_555 1_555
H41 C20 1_555 1_555
H42 C20 1_555 1_555
C21 N4 1_555 1_555
H43 C21 1_555 1_555
C22 C21 1_555 1_555
H44 C22 1_555 1_555
H45 C22 1_555 1_555
C23 C22 1_555 1_555
H46 C23 1_555 1_555
H47 C23 1_555 1_555
C24 C23 1_555 1_555
H48 C24 1_555 1_555
H49 C24 1_555 1_555
C25 C24 1_555 1_555
H50 C25 1_555 1_555
H51 C25 1_555 1_555
C26 C21 1_555 1_555
H52 C26 1_555 1_555
H53 C26 1_555 1_555
C5 C6 1_555 1_555
C11 C12 1_555 1_555
C17 C18 1_555 1_555
C25 C26 1_555 1_555

#END
