
#######################################################################
#
#                 Cambridge Crystallographic Data Centre
#                                CCDC 
#
#######################################################################
#
# If this CIF has been generated from an entry in the Cambridge 
# Structural Database, then it will include bibliographic, chemical, 
# crystal, experimental, refinement or atomic coordinate data resulting 
# from the CCDC's data processing and validation procedures.
#
#######################################################################

data_XEBXIO
_chemical_formula_moiety         'C19 H16 O3'
_chemical_name_systematic        '4-((E)-3-oxobut-1-en-1-yl)phenyl cinnamate'
_symmetry_cell_setting           monoclinic
_symmetry_space_group_name_H-M   'P 21/c'
_symmetry_Int_Tables_number      14
_space_group_name_Hall           '-P 2ybc'
loop_
_symmetry_equiv_pos_site_id
_symmetry_equiv_pos_as_xyz
1 x,y,z
2 -x,1/2+y,1/2-z
3 -x,-y,-z
4 x,1/2-y,1/2+z
_cell_length_a                   19.2677(6)
_cell_length_b                   4.10240(10)
_cell_length_c                   21.2526(6)
_cell_angle_alpha                90
_cell_angle_beta                 115.0910(10)
_cell_angle_gamma                90
_cell_volume                     1521.36
_exptl_crystal_colour            colorless
_exptl_crystal_description       Prism
_cell_formula_units_Z            4
loop_
_atom_site_label
_atom_site_type_symbol
_atom_site_fract_x
_atom_site_fract_y
_atom_site_fract_z
O1 O 0.05200(6) 0.8672(3) 0.09397(5)
O2 O 0.12666(7) 0.5815(4) 0.18862(7)
C1 C 0.12022(9) 0.7433(4) 0.13961(9)
C2 C 0.18077(9) 0.8307(4) 0.11857(8)
H1 H 0.1694 0.9679 0.0806
C3 C 0.25127(9) 0.7194(4) 0.15217(9)
H2 H 0.2601 0.5873 0.1904
C4 C 0.31704(9) 0.7787(4) 0.13661(8)
C5 C 0.38830(9) 0.6579(5) 0.18087(9)
H3 H 0.3935 0.5425 0.2203
C6 C 0.45123(10) 0.7052(5) 0.16764(11)
H4 H 0.4986 0.6229 0.1981
C7 C 0.44483(11) 0.8719(5) 0.11012(11)
H5 H 0.4876 0.9031 0.1012
C8 C 0.37465(12) 0.9943(5) 0.06524(11)
H6 H 0.3701 1.1085 0.0259
C9 C 0.31144(10) 0.9488(4) 0.07823(9)
H7 H 0.2643 1.0328 0.0476
C10 C -0.01369(9) 0.8028(4) 0.10433(8)
C11 C -0.02211(10) 0.9222(4) 0.16110(9)
H8 H 0.0173 1.0382 0.1954
C12 C -0.09008(12) 0.8665(5) 0.16624(10)
H9 H -0.0965 0.9484 0.2043
C13 C -0.14920(10) 0.6911(5) 0.11594(10)
C14 C -0.13847(10) 0.5790(5) 0.05933(9)
H10 H -0.1776 0.4642 0.0245
C15 C -0.07130(9) 0.6337(4) 0.05342(8)
H11 H -0.0650 0.5563 0.0150
C16 C -0.2277(2) 0.5980(11) 0.1108(2)
H12 H -0.2606 0.4819 0.0720
C17 C -0.25181(17) 0.6739(8) 0.15888(16)
H13 H -0.2178 0.7833 0.1982
C18 C -0.3275(2) 0.5985(12) 0.1546(2)
C19 C -0.3852(4) 0.428(3) 0.0955(4)
H14 H -0.4307 0.4009 0.1027
H15 H -0.3658 0.2185 0.0907
H16 H -0.3969 0.5533 0.0540
O3 O -0.3440(2) 0.6979(11) 0.20009(18)
C20? C -0.2078(3) 0.6756(19) 0.1415(3)
H17? H -0.2001 0.7672 0.1839
C21? C -0.2735(3) 0.5249(14) 0.1018(3)
H18? H -0.2778 0.4371 0.0599
C22? C -0.3382(3) 0.4873(19) 0.1185(3)
C23? C -0.3335(5) 0.572(3) 0.1854(4)
H19? H -0.3820 0.5317 0.1866
H20? H -0.3208 0.7988 0.1942
H21? H -0.2946 0.4427 0.2203
O4? O -0.3981(5) 0.366(4) 0.0741(5)
loop_
_geom_bond_atom_site_label_1
_geom_bond_atom_site_label_2
_geom_bond_site_symmetry_1
_geom_bond_site_symmetry_2
O1 C1 1_555 1_555
O2 C1 1_555 1_555
C1 C2 1_555 1_555
C2 H1 1_555 1_555
C3 C2 1_555 1_555
H2 C3 1_555 1_555
C4 C3 1_555 1_555
C5 C4 1_555 1_555
H3 C5 1_555 1_555
C6 C5 1_555 1_555
H4 C6 1_555 1_555
C7 C6 1_555 1_555
H5 C7 1_555 1_555
C8 C7 1_555 1_555
H6 C8 1_555 1_555
C9 C4 1_555 1_555
H7 C9 1_555 1_555
C10 O1 1_555 1_555
C11 C10 1_555 1_555
H8 C11 1_555 1_555
C12 C11 1_555 1_555
H9 C12 1_555 1_555
C13 C12 1_555 1_555
C14 C13 1_555 1_555
H10 C14 1_555 1_555
C15 C10 1_555 1_555
H11 C15 1_555 1_555
C16 C13 1_555 1_555
H12 C16 1_555 1_555
C17 C16 1_555 1_555
H13 C17 1_555 1_555
C18 C17 1_555 1_555
C19 C18 1_555 1_555
H14 C19 1_555 1_555
H15 C19 1_555 1_555
H16 C19 1_555 1_555
O3 C18 1_555 1_555
C8 C9 1_555 1_555
C14 C15 1_555 1_555

#END
