
#######################################################################
#
#                 Cambridge Crystallographic Data Centre
#                                CCDC 
#
#######################################################################
#
# If this CIF has been generated from an entry in the Cambridge 
# Structural Database, then it will include bibliographic, chemical, 
# crystal, experimental, refinement or atomic coordinate data resulting 
# from the CCDC's data processing and validation procedures.
#
#######################################################################

data_XEBYIP
_chemical_formula_moiety         'C23 H20 N2 O2'
_chemical_name_systematic        
2-benzoyl-2-methyl-3-(4-methylphenyl)-2,3-dihydroquinazolin-4(1H)-one
_symmetry_cell_setting           monoclinic
_symmetry_space_group_name_H-M   'C 2/c'
_symmetry_Int_Tables_number      15
_space_group_name_Hall           '-C 2yn'
loop_
_symmetry_equiv_pos_site_id
_symmetry_equiv_pos_as_xyz
1 x,y,z
2 -x,y,1/2-z
3 1/2+x,1/2+y,z
4 1/2-x,1/2+y,1/2-z
5 -x,-y,-z
6 x,-y,1/2+z
7 1/2-x,1/2-y,-z
8 1/2+x,1/2-y,1/2+z
_cell_length_a                   19.8529(17)
_cell_length_b                   13.0593(12)
_cell_length_c                   14.4600(13)
_cell_angle_alpha                90
_cell_angle_beta                 93.701(5)
_cell_angle_gamma                90
_cell_volume                     3741.15
_exptl_crystal_colour            yellow
_exptl_crystal_description       block
_cell_formula_units_Z            8
loop_
_atom_site_label
_atom_site_type_symbol
_atom_site_fract_x
_atom_site_fract_y
_atom_site_fract_z
O1 O 0.29852(6) 0.43811(8) 0.24113(8)
N1 N 0.26227(7) 0.13634(11) 0.25019(10)
N2 N 0.32137(6) 0.28261(9) 0.30524(8)
C1 C 0.29252(8) 0.34377(12) 0.23716(11)
C2 C 0.24910(8) 0.29234(12) 0.16529(10)
C3 C 0.38251(8) 0.15577(12) 0.21527(11)
O2 O 0.41146(6) 0.23029(10) 0.18800(9)
C4 C 0.23056(7) 0.19000(13) 0.17790(10)
C5 C 0.42192(9) 0.34289(14) 0.39824(12)
H1 H 0.4493 0.3263 0.3506
C6 C 0.35331(8) 0.32868(12) 0.38714(10)
C7 C 0.21861(9) 0.34833(14) 0.09161(12)
H2 H 0.2318 0.4156 0.0819
C8 C 0.32712(7) 0.17090(11) 0.28767(10)
C9 C 0.40104(8) 0.05104(13) 0.18272(11)
C10 C 0.46152(9) 0.04281(15) 0.14130(12)
H3 H 0.4868 0.1015 0.1322
C11 C 0.45004(10) 0.38229(16) 0.48124(14)
H4 H 0.4966 0.3909 0.4885
C12 C 0.31368(9) 0.35672(14) 0.45768(12)
H5 H 0.2671 0.3487 0.4503
C13 C 0.15004(10) 0.20414(18) 0.04835(13)
H6 H 0.1163 0.1751 0.0091
C14 C 0.16938(10) 0.30481(17) 0.03366(13)
H7 H 0.1490 0.3423 -0.0152
C15 C 0.34256(10) 0.39661(16) 0.53925(12)
H8 H 0.3149 0.4155 0.5859
C16 C 0.17943(9) 0.14645(15) 0.11925(12)
H9 H 0.1656 0.0793 0.1283
C17 C 0.41110(10) 0.40905(15) 0.55328(12)
C18 C 0.44784(13) -0.13767(18) 0.12462(16)
H10 H 0.4636 -0.2007 0.1054
C19 C 0.36406(10) -0.03810(14) 0.19350(15)
H11 H 0.3230 -0.0348 0.2208
C20 C 0.48531(11) -0.05068(18) 0.11311(15)
H12 H 0.5266 -0.0548 0.0864
C21 C 0.38739(12) -0.13148(17) 0.16428(18)
H13 H 0.3619 -0.1903 0.1716
C22 C 0.44200(14) 0.4483(2) 0.64479(15)
H14 H 0.4068 0.4631 0.6854
H15 H 0.4672 0.5095 0.6346
H16 H 0.4716 0.3971 0.6726
C23 C 0.34731(9) 0.11345(13) 0.37648(11)
H17 H 0.3136 0.1236 0.4203
H18 H 0.3899 0.1388 0.4020
H19 H 0.3511 0.0417 0.3632
H20 H 0.2514(10) 0.0734(8) 0.2594(13)
loop_
_geom_bond_atom_site_label_1
_geom_bond_atom_site_label_2
_geom_bond_site_symmetry_1
_geom_bond_site_symmetry_2
O1 C1 1_555 1_555
N1 C4 1_555 1_555
N2 C1 1_555 1_555
C1 C2 1_555 1_555
C2 C4 1_555 1_555
C3 O2 1_555 1_555
C4 C16 1_555 1_555
C5 H1 1_555 1_555
C6 N2 1_555 1_555
C7 C2 1_555 1_555
H2 C7 1_555 1_555
C8 N1 1_555 1_555
C9 C3 1_555 1_555
C10 C9 1_555 1_555
H3 C10 1_555 1_555
C11 C5 1_555 1_555
H4 C11 1_555 1_555
C12 C6 1_555 1_555
H5 C12 1_555 1_555
C13 H6 1_555 1_555
C14 C7 1_555 1_555
H7 C14 1_555 1_555
C15 C12 1_555 1_555
H8 C15 1_555 1_555
C16 C13 1_555 1_555
H9 C16 1_555 1_555
C17 C11 1_555 1_555
C18 H10 1_555 1_555
C19 C9 1_555 1_555
H11 C19 1_555 1_555
C20 C10 1_555 1_555
H12 C20 1_555 1_555
C21 C18 1_555 1_555
H13 C21 1_555 1_555
C22 C17 1_555 1_555
H14 C22 1_555 1_555
H15 C22 1_555 1_555
H16 C22 1_555 1_555
C23 C8 1_555 1_555
H17 C23 1_555 1_555
H18 C23 1_555 1_555
H19 C23 1_555 1_555
H20 N1 1_555 1_555
N2 C8 1_555 1_555
C3 C8 1_555 1_555
C5 C6 1_555 1_555
C13 C14 1_555 1_555
C15 C17 1_555 1_555
C18 C20 1_555 1_555
C19 C21 1_555 1_555

#END
