
#######################################################################
#
#                 Cambridge Crystallographic Data Centre
#                                CCDC 
#
#######################################################################
#
# If this CIF has been generated from an entry in the Cambridge 
# Structural Database, then it will include bibliographic, chemical, 
# crystal, experimental, refinement or atomic coordinate data resulting 
# from the CCDC's data processing and validation procedures.
#
#######################################################################

data_XECBEP
_chemical_formula_moiety         'C17 H11 Cl2 N1 O1'
_chemical_name_systematic        
2-(3',5'-dichloro[1,1'-biphenyl]-2-yl)-1-oxo-1\l^5^-pyridine
_symmetry_cell_setting           monoclinic
_symmetry_space_group_name_H-M   'P 21/c'
_symmetry_Int_Tables_number      14
_space_group_name_Hall           '-P 2ybc'
loop_
_symmetry_equiv_pos_site_id
_symmetry_equiv_pos_as_xyz
1 x,y,z
2 -x,1/2+y,1/2-z
3 -x,-y,-z
4 x,1/2-y,1/2+z
_cell_length_a                   11.1722(18)
_cell_length_b                   13.771(2)
_cell_length_c                   10.0685(15)
_cell_angle_alpha                90
_cell_angle_beta                 96.431(4)
_cell_angle_gamma                90
_cell_volume                     1539.32
_exptl_crystal_colour            colorless
_exptl_crystal_description       plate
_cell_formula_units_Z            4
loop_
_atom_site_label
_atom_site_type_symbol
_atom_site_fract_x
_atom_site_fract_y
_atom_site_fract_z
Cl1 Cl 0.39340(9) 0.67956(8) 0.64500(9)
Cl2 Cl 0.37478(9) 0.29192(8) 0.62479(9)
O1 O 0.04026(18) 0.52334(13) 0.33021(17)
N1 N 0.02703(19) 0.43146(15) 0.30637(18)
C1 C -0.0468(3) 0.3790(2) 0.3782(3)
H1 H -0.078(2) 0.4162(19) 0.447(2)
C2 C -0.0706(3) 0.2840(2) 0.3516(3)
H2 H -0.1238 0.2491 0.4014
C3 C -0.0175(3) 0.2392(2) 0.2530(4)
H3 H -0.043(3) 0.180(3) 0.247(4)
C4 C 0.0575(3) 0.2899(2) 0.1824(3)
H4 H 0.106(2) 0.265(2) 0.116(3)
C5 C 0.0838(2) 0.38793(19) 0.2095(2)
C6 C 0.1650(2) 0.4471(2) 0.1359(2)
C7 C 0.1439(3) 0.4513(3) -0.0039(3)
H5 H 0.081(2) 0.417(2) -0.035(3)
C8 C 0.2140(3) 0.5059(3) -0.0768(3)
H6 H 0.1980 0.5069 -0.1714
C9 C 0.3067(3) 0.5593(3) -0.0156(3)
H7 H 0.365(3) 0.607(3) -0.070(4)
C10 C 0.3316(3) 0.5554(3) 0.1233(3)
H8 H 0.397(2) 0.5972(19) 0.165(2)
C11 C 0.2626(2) 0.4998(2) 0.1999(2)
C12 C 0.2975(2) 0.4949(2) 0.3471(2)
C13 C 0.3223(2) 0.5797(2) 0.4191(3)
H9 H 0.315(2) 0.641(2) 0.377(3)
C14 C 0.3606(2) 0.5741(2) 0.5545(3)
C15 C 0.3755(3) 0.4863(3) 0.6198(3)
H10 H 0.405(3) 0.486(2) 0.715(3)
C16 C 0.3512(2) 0.4035(2) 0.5463(3)
C17 C 0.3121(2) 0.4053(2) 0.4105(2)
H11 H 0.296(2) 0.344(2) 0.363(3)
loop_
_geom_bond_atom_site_label_1
_geom_bond_atom_site_label_2
_geom_bond_site_symmetry_1
_geom_bond_site_symmetry_2
Cl1 C14 1_555 1_555
Cl2 C16 1_555 1_555
O1 N1 1_555 1_555
N1 C1 1_555 1_555
C1 H1 1_555 1_555
C2 C1 1_555 1_555
H2 C2 1_555 1_555
C3 C2 1_555 1_555
H3 C3 1_555 1_555
C4 C3 1_555 1_555
H4 C4 1_555 1_555
C5 N1 1_555 1_555
C6 C5 1_555 1_555
C7 C6 1_555 1_555
H5 C7 1_555 1_555
C8 C7 1_555 1_555
H6 C8 1_555 1_555
C9 C8 1_555 1_555
H7 C9 1_555 1_555
C10 C9 1_555 1_555
H8 C10 1_555 1_555
C11 C6 1_555 1_555
C12 C11 1_555 1_555
C13 C12 1_555 1_555
H9 C13 1_555 1_555
C14 C13 1_555 1_555
C15 C14 1_555 1_555
H10 C15 1_555 1_555
C16 C15 1_555 1_555
C17 C12 1_555 1_555
H11 C17 1_555 1_555
C4 C5 1_555 1_555
C10 C11 1_555 1_555
C16 C17 1_555 1_555

#END
