
#######################################################################
#
#                 Cambridge Crystallographic Data Centre
#                                CCDC 
#
#######################################################################
#
# If this CIF has been generated from an entry in the Cambridge 
# Structural Database, then it will include bibliographic, chemical, 
# crystal, experimental, refinement or atomic coordinate data resulting 
# from the CCDC's data processing and validation procedures.
#
#######################################################################

data_XECBAK
_chemical_name_common            "2,2'-Sulfonyldipyrazine 4-oxide"
_chemical_formula_moiety         'C8 H6 N4 O3 S1'
_chemical_name_systematic        3-(Pyrazin-2-ylsulfonyl)-1\l^5^-pyrazin-1-ol
_symmetry_cell_setting           monoclinic
_symmetry_space_group_name_H-M   'P 21/c'
_symmetry_Int_Tables_number      14
_space_group_name_Hall           '-P 2ybc'
loop_
_symmetry_equiv_pos_site_id
_symmetry_equiv_pos_as_xyz
1 x,y,z
2 -x,1/2+y,1/2-z
3 -x,-y,-z
4 x,1/2-y,1/2+z
_cell_length_a                   7.6860(16)
_cell_length_b                   15.841(3)
_cell_length_c                   9.0624(14)
_cell_angle_alpha                90
_cell_angle_beta                 117.813(13)
_cell_angle_gamma                90
_cell_volume                     975.915
_exptl_crystal_colour            colorless
_exptl_crystal_description       needle-like
_cell_formula_units_Z            4
loop_
_atom_site_label
_atom_site_type_symbol
_atom_site_fract_x
_atom_site_fract_y
_atom_site_fract_z
S1 S 0.50844(11) 0.33579(5) 0.25247(12)
N1 N 0.8484(4) 0.27476(19) 0.2912(4)
N2 N 0.8080(4) 0.12101(18) 0.4199(4)
N3 N 0.6907(4) 0.4321(2) 0.5196(4)
N4 N 0.7631(6) 0.5635(2) 0.3499(6)
O1 O 0.4354(3) 0.35188(18) 0.0788(3)
O2 O 0.3755(4) 0.31172(17) 0.3141(4)
O3 O 0.7852(6) 0.0494(2) 0.4742(6)
C1 C 0.6949(4) 0.25624(19) 0.3152(4)
C2 C 0.6667(5) 0.1820(2) 0.3776(5)
H1 H 0.5552 0.1732 0.3910
C3 C 0.9681(5) 0.1382(2) 0.4026(5)
H2 H 1.0685 0.0985 0.4351
C4 C 0.9844(5) 0.2134(2) 0.3375(6)
H3 H 1.0959 0.2229 0.3244
C5 C 0.6391(4) 0.4281(2) 0.3598(4)
C6 C 0.7790(6) 0.5037(3) 0.5944(6)
H4 H 0.8189 0.5105 0.7076
C7 C 0.8125(6) 0.5678(3) 0.5086(7)
H5 H 0.8734 0.6167 0.5664
C8 C 0.6737(5) 0.4914(2) 0.2717(5)
H6 H 0.6355 0.4843 0.1588
loop_
_geom_bond_atom_site_label_1
_geom_bond_atom_site_label_2
_geom_bond_site_symmetry_1
_geom_bond_site_symmetry_2
S1 O1 1_555 1_555
N1 C1 1_555 1_555
N2 O3 1_555 1_555
N3 C5 1_555 1_555
N4 C7 1_555 1_555
O2 S1 1_555 1_555
C1 S1 1_555 1_555
C2 N2 1_555 1_555
H1 C2 1_555 1_555
C3 N2 1_555 1_555
H2 C3 1_555 1_555
C4 N1 1_555 1_555
H3 C4 1_555 1_555
C5 S1 1_555 1_555
C6 N3 1_555 1_555
H4 C6 1_555 1_555
C7 C6 1_555 1_555
H5 C7 1_555 1_555
C8 N4 1_555 1_555
H6 C8 1_555 1_555
C1 C2 1_555 1_555
C3 C4 1_555 1_555
C5 C8 1_555 1_555

#END
