
#######################################################################
#
#                 Cambridge Crystallographic Data Centre
#                                CCDC 
#
#######################################################################
#
# If this CIF has been generated from an entry in the Cambridge 
# Structural Database, then it will include bibliographic, chemical, 
# crystal, experimental, refinement or atomic coordinate data resulting 
# from the CCDC's data processing and validation procedures.
#
#######################################################################

data_XECJUL
_chemical_formula_moiety         'C28 H32 N6 O8'
_chemical_name_systematic        
'Diethyl 2,6-bis(4-methoxyphenyl)-4,8-dioxohexahydro-1H,5H-2,3a,4a,6,7a-pentaazacyclopenta(def)fluorene-8b,8c-dicarboxylate'
_symmetry_cell_setting           triclinic
_symmetry_space_group_name_H-M   'P -1'
_symmetry_Int_Tables_number      2
_space_group_name_Hall           '-P 1'
loop_
_symmetry_equiv_pos_site_id
_symmetry_equiv_pos_as_xyz
1 x,y,z
2 -x,-y,-z
_cell_length_a                   7.5266(18)
_cell_length_b                   13.438(3)
_cell_length_c                   14.167(3)
_cell_angle_alpha                87.547(4)
_cell_angle_beta                 83.627(4)
_cell_angle_gamma                81.942(4)
_cell_volume                     1409.43
_exptl_crystal_colour            colorless
_exptl_crystal_description       block
_cell_formula_units_Z            2
loop_
_atom_site_label
_atom_site_type_symbol
_atom_site_fract_x
_atom_site_fract_y
_atom_site_fract_z
C1 C 0.2440(7) 0.5628(3) -0.0603(3)
H1 H 0.3568 0.5450 -0.0985
H2 H 0.2211 0.6345 -0.0542
H3 H 0.1486 0.5406 -0.0901
C2 C 0.2769(5) 0.4127(2) 0.0353(2)
C3 C 0.2837(6) 0.3679(2) 0.1239(2)
H4 H 0.2711 0.4079 0.1768
C4 C 0.3089(5) 0.2646(2) 0.1362(2)
H5 H 0.3142 0.2357 0.1969
C5 C 0.3262(3) 0.20449(18) 0.05824(17)
C6 C 0.3239(4) 0.2505(2) -0.02925(19)
H6 H 0.3398 0.2108 -0.0826
C7 C 0.2990(5) 0.3533(2) -0.0417(2)
H7 H 0.2974 0.3822 -0.1025
C8 C 0.4310(3) 0.04581(19) 0.14495(17)
H8 H 0.5125 0.0868 0.1680
H9 H 0.5009 -0.0175 0.1253
C9 C 0.2100(3) 0.04664(18) 0.03487(16)
H10 H 0.2611 -0.0184 0.0098
H11 H 0.1544 0.0862 -0.0156
C10 C 0.2542(3) 0.07885(17) 0.30417(16)
C11 C -0.0692(3) 0.10868(17) 0.13915(16)
C12 C 0.1399(3) -0.01688(16) 0.19761(15)
C13 C 0.1994(5) -0.1311(2) 0.1848(2)
C14 C 0.1101(8) -0.2803(3) 0.1367(3)
H12 H 0.2353 -0.2956 0.1108
H13 H 0.0351 -0.2975 0.0901
C15 C 0.0776(8) -0.3402(3) 0.2250(3)
H14 H 0.1612 -0.3285 0.2684
H15 H 0.0941 -0.4103 0.2106
H16 H -0.0435 -0.3208 0.2533
O1 O 0.3437(4) -0.17348(18) 0.1988(2)
O2 O 0.0681(4) -0.17216(16) 0.15575(17)
C16 C -0.0109(3) 0.01687(17) 0.27979(16)
C17 C -0.0998(3) -0.07129(19) 0.32870(17)
C18 C -0.3576(5) -0.1564(3) 0.3468(3)
H17 H -0.4205 -0.1795 0.2976
H18 H -0.2687 -0.2113 0.3649
C19 C -0.4850(6) -0.1275(3) 0.4284(3)
H19 H -0.4207 -0.1143 0.4804
H20 H -0.5550 -0.1811 0.4464
H21 H -0.5638 -0.0681 0.4126
C20 C -0.0188(3) 0.13827(18) 0.40519(16)
H22 H 0.0590 0.1672 0.4435
H23 H -0.1108 0.1103 0.4475
C21 C -0.2298(3) 0.17320(19) 0.29016(18)
H24 H -0.3227 0.1482 0.3341
H25 H -0.2875 0.2248 0.2493
C22 C -0.1618(3) 0.31225(18) 0.38109(17)
C23 C -0.1979(4) 0.3932(2) 0.3189(2)
H26 H -0.1903 0.3821 0.2541
C24 C -0.2447(5) 0.4892(2) 0.3509(2)
H27 H -0.2710 0.5420 0.3078
C25 C -0.2532(4) 0.5081(2) 0.4466(2)
C26 C -0.2191(4) 0.4287(2) 0.5086(2)
H28 H -0.2252 0.4400 0.5732
C27 C -0.1755(4) 0.33111(19) 0.47616(18)
H29 H -0.1554 0.2779 0.5196
C28 C -0.3078(5) 0.6279(2) 0.5683(3)
H30 H -0.3965 0.5917 0.6031
H31 H -0.3426 0.6987 0.5767
H32 H -0.1927 0.6077 0.5915
N1 N 0.3543(3) 0.09664(15) 0.06333(14)
N2 N 0.2931(2) 0.02622(14) 0.22263(13)
N3 N 0.0707(3) 0.03244(14) 0.11369(13)
N4 N 0.0863(2) 0.05974(14) 0.34714(13)
N5 N -0.1321(3) 0.09161(14) 0.23327(13)
N6 N -0.1028(3) 0.21551(15) 0.34276(14)
O3 O 0.2522(5) 0.51600(16) 0.03107(17)
O4 O 0.3503(2) 0.13135(13) 0.33628(12)
O5 O -0.1321(3) 0.17435(14) 0.08714(12)
O6 O -0.0158(3) -0.13293(15) 0.37524(14)
O7 O -0.2662(3) -0.07055(16) 0.30978(17)
O8 O -0.2955(3) 0.60658(15) 0.47050(19)
C29? C 0.119(3) -0.1274(12) 0.1824(19)
C30? C 0.282(3) -0.2876(13) 0.162(2)
H33? H 0.2059 -0.3016 0.1151
H34? H 0.4059 -0.3129 0.1390
C31? C 0.233(5) -0.3419(18) 0.2495(19)
H35? H 0.3352 -0.3881 0.2658
H36? H 0.1355 -0.3784 0.2410
H37? H 0.1963 -0.2952 0.2997
O9? O 0.268(3) -0.1780(12) 0.1709(16)
O10? O -0.029(2) -0.1569(11) 0.1630(12)
loop_
_geom_bond_atom_site_label_1
_geom_bond_atom_site_label_2
_geom_bond_site_symmetry_1
_geom_bond_site_symmetry_2
C1 H1 1_555 1_555
H2 C1 1_555 1_555
H3 C1 1_555 1_555
C2 C3 1_555 1_555
C3 H4 1_555 1_555
C4 C3 1_555 1_555
H5 C4 1_555 1_555
C5 C4 1_555 1_555
C6 C5 1_555 1_555
H6 C6 1_555 1_555
C7 C2 1_555 1_555
H7 C7 1_555 1_555
C8 H8 1_555 1_555
H9 C8 1_555 1_555
C9 H10 1_555 1_555
H11 C9 1_555 1_555
C10 N2 1_555 1_555
C11 N3 1_555 1_555
C12 C13 1_555 1_555
C13 O1 1_555 1_555
C14 H12 1_555 1_555
H13 C14 1_555 1_555
C15 C14 1_555 1_555
H14 C15 1_555 1_555
H15 C15 1_555 1_555
H16 C15 1_555 1_555
O2 C13 1_555 1_555
C16 C12 1_555 1_555
C17 C16 1_555 1_555
C18 H17 1_555 1_555
H18 C18 1_555 1_555
C19 C18 1_555 1_555
H19 C19 1_555 1_555
H20 C19 1_555 1_555
H21 C19 1_555 1_555
C20 H22 1_555 1_555
H23 C20 1_555 1_555
C21 H24 1_555 1_555
H25 C21 1_555 1_555
C22 C23 1_555 1_555
C23 H26 1_555 1_555
C24 C23 1_555 1_555
H27 C24 1_555 1_555
C25 C24 1_555 1_555
C26 C25 1_555 1_555
H28 C26 1_555 1_555
C27 C22 1_555 1_555
H29 C27 1_555 1_555
C28 H30 1_555 1_555
H31 C28 1_555 1_555
H32 C28 1_555 1_555
N1 C5 1_555 1_555
N2 C8 1_555 1_555
N3 C9 1_555 1_555
N4 C10 1_555 1_555
N5 C11 1_555 1_555
N6 C20 1_555 1_555
O3 C1 1_555 1_555
O4 C10 1_555 1_555
O5 C11 1_555 1_555
O6 C17 1_555 1_555
O7 C17 1_555 1_555
O8 C25 1_555 1_555
C2 O3 1_555 1_555
C6 C7 1_555 1_555
C8 N1 1_555 1_555
C9 N1 1_555 1_555
C12 N2 1_555 1_555
C12 N3 1_555 1_555
C14 O2 1_555 1_555
C16 N4 1_555 1_555
C16 N5 1_555 1_555
C18 O7 1_555 1_555
C20 N4 1_555 1_555
C21 N5 1_555 1_555
C21 N6 1_555 1_555
C22 N6 1_555 1_555
C26 C27 1_555 1_555
C28 O8 1_555 1_555

#END
