
#######################################################################
#
#                 Cambridge Crystallographic Data Centre
#                                CCDC 
#
#######################################################################
#
# If this CIF has been generated from an entry in the Cambridge 
# Structural Database, then it will include bibliographic, chemical, 
# crystal, experimental, refinement or atomic coordinate data resulting 
# from the CCDC's data processing and validation procedures.
#
#######################################################################

data_XECJOF
_chemical_formula_moiety         'C24 H23 B1 N2 O1'
_chemical_name_systematic        
3-Cyano-1,1,3-triphenyl-2,4,3-oxazoniaborolidine
_symmetry_cell_setting           monoclinic
_symmetry_space_group_name_H-M   'P 21'
_symmetry_Int_Tables_number      4
_space_group_name_Hall           'P 2yb'
loop_
_symmetry_equiv_pos_site_id
_symmetry_equiv_pos_as_xyz
1 x,y,z
2 -x,1/2+y,-z
_cell_length_a                   10.588(1)
_cell_length_b                   6.950(1)
_cell_length_c                   14.249(2)
_cell_angle_alpha                90
_cell_angle_beta                 105.07(1)
_cell_angle_gamma                90
_cell_volume                     1012.48
_exptl_crystal_colour            colorless
_exptl_crystal_description       prism
_cell_formula_units_Z            2
loop_
_atom_site_label
_atom_site_type_symbol
_atom_site_fract_x
_atom_site_fract_y
_atom_site_fract_z
O1 O 0.7913(3) 0.5055(4) 0.2346(2)
N1 N 0.9383(5) 0.7280(6) 0.3351(4)
C1 C 0.7148(5) 0.6362(7) 0.2764(5)
C2 C 1.0228(6) 0.4521(6) 0.2287(5)
C3 C 0.5870(6) 0.6790(7) 0.2019(6)
N2 N 0.9789(5) 0.2705(6) 0.4533(4)
B1 B 0.9255(6) 0.5077(8) 0.2905(5)
C4 C 0.9536(5) 0.3705(8) 0.3866(5)
C5 C 0.6834(4) 0.5370(8) 0.3637(5)
C6 C 1.0285(5) 0.8596(7) 0.3034(5)
H1 H 1.1069 0.7926 0.2986
H2 H 1.0531 0.9665 0.3482
C7 C 1.1548(7) 0.4090(7) 0.2714(5)
H3 H 1.1859 0.4171 0.3386
C8 C 0.8135(6) 0.9370(8) 0.2149(5)
H4 H 0.7540 0.8897 0.1557
H5 H 0.7904 1.0691 0.2248
C9 C 1.1955(9) 0.3372(9) 0.1185(8)
H6 H 1.2510 0.2957 0.0817
C10 C 0.9838(6) 0.4361(7) 0.1294(5)
H7 H 0.8973 0.4634 0.0977
C11 C 0.8031(5) 0.8125(7) 0.3016(4)
H8 H 0.7813 0.8900 0.3527
C12 C 0.5606(7) 0.6024(9) 0.1096(6)
H9 H 0.6212 0.5241 0.0911
C13 C 0.6333(5) 0.3475(8) 0.3506(5)
H10 H 0.6178 0.2904 0.2896
C14 C 0.6725(5) 0.5148(11) 0.5309(5)
H11 H 0.6858 0.5709 0.5919
C15 C 1.2414(7) 0.3543(9) 0.2169(7)
H12 H 1.3289 0.3301 0.2472
C16 C 0.6070(6) 0.2462(10) 0.4259(6)
H13 H 0.5762 0.1205 0.4161
C17 C 1.0685(10) 0.3804(9) 0.0741(5)
H14 H 1.0383 0.3729 0.0068
C18 C 0.6259(5) 0.3294(10) 0.5150(6)
H15 H 0.6072 0.2603 0.5656
C19 C 0.4938(7) 0.7978(8) 0.2259(6)
H16 H 0.5097 0.8501 0.2879
C20 C 0.4395(9) 0.6459(11) 0.0438(6)
H17 H 0.4210 0.5930 -0.0183
C21 C 0.6994(5) 0.6171(7) 0.4544(6)
H18 H 0.7291 0.7432 0.4649
C22 C 0.3511(10) 0.7584(14) 0.0663(8)
H19 H 0.2721 0.7832 0.0210
C23 C 0.9519(8) 0.9272(7) 0.2066(5)
H20 H 0.9593 0.8375 0.1562
H21 H 0.9818 1.0528 0.1919
C24 C 0.3773(8) 0.8379(11) 0.1571(9)
H22 H 0.3166 0.9197 0.1730
H23 H 0.954(5) 0.719(8) 0.396(4)
loop_
_geom_bond_atom_site_label_1
_geom_bond_atom_site_label_2
_geom_bond_site_symmetry_1
_geom_bond_site_symmetry_2
O1 C1 1_555 1_555
N1 B1 1_555 1_555
C1 C3 1_555 1_555
C2 B1 1_555 1_555
C3 C12 1_555 1_555
N2 C4 1_555 1_555
B1 O1 1_555 1_555
C4 B1 1_555 1_555
C5 C1 1_555 1_555
C6 N1 1_555 1_555
H1 C6 1_555 1_555
H2 C6 1_555 1_555
C7 C2 1_555 1_555
H3 C7 1_555 1_555
C8 H4 1_555 1_555
H5 C8 1_555 1_555
C9 H6 1_555 1_555
C10 C2 1_555 1_555
H7 C10 1_555 1_555
C11 N1 1_555 1_555
H8 C11 1_555 1_555
C12 H9 1_555 1_555
C13 C5 1_555 1_555
H10 C13 1_555 1_555
C14 H11 1_555 1_555
C15 C7 1_555 1_555
H12 C15 1_555 1_555
C16 C13 1_555 1_555
H13 C16 1_555 1_555
C17 C9 1_555 1_555
H14 C17 1_555 1_555
C18 C14 1_555 1_555
H15 C18 1_555 1_555
C19 C3 1_555 1_555
H16 C19 1_555 1_555
C20 C12 1_555 1_555
H17 C20 1_555 1_555
C21 C5 1_555 1_555
H18 C21 1_555 1_555
C22 C20 1_555 1_555
H19 C22 1_555 1_555
C23 C6 1_555 1_555
H20 C23 1_555 1_555
H21 C23 1_555 1_555
C24 C19 1_555 1_555
H22 C24 1_555 1_555
H23 N1 1_555 1_555
C1 C11 1_555 1_555
C8 C11 1_555 1_555
C8 C23 1_555 1_555
C9 C15 1_555 1_555
C10 C17 1_555 1_555
C14 C21 1_555 1_555
C16 C18 1_555 1_555
C22 C24 1_555 1_555

#END
