
#######################################################################
#
#                 Cambridge Crystallographic Data Centre
#                                CCDC 
#
#######################################################################
#
# If this CIF has been generated from an entry in the Cambridge 
# Structural Database, then it will include bibliographic, chemical, 
# crystal, experimental, refinement or atomic coordinate data resulting 
# from the CCDC's data processing and validation procedures.
#
#######################################################################

data_XECLOH
_chemical_formula_moiety         'C12 H15 N3 O5'
_chemical_name_systematic        
'cis-Methyl 2-(4-(((methoxycarbonyl)oxy)methyl)cyclopent-2-en-1-yl)-2H-1,2,4-triazole-3-carboxylate'
_symmetry_cell_setting           monoclinic
_symmetry_space_group_name_H-M   'P 21'
_symmetry_Int_Tables_number      4
_space_group_name_Hall           'P 2yb'
loop_
_symmetry_equiv_pos_site_id
_symmetry_equiv_pos_as_xyz
1 x,y,z
2 -x,1/2+y,-z
_cell_length_a                   4.5653(12)
_cell_length_b                   53.386(14)
_cell_length_c                   5.3578(14)
_cell_angle_alpha                90
_cell_angle_beta                 101.451(5)
_cell_angle_gamma                90
_cell_volume                     1279.83
_exptl_crystal_colour            colorless
_exptl_crystal_description       plate
_cell_formula_units_Z            4
loop_
_atom_site_label
_atom_site_type_symbol
_atom_site_fract_x
_atom_site_fract_y
_atom_site_fract_z
N1 N 0.6914(10) 0.36591(9) 0.3980(8)
N2 N 0.8735(9) 0.36811(8) 0.2309(8)
C1 C 0.9234(11) 0.39239(10) 0.1951(10)
N3 N 0.7851(10) 0.40680(8) 0.3402(8)
C2 C 0.6505(12) 0.38949(10) 0.4617(10)
H1 H 0.5370 0.3938 0.5815
C3 C 0.9698(11) 0.34537(9) 0.1140(10)
H2 H 1.1305 0.3495 0.0241
C4 C 0.7187(13) 0.33268(10) -0.0658(10)
H3 H 0.5750 0.3412 -0.1825
C5 C 0.7254(13) 0.30832(10) -0.0391(11)
H4 H 0.5916 0.2974 -0.1386
C6 C 0.9719(12) 0.30010(10) 0.1688(10)
H5 H 1.1351 0.2934 0.0944
C7 C 1.0746(12) 0.32441(10) 0.3092(11)
H6 H 1.2903 0.3247 0.3638
H7 H 0.9843 0.3263 0.4575
C8 C 0.8649(14) 0.27978(12) 0.3322(12)
H8 H 0.6952 0.2858 0.3989
H9 H 0.8039 0.2650 0.2303
C9 C 1.0838(15) 0.25220(11) 0.6542(13)
C10 C 1.2995(19) 0.22876(13) 1.0108(14)
H10 H 1.1054 0.2263 1.0501
H11 H 1.4451 0.2304 1.1660
H12 H 1.3495 0.2147 0.9163
O1 O 1.1121(10) 0.27376(7) 0.5407(8)
O2 O 0.8978(13) 0.23686(10) 0.5868(11)
O3 O 1.2973(10) 0.25096(8) 0.8622(9)
C11 C 1.1066(12) 0.40219(10) 0.0140(10)
O4 O 1.2421(9) 0.38908(7) -0.1091(7)
O5 O 1.1013(8) 0.42686(6) 0.0117(7)
C12 C 1.2746(12) 0.43901(10) -0.1550(11)
H13 H 1.4836 0.4361 -0.0918
H14 H 1.2364 0.4567 -0.1591
H15 H 1.2180 0.4323 -0.3238
N4 N -0.2150(10) 0.04385(9) 1.1590(8)
N5 N -0.0322(9) 0.04202(7) 0.9837(8)
C13 C 0.0237(11) 0.01750(9) 0.9526(9)
N6 N -0.1125(10) 0.00323(8) 1.0939(8)
C14 C -0.2508(12) 0.01983(11) 1.2148(10)
H16 H -0.3659 0.0150 1.3316
C15 C 0.0494(12) 0.06531(10) 0.8680(10)
H17 H 0.2043 0.0614 0.7710
C16 C -0.2076(12) 0.07682(10) 0.6913(10)
H18 H -0.3444 0.0681 0.5707
C17 C -0.2139(14) 0.10135(11) 0.7304(11)
H19 H -0.3590 0.1119 0.6394
C18 C 0.0373(13) 0.11040(10) 0.9366(11)
H20 H 0.1873 0.1191 0.8606
C19 C 0.1688(13) 0.08546(9) 1.0602(10)
H21 H 0.3855 0.0858 1.0928
H22 H 0.1042 0.0825 1.2196
C20 C -0.0782(14) 0.12767(11) 1.1182(12)
H23 H -0.1627 0.1426 1.0284
H24 H -0.2345 0.1193 1.1858
C21 C 0.2982(14) 0.15668(11) 1.3065(12)
C22 C 0.6686(16) 0.18337(12) 1.5273(15)
H25 H 0.8034 0.1830 1.4107
H26 H 0.7797 0.1860 1.6971
H27 H 0.5273 0.1967 1.4816
O6 O 0.1659(10) 0.13467(7) 1.3269(8)
O7 O 0.2320(12) 0.17123(9) 1.1346(10)
O8 O 0.5084(10) 0.15936(8) 1.5160(8)
C23 C 0.2053(11) 0.00770(9) 0.7744(9)
O9 O 0.3379(8) 0.02077(6) 0.6480(7)
O10 O 0.1977(9) -0.01706(6) 0.7623(7)
C24 C 0.3701(13) -0.02837(11) 0.5994(11)
H28 H 0.2763 -0.0254 0.4251
H29 H 0.3832 -0.0461 0.6309
H30 H 0.5672 -0.0213 0.6321
loop_
_geom_bond_atom_site_label_1
_geom_bond_atom_site_label_2
_geom_bond_site_symmetry_1
_geom_bond_site_symmetry_2
N1 N2 1_555 1_555
N2 C1 1_555 1_555
C1 N3 1_555 1_555
N3 C2 1_555 1_555
C2 N1 1_555 1_555
H1 C2 1_555 1_555
C3 N2 1_555 1_555
H2 C3 1_555 1_555
C4 C3 1_555 1_555
H3 C4 1_555 1_555
C5 C4 1_555 1_555
H4 C5 1_555 1_555
C6 C5 1_555 1_555
H5 C6 1_555 1_555
C7 C3 1_555 1_555
H6 C7 1_555 1_555
H7 C7 1_555 1_555
C8 C6 1_555 1_555
H8 C8 1_555 1_555
H9 C8 1_555 1_555
C9 O1 1_555 1_555
C10 H10 1_555 1_555
H11 C10 1_555 1_555
H12 C10 1_555 1_555
O1 C8 1_555 1_555
O2 C9 1_555 1_555
O3 C9 1_555 1_555
C11 C1 1_555 1_555
O4 C11 1_555 1_555
O5 C11 1_555 1_555
C12 O5 1_555 1_555
H13 C12 1_555 1_555
H14 C12 1_555 1_555
H15 C12 1_555 1_555
N4 N5 1_555 1_555
N5 C13 1_555 1_555
C13 N6 1_555 1_555
N6 C14 1_555 1_555
C14 N4 1_555 1_555
H16 C14 1_555 1_555
C15 N5 1_555 1_555
H17 C15 1_555 1_555
C16 C15 1_555 1_555
H18 C16 1_555 1_555
C17 C16 1_555 1_555
H19 C17 1_555 1_555
C18 C17 1_555 1_555
H20 C18 1_555 1_555
C19 C15 1_555 1_555
H21 C19 1_555 1_555
H22 C19 1_555 1_555
C20 C18 1_555 1_555
H23 C20 1_555 1_555
H24 C20 1_555 1_555
C21 O6 1_555 1_555
C22 H25 1_555 1_555
H26 C22 1_555 1_555
H27 C22 1_555 1_555
O6 C20 1_555 1_555
O7 C21 1_555 1_555
O8 C21 1_555 1_555
C23 C13 1_555 1_555
O9 C23 1_555 1_555
O10 C23 1_555 1_555
C24 O10 1_555 1_555
H28 C24 1_555 1_555
H29 C24 1_555 1_555
H30 C24 1_555 1_555
C6 C7 1_555 1_555
C10 O3 1_555 1_555
C18 C19 1_555 1_555
C22 O8 1_555 1_555

#END
