
#######################################################################
#
#                 Cambridge Crystallographic Data Centre
#                                CCDC 
#
#######################################################################
#
# If this CIF has been generated from an entry in the Cambridge 
# Structural Database, then it will include bibliographic, chemical, 
# crystal, experimental, refinement or atomic coordinate data resulting 
# from the CCDC's data processing and validation procedures.
#
#######################################################################

data_XECNEA
_chemical_formula_moiety         'Na1 1+,C11 H11 Cl1 N3 O3 1-,H2 O1'
_chemical_name_systematic        
'sodium (2-(3-[(6-chloropyridin-3-yl)methyl]-2-oxoimidazolidin-1-yl)acetate) monohydrate'
_symmetry_cell_setting           monoclinic
_symmetry_space_group_name_H-M   'C 2/c'
_symmetry_Int_Tables_number      15
_space_group_name_Hall           '-C 2yn'
loop_
_symmetry_equiv_pos_site_id
_symmetry_equiv_pos_as_xyz
1 x,y,z
2 -x,y,1/2-z
3 1/2+x,1/2+y,z
4 1/2-x,1/2+y,1/2-z
5 -x,-y,-z
6 x,-y,1/2+z
7 1/2-x,1/2-y,-z
8 1/2+x,1/2-y,1/2+z
_cell_length_a                   45.655(2)
_cell_length_b                   4.9113(2)
_cell_length_c                   12.5205(7)
_cell_angle_alpha                90
_cell_angle_beta                 102.184(5)
_cell_angle_gamma                90
_cell_volume                     2744.18
_exptl_crystal_colour            white
_exptl_crystal_description       block
_cell_formula_units_Z            8
loop_
_atom_site_label
_atom_site_type_symbol
_atom_site_fract_x
_atom_site_fract_y
_atom_site_fract_z
Na1 Na 1.0000 1.0000 0.0000
Na2 Na 1.0000 1.0028(2) 0.2500
Cl1 Cl 0.76939(2) 0.7478(2) 0.18991(10)
N1 N 0.81725(5) 0.4509(6) 0.2281(2)
C1 C 0.81005(7) 0.2440(7) 0.0194(3)
H1 H 0.8072 0.1756 -0.0513
C2 C 0.83467(6) 0.1665(5) 0.0972(2)
C3 C 0.83683(7) 0.2781(6) 0.1992(3)
H2 H 0.8534 0.2292 0.2529
C4 C 0.78956(7) 0.4245(8) 0.0471(3)
H3 H 0.7728 0.4802 -0.0043
C5 C 0.79453(7) 0.5174(7) 0.1510(3)
C6 C 0.85914(6) -0.0155(5) 0.0735(2)
H4 H 0.8676 -0.1189 0.1387
H5 H 0.8505 -0.1439 0.0167
N2 N 0.88292(4) 0.1344(4) 0.03879(16)
C7 C 0.87821(7) 0.2620(6) -0.0683(2)
H6 H 0.8602 0.3723 -0.0825
H7 H 0.8770 0.1275 -0.1257
C8 C 0.90605(6) 0.4362(6) -0.0581(2)
H8 H 0.9219 0.3394 -0.0829
H9 H 0.9018 0.6046 -0.0989
N3 N 0.91385(4) 0.4864(4) 0.05842(16)
C9 C 0.90251(5) 0.2884(5) 0.11303(19)
O1 O 0.90778(4) 0.2517(4) 0.21182(13)
C10 C 0.94038(5) 0.6403(5) 0.1062(2)
H10 H 0.9397 0.6836 0.1812
H11 H 0.9401 0.8108 0.0668
C11 C 0.96972(5) 0.4954(4) 0.10520(16)
O2 O 0.99295(3) 0.6404(3) 0.12325(12)
O3 O 0.96893(3) 0.2446(3) 0.09003(13)
O4 O 1.03482(4) 1.2101(4) 0.15005(15)
H12 H 1.0512(7) 1.220(6) 0.189(3)
H13 H 1.0263(8) 1.361(8) 0.152(3)
loop_
_geom_bond_atom_site_label_1
_geom_bond_atom_site_label_2
_geom_bond_site_symmetry_1
_geom_bond_site_symmetry_2
Cl1 C5 1_555 1_555
N1 C3 1_555 1_555
C1 H1 1_555 1_555
C2 C1 1_555 1_555
C3 C2 1_555 1_555
H2 C3 1_555 1_555
C4 C1 1_555 1_555
H3 C4 1_555 1_555
C5 N1 1_555 1_555
C6 C2 1_555 1_555
H4 C6 1_555 1_555
H5 C6 1_555 1_555
N2 C6 1_555 1_555
C7 N2 1_555 1_555
H6 C7 1_555 1_555
H7 C7 1_555 1_555
C8 C7 1_555 1_555
H8 C8 1_555 1_555
H9 C8 1_555 1_555
N3 C8 1_555 1_555
C9 N2 1_555 1_555
O1 C9 1_555 1_555
C10 N3 1_555 1_555
H10 C10 1_555 1_555
H11 C10 1_555 1_555
C11 C10 1_555 1_555
O2 C11 1_555 1_555
O3 C11 1_555 1_555
O4 H12 1_555 1_555
H13 O4 1_555 1_555
C4 C5 1_555 1_555
N3 C9 1_555 1_555

#END
