
#######################################################################
#
#                 Cambridge Crystallographic Data Centre
#                                CCDC 
#
#######################################################################
#
# If this CIF has been generated from an entry in the Cambridge 
# Structural Database, then it will include bibliographic, chemical, 
# crystal, experimental, refinement or atomic coordinate data resulting 
# from the CCDC's data processing and validation procedures.
#
#######################################################################

data_XECPED
_chemical_formula_moiety         'C12 H11 N5,0.5(C6 F4 I2)'
_chemical_name_systematic        
"1-[(pyridin-3-yl)methyl]-1H,1'H-2,2'-bi-imidazole hemikis(1,2,4,5-tetrafluoro-3,6-di-iodobenzene)"
_symmetry_cell_setting           triclinic
_symmetry_space_group_name_H-M   'P -1'
_symmetry_Int_Tables_number      2
_space_group_name_Hall           '-P 1'
loop_
_symmetry_equiv_pos_site_id
_symmetry_equiv_pos_as_xyz
1 x,y,z
2 -x,-y,-z
_cell_length_a                   5.4649(17)
_cell_length_b                   11.660(4)
_cell_length_c                   12.493(4)
_cell_angle_alpha                84.163(17)
_cell_angle_beta                 80.913(13)
_cell_angle_gamma                76.728(13)
_cell_volume                     763.302
_exptl_crystal_colour            red
_exptl_crystal_description       Blocks
_cell_formula_units_Z            2
loop_
_atom_site_label
_atom_site_type_symbol
_atom_site_fract_x
_atom_site_fract_y
_atom_site_fract_z
C1 C 0.1919(4) 0.1870(2) 0.08138(18)
N1 N -0.0195(4) 0.25142(16) 0.13949(16)
C2 C -0.1529(5) 0.1710(2) 0.1942(2)
H1 H -0.3087 0.1884 0.2416
C3 C -0.0184(5) 0.0625(2) 0.1673(2)
H2 H -0.0663 -0.0097 0.1932
N2 N 0.1981(4) 0.07225(17) 0.09674(17)
C4 C 0.3851(4) 0.23869(19) 0.01161(18)
N3 N 0.3987(4) 0.35204(17) 0.00353(16)
C5 C 0.6126(5) 0.3572(2) -0.07043(19)
H3 H 0.6733 0.427 -0.0939
C6 C 0.7246(5) 0.2477(2) -0.10506(19)
H4 H 0.8745 0.2275 -0.1555
H5 H 0.600(6) 0.096(3) -0.058(3)
N4 N 0.5771(4) 0.17238(18) -0.05228(16)
C7 C -0.1079(4) 0.38043(19) 0.13915(19)
H6 H -0.2958 0.3997 0.1519
H7 H -0.0539 0.4158 0.0663
C8 C -0.0101(4) 0.43651(19) 0.22368(18)
C9 C -0.1284(5) 0.5520(2) 0.2486(2)
H8 H -0.2705 0.5905 0.2137
N5 N -0.0529(4) 0.61171(18) 0.31920(17)
C10 C 0.1458(5) 0.5565(2) 0.3693(2)
H9 H 0.2001 0.5976 0.4198
C11 C 0.2753(5) 0.4419(2) 0.3503(2)
H10 H 0.4159 0.4053 0.3869
C12 C 0.1949(4) 0.3812(2) 0.27617(19)
H11 H 0.2805 0.3025 0.262
C13 C 0.2234(4) 0.9226(2) 0.45518(18)
C14 C 0.0450(5) 0.8825(2) 0.53196(19)
C15 C -0.1734(5) 0.9573(2) 0.57614(19)
I1 I 0.55111(3) 0.80406(2) 0.38972(2)
F1 F 0.0833(3) 0.76642(12) 0.56566(12)
F2 F -0.3413(3) 0.91186(12) 0.64950(12)
C13A C -0.2234(4) 1.0774(2) 0.54482(18)
C14A C -0.0450(5) 1.1175(2) 0.46804(19)
C15A C 0.1734(5) 1.0427(2) 0.42386(19)
I1A I -0.55111(3) 1.19594(2) 0.61028(2)
F1A F -0.0833(3) 1.23358(12) 0.43434(12)
F2A F 0.3413(3) 1.08814(12) 0.35050(12)
loop_
_geom_bond_atom_site_label_1
_geom_bond_atom_site_label_2
_geom_bond_site_symmetry_1
_geom_bond_site_symmetry_2
C1 N1 1_555 1_555
N1 C2 1_555 1_555
C2 H1 1_555 1_555
C3 C2 1_555 1_555
H2 C3 1_555 1_555
N2 C1 1_555 1_555
C4 C1 1_555 1_555
N3 C4 1_555 1_555
C5 N3 1_555 1_555
H3 C5 1_555 1_555
C6 C5 1_555 1_555
H4 C6 1_555 1_555
H5 N4 1_555 1_555
N4 C4 1_555 1_555
C7 N1 1_555 1_555
H6 C7 1_555 1_555
H7 C7 1_555 1_555
C8 C7 1_555 1_555
C9 C8 1_555 1_555
H8 C9 1_555 1_555
N5 C9 1_555 1_555
C10 N5 1_555 1_555
H9 C10 1_555 1_555
C11 C10 1_555 1_555
H10 C11 1_555 1_555
C12 C8 1_555 1_555
H11 C12 1_555 1_555
C13 C14 1_555 1_555
C14 C15 1_555 1_555
C15 F2 1_555 1_555
I1 C13 1_555 1_555
F1 C14 1_555 1_555
C13A C15 1_555 1_555
C14A C13A 1_555 1_555
C15A C13 1_555 1_555
I1A C13A 1_555 1_555
F1A C14A 1_555 1_555
F2A C15A 1_555 1_555
C3 N2 1_555 1_555
C6 N4 1_555 1_555
C11 C12 1_555 1_555
C14A C15A 1_555 1_555

#END
