
#######################################################################
#
#                 Cambridge Crystallographic Data Centre
#                                CCDC 
#
#######################################################################
#
# If this CIF has been generated from an entry in the Cambridge 
# Structural Database, then it will include bibliographic, chemical, 
# crystal, experimental, refinement or atomic coordinate data resulting 
# from the CCDC's data processing and validation procedures.
#
#######################################################################

data_XECPON
_chemical_formula_moiety         'C12 H11 N5,0.5(C6 F4 I2)'
_chemical_name_systematic        
"1-[(pyridin-4-yl)methyl]-1H,1'H-2,2'-bi-imidazole hemikis(1,2,3,4-tetrafluoro-5,6-di-iodobenzene)"
_symmetry_cell_setting           triclinic
_symmetry_space_group_name_H-M   'P -1'
_symmetry_Int_Tables_number      2
_space_group_name_Hall           '-P 1'
loop_
_symmetry_equiv_pos_site_id
_symmetry_equiv_pos_as_xyz
1 x,y,z
2 -x,-y,-z
_cell_length_a                   17.386(2)
_cell_length_b                   19.378(3)
_cell_length_c                   19.435(3)
_cell_angle_alpha                92.996(5)
_cell_angle_beta                 106.710(5)
_cell_angle_gamma                106.560(4)
_cell_volume                     5946.56
_exptl_crystal_colour            pink
_exptl_crystal_description       prism
_cell_formula_units_Z            16
loop_
_atom_site_label
_atom_site_type_symbol
_atom_site_fract_x
_atom_site_fract_y
_atom_site_fract_z
I1 I 0.31198(5) 1.02210(4) 0.50897(4)
I2 I 0.42831(6) 1.16886(5) 0.42944(5)
C1 C 0.2555(8) 1.0714(6) 0.4300(6)
C2 C 0.2966(8) 1.1271(6) 0.3973(7)
C3 C 0.2506(9) 1.1599(7) 0.3448(8)
F1 F 0.2919(6) 1.2127(4) 0.3122(4)
C4 C 0.1658(9) 1.1332(7) 0.3184(7)
F2 F 0.1225(6) 1.1633(5) 0.2660(4)
C5 C 0.1206(8) 1.0793(7) 0.3502(8)
F3 F 0.0372(5) 1.0597(5) 0.3247(5)
C6 C 0.1679(8) 1.0525(6) 0.4029(7)
F4 F 0.1221(5) 0.9994(4) 0.4328(5)
N1 N 0.3451(6) 0.6381(5) 0.6514(6)
C7 C 0.2926(8) 0.5964(6) 0.6807(6)
N2 N 0.3317(6) 0.5680(5) 0.7348(6)
C8 C 0.4148(8) 0.5947(6) 0.7394(7)
H1 H 0.4601 0.5840 0.7731
C9 C 0.4228(8) 0.6383(7) 0.6886(7)
H2 H 0.4740 0.6644 0.6807
N3 N 0.1468(6) 0.5286(5) 0.6779(5)
H3 H 0.1611 0.4966 0.7053
C10 C 0.2004(8) 0.5841(6) 0.6575(7)
N4 N 0.1588(7) 0.6215(5) 0.6148(6)
C11 C 0.0776(8) 0.5907(6) 0.6107(7)
H4 H 0.0325 0.6073 0.5850
C12 C 0.0673(8) 0.5321(6) 0.6482(7)
H5 H 0.0160 0.5010 0.6523
N5 N 0.3722(6) 0.9069(5) 0.6273(7)
C13 C 0.3506(8) 0.8644(7) 0.6728(8)
H6 H 0.3439 0.8863 0.7147
C14 C 0.3363(7) 0.7885(6) 0.6654(7)
H7 H 0.3230 0.7616 0.7022
C15 C 0.3420(7) 0.7538(6) 0.6038(7)
C16 C 0.3638(8) 0.7983(6) 0.5534(7)
H8 H 0.3687 0.7774 0.5102
C17 C 0.3783(8) 0.8728(6) 0.5661(7)
H9 H 0.3931 0.9016 0.5310
C18 C 0.3242(8) 0.6751(6) 0.5856(7)
H10 H 0.3574 0.6668 0.5541
H11 H 0.2635 0.6528 0.5577
N6 N 0.1497(7) 0.8528(5) 0.8495(6)
C19 C 0.2035(8) 0.8240(6) 0.8934(7)
N7 N 0.1587(6) 0.7705(5) 0.9249(6)
C20 C 0.0777(8) 0.7700(7) 0.9007(7)
H12 H 0.0324 0.7399 0.9143
C21 C 0.0708(8) 0.8200(7) 0.8530(7)
H13 H 0.0204 0.8297 0.8275
N8 N 0.3456(7) 0.8229(5) 0.9607(6)
H14 H 0.3306 0.7963 0.9928
C22 C 0.2931(8) 0.8446(6) 0.9048(7)
N9 N 0.3341(7) 0.8828(5) 0.8680(6)
C23 C 0.4168(8) 0.8878(7) 0.9005(7)
H15 H 0.4619 0.9146 0.8847
C24 C 0.4272(8) 0.8509(6) 0.9568(7)
H16 H 0.4781 0.8452 0.9870
N10 N 0.1339(6) 0.8403(5) 0.5829(6)
C25 C 0.1390(8) 0.7949(6) 0.6308(6)
H17 H 0.1355 0.7465 0.6151
C26 C 0.1492(8) 0.8146(6) 0.7025(7)
H18 H 0.1514 0.7792 0.7345
C27 C 0.1563(6) 0.8849(6) 0.7298(6)
C28 C 0.1511(7) 0.9350(6) 0.6799(6)
H19 H 0.1551 0.9838 0.6940
C29 C 0.1396(7) 0.9076(6) 0.6067(6)
H20 H 0.1357 0.9404 0.5721
C30 C 0.1664(8) 0.9140(6) 0.8061(7)
H21 H 0.2246 0.9476 0.8292
H22 H 0.1264 0.9418 0.8052
I3 I 0.18799(5) 0.47750(4) 0.49124(4)
I4 I 0.07171(6) 0.33049(5) 0.57068(5)
C31 C 0.2487(9) 0.4241(6) 0.5744(7)
C32 C 0.2016(8) 0.3683(6) 0.6008(7)
C33 C 0.2482(10) 0.3423(7) 0.6593(8)
F5 F 0.2099(6) 0.2876(4) 0.6873(4)
C34 C 0.3365(9) 0.3643(7) 0.6833(7)
F6 F 0.3763(6) 0.3337(4) 0.7349(4)
C35 C 0.3761(8) 0.4183(7) 0.6527(8)
F7 F 0.4632(5) 0.4438(5) 0.6738(5)
C36 C 0.3352(8) 0.4508(6) 0.5959(7)
F8 F 0.3778(5) 0.5017(4) 0.5676(5)
N11 N 0.1545(6) 0.8606(5) 0.3501(6)
C37 C 0.2096(7) 0.9046(6) 0.3191(7)
N12 N 0.1665(6) 0.9321(5) 0.2649(6)
C38 C 0.0819(8) 0.9055(6) 0.2602(7)
H23 H 0.0372 0.9163 0.2259
C39 C 0.0718(8) 0.8618(7) 0.3114(7)
H24 H 0.0203 0.8372 0.3198
N13 N 0.3498(6) 0.9693(5) 0.3195(6)
H25 H 0.3349 0.9994 0.2898
C40 C 0.2989(8) 0.9167(6) 0.3433(7)
N14 N 0.3410(7) 0.8779(5) 0.3845(6)
C41 C 0.4246(8) 0.9113(6) 0.3919(7)
H26 H 0.4709 0.8980 0.4208
C42 C 0.4306(8) 0.9662(6) 0.3514(7)
H27 H 0.4811 0.9970 0.3459
N15 N 0.1272(6) 0.5937(5) 0.3722(7)
C43 C 0.1507(8) 0.6374(7) 0.3252(8)
H28 H 0.1581 0.6163 0.2834
C44 C 0.1644(7) 0.7116(6) 0.3351(7)
H29 H 0.1783 0.7401 0.2994
C45 C 0.1578(7) 0.7443(6) 0.3983(7)
C46 C 0.1368(8) 0.7004(6) 0.4478(7)
H30 H 0.1333 0.7205 0.4920
C47 C 0.1207(8) 0.6246(6) 0.4312(7)
H31 H 0.1043 0.5942 0.4647
C48 C 0.1743(8) 0.8267(6) 0.4130(7)
H32 H 0.1407 0.8358 0.4439
H33 H 0.2347 0.8502 0.4410
N16 N 0.3515(7) 0.6477(5) 0.1512(6)
C49 C 0.2985(8) 0.6783(6) 0.1049(7)
N17 N 0.3345(6) 0.7250(5) 0.0715(6)
C50 C 0.4203(8) 0.7286(7) 0.1000(7)
H34 H 0.4649 0.7607 0.0872
C51 C 0.4312(8) 0.6819(7) 0.1466(7)
H35 H 0.4827 0.6736 0.1716
N18 N 0.1560(7) 0.6803(5) 0.0395(6)
H36 H 0.1715 0.7079 0.0082
C52 C 0.2074(8) 0.6590(6) 0.0940(7)
N19 N 0.1659(7) 0.6180(5) 0.1335(6)
C53 C 0.0814(8) 0.6132(7) 0.1000(7)
H37 H 0.0349 0.5878 0.1148
C54 C 0.0769(8) 0.6519(6) 0.0413(7)
H38 H 0.0271 0.6572 0.0088
N20 N 0.3679(7) 0.6571(6) 0.4179(6)
C55 C 0.3626(7) 0.7036(6) 0.3676(7)
H39 H 0.3665 0.7520 0.3836
C56 C 0.3519(7) 0.6854(6) 0.2958(7)
H40 H 0.3484 0.7201 0.2632
C57 C 0.3465(8) 0.6149(6) 0.2717(7)
C58 C 0.3504(8) 0.5670(6) 0.3231(7)
H41 H 0.3463 0.5182 0.3085
C59 C 0.3598(8) 0.5886(7) 0.3922(7)
H42 H 0.3608 0.5539 0.4249
C60 C 0.3309(8) 0.5913(6) 0.1921(6)
H43 H 0.3641 0.5581 0.1884
H44 H 0.2704 0.5631 0.1697
I5 I 0.19594(5) 0.48856(4) -0.01871(4)
I6 I 0.07430(5) 0.57581(5) -0.15550(5)
C61 C 0.2491(8) 0.5707(6) -0.0745(7)
C62 C 0.2043(7) 0.5996(6) -0.1253(6)
C63 C 0.2497(9) 0.6536(7) -0.1605(7)
F9 F 0.2064(5) 0.6832(4) -0.2099(4)
C64 C 0.3358(9) 0.6738(6) -0.1368(7)
F10 F 0.3748(5) 0.7241(4) -0.1733(4)
C65 C 0.3784(8) 0.6469(6) -0.0847(8)
F11 F 0.4632(5) 0.6662(4) -0.0697(5)
C66 C 0.3392(8) 0.5909(6) -0.0509(7)
F12 F 0.3850(5) 0.5623(4) -0.0023(4)
N21 N 0.1442(7) 0.3430(5) 0.3420(6)
C67 C 0.1997(8) 0.3184(7) 0.3932(7)
N22 N 0.1645(6) 0.2650(5) 0.4203(6)
C68 C 0.0761(8) 0.2509(7) 0.3829(7)
H45 H 0.0320 0.2126 0.3898
C69 C 0.0642(8) 0.2988(7) 0.3371(7)
H46 H 0.0117 0.3019 0.3074
N23 N 0.3432(7) 0.3280(6) 0.4694(6)
H47 H 0.3276 0.2950 0.4963
C70 C 0.2910(8) 0.3489(7) 0.4134(7)
N24 N 0.3327(7) 0.3987(6) 0.3821(6)
C71 C 0.4192(8) 0.4111(7) 0.4207(8)
H48 H 0.4666 0.4432 0.4114
C72 C 0.4210(8) 0.3663(7) 0.4756(8)
H49 H 0.4705 0.3641 0.5113
N25 N 0.1231(7) 0.3705(6) 0.0781(6)
C73 C 0.1442(8) 0.3262(7) 0.1238(7)
H50 H 0.1514 0.2840 0.1030
C74 C 0.1571(8) 0.3321(7) 0.1972(7)
H51 H 0.1722 0.2963 0.2249
C75 C 0.1467(7) 0.3933(6) 0.2286(6)
C76 C 0.1292(7) 0.4444(6) 0.1832(7)
H52 H 0.1269 0.4890 0.2040
C77 C 0.1156(8) 0.4331(7) 0.1125(7)
H53 H 0.1003 0.4682 0.0838
C78 C 0.1626(9) 0.4066(6) 0.3099(7)
H54 H 0.2228 0.4351 0.3337
H55 H 0.1281 0.4364 0.3194
N26 N 0.3628(6) 0.1658(5) 0.1552(6)
C79 C 0.3044(8) 0.1159(6) 0.1786(7)
N27 N 0.3467(6) 0.0853(5) 0.2322(6)
C80 C 0.4317(8) 0.1164(6) 0.2426(7)
H56 H 0.4757 0.1055 0.2778
C81 C 0.4438(8) 0.1644(6) 0.1962(7)
H57 H 0.4964 0.1920 0.1918
N28 N 0.1635(6) 0.0425(5) 0.1707(6)
H58 H 0.1789 0.0137 0.2018
C82 C 0.2142(8) 0.0985(6) 0.1488(7)
N29 N 0.1720(7) 0.1348(6) 0.1035(6)
C83 C 0.0878(9) 0.0948(7) 0.0918(8)
H59 H 0.0410 0.1044 0.0591
C84 C 0.0813(8) 0.0410(7) 0.1327(8)
H60 H 0.0303 0.0081 0.1354
N30 N 0.3712(7) 0.4319(6) 0.1616(7)
C85 C 0.3667(8) 0.3816(6) 0.2076(8)
H61 H 0.3708 0.3977 0.2559
C86 C 0.3567(8) 0.3097(6) 0.1900(7)
H62 H 0.3516 0.2773 0.2246
C87 C 0.3542(7) 0.2846(6) 0.1204(6)
C88 C 0.3576(7) 0.3333(6) 0.0717(7)
H63 H 0.3546 0.3186 0.0233
C89 C 0.3653(8) 0.4046(6) 0.0948(8)
H64 H 0.3666 0.4372 0.0600
C90 C 0.3482(8) 0.2070(6) 0.0969(7)
H65 H 0.2912 0.1822 0.0621
H66 H 0.3899 0.2078 0.0711
I7 I 0.30393(5) 0.01103(4) 0.01841(4)
I8 I 0.42564(5) -0.07589(4) 0.15538(5)
C91 C 0.2468(8) -0.0666(6) 0.0697(7)
C92 C 0.2942(7) -0.1026(6) 0.1245(6)
C93 C 0.2532(9) -0.1541(7) 0.1560(7)
F13 F 0.2937(5) -0.1849(4) 0.2096(4)
C94 C 0.1659(9) -0.1735(6) 0.1403(7)
F14 F 0.1258(5) -0.2227(4) 0.1732(4)
C95 C 0.1196(8) -0.1420(6) 0.0873(8)
F15 F 0.0364(5) -0.1633(4) 0.0656(5)
C96 C 0.1633(8) -0.0929(6) 0.0549(7)
F16 F 0.1158(5) -0.0631(4) 0.0030(4)
N31 N 0.3545(7) 0.1562(5) -0.3435(6)
C97 C 0.2991(8) 0.1792(7) -0.3922(7)
N32 N 0.3426(6) 0.2392(5) -0.4177(6)
C98 C 0.4241(8) 0.2488(7) -0.3853(7)
H67 H 0.4691 0.2845 -0.3942
C99 C 0.4348(8) 0.2003(7) -0.3374(7)
H68 H 0.4869 0.1976 -0.3063
N33 N 0.1558(7) 0.1685(6) -0.4688(6)
H69 H 0.1714 0.2000 -0.4971
C100 C 0.2072(8) 0.1484(7) -0.4140(7)
N34 N 0.1656(7) 0.1010(6) -0.3820(6)
C101 C 0.0841(8) 0.0907(7) -0.4209(8)
H70 H 0.0385 0.0569 -0.4110
C102 C 0.0720(8) 0.1303(7) -0.4732(8)
H71 H 0.0204 0.1326 -0.5055
N35 N 0.3763(7) 0.1261(6) -0.0813(6)
C103 C 0.3520(8) 0.1759(7) -0.1215(7)
H72 H 0.3417 0.2159 -0.0996
C104 C 0.3424(8) 0.1673(7) -0.1955(7)
H73 H 0.3308 0.2044 -0.2229
C105 C 0.3493(7) 0.1063(6) -0.2300(6)
C106 C 0.3712(7) 0.0540(6) -0.1871(7)
H74 H 0.3762 0.0106 -0.2078
C107 C 0.3855(8) 0.0697(7) -0.1117(7)
H75 H 0.4031 0.0364 -0.0815
C108 C 0.3405(9) 0.0892(6) -0.3072(7)
H76 H 0.2832 0.0553 -0.3327
H77 H 0.3820 0.0645 -0.3111
N36 N 0.1369(6) 0.3340(5) -0.1566(5)
C109 C 0.1925(8) 0.3840(6) -0.1777(7)
N37 N 0.1564(6) 0.4148(5) -0.2306(6)
C110 C 0.0711(8) 0.3837(6) -0.2420(7)
H78 H 0.0270 0.3956 -0.2760
C111 C 0.0603(8) 0.3335(6) -0.1967(7)
H79 H 0.0078 0.3034 -0.1941
N38 N 0.3384(6) 0.4575(5) -0.1676(6)
H80 H 0.3241 0.4884 -0.1964
C112 C 0.2832(8) 0.4000(6) -0.1512(7)
N39 N 0.3266(7) 0.3655(6) -0.1050(6)
C113 C 0.4094(9) 0.4007(7) -0.0942(8)
H81 H 0.4550 0.3870 -0.0645
C114 C 0.4187(8) 0.4593(7) -0.1323(8)
H82 H 0.4699 0.4931 -0.1335
N40 N 0.1305(7) 0.0698(6) -0.1617(7)
C115 C 0.1344(8) 0.1168(6) -0.2081(8)
H83 H 0.1325 0.1006 -0.2557
C116 C 0.1414(8) 0.1910(6) -0.1901(7)
H84 H 0.1436 0.2235 -0.2249
C117 C 0.1447(7) 0.2139(6) -0.1220(6)
C118 C 0.1425(7) 0.1630(6) -0.0727(7)
H85 H 0.1466 0.1777 -0.0240
C119 C 0.1342(8) 0.0921(6) -0.0950(8)
H86 H 0.1311 0.0581 -0.0616
C120 C 0.1548(8) 0.2920(6) -0.0964(7)
H87 H 0.1160 0.2926 -0.0678
H88 H 0.2133 0.3158 -0.0639
loop_
_geom_bond_atom_site_label_1
_geom_bond_atom_site_label_2
_geom_bond_site_symmetry_1
_geom_bond_site_symmetry_2
I1 C1 1_555 1_555
I2 C2 1_555 1_555
C1 C2 1_555 1_555
C2 C3 1_555 1_555
C3 F1 1_555 1_555
C4 C3 1_555 1_555
F2 C4 1_555 1_555
C5 C4 1_555 1_555
F3 C5 1_555 1_555
C6 C1 1_555 1_555
F4 C6 1_555 1_555
N1 C7 1_555 1_555
C7 N2 1_555 1_555
N2 C8 1_555 1_555
C8 H1 1_555 1_555
C9 N1 1_555 1_555
H2 C9 1_555 1_555
N3 H3 1_555 1_555
C10 C7 1_555 1_555
N4 C10 1_555 1_555
C11 N4 1_555 1_555
H4 C11 1_555 1_555
C12 N3 1_555 1_555
H5 C12 1_555 1_555
N5 C13 1_555 1_555
C13 H6 1_555 1_555
C14 C13 1_555 1_555
H7 C14 1_555 1_555
C15 C14 1_555 1_555
C16 C15 1_555 1_555
H8 C16 1_555 1_555
C17 N5 1_555 1_555
H9 C17 1_555 1_555
C18 N1 1_555 1_555
H10 C18 1_555 1_555
H11 C18 1_555 1_555
N6 C19 1_555 1_555
C19 N7 1_555 1_555
N7 C20 1_555 1_555
C20 H12 1_555 1_555
C21 N6 1_555 1_555
H13 C21 1_555 1_555
N8 H14 1_555 1_555
C22 C19 1_555 1_555
N9 C22 1_555 1_555
C23 N9 1_555 1_555
H15 C23 1_555 1_555
C24 N8 1_555 1_555
H16 C24 1_555 1_555
N10 C25 1_555 1_555
C25 H17 1_555 1_555
C26 C25 1_555 1_555
H18 C26 1_555 1_555
C27 C26 1_555 1_555
C28 C27 1_555 1_555
H19 C28 1_555 1_555
C29 N10 1_555 1_555
H20 C29 1_555 1_555
C30 N6 1_555 1_555
H21 C30 1_555 1_555
H22 C30 1_555 1_555
I3 C31 1_555 1_555
I4 C32 1_555 1_555
C31 C32 1_555 1_555
C32 C33 1_555 1_555
C33 F5 1_555 1_555
C34 C33 1_555 1_555
F6 C34 1_555 1_555
C35 C34 1_555 1_555
F7 C35 1_555 1_555
C36 C31 1_555 1_555
F8 C36 1_555 1_555
N11 C37 1_555 1_555
C37 N12 1_555 1_555
N12 C38 1_555 1_555
C38 H23 1_555 1_555
C39 N11 1_555 1_555
H24 C39 1_555 1_555
N13 H25 1_555 1_555
C40 C37 1_555 1_555
N14 C40 1_555 1_555
C41 N14 1_555 1_555
H26 C41 1_555 1_555
C42 N13 1_555 1_555
H27 C42 1_555 1_555
N15 C43 1_555 1_555
C43 H28 1_555 1_555
C44 C43 1_555 1_555
H29 C44 1_555 1_555
C45 C44 1_555 1_555
C46 C45 1_555 1_555
H30 C46 1_555 1_555
C47 N15 1_555 1_555
H31 C47 1_555 1_555
C48 N11 1_555 1_555
H32 C48 1_555 1_555
H33 C48 1_555 1_555
N16 C49 1_555 1_555
C49 N17 1_555 1_555
N17 C50 1_555 1_555
C50 H34 1_555 1_555
C51 N16 1_555 1_555
H35 C51 1_555 1_555
N18 H36 1_555 1_555
C52 C49 1_555 1_555
N19 C52 1_555 1_555
C53 N19 1_555 1_555
H37 C53 1_555 1_555
C54 N18 1_555 1_555
H38 C54 1_555 1_555
N20 C55 1_555 1_555
C55 H39 1_555 1_555
C56 C55 1_555 1_555
H40 C56 1_555 1_555
C57 C56 1_555 1_555
C58 C57 1_555 1_555
H41 C58 1_555 1_555
C59 N20 1_555 1_555
H42 C59 1_555 1_555
C60 N16 1_555 1_555
H43 C60 1_555 1_555
H44 C60 1_555 1_555
I5 C61 1_555 1_555
I6 C62 1_555 1_555
C61 C62 1_555 1_555
C62 C63 1_555 1_555
C63 F9 1_555 1_555
C64 C63 1_555 1_555
F10 C64 1_555 1_555
C65 C64 1_555 1_555
F11 C65 1_555 1_555
C66 C61 1_555 1_555
F12 C66 1_555 1_555
N21 C67 1_555 1_555
C67 N22 1_555 1_555
N22 C68 1_555 1_555
C68 H45 1_555 1_555
C69 N21 1_555 1_555
H46 C69 1_555 1_555
N23 H47 1_555 1_555
C70 C67 1_555 1_555
N24 C70 1_555 1_555
C71 N24 1_555 1_555
H48 C71 1_555 1_555
C72 N23 1_555 1_555
H49 C72 1_555 1_555
N25 C73 1_555 1_555
C73 H50 1_555 1_555
C74 C73 1_555 1_555
H51 C74 1_555 1_555
C75 C74 1_555 1_555
C76 C75 1_555 1_555
H52 C76 1_555 1_555
C77 N25 1_555 1_555
H53 C77 1_555 1_555
C78 N21 1_555 1_555
H54 C78 1_555 1_555
H55 C78 1_555 1_555
N26 C79 1_555 1_555
C79 N27 1_555 1_555
N27 C80 1_555 1_555
C80 H56 1_555 1_555
C81 N26 1_555 1_555
H57 C81 1_555 1_555
N28 H58 1_555 1_555
C82 C79 1_555 1_555
N29 C82 1_555 1_555
C83 N29 1_555 1_555
H59 C83 1_555 1_555
C84 N28 1_555 1_555
H60 C84 1_555 1_555
N30 C85 1_555 1_555
C85 H61 1_555 1_555
C86 C85 1_555 1_555
H62 C86 1_555 1_555
C87 C86 1_555 1_555
C88 C87 1_555 1_555
H63 C88 1_555 1_555
C89 N30 1_555 1_555
H64 C89 1_555 1_555
C90 N26 1_555 1_555
H65 C90 1_555 1_555
H66 C90 1_555 1_555
I7 C91 1_555 1_555
I8 C92 1_555 1_555
C91 C92 1_555 1_555
C92 C93 1_555 1_555
C93 F13 1_555 1_555
C94 C93 1_555 1_555
F14 C94 1_555 1_555
C95 C94 1_555 1_555
F15 C95 1_555 1_555
C96 C91 1_555 1_555
F16 C96 1_555 1_555
N31 C97 1_555 1_555
C97 N32 1_555 1_555
N32 C98 1_555 1_555
C98 H67 1_555 1_555
C99 N31 1_555 1_555
H68 C99 1_555 1_555
N33 H69 1_555 1_555
C100 C97 1_555 1_555
N34 C100 1_555 1_555
C101 N34 1_555 1_555
H70 C101 1_555 1_555
C102 N33 1_555 1_555
H71 C102 1_555 1_555
N35 C103 1_555 1_555
C103 H72 1_555 1_555
C104 C103 1_555 1_555
H73 C104 1_555 1_555
C105 C104 1_555 1_555
C106 C105 1_555 1_555
H74 C106 1_555 1_555
C107 N35 1_555 1_555
H75 C107 1_555 1_555
C108 N31 1_555 1_555
H76 C108 1_555 1_555
H77 C108 1_555 1_555
N36 C109 1_555 1_555
C109 N37 1_555 1_555
N37 C110 1_555 1_555
C110 H78 1_555 1_555
C111 N36 1_555 1_555
H79 C111 1_555 1_555
N38 H80 1_555 1_555
C112 C109 1_555 1_555
N39 C112 1_555 1_555
C113 N39 1_555 1_555
H81 C113 1_555 1_555
C114 N38 1_555 1_555
H82 C114 1_555 1_555
N40 C115 1_555 1_555
C115 H83 1_555 1_555
C116 C115 1_555 1_555
H84 C116 1_555 1_555
C117 C116 1_555 1_555
C118 C117 1_555 1_555
H85 C118 1_555 1_555
C119 N40 1_555 1_555
H86 C119 1_555 1_555
C120 N36 1_555 1_555
H87 C120 1_555 1_555
H88 C120 1_555 1_555
C5 C6 1_555 1_555
C8 C9 1_555 1_555
N3 C10 1_555 1_555
C11 C12 1_555 1_555
C15 C18 1_555 1_555
C16 C17 1_555 1_555
C20 C21 1_555 1_555
N8 C22 1_555 1_555
C23 C24 1_555 1_555
C27 C30 1_555 1_555
C28 C29 1_555 1_555
C35 C36 1_555 1_555
C38 C39 1_555 1_555
N13 C40 1_555 1_555
C41 C42 1_555 1_555
C45 C48 1_555 1_555
C46 C47 1_555 1_555
C50 C51 1_555 1_555
N18 C52 1_555 1_555
C53 C54 1_555 1_555
C57 C60 1_555 1_555
C58 C59 1_555 1_555
C65 C66 1_555 1_555
C68 C69 1_555 1_555
N23 C70 1_555 1_555
C71 C72 1_555 1_555
C75 C78 1_555 1_555
C76 C77 1_555 1_555
C80 C81 1_555 1_555
N28 C82 1_555 1_555
C83 C84 1_555 1_555
C87 C90 1_555 1_555
C88 C89 1_555 1_555
C95 C96 1_555 1_555
C98 C99 1_555 1_555
N33 C100 1_555 1_555
C101 C102 1_555 1_555
C105 C108 1_555 1_555
C106 C107 1_555 1_555
C110 C111 1_555 1_555
N38 C112 1_555 1_555
C113 C114 1_555 1_555
C117 C120 1_555 1_555
C118 C119 1_555 1_555

#END
