
#######################################################################
#
#                 Cambridge Crystallographic Data Centre
#                                CCDC 
#
#######################################################################
#
# If this CIF has been generated from an entry in the Cambridge 
# Structural Database, then it will include bibliographic, chemical, 
# crystal, experimental, refinement or atomic coordinate data resulting 
# from the CCDC's data processing and validation procedures.
#
#######################################################################

data_XECPAZ
_chemical_formula_moiety         'C12 H11 N5,0.5(C6 F4 I2)'
_chemical_name_systematic        
"1-[(pyridin-2-yl)methyl]-1H,1'H-2,2'-bi-imidazole hemikis(1,2,4,5-tetrafluoro-3,6-di-iodobenzene)"
_symmetry_cell_setting           triclinic
_symmetry_space_group_name_H-M   'P -1'
_symmetry_Int_Tables_number      2
_space_group_name_Hall           '-P 1'
loop_
_symmetry_equiv_pos_site_id
_symmetry_equiv_pos_as_xyz
1 x,y,z
2 -x,-y,-z
_cell_length_a                   5.0691(14)
_cell_length_b                   8.055(2)
_cell_length_c                   19.750(5)
_cell_angle_alpha                93.952(13)
_cell_angle_beta                 93.442(12)
_cell_angle_gamma                105.938(16)
_cell_volume                     770.956
_exptl_crystal_colour            red
_exptl_crystal_description       Plates
_cell_formula_units_Z            2
loop_
_atom_site_label
_atom_site_type_symbol
_atom_site_fract_x
_atom_site_fract_y
_atom_site_fract_z
C1 C 0.8965(7) 0.9307(4) 0.12428(15)
N1 N 0.9365(6) 0.9396(4) 0.19353(13)
C2 C 1.1895(7) 1.0532(5) 0.21162(17)
H1 H 1.2764 1.085 0.2564
C3 C 1.2927(8) 1.1118(5) 0.15304(17)
H2 H 1.4656 1.1943 0.1503
N2 N 1.1102(6) 1.0341(4) 0.09839(14)
C4 C 0.6560(8) 0.8200(5) 0.08497(16)
N3 N 0.4498(7) 0.7080(5) 0.10874(16)
C5 C 0.2726(11) 0.6379(8) 0.0532(2)
H3 H 0.1011 0.5529 0.0542
C6 C 0.3754(10) 0.7065(8) -0.0040(2)
H4 H 0.2924 0.6786 -0.0493
H5 H 0.731(9) 0.881(6) -0.007(2)
N4 N 0.6202(7) 0.8226(5) 0.01696(15)
C7 C 0.7491(7) 0.8515(4) 0.24136(15)
H6 H 0.5574 0.8359 0.2227
H7 H 0.7793 0.926 0.2847
C8 C 0.7839(7) 0.6766(4) 0.25590(15)
N5 N 0.6460(6) 0.6101(4) 0.30806(13)
C9 C 0.6666(8) 0.4565(5) 0.32492(18)
H8 H 0.5692 0.4076 0.3617
C10 C 0.8222(8) 0.3640(5) 0.29176(19)
H9 H 0.8314 0.2549 0.3055
C11 C 0.9635(8) 0.4350(5) 0.23814(19)
H10 H 1.0725 0.3754 0.2143
C12 C 0.9441(7) 0.5938(5) 0.21963(16)
H11 H 1.0385 0.6451 0.1828
C13 C 0.1462(7) 0.9131(4) 0.45820(15)
C14 C 0.0990(7) 1.0653(5) 0.44266(15)
C15 C 0.0440(7) 0.8471(5) 0.51703(16)
I1 I 0.35814(4) 0.78259(3) 0.39475(2)
F1 F 0.1911(5) 1.1361(3) 0.38509(10)
F2 F 0.0832(5) 0.6999(3) 0.53605(10)
C13A C -0.1462(7) 1.0869(4) 0.54180(15)
C14A C -0.0990(7) 0.9347(5) 0.55734(15)
C15A C -0.0440(7) 1.1529(5) 0.48297(16)
I1A I -0.35814(4) 1.21741(3) 0.60525(2)
F1A F -0.1911(5) 0.8639(3) 0.61491(10)
F2A F -0.0832(5) 1.3001(3) 0.46395(10)
loop_
_geom_bond_atom_site_label_1
_geom_bond_atom_site_label_2
_geom_bond_site_symmetry_1
_geom_bond_site_symmetry_2
C1 N1 1_555 1_555
N1 C2 1_555 1_555
C2 H1 1_555 1_555
C3 C2 1_555 1_555
H2 C3 1_555 1_555
N2 C1 1_555 1_555
C4 C1 1_555 1_555
N3 C4 1_555 1_555
C5 N3 1_555 1_555
H3 C5 1_555 1_555
C6 C5 1_555 1_555
H4 C6 1_555 1_555
H5 N4 1_555 1_555
N4 C4 1_555 1_555
C7 N1 1_555 1_555
H6 C7 1_555 1_555
H7 C7 1_555 1_555
C8 C7 1_555 1_555
N5 C8 1_555 1_555
C9 N5 1_555 1_555
H8 C9 1_555 1_555
C10 C9 1_555 1_555
H9 C10 1_555 1_555
C11 C10 1_555 1_555
H10 C11 1_555 1_555
C12 C8 1_555 1_555
H11 C12 1_555 1_555
C13 C14 1_555 1_555
C14 F1 1_555 1_555
C15 C13 1_555 1_555
I1 C13 1_555 1_555
F2 C15 1_555 1_555
C13A C14A 1_555 1_555
C14A C15 1_555 1_555
C15A C14 1_555 1_555
I1A C13A 1_555 1_555
F1A C14A 1_555 1_555
F2A C15A 1_555 1_555
C3 N2 1_555 1_555
C6 N4 1_555 1_555
C11 C12 1_555 1_555
C13A C15A 1_555 1_555

#END
