
#######################################################################
#
#                 Cambridge Crystallographic Data Centre
#                                CCDC 
#
#######################################################################
#
# If this CIF has been generated from an entry in the Cambridge 
# Structural Database, then it will include bibliographic, chemical, 
# crystal, experimental, refinement or atomic coordinate data resulting 
# from the CCDC's data processing and validation procedures.
#
#######################################################################

data_XECQEE
_chemical_formula_moiety         'C12 H12 N5 1+,C8 H13 O4 1-'
_chemical_name_systematic        
'2-(1H-imidazol-2-yl)-1-[(pyridin-2-yl)methyl]-1H-imidazol-3-ium hydrogen suberate'
_symmetry_cell_setting           triclinic
_symmetry_space_group_name_H-M   'P -1'
_symmetry_Int_Tables_number      2
_space_group_name_Hall           '-P 1'
loop_
_symmetry_equiv_pos_site_id
_symmetry_equiv_pos_as_xyz
1 x,y,z
2 -x,-y,-z
_cell_length_a                   5.1948(2)
_cell_length_b                   10.8967(3)
_cell_length_c                   18.2317(6)
_cell_angle_alpha                105.5790(10)
_cell_angle_beta                 95.6070(10)
_cell_angle_gamma                100.1040(10)
_cell_volume                     967.214
_exptl_crystal_colour            violet
_exptl_crystal_description       Irregular
_cell_formula_units_Z            2
loop_
_atom_site_label
_atom_site_type_symbol
_atom_site_fract_x
_atom_site_fract_y
_atom_site_fract_z
C1 C 0.7703(3) 0.67884(14) 0.36428(9)
H1 H 0.613(6) 0.537(3) 0.2615(15)
N1 N 0.7484(3) 0.57146(12) 0.30577(8)
C2 C 0.9410(3) 0.50746(15) 0.32381(9)
H2 H 0.9714 0.4299 0.2929
C3 C 1.0784(3) 0.57653(15) 0.39399(9)
H3 H 1.2186 0.5553 0.4203
N2 N 0.9704(3) 0.68457(12) 0.41909(7)
C4 C 1.0609(3) 0.78285(15) 0.49383(9)
H4 H 1.055 0.868 0.4876
H5 H 1.2438 0.7827 0.5107
C5 C 0.8989(3) 0.76178(14) 0.55576(9)
N3 N 0.6835(3) 0.66595(12) 0.53624(7)
C6 C 0.5434(3) 0.65068(15) 0.59291(9)
H6 H 0.3934 0.584 0.5804
C7 C 0.6098(3) 0.72805(16) 0.66822(9)
H7 H 0.507 0.7138 0.7053
C8 C 0.8338(3) 0.82792(15) 0.68750(9)
H8 H 0.8831 0.8825 0.7377
C9 C 0.9814(3) 0.84435(15) 0.63047(9)
H9 H 1.1337 0.9095 0.6418
C10 C 0.6118(3) 0.77611(14) 0.36703(9)
H10 H 0.367(4) 0.704(2) 0.2636(14)
N4 N 0.4263(3) 0.76990(13) 0.30760(8)
C11 C 0.3189(3) 0.87719(15) 0.33002(9)
H11 H 0.1857 0.8997 0.3016
C12 C 0.4459(3) 0.94479(15) 0.40238(9)
H12 H 0.4127 1.0229 0.4317
N5 N 0.6302(3) 0.88137(12) 0.42593(7)
O1 O 1.4079(3) 0.44410(12) 0.18361(7)
O2 O 1.1736(2) 0.59348(11) 0.17472(6)
C13 C 1.2295(3) 0.48421(16) 0.14932(9)
C14 C 1.0836(4) 0.39610(17) 0.07185(10)
H13 H 1.1796 0.4162 0.032
H14 H 0.9109 0.4169 0.0638
C15 C 1.0449(3) 0.25020(16) 0.06116(9)
H15 H 1.2141 0.2307 0.0759
H16 H 0.9874 0.2044 0.0069
C16 C 0.8448(3) 0.19802(17) 0.10735(10)
H17 H 0.9114 0.2356 0.1619
H18 H 0.6801 0.225 0.0969
C17 C 0.7912(3) 0.04996(16) 0.08781(9)
H19 H 0.9558 0.0243 0.1003
H20 H 0.735 0.0135 0.0327
C18 C 0.5825(3) -0.01000(17) 0.12908(10)
H21 H 0.6361 0.0272 0.1843
H22 H 0.416 0.0132 0.1156
C19 C 0.5397(3) -0.15809(17) 0.10918(10)
H23 H 0.3843 -0.1906 0.1294
H24 H 0.5055 -0.1948 0.0536
C20 C 0.7709(3) -0.20389(16) 0.14062(9)
O3 O 0.9582(3) -0.13169(13) 0.18537(8)
H25 H 0.898(5) -0.355(2) 0.1357(15)
O4 O 0.7536(3) -0.33178(12) 0.11436(7)
loop_
_geom_bond_atom_site_label_1
_geom_bond_atom_site_label_2
_geom_bond_site_symmetry_1
_geom_bond_site_symmetry_2
C1 N1 1_555 1_555
H1 N1 1_555 1_555
N1 C2 1_555 1_555
C2 H2 1_555 1_555
C3 C2 1_555 1_555
H3 C3 1_555 1_555
N2 C1 1_555 1_555
C4 N2 1_555 1_555
H4 C4 1_555 1_555
H5 C4 1_555 1_555
C5 C4 1_555 1_555
N3 C5 1_555 1_555
C6 N3 1_555 1_555
H6 C6 1_555 1_555
C7 C6 1_555 1_555
H7 C7 1_555 1_555
C8 C7 1_555 1_555
H8 C8 1_555 1_555
C9 C5 1_555 1_555
H9 C9 1_555 1_555
C10 C1 1_555 1_555
H10 N4 1_555 1_555
N4 C10 1_555 1_555
C11 N4 1_555 1_555
H11 C11 1_555 1_555
C12 C11 1_555 1_555
H12 C12 1_555 1_555
N5 C10 1_555 1_555
O1 C13 1_555 1_555
O2 C13 1_555 1_555
C13 C14 1_555 1_555
C14 H13 1_555 1_555
H14 C14 1_555 1_555
C15 C14 1_555 1_555
H15 C15 1_555 1_555
H16 C15 1_555 1_555
C16 C15 1_555 1_555
H17 C16 1_555 1_555
H18 C16 1_555 1_555
C17 C16 1_555 1_555
H19 C17 1_555 1_555
H20 C17 1_555 1_555
C18 C17 1_555 1_555
H21 C18 1_555 1_555
H22 C18 1_555 1_555
C19 C18 1_555 1_555
H23 C19 1_555 1_555
H24 C19 1_555 1_555
C20 C19 1_555 1_555
O3 C20 1_555 1_555
H25 O4 1_555 1_555
O4 C20 1_555 1_555
C3 N2 1_555 1_555
C8 C9 1_555 1_555
C12 N5 1_555 1_555

#END
