
#######################################################################
#
#                 Cambridge Crystallographic Data Centre
#                                CCDC 
#
#######################################################################
#
# If this CIF has been generated from an entry in the Cambridge 
# Structural Database, then it will include bibliographic, chemical, 
# crystal, experimental, refinement or atomic coordinate data resulting 
# from the CCDC's data processing and validation procedures.
#
#######################################################################

data_XECQAA
_chemical_formula_moiety         '2(C12 H12 N5 1+),C4 H6 O4,C4 H4 O4 2-'
_chemical_name_systematic        
'bis(2-(1H-imidazol-2-yl)-1-[(pyridin-2-yl)methyl]-1H-imidazol-3-ium) succinate succinic acid'
_symmetry_cell_setting           triclinic
_symmetry_space_group_name_H-M   'P -1'
_symmetry_Int_Tables_number      2
_space_group_name_Hall           '-P 1'
loop_
_symmetry_equiv_pos_site_id
_symmetry_equiv_pos_as_xyz
1 x,y,z
2 -x,-y,-z
_cell_length_a                   5.0716(9)
_cell_length_b                   11.314(2)
_cell_length_c                   14.051(3)
_cell_angle_alpha                90.818(7)
_cell_angle_beta                 99.190(6)
_cell_angle_gamma                99.925(6)
_cell_volume                     783.263
_exptl_crystal_colour            colorless
_exptl_crystal_description       plate
_cell_formula_units_Z            1
loop_
_atom_site_label
_atom_site_type_symbol
_atom_site_fract_x
_atom_site_fract_y
_atom_site_fract_z
N1 N 0.99375(16) 0.22301(7) 0.41471(6)
C1 C 0.79326(19) 0.23753(8) 0.34321(7)
N2 N 0.77927(17) 0.15451(8) 0.27328(6)
H1 H 0.639(3) 0.1361(12) 0.2118(10)
C2 C 0.9741(2) 0.08581(9) 0.30080(7)
H2 H 1.0089 0.0205 0.2643
C3 C 1.1079(2) 0.12776(9) 0.38927(7)
H3 H 1.2528 0.0973 0.4266
N3 N 0.43775(17) 0.34136(8) 0.26346(6)
H4 H 0.391(3) 0.2957(13) 0.2040(10)
C4 C 0.62555(19) 0.32800(8) 0.34053(7)
N4 N 0.63209(17) 0.40681(8) 0.41214(6)
C5 C 0.4396(2) 0.47365(9) 0.37809(7)
H5 H 0.3968 0.5383 0.4130
C6 C 0.3174(2) 0.43411(9) 0.28651(7)
H6 H 0.1770 0.4651 0.2471
N5 N 0.70753(18) 0.15447(8) 0.56006(6)
C7 C 0.91506(19) 0.24470(9) 0.58347(7)
C8 C 0.9895(2) 0.29935(11) 0.67552(8)
H7 H 1.1390 0.3638 0.6892
C9 C 0.8416(3) 0.25793(11) 0.74665(8)
H8 H 0.8869 0.2937 0.8100
C10 C 0.6264(2) 0.16336(11) 0.72375(9)
H9 H 0.5220 0.1323 0.7712
C11 C 0.5670(2) 0.11532(11) 0.63056(8)
H10 H 0.4183 0.0508 0.6151
C12 C 1.07878(19) 0.29104(9) 0.50664(7)
H11 H 1.0626 0.3760 0.4963
H12 H 1.2724 0.2883 0.5300
C13 C 0.2699(2) 0.12151(10) 0.07240(7)
O1 O 0.4415(2) 0.07211(8) 0.12367(6)
O2 O 0.22896(17) 0.22465(8) 0.09074(6)
C14 C 0.1019(3) 0.04992(11) -0.01508(8)
H13 H 0.0057 0.1037 -0.0573
H14 H 0.2227 0.0155 -0.0523
C13A C -0.2699(2) -0.12151(10) -0.07240(7)
O1A O -0.4415(2) -0.07211(8) -0.12367(6)
O2A O -0.22896(17) -0.22465(8) -0.09074(6)
C14A C -0.1019(3) -0.04992(11) 0.01508(8)
H13A H -0.0057 -0.1037 0.0573
H14A H -0.2227 -0.0155 0.0523
C15 C -0.2454(2) 0.39482(12) 0.03366(8)
O3 O -0.1770(2) 0.30416(10) -0.01099(7)
H15 H -0.038(4) 0.2699(16) 0.0319(13)
O4 O -0.1439(2) 0.42961(10) 0.11478(7)
C16 C -0.4583(2) 0.45018(12) -0.02702(8)
H16 H -0.6194 0.3875 -0.0489
H17 H -0.3878 0.4825 -0.0850
C15A C -0.7546(2) 0.60518(12) -0.03366(8)
O3A O -0.8230(2) 0.69584(10) 0.01099(7)
H15A H -0.962(4) 0.7301(16) -0.0319(13)
O4A O -0.8561(2) 0.57039(10) -0.11478(7)
C16A C -0.5417(2) 0.54982(12) 0.02702(8)
H16A H -0.3806 0.6125 0.0489
H17A H -0.6122 0.5175 0.0850
loop_
_geom_bond_atom_site_label_1
_geom_bond_atom_site_label_2
_geom_bond_site_symmetry_1
_geom_bond_site_symmetry_2
N1 C1 1_555 1_555
C1 N2 1_555 1_555
N2 H1 1_555 1_555
C2 N2 1_555 1_555
H2 C2 1_555 1_555
C3 N1 1_555 1_555
H3 C3 1_555 1_555
N3 H4 1_555 1_555
C4 C1 1_555 1_555
N4 C4 1_555 1_555
C5 N4 1_555 1_555
H5 C5 1_555 1_555
C6 N3 1_555 1_555
H6 C6 1_555 1_555
N5 C7 1_555 1_555
C7 C8 1_555 1_555
C8 H7 1_555 1_555
C9 C8 1_555 1_555
H8 C9 1_555 1_555
C10 C9 1_555 1_555
H9 C10 1_555 1_555
C11 N5 1_555 1_555
H10 C11 1_555 1_555
C12 N1 1_555 1_555
H11 C12 1_555 1_555
H12 C12 1_555 1_555
C13 O1 1_555 1_555
O2 C13 1_555 1_555
C14 C13 1_555 1_555
H13 C14 1_555 1_555
H14 C14 1_555 1_555
C15 O3 1_555 1_555
O3 H15 1_555 1_555
O4 C15 1_555 1_555
C16 C15 1_555 1_555
H16 C16 1_555 1_555
H17 C16 1_555 1_555
C13A O1A 1_555 1_555
O2A C13A 1_555 1_555
C14A C14 1_555 1_555
H13A C14A 1_555 1_555
H14A C14A 1_555 1_555
C15A O3A 1_555 1_555
O3A H15A 1_555 1_555
O4A C15A 1_555 1_555
C16A C16 1_555 1_555
H16A C16A 1_555 1_555
H17A C16A 1_555 1_555
C2 C3 1_555 1_555
N3 C4 1_555 1_555
C5 C6 1_555 1_555
C7 C12 1_555 1_555
C10 C11 1_555 1_555
C13A C14A 1_555 1_555
C15A C16A 1_555 1_555

#END
