
#######################################################################
#
#                 Cambridge Crystallographic Data Centre
#                                CCDC 
#
#######################################################################
#
# If this CIF has been generated from an entry in the Cambridge 
# Structural Database, then it will include bibliographic, chemical, 
# crystal, experimental, refinement or atomic coordinate data resulting 
# from the CCDC's data processing and validation procedures.
#
#######################################################################

data_XECQII
_chemical_formula_moiety         '0.5(C12 H22 O4),C12 H11 N5'
_chemical_name_systematic        
"1-[(pyridin-2-yl)methyl]-1H,1'H-2,2'-bi-imidazole hemikis(dodecanedioic acid)"
_symmetry_cell_setting           triclinic
_symmetry_space_group_name_H-M   'P -1'
_symmetry_Int_Tables_number      2
_space_group_name_Hall           '-P 1'
loop_
_symmetry_equiv_pos_site_id
_symmetry_equiv_pos_as_xyz
1 x,y,z
2 -x,-y,-z
_cell_length_a                   5.2936(3)
_cell_length_b                   7.9437(5)
_cell_length_c                   22.8847(13)
_cell_angle_alpha                81.583(5)
_cell_angle_beta                 85.500(6)
_cell_angle_gamma                70.615(5)
_cell_volume                     897.527
_exptl_crystal_colour            red
_exptl_crystal_description       block
_cell_formula_units_Z            2
loop_
_atom_site_label
_atom_site_type_symbol
_atom_site_fract_x
_atom_site_fract_y
_atom_site_fract_z
O1 O 0.7326(4) 1.0200(3) 0.18557(9)
O2 O 0.7980(4) 0.7706(3) 0.14596(10)
C1 C 0.8399(5) 0.9241(4) 0.14895(12)
C2 C 1.0286(5) 0.9656(4) 0.10137(13)
H1 H 0.9553 0.9707 0.0634
H2 H 1.1971 0.8675 0.1041
C3 C 1.0843(5) 1.1392(4) 0.10317(12)
H3 H 1.1761 1.1292 0.1392
H4 H 0.9149 1.2358 0.1047
C4 C 1.2516(5) 1.1890(4) 0.05114(12)
H5 H 1.4202 1.0916 0.0495
H6 H 1.1590 1.1995 0.0152
C5 C 1.3106(5) 1.3610(4) 0.05252(12)
H7 H 1.4079 1.3491 0.0879
H8 H 1.1421 1.4577 0.0554
C6 C 1.4714(5) 1.4135(4) -0.00046(12)
H9 H 1.6406 1.3173 -0.0031
H10 H 1.3750 1.4241 -0.0359
H11 H 0.682(7) 0.731(5) 0.1772(18)
O1A O 2.2674(4) 1.9800(3) -0.18557(9)
O2A O 2.2020(4) 2.2294(3) -0.14596(10)
C1A C 2.1601(5) 2.0759(4) -0.14895(12)
C2A C 1.9714(5) 2.0344(4) -0.10137(13)
H1A H 2.0447 2.0293 -0.0634
H2A H 1.8029 2.1325 -0.1041
C3A C 1.9157(5) 1.8608(4) -0.10317(12)
H3A H 1.8239 1.8708 -0.1392
H4A H 2.0851 1.7642 -0.1047
C4A C 1.7484(5) 1.8110(4) -0.05114(12)
H5A H 1.5798 1.9084 -0.0495
H6A H 1.8410 1.8005 -0.0152
C5A C 1.6894(5) 1.6390(4) -0.05252(12)
H7A H 1.5921 1.6509 -0.0879
H8A H 1.8579 1.5423 -0.0554
C6A C 1.5286(5) 1.5865(4) 0.00046(12)
H9A H 1.3594 1.6827 0.0031
H10A H 1.6250 1.5759 0.0359
H11A H 2.318(7) 2.269(5) -0.1772(18)
N1 N 0.1287(4) 0.9729(3) 0.32967(9)
N2 N -0.0718(4) 1.0558(3) 0.41466(10)
N3 N 0.5868(5) 0.7159(4) 0.39931(13)
N4 N 0.3870(5) 0.8229(4) 0.48096(12)
N5 N 0.4629(4) 0.6512(3) 0.22548(10)
C7 C 0.1479(5) 0.9525(3) 0.38963(12)
C8 C 0.3741(5) 0.8314(4) 0.42199(13)
C9 C 0.6224(8) 0.6978(7) 0.49719(18)
H12 H 0.6887 0.6623 0.5351
C10 C 0.7410(8) 0.6351(7) 0.44682(19)
H13 H 0.9082 0.5473 0.4448
C11 C -0.1183(6) 1.0939(4) 0.31670(13)
H14 H -0.1904 1.1337 0.2794
C12 C -0.2367(6) 1.1443(4) 0.36825(13)
H15 H -0.4067 1.2276 0.3722
C13 C 0.3268(5) 0.8894(3) 0.28560(12)
H16 H 0.5045 0.8655 0.3000
H17 H 0.3078 0.9737 0.2497
C14 C 0.3043(5) 0.7169(3) 0.27089(11)
C15 C 0.1352(5) 0.6329(3) 0.30060(13)
H18 H 0.0248 0.6821 0.3317
C16 C 0.1313(7) 0.4736(4) 0.28364(16)
H19 H 0.0183 0.4139 0.3030
C17 C 0.2978(7) 0.4054(4) 0.23761(16)
H20 H 0.3011 0.2980 0.2254
C18 C 0.4570(6) 0.4980(4) 0.21034(15)
H21 H 0.5689 0.4511 0.1791
H22 H 0.268(7) 0.880(4) 0.5048(15)
loop_
_geom_bond_atom_site_label_1
_geom_bond_atom_site_label_2
_geom_bond_site_symmetry_1
_geom_bond_site_symmetry_2
O1 C1 1_555 1_555
O2 C1 1_555 1_555
C1 C2 1_555 1_555
C2 H1 1_555 1_555
H2 C2 1_555 1_555
C3 C2 1_555 1_555
H3 C3 1_555 1_555
H4 C3 1_555 1_555
C4 C3 1_555 1_555
H5 C4 1_555 1_555
H6 C4 1_555 1_555
C5 C4 1_555 1_555
H7 C5 1_555 1_555
H8 C5 1_555 1_555
C6 C5 1_555 1_555
H9 C6 1_555 1_555
H10 C6 1_555 1_555
H11 O2 1_555 1_555
N1 C7 1_555 1_555
N2 C7 1_555 1_555
N3 C8 1_555 1_555
N4 C8 1_555 1_555
N5 C14 1_555 1_555
C7 C8 1_555 1_555
C9 N4 1_555 1_555
H12 C9 1_555 1_555
C10 N3 1_555 1_555
H13 C10 1_555 1_555
C11 N1 1_555 1_555
H14 C11 1_555 1_555
C12 N2 1_555 1_555
H15 C12 1_555 1_555
C13 N1 1_555 1_555
H16 C13 1_555 1_555
H17 C13 1_555 1_555
C14 C13 1_555 1_555
C15 C14 1_555 1_555
H18 C15 1_555 1_555
C16 C15 1_555 1_555
H19 C16 1_555 1_555
C17 C16 1_555 1_555
H20 C17 1_555 1_555
C18 N5 1_555 1_555
H21 C18 1_555 1_555
H22 N4 1_555 1_555
O1A C1A 1_555 1_555
O2A C1A 1_555 1_555
C1A C2A 1_555 1_555
C2A H1A 1_555 1_555
H2A C2A 1_555 1_555
C3A C2A 1_555 1_555
H3A C3A 1_555 1_555
H4A C3A 1_555 1_555
C4A C3A 1_555 1_555
H5A C4A 1_555 1_555
H6A C4A 1_555 1_555
C5A C4A 1_555 1_555
H7A C5A 1_555 1_555
H8A C5A 1_555 1_555
C6A C6 1_555 1_555
H9A C6A 1_555 1_555
H10A C6A 1_555 1_555
H11A O2A 1_555 1_555
C9 C10 1_555 1_555
C11 C12 1_555 1_555
C17 C18 1_555 1_555
C5A C6A 1_555 1_555

#END
