
#######################################################################
#
#                 Cambridge Crystallographic Data Centre
#                                CCDC 
#
#######################################################################
#
# If this CIF has been generated from an entry in the Cambridge 
# Structural Database, then it will include bibliographic, chemical, 
# crystal, experimental, refinement or atomic coordinate data resulting 
# from the CCDC's data processing and validation procedures.
#
#######################################################################

data_XECRIJ
_chemical_formula_moiety         'C12 H11 N5,C4 H6 O4'
_chemical_name_systematic        
"1-[(pyridin-4-yl)methyl]-1H,1'H-2,2'-bi-imidazole succinic acid"
_symmetry_cell_setting           triclinic
_symmetry_space_group_name_H-M   'P -1'
_symmetry_Int_Tables_number      2
_space_group_name_Hall           '-P 1'
loop_
_symmetry_equiv_pos_site_id
_symmetry_equiv_pos_as_xyz
1 x,y,z
2 -x,-y,-z
_cell_length_a                   4.8081(7)
_cell_length_b                   11.0210(17)
_cell_length_c                   14.819(2)
_cell_angle_alpha                97.881(6)
_cell_angle_beta                 91.543(6)
_cell_angle_gamma                90.181(6)
_cell_volume                     777.542
_exptl_crystal_colour            red
_exptl_crystal_description       plate
_cell_formula_units_Z            2
loop_
_atom_site_label
_atom_site_type_symbol
_atom_site_fract_x
_atom_site_fract_y
_atom_site_fract_z
N1 N 0.4700(2) 0.09565(10) 0.71934(8)
C1 C 0.4284(3) 0.16503(12) 0.65125(9)
N2 N 0.5916(3) 0.12862(10) 0.58231(8)
C2 C 0.7448(3) 0.03344(12) 0.60789(10)
H1 H 0.8811 -0.0108 0.5718
C3 C 0.6734(3) 0.01187(12) 0.69199(10)
H2 H 0.7483 -0.0487 0.7254
N3 N 0.1719(3) 0.31951(11) 0.57849(9)
H3 H 0.256(4) 0.3052(16) 0.5241(13)
C4 C 0.2295(3) 0.26350(12) 0.65269(10)
N4 N 0.0793(3) 0.30833(11) 0.72308(8)
C5 C -0.0827(3) 0.39608(13) 0.69145(11)
H4 H -0.2142 0.4447 0.7266
C6 C -0.0298(3) 0.40414(13) 0.60294(11)
H5 H -0.1153 0.4576 0.5656
N5 N 0.9058(3) 0.28626(11) 1.01270(8)
C7 C 0.8655(3) 0.16529(14) 1.00297(10)
H6 H 0.9667 0.1191 1.0423
C8 C 0.6837(3) 0.10390(13) 0.93847(10)
H7 H 0.6628 0.0175 0.9333
C9 C 0.5328(3) 0.17012(13) 0.88157(9)
C10 C 0.5700(3) 0.29626(14) 0.89219(10)
H8 H 0.4678 0.3449 0.8549
C11 C 0.7575(3) 0.34951(14) 0.95775(11)
H9 H 0.7829 0.4358 0.9643
C12 C 0.3399(3) 0.10534(13) 0.80839(10)
H10 H 0.2957 0.0224 0.8227
H11 H 0.1638 0.1513 0.8065
C13 C 0.6428(3) 0.25759(12) 0.38215(9)
O1 O 0.7681(2) 0.17970(9) 0.42823(7)
H12 H 0.677(4) 0.1677(16) 0.4888(13)
O2 O 0.4317(2) 0.31247(10) 0.40639(7)
C14 C 0.7921(3) 0.27508(13) 0.29713(10)
H13 H 0.8137 0.1941 0.2599
H14 H 0.9809 0.3077 0.3146
C15 C 0.6493(3) 0.36007(13) 0.23903(10)
H15 H 0.5679 0.4288 0.2797
H16 H 0.7912 0.3949 0.2025
C16 C 0.4232(3) 0.30113(12) 0.17530(9)
O3 O 0.2946(2) 0.38189(9) 0.13108(7)
H17 H 0.157(4) 0.3426(17) 0.0883(13)
O4 O 0.3673(2) 0.19275(9) 0.16447(7)
loop_
_geom_bond_atom_site_label_1
_geom_bond_atom_site_label_2
_geom_bond_site_symmetry_1
_geom_bond_site_symmetry_2
N1 C1 1_555 1_555
C1 N2 1_555 1_555
N2 C2 1_555 1_555
C2 H1 1_555 1_555
C3 N1 1_555 1_555
H2 C3 1_555 1_555
N3 H3 1_555 1_555
C4 C1 1_555 1_555
N4 C4 1_555 1_555
C5 N4 1_555 1_555
H4 C5 1_555 1_555
C6 N3 1_555 1_555
H5 C6 1_555 1_555
N5 C7 1_555 1_555
C7 H6 1_555 1_555
C8 C7 1_555 1_555
H7 C8 1_555 1_555
C9 C8 1_555 1_555
C10 C9 1_555 1_555
H8 C10 1_555 1_555
C11 N5 1_555 1_555
H9 C11 1_555 1_555
C12 N1 1_555 1_555
H10 C12 1_555 1_555
H11 C12 1_555 1_555
C13 O1 1_555 1_555
O1 H12 1_555 1_555
O2 C13 1_555 1_555
C14 C13 1_555 1_555
H13 C14 1_555 1_555
H14 C14 1_555 1_555
C15 C14 1_555 1_555
H15 C15 1_555 1_555
H16 C15 1_555 1_555
C16 C15 1_555 1_555
O3 C16 1_555 1_555
H17 O3 1_555 1_555
O4 C16 1_555 1_555
C2 C3 1_555 1_555
N3 C4 1_555 1_555
C5 C6 1_555 1_555
C9 C12 1_555 1_555
C10 C11 1_555 1_555

#END
