
#######################################################################
#
#                 Cambridge Crystallographic Data Centre
#                                CCDC 
#
#######################################################################
#
# If this CIF has been generated from an entry in the Cambridge 
# Structural Database, then it will include bibliographic, chemical, 
# crystal, experimental, refinement or atomic coordinate data resulting 
# from the CCDC's data processing and validation procedures.
#
#######################################################################

data_XECREF
_chemical_formula_moiety         'C12 H11 N5,C7 H6 O2'
_chemical_name_systematic        
"1-[(pyridin-4-yl)methyl]-1H,1'H-2,2'-bi-imidazole benzoic acid"
_symmetry_cell_setting           triclinic
_symmetry_space_group_name_H-M   'P -1'
_symmetry_Int_Tables_number      2
_space_group_name_Hall           '-P 1'
loop_
_symmetry_equiv_pos_site_id
_symmetry_equiv_pos_as_xyz
1 x,y,z
2 -x,-y,-z
_cell_length_a                   6.42690(10)
_cell_length_b                   9.9656(2)
_cell_length_c                   13.5194(3)
_cell_angle_alpha                96.6910(10)
_cell_angle_beta                 95.6860(10)
_cell_angle_gamma                100.6030(10)
_cell_volume                     838.842
_exptl_crystal_colour            violet
_exptl_crystal_description       Parallelepiped
_cell_formula_units_Z            2
loop_
_atom_site_label
_atom_site_type_symbol
_atom_site_fract_x
_atom_site_fract_y
_atom_site_fract_z
C1 C 0.33135(18) 0.51442(11) 0.13247(8)
N1 N 0.17008(15) 0.58037(10) 0.12737(7)
C2 C 0.21882(19) 0.68400(12) 0.20767(9)
H1 H 0.1341 0.7479 0.2232
C3 C 0.40742(19) 0.68020(12) 0.26101(9)
H2 H 0.4741 0.7389 0.3184
N2 N 0.48002(15) 0.57154(10) 0.21267(7)
C4 C 0.68852(18) 0.53968(12) 0.24042(9)
H3 H 0.7891 0.6254 0.2637
H4 H 0.7356 0.4966 0.1808
C5 C 0.69602(19) 0.44652(12) 0.32042(8)
C6 C 0.5179(2) 0.37805(13) 0.35677(9)
H5 H 0.3822 0.3892 0.333
C7 C 0.5448(2) 0.29253(13) 0.42923(9)
H6 H 0.4245 0.2472 0.4534
N3 N 0.73630(17) 0.27270(10) 0.46565(7)
C8 C 0.9079(2) 0.33901(12) 0.43021(9)
H7 H 1.0417 0.3256 0.4549
C9 C 0.89525(19) 0.42607(13) 0.35887(9)
H8 H 1.0185 0.4708 0.3366
C10 C 0.34542(18) 0.39479(11) 0.06280(8)
H9 H 0.082(3) 0.3788(16) -0.0344(12)
N4 N 0.19017(16) 0.34249(10) -0.01502(7)
C11 C 0.2482(2) 0.22860(12) -0.06345(9)
H10 H 0.1741 0.1707 -0.1198
C12 C 0.4362(2) 0.21773(12) -0.01226(9)
H11 H 0.5127 0.1495 -0.0288
N5 N 0.49741(16) 0.32139(10) 0.06726(7)
C13 C 0.03947(19) 0.00451(11) 0.68931(8)
C14 C -0.1242(2) -0.05238(12) 0.74143(9)
H12 H -0.2615 -0.0371 0.7261
C15 C -0.0826(2) -0.13184(13) 0.81623(10)
H13 H -0.1916 -0.1686 0.8515
C16 C 0.1210(2) -0.15626(12) 0.83832(9)
H14 H 0.1483 -0.2101 0.888
C17 C 0.2844(2) -0.10022(12) 0.78629(9)
H15 H 0.4211 -0.1167 0.8012
C18 C 0.24433(19) -0.01983(12) 0.71217(9)
H16 H 0.3542 0.0179 0.6777
C19 C -0.00142(19) 0.09565(11) 0.61203(8)
H17 H -0.230(3) 0.162(2) 0.5457(16)
O1 O -0.20454(14) 0.09776(9) 0.58985(6)
O2 O 0.14294(14) 0.16378(9) 0.57624(6)
loop_
_geom_bond_atom_site_label_1
_geom_bond_atom_site_label_2
_geom_bond_site_symmetry_1
_geom_bond_site_symmetry_2
C1 N1 1_555 1_555
N1 C2 1_555 1_555
C2 H1 1_555 1_555
C3 C2 1_555 1_555
H2 C3 1_555 1_555
N2 C1 1_555 1_555
C4 N2 1_555 1_555
H3 C4 1_555 1_555
H4 C4 1_555 1_555
C5 C4 1_555 1_555
C6 C5 1_555 1_555
H5 C6 1_555 1_555
C7 C6 1_555 1_555
H6 C7 1_555 1_555
N3 C7 1_555 1_555
C8 N3 1_555 1_555
H7 C8 1_555 1_555
C9 C5 1_555 1_555
H8 C9 1_555 1_555
C10 C1 1_555 1_555
H9 N4 1_555 1_555
N4 C10 1_555 1_555
C11 N4 1_555 1_555
H10 C11 1_555 1_555
C12 C11 1_555 1_555
H11 C12 1_555 1_555
N5 C10 1_555 1_555
C13 C14 1_555 1_555
C14 H12 1_555 1_555
C15 C14 1_555 1_555
H13 C15 1_555 1_555
C16 C15 1_555 1_555
H14 C16 1_555 1_555
C17 C16 1_555 1_555
H15 C17 1_555 1_555
C18 C13 1_555 1_555
H16 C18 1_555 1_555
C19 C13 1_555 1_555
H17 O1 1_555 1_555
O1 C19 1_555 1_555
O2 C19 1_555 1_555
C3 N2 1_555 1_555
C8 C9 1_555 1_555
C12 N5 1_555 1_555
C17 C18 1_555 1_555

#END
