
#######################################################################
#
#                 Cambridge Crystallographic Data Centre
#                                CCDC 
#
#######################################################################
#
# If this CIF has been generated from an entry in the Cambridge 
# Structural Database, then it will include bibliographic, chemical, 
# crystal, experimental, refinement or atomic coordinate data resulting 
# from the CCDC's data processing and validation procedures.
#
#######################################################################

data_XECVIN
_chemical_formula_moiety         'C22 H20 O4 S2'
_chemical_name_systematic        
1-methyl-4-((2-((4-methylphenyl)sulfonyl)-1-phenylvinyl)sulfonyl)benzene
_symmetry_cell_setting           orthorhombic
_symmetry_space_group_name_H-M   'P 21 21 21'
_symmetry_Int_Tables_number      19
_space_group_name_Hall           'P 2ac 2ab'
loop_
_symmetry_equiv_pos_site_id
_symmetry_equiv_pos_as_xyz
1 x,y,z
2 1/2-x,-y,1/2+z
3 1/2+x,1/2-y,-z
4 -x,1/2+y,1/2-z
_cell_length_a                   6.8674(3)
_cell_length_b                   13.0958(6)
_cell_length_c                   22.6828(11)
_cell_angle_alpha                90
_cell_angle_beta                 90
_cell_angle_gamma                90
_cell_volume                     2039.96
_exptl_crystal_colour            colorless
_exptl_crystal_description       block
_cell_formula_units_Z            4
loop_
_atom_site_label
_atom_site_type_symbol
_atom_site_fract_x
_atom_site_fract_y
_atom_site_fract_z
S1 S -0.99560(7) -0.61306(3) -0.144888(18)
S2 S -0.90164(8) -0.63691(3) 0.045298(18)
O1 O -0.9095(3) -0.51555(10) -0.15648(6)
C1 C -0.6357(4) -0.85333(17) -0.23757(9)
O2 O -0.7109(2) -0.63429(12) 0.07097(7)
O3 O -1.0058(3) -0.73155(10) 0.04322(7)
C2 C -0.8800(3) -0.58983(11) -0.02917(7)
C3 C -1.0470(3) -0.54424(14) 0.08008(7)
O4 O -1.1964(2) -0.62969(13) -0.15981(7)
C4 C -0.7485(3) -0.50084(12) -0.03807(7)
C5 C -0.9786(3) -0.64244(13) -0.06906(7)
H1 H -1.0450 -0.7001 -0.0560
C6 C -0.8126(4) -0.40196(14) -0.02798(10)
H2 H -0.9383 -0.3902 -0.0144
C7 C -0.8555(3) -0.70811(13) -0.17876(7)
C8 C -0.9432(3) -0.79725(15) -0.19841(9)
H3 H -1.0749 -0.8090 -0.1916
C9 C -0.5595(3) -0.51750(14) -0.05666(8)
H4 H -0.5153 -0.5839 -0.0625
C10 C -0.6582(3) -0.69205(16) -0.18692(9)
H5 H -0.5993 -0.6329 -0.1729
C11 C -0.9630(3) -0.47255(17) 0.11668(9)
H6 H -0.8296 -0.4731 0.1236
C12 C -1.2794(4) -0.3975(2) 0.13255(11)
C13 C -0.8317(4) -0.86842(16) -0.22831(10)
H7 H -0.8903 -0.9276 -0.2424
C14 C -1.3578(4) -0.4695(2) 0.09496(12)
H8 H -1.4905 -0.4674 0.0868
C15 C -1.0813(4) -0.39972(19) 0.14288(11)
H9 H -1.0261 -0.3515 0.1679
C16 C -0.5010(4) -0.33741(16) -0.05785(11)
H10 H -0.4186 -0.2825 -0.0651
C17 C -0.5507(3) -0.76467(18) -0.21592(10)
H11 H -0.4179 -0.7543 -0.2212
C18 C -1.4060(6) -0.3178(3) 0.16175(19)
H12 H -1.5335 -0.3191 0.1444
H13 H -1.3492 -0.2515 0.1562
H14 H -1.4157 -0.3322 0.2031
C19 C -0.6878(5) -0.32065(15) -0.03835(12)
H15 H -0.7308 -0.2542 -0.0320
C20 C -1.2460(4) -0.54395(19) 0.06921(10)
H16 H -1.3023 -0.5931 0.0450
C21 C -0.5142(5) -0.9308(2) -0.27000(12)
H17 H -0.5731 -0.9970 -0.2664
H18 H -0.3857 -0.9325 -0.2534
H19 H -0.5064 -0.9123 -0.3109
C22 C -0.4359(3) -0.43602(18) -0.06662(10)
H20 H -0.3090 -0.4476 -0.0792
loop_
_geom_bond_atom_site_label_1
_geom_bond_atom_site_label_2
_geom_bond_site_symmetry_1
_geom_bond_site_symmetry_2
S1 O1 1_555 1_555
S2 O2 1_555 1_555
C1 C13 1_555 1_555
O3 S2 1_555 1_555
C2 S2 1_555 1_555
C3 S2 1_555 1_555
O4 S1 1_555 1_555
C4 C2 1_555 1_555
C5 S1 1_555 1_555
H1 C5 1_555 1_555
C6 C4 1_555 1_555
H2 C6 1_555 1_555
C7 S1 1_555 1_555
C8 C7 1_555 1_555
H3 C8 1_555 1_555
C9 C4 1_555 1_555
H4 C9 1_555 1_555
C10 C7 1_555 1_555
H5 C10 1_555 1_555
C11 C3 1_555 1_555
H6 C11 1_555 1_555
C12 C14 1_555 1_555
C13 C8 1_555 1_555
H7 C13 1_555 1_555
C14 H8 1_555 1_555
C15 C11 1_555 1_555
H9 C15 1_555 1_555
C16 H10 1_555 1_555
C17 C1 1_555 1_555
H11 C17 1_555 1_555
C18 C12 1_555 1_555
H12 C18 1_555 1_555
H13 C18 1_555 1_555
H14 C18 1_555 1_555
C19 C6 1_555 1_555
H15 C19 1_555 1_555
C20 C3 1_555 1_555
H16 C20 1_555 1_555
C21 C1 1_555 1_555
H17 C21 1_555 1_555
H18 C21 1_555 1_555
H19 C21 1_555 1_555
C22 C9 1_555 1_555
H20 C22 1_555 1_555
C2 C5 1_555 1_555
C10 C17 1_555 1_555
C12 C15 1_555 1_555
C14 C20 1_555 1_555
C16 C19 1_555 1_555
C16 C22 1_555 1_555

#END
