
#######################################################################
#
#                 Cambridge Crystallographic Data Centre
#                                CCDC 
#
#######################################################################
#
# If this CIF has been generated from an entry in the Cambridge 
# Structural Database, then it will include bibliographic, chemical, 
# crystal, experimental, refinement or atomic coordinate data resulting 
# from the CCDC's data processing and validation procedures.
#
#######################################################################

data_XECYIQ
_chemical_formula_moiety         'C12 H11 N5'
_chemical_name_systematic        
1-((pyridin-3-yl)methyl)-1H,1'H-2,2'-biimidazole
_symmetry_cell_setting           triclinic
_symmetry_space_group_name_H-M   'P -1'
_symmetry_Int_Tables_number      2
_space_group_name_Hall           '-P 1'
loop_
_symmetry_equiv_pos_site_id
_symmetry_equiv_pos_as_xyz
1 x,y,z
2 -x,-y,-z
_cell_length_a                   5.493(2)
_cell_length_b                   10.339(4)
_cell_length_c                   10.611(4)
_cell_angle_alpha                112.83(2)
_cell_angle_beta                 99.24(3)
_cell_angle_gamma                94.16(3)
_cell_volume                     542.149
_exptl_crystal_colour            colorless
_exptl_crystal_description       Block
_cell_formula_units_Z            2
loop_
_atom_site_label
_atom_site_type_symbol
_atom_site_fract_x
_atom_site_fract_y
_atom_site_fract_z
N1 N 0.1271(6) 0.8504(3) 0.3589(3)
C1 C 0.1271(7) 0.7446(4) 0.2374(4)
H1 H -0.109(8) 0.546(5) 0.122(5)
N2 N -0.0482(7) 0.6320(4) 0.2075(4)
C2 C -0.1685(9) 0.6684(4) 0.3176(4)
H2 H -0.3019 0.6119 0.3279
C3 C -0.0586(8) 0.8014(4) 0.4091(4)
H3 H -0.104 0.8531 0.4956
N3 N 0.4742(6) 0.8521(4) 0.1684(3)
C4 C 0.2892(7) 0.7438(4) 0.1421(4)
N4 N 0.2760(7) 0.6379(4) 0.0183(3)
C5 C 0.4589(8) 0.6818(6) -0.0363(5)
H4 H 0.4942 0.6284 -0.1253
C6 C 0.5814(8) 0.8101(6) 0.0524(5)
H5 H 0.7163 0.8621 0.0382
C7 C 0.5511(7) 0.9878(4) 0.2894(4)
H6 H 0.7291 1.0205 0.2976
H7 H 0.5357 0.9732 0.3748
C8 C 0.4013(7) 1.1023(5) 0.2824(4)
C9 C 0.4770(8) 1.2419(5) 0.3767(5)
H8 H 0.6277 1.2636 0.4438
N5 N 0.3470(10) 1.3501(6) 0.3787(7)
C10 C 0.1234(12) 1.3028(12) 0.2723(13)
H9 H 0.022 1.3723 0.2682
C11 C 0.0453(10) 1.1687(9) 0.1780(10)
H10 H -0.1033 1.1449 0.109
C12 C 0.1812(9) 1.0728(7) 0.1850(6)
H11 H 0.1266 0.9774 0.1199
loop_
_geom_bond_atom_site_label_1
_geom_bond_atom_site_label_2
_geom_bond_site_symmetry_1
_geom_bond_site_symmetry_2
N1 C1 1_555 1_555
C1 N2 1_555 1_555
H1 N2 1_555 1_555
N2 C2 1_555 1_555
C2 H2 1_555 1_555
C3 N1 1_555 1_555
H3 C3 1_555 1_555
N3 C4 1_555 1_555
C4 C1 1_555 1_555
N4 C4 1_555 1_555
C5 N4 1_555 1_555
H4 C5 1_555 1_555
C6 N3 1_555 1_555
H5 C6 1_555 1_555
C7 N3 1_555 1_555
H6 C7 1_555 1_555
H7 C7 1_555 1_555
C8 C7 1_555 1_555
C9 C8 1_555 1_555
H8 C9 1_555 1_555
N5 C9 1_555 1_555
C10 N5 1_555 1_555
H9 C10 1_555 1_555
C11 C10 1_555 1_555
H10 C11 1_555 1_555
C12 C8 1_555 1_555
H11 C12 1_555 1_555
C2 C3 1_555 1_555
C5 C6 1_555 1_555
C11 C12 1_555 1_555

#END
