
#######################################################################
#
#                 Cambridge Crystallographic Data Centre
#                                CCDC 
#
#######################################################################
#
# If this CIF has been generated from an entry in the Cambridge 
# Structural Database, then it will include bibliographic, chemical, 
# crystal, experimental, refinement or atomic coordinate data resulting 
# from the CCDC's data processing and validation procedures.
#
#######################################################################

data_XEDDES
_chemical_formula_moiety         'C30 H28 Br1 N1 O2'
_chemical_name_systematic        
'3-{2-[1-(4-bromophenyl)-3-oxo-3-phenylpropyl]-4-methylcyclohexylidene}-1,3-dihydro-2H-indol-2-one unknown solvate'
_symmetry_cell_setting           monoclinic
_symmetry_space_group_name_H-M   'C 2'
_symmetry_Int_Tables_number      5
_space_group_name_Hall           'C 2y'
loop_
_symmetry_equiv_pos_site_id
_symmetry_equiv_pos_as_xyz
1 x,y,z
2 -x,y,-z
3 1/2+x,1/2+y,z
4 1/2-x,1/2+y,-z
_cell_length_a                   20.4694(6)
_cell_length_b                   29.3171(7)
_cell_length_c                   9.33198(18)
_cell_angle_alpha                90
_cell_angle_beta                 90.778(2)
_cell_angle_gamma                90
_cell_volume                     5599.64
_exptl_crystal_colour            yellow
_exptl_crystal_description       prism
_cell_formula_units_Z            8
loop_
_atom_site_label
_atom_site_type_symbol
_atom_site_fract_x
_atom_site_fract_y
_atom_site_fract_z
Br1 Br 0.82952(8) 0.21538(5) 0.2077(2)
O1 O 0.6256(3) 0.4592(2) -0.0047(6)
O2 O 0.6617(3) 0.4477(2) 0.5418(6)
N1 N 0.6272(3) 0.5220(2) 0.5113(7)
H1 H 0.6511 0.5340 0.5776
C1 C 0.6650(3) 0.4677(3) 0.0906(7)
C2 C 0.5497(3) 0.5154(3) 0.3368(7)
C3 C 0.5760(3) 0.4691(3) 0.3648(6)
C4 C 0.6945(3) 0.4308(2) 0.1771(7)
H2 H 0.7023 0.4422 0.2733
H3 H 0.7366 0.4233 0.1369
C5 C 0.6977(4) 0.3456(3) 0.1948(7)
C6 C 0.6541(3) 0.3867(2) 0.1874(6)
H4 H 0.6279 0.3843 0.0991
C7 C 0.6268(3) 0.4771(3) 0.4803(7)
C8 C 0.6844(3) 0.5168(3) 0.1157(8)
C9 C 0.5620(3) 0.4293(3) 0.3027(6)
C10 C 0.6955(5) 0.3127(3) 0.0856(9)
H5 H 0.6664 0.3167 0.0093
C11 C 0.5845(3) 0.5466(3) 0.4239(8)
C12 C 0.7410(4) 0.3381(3) 0.3059(8)
H6 H 0.7436 0.3594 0.3794
C13 C 0.6060(3) 0.3884(3) 0.3144(6)
H7 H 0.6319 0.3916 0.4028
C14 C 0.5767(4) 0.5921(4) 0.4139(12)
H8 H 0.6006 0.6116 0.4733
C15 C 0.5676(4) 0.3436(3) 0.3240(7)
H9 H 0.5978 0.3182 0.3176
H10 H 0.5466 0.3420 0.4164
C16 C 0.5030(4) 0.4249(3) 0.2056(8)
H11 H 0.5162 0.4299 0.1074
H12 H 0.4718 0.4485 0.2298
C17 C 0.7291(4) 0.5284(3) 0.2237(9)
H13 H 0.7496 0.5060 0.2787
C18 C 0.4695(4) 0.3782(4) 0.2160(9)
H14 H 0.4471 0.3762 0.3067
H15 H 0.4369 0.3757 0.1399
C19 C 0.5157(5) 0.3393(4) 0.2051(8)
H16 H 0.5376 0.3414 0.1126
C20 C 0.5063(4) 0.5341(4) 0.2335(10)
H17 H 0.4830 0.5151 0.1715
C21 C 0.7345(6) 0.2751(3) 0.0874(11)
H18 H 0.7323 0.2543 0.0123
C22 C 0.6741(5) 0.5948(4) 0.0554(14)
H19 H 0.6557 0.6174 -0.0023
C23 C 0.6589(4) 0.5505(3) 0.0303(11)
H20 H 0.6311 0.5429 -0.0456
C24 C 0.7161(5) 0.6068(4) 0.1645(12)
H21 H 0.7263 0.6373 0.1811
C25 C 0.7801(5) 0.3007(4) 0.3128(11)
H22 H 0.8087 0.2963 0.3899
C26 C 0.7764(5) 0.2680(3) 0.1989(12)
C27 C 0.4824(7) 0.2928(5) 0.2140(14)
H23 H 0.5060 0.2738 0.2806
H24 H 0.4820 0.2788 0.1211
H25 H 0.4384 0.2967 0.2459
C28 C 0.5326(5) 0.6095(4) 0.3140(13)
H26 H 0.5260 0.6408 0.3071
C29 C 0.7421(5) 0.5740(4) 0.2469(11)
H27 H 0.7700 0.5822 0.3221
C30 C 0.4988(5) 0.5805(4) 0.2255(13)
H28 H 0.4698 0.5925 0.1579
Br2 Br 0.79524(15) 0.78421(5) 0.33374(16)
O3 O 0.7386(2) 0.54901(17) 0.6824(5)
O4 O 0.9840(3) 0.5454(2) 0.6970(7)
N2 N 0.7512(3) 0.47521(19) 0.7534(5)
H29 H 0.7202 0.4638 0.7018
C31 C 0.8397(2) 0.6078(2) 0.8066(6)
H30 H 0.7951 0.6051 0.7678
C32 C 0.7666(3) 0.5200(2) 0.7542(6)
C33 C 0.8550(3) 0.5641(2) 0.8865(6)
C34 C 0.8229(3) 0.5252(2) 0.8595(6)
C35 C 0.8860(3) 0.6157(2) 0.6775(6)
H31 H 0.9299 0.6218 0.7163
C36 C 0.8412(3) 0.6495(2) 0.9062(6)
H32 H 0.8382 0.6769 0.8482
H33 H 0.8031 0.6486 0.9667
C37 C 0.8645(4) 0.6568(2) 0.5941(7)
C38 C 0.8349(3) 0.4783(2) 0.9141(6)
C39 C 0.7900(3) 0.4500(2) 0.8429(6)
C40 C 0.9025(3) 0.6526(2) 1.0022(7)
H34 H 0.9408 0.6554 0.9409
C41 C 0.8783(5) 0.4116(3) 1.0288(10)
H35 H 0.9076 0.3984 1.0936
C42 C 0.8907(3) 0.5744(2) 0.5765(7)
H36 H 0.8473 0.5617 0.5626
H37 H 0.9056 0.5849 0.4840
C43 C 0.9208(3) 0.4889(3) 0.5845(7)
C44 C 0.9354(3) 0.5371(3) 0.6277(7)
C45 C 0.8793(4) 0.4580(3) 1.0064(9)
H38 H 0.9102 0.4758 1.0542
C46 C 0.9087(3) 0.6097(3) 1.0880(7)
H39 H 0.8727 0.6079 1.1541
H40 H 0.9490 0.6108 1.1440
C47 C 0.8240(11) 0.7327(4) 0.4421(12)
C48 C 0.8667(5) 0.4337(4) 0.4377(14)
H41 H 0.8395 0.4267 0.3602
C49 C 0.8783(4) 0.4788(3) 0.4720(10)
H42 H 0.8579 0.5021 0.4205
C50 C 0.8939(6) 0.3998(4) 0.5137(16)
H43 H 0.8841 0.3697 0.4910
C51 C 0.8009(5) 0.6595(3) 0.5335(9)
H44 H 0.7720 0.6354 0.5470
C52 C 0.9505(4) 0.4535(3) 0.6579(10)
H45 H 0.9806 0.4599 0.7307
C53 C 0.9090(3) 0.5672(2) 0.9952(9)
H46 H 0.9503 0.5658 0.9457
H47 H 0.9067 0.5407 1.0573
C54 C 0.9362(6) 0.4092(3) 0.6244(13)
H48 H 0.9550 0.3856 0.6769
C55 C 0.8338(6) 0.3845(3) 0.9549(11)
H49 H 0.8339 0.3531 0.9694
C56 C 0.7904(4) 0.4032(3) 0.8620(9)
H50 H 0.7611 0.3848 0.8115
C57 C 0.9040(6) 0.6941(3) 0.5723(9)
H51 H 0.9463 0.6930 0.6096
C58 C 0.7810(7) 0.6960(4) 0.4566(10)
H52 H 0.7396 0.6967 0.4142
C59 C 0.9000(5) 0.6940(3) 1.0997(11)
H53 H 0.9078 0.7211 1.0448
H54 H 0.9330 0.6912 1.1734
H55 H 0.8578 0.6958 1.1428
C60 C 0.8854(12) 0.7322(4) 0.4998(14)
H56 H 0.9134 0.7569 0.4901
loop_
_geom_bond_atom_site_label_1
_geom_bond_atom_site_label_2
_geom_bond_site_symmetry_1
_geom_bond_site_symmetry_2
Br1 C26 1_555 1_555
O1 C1 1_555 1_555
O2 C7 1_555 1_555
N1 H1 1_555 1_555
C1 C4 1_555 1_555
C2 C3 1_555 1_555
C3 C7 1_555 1_555
C4 H2 1_555 1_555
H3 C4 1_555 1_555
C5 C6 1_555 1_555
C6 C4 1_555 1_555
H4 C6 1_555 1_555
C7 N1 1_555 1_555
C8 C1 1_555 1_555
C9 C3 1_555 1_555
C10 C5 1_555 1_555
H5 C10 1_555 1_555
C11 N1 1_555 1_555
C12 C5 1_555 1_555
H6 C12 1_555 1_555
C13 C6 1_555 1_555
H7 C13 1_555 1_555
C14 C11 1_555 1_555
H8 C14 1_555 1_555
C15 C13 1_555 1_555
H9 C15 1_555 1_555
H10 C15 1_555 1_555
C16 C9 1_555 1_555
H11 C16 1_555 1_555
H12 C16 1_555 1_555
C17 C8 1_555 1_555
H13 C17 1_555 1_555
C18 C16 1_555 1_555
H14 C18 1_555 1_555
H15 C18 1_555 1_555
C19 C15 1_555 1_555
H16 C19 1_555 1_555
C20 C2 1_555 1_555
H17 C20 1_555 1_555
C21 C10 1_555 1_555
H18 C21 1_555 1_555
C22 H19 1_555 1_555
C23 C8 1_555 1_555
H20 C23 1_555 1_555
C24 C22 1_555 1_555
H21 C24 1_555 1_555
C25 C12 1_555 1_555
H22 C25 1_555 1_555
C26 C21 1_555 1_555
C27 C19 1_555 1_555
H23 C27 1_555 1_555
H24 C27 1_555 1_555
H25 C27 1_555 1_555
C28 C14 1_555 1_555
H26 C28 1_555 1_555
C29 C17 1_555 1_555
H27 C29 1_555 1_555
C30 C20 1_555 1_555
H28 C30 1_555 1_555
Br2 C47 1_555 1_555
O3 C32 1_555 1_555
O4 C44 1_555 1_555
N2 H29 1_555 1_555
C31 H30 1_555 1_555
C32 N2 1_555 1_555
C33 C31 1_555 1_555
C34 C32 1_555 1_555
C35 C31 1_555 1_555
H31 C35 1_555 1_555
C36 C31 1_555 1_555
H32 C36 1_555 1_555
H33 C36 1_555 1_555
C37 C35 1_555 1_555
C38 C34 1_555 1_555
C39 N2 1_555 1_555
C40 C36 1_555 1_555
H34 C40 1_555 1_555
C41 H35 1_555 1_555
C42 C35 1_555 1_555
H36 C42 1_555 1_555
H37 C42 1_555 1_555
C43 C44 1_555 1_555
C44 C42 1_555 1_555
C45 C38 1_555 1_555
H38 C45 1_555 1_555
C46 C40 1_555 1_555
H39 C46 1_555 1_555
H40 C46 1_555 1_555
C47 C58 1_555 1_555
C48 H41 1_555 1_555
C49 C43 1_555 1_555
H42 C49 1_555 1_555
C50 C48 1_555 1_555
H43 C50 1_555 1_555
C51 C37 1_555 1_555
H44 C51 1_555 1_555
C52 C43 1_555 1_555
H45 C52 1_555 1_555
C53 C33 1_555 1_555
H46 C53 1_555 1_555
H47 C53 1_555 1_555
C54 C50 1_555 1_555
H48 C54 1_555 1_555
C55 C41 1_555 1_555
H49 C55 1_555 1_555
C56 C39 1_555 1_555
H50 C56 1_555 1_555
C57 C37 1_555 1_555
H51 C57 1_555 1_555
C58 C51 1_555 1_555
H52 C58 1_555 1_555
C59 C40 1_555 1_555
H53 C59 1_555 1_555
H54 C59 1_555 1_555
H55 C59 1_555 1_555
C60 C47 1_555 1_555
H56 C60 1_555 1_555
C2 C11 1_555 1_555
C9 C13 1_555 1_555
C18 C19 1_555 1_555
C22 C23 1_555 1_555
C24 C29 1_555 1_555
C25 C26 1_555 1_555
C28 C30 1_555 1_555
C33 C34 1_555 1_555
C38 C39 1_555 1_555
C41 C45 1_555 1_555
C46 C53 1_555 1_555
C48 C49 1_555 1_555
C52 C54 1_555 1_555
C55 C56 1_555 1_555
C57 C60 1_555 1_555

#END
