
#######################################################################
#
#                 Cambridge Crystallographic Data Centre
#                                CCDC 
#
#######################################################################
#
# If this CIF has been generated from an entry in the Cambridge 
# Structural Database, then it will include bibliographic, chemical, 
# crystal, experimental, refinement or atomic coordinate data resulting 
# from the CCDC's data processing and validation procedures.
#
#######################################################################

data_XEDLIE
_chemical_formula_moiety         'C9 H17 N3 2+,2(Cl1 1-)'
_chemical_name_systematic        
'pyridine-2,6-diylbis(N-methylmethanaminium) dichloride'
_symmetry_cell_setting           orthorhombic
_symmetry_space_group_name_H-M   'P 21 21 21'
_symmetry_Int_Tables_number      19
_space_group_name_Hall           'P 2ac 2ab'
loop_
_symmetry_equiv_pos_site_id
_symmetry_equiv_pos_as_xyz
1 x,y,z
2 1/2-x,-y,1/2+z
3 -x,1/2+y,1/2-z
4 1/2+x,1/2-y,-z
_cell_length_a                   9.439(5)
_cell_length_b                   10.181(5)
_cell_length_c                   13.024(7)
_cell_angle_alpha                90
_cell_angle_beta                 90
_cell_angle_gamma                90
_cell_volume                     1251.59
_exptl_crystal_colour            colorless
_exptl_crystal_description       prism
_cell_formula_units_Z            4
loop_
_atom_site_label
_atom_site_type_symbol
_atom_site_fract_x
_atom_site_fract_y
_atom_site_fract_z
Cl1 Cl 0.89490(5) 0.24528(5) 0.96202(4)
Cl2 Cl 0.92495(5) 0.73573(5) 0.85754(4)
N1 N 0.41057(18) 0.96490(16) 0.89338(13)
C1 C 0.5346(2) 0.90439(19) 0.88481(16)
N2 N 0.58340(18) 0.99612(17) 1.05454(13)
H1 H 0.520(2) 1.070(2) 1.0417(16)
H2 H 0.517(3) 0.919(3) 1.0846(19)
C2 C 0.5607(2) 0.8084(2) 0.81272(17)
H3 H 0.6517 0.7694 0.8067
N3 N 0.1552(2) 1.06183(18) 0.94436(18)
H4 H 0.234(3) 1.112(3) 0.960(2)
H5 H 0.079(3) 1.126(2) 0.944(2)
C3 C 0.4513(3) 0.7709(3) 0.74990(19)
H6 H 0.4654 0.7043 0.6998
C4 C 0.3210(3) 0.8301(3) 0.75970(18)
H7 H 0.2434 0.8041 0.7179
C5 C 0.3062(2) 0.9276(2) 0.83145(16)
C6 C 0.6484(2) 0.9480(2) 0.95878(19)
H8 H 0.7122 0.8734 0.9742
H9 H 0.7055 1.0189 0.9272
C7 C 0.6876(3) 1.0325(3) 1.1345(2)
H10 H 0.6375 1.0624 1.1961
H11 H 0.7484 1.1033 1.1089
H12 H 0.7459 0.9559 1.1515
C8 C 0.1699(2) 1.0027(2) 0.8413(2)
H13 H 0.1671 1.0729 0.7888
H14 H 0.0892 0.9427 0.8285
C9 C 0.1259(3) 0.9649(2) 1.0270(2)
H15 H 0.1179 1.0107 1.0929
H16 H 0.2036 0.9012 1.0303
H17 H 0.0370 0.9190 1.0121
loop_
_geom_bond_atom_site_label_1
_geom_bond_atom_site_label_2
_geom_bond_site_symmetry_1
_geom_bond_site_symmetry_2
N1 C1 1_555 1_555
C1 C2 1_555 1_555
N2 H1 1_555 1_555
H2 N2 1_555 1_555
C2 H3 1_555 1_555
N3 H4 1_555 1_555
H5 N3 1_555 1_555
C3 C2 1_555 1_555
H6 C3 1_555 1_555
C4 C3 1_555 1_555
H7 C4 1_555 1_555
C5 N1 1_555 1_555
C6 C1 1_555 1_555
H8 C6 1_555 1_555
H9 C6 1_555 1_555
C7 N2 1_555 1_555
H10 C7 1_555 1_555
H11 C7 1_555 1_555
H12 C7 1_555 1_555
C8 N3 1_555 1_555
H13 C8 1_555 1_555
H14 C8 1_555 1_555
C9 N3 1_555 1_555
H15 C9 1_555 1_555
H16 C9 1_555 1_555
H17 C9 1_555 1_555
N2 C6 1_555 1_555
C4 C5 1_555 1_555
C5 C8 1_555 1_555

#END
