
#######################################################################
#
#                 Cambridge Crystallographic Data Centre
#                                CCDC 
#
#######################################################################
#
# If this CIF has been generated from an entry in the Cambridge 
# Structural Database, then it will include bibliographic, chemical, 
# crystal, experimental, refinement or atomic coordinate data resulting 
# from the CCDC's data processing and validation procedures.
#
#######################################################################

data_XEDMIF
_chemical_formula_moiety         'C29 H22 N2 O3'
_chemical_name_systematic        
(7-methyl-1,3-diphenyl-5H-pyrrolo[1,2-a]azepin-8-yl)(4-nitrophenyl)methanone
_symmetry_cell_setting           triclinic
_symmetry_space_group_name_H-M   'P -1'
_symmetry_Int_Tables_number      2
_space_group_name_Hall           '-P 1'
loop_
_symmetry_equiv_pos_site_id
_symmetry_equiv_pos_as_xyz
1 x,y,z
2 -x,-y,-z
_cell_length_a                   10.396(3)
_cell_length_b                   12.966(4)
_cell_length_c                   16.944(5)
_cell_angle_alpha                81.864(6)
_cell_angle_beta                 89.495(5)
_cell_angle_gamma                89.905(5)
_cell_volume                     2260.88
_exptl_crystal_colour            red
_exptl_crystal_description       block
_cell_formula_units_Z            4
loop_
_atom_site_label
_atom_site_type_symbol
_atom_site_fract_x
_atom_site_fract_y
_atom_site_fract_z
O1 O 0.9860(2) 1.0242(2) 0.65668(19)
O2 O 0.8924(5) 0.4985(3) 0.7754(4)
O3 O 0.7955(7) 0.4932(4) 0.6671(4)
N1 N 0.5026(3) 1.1574(2) 0.61596(18)
N2 N 0.8495(5) 0.5397(4) 0.7129(4)
C1 C 0.6023(3) 1.2250(3) 0.6408(3)
H1 H 0.6314 1.1972 0.6938
H2 H 0.5669 1.2939 0.6429
C2 C 0.7143(4) 1.2329(3) 0.5835(3)
H3 H 0.7306 1.2969 0.5527
C3 C 0.7909(3) 1.1537(3) 0.5744(2)
C4 C 0.7694(3) 1.0478(3) 0.6183(2)
C5 C 0.6509(3) 1.0070(3) 0.6354(2)
H4 H 0.6514 0.9381 0.6599
C6 C 0.5261(3) 1.0503(3) 0.6227(2)
C7 C 0.4077(3) 1.0000(3) 0.6194(2)
C8 C 0.3139(3) 1.0781(3) 0.6106(2)
H5 H 0.2260 1.0669 0.6069
C9 C 0.3721(3) 1.1755(3) 0.6082(2)
C10 C 0.3088(3) 1.2764(3) 0.5953(2)
C11 C 0.3675(4) 1.3650(3) 0.5569(3)
H6 H 0.4535 1.3622 0.5416
C12 C 0.3012(5) 1.4583(4) 0.5405(3)
H7 H 0.3426 1.5174 0.5149
C13 C 0.1738(5) 1.4631(4) 0.5625(3)
H8 H 0.1283 1.5252 0.5510
C14 C 0.1152(5) 1.3769(4) 0.6009(3)
H9 H 0.0293 1.3804 0.6159
C15 C 0.1809(4) 1.2838(4) 0.6182(2)
H10 H 0.1392 1.2258 0.6453
C16 C 0.8998(4) 1.1664(4) 0.5139(3)
H11 H 0.8948 1.2341 0.4827
H12 H 0.8930 1.1139 0.4795
H13 H 0.9806 1.1593 0.5411
C17 C 0.8828(3) 0.9844(3) 0.6445(2)
C18 C 0.8725(3) 0.8675(3) 0.6608(2)
C19 C 0.8186(4) 0.8094(3) 0.6073(3)
H14 H 0.7851 0.8434 0.5599
C20 C 0.8132(4) 0.7030(4) 0.6223(3)
H15 H 0.7791 0.6649 0.5850
C21 C 0.8591(4) 0.6535(3) 0.6939(3)
C22 C 0.9160(4) 0.7079(4) 0.7485(3)
H16 H 0.9482 0.6733 0.7960
C23 C 0.9241(4) 0.8151(3) 0.7309(2)
H17 H 0.9646 0.8528 0.7664
C24 C 0.3863(3) 0.8873(3) 0.6281(2)
C25 C 0.2799(4) 0.8450(3) 0.6713(3)
H18 H 0.2214 0.8891 0.6914
C26 C 0.2596(4) 0.7390(4) 0.6848(3)
H19 H 0.1877 0.7122 0.7136
C27 C 0.3453(5) 0.6730(4) 0.6558(3)
H20 H 0.3326 0.6013 0.6656
C28 C 0.4500(5) 0.7134(4) 0.6121(3)
H21 H 0.5082 0.6687 0.5922
C29 C 0.4700(4) 0.8201(3) 0.5974(2)
H22 H 0.5402 0.8465 0.5667
O4 O 0.5093(2) 1.0234(2) 0.8310(2)
O5 O 0.6149(5) 0.4904(3) 0.8653(4)
O6 O 0.6478(4) 0.4985(3) 0.9913(4)
N3 N 0.9967(3) 1.1407(2) 0.83833(18)
N4 N 0.6281(4) 0.5373(4) 0.9220(4)
C30 C 0.9004(3) 1.2067(3) 0.7929(2)
H23 H 0.8687 1.1719 0.7499
H24 H 0.9399 1.2718 0.7696
C31 C 0.7905(3) 1.2287(3) 0.8457(2)
H25 H 0.7782 1.2964 0.8563
C32 C 0.7098(3) 1.1546(3) 0.8779(2)
C33 C 0.7249(3) 1.0446(3) 0.8661(2)
C34 C 0.8413(3) 0.9968(3) 0.8636(2)
H26 H 0.8370 0.9258 0.8606
C35 C 0.9684(3) 1.0370(3) 0.8647(2)
C36 C 1.0829(3) 0.9842(3) 0.8847(2)
C37 C 1.1810(3) 1.0585(3) 0.8701(2)
H27 H 1.2682 1.0453 0.8782
C38 C 1.1284(3) 1.1544(3) 0.8416(2)
C39 C 1.1946(3) 1.2544(3) 0.8259(2)
C40 C 1.3247(4) 1.2552(3) 0.8048(2)
H28 H 1.3654 1.1934 0.7974
C41 C 1.3929(4) 1.3467(4) 0.7951(3)
H29 H 1.4804 1.3455 0.7834
C42 C 1.3348(5) 1.4392(4) 0.8022(3)
H30 H 1.3819 1.5008 0.7951
C43 C 1.2051(5) 1.4404(3) 0.8200(3)
H31 H 1.1644 1.5036 0.8232
C44 C 1.1351(4) 1.3495(3) 0.8331(3)
H32 H 1.0483 1.3513 0.8468
C45 C 0.6043(4) 1.1789(4) 0.9342(3)
H33 H 0.6123 1.2498 0.9438
H34 H 0.6114 1.1331 0.9836
H35 H 0.5222 1.1693 0.9108
C46 C 0.6098(3) 0.9826(3) 0.8564(2)
C47 C 0.6140(3) 0.8655(3) 0.8758(2)
C48 C 0.5677(3) 0.8059(3) 0.8205(2)
H36 H 0.5322 0.8386 0.7733
C49 C 0.5739(4) 0.6992(4) 0.8345(3)
H37 H 0.5475 0.6594 0.7960
C50 C 0.6197(4) 0.6522(3) 0.9065(3)
C51 C 0.6598(4) 0.7088(4) 0.9647(3)
H38 H 0.6867 0.6756 1.0140
C52 C 0.6590(3) 0.8152(3) 0.9480(2)
H39 H 0.6892 0.8545 0.9858
C53 C 1.0976(3) 0.8723(3) 0.9112(2)
C54 C 1.0060(4) 0.8140(3) 0.9584(2)
H40 H 0.9363 0.8477 0.9782
C55 C 1.0168(4) 0.7075(4) 0.9764(3)
H41 H 0.9526 0.6698 1.0062
C56 C 1.1212(5) 0.6567(4) 0.9507(3)
H42 H 1.1284 0.5848 0.9633
C57 C 1.2147(4) 0.7125(4) 0.9065(3)
H43 H 1.2866 0.6782 0.8900
C58 C 1.2041(4) 0.8188(3) 0.8859(2)
H44 H 1.2681 0.8553 0.8551
loop_
_geom_bond_atom_site_label_1
_geom_bond_atom_site_label_2
_geom_bond_site_symmetry_1
_geom_bond_site_symmetry_2
O1 C17 1_555 1_555
O2 N2 1_555 1_555
O3 N2 1_555 1_555
N1 C1 1_555 1_555
N2 C21 1_555 1_555
C1 H1 1_555 1_555
H2 C1 1_555 1_555
C2 C1 1_555 1_555
H3 C2 1_555 1_555
C3 C2 1_555 1_555
C4 C3 1_555 1_555
C5 C4 1_555 1_555
H4 C5 1_555 1_555
C6 N1 1_555 1_555
C7 C6 1_555 1_555
C8 C7 1_555 1_555
H5 C8 1_555 1_555
C9 N1 1_555 1_555
C10 C9 1_555 1_555
C11 C10 1_555 1_555
H6 C11 1_555 1_555
C12 C11 1_555 1_555
H7 C12 1_555 1_555
C13 C12 1_555 1_555
H8 C13 1_555 1_555
C14 C13 1_555 1_555
H9 C14 1_555 1_555
C15 C10 1_555 1_555
H10 C15 1_555 1_555
C16 C3 1_555 1_555
H11 C16 1_555 1_555
H12 C16 1_555 1_555
H13 C16 1_555 1_555
C17 C4 1_555 1_555
C18 C17 1_555 1_555
C19 C18 1_555 1_555
H14 C19 1_555 1_555
C20 C19 1_555 1_555
H15 C20 1_555 1_555
C21 C20 1_555 1_555
C22 C21 1_555 1_555
H16 C22 1_555 1_555
C23 C18 1_555 1_555
H17 C23 1_555 1_555
C24 C7 1_555 1_555
C25 C24 1_555 1_555
H18 C25 1_555 1_555
C26 C25 1_555 1_555
H19 C26 1_555 1_555
C27 C26 1_555 1_555
H20 C27 1_555 1_555
C28 C27 1_555 1_555
H21 C28 1_555 1_555
C29 C24 1_555 1_555
H22 C29 1_555 1_555
O4 C46 1_555 1_555
O5 N4 1_555 1_555
O6 N4 1_555 1_555
N3 C30 1_555 1_555
N4 C50 1_555 1_555
C30 H23 1_555 1_555
H24 C30 1_555 1_555
C31 C30 1_555 1_555
H25 C31 1_555 1_555
C32 C31 1_555 1_555
C33 C32 1_555 1_555
C34 C33 1_555 1_555
H26 C34 1_555 1_555
C35 N3 1_555 1_555
C36 C35 1_555 1_555
C37 C36 1_555 1_555
H27 C37 1_555 1_555
C38 N3 1_555 1_555
C39 C38 1_555 1_555
C40 C39 1_555 1_555
H28 C40 1_555 1_555
C41 C40 1_555 1_555
H29 C41 1_555 1_555
C42 C41 1_555 1_555
H30 C42 1_555 1_555
C43 C42 1_555 1_555
H31 C43 1_555 1_555
C44 C39 1_555 1_555
H32 C44 1_555 1_555
C45 C32 1_555 1_555
H33 C45 1_555 1_555
H34 C45 1_555 1_555
H35 C45 1_555 1_555
C46 C33 1_555 1_555
C47 C46 1_555 1_555
C48 C47 1_555 1_555
H36 C48 1_555 1_555
C49 C48 1_555 1_555
H37 C49 1_555 1_555
C50 C49 1_555 1_555
C51 C50 1_555 1_555
H38 C51 1_555 1_555
C52 C47 1_555 1_555
H39 C52 1_555 1_555
C53 C36 1_555 1_555
C54 C53 1_555 1_555
H40 C54 1_555 1_555
C55 C54 1_555 1_555
H41 C55 1_555 1_555
C56 C55 1_555 1_555
H42 C56 1_555 1_555
C57 C56 1_555 1_555
H43 C57 1_555 1_555
C58 C53 1_555 1_555
H44 C58 1_555 1_555
C5 C6 1_555 1_555
C8 C9 1_555 1_555
C14 C15 1_555 1_555
C22 C23 1_555 1_555
C28 C29 1_555 1_555
C34 C35 1_555 1_555
C37 C38 1_555 1_555
C43 C44 1_555 1_555
C51 C52 1_555 1_555
C57 C58 1_555 1_555

#END
