
#######################################################################
#
#                 Cambridge Crystallographic Data Centre
#                                CCDC 
#
#######################################################################
#
# If this CIF has been generated from an entry in the Cambridge 
# Structural Database, then it will include bibliographic, chemical, 
# crystal, experimental, refinement or atomic coordinate data resulting 
# from the CCDC's data processing and validation procedures.
#
#######################################################################

data_XEDQUV
_chemical_formula_moiety         'C7 H5 F2 N1 O2'
_chemical_name_systematic        1-(difluoromethyl)-2-nitrobenzene
_symmetry_cell_setting           monoclinic
_symmetry_space_group_name_H-M   'P 21/c'
_symmetry_Int_Tables_number      14
_space_group_name_Hall           '-P 2ybc'
loop_
_symmetry_equiv_pos_site_id
_symmetry_equiv_pos_as_xyz
1 x,y,z
2 -x,1/2+y,1/2-z
3 -x,-y,-z
4 x,1/2-y,1/2+z
_cell_length_a                   8.007(2)
_cell_length_b                   12.905(3)
_cell_length_c                   7.3562(18)
_cell_angle_alpha                90
_cell_angle_beta                 113.188(4)
_cell_angle_gamma                90
_cell_volume                     698.715
_exptl_crystal_colour            colorless
_exptl_crystal_description       block
_cell_formula_units_Z            4
loop_
_atom_site_label
_atom_site_type_symbol
_atom_site_fract_x
_atom_site_fract_y
_atom_site_fract_z
F1 F 0.39732(13) 0.60449(8) 0.15394(15)
O1 O 0.87351(19) 0.49817(10) 0.28702(19)
N1 N 0.77945(19) 0.54505(11) 0.3571(2)
C1 C 0.63297(19) 0.71697(12) 0.3427(2)
F2 F 0.32534(14) 0.74102(10) 0.28289(19)
O2 O 0.69096(17) 0.50195(10) 0.43814(19)
C2 C 0.6497(2) 0.82413(12) 0.3468(2)
H1 H 0.5494 0.8662 0.3380
C3 C 0.8120(2) 0.87052(12) 0.3636(2)
H2 H 0.8220 0.9439 0.3672
C4 C 0.9583(2) 0.81056(13) 0.3750(2)
H3 H 1.0687 0.8427 0.3863
C5 C 0.9445(2) 0.70368(13) 0.3701(2)
H4 H 1.0445 0.6620 0.3767
C6 C 0.78394(19) 0.65847(12) 0.3556(2)
C7 C 0.4541(2) 0.66824(14) 0.3168(3)
H5 H 0.446(3) 0.6221(17) 0.416(3)
loop_
_geom_bond_atom_site_label_1
_geom_bond_atom_site_label_2
_geom_bond_site_symmetry_1
_geom_bond_site_symmetry_2
F1 C7 1_555 1_555
O1 N1 1_555 1_555
N1 O2 1_555 1_555
C1 C2 1_555 1_555
F2 C7 1_555 1_555
C2 H1 1_555 1_555
C3 C2 1_555 1_555
H2 C3 1_555 1_555
C4 C3 1_555 1_555
H3 C4 1_555 1_555
C5 C4 1_555 1_555
H4 C5 1_555 1_555
C6 N1 1_555 1_555
C7 C1 1_555 1_555
H5 C7 1_555 1_555
C1 C6 1_555 1_555
C5 C6 1_555 1_555

#END
