
#######################################################################
#
#                 Cambridge Crystallographic Data Centre
#                                CCDC 
#
#######################################################################
#
# If this CIF has been generated from an entry in the Cambridge 
# Structural Database, then it will include bibliographic, chemical, 
# crystal, experimental, refinement or atomic coordinate data resulting 
# from the CCDC's data processing and validation procedures.
#
#######################################################################

data_XEDSUX
_chemical_formula_moiety         'C18 H18 Si1'
_chemical_name_systematic        '[1-(naphthalen-2-yl)ethyl](phenyl)silane'
_symmetry_cell_setting           monoclinic
_symmetry_space_group_name_H-M   'P 21'
_symmetry_Int_Tables_number      4
_space_group_name_Hall           'P 2yb'
loop_
_symmetry_equiv_pos_site_id
_symmetry_equiv_pos_as_xyz
1 x,y,z
2 -x,1/2+y,-z
_cell_length_a                   11.3968(5)
_cell_length_b                   5.98855(18)
_cell_length_c                   11.9533(6)
_cell_angle_alpha                90
_cell_angle_beta                 112.265(5)
_cell_angle_gamma                90
_cell_volume                     754.99
_exptl_crystal_colour            colorless
_exptl_crystal_description       block
_cell_formula_units_Z            2
loop_
_atom_site_label
_atom_site_type_symbol
_atom_site_fract_x
_atom_site_fract_y
_atom_site_fract_z
Si1 Si 0.24483(10) -0.0864(2) 0.79664(9)
H1 H 0.146(4) -0.198(10) 0.771(4)
H2 H 0.358(4) -0.179(9) 0.849(4)
C1 C 0.6624(4) 0.0483(7) 0.6043(3)
H3 H 0.646601 -0.090542 0.566643
C2 C 0.7744(4) 0.1554(9) 0.6233(4)
H4 H 0.833938 0.088630 0.598088
C3 C 0.8006(4) 0.3641(10) 0.6801(4)
H5 H 0.877164 0.434824 0.692555
C4 C 0.7136(4) 0.4646(7) 0.7174(4)
H6 H 0.731746 0.603138 0.755199
C5 C 0.5972(4) 0.3600(6) 0.6990(3)
C6 C 0.5705(3) 0.1474(6) 0.6417(3)
C7 C 0.4541(3) 0.0418(6) 0.6246(3)
H7 H 0.437045 -0.097085 0.587011
C8 C 0.3656(4) 0.1376(6) 0.6615(3)
C9 C 0.3929(4) 0.3523(6) 0.7164(4)
H8 H 0.332880 0.421520 0.739897
C10 C 0.5032(4) 0.4585(6) 0.7353(3)
H9 H 0.518208 0.597784 0.772422
C11 C 0.2431(4) 0.0211(7) 0.6465(4)
H10 H 0.238056 -0.110830 0.596391
C12 C 0.1259(4) 0.1584(12) 0.5802(5)
H11 H 0.051742 0.074348 0.573432
H12 H 0.122876 0.194359 0.500917
H13 H 0.128549 0.293704 0.624201
C13 C 0.2283(3) 0.1393(7) 0.8975(3)
C14 C 0.3314(4) 0.2593(8) 0.9726(4)
H14 H 0.411715 0.222779 0.975258
C15 C 0.3190(4) 0.4327(10) 1.0442(3)
H15 H 0.389957 0.511724 1.093635
C16 C 0.2004(5) 0.4866(9) 1.0415(4)
H16 H 0.191143 0.601589 1.089797
C17 C 0.0955(4) 0.3703(10) 0.9671(4)
H17 H 0.015350 0.408063 0.964458
C18 C 0.1094(4) 0.1979(9) 0.8967(4)
H18 H 0.038148 0.118993 0.847699
loop_
_geom_bond_atom_site_label_1
_geom_bond_atom_site_label_2
_geom_bond_site_symmetry_1
_geom_bond_site_symmetry_2
Si1 H1 1_555 1_555
H2 Si1 1_555 1_555
C1 H3 1_555 1_555
C2 C1 1_555 1_555
H4 C2 1_555 1_555
C3 C2 1_555 1_555
H5 C3 1_555 1_555
C4 C3 1_555 1_555
H6 C4 1_555 1_555
C5 C4 1_555 1_555
C6 C1 1_555 1_555
C7 C6 1_555 1_555
H7 C7 1_555 1_555
C8 C7 1_555 1_555
C9 C8 1_555 1_555
H8 C9 1_555 1_555
C10 C5 1_555 1_555
H9 C10 1_555 1_555
C11 Si1 1_555 1_555
H10 C11 1_555 1_555
C12 C11 1_555 1_555
H11 C12 1_555 1_555
H12 C12 1_555 1_555
H13 C12 1_555 1_555
C13 Si1 1_555 1_555
C14 C13 1_555 1_555
H14 C14 1_555 1_555
C15 C14 1_555 1_555
H15 C15 1_555 1_555
C16 C15 1_555 1_555
H16 C16 1_555 1_555
C17 C16 1_555 1_555
H17 C17 1_555 1_555
C18 C13 1_555 1_555
H18 C18 1_555 1_555
C5 C6 1_555 1_555
C8 C11 1_555 1_555
C9 C10 1_555 1_555
C17 C18 1_555 1_555

#END
