
#######################################################################
#
#                 Cambridge Crystallographic Data Centre
#                                CCDC 
#
#######################################################################
#
# If this CIF has been generated from an entry in the Cambridge 
# Structural Database, then it will include bibliographic, chemical, 
# crystal, experimental, refinement or atomic coordinate data resulting 
# from the CCDC's data processing and validation procedures.
#
#######################################################################

data_XEDYEN
_chemical_formula_moiety         'C13 H11 Br1 O6'
_chemical_name_systematic        
5-(2-(4-bromophenyl)-1,3-dioxolan-4-yl)-3,4-dihydroxyfuran-2(5H)-one
_symmetry_cell_setting           orthorhombic
_symmetry_space_group_name_H-M   'P 21 21 21'
_symmetry_Int_Tables_number      19
_space_group_name_Hall           'P 2ac 2ab'
loop_
_symmetry_equiv_pos_site_id
_symmetry_equiv_pos_as_xyz
1 x,y,z
2 1/2-x,-y,1/2+z
3 1/2+x,1/2-y,-z
4 -x,1/2+y,1/2-z
_cell_length_a                   6.5362(10)
_cell_length_b                   7.8226(11)
_cell_length_c                   25.294(4)
_cell_angle_alpha                90
_cell_angle_beta                 90
_cell_angle_gamma                90
_cell_volume                     1293.28
_exptl_crystal_colour            colorless
_exptl_crystal_description       block
_cell_formula_units_Z            4
loop_
_atom_site_label
_atom_site_type_symbol
_atom_site_fract_x
_atom_site_fract_y
_atom_site_fract_z
Br1 Br -0.57499(5) -0.63899(5) -0.182739(13)
O1 O 0.0647(3) -0.8777(2) -0.38597(7)
O2 O 0.1682(3) -0.6130(2) -0.36574(6)
O3 O -0.1377(3) -0.1468(2) -0.42723(8)
H1 H -0.0591 -0.0862 -0.4103
O4 O 0.3161(3) -0.2478(2) -0.43370(8)
H2 H 0.4200 -0.3040 -0.4389
O5 O -0.3552(3) -0.4508(2) -0.45593(8)
C1 C -0.1692(4) -0.4402(3) -0.45291(9)
C2 C -0.3673(4) -0.6856(3) -0.23296(10)
C3 C -0.0584(4) -0.7479(3) -0.30512(9)
C4 C 0.1613(4) -0.5310(3) -0.45721(10)
H3 H 0.2347 -0.5438 -0.4908
C5 C 0.1521(3) -0.3448(3) -0.44263(9)
C6 C -0.0446(4) -0.2974(3) -0.43880(10)
C7 C 0.2574(4) -0.6471(3) -0.41603(10)
H4 H 0.4052 -0.6266 -0.4145
C8 C 0.2163(5) -0.8381(3) -0.42502(12)
H5 H 0.1648 -0.8588 -0.4604
H6 H 0.3394 -0.9051 -0.4197
C9 C -0.3906(4) -0.6327(4) -0.28471(10)
H7 H -0.5092 -0.5768 -0.2953
C10 C -0.0412(4) -0.8026(3) -0.25326(11)
H8 H 0.0756 -0.8613 -0.2427
C11 C 0.1146(4) -0.7724(3) -0.34279(10)
H9 H 0.2328 -0.8199 -0.3240
C12 C -0.1937(4) -0.7716(4) -0.21703(11)
H10 H -0.1799 -0.8082 -0.1822
C13 C -0.2358(4) -0.6638(3) -0.32029(11)
H11 H -0.2504 -0.6278 -0.3551
O6 O -0.0513(3) -0.5770(2) -0.46472(7)
loop_
_geom_bond_atom_site_label_1
_geom_bond_atom_site_label_2
_geom_bond_site_symmetry_1
_geom_bond_site_symmetry_2
Br1 C2 1_555 1_555
O1 C8 1_555 1_555
O2 C7 1_555 1_555
O3 H1 1_555 1_555
O4 H2 1_555 1_555
O5 C1 1_555 1_555
C1 C6 1_555 1_555
C2 C9 1_555 1_555
C3 C10 1_555 1_555
C4 H3 1_555 1_555
C5 O4 1_555 1_555
C6 O3 1_555 1_555
C7 C4 1_555 1_555
H4 C7 1_555 1_555
C8 C7 1_555 1_555
H5 C8 1_555 1_555
H6 C8 1_555 1_555
C9 H7 1_555 1_555
C10 H8 1_555 1_555
C11 O1 1_555 1_555
H9 C11 1_555 1_555
C12 C2 1_555 1_555
H10 C12 1_555 1_555
C13 C3 1_555 1_555
H11 C13 1_555 1_555
O6 C1 1_555 1_555
O2 C11 1_555 1_555
C3 C11 1_555 1_555
C4 C5 1_555 1_555
C4 O6 1_555 1_555
C5 C6 1_555 1_555
C9 C13 1_555 1_555
C10 C12 1_555 1_555

#END
