
#######################################################################
#
#                 Cambridge Crystallographic Data Centre
#                                CCDC 
#
#######################################################################
#
# If this CIF has been generated from an entry in the Cambridge 
# Structural Database, then it will include bibliographic, chemical, 
# crystal, experimental, refinement or atomic coordinate data resulting 
# from the CCDC's data processing and validation procedures.
#
#######################################################################

data_XEDZUE
_chemical_formula_moiety         'C17 H12 Cl1 F3 N6 S2'
_chemical_name_systematic        
3-(((2-chloro-1,3-thiazol-5-yl)methyl)sulfanyl)-5-(1-methyl-3-(trifluoromethyl)-1H-pyrazol-4-yl)-4-phenyl-4H-1,2,4-triazole
_symmetry_cell_setting           triclinic
_symmetry_space_group_name_H-M   'P -1'
_symmetry_Int_Tables_number      2
_space_group_name_Hall           '-P 1'
loop_
_symmetry_equiv_pos_site_id
_symmetry_equiv_pos_as_xyz
1 x,y,z
2 -x,-y,-z
_cell_length_a                   8.214(5)
_cell_length_b                   10.188(6)
_cell_length_c                   12.378(7)
_cell_angle_alpha                81.679(8)
_cell_angle_beta                 87.994(8)
_cell_angle_gamma                70.351(8)
_cell_volume                     965.153
_exptl_crystal_colour            colorless
_exptl_crystal_description       block
_cell_formula_units_Z            2
loop_
_atom_site_label
_atom_site_type_symbol
_atom_site_fract_x
_atom_site_fract_y
_atom_site_fract_z
Cl1 Cl 0.50449(11) 0.67864(9) 0.46760(6)
S1 S 0.12587(10) 0.81166(8) 0.91652(6)
S2 S 0.35661(10) 0.82589(8) 0.65621(6)
F1 F 0.4971(2) 0.27240(19) 0.79416(15)
F2 F 0.5288(2) 0.06590(19) 0.75453(16)
F3 F 0.4933(2) 0.1050(2) 0.91986(16)
N1 N 0.5668(3) 0.5699(3) 0.6747(2)
N2 N 0.0986(3) 0.5744(2) 0.84435(19)
N3 N 0.2252(3) 0.5374(3) 1.0051(2)
N4 N 0.2264(3) 0.4089(3) 0.9793(2)
N5 N 0.1869(3) 0.1232(3) 0.75470(19)
N6 N 0.0157(3) 0.1938(3) 0.75025(19)
C1 C -0.0999(4) 0.1321(3) 0.7084(3)
H1 H -0.0506 0.0907 0.6429
H2 H -0.2122 0.2051 0.6899
H3 H -0.1154 0.0586 0.7642
C2 C -0.0261(4) 0.3148(3) 0.7924(2)
H4 H -0.1389 0.3807 0.7968
C3 C 0.1248(4) 0.3255(3) 0.8280(2)
C4 C 0.2521(4) 0.2042(3) 0.8016(2)
C5 C 0.4417(4) 0.1609(3) 0.8178(3)
C6 C 0.1490(4) 0.4336(3) 0.8844(2)
C7 C 0.1490(4) 0.6340(3) 0.9241(2)
C8 C 0.0226(4) 0.6408(3) 0.7396(2)
C9 C -0.1298(4) 0.7528(3) 0.7323(3)
H5 H -0.1872 0.7846 0.7964
C10 C -0.1978(4) 0.8180(3) 0.6303(3)
H6 H -0.3007 0.8975 0.6236
C11 C -0.1154(4) 0.7671(3) 0.5375(3)
H7 H -0.1637 0.8110 0.4674
C12 C 0.0358(4) 0.6536(3) 0.5460(3)
H8 H 0.0902 0.6185 0.4822
C13 C 0.1076(4) 0.5915(3) 0.6470(2)
H9 H 0.2142 0.5157 0.6535
C14 C 0.3519(4) 0.7958(3) 0.8874(2)
H10 H 0.3636 0.8901 0.8821
H11 H 0.4257 0.7350 0.9493
C15 C 0.4159(4) 0.7365(3) 0.7855(2)
C16 C 0.5247(4) 0.6050(3) 0.7787(3)
H12 H 0.5703 0.5397 0.8422
C17 C 0.4859(4) 0.6776(3) 0.6058(3)
loop_
_geom_bond_atom_site_label_1
_geom_bond_atom_site_label_2
_geom_bond_site_symmetry_1
_geom_bond_site_symmetry_2
Cl1 C17 1_555 1_555
S1 C7 1_555 1_555
S2 C15 1_555 1_555
F1 C5 1_555 1_555
F2 C5 1_555 1_555
F3 C5 1_555 1_555
N1 C16 1_555 1_555
N2 C6 1_555 1_555
N3 N4 1_555 1_555
N4 C6 1_555 1_555
N5 N6 1_555 1_555
N6 C1 1_555 1_555
C1 H1 1_555 1_555
H2 C1 1_555 1_555
H3 C1 1_555 1_555
C2 N6 1_555 1_555
H4 C2 1_555 1_555
C3 C2 1_555 1_555
C4 N5 1_555 1_555
C5 C4 1_555 1_555
C6 C3 1_555 1_555
C7 N2 1_555 1_555
C8 N2 1_555 1_555
C9 C8 1_555 1_555
H5 C9 1_555 1_555
C10 C9 1_555 1_555
H6 C10 1_555 1_555
C11 C10 1_555 1_555
H7 C11 1_555 1_555
C12 C11 1_555 1_555
H8 C12 1_555 1_555
C13 C8 1_555 1_555
H9 C13 1_555 1_555
C14 S1 1_555 1_555
H10 C14 1_555 1_555
H11 C14 1_555 1_555
C15 C14 1_555 1_555
C16 C15 1_555 1_555
H12 C16 1_555 1_555
C17 S2 1_555 1_555
N1 C17 1_555 1_555
N3 C7 1_555 1_555
C3 C4 1_555 1_555
C12 C13 1_555 1_555

#END
