
#######################################################################
#
#                 Cambridge Crystallographic Data Centre
#                                CCDC 
#
#######################################################################
#
# If this CIF has been generated from an entry in the Cambridge 
# Structural Database, then it will include bibliographic, chemical, 
# crystal, experimental, refinement or atomic coordinate data resulting 
# from the CCDC's data processing and validation procedures.
#
#######################################################################

data_XEDZAK
_chemical_formula_moiety         'C24 H28 O4'
_chemical_name_systematic        
2,2'-(cyclohexane-1,1-diyl)bis(3-methyl-6,7-dihydro-1-benzofuran-4(5H)-one)
_symmetry_cell_setting           triclinic
_symmetry_space_group_name_H-M   'P -1'
_symmetry_Int_Tables_number      2
_space_group_name_Hall           '-P 1'
loop_
_symmetry_equiv_pos_site_id
_symmetry_equiv_pos_as_xyz
1 x,y,z
2 -x,-y,-z
_cell_length_a                   8.463(10)
_cell_length_b                   9.612(11)
_cell_length_c                   13.828(15)
_cell_angle_alpha                74.29(5)
_cell_angle_beta                 80.93(5)
_cell_angle_gamma                69.90(3)
_cell_volume                     1014.29
_exptl_crystal_colour            colorless
_exptl_crystal_description       prism
_cell_formula_units_Z            2
loop_
_atom_site_label
_atom_site_type_symbol
_atom_site_fract_x
_atom_site_fract_y
_atom_site_fract_z
C1 C 0.2938(4) 0.3936(4) 0.4698(2)
C2 C 0.2687(7) 0.5553(5) 0.4757(4)
H1 H 0.1961 0.5722 0.5359
H2 H 0.3776 0.5589 0.4866
C3 C 0.2054(10) 0.6749(6) 0.4005(4)
H3 H 0.3008 0.7058 0.3652
H4 H 0.1365 0.7565 0.4324
C4 C 0.1035(5) 0.6771(4) 0.3203(3)
H5 H -0.0149 0.7306 0.3338
H6 H 0.1414 0.7287 0.2549
C5 C 0.1276(3) 0.5152(3) 0.3214(2)
C6 C 0.2164(3) 0.3854(3) 0.38448(18)
C7 C 0.2035(3) 0.2575(3) 0.35287(17)
C8 C 0.1037(3) 0.3205(3) 0.27324(18)
C9 C 0.2945(4) 0.0926(3) 0.3981(2)
H7 H 0.2136 0.0402 0.4265
H8 H 0.3616 0.0863 0.4500
H9 H 0.3663 0.0464 0.3467
C10 C 0.0356(3) 0.2612(3) 0.20301(18)
C11 C -0.1389(4) 0.3749(3) 0.1677(2)
H10 H -0.1269 0.4746 0.1372
H11 H -0.1731 0.3412 0.1166
C12 C -0.2768(4) 0.3889(4) 0.2535(3)
H12 H -0.3834 0.4548 0.2264
H13 H -0.2505 0.4357 0.3002
C13 C -0.2949(4) 0.2337(5) 0.3103(3)
H14 H -0.3749 0.2464 0.3682
H15 H -0.3391 0.1944 0.2666
C14 C -0.1264(4) 0.1191(4) 0.3454(2)
H16 H -0.1409 0.0203 0.3757
H17 H -0.0898 0.1513 0.3964
C15 C 0.0087(4) 0.1051(3) 0.2580(2)
H18 H -0.0238 0.0644 0.2100
H19 H 0.1144 0.0336 0.2833
C16 C 0.1583(3) 0.2392(3) 0.11113(18)
C17 C 0.2970(3) 0.2782(3) 0.06790(18)
C18 C 0.3428(4) 0.2204(3) -0.02349(19)
C19 C 0.2271(4) 0.1532(3) -0.0281(2)
C20 C 0.3879(5) 0.3660(4) 0.1008(3)
H20 H 0.3342 0.4733 0.0762
H21 H 0.5033 0.3387 0.0740
H22 H 0.3841 0.3420 0.1730
C21 C 0.2161(5) 0.0793(4) -0.1068(2)
H23 H 0.0992 0.1030 -0.1197
H24 H 0.2648 -0.0305 -0.0853
C22 C 0.3140(6) 0.1408(5) -0.2021(3)
H25 H 0.3288 0.0795 -0.2502
H26 H 0.2477 0.2442 -0.2321
C23 C 0.4846(5) 0.1409(4) -0.1834(3)
H27 H 0.5327 0.1917 -0.2455
H28 H 0.5577 0.0362 -0.1663
C24 C 0.4843(4) 0.2175(3) -0.1007(2)
O1 O 0.3665(4) 0.2846(3) 0.5328(2)
O2 O 0.0570(2) 0.4803(2) 0.25356(14)
O3 O 0.1130(3) 0.1624(2) 0.05234(15)
O4 O 0.5984(4) 0.2663(4) -0.0980(2)
loop_
_geom_bond_atom_site_label_1
_geom_bond_atom_site_label_2
_geom_bond_site_symmetry_1
_geom_bond_site_symmetry_2
C1 C2 1_555 1_555
C2 H1 1_555 1_555
H2 C2 1_555 1_555
C3 C2 1_555 1_555
H3 C3 1_555 1_555
H4 C3 1_555 1_555
C4 C3 1_555 1_555
H5 C4 1_555 1_555
H6 C4 1_555 1_555
C5 C4 1_555 1_555
C6 C1 1_555 1_555
C7 C6 1_555 1_555
C8 C7 1_555 1_555
C9 C7 1_555 1_555
H7 C9 1_555 1_555
H8 C9 1_555 1_555
H9 C9 1_555 1_555
C10 C8 1_555 1_555
C11 C10 1_555 1_555
H10 C11 1_555 1_555
H11 C11 1_555 1_555
C12 C11 1_555 1_555
H12 C12 1_555 1_555
H13 C12 1_555 1_555
C13 C12 1_555 1_555
H14 C13 1_555 1_555
H15 C13 1_555 1_555
C14 C13 1_555 1_555
H16 C14 1_555 1_555
H17 C14 1_555 1_555
C15 C10 1_555 1_555
H18 C15 1_555 1_555
H19 C15 1_555 1_555
C16 C10 1_555 1_555
C17 C16 1_555 1_555
C18 C17 1_555 1_555
C19 C18 1_555 1_555
C20 C17 1_555 1_555
H20 C20 1_555 1_555
H21 C20 1_555 1_555
H22 C20 1_555 1_555
C21 C19 1_555 1_555
H23 C21 1_555 1_555
H24 C21 1_555 1_555
C22 C21 1_555 1_555
H25 C22 1_555 1_555
H26 C22 1_555 1_555
C23 C22 1_555 1_555
H27 C23 1_555 1_555
H28 C23 1_555 1_555
C24 C18 1_555 1_555
O1 C1 1_555 1_555
O2 C5 1_555 1_555
O3 C16 1_555 1_555
O4 C24 1_555 1_555
C5 C6 1_555 1_555
C8 O2 1_555 1_555
C14 C15 1_555 1_555
C19 O3 1_555 1_555
C23 C24 1_555 1_555

#END
