
#######################################################################
#
#                 Cambridge Crystallographic Data Centre
#                                CCDC 
#
#######################################################################
#
# If this CIF has been generated from an entry in the Cambridge 
# Structural Database, then it will include bibliographic, chemical, 
# crystal, experimental, refinement or atomic coordinate data resulting 
# from the CCDC's data processing and validation procedures.
#
#######################################################################

data_XEFDOE
_chemical_formula_moiety         'C6 H5 F5 P1 1-,C2 H3 N1,K1 1+'
_chemical_name_systematic        
'potassium pentafluoro(phenyl)phosphate acetonitrile solvate'
_symmetry_cell_setting           monoclinic
_symmetry_space_group_name_H-M   'P 21/n'
_symmetry_Int_Tables_number      14
_space_group_name_Hall           '-P 2yn'
loop_
_symmetry_equiv_pos_site_id
_symmetry_equiv_pos_as_xyz
1 x,y,z
2 1/2-x,1/2+y,1/2-z
3 -x,-y,-z
4 1/2+x,1/2-y,1/2+z
_cell_length_a                   21.180(3)
_cell_length_b                   8.8602(13)
_cell_length_c                   24.220(4)
_cell_angle_alpha                90
_cell_angle_beta                 102.725(2)
_cell_angle_gamma                90
_cell_volume                     4433.47
_exptl_crystal_colour            colorless
_exptl_crystal_description       block
_cell_formula_units_Z            16
loop_
_atom_site_label
_atom_site_type_symbol
_atom_site_fract_x
_atom_site_fract_y
_atom_site_fract_z
C1 C 0.23712(12) 0.1370(3) -0.05388(10)
C2 C 0.16957(12) 0.1374(3) -0.06721(11)
H1 H 0.1468 0.1972 -0.0454
C3 C 0.13506(13) 0.0517(3) -0.11172(12)
H2 H 0.0891 0.0532 -0.1201
C4 C 0.16735(14) -0.0354(3) -0.14377(12)
H3 H 0.1438 -0.0948 -0.1741
C5 C 0.23396(14) -0.0357(3) -0.13158(11)
H4 H 0.2564 -0.0950 -0.1538
C6 C 0.26848(13) 0.0496(3) -0.08721(11)
H5 H 0.3144 0.0484 -0.0794
F1 F 0.32264(8) 0.33222(19) 0.06347(6)
F2 F 0.23919(9) 0.39275(17) -0.00953(7)
F3 F 0.23436(8) 0.18796(19) 0.04738(7)
F4 F 0.33494(8) 0.3049(2) -0.02617(7)
F5 F 0.32878(8) 0.09770(19) 0.02920(7)
P1 P 0.28211(3) 0.24191(7) 0.00778(3)
C7 C 0.12024(12) -0.0899(3) 0.12569(11)
C8 C 0.07554(13) -0.1943(3) 0.13724(12)
H6 H 0.0778 -0.2256 0.1751
C9 C 0.02775(14) -0.2527(3) 0.09387(13)
H7 H -0.0026 -0.3233 0.1023
C10 C 0.02406(15) -0.2087(3) 0.03847(13)
H8 H -0.0086 -0.2490 0.0088
C11 C 0.06821(14) -0.1058(3) 0.02661(12)
H9 H 0.0659 -0.0754 -0.0114
C12 C 0.11561(13) -0.0467(3) 0.06950(11)
H10 H 0.1455 0.0243 0.0607
F6 F 0.24049(7) -0.04553(16) 0.14859(6)
F7 F 0.19697(8) -0.17267(18) 0.21499(6)
F8 F 0.17452(7) 0.15817(16) 0.15480(7)
F9 F 0.13033(8) 0.03126(19) 0.22044(7)
F10 F 0.23681(9) 0.0627(2) 0.23102(8)
P2 P 0.18278(3) -0.01014(8) 0.18250(3)
K1 K 0.30919(3) 0.24132(6) 0.17065(2)
C13 C 0.50119(12) -0.0588(3) 0.29568(11)
C14 C 0.48218(15) -0.1732(3) 0.32881(12)
H11 H 0.4423 -0.2241 0.3150
C15 C 0.51957(18) -0.2136(4) 0.38058(14)
H12 H 0.5057 -0.2911 0.4023
C16 C 0.57582(18) -0.1423(5) 0.40000(15)
H13 H 0.6015 -0.1713 0.4357
C17 C 0.59794(15) -0.0290(5) 0.37048(16)
H14 H 0.6379 0.0198 0.3856
C18 C 0.55928(14) 0.0143(4) 0.31620(14)
H15 H 0.5735 0.0920 0.2948
F11 F 0.50839(8) 0.00435(18) 0.19610(7)
F12 F 0.45093(10) 0.16713(18) 0.24051(7)
F13 F 0.44125(7) -0.18713(16) 0.20801(6)
F14 F 0.38342(7) -0.02503(19) 0.25156(7)
F15 F 0.40103(9) 0.0301(2) 0.16542(7)
P3 P 0.44874(3) -0.01066(7) 0.22724(3)
K2 K 0.31762(3) -0.27921(6) 0.19173(2)
C19 C 0.45605(13) 0.4761(3) 0.20217(11)
C20 C 0.51489(13) 0.4895(3) 0.24561(12)
H16 H 0.5217 0.5954 0.2571
H17 H 0.5517 0.4538 0.2307
H18 H 0.5111 0.4283 0.2784
N1 N 0.40942(11) 0.4659(2) 0.16854(9)
C21 C 0.56688(14) -0.2705(3) 0.14100(12)
C22 C 0.62539(14) -0.2199(4) 0.18017(14)
H19 H 0.6143 -0.1413 0.2049
H20 H 0.6557 -0.1788 0.1588
H21 H 0.6455 -0.3053 0.2032
N2 N 0.52053(11) -0.3091(2) 0.11114(10)
C23 C 0.18077(14) 0.4743(3) 0.10412(12)
C24 C 0.12123(14) 0.4234(4) 0.06632(13)
H22 H 0.1179 0.4682 0.0288
H23 H 0.0840 0.4547 0.0815
H24 H 0.1217 0.3132 0.0633
N3 N 0.22741(12) 0.5130(3) 0.13336(11)
C25 C 0.29193(13) 0.7457(3) 0.04470(11)
C26 C 0.23063(13) 0.7543(3) 0.00398(13)
H25 H 0.2302 0.8440 -0.0198
H26 H 0.1953 0.7608 0.0241
H27 H 0.2250 0.6638 -0.0199
N4 N 0.34010(11) 0.7369(2) 0.07649(10)
C27 C 0.62669(12) 0.3008(3) 0.12760(10)
C28 C 0.67352(13) 0.4017(3) 0.11756(12)
H28 H 0.6718 0.4354 0.0800
C29 C 0.72246(14) 0.4535(3) 0.16124(13)
H29 H 0.7542 0.5212 0.1536
C30 C 0.72478(14) 0.4057(3) 0.21633(13)
H30 H 0.7579 0.4419 0.2465
C31 C 0.67919(14) 0.3061(3) 0.22721(12)
H31 H 0.6810 0.2732 0.2649
C32 C 0.63047(13) 0.2535(3) 0.18326(11)
H32 H 0.5993 0.1845 0.1912
F16 F 0.50487(7) 0.17088(18) 0.01802(6)
F17 F 0.54774(7) 0.40100(16) 0.04260(6)
F18 F 0.50626(7) 0.25727(16) 0.10536(6)
F19 F 0.61190(7) 0.20314(17) 0.02840(6)
F20 F 0.57126(7) 0.05805(15) 0.09207(6)
P4 P 0.56235(3) 0.23163(7) 0.06965(3)
K3 K 0.42507(3) 0.48841(6) 0.05273(2)
K4 K 0.44160(3) -0.04102(6) 0.07166(2)
loop_
_geom_bond_atom_site_label_1
_geom_bond_atom_site_label_2
_geom_bond_site_symmetry_1
_geom_bond_site_symmetry_2
C1 C2 1_555 1_555
C2 H1 1_555 1_555
C3 C2 1_555 1_555
H2 C3 1_555 1_555
C4 C3 1_555 1_555
H3 C4 1_555 1_555
C5 C4 1_555 1_555
H4 C5 1_555 1_555
C6 C1 1_555 1_555
H5 C6 1_555 1_555
F1 P1 1_555 1_555
F2 P1 1_555 1_555
F3 P1 1_555 1_555
F4 P1 1_555 1_555
F5 P1 1_555 1_555
P1 C1 1_555 1_555
C7 C8 1_555 1_555
C8 H6 1_555 1_555
C9 C8 1_555 1_555
H7 C9 1_555 1_555
C10 C9 1_555 1_555
H8 C10 1_555 1_555
C11 C10 1_555 1_555
H9 C11 1_555 1_555
C12 C7 1_555 1_555
H10 C12 1_555 1_555
F6 P2 1_555 1_555
F7 P2 1_555 1_555
F8 P2 1_555 1_555
F9 P2 1_555 1_555
F10 P2 1_555 1_555
P2 C7 1_555 1_555
C13 C14 1_555 1_555
C14 H11 1_555 1_555
C15 C14 1_555 1_555
H12 C15 1_555 1_555
C16 C15 1_555 1_555
H13 C16 1_555 1_555
C17 C16 1_555 1_555
H14 C17 1_555 1_555
C18 C13 1_555 1_555
H15 C18 1_555 1_555
F11 P3 1_555 1_555
F12 P3 1_555 1_555
F13 P3 1_555 1_555
F14 P3 1_555 1_555
F15 P3 1_555 1_555
P3 C13 1_555 1_555
C19 C20 1_555 1_555
C20 H16 1_555 1_555
H17 C20 1_555 1_555
H18 C20 1_555 1_555
N1 C19 1_555 1_555
C21 C22 1_555 1_555
C22 H19 1_555 1_555
H20 C22 1_555 1_555
H21 C22 1_555 1_555
N2 C21 1_555 1_555
C23 C24 1_555 1_555
C24 H22 1_555 1_555
H23 C24 1_555 1_555
H24 C24 1_555 1_555
N3 C23 1_555 1_555
C25 C26 1_555 1_555
C26 H25 1_555 1_555
H26 C26 1_555 1_555
H27 C26 1_555 1_555
N4 C25 1_555 1_555
C27 C28 1_555 1_555
C28 H28 1_555 1_555
C29 C28 1_555 1_555
H29 C29 1_555 1_555
C30 C29 1_555 1_555
H30 C30 1_555 1_555
C31 C30 1_555 1_555
H31 C31 1_555 1_555
C32 C27 1_555 1_555
H32 C32 1_555 1_555
F16 P4 1_555 1_555
F17 P4 1_555 1_555
F18 P4 1_555 1_555
F19 P4 1_555 1_555
F20 P4 1_555 1_555
P4 C27 1_555 1_555
C5 C6 1_555 1_555
C11 C12 1_555 1_555
C17 C18 1_555 1_555
C31 C32 1_555 1_555

#END
