
#######################################################################
#
#                 Cambridge Crystallographic Data Centre
#                                CCDC 
#
#######################################################################
#
# If this CIF has been generated from an entry in the Cambridge 
# Structural Database, then it will include bibliographic, chemical, 
# crystal, experimental, refinement or atomic coordinate data resulting 
# from the CCDC's data processing and validation procedures.
#
#######################################################################

data_XEFDUJ
_chemical_formula_moiety         'C28 H18 N2 O2 S1,C4 H8 O2'
_chemical_name_systematic        
'N-(3-(1,3-benzothiazol-2-yl)-4-hydroxyphenyl)anthracene-9-carboxamide ethyl acetate solvate'
_symmetry_cell_setting           triclinic
_symmetry_space_group_name_H-M   'P -1'
_symmetry_Int_Tables_number      2
_space_group_name_Hall           '-P 1'
loop_
_symmetry_equiv_pos_site_id
_symmetry_equiv_pos_as_xyz
1 x,y,z
2 -x,-y,-z
_cell_length_a                   9.119(7)
_cell_length_b                   10.382(8)
_cell_length_c                   15.374(11)
_cell_angle_alpha                105.468(9)
_cell_angle_beta                 95.318(9)
_cell_angle_gamma                100.648(10)
_cell_volume                     1363.06
_cell_formula_units_Z            2
loop_
_atom_site_label
_atom_site_type_symbol
_atom_site_fract_x
_atom_site_fract_y
_atom_site_fract_z
C1 C 0.08240(16) 0.51475(15) 0.37501(10)
C2 C 0.22213(19) 0.48032(18) 0.35492(11)
H1 H 0.3016 0.5479 0.3509
C3 C 0.2406(2) 0.3500(2) 0.34157(13)
H2 H 0.3323 0.3293 0.3279
C4 C 0.1232(3) 0.24590(19) 0.34820(14)
H3 H 0.1381 0.1574 0.3394
C5 C -0.0113(2) 0.27369(18) 0.36733(13)
H4 H -0.0877 0.2038 0.3717
C6 C -0.03839(18) 0.40814(15) 0.38097(10)
C7 C -0.17556(18) 0.43960(17) 0.39933(11)
H5 H -0.2529 0.3706 0.4039
C8 C -0.20207(16) 0.57074(17) 0.41124(10)
C9 C -0.34420(19) 0.6029(2) 0.42790(13)
H6 H -0.4235 0.5341 0.4305
C10 C -0.3660(2) 0.7311(2) 0.44000(14)
H7 H -0.4601 0.7493 0.4503
C11 C -0.2476(2) 0.8378(2) 0.43725(13)
H8 H -0.2639 0.9259 0.4462
C12 C -0.10973(18) 0.81304(17) 0.42158(11)
H9 H -0.0326 0.8848 0.4205
C13 C -0.08146(16) 0.67850(15) 0.40670(10)
C14 C 0.05821(16) 0.64797(15) 0.38933(10)
C15 C 0.18765(16) 0.76273(15) 0.39089(10)
C16 C 0.29214(16) 0.89963(15) 0.29185(10)
C17 C 0.41590(17) 0.98540(16) 0.35397(11)
H10 H 0.4354 0.9739 0.4116
C18 C 0.50888(19) 1.08663(17) 0.33029(12)
H11 H 0.5905 1.1431 0.3724
C19 C 0.48370(18) 1.10627(16) 0.24526(12)
C20 C 0.26661(17) 0.91850(15) 0.20660(10)
H12 H 0.1847 0.8618 0.1647
C21 C 0.36086(17) 1.02063(15) 0.18184(10)
C22 C 0.33342(18) 1.03807(17) 0.09121(11)
C23 C 0.2369(2) 1.0250(2) -0.06519(13)
C24 C 0.3677(2) 1.12473(19) -0.02479(12)
C25 C 0.4338(2) 1.2095(2) -0.07401(14)
H13 H 0.5217 1.2760 -0.0484
C26 C 0.3660(3) 1.1921(3) -0.16066(16)
H14 H 0.4089 1.2476 -0.1943
C27 C 0.2348(4) 1.0937(3) -0.19969(16)
H15 H 0.1908 1.0853 -0.2586
C28 C 0.1688(3) 1.0085(2) -0.15286(14)
H16 H 0.0812 0.9421 -0.1792
N1 N 0.19070(14) 0.79458(13) 0.31174(9)
H25 H 0.1219 0.7444 0.2674
N2 N 0.41982(16) 1.13006(15) 0.06400(10)
O1 O 0.27987(12) 0.81988(12) 0.45969(8)
O2 O 0.57979(15) 1.20897(14) 0.22742(9)
H26 H 0.5570 1.2086 0.1745
S1 S 0.18009(6) 0.93538(5) 0.01056(3)
C29 C 0.7819(4) 0.4577(3) 0.16381(18)
H17 H 0.8581 0.4302 0.1977
H18 H 0.7182 0.3783 0.1203
H19 H 0.7223 0.5037 0.2049
C30 C 0.8546(2) 0.5516(2) 0.11526(13)
C31 C 0.8460(3) 0.6115(3) -0.02120(17)
H20 H 0.9496 0.6059 -0.0278
H21 H 0.8442 0.7059 0.0090
C32 C 0.7501(5) 0.5641(4) -0.1125(2)
H22 H 0.7484 0.4693 -0.1403
H23 H 0.7908 0.6174 -0.1505
H24 H 0.6492 0.5752 -0.1054
O3 O 0.96475(16) 0.64158(16) 0.14744(11)
O4 O 0.78606(16) 0.52452(15) 0.03118(9)
loop_
_geom_bond_atom_site_label_1
_geom_bond_atom_site_label_2
_geom_bond_site_symmetry_1
_geom_bond_site_symmetry_2
C1 C2 1_555 1_555
C2 H1 1_555 1_555
C3 C2 1_555 1_555
H2 C3 1_555 1_555
C4 C3 1_555 1_555
H3 C4 1_555 1_555
C5 C4 1_555 1_555
H4 C5 1_555 1_555
C6 C1 1_555 1_555
C7 C6 1_555 1_555
H5 C7 1_555 1_555
C8 C7 1_555 1_555
C9 C8 1_555 1_555
H6 C9 1_555 1_555
C10 C9 1_555 1_555
H7 C10 1_555 1_555
C11 C10 1_555 1_555
H8 C11 1_555 1_555
C12 C11 1_555 1_555
H9 C12 1_555 1_555
C13 C8 1_555 1_555
C14 C1 1_555 1_555
C15 C14 1_555 1_555
C16 C17 1_555 1_555
C17 H10 1_555 1_555
C18 C17 1_555 1_555
H11 C18 1_555 1_555
C19 C18 1_555 1_555
C20 C16 1_555 1_555
H12 C20 1_555 1_555
C21 C19 1_555 1_555
C22 C21 1_555 1_555
C23 C24 1_555 1_555
C24 C25 1_555 1_555
C25 H13 1_555 1_555
C26 C25 1_555 1_555
H14 C26 1_555 1_555
C27 C26 1_555 1_555
H15 C27 1_555 1_555
C28 C23 1_555 1_555
H16 C28 1_555 1_555
C29 H17 1_555 1_555
H18 C29 1_555 1_555
H19 C29 1_555 1_555
C30 C29 1_555 1_555
C31 H20 1_555 1_555
H21 C31 1_555 1_555
C32 C31 1_555 1_555
H22 C32 1_555 1_555
H23 C32 1_555 1_555
H24 C32 1_555 1_555
N1 C15 1_555 1_555
H25 N1 1_555 1_555
N2 C22 1_555 1_555
O1 C15 1_555 1_555
O2 C19 1_555 1_555
H26 O2 1_555 1_555
O3 C30 1_555 1_555
O4 C30 1_555 1_555
S1 C22 1_555 1_555
C5 C6 1_555 1_555
C12 C13 1_555 1_555
C13 C14 1_555 1_555
C16 N1 1_555 1_555
C20 C21 1_555 1_555
C23 S1 1_555 1_555
C24 N2 1_555 1_555
C27 C28 1_555 1_555
C31 O4 1_555 1_555

#END
