
#######################################################################
#
#                 Cambridge Crystallographic Data Centre
#                                CCDC 
#
#######################################################################
#
# If this CIF has been generated from an entry in the Cambridge 
# Structural Database, then it will include bibliographic, chemical, 
# crystal, experimental, refinement or atomic coordinate data resulting 
# from the CCDC's data processing and validation procedures.
#
#######################################################################

data_XEFDIY
_chemical_formula_moiety         'C11 H13 F4 N2 P1'
_chemical_name_systematic        
(1,3-dimethyl-1H-imidazol-3-ium-2-yl)(tetrafluoro)phenylphosphate
_symmetry_cell_setting           monoclinic
_symmetry_space_group_name_H-M   'P 21/n'
_symmetry_Int_Tables_number      14
_space_group_name_Hall           '-P 2yn'
loop_
_symmetry_equiv_pos_site_id
_symmetry_equiv_pos_as_xyz
1 x,y,z
2 1/2-x,1/2+y,1/2-z
3 -x,-y,-z
4 1/2+x,1/2-y,1/2+z
_cell_length_a                   7.5298(13)
_cell_length_b                   11.1769(19)
_cell_length_c                   14.477(3)
_cell_angle_alpha                90
_cell_angle_beta                 104.313(2)
_cell_angle_gamma                90
_cell_volume                     1180.56
_exptl_crystal_colour            colorless
_exptl_crystal_description       block
_cell_formula_units_Z            4
loop_
_atom_site_label
_atom_site_type_symbol
_atom_site_fract_x
_atom_site_fract_y
_atom_site_fract_z
P1 P 0.22848(5) 0.75320(3) 0.39213(2)
N1 N 0.53113(17) 0.91806(10) 0.39740(8)
N2 N 0.61364(17) 0.77093(10) 0.49487(8)
F1 F 0.32257(11) 0.62103(7) 0.39496(6)
F2 F 0.14840(11) 0.88886(7) 0.39210(6)
F3 F 0.24371(12) 0.76998(7) 0.28162(6)
F4 F 0.22855(12) 0.74070(7) 0.50540(6)
C1 C -0.0466(2) 0.58015(13) 0.38773(10)
H1 H 0.0443 0.5391 0.4342
C2 C -0.00329(18) 0.68962(13) 0.35250(9)
C3 C 0.46853(19) 0.81786(12) 0.43090(9)
C4 C -0.1397(2) 0.74774(13) 0.28514(11)
H2 H -0.1136 0.8226 0.2603
C5 C 0.7144(2) 0.93296(14) 0.43942(10)
H3 H 0.7902 0.9962 0.4276
C6 C 0.4306(2) 1.00253(13) 0.32548(11)
H4 H 0.3778 0.9595 0.2660
H5 H 0.5147 1.0643 0.3138
H6 H 0.3321 1.0400 0.3486
C7 C -0.3139(2) 0.69820(15) 0.25344(11)
H7 H -0.4054 0.7396 0.2076
C8 C -0.2202(2) 0.52978(15) 0.35624(11)
H8 H -0.2468 0.4551 0.3812
C9 C 0.6211(2) 0.66233(14) 0.55298(10)
H9 H 0.5155 0.6608 0.5813
H10 H 0.7346 0.6622 0.6038
H11 H 0.6181 0.5916 0.5127
C10 C -0.3545(2) 0.58866(15) 0.28845(11)
H12 H -0.4729 0.5543 0.2663
C11 C 0.7666(2) 0.84155(14) 0.50017(10)
H13 H 0.8861 0.8279 0.5394
loop_
_geom_bond_atom_site_label_1
_geom_bond_atom_site_label_2
_geom_bond_site_symmetry_1
_geom_bond_site_symmetry_2
P1 F1 1_555 1_555
N1 C3 1_555 1_555
N2 C3 1_555 1_555
F2 P1 1_555 1_555
F3 P1 1_555 1_555
F4 P1 1_555 1_555
C1 H1 1_555 1_555
C2 P1 1_555 1_555
C3 P1 1_555 1_555
C4 C2 1_555 1_555
H2 C4 1_555 1_555
C5 N1 1_555 1_555
H3 C5 1_555 1_555
C6 N1 1_555 1_555
H4 C6 1_555 1_555
H5 C6 1_555 1_555
H6 C6 1_555 1_555
C7 C4 1_555 1_555
H7 C7 1_555 1_555
C8 C1 1_555 1_555
H8 C8 1_555 1_555
C9 N2 1_555 1_555
H9 C9 1_555 1_555
H10 C9 1_555 1_555
H11 C9 1_555 1_555
C10 C7 1_555 1_555
H12 C10 1_555 1_555
C11 N2 1_555 1_555
H13 C11 1_555 1_555
C1 C2 1_555 1_555
C5 C11 1_555 1_555
C8 C10 1_555 1_555

#END
