
#######################################################################
#
#                 Cambridge Crystallographic Data Centre
#                                CCDC 
#
#######################################################################
#
# If this CIF has been generated from an entry in the Cambridge 
# Structural Database, then it will include bibliographic, chemical, 
# crystal, experimental, refinement or atomic coordinate data resulting 
# from the CCDC's data processing and validation procedures.
#
#######################################################################

data_XEFQOR
_chemical_formula_moiety         'C28 H25 N1 O3 S2'
_chemical_name_systematic        
N-[(7-methyl-8-oxo-7-phenyl-5,6,7,8-tetrahydronaphthalen-1-yl)(phenyl)methyl]thiophene-2-sulfonamide
_symmetry_cell_setting           monoclinic
_symmetry_space_group_name_H-M   'C 2'
_symmetry_Int_Tables_number      5
_space_group_name_Hall           'C 2y'
loop_
_symmetry_equiv_pos_site_id
_symmetry_equiv_pos_as_xyz
1 x,y,z
2 -x,y,-z
3 1/2+x,1/2+y,z
4 1/2-x,1/2+y,-z
_cell_length_a                   18.8409(14)
_cell_length_b                   6.1715(4)
_cell_length_c                   22.9464(18)
_cell_angle_alpha                90
_cell_angle_beta                 111.489(8)
_cell_angle_gamma                90
_cell_volume                     2482.66
_exptl_crystal_colour            colorless
_exptl_crystal_description       block
_cell_formula_units_Z            4
loop_
_atom_site_label
_atom_site_type_symbol
_atom_site_fract_x
_atom_site_fract_y
_atom_site_fract_z
S1 S 0.3023(4) 0.6189(15) 0.1297(2)
S2 S 0.1424(5) 0.7542(16) 0.0463(4)
O1 O 0.3042(13) 0.863(4) 0.1449(10)
O2 O 0.3596(8) 0.510(4) 0.1119(7)
O3 O 0.1968(3) 0.8945(9) 0.2818(3)
N1 N 0.2961(5) 0.508(2) 0.1866(5)
H1 H 0.284233 0.374628 0.176738
C1 C 0.2555(4) 0.5788(19) 0.2265(4)
H2 H 0.252186 0.740237 0.222643
C2 C 0.1725(4) 0.4981(16) 0.2086(3)
C3 C 0.1498(4) 0.3199(19) 0.1678(4)
H3 H 0.184332 0.258204 0.150941
C4 C 0.0759(5) 0.2320(18) 0.1517(4)
H4 H 0.060781 0.111179 0.124229
C5 C 0.0260(4) 0.3221(15) 0.1760(3)
H5 H -0.023844 0.262980 0.164329
C6 C 0.0464(4) 0.4993(12) 0.2175(3)
C7 C -0.0100(4) 0.5812(14) 0.2449(4)
H6 H -0.011451 0.479344 0.277773
H7 H -0.061479 0.583569 0.211628
C8 C 0.0090(4) 0.8091(14) 0.2734(4)
H8 H -0.001670 0.916554 0.239170
H9 H -0.024459 0.842795 0.296875
C9 C 0.0921(4) 0.8299(12) 0.3172(4)
C10 C 0.1423(4) 0.7776(12) 0.2778(4)
C11 C 0.1213(4) 0.5856(13) 0.2341(3)
C12 C 0.1092(5) 1.0624(13) 0.3437(5)
H10 H 0.101887 1.164544 0.309280
H11 H 0.162023 1.070619 0.373357
H12 H 0.074479 1.099360 0.365209
C13 C 0.1137(4) 0.6736(11) 0.3730(4)
C14 C 0.0623(4) 0.6306(14) 0.4040(4)
H13 H 0.012022 0.687467 0.387346
C15 C 0.0848(5) 0.5055(16) 0.4587(4)
H14 H 0.049471 0.477823 0.478498
C16 C 0.1569(5) 0.4227(14) 0.4838(4)
H15 H 0.171393 0.338029 0.520940
C17 C 0.2095(4) 0.4625(12) 0.4550(4)
H16 H 0.259692 0.404969 0.472093
C18 C 0.1866(4) 0.5905(11) 0.3996(4)
H17 H 0.222465 0.619640 0.380358
C19 C 0.3059(4) 0.5329(13) 0.2936(3)
C20 C 0.2999(4) 0.3348(14) 0.3215(4)
H18 H 0.263477 0.230248 0.298334
C21 C 0.3475(4) 0.2907(15) 0.3839(4)
H19 H 0.343872 0.155539 0.402397
C22 C 0.3991(4) 0.4424(15) 0.4178(4)
H20 H 0.430084 0.414410 0.460244
C23 C 0.4061(4) 0.6368(15) 0.3902(4)
H21 H 0.442709 0.740783 0.413354
C24 C 0.3602(4) 0.6789(14) 0.3296(4)
H22 H 0.365647 0.813300 0.311485
C25 C 0.2184(9) 0.570(3) 0.0688(8)
C26 C 0.1975(8) 0.409(3) 0.0302(7)
H23 H 0.232419 0.293961 0.033379
C27 C 0.1221(9) 0.400(3) -0.0174(7)
H24 H 0.100659 0.284566 -0.045716
C28 C 0.0889(9) 0.585(3) -0.0140(7)
H25 H 0.039379 0.622639 -0.042346
H26? H 0.274822 0.463432 0.205538
N2? N 0.2695(18) 0.767(4) 0.1938(10)
H27? H 0.269318 0.893684 0.211452
S3? S 0.2857(6) 0.774(3) 0.1280(5)
O4? O 0.3463(14) 0.680(6) 0.1184(16)
O5? O 0.2870(12) 1.012(5) 0.1396(13)
S4? S 0.1387(10) 0.879(3) 0.0411(8)
C29? C 0.2088(11) 0.680(3) 0.0612(9)
C30? C 0.1835(10) 0.532(3) 0.0143(8)
H28? H 0.215344 0.416229 0.011875
C31? C 0.1056(12) 0.555(6) -0.0331(13)
H29? H 0.080820 0.456494 -0.066010
C32? C 0.0767(15) 0.737(5) -0.0214(12)
H30? H 0.026570 0.785434 -0.045233
loop_
_geom_bond_atom_site_label_1
_geom_bond_atom_site_label_2
_geom_bond_site_symmetry_1
_geom_bond_site_symmetry_2
S1 O1 1_555 1_555
S2 C25 1_555 1_555
O2 S1 1_555 1_555
O3 C10 1_555 1_555
N1 S1 1_555 1_555
H1 N1 1_555 1_555
C1 N1 1_555 1_555
H2 C1 1_555 1_555
C2 C1 1_555 1_555
C3 C2 1_555 1_555
H3 C3 1_555 1_555
C4 C3 1_555 1_555
H4 C4 1_555 1_555
C5 C4 1_555 1_555
H5 C5 1_555 1_555
C6 C5 1_555 1_555
C7 C6 1_555 1_555
H6 C7 1_555 1_555
H7 C7 1_555 1_555
C8 C7 1_555 1_555
H8 C8 1_555 1_555
H9 C8 1_555 1_555
C9 C8 1_555 1_555
C10 C9 1_555 1_555
C11 C2 1_555 1_555
C12 C9 1_555 1_555
H10 C12 1_555 1_555
H11 C12 1_555 1_555
H12 C12 1_555 1_555
C13 C9 1_555 1_555
C14 C13 1_555 1_555
H13 C14 1_555 1_555
C15 C14 1_555 1_555
H14 C15 1_555 1_555
C16 C15 1_555 1_555
H15 C16 1_555 1_555
C17 C16 1_555 1_555
H16 C17 1_555 1_555
C18 C13 1_555 1_555
H17 C18 1_555 1_555
C19 C1 1_555 1_555
C20 C19 1_555 1_555
H18 C20 1_555 1_555
C21 C20 1_555 1_555
H19 C21 1_555 1_555
C22 C21 1_555 1_555
H20 C22 1_555 1_555
C23 C22 1_555 1_555
H21 C23 1_555 1_555
C24 C19 1_555 1_555
H22 C24 1_555 1_555
C25 S1 1_555 1_555
C26 C25 1_555 1_555
H23 C26 1_555 1_555
C27 C26 1_555 1_555
H24 C27 1_555 1_555
C28 S2 1_555 1_555
H25 C28 1_555 1_555
C6 C11 1_555 1_555
C10 C11 1_555 1_555
C17 C18 1_555 1_555
C23 C24 1_555 1_555
C27 C28 1_555 1_555

#END
