
#######################################################################
#
#                 Cambridge Crystallographic Data Centre
#                                CCDC 
#
#######################################################################
#
# If this CIF has been generated from an entry in the Cambridge 
# Structural Database, then it will include bibliographic, chemical, 
# crystal, experimental, refinement or atomic coordinate data resulting 
# from the CCDC's data processing and validation procedures.
#
#######################################################################

data_XEFSIM
_chemical_formula_moiety         'C36 H31 Cl2 N1 O5'
_chemical_name_systematic        
't-Butyl 3-benzyl-3-(1,4-bis(2-chlorophenyl)-1,4-dioxobutan-2-yl)-2-oxoindoline-1-carboxylate'
_symmetry_cell_setting           orthorhombic
_symmetry_space_group_name_H-M   'P 21 21 21'
_symmetry_Int_Tables_number      19
_space_group_name_Hall           'P 2ac 2ab'
loop_
_symmetry_equiv_pos_site_id
_symmetry_equiv_pos_as_xyz
1 x,y,z
2 1/2-x,-y,1/2+z
3 1/2+x,1/2-y,-z
4 -x,1/2+y,1/2-z
_cell_length_a                   10.166(5)
_cell_length_b                   11.343(5)
_cell_length_c                   27.980(5)
_cell_angle_alpha                90
_cell_angle_beta                 90
_cell_angle_gamma                90
_cell_volume                     3226.46
_cell_formula_units_Z            4
loop_
_atom_site_label
_atom_site_type_symbol
_atom_site_fract_x
_atom_site_fract_y
_atom_site_fract_z
Cl1 Cl -0.2635(2) 0.56800(17) 0.18741(8)
Cl2 Cl 0.0917(3) 0.8090(3) 0.43064(8)
O1 O 0.2716(3) 0.6709(3) 0.18087(12)
N1 N 0.1026(4) 0.6702(3) 0.12446(13)
O2 O 0.2740(4) 0.5646(3) 0.09893(13)
O3 O -0.0173(4) 0.6083(3) 0.24120(16)
O4 O 0.0209(4) 0.7662(5) 0.33326(14)
C1 C 0.0988(4) 0.8191(4) 0.18417(15)
C2 C 0.1929(5) 0.9268(4) 0.17733(17)
H1 H 0.1509 0.9967 0.1902
H2 H 0.2728 0.9131 0.1954
C3 C 0.1714(4) 0.7105(4) 0.16496(15)
C4 C 0.0583(4) 0.8055(4) 0.23790(14)
H3 H 0.0226 0.8809 0.2490
C5 C -0.0198(4) 0.8268(4) 0.15201(15)
C6 C 0.1347(5) 0.7585(5) 0.3215(2)
C7 C 0.1743(5) 0.7718(5) 0.27041(16)
H4 H 0.2120 0.6981 0.2593
H5 H 0.2418 0.8320 0.2681
C8 C 0.2393(6) 0.7303(5) 0.3582(2)
O5 O 0.0835(5) 0.5548(5) 0.05810(17)
C9 C 0.2286(5) 0.9488(4) 0.12586(17)
C10 C -0.0145(4) 0.7372(4) 0.11795(16)
C11 C 0.3281(6) 0.8873(5) 0.1034(2)
H6 H 0.3766 0.8329 0.1209
C12 C -0.1889(5) 0.7519(5) 0.24432(18)
C13 C -0.0492(5) 0.7126(4) 0.24196(16)
C14 C -0.1146(6) 0.7222(5) 0.0847(2)
H7 H -0.1117 0.6618 0.0623
C15 C -0.1232(5) 0.9042(4) 0.15173(19)
H8 H -0.1265 0.9657 0.1737
C16 C -0.2210(5) 0.8537(5) 0.2695(2)
H9 H -0.1547 0.8933 0.2858
C17 C -0.2913(6) 0.6945(6) 0.2215(2)
C18 C 0.1522(6) 0.5887(5) 0.08984(19)
C19 C -0.2222(6) 0.8900(6) 0.1187(2)
H10 H -0.2927 0.9422 0.1185
C20 C -0.4189(7) 0.7404(9) 0.2224(3)
H11 H -0.4864 0.7016 0.2064
C21 C 0.1604(6) 1.0305(5) 0.0988(2)
H12 H 0.0945 1.0752 0.1130
C22 C 0.3599(7) 0.6776(6) 0.3421(3)
H13 H 0.3727 0.6645 0.3096
C23 C 0.4849(7) 0.4877(7) 0.0915(3)
H14 H 0.5139 0.5681 0.0936
H15 H 0.5464 0.4431 0.0728
H16 H 0.4795 0.4547 0.1231
C24 C 0.2230(7) 0.7460(6) 0.4064(2)
C25 C 0.3579(9) 0.9041(7) 0.0557(3)
H17 H 0.4258 0.8617 0.0415
C26 C 0.2888(8) 0.3623(6) 0.0725(3)
H18 H 0.2939 0.3364 0.1051
H19 H 0.3352 0.3079 0.0524
H20 H 0.1983 0.3660 0.0628
C27 C -0.3476(6) 0.8984(8) 0.2712(3)
H21 H -0.3654 0.9659 0.2889
C28 C 0.3503(7) 0.4834(6) 0.0681(2)
C29 C 0.4323(8) 0.6602(7) 0.4194(3)
H22 H 0.4967 0.6352 0.4407
C30 C 0.3506(10) 0.5269(9) 0.0173(3)
H23 H 0.2616 0.5355 0.0063
H24 H 0.3958 0.4712 -0.0027
H25 H 0.3944 0.6018 0.0157
C31 C -0.4450(7) 0.8438(11) 0.2472(4)
H26 H -0.5294 0.8754 0.2471
C32 C 0.4583(8) 0.6456(7) 0.3746(3)
H27 H 0.5385 0.6153 0.3644
C33 C 0.3249(7) 0.7067(6) 0.4387(3)
H28 H 0.3157 0.7136 0.4716
C34 C -0.2180(6) 0.8001(6) 0.0862(2)
H29 H -0.2868 0.7915 0.0646
C35 C 0.2871(10) 0.9834(7) 0.0296(3)
H30 H 0.3057 0.9940 -0.0026
C36 C 0.1888(7) 1.0473(6) 0.0506(2)
H31 H 0.1411 1.1016 0.0328
loop_
_geom_bond_atom_site_label_1
_geom_bond_atom_site_label_2
_geom_bond_site_symmetry_1
_geom_bond_site_symmetry_2
Cl1 C17 1_555 1_555
Cl2 C24 1_555 1_555
O1 C3 1_555 1_555
N1 C3 1_555 1_555
O2 C18 1_555 1_555
O3 C13 1_555 1_555
O4 C6 1_555 1_555
C1 C2 1_555 1_555
C2 H1 1_555 1_555
H2 C2 1_555 1_555
C3 C1 1_555 1_555
C4 C1 1_555 1_555
H3 C4 1_555 1_555
C5 C1 1_555 1_555
C6 C7 1_555 1_555
C7 C4 1_555 1_555
H4 C7 1_555 1_555
H5 C7 1_555 1_555
C8 C6 1_555 1_555
O5 C18 1_555 1_555
C9 C2 1_555 1_555
C10 N1 1_555 1_555
C11 C9 1_555 1_555
H6 C11 1_555 1_555
C12 C13 1_555 1_555
C13 C4 1_555 1_555
C14 C10 1_555 1_555
H7 C14 1_555 1_555
C15 C5 1_555 1_555
H8 C15 1_555 1_555
C16 C12 1_555 1_555
H9 C16 1_555 1_555
C17 C12 1_555 1_555
C18 N1 1_555 1_555
C19 C15 1_555 1_555
H10 C19 1_555 1_555
C20 C17 1_555 1_555
H11 C20 1_555 1_555
C21 C9 1_555 1_555
H12 C21 1_555 1_555
C22 C8 1_555 1_555
H13 C22 1_555 1_555
C23 H14 1_555 1_555
H15 C23 1_555 1_555
H16 C23 1_555 1_555
C24 C8 1_555 1_555
C25 C11 1_555 1_555
H17 C25 1_555 1_555
C26 H18 1_555 1_555
H19 C26 1_555 1_555
H20 C26 1_555 1_555
C27 C16 1_555 1_555
H21 C27 1_555 1_555
C28 O2 1_555 1_555
C29 H22 1_555 1_555
C30 C28 1_555 1_555
H23 C30 1_555 1_555
H24 C30 1_555 1_555
H25 C30 1_555 1_555
C31 C20 1_555 1_555
H26 C31 1_555 1_555
C32 C22 1_555 1_555
H27 C32 1_555 1_555
C33 C24 1_555 1_555
H28 C33 1_555 1_555
C34 C14 1_555 1_555
H29 C34 1_555 1_555
C35 C25 1_555 1_555
H30 C35 1_555 1_555
C36 C21 1_555 1_555
H31 C36 1_555 1_555
C5 C10 1_555 1_555
C19 C34 1_555 1_555
C23 C28 1_555 1_555
C26 C28 1_555 1_555
C27 C31 1_555 1_555
C29 C32 1_555 1_555
C29 C33 1_555 1_555
C35 C36 1_555 1_555

#END
