
#######################################################################
#
#                 Cambridge Crystallographic Data Centre
#                                CCDC 
#
#######################################################################
#
# If this CIF has been generated from an entry in the Cambridge 
# Structural Database, then it will include bibliographic, chemical, 
# crystal, experimental, refinement or atomic coordinate data resulting 
# from the CCDC's data processing and validation procedures.
#
#######################################################################

data_XEFZOA
_chemical_name_common            'Piperazine azilsartan monohydrate'
_chemical_formula_moiety         'C25 H18 N4 O5 2-,C4 H12 N2 2+,H2 O1'
_chemical_name_systematic        
"piperazine-1,4-diium 2-ethoxy-1-{[2'-(5-oxo-5H-1,2,4-oxadiazol-4-id-3-yl)[1,1'-biphenyl]-4-yl]methyl}-1H-benzimidazole-7-carboxylate monohydrate"
_symmetry_cell_setting           monoclinic
_symmetry_space_group_name_H-M   'P 21/n'
_symmetry_Int_Tables_number      14
_space_group_name_Hall           '-P 2yn'
loop_
_symmetry_equiv_pos_site_id
_symmetry_equiv_pos_as_xyz
1 x,y,z
2 1/2-x,1/2+y,1/2-z
3 -x,-y,-z
4 1/2+x,1/2-y,1/2+z
_cell_length_a                   11.3028(14)
_cell_length_b                   14.3949(18)
_cell_length_c                   16.962(2)
_cell_angle_alpha                90
_cell_angle_beta                 97.634(2)
_cell_angle_gamma                90
_cell_volume                     2735.3
_exptl_crystal_colour            colorless
_exptl_crystal_description       block
_cell_formula_units_Z            4
loop_
_atom_site_label
_atom_site_type_symbol
_atom_site_fract_x
_atom_site_fract_y
_atom_site_fract_z
C1 C 0.29405(18) 0.27518(15) -0.02147(12)
C2 C 0.40483(17) 0.19426(13) 0.06227(11)
C3 C 0.50182(17) 0.16457(13) 0.12479(11)
C4 C 0.56345(19) 0.08292(14) 0.11129(14)
H1 H 0.5411 0.0500 0.0645
C5 C 0.6559(2) 0.04975(16) 0.16484(14)
H2 H 0.6958 -0.0045 0.1547
C6 C 0.6876(2) 0.09917(17) 0.23401(15)
C7 C 0.62805(19) 0.17892(15) 0.24910(13)
H3 H 0.6506 0.2103 0.2966
C8 C 0.53484(16) 0.21446(13) 0.19552(11)
C9 C 0.47550(16) 0.30120(13) 0.21736(10)
C10 C 0.35270(17) 0.31098(13) 0.20978(11)
H4 H 0.3045 0.2631 0.1870
C11 C 0.30031(16) 0.38958(13) 0.23495(11)
H5 H 0.2175 0.3940 0.2284
C12 C 0.36832(16) 0.46271(13) 0.27005(10)
C13 C 0.49046(17) 0.45401(14) 0.27668(11)
H6 H 0.5385 0.5023 0.2989
C14 C 0.54292(17) 0.37496(14) 0.25100(12)
H7 H 0.6257 0.3711 0.2564
C15 C 0.30757(17) 0.54482(13) 0.30266(12)
H8 H 0.2313 0.5548 0.2703
H9 H 0.2920 0.5303 0.3562
C16 C 0.6589(3) 0.5874(2) 0.4927(2)
H10 H 0.6417 0.5229 0.4822
H11 H 0.7140 0.5932 0.5406
H12 H 0.6936 0.6138 0.4491
C17 C 0.5501(2) 0.6358(2) 0.50193(17)
H13 H 0.5623 0.7025 0.5016
H14 H 0.5217 0.6185 0.5514
C18 C 0.46048(18) 0.65573(14) 0.36648(12)
C19 C 0.39408(15) 0.69019(12) 0.24218(11)
C20 C 0.48888(16) 0.74846(13) 0.27324(11)
C21 C 0.53247(19) 0.81495(15) 0.22704(13)
H15 H 0.5952 0.8534 0.2477
C22 C 0.4811(2) 0.82337(15) 0.14929(13)
H16 H 0.5099 0.8677 0.1168
C23 C 0.38663(18) 0.76673(13) 0.11832(13)
H17 H 0.3542 0.7740 0.0654
C24 C 0.33887(16) 0.69934(12) 0.16409(11)
C25 C 0.22860(17) 0.64697(13) 0.12723(12)
H18 H 0.741(2) 0.0838(17) 0.2743(14)
N1 N 0.39322(13) 0.28018(11) 0.03000(9)
N2 N 0.32479(17) 0.13431(13) 0.03487(13)
N3 N 0.37688(13) 0.63044(10) 0.30476(9)
N4 N 0.52865(15) 0.72520(11) 0.35232(10)
O1 O 0.24201(13) 0.33597(11) -0.06605(9)
O2 O 0.24837(14) 0.18850(12) -0.02219(10)
O3 O 0.46439(15) 0.60675(11) 0.43286(9)
O4 O 0.14706(12) 0.63274(11) 0.16581(10)
O5 O 0.22608(13) 0.62487(11) 0.05500(9)
C26 C 0.4924(2) 0.53644(15) 0.07755(12)
H19 H 0.5183 0.5814 0.1189
H20 H 0.4333 0.4965 0.0968
C27 C 0.40473(19) 0.51993(14) -0.06134(12)
H21 H 0.3418 0.4792 -0.0483
H22 H 0.3741 0.5544 -0.1088
H23 H 0.5034(15) 0.6191(11) -0.0087(10)
H24 H 0.3714(6) 0.6105(10) 0.0178(9)
N5 N 0.43741(15) 0.58585(11) 0.00516(10)
C26B C 0.5076(2) 0.46356(15) -0.07755(12)
H19B H 0.4817 0.4186 -0.1189
H20B H 0.5667 0.5035 -0.0968
C27B C 0.59527(19) 0.48007(14) 0.06134(12)
H21B H 0.6582 0.5208 0.0483
H22B H 0.6259 0.4456 0.1088
H23B H 0.4966(15) 0.3809(11) 0.0087(10)
H24B H 0.6286(6) 0.3895(10) -0.0178(9)
N5B N 0.56259(15) 0.41415(11) -0.00516(10)
C28 C 0.94824(19) 0.57650(15) -0.04549(14)
H25 H 0.9548 0.6391 -0.0657
H26 H 0.8687 0.5537 -0.0642
C29 C 0.9617(2) 0.48434(15) 0.07690(15)
H27 H 0.8826 0.4581 0.0634
H28 H 0.9787 0.4880 0.1344
H29 H 1.0436(19) 0.6086(14) 0.0622(12)
H30 H 0.900(2) 0.6133(16) 0.0565(16)
N6 N 0.96552(16) 0.57871(12) 0.04217(12)
C28B C 1.05176(19) 0.42350(15) 0.04549(14)
H25B H 1.0452 0.3609 0.0657
H26B H 1.1313 0.4463 0.0642
C29B C 1.0383(2) 0.51566(15) -0.07690(15)
H27B H 1.1174 0.5419 -0.0634
H28B H 1.0213 0.5120 -0.1344
H29B H 0.9564(19) 0.3914(14) -0.0622(12)
H30B H 1.100(2) 0.3867(16) -0.0565(16)
N6B N 1.03448(16) 0.42129(12) -0.04217(12)
O6 O 0.75960(16) 0.80271(14) 0.39649(12)
H31 H 0.6856(6) 0.7862(15) 0.390(2)
H32 H 0.744(3) 0.7789(11) 0.3495(5)
loop_
_geom_bond_atom_site_label_1
_geom_bond_atom_site_label_2
_geom_bond_site_symmetry_1
_geom_bond_site_symmetry_2
C1 N1 1_555 1_555
C2 C3 1_555 1_555
C3 C4 1_555 1_555
C4 H1 1_555 1_555
C5 C4 1_555 1_555
H2 C5 1_555 1_555
C6 C5 1_555 1_555
C7 C6 1_555 1_555
H3 C7 1_555 1_555
C8 C3 1_555 1_555
C9 C8 1_555 1_555
C10 C9 1_555 1_555
H4 C10 1_555 1_555
C11 C10 1_555 1_555
H5 C11 1_555 1_555
C12 C11 1_555 1_555
C13 C12 1_555 1_555
H6 C13 1_555 1_555
C14 C9 1_555 1_555
H7 C14 1_555 1_555
C15 C12 1_555 1_555
H8 C15 1_555 1_555
H9 C15 1_555 1_555
C16 H10 1_555 1_555
H11 C16 1_555 1_555
H12 C16 1_555 1_555
C17 C16 1_555 1_555
H13 C17 1_555 1_555
H14 C17 1_555 1_555
C18 N3 1_555 1_555
C19 C20 1_555 1_555
C20 C21 1_555 1_555
C21 H15 1_555 1_555
C22 C21 1_555 1_555
H16 C22 1_555 1_555
C23 C22 1_555 1_555
H17 C23 1_555 1_555
C24 C19 1_555 1_555
C25 C24 1_555 1_555
H18 C6 1_555 1_555
N1 C2 1_555 1_555
N2 C2 1_555 1_555
N3 C15 1_555 1_555
N4 C18 1_555 1_555
O1 C1 1_555 1_555
O2 C1 1_555 1_555
O3 C17 1_555 1_555
O4 C25 1_555 1_555
O5 C25 1_555 1_555
C26 H19 1_555 1_555
H20 C26 1_555 1_555
C27 H21 1_555 1_555
H22 C27 1_555 1_555
H23 N5 1_555 1_555
H24 N5 1_555 1_555
N5 C26 1_555 1_555
C28 H25 1_555 1_555
H26 C28 1_555 1_555
C29 H27 1_555 1_555
H28 C29 1_555 1_555
H29 N6 1_555 1_555
H30 N6 1_555 1_555
N6 C28 1_555 1_555
O6 H31 1_555 1_555
H32 O6 1_555 1_555
C26B C27 1_555 1_555
H19B C26B 1_555 1_555
H20B C26B 1_555 1_555
C27B C26 1_555 1_555
H21B C27B 1_555 1_555
H22B C27B 1_555 1_555
H23B N5B 1_555 1_555
H24B N5B 1_555 1_555
N5B C26B 1_555 1_555
C28B C29 1_555 1_555
H25B C28B 1_555 1_555
H26B C28B 1_555 1_555
C29B C28 1_555 1_555
H27B C29B 1_555 1_555
H28B C29B 1_555 1_555
H29B N6B 1_555 1_555
H30B N6B 1_555 1_555
N6B C28B 1_555 1_555
C7 C8 1_555 1_555
C13 C14 1_555 1_555
C18 O3 1_555 1_555
C19 N3 1_555 1_555
C20 N4 1_555 1_555
C23 C24 1_555 1_555
N2 O2 1_555 1_555
C27 N5 1_555 1_555
C29 N6 1_555 1_555
C27B N5B 1_555 1_555
C29B N6B 1_555 1_555

#END
