
#######################################################################
#
#                 Cambridge Crystallographic Data Centre
#                                CCDC 
#
#######################################################################
#
# If this CIF has been generated from an entry in the Cambridge 
# Structural Database, then it will include bibliographic, chemical, 
# crystal, experimental, refinement or atomic coordinate data resulting 
# from the CCDC's data processing and validation procedures.
#
#######################################################################

data_XEGBAP
_chemical_formula_moiety         'C66 H52,2(C4 H8 O1)'
_chemical_name_systematic        
'3,6,9,12-tetrakis(2,4,6-trimethylphenyl)cyclopenta[ghi]cyclopenta[4,5]phenanthro[1,10,9,8-opqra]perylene tetrahydrofuran solvate'
_symmetry_cell_setting           monoclinic
_symmetry_space_group_name_H-M   'P 21/n'
_symmetry_Int_Tables_number      14
_space_group_name_Hall           '-P 2yn'
loop_
_symmetry_equiv_pos_site_id
_symmetry_equiv_pos_as_xyz
1 x,y,z
2 1/2-x,1/2+y,1/2-z
3 -x,-y,-z
4 1/2+x,1/2-y,1/2+z
_cell_length_a                   24.3689(12)
_cell_length_b                   8.3419(4)
_cell_length_c                   26.8000(14)
_cell_angle_alpha                90
_cell_angle_beta                 100.713(3)
_cell_angle_gamma                90
_cell_volume                     5353.03
_exptl_crystal_colour            black
_exptl_crystal_description       'prism frag'
_cell_formula_units_Z            4
loop_
_atom_site_label
_atom_site_type_symbol
_atom_site_fract_x
_atom_site_fract_y
_atom_site_fract_z
C1 C 0.4814(2) 0.6716(6) 0.64940(18)
C2 C 0.4388(2) 0.6494(6) 0.68063(18)
C3 C 0.3894(2) 0.7410(7) 0.6801(2)
H1 H 0.3819 0.8272 0.6567
C4 C 0.3506(2) 0.7110(7) 0.71263(19)
H2 H 0.3185 0.7773 0.7101
C5 C 0.3583(2) 0.5889(7) 0.74770(19)
C6 C 0.3346(2) 0.5207(7) 0.79155(18)
C7 C 0.3697(2) 0.3944(7) 0.81360(18)
C8 C 0.3757(2) 0.2825(7) 0.85525(19)
H3 H 0.3480 0.2786 0.8759
C9 C 0.4215(2) 0.1802(7) 0.86573(19)
H4 H 0.4227 0.1055 0.8927
C10 C 0.4681(2) 0.1801(6) 0.83789(18)
C11 C 0.5169(2) 0.0855(7) 0.84793(19)
C12 C 0.5599(2) 0.1081(6) 0.81683(18)
C13 C 0.6111(2) 0.0205(7) 0.81981(19)
H5 H 0.6192 -0.0629 0.8442
C14 C 0.6507(2) 0.0528(7) 0.7877(2)
H6 H 0.6838 -0.0098 0.7913
C15 C 0.6419(2) 0.1733(6) 0.75143(19)
C16 C 0.6671(2) 0.2442(7) 0.70936(19)
C17 C 0.6302(2) 0.3646(7) 0.68511(18)
C18 C 0.6243(2) 0.4803(7) 0.64421(19)
H7 H 0.6531 0.4892 0.6248
C19 C 0.5775(2) 0.5795(7) 0.63247(19)
H8 H 0.5763 0.6549 0.6057
C20 C 0.5302(2) 0.5742(6) 0.65875(18)
C21 C 0.5366(2) 0.4621(6) 0.69896(18)
C22 C 0.58441(19) 0.3693(6) 0.71093(18)
C23 C 0.5914(2) 0.2573(6) 0.74958(18)
C24 C 0.5516(2) 0.2263(7) 0.77850(19)
C25 C 0.5023(2) 0.3173(6) 0.76723(18)
C26 C 0.4952(2) 0.4326(6) 0.72824(18)
C27 C 0.4463(2) 0.5277(6) 0.71775(17)
C28 C 0.4071(2) 0.4973(6) 0.74737(18)
C29 C 0.4141(2) 0.3854(6) 0.78578(17)
C30 C 0.4611(2) 0.2901(6) 0.79695(18)
C31 C 0.4714(2) 0.7926(7) 0.60816(19)
C32 C 0.4480(2) 0.7459(7) 0.5583(2)
C33 C 0.4348(2) 0.8640(7) 0.5213(2)
H9 H 0.4186 0.8332 0.4877
C34 C 0.4446(2) 1.0248(7) 0.5320(2)
C35 C 0.4698(2) 1.0676(7) 0.5810(2)
H10 H 0.4782 1.1773 0.5884
C36 C 0.4832(2) 0.9545(7) 0.6195(2)
C37 C 0.2850(2) 0.5864(7) 0.80997(19)
C38 C 0.2314(2) 0.5793(7) 0.7784(2)
C39 C 0.1854(2) 0.6371(7) 0.7978(2)
H11 H 0.1492 0.6309 0.7773
C40 C 0.1912(3) 0.7015(8) 0.8450(2)
C41 C 0.2447(3) 0.7133(8) 0.8753(2)
H12 H 0.2491 0.7601 0.9081
C42 C 0.2915(2) 0.6573(7) 0.8578(2)
C43 C 0.5270(2) -0.0351(7) 0.88975(19)
C44 C 0.5510(3) 0.0104(8) 0.9393(2)
C45 C 0.5639(3) -0.1066(8) 0.9764(2)
H13 H 0.5809 -0.0754 1.0097
C46 C 0.5526(2) -0.2695(8) 0.9663(2)
C47 C 0.5264(2) -0.3097(8) 0.9176(2)
H14 H 0.5166 -0.4185 0.9101
C48 C 0.5138(2) -0.1972(7) 0.8794(2)
C49 C 0.7187(2) 0.1867(7) 0.69333(19)
C50 C 0.7701(2) 0.1941(7) 0.7278(2)
C51 C 0.8183(2) 0.1386(7) 0.7108(2)
H15 H 0.8532 0.1427 0.7336
C52 C 0.8168(2) 0.0788(8) 0.6627(2)
C53 C 0.7660(3) 0.0706(9) 0.6298(2)
H16 H 0.7644 0.0292 0.5966
C54 C 0.7165(2) 0.1227(8) 0.6449(2)
C55 C 0.4381(3) 0.5710(8) 0.5450(2)
H17 H 0.4740 0.5151 0.5491
H18 H 0.4185 0.5615 0.5097
H19 H 0.4153 0.5229 0.5676
C56 C 0.4285(3) 1.1495(8) 0.4915(2)
H20 H 0.3880 1.1667 0.4859
H21 H 0.4392 1.1130 0.4599
H22 H 0.4478 1.2502 0.5024
C57 C 0.5092(3) 1.0062(8) 0.6722(2)
H23 H 0.5471 0.9622 0.6810
H24 H 0.4867 0.9666 0.6964
H25 H 0.5109 1.1235 0.6737
C58 C 0.2235(2) 0.5132(8) 0.7258(2)
H26 H 0.1844 0.4812 0.7147
H27 H 0.2477 0.4197 0.7253
H28 H 0.2331 0.5954 0.7027
C59 C 0.1409(3) 0.7631(9) 0.8654(3)
H29 H 0.1403 0.8805 0.8641
H30 H 0.1434 0.7276 0.9006
H31 H 0.1066 0.7209 0.8445
C60 C 0.3485(3) 0.6775(9) 0.8912(2)
H32 H 0.3449 0.7407 0.9213
H33 H 0.3735 0.7331 0.8721
H34 H 0.3641 0.5719 0.9018
C61 C 0.5634(4) 0.1824(8) 0.9528(2)
H35 H 0.5861 0.2283 0.9297
H36 H 0.5839 0.1894 0.9878
H37 H 0.5283 0.2421 0.9497
C62 C 0.5693(3) -0.3931(9) 1.0065(2)
H38 H 0.5367 -0.4232 1.0211
H39 H 0.5983 -0.3492 1.0333
H40 H 0.5837 -0.4879 0.9917
C63 C 0.4880(3) -0.2486(8) 0.8262(2)
H41 H 0.4525 -0.1923 0.8154
H42 H 0.4813 -0.3645 0.8257
H43 H 0.5134 -0.2224 0.8031
C64 C 0.7749(2) 0.2562(8) 0.7802(2)
H44 H 0.7483 0.3442 0.7805
H45 H 0.8129 0.2955 0.7924
H46 H 0.7665 0.1700 0.8025
C65 C 0.8695(3) 0.0235(10) 0.6458(3)
H47 H 0.9020 0.0494 0.6720
H48 H 0.8730 0.0778 0.6141
H49 H 0.8678 -0.0927 0.6402
C66 C 0.6621(3) 0.1039(11) 0.6078(2)
H50 H 0.6674 0.0299 0.5807
H51 H 0.6500 0.2085 0.5931
H52 H 0.6336 0.0611 0.6255
O1 O 0.2950(4) 0.2555(16) 0.9464(4)
C67 C 0.2442(6) 0.186(3) 0.9139(6)
H53 H 0.2366 0.2388 0.8802
H54 H 0.2488 0.0695 0.9090
C68 C 0.2005(5) 0.217(3) 0.9411(6)
H55 H 0.1928 0.1191 0.9597
H56 H 0.1659 0.2462 0.9172
C69 C 0.2175(6) 0.346(3) 0.9763(8)
H57 H 0.2101 0.3183 1.0104
H58 H 0.1966 0.4451 0.9646
C70 C 0.2796(6) 0.3709(18) 0.9785(5)
H59 H 0.2870 0.4799 0.9667
H60 H 0.3005 0.3565 1.0136
O3 O 0.7899(6) 0.127(3) 0.9430(6)
C75 C 0.7445(6) 0.021(3) 0.9168(7)
H69 H 0.7342 0.0493 0.8804
H70 H 0.7566 -0.0926 0.9196
C76 C 0.6985(5) 0.045(2) 0.9416(6)
H71 H 0.6877 -0.0580 0.9553
H72 H 0.6661 0.0861 0.9170
C77 C 0.7138(6) 0.159(3) 0.9823(7)
H73 H 0.7136 0.1064 1.0155
H74 H 0.6870 0.2490 0.9784
C78 C 0.7719(7) 0.219(3) 0.9799(8)
H75 H 0.7708 0.3338 0.9707
H76 H 0.7971 0.2048 1.0131
O2? O 0.2836(13) 0.205(4) 0.9544(12)
C71? C 0.2420(12) 0.273(5) 0.9118(8)
H61? H 0.2601 0.3479 0.8914
H62? H 0.2237 0.1862 0.8893
C72? C 0.2026(10) 0.354(4) 0.9357(10)
H63? H 0.1694 0.2854 0.9356
H64? H 0.1903 0.4542 0.9173
C73? C 0.2292(15) 0.390(6) 0.9874(12)
H65? H 0.2032 0.3687 1.0109
H66? H 0.2407 0.5034 0.9905
C74? C 0.2798(16) 0.281(6) 0.9995(11)
H67? H 0.3139 0.3442 1.0120
H68? H 0.2749 0.2015 1.0258
O4? O 0.7924(10) -0.003(4) 0.9516(8)
C79? C 0.7449(14) 0.030(5) 0.9089(11)
H77? H 0.7575 0.0266 0.8759
H78? H 0.7146 -0.0488 0.9085
C80? C 0.7266(15) 0.187(4) 0.9188(12)
H79? H 0.6853 0.1914 0.9119
H80? H 0.7406 0.2657 0.8965
C81? C 0.7477(18) 0.226(4) 0.9714(14)
H81? H 0.7166 0.2344 0.9903
H82? H 0.7678 0.3299 0.9740
C82? C 0.7872(14) 0.092(5) 0.9930(8)
H83? H 0.8239 0.1360 1.0093
H84? H 0.7715 0.0296 1.0184
loop_
_geom_bond_atom_site_label_1
_geom_bond_atom_site_label_2
_geom_bond_site_symmetry_1
_geom_bond_site_symmetry_2
C1 C2 1_555 1_555
C2 C3 1_555 1_555
C3 H1 1_555 1_555
C4 C3 1_555 1_555
H2 C4 1_555 1_555
C5 C4 1_555 1_555
C6 C5 1_555 1_555
C7 C6 1_555 1_555
C8 C7 1_555 1_555
H3 C8 1_555 1_555
C9 C8 1_555 1_555
H4 C9 1_555 1_555
C10 C9 1_555 1_555
C11 C10 1_555 1_555
C12 C11 1_555 1_555
C13 C12 1_555 1_555
H5 C13 1_555 1_555
C14 C13 1_555 1_555
H6 C14 1_555 1_555
C15 C14 1_555 1_555
C16 C15 1_555 1_555
C17 C16 1_555 1_555
C18 C17 1_555 1_555
H7 C18 1_555 1_555
C19 C18 1_555 1_555
H8 C19 1_555 1_555
C20 C1 1_555 1_555
C21 C20 1_555 1_555
C22 C17 1_555 1_555
C23 C15 1_555 1_555
C24 C12 1_555 1_555
C25 C24 1_555 1_555
C26 C21 1_555 1_555
C27 C2 1_555 1_555
C28 C5 1_555 1_555
C29 C7 1_555 1_555
C30 C10 1_555 1_555
C31 C1 1_555 1_555
C32 C31 1_555 1_555
C33 C32 1_555 1_555
H9 C33 1_555 1_555
C34 C33 1_555 1_555
C35 C34 1_555 1_555
H10 C35 1_555 1_555
C36 C31 1_555 1_555
C37 C6 1_555 1_555
C38 C37 1_555 1_555
C39 C38 1_555 1_555
H11 C39 1_555 1_555
C40 C39 1_555 1_555
C41 C40 1_555 1_555
H12 C41 1_555 1_555
C42 C37 1_555 1_555
C43 C11 1_555 1_555
C44 C43 1_555 1_555
C45 C44 1_555 1_555
H13 C45 1_555 1_555
C46 C45 1_555 1_555
C47 C46 1_555 1_555
H14 C47 1_555 1_555
C48 C43 1_555 1_555
C49 C16 1_555 1_555
C50 C49 1_555 1_555
C51 C50 1_555 1_555
H15 C51 1_555 1_555
C52 C51 1_555 1_555
C53 C52 1_555 1_555
H16 C53 1_555 1_555
C54 C49 1_555 1_555
C55 C32 1_555 1_555
H17 C55 1_555 1_555
H18 C55 1_555 1_555
H19 C55 1_555 1_555
C56 C34 1_555 1_555
H20 C56 1_555 1_555
H21 C56 1_555 1_555
H22 C56 1_555 1_555
C57 C36 1_555 1_555
H23 C57 1_555 1_555
H24 C57 1_555 1_555
H25 C57 1_555 1_555
C58 C38 1_555 1_555
H26 C58 1_555 1_555
H27 C58 1_555 1_555
H28 C58 1_555 1_555
C59 C40 1_555 1_555
H29 C59 1_555 1_555
H30 C59 1_555 1_555
H31 C59 1_555 1_555
C60 C42 1_555 1_555
H32 C60 1_555 1_555
H33 C60 1_555 1_555
H34 C60 1_555 1_555
C61 C44 1_555 1_555
H35 C61 1_555 1_555
H36 C61 1_555 1_555
H37 C61 1_555 1_555
C62 C46 1_555 1_555
H38 C62 1_555 1_555
H39 C62 1_555 1_555
H40 C62 1_555 1_555
C63 C48 1_555 1_555
H41 C63 1_555 1_555
H42 C63 1_555 1_555
H43 C63 1_555 1_555
C64 C50 1_555 1_555
H44 C64 1_555 1_555
H45 C64 1_555 1_555
H46 C64 1_555 1_555
C65 C52 1_555 1_555
H47 C65 1_555 1_555
H48 C65 1_555 1_555
H49 C65 1_555 1_555
C66 C54 1_555 1_555
H50 C66 1_555 1_555
H51 C66 1_555 1_555
H52 C66 1_555 1_555
O1 C67 1_555 1_555
C67 H53 1_555 1_555
H54 C67 1_555 1_555
C68 C67 1_555 1_555
H55 C68 1_555 1_555
H56 C68 1_555 1_555
C69 C68 1_555 1_555
H57 C69 1_555 1_555
H58 C69 1_555 1_555
C70 O1 1_555 1_555
H59 C70 1_555 1_555
H60 C70 1_555 1_555
O3 C75 1_555 1_555
C75 H69 1_555 1_555
H70 C75 1_555 1_555
C76 C75 1_555 1_555
H71 C76 1_555 1_555
H72 C76 1_555 1_555
C77 C76 1_555 1_555
H73 C77 1_555 1_555
H74 C77 1_555 1_555
C78 O3 1_555 1_555
H75 C78 1_555 1_555
H76 C78 1_555 1_555
C19 C20 1_555 1_555
C21 C22 1_555 1_555
C22 C23 1_555 1_555
C23 C24 1_555 1_555
C25 C26 1_555 1_555
C25 C30 1_555 1_555
C26 C27 1_555 1_555
C27 C28 1_555 1_555
C28 C29 1_555 1_555
C29 C30 1_555 1_555
C35 C36 1_555 1_555
C41 C42 1_555 1_555
C47 C48 1_555 1_555
C53 C54 1_555 1_555
C69 C70 1_555 1_555
C77 C78 1_555 1_555

#END
