
#######################################################################
#
#                 Cambridge Crystallographic Data Centre
#                                CCDC 
#
#######################################################################
#
# If this CIF has been generated from an entry in the Cambridge 
# Structural Database, then it will include bibliographic, chemical, 
# crystal, experimental, refinement or atomic coordinate data resulting 
# from the CCDC's data processing and validation procedures.
#
#######################################################################

data_XEGJUO
_chemical_name_common            N-(2-Nitrophenylthio)saccharin
_chemical_formula_moiety         'C13 H8 N2 O5 S2'
_chemical_name_systematic        
'2-(2-Nitrophenylthio)-1,2-benzothiazol-3(2H)-one 1,1-dioxide'
_symmetry_cell_setting           monoclinic
_symmetry_space_group_name_H-M   'C 2/c'
_symmetry_Int_Tables_number      15
_space_group_name_Hall           '-C 2yn'
loop_
_symmetry_equiv_pos_site_id
_symmetry_equiv_pos_as_xyz
1 x,y,z
2 x,-y,1/2+z
3 1/2+x,1/2+y,z
4 1/2+x,1/2-y,1/2+z
5 -x,-y,-z
6 -x,y,1/2-z
7 1/2-x,1/2-y,-z
8 1/2-x,1/2+y,1/2-z
_cell_length_a                   23.6968(15)
_cell_length_b                   7.6510(5)
_cell_length_c                   15.1664(10)
_cell_angle_alpha                90
_cell_angle_beta                 92.3600(10)
_cell_angle_gamma                90
_cell_volume                     2747.4
_exptl_crystal_colour            yellow
_exptl_crystal_description       plate
_cell_formula_units_Z            8
_exptl_crystal_recrystallization_method ethanol
loop_
_atom_site_label
_atom_site_type_symbol
_atom_site_fract_x
_atom_site_fract_y
_atom_site_fract_z
S1 S 0.85203(3) 0.40865(8) 0.02879(4)
C1 C 0.91310(9) 0.3797(3) -0.03385(13)
C2 C 0.93616(9) 0.5201(3) -0.07903(13)
N1 N 0.91033(10) 0.6916(2) -0.07343(13)
O1 O 0.86521(9) 0.7009(2) -0.03682(13)
O2 O 0.93362(8) 0.8179(2) -0.10435(13)
C3 C 0.98344(10) 0.5039(3) -0.12831(14)
C4 C 1.00923(11) 0.3438(3) -0.13454(16)
C5 C 0.98689(10) 0.2026(3) -0.09110(15)
C6 C 0.94000(10) 0.2193(3) -0.04172(15)
N2 N 0.84796(8) 0.2100(2) 0.07937(12)
S2 S 0.87621(3) 0.18599(7) 0.18263(4)
O3 O 0.85659(9) 0.3214(2) 0.23753(11)
O4 O 0.93548(7) 0.1616(2) 0.17862(12)
C7 C 0.84104(9) -0.0115(3) 0.19775(14)
C8 C 0.80770(9) -0.0542(3) 0.12378(14)
C9 C 0.77640(10) -0.2066(3) 0.12412(16)
C10 C 0.78064(11) -0.3122(3) 0.19736(17)
C11 C 0.81389(12) -0.2679(3) 0.26993(17)
C12 C 0.84473(10) -0.1158(3) 0.27165(16)
C13 C 0.81064(9) 0.0754(3) 0.05071(15)
H1 H 0.9978 0.6006 -0.1571
H2 H 1.0412 0.3306 -0.1675
H3 H 1.0040 0.0938 -0.0955
H4 H 0.9260 0.1219 -0.0131
H5 H 0.7530 -0.2370 0.0758
H6 H 0.7604 -0.4163 0.1977
H7 H 0.8156 -0.3418 0.3187
H8 H 0.8672 -0.0845 0.3208
O5 O 0.78763(7) 0.0703(2) -0.02118(10)
loop_
_geom_bond_atom_site_label_1
_geom_bond_atom_site_label_2
_geom_bond_site_symmetry_1
_geom_bond_site_symmetry_2
S1 C1 1_555 1_555
C1 C2 1_555 1_555
C2 N1 1_555 1_555
N1 O1 1_555 1_555
O2 N1 1_555 1_555
C3 C2 1_555 1_555
C4 C3 1_555 1_555
C5 C4 1_555 1_555
C6 C1 1_555 1_555
N2 S1 1_555 1_555
S2 N2 1_555 1_555
O3 S2 1_555 1_555
O4 S2 1_555 1_555
C7 S2 1_555 1_555
C8 C7 1_555 1_555
C9 C8 1_555 1_555
C10 C9 1_555 1_555
C11 C10 1_555 1_555
C12 C7 1_555 1_555
C13 N2 1_555 1_555
H1 C3 1_555 1_555
H2 C4 1_555 1_555
H3 C5 1_555 1_555
H4 C6 1_555 1_555
H5 C9 1_555 1_555
H6 C10 1_555 1_555
H7 C11 1_555 1_555
H8 C12 1_555 1_555
O5 C13 1_555 1_555
C5 C6 1_555 1_555
C8 C13 1_555 1_555
C11 C12 1_555 1_555

#END
