
#######################################################################
#
#                 Cambridge Crystallographic Data Centre
#                                CCDC 
#
#######################################################################
#
# If this CIF has been generated from an entry in the Cambridge 
# Structural Database, then it will include bibliographic, chemical, 
# crystal, experimental, refinement or atomic coordinate data resulting 
# from the CCDC's data processing and validation procedures.
#
#######################################################################

data_XEGLOK
_chemical_formula_moiety         'C10 H12 N2 O6 S1'
_chemical_name_systematic        2-Methyl-N-(2-nitrophenylsulfonyl)alanine
_symmetry_cell_setting           monoclinic
_symmetry_space_group_name_H-M   'P 21/c'
_symmetry_Int_Tables_number      14
_space_group_name_Hall           '-P 2ybc'
loop_
_symmetry_equiv_pos_site_id
_symmetry_equiv_pos_as_xyz
1 x,y,z
2 x,1/2-y,1/2+z
3 -x,-y,-z
4 -x,1/2+y,1/2-z
_cell_length_a                   11.665(3)
_cell_length_b                   10.614(2)
_cell_length_c                   11.121(4)
_cell_angle_alpha                90
_cell_angle_beta                 117.80(2)
_cell_angle_gamma                90
_cell_volume                     1217.99
_exptl_crystal_colour            colorless
_exptl_crystal_description       prism
_cell_formula_units_Z            4
_exptl_crystal_recrystallization_method ethanol
loop_
_atom_site_label
_atom_site_type_symbol
_atom_site_fract_x
_atom_site_fract_y
_atom_site_fract_z
S1 S 0.72056(4) 0.74709(4) 0.66517(4)
O1 O 0.73513(12) 0.63104(13) 0.73690(13)
O2 O 0.69106(12) 0.86147(12) 0.71433(13)
O3 O 0.98574(12) 0.85716(12) 0.91026(12)
O4 O 0.94016(12) 1.05851(11) 0.84208(12)
O5 O 0.78235(12) 0.53798(12) 0.52256(14)
O6 O 0.62615(13) 0.40202(12) 0.44478(14)
N1 N 0.84935(14) 0.77553(14) 0.65117(15)
N2 N 0.66683(14) 0.50992(14) 0.46771(15)
C1 C 0.94529(15) 0.94668(16) 0.81806(16)
C2 C 0.91241(16) 0.89947(16) 0.67511(16)
C3 C 0.59119(16) 0.72314(16) 0.49805(16)
C4 C 0.49572(17) 0.81608(17) 0.44523(18)
H1 H 0.5051 0.8910 0.4956
C5 C 0.38713(17) 0.80018(19) 0.31969(19)
H2 H 0.3241 0.8652 0.2840
C6 C 0.37020(17) 0.69041(19) 0.24650(18)
H3 H 0.296 0.6804 0.1605
C7 C 0.46168(16) 0.59461(18) 0.29862(17)
H4 H 0.4492 0.5178 0.2502
C8 C 0.57152(16) 0.61270(16) 0.42241(17)
C9 C 1.04188(17) 0.87881(18) 0.6737(2)
H5 H 1.0929 0.8158 0.7424
H6 H 1.0899 0.9584 0.6942
H7 H 1.0256 0.8490 0.5837
C10 C 0.82947(18) 0.99529(18) 0.56642(18)
H8 H 0.8111 0.9634 0.4765
H9 H 0.8763 1.0754 0.5835
H10 H 0.7478 1.0085 0.5696
H11 H 1.010(3) 0.894(3) 0.991(3)
H12 H 0.887(2) 0.716(2) 0.648(3)
loop_
_geom_bond_atom_site_label_1
_geom_bond_atom_site_label_2
_geom_bond_site_symmetry_1
_geom_bond_site_symmetry_2
S1 O1 1_555 1_555
O2 S1 1_555 1_555
O3 C1 1_555 1_555
O4 C1 1_555 1_555
O5 N2 1_555 1_555
O6 N2 1_555 1_555
N1 S1 1_555 1_555
N2 C8 1_555 1_555
C1 C2 1_555 1_555
C2 N1 1_555 1_555
C3 S1 1_555 1_555
C4 C3 1_555 1_555
H1 C4 1_555 1_555
C5 C4 1_555 1_555
H2 C5 1_555 1_555
C6 C5 1_555 1_555
H3 C6 1_555 1_555
C7 C6 1_555 1_555
H4 C7 1_555 1_555
C8 C3 1_555 1_555
C9 C2 1_555 1_555
H5 C9 1_555 1_555
H6 C9 1_555 1_555
H7 C9 1_555 1_555
C10 C2 1_555 1_555
H8 C10 1_555 1_555
H9 C10 1_555 1_555
H10 C10 1_555 1_555
H11 O3 1_555 1_555
H12 N1 1_555 1_555
C7 C8 1_555 1_555

#END
