
#######################################################################
#
#                 Cambridge Crystallographic Data Centre
#                                CCDC 
#
#######################################################################
#
# If this CIF has been generated from an entry in the Cambridge 
# Structural Database, then it will include bibliographic, chemical, 
# crystal, experimental, refinement or atomic coordinate data resulting 
# from the CCDC's data processing and validation procedures.
#
#######################################################################

data_XEGSEJ
_chemical_formula_moiety         'C34 H29 N3 O2 S1,H2 O1'
_chemical_name_systematic        
'N-(But-2-en-1-yl)-N-(1,5-diphenylpyrazolo[5,1-a]isoquinolin-2-yl)-4-methylbenzenesulfonamide monohydrate'
_symmetry_cell_setting           monoclinic
_symmetry_space_group_name_H-M   'P 21/n'
_symmetry_Int_Tables_number      14
_space_group_name_Hall           '-P 2yn'
loop_
_symmetry_equiv_pos_site_id
_symmetry_equiv_pos_as_xyz
1 x,y,z
2 1/2-x,1/2+y,1/2-z
3 -x,-y,-z
4 1/2+x,1/2-y,1/2+z
_cell_length_a                   10.193(4)
_cell_length_b                   19.516(7)
_cell_length_c                   15.403(5)
_cell_angle_alpha                90
_cell_angle_beta                 99.406(5)
_cell_angle_gamma                90
_cell_volume                     3022.87
_exptl_crystal_colour            colorless
_exptl_crystal_description       block
_cell_formula_units_Z            4
loop_
_atom_site_label
_atom_site_type_symbol
_atom_site_fract_x
_atom_site_fract_y
_atom_site_fract_z
S1 S 0.38506(10) 0.24416(5) 0.08682(7)
O1 O 0.3503(3) 0.28646(14) 0.01088(17)
O2 O 0.4121(3) 0.17329(14) 0.0764(2)
N1 N 0.2357(2) 0.36149(12) 0.18920(17)
N2 N 0.2596(3) 0.24738(12) 0.14111(18)
N3 N 0.1418(2) 0.41064(12) 0.16995(16)
C1 C 0.3960(4) 0.47781(18) 0.2652(3)
H1 H 0.4109 0.4527 0.2165
C2 C 0.5034(4) 0.5009(2) 0.3248(3)
H2 H 0.5895 0.4920 0.3152
C3 C 0.4837(6) 0.5366(2) 0.3972(3)
H3 H 0.5562 0.5514 0.4375
C4 C 0.3550(6) 0.5510(2) 0.4111(3)
H4 H 0.3414 0.5758 0.4604
C5 C 0.2482(4) 0.52857(18) 0.3518(2)
H5 H 0.1623 0.5381 0.3614
C6 C 0.2673(3) 0.49134(16) 0.2768(2)
C7 C 0.1511(3) 0.47477(15) 0.2110(2)
C8 C 0.0484(3) 0.51832(16) 0.1853(2)
H6 H 0.0508 0.5610 0.2124
C9 C -0.0615(3) 0.50299(17) 0.1202(2)
C10 C -0.1616(4) 0.5509(2) 0.0915(3)
H7 H -0.1586 0.5934 0.1190
C11 C -0.2626(5) 0.5372(2) 0.0248(3)
H8 H -0.3279 0.5698 0.0066
C12 C -0.2666(4) 0.4739(2) -0.0155(3)
H9 H -0.3350 0.4644 -0.0617
C13 C -0.1739(4) 0.42502(19) 0.0102(2)
H10 H -0.1798 0.3827 -0.0179
C14 C -0.0692(3) 0.43827(16) 0.0791(2)
C15 C 0.0352(3) 0.38948(15) 0.10873(19)
C16 C 0.0634(3) 0.32186(15) 0.08784(19)
C17 C -0.0215(3) 0.27053(16) 0.0335(2)
C18 C -0.1441(4) 0.25273(18) 0.0538(2)
H11 H -0.1755 0.2746 0.1000
C19 C -0.2206(4) 0.2026(2) 0.0063(3)
H12 H -0.3035 0.1914 0.0200
C20 C -0.1735(5) 0.1691(2) -0.0620(3)
H13 H -0.2239 0.1349 -0.0937
C21 C -0.0543(5) 0.1865(2) -0.0817(3)
H14 H -0.0230 0.1641 -0.1275
C22 C 0.0235(4) 0.23732(18) -0.0352(2)
H15 H 0.1053 0.2488 -0.0503
C23 C 0.1876(3) 0.30948(15) 0.1385(2)
C24 C 0.2698(4) 0.20644(19) 0.2244(3)
H16 H 0.3254 0.1666 0.2201
H17 H 0.3123 0.2341 0.2734
C25 C 0.1395(5) 0.1840(2) 0.2415(3)
H18 H 0.0772 0.1721 0.1928
C26 C 0.1030(6) 0.1790(3) 0.3163(4)
H19 H 0.1633 0.1944 0.3642
C27 C -0.0238(7) 0.1517(4) 0.3360(5)
H20 H -0.0881 0.1505 0.2830
H21 H -0.0558 0.1807 0.3784
H22 H -0.0101 0.1062 0.3594
C28 C 0.5236(3) 0.27981(19) 0.1535(2)
C29 C 0.5969(4) 0.2428(2) 0.2191(3)
H23 H 0.5745 0.1975 0.2279
C30 C 0.7037(5) 0.2718(3) 0.2724(3)
H24 H 0.7498 0.2462 0.3184
C31 C 0.7442(4) 0.3374(3) 0.2596(3)
C32 C 0.8662(5) 0.3653(4) 0.3148(4)
H25 H 0.9435 0.3483 0.2936
H26 H 0.8688 0.3512 0.3748
H27 H 0.8649 0.4145 0.3117
C33 C 0.6706(4) 0.3754(2) 0.1922(3)
H28 H 0.6956 0.4203 0.1824
C34 C 0.5620(4) 0.3476(2) 0.1401(3)
H29 H 0.5134 0.3738 0.0956
O4 O 0.8568(4) 0.5487(2) 0.3692(4)
H32 H 0.9228 0.5220 0.3694
H33 H 0.8381 0.5660 0.3180
O3? O 0.0319(5) 0.47204(19) 0.5082(3)
H30? H 0.0452 0.4291 0.5117
H31? H 0.1068 0.4918 0.5219
loop_
_geom_bond_atom_site_label_1
_geom_bond_atom_site_label_2
_geom_bond_site_symmetry_1
_geom_bond_site_symmetry_2
S1 O1 1_555 1_555
O2 S1 1_555 1_555
N1 N3 1_555 1_555
N2 S1 1_555 1_555
N3 C7 1_555 1_555
C1 H1 1_555 1_555
C2 C1 1_555 1_555
H2 C2 1_555 1_555
C3 C2 1_555 1_555
H3 C3 1_555 1_555
C4 C3 1_555 1_555
H4 C4 1_555 1_555
C5 C4 1_555 1_555
H5 C5 1_555 1_555
C6 C1 1_555 1_555
C7 C6 1_555 1_555
C8 C7 1_555 1_555
H6 C8 1_555 1_555
C9 C8 1_555 1_555
C10 C9 1_555 1_555
H7 C10 1_555 1_555
C11 C10 1_555 1_555
H8 C11 1_555 1_555
C12 C11 1_555 1_555
H9 C12 1_555 1_555
C13 C12 1_555 1_555
H10 C13 1_555 1_555
C14 C9 1_555 1_555
C15 N3 1_555 1_555
C16 C15 1_555 1_555
C17 C16 1_555 1_555
C18 C17 1_555 1_555
H11 C18 1_555 1_555
C19 C18 1_555 1_555
H12 C19 1_555 1_555
C20 C19 1_555 1_555
H13 C20 1_555 1_555
C21 C20 1_555 1_555
H14 C21 1_555 1_555
C22 C17 1_555 1_555
H15 C22 1_555 1_555
C23 N1 1_555 1_555
C24 N2 1_555 1_555
H16 C24 1_555 1_555
H17 C24 1_555 1_555
C25 C24 1_555 1_555
H18 C25 1_555 1_555
C26 C25 1_555 1_555
H19 C26 1_555 1_555
C27 C26 1_555 1_555
H20 C27 1_555 1_555
H21 C27 1_555 1_555
H22 C27 1_555 1_555
C28 S1 1_555 1_555
C29 C28 1_555 1_555
H23 C29 1_555 1_555
C30 C29 1_555 1_555
H24 C30 1_555 1_555
C31 C30 1_555 1_555
C32 C31 1_555 1_555
H25 C32 1_555 1_555
H26 C32 1_555 1_555
H27 C32 1_555 1_555
C33 C31 1_555 1_555
H28 C33 1_555 1_555
C34 C28 1_555 1_555
H29 C34 1_555 1_555
O4 H32 1_555 1_555
H33 O4 1_555 1_555
N2 C23 1_555 1_555
C5 C6 1_555 1_555
C13 C14 1_555 1_555
C14 C15 1_555 1_555
C16 C23 1_555 1_555
C21 C22 1_555 1_555
C33 C34 1_555 1_555

#END
