
#######################################################################
#
#                 Cambridge Crystallographic Data Centre
#                                CCDC 
#
#######################################################################
#
# If this CIF has been generated from an entry in the Cambridge 
# Structural Database, then it will include bibliographic, chemical, 
# crystal, experimental, refinement or atomic coordinate data resulting 
# from the CCDC's data processing and validation procedures.
#
#######################################################################

data_XEGSUX
_chemical_formula_moiety         'C12 H14 O1 S2'
_chemical_name_systematic        1-(1,3-Dithian-2-yl)-2-phenylethanone
_symmetry_cell_setting           orthorhombic
_symmetry_space_group_name_H-M   'P b c a'
_symmetry_Int_Tables_number      61
_space_group_name_Hall           '-P 2ac 2ab'
loop_
_symmetry_equiv_pos_site_id
_symmetry_equiv_pos_as_xyz
1 x,y,z
2 1/2-x,-y,1/2+z
3 -x,1/2+y,1/2-z
4 1/2+x,1/2-y,-z
5 -x,-y,-z
6 1/2+x,y,1/2-z
7 x,1/2-y,1/2+z
8 1/2-x,1/2+y,z
_cell_length_a                   11.7350(10)
_cell_length_b                   9.7750(10)
_cell_length_c                   20.695(2)
_cell_angle_alpha                90
_cell_angle_beta                 90
_cell_angle_gamma                90
_cell_volume                     2373.92
_exptl_crystal_colour            colorless
_exptl_crystal_description       block
_chemical_melting_point          89-91deg.C
_cell_formula_units_Z            8
_exptl_crystal_recrystallization_method 'ethyl acetate/petrol 3:7'
loop_
_atom_site_label
_atom_site_type_symbol
_atom_site_fract_x
_atom_site_fract_y
_atom_site_fract_z
S1 S 0.48994(3) 0.59505(3) 0.65416(2)
C1 C 0.64252(11) 0.61342(13) 0.66530(7)
H1 H 0.6608(14) 0.6993(17) 0.6470(7)
S2 S 0.68889(3) 0.62686(4) 0.74854(2)
C2 C 0.62280(14) 0.4769(2) 0.78525(7)
H2 H 0.6595(15) 0.3953(19) 0.7685(9)
H3 H 0.6423(16) 0.4865(19) 0.8299(9)
C3 C 0.49440(14) 0.4710(2) 0.77603(7)
H4 H 0.4605(16) 0.552(2) 0.7917(8)
H5 H 0.4676(17) 0.394(2) 0.8015(9)
C4 C 0.46002(13) 0.4495(2) 0.70603(7)
H6 H 0.4962(15) 0.3682(18) 0.6874(9)
H7 H 0.3778(17) 0.439(2) 0.7010(9)
C5 C 0.70525(11) 0.50212(14) 0.62758(7)
C6 C 0.76882(14) 0.55363(15) 0.56895(7)
H8 H 0.8248(18) 0.618(2) 0.5861(10)
H9 H 0.7169(17) 0.611(2) 0.5444(10)
C7 C 0.82069(12) 0.44404(13) 0.52689(6)
C8 C 0.76505(14) 0.3998(2) 0.47125(7)
H10 H 0.6950(16) 0.441(2) 0.4600(9)
C9 C 0.8134(2) 0.2995(2) 0.43202(8)
H11 H 0.7756(18) 0.271(2) 0.3957(10)
C10 C 0.9180(2) 0.2429(2) 0.44811(8)
H12 H 0.9480(18) 0.177(2) 0.4217(10)
C11 C 0.97398(15) 0.2862(2) 0.50329(8)
H13 H 1.0457(17) 0.249(2) 0.5152(10)
C12 C 0.92543(13) 0.38626(15) 0.54254(7)
H14 H 0.9637(16) 0.4174(18) 0.5794(9)
O1 O 0.70427(12) 0.38295(11) 0.64389(6)
loop_
_geom_bond_atom_site_label_1
_geom_bond_atom_site_label_2
_geom_bond_site_symmetry_1
_geom_bond_site_symmetry_2
S1 C1 1_555 1_555
C1 H1 1_555 1_555
S2 C1 1_555 1_555
C2 S2 1_555 1_555
H2 C2 1_555 1_555
H3 C2 1_555 1_555
C3 C2 1_555 1_555
H4 C3 1_555 1_555
H5 C3 1_555 1_555
C4 S1 1_555 1_555
H6 C4 1_555 1_555
H7 C4 1_555 1_555
C5 C1 1_555 1_555
C6 C5 1_555 1_555
H8 C6 1_555 1_555
H9 C6 1_555 1_555
C7 C6 1_555 1_555
C8 C7 1_555 1_555
H10 C8 1_555 1_555
C9 C8 1_555 1_555
H11 C9 1_555 1_555
C10 C9 1_555 1_555
H12 C10 1_555 1_555
C11 C10 1_555 1_555
H13 C11 1_555 1_555
C12 C7 1_555 1_555
H14 C12 1_555 1_555
O1 C5 1_555 1_555
C3 C4 1_555 1_555
C11 C12 1_555 1_555

#END
