
#######################################################################
#
#                 Cambridge Crystallographic Data Centre
#                                CCDC 
#
#######################################################################
#
# If this CIF has been generated from an entry in the Cambridge 
# Structural Database, then it will include bibliographic, chemical, 
# crystal, experimental, refinement or atomic coordinate data resulting 
# from the CCDC's data processing and validation procedures.
#
#######################################################################

data_XEGSOT
_chemical_formula_moiety         'C34 H28 Cl1 N3 O2 S1'
_chemical_name_systematic        
N-(But-3-en-2-yl)-N-(1-(4-chlorophenyl)-5-phenylpyrazolo[5,1-a]isoquinolin-2-yl)-4-methylbenzenesulfonamide
_symmetry_cell_setting           triclinic
_symmetry_space_group_name_H-M   'P -1'
_symmetry_Int_Tables_number      2
_space_group_name_Hall           '-P 1'
loop_
_symmetry_equiv_pos_site_id
_symmetry_equiv_pos_as_xyz
1 x,y,z
2 -x,-y,-z
_cell_length_a                   9.394(6)
_cell_length_b                   16.031(10)
_cell_length_c                   21.988(13)
_cell_angle_alpha                73.431(9)
_cell_angle_beta                 87.436(9)
_cell_angle_gamma                82.031(9)
_cell_volume                     3143.1
_exptl_crystal_colour            colorless
_exptl_crystal_description       rod
_cell_formula_units_Z            4
loop_
_atom_site_label
_atom_site_type_symbol
_atom_site_fract_x
_atom_site_fract_y
_atom_site_fract_z
Cl1 Cl 0.70554(17) 0.62509(13) 0.00214(7)
N1 N 0.2005(3) 0.57717(19) 0.23978(14)
N2 N 0.2452(3) 0.4479(2) 0.32364(15)
N3 N 0.3503(3) 0.37780(19) 0.33789(14)
O1 O -0.0072(3) 0.65987(18) 0.17549(12)
O2 O 0.0605(3) 0.50202(18) 0.18572(12)
S1 S 0.04323(11) 0.57309(7) 0.21345(5)
C1 C -0.0761(4) 0.5471(3) 0.27744(17)
C2 C -0.0922(5) 0.4617(3) 0.3082(2)
H1 H -0.0377 0.4167 0.2952
C3 C -0.1856(5) 0.4415(3) 0.3571(2)
H2 H -0.1938 0.3828 0.3771
C4 C -0.2688(6) 0.5055(4) 0.3780(2)
C5 C -0.2496(6) 0.5907(4) 0.3484(2)
H3 H -0.3016 0.6352 0.3628
C6 C -0.1556(5) 0.6133(3) 0.2979(2)
H4 H -0.1462 0.6719 0.2780
C7 C -0.3742(7) 0.4824(4) 0.4321(3)
H5 H -0.4705 0.4989 0.4161
H6 H -0.3604 0.5132 0.4625
H7 H -0.3587 0.4203 0.4522
C8 C 0.2863(4) 0.4967(2) 0.26855(18)
C9 C 0.4165(4) 0.4623(2) 0.24589(17)
C10 C 0.4880(4) 0.5017(2) 0.18612(19)
C11 C 0.4169(4) 0.5230(2) 0.12849(19)
H8 H 0.3230 0.5107 0.1283
C12 C 0.4807(5) 0.5613(3) 0.0720(2)
H9 H 0.4314 0.5744 0.0340
C13 C 0.6204(5) 0.5803(3) 0.0727(2)
C14 C 0.6908(5) 0.5626(3) 0.1294(2)
H10 H 0.7828 0.5777 0.1298
C15 C 0.6276(5) 0.5235(3) 0.1844(2)
H11 H 0.6779 0.5107 0.2221
C16 C 0.4557(4) 0.3846(2) 0.29246(18)
C17 C 0.5709(4) 0.3106(3) 0.30160(19)
C18 C 0.6826(4) 0.3080(3) 0.25841(19)
H12 H 0.6886 0.3555 0.2228
C19 C 0.7856(5) 0.2344(3) 0.2684(2)
H13 H 0.8592 0.2323 0.2389
C20 C 0.7793(6) 0.1649(3) 0.3214(3)
H14 H 0.8499 0.1164 0.3284
C21 C 0.6698(6) 0.1667(3) 0.3638(2)
H15 H 0.6658 0.1185 0.3991
C22 C 0.5626(5) 0.2393(3) 0.3556(2)
C23 C 0.4487(5) 0.2406(3) 0.39862(19)
H16 H 0.4474 0.1926 0.4343
C24 C 0.3411(5) 0.3070(3) 0.39145(18)
C25 C 0.2191(5) 0.3110(3) 0.4359(2)
C26 C 0.1346(7) 0.2457(4) 0.4498(3)
H17 H 0.1509 0.2016 0.4296
C27 C 0.0237(9) 0.2445(6) 0.4942(4)
H18 H -0.0328 0.1991 0.5044
C28 C -0.0007(8) 0.3092(7) 0.5222(3)
H19 H -0.0747 0.3083 0.5518
C29 C 0.0786(8) 0.3745(5) 0.5085(3)
H20 H 0.0587 0.4191 0.5282
C30 C 0.1903(6) 0.3772(4) 0.4654(2)
H21 H 0.2457 0.4231 0.4562
C31 C 0.2263(6) 0.6562(3) 0.2587(3)
H22 H 0.1457 0.7023 0.2431
C32 C 0.2314(10) 0.6380(4) 0.3291(4)
H23 H 0.1435 0.6287 0.3493
C33 C 0.307(3) 0.6340(16) 0.3572(13)
H24 H 0.3993 0.6424 0.3412
H25 H 0.2899 0.6219 0.4006
C34 C 0.3645(9) 0.6913(4) 0.2290(4)
Cl2 Cl 0.4396(2) -0.26672(10) 0.44810(7)
N4 N 0.8569(4) -0.0539(2) 0.20754(16)
N5 N 0.7645(3) 0.0944(2) 0.15629(15)
N6 N 0.6460(3) 0.1485(2) 0.16306(14)
O3 O 0.9846(3) -0.0031(2) 0.28118(14)
O4 O 1.0701(4) -0.1454(2) 0.26239(16)
S2 S 1.01086(14) -0.05499(9) 0.23903(6)
C35 C 1.1245(5) -0.0064(4) 0.1788(2)
C36 C 1.2242(7) -0.0559(4) 0.1512(3)
H27 H 1.2309 -0.1168 0.1645
C37 C 1.3115(8) -0.0171(7) 0.1054(4)
H28 H 1.3756 -0.0525 0.0869
C38 C 1.3119(7) 0.0694(7) 0.0848(4)
C39 C 1.2120(7) 0.1219(5) 0.1108(3)
H29 H 1.2072 0.1828 0.0970
C40 C 1.1198(6) 0.0826(5) 0.1576(3)
H30 H 1.0528 0.1177 0.1752
C41 C 1.4181(8) 0.1133(6) 0.0354(4)
H31 H 1.4803 0.0692 0.0217
H32 H 1.4746 0.1454 0.0537
H33 H 1.3662 0.1528 -0.0004
C42 C 0.7494(4) 0.0216(3) 0.2018(2)
C43 C 0.6257(5) 0.0255(3) 0.23831(18)
C44 C 0.5807(5) -0.0457(2) 0.29023(18)
C45 C 0.6674(5) -0.0891(3) 0.3421(2)
H34 H 0.7569 -0.0717 0.3445
C46 C 0.6248(6) -0.1574(3) 0.3901(2)
H35 H 0.6845 -0.1856 0.4245
C47 C 0.4964(7) -0.1826(3) 0.3866(2)
C48 C 0.4042(5) -0.1423(3) 0.3369(2)
H36 H 0.3147 -0.1603 0.3356
C49 C 0.4480(5) -0.0747(3) 0.2891(2)
H37 H 0.3872 -0.0475 0.2549
C50 C 0.5583(4) 0.1104(2) 0.21226(17)
C51 C 0.4298(4) 0.1634(2) 0.22487(17)
C52 C 0.3358(5) 0.1325(3) 0.2747(2)
H38 H 0.3561 0.0763 0.3022
C53 C 0.2113(5) 0.1866(3) 0.2829(2)
H39 H 0.1483 0.1662 0.3159
C54 C 0.1806(5) 0.2697(3) 0.2427(3)
H40 H 0.0961 0.3045 0.2484
C55 C 0.2707(5) 0.3012(3) 0.1955(2)
H41 H 0.2480 0.3578 0.1690
C56 C 0.4007(4) 0.2496(2) 0.18483(19)
C57 C 0.4979(4) 0.2828(2) 0.13678(18)
H42 H 0.4763 0.3403 0.1115
C58 C 0.6213(4) 0.2355(3) 0.12537(17)
C59 C 0.7269(5) 0.2705(3) 0.0769(2)
C60 C 0.7768(6) 0.3475(4) 0.0758(3)
H43 H 0.7465 0.3753 0.1068
C61 C 0.8722(8) 0.3845(5) 0.0289(3)
H44 H 0.9087 0.4353 0.0294
C62 C 0.9117(7) 0.3447(7) -0.0183(3)
H45 H 0.9733 0.3695 -0.0507
C63 C 0.8620(9) 0.2714(6) -0.0175(3)
H46 H 0.8888 0.2455 -0.0499
C64 C 0.7728(6) 0.2322(4) 0.0293(3)
H47 H 0.7426 0.1794 0.0292
C65 C 0.8488(6) -0.1099(4) 0.1656(3)
H48 H 0.9275 -0.1584 0.1768
C66 C 0.7101(9) -0.1481(4) 0.1787(4)
C67 C 0.8663(7) -0.0608(4) 0.0954(4)
H50 H 0.8400 -0.0003 0.0829
C68 C 0.9093(14) -0.0935(9) 0.0581(6)
H51 H 0.9366 -0.1539 0.0691
H52 H 0.9175 -0.0600 0.0162
H26? H 0.4359 0.6940 0.2561
H49? H 0.6475 -0.1395 0.2110
C69? C 0.384(2) 0.7130(11) 0.1789(8)
C70? C 0.690(3) -0.1849(16) 0.1489(11)
H53? H 0.3146 0.7112 0.1506
H54? H 0.4702 0.7337 0.1638
H55? H 0.7551 -0.1919 0.1172
H56? H 0.6056 -0.2109 0.1539
loop_
_geom_bond_atom_site_label_1
_geom_bond_atom_site_label_2
_geom_bond_site_symmetry_1
_geom_bond_site_symmetry_2
Cl1 C13 1_555 1_555
N1 S1 1_555 1_555
N2 N3 1_555 1_555
N3 C16 1_555 1_555
O1 S1 1_555 1_555
O2 S1 1_555 1_555
S1 C1 1_555 1_555
C1 C2 1_555 1_555
C2 H1 1_555 1_555
C3 C2 1_555 1_555
H2 C3 1_555 1_555
C4 C3 1_555 1_555
C5 C4 1_555 1_555
H3 C5 1_555 1_555
C6 C1 1_555 1_555
H4 C6 1_555 1_555
C7 C4 1_555 1_555
H5 C7 1_555 1_555
H6 C7 1_555 1_555
H7 C7 1_555 1_555
C8 N1 1_555 1_555
C9 C8 1_555 1_555
C10 C9 1_555 1_555
C11 C10 1_555 1_555
H8 C11 1_555 1_555
C12 C11 1_555 1_555
H9 C12 1_555 1_555
C13 C12 1_555 1_555
C14 C13 1_555 1_555
H10 C14 1_555 1_555
C15 C10 1_555 1_555
H11 C15 1_555 1_555
C16 C9 1_555 1_555
C17 C16 1_555 1_555
C18 C17 1_555 1_555
H12 C18 1_555 1_555
C19 C18 1_555 1_555
H13 C19 1_555 1_555
C20 C19 1_555 1_555
H14 C20 1_555 1_555
C21 C20 1_555 1_555
H15 C21 1_555 1_555
C22 C17 1_555 1_555
C23 C22 1_555 1_555
H16 C23 1_555 1_555
C24 N3 1_555 1_555
C25 C24 1_555 1_555
C26 C25 1_555 1_555
H17 C26 1_555 1_555
C27 C26 1_555 1_555
H18 C27 1_555 1_555
C28 C27 1_555 1_555
H19 C28 1_555 1_555
C29 C28 1_555 1_555
H20 C29 1_555 1_555
C30 C25 1_555 1_555
H21 C30 1_555 1_555
C31 N1 1_555 1_555
H22 C31 1_555 1_555
C32 C31 1_555 1_555
H23 C32 1_555 1_555
C33 C32 1_555 1_555
H24 C33 1_555 1_555
H25 C33 1_555 1_555
C34 C31 1_555 1_555
Cl2 C47 1_555 1_555
N4 S2 1_555 1_555
N5 N6 1_555 1_555
N6 C50 1_555 1_555
O3 S2 1_555 1_555
O4 S2 1_555 1_555
S2 C35 1_555 1_555
C35 C36 1_555 1_555
C36 H27 1_555 1_555
C37 C36 1_555 1_555
H28 C37 1_555 1_555
C38 C37 1_555 1_555
C39 C38 1_555 1_555
H29 C39 1_555 1_555
C40 C35 1_555 1_555
H30 C40 1_555 1_555
C41 C38 1_555 1_555
H31 C41 1_555 1_555
H32 C41 1_555 1_555
H33 C41 1_555 1_555
C42 N4 1_555 1_555
C43 C42 1_555 1_555
C44 C43 1_555 1_555
C45 C44 1_555 1_555
H34 C45 1_555 1_555
C46 C45 1_555 1_555
H35 C46 1_555 1_555
C47 C46 1_555 1_555
C48 C47 1_555 1_555
H36 C48 1_555 1_555
C49 C44 1_555 1_555
H37 C49 1_555 1_555
C50 C43 1_555 1_555
C51 C50 1_555 1_555
C52 C51 1_555 1_555
H38 C52 1_555 1_555
C53 C52 1_555 1_555
H39 C53 1_555 1_555
C54 C53 1_555 1_555
H40 C54 1_555 1_555
C55 C54 1_555 1_555
H41 C55 1_555 1_555
C56 C51 1_555 1_555
C57 C56 1_555 1_555
H42 C57 1_555 1_555
C58 N6 1_555 1_555
C59 C58 1_555 1_555
C60 C59 1_555 1_555
H43 C60 1_555 1_555
C61 C60 1_555 1_555
H44 C61 1_555 1_555
C62 C61 1_555 1_555
H45 C62 1_555 1_555
C63 C62 1_555 1_555
H46 C63 1_555 1_555
C64 C59 1_555 1_555
H47 C64 1_555 1_555
C65 N4 1_555 1_555
H48 C65 1_555 1_555
C66 C65 1_555 1_555
C67 C65 1_555 1_555
H50 C67 1_555 1_555
C68 C67 1_555 1_555
H51 C68 1_555 1_555
H52 C68 1_555 1_555
N2 C8 1_555 1_555
C5 C6 1_555 1_555
C14 C15 1_555 1_555
C21 C22 1_555 1_555
C23 C24 1_555 1_555
C29 C30 1_555 1_555
N5 C42 1_555 1_555
C39 C40 1_555 1_555
C48 C49 1_555 1_555
C55 C56 1_555 1_555
C57 C58 1_555 1_555
C63 C64 1_555 1_555

#END
