
#######################################################################
#
#                 Cambridge Crystallographic Data Centre
#                                CCDC 
#
#######################################################################
#
# If this CIF has been generated from an entry in the Cambridge 
# Structural Database, then it will include bibliographic, chemical, 
# crystal, experimental, refinement or atomic coordinate data resulting 
# from the CCDC's data processing and validation procedures.
#
#######################################################################

data_XEGTAE
_chemical_compound_source        'Myoporum bontioides'
_chemical_name_common            
3beta-Angloyloxy-4alpha-acetoxy-5alphaH-furanoeudesmane
_chemical_formula_moiety         'C22 H30 O5'
_chemical_name_systematic        Furanoeudesmane-B
_chemical_properties_biological  'antipyretic and detoxicate activity'
_symmetry_cell_setting           orthorhombic
_symmetry_space_group_name_H-M   'P 21 21 21'
_symmetry_Int_Tables_number      19
_space_group_name_Hall           'P 2ac 2ab'
loop_
_symmetry_equiv_pos_site_id
_symmetry_equiv_pos_as_xyz
1 x,y,z
2 1/2-x,-y,1/2+z
3 -x,1/2+y,1/2-z
4 1/2+x,1/2-y,-z
_cell_length_a                   8.8540(10)
_cell_length_b                   12.1220(10)
_cell_length_c                   17.708(2)
_cell_angle_alpha                90
_cell_angle_beta                 90
_cell_angle_gamma                90
_cell_volume                     1900.57
_exptl_crystal_colour            colorless
_exptl_crystal_description       block
_chemical_melting_point          '474-475 K'
_cell_formula_units_Z            4
_exptl_crystal_recrystallization_method ethanol
loop_
_atom_site_label
_atom_site_type_symbol
_atom_site_fract_x
_atom_site_fract_y
_atom_site_fract_z
O1 O 0.8868(2) -0.33387(13) 1.13666(9)
O2 O 0.7934(2) 0.08168(12) 0.94647(8)
O3 O 0.8237(2) -0.05402(15) 0.87217(9)
O4 O 1.0715(2) 0.17485(13) 0.90985(8)
O5 O 1.1944(3) 0.1088(2) 0.82234(11)
C1 C 1.2085(3) -0.0684(2) 1.01138(13)
H1 H 1.29940 -0.07730 1.03680
H2 H 1.19020 -0.12720 0.97540
C2 C 1.2133(3) 0.0483(2) 0.98130(13)
H3 H 1.22960 0.10770 1.01990
H4 H 1.29550 0.05410 0.96060
C3 C 1.0728(3) 0.06705(18) 0.94176(11)
H5 H 1.05840 0.02080 0.90440
C4 C 0.9330(3) 0.06386(17) 0.98797(10)
C5 C 0.9232(3) -0.05092(17) 1.02170(11)
H6 H 0.91000 -0.10010 0.97770
C6 C 0.7839(3) -0.06505(18) 1.06645(12)
H7 H 0.77790 -0.00250 1.10050
H8 H 0.69110 -0.05390 1.04330
C7 C 0.7883(3) -0.17564(18) 1.10221(11)
C8 C 0.9100(3) -0.23626(18) 1.10075(12)
C9 C 1.0591(3) -0.2146(2) 1.06945(12)
H9 H 1.13390 -0.23160 1.08940
H10 H 1.06630 -0.24970 1.02950
C10 C 1.0720(3) -0.08926(17) 1.05685(11)
C11 C 0.6762(3) -0.23234(19) 1.13978(14)
C12 C 0.7415(3) -0.3262(2) 1.15965(13)
H11 H 0.70720 -0.39950 1.18540
C13 C 0.5154(3) -0.1954(2) 1.15280(15)
H12 H 0.50210 -0.12250 1.13330
H13 H 0.49590 -0.19370 1.20710
H14 H 0.44720 -0.24530 1.12970
C14 C 0.9241(3) 0.16239(18) 1.03529(13)
H15 H 0.83220 0.15890 1.06530
H16 H 0.92220 0.22680 1.00490
H17 H 1.00890 0.16440 1.06910
C15 C 0.7592(3) 0.02475(19) 0.89090(13)
C16 C 0.6200(3) 0.0705(2) 0.85794(17)
H18 H 0.59260 0.13700 0.88470
H19 H 0.54170 0.01780 0.86150
H20 H 0.63910 0.08890 0.80590
C17 C 1.1330(3) 0.1847(2) 0.84955(13)
C18 C 1.1106(4) 0.3026(3) 0.82369(14)
C19 C 1.2114(5) 0.3447(3) 0.78680(15)
H21 H 1.17730 0.43070 0.76930
C20 C 0.9568(4) 0.3584(2) 0.84507(18)
H22 H 0.89630 0.30910 0.87330
H23 H 0.90370 0.37970 0.79920
H24 H 0.97580 0.42470 0.87390
C21 C 1.3502(4) 0.2963(3) 0.76509(16)
H25 H 1.40890 0.34900 0.73690
H26 H 1.33290 0.23220 0.73540
H27 H 1.40650 0.27610 0.81010
C22 C 1.0972(3) -0.0324(2) 1.12993(11)
H28 H 1.01040 -0.04490 1.16010
H29 H 1.11030 0.04370 1.11940
H30 H 1.18480 -0.06350 1.15200
loop_
_geom_bond_atom_site_label_1
_geom_bond_atom_site_label_2
_geom_bond_site_symmetry_1
_geom_bond_site_symmetry_2
O1 C8 1_555 1_555
O2 C4 1_555 1_555
O3 C15 1_555 1_555
O4 C3 1_555 1_555
O5 C17 1_555 1_555
C1 H1 1_555 1_555
H2 C1 1_555 1_555
C2 C1 1_555 1_555
H3 C2 1_555 1_555
H4 C2 1_555 1_555
C3 C2 1_555 1_555
H5 C3 1_555 1_555
C4 C3 1_555 1_555
C5 C4 1_555 1_555
H6 C5 1_555 1_555
C6 C5 1_555 1_555
H7 C6 1_555 1_555
H8 C6 1_555 1_555
C7 C6 1_555 1_555
C8 C7 1_555 1_555
C9 C8 1_555 1_555
H9 C9 1_555 1_555
H10 C9 1_555 1_555
C10 C1 1_555 1_555
C11 C7 1_555 1_555
C12 O1 1_555 1_555
H11 C12 1_555 1_555
C13 C11 1_555 1_555
H12 C13 1_555 1_555
H13 C13 1_555 1_555
H14 C13 1_555 1_555
C14 C4 1_555 1_555
H15 C14 1_555 1_555
H16 C14 1_555 1_555
H17 C14 1_555 1_555
C15 O2 1_555 1_555
C16 C15 1_555 1_555
H18 C16 1_555 1_555
H19 C16 1_555 1_555
H20 C16 1_555 1_555
C17 O4 1_555 1_555
C18 C17 1_555 1_555
C19 C18 1_555 1_555
H21 C19 1_555 1_555
C20 C18 1_555 1_555
H22 C20 1_555 1_555
H23 C20 1_555 1_555
H24 C20 1_555 1_555
C21 C19 1_555 1_555
H25 C21 1_555 1_555
H26 C21 1_555 1_555
H27 C21 1_555 1_555
C22 C10 1_555 1_555
H28 C22 1_555 1_555
H29 C22 1_555 1_555
H30 C22 1_555 1_555
C5 C10 1_555 1_555
C9 C10 1_555 1_555
C11 C12 1_555 1_555

#END
