
#######################################################################
#
#                 Cambridge Crystallographic Data Centre
#                                CCDC 
#
#######################################################################
#
# If this CIF has been generated from an entry in the Cambridge 
# Structural Database, then it will include bibliographic, chemical, 
# crystal, experimental, refinement or atomic coordinate data resulting 
# from the CCDC's data processing and validation procedures.
#
#######################################################################

data_XEGVUC
_chemical_formula_moiety         'C27 H28 Br1 N1 O6'
_chemical_name_systematic        
'Ethyl 9-acetyl-3-(3-((4-bromobenzyl)oxy)propyl)-6-methyl-2-oxo-2,3,4,9-tetrahydropyrano[2,3-b]indole-4-carboxylate'
_symmetry_cell_setting           triclinic
_symmetry_space_group_name_H-M   'P 1'
_symmetry_Int_Tables_number      1
_space_group_name_Hall           'P 1'
loop_
_symmetry_equiv_pos_site_id
_symmetry_equiv_pos_as_xyz
1 x,y,z
_cell_length_a                   5.0360(2)
_cell_length_b                   10.9704(5)
_cell_length_c                   11.4714(5)
_cell_angle_alpha                89.596(2)
_cell_angle_beta                 84.698(2)
_cell_angle_gamma                86.513(2)
_cell_volume                     629.879
_exptl_crystal_colour            colorless
_exptl_crystal_description       plate
_cell_formula_units_Z            1
loop_
_atom_site_label
_atom_site_type_symbol
_atom_site_fract_x
_atom_site_fract_y
_atom_site_fract_z
Br1 Br 1.85768(4) 0.22721(3) 0.58025(3)
C1 C 0.7821(7) 1.1711(3) 1.1219(3)
H1 H 0.7062 1.2485 1.1486
C2 C 0.9784(7) 1.1077(3) 1.1806(3)
H2 H 1.0352 1.1433 1.2486
C3 C 1.0952(7) 0.9938(3) 1.1434(3)
C4 C 1.3074(7) 0.9283(4) 1.2111(3)
H3 H 1.3684 0.8511 1.1720
H4 H 1.2316 0.9117 1.2910
H5 H 1.4589 0.9799 1.2137
C5 C 1.0143(7) 0.9413(3) 1.0440(3)
H6 H 1.0919 0.8643 1.0172
C6 C 0.8194(7) 1.0021(3) 0.9838(3)
C7 C 0.7018(7) 1.1166(3) 1.0229(3)
C8 C 0.3507(7) 1.2671(3) 0.9560(3)
C9 C 0.1736(8) 1.3003(3) 0.8616(3)
H7 H 0.0813 1.3803 0.8786
H8 H 0.0416 1.2386 0.8580
H9 H 0.2817 1.3036 0.7862
C10 C 0.5197(6) 1.0648(3) 0.8607(3)
C11 C 0.6986(6) 0.9722(3) 0.8793(3)
C12 C 0.7393(7) 0.8667(3) 0.7961(3)
H10 H 0.9316 0.8366 0.7903
C13 C 0.6693(6) 0.9140(3) 0.6754(3)
H11 H 0.8108 0.9708 0.6487
C14 C 0.4085(6) 0.9898(3) 0.6803(3)
C15 C 0.5692(6) 0.7647(3) 0.8422(3)
C16 C 0.5334(8) 0.6084(3) 0.9853(3)
H12 H 0.5248 0.5390 0.9313
H13 H 0.3491 0.6397 1.0112
C17 C 0.6815(9) 0.5687(4) 1.0894(3)
H14 H 0.8647 0.5400 1.0624
H15 H 0.5902 0.5024 1.1308
H16 H 0.6853 0.6380 1.1426
C18 C 0.6838(7) 0.8150(3) 0.5817(3)
H17 H 0.5101 0.7767 0.5860
H18 H 0.8217 0.7510 0.5991
C19 C 0.7491(7) 0.8617(3) 0.4572(3)
H19 H 0.6017 0.9188 0.4357
H20 H 0.9138 0.9069 0.4538
C20 C 0.7883(7) 0.7577(3) 0.3706(3)
H21 H 0.6257 0.7109 0.3736
H22 H 0.8251 0.7894 0.2901
C21 C 1.0402(8) 0.5676(3) 0.3458(3)
H23 H 1.1026 0.5787 0.2622
H24 H 0.8662 0.5296 0.3502
C22 C 1.2400(7) 0.4865(3) 0.4041(3)
C23 C 1.3272(7) 0.5170(3) 0.5111(3)
H25 H 1.2603 0.5911 0.5483
C24 C 1.5101(9) 0.4409(4) 0.5642(4)
H26 H 1.5706 0.4631 0.6367
C25 C 1.6039(7) 0.3320(3) 0.5102(3)
C26 C 1.5166(7) 0.2989(3) 0.4047(3)
H27 H 1.5790 0.2234 0.3689
C27 C 1.3370(8) 0.3773(4) 0.3517(3)
H28 H 1.2797 0.3557 0.2783
N1 N 0.5129(6) 1.1569(3) 0.9444(2)
O1 O 0.3642(5) 1.3316(2) 1.0393(2)
O2 O 0.3524(5) 1.0733(2) 0.7728(2)
O3 O 0.2510(5) 0.9925(3) 0.6093(2)
O4 O 0.3564(5) 0.7427(2) 0.8100(2)
O5 O 0.6838(5) 0.7041(2) 0.9279(2)
O6 O 1.0104(5) 0.6813(2) 0.4026(2)
loop_
_geom_bond_atom_site_label_1
_geom_bond_atom_site_label_2
_geom_bond_site_symmetry_1
_geom_bond_site_symmetry_2
Br1 C25 1_555 1_555
C1 H1 1_555 1_555
C2 C1 1_555 1_555
H2 C2 1_555 1_555
C3 C2 1_555 1_555
C4 C3 1_555 1_555
H3 C4 1_555 1_555
H4 C4 1_555 1_555
H5 C4 1_555 1_555
C5 C3 1_555 1_555
H6 C5 1_555 1_555
C6 C5 1_555 1_555
C7 C1 1_555 1_555
C8 C9 1_555 1_555
C9 H7 1_555 1_555
H8 C9 1_555 1_555
H9 C9 1_555 1_555
C10 C11 1_555 1_555
C11 C6 1_555 1_555
C12 C11 1_555 1_555
H10 C12 1_555 1_555
C13 C12 1_555 1_555
H11 C13 1_555 1_555
C14 C13 1_555 1_555
C15 C12 1_555 1_555
C16 H12 1_555 1_555
H13 C16 1_555 1_555
C17 C16 1_555 1_555
H14 C17 1_555 1_555
H15 C17 1_555 1_555
H16 C17 1_555 1_555
C18 C13 1_555 1_555
H17 C18 1_555 1_555
H18 C18 1_555 1_555
C19 C18 1_555 1_555
H19 C19 1_555 1_555
H20 C19 1_555 1_555
C20 C19 1_555 1_555
H21 C20 1_555 1_555
H22 C20 1_555 1_555
C21 H23 1_555 1_555
H24 C21 1_555 1_555
C22 C21 1_555 1_555
C23 C22 1_555 1_555
H25 C23 1_555 1_555
C24 C23 1_555 1_555
H26 C24 1_555 1_555
C25 C24 1_555 1_555
C26 C25 1_555 1_555
H27 C26 1_555 1_555
C27 C22 1_555 1_555
H28 C27 1_555 1_555
N1 C7 1_555 1_555
O1 C8 1_555 1_555
O2 C10 1_555 1_555
O3 C14 1_555 1_555
O4 C15 1_555 1_555
O5 C15 1_555 1_555
O6 C20 1_555 1_555
C6 C7 1_555 1_555
C8 N1 1_555 1_555
C10 N1 1_555 1_555
C14 O2 1_555 1_555
C16 O5 1_555 1_555
C21 O6 1_555 1_555
C26 C27 1_555 1_555

#END
