
#######################################################################
#
#                 Cambridge Crystallographic Data Centre
#                                CCDC 
#
#######################################################################
#
# If this CIF has been generated from an entry in the Cambridge 
# Structural Database, then it will include bibliographic, chemical, 
# crystal, experimental, refinement or atomic coordinate data resulting 
# from the CCDC's data processing and validation procedures.
#
#######################################################################

data_XEHCOE
_chemical_formula_moiety         'C24 H24 N2 O6'
_chemical_name_systematic        
2,2'-(1,2-Phenylenebis(oxy))bis(N-(2-methoxyphenyl)acetamide)
_symmetry_cell_setting           orthorhombic
_symmetry_space_group_name_H-M   'P c c a'
_symmetry_Int_Tables_number      54
_space_group_name_Hall           '-P 2a 2ac'
loop_
_symmetry_equiv_pos_site_id
_symmetry_equiv_pos_as_xyz
1 x,y,z
2 1/2+x,-y,1/2-z
3 -x,y,1/2-z
4 1/2-x,-y,z
5 -x,-y,-z
6 1/2-x,y,1/2+z
7 x,-y,1/2+z
8 1/2+x,y,-z
_cell_length_a                   16.4963(8)
_cell_length_b                   17.9052(9)
_cell_length_c                   7.1865(4)
_cell_angle_alpha                90
_cell_angle_beta                 90
_cell_angle_gamma                90
_cell_volume                     2122.67
_exptl_crystal_colour            colorless
_exptl_crystal_description       prism
_cell_formula_units_Z            4
loop_
_atom_site_label
_atom_site_type_symbol
_atom_site_fract_x
_atom_site_fract_y
_atom_site_fract_z
O1 O 0.24490(10) 0.32272(10) 0.0875(3)
N1 N 0.37735(10) 0.28625(10) 0.1052(3)
H1 H 0.4248 0.3036 0.1294
O2 O 0.51427(9) 0.21970(8) 0.0311(2)
O3 O 0.42428(8) 0.41798(8) 0.2068(2)
C1 C 0.37418(13) 0.21000(13) 0.0597(3)
C2 C 0.45893(13) 0.48748(13) 0.2268(3)
C3 C 0.30616(17) 0.09389(17) 0.0129(5)
H2 H 0.2582 0.0667 0.0082
C4 C 0.37816(18) 0.05934(16) -0.0229(4)
H3 H 0.3790 0.0087 -0.0514
C5 C 0.30393(15) 0.16903(15) 0.0559(4)
H4 H 0.2547 0.1919 0.0825
C6 C 0.45996(13) 0.62109(14) 0.2271(3)
H5 H 0.4329 0.6662 0.2110
C7 C 0.59163(13) 0.18901(13) -0.0112(4)
H6 H 0.6037 0.1495 0.0748
H7 H 0.6322 0.2273 -0.0013
H8 H 0.5912 0.1695 -0.1357
C8 C 0.44992(15) 0.09911(14) -0.0170(3)
H9 H 0.4990 0.0753 -0.0398
C9 C 0.34098(12) 0.41429(12) 0.1663(3)
H10 H 0.3287 0.4475 0.0635
H11 H 0.3102 0.4308 0.2737
C10 C 0.41845(14) 0.55430(14) 0.2044(3)
H12 H 0.3636 0.5546 0.1743
C11 C 0.44814(13) 0.17431(14) 0.0228(3)
C12 C 0.31643(14) 0.33579(12) 0.1162(3)
O1B O 0.75510(10) 0.32272(10) 0.4125(3)
N1B N 0.62265(10) 0.28625(10) 0.3948(3)
H1B H 0.5752 0.3036 0.3706
O2B O 0.48573(9) 0.21970(8) 0.4689(2)
O3B O 0.57572(8) 0.41798(8) 0.2932(2)
C1B C 0.62582(13) 0.21000(13) 0.4403(3)
C2B C 0.54107(13) 0.48748(13) 0.2732(3)
C3B C 0.69384(17) 0.09389(17) 0.4871(5)
H2B H 0.7418 0.0667 0.4918
C4B C 0.62184(18) 0.05934(16) 0.5229(4)
H3B H 0.6210 0.0087 0.5514
C5B C 0.69607(15) 0.16903(15) 0.4441(4)
H4B H 0.7453 0.1919 0.4175
C6B C 0.54004(13) 0.62109(14) 0.2729(3)
H5B H 0.5671 0.6662 0.2890
C7B C 0.40837(13) 0.18901(13) 0.5112(4)
H6B H 0.3963 0.1495 0.4252
H7B H 0.3678 0.2273 0.5013
H8B H 0.4088 0.1695 0.6357
C8B C 0.55008(15) 0.09911(14) 0.5170(3)
H9B H 0.5010 0.0753 0.5398
C9B C 0.65902(12) 0.41429(12) 0.3337(3)
H10B H 0.6713 0.4475 0.4365
H11B H 0.6898 0.4308 0.2263
C10B C 0.58155(14) 0.55430(14) 0.2956(3)
H12B H 0.6364 0.5546 0.3257
C11B C 0.55186(13) 0.17431(14) 0.4772(3)
C12B C 0.68357(14) 0.33579(12) 0.3838(3)
loop_
_geom_bond_atom_site_label_1
_geom_bond_atom_site_label_2
_geom_bond_site_symmetry_1
_geom_bond_site_symmetry_2
O1 C12 1_555 1_555
N1 H1 1_555 1_555
O2 C7 1_555 1_555
O3 C2 1_555 1_555
C1 N1 1_555 1_555
C2 C10 1_555 1_555
C3 H2 1_555 1_555
C4 C3 1_555 1_555
H3 C4 1_555 1_555
C5 C1 1_555 1_555
H4 C5 1_555 1_555
C6 H5 1_555 1_555
C7 H6 1_555 1_555
H7 C7 1_555 1_555
H8 C7 1_555 1_555
C8 C4 1_555 1_555
H9 C8 1_555 1_555
C9 O3 1_555 1_555
H10 C9 1_555 1_555
H11 C9 1_555 1_555
C10 C6 1_555 1_555
H12 C10 1_555 1_555
C11 O2 1_555 1_555
C12 N1 1_555 1_555
O1B C12B 1_555 1_555
N1B H1B 1_555 1_555
O2B C7B 1_555 1_555
O3B C2B 1_555 1_555
C1B N1B 1_555 1_555
C2B C2 1_555 1_555
C3B H2B 1_555 1_555
C4B C3B 1_555 1_555
H3B C4B 1_555 1_555
C5B C1B 1_555 1_555
H4B C5B 1_555 1_555
C6B C6 1_555 1_555
H5B C6B 1_555 1_555
C7B H6B 1_555 1_555
H7B C7B 1_555 1_555
H8B C7B 1_555 1_555
C8B C4B 1_555 1_555
H9B C8B 1_555 1_555
C9B O3B 1_555 1_555
H10B C9B 1_555 1_555
H11B C9B 1_555 1_555
C10B C2B 1_555 1_555
H12B C10B 1_555 1_555
C11B O2B 1_555 1_555
C12B N1B 1_555 1_555
C1 C11 1_555 1_555
C3 C5 1_555 1_555
C8 C11 1_555 1_555
C9 C12 1_555 1_555
C1B C11B 1_555 1_555
C3B C5B 1_555 1_555
C6B C10B 1_555 1_555
C8B C11B 1_555 1_555
C9B C12B 1_555 1_555

#END
