
#######################################################################
#
#                 Cambridge Crystallographic Data Centre
#                                CCDC 
#
#######################################################################
#
# If this CIF has been generated from an entry in the Cambridge 
# Structural Database, then it will include bibliographic, chemical, 
# crystal, experimental, refinement or atomic coordinate data resulting 
# from the CCDC's data processing and validation procedures.
#
#######################################################################

data_XEHCUK
_chemical_formula_moiety         'C24 H24 N2 O4 S2'
_chemical_name_systematic        
2,2'-(1,2-Phenylenebis(oxy))bis(N-(2-(methylsulfanyl)phenyl)acetamide)
_symmetry_cell_setting           triclinic
_symmetry_space_group_name_H-M   'P -1'
_symmetry_Int_Tables_number      2
_space_group_name_Hall           '-P 1'
loop_
_symmetry_equiv_pos_site_id
_symmetry_equiv_pos_as_xyz
1 x,y,z
2 -x,-y,-z
_cell_length_a                   4.702
_cell_length_b                   13.869
_cell_length_c                   18.607
_cell_angle_alpha                109.90
_cell_angle_beta                 90.06
_cell_angle_gamma                99.33
_cell_volume                     1123.78
_exptl_crystal_colour            colorless
_exptl_crystal_description       prism
_cell_formula_units_Z            2
loop_
_atom_site_label
_atom_site_type_symbol
_atom_site_fract_x
_atom_site_fract_y
_atom_site_fract_z
S1 S 0.7617(12) 0.3150(4) 0.2416(4)
S2 S 0.3651(13) 0.3286(4) 0.5003(4)
O1 O 0.658(3) 0.0316(10) 0.2252(9)
O2 O 0.899(3) 0.0663(12) 0.3652(10)
O3 O 1.002(3) 0.0252(10) 0.1244(10)
O4 O 1.518(3) 0.1699(10) 0.0483(8)
N1 N 0.476(4) 0.1230(13) 0.4304(14)
H1 H 0.2928 0.1152 0.4220
N2 N 1.125(5) 0.2114(16) 0.1187(14)
H2 H 0.9619 0.1818 0.1282
C1 C 1.154(4) 0.3142(19) 0.1350(11)
C2 C 1.3398(18) 0.4711(9) 0.1018(6)
H3 H 1.4548 0.5003 0.0713
C3 C 0.7256(18) -0.0599(9) 0.2027(6)
C4 C 0.5619(18) 0.2697(9) 0.5568(6)
C5 C 1.0041(18) 0.3735(9) 0.1847(6)
C6 C 1.3198(18) 0.3611(9) 0.0885(6)
H4 H 1.4202 0.3215 0.0495
C7 C 0.6671(18) -0.1490(9) 0.2149(6)
H5 H 0.5405 -0.1545 0.2522
C8 C 0.744(4) 0.109(2) 0.5314(16)
H6 H 0.7652 0.0429 0.4990
C9 C 0.472(5) 0.0463(16) 0.2924(17)
H7 H 0.3490 0.0960 0.2925
H8 H 0.3488 -0.0194 0.2866
C10 C 1.007(4) 0.4831(13) 0.1977(11)
H9 H 0.8787 0.5154 0.2320
C11 C 0.641(6) 0.0836(18) 0.367(2)
C12 C 0.591(5) 0.174(2) 0.5069(18)
C13 C 0.783(4) -0.2395(17) 0.1731(13)
H10 H 0.7330 -0.3013 0.1829
C14 C 1.257(4) 0.0309(14) 0.0755(11)
H11 H 1.2113 -0.0098 0.0218
H12 H 1.4256 0.0119 0.0939
C15 C 0.858(4) 0.149(2) 0.6057(16)
H13 H 0.9677 0.1108 0.6238
C16 C 0.811(5) 0.2480(19) 0.6553(14)
H14 H 0.8813 0.2704 0.7062
C17 C 1.176(3) 0.5421(11) 0.1652(8)
H15 H 1.1924 0.6139 0.1784
C18 C 0.921(3) -0.0664(11) 0.1360(8)
C19 C 1.289(3) 0.1568(11) 0.0935(8)
C20 C 1.043(3) -0.1488(11) 0.0953(8)
H16 H 1.1599 -0.1484 0.0551
C21 C 0.670(5) 0.3117(19) 0.6325(15)
H17 H 0.6476 0.3776 0.6648
C22 C 0.300(3) 0.4383(11) 0.5771(9)
H18 H 0.2003 0.4804 0.5577
H19 H 0.4803 0.4784 0.6026
H20 H 0.1834 0.4156 0.6126
C23 C 0.978(3) -0.2320(11) 0.1155(9)
H21 H 1.0645 -0.2893 0.0907
C24 C 1.026(4) 0.3004(13) 0.3081(10)
H22 H 0.9262 0.2763 0.3454
H23 H 1.1469 0.3664 0.3335
H24 H 1.1423 0.2509 0.2802
loop_
_geom_bond_atom_site_label_1
_geom_bond_atom_site_label_2
_geom_bond_site_symmetry_1
_geom_bond_site_symmetry_2
S1 C5 1_555 1_555
S2 C4 1_555 1_555
O1 C3 1_555 1_555
O2 C11 1_555 1_555
O3 C14 1_555 1_555
O4 C19 1_555 1_555
N1 H1 1_555 1_555
N2 H2 1_555 1_555
C1 N2 1_555 1_555
C2 H3 1_555 1_555
C3 C7 1_555 1_555
C4 C12 1_555 1_555
C5 C1 1_555 1_555
C6 C1 1_555 1_555
H4 C6 1_555 1_555
C7 H5 1_555 1_555
C8 H6 1_555 1_555
C9 O1 1_555 1_555
H7 C9 1_555 1_555
H8 C9 1_555 1_555
C10 C5 1_555 1_555
H9 C10 1_555 1_555
C11 N1 1_555 1_555
C12 N1 1_555 1_555
C13 C7 1_555 1_555
H10 C13 1_555 1_555
C14 H11 1_555 1_555
H12 C14 1_555 1_555
C15 C8 1_555 1_555
H13 C15 1_555 1_555
C16 C15 1_555 1_555
H14 C16 1_555 1_555
C17 C2 1_555 1_555
H15 C17 1_555 1_555
C18 O3 1_555 1_555
C19 N2 1_555 1_555
C20 C18 1_555 1_555
H16 C20 1_555 1_555
C21 C4 1_555 1_555
H17 C21 1_555 1_555
C22 S2 1_555 1_555
H18 C22 1_555 1_555
H19 C22 1_555 1_555
H20 C22 1_555 1_555
C23 C13 1_555 1_555
H21 C23 1_555 1_555
C24 S1 1_555 1_555
H22 C24 1_555 1_555
H23 C24 1_555 1_555
H24 C24 1_555 1_555
C2 C6 1_555 1_555
C3 C18 1_555 1_555
C8 C12 1_555 1_555
C9 C11 1_555 1_555
C10 C17 1_555 1_555
C14 C19 1_555 1_555
C16 C21 1_555 1_555
C20 C23 1_555 1_555

#END
