
#######################################################################
#
#                 Cambridge Crystallographic Data Centre
#                                CCDC 
#
#######################################################################
#
# If this CIF has been generated from an entry in the Cambridge 
# Structural Database, then it will include bibliographic, chemical, 
# crystal, experimental, refinement or atomic coordinate data resulting 
# from the CCDC's data processing and validation procedures.
#
#######################################################################

data_XEHCAR
_chemical_formula_moiety         'C4 N8 O13'
_chemical_name_systematic        2,5-bis(trinitromethyl)-1,3,4-oxadiazole
_symmetry_cell_setting           orthorhombic
_symmetry_space_group_name_H-M   'P b c a'
_symmetry_Int_Tables_number      61
_space_group_name_Hall           '-P 2ac 2ab'
loop_
_symmetry_equiv_pos_site_id
_symmetry_equiv_pos_as_xyz
1 x,y,z
2 1/2-x,-y,1/2+z
3 -x,1/2+y,1/2-z
4 1/2+x,1/2-y,-z
5 -x,-y,-z
6 1/2+x,y,1/2-z
7 x,1/2-y,1/2+z
8 1/2-x,1/2+y,z
_cell_length_a                   18.9102(5)
_cell_length_b                   6.4135(2)
_cell_length_c                   20.0916(5)
_cell_angle_alpha                90
_cell_angle_beta                 90
_cell_angle_gamma                90
_cell_volume                     2436.72
_exptl_crystal_colour            colorless
_exptl_crystal_description       plate
_cell_formula_units_Z            8
loop_
_atom_site_label
_atom_site_type_symbol
_atom_site_fract_x
_atom_site_fract_y
_atom_site_fract_z
O1 O 0.63208(5) 1.09230(14) 0.46595(5)
O2 O 0.61499(5) 1.03723(14) 0.35992(4)
N1 N 0.62559(5) 0.98367(15) 0.41719(5)
C1 C 0.62815(5) 0.74694(17) 0.42810(5)
N2 N 0.55227(5) 0.67533(15) 0.44315(4)
O3 O 0.51179(4) 0.80744(14) 0.46343(4)
O4 O 0.54162(4) 0.49144(13) 0.43377(4)
N3 N 0.67310(5) 0.70475(15) 0.49019(4)
O5 O 0.64500(5) 0.60915(17) 0.53478(4)
O6 O 0.73254(4) 0.77377(15) 0.48731(4)
C2 C 0.65663(5) 0.63120(16) 0.36970(5)
N4 N 0.71544(5) 0.53218(15) 0.36465(4)
N5 N 0.71461(5) 0.44231(14) 0.30089(4)
C3 C 0.65521(5) 0.49663(16) 0.27523(5)
O7 O 0.61482(4) 0.61839(12) 0.31512(3)
C4 C 0.62656(5) 0.44720(16) 0.20794(5)
N6 N 0.68194(5) 0.34145(15) 0.16420(5)
O8 O 0.70636(5) 0.18415(14) 0.18869(5)
O9 O 0.69432(5) 0.42068(15) 0.11097(4)
N7 N 0.56249(5) 0.30089(14) 0.21012(5)
O10 O 0.55545(5) 0.18354(14) 0.16349(5)
O11 O 0.52405(5) 0.32356(16) 0.25791(5)
N8 N 0.60199(5) 0.64543(14) 0.17202(4)
O12 O 0.63630(5) 0.79965(13) 0.18537(4)
O13 O 0.55311(5) 0.62797(14) 0.13371(4)
loop_
_geom_bond_atom_site_label_1
_geom_bond_atom_site_label_2
_geom_bond_site_symmetry_1
_geom_bond_site_symmetry_2
O1 N1 1_555 1_555
O2 N1 1_555 1_555
N1 C1 1_555 1_555
C1 N2 1_555 1_555
N2 O3 1_555 1_555
O4 N2 1_555 1_555
N3 C1 1_555 1_555
O5 N3 1_555 1_555
O6 N3 1_555 1_555
C2 C1 1_555 1_555
N4 C2 1_555 1_555
N5 N4 1_555 1_555
C3 N5 1_555 1_555
O7 C2 1_555 1_555
C4 C3 1_555 1_555
N6 C4 1_555 1_555
O8 N6 1_555 1_555
O9 N6 1_555 1_555
N7 C4 1_555 1_555
O10 N7 1_555 1_555
O11 N7 1_555 1_555
N8 C4 1_555 1_555
O12 N8 1_555 1_555
O13 N8 1_555 1_555
C3 O7 1_555 1_555

#END
