
#######################################################################
#
#                 Cambridge Crystallographic Data Centre
#                                CCDC 
#
#######################################################################
#
# If this CIF has been generated from an entry in the Cambridge 
# Structural Database, then it will include bibliographic, chemical, 
# crystal, experimental, refinement or atomic coordinate data resulting 
# from the CCDC's data processing and validation procedures.
#
#######################################################################

data_XEHDIA
_chemical_formula_moiety         'C38 H44 Br2 N2 O2 S4'
_chemical_name_systematic        
2,5-bis[(5'-bromo[2,2'-bithiophen]-5-yl)methylidene]-3,6-bis[(2-ethylhexyl)oxy]-2,5-dihydropyrazine
_symmetry_cell_setting           triclinic
_symmetry_space_group_name_H-M   'P -1'
_symmetry_Int_Tables_number      2
_space_group_name_Hall           '-P 1'
loop_
_symmetry_equiv_pos_site_id
_symmetry_equiv_pos_as_xyz
1 x,y,z
2 -x,-y,-z
_cell_length_a                   5.5076(3)
_cell_length_b                   11.9030(7)
_cell_length_c                   14.5103(8)
_cell_angle_alpha                86.927(3)
_cell_angle_beta                 81.604(3)
_cell_angle_gamma                76.840(3)
_cell_volume                     916.137
_exptl_crystal_colour            red
_exptl_crystal_description       Lath
_cell_formula_units_Z            1
loop_
_atom_site_label
_atom_site_type_symbol
_atom_site_fract_x
_atom_site_fract_y
_atom_site_fract_z
Br1 Br -1.18805(4) 0.67641(2) 0.77330(2)
S1 S -0.16392(8) 0.24966(4) 0.57516(3)
O1 O 0.5192(3) 0.03039(13) 0.67968(10)
N1 N 0.3013(3) 0.07605(13) 0.55528(12)
C1 C 0.4983(4) 0.02039(15) 0.58933(14)
S2 S -0.89324(9) 0.49463(4) 0.62626(4)
C2 C 0.2900(3) 0.05844(15) 0.46266(14)
C3 C 0.0855(3) 0.11322(16) 0.42221(14)
H1 H 0.0854 0.0950 0.3593
C4 C -0.1295(3) 0.19526(15) 0.46412(14)
C5 C -0.3380(3) 0.24458(16) 0.42122(14)
H2 H -0.3557 0.2258 0.3601
C6 C -0.5208(4) 0.32476(16) 0.47587(15)
H3 H -0.6746 0.3651 0.4559
C7 C -0.4538(3) 0.33881(15) 0.56136(14)
C8 C -0.5893(3) 0.41692(16) 0.63422(14)
C9 C -0.5112(4) 0.44470(18) 0.71383(15)
H4 H -0.3502 0.4107 0.7310
C10 C -0.6911(4) 0.52844(19) 0.76821(16)
H5 H -0.6655 0.5566 0.8253
C11 C -0.9053(4) 0.56340(16) 0.72824(15)
C12 C 0.2988(9) 0.1039(5) 0.7330(4)
H6 H 0.1429 0.0811 0.7229
H7 H 0.2857 0.1858 0.7134
C13 C 0.3367(5) 0.0871(2) 0.8349(2)
H8 H 0.4898 0.1157 0.8424
C14 C 0.1139(7) 0.1592(3) 0.8971(3)
H9 H -0.0374 0.1288 0.8936
H10 H 0.1489 0.1494 0.9625
C15 C 0.0558(8) 0.2870(3) 0.8724(3)
H11 H -0.0224 0.2988 0.8144
H12 H 0.2157 0.3134 0.8600
C16 C -0.1195(17) 0.3612(4) 0.9483(5)
H13 H -0.1357 0.4434 0.9294
H14 H -0.0416 0.3488 1.0064
C17 C -0.3869(9) 0.3359(4) 0.9691(3)
H15 H -0.4877 0.3867 1.0183
H16 H -0.4680 0.3500 0.9125
H17 H -0.3737 0.2553 0.9896
C18 C 0.3847(9) -0.0412(3) 0.8653(3)
H18 H 0.5510 -0.0810 0.8333
H19 H 0.3939 -0.0465 0.9331
C19 C 0.1908(9) -0.1047(3) 0.8459(3)
H20 H 0.2373 -0.1851 0.8676
H21 H 0.0257 -0.0678 0.8788
H22 H 0.1831 -0.1024 0.7788
Br1A Br 2.18805(4) -0.67641(2) 0.22670(2)
S1A S 1.16392(8) -0.24966(4) 0.42484(3)
O1A O 0.4808(3) -0.03039(13) 0.32032(10)
N1A N 0.6987(3) -0.07605(13) 0.44472(12)
C1A C 0.5017(4) -0.02039(15) 0.41067(14)
S2A S 1.89324(9) -0.49463(4) 0.37374(4)
C2A C 0.7100(3) -0.05844(15) 0.53734(14)
C3A C 0.9145(3) -0.11322(16) 0.57779(14)
H1A H 0.9146 -0.0950 0.6407
C4A C 1.1295(3) -0.19526(15) 0.53588(14)
C5A C 1.3380(3) -0.24458(16) 0.57878(14)
H2A H 1.3557 -0.2258 0.6399
C6A C 1.5208(4) -0.32476(16) 0.52413(15)
H3A H 1.6746 -0.3651 0.5441
C7A C 1.4538(3) -0.33881(15) 0.43864(14)
C8A C 1.5893(3) -0.41692(16) 0.36578(14)
C9A C 1.5112(4) -0.44470(18) 0.28617(15)
H4A H 1.3502 -0.4107 0.2690
C10A C 1.6911(4) -0.52844(19) 0.23179(16)
H5A H 1.6655 -0.5566 0.1747
C11A C 1.9053(4) -0.56340(16) 0.27176(15)
C12A C 0.7012(9) -0.1039(5) 0.2670(4)
H6A H 0.8571 -0.0811 0.2771
H7A H 0.7143 -0.1858 0.2866
C13A C 0.6633(5) -0.0871(2) 0.1651(2)
H8A H 0.5102 -0.1157 0.1576
C14A C 0.8861(7) -0.1592(3) 0.1029(3)
H9A H 1.0374 -0.1288 0.1064
H10A H 0.8511 -0.1494 0.0375
C15A C 0.9442(8) -0.2870(3) 0.1276(3)
H11A H 1.0224 -0.2988 0.1856
H12A H 0.7843 -0.3134 0.1400
C16A C 1.1195(17) -0.3612(4) 0.0517(5)
H13A H 1.1357 -0.4434 0.0706
H14A H 1.0416 -0.3488 -0.0064
C17A C 1.3869(9) -0.3359(4) 0.0309(3)
H15A H 1.4877 -0.3867 -0.0183
H16A H 1.4680 -0.3500 0.0875
H17A H 1.3737 -0.2553 0.0104
C18A C 0.6153(9) 0.0412(3) 0.1347(3)
H18A H 0.4490 0.0810 0.1667
H19A H 0.6061 0.0465 0.0669
C19A C 0.8092(9) 0.1047(3) 0.1541(3)
H20A H 0.7627 0.1851 0.1324
H21A H 0.9743 0.0678 0.1212
H22A H 0.8169 0.1024 0.2212
C20? C 0.369(3) 0.1207(14) 0.7388(13)
H23? H 0.2930 0.1880 0.7013
H24? H 0.4724 0.1461 0.7806
C21? C 0.1674(15) 0.0662(7) 0.7944(6)
H25? H 0.0426 0.0598 0.7524
C22? C 0.029(2) 0.1461(9) 0.8758(8)
H26? H -0.0943 0.1079 0.9145
H27? H 0.1523 0.1573 0.9156
C23? C -0.110(3) 0.2643(9) 0.8418(8)
H28? H -0.2270 0.2533 0.7990
H29? H 0.0134 0.3049 0.8066
C24? C -0.263(4) 0.3407(13) 0.9255(10)
H30? H -0.3795 0.4075 0.9004
H31? H -0.3668 0.2946 0.9659
C25? C -0.123(7) 0.379(3) 0.9763(19)
H32? H -0.2304 0.4255 1.0267
H33? H -0.0100 0.3134 1.0030
H34? H -0.0227 0.4265 0.9374
C26? C 0.2748(19) -0.0558(9) 0.8336(8)
H35? H 0.1342 -0.0856 0.8691
H36? H 0.3473 -0.1076 0.7806
C27? C 0.472(3) -0.0613(12) 0.8955(12)
H37? H 0.5294 -0.1412 0.9170
H38? H 0.6152 -0.0343 0.8607
H39? H 0.4016 -0.0122 0.9493
loop_
_geom_bond_atom_site_label_1
_geom_bond_atom_site_label_2
_geom_bond_site_symmetry_1
_geom_bond_site_symmetry_2
Br1 C11 1_555 1_555
S1 C4 1_555 1_555
O1 C1 1_555 1_555
N1 C1 1_555 1_555
C1 C2A 1_555 1_555
S2 C8 1_555 1_555
C2 N1 1_555 1_555
C3 C2 1_555 1_555
H1 C3 1_555 1_555
C4 C3 1_555 1_555
C5 C4 1_555 1_555
H2 C5 1_555 1_555
C6 C5 1_555 1_555
H3 C6 1_555 1_555
C7 S1 1_555 1_555
C8 C7 1_555 1_555
C9 C8 1_555 1_555
H4 C9 1_555 1_555
C10 C9 1_555 1_555
H5 C10 1_555 1_555
C11 S2 1_555 1_555
C12 O1 1_555 1_555
H6 C12 1_555 1_555
H7 C12 1_555 1_555
C13 C12 1_555 1_555
H8 C13 1_555 1_555
C14 C13 1_555 1_555
H9 C14 1_555 1_555
H10 C14 1_555 1_555
C15 C14 1_555 1_555
H11 C15 1_555 1_555
H12 C15 1_555 1_555
C16 C15 1_555 1_555
H13 C16 1_555 1_555
H14 C16 1_555 1_555
C17 C16 1_555 1_555
H15 C17 1_555 1_555
H16 C17 1_555 1_555
H17 C17 1_555 1_555
C18 C13 1_555 1_555
H18 C18 1_555 1_555
H19 C18 1_555 1_555
C19 C18 1_555 1_555
H20 C19 1_555 1_555
H21 C19 1_555 1_555
H22 C19 1_555 1_555
Br1A C11A 1_555 1_555
S1A C4A 1_555 1_555
O1A C1A 1_555 1_555
N1A C1A 1_555 1_555
C1A C2 1_555 1_555
S2A C8A 1_555 1_555
C2A N1A 1_555 1_555
C3A C2A 1_555 1_555
H1A C3A 1_555 1_555
C4A C3A 1_555 1_555
C5A C4A 1_555 1_555
H2A C5A 1_555 1_555
C6A C5A 1_555 1_555
H3A C6A 1_555 1_555
C7A S1A 1_555 1_555
C8A C7A 1_555 1_555
C9A C8A 1_555 1_555
H4A C9A 1_555 1_555
C10A C9A 1_555 1_555
H5A C10A 1_555 1_555
C11A S2A 1_555 1_555
C12A O1A 1_555 1_555
H6A C12A 1_555 1_555
H7A C12A 1_555 1_555
C13A C12A 1_555 1_555
H8A C13A 1_555 1_555
C14A C13A 1_555 1_555
H9A C14A 1_555 1_555
H10A C14A 1_555 1_555
C15A C14A 1_555 1_555
H11A C15A 1_555 1_555
H12A C15A 1_555 1_555
C16A C15A 1_555 1_555
H13A C16A 1_555 1_555
H14A C16A 1_555 1_555
C17A C16A 1_555 1_555
H15A C17A 1_555 1_555
H16A C17A 1_555 1_555
H17A C17A 1_555 1_555
C18A C13A 1_555 1_555
H18A C18A 1_555 1_555
H19A C18A 1_555 1_555
C19A C18A 1_555 1_555
H20A C19A 1_555 1_555
H21A C19A 1_555 1_555
H22A C19A 1_555 1_555
C6 C7 1_555 1_555
C10 C11 1_555 1_555
C6A C7A 1_555 1_555
C10A C11A 1_555 1_555

#END
