
#######################################################################
#
#                 Cambridge Crystallographic Data Centre
#                                CCDC 
#
#######################################################################
#
# If this CIF has been generated from an entry in the Cambridge 
# Structural Database, then it will include bibliographic, chemical, 
# crystal, experimental, refinement or atomic coordinate data resulting 
# from the CCDC's data processing and validation procedures.
#
#######################################################################

data_XEHDAS
_chemical_formula_moiety         'C14 H10 N2 O2 S2'
_chemical_name_systematic        
3,6-bis[(thiophen-2-yl)methylidene]piperazine-2,5-dione
_symmetry_cell_setting           triclinic
_symmetry_space_group_name_H-M   'P -1'
_symmetry_Int_Tables_number      2
_space_group_name_Hall           '-P 1'
loop_
_symmetry_equiv_pos_site_id
_symmetry_equiv_pos_as_xyz
1 x,y,z
2 -x,-y,-z
_cell_length_a                   3.8141(5)
_cell_length_b                   5.5850(8)
_cell_length_c                   14.3443(19)
_cell_angle_alpha                95.385(9)
_cell_angle_beta                 96.169(9)
_cell_angle_gamma                94.844(8)
_cell_volume                     301.066
_exptl_crystal_colour            yellow
_exptl_crystal_description       plate
_cell_formula_units_Z            1
loop_
_atom_site_label
_atom_site_type_symbol
_atom_site_fract_x
_atom_site_fract_y
_atom_site_fract_z
O1 O 0.9488(3) 0.8654(2) 0.58701(9)
C1 C 0.7387(4) 0.6969(3) 0.54726(11)
N1 N 0.6250(3) 0.6882(2) 0.45355(9)
H1 H 0.716(7) 0.803(5) 0.4256(19)
C2 C 0.3930(4) 0.5045(3) 0.40155(11)
C3 C 0.2738(4) 0.4932(3) 0.30840(11)
H2 H 0.129(7) 0.350(6) 0.286(2)
C4 C 0.3341(4) 0.6582(3) 0.23908(10)
C5 C 0.5048(4) 0.8888(3) 0.24423(11)
H3 H 0.618(6) 0.977(5) 0.2984(18)
C6 C 0.4835(4) 0.9850(3) 0.15607(11)
H4 H 0.593(7) 1.135(5) 0.1473(19)
C7 C 0.2952(4) 0.8311(3) 0.08468(11)
H5 H 0.245(6) 0.853(5) 0.0184(18)
S1 S 0.14703(10) 0.56663(7) 0.12400(3)
O1A O 0.0512(3) 0.1346(2) 0.41299(9)
C1A C 0.2613(4) 0.3031(3) 0.45274(11)
N1A N 0.3750(3) 0.3118(2) 0.54645(9)
H1A H 0.284(7) 0.197(5) 0.5744(19)
C2A C 0.6070(4) 0.4955(3) 0.59845(11)
C3A C 0.7262(4) 0.5068(3) 0.69160(11)
H2A H 0.871(7) 0.650(6) 0.714(2)
C4A C 0.6659(4) 0.3418(3) 0.76092(10)
C5A C 0.4952(4) 0.1112(3) 0.75577(11)
H3A H 0.382(6) 0.023(5) 0.7016(18)
C6A C 0.5165(4) 0.0150(3) 0.84393(11)
H4A H 0.407(7) -0.135(5) 0.8527(19)
C7A C 0.7048(4) 0.1689(3) 0.91532(11)
H5A H 0.755(6) 0.147(5) 0.9816(18)
S1A S 0.85297(10) 0.43337(7) 0.87600(3)
loop_
_geom_bond_atom_site_label_1
_geom_bond_atom_site_label_2
_geom_bond_site_symmetry_1
_geom_bond_site_symmetry_2
O1 C1 1_555 1_555
C1 N1 1_555 1_555
N1 H1 1_555 1_555
C2 N1 1_555 1_555
C3 C2 1_555 1_555
H2 C3 1_555 1_555
C4 C3 1_555 1_555
C5 C4 1_555 1_555
H3 C5 1_555 1_555
C6 C5 1_555 1_555
H4 C6 1_555 1_555
C7 C6 1_555 1_555
H5 C7 1_555 1_555
S1 C4 1_555 1_555
O1A C1A 1_555 1_555
C1A C2 1_555 1_555
N1A C1A 1_555 1_555
H1A N1A 1_555 1_555
C2A C1 1_555 1_555
C3A C2A 1_555 1_555
H2A C3A 1_555 1_555
C4A C3A 1_555 1_555
C5A C4A 1_555 1_555
H3A C5A 1_555 1_555
C6A C5A 1_555 1_555
H4A C6A 1_555 1_555
C7A C6A 1_555 1_555
H5A C7A 1_555 1_555
S1A C4A 1_555 1_555
C7 S1 1_555 1_555
N1A C2A 1_555 1_555
C7A S1A 1_555 1_555

#END
