
#######################################################################
#
#                 Cambridge Crystallographic Data Centre
#                                CCDC 
#
#######################################################################
#
# If this CIF has been generated from an entry in the Cambridge 
# Structural Database, then it will include bibliographic, chemical, 
# crystal, experimental, refinement or atomic coordinate data resulting 
# from the CCDC's data processing and validation procedures.
#
#######################################################################

data_XEHGOH01
_chemical_formula_moiety         'C23 H25 N1 O10'
_chemical_name_systematic        
(P,R)-4,4'-Dimethoxy-5,6,5',6'-dimethenedioxy-2-ethoxycarbonyl-2'-(1-(hydroxymethyl)ethylaminocarbonyl)biphenyl
_symmetry_cell_setting           monoclinic
_symmetry_space_group_name_H-M   'P 21'
_symmetry_Int_Tables_number      4
_space_group_name_Hall           'P 2yb'
loop_
_symmetry_equiv_pos_site_id
_symmetry_equiv_pos_as_xyz
1 x,y,z
2 -x,1/2+y,-z
_cell_length_a                   8.9215(13)
_cell_length_b                   14.091(2)
_cell_length_c                   9.7007(15)
_cell_angle_alpha                90
_cell_angle_beta                 114.278(6)
_cell_angle_gamma                90
_cell_volume                     1111.65
_exptl_crystal_colour            colorless
_exptl_crystal_description       block
_chemical_melting_point          '437 K'
_cell_formula_units_Z            2
loop_
_atom_site_label
_atom_site_type_symbol
_atom_site_fract_x
_atom_site_fract_y
_atom_site_fract_z
O1 O 0.15623(16) 0.61094(10) 0.12417(15)
O2 O -0.10651(16) 0.54718(11) 0.04278(15)
O3 O -0.17749(16) 0.36443(10) 0.12734(15)
O4 O 0.52963(17) 0.30557(11) 0.35354(15)
O5 O 0.44240(16) 0.29922(10) 0.54082(14)
O6 O 0.47915(16) 0.54165(11) 0.58011(15)
O7 O 0.74062(18) 0.60899(13) 0.68785(15)
O8 O 0.94993(16) 0.63237(11) 0.53437(15)
O9 O 0.50397(17) 0.56937(10) -0.01398(15)
O10 O 0.31841(19) 0.23874(10) -0.04446(17)
H1 H 0.368(3) 0.179(2) -0.036(3)
N1 N 0.42494(19) 0.42455(12) 0.03147(18)
C1 C 0.3052(2) 0.47208(13) 0.27022(19)
C2 C 0.1651(2) 0.52001(13) 0.1773(2)
C3 C 0.0093(2) 0.48192(14) 0.1300(2)
C4 C -0.0182(2) 0.39427(14) 0.1777(2)
C5 C 0.1206(2) 0.34351(14) 0.2739(2)
H2 H 0.1078 0.2829 0.3105
C6 C 0.2776(2) 0.38173(14) 0.3161(2)
C7 C -0.0116(2) 0.62128(16) 0.0153(2)
H3 H -0.0548 0.6842 0.0263
H4 H -0.0177 0.6160 -0.0887
C8 C -0.2060(3) 0.28136(16) 0.1981(3)
H5 H -0.1525 0.2267 0.1748
H6 H -0.3245 0.2697 0.1601
H7 H -0.1604 0.2908 0.3078
C9 C 0.4291(2) 0.32415(13) 0.4035(2)
C10 C 0.5978(2) 0.25376(15) 0.6379(2)
H8 H 0.6367 0.2134 0.5758
H9 H 0.5804 0.2127 0.7130
C11 C 0.7259(3) 0.32815(17) 0.7190(3)
H10 H 0.7444 0.3679 0.6445
H11 H 0.8290 0.2970 0.7842
H12 H 0.6873 0.3678 0.7808
C12 C 0.4734(2) 0.51421(13) 0.3280(2)
C13 C 0.5483(2) 0.54294(14) 0.4771(2)
C14 C 0.7023(2) 0.58251(14) 0.5410(2)
C15 C 0.7972(2) 0.59414(13) 0.4602(2)
C16 C 0.7241(2) 0.56768(14) 0.3079(2)
H13 H 0.7836 0.5761 0.2470
C17 C 0.5663(2) 0.52921(12) 0.2431(2)
C18 C 0.5999(2) 0.58182(15) 0.7169(2)
H14 H 0.6328 0.5346 0.7998
H15 H 0.5540 0.6380 0.7472
C19 C 1.0564(3) 0.6293(2) 0.4577(3)
H16 H 1.0650 0.5638 0.4277
H17 H 1.1657 0.6523 0.5253
H18 H 1.0116 0.6696 0.3675
C20 C 0.4961(2) 0.50906(14) 0.0763(2)
C21 C 0.3405(2) 0.39645(14) -0.1273(2)
H19 H 0.3893 0.4332 -0.1869
C22 C 0.3728(2) 0.29209(14) -0.1404(2)
H20 H 0.3133 0.2710 -0.2465
H21 H 0.4918 0.2815 -0.1102
C23 C 0.1579(3) 0.42034(18) -0.1884(3)
H22 H 0.1084 0.3868 -0.1289
H23 H 0.1037 0.4006 -0.2944
H24 H 0.1444 0.4889 -0.1810
H25 H 0.427(3) 0.3859(19) 0.092(3)
loop_
_geom_bond_atom_site_label_1
_geom_bond_atom_site_label_2
_geom_bond_site_symmetry_1
_geom_bond_site_symmetry_2
O1 C2 1_555 1_555
O2 C3 1_555 1_555
O3 C4 1_555 1_555
O4 C9 1_555 1_555
O5 C9 1_555 1_555
O6 C13 1_555 1_555
O7 C14 1_555 1_555
O8 C15 1_555 1_555
O9 C20 1_555 1_555
O10 H1 1_555 1_555
N1 C20 1_555 1_555
C1 C2 1_555 1_555
C2 C3 1_555 1_555
C3 C4 1_555 1_555
C4 C5 1_555 1_555
C5 H2 1_555 1_555
C6 C1 1_555 1_555
C7 O1 1_555 1_555
H3 C7 1_555 1_555
H4 C7 1_555 1_555
C8 O3 1_555 1_555
H5 C8 1_555 1_555
H6 C8 1_555 1_555
H7 C8 1_555 1_555
C9 C6 1_555 1_555
C10 O5 1_555 1_555
H8 C10 1_555 1_555
H9 C10 1_555 1_555
C11 C10 1_555 1_555
H10 C11 1_555 1_555
H11 C11 1_555 1_555
H12 C11 1_555 1_555
C12 C1 1_555 1_555
C13 C12 1_555 1_555
C14 C13 1_555 1_555
C15 C14 1_555 1_555
C16 C15 1_555 1_555
H13 C16 1_555 1_555
C17 C12 1_555 1_555
C18 O6 1_555 1_555
H14 C18 1_555 1_555
H15 C18 1_555 1_555
C19 O8 1_555 1_555
H16 C19 1_555 1_555
H17 C19 1_555 1_555
H18 C19 1_555 1_555
C20 C17 1_555 1_555
C21 N1 1_555 1_555
H19 C21 1_555 1_555
C22 O10 1_555 1_555
H20 C22 1_555 1_555
H21 C22 1_555 1_555
C23 C21 1_555 1_555
H22 C23 1_555 1_555
H23 C23 1_555 1_555
H24 C23 1_555 1_555
H25 N1 1_555 1_555
O2 C7 1_555 1_555
O7 C18 1_555 1_555
C5 C6 1_555 1_555
C16 C17 1_555 1_555
C21 C22 1_555 1_555

#END
