
#######################################################################
#
#                 Cambridge Crystallographic Data Centre
#                                CCDC 
#
#######################################################################
#
# If this CIF has been generated from an entry in the Cambridge 
# Structural Database, then it will include bibliographic, chemical, 
# crystal, experimental, refinement or atomic coordinate data resulting 
# from the CCDC's data processing and validation procedures.
#
#######################################################################

data_XEHHOI
_chemical_formula_moiety         'C14 H22 O5 S1'
_chemical_name_systematic        
(3RS,4RS,4aSR,7SR,9aRS)-7-t-Butyl-9a-methyl-5,5-dioxo-3,4-epoxy-1,2,3,4,4a,9a-hexahydro-8-oxa-5\l^6^-thiabenzocycloheptan-9-one
_symmetry_cell_setting           monoclinic
_symmetry_space_group_name_H-M   'P 21/n'
_symmetry_Int_Tables_number      14
_space_group_name_Hall           '-P 2yn'
loop_
_symmetry_equiv_pos_site_id
_symmetry_equiv_pos_as_xyz
1 x,y,z
2 1/2-x,1/2+y,1/2-z
3 -x,-y,-z
4 1/2+x,1/2-y,1/2+z
_cell_length_a                   11.9812(9)
_cell_length_b                   5.6631(4)
_cell_length_c                   21.7870(17)
_cell_angle_alpha                90
_cell_angle_beta                 92.0990(10)
_cell_angle_gamma                90
_cell_volume                     1477.27
_exptl_crystal_colour            colorless
_exptl_crystal_description       block
_chemical_melting_point          '458 K'
_cell_formula_units_Z            4
_exptl_crystal_recrystallization_method 'ethyl acetate'
loop_
_atom_site_label
_atom_site_type_symbol
_atom_site_fract_x
_atom_site_fract_y
_atom_site_fract_z
C1 C -0.12550(12) 0.0376(3) 0.12212(7)
H1 H -0.1448 -0.0478 0.0835
H2 H -0.0912 -0.0769 0.1515
O1 O -0.13080(10) 0.2137(2) 0.24871(5)
S1 S 0.11163(3) 0.22363(7) 0.212500(15)
C2 C -0.23199(13) 0.1375(3) 0.14866(7)
H3 H -0.2749 0.2233 0.1160
H4 H -0.2789 0.0056 0.1627
O2 O 0.10017(9) -0.0305(2) 0.20609(5)
C3 C -0.20738(13) 0.3017(3) 0.20139(8)
H5 H -0.2722 0.3950 0.2159
O3 O 0.11512(10) 0.3240(2) 0.27327(5)
C4 C -0.09597(13) 0.4099(3) 0.21211(7)
H6 H -0.0951 0.5673 0.2329
C5 C -0.00207(12) 0.3652(3) 0.16872(6)
H7 H 0.0259 0.5232 0.1558
O4 O 0.07018(9) -0.0737(2) 0.06183(5)
C6 C 0.23784(12) 0.3101(3) 0.17760(7)
H8 H 0.2412 0.4847 0.1762
H9 H 0.3021 0.2545 0.2035
C7 C 0.24892(12) 0.2143(3) 0.11293(7)
H10 H 0.2526 0.0380 0.1147
O5 O 0.14644(8) 0.28478(18) 0.07957(5)
C8 C 0.06135(12) 0.1237(3) 0.08062(6)
C9 C -0.04078(12) 0.2326(2) 0.10908(6)
C10 C 0.34941(12) 0.3071(3) 0.07855(7)
C11 C 0.34610(13) 0.5764(3) 0.07343(8)
H11 H 0.3585 0.6462 0.1143
H12 H 0.2730 0.6259 0.0564
H13 H 0.4046 0.6296 0.0464
C12 C 0.45727(13) 0.2318(3) 0.11336(9)
H14 H 0.5218 0.2751 0.0894
H15 H 0.4566 0.0604 0.1197
H16 H 0.4623 0.3116 0.1533
C13 C 0.34540(14) 0.1997(3) 0.01390(8)
H17 H 0.4110 0.2510 -0.0081
H18 H 0.2774 0.2525 -0.0085
H19 H 0.3451 0.0271 0.0169
C14 C -0.09072(12) 0.4164(3) 0.06400(7)
H20 H -0.0330 0.5308 0.0536
H21 H -0.1525 0.4987 0.0831
H22 H -0.1185 0.3368 0.0265
loop_
_geom_bond_atom_site_label_1
_geom_bond_atom_site_label_2
_geom_bond_site_symmetry_1
_geom_bond_site_symmetry_2
C1 H1 1_555 1_555
H2 C1 1_555 1_555
O1 C3 1_555 1_555
S1 O2 1_555 1_555
C2 C1 1_555 1_555
H3 C2 1_555 1_555
H4 C2 1_555 1_555
C3 C2 1_555 1_555
H5 C3 1_555 1_555
O3 S1 1_555 1_555
C4 O1 1_555 1_555
H6 C4 1_555 1_555
C5 S1 1_555 1_555
H7 C5 1_555 1_555
O4 C8 1_555 1_555
C6 S1 1_555 1_555
H8 C6 1_555 1_555
H9 C6 1_555 1_555
C7 C6 1_555 1_555
H10 C7 1_555 1_555
O5 C7 1_555 1_555
C8 O5 1_555 1_555
C9 C1 1_555 1_555
C10 C7 1_555 1_555
C11 C10 1_555 1_555
H11 C11 1_555 1_555
H12 C11 1_555 1_555
H13 C11 1_555 1_555
C12 C10 1_555 1_555
H14 C12 1_555 1_555
H15 C12 1_555 1_555
H16 C12 1_555 1_555
C13 C10 1_555 1_555
H17 C13 1_555 1_555
H18 C13 1_555 1_555
H19 C13 1_555 1_555
C14 C9 1_555 1_555
H20 C14 1_555 1_555
H21 C14 1_555 1_555
H22 C14 1_555 1_555
C3 C4 1_555 1_555
C4 C5 1_555 1_555
C5 C9 1_555 1_555
C8 C9 1_555 1_555

#END
