
#######################################################################
#
#                 Cambridge Crystallographic Data Centre
#                                CCDC 
#
#######################################################################
#
# If this CIF has been generated from an entry in the Cambridge 
# Structural Database, then it will include bibliographic, chemical, 
# crystal, experimental, refinement or atomic coordinate data resulting 
# from the CCDC's data processing and validation procedures.
#
#######################################################################

data_XEHLEB
_chemical_formula_moiety         'C15 H10 Cl2 O1'
_chemical_name_systematic        bis(4-Chlorophenyl)ethynylmethanol
_symmetry_cell_setting           triclinic
_symmetry_space_group_name_H-M   'P -1'
_symmetry_Int_Tables_number      2
_space_group_name_Hall           '-P 1'
loop_
_symmetry_equiv_pos_site_id
_symmetry_equiv_pos_as_xyz
1 x,y,z
2 -x,-y,-z
_cell_length_a                   5.72800(10)
_cell_length_b                   11.3620(2)
_cell_length_c                   11.52100(10)
_cell_angle_alpha                117.2400(10)
_cell_angle_beta                 99.2500(10)
_cell_angle_gamma                96.8600(10)
_cell_volume                     641.866
_exptl_crystal_colour            colorless
_exptl_crystal_description       block
_chemical_melting_point          72-73deg.C
_cell_formula_units_Z            2
loop_
_atom_site_label
_atom_site_type_symbol
_atom_site_fract_x
_atom_site_fract_y
_atom_site_fract_z
C1 C 1.0047(4) -0.02661(18) 0.3033(2)
C2 C 0.9559(3) 0.08311(16) 0.35113(19)
C3 C 0.8984(3) 0.21786(15) 0.40894(17)
O1 O 1.1102(4) 0.3181(2) 0.4452(3)
C4 C 0.8194(3) 0.24703(14) 0.53838(16)
C5 C 0.9649(3) 0.34106(16) 0.66423(18)
C6 C 0.8860(4) 0.36646(17) 0.78000(19)
C7 C 0.6603(3) 0.29618(17) 0.76792(18)
Cl1 Cl 0.0542(3) 0.26511(16) 0.05897(17)
C8 C 0.5148(4) 0.2012(2) 0.6435(2)
C9 C 0.5950(3) 0.17659(18) 0.52866(19)
C10 C 0.6940(3) 0.22635(15) 0.31199(17)
C11 C 0.6513(4) 0.35329(16) 0.34004(19)
C12 C 0.4579(4) 0.36662(18) 0.2611(2)
C13 C 0.3053(4) 0.25032(18) 0.15295(19)
Cl2 Cl 0.5579(3) 0.32699(17) 0.91032(17)
C14 C 0.3467(4) 0.12323(18) 0.1226(2)
C15 C 0.5422(4) 0.11157(17) 0.20187(19)
H1 H 0.7679(9) 0.4433(4) 0.4257(5)
H2 H 0.5713(10) 0.0116(4) 0.1802(5)
H3 H 1.1370(10) 0.3966(5) 0.6715(5)
H4 H 0.4800(9) 0.1024(5) 0.4320(5)
H5 H 0.9997(11) 0.4397(5) 0.8769(5)
H6 H 0.3403(10) 0.1454(6) 0.6355(6)
H7 H 0.2271(10) 0.0345(5) 0.0377(5)
H8 H 0.4225(10) 0.4649(4) 0.2825(5)
H9 H 1.1791(10) 0.2951(5) 0.3698(6)
H10 H 1.0485(11) -0.1217(5) 0.2613(7)
loop_
_geom_bond_atom_site_label_1
_geom_bond_atom_site_label_2
_geom_bond_site_symmetry_1
_geom_bond_site_symmetry_2
C1 C2 1_555 1_555
C2 C3 1_555 1_555
C3 O1 1_555 1_555
O1 H9 1_555 1_555
C4 C3 1_555 1_555
C5 C4 1_555 1_555
C6 C5 1_555 1_555
C7 C6 1_555 1_555
Cl1 C13 1_555 1_555
C8 C7 1_555 1_555
C9 C4 1_555 1_555
C10 C3 1_555 1_555
C11 C10 1_555 1_555
C12 C11 1_555 1_555
C13 C12 1_555 1_555
Cl2 C7 1_555 1_555
C14 C13 1_555 1_555
C15 C10 1_555 1_555
H1 C11 1_555 1_555
H2 C15 1_555 1_555
H3 C5 1_555 1_555
H4 C9 1_555 1_555
H5 C6 1_555 1_555
H6 C8 1_555 1_555
H7 C14 1_555 1_555
H8 C12 1_555 1_555
H10 C1 1_555 1_555
C8 C9 1_555 1_555
C14 C15 1_555 1_555

#END
