
#######################################################################
#
#                 Cambridge Crystallographic Data Centre
#                                CCDC 
#
#######################################################################
#
# If this CIF has been generated from an entry in the Cambridge 
# Structural Database, then it will include bibliographic, chemical, 
# crystal, experimental, refinement or atomic coordinate data resulting 
# from the CCDC's data processing and validation procedures.
#
#######################################################################

data_XEHLOM
_chemical_name_common            
(1R,2R)-(+)-N,N'-bis(5-t-butylsalicylidene)-1,2-diphenylethylenediamine
_chemical_formula_moiety         'C36 H40 N2 O2'
_chemical_name_systematic        
(1R,2R)-(+)-4,4'-di-t-butyl-2,2'-(1,2-diphenylethane-1,2-diylbis(nitrilomethylidyne))diphenol
_symmetry_cell_setting           orthorhombic
_symmetry_space_group_name_H-M   'P 21 21 2'
_symmetry_Int_Tables_number      18
_space_group_name_Hall           'P 2 2ab'
loop_
_symmetry_equiv_pos_site_id
_symmetry_equiv_pos_as_xyz
1 x,y,z
2 -x,-y,z
3 1/2-x,1/2+y,-z
4 1/2+x,1/2-y,-z
_cell_length_a                   10.4213(16)
_cell_length_b                   22.729(4)
_cell_length_c                   6.3769(10)
_cell_angle_alpha                90
_cell_angle_beta                 90
_cell_angle_gamma                90
_cell_volume                     1510.47
_exptl_crystal_colour            yellow
_exptl_crystal_description       needle
_cell_formula_units_Z            2
_exptl_crystal_recrystallization_method ethanol
loop_
_atom_site_label
_atom_site_type_symbol
_atom_site_fract_x
_atom_site_fract_y
_atom_site_fract_z
N1 N 0.9313(2) 0.55952(12) 0.8145(4)
O1 O 0.8260(3) 0.56053(11) 0.4486(4)
H1 H 0.890(4) 0.5494(18) 0.569(7)
C1 C 0.7506(3) 0.60451(15) 0.5188(6)
C2 C 0.6566(4) 0.62766(17) 0.3892(6)
H2 H 0.6421 0.6112 0.2543
C3 C 0.5847(3) 0.67433(17) 0.4567(6)
H3 H 0.5215 0.6899 0.3648
C4 C 0.5994(3) 0.70021(18) 0.6540(6)
C5 C 0.6896(3) 0.67426(15) 0.7813(6)
H4 H 0.7012 0.6898 0.9183
C6 C 0.7645(3) 0.62671(14) 0.7212(5)
C7 C 0.5236(4) 0.75426(19) 0.7184(7)
C8 C 0.566(2) 0.8023(7) 0.571(4)
H5 H 0.5217 0.8390 0.6079
H6 H 0.5443 0.7913 0.4270
H7 H 0.6587 0.8080 0.5836
C10 C 0.3800(11) 0.7446(15) 0.717(3)
H11 H 0.3527 0.7331 0.5754
H12 H 0.3364 0.7810 0.7572
H13 H 0.3579 0.7133 0.8161
C12 C 0.5675(14) 0.7807(5) 0.9359(14)
H17 H 0.5214 0.8176 0.9621
H18 H 0.6600 0.7884 0.9326
H19 H 0.5482 0.7525 1.0480
C14 C 0.8530(3) 0.60006(15) 0.8683(5)
H23 H 0.8529 0.6132 1.0098
C15 C 1.0100(3) 0.53398(14) 0.9790(5)
H24 H 0.9804 0.5499 1.1169
C16 C 1.1488(3) 0.55000(15) 0.9503(6)
C17 C 1.2309(3) 0.54526(18) 1.1190(6)
H25 H 1.1981 0.5342 1.2522
C18 C 1.3606(4) 0.5564(2) 1.0963(8)
H26 H 1.4162 0.5532 1.2138
C19 C 1.4090(4) 0.5721(2) 0.9042(8)
H27 H 1.4985 0.5784 0.8869
C20 C 1.3281(4) 0.57845(19) 0.7392(7)
H28 H 1.3606 0.5911 0.6075
C21 C 1.1983(3) 0.56663(17) 0.7614(6)
H29 H 1.1432 0.5702 0.6434
N1A N 1.0687(2) 0.44048(12) 0.8145(4)
O1A O 1.1740(3) 0.43947(11) 0.4486(4)
H1A H 1.110(4) 0.4506(18) 0.569(7)
C1A C 1.2494(3) 0.39549(15) 0.5188(6)
C2A C 1.3434(4) 0.37234(17) 0.3892(6)
H2A H 1.3579 0.3888 0.2543
C3A C 1.4153(3) 0.32567(17) 0.4567(6)
H3A H 1.4785 0.3101 0.3648
C4A C 1.4006(3) 0.29979(18) 0.6540(6)
C5A C 1.3104(3) 0.32574(15) 0.7813(6)
H4A H 1.2988 0.3102 0.9183
C6A C 1.2355(3) 0.37329(14) 0.7212(5)
C7A C 1.4764(4) 0.24574(19) 0.7184(7)
C8A C 1.434(2) 0.1977(7) 0.571(4)
H5A H 1.4783 0.1610 0.6079
H6A H 1.4557 0.2087 0.4270
H7A H 1.3413 0.1920 0.5836
C10A C 1.6200(11) 0.2554(15) 0.717(3)
H11A H 1.6473 0.2669 0.5754
H12A H 1.6636 0.2190 0.7572
H13A H 1.6421 0.2867 0.8161
C12A C 1.4325(14) 0.2193(5) 0.9359(14)
H17A H 1.4786 0.1824 0.9621
H18A H 1.3400 0.2116 0.9326
H19A H 1.4518 0.2475 1.0480
C14A C 1.1470(3) 0.39994(15) 0.8683(5)
H23A H 1.1471 0.3868 1.0098
C15A C 0.9900(3) 0.46602(14) 0.9790(5)
H24A H 1.0196 0.4501 1.1169
C16A C 0.8512(3) 0.45000(15) 0.9503(6)
C17A C 0.7691(3) 0.45474(18) 1.1190(6)
H25A H 0.8019 0.4658 1.2522
C18A C 0.6394(4) 0.4436(2) 1.0963(8)
H26A H 0.5838 0.4468 1.2138
C19A C 0.5910(4) 0.4279(2) 0.9042(8)
H27A H 0.5015 0.4216 0.8869
C20A C 0.6719(4) 0.42155(19) 0.7392(7)
H28A H 0.6394 0.4089 0.6075
C21A C 0.8017(3) 0.43337(17) 0.7614(6)
H29A H 0.8568 0.4298 0.6434
C9? C 0.549(4) 0.8107(12) 0.609(7)
H8? H 0.5804 0.8027 0.4669
H9? H 0.6137 0.8331 0.6865
H10? H 0.4694 0.8336 0.6008
C11? C 0.3887(18) 0.743(3) 0.630(6)
H14? H 0.3925 0.7421 0.4760
H15? H 0.3303 0.7738 0.6756
H16? H 0.3575 0.7046 0.6803
C13? C 0.500(2) 0.7466(9) 0.9532(19)
H20? H 0.4380 0.7759 1.0011
H21? H 0.5814 0.7520 1.0290
H22? H 0.4671 0.7070 0.9802
loop_
_geom_bond_atom_site_label_1
_geom_bond_atom_site_label_2
_geom_bond_site_symmetry_1
_geom_bond_site_symmetry_2
N1 C14 1_555 1_555
O1 H1 1_555 1_555
C1 O1 1_555 1_555
C2 C1 1_555 1_555
H2 C2 1_555 1_555
C3 C2 1_555 1_555
H3 C3 1_555 1_555
C4 C3 1_555 1_555
C5 C4 1_555 1_555
H4 C5 1_555 1_555
C6 C1 1_555 1_555
C7 C4 1_555 1_555
C8 C7 1_555 1_555
H5 C8 1_555 1_555
H6 C8 1_555 1_555
H7 C8 1_555 1_555
C10 C7 1_555 1_555
H11 C10 1_555 1_555
H12 C10 1_555 1_555
H13 C10 1_555 1_555
C12 C7 1_555 1_555
H17 C12 1_555 1_555
H18 C12 1_555 1_555
H19 C12 1_555 1_555
C14 C6 1_555 1_555
H23 C14 1_555 1_555
C15 N1 1_555 1_555
H24 C15 1_555 1_555
C16 C15 1_555 1_555
C17 C16 1_555 1_555
H25 C17 1_555 1_555
C18 C17 1_555 1_555
H26 C18 1_555 1_555
C19 C18 1_555 1_555
H27 C19 1_555 1_555
C20 C19 1_555 1_555
H28 C20 1_555 1_555
C21 C16 1_555 1_555
H29 C21 1_555 1_555
N1A C14A 1_555 1_555
O1A H1A 1_555 1_555
C1A O1A 1_555 1_555
C2A C1A 1_555 1_555
H2A C2A 1_555 1_555
C3A C2A 1_555 1_555
H3A C3A 1_555 1_555
C4A C3A 1_555 1_555
C5A C4A 1_555 1_555
H4A C5A 1_555 1_555
C6A C1A 1_555 1_555
C7A C4A 1_555 1_555
C8A C7A 1_555 1_555
H5A C8A 1_555 1_555
H6A C8A 1_555 1_555
H7A C8A 1_555 1_555
C10A C7A 1_555 1_555
H11A C10A 1_555 1_555
H12A C10A 1_555 1_555
H13A C10A 1_555 1_555
C12A C7A 1_555 1_555
H17A C12A 1_555 1_555
H18A C12A 1_555 1_555
H19A C12A 1_555 1_555
C14A C6A 1_555 1_555
H23A C14A 1_555 1_555
C15A C15 1_555 1_555
H24A C15A 1_555 1_555
C16A C15A 1_555 1_555
C17A C16A 1_555 1_555
H25A C17A 1_555 1_555
C18A C17A 1_555 1_555
H26A C18A 1_555 1_555
C19A C18A 1_555 1_555
H27A C19A 1_555 1_555
C20A C19A 1_555 1_555
H28A C20A 1_555 1_555
C21A C16A 1_555 1_555
H29A C21A 1_555 1_555
C5 C6 1_555 1_555
C20 C21 1_555 1_555
N1A C15A 1_555 1_555
C5A C6A 1_555 1_555
C20A C21A 1_555 1_555

#END
