
#######################################################################
#
#                 Cambridge Crystallographic Data Centre
#                                CCDC 
#
#######################################################################
#
# If this CIF has been generated from an entry in the Cambridge 
# Structural Database, then it will include bibliographic, chemical, 
# crystal, experimental, refinement or atomic coordinate data resulting 
# from the CCDC's data processing and validation procedures.
#
#######################################################################

data_XEHLOL
_chemical_formula_moiety         'C27 H20 O1'
_chemical_name_systematic        bis(4-Biphenyl)ethynylmethanol
_symmetry_cell_setting           triclinic
_symmetry_space_group_name_H-M   'P -1'
_symmetry_Int_Tables_number      2
_space_group_name_Hall           '-P 1'
loop_
_symmetry_equiv_pos_site_id
_symmetry_equiv_pos_as_xyz
1 x,y,z
2 -x,-y,-z
_cell_length_a                   5.6413(3)
_cell_length_b                   10.2599(5)
_cell_length_c                   17.3238(9)
_cell_angle_alpha                100.450(2)
_cell_angle_beta                 97.790(2)
_cell_angle_gamma                95.477(2)
_cell_volume                     969.515
_exptl_crystal_colour            colorless
_exptl_crystal_description       plate
_chemical_melting_point          157deg.C
_cell_formula_units_Z            2
loop_
_atom_site_label
_atom_site_type_symbol
_atom_site_fract_x
_atom_site_fract_y
_atom_site_fract_z
C1 C 0.0423(4) -0.0743(3) 0.29797(15)
H1 H -0.037(6) -0.155(3) 0.2918(18)
C2 C 0.1443(4) 0.0348(2) 0.30668(13)
C3 C 0.2633(4) 0.1735(2) 0.31647(13)
O1 O 0.0883(3) 0.26591(16) 0.32794(10)
H2 H -0.003(8) 0.238(4) 0.360(3)
C4 C 0.3638(4) 0.1901(2) 0.24024(13)
C5 C 0.2812(6) 0.2778(3) 0.19456(17)
H3 H 0.149(7) 0.331(4) 0.211(2)
C6 C 0.3804(7) 0.2913(4) 0.12649(19)
H4 H 0.294(8) 0.355(4) 0.093(3)
C7 C 0.5632(4) 0.2191(2) 0.10295(15)
C8 C 0.6933(12) 0.2569(7) 0.0337(4)
C9 C 0.7488(13) 0.1532(8) -0.0184(4)
C10 C 0.8695(17) 0.1854(10) -0.0857(6)
C11 C 0.9392(17) 0.3032(10) -0.0909(6)
C12 C 0.9046(16) 0.4169(8) -0.0341(5)
C13 C 0.7765(13) 0.3910(7) 0.0277(4)
C14 C 0.6400(5) 0.1299(3) 0.14867(16)
H5 H 0.770(6) 0.076(3) 0.134(2)
C15 C 0.5424(5) 0.1155(3) 0.21671(17)
H6 H 0.594(5) 0.052(3) 0.2491(19)
C16 C 0.4697(4) 0.2080(2) 0.38763(13)
C17 C 0.5842(4) 0.1103(2) 0.41913(14)
H7 H 0.528(5) 0.014(3) 0.3960(16)
C18 C 0.7747(4) 0.1467(2) 0.48245(14)
H8 H 0.844(5) 0.079(3) 0.5071(16)
C19 C 0.8535(3) 0.2812(2) 0.51612(12)
C20 C 1.0514(3) 0.3190(2) 0.58493(12)
C21 C 1.2571(4) 0.2522(2) 0.58795(14)
H9 H 1.280(4) 0.184(3) 0.5441(16)
C22 C 1.4380(4) 0.2851(2) 0.65346(15)
H10 H 1.568(5) 0.238(3) 0.6546(18)
C23 C 1.4181(5) 0.3860(3) 0.71682(16)
H11 H 1.546(6) 0.409(3) 0.761(2)
C24 C 1.2180(4) 0.4552(3) 0.71411(15)
H12 H 1.204(5) 0.529(3) 0.7583(19)
C25 C 1.0358(4) 0.4217(2) 0.64876(14)
H13 H 0.895(5) 0.470(2) 0.6447(15)
C26 C 0.7358(4) 0.3784(2) 0.48418(13)
H14 H 0.789(5) 0.472(3) 0.5058(16)
C27 C 0.5500(4) 0.3425(2) 0.42013(13)
H15 H 0.480(4) 0.413(2) 0.3993(15)
C28? C 0.6508(10) 0.2181(6) 0.0279(3)
C29? C 0.8893(16) 0.1860(9) 0.0183(5)
C30? C 0.984(2) 0.1971(11) -0.0516(7)
C31? C 0.776(3) 0.2539(14) -0.1172(8)
C32? C 0.595(2) 0.2654(12) -0.1054(7)
C33? C 0.5090(19) 0.2510(11) -0.0363(7)
C34? C 0.755(2) 0.1131(15) -0.0142(9)
C35? C 0.8428(18) 0.1373(12) -0.0838(6)
C36? C 0.857(2) 0.2489(10) -0.1105(6)
C37? C 0.758(2) 0.3675(13) -0.0672(8)
C38? C 0.654(2) 0.3512(11) -0.0001(7)
loop_
_geom_bond_atom_site_label_1
_geom_bond_atom_site_label_2
_geom_bond_site_symmetry_1
_geom_bond_site_symmetry_2
C1 H1 1_555 1_555
C2 C1 1_555 1_555
C3 C2 1_555 1_555
O1 C3 1_555 1_555
H2 O1 1_555 1_555
C4 C3 1_555 1_555
C5 C4 1_555 1_555
H3 C5 1_555 1_555
C6 C5 1_555 1_555
H4 C6 1_555 1_555
C7 C6 1_555 1_555
C8 C7 1_555 1_555
C9 C8 1_555 1_555
C10 C9 1_555 1_555
C11 C10 1_555 1_555
C12 C11 1_555 1_555
C13 C8 1_555 1_555
C14 C7 1_555 1_555
H5 C14 1_555 1_555
C15 C4 1_555 1_555
H6 C15 1_555 1_555
C16 C3 1_555 1_555
C17 C16 1_555 1_555
H7 C17 1_555 1_555
C18 C17 1_555 1_555
H8 C18 1_555 1_555
C19 C18 1_555 1_555
C20 C19 1_555 1_555
C21 C20 1_555 1_555
H9 C21 1_555 1_555
C22 C21 1_555 1_555
H10 C22 1_555 1_555
C23 C22 1_555 1_555
H11 C23 1_555 1_555
C24 C23 1_555 1_555
H12 C24 1_555 1_555
C25 C20 1_555 1_555
H13 C25 1_555 1_555
C26 C19 1_555 1_555
H14 C26 1_555 1_555
C27 C16 1_555 1_555
H15 C27 1_555 1_555
C12 C13 1_555 1_555
C14 C15 1_555 1_555
C24 C25 1_555 1_555
C26 C27 1_555 1_555

#END
