
#######################################################################
#
#                 Cambridge Crystallographic Data Centre
#                                CCDC 
#
#######################################################################
#
# If this CIF has been generated from an entry in the Cambridge 
# Structural Database, then it will include bibliographic, chemical, 
# crystal, experimental, refinement or atomic coordinate data resulting 
# from the CCDC's data processing and validation procedures.
#
#######################################################################

data_XEHLEB01
_chemical_formula_moiety         'C15 H10 Cl2 O1'
_chemical_name_systematic        bis(4-Chlorophenyl)ethynylmethanol
_symmetry_cell_setting           triclinic
_symmetry_space_group_name_H-M   'P -1'
_symmetry_Int_Tables_number      2
_space_group_name_Hall           '-P 1'
loop_
_symmetry_equiv_pos_site_id
_symmetry_equiv_pos_as_xyz
1 x,y,z
2 -x,-y,-z
_cell_length_a                   5.70820(10)
_cell_length_b                   11.3645(2)
_cell_length_c                   11.51670(10)
_cell_angle_alpha                117.2680(10)
_cell_angle_beta                 99.2570(10)
_cell_angle_gamma                96.7260(10)
_cell_volume                     639.735
_exptl_crystal_colour            colorless
_exptl_crystal_description       block
_chemical_melting_point          72-73deg.C
_cell_formula_units_Z            2
loop_
_atom_site_label
_atom_site_type_symbol
_atom_site_fract_x
_atom_site_fract_y
_atom_site_fract_z
H1 H 1.044(5) -0.109(3) 0.266(3)
C1 C 1.0066(3) -0.02664(17) 0.30273(19)
C2 C 0.9579(3) 0.08150(16) 0.35028(16)
C3 C 0.9001(3) 0.21751(15) 0.40912(16)
O1 O 1.1132(2) 0.31881(11) 0.44629(13)
H2 H 1.163(5) 0.298(2) 0.383(3)
C4 C 0.8200(3) 0.24719(14) 0.53893(15)
C5 C 0.9651(3) 0.34161(15) 0.66530(16)
H3 H 1.126(4) 0.391(2) 0.673(2)
C6 C 0.8855(3) 0.36662(16) 0.78075(17)
H4 H 0.986(4) 0.430(2) 0.867(2)
C7 C 0.6591(3) 0.29600(16) 0.76799(16)
Cl1 Cl 0.04963(8) 0.26483(5) 0.05839(5)
C8 C 0.5132(3) 0.20033(17) 0.64306(17)
H5 H 0.357(4) 0.147(2) 0.632(2)
C9 C 0.5949(3) 0.17631(17) 0.52931(16)
H6 H 0.494(4) 0.110(2) 0.444(2)
C10 C 0.6949(3) 0.22598(15) 0.31106(15)
C11 C 0.6523(3) 0.35366(15) 0.33946(17)
H7 H 0.751(4) 0.432(2) 0.414(2)
C12 C 0.4577(3) 0.36638(17) 0.26036(17)
H8 H 0.435(4) 0.455(2) 0.279(2)
C13 C 0.3042(3) 0.25021(17) 0.15251(16)
Cl2 Cl 0.55431(8) 0.32701(5) 0.91110(4)
C14 C 0.3448(3) 0.12307(17) 0.12157(17)
H9 H 0.247(4) 0.048(2) 0.050(2)
C15 C 0.5417(3) 0.11124(16) 0.20127(17)
H10 H 0.566(4) 0.025(2) 0.179(2)
loop_
_geom_bond_atom_site_label_1
_geom_bond_atom_site_label_2
_geom_bond_site_symmetry_1
_geom_bond_site_symmetry_2
H1 C1 1_555 1_555
C1 C2 1_555 1_555
C2 C3 1_555 1_555
C3 O1 1_555 1_555
O1 H2 1_555 1_555
C4 C3 1_555 1_555
C5 C4 1_555 1_555
H3 C5 1_555 1_555
C6 C5 1_555 1_555
H4 C6 1_555 1_555
C7 C6 1_555 1_555
Cl1 C13 1_555 1_555
C8 C7 1_555 1_555
H5 C8 1_555 1_555
C9 C4 1_555 1_555
H6 C9 1_555 1_555
C10 C3 1_555 1_555
C11 C10 1_555 1_555
H7 C11 1_555 1_555
C12 C11 1_555 1_555
H8 C12 1_555 1_555
C13 C12 1_555 1_555
Cl2 C7 1_555 1_555
C14 C13 1_555 1_555
H9 C14 1_555 1_555
C15 C10 1_555 1_555
H10 C15 1_555 1_555
C8 C9 1_555 1_555
C14 C15 1_555 1_555

#END
