
#######################################################################
#
#                 Cambridge Crystallographic Data Centre
#                                CCDC 
#
#######################################################################
#
# If this CIF has been generated from an entry in the Cambridge 
# Structural Database, then it will include bibliographic, chemical, 
# crystal, experimental, refinement or atomic coordinate data resulting 
# from the CCDC's data processing and validation procedures.
#
#######################################################################

data_XEHMOM02
_chemical_formula_moiety         'C13 H10 N4'
_chemical_name_systematic        
3-(2,2-Dicyanoethenyl)-1-phenyl-4,5-dihydropyrazole
_symmetry_cell_setting           monoclinic
_symmetry_space_group_name_H-M   'C c'
_symmetry_Int_Tables_number      9
_space_group_name_Hall           'C -2yc'
loop_
_symmetry_equiv_pos_site_id
_symmetry_equiv_pos_as_xyz
1 x,y,z
2 x,-y,1/2+z
3 1/2+x,1/2+y,z
4 1/2+x,1/2-y,1/2+z
_cell_length_a                   11.5945(3)
_cell_length_b                   12.2912(4)
_cell_length_c                   7.8944(2)
_cell_angle_alpha                90
_cell_angle_beta                 90.0180(10)
_cell_angle_gamma                90
_cell_volume                     1125.03
_exptl_crystal_colour            red
_exptl_crystal_description       irregular
_cell_formula_units_Z            4
loop_
_atom_site_label
_atom_site_type_symbol
_atom_site_fract_x
_atom_site_fract_y
_atom_site_fract_z
N1 N 0.5704(2) 0.06007(13) 1.3341(2)
N2 N 0.5034(2) 0.39998(13) 1.2328(2)
N3 N 0.3481(2) 0.18991(13) 0.7110(2)
N4 N 0.31107(15) 0.26484(14) 0.6017(2)
C1 C 0.5311(2) 0.1224(2) 1.2408(3)
C2 C 0.4949(2) 0.31304(15) 1.1826(3)
C3 C 0.4853(2) 0.2017(2) 1.1248(3)
C4 C 0.4370(2) 0.1699(2) 0.9753(3)
C5 C 0.3920(2) 0.23780(15) 0.8457(2)
C6 C 0.3391(2) 0.3784(2) 0.6549(3)
C7 C 0.3845(2) 0.3613(2) 0.8367(3)
C8 C 0.2632(2) 0.2344(2) 0.4455(2)
C9 C 0.2550(2) 0.1249(2) 0.4005(3)
C10 C 0.2048(2) 0.0964(2) 0.2467(3)
C11 C 0.1622(2) 0.1762(2) 0.1370(3)
C12 C 0.1701(2) 0.2850(2) 0.1814(3)
C13 C 0.2208(2) 0.3159(2) 0.3362(3)
H1 H 0.4372(18) 0.0916(16) 0.952(3)
H2 H 0.3947(18) 0.4085(16) 0.582(3)
H3 H 0.268(2) 0.4237(18) 0.653(3)
H4 H 0.458(2) 0.3947(19) 0.854(3)
H5 H 0.330(2) 0.3863(18) 0.923(3)
H6 H 0.283(2) 0.0716(19) 0.484(4)
H7 H 0.197(2) 0.018(2) 0.215(4)
H8 H 0.128(3) 0.157(3) 0.030(4)
H9 H 0.144(2) 0.346(2) 0.110(4)
H10 H 0.224(2) 0.397(2) 0.371(3)
loop_
_geom_bond_atom_site_label_1
_geom_bond_atom_site_label_2
_geom_bond_site_symmetry_1
_geom_bond_site_symmetry_2
N1 C1 1_555 1_555
N2 C2 1_555 1_555
N3 N4 1_555 1_555
N4 C6 1_555 1_555
C1 C3 1_555 1_555
C2 C3 1_555 1_555
C3 C4 1_555 1_555
C4 C5 1_555 1_555
C5 N3 1_555 1_555
C6 C7 1_555 1_555
C7 C5 1_555 1_555
C8 N4 1_555 1_555
C9 C8 1_555 1_555
C10 C9 1_555 1_555
C11 C10 1_555 1_555
C12 C11 1_555 1_555
C13 C8 1_555 1_555
H1 C4 1_555 1_555
H2 C6 1_555 1_555
H3 C6 1_555 1_555
H4 C7 1_555 1_555
H5 C7 1_555 1_555
H6 C9 1_555 1_555
H7 C10 1_555 1_555
H8 C11 1_555 1_555
H9 C12 1_555 1_555
H10 C13 1_555 1_555
C12 C13 1_555 1_555

#END
