
#######################################################################
#
#                 Cambridge Crystallographic Data Centre
#                                CCDC 
#
#######################################################################
#
# If this CIF has been generated from an entry in the Cambridge 
# Structural Database, then it will include bibliographic, chemical, 
# crystal, experimental, refinement or atomic coordinate data resulting 
# from the CCDC's data processing and validation procedures.
#
#######################################################################

data_XEHMOM
_chemical_formula_moiety         'C13 H10 N4'
_chemical_name_systematic        
3-(2,2-Dicyanoethenyl)-1-phenyl-4,5-dihydropyrazole
_symmetry_cell_setting           monoclinic
_symmetry_space_group_name_H-M   'C c'
_symmetry_Int_Tables_number      9
_space_group_name_Hall           'C -2yc'
loop_
_symmetry_equiv_pos_site_id
_symmetry_equiv_pos_as_xyz
1 x,y,z
2 x,-y,1/2+z
3 1/2+x,1/2+y,z
4 1/2+x,1/2-y,1/2+z
_cell_length_a                   11.5972(2)
_cell_length_b                   12.2873(2)
_cell_length_c                   7.88770(10)
_cell_angle_alpha                90
_cell_angle_beta                 90.0210(10)
_cell_angle_gamma                90
_cell_volume                     1123.98
_exptl_crystal_colour            red
_exptl_crystal_description       irregular
_cell_formula_units_Z            4
loop_
_atom_site_label
_atom_site_type_symbol
_atom_site_fract_x
_atom_site_fract_y
_atom_site_fract_z
N1 N 0.57031(6) 0.06009(5) 1.33401(9)
N2 N 0.50383(6) 0.40003(5) 1.23365(9)
N3 N 0.34807(6) 0.18977(5) 0.71094(9)
N4 N 0.31106(6) 0.26461(5) 0.60155(8)
C1 C 0.53098(7) 0.12240(6) 1.24063(10)
C2 C 0.49505(7) 0.31263(6) 1.18214(10)
C3 C 0.48533(6) 0.20168(6) 1.12553(10)
C4 C 0.43697(7) 0.16978(6) 0.97498(10)
C5 C 0.39183(6) 0.23780(6) 0.84573(9)
C6 C 0.33923(7) 0.37837(6) 0.65496(10)
C7 C 0.38457(7) 0.36109(6) 0.83672(10)
C8 C 0.26309(6) 0.23429(6) 0.44577(9)
C9 C 0.25490(7) 0.12493(7) 0.40025(10)
C10 C 0.20489(7) 0.09619(8) 0.24698(11)
C11 C 0.16224(7) 0.17644(9) 0.13673(12)
C12 C 0.17053(7) 0.28461(9) 0.18307(12)
C13 C 0.22085(7) 0.31530(7) 0.33606(11)
H1 H 0.4365(7) 0.0961(6) 0.9541(11)
H2 H 0.3936(7) 0.4080(6) 0.5786(11)
H3 H 0.2679(8) 0.4214(7) 0.6519(12)
H4 H 0.4611(8) 0.3925(7) 0.8514(12)
H5 H 0.3290(8) 0.3890(7) 0.9196(13)
H6 H 0.2802(8) 0.0735(7) 0.4733(12)
H7 H 0.2019(8) 0.0209(8) 0.2108(13)
H8 H 0.1286(10) 0.1539(9) 0.0316(16)
H9 H 0.1457(9) 0.3352(9) 0.1149(15)
H10 H 0.2223(9) 0.3929(7) 0.3704(13)
loop_
_geom_bond_atom_site_label_1
_geom_bond_atom_site_label_2
_geom_bond_site_symmetry_1
_geom_bond_site_symmetry_2
N1 C1 1_555 1_555
N2 C2 1_555 1_555
N3 N4 1_555 1_555
N4 C6 1_555 1_555
C1 C3 1_555 1_555
C2 C3 1_555 1_555
C3 C4 1_555 1_555
C4 C5 1_555 1_555
C5 N3 1_555 1_555
C6 C7 1_555 1_555
C7 C5 1_555 1_555
C8 N4 1_555 1_555
C9 C8 1_555 1_555
C10 C9 1_555 1_555
C11 C10 1_555 1_555
C12 C11 1_555 1_555
C13 C8 1_555 1_555
H1 C4 1_555 1_555
H2 C6 1_555 1_555
H3 C6 1_555 1_555
H4 C7 1_555 1_555
H5 C7 1_555 1_555
H6 C9 1_555 1_555
H7 C10 1_555 1_555
H8 C11 1_555 1_555
H9 C12 1_555 1_555
H10 C13 1_555 1_555
C12 C13 1_555 1_555

#END
