
#######################################################################
#
#                 Cambridge Crystallographic Data Centre
#                                CCDC 
#
#######################################################################
#
# If this CIF has been generated from an entry in the Cambridge 
# Structural Database, then it will include bibliographic, chemical, 
# crystal, experimental, refinement or atomic coordinate data resulting 
# from the CCDC's data processing and validation procedures.
#
#######################################################################

data_XEHMAY01
_chemical_formula_moiety         'C21 H12 Cl3 N3 O3,C6 H3 Br3'
_chemical_name_systematic        
'2,4,6-tris-(4-Chlorophenoxy)-1,3,5-triazine 1,3,5-tribromobenzene'
_symmetry_cell_setting           hexagonal
_symmetry_space_group_name_H-M   'P 63'
_symmetry_Int_Tables_number      173
_space_group_name_Hall           'P 6c'
loop_
_symmetry_equiv_pos_site_id
_symmetry_equiv_pos_as_xyz
1 x,y,z
2 -y,x-y,z
3 -x+y,-x,z
4 -x,-y,1/2+z
5 y,-x+y,1/2+z
6 x-y,x,1/2+z
_cell_length_a                   15.250(2)
_cell_length_b                   15.250(2)
_cell_length_c                   6.8149(14)
_cell_angle_alpha                90
_cell_angle_beta                 90
_cell_angle_gamma                120
_cell_volume                     1372.56
_exptl_crystal_colour            colorless
_exptl_crystal_description       Needle
_cell_formula_units_Z            2
_exptl_crystal_recrystallization_method 'benzene/ethyl acetate'
loop_
_atom_site_label
_atom_site_type_symbol
_atom_site_fract_x
_atom_site_fract_y
_atom_site_fract_z
Cl1 Cl 0.28248(4) 0.51759(4) 0.65111(9)
C1 C 0.33892(13) 0.44198(13) 0.6510(4)
C2 C 0.39612(15) 0.44579(15) 0.8120(3)
H1 H 0.4033 0.4869 0.9186
C3 C 0.44300(15) 0.38693(15) 0.8123(3)
H2 H 0.4820 0.3884 0.9185
C4 C 0.42989(12) 0.32615(12) 0.6503(4)
C5 C 0.37199(14) 0.32150(13) 0.4900(4)
H3 H 0.3641 0.2796 0.3842
C6 C 0.32559(14) 0.38076(14) 0.4893(4)
H4 H 0.2866 0.3793 0.3830
O1 O 0.47036(9) 0.26041(9) 0.6491(2)
C7 C 0.57159(12) 0.30103(13) 0.6516(3)
N1 N 0.59961(11) 0.23038(11) 0.6523(3)
C7A C 0.69897(13) 0.27056(18) 0.6516(3)
O1A O 0.73959(9) 0.20995(13) 0.6491(2)
C4A C 0.67385(12) 0.10374(17) 0.6503(4)
C3A C 0.61307(15) 0.05607(21) 0.8123(3)
C2A C 0.55421(15) -0.04967(21) 0.8120(3)
C1A C 0.55802(13) -0.10306(18) 0.6510(4)
Cl1A Cl 0.48241(4) -0.23511(6) 0.65111(9)
C6A C 0.61924(14) -0.05517(20) 0.4893(4)
C5A C 0.67850(13) 0.05049(19) 0.4900(4)
H3A H 0.7204 0.0845 0.3842
H4A H 0.6207 -0.0927 0.3830
H1A H 0.5131 -0.0836 0.9186
H2A H 0.6116 0.0936 0.9185
N1A N 0.76962(11) 0.36923(16) 0.6523(3)
C7B C 0.72944(18) 0.42841(12) 0.6516(3)
O1B O 0.79005(13) 0.52964(9) 0.6491(2)
C4B C 0.89626(17) 0.57011(12) 0.6503(4)
C3B C 0.94393(21) 0.55700(15) 0.8123(3)
C2B C 1.04967(21) 0.60388(15) 0.8120(3)
C1B C 1.10306(18) 0.66108(13) 0.6510(4)
Cl1B Cl 1.23511(6) 0.71752(4) 0.65111(9)
C6B C 1.05517(20) 0.67441(14) 0.4893(4)
C5B C 0.94951(19) 0.62801(14) 0.4900(4)
H3B H 0.9155 0.6359 0.3842
H4B H 1.0927 0.7134 0.3830
H1B H 1.0836 0.5967 0.9186
H2B H 0.9064 0.5180 0.9185
N1B N 0.63077(16) 0.40039(11) 0.6523(3)
Br1 Br 0.780866(18) 0.98944(2) 1.00678(6)
C8 C 0.90847(16) 0.99571(17) 1.0167(5)
C9 C 0.99560(17) 1.09001(16) 1.0164(5)
H5 H 0.9927 1.1495 1.0160
C8B C 1.08724(23) 1.09153(16) 1.0167(5)
Br1B Br 1.208574(27) 1.219134(18) 1.00678(6)
C9B C 1.09441(23) 1.00440(17) 1.0164(5)
C8A C 1.00429(17) 0.91276(23) 1.0167(5)
Br1A Br 1.01056(2) 0.791426(27) 1.00678(6)
C9A C 0.90999(16) 0.90559(23) 1.0164(5)
H5A H 0.8505 0.8432 1.0160
H5B H 1.1568 1.0073 1.0160
loop_
_geom_bond_atom_site_label_1
_geom_bond_atom_site_label_2
_geom_bond_site_symmetry_1
_geom_bond_site_symmetry_2
Cl1 C1 1_555 1_555
C1 C2 1_555 1_555
C2 H1 1_555 1_555
C3 C2 1_555 1_555
H2 C3 1_555 1_555
C4 C3 1_555 1_555
C5 C4 1_555 1_555
H3 C5 1_555 1_555
C6 C1 1_555 1_555
H4 C6 1_555 1_555
O1 C4 1_555 1_555
C7 O1 1_555 1_555
N1 C7 1_555 1_555
Br1 C8 1_555 1_555
C8 C9 1_555 1_555
C9 H5 1_555 1_555
C7A N1 1_555 1_555
O1A C7A 1_555 1_555
C4A O1A 1_555 1_555
C3A C4A 1_555 1_555
C2A C3A 1_555 1_555
C1A C2A 1_555 1_555
Cl1A C1A 1_555 1_555
C6A C1A 1_555 1_555
C5A C4A 1_555 1_555
H3A C5A 1_555 1_555
H4A C6A 1_555 1_555
H1A C2A 1_555 1_555
H2A C3A 1_555 1_555
N1A C7A 1_555 1_555
C7B N1A 1_555 1_555
O1B C7B 1_555 1_555
C4B O1B 1_555 1_555
C3B C4B 1_555 1_555
C2B C3B 1_555 1_555
C1B C2B 1_555 1_555
Cl1B C1B 1_555 1_555
C6B C1B 1_555 1_555
C5B C4B 1_555 1_555
H3B C5B 1_555 1_555
H4B C6B 1_555 1_555
H1B C2B 1_555 1_555
H2B C3B 1_555 1_555
N1B C7 1_555 1_555
C8B C9 1_555 1_555
Br1B C8B 1_555 1_555
C9B C8B 1_555 1_555
C8A C9B 1_555 1_555
Br1A C8A 1_555 1_555
C9A C8 1_555 1_555
H5A C9A 1_555 1_555
H5B C9B 1_555 1_555
C5 C6 1_555 1_555
C6A C5A 1_555 1_555
C7B N1B 1_555 1_555
C6B C5B 1_555 1_555
C8A C9A 1_555 1_555

#END
