
#######################################################################
#
#                 Cambridge Crystallographic Data Centre
#                                CCDC 
#
#######################################################################
#
# If this CIF has been generated from an entry in the Cambridge 
# Structural Database, then it will include bibliographic, chemical, 
# crystal, experimental, refinement or atomic coordinate data resulting 
# from the CCDC's data processing and validation procedures.
#
#######################################################################

data_XEHNIK
_chemical_formula_moiety         'C18 H15 F1'
_chemical_name_systematic        1-[1-(4-fluorophenyl)ethyl]naphthalene
_symmetry_cell_setting           monoclinic
_symmetry_space_group_name_H-M   'P 21/c'
_symmetry_Int_Tables_number      14
_space_group_name_Hall           '-P 2ybc'
loop_
_symmetry_equiv_pos_site_id
_symmetry_equiv_pos_as_xyz
1 x,y,z
2 -x,1/2+y,1/2-z
3 -x,-y,-z
4 x,1/2-y,1/2+z
_cell_length_a                   7.9656(6)
_cell_length_b                   9.4734(8)
_cell_length_c                   17.6511(14)
_cell_angle_alpha                90
_cell_angle_beta                 102.1210(10)
_cell_angle_gamma                90
_cell_volume                     1302.28
_exptl_crystal_colour            colorless
_exptl_crystal_description       block
_cell_formula_units_Z            4
loop_
_atom_site_label
_atom_site_type_symbol
_atom_site_fract_x
_atom_site_fract_y
_atom_site_fract_z
F1 F 1.04397(8) 0.20282(8) 0.07033(4)
C1 C 0.64272(12) 0.39089(10) 0.30433(6)
H1 H 0.7251 0.4169 0.2750
C2 C 0.68459(13) 0.40554(11) 0.38598(6)
H2 H 0.7940 0.4411 0.4105
C3 C 0.56840(13) 0.36879(11) 0.42983(6)
H3 H 0.5980 0.3781 0.4846
C4 C 0.40405(12) 0.31689(10) 0.39367(5)
C5 C 0.27979(13) 0.28318(11) 0.43823(6)
H4 H 0.3089 0.2925 0.4930
C6 C 0.11894(14) 0.23753(11) 0.40330(6)
H5 H 0.0367 0.2169 0.4337
C7 C 0.07566(13) 0.22128(11) 0.32196(6)
H6 H -0.0356 0.1888 0.2979
C8 C 0.19327(12) 0.25212(11) 0.27736(6)
H7 H 0.1620 0.2399 0.2228
C9 C 0.36093(11) 0.30194(9) 0.31122(5)
C10 C 0.48513(11) 0.33977(9) 0.26638(5)
C11 C 0.44038(12) 0.32988(10) 0.17767(5)
H8 H 0.3622 0.2469 0.1641
C12 C 0.33897(13) 0.46111(11) 0.14285(6)
H9 H 0.2330 0.4682 0.1625
H10 H 0.3104 0.4529 0.0862
H11 H 0.4089 0.5458 0.1576
C13 C 0.59929(12) 0.30034(9) 0.14525(5)
C14 C 0.67630(13) 0.39963(11) 0.10493(6)
H12 H 0.6261 0.4905 0.0948
C15 C 0.82615(14) 0.36717(11) 0.07921(6)
H13 H 0.8784 0.4350 0.0519
C16 C 0.89628(12) 0.23473(11) 0.09436(6)
C17 C 0.82424(12) 0.13238(10) 0.13344(6)
H14 H 0.8749 0.0416 0.1429
C18 C 0.67515(12) 0.16686(10) 0.15841(5)
H15 H 0.6233 0.0979 0.1852
loop_
_geom_bond_atom_site_label_1
_geom_bond_atom_site_label_2
_geom_bond_site_symmetry_1
_geom_bond_site_symmetry_2
F1 C16 1_555 1_555
C1 H1 1_555 1_555
C2 C1 1_555 1_555
H2 C2 1_555 1_555
C3 C2 1_555 1_555
H3 C3 1_555 1_555
C4 C3 1_555 1_555
C5 C4 1_555 1_555
H4 C5 1_555 1_555
C6 C5 1_555 1_555
H5 C6 1_555 1_555
C7 C6 1_555 1_555
H6 C7 1_555 1_555
C8 C7 1_555 1_555
H7 C8 1_555 1_555
C9 C4 1_555 1_555
C10 C1 1_555 1_555
C11 C10 1_555 1_555
H8 C11 1_555 1_555
C12 C11 1_555 1_555
H9 C12 1_555 1_555
H10 C12 1_555 1_555
H11 C12 1_555 1_555
C13 C11 1_555 1_555
C14 C13 1_555 1_555
H12 C14 1_555 1_555
C15 C14 1_555 1_555
H13 C15 1_555 1_555
C16 C15 1_555 1_555
C17 C16 1_555 1_555
H14 C17 1_555 1_555
C18 C13 1_555 1_555
H15 C18 1_555 1_555
C8 C9 1_555 1_555
C9 C10 1_555 1_555
C17 C18 1_555 1_555

#END
