
#######################################################################
#
#                 Cambridge Crystallographic Data Centre
#                                CCDC 
#
#######################################################################
#
# If this CIF has been generated from an entry in the Cambridge 
# Structural Database, then it will include bibliographic, chemical, 
# crystal, experimental, refinement or atomic coordinate data resulting 
# from the CCDC's data processing and validation procedures.
#
#######################################################################

data_XEHPUX
_chemical_formula_moiety         'C15 H28 N2,0.5(H2 O1)'
_chemical_name_systematic        '2,4,5-Tri-t-butyl-1H-imidazole hemihydrate'
_symmetry_cell_setting           monoclinic
_symmetry_space_group_name_H-M   'P 21/c'
_symmetry_Int_Tables_number      14
_space_group_name_Hall           '-P 2ybc'
loop_
_symmetry_equiv_pos_site_id
_symmetry_equiv_pos_as_xyz
1 x,y,z
2 -x,1/2+y,1/2-z
3 -x,-y,-z
4 x,1/2-y,1/2+z
_cell_length_a                   11.529(3)
_cell_length_b                   18.656(5)
_cell_length_c                   14.690(4)
_cell_angle_alpha                90
_cell_angle_beta                 94.713(8)
_cell_angle_gamma                90
_cell_volume                     3148.92
_exptl_crystal_colour            colorless
_exptl_crystal_description       block
_cell_formula_units_Z            8
loop_
_atom_site_label
_atom_site_type_symbol
_atom_site_fract_x
_atom_site_fract_y
_atom_site_fract_z
O1 O 0.74079(16) 0.25255(10) -0.03493(11)
H1 H 0.7830(18) 0.2501(15) -0.0824(15)
H2 H 0.6644(14) 0.2543(15) -0.0510(17)
N1 N 0.85308(17) 0.21907(11) 0.15834(13)
N2 N 0.88557(16) 0.24250(11) 0.30504(12)
C1 C 0.91445(19) 0.16001(14) 0.19491(15)
C2 C 0.93547(19) 0.17602(14) 0.28737(15)
C3 C 0.83824(19) 0.26707(13) 0.22614(14)
C4 C 0.7754(2) 0.33788(13) 0.21063(14)
C5 C 0.8239(2) 0.37853(15) 0.13042(16)
H3 H 0.8111 0.3500 0.0745
H4 H 0.9075 0.3868 0.1440
H5 H 0.7839 0.4247 0.1218
C6 C 0.6448(2) 0.32401(14) 0.18808(17)
H6 H 0.6134 0.2987 0.2391
H7 H 0.6336 0.2947 0.1327
H8 H 0.6042 0.3698 0.1781
C7 C 0.7943(2) 0.38457(14) 0.29692(16)
H9 H 0.7610 0.3604 0.3480
H10 H 0.7560 0.4310 0.2859
H11 H 0.8778 0.3920 0.3118
C8 C 0.9408(2) 0.09875(16) 0.13025(17)
C9 C 1.0660(3) 0.1064(2) 0.1007(2)
H12 H 1.0726 0.1515 0.0672
H13 H 1.0832 0.0661 0.0613
H14 H 1.1214 0.1066 0.1550
C10 C 0.8562(4) 0.0996(2) 0.0454(2)
H15 H 0.7764 0.0955 0.0632
H16 H 0.8730 0.0592 0.0059
H17 H 0.8646 0.1447 0.0123
C11 C 0.9276(3) 0.02466(16) 0.17446(19)
H18 H 0.8489 0.0199 0.1944
H19 H 0.9847 0.0198 0.2273
H20 H 0.9407 -0.0129 0.1298
C12 C 0.9990(2) 0.13685(16) 0.36880(16)
C13 C 1.1175(2) 0.1060(2) 0.3474(2)
H21 H 1.1057 0.0696 0.2994
H22 H 1.1558 0.0841 0.4026
H23 H 1.1666 0.1446 0.3265
C14 C 1.0271(3) 0.19136(18) 0.44742(18)
H24 H 1.0736 0.2308 0.4255
H25 H 1.0712 0.1673 0.4985
H26 H 0.9544 0.2104 0.4679
C15 C 0.9220(3) 0.07747(16) 0.40493(18)
H27 H 0.9086 0.0401 0.3584
H28 H 0.8473 0.0980 0.4190
H29 H 0.9612 0.0566 0.4604
H72 H 0.824(2) 0.2255(14) 0.1026(18)
N3 N 0.38809(18) 0.21585(11) 0.26974(16)
N4 N 0.48772(17) 0.24078(12) 0.39839(13)
C16 C 0.3585(2) 0.28623(13) 0.28871(16)
C17 C 0.42133(19) 0.30100(13) 0.37047(15)
C18 C 0.46433(19) 0.19089(13) 0.33670(17)
C19 C 0.5155(2) 0.11577(14) 0.33569(19)
C20 C 0.6227(2) 0.11664(14) 0.27908(19)
H30 H 0.6809 0.1502 0.3068
H31 H 0.5989 0.1319 0.2165
H32 H 0.6564 0.0684 0.2781
C21 C 0.4254(2) 0.06298(15) 0.2925(3)
H33 H 0.4055 0.0761 0.2285
H34 H 0.3552 0.0647 0.3258
H35 H 0.4577 0.0144 0.2956
C22 C 0.5531(3) 0.09270(17) 0.4345(2)
H36 H 0.6121 0.1260 0.4613
H37 H 0.5857 0.0442 0.4343
H38 H 0.4854 0.0932 0.4707
C23 C 0.2740(3) 0.32454(15) 0.21856(19)
C24 C 0.1687(5) 0.3633(4) 0.2731(5)
H39 H 0.1161 0.3264 0.2935
H40 H 0.1248 0.3965 0.2317
H41 H 0.2035 0.3897 0.3262
C25 C 0.2941(4) 0.2947(3) 0.1160(3)
H42 H 0.3743 0.2775 0.1147
H43 H 0.2801 0.3336 0.0715
H44 H 0.2399 0.2553 0.1004
C26 C 0.3257(4) 0.4066(2) 0.2046(3)
H45 H 0.3953 0.4040 0.1707
H46 H 0.3459 0.4284 0.2645
H47 H 0.2664 0.4358 0.1704
C30 C 0.4294(2) 0.36719(16) 0.43254(17)
C33 C 0.4707(6) 0.3313(3) 0.5331(3)
H63 H 0.4280 0.2866 0.5406
H64 H 0.4543 0.3649 0.5817
H65 H 0.5544 0.3212 0.5366
C34 C 0.4481(6) 0.4411(3) 0.3660(4)
H66 H 0.3965 0.4378 0.3097
H67 H 0.5292 0.4434 0.3507
H68 H 0.4294 0.4845 0.3996
C35 C 0.3140(3) 0.38970(18) 0.4629(3)
H69 H 0.2857 0.3530 0.5033
H70 H 0.2582 0.3955 0.4094
H71 H 0.3227 0.4353 0.4957
H73 H 0.360(3) 0.1939(16) 0.225(2)
C27? C 0.1579(4) 0.3239(3) 0.2324(4)
H48? H 0.1183 0.2886 0.1938
H49? H 0.1480 0.3130 0.2951
H50? H 0.1259 0.3704 0.2177
C28? C 0.1851(5) 0.2594(3) 0.1768(4)
H51? H 0.2262 0.2282 0.1387
H52? H 0.1569 0.2324 0.2260
H53? H 0.1206 0.2809 0.1412
C29? C 0.3157(5) 0.3639(4) 0.1536(4)
H54? H 0.3771 0.3373 0.1260
H55? H 0.3480 0.4086 0.1802
H56? H 0.2530 0.3751 0.1067
C31? C 0.5367(5) 0.3715(3) 0.4983(4)
H57? H 0.5378 0.3330 0.5418
H58? H 0.6033 0.3677 0.4634
H59? H 0.5387 0.4165 0.5299
C32? C 0.5131(5) 0.4160(3) 0.4093(4)
H60? H 0.5864 0.4044 0.4417
H61? H 0.5202 0.4128 0.3447
H62? H 0.4909 0.4638 0.4245
loop_
_geom_bond_atom_site_label_1
_geom_bond_atom_site_label_2
_geom_bond_site_symmetry_1
_geom_bond_site_symmetry_2
O1 H1 1_555 1_555
H2 O1 1_555 1_555
N1 C1 1_555 1_555
N2 C2 1_555 1_555
C1 C2 1_555 1_555
C2 C12 1_555 1_555
C3 N1 1_555 1_555
C4 C3 1_555 1_555
C5 C4 1_555 1_555
H3 C5 1_555 1_555
H4 C5 1_555 1_555
H5 C5 1_555 1_555
C6 C4 1_555 1_555
H6 C6 1_555 1_555
H7 C6 1_555 1_555
H8 C6 1_555 1_555
C7 C4 1_555 1_555
H9 C7 1_555 1_555
H10 C7 1_555 1_555
H11 C7 1_555 1_555
C8 C1 1_555 1_555
C9 C8 1_555 1_555
H12 C9 1_555 1_555
H13 C9 1_555 1_555
H14 C9 1_555 1_555
C10 C8 1_555 1_555
H15 C10 1_555 1_555
H16 C10 1_555 1_555
H17 C10 1_555 1_555
C11 C8 1_555 1_555
H18 C11 1_555 1_555
H19 C11 1_555 1_555
H20 C11 1_555 1_555
C12 C13 1_555 1_555
C13 H21 1_555 1_555
H22 C13 1_555 1_555
H23 C13 1_555 1_555
C14 C12 1_555 1_555
H24 C14 1_555 1_555
H25 C14 1_555 1_555
H26 C14 1_555 1_555
C15 C12 1_555 1_555
H27 C15 1_555 1_555
H28 C15 1_555 1_555
H29 C15 1_555 1_555
N3 C16 1_555 1_555
N4 C17 1_555 1_555
C16 C17 1_555 1_555
C17 C30 1_555 1_555
C18 N3 1_555 1_555
C19 C18 1_555 1_555
C20 C19 1_555 1_555
H30 C20 1_555 1_555
H31 C20 1_555 1_555
H32 C20 1_555 1_555
C21 C19 1_555 1_555
H33 C21 1_555 1_555
H34 C21 1_555 1_555
H35 C21 1_555 1_555
C22 C19 1_555 1_555
H36 C22 1_555 1_555
H37 C22 1_555 1_555
H38 C22 1_555 1_555
C23 C16 1_555 1_555
C24 C23 1_555 1_555
H39 C24 1_555 1_555
H40 C24 1_555 1_555
H41 C24 1_555 1_555
C25 C23 1_555 1_555
H42 C25 1_555 1_555
H43 C25 1_555 1_555
H44 C25 1_555 1_555
C26 C23 1_555 1_555
H45 C26 1_555 1_555
H46 C26 1_555 1_555
H47 C26 1_555 1_555
C30 C33 1_555 1_555
C33 H63 1_555 1_555
H64 C33 1_555 1_555
H65 C33 1_555 1_555
C34 C30 1_555 1_555
H66 C34 1_555 1_555
H67 C34 1_555 1_555
H68 C34 1_555 1_555
C35 C30 1_555 1_555
H69 C35 1_555 1_555
H70 C35 1_555 1_555
H71 C35 1_555 1_555
H72 N1 1_555 1_555
H73 N3 1_555 1_555
N2 C3 1_555 1_555
N4 C18 1_555 1_555

#END
