
#######################################################################
#
#                 Cambridge Crystallographic Data Centre
#                                CCDC 
#
#######################################################################
#
# If this CIF has been generated from an entry in the Cambridge 
# Structural Database, then it will include bibliographic, chemical, 
# crystal, experimental, refinement or atomic coordinate data resulting 
# from the CCDC's data processing and validation procedures.
#
#######################################################################

data_XEHPEG01
_chemical_formula_moiety         'C14 H12 O3'
_chemical_name_systematic        
(E)-3-(Fur-2-yl)-1-(4-methoxyphenyl)prop-2-en-1-one
_symmetry_cell_setting           monoclinic
_symmetry_space_group_name_H-M   'P 21/n'
_symmetry_Int_Tables_number      14
_space_group_name_Hall           '-P 2yn'
loop_
_symmetry_equiv_pos_site_id
_symmetry_equiv_pos_as_xyz
1 x,y,z
2 1/2-x,1/2+y,1/2-z
3 -x,-y,-z
4 1/2+x,1/2-y,1/2+z
_cell_length_a                   7.1583(3)
_cell_length_b                   19.1516(8)
_cell_length_c                   8.4293(3)
_cell_angle_alpha                90
_cell_angle_beta                 94.357(4)
_cell_angle_gamma                90
_cell_volume                     1152.26
_exptl_crystal_colour            yellow
_exptl_crystal_description       block
_chemical_melting_point          '341 K'
_cell_formula_units_Z            4
loop_
_atom_site_label
_atom_site_type_symbol
_atom_site_fract_x
_atom_site_fract_y
_atom_site_fract_z
C1 C 0.5604(2) 0.90359(8) -0.00421(19)
C2 C 0.3963(2) 0.85830(8) 0.01140(19)
H1 H 0.3954 0.8290 0.0993
C3 C 0.2496(2) 0.85775(8) -0.09527(19)
H2 H 0.2546 0.8877 -0.1818
C4 C 0.0853(2) 0.81579(8) -0.09015(19)
C5 C -0.0871(3) 0.73468(11) 0.0068(2)
H3 H -0.1271 0.6994 0.0720
C6 C -0.1863(3) 0.75916(11) -0.1198(2)
H4 H -0.3048 0.7446 -0.1591
C7 C -0.0767(2) 0.81144(10) -0.1830(2)
H5 H -0.1095 0.8383 -0.2727
C8 C 0.7104(2) 0.90560(8) 0.12703(18)
C9 C 0.7260(2) 0.85704(8) 0.24994(19)
H6 H 0.6348 0.8227 0.2552
C10 C 0.8739(2) 0.85887(8) 0.3638(2)
H7 H 0.8827 0.8254 0.4440
C11 C 1.0100(2) 0.91016(8) 0.36004(19)
C12 C 0.9963(2) 0.95944(8) 0.2403(2)
H8 H 1.0863 0.9943 0.2365
C13 C 0.8480(2) 0.95650(8) 0.1263(2)
H9 H 0.8399 0.9899 0.0460
C14 C 1.3024(2) 0.95549(10) 0.4718(2)
H10 H 1.3600 0.9490 0.3737
H11 H 1.3931 0.9471 0.5596
H12 H 1.2567 1.0025 0.4773
O1 O 0.08105(16) 0.76778(6) 0.02948(13)
O2 O 0.57315(17) 0.93872(7) -0.12483(15)
O3 O 1.14981(16) 0.90766(6) 0.47907(14)
loop_
_geom_bond_atom_site_label_1
_geom_bond_atom_site_label_2
_geom_bond_site_symmetry_1
_geom_bond_site_symmetry_2
C1 C2 1_555 1_555
C2 H1 1_555 1_555
C3 C2 1_555 1_555
H2 C3 1_555 1_555
C4 C3 1_555 1_555
C5 H3 1_555 1_555
C6 C5 1_555 1_555
H4 C6 1_555 1_555
C7 C4 1_555 1_555
H5 C7 1_555 1_555
C8 C1 1_555 1_555
C9 C8 1_555 1_555
H6 C9 1_555 1_555
C10 C9 1_555 1_555
H7 C10 1_555 1_555
C11 C10 1_555 1_555
C12 C11 1_555 1_555
H8 C12 1_555 1_555
C13 C8 1_555 1_555
H9 C13 1_555 1_555
C14 H10 1_555 1_555
H11 C14 1_555 1_555
H12 C14 1_555 1_555
O1 C4 1_555 1_555
O2 C1 1_555 1_555
O3 C11 1_555 1_555
C5 O1 1_555 1_555
C6 C7 1_555 1_555
C12 C13 1_555 1_555
C14 O3 1_555 1_555

#END
