
#######################################################################
#
#                 Cambridge Crystallographic Data Centre
#                                CCDC 
#
#######################################################################
#
# If this CIF has been generated from an entry in the Cambridge 
# Structural Database, then it will include bibliographic, chemical, 
# crystal, experimental, refinement or atomic coordinate data resulting 
# from the CCDC's data processing and validation procedures.
#
#######################################################################

data_XEHPIK
_chemical_formula_moiety         'C42 H37 N1 O4'
_chemical_name_systematic        
'1-Benzyl-2-((2RS,3SR,6SR)-3-methyl-4-oxo-2,6-diphenylpiperidin-1-ylcarbonyl)-2-phenylethenyl phenylacetate'
_symmetry_cell_setting           triclinic
_symmetry_space_group_name_H-M   'P -1'
_symmetry_Int_Tables_number      2
_space_group_name_Hall           '-P 1'
loop_
_symmetry_equiv_pos_site_id
_symmetry_equiv_pos_as_xyz
1 x,y,z
2 -x,-y,-z
_cell_length_a                   9.3027(3)
_cell_length_b                   12.1333(5)
_cell_length_c                   14.5927(6)
_cell_angle_alpha                88.7510(17)
_cell_angle_beta                 78.574(3)
_cell_angle_gamma                85.653(2)
_cell_volume                     1609.79
_exptl_crystal_colour            colorless
_exptl_crystal_description       plate
_chemical_melting_point          '419-421 K'
_cell_formula_units_Z            2
_exptl_crystal_recrystallization_method ethanol/water
loop_
_atom_site_label
_atom_site_type_symbol
_atom_site_fract_x
_atom_site_fract_y
_atom_site_fract_z
C1 C 0.2356(2) 0.43745(17) 0.33712(14)
C2 C 0.1334(2) 0.53735(18) 0.36474(14)
C3 C 0.0816(2) 0.60214(18) 0.28508(15)
C4 C 0.0602(3) 0.5520(2) 0.20435(16)
C5 C 0.0064(3) 0.6143(2) 0.13589(17)
C6 C -0.0288(3) 0.7261(2) 0.14681(17)
C7 C -0.0094(3) 0.7758(2) 0.22692(18)
C8 C 0.0463(3) 0.7141(2) 0.29531(17)
O1 O 0.16875(15) 0.34768(12) 0.30674(10)
C9 C 0.0938(2) 0.28122(18) 0.37423(16)
O2 O 0.06080(17) 0.30686(13) 0.45492(11)
C10 C 0.0658(3) 0.17689(19) 0.32941(16)
C11 C -0.0574(2) 0.11470(18) 0.38370(15)
C12 C -0.1918(3) 0.1688(2) 0.42342(17)
C13 C -0.3067(3) 0.1106(2) 0.47079(18)
C14 C -0.2887(3) -0.0033(2) 0.47951(17)
C15 C -0.1564(3) -0.0582(2) 0.44091(17)
C16 C -0.0423(3) 0.00086(19) 0.39343(17)
C17 C 0.3793(2) 0.41933(17) 0.33484(14)
C18 C 0.4813(2) 0.49775(18) 0.35853(14)
C19 C 0.5994(2) 0.4542(2) 0.39704(15)
C20 C 0.7003(3) 0.5218(2) 0.41917(16)
C21 C 0.6862(3) 0.6342(2) 0.40385(16)
C22 C 0.5708(3) 0.6784(2) 0.36463(16)
C23 C 0.4689(2) 0.61127(18) 0.34235(15)
C24 C 0.4454(2) 0.30227(18) 0.31279(15)
O3 O 0.42009(17) 0.22856(12) 0.37155(10)
N1 N 0.53379(19) 0.28357(14) 0.22807(12)
C25 C 0.6095(2) 0.17035(17) 0.21216(15)
C26 C 0.5041(2) 0.08504(18) 0.19800(16)
C27 C 0.4433(3) 0.0850(2) 0.11868(18)
C28 C 0.3486(3) 0.0059(2) 0.1075(2)
C29 C 0.3135(3) -0.0740(2) 0.1749(2)
C30 C 0.3730(3) -0.0747(2) 0.2543(2)
C31 C 0.4681(3) 0.0039(2) 0.26610(18)
C32 C 0.7436(2) 0.17069(19) 0.13054(16)
C33 C 0.8405(3) 0.0642(2) 0.13068(19)
C34 C 0.8295(3) 0.2720(2) 0.12965(16)
O4 O 0.96224(18) 0.26760(16) 0.11562(14)
C35 C 0.7406(2) 0.3808(2) 0.14707(16)
C36 C 0.5752(2) 0.37259(18) 0.15922(15)
C37 C 0.5154(2) 0.35869(17) 0.07048(14)
C38 C 0.6029(2) 0.35915(19) -0.01801(15)
C39 C 0.5429(3) 0.3476(2) -0.09700(16)
C40 C 0.3938(3) 0.3367(2) -0.08813(16)
C41 C 0.3051(3) 0.3382(2) 0.00000(16)
C42 C 0.3652(2) 0.34915(19) 0.07836(16)
H1 H 0.1828 0.5878 0.3988
H2 H 0.0457 0.5139 0.4089
H3 H 0.0826 0.4747 0.1961
H4 H -0.0063 0.5792 0.0808
H5 H -0.0658 0.7683 0.0998
H6 H -0.0342 0.8528 0.2356
H7 H 0.0601 0.7498 0.3499
H8 H 0.0437 0.1957 0.2671
H9 H 0.1571 0.1274 0.3197
H10 H -0.2049 0.2469 0.4180
H11 H -0.3979 0.1488 0.4973
H12 H -0.3674 -0.0433 0.5120
H13 H -0.1433 -0.1362 0.4468
H14 H 0.0486 -0.0378 0.3669
H15 H 0.6106 0.3769 0.4082
H16 H 0.7802 0.4905 0.4452
H17 H 0.7549 0.6807 0.4200
H18 H 0.5613 0.7557 0.3528
H19 H 0.3898 0.6430 0.3158
H20 H 0.6475 0.1485 0.2699
H21 H 0.4668 0.1397 0.0716
H22 H 0.3075 0.0067 0.0528
H23 H 0.2486 -0.1282 0.1669
H24 H 0.3487 -0.1295 0.3011
H25 H 0.5090 0.0025 0.3209
H26 H 0.7049 0.1723 0.0713
H27 H 0.9232 0.0644 0.0773
H28 H 0.7828 0.0010 0.1259
H29 H 0.8781 0.0585 0.1889
H30 H 0.7730 0.4312 0.0940
H31 H 0.7613 0.4140 0.2040
H32 H 0.5272 0.4432 0.1885
H33 H 0.7052 0.3675 -0.0249
H34 H 0.6045 0.3471 -0.1573
H35 H 0.3527 0.3282 -0.1420
H36 H 0.2024 0.3317 0.0067
H37 H 0.3032 0.3502 0.1385
loop_
_geom_bond_atom_site_label_1
_geom_bond_atom_site_label_2
_geom_bond_site_symmetry_1
_geom_bond_site_symmetry_2
C1 C2 1_555 1_555
C2 C3 1_555 1_555
C3 C4 1_555 1_555
C4 C5 1_555 1_555
C5 C6 1_555 1_555
C6 C7 1_555 1_555
C7 C8 1_555 1_555
C8 C3 1_555 1_555
O1 C1 1_555 1_555
C9 O1 1_555 1_555
O2 C9 1_555 1_555
C10 C9 1_555 1_555
C11 C10 1_555 1_555
C12 C11 1_555 1_555
C13 C12 1_555 1_555
C14 C13 1_555 1_555
C15 C14 1_555 1_555
C16 C11 1_555 1_555
C17 C1 1_555 1_555
C18 C17 1_555 1_555
C19 C18 1_555 1_555
C20 C19 1_555 1_555
C21 C20 1_555 1_555
C22 C21 1_555 1_555
C23 C18 1_555 1_555
C24 C17 1_555 1_555
O3 C24 1_555 1_555
N1 C24 1_555 1_555
C25 N1 1_555 1_555
C26 C25 1_555 1_555
C27 C26 1_555 1_555
C28 C27 1_555 1_555
C29 C28 1_555 1_555
C30 C29 1_555 1_555
C31 C26 1_555 1_555
C32 C25 1_555 1_555
C33 C32 1_555 1_555
C34 C32 1_555 1_555
O4 C34 1_555 1_555
C35 C34 1_555 1_555
C36 N1 1_555 1_555
C37 C36 1_555 1_555
C38 C37 1_555 1_555
C39 C38 1_555 1_555
C40 C39 1_555 1_555
C41 C40 1_555 1_555
C42 C37 1_555 1_555
H1 C2 1_555 1_555
H2 C2 1_555 1_555
H3 C4 1_555 1_555
H4 C5 1_555 1_555
H5 C6 1_555 1_555
H6 C7 1_555 1_555
H7 C8 1_555 1_555
H8 C10 1_555 1_555
H9 C10 1_555 1_555
H10 C12 1_555 1_555
H11 C13 1_555 1_555
H12 C14 1_555 1_555
H13 C15 1_555 1_555
H14 C16 1_555 1_555
H15 C19 1_555 1_555
H16 C20 1_555 1_555
H17 C21 1_555 1_555
H18 C22 1_555 1_555
H19 C23 1_555 1_555
H20 C25 1_555 1_555
H21 C27 1_555 1_555
H22 C28 1_555 1_555
H23 C29 1_555 1_555
H24 C30 1_555 1_555
H25 C31 1_555 1_555
H26 C32 1_555 1_555
H27 C33 1_555 1_555
H28 C33 1_555 1_555
H29 C33 1_555 1_555
H30 C35 1_555 1_555
H31 C35 1_555 1_555
H32 C36 1_555 1_555
H33 C38 1_555 1_555
H34 C39 1_555 1_555
H35 C40 1_555 1_555
H36 C41 1_555 1_555
H37 C42 1_555 1_555
C15 C16 1_555 1_555
C22 C23 1_555 1_555
C30 C31 1_555 1_555
C35 C36 1_555 1_555
C41 C42 1_555 1_555

#END
