
#######################################################################
#
#                 Cambridge Crystallographic Data Centre
#                                CCDC 
#
#######################################################################
#
# If this CIF has been generated from an entry in the Cambridge 
# Structural Database, then it will include bibliographic, chemical, 
# crystal, experimental, refinement or atomic coordinate data resulting 
# from the CCDC's data processing and validation procedures.
#
#######################################################################

data_XEHQIM
_chemical_formula_moiety         'C68 H124 N8 Sr2'
_chemical_name_systematic        
bis((\m~2~-2-t-Butyl-4,5-bis(2-methylbutan-2-yl)-2,3-dihydro-1H-imidazole-1,3-diyl)-(2-t-butyl-4,5-bis(2-methylbutan-2-yl)-2,3-dihydro-1H-imidazole-N))-di-strontium
_symmetry_cell_setting           monoclinic
_symmetry_space_group_name_H-M   'P 21/c'
_symmetry_Int_Tables_number      14
_space_group_name_Hall           '-P 2ybc'
loop_
_symmetry_equiv_pos_site_id
_symmetry_equiv_pos_as_xyz
1 x,y,z
2 -x,1/2+y,1/2-z
3 -x,-y,-z
4 x,1/2-y,1/2+z
_cell_length_a                   11.125(2)
_cell_length_b                   16.014(3)
_cell_length_c                   19.036(3)
_cell_angle_alpha                90
_cell_angle_beta                 93.203(7)
_cell_angle_gamma                90
_cell_volume                     3386.07
_exptl_crystal_colour            colorless
_exptl_crystal_description       block
_cell_formula_units_Z            2
loop_
_atom_site_label
_atom_site_type_symbol
_atom_site_fract_x
_atom_site_fract_y
_atom_site_fract_z
Sr1 Sr 0.43021(8) 0.07924(5) 0.87329(4)
N1 N 0.3520(7) 0.1489(4) 0.7609(4)
N2 N 0.1691(9) 0.1829(5) 0.7163(5)
N3 N 0.6000(7) 0.0761(5) 1.0914(4)
N4 N 0.5489(7) 0.1342(4) 0.9863(4)
C1 C 0.2533(9) 0.1969(6) 0.7666(5)
C2 C 0.3288(9) 0.0996(5) 0.7015(5)
C3 C 0.2124(11) 0.1188(6) 0.6752(6)
C4 C 0.2397(9) 0.2680(6) 0.8173(5)
C5 C 0.1283(11) 0.2528(7) 0.8605(6)
H1 H 0.1446 0.2065 0.8933
H2 H 0.0590 0.2388 0.8286
H3 H 0.1106 0.3034 0.8870
C6 C 0.2211(12) 0.3505(6) 0.7752(6)
H4 H 0.2930 0.3624 0.7494
H5 H 0.2072 0.3965 0.8078
H6 H 0.1513 0.3448 0.7418
C7 C 0.3512(9) 0.2824(6) 0.8662(6)
H7 H 0.3675 0.2322 0.8947
H8 H 0.3373 0.3299 0.8972
H9 H 0.4205 0.2942 0.8381
C8 C 0.4318(10) 0.0440(6) 0.6754(5)
C9 C 0.4122(11) -0.0477(6) 0.6979(6)
H10 H 0.3360 -0.0683 0.6761
H11 H 0.4097 -0.0507 0.7492
H12 H 0.4786 -0.0823 0.6826
C10 C 0.4388(12) 0.0484(8) 0.5962(6)
H13 H 0.3631 0.0281 0.5735
H14 H 0.5055 0.0136 0.5818
H15 H 0.4521 0.1064 0.5821
C11 C 0.5534(9) 0.0718(6) 0.7084(5)
H16 H 0.5492 0.0683 0.7602
H17 H 0.6143 0.0306 0.6948
C12 C 0.5991(12) 0.1565(8) 0.6914(7)
H18 H 0.6782 0.1651 0.7156
H19 H 0.5428 0.1989 0.7070
H20 H 0.6063 0.1613 0.6405
C13 C 0.1267(12) 0.0882(7) 0.6158(7)
C14 C 0.1297(13) -0.0079(7) 0.6042(7)
H21 H 0.1086 -0.0363 0.6474
H22 H 0.2107 -0.0248 0.5922
H23 H 0.0716 -0.0231 0.5657
C15 C 0.1522(17) 0.1319(8) 0.5466(7)
H24 H 0.1294 0.1909 0.5494
H25 H 0.1054 0.1051 0.5078
H26 H 0.2382 0.1277 0.5385
C16 C -0.0013(14) 0.1086(9) 0.6309(9)
H27 H -0.0533 0.0909 0.5897
H28 H -0.0080 0.1701 0.6342
C17 C -0.0535(12) 0.0715(9) 0.6964(9)
H29 H -0.1403 0.0823 0.6953
H30 H -0.0145 0.0972 0.7385
H31 H -0.0393 0.0111 0.6975
C18 C 0.5106(9) 0.0994(5) 1.0457(5)
C19 C 0.7064(9) 0.1002(5) 1.0609(5)
C20 C 0.6751(9) 0.1362(6) 0.9963(5)
C21 C 0.3818(8) 0.1098(5) 1.0677(5)
C22 C 0.2897(10) 0.1044(6) 1.0086(6)
H32 H 0.2921 0.0488 0.9873
H33 H 0.3061 0.1468 0.9733
H34 H 0.2097 0.1141 1.0263
C23 C 0.3528(9) 0.0456(6) 1.1226(5)
H35 H 0.3564 -0.0104 1.1021
H36 H 0.2717 0.0558 1.1383
H37 H 0.4114 0.0499 1.1628
C24 C 0.3768(9) 0.1971(6) 1.1005(6)
H38 H 0.2968 0.2066 1.1180
H39 H 0.3929 0.2392 1.0649
H40 H 0.4377 0.2013 1.1396
C25 C 0.8186(10) 0.0973(6) 1.1110(6)
C26 C 0.9382(11) 0.1011(9) 1.0792(7)
H41 H 0.9442 0.0556 1.0452
H42 H 1.0023 0.0955 1.1163
H43 H 0.9463 0.1548 1.0552
C27 C 0.8178(11) 0.0168(6) 1.1553(6)
H44 H 0.8270 -0.0317 1.1246
H45 H 0.7414 0.0126 1.1782
H46 H 0.8845 0.0182 1.1911
C28 C 0.8024(12) 0.1750(7) 1.1636(7)
H47 H 0.8023 0.2267 1.1351
H48 H 0.7216 0.1702 1.1826
C29 C 0.8889(15) 0.1864(10) 1.2230(8)
H49 H 0.8677 0.2363 1.2494
H50 H 0.9697 0.1932 1.2057
H51 H 0.8876 0.1375 1.2538
C30 C 0.7456(9) 0.1843(6) 0.9418(5)
C31 C 0.6623(11) 0.2035(7) 0.8774(6)
H52 H 0.5919 0.2344 0.8920
H53 H 0.6360 0.1511 0.8548
H54 H 0.7055 0.2372 0.8441
C32 C 0.8545(11) 0.1355(8) 0.9139(7)
H55 H 0.9199 0.1336 0.9505
H56 H 0.8825 0.1638 0.8722
H57 H 0.8294 0.0785 0.9014
C33 C 0.7895(11) 0.2674(6) 0.9720(6)
H58 H 0.8468 0.2565 1.0127
H59 H 0.8339 0.2971 0.9359
C34 C 0.6907(12) 0.3240(7) 0.9958(7)
H60 H 0.7263 0.3756 1.0152
H61 H 0.6467 0.2956 1.0321
H62 H 0.6352 0.3373 0.9556
Sr1B Sr 0.56979(8) -0.07924(5) 1.12671(4)
N1B N 0.6480(7) -0.1489(4) 1.2391(4)
N2B N 0.8309(9) -0.1829(5) 1.2837(5)
N3B N 0.4000(7) -0.0761(5) 0.9086(4)
N4B N 0.4511(7) -0.1342(4) 1.0137(4)
C1B C 0.7467(9) -0.1969(6) 1.2334(5)
C2B C 0.6712(9) -0.0996(5) 1.2985(5)
C3B C 0.7876(11) -0.1188(6) 1.3248(6)
C4B C 0.7603(9) -0.2680(6) 1.1827(5)
C5B C 0.8717(11) -0.2528(7) 1.1395(6)
H1B H 0.8554 -0.2065 1.1067
H2B H 0.9410 -0.2388 1.1714
H3B H 0.8894 -0.3034 1.1130
C6B C 0.7789(12) -0.3505(6) 1.2248(6)
H4B H 0.7070 -0.3624 1.2506
H5B H 0.7928 -0.3965 1.1922
H6B H 0.8487 -0.3448 1.2582
C7B C 0.6488(9) -0.2824(6) 1.1338(6)
H7B H 0.6325 -0.2322 1.1053
H8B H 0.6627 -0.3299 1.1028
H9B H 0.5795 -0.2942 1.1619
C8B C 0.5682(10) -0.0440(6) 1.3246(5)
C9B C 0.5878(11) 0.0477(6) 1.3021(6)
H10B H 0.6640 0.0683 1.3239
H11B H 0.5903 0.0507 1.2508
H12B H 0.5214 0.0823 1.3174
C10B C 0.5612(12) -0.0484(8) 1.4038(6)
H13B H 0.6369 -0.0281 1.4265
H14B H 0.4945 -0.0136 1.4182
H15B H 0.5479 -0.1064 1.4179
C11B C 0.4466(9) -0.0718(6) 1.2916(5)
H16B H 0.4508 -0.0683 1.2398
H17B H 0.3857 -0.0306 1.3052
C12B C 0.4009(12) -0.1565(8) 1.3086(7)
H18B H 0.3218 -0.1651 1.2844
H19B H 0.4572 -0.1989 1.2930
H20B H 0.3937 -0.1613 1.3595
C13B C 0.8733(12) -0.0882(7) 1.3842(7)
C14B C 0.8703(13) 0.0079(7) 1.3958(7)
H21B H 0.8914 0.0363 1.3526
H22B H 0.7893 0.0248 1.4078
H23B H 0.9284 0.0231 1.4343
C15B C 0.8478(17) -0.1319(8) 1.4534(7)
H24B H 0.8706 -0.1909 1.4506
H25B H 0.8946 -0.1051 1.4922
H26B H 0.7618 -0.1277 1.4615
C16B C 1.0013(14) -0.1086(9) 1.3691(9)
H27B H 1.0533 -0.0909 1.4103
H28B H 1.0080 -0.1701 1.3658
C17B C 1.0535(12) -0.0715(9) 1.3036(9)
H29B H 1.1403 -0.0823 1.3047
H30B H 1.0145 -0.0972 1.2615
H31B H 1.0393 -0.0111 1.3025
C18B C 0.4894(9) -0.0994(5) 0.9543(5)
C19B C 0.2936(9) -0.1002(5) 0.9391(5)
C20B C 0.3249(9) -0.1362(6) 1.0037(5)
C21B C 0.6182(8) -0.1098(5) 0.9323(5)
C22B C 0.7103(10) -0.1044(6) 0.9914(6)
H32B H 0.7079 -0.0488 1.0127
H33B H 0.6939 -0.1468 1.0267
H34B H 0.7903 -0.1141 0.9737
C23B C 0.6472(9) -0.0456(6) 0.8774(5)
H35B H 0.6436 0.0104 0.8979
H36B H 0.7283 -0.0558 0.8617
H37B H 0.5886 -0.0499 0.8372
C24B C 0.6232(9) -0.1971(6) 0.8995(6)
H38B H 0.7032 -0.2066 0.8820
H39B H 0.6071 -0.2392 0.9351
H40B H 0.5623 -0.2013 0.8604
C25B C 0.1814(10) -0.0973(6) 0.8890(6)
C26B C 0.0618(11) -0.1011(9) 0.9208(7)
H41B H 0.0558 -0.0556 0.9548
H42B H -0.0023 -0.0955 0.8837
H43B H 0.0537 -0.1548 0.9448
C27B C 0.1822(11) -0.0168(6) 0.8447(6)
H44B H 0.1730 0.0317 0.8754
H45B H 0.2586 -0.0126 0.8218
H46B H 0.1155 -0.0182 0.8089
C28B C 0.1976(12) -0.1750(7) 0.8364(7)
H47B H 0.1977 -0.2267 0.8649
H48B H 0.2784 -0.1702 0.8174
C29B C 0.1111(15) -0.1864(10) 0.7770(8)
H49B H 0.1323 -0.2363 0.7506
H50B H 0.0303 -0.1932 0.7943
H51B H 0.1124 -0.1375 0.7462
C30B C 0.2544(9) -0.1843(6) 1.0582(5)
C31B C 0.3377(11) -0.2035(7) 1.1226(6)
H52B H 0.4081 -0.2344 1.1080
H53B H 0.3640 -0.1511 1.1452
H54B H 0.2945 -0.2372 1.1559
C32B C 0.1455(11) -0.1355(8) 1.0861(7)
H55B H 0.0801 -0.1336 1.0495
H56B H 0.1175 -0.1638 1.1278
H57B H 0.1706 -0.0785 1.0986
C33B C 0.2105(11) -0.2674(6) 1.0280(6)
H58B H 0.1532 -0.2565 0.9873
H59B H 0.1661 -0.2971 1.0641
C34B C 0.3093(12) -0.3240(7) 1.0042(7)
H60B H 0.2737 -0.3756 0.9848
H61B H 0.3533 -0.2956 0.9679
H62B H 0.3648 -0.3373 1.0444
loop_
_geom_bond_atom_site_label_1
_geom_bond_atom_site_label_2
_geom_bond_site_symmetry_1
_geom_bond_site_symmetry_2
Sr1 N1 1_555 1_555
N1 C1 1_555 1_555
N2 C1 1_555 1_555
N3 C18 1_555 1_555
N4 Sr1 1_555 1_555
C1 C4 1_555 1_555
C2 N1 1_555 1_555
C3 N2 1_555 1_555
C4 C5 1_555 1_555
C5 H1 1_555 1_555
H2 C5 1_555 1_555
H3 C5 1_555 1_555
C6 C4 1_555 1_555
H4 C6 1_555 1_555
H5 C6 1_555 1_555
H6 C6 1_555 1_555
C7 C4 1_555 1_555
H7 C7 1_555 1_555
H8 C7 1_555 1_555
H9 C7 1_555 1_555
C8 C2 1_555 1_555
C9 C8 1_555 1_555
H10 C9 1_555 1_555
H11 C9 1_555 1_555
H12 C9 1_555 1_555
C10 C8 1_555 1_555
H13 C10 1_555 1_555
H14 C10 1_555 1_555
H15 C10 1_555 1_555
C11 C8 1_555 1_555
H16 C11 1_555 1_555
H17 C11 1_555 1_555
C12 C11 1_555 1_555
H18 C12 1_555 1_555
H19 C12 1_555 1_555
H20 C12 1_555 1_555
C13 C3 1_555 1_555
C14 C13 1_555 1_555
H21 C14 1_555 1_555
H22 C14 1_555 1_555
H23 C14 1_555 1_555
C15 C13 1_555 1_555
H24 C15 1_555 1_555
H25 C15 1_555 1_555
H26 C15 1_555 1_555
C16 C13 1_555 1_555
H27 C16 1_555 1_555
H28 C16 1_555 1_555
C17 C16 1_555 1_555
H29 C17 1_555 1_555
H30 C17 1_555 1_555
H31 C17 1_555 1_555
C18 N4 1_555 1_555
C19 N3 1_555 1_555
C20 N4 1_555 1_555
C21 C18 1_555 1_555
C22 C21 1_555 1_555
H32 C22 1_555 1_555
H33 C22 1_555 1_555
H34 C22 1_555 1_555
C23 C21 1_555 1_555
H35 C23 1_555 1_555
H36 C23 1_555 1_555
H37 C23 1_555 1_555
C24 C21 1_555 1_555
H38 C24 1_555 1_555
H39 C24 1_555 1_555
H40 C24 1_555 1_555
C25 C19 1_555 1_555
C26 C25 1_555 1_555
H41 C26 1_555 1_555
H42 C26 1_555 1_555
H43 C26 1_555 1_555
C27 C25 1_555 1_555
H44 C27 1_555 1_555
H45 C27 1_555 1_555
H46 C27 1_555 1_555
C28 C25 1_555 1_555
H47 C28 1_555 1_555
H48 C28 1_555 1_555
C29 C28 1_555 1_555
H49 C29 1_555 1_555
H50 C29 1_555 1_555
H51 C29 1_555 1_555
C30 C20 1_555 1_555
C31 C30 1_555 1_555
H52 C31 1_555 1_555
H53 C31 1_555 1_555
H54 C31 1_555 1_555
C32 C30 1_555 1_555
H55 C32 1_555 1_555
H56 C32 1_555 1_555
H57 C32 1_555 1_555
C33 C30 1_555 1_555
H58 C33 1_555 1_555
H59 C33 1_555 1_555
C34 C33 1_555 1_555
H60 C34 1_555 1_555
H61 C34 1_555 1_555
H62 C34 1_555 1_555
Sr1B N3 1_555 1_555
N1B Sr1B 1_555 1_555
N2B C1B 1_555 1_555
N3B Sr1 1_555 1_555
N4B Sr1B 1_555 1_555
C1B N1B 1_555 1_555
C2B N1B 1_555 1_555
C3B N2B 1_555 1_555
C4B C1B 1_555 1_555
C5B C4B 1_555 1_555
H1B C5B 1_555 1_555
H2B C5B 1_555 1_555
H3B C5B 1_555 1_555
C6B C4B 1_555 1_555
H4B C6B 1_555 1_555
H5B C6B 1_555 1_555
H6B C6B 1_555 1_555
C7B C4B 1_555 1_555
H7B C7B 1_555 1_555
H8B C7B 1_555 1_555
H9B C7B 1_555 1_555
C8B C2B 1_555 1_555
C9B C8B 1_555 1_555
H10B C9B 1_555 1_555
H11B C9B 1_555 1_555
H12B C9B 1_555 1_555
C10B C8B 1_555 1_555
H13B C10B 1_555 1_555
H14B C10B 1_555 1_555
H15B C10B 1_555 1_555
C11B C8B 1_555 1_555
H16B C11B 1_555 1_555
H17B C11B 1_555 1_555
C12B C11B 1_555 1_555
H18B C12B 1_555 1_555
H19B C12B 1_555 1_555
H20B C12B 1_555 1_555
C13B C3B 1_555 1_555
C14B C13B 1_555 1_555
H21B C14B 1_555 1_555
H22B C14B 1_555 1_555
H23B C14B 1_555 1_555
C15B C13B 1_555 1_555
H24B C15B 1_555 1_555
H25B C15B 1_555 1_555
H26B C15B 1_555 1_555
C16B C13B 1_555 1_555
H27B C16B 1_555 1_555
H28B C16B 1_555 1_555
C17B C16B 1_555 1_555
H29B C17B 1_555 1_555
H30B C17B 1_555 1_555
H31B C17B 1_555 1_555
C18B N3B 1_555 1_555
C19B N3B 1_555 1_555
C20B N4B 1_555 1_555
C21B C18B 1_555 1_555
C22B C21B 1_555 1_555
H32B C22B 1_555 1_555
H33B C22B 1_555 1_555
H34B C22B 1_555 1_555
C23B C21B 1_555 1_555
H35B C23B 1_555 1_555
H36B C23B 1_555 1_555
H37B C23B 1_555 1_555
C24B C21B 1_555 1_555
H38B C24B 1_555 1_555
H39B C24B 1_555 1_555
H40B C24B 1_555 1_555
C25B C19B 1_555 1_555
C26B C25B 1_555 1_555
H41B C26B 1_555 1_555
H42B C26B 1_555 1_555
H43B C26B 1_555 1_555
C27B C25B 1_555 1_555
H44B C27B 1_555 1_555
H45B C27B 1_555 1_555
H46B C27B 1_555 1_555
C28B C25B 1_555 1_555
H47B C28B 1_555 1_555
H48B C28B 1_555 1_555
C29B C28B 1_555 1_555
H49B C29B 1_555 1_555
H50B C29B 1_555 1_555
H51B C29B 1_555 1_555
C30B C20B 1_555 1_555
C31B C30B 1_555 1_555
H52B C31B 1_555 1_555
H53B C31B 1_555 1_555
H54B C31B 1_555 1_555
C32B C30B 1_555 1_555
H55B C32B 1_555 1_555
H56B C32B 1_555 1_555
H57B C32B 1_555 1_555
C33B C30B 1_555 1_555
H58B C33B 1_555 1_555
H59B C33B 1_555 1_555
C34B C33B 1_555 1_555
H60B C34B 1_555 1_555
H61B C34B 1_555 1_555
H62B C34B 1_555 1_555
C2 C3 1_555 1_555
C19 C20 1_555 1_555
N4B C18B 1_555 1_555
C2B C3B 1_555 1_555
C19B C20B 1_555 1_555

#END
