
#######################################################################
#
#                 Cambridge Crystallographic Data Centre
#                                CCDC 
#
#######################################################################
#
# If this CIF has been generated from an entry in the Cambridge 
# Structural Database, then it will include bibliographic, chemical, 
# crystal, experimental, refinement or atomic coordinate data resulting 
# from the CCDC's data processing and validation procedures.
#
#######################################################################

data_XEHQOT
_chemical_formula_moiety         'C11 H6 B1 Cl1 F2 N4'
_chemical_name_systematic        
'[(6-chloropyrimidin-4(3H)-ylidene)(pyridin-2-yl)acetonitrilato](difluoro)boron'
_symmetry_cell_setting           monoclinic
_symmetry_space_group_name_H-M   'P 21/n'
_symmetry_Int_Tables_number      14
_space_group_name_Hall           '-P 2yn'
loop_
_symmetry_equiv_pos_site_id
_symmetry_equiv_pos_as_xyz
1 x,y,z
2 1/2-x,1/2+y,1/2-z
3 -x,-y,-z
4 1/2+x,1/2-y,1/2+z
_cell_length_a                   10.4083(9)
_cell_length_b                   5.5521(5)
_cell_length_c                   19.6438(17)
_cell_angle_alpha                90
_cell_angle_beta                 93.8410(10)
_cell_angle_gamma                90
_cell_volume                     1132.62
_exptl_crystal_colour            yellow
_exptl_crystal_description       block
_cell_formula_units_Z            4
loop_
_atom_site_label
_atom_site_type_symbol
_atom_site_fract_x
_atom_site_fract_y
_atom_site_fract_z
Cl1 Cl 0.43255(6) 1.26833(12) 0.04841(3)
F1 F 0.07709(12) 0.8210(3) 0.26183(5)
F2 F 0.11618(11) 0.4618(2) 0.21230(6)
N1 N 0.15452(14) 0.8234(3) 0.15018(8)
N2 N -0.07012(15) 0.6889(3) 0.17179(8)
C1 C -0.11786(18) 0.8660(4) 0.12925(9)
N3 N 0.36644(16) 0.8999(4) 0.11920(9)
C2 C 0.10350(19) 1.0056(4) 0.10929(9)
C3 C 0.31819(19) 1.0927(4) 0.08443(10)
C4 C 0.19211(19) 1.1510(4) 0.07626(10)
H1 H 0.1644 1.2823 0.0498
C5 C -0.03027(18) 1.0318(4) 0.10191(10)
C6 C -0.1496(2) 0.5182(4) 0.19589(10)
H2 H -0.1144 0.3975 0.2242
N4 N -0.12822(19) 1.3649(4) 0.02373(10)
C7 C 0.28223(19) 0.7772(4) 0.15087(10)
H3 H 0.3127 0.6454 0.1764
C8 C -0.0830(2) 1.2192(4) 0.05855(10)
C9 C -0.25164(19) 0.8718(4) 0.11337(11)
H4 H -0.2870 0.9936 0.0855
C10 C -0.2780(2) 0.5192(5) 0.17986(12)
H5 H -0.3306 0.4003 0.1964
B1 B 0.0726(2) 0.6921(5) 0.20169(12)
C11 C -0.3296(2) 0.7019(5) 0.13814(11)
H6 H -0.4179 0.7077 0.1272
loop_
_geom_bond_atom_site_label_1
_geom_bond_atom_site_label_2
_geom_bond_site_symmetry_1
_geom_bond_site_symmetry_2
Cl1 C3 1_555 1_555
F1 B1 1_555 1_555
F2 B1 1_555 1_555
N1 C2 1_555 1_555
N2 C1 1_555 1_555
C1 C5 1_555 1_555
N3 C3 1_555 1_555
C2 C4 1_555 1_555
C3 C4 1_555 1_555
C4 H1 1_555 1_555
C5 C2 1_555 1_555
C6 N2 1_555 1_555
H2 C6 1_555 1_555
N4 C8 1_555 1_555
C7 N1 1_555 1_555
H3 C7 1_555 1_555
C8 C5 1_555 1_555
C9 C1 1_555 1_555
H4 C9 1_555 1_555
C10 C6 1_555 1_555
H5 C10 1_555 1_555
B1 N1 1_555 1_555
C11 C9 1_555 1_555
H6 C11 1_555 1_555
N2 B1 1_555 1_555
N3 C7 1_555 1_555
C10 C11 1_555 1_555

#END
