
#######################################################################
#
#                 Cambridge Crystallographic Data Centre
#                                CCDC 
#
#######################################################################
#
# If this CIF has been generated from an entry in the Cambridge 
# Structural Database, then it will include bibliographic, chemical, 
# crystal, experimental, refinement or atomic coordinate data resulting 
# from the CCDC's data processing and validation procedures.
#
#######################################################################

data_XEHQEH
_chemical_formula_moiety         'C14 H10 I2 N2'
_chemical_name_systematic        
(E,E)-1,4-bis(2-iodophenyl)-2,3-diazabuta-1,3-diene
_symmetry_cell_setting           monoclinic
_symmetry_space_group_name_H-M   'P 21/n'
_symmetry_Int_Tables_number      14
_space_group_name_Hall           '-P 2yn'
loop_
_symmetry_equiv_pos_site_id
_symmetry_equiv_pos_as_xyz
1 x,y,z
2 1/2-x,1/2+y,1/2-z
3 -x,-y,-z
4 1/2+x,1/2-y,1/2+z
_cell_length_a                   13.2667(4)
_cell_length_b                   4.1070(2)
_cell_length_c                   13.8207(4)
_cell_angle_alpha                90
_cell_angle_beta                 110.3140(15)
_cell_angle_gamma                90
_cell_volume                     706.203
_exptl_crystal_colour            yellow
_exptl_crystal_description       lath
_cell_formula_units_Z            2
_exptl_crystal_recrystallization_method ethanol
loop_
_atom_site_label
_atom_site_type_symbol
_atom_site_fract_x
_atom_site_fract_y
_atom_site_fract_z
C1 C 0.7374(3) 0.4440(7) 0.5557(2)
C2 C 0.8164(2) 0.3184(8) 0.5201(2)
I1 I 0.777975(15) 0.09737(5) 0.373819(14)
C3 C 0.9252(3) 0.3381(8) 0.5790(3)
C4 C 0.9564(3) 0.4865(10) 0.6753(3)
C5 C 0.8802(3) 0.6146(7) 0.7125(3)
C6 C 0.7720(3) 0.5935(7) 0.6531(3)
C7 C 0.6223(3) 0.4242(7) 0.4961(3)
N1 N 0.5529(2) 0.5194(8) 0.5345(2)
H1 H 0.9776 0.2510 0.5536
H2 H 1.0305 0.5003 0.7160
H3 H 0.9019 0.7163 0.7783
H4 H 0.7202 0.6823 0.6788
H5 H 0.5991 0.3393 0.4279
C1B C 0.2626(3) 0.5560(7) 0.4443(2)
C2B C 0.1836(2) 0.6816(8) 0.4799(2)
I1B I 0.222025(15) 0.90263(5) 0.626181(14)
C3B C 0.0748(3) 0.6619(8) 0.4210(3)
C4B C 0.0436(3) 0.5135(10) 0.3247(3)
C5B C 0.1198(3) 0.3854(7) 0.2875(3)
C6B C 0.2280(3) 0.4065(7) 0.3469(3)
C7B C 0.3777(3) 0.5758(7) 0.5039(3)
N1B N 0.4471(2) 0.4806(8) 0.4655(2)
H1B H 0.0224 0.7490 0.4464
H2B H -0.0305 0.4997 0.2840
H3B H 0.0981 0.2837 0.2217
H4B H 0.2798 0.3177 0.3212
H5B H 0.4009 0.6607 0.5721
loop_
_geom_bond_atom_site_label_1
_geom_bond_atom_site_label_2
_geom_bond_site_symmetry_1
_geom_bond_site_symmetry_2
C1 C2 1_555 1_555
C2 I1 1_555 1_555
C3 C2 1_555 1_555
C4 C3 1_555 1_555
C5 C4 1_555 1_555
C6 C1 1_555 1_555
C7 C1 1_555 1_555
N1 C7 1_555 1_555
H1 C3 1_555 1_555
H2 C4 1_555 1_555
H3 C5 1_555 1_555
H4 C6 1_555 1_555
H5 C7 1_555 1_555
C1B C2B 1_555 1_555
C2B I1B 1_555 1_555
C3B C2B 1_555 1_555
C4B C3B 1_555 1_555
C5B C4B 1_555 1_555
C6B C1B 1_555 1_555
C7B C1B 1_555 1_555
N1B N1 1_555 1_555
H1B C3B 1_555 1_555
H2B C4B 1_555 1_555
H3B C5B 1_555 1_555
H4B C6B 1_555 1_555
H5B C7B 1_555 1_555
C5 C6 1_555 1_555
C5B C6B 1_555 1_555
C7B N1B 1_555 1_555

#END
