
#######################################################################
#
#                 Cambridge Crystallographic Data Centre
#                                CCDC 
#
#######################################################################
#
# If this CIF has been generated from an entry in the Cambridge 
# Structural Database, then it will include bibliographic, chemical, 
# crystal, experimental, refinement or atomic coordinate data resulting 
# from the CCDC's data processing and validation procedures.
#
#######################################################################

data_XEHRAG
_chemical_formula_moiety         'C12 H9 B1 F2 N4 O1'
_chemical_name_systematic        
difluoro[(6-methoxypyrimidin-4-yl)(pyridin-2(1H)-ylidene)acetonitrilato]boron
_symmetry_cell_setting           triclinic
_symmetry_space_group_name_H-M   'P -1'
_symmetry_Int_Tables_number      2
_space_group_name_Hall           '-P 1'
loop_
_symmetry_equiv_pos_site_id
_symmetry_equiv_pos_as_xyz
1 x,y,z
2 -x,-y,-z
_cell_length_a                   7.2996(6)
_cell_length_b                   9.5435(7)
_cell_length_c                   17.2754(15)
_cell_angle_alpha                84.089(2)
_cell_angle_beta                 80.1410(10)
_cell_angle_gamma                84.539(2)
_cell_volume                     1175.69
_exptl_crystal_colour            yellow
_exptl_crystal_description       block
_cell_formula_units_Z            4
loop_
_atom_site_label
_atom_site_type_symbol
_atom_site_fract_x
_atom_site_fract_y
_atom_site_fract_z
N1 N 0.6393(3) 0.3941(2) 0.08942(11)
N2 N 0.7450(3) 0.1976(2) -0.00065(12)
C1 C 0.7162(3) 0.4895(3) 0.02997(14)
O1 O 0.6032(3) 0.80442(18) 0.13143(11)
F1 F 0.4679(2) 0.19023(15) 0.09647(9)
N3 N 0.5406(3) 0.5742(2) 0.17609(12)
C2 C 0.6152(4) 0.6676(3) 0.11786(15)
C3 C 0.8029(3) 0.4388(3) -0.04186(14)
F2 F 0.7440(2) 0.16143(15) 0.13873(9)
C4 C 0.8195(3) 0.2948(3) -0.05741(15)
C5 C 0.7019(4) 0.6307(3) 0.04582(15)
H1 H 0.7511 0.6990 0.0076
C6 C 0.5574(4) 0.4439(3) 0.15827(15)
H2 H 0.5071 0.3776 0.1975
B1 B 0.6475(5) 0.2329(3) 0.08311(18)
C7 C 0.9102(4) 0.2484(3) -0.12983(15)
H3 H 0.9614 0.3137 -0.1694
C8 C 0.8809(4) 0.5388(3) -0.10248(16)
C9 C 0.7572(4) 0.0591(3) -0.01513(17)
H4 H 0.7035 -0.0058 0.0241
C10 C 0.8447(4) 0.0123(3) -0.08442(18)
H5 H 0.8516 -0.0828 -0.0928
N4 N 0.9429(4) 0.6202(3) -0.15101(15)
C11 C 0.9239(4) 0.1106(3) -0.14267(17)
H6 H 0.9863 0.0811 -0.1905
C12 C 0.5299(5) 0.8447(3) 0.20788(16)
H7 H 0.4025 0.8218 0.2217
H8 H 0.5358 0.9446 0.2086
H9 H 0.6018 0.7950 0.2452
N5 N 0.2518(3) 0.7696(2) 0.52868(12)
N6 N 0.2854(3) 0.5780(2) 0.43418(12)
C13 C 0.2154(4) 0.6684(3) 0.58976(15)
O2 O 0.2615(3) 0.1739(2) 0.39073(11)
C14 C 0.2373(4) 0.3409(3) 0.48142(16)
H10 H 0.2090 0.2709 0.5222
N7 N 0.3209(3) 0.4032(2) 0.34335(13)
C15 C 0.2431(3) 0.4797(3) 0.49757(15)
F3 F 0.1467(3) 0.81024(16) 0.40421(9)
F4 F 0.4555(2) 0.78420(17) 0.40458(10)
C16 C 0.2095(4) 0.5266(3) 0.57385(15)
C17 C 0.2735(4) 0.3088(3) 0.40509(17)
C18 C 0.3223(4) 0.5322(3) 0.36136(16)
H11 H 0.3518 0.6001 0.3195
C19 C 0.1650(4) 0.4241(3) 0.63860(17)
C20 C 0.1850(4) 0.7112(3) 0.66742(16)
H12 H 0.1610 0.6443 0.7102
B2 B 0.2864(5) 0.7390(3) 0.44058(18)
C21 C 0.2569(4) 0.9062(3) 0.54297(18)
H13 H 0.2810 0.9732 0.5002
N8 N 0.1281(4) 0.3409(3) 0.69032(15)
C22 C 0.2285(5) 0.9493(4) 0.61648(19)
H14 H 0.2341 1.0436 0.6244
C23 C 0.1905(4) 0.8482(3) 0.67989(18)
H15 H 0.1689 0.8750 0.7311
C24 C 0.3009(5) 0.1387(3) 0.31109(17)
H16 H 0.2273 0.2022 0.2796
H17 H 0.2710 0.0435 0.3089
H18 H 0.4309 0.1466 0.2911
loop_
_geom_bond_atom_site_label_1
_geom_bond_atom_site_label_2
_geom_bond_site_symmetry_1
_geom_bond_site_symmetry_2
N1 C1 1_555 1_555
N2 C4 1_555 1_555
C1 C3 1_555 1_555
O1 C2 1_555 1_555
F1 B1 1_555 1_555
N3 C2 1_555 1_555
C2 C5 1_555 1_555
C3 C4 1_555 1_555
F2 B1 1_555 1_555
C4 C7 1_555 1_555
C5 C1 1_555 1_555
H1 C5 1_555 1_555
C6 N1 1_555 1_555
H2 C6 1_555 1_555
B1 N1 1_555 1_555
C7 H3 1_555 1_555
C8 C3 1_555 1_555
C9 N2 1_555 1_555
H4 C9 1_555 1_555
C10 C9 1_555 1_555
H5 C10 1_555 1_555
N4 C8 1_555 1_555
C11 C7 1_555 1_555
H6 C11 1_555 1_555
C12 O1 1_555 1_555
H7 C12 1_555 1_555
H8 C12 1_555 1_555
H9 C12 1_555 1_555
N5 C13 1_555 1_555
N6 C15 1_555 1_555
C13 C16 1_555 1_555
O2 C17 1_555 1_555
C14 H10 1_555 1_555
N7 C17 1_555 1_555
C15 C14 1_555 1_555
F3 B2 1_555 1_555
F4 B2 1_555 1_555
C16 C15 1_555 1_555
C17 C14 1_555 1_555
C18 N6 1_555 1_555
H11 C18 1_555 1_555
C19 C16 1_555 1_555
C20 C13 1_555 1_555
H12 C20 1_555 1_555
B2 N5 1_555 1_555
C21 N5 1_555 1_555
H13 C21 1_555 1_555
N8 C19 1_555 1_555
C22 C21 1_555 1_555
H14 C22 1_555 1_555
C23 C20 1_555 1_555
H15 C23 1_555 1_555
C24 O2 1_555 1_555
H16 C24 1_555 1_555
H17 C24 1_555 1_555
H18 C24 1_555 1_555
N2 B1 1_555 1_555
N3 C6 1_555 1_555
C10 C11 1_555 1_555
N6 B2 1_555 1_555
N7 C18 1_555 1_555
C22 C23 1_555 1_555

#END
