
#######################################################################
#
#                 Cambridge Crystallographic Data Centre
#                                CCDC 
#
#######################################################################
#
# If this CIF has been generated from an entry in the Cambridge 
# Structural Database, then it will include bibliographic, chemical, 
# crystal, experimental, refinement or atomic coordinate data resulting 
# from the CCDC's data processing and validation procedures.
#
#######################################################################

data_XEHSUY
_chemical_name_common            
'4,6-bis(4-Vinylbenzyl)-myo-inositol orthoformate'
_chemical_formula_moiety         'C25 H26 O6'
_chemical_name_systematic        
6-Hydroxy-8,10-bis(4-vinylbenzyloxy)-2,4,9-trioxatricyclo(3.3.1.1^3,7^)decane
_symmetry_cell_setting           monoclinic
_symmetry_space_group_name_H-M   'P 21/c'
_symmetry_Int_Tables_number      14
_space_group_name_Hall           '-P 2ybc'
loop_
_symmetry_equiv_pos_site_id
_symmetry_equiv_pos_as_xyz
1 x,y,z
2 x,1/2-y,1/2+z
3 -x,-y,-z
4 -x,1/2+y,1/2-z
_cell_length_a                   6.072(6)
_cell_length_b                   24.506(6)
_cell_length_c                   14.217(3)
_cell_angle_alpha                90
_cell_angle_beta                 99.35(4)
_cell_angle_gamma                90
_cell_volume                     2087.39
_exptl_crystal_colour            colorless
_exptl_crystal_description       needle
_chemical_melting_point          '136 deg.C'
_cell_formula_units_Z            4
loop_
_atom_site_label
_atom_site_type_symbol
_atom_site_fract_x
_atom_site_fract_y
_atom_site_fract_z
O1 O -0.3580(3) 0.44243(8) -0.01601(14)
O2 O -0.3718(3) 0.42187(9) 0.14235(13)
O3 O -0.0565(3) 0.46203(8) 0.10057(13)
O4 O 0.0677(4) 0.42373(10) -0.07749(14)
H1 H 0.0067(58) 0.4591(15) -0.0781(24)
O5 O -0.3015(3) 0.29445(8) 0.02135(13)
O6 O 0.0827(3) 0.32063(8) 0.15409(13)
C1 C -0.2899(5) 0.45821(13) 0.0794(2)
H2 H -0.3535(5) 0.49515(13) 0.0882(2)
C2 C -0.2900(5) 0.36720(13) 0.1334(2)
H3 H -0.3511(5) 0.34242(13) 0.1787(2)
C3 C -0.3723(5) 0.34892(12) 0.0309(2)
H4 H -0.5390(5) 0.35069(12) 0.0173(2)
C4 C -0.2746(5) 0.38852(12) -0.0340(2)
H5 H -0.3245(5) 0.37824(12) -0.1022(2)
C5 C -0.0212(5) 0.38999(13) -0.0122(2)
H6 H 0.0368(5) 0.35209(13) -0.0173(2)
C6 C 0.0459(5) 0.40969(12) 0.0901(2)
H7 H 0.2120(5) 0.41321(12) 0.1052(2)
C7 C -0.0356(5) 0.37039(12) 0.1598(2)
H8 H 0.0035(5) 0.38546(12) 0.2258(2)
C8 C 0.0339(5) 0.27944(12) 0.2184(2)
H9 H -0.1242(5) 0.26817(12) 0.2016(2)
H10 H 0.0569(5) 0.29410(12) 0.2842(2)
C9 C 0.1828(5) 0.23110(13) 0.2136(2)
C10 C 0.3678(5) 0.23268(13) 0.1684(2)
H11 H 0.4058(5) 0.26572(13) 0.1399(2)
C11 C 0.4989(5) 0.18655(13) 0.1640(2)
H12 H 0.6251(5) 0.18869(13) 0.1325(2)
C12 C 0.4499(5) 0.13742(13) 0.2046(2)
C13 C 0.2642(5) 0.13608(13) 0.2510(2)
H13 H 0.2266(5) 0.10319(13) 0.2801(2)
C14 C 0.1348(5) 0.18195(13) 0.2552(2)
H14 H 0.0094(5) 0.18001(13) 0.2872(2)
C15 C 0.5938(6) 0.08932(14) 0.1978(2)
H15 H 0.7150(6) 0.09407(14) 0.1639(2)
C16 C 0.5709(8) 0.0413(2) 0.2334(3)
H16 H 0.4522(8) 0.0344(2) 0.2679(3)
H17 H 0.6728(8) 0.0130(2) 0.2250(3)
C17 C -0.4134(5) 0.26617(13) -0.0604(2)
H18 H -0.4070(5) 0.28783(13) -0.1186(2)
H19 H -0.5722(5) 0.26052(13) -0.0546(2)
C18 C -0.3008(5) 0.21240(13) -0.0666(2)
C19 C -0.0809(5) 0.20448(14) -0.0235(2)
H20 H -0.0009(5) 0.23374(14) 0.0100(2)
C20 C 0.0224(6) 0.15509(14) -0.0287(2)
H21 H 0.1722(6) 0.15070(14) 0.0022(2)
C21 C -0.0865(6) 0.11130(14) -0.0780(2)
C22 C -0.3065(6) 0.11933(14) -0.1218(2)
H22 H -0.3853(6) 0.09029(14) -0.1565(2)
C23 C -0.4118(5) 0.16889(13) -0.1155(2)
H23 H -0.5626(5) 0.17322(13) -0.1452(2)
C24 C 0.0246(7) 0.0585(2) -0.0842(3)
H24 H -0.0601(7) 0.0312(2) -0.1214(3)
C25 C 0.2285(9) 0.0444(2) -0.0441(3)
H25 H 0.3212(9) 0.0700(2) -0.0061(3)
H26 H 0.2824(9) 0.0087(2) -0.0534(3)
C26? C 0.0246(7) 0.0585(2) -0.0842(3)
H27? H 0.1685(45) 0.0544(11) -0.0470(17)
C27? C -0.0549(45) 0.0166(11) -0.1357(17)
H28? H -0.1982(45) 0.0187(11) -0.1741(17)
H29? H 0.0305(45) -0.0159(11) -0.1348(17)
loop_
_geom_bond_atom_site_label_1
_geom_bond_atom_site_label_2
_geom_bond_site_symmetry_1
_geom_bond_site_symmetry_2
O1 C1 1_555 1_555
O2 C1 1_555 1_555
O3 C1 1_555 1_555
O4 H1 1_555 1_555
O5 C3 1_555 1_555
O6 C7 1_555 1_555
C1 H2 1_555 1_555
C2 O2 1_555 1_555
H3 C2 1_555 1_555
C3 C2 1_555 1_555
H4 C3 1_555 1_555
C4 O1 1_555 1_555
H5 C4 1_555 1_555
C5 O4 1_555 1_555
H6 C5 1_555 1_555
C6 O3 1_555 1_555
H7 C6 1_555 1_555
C7 C2 1_555 1_555
H8 C7 1_555 1_555
C8 O6 1_555 1_555
H9 C8 1_555 1_555
H10 C8 1_555 1_555
C9 C8 1_555 1_555
C10 C9 1_555 1_555
H11 C10 1_555 1_555
C11 C10 1_555 1_555
H12 C11 1_555 1_555
C12 C11 1_555 1_555
C13 C12 1_555 1_555
H13 C13 1_555 1_555
C14 C9 1_555 1_555
H14 C14 1_555 1_555
C15 C12 1_555 1_555
H15 C15 1_555 1_555
C16 C15 1_555 1_555
H16 C16 1_555 1_555
H17 C16 1_555 1_555
C17 O5 1_555 1_555
H18 C17 1_555 1_555
H19 C17 1_555 1_555
C18 C17 1_555 1_555
C19 C18 1_555 1_555
H20 C19 1_555 1_555
C20 C19 1_555 1_555
H21 C20 1_555 1_555
C21 C20 1_555 1_555
C22 C21 1_555 1_555
H22 C22 1_555 1_555
C23 C18 1_555 1_555
H23 C23 1_555 1_555
C24 C21 1_555 1_555
H24 C24 1_555 1_555
C25 C24 1_555 1_555
H25 C25 1_555 1_555
H26 C25 1_555 1_555
C3 C4 1_555 1_555
C4 C5 1_555 1_555
C5 C6 1_555 1_555
C6 C7 1_555 1_555
C13 C14 1_555 1_555
C22 C23 1_555 1_555

#END
