
#######################################################################
#
#                 Cambridge Crystallographic Data Centre
#                                CCDC 
#
#######################################################################
#
# If this CIF has been generated from an entry in the Cambridge 
# Structural Database, then it will include bibliographic, chemical, 
# crystal, experimental, refinement or atomic coordinate data resulting 
# from the CCDC's data processing and validation procedures.
#
#######################################################################

data_XEHTEL
_chemical_name_common            'cis-phenoxy phenanthroline'
_chemical_formula_moiety         'C18 H14 N2 O2'
_chemical_name_systematic        6-Phenoxy-5,6-dihydro-1,10-phenanthrolin-5-ol
_symmetry_cell_setting           monoclinic
_symmetry_space_group_name_H-M   'P 21/c'
_symmetry_Int_Tables_number      14
_space_group_name_Hall           '-P 2ybc'
loop_
_symmetry_equiv_pos_site_id
_symmetry_equiv_pos_as_xyz
1 x,y,z
2 -x,1/2+y,1/2-z
3 -x,-y,-z
4 x,1/2-y,1/2+z
_cell_length_a                   10.7712(3)
_cell_length_b                   11.4592(3)
_cell_length_c                   12.2601(3)
_cell_angle_alpha                90
_cell_angle_beta                 109.5340(10)
_cell_angle_gamma                90
_cell_volume                     1426.16
_exptl_crystal_colour            yellow
_exptl_crystal_description       rectangular
_cell_formula_units_Z            4
loop_
_atom_site_label
_atom_site_type_symbol
_atom_site_fract_x
_atom_site_fract_y
_atom_site_fract_z
C1 C 0.12470(12) 0.40149(11) 0.17145(11)
C2 C 0.08666(12) 0.37453(12) 0.26542(11)
C3 C 0.14190(12) 0.27973(11) 0.33184(10)
C4 C 0.30202(14) 0.10871(10) 0.37383(9)
C5 C 0.32672(12) 0.01703(10) 0.29460(9)
C6 C 0.50310(12) 0.00929(12) 0.20027(12)
C7 C 0.56175(13) 0.06003(13) 0.12788(12)
C8 C 0.51824(12) 0.16724(13) 0.08124(12)
C9 C 0.36975(10) 0.18050(10) 0.17715(8)
C10 C 0.26887(10) 0.24823(9) 0.20790(8)
C11 C 0.23537(11) 0.21354(9) 0.30401(9)
C12 C 0.40405(10) 0.06972(10) 0.22482(9)
C13 C 0.20044(10) -0.10458(9) 0.13748(9)
C14 C 0.14919(13) -0.07673(11) 0.02235(11)
C15 C 0.13951(16) -0.16206(14) -0.06032(12)
C16 C 0.18268(12) -0.27345(12) -0.02803(11)
C17 C 0.23612(14) -0.30015(11) 0.08691(12)
C18 C 0.24382(15) -0.21655(11) 0.17035(11)
H1 H 0.2431(19) 0.1026(18) 0.5091(19)
H2 H 0.0885(15) 0.4679(14) 0.1204(14)
H3 H 0.0198(16) 0.4245(15) 0.2761(14)
H4 H 0.1133(15) 0.2558(13) 0.3977(13)
H5 H 0.3929(15) 0.1289(12) 0.4277(13)
H6 H 0.3775(13) -0.0503(13) 0.3421(12)
H7 H 0.5325(16) -0.0695(15) 0.2381(15)
H8 H 0.627(2) 0.0187(15) 0.1086(16)
H9 H 0.5531(14) 0.2004(14) 0.0250(14)
H10 H 0.1193(15) 0.0051(15) 0.0025(13)
H11 H 0.104(2) -0.1356(18) -0.1385(18)
H12 H 0.1733(15) -0.3303(15) -0.0842(14)
H13 H 0.2735(17) -0.3776(17) 0.1145(16)
H14 H 0.2842(17) -0.2328(15) 0.2528(15)
N1 N 0.21521(9) 0.34096(8) 0.14245(8)
N2 N 0.42476(10) 0.22949(9) 0.10532(9)
O1 O 0.23014(14) 0.05968(9) 0.43924(9)
O2 O 0.19941(8) -0.01972(7) 0.21771(7)
loop_
_geom_bond_atom_site_label_1
_geom_bond_atom_site_label_2
_geom_bond_site_symmetry_1
_geom_bond_site_symmetry_2
C1 C2 1_555 1_555
C2 C3 1_555 1_555
C3 C11 1_555 1_555
C4 C5 1_555 1_555
C5 C12 1_555 1_555
C6 C7 1_555 1_555
C7 C8 1_555 1_555
C8 H9 1_555 1_555
C9 C10 1_555 1_555
C10 C11 1_555 1_555
C11 C4 1_555 1_555
C12 C6 1_555 1_555
C13 C14 1_555 1_555
C14 C15 1_555 1_555
C15 C16 1_555 1_555
C16 C17 1_555 1_555
C17 C18 1_555 1_555
C18 C13 1_555 1_555
H1 O1 1_555 1_555
H2 C1 1_555 1_555
H3 C2 1_555 1_555
H4 C3 1_555 1_555
H5 C4 1_555 1_555
H6 C5 1_555 1_555
H7 C6 1_555 1_555
H8 C7 1_555 1_555
H10 C14 1_555 1_555
H11 C15 1_555 1_555
H12 C16 1_555 1_555
H13 C17 1_555 1_555
H14 C18 1_555 1_555
N1 C1 1_555 1_555
N2 C8 1_555 1_555
O1 C4 1_555 1_555
O2 C5 1_555 1_555
C9 C12 1_555 1_555
C9 N2 1_555 1_555
C10 N1 1_555 1_555
C13 O2 1_555 1_555

#END
