
#######################################################################
#
#                 Cambridge Crystallographic Data Centre
#                                CCDC 
#
#######################################################################
#
# If this CIF has been generated from an entry in the Cambridge 
# Structural Database, then it will include bibliographic, chemical, 
# crystal, experimental, refinement or atomic coordinate data resulting 
# from the CCDC's data processing and validation procedures.
#
#######################################################################

data_XEHTAI
_chemical_formula_moiety         'C25 H22 N2 O1'
_chemical_name_systematic        
5-methyl-2,3-diphenyl-2,3,4,5-tetrahydro-3aH-pyrrolo[2,3-c]quinoline-3a-carbaldehyde
_symmetry_cell_setting           monoclinic
_symmetry_space_group_name_H-M   'P 21/n'
_symmetry_Int_Tables_number      14
_space_group_name_Hall           '-P 2yn'
loop_
_symmetry_equiv_pos_site_id
_symmetry_equiv_pos_as_xyz
1 x,y,z
2 1/2-x,1/2+y,1/2-z
3 -x,-y,-z
4 1/2+x,1/2-y,1/2+z
_cell_length_a                   9.272(3)
_cell_length_b                   9.723(3)
_cell_length_c                   21.851(8)
_cell_angle_alpha                90
_cell_angle_beta                 90
_cell_angle_gamma                90
_cell_volume                     1969.9
_exptl_crystal_colour            yellow
_exptl_crystal_description       block
_cell_formula_units_Z            4
loop_
_atom_site_label
_atom_site_type_symbol
_atom_site_fract_x
_atom_site_fract_y
_atom_site_fract_z
N1 N 0.41981(15) 0.75999(15) 0.02344(6)
C1 C 0.14123(19) 0.71540(19) 0.14283(8)
C2 C 0.22513(18) 0.76570(17) 0.09083(8)
C3 C 0.38187(18) 0.72202(17) 0.08648(7)
C4 C 0.56080(18) 0.75935(17) 0.00078(8)
C5 C 0.30804(18) 0.84874(17) -0.00415(7)
H1 H 0.3438 0.9432 -0.0076
C6 C 0.1974(2) 0.6061(2) 0.17807(8)
C7 C 0.25287(17) 0.79936(18) -0.06565(7)
C8 C 0.19008(19) 0.84194(18) 0.04254(8)
H2 H 0.1018 0.8863 0.0382
N2 N 0.32669(19) 0.54556(18) 0.16230(7)
C9 C 0.67722(19) 0.7060(2) 0.03374(9)
H3 H 0.6624 0.6714 0.0729
C10 C 0.5903(2) 0.81198(19) -0.05785(8)
H4 H 0.5156 0.8491 -0.0810
C11 C 0.2346(2) 0.6608(2) -0.07765(8)
H5 H 0.2620 0.5959 -0.0486
O1 O 0.5377(2) 0.7793(2) 0.17205(8)
C12 C 0.4669(2) 0.8135(2) 0.13107(8)
H6 H 0.4608 0.9078 0.1244
C13 C 0.3903(2) 0.56894(18) 0.10231(8)
H7 H 0.3389 0.5158 0.0717
H8 H 0.4902 0.5393 0.1024
C14 C 0.8143(2) 0.7040(2) 0.00873(10)
H9 H 0.8899 0.6673 0.0314
C15 C 0.2115(2) 0.8947(2) -0.10940(9)
H10 H 0.2240 0.9882 -0.1021
C16 C 0.7284(2) 0.8094(2) -0.08165(10)
H11 H 0.7453 0.8450 -0.1205
C17 C 0.1170(2) 0.5627(2) 0.22947(9)
H12 H 0.1535 0.4934 0.2544
C18 C 0.0067(2) 0.7712(2) 0.15809(9)
H13 H -0.0310 0.8419 0.1343
C19 C -0.0712(2) 0.7238(3) 0.20750(10)
H14 H -0.1612 0.7608 0.2166
C20 C 0.1339(2) 0.7131(3) -0.17572(9)
H15 H 0.0941 0.6839 -0.2126
C21 C 0.1756(2) 0.6183(2) -0.13270(10)
H16 H 0.1641 0.5250 -0.1406
C22 C 0.8415(2) 0.7548(3) -0.04864(11)
H17 H 0.9341 0.7525 -0.0649
C23 C -0.0136(3) 0.6207(3) 0.24332(10)
H18 H -0.0642 0.5901 0.2774
C24 C 0.3918(3) 0.4422(3) 0.20039(11)
H19 H 0.4081 0.4791 0.2405
H20 H 0.4822 0.4142 0.1829
H21 H 0.3287 0.3641 0.2032
C25 C 0.1512(2) 0.8506(3) -0.16436(9)
H22 H 0.1226 0.9147 -0.1935
loop_
_geom_bond_atom_site_label_1
_geom_bond_atom_site_label_2
_geom_bond_site_symmetry_1
_geom_bond_site_symmetry_2
N1 C3 1_555 1_555
C1 C2 1_555 1_555
C2 C3 1_555 1_555
C3 C12 1_555 1_555
C4 N1 1_555 1_555
C5 N1 1_555 1_555
H1 C5 1_555 1_555
C6 C1 1_555 1_555
C7 C5 1_555 1_555
C8 C2 1_555 1_555
H2 C8 1_555 1_555
N2 C6 1_555 1_555
C9 C4 1_555 1_555
H3 C9 1_555 1_555
C10 C4 1_555 1_555
H4 C10 1_555 1_555
C11 C7 1_555 1_555
H5 C11 1_555 1_555
O1 C12 1_555 1_555
C12 H6 1_555 1_555
C13 C3 1_555 1_555
H7 C13 1_555 1_555
H8 C13 1_555 1_555
C14 C9 1_555 1_555
H9 C14 1_555 1_555
C15 C7 1_555 1_555
H10 C15 1_555 1_555
C16 C10 1_555 1_555
H11 C16 1_555 1_555
C17 C6 1_555 1_555
H12 C17 1_555 1_555
C18 C1 1_555 1_555
H13 C18 1_555 1_555
C19 C18 1_555 1_555
H14 C19 1_555 1_555
C20 H15 1_555 1_555
C21 C11 1_555 1_555
H16 C21 1_555 1_555
C22 C14 1_555 1_555
H17 C22 1_555 1_555
C23 C17 1_555 1_555
H18 C23 1_555 1_555
C24 N2 1_555 1_555
H19 C24 1_555 1_555
H20 C24 1_555 1_555
H21 C24 1_555 1_555
C25 C15 1_555 1_555
H22 C25 1_555 1_555
C5 C8 1_555 1_555
N2 C13 1_555 1_555
C16 C22 1_555 1_555
C19 C23 1_555 1_555
C20 C21 1_555 1_555
C20 C25 1_555 1_555

#END
