
#######################################################################
#
#                 Cambridge Crystallographic Data Centre
#                                CCDC 
#
#######################################################################
#
# If this CIF has been generated from an entry in the Cambridge 
# Structural Database, then it will include bibliographic, chemical, 
# crystal, experimental, refinement or atomic coordinate data resulting 
# from the CCDC's data processing and validation procedures.
#
#######################################################################

data_XEJGUR
_chemical_formula_moiety         'C19 H24 N4 O1 S1'
_chemical_name_systematic        
3,7-bis(dimethylamino)-N,N-dimethyl-10H-phenothiazine-10-carboxamide
_symmetry_cell_setting           monoclinic
_symmetry_space_group_name_H-M   'P 21/n'
_symmetry_Int_Tables_number      14
_space_group_name_Hall           '-P 2yn'
loop_
_symmetry_equiv_pos_site_id
_symmetry_equiv_pos_as_xyz
1 x,y,z
2 1/2-x,1/2+y,1/2-z
3 -x,-y,-z
4 1/2+x,1/2-y,1/2+z
_cell_length_a                   5.9414(11)
_cell_length_b                   15.879(3)
_cell_length_c                   19.207(4)
_cell_angle_alpha                90
_cell_angle_beta                 94.096(3)
_cell_angle_gamma                90
_cell_volume                     1807.43
_exptl_crystal_colour            colorless
_exptl_crystal_description       sheet
_cell_formula_units_Z            4
loop_
_atom_site_label
_atom_site_type_symbol
_atom_site_fract_x
_atom_site_fract_y
_atom_site_fract_z
S1 S -0.30927(9) 0.82091(4) 0.16305(3)
N1 N 0.1069(3) 0.71929(10) 0.15574(8)
N2 N 0.1108(3) 0.58123(10) 0.19842(9)
N3 N -0.0098(3) 0.85657(11) 0.42151(9)
N4 N -0.1103(3) 0.92479(13) -0.07897(10)
O1 O 0.2906(3) 0.61292(10) 0.10231(9)
C1 C -0.1046(3) 0.80523(12) 0.23347(10)
C2 C 0.0848(3) 0.75705(12) 0.22244(10)
C3 C 0.2484(3) 0.74726(12) 0.27701(10)
H1 H 0.3822 0.7182 0.2693
C4 C 0.2181(3) 0.77942(12) 0.34235(10)
H2 H 0.3296 0.7704 0.3788
C5 C 0.0231(3) 0.82555(12) 0.35552(10)
C6 C -0.1347(3) 0.83972(12) 0.29882(10)
H3 H -0.2627 0.8730 0.3051
C7 C -0.1285(3) 0.82287(12) 0.09331(10)
C8 C 0.0635(3) 0.77198(12) 0.09596(10)
C9 C 0.1995(3) 0.77494(13) 0.04017(11)
H4 H 0.3326 0.7428 0.0417
C10 C 0.1422(4) 0.82451(13) -0.01771(11)
H5 H 0.2353 0.8242 -0.0553
C11 C -0.0516(4) 0.87521(13) -0.02156(11)
C12 C -0.1845(3) 0.87398(13) 0.03619(10)
H6 H -0.3133 0.9084 0.0360
C13 C 0.1759(4) 0.63585(13) 0.14898(11)
C14 C 0.2059(4) 0.49676(13) 0.19665(12)
H7 H 0.1320 0.4655 0.1581
H8 H 0.1829 0.4681 0.2402
H9 H 0.3663 0.5004 0.1905
C15 C -0.1025(4) 0.58929(15) 0.23103(14)
H10 H -0.0755 0.6145 0.2769
H11 H -0.1694 0.5340 0.2356
H12 H -0.2045 0.6247 0.2023
C16 C 0.1742(4) 0.85784(15) 0.47491(11)
H13 H 0.2423 0.8024 0.4789
H14 H 0.1174 0.8735 0.5192
H15 H 0.2865 0.8985 0.4625
C17 C -0.1908(4) 0.91605(15) 0.42981(12)
H16 H -0.1622 0.9673 0.4044
H17 H -0.1987 0.9290 0.4789
H18 H -0.3328 0.8916 0.4117
C18 C 0.0390(4) 0.93405(16) -0.13449(12)
H19 H 0.1711 0.9660 -0.1177
H20 H -0.0389 0.9636 -0.1733
H21 H 0.0851 0.8788 -0.1498
C19 C -0.3065(4) 0.97765(16) -0.08098(13)
H22 H -0.4391 0.9434 -0.0753
H23 H -0.3232 1.0067 -0.1255
H24 H -0.2899 1.0186 -0.0435
loop_
_geom_bond_atom_site_label_1
_geom_bond_atom_site_label_2
_geom_bond_site_symmetry_1
_geom_bond_site_symmetry_2
S1 C1 1_555 1_555
N1 C2 1_555 1_555
N2 C13 1_555 1_555
N3 C5 1_555 1_555
N4 C11 1_555 1_555
O1 C13 1_555 1_555
C1 C2 1_555 1_555
C2 C3 1_555 1_555
C3 H1 1_555 1_555
C4 C3 1_555 1_555
H2 C4 1_555 1_555
C5 C4 1_555 1_555
C6 C1 1_555 1_555
H3 C6 1_555 1_555
C7 S1 1_555 1_555
C8 N1 1_555 1_555
C9 C8 1_555 1_555
H4 C9 1_555 1_555
C10 C9 1_555 1_555
H5 C10 1_555 1_555
C11 C10 1_555 1_555
C12 C7 1_555 1_555
H6 C12 1_555 1_555
C13 N1 1_555 1_555
C14 N2 1_555 1_555
H7 C14 1_555 1_555
H8 C14 1_555 1_555
H9 C14 1_555 1_555
C15 N2 1_555 1_555
H10 C15 1_555 1_555
H11 C15 1_555 1_555
H12 C15 1_555 1_555
C16 N3 1_555 1_555
H13 C16 1_555 1_555
H14 C16 1_555 1_555
H15 C16 1_555 1_555
C17 N3 1_555 1_555
H16 C17 1_555 1_555
H17 C17 1_555 1_555
H18 C17 1_555 1_555
C18 N4 1_555 1_555
H19 C18 1_555 1_555
H20 C18 1_555 1_555
H21 C18 1_555 1_555
C19 N4 1_555 1_555
H22 C19 1_555 1_555
H23 C19 1_555 1_555
H24 C19 1_555 1_555
C5 C6 1_555 1_555
C7 C8 1_555 1_555
C11 C12 1_555 1_555

#END
