
#######################################################################
#
#                 Cambridge Crystallographic Data Centre
#                                CCDC 
#
#######################################################################
#
# If this CIF has been generated from an entry in the Cambridge 
# Structural Database, then it will include bibliographic, chemical, 
# crystal, experimental, refinement or atomic coordinate data resulting 
# from the CCDC's data processing and validation procedures.
#
#######################################################################

data_XEJHAY
_chemical_formula_moiety         'C17 H19 N3 O1 S1'
_chemical_name_systematic        
3,7-bis(dimethylamino)-10H-phenothiazine-10-carbaldehyde
_symmetry_cell_setting           monoclinic
_symmetry_space_group_name_H-M   'P 21/c'
_symmetry_Int_Tables_number      14
_space_group_name_Hall           '-P 2ybc'
loop_
_symmetry_equiv_pos_site_id
_symmetry_equiv_pos_as_xyz
1 x,y,z
2 -x,1/2+y,1/2-z
3 -x,-y,-z
4 x,1/2-y,1/2+z
_cell_length_a                   16.166(4)
_cell_length_b                   8.073(2)
_cell_length_c                   12.176(3)
_cell_angle_alpha                90
_cell_angle_beta                 99.741(4)
_cell_angle_gamma                90
_cell_volume                     1566.16
_exptl_crystal_colour            colorless
_exptl_crystal_description       stick
_cell_formula_units_Z            4
loop_
_atom_site_label
_atom_site_type_symbol
_atom_site_fract_x
_atom_site_fract_y
_atom_site_fract_z
S1 S 0.29745(3) 0.19440(7) 0.46623(4)
N1 N 0.26600(10) 0.3627(2) 0.67353(14)
N2 N 0.60542(11) 0.3312(3) 0.62121(17)
N3 N 0.05883(12) -0.1850(2) 0.53648(17)
O1 O 0.16379(12) 0.5286(2) 0.72378(18)
C1 C 0.37544(12) 0.2767(2) 0.57068(16)
C2 C 0.35283(12) 0.3532(2) 0.66350(16)
C3 C 0.41574(14) 0.4203(3) 0.74170(18)
H1 H 0.4020 0.4684 0.8057
C4 C 0.49793(14) 0.4176(3) 0.72707(18)
H2 H 0.5385 0.4680 0.7798
C5 C 0.52233(13) 0.3408(3) 0.63442(18)
C6 C 0.45867(12) 0.2688(2) 0.55677(17)
H3 H 0.4725 0.2149 0.4949
C7 C 0.62562(14) 0.2782(3) 0.5159(2)
H4 H 0.6126 0.1627 0.5051
H5 H 0.6843 0.2954 0.5156
H6 H 0.5933 0.3412 0.4568
C8 C 0.66777(15) 0.4242(3) 0.6952(2)
H7 H 0.6544 0.5400 0.6890
H8 H 0.7220 0.4058 0.6752
H9 H 0.6684 0.3885 0.7705
C9 C 0.22403(11) 0.1302(3) 0.54935(16)
C10 C 0.21411(12) 0.2199(3) 0.64346(16)
C11 C 0.15538(12) 0.1653(3) 0.70565(17)
H10 H 0.1497 0.2203 0.7711
C12 C 0.10513(12) 0.0304(3) 0.67195(19)
H11 H 0.0657 -0.0029 0.7149
C13 C 0.11188(12) -0.0580(3) 0.57471(18)
C14 C 0.17533(11) -0.0068(3) 0.51588(17)
H12 H 0.1845 -0.0662 0.4536
C15 C -0.00184(15) -0.2454(3) 0.6019(2)
H13 H 0.0270 -0.2980 0.6681
H14 H -0.0384 -0.3239 0.5588
H15 H -0.0343 -0.1542 0.6220
C16 C 0.07411(17) -0.2871(3) 0.4451(3)
H16 H 0.0834 -0.2178 0.3843
H17 H 0.0263 -0.3569 0.4215
H18 H 0.1228 -0.3546 0.4687
C17 C 0.23453(17) 0.5076(3) 0.7067(2)
H19 H 0.2706 0.5981 0.7170
loop_
_geom_bond_atom_site_label_1
_geom_bond_atom_site_label_2
_geom_bond_site_symmetry_1
_geom_bond_site_symmetry_2
S1 C1 1_555 1_555
N1 C2 1_555 1_555
N2 C5 1_555 1_555
N3 C13 1_555 1_555
O1 C17 1_555 1_555
C1 C2 1_555 1_555
C2 C3 1_555 1_555
C3 H1 1_555 1_555
C4 C3 1_555 1_555
H2 C4 1_555 1_555
C5 C4 1_555 1_555
C6 C1 1_555 1_555
H3 C6 1_555 1_555
C7 N2 1_555 1_555
H4 C7 1_555 1_555
H5 C7 1_555 1_555
H6 C7 1_555 1_555
C8 N2 1_555 1_555
H7 C8 1_555 1_555
H8 C8 1_555 1_555
H9 C8 1_555 1_555
C9 S1 1_555 1_555
C10 N1 1_555 1_555
C11 C10 1_555 1_555
H10 C11 1_555 1_555
C12 C11 1_555 1_555
H11 C12 1_555 1_555
C13 C12 1_555 1_555
C14 C9 1_555 1_555
H12 C14 1_555 1_555
C15 N3 1_555 1_555
H13 C15 1_555 1_555
H14 C15 1_555 1_555
H15 C15 1_555 1_555
C16 N3 1_555 1_555
H16 C16 1_555 1_555
H17 C16 1_555 1_555
H18 C16 1_555 1_555
C17 N1 1_555 1_555
H19 C17 1_555 1_555
C5 C6 1_555 1_555
C9 C10 1_555 1_555
C13 C14 1_555 1_555

#END
