
#######################################################################
#
#                 Cambridge Crystallographic Data Centre
#                                CCDC 
#
#######################################################################
#
# If this CIF has been generated from an entry in the Cambridge 
# Structural Database, then it will include bibliographic, chemical, 
# crystal, experimental, refinement or atomic coordinate data resulting 
# from the CCDC's data processing and validation procedures.
#
#######################################################################

data_XEJLIK
_chemical_formula_moiety         'C42 H49 B1 F2 N6'
_chemical_name_systematic        
3,4,7,8,19,20,23,24-octaethyl-11,11-difluoro-10,12,30,31,32,33-hexaaza-11-boraoctacyclo[24.3.1.1^2,5^.1^18,21^.1^22,25^.0^6,10^.0^9,13^.0^12,17^]tritriaconta-1(30),2,4,6,8,12,14,16,18,20,22,24,26,28-tetradecaene
_symmetry_cell_setting           monoclinic
_symmetry_space_group_name_H-M   'P 21/c'
_symmetry_Int_Tables_number      14
_space_group_name_Hall           '-P 2ybc'
loop_
_symmetry_equiv_pos_site_id
_symmetry_equiv_pos_as_xyz
1 x,y,z
2 -x,1/2+y,1/2-z
3 -x,-y,-z
4 x,1/2-y,1/2+z
_cell_length_a                   9.2440(8)
_cell_length_b                   19.3760(18)
_cell_length_c                   9.7630(9)
_cell_angle_alpha                90
_cell_angle_beta                 93.129(4)
_cell_angle_gamma                90
_cell_volume                     1746.06
_cell_formula_units_Z            2
loop_
_atom_site_label
_atom_site_type_symbol
_atom_site_fract_x
_atom_site_fract_y
_atom_site_fract_z
C1 C 0.6949(4) 0.61627(18) 0.7037(4)
C2 C 0.7046(4) 0.66104(17) 0.8153(4)
C3 C 0.5923(5) 0.64330(18) 0.9030(4)
C4 C 0.5173(4) 0.58812(19) 0.8411(4)
C5 C 0.3941(4) 0.54449(18) 0.8662(4)
C6 C 0.3166(4) 0.54418(19) 0.9827(4)
H1 H 0.3405 0.5750 1.0562
C7 C 0.2040(4) 0.49836(19) 0.9904(4)
H2 H 0.1528 0.4956 1.0720
C8 C 0.1644(4) 0.45623(18) 0.8802(4)
H3 H 0.0846 0.4256 0.8848
C9 C 0.2425(4) 0.45917(17) 0.7627(4)
C10 C 0.1965(5) 0.42364(17) 0.6367(4)
C11 C 0.0580(5) 0.41353(17) 0.5768(4)
C12 C 0.0742(5) 0.39340(17) 0.4369(4)
C13 C 0.2206(5) 0.39084(17) 0.4169(4)
C14 C 0.8074(5) 0.71954(17) 0.8369(4)
H4 H 0.7512 0.7616 0.8562
H5 H 0.8561 0.7276 0.7505
C15 C 0.9239(4) 0.70979(19) 0.9529(4)
H6 H 0.8774 0.7025 1.0396
H7 H 0.9852 0.7510 0.9601
H8 H 0.9835 0.6696 0.9332
C16 C 0.5590(4) 0.6793(2) 1.0341(4)
H9 H 0.5318 0.6442 1.1018
H10 H 0.6478 0.7027 1.0715
C17 C 0.4397(5) 0.7314(2) 1.0175(5)
H11 H 0.4613 0.7639 0.9444
H12 H 0.4316 0.7566 1.1037
H13 H 0.3480 0.7078 0.9934
C18 C -0.0854(4) 0.42730(18) 0.6364(4)
H14 H -0.1550 0.4426 0.5618
H15 H -0.0735 0.4657 0.7030
C19 C -0.1498(4) 0.36509(18) 0.7086(4)
H16 H -0.1582 0.3261 0.6447
H17 H -0.2459 0.3771 0.7389
H18 H -0.0864 0.3523 0.7882
C20 C -0.0437(4) 0.39112(17) 0.3263(4)
H19 H 0.0018 0.3923 0.2369
H20 H -0.1022 0.4337 0.3328
C21 C -0.1467(4) 0.32943(18) 0.3256(4)
H21 H -0.0914 0.2867 0.3161
H22 H -0.2184 0.3337 0.2484
H23 H -0.1963 0.3283 0.4117
N1 N 0.5792(4) 0.57314(15) 0.7198(3)
N2 N 0.3591(3) 0.50177(15) 0.7597(3)
N3 N 0.2930(3) 0.40906(14) 0.5388(3)
H24 H 0.3879 0.4111 0.5519
B1 B 0.4797(11) 0.5152(4) 0.6544(9)
F1 F 0.4166(4) 0.53670(19) 0.5296(4)
F2 F 0.5569(4) 0.45425(19) 0.6379(4)
C1B C 0.3051(4) 0.38373(18) 0.2963(4)
C2B C 0.2954(4) 0.33896(17) 0.1847(4)
C3B C 0.4077(5) 0.35670(18) 0.0970(4)
C4B C 0.4827(4) 0.41188(19) 0.1589(4)
C5B C 0.6059(4) 0.45551(18) 0.1338(4)
C6B C 0.6834(4) 0.45582(19) 0.0173(4)
H1B H 0.6595 0.4250 -0.0562
C7B C 0.7960(4) 0.50164(19) 0.0096(4)
H2B H 0.8472 0.5044 -0.0720
C8B C 0.8356(4) 0.54377(18) 0.1198(4)
H3B H 0.9154 0.5744 0.1152
C9B C 0.7575(4) 0.54083(17) 0.2373(4)
C10B C 0.8035(5) 0.57636(17) 0.3633(4)
C11B C 0.9420(5) 0.58647(17) 0.4232(4)
C12B C 0.9258(5) 0.60660(17) 0.5631(4)
C13B C 0.7794(5) 0.60916(17) 0.5831(4)
C14B C 0.1926(5) 0.28046(17) 0.1631(4)
H4B H 0.2488 0.2384 0.1438
H5B H 0.1439 0.2724 0.2495
C15B C 0.0761(4) 0.29021(19) 0.0471(4)
H6B H 0.1226 0.2975 -0.0396
H7B H 0.0148 0.2490 0.0399
H8B H 0.0165 0.3304 0.0668
C16B C 0.4410(4) 0.3207(2) -0.0341(4)
H9B H 0.4682 0.3558 -0.1018
H10B H 0.3522 0.2973 -0.0715
C17B C 0.5603(5) 0.2686(2) -0.0175(5)
H11B H 0.5387 0.2361 0.0556
H12B H 0.5684 0.2434 -0.1037
H13B H 0.6520 0.2922 0.0066
C18B C 1.0854(4) 0.57270(18) 0.3636(4)
H14B H 1.1550 0.5574 0.4382
H15B H 1.0735 0.5343 0.2970
C19B C 1.1498(4) 0.63491(18) 0.2914(4)
H16B H 1.1582 0.6739 0.3553
H17B H 1.2459 0.6229 0.2611
H18B H 1.0864 0.6477 0.2118
C20B C 1.0437(4) 0.60888(17) 0.6737(4)
H19B H 0.9982 0.6077 0.7631
H20B H 1.1022 0.5663 0.6672
C21B C 1.1467(4) 0.67057(18) 0.6744(4)
H21B H 1.0914 0.7133 0.6839
H22B H 1.2184 0.6663 0.7516
H23B H 1.1963 0.6717 0.5883
N1B N 0.4208(4) 0.42686(15) 0.2802(3)
N2B N 0.6409(3) 0.49823(15) 0.2403(3)
N3B N 0.7070(3) 0.59094(14) 0.4612(3)
H24B H 0.6121 0.5889 0.4481
B1B B 0.5203(11) 0.4848(4) 0.3456(9)
F1B F 0.5834(4) 0.46330(19) 0.4704(4)
F2B F 0.4431(4) 0.54575(19) 0.3621(4)
H25? H 0.5489 0.5401 0.6600
loop_
_geom_bond_atom_site_label_1
_geom_bond_atom_site_label_2
_geom_bond_site_symmetry_1
_geom_bond_site_symmetry_2
C1 C2 1_555 1_555
C2 C3 1_555 1_555
C3 C4 1_555 1_555
C4 C5 1_555 1_555
C5 C6 1_555 1_555
C6 H1 1_555 1_555
C7 C6 1_555 1_555
H2 C7 1_555 1_555
C8 C7 1_555 1_555
H3 C8 1_555 1_555
C9 C8 1_555 1_555
C10 C9 1_555 1_555
C11 C10 1_555 1_555
C12 C11 1_555 1_555
C13 C12 1_555 1_555
C14 C2 1_555 1_555
H4 C14 1_555 1_555
H5 C14 1_555 1_555
C15 C14 1_555 1_555
H6 C15 1_555 1_555
H7 C15 1_555 1_555
H8 C15 1_555 1_555
C16 C3 1_555 1_555
H9 C16 1_555 1_555
H10 C16 1_555 1_555
C17 C16 1_555 1_555
H11 C17 1_555 1_555
H12 C17 1_555 1_555
H13 C17 1_555 1_555
C18 C11 1_555 1_555
H14 C18 1_555 1_555
H15 C18 1_555 1_555
C19 C18 1_555 1_555
H16 C19 1_555 1_555
H17 C19 1_555 1_555
H18 C19 1_555 1_555
C20 C12 1_555 1_555
H19 C20 1_555 1_555
H20 C20 1_555 1_555
C21 C20 1_555 1_555
H21 C21 1_555 1_555
H22 C21 1_555 1_555
H23 C21 1_555 1_555
N1 C1 1_555 1_555
N2 C5 1_555 1_555
N3 C10 1_555 1_555
H24 N3 1_555 1_555
B1 N1 1_555 1_555
F1 B1 1_555 1_555
F2 B1 1_555 1_555
C1B C13 1_555 1_555
C2B C1B 1_555 1_555
C3B C2B 1_555 1_555
C4B C3B 1_555 1_555
C5B C4B 1_555 1_555
C6B C5B 1_555 1_555
H1B C6B 1_555 1_555
C7B C6B 1_555 1_555
H2B C7B 1_555 1_555
C8B C7B 1_555 1_555
H3B C8B 1_555 1_555
C9B C8B 1_555 1_555
C10B C9B 1_555 1_555
C11B C10B 1_555 1_555
C12B C11B 1_555 1_555
C13B C1 1_555 1_555
C14B C2B 1_555 1_555
H4B C14B 1_555 1_555
H5B C14B 1_555 1_555
C15B C14B 1_555 1_555
H6B C15B 1_555 1_555
H7B C15B 1_555 1_555
H8B C15B 1_555 1_555
C16B C3B 1_555 1_555
H9B C16B 1_555 1_555
H10B C16B 1_555 1_555
C17B C16B 1_555 1_555
H11B C17B 1_555 1_555
H12B C17B 1_555 1_555
H13B C17B 1_555 1_555
C18B C11B 1_555 1_555
H14B C18B 1_555 1_555
H15B C18B 1_555 1_555
C19B C18B 1_555 1_555
H16B C19B 1_555 1_555
H17B C19B 1_555 1_555
H18B C19B 1_555 1_555
C20B C12B 1_555 1_555
H19B C20B 1_555 1_555
H20B C20B 1_555 1_555
C21B C20B 1_555 1_555
H21B C21B 1_555 1_555
H22B C21B 1_555 1_555
H23B C21B 1_555 1_555
N1B C1B 1_555 1_555
N2B C5B 1_555 1_555
N3B C10B 1_555 1_555
H24B N3B 1_555 1_555
B1B N1B 1_555 1_555
F1B B1B 1_555 1_555
F2B B1B 1_555 1_555
C4 N1 1_555 1_555
C9 N2 1_555 1_555
C13 N3 1_555 1_555
N2 B1 1_555 1_555
C4B N1B 1_555 1_555
C9B N2B 1_555 1_555
C12B C13B 1_555 1_555
C13B N3B 1_555 1_555
N2B B1B 1_555 1_555

#END
