
#######################################################################
#
#                 Cambridge Crystallographic Data Centre
#                                CCDC 
#
#######################################################################
#
# If this CIF has been generated from an entry in the Cambridge 
# Structural Database, then it will include bibliographic, chemical, 
# crystal, experimental, refinement or atomic coordinate data resulting 
# from the CCDC's data processing and validation procedures.
#
#######################################################################

data_XEJLEG
_chemical_formula_moiety         'C35 H33 B1 F2 N6'
_chemical_name_systematic        
3,4,27,28-tetraethyl-7,7,24,24-tetrafluoro-6,8,23,25,34,35-hexaaza-7,24-diboranonacyclo[28.3.1.1^14,17^.0^2,6^.0^5,9^.0^8,13^.0^18,23^.0^22,26^.0^25,29^]pentatriaconta-1(34),2,4,8,10,12,14(35),15,17,19,21,26,28,30,32-pentadecaene
_symmetry_cell_setting           triclinic
_symmetry_space_group_name_H-M   'P -1'
_symmetry_Int_Tables_number      2
_space_group_name_Hall           '-P 1'
loop_
_symmetry_equiv_pos_site_id
_symmetry_equiv_pos_as_xyz
1 x,y,z
2 -x,-y,-z
_cell_length_a                   8.4726(6)
_cell_length_b                   11.6669(8)
_cell_length_c                   15.4430(11)
_cell_angle_alpha                85.112(6)
_cell_angle_beta                 79.378(6)
_cell_angle_gamma                69.716(7)
_cell_volume                     1406.95
_exptl_crystal_colour            orange
_exptl_crystal_description       plate
_cell_formula_units_Z            2
loop_
_atom_site_label
_atom_site_type_symbol
_atom_site_fract_x
_atom_site_fract_y
_atom_site_fract_z
C1 C 0.4024(3) 0.81110(19) 0.18229(15)
C2 C 0.3240(2) 0.83193(17) 0.10729(15)
C3 C 0.4553(2) 0.79728(17) 0.03340(15)
C4 C 0.6092(2) 0.75516(18) 0.06605(16)
C5 C 0.7884(2) 0.70614(18) 0.02592(16)
C6 C 0.8488(3) 0.6946(2) -0.06380(18)
H1 H 0.7721 0.7224 -0.1050
C7 C 1.0222(3) 0.6420(2) -0.09256(19)
H2 H 1.0655 0.6324 -0.1538
C8 C 1.1312(3) 0.6036(2) -0.0321(2)
H3 H 1.2506 0.5673 -0.0510
C9 C 1.0645(3) 0.61875(19) 0.05728(19)
C10 C 1.1745(2) 0.5797(2) 0.12393(18)
C11 C 1.3488(3) 0.5217(2) 0.1179(2)
H4 H 1.4276 0.4956 0.0652
C12 C 1.3886(3) 0.5082(2) 0.2025(2)
H5 H 1.4990 0.4715 0.2180
C13 C 1.2376(3) 0.5581(2) 0.2599(2)
C14 C 1.1966(3) 0.5722(2) 0.3537(2)
C15 C 1.3185(3) 0.5300(3) 0.4092(2)
H6 H 1.4350 0.4894 0.3858
C16 C 1.2681(3) 0.5479(3) 0.4967(2)
H7 H 1.3497 0.5165 0.5351
C17 C 1.0995(3) 0.6113(3) 0.5316(2)
H8 H 1.0654 0.6259 0.5929
C18 C 0.9830(3) 0.6525(3) 0.4742(2)
C19 C 0.8072(8) 0.7363(4) 0.4865(4)
C20 C 0.7136(5) 0.8074(3) 0.5584(3)
C21 C 0.5421(5) 0.8503(4) 0.5446(3)
C22 C 0.7803(5) 0.8355(4) 0.6343(3)
H9 H 0.7107 0.9199 0.6526
H10 H 0.8982 0.8347 0.6128
C23 C 0.7834(7) 0.7525(5) 0.7154(3)
H11 H 0.6681 0.7506 0.7374
H12 H 0.8234 0.7834 0.7612
H13 H 0.8606 0.6697 0.7001
C24 C 0.3948(6) 0.9314(5) 0.6079(4)
H14 H 0.4387 0.9800 0.6407
H15 H 0.3117 0.9892 0.5736
C25 C 0.3047(8) 0.8628(8) 0.6725(4)
H16 H 0.2562 0.8173 0.6408
H17 H 0.2129 0.9205 0.7119
H18 H 0.3857 0.8056 0.7072
N1 N 0.7045(10) 0.7307(6) 0.4430(4)
C26 C 0.5360(9) 0.7945(6) 0.4754(4)
C27 C 0.4031(3) 0.8243(2) 0.41590(16)
C28 C 0.2306(3) 0.8620(2) 0.45339(16)
H19 H 0.1966 0.8730 0.5151
C29 C 0.1104(3) 0.8830(2) 0.39912(17)
H20 H -0.0074 0.9074 0.4235
C30 C 0.1615(3) 0.8686(2) 0.31009(16)
H21 H 0.0796 0.8847 0.2721
C31 C 0.3367(3) 0.82956(19) 0.27575(15)
C32 C 0.1366(2) 0.8859(2) 0.10166(16)
H22 H 0.0724 0.8481 0.1485
H23 H 0.1184 0.8656 0.0441
C33 C 0.0657(3) 1.0247(2) 0.11139(18)
H24 H 0.0862 1.0456 0.1674
H25 H -0.0573 1.0542 0.1103
H26 H 0.1227 1.0632 0.0626
C34 C 0.4283(3) 0.80927(18) -0.06054(15)
H27 H 0.3169 0.8007 -0.0629
H28 H 0.5183 0.7420 -0.0945
C35 C 0.4315(3) 0.9311(2) -0.10377(16)
H29 H 0.3419 0.9982 -0.0708
H30 H 0.4117 0.9346 -0.1646
H31 H 0.5430 0.9389 -0.1036
N2 N 0.5757(2) 0.76408(16) 0.15543(13)
N3 N 0.8943(2) 0.66961(15) 0.08621(14)
N4 N 1.1108(2) 0.59977(18) 0.21046(17)
N5 N 1.0300(3) 0.6315(2) 0.38722(18)
N6 N 0.4548(2) 0.80730(16) 0.32890(13)
B1 B 0.7536(9) 0.7062(6) 0.1858(4)
F1 F 0.7741(5) 0.6013(4) 0.2373(3)
F2 F 0.7997(5) 0.7903(3) 0.2246(3)
N7? N 0.6993(11) 0.7344(6) 0.4307(4)
C36? C 0.5346(11) 0.8032(7) 0.4654(4)
C37? C 0.7956(7) 0.7058(4) 0.5117(3)
C38? C 0.6873(5) 0.7540(3) 0.5879(3)
C39? C 0.5220(5) 0.8089(4) 0.5657(3)
C40? C 0.7336(6) 0.7489(4) 0.6786(3)
H32? H 0.8163 0.6671 0.6892
H33? H 0.6300 0.7611 0.7236
C41? C 0.8107(7) 0.8460(5) 0.6875(4)
H34? H 0.9054 0.8399 0.6388
H35? H 0.8531 0.8337 0.7436
H36? H 0.7235 0.9271 0.6857
C42? C 0.3695(6) 0.8764(5) 0.6320(4)
H37? H 0.4086 0.9182 0.6725
H38? H 0.2885 0.9404 0.6000
C43? C 0.2761(8) 0.8013(7) 0.6855(4)
H39? H 0.2313 0.7625 0.6466
H40? H 0.1814 0.8536 0.7267
H41? H 0.3539 0.7381 0.7185
B2? B 0.6300(15) 0.7536(9) 0.2484(9)
F3? F 0.7281(8) 0.8238(6) 0.2577(5)
F4? F 0.7094(8) 0.6342(6) 0.2779(6)
B3? B 0.9633(16) 0.6542(10) 0.2727(11)
F5? F 0.8525(13) 0.5889(11) 0.2840(9)
F6? F 0.8735(17) 0.7789(10) 0.2689(12)
B4? B 0.8237(9) 0.6866(6) 0.3553(4)
F7? F 0.8347(9) 0.7791(6) 0.2949(5)
F8? F 0.8000(7) 0.5938(5) 0.3146(4)
loop_
_geom_bond_atom_site_label_1
_geom_bond_atom_site_label_2
_geom_bond_site_symmetry_1
_geom_bond_site_symmetry_2
C1 C2 1_555 1_555
C2 C3 1_555 1_555
C3 C4 1_555 1_555
C4 C5 1_555 1_555
C5 C6 1_555 1_555
C6 H1 1_555 1_555
C7 C6 1_555 1_555
H2 C7 1_555 1_555
C8 C7 1_555 1_555
H3 C8 1_555 1_555
C9 C8 1_555 1_555
C10 C9 1_555 1_555
C11 C10 1_555 1_555
H4 C11 1_555 1_555
C12 C11 1_555 1_555
H5 C12 1_555 1_555
C13 C12 1_555 1_555
C14 C13 1_555 1_555
C15 C14 1_555 1_555
H6 C15 1_555 1_555
C16 C15 1_555 1_555
H7 C16 1_555 1_555
C17 C16 1_555 1_555
H8 C17 1_555 1_555
C18 C17 1_555 1_555
C19 C18 1_555 1_555
C20 C19 1_555 1_555
C21 C20 1_555 1_555
C22 C20 1_555 1_555
H9 C22 1_555 1_555
H10 C22 1_555 1_555
C23 C22 1_555 1_555
H11 C23 1_555 1_555
H12 C23 1_555 1_555
H13 C23 1_555 1_555
C24 C21 1_555 1_555
H14 C24 1_555 1_555
H15 C24 1_555 1_555
C25 C24 1_555 1_555
H16 C25 1_555 1_555
H17 C25 1_555 1_555
H18 C25 1_555 1_555
N1 C19 1_555 1_555
C26 C21 1_555 1_555
C27 C26 1_555 1_555
C28 C27 1_555 1_555
H19 C28 1_555 1_555
C29 C28 1_555 1_555
H20 C29 1_555 1_555
C30 C29 1_555 1_555
H21 C30 1_555 1_555
C31 C1 1_555 1_555
C32 C2 1_555 1_555
H22 C32 1_555 1_555
H23 C32 1_555 1_555
C33 C32 1_555 1_555
H24 C33 1_555 1_555
H25 C33 1_555 1_555
H26 C33 1_555 1_555
C34 C3 1_555 1_555
H27 C34 1_555 1_555
H28 C34 1_555 1_555
C35 C34 1_555 1_555
H29 C35 1_555 1_555
H30 C35 1_555 1_555
H31 C35 1_555 1_555
N2 C1 1_555 1_555
N3 C5 1_555 1_555
N4 C10 1_555 1_555
N5 C14 1_555 1_555
N6 C27 1_555 1_555
B1 N2 1_555 1_555
F1 B1 1_555 1_555
F2 B1 1_555 1_555
C4 N2 1_555 1_555
C9 N3 1_555 1_555
C13 N4 1_555 1_555
C18 N5 1_555 1_555
N1 C26 1_555 1_555
C30 C31 1_555 1_555
C31 N6 1_555 1_555
N3 B1 1_555 1_555

#END
