
#######################################################################
#
#                 Cambridge Crystallographic Data Centre
#                                CCDC 
#
#######################################################################
#
# If this CIF has been generated from an entry in the Cambridge 
# Structural Database, then it will include bibliographic, chemical, 
# crystal, experimental, refinement or atomic coordinate data resulting 
# from the CCDC's data processing and validation procedures.
#
#######################################################################

data_XEJMEF
_chemical_formula_moiety         'C18 H26 N1 P1 Si2'
_chemical_name_systematic        
3,3-Dimethyl-1-phenyl-1-(trimethylsilylmethyl)-3H-2,1\l^5^,3-benzazaphosphasilole
_symmetry_cell_setting           tetragonal
_symmetry_space_group_name_H-M   'I 41/a'
_symmetry_Int_Tables_number      88
_space_group_name_Hall           'I -4 -1bw'
loop_
_symmetry_equiv_pos_site_id
_symmetry_equiv_pos_as_xyz
1 x,y,z
2 -x,-y,z
3 x,1/2+y,1/4-z
4 -x,1/2-y,1/4-z
5 -y,x,-z
6 y,-x,-z
7 -y,1/2+x,1/4+z
8 y,1/2-x,1/4+z
9 1/2+x,1/2+y,1/2+z
10 1/2-x,1/2-y,1/2+z
11 1/2+x,y,3/4-z
12 1/2-x,-y,3/4-z
13 1/2-y,1/2+x,1/2-z
14 1/2+y,1/2-x,1/2-z
15 1/2-y,x,3/4+z
16 1/2+y,-x,3/4+z
_cell_length_a                   21.635(6)
_cell_length_b                   21.635(6)
_cell_length_c                   16.915(5)
_cell_angle_alpha                90
_cell_angle_beta                 90
_cell_angle_gamma                90
_cell_volume                     7917.46
_cell_formula_units_Z            16
loop_
_atom_site_label
_atom_site_type_symbol
_atom_site_fract_x
_atom_site_fract_y
_atom_site_fract_z
P1 P 0.69719(8) 0.15622(7) 0.07824(9)
Si1 Si 0.59903(8) 0.09042(8) 0.02199(10)
Si2 Si 0.80244(9) 0.08317(9) -0.00577(12)
N1 N 0.6516(2) 0.1468(2) 0.0058(3)
C1 C 0.7774(3) 0.1512(3) 0.0563(4)
H1 H 0.8004 0.1497 0.1069
H2 H 0.7899 0.1895 0.0287
C2 C 0.6860(3) 0.2295(3) 0.1285(3)
C3 C 0.6358(3) 0.2359(3) 0.1794(4)
H3 H 0.6102 0.2012 0.1902
C4 C 0.6228(4) 0.2922(4) 0.2142(4)
H4 H 0.589 0.2957 0.2497
C5 C 0.6578(4) 0.3422(3) 0.1980(5)
H5 H 0.6479 0.381 0.2209
C6 C 0.7076(4) 0.3371(3) 0.1486(5)
H6 H 0.7328 0.3721 0.1378
C7 C 0.7210(3) 0.2800(3) 0.1141(4)
H7 H 0.7555 0.2765 0.0798
C8 C 0.6770(3) 0.0957(3) 0.1483(3)
C9 C 0.6260(3) 0.0629(3) 0.1218(3)
C10 C 0.6057(3) 0.0136(3) 0.1698(4)
H8 H 0.5716 -0.0109 0.1533
C11 C 0.6347(3) 0.0004(3) 0.2404(4)
H9 H 0.6199 -0.0323 0.2726
C12 C 0.6849(3) 0.0345(3) 0.2643(4)
H10 H 0.7049 0.0244 0.3126
C13 C 0.7068(3) 0.0829(3) 0.2199(4)
H11 H 0.7411 0.1068 0.2371
C14 C 0.5181(3) 0.1192(3) 0.0257(4)
H12 H 0.5154 0.1537 0.0631
H13 H 0.4906 0.0858 0.0429
H14 H 0.5056 0.1334 -0.027
C15 C 0.6008(3) 0.0253(3) -0.0500(4)
H15 H 0.643 0.0089 -0.0536
H16 H 0.5876 0.0402 -0.1021
H17 H 0.5728 -0.0074 -0.0322
C16 C 0.7780(3) 0.0093(3) 0.0405(4)
H18 H 0.7958 0.0063 0.0937
H19 H 0.7927 -0.0254 0.0082
H20 H 0.7328 0.008 0.0439
C17 C 0.7699(3) 0.0911(3) -0.1067(4)
H21 H 0.7835 0.1303 -0.1298
H22 H 0.7247 0.0903 -0.1039
H23 H 0.7844 0.0568 -0.1397
C18 C 0.8880(3) 0.0862(4) -0.0126(6)
H24 H 0.9059 0.082 0.0404
H25 H 0.9007 0.1258 -0.0356
H26 H 0.9027 0.0523 -0.0462
loop_
_geom_bond_atom_site_label_1
_geom_bond_atom_site_label_2
_geom_bond_site_symmetry_1
_geom_bond_site_symmetry_2
P1 N1 1_555 1_555
Si1 N1 1_555 1_555
Si2 C1 1_555 1_555
C1 P1 1_555 1_555
H1 C1 1_555 1_555
H2 C1 1_555 1_555
C2 P1 1_555 1_555
C3 C2 1_555 1_555
H3 C3 1_555 1_555
C4 C3 1_555 1_555
H4 C4 1_555 1_555
C5 C4 1_555 1_555
H5 C5 1_555 1_555
C6 C5 1_555 1_555
H6 C6 1_555 1_555
C7 C2 1_555 1_555
H7 C7 1_555 1_555
C8 P1 1_555 1_555
C9 Si1 1_555 1_555
C10 C9 1_555 1_555
H8 C10 1_555 1_555
C11 C10 1_555 1_555
H9 C11 1_555 1_555
C12 C11 1_555 1_555
H10 C12 1_555 1_555
C13 C8 1_555 1_555
H11 C13 1_555 1_555
C14 Si1 1_555 1_555
H12 C14 1_555 1_555
H13 C14 1_555 1_555
H14 C14 1_555 1_555
C15 Si1 1_555 1_555
H15 C15 1_555 1_555
H16 C15 1_555 1_555
H17 C15 1_555 1_555
C16 Si2 1_555 1_555
H18 C16 1_555 1_555
H19 C16 1_555 1_555
H20 C16 1_555 1_555
C17 Si2 1_555 1_555
H21 C17 1_555 1_555
H22 C17 1_555 1_555
H23 C17 1_555 1_555
C18 Si2 1_555 1_555
H24 C18 1_555 1_555
H25 C18 1_555 1_555
H26 C18 1_555 1_555
C6 C7 1_555 1_555
C8 C9 1_555 1_555
C12 C13 1_555 1_555

#END
