
#######################################################################
#
#                 Cambridge Crystallographic Data Centre
#                                CCDC 
#
#######################################################################
#
# If this CIF has been generated from an entry in the Cambridge 
# Structural Database, then it will include bibliographic, chemical, 
# crystal, experimental, refinement or atomic coordinate data resulting 
# from the CCDC's data processing and validation procedures.
#
#######################################################################

data_XEJQAH
_chemical_formula_moiety         'C26 H22 Br1 N3 O3'
_chemical_name_systematic        
N-[2-benzyl-1-(2-bromophenyl)-3,5-dioxotetrahydro-1H,5H-pyrazolo[1,2-a]pyrazol-2-yl]benzamide
_symmetry_cell_setting           orthorhombic
_symmetry_space_group_name_H-M   'P 21 21 21'
_symmetry_Int_Tables_number      19
_space_group_name_Hall           'P 2ac 2ab'
loop_
_symmetry_equiv_pos_site_id
_symmetry_equiv_pos_as_xyz
1 x,y,z
2 1/2-x,-y,1/2+z
3 -x,1/2+y,1/2-z
4 1/2+x,1/2-y,-z
_cell_length_a                   9.3208(4)
_cell_length_b                   12.8006(6)
_cell_length_c                   19.0030(9)
_cell_angle_alpha                90
_cell_angle_beta                 90
_cell_angle_gamma                90
_cell_volume                     2267.28
_exptl_crystal_colour            colorless
_exptl_crystal_description       plate
_cell_formula_units_Z            4
loop_
_atom_site_label
_atom_site_type_symbol
_atom_site_fract_x
_atom_site_fract_y
_atom_site_fract_z
Br1 Br 0.57201(6) 0.07379(4) 0.37699(3)
O1 O 0.2594(4) 0.0973(3) 0.26534(16)
O2 O 0.1549(3) 0.3109(3) 0.20662(17)
N1 N 0.5290(3) 0.3028(3) 0.18970(17)
N2 N 0.3849(4) 0.3020(3) 0.16217(18)
O3 O 0.2789(4) 0.2969(4) 0.05293(18)
N3 N 0.2936(4) 0.2366(3) 0.33571(17)
H1 H 0.2793 0.2631 0.3767
C1 C 0.2625(4) 0.4716(3) 0.3335(2)
C2 C 0.6439(4) 0.2644(3) 0.3036(2)
C3 C 0.2830(4) 0.3034(3) 0.2140(2)
C4 C 0.3677(4) 0.2980(3) 0.28385(19)
C5 C 0.5123(4) 0.2486(3) 0.25797(19)
H2 H 0.4983 0.1737 0.2496
C6 C 0.6844(4) 0.1960(4) 0.3565(2)
C7 C 0.3936(4) 0.4095(3) 0.3122(2)
H3 H 0.4563 0.4045 0.3528
H4 H 0.4445 0.4488 0.2764
C8 C 0.7359(5) 0.3481(4) 0.2912(2)
H5 H 0.7131 0.3965 0.2565
C9 C 0.2451(4) 0.1383(3) 0.3227(2)
C10 C 0.1759(4) 0.0834(3) 0.3832(2)
C11 C 0.1913(4) 0.5345(3) 0.2851(2)
H6 H 0.2182 0.5325 0.2380
C12 C 0.0813(5) 0.6000(4) 0.3058(3)
H7 H 0.0364 0.6425 0.2728
C13 C 0.0846(5) 0.0002(4) 0.3691(2)
H8 H 0.0675 -0.0195 0.3227
C14 C 0.2173(5) 0.4752(4) 0.4026(2)
H9 H 0.2633 0.4341 0.4360
C15 C 0.6126(5) 0.2496(4) 0.1344(2)
H10 H 0.6043 0.1743 0.1379
H11 H 0.7131 0.2692 0.1361
C16 C 0.0193(7) -0.0532(4) 0.4231(3)
H12 H -0.0432 -0.1079 0.4131
C17 C 0.5400(6) 0.2908(4) 0.0684(2)
H13 H 0.5765 0.3594 0.0560
H14 H 0.5543 0.2437 0.0291
C18 C 0.3833(5) 0.2962(4) 0.0890(2)
C19 C 0.0374(5) 0.6026(4) 0.3755(3)
H15 H -0.0363 0.6468 0.3896
C20 C 0.8607(6) 0.3603(5) 0.3298(3)
H16 H 0.9214 0.4162 0.3203
C21 C 0.8080(5) 0.2075(5) 0.3954(2)
H17 H 0.8316 0.1596 0.4303
C22 C 0.2028(6) 0.1105(5) 0.4525(3)
H18 H 0.2646 0.1655 0.4625
C23 C 0.8955(5) 0.2911(5) 0.3815(3)
H19 H 0.9790 0.3007 0.4076
C24 C 0.1043(7) 0.5393(5) 0.4229(3)
H20 H 0.0739 0.5389 0.4695
C25 C 0.1386(8) 0.0563(6) 0.5067(3)
H21 H 0.1574 0.0749 0.5531
C26 C 0.0468(8) -0.0254(5) 0.4924(3)
H22 H 0.0035 -0.0618 0.5290
loop_
_geom_bond_atom_site_label_1
_geom_bond_atom_site_label_2
_geom_bond_site_symmetry_1
_geom_bond_site_symmetry_2
Br1 C6 1_555 1_555
O1 C9 1_555 1_555
O2 C3 1_555 1_555
N1 N2 1_555 1_555
N2 C3 1_555 1_555
O3 C18 1_555 1_555
N3 H1 1_555 1_555
C1 C7 1_555 1_555
C2 C5 1_555 1_555
C3 C4 1_555 1_555
C4 N3 1_555 1_555
C5 N1 1_555 1_555
H2 C5 1_555 1_555
C6 C2 1_555 1_555
C7 C4 1_555 1_555
H3 C7 1_555 1_555
H4 C7 1_555 1_555
C8 C2 1_555 1_555
H5 C8 1_555 1_555
C9 N3 1_555 1_555
C10 C9 1_555 1_555
C11 C1 1_555 1_555
H6 C11 1_555 1_555
C12 C11 1_555 1_555
H7 C12 1_555 1_555
C13 C10 1_555 1_555
H8 C13 1_555 1_555
C14 C1 1_555 1_555
H9 C14 1_555 1_555
C15 N1 1_555 1_555
H10 C15 1_555 1_555
H11 C15 1_555 1_555
C16 C13 1_555 1_555
H12 C16 1_555 1_555
C17 C15 1_555 1_555
H13 C17 1_555 1_555
H14 C17 1_555 1_555
C18 N2 1_555 1_555
C19 C12 1_555 1_555
H15 C19 1_555 1_555
C20 C8 1_555 1_555
H16 C20 1_555 1_555
C21 C6 1_555 1_555
H17 C21 1_555 1_555
C22 C10 1_555 1_555
H18 C22 1_555 1_555
C23 C20 1_555 1_555
H19 C23 1_555 1_555
C24 C14 1_555 1_555
H20 C24 1_555 1_555
C25 C22 1_555 1_555
H21 C25 1_555 1_555
C26 C16 1_555 1_555
H22 C26 1_555 1_555
C4 C5 1_555 1_555
C17 C18 1_555 1_555
C19 C24 1_555 1_555
C21 C23 1_555 1_555
C25 C26 1_555 1_555

#END
