
#######################################################################
#
#                 Cambridge Crystallographic Data Centre
#                                CCDC 
#
#######################################################################
#
# If this CIF has been generated from an entry in the Cambridge 
# Structural Database, then it will include bibliographic, chemical, 
# crystal, experimental, refinement or atomic coordinate data resulting 
# from the CCDC's data processing and validation procedures.
#
#######################################################################

data_XEJQEJ
_chemical_formula_moiety         'C18 H21 N1 O11'
_chemical_name_systematic        
'2-(Hydroxymethyl)-4-nitrophenyl tri-O-acetyl-\b-D-xylopyranoside'
_symmetry_cell_setting           orthorhombic
_symmetry_space_group_name_H-M   'P 21 21 21'
_symmetry_Int_Tables_number      19
_space_group_name_Hall           'P 2ac 2ab'
loop_
_symmetry_equiv_pos_site_id
_symmetry_equiv_pos_as_xyz
1 x,y,z
2 1/2-x,-y,1/2+z
3 -x,1/2+y,1/2-z
4 1/2+x,1/2-y,-z
_cell_length_a                   6.28800(10)
_cell_length_b                   10.59400(10)
_cell_length_c                   31.1890(5)
_cell_angle_alpha                90
_cell_angle_beta                 90
_cell_angle_gamma                90
_cell_volume                     2077.66
_chemical_melting_point          163-165deg.C
_cell_formula_units_Z            4
loop_
_atom_site_label
_atom_site_type_symbol
_atom_site_fract_x
_atom_site_fract_y
_atom_site_fract_z
O1 O 0.6497(3) 0.2424(2) 0.37999(7)
O2 O 0.4830(3) 0.3457(2) 0.43468(7)
O3 O 0.5091(4) 0.4266(2) 0.32153(7)
O4 O 0.3269(7) 0.2697(5) 0.29155(12)
O5 O 0.1368(4) 0.5532(2) 0.34896(7)
O6 O 0.2190(8) 0.7554(3) 0.34290(14)
O7 O 0.1845(3) 0.6385(2) 0.44012(7)
O8 O -0.1614(4) 0.6161(3) 0.42644(13)
O9 O 1.5029(6) -0.0328(3) 0.41821(13)
O10 O 1.4563(5) 0.0572(4) 0.47910(12)
O11 O 1.0097(15) 0.0332(10) 0.2987(2)
H1 H 1.1031(15) 0.0861(10) 0.2951(2)
N1 N 1.4009(6) 0.0348(3) 0.44228(15)
C1 C 0.5773(5) 0.3616(3) 0.39398(9)
H2 H 0.6951(5) 0.4220(3) 0.39543(9)
C2 C 0.4107(5) 0.4054(3) 0.36240(10)
H3 H 0.2995(5) 0.3410(3) 0.35964(10)
C3 C 0.3136(5) 0.5285(3) 0.37684(10)
H4 H 0.4184(5) 0.5967(3) 0.37474(10)
C4 C 0.2341(5) 0.5162(3) 0.42293(9)
H5 H 0.1078(5) 0.4621(3) 0.42381(9)
C5 C 0.4044(5) 0.4627(3) 0.45113(11)
H6 H 0.5206(5) 0.5225(3) 0.45327(11)
H7 H 0.3477(5) 0.4494(3) 0.47970(11)
C6 C 0.8390(5) 0.1974(3) 0.39611(10)
C7 C 0.9467(5) 0.1125(3) 0.37003(11)
C8 C 1.1338(6) 0.0600(3) 0.38581(13)
H8 H 1.2103(6) 0.0030(3) 0.36916(13)
C9 C 1.2062(6) 0.0922(3) 0.42609(12)
C10 C 1.1003(6) 0.1757(3) 0.45128(11)
H9 H 1.1524(6) 0.1966(3) 0.47826(11)
C11 C 0.9136(5) 0.2294(3) 0.43632(10)
H10 H 0.8391(5) 0.2866(3) 0.45323(10)
C12 C 0.8627(8) 0.0789(5) 0.32631(15)
H11 H 0.7622(8) 0.0114(5) 0.32978(15)
H12 H 0.7882(8) 0.1501(5) 0.31462(15)
C13 C 0.4528(8) 0.3545(5) 0.28803(13)
C14 C 0.5658(11) 0.3913(6) 0.24908(15)
H13 H 0.6566(11) 0.4619(6) 0.25516(15)
H14 H 0.4648(11) 0.4145(6) 0.22738(15)
H15 H 0.6501(11) 0.3217(6) 0.23910(15)
C15 C 0.1042(9) 0.6701(5) 0.33453(13)
C16 C -0.0925(11) 0.6779(6) 0.3078(2)
H16 H -0.1567(11) 0.5959(6) 0.3059(2)
H17 H -0.0563(11) 0.7070(6) 0.2796(2)
H18 H -0.1908(11) 0.7358(6) 0.3208(2)
C17 C -0.0198(6) 0.6763(3) 0.44157(12)
C18 C -0.0429(7) 0.8003(3) 0.46249(14)
H19 H 0.0938(7) 0.8292(3) 0.47200(14)
H20 H -0.1366(7) 0.7927(3) 0.48666(14)
H21 H -0.1011(7) 0.8597(3) 0.44242(14)
O12? O 0.8913(12) 0.1708(9) 0.2970(2)
H22? H 1.0187(12) 0.1855(9) 0.2945(2)
loop_
_geom_bond_atom_site_label_1
_geom_bond_atom_site_label_2
_geom_bond_site_symmetry_1
_geom_bond_site_symmetry_2
O1 C1 1_555 1_555
O2 C1 1_555 1_555
O3 C2 1_555 1_555
O4 C13 1_555 1_555
O5 C3 1_555 1_555
O6 C15 1_555 1_555
O7 C4 1_555 1_555
O8 C17 1_555 1_555
O9 N1 1_555 1_555
O10 N1 1_555 1_555
O11 H1 1_555 1_555
N1 C9 1_555 1_555
C1 H2 1_555 1_555
C2 C1 1_555 1_555
H3 C2 1_555 1_555
C3 C2 1_555 1_555
H4 C3 1_555 1_555
C4 C3 1_555 1_555
H5 C4 1_555 1_555
C5 O2 1_555 1_555
H6 C5 1_555 1_555
H7 C5 1_555 1_555
C6 O1 1_555 1_555
C7 C6 1_555 1_555
C8 C7 1_555 1_555
H8 C8 1_555 1_555
C9 C8 1_555 1_555
C10 C9 1_555 1_555
H9 C10 1_555 1_555
C11 C6 1_555 1_555
H10 C11 1_555 1_555
C12 O11 1_555 1_555
H11 C12 1_555 1_555
H12 C12 1_555 1_555
C13 O3 1_555 1_555
C14 C13 1_555 1_555
H13 C14 1_555 1_555
H14 C14 1_555 1_555
H15 C14 1_555 1_555
C15 O5 1_555 1_555
C16 C15 1_555 1_555
H16 C16 1_555 1_555
H17 C16 1_555 1_555
H18 C16 1_555 1_555
C17 O7 1_555 1_555
C18 C17 1_555 1_555
H19 C18 1_555 1_555
H20 C18 1_555 1_555
H21 C18 1_555 1_555
C4 C5 1_555 1_555
C7 C12 1_555 1_555
C10 C11 1_555 1_555

#END
