
#######################################################################
#
#                 Cambridge Crystallographic Data Centre
#                                CCDC 
#
#######################################################################
#
# If this CIF has been generated from an entry in the Cambridge 
# Structural Database, then it will include bibliographic, chemical, 
# crystal, experimental, refinement or atomic coordinate data resulting 
# from the CCDC's data processing and validation procedures.
#
#######################################################################

data_XEJQAE
_chemical_formula_moiety         'C35 H22 B1 F2 I1 N2'
_chemical_name_systematic        
4,4-Difluoro-8-(4'-iodophenyl)-3,5-bis(1'-naphthyl)-4-bora-3a,4a-diaza-s-indancene
_symmetry_cell_setting           monoclinic
_symmetry_space_group_name_H-M   'P 21/n'
_symmetry_Int_Tables_number      14
_space_group_name_Hall           '-P 2yn'
loop_
_symmetry_equiv_pos_site_id
_symmetry_equiv_pos_as_xyz
1 x,y,z
2 1/2-x,1/2+y,1/2-z
3 -x,-y,-z
4 1/2+x,1/2-y,1/2+z
_cell_length_a                   12.278(3)
_cell_length_b                   14.203(3)
_cell_length_c                   16.332(3)
_cell_angle_alpha                90
_cell_angle_beta                 109.20(3)
_cell_angle_gamma                90
_cell_volume                     2689.63
_exptl_crystal_colour            'dark purple'
_chemical_melting_point          165-166deg.C(dec.)
_cell_formula_units_Z            4
loop_
_atom_site_label
_atom_site_type_symbol
_atom_site_fract_x
_atom_site_fract_y
_atom_site_fract_z
I1 I 0.43404(6) 0.25898(5) 0.18211(4)
F1 F 0.8744(6) 0.6217(4) 0.7335(4)
F2 F 0.9894(5) 0.4961(4) 0.7538(4)
N1 N 0.7881(6) 0.4680(5) 0.6924(4)
N2 N 0.8946(6) 0.5538(5) 0.6075(4)
C1 C 0.7536(7) 0.4299(6) 0.7557(6)
C2 C 0.6650(7) 0.3645(6) 0.7183(6)
H1 H 0.6269 0.3280 0.7476
C3 C 0.6451(7) 0.3647(6) 0.6300(6)
H2 H 0.5903 0.3290 0.5888
C4 C 0.7229(7) 0.4285(6) 0.6137(6)
C5 C 0.7380(7) 0.4475(6) 0.5350(5)
C6 C 0.8228(7) 0.5113(7) 0.5318(6)
C7 C 0.8440(8) 0.5487(6) 0.4612(6)
H3 H 0.8079 0.5325 0.4034
C8 C 0.9288(8) 0.6145(7) 0.4928(6)
H4 H 0.9612 0.6512 0.4596
C9 C 0.9587(8) 0.6176(6) 0.5832(6)
C10 C 0.7995(7) 0.4539(7) 0.8481(6)
C11 C 0.8106(8) 0.5462(7) 0.8747(7)
H5 H 0.7951 0.5941 0.8337
C12 C 0.8450(9) 0.5686(8) 0.9627(7)
H6 H 0.8495 0.6317 0.9789
C13 C 0.8715(8) 0.5032(9) 1.0244(6)
H7 H 0.8965 0.5206 1.0825
C14 C 0.8613(8) 0.4061(8) 1.0006(6)
C15 C 0.8847(8) 0.3351(8) 1.0649(7)
H8 H 0.9070 0.3521 1.1231
C16 C 0.8753(7) 0.2439(9) 1.0433(7)
H9 H 0.8870 0.1976 1.0855
C17 C 0.8472(9) 0.2194(8) 0.9552(8)
H10 H 0.8435 0.1561 0.9400
C18 C 0.8257(8) 0.2846(7) 0.8927(7)
H11 H 0.8084 0.2659 0.8353
C19 C 0.8290(7) 0.3818(7) 0.9128(5)
C20 C 1.0468(8) 0.6764(7) 0.6464(6)
C21 C 1.1364(8) 0.6358(8) 0.7094(6)
H12 H 1.1377 0.5706 0.7150
C22 C 1.2267(8) 0.6879(8) 0.7661(7)
H13 H 1.2880 0.6580 0.8072
C23 C 1.2225(9) 0.7825(8) 0.7596(7)
H14 H 1.2798 0.8180 0.7990
C24 C 1.1322(9) 0.8301(8) 0.6937(7)
C25 C 1.1295(12) 0.9280(9) 0.6865(9)
H15 H 1.1890 0.9642 0.7228
C26 C 1.0390(12) 0.9699(8) 0.6260(9)
H16 H 1.0368 1.0352 0.6211
C27 C 0.9498(10) 0.9169(9) 0.5714(8)
H17 H 0.8885 0.9472 0.5306
C28 C 0.9501(9) 0.8224(7) 0.5762(7)
H18 H 0.8886 0.7881 0.5398
C29 C 1.0427(8) 0.7753(6) 0.6359(6)
C30 C 0.6650(7) 0.4017(6) 0.4544(6)
C31 C 0.6776(8) 0.3091(7) 0.4377(5)
H19 H 0.7320 0.2725 0.4783
C32 C 0.6105(7) 0.2698(7) 0.3612(6)
H20 H 0.6208 0.2066 0.3510
C33 C 0.5308(7) 0.3187(7) 0.3008(6)
C34 C 0.5139(8) 0.4114(7) 0.3157(6)
H21 H 0.4573 0.4461 0.2750
C35 C 0.5821(9) 0.4532(7) 0.3922(6)
H22 H 0.5720 0.5166 0.4019
B1 B 0.8918(9) 0.5364(8) 0.7003(6)
loop_
_geom_bond_atom_site_label_1
_geom_bond_atom_site_label_2
_geom_bond_site_symmetry_1
_geom_bond_site_symmetry_2
I1 C33 1_555 1_555
F1 B1 1_555 1_555
F2 B1 1_555 1_555
N1 C1 1_555 1_555
N2 C6 1_555 1_555
C1 C2 1_555 1_555
C2 H1 1_555 1_555
C3 C2 1_555 1_555
H2 C3 1_555 1_555
C4 N1 1_555 1_555
C5 C4 1_555 1_555
C6 C5 1_555 1_555
C7 C6 1_555 1_555
H3 C7 1_555 1_555
C8 C7 1_555 1_555
H4 C8 1_555 1_555
C9 N2 1_555 1_555
C10 C1 1_555 1_555
C11 C10 1_555 1_555
H5 C11 1_555 1_555
C12 C11 1_555 1_555
H6 C12 1_555 1_555
C13 C12 1_555 1_555
H7 C13 1_555 1_555
C14 C13 1_555 1_555
C15 C14 1_555 1_555
H8 C15 1_555 1_555
C16 C15 1_555 1_555
H9 C16 1_555 1_555
C17 C16 1_555 1_555
H10 C17 1_555 1_555
C18 C17 1_555 1_555
H11 C18 1_555 1_555
C19 C10 1_555 1_555
C20 C9 1_555 1_555
C21 C20 1_555 1_555
H12 C21 1_555 1_555
C22 C21 1_555 1_555
H13 C22 1_555 1_555
C23 C22 1_555 1_555
H14 C23 1_555 1_555
C24 C23 1_555 1_555
C25 C24 1_555 1_555
H15 C25 1_555 1_555
C26 C25 1_555 1_555
H16 C26 1_555 1_555
C27 C26 1_555 1_555
H17 C27 1_555 1_555
C28 C27 1_555 1_555
H18 C28 1_555 1_555
C29 C20 1_555 1_555
C30 C5 1_555 1_555
C31 C30 1_555 1_555
H19 C31 1_555 1_555
C32 C31 1_555 1_555
H20 C32 1_555 1_555
C33 C32 1_555 1_555
C34 C33 1_555 1_555
H21 C34 1_555 1_555
C35 C30 1_555 1_555
H22 C35 1_555 1_555
B1 N1 1_555 1_555
N2 B1 1_555 1_555
C3 C4 1_555 1_555
C8 C9 1_555 1_555
C14 C19 1_555 1_555
C18 C19 1_555 1_555
C24 C29 1_555 1_555
C28 C29 1_555 1_555
C34 C35 1_555 1_555

#END
