
#######################################################################
#
#                 Cambridge Crystallographic Data Centre
#                                CCDC 
#
#######################################################################
#
# If this CIF has been generated from an entry in the Cambridge 
# Structural Database, then it will include bibliographic, chemical, 
# crystal, experimental, refinement or atomic coordinate data resulting 
# from the CCDC's data processing and validation procedures.
#
#######################################################################

data_XEJXIW
_chemical_formula_moiety         'C35 H30 B1 Cl1 F10 N2,0.5(C7 H8)'
_chemical_name_systematic        
'chloro[2-ethyl-1-(pentafluorophenyl)but-1-en-1-yl](pentafluorophenyl)[3-(tricyclo[3.3.1.1^3,7^]decan-1-yl)-1H-benzimidazol-3-ium-1-yl]borate toluene solvate'
_symmetry_cell_setting           monoclinic
_symmetry_space_group_name_H-M   'P 21/c'
_symmetry_Int_Tables_number      14
_space_group_name_Hall           '-P 2ybc'
loop_
_symmetry_equiv_pos_site_id
_symmetry_equiv_pos_as_xyz
1 x,y,z
2 -x,1/2+y,1/2-z
3 -x,-y,-z
4 x,1/2-y,1/2+z
_cell_length_a                   7.8738(4)
_cell_length_b                   17.6595(9)
_cell_length_c                   24.5898(12)
_cell_angle_alpha                90
_cell_angle_beta                 97.103(2)
_cell_angle_gamma                90
_cell_volume                     3392.91
_exptl_crystal_colour            colorless
_exptl_crystal_description       Needle
_cell_formula_units_Z            4
loop_
_atom_site_label
_atom_site_type_symbol
_atom_site_fract_x
_atom_site_fract_y
_atom_site_fract_z
Cl1 Cl 0.0888(3) 0.35095(12) 0.21182(8)
F1 F 0.4624(6) 0.1674(3) 0.2559(2)
F2 F 0.4224(7) 0.0804(3) 0.3418(2)
F3 F 0.2553(7) 0.1326(3) 0.4246(2)
F4 F 0.1354(7) 0.2772(3) 0.4202(2)
F5 F 0.1669(6) 0.3650(3) 0.33497(19)
F6 F 0.3526(6) 0.5046(3) 0.34844(18)
F7 F 0.1890(6) 0.6368(3) 0.3332(2)
F8 F 0.0700(7) 0.6849(3) 0.2300(2)
F9 F 0.1280(8) 0.5996(3) 0.1422(2)
F10 F 0.3070(7) 0.4704(3) 0.15619(18)
N1 N 0.5490(9) 0.3006(4) 0.1162(3)
N2 N 0.3982(9) 0.2984(4) 0.1869(3)
C1 C 0.5214(10) 0.3328(5) 0.1634(3)
H1 H 0.582978 0.375598 0.178705
C2 C 0.4345(11) 0.2392(5) 0.1085(3)
C3 C 0.4073(12) 0.1840(5) 0.0670(4)
H2 H 0.472073 0.183316 0.036859
C4 C 0.2812(11) 0.1309(5) 0.0724(4)
H3 H 0.262958 0.091300 0.046156
C5 C 0.1784(11) 0.1337(5) 0.1157(4)
H4 H 0.087884 0.098266 0.116515
C6 C 0.2075(11) 0.1866(5) 0.1566(3)
H5 H 0.141862 0.187221 0.186505
C7 C 0.3377(11) 0.2400(5) 0.1526(3)
C8 C 0.6668(10) 0.3297(5) 0.0784(3)
C9 C 0.5647(11) 0.3457(5) 0.0223(3)
H6 H 0.506470 0.298985 0.007702
H7 H 0.476446 0.384648 0.026082
C10 C 0.6868(12) 0.3737(5) -0.0170(3)
H8 H 0.621334 0.383245 -0.053846
C11 C 0.8263(12) 0.3125(5) -0.0222(3)
H9 H 0.771575 0.264579 -0.035867
H10 H 0.903501 0.329573 -0.048590
C12 C 0.9292(11) 0.2996(5) 0.0341(3)
H11 H 1.019640 0.260730 0.030653
C13 C 1.0135(11) 0.3723(5) 0.0561(3)
H12 H 1.093412 0.390631 0.030892
H13 H 1.079692 0.363017 0.092359
C14 C 0.8746(11) 0.4325(5) 0.0613(4)
H14 H 0.929907 0.480563 0.075865
C15 C 0.7514(11) 0.4037(5) 0.1009(3)
H15 H 0.815465 0.394581 0.137546
H16 H 0.662496 0.442306 0.104656
C16 C 0.8076(11) 0.2701(5) 0.0740(3)
H17 H 0.755387 0.221657 0.060402
H18 H 0.872421 0.261121 0.110587
C17 C 0.7716(12) 0.4475(5) 0.0054(3)
H19 H 0.848319 0.467064 -0.020397
H20 H 0.682823 0.486229 0.009130
C18 C 0.3112(10) 0.2702(5) 0.2896(3)
C19 C 0.3747(11) 0.1972(5) 0.2950(4)
C20 C 0.3577(11) 0.1511(5) 0.3391(4)
C21 C 0.2749(11) 0.1772(5) 0.3809(3)
C22 C 0.2119(11) 0.2495(5) 0.3789(3)
C23 C 0.2310(10) 0.2944(5) 0.3341(3)
C24 C 0.4271(11) 0.4068(5) 0.2607(3)
C25 C 0.3338(11) 0.4806(5) 0.2530(3)
C26 C 0.3002(11) 0.5261(5) 0.2968(4)
C27 C 0.2164(11) 0.5945(5) 0.2893(4)
C28 C 0.1551(11) 0.6188(5) 0.2372(4)
C29 C 0.1821(12) 0.5754(5) 0.1931(4)
C30 C 0.2743(11) 0.5092(5) 0.2011(3)
C31 C 0.5908(11) 0.4049(5) 0.2845(3)
C32 C 0.6932(10) 0.3326(5) 0.2938(3)
H21 H 0.804061 0.339506 0.279344
H22 H 0.630798 0.291471 0.272528
C33 C 0.7279(13) 0.3082(6) 0.3532(4)
H23 H 0.794516 0.261194 0.355716
H24 H 0.792630 0.347894 0.374570
H25 H 0.619069 0.299776 0.367742
C34 C 0.6907(11) 0.4750(5) 0.3037(4)
H26 H 0.609862 0.517582 0.305434
H27 H 0.748553 0.466081 0.341234
C35 C 0.8215(15) 0.4968(6) 0.2676(5)
H28 H 0.881714 0.542458 0.282161
H29 H 0.903848 0.455417 0.266346
H30 H 0.765044 0.506960 0.230517
B1 B 0.3231(12) 0.3306(5) 0.2388(4)
C36? C -0.256(4) 0.461(2) 0.5329(15)
C37? C -0.072(2) 0.4851(11) 0.5109(7)
C38? C 0.011(4) 0.5445(18) 0.5352(13)
C39? C 0.168(3) 0.5698(11) 0.5147(8)
C40? C 0.211(3) 0.5354(13) 0.4687(10)
C41? C 0.128(2) 0.4726(11) 0.4448(8)
C42? C -0.034(5) 0.446(2) 0.4649(18)
loop_
_geom_bond_atom_site_label_1
_geom_bond_atom_site_label_2
_geom_bond_site_symmetry_1
_geom_bond_site_symmetry_2
Cl1 B1 1_555 1_555
F1 C19 1_555 1_555
F2 C20 1_555 1_555
F3 C21 1_555 1_555
F4 C22 1_555 1_555
F5 C23 1_555 1_555
F6 C26 1_555 1_555
F7 C27 1_555 1_555
F8 C28 1_555 1_555
F9 C29 1_555 1_555
F10 C30 1_555 1_555
N1 C1 1_555 1_555
N2 C1 1_555 1_555
C1 H1 1_555 1_555
C2 N1 1_555 1_555
C3 C2 1_555 1_555
H2 C3 1_555 1_555
C4 C3 1_555 1_555
H3 C4 1_555 1_555
C5 C4 1_555 1_555
H4 C5 1_555 1_555
C6 C5 1_555 1_555
H5 C6 1_555 1_555
C7 N2 1_555 1_555
C8 N1 1_555 1_555
C9 C8 1_555 1_555
H6 C9 1_555 1_555
H7 C9 1_555 1_555
C10 C9 1_555 1_555
H8 C10 1_555 1_555
C11 C10 1_555 1_555
H9 C11 1_555 1_555
H10 C11 1_555 1_555
C12 C11 1_555 1_555
H11 C12 1_555 1_555
C13 C12 1_555 1_555
H12 C13 1_555 1_555
H13 C13 1_555 1_555
C14 C13 1_555 1_555
H14 C14 1_555 1_555
C15 C8 1_555 1_555
H15 C15 1_555 1_555
H16 C15 1_555 1_555
C16 C8 1_555 1_555
H17 C16 1_555 1_555
H18 C16 1_555 1_555
C17 C10 1_555 1_555
H19 C17 1_555 1_555
H20 C17 1_555 1_555
C18 C19 1_555 1_555
C19 C20 1_555 1_555
C20 C21 1_555 1_555
C21 C22 1_555 1_555
C22 C23 1_555 1_555
C23 C18 1_555 1_555
C24 C25 1_555 1_555
C25 C26 1_555 1_555
C26 C27 1_555 1_555
C27 C28 1_555 1_555
C28 C29 1_555 1_555
C29 C30 1_555 1_555
C30 C25 1_555 1_555
C31 C24 1_555 1_555
C32 C31 1_555 1_555
H21 C32 1_555 1_555
H22 C32 1_555 1_555
C33 C32 1_555 1_555
H23 C33 1_555 1_555
H24 C33 1_555 1_555
H25 C33 1_555 1_555
C34 C31 1_555 1_555
H26 C34 1_555 1_555
H27 C34 1_555 1_555
C35 C34 1_555 1_555
H28 C35 1_555 1_555
H29 C35 1_555 1_555
H30 C35 1_555 1_555
B1 N2 1_555 1_555
C2 C7 1_555 1_555
C6 C7 1_555 1_555
C12 C16 1_555 1_555
C14 C15 1_555 1_555
C14 C17 1_555 1_555
C18 B1 1_555 1_555
C24 B1 1_555 1_555

#END
