
#######################################################################
#
#                 Cambridge Crystallographic Data Centre
#                                CCDC 
#
#######################################################################
#
# If this CIF has been generated from an entry in the Cambridge 
# Structural Database, then it will include bibliographic, chemical, 
# crystal, experimental, refinement or atomic coordinate data resulting 
# from the CCDC's data processing and validation procedures.
#
#######################################################################

data_XEKCUO
_chemical_name_common            daidzein
_chemical_formula_moiety         'C15 H10 O4'
_chemical_name_systematic        
7-hydroxy-3-(4-hydroxyphenyl)-4H-1-benzopyran-4-one
_symmetry_cell_setting           orthorhombic
_symmetry_space_group_name_H-M   'P 21 21 21'
_symmetry_Int_Tables_number      19
_space_group_name_Hall           'P 2ac 2ab'
loop_
_symmetry_equiv_pos_site_id
_symmetry_equiv_pos_as_xyz
1 x,y,z
2 1/2-x,-y,1/2+z
3 -x,1/2+y,1/2-z
4 1/2+x,1/2-y,-z
_cell_length_a                   3.8600(8)
_cell_length_b                   11.430(2)
_cell_length_c                   25.629(5)
_cell_angle_alpha                90
_cell_angle_beta                 90
_cell_angle_gamma                90
_cell_volume                     1130.75
_exptl_crystal_colour            white
_exptl_crystal_description       needle
_cell_formula_units_Z            4
loop_
_atom_site_label
_atom_site_type_symbol
_atom_site_fract_x
_atom_site_fract_y
_atom_site_fract_z
O1 O 0.6602(5) 0.31025(14) 0.44129(6)
O2 O 0.1167(5) 0.28239(14) 0.14773(6)
H1 H 0.0267 0.2178 0.1444
O3 O 0.1684(6) 0.56698(15) 0.35846(6)
O4 O 0.5977(6) 0.51668(16) 0.59876(6)
H2 H 0.5314 0.5789 0.6111
C1 C 0.5599(7) 0.4112(2) 0.46619(9)
C2 C 0.5850(7) 0.2986(2) 0.38966(9)
H3 H 0.6508 0.2291 0.3736
C3 C 0.6266(8) 0.4168(2) 0.51933(9)
H4 H 0.7371 0.3551 0.5361
C4 C 0.4249(6) 0.3783(2) 0.35981(9)
C5 C 0.3944(7) 0.50153(19) 0.43917(8)
C6 C 0.1278(7) 0.2188(2) 0.23800(9)
H5 H 0.0327 0.1468 0.2291
C7 C 0.1954(7) 0.3012(2) 0.19978(9)
C8 C 0.3007(8) 0.6003(2) 0.46828(9)
H6 H 0.1942 0.6628 0.4515
C9 C 0.3189(8) 0.4901(2) 0.38361(9)
C10 C 0.5280(7) 0.5144(2) 0.54690(9)
C11 C 0.3450(7) 0.3512(2) 0.30424(9)
C12 C 0.4135(7) 0.4318(2) 0.26491(9)
H7 H 0.5095 0.5038 0.2736
C13 C 0.2028(7) 0.2443(2) 0.28974(9)
H8 H 0.1568 0.1887 0.3153
C14 C 0.3619(8) 0.6071(2) 0.52092(9)
H9 H 0.2934 0.6731 0.5395
C15 C 0.3419(7) 0.4074(2) 0.21305(9)
H10 H 0.3923 0.4622 0.1873
loop_
_geom_bond_atom_site_label_1
_geom_bond_atom_site_label_2
_geom_bond_site_symmetry_1
_geom_bond_site_symmetry_2
O1 C1 1_555 1_555
O2 H1 1_555 1_555
O3 C9 1_555 1_555
O4 H2 1_555 1_555
C1 C3 1_555 1_555
C2 O1 1_555 1_555
H3 C2 1_555 1_555
C3 H4 1_555 1_555
C4 C2 1_555 1_555
C5 C1 1_555 1_555
C6 H5 1_555 1_555
C7 O2 1_555 1_555
C8 C5 1_555 1_555
H6 C8 1_555 1_555
C9 C4 1_555 1_555
C10 O4 1_555 1_555
C11 C4 1_555 1_555
C12 C11 1_555 1_555
H7 C12 1_555 1_555
C13 C6 1_555 1_555
H8 C13 1_555 1_555
C14 C8 1_555 1_555
H9 C14 1_555 1_555
C15 C7 1_555 1_555
H10 C15 1_555 1_555
C3 C10 1_555 1_555
C5 C9 1_555 1_555
C6 C7 1_555 1_555
C10 C14 1_555 1_555
C11 C13 1_555 1_555
C12 C15 1_555 1_555

#END
