
#######################################################################
#
#                 Cambridge Crystallographic Data Centre
#                                CCDC 
#
#######################################################################
#
# If this CIF has been generated from an entry in the Cambridge 
# Structural Database, then it will include bibliographic, chemical, 
# crystal, experimental, refinement or atomic coordinate data resulting 
# from the CCDC's data processing and validation procedures.
#
#######################################################################

data_XEKDAV
_chemical_formula_moiety         'C29 H32 O3'
_chemical_name_systematic        
'[3-(3,5-di-t-butyl-4-hydroxyphenyl)-2,3-dihydro-1-benzofuran-2-yl](phenyl)methanone unknown solvate'
_symmetry_cell_setting           monoclinic
_symmetry_space_group_name_H-M   'C 2/c'
_symmetry_Int_Tables_number      15
_space_group_name_Hall           '-C 2yn'
loop_
_symmetry_equiv_pos_site_id
_symmetry_equiv_pos_as_xyz
1 x,y,z
2 -x,y,1/2-z
3 1/2+x,1/2+y,z
4 1/2-x,1/2+y,1/2-z
5 -x,-y,-z
6 x,-y,1/2+z
7 1/2-x,1/2-y,-z
8 1/2+x,1/2-y,1/2+z
_cell_length_a                   30.962(5)
_cell_length_b                   10.0760(18)
_cell_length_c                   20.180(4)
_cell_angle_alpha                90
_cell_angle_beta                 121.016(4)
_cell_angle_gamma                90
_cell_volume                     5395.49
_exptl_crystal_colour            colorless
_exptl_crystal_description       block
_cell_formula_units_Z            8
loop_
_atom_site_label
_atom_site_type_symbol
_atom_site_fract_x
_atom_site_fract_y
_atom_site_fract_z
O1 O 0.40464(6) 0.35950(17) 0.41438(9)
O2 O 0.28436(5) 0.72350(16) 0.59029(8)
O3 O 0.38626(6) 0.64454(17) 0.75457(8)
C1 C 0.31998(8) 0.4953(2) 0.47483(11)
H1 H 0.2888 0.5386 0.4545
C2 C 0.36632(8) 0.7233(2) 0.70128(11)
C3 C 0.38372(8) 0.3953(2) 0.45755(11)
C4 C 0.30337(8) 0.4841(2) 0.33703(11)
C5 C 0.34838(8) 0.4697(2) 0.55375(11)
C6 C 0.33664(8) 0.4583(2) 0.42496(10)
C7 C 0.33489(8) 0.6728(2) 0.61757(11)
H2 H 0.3480 0.7114 0.5863
C8 C 0.25386(8) 0.6147(2) 0.57697(11)
C9 C 0.33181(8) 0.5207(2) 0.60840(11)
H3 H 0.3537 0.4803 0.6599
C10 C 0.39340(8) 0.4023(2) 0.58283(11)
H4 H 0.4120 0.3829 0.6360
C11 C 0.41257(8) 0.3614(2) 0.53671(11)
C12 C 0.27750(8) 0.4953(2) 0.58406(11)
C13 C 0.29110(8) 0.3526(2) 0.29182(11)
H5 H 0.3222 0.3082 0.3043
H6 H 0.2716 0.3708 0.2368
H7 H 0.2718 0.2959 0.3059
C14 C 0.32923(9) 0.5848(2) 0.31051(12)
H8 H 0.3341 0.6683 0.3374
H9 H 0.3081 0.5991 0.2552
H10 H 0.3617 0.5501 0.3223
C15 C 0.36975(8) 0.8692(2) 0.71446(12)
C16 C 0.35531(8) 0.9609(2) 0.65464(13)
H11 H 0.3420 0.9305 0.6037
C17 C 0.25215(8) 0.5441(3) 0.31480(12)
H12 H 0.2349 0.4856 0.3319
H13 H 0.2320 0.5545 0.2591
H14 H 0.2572 0.6301 0.3394
C18 C 0.46261(8) 0.2849(3) 0.57134(12)
C19 C 0.25072(10) 0.3782(2) 0.57110(13)
H15 H 0.2661 0.2958 0.5749
C20 C 0.20442(9) 0.6245(3) 0.55912(12)
H16 H 0.1892 0.7071 0.5552
C21 C 0.17842(10) 0.5063(3) 0.54729(13)
H17 H 0.1448 0.5089 0.5355
C22 C 0.38837(9) 0.9171(3) 0.78935(13)
H18 H 0.3983 0.8572 0.8304
C23 C 0.20076(10) 0.3844(3) 0.55244(13)
H19 H 0.1821 0.3058 0.5433
C24 C 0.36036(9) 1.0951(3) 0.66946(15)
H20 H 0.3514 1.1559 0.6291
C25 C 0.37872(10) 1.1400(3) 0.74432(16)
H21 H 0.3819 1.2316 0.7547
C26 C 0.39230(10) 1.0507(3) 0.80342(16)
H22 H 0.4044 1.0818 0.8539
C27 C 0.50251(10) 0.3679(3) 0.56616(16)
H23 H 0.4912 0.3848 0.5123
H24 H 0.5341 0.3196 0.5900
H25 H 0.5073 0.4516 0.5929
C28 C 0.48411(10) 0.2563(3) 0.65699(14)
H26 H 0.4907 0.3394 0.6849
H27 H 0.5153 0.2067 0.6773
H28 H 0.4600 0.2047 0.6633
C29 C 0.45548(10) 0.1523(3) 0.53056(16)
H29 H 0.4308 0.0997 0.5347
H30 H 0.4873 0.1051 0.5545
H31 H 0.4438 0.1678 0.4764
H32 H 0.3980(7) 0.368(2) 0.3698(10)
loop_
_geom_bond_atom_site_label_1
_geom_bond_atom_site_label_2
_geom_bond_site_symmetry_1
_geom_bond_site_symmetry_2
O1 C3 1_555 1_555
O2 C7 1_555 1_555
O3 C2 1_555 1_555
C1 H1 1_555 1_555
C2 C7 1_555 1_555
C3 C6 1_555 1_555
C4 C6 1_555 1_555
C5 C1 1_555 1_555
C6 C1 1_555 1_555
C7 H2 1_555 1_555
C8 O2 1_555 1_555
C9 C5 1_555 1_555
H3 C9 1_555 1_555
C10 C5 1_555 1_555
H4 C10 1_555 1_555
C11 C3 1_555 1_555
C12 C8 1_555 1_555
C13 C4 1_555 1_555
H5 C13 1_555 1_555
H6 C13 1_555 1_555
H7 C13 1_555 1_555
C14 C4 1_555 1_555
H8 C14 1_555 1_555
H9 C14 1_555 1_555
H10 C14 1_555 1_555
C15 C2 1_555 1_555
C16 C15 1_555 1_555
H11 C16 1_555 1_555
C17 C4 1_555 1_555
H12 C17 1_555 1_555
H13 C17 1_555 1_555
H14 C17 1_555 1_555
C18 C11 1_555 1_555
C19 C12 1_555 1_555
H15 C19 1_555 1_555
C20 C8 1_555 1_555
H16 C20 1_555 1_555
C21 C20 1_555 1_555
H17 C21 1_555 1_555
C22 C15 1_555 1_555
H18 C22 1_555 1_555
C23 C19 1_555 1_555
H19 C23 1_555 1_555
C24 C16 1_555 1_555
H20 C24 1_555 1_555
C25 C24 1_555 1_555
H21 C25 1_555 1_555
C26 C22 1_555 1_555
H22 C26 1_555 1_555
C27 C18 1_555 1_555
H23 C27 1_555 1_555
H24 C27 1_555 1_555
H25 C27 1_555 1_555
C28 C18 1_555 1_555
H26 C28 1_555 1_555
H27 C28 1_555 1_555
H28 C28 1_555 1_555
C29 C18 1_555 1_555
H29 C29 1_555 1_555
H30 C29 1_555 1_555
H31 C29 1_555 1_555
H32 O1 1_555 1_555
C7 C9 1_555 1_555
C9 C12 1_555 1_555
C10 C11 1_555 1_555
C21 C23 1_555 1_555
C25 C26 1_555 1_555

#END
