
#######################################################################
#
#                 Cambridge Crystallographic Data Centre
#                                CCDC 
#
#######################################################################
#
# If this CIF has been generated from an entry in the Cambridge 
# Structural Database, then it will include bibliographic, chemical, 
# crystal, experimental, refinement or atomic coordinate data resulting 
# from the CCDC's data processing and validation procedures.
#
#######################################################################

data_XEKDID
_chemical_formula_moiety         'C74 H68 N4'
_chemical_name_systematic        
'10,20-bis(3,5-di-t-butylphenyl)-5,15-bis(9H-fluoren-9-ylidene)-5,15-dihydroporphyrin unknown solvate'
_symmetry_cell_setting           triclinic
_symmetry_space_group_name_H-M   'P -1'
_symmetry_Int_Tables_number      2
_space_group_name_Hall           '-P 1'
loop_
_symmetry_equiv_pos_site_id
_symmetry_equiv_pos_as_xyz
1 x,y,z
2 -x,-y,-z
_cell_length_a                   13.4728(9)
_cell_length_b                   14.4840(9)
_cell_length_c                   20.0127(12)
_cell_angle_alpha                79.550(2)
_cell_angle_beta                 84.720(2)
_cell_angle_gamma                72.949(2)
_cell_volume                     3668.56
_exptl_crystal_colour            black
_exptl_crystal_description       block
_cell_formula_units_Z            2
_exptl_crystal_recrystallization_method hexane/dichloromethane
loop_
_atom_site_label
_atom_site_type_symbol
_atom_site_fract_x
_atom_site_fract_y
_atom_site_fract_z
C1 C 0.41256(10) 0.56134(8) 0.20337(6)
C2 C 0.32415(10) 0.62260(9) 0.23488(6)
H1 H 0.2536 0.6373 0.2236
C3 C 0.36125(10) 0.65569(9) 0.28435(6)
H2 H 0.3210 0.6979 0.3142
C4 C 0.47133(10) 0.61539(8) 0.28304(6)
C5 C 0.54393(10) 0.62215(8) 0.32650(5)
C6 C 0.65123(10) 0.57220(8) 0.32246(6)
C7 C 0.73311(10) 0.56775(8) 0.36307(6)
H3 H 0.7272 0.5989 0.4017
C8 C 0.82355(10) 0.50983(9) 0.33658(6)
H4 H 0.8910 0.4931 0.3538
C9 C 0.79637(10) 0.48038(8) 0.27889(6)
C10 C 0.86081(9) 0.41689(8) 0.23095(6)
C11 C 0.83870(10) 0.32144(8) 0.23709(6)
C12 C 0.90904(11) 0.22590(9) 0.25015(7)
H5 H 0.9816 0.2100 0.2560
C13 C 0.85170(11) 0.16140(9) 0.25258(7)
H6 H 0.8772 0.0920 0.2604
C14 C 0.74668(10) 0.21730(8) 0.24131(6)
C15 C 0.65919(10) 0.18639(8) 0.23395(6)
C16 C 0.56251(10) 0.25176(8) 0.21386(5)
C17 C 0.46493(10) 0.23448(9) 0.20988(6)
H7 H 0.4504 0.1730 0.2212
C18 C 0.39506(10) 0.32297(9) 0.18671(6)
H8 H 0.3235 0.3340 0.1795
C19 C 0.45012(10) 0.39396(8) 0.17583(6)
C20 C 0.41384(9) 0.50047(8) 0.15081(6)
C21 C 0.38356(9) 0.53786(8) 0.08636(6)
C22 C 0.34663(9) 0.64283(9) 0.05568(6)
C23 C 0.34719(10) 0.72811(9) 0.07872(7)
H9 H 0.3718 0.7251 0.1223
C24 C 0.31105(12) 0.81730(9) 0.03674(7)
H10 H 0.3115 0.8757 0.0518
C25 C 0.27418(12) 0.82296(10) -0.02706(7)
H11 H 0.2485 0.8851 -0.0544
C26 C 0.27465(11) 0.73877(10) -0.05104(7)
H12 H 0.2503 0.7423 -0.0947
C27 C 0.31172(10) 0.64899(9) -0.00944(6)
C28 C 0.32842(9) 0.54985(9) -0.02368(6)
C29 C 0.37722(9) 0.48255(9) 0.03172(6)
C30 C 0.41095(10) 0.38340(9) 0.02670(6)
H13 H 0.4480 0.3372 0.0624
C31 C 0.38988(10) 0.35274(9) -0.03109(6)
H14 H 0.4123 0.2851 -0.0344
C32 C 0.33665(10) 0.41930(10) -0.08404(6)
H15 H 0.3212 0.3967 -0.1225
C33 C 0.30601(10) 0.51853(10) -0.08100(6)
H16 H 0.2704 0.5644 -0.1173
C34 C 0.50569(10) 0.68633(8) 0.37944(6)
C35 C 0.45395(11) 0.78461(9) 0.35990(6)
H17 H 0.4430 0.8097 0.3131
C36 C 0.41779(12) 0.84719(9) 0.40780(7)
C37 C 0.43425(13) 0.80751(9) 0.47607(7)
H18 H 0.4083 0.8488 0.5093
C38 C 0.48725(12) 0.70967(9) 0.49754(6)
C39 C 0.52278(10) 0.64943(8) 0.44828(6)
H19 H 0.5590 0.5825 0.4616
C40 C 0.36153(15) 0.95586(10) 0.38568(8)
C41 C 0.3762(4) 0.9892(2) 0.31020(19)
H20 H 0.4506 0.9745 0.2977
H21 H 0.3440 1.0599 0.2993
H22 H 0.3436 0.9550 0.2847
C42 C 0.2467(3) 0.9720(2) 0.40613(16)
H23 H 0.2097 1.0415 0.3941
H24 H 0.2390 0.9515 0.4553
H25 H 0.2176 0.9333 0.3821
C43 C 0.4061(3) 1.01841(19) 0.4228(2)
H26 H 0.4793 1.0102 0.4086
H27 H 0.4003 0.9973 0.4720
H28 H 0.3669 1.0875 0.4114
C44 C 0.50345(14) 0.67094(10) 0.57368(6)
C45 C 0.39920(16) 0.66381(13) 0.60897(8)
H29 H 0.3743 0.6176 0.5896
H30 H 0.3482 0.7284 0.6021
H31 H 0.4085 0.6409 0.6578
C46 C 0.54332(18) 0.74082(12) 0.60588(7)
H32 H 0.5548 0.7148 0.6541
H33 H 0.4918 0.8052 0.6014
H34 H 0.6088 0.7472 0.5827
C47 C 0.58220(14) 0.57019(11) 0.58601(7)
H35 H 0.5930 0.5498 0.6349
H36 H 0.6483 0.5732 0.5621
H37 H 0.5560 0.5228 0.5690
C48 C 0.93067(9) 0.44405(8) 0.18425(6)
C49 C 0.96750(9) 0.53286(9) 0.17662(6)
C50 C 0.93712(11) 0.61506(9) 0.20847(7)
H38 H 0.8824 0.6217 0.2423
C51 C 0.98786(13) 0.68774(11) 0.19020(8)
H39 H 0.9668 0.7443 0.2115
C52 C 1.06858(13) 0.67865(11) 0.14135(8)
H40 H 1.1034 0.7281 0.1304
C53 C 1.09872(11) 0.59773(11) 0.10847(8)
H41 H 1.1537 0.5914 0.0748
C54 C 1.04735(10) 0.52657(9) 0.12563(6)
C55 C 1.05681(10) 0.44016(9) 0.09461(6)
C56 C 0.98590(9) 0.39120(9) 0.12798(6)
C57 C 0.96970(11) 0.31526(10) 0.10078(7)
H42 H 0.9205 0.2825 0.1219
C58 C 1.02640(13) 0.28770(11) 0.04222(8)
H43 H 1.0154 0.2360 0.0234
C59 C 1.09854(13) 0.33472(12) 0.01106(8)
H44 H 1.1374 0.3141 -0.0283
C60 C 1.11456(12) 0.41136(11) 0.03678(8)
H45 H 1.1639 0.4437 0.0154
C61 C 0.67076(10) 0.07941(8) 0.24516(6)
C62 C 0.71523(11) 0.02001(9) 0.30397(6)
H46 H 0.7345 0.0490 0.3378
C63 C 0.73184(11) -0.08088(9) 0.31394(6)
C64 C 0.70047(11) -0.12033(9) 0.26340(7)
H47 H 0.7102 -0.1890 0.2699
C65 C 0.65545(11) -0.06338(9) 0.20391(6)
C66 C 0.64099(10) 0.03744(8) 0.19582(6)
H48 H 0.6103 0.0781 0.1559
C67 C 0.78131(14) -0.14729(9) 0.37827(7)
C68 C 0.8307(2) -0.09340(13) 0.41902(10)
H49 H 0.8832 -0.0687 0.3902
H50 H 0.8635 -0.1386 0.4587
H51 H 0.7768 -0.0385 0.4342
C69 C 0.86717(15) -0.23592(11) 0.35938(9)
H52 H 0.8373 -0.2739 0.3352
H53 H 0.8985 -0.2771 0.4008
H54 H 0.9205 -0.2133 0.3300
C70 C 0.69744(16) -0.18301(11) 0.42319(7)
H55 H 0.6442 -0.1268 0.4373
H56 H 0.7289 -0.2275 0.4635
H57 H 0.6655 -0.2176 0.3975
C71 C 0.62651(11) -0.11043(9) 0.14842(6)
C72 C 0.5701(2) -0.03549(17) 0.08793(13)
H58 H 0.5500 -0.0705 0.0563
H59 H 0.6171 0.0013 0.0642
H60 H 0.5080 0.0099 0.1053
C73 C 0.5525(3) -0.1721(2) 0.17653(11)
H61 H 0.5841 -0.2219 0.2145
H62 H 0.5391 -0.2043 0.1406
H63 H 0.4868 -0.1298 0.1924
C74 C 0.7251(2) -0.1769(3) 0.11879(17)
H64 H 0.7581 -0.2299 0.1546
H65 H 0.7735 -0.1385 0.1007
H66 H 0.7067 -0.2047 0.0822
N1 N 0.49917(8) 0.55686(7) 0.23211(5)
N2 N 0.54847(8) 0.35113(7) 0.19339(5)
H67 H 0.5967 0.3814 0.1921
N3 N 0.74251(8) 0.31606(7) 0.23298(5)
N4 N 0.69420(8) 0.51653(7) 0.27164(5)
H68 H 0.6594 0.5067 0.2397
C75? C 0.4349(8) 1.0047(4) 0.3400(4)
H69? H 0.3976 1.0728 0.3231
H70? H 0.4604 0.9697 0.3015
H71? H 0.4938 1.0028 0.3660
C76? C 0.2664(7) 0.9616(4) 0.3461(4)
H72? H 0.2168 0.9352 0.3768
H73? H 0.2889 0.9232 0.3090
H74? H 0.2331 1.0300 0.3272
C77? C 0.3238(5) 1.0117(3) 0.4443(2)
H75? H 0.2738 0.9835 0.4733
H76? H 0.2901 1.0805 0.4266
H77? H 0.3829 1.0073 0.4710
C78? C 0.5234(6) -0.0492(5) 0.1261(4)
H78? H 0.4994 -0.0791 0.0929
H79? H 0.5278 0.0161 0.1052
H80? H 0.4742 -0.0439 0.1655
C79? C 0.6233(6) -0.2145(4) 0.1775(2)
H81? H 0.5817 -0.2143 0.2203
H82? H 0.6942 -0.2565 0.1859
H83? H 0.5920 -0.2397 0.1450
C80? C 0.7117(6) -0.1145(6) 0.0932(3)
H84? H 0.6957 -0.1432 0.0562
H85? H 0.7781 -0.1549 0.1121
H86? H 0.7164 -0.0482 0.0756
loop_
_geom_bond_atom_site_label_1
_geom_bond_atom_site_label_2
_geom_bond_site_symmetry_1
_geom_bond_site_symmetry_2
C1 C2 1_555 1_555
C2 H1 1_555 1_555
C3 C2 1_555 1_555
H2 C3 1_555 1_555
C4 C3 1_555 1_555
C5 C4 1_555 1_555
C6 C5 1_555 1_555
C7 C6 1_555 1_555
H3 C7 1_555 1_555
C8 C7 1_555 1_555
H4 C8 1_555 1_555
C9 C8 1_555 1_555
C10 C9 1_555 1_555
C11 C10 1_555 1_555
C12 C11 1_555 1_555
H5 C12 1_555 1_555
C13 C12 1_555 1_555
H6 C13 1_555 1_555
C14 C13 1_555 1_555
C15 C14 1_555 1_555
C16 C15 1_555 1_555
C17 C16 1_555 1_555
H7 C17 1_555 1_555
C18 C17 1_555 1_555
H8 C18 1_555 1_555
C19 C18 1_555 1_555
C20 C1 1_555 1_555
C21 C20 1_555 1_555
C22 C21 1_555 1_555
C23 C22 1_555 1_555
H9 C23 1_555 1_555
C24 C23 1_555 1_555
H10 C24 1_555 1_555
C25 C24 1_555 1_555
H11 C25 1_555 1_555
C26 C25 1_555 1_555
H12 C26 1_555 1_555
C27 C22 1_555 1_555
C28 C27 1_555 1_555
C29 C21 1_555 1_555
C30 C29 1_555 1_555
H13 C30 1_555 1_555
C31 C30 1_555 1_555
H14 C31 1_555 1_555
C32 C31 1_555 1_555
H15 C32 1_555 1_555
C33 C28 1_555 1_555
H16 C33 1_555 1_555
C34 C5 1_555 1_555
C35 C34 1_555 1_555
H17 C35 1_555 1_555
C36 C35 1_555 1_555
C37 C36 1_555 1_555
H18 C37 1_555 1_555
C38 C37 1_555 1_555
C39 C34 1_555 1_555
H19 C39 1_555 1_555
C40 C36 1_555 1_555
C41 C40 1_555 1_555
H20 C41 1_555 1_555
H21 C41 1_555 1_555
H22 C41 1_555 1_555
C42 C40 1_555 1_555
H23 C42 1_555 1_555
H24 C42 1_555 1_555
H25 C42 1_555 1_555
C43 C40 1_555 1_555
H26 C43 1_555 1_555
H27 C43 1_555 1_555
H28 C43 1_555 1_555
C44 C38 1_555 1_555
C45 C44 1_555 1_555
H29 C45 1_555 1_555
H30 C45 1_555 1_555
H31 C45 1_555 1_555
C46 C44 1_555 1_555
H32 C46 1_555 1_555
H33 C46 1_555 1_555
H34 C46 1_555 1_555
C47 C44 1_555 1_555
H35 C47 1_555 1_555
H36 C47 1_555 1_555
H37 C47 1_555 1_555
C48 C10 1_555 1_555
C49 C48 1_555 1_555
C50 C49 1_555 1_555
H38 C50 1_555 1_555
C51 C50 1_555 1_555
H39 C51 1_555 1_555
C52 C51 1_555 1_555
H40 C52 1_555 1_555
C53 C52 1_555 1_555
H41 C53 1_555 1_555
C54 C49 1_555 1_555
C55 C54 1_555 1_555
C56 C48 1_555 1_555
C57 C56 1_555 1_555
H42 C57 1_555 1_555
C58 C57 1_555 1_555
H43 C58 1_555 1_555
C59 C58 1_555 1_555
H44 C59 1_555 1_555
C60 C55 1_555 1_555
H45 C60 1_555 1_555
C61 C15 1_555 1_555
C62 C61 1_555 1_555
H46 C62 1_555 1_555
C63 C62 1_555 1_555
C64 C63 1_555 1_555
H47 C64 1_555 1_555
C65 C64 1_555 1_555
C66 C61 1_555 1_555
H48 C66 1_555 1_555
C67 C63 1_555 1_555
C68 C67 1_555 1_555
H49 C68 1_555 1_555
H50 C68 1_555 1_555
H51 C68 1_555 1_555
C69 C67 1_555 1_555
H52 C69 1_555 1_555
H53 C69 1_555 1_555
H54 C69 1_555 1_555
C70 C67 1_555 1_555
H55 C70 1_555 1_555
H56 C70 1_555 1_555
H57 C70 1_555 1_555
C71 C65 1_555 1_555
C72 C71 1_555 1_555
H58 C72 1_555 1_555
H59 C72 1_555 1_555
H60 C72 1_555 1_555
C73 C71 1_555 1_555
H61 C73 1_555 1_555
H62 C73 1_555 1_555
H63 C73 1_555 1_555
C74 C71 1_555 1_555
H64 C74 1_555 1_555
H65 C74 1_555 1_555
H66 C74 1_555 1_555
N1 C1 1_555 1_555
N2 C16 1_555 1_555
H67 N2 1_555 1_555
N3 C11 1_555 1_555
N4 C6 1_555 1_555
H68 N4 1_555 1_555
C4 N1 1_555 1_555
C9 N4 1_555 1_555
C14 N3 1_555 1_555
C19 C20 1_555 1_555
C19 N2 1_555 1_555
C26 C27 1_555 1_555
C28 C29 1_555 1_555
C32 C33 1_555 1_555
C38 C39 1_555 1_555
C53 C54 1_555 1_555
C55 C56 1_555 1_555
C59 C60 1_555 1_555
C65 C66 1_555 1_555

#END
