
#######################################################################
#
#                 Cambridge Crystallographic Data Centre
#                                CCDC 
#
#######################################################################
#
# If this CIF has been generated from an entry in the Cambridge 
# Structural Database, then it will include bibliographic, chemical, 
# crystal, experimental, refinement or atomic coordinate data resulting 
# from the CCDC's data processing and validation procedures.
#
#######################################################################

data_XEKQOW
_chemical_formula_moiety         'C16 H17 N1 O2 S1'
_chemical_name_systematic        10-ethyl-3,7-dimethoxy-10H-phenothiazine
_symmetry_cell_setting           monoclinic
_symmetry_space_group_name_H-M   'P 21'
_symmetry_Int_Tables_number      4
_space_group_name_Hall           'P 2yb'
loop_
_symmetry_equiv_pos_site_id
_symmetry_equiv_pos_as_xyz
1 x,y,z
2 -x,1/2+y,-z
_cell_length_a                   8.4668(3)
_cell_length_b                   7.9589(3)
_cell_length_c                   10.4031(4)
_cell_angle_alpha                90
_cell_angle_beta                 92.847(2)
_cell_angle_gamma                90
_cell_volume                     700.162
_exptl_crystal_colour            colorless
_exptl_crystal_description       plate
_cell_formula_units_Z            2
loop_
_atom_site_label
_atom_site_type_symbol
_atom_site_fract_x
_atom_site_fract_y
_atom_site_fract_z
S1 S 0.08802(7) 0.65824(9) 0.58248(6)
N1 N 0.2801(3) 0.3672(3) 0.5101(2)
O1 O 0.1090(2) 0.7887(3) 0.09481(19)
O2 O 0.4991(2) 0.7108(3) 0.95299(19)
C1 C 0.2403(3) 0.4749(4) 0.4049(3)
C2 C 0.2903(3) 0.4468(4) 0.2801(3)
H1 H 0.3572 0.3539 0.2644
C3 C 0.2435(3) 0.5528(4) 0.1794(3)
H2 H 0.2757 0.5301 0.0950
C4 C 0.1497(3) 0.6916(4) 0.2015(3)
C5 C 0.1045(3) 0.7271(4) 0.3254(3)
H3 H 0.0437 0.8243 0.3418
C6 C 0.1499(3) 0.6175(4) 0.4248(3)
C7 C 0.2625(3) 0.5901(4) 0.6677(3)
C8 C 0.3181(3) 0.6763(4) 0.7767(3)
H4 H 0.2645 0.7736 0.8045
C9 C 0.4535(3) 0.6191(3) 0.8451(3)
C10 C 0.5342(3) 0.4795(4) 0.8029(3)
H5 H 0.6263 0.4407 0.8496
C11 C 0.4789(3) 0.3967(4) 0.6914(3)
H6 H 0.5361 0.3031 0.6613
C12 C 0.3419(3) 0.4483(4) 0.6235(3)
C13 C 0.3406(3) 0.1993(4) 0.4813(3)
H7 H 0.4565 0.2060 0.4736
H8 H 0.2932 0.1618 0.3972
C14 C 0.3053(3) 0.0699(4) 0.5824(3)
H9 H 0.3342 -0.0420 0.5520
H10 H 0.1922 0.0723 0.5983
H11 H 0.3666 0.0957 0.6623
C15 C 0.6382(3) 0.6550(5) 1.0242(3)
H12 H 0.6563 0.7258 1.1006
H13 H 0.7293 0.6630 0.9700
H14 H 0.6242 0.5380 1.0507
C16 C 0.0107(4) 0.9305(4) 0.1145(3)
H15 H -0.0107 0.9887 0.0324
H16 H 0.0643 1.0073 0.1760
H17 H -0.0893 0.8932 0.1487
loop_
_geom_bond_atom_site_label_1
_geom_bond_atom_site_label_2
_geom_bond_site_symmetry_1
_geom_bond_site_symmetry_2
S1 C6 1_555 1_555
N1 C1 1_555 1_555
O1 C4 1_555 1_555
O2 C9 1_555 1_555
C1 C2 1_555 1_555
C2 H1 1_555 1_555
C3 C2 1_555 1_555
H2 C3 1_555 1_555
C4 C3 1_555 1_555
C5 C4 1_555 1_555
H3 C5 1_555 1_555
C6 C1 1_555 1_555
C7 S1 1_555 1_555
C8 C7 1_555 1_555
H4 C8 1_555 1_555
C9 C8 1_555 1_555
C10 C9 1_555 1_555
H5 C10 1_555 1_555
C11 C10 1_555 1_555
H6 C11 1_555 1_555
C12 N1 1_555 1_555
C13 N1 1_555 1_555
H7 C13 1_555 1_555
H8 C13 1_555 1_555
C14 C13 1_555 1_555
H9 C14 1_555 1_555
H10 C14 1_555 1_555
H11 C14 1_555 1_555
C15 O2 1_555 1_555
H12 C15 1_555 1_555
H13 C15 1_555 1_555
H14 C15 1_555 1_555
C16 O1 1_555 1_555
H15 C16 1_555 1_555
H16 C16 1_555 1_555
H17 C16 1_555 1_555
C5 C6 1_555 1_555
C7 C12 1_555 1_555
C11 C12 1_555 1_555

#END
