
#######################################################################
#
#                 Cambridge Crystallographic Data Centre
#                                CCDC 
#
#######################################################################
#
# If this CIF has been generated from an entry in the Cambridge 
# Structural Database, then it will include bibliographic, chemical, 
# crystal, experimental, refinement or atomic coordinate data resulting 
# from the CCDC's data processing and validation procedures.
#
#######################################################################

data_XEKRAJ
_chemical_formula_moiety         'C14 H20 N3 O2 S1 1+,Br1 1-'
_chemical_name_systematic        
'2-hydroxy-N,N-dimethyl-N-(2-((5-phenyl-1,3,4-oxadiazol-2-yl)sulfanyl)ethyl)ethylammonium bromide'
_chemical_properties_biological  'antibacterial activity and non-toxicity'
_symmetry_cell_setting           triclinic
_symmetry_space_group_name_H-M   'P -1'
_symmetry_Int_Tables_number      2
_space_group_name_Hall           '-P 1'
loop_
_symmetry_equiv_pos_site_id
_symmetry_equiv_pos_as_xyz
1 x,y,z
2 -x,-y,-z
_cell_length_a                   8.5342(7)
_cell_length_b                   10.1884(9)
_cell_length_c                   10.4462(9)
_cell_angle_alpha                97.2390(10)
_cell_angle_beta                 96.6410(10)
_cell_angle_gamma                110.821(2)
_cell_volume                     829.51
_exptl_crystal_colour            colorless
_exptl_crystal_description       block
_cell_formula_units_Z            2
loop_
_atom_site_label
_atom_site_type_symbol
_atom_site_fract_x
_atom_site_fract_y
_atom_site_fract_z
Br1 Br 0.30064(13) 0.56379(11) 0.72084(8)
S1 S 0.2181(3) 0.2812(2) 0.4448(2)
N1 N 0.2976(9) 0.0704(7) 0.3288(7)
N2 N 0.2978(8) 0.0065(7) 0.1997(7)
N3 N 0.2715(10) 0.6501(7) 0.3045(7)
O1 O 0.2171(6) 0.1886(5) 0.1906(5)
O2 O 0.2174(17) 0.5016(15) 0.0022(14)
H1 H 0.2406 0.5199 -0.0691
C1 C 0.2467(10) 0.1758(8) 0.3176(8)
C2 C 0.2547(9) 0.0815(8) 0.1229(8)
C3 C 0.2306(9) 0.0600(8) -0.0217(8)
C4 C 0.1767(9) 0.1488(8) -0.0887(8)
H2 H 0.1551 0.2240 -0.0444
C5 C 0.1559(11) 0.1228(10) -0.2225(9)
H3 H 0.1182 0.1808 -0.2695
C6 C 0.1890(12) 0.0140(11) -0.2892(9)
H4 H 0.1743 -0.0008 -0.3802
C7 C 0.2429(11) -0.0716(10) -0.2234(9)
H5 H 0.2647 -0.1458 -0.2692
C8 C 0.2661(10) -0.0500(9) -0.0879(9)
H6 H 0.3048 -0.1083 -0.0421
C9 C 0.152(2) 0.4048(17) 0.3639(16)
H7 H 0.0912 0.3590 0.2759
H8 H 0.0774 0.4360 0.4122
C10 C 0.313(3) 0.532(2) 0.3587(19)
H9 H 0.3789 0.5702 0.4463
H10 H 0.3817 0.5008 0.3042
C11 C 0.201(3) 0.717(2) 0.408(2)
H11 H 0.2467 0.7053 0.4925
H12 H 0.0795 0.6709 0.3925
H13 H 0.2327 0.8164 0.4053
C12 C 0.450(2) 0.7623(17) 0.3229(18)
H14 H 0.5197 0.7236 0.2775
H15 H 0.4973 0.7902 0.4146
H16 H 0.4454 0.8440 0.2883
C13 C 0.171(4) 0.642(4) 0.178(2)
H17 H 0.1528 0.7299 0.1701
H18 H 0.0638 0.5613 0.1574
C14 C 0.304(4) 0.622(3) 0.099(3)
H19 H 0.3556 0.7054 0.0600
H20 H 0.3936 0.6080 0.1554
O3? O 0.323(4) 0.646(3) -0.003(3)
H21? H 0.3115 0.6042 -0.0780
C15? C 0.312(3) 0.454(3) 0.396(2)
H22? H 0.3588 0.5270 0.4740
H23? H 0.4051 0.4534 0.3510
C16? C 0.187(4) 0.493(3) 0.306(2)
H24? H 0.1620 0.4382 0.2186
H25? H 0.0809 0.4742 0.3398
C17? C 0.400(3) 0.669(3) 0.220(2)
H26? H 0.5015 0.6684 0.2722
H27? H 0.4289 0.7642 0.1995
C18? C 0.367(5) 0.566(4) 0.089(3)
H28? H 0.4682 0.5477 0.0737
H29? H 0.2742 0.4760 0.0861
C19? C 0.114(6) 0.647(5) 0.220(4)
H30? H 0.1338 0.7395 0.1983
H31? H 0.0205 0.6210 0.2672
H32? H 0.0876 0.5779 0.1413
C20? C 0.305(5) 0.753(4) 0.425(4)
H33? H 0.4002 0.7528 0.4835
H34? H 0.2064 0.7282 0.4669
H35? H 0.3301 0.8472 0.4046
loop_
_geom_bond_atom_site_label_1
_geom_bond_atom_site_label_2
_geom_bond_site_symmetry_1
_geom_bond_site_symmetry_2
S1 C1 1_555 1_555
N1 N2 1_555 1_555
N2 C2 1_555 1_555
N3 C10 1_555 1_555
O1 C1 1_555 1_555
O2 H1 1_555 1_555
C1 N1 1_555 1_555
C2 O1 1_555 1_555
C3 C2 1_555 1_555
C4 C3 1_555 1_555
H2 C4 1_555 1_555
C5 C4 1_555 1_555
H3 C5 1_555 1_555
C6 C5 1_555 1_555
H4 C6 1_555 1_555
C7 C6 1_555 1_555
H5 C7 1_555 1_555
C8 C3 1_555 1_555
H6 C8 1_555 1_555
C9 S1 1_555 1_555
H7 C9 1_555 1_555
H8 C9 1_555 1_555
C10 C9 1_555 1_555
H9 C10 1_555 1_555
H10 C10 1_555 1_555
C11 N3 1_555 1_555
H11 C11 1_555 1_555
H12 C11 1_555 1_555
H13 C11 1_555 1_555
C12 N3 1_555 1_555
H14 C12 1_555 1_555
H15 C12 1_555 1_555
H16 C12 1_555 1_555
C13 N3 1_555 1_555
H17 C13 1_555 1_555
H18 C13 1_555 1_555
C14 O2 1_555 1_555
H19 C14 1_555 1_555
H20 C14 1_555 1_555
C7 C8 1_555 1_555
C13 C14 1_555 1_555

#END
