
#######################################################################
#
#                 Cambridge Crystallographic Data Centre
#                                CCDC 
#
#######################################################################
#
# If this CIF has been generated from an entry in the Cambridge 
# Structural Database, then it will include bibliographic, chemical, 
# crystal, experimental, refinement or atomic coordinate data resulting 
# from the CCDC's data processing and validation procedures.
#
#######################################################################

data_XEKVEQ
_chemical_formula_moiety         'C19 H16 S2'
_chemical_name_systematic        
3,3'-Cyclopent-1-ene-1,2-diylbis(5-ethynyl-2-methylthiophene)
_symmetry_cell_setting           monoclinic
_symmetry_space_group_name_H-M   'P 21/c'
_symmetry_Int_Tables_number      14
_space_group_name_Hall           '-P 2ybc'
loop_
_symmetry_equiv_pos_site_id
_symmetry_equiv_pos_as_xyz
1 x,y,z
2 -x,1/2+y,1/2-z
3 -x,-y,-z
4 x,1/2-y,1/2+z
_cell_length_a                   10.7458(11)
_cell_length_b                   7.6990(8)
_cell_length_c                   20.227(2)
_cell_angle_alpha                90
_cell_angle_beta                 102.002(2)
_cell_angle_gamma                90
_cell_volume                     1636.84
_exptl_crystal_colour            purple
_exptl_crystal_description       block
_cell_formula_units_Z            4
loop_
_atom_site_label
_atom_site_type_symbol
_atom_site_fract_x
_atom_site_fract_y
_atom_site_fract_z
S1 S 0.67523(6) 0.78128(8) 1.06288(3)
S2 S 1.02157(5) 0.48994(8) 0.90662(3)
C1 C 0.5696(3) 0.9550(4) 0.75259(13)
H1 H 0.5779 1.0548 0.7246
H2 H 0.4896 0.8974 0.7341
C2 C 0.67967(19) 0.8312(3) 0.75467(10)
H3 H 0.7489 0.8878 0.7391
H4 H 0.6532 0.7299 0.7268
C3 C 0.71938(17) 0.7812(3) 0.82861(9)
C4 C 0.65771(17) 0.8776(2) 0.86690(10)
C5 C 0.5736(2) 1.0114(3) 0.82463(12)
H5 H 0.4890 1.0111 0.8345
H6 H 0.6096 1.1268 0.8328
C6 C 0.66538(17) 0.8724(3) 0.94005(10)
C7 C 0.67780(18) 1.0270(3) 0.97940(11)
H7 H 0.6806 1.1370 0.9608
C8 C 0.68528(19) 1.0001(3) 1.04654(11)
C9 C 0.66131(18) 0.7276(3) 0.97883(10)
C10 C 0.6456(2) 0.5412(3) 0.95805(13)
H8 H 0.5840 0.5322 0.9164
H9 H 0.6170 0.4759 0.9925
H10 H 0.7256 0.4959 0.9519
C11 C 0.7070(2) 1.1261(3) 1.09908(12)
C12 C 0.7303(3) 1.2322(4) 1.14161(15)
H11 H 0.7487 1.3162 1.1753
C13 C 0.81894(17) 0.6504(2) 0.84970(9)
C14 C 0.81829(18) 0.4875(3) 0.81606(10)
H12 H 0.7538 0.4540 0.7801
C15 C 0.92049(19) 0.3855(3) 0.84125(10)
C16 C 0.92560(18) 0.6700(3) 0.90021(10)
C17 C 0.9661(2) 0.8223(3) 0.94549(11)
H13 H 0.9282 0.9262 0.9240
H14 H 1.0571 0.8327 0.9542
H15 H 0.9391 0.8058 0.9874
C18 C 0.9520(2) 0.2189(3) 0.81902(12)
C19 C 0.9809(3) 0.0830(4) 0.80076(14)
H16 H 1.0039 -0.0247 0.7863
loop_
_geom_bond_atom_site_label_1
_geom_bond_atom_site_label_2
_geom_bond_site_symmetry_1
_geom_bond_site_symmetry_2
S1 C8 1_555 1_555
S2 C15 1_555 1_555
C1 H1 1_555 1_555
H2 C1 1_555 1_555
C2 C1 1_555 1_555
H3 C2 1_555 1_555
H4 C2 1_555 1_555
C3 C2 1_555 1_555
C4 C3 1_555 1_555
C5 C1 1_555 1_555
H5 C5 1_555 1_555
H6 C5 1_555 1_555
C6 C4 1_555 1_555
C7 C6 1_555 1_555
H7 C7 1_555 1_555
C8 C7 1_555 1_555
C9 S1 1_555 1_555
C10 C9 1_555 1_555
H8 C10 1_555 1_555
H9 C10 1_555 1_555
H10 C10 1_555 1_555
C11 C8 1_555 1_555
C12 C11 1_555 1_555
H11 C12 1_555 1_555
C13 C3 1_555 1_555
C14 C13 1_555 1_555
H12 C14 1_555 1_555
C15 C14 1_555 1_555
C16 S2 1_555 1_555
C17 C16 1_555 1_555
H13 C17 1_555 1_555
H14 C17 1_555 1_555
H15 C17 1_555 1_555
C18 C15 1_555 1_555
C19 C18 1_555 1_555
H16 C19 1_555 1_555
C4 C5 1_555 1_555
C6 C9 1_555 1_555
C13 C16 1_555 1_555

#END
