
#######################################################################
#
#                 Cambridge Crystallographic Data Centre
#                                CCDC 
#
#######################################################################
#
# If this CIF has been generated from an entry in the Cambridge 
# Structural Database, then it will include bibliographic, chemical, 
# crystal, experimental, refinement or atomic coordinate data resulting 
# from the CCDC's data processing and validation procedures.
#
#######################################################################

data_XEKWER
_chemical_formula_moiety         'C10 H7 F3 N2 O2 S1'
_chemical_name_systematic        
'Ethyl 3-amino-4,5,7-trifluorothieno[2,3-c]pyridine-2-carboxylate'
_symmetry_cell_setting           monoclinic
_symmetry_space_group_name_H-M   'C 2/c'
_symmetry_Int_Tables_number      15
_space_group_name_Hall           '-C 2yn'
loop_
_symmetry_equiv_pos_site_id
_symmetry_equiv_pos_as_xyz
1 x,y,z
2 -x,y,1/2-z
3 1/2+x,1/2+y,z
4 1/2-x,1/2+y,1/2-z
5 -x,-y,-z
6 x,-y,1/2+z
7 1/2-x,1/2-y,-z
8 1/2+x,1/2-y,1/2+z
_cell_length_a                   20.319(1)
_cell_length_b                   4.8461(2)
_cell_length_c                   21.909(1)
_cell_angle_alpha                90
_cell_angle_beta                 91.134(2)
_cell_angle_gamma                90
_cell_volume                     2156.91
_exptl_crystal_colour            colorless
_exptl_crystal_description       plate
_chemical_melting_point          '377.1-378.6 K'
_cell_formula_units_Z            8
loop_
_atom_site_label
_atom_site_type_symbol
_atom_site_fract_x
_atom_site_fract_y
_atom_site_fract_z
S1 S 0.23444(2) 0.91745(9) 0.32140(2)
F1 F 0.14316(6) 1.3797(2) 0.26801(5)
F2 F 0.06299(6) 0.9650(3) 0.48121(6)
F3 F -0.00220(6) 1.3750(3) 0.42050(6)
O1 O 0.33699(6) 0.5249(3) 0.35330(6)
O2 O 0.29367(7) 0.3496(3) 0.43911(6)
N1 N 0.07141(8) 1.3718(3) 0.34441(8)
N2 N 0.17523(9) 0.5943(4) 0.47656(8)
C1 C 0.12469(9) 1.2712(4) 0.32098(8)
C2 C 0.16283(8) 1.0633(4) 0.34745(8)
C3 C 0.14227(8) 0.9522(4) 0.40267(8)
C4 C 0.08503(9) 1.0593(4) 0.42780(9)
C5 C 0.05255(9) 1.2660(4) 0.39703(9)
C6 C 0.18600(8) 0.7390(4) 0.42516(8)
C7 C 0.23754(8) 0.7036(4) 0.38551(8)
C8 C 0.29090(9) 0.5089(4) 0.39591(8)
C9 C 0.39223(9) 0.3344(4) 0.35988(9)
C10 C 0.43687(10) 0.3842(5) 0.30740(10)
H1 H 0.2020(13) 0.471(5) 0.4907(12)
H2 H 0.1486(15) 0.639(6) 0.5013(12)
H3 H 0.3747(12) 0.150(5) 0.3605(10)
H4 H 0.4131(13) 0.365(5) 0.3997(11)
H5 H 0.4151(13) 0.346(5) 0.2673(11)
H6 H 0.4513(13) 0.562(6) 0.3060(11)
H7 H 0.4731(15) 0.271(6) 0.3112(11)
loop_
_geom_bond_atom_site_label_1
_geom_bond_atom_site_label_2
_geom_bond_site_symmetry_1
_geom_bond_site_symmetry_2
S1 C2 1_555 1_555
F1 C1 1_555 1_555
F2 C4 1_555 1_555
F3 C5 1_555 1_555
O1 C8 1_555 1_555
O2 C8 1_555 1_555
N1 C1 1_555 1_555
N2 C6 1_555 1_555
C1 C2 1_555 1_555
C2 C3 1_555 1_555
C3 C4 1_555 1_555
C4 C5 1_555 1_555
C5 N1 1_555 1_555
C6 C3 1_555 1_555
C7 S1 1_555 1_555
C8 C7 1_555 1_555
C9 O1 1_555 1_555
C10 C9 1_555 1_555
H1 N2 1_555 1_555
H2 N2 1_555 1_555
H3 C9 1_555 1_555
H4 C9 1_555 1_555
H5 C10 1_555 1_555
H6 C10 1_555 1_555
H7 C10 1_555 1_555
C6 C7 1_555 1_555

#END
