
#######################################################################
#
#                 Cambridge Crystallographic Data Centre
#                                CCDC 
#
#######################################################################
#
# If this CIF has been generated from an entry in the Cambridge 
# Structural Database, then it will include bibliographic, chemical, 
# crystal, experimental, refinement or atomic coordinate data resulting 
# from the CCDC's data processing and validation procedures.
#
#######################################################################

data_XEKYAO
_chemical_compound_source        
'root of Actinidia chinensis Planch. (Actinidiaceae), Chinese gooseberry'
_chemical_formula_moiety         'C14 H14 O6,C1 H4 O1'
_chemical_name_systematic        'planchol A methanol solvate'
_chemical_properties_biological  
'cytotoxic activity against cell lines P-388 and A-549'
_symmetry_cell_setting           monoclinic
_symmetry_space_group_name_H-M   'C 2/c'
_symmetry_Int_Tables_number      15
_space_group_name_Hall           '-C 2yn'
loop_
_symmetry_equiv_pos_site_id
_symmetry_equiv_pos_as_xyz
1 x,y,z
2 1/2+x,1/2+y,z
3 -x,y,1/2-z
4 1/2-x,1/2+y,1/2-z
5 -x,-y,-z
6 1/2-x,1/2-y,-z
7 x,-y,1/2+z
8 1/2+x,1/2-y,1/2+z
_cell_length_a                   28.753(3)
_cell_length_b                   5.9213(6)
_cell_length_c                   20.698(2)
_cell_angle_alpha                90
_cell_angle_beta                 125.204(2)
_cell_angle_gamma                90
_cell_volume                     2879.43
_exptl_crystal_colour            white
_chemical_melting_point          '220-221 deg.C'
_cell_formula_units_Z            8
loop_
_atom_site_label
_atom_site_type_symbol
_atom_site_fract_x
_atom_site_fract_y
_atom_site_fract_z
O1 O 0.20622(5) 0.5810(2) 0.77386(7)
O2 O 0.14843(5) 0.7641(2) 0.66125(7)
O3 O 0.13775(5) 0.89953(19) 0.54873(7)
O4 O 0.12329(5) 0.5510(2) 0.44226(6)
O5 O 0.07265(7) 0.6538(3) 0.18160(7)
O6 O 0.19872(5) 1.1692(2) 0.38457(8)
C1 C 0.18090(7) 0.5864(3) 0.70352(11)
C2 C 0.17957(11) 0.4126(4) 0.65029(12)
C3 C 0.13952(8) 0.5030(3) 0.56691(10)
C4 C 0.11849(8) 0.7324(3) 0.57577(9)
C5 C 0.16710(8) 0.5678(3) 0.52535(10)
C6 C 0.18545(8) 0.8078(3) 0.55119(10)
C7 C 0.19645(10) 0.9458(4) 0.50020(11)
C8 C 0.16343(7) 0.8655(3) 0.41591(10)
C9 C 0.12982(7) 0.6744(3) 0.39093(10)
C10 C 0.09863(8) 0.5984(3) 0.31356(10)
C11 C 0.10142(7) 0.7194(3) 0.25892(10)
C12 C 0.13468(8) 0.9103(3) 0.28119(11)
C13 C 0.16511(7) 0.9809(3) 0.35860(10)
C14 C 0.05653(10) 0.7643(5) 0.53924(14)
H1 H 0.1695(8) 0.272(4) 0.6601(11)
H2 H 0.2184(9) 0.394(3) 0.6670(11)
H3 H 0.1089(7) 0.400(3) 0.5348(9)
H4 H 0.1976(6) 0.475(2) 0.5374(8)
H5 H 0.2186(6) 0.810(2) 0.6055(8)
H6 H 0.1864(7) 1.091(3) 0.5001(10)
H7 H 0.2363(8) 0.946(3) 0.5236(10)
H8 H 0.0764(7) 0.469(3) 0.2993(9)
H9 H 0.1352(7) 0.992(3) 0.2428(10)
H10 H 0.0358(8) 0.743(3) 0.4834(12)
H11 H 0.0507(9) 0.917(4) 0.5504(12)
H12 H 0.0431(9) 0.662(3) 0.5596(12)
H16 H 0.0490(9) 0.553(4) 0.1733(12)
H17 H 0.1966(8) 1.233(3) 0.3495(11)
O7 O 0.01328(7) 0.3568(3) 0.36567(10)
C15 C 0.02033(13) 0.1249(5) 0.35792(17)
H13 H 0.0405(9) 0.083(4) 0.4044(12)
H14 H -0.0195(9) 0.092(4) 0.3287(12)
H15 H 0.0212(9) 0.106(4) 0.3142(12)
H18 H 0.0482(13) 0.425(5) 0.3880(16)
loop_
_geom_bond_atom_site_label_1
_geom_bond_atom_site_label_2
_geom_bond_site_symmetry_1
_geom_bond_site_symmetry_2
O1 C1 1_555 1_555
O2 C1 1_555 1_555
O3 C4 1_555 1_555
O4 C5 1_555 1_555
O5 C11 1_555 1_555
O6 C13 1_555 1_555
O7 C15 1_555 1_555
C1 C2 1_555 1_555
C2 C3 1_555 1_555
C3 C4 1_555 1_555
C4 O2 1_555 1_555
C5 C3 1_555 1_555
C6 O3 1_555 1_555
C7 C6 1_555 1_555
C8 C7 1_555 1_555
C9 O4 1_555 1_555
C10 C9 1_555 1_555
C11 C10 1_555 1_555
C12 C11 1_555 1_555
C13 C8 1_555 1_555
C14 C4 1_555 1_555
C15 H13 1_555 1_555
H1 C2 1_555 1_555
H2 C2 1_555 1_555
H3 C3 1_555 1_555
H4 C5 1_555 1_555
H5 C6 1_555 1_555
H6 C7 1_555 1_555
H7 C7 1_555 1_555
H8 C10 1_555 1_555
H9 C12 1_555 1_555
H10 C14 1_555 1_555
H11 C14 1_555 1_555
H12 C14 1_555 1_555
H14 C15 1_555 1_555
H15 C15 1_555 1_555
H16 O5 1_555 1_555
H17 O6 1_555 1_555
H18 O7 1_555 1_555
C5 C6 1_555 1_555
C8 C9 1_555 1_555
C12 C13 1_555 1_555

#END
