
#######################################################################
#
#                 Cambridge Crystallographic Data Centre
#                                CCDC 
#
#######################################################################
#
# If this CIF has been generated from an entry in the Cambridge 
# Structural Database, then it will include bibliographic, chemical, 
# crystal, experimental, refinement or atomic coordinate data resulting 
# from the CCDC's data processing and validation procedures.
#
#######################################################################

data_XEKZUI
_chemical_formula_moiety         'C17 H16 N2 O5 S1'
_chemical_name_systematic        
(S)-3-Aminocarbonyl-3-benzyl-2-methoxycarbonyl-1,2-benzisothiazoline-1,1-dioxide
_symmetry_cell_setting           orthorhombic
_symmetry_space_group_name_H-M   'P 21 21 21'
_symmetry_Int_Tables_number      19
_space_group_name_Hall           'P 2ac 2ab'
loop_
_symmetry_equiv_pos_site_id
_symmetry_equiv_pos_as_xyz
1 x,y,z
2 1/2-x,-y,1/2+z
3 -x,1/2+y,1/2-z
4 1/2+x,1/2-y,-z
_cell_length_a                   8.4425(6)
_cell_length_b                   13.1635(10)
_cell_length_c                   15.2298(11)
_cell_angle_alpha                90
_cell_angle_beta                 90
_cell_angle_gamma                90
_cell_volume                     1692.53
_cell_formula_units_Z            4
loop_
_atom_site_label
_atom_site_type_symbol
_atom_site_fract_x
_atom_site_fract_y
_atom_site_fract_z
S1 S 0.22010(8) 0.04882(6) 0.25851(4)
O1 O 0.3434(3) -0.0182(2) 0.28351(15)
O2 O 0.2107(3) 0.14465(18) 0.30135(15)
O3 O 0.3343(3) 0.13048(17) 0.02545(13)
O4 O 0.4500(3) 0.14277(18) 0.15895(13)
O5 O -0.1009(3) 0.10234(18) -0.00463(15)
N1 N 0.2168(3) 0.06597(16) 0.14819(13)
N2 N -0.0082(4) 0.2094(2) 0.0975(2)
H1 H -0.054(4) 0.257(3) 0.073(2)
H2 H 0.054(5) 0.219(3) 0.144(2)
C1 C 0.0738(3) 0.03022(19) 0.10136(16)
C2 C -0.0311(3) -0.0113(2) 0.17475(17)
C3 C -0.1835(4) -0.0481(3) 0.1645(2)
H3 H -0.230(4) -0.047(2) 0.111(2)
C4 C -0.2651(4) -0.0830(2) 0.2371(3)
H4 H -0.373(5) -0.111(3) 0.230(2)
C5 C -0.1953(4) -0.0820(2) 0.3196(2)
H5 H -0.248(4) -0.106(3) 0.365(2)
C6 C -0.0438(4) -0.0465(2) 0.3309(2)
H6 H 0.017(4) -0.037(2) 0.385(2)
C7 C 0.0345(3) -0.00963(19) 0.25760(18)
C8 C 0.3375(3) 0.1154(2) 0.10328(18)
C9 C 0.5804(5) 0.2018(4) 0.1232(3)
H7 H 0.653(5) 0.203(3) 0.168(3)
H8 H 0.537(6) 0.270(4) 0.095(4)
H9 H 0.616(7) 0.160(4) 0.066(4)
C10 C -0.0174(3) 0.1190(2) 0.05862(18)
C11 C 0.1117(4) -0.0526(2) 0.03259(18)
H10 H 0.011(3) -0.077(2) 0.0074(18)
H11 H 0.178(4) -0.021(2) -0.016(2)
C12 C 0.2076(4) -0.1391(2) 0.06874(18)
C13 C 0.1363(5) -0.2182(2) 0.1151(2)
H12 H 0.028(4) -0.215(3) 0.118(2)
C14 C 0.2261(5) -0.2969(3) 0.1491(3)
H13 H 0.179(5) -0.351(3) 0.185(3)
C15 C 0.3873(5) -0.2994(3) 0.1365(3)
H14 H 0.448(5) -0.352(3) 0.159(2)
C16 C 0.4594(5) -0.2230(3) 0.0910(3)
H15 H 0.583(5) -0.221(3) 0.079(3)
C17 C 0.3708(4) -0.1435(3) 0.0570(2)
H16 H 0.429(4) -0.091(3) 0.027(2)
loop_
_geom_bond_atom_site_label_1
_geom_bond_atom_site_label_2
_geom_bond_site_symmetry_1
_geom_bond_site_symmetry_2
S1 O1 1_555 1_555
O2 S1 1_555 1_555
O3 C8 1_555 1_555
O4 C8 1_555 1_555
O5 C10 1_555 1_555
N1 S1 1_555 1_555
N2 H1 1_555 1_555
H2 N2 1_555 1_555
C1 N1 1_555 1_555
C2 C1 1_555 1_555
C3 C2 1_555 1_555
H3 C3 1_555 1_555
C4 C3 1_555 1_555
H4 C4 1_555 1_555
C5 C4 1_555 1_555
H5 C5 1_555 1_555
C6 C5 1_555 1_555
H6 C6 1_555 1_555
C7 S1 1_555 1_555
C8 N1 1_555 1_555
C9 O4 1_555 1_555
H7 C9 1_555 1_555
H8 C9 1_555 1_555
H9 C9 1_555 1_555
C10 N2 1_555 1_555
C11 C1 1_555 1_555
H10 C11 1_555 1_555
H11 C11 1_555 1_555
C12 C11 1_555 1_555
C13 C12 1_555 1_555
H12 C13 1_555 1_555
C14 C13 1_555 1_555
H13 C14 1_555 1_555
C15 C14 1_555 1_555
H14 C15 1_555 1_555
C16 C15 1_555 1_555
H15 C16 1_555 1_555
C17 C12 1_555 1_555
H16 C17 1_555 1_555
C1 C10 1_555 1_555
C2 C7 1_555 1_555
C6 C7 1_555 1_555
C16 C17 1_555 1_555

#END
