
#######################################################################
#
#                 Cambridge Crystallographic Data Centre
#                                CCDC 
#
#######################################################################
#
# If this CIF has been generated from an entry in the Cambridge 
# Structural Database, then it will include bibliographic, chemical, 
# crystal, experimental, refinement or atomic coordinate data resulting 
# from the CCDC's data processing and validation procedures.
#
#######################################################################

data_XELCEY
_chemical_formula_moiety         'C17 H15 B1 Cl2 F2 N2 O1'
_chemical_name_systematic        
(3-Chloro-5-((4-chloro-3,5-dimethyl-2H-pyrrol-2-ylidene)(3-furyl)methyl)-2,4-dimethyl-1H-pyrrolato)(difluoro)boron
_symmetry_cell_setting           triclinic
_symmetry_space_group_name_H-M   'P -1'
_symmetry_Int_Tables_number      2
_space_group_name_Hall           '-P 1'
loop_
_symmetry_equiv_pos_site_id
_symmetry_equiv_pos_as_xyz
1 x,y,z
2 -x,-y,-z
_cell_length_a                   9.048(2)
_cell_length_b                   9.856(2)
_cell_length_c                   10.458(3)
_cell_angle_alpha                83.401(10)
_cell_angle_beta                 77.202(9)
_cell_angle_gamma                71.437(9)
_cell_volume                     861.135
_exptl_crystal_colour            'dark red'
_exptl_crystal_description       plate
_cell_formula_units_Z            2
loop_
_atom_site_label
_atom_site_type_symbol
_atom_site_fract_x
_atom_site_fract_y
_atom_site_fract_z
B1 B -0.1955(3) 0.4714(3) 0.3863(2)
F1 F -0.27775(18) 0.57526(15) 0.47571(14)
F2 F -0.30195(17) 0.42910(16) 0.33571(15)
N1 N -0.0855(2) 0.34107(18) 0.45246(17)
N2 N -0.0849(2) 0.52956(17) 0.27356(17)
O1 O 0.5324(2) 0.1021(2) 0.1108(2)
Cl1 Cl -0.00288(10) 0.03358(8) 0.71896(7)
Cl2 Cl -0.00181(8) 0.79572(7) -0.01582(7)
C1 C -0.1320(3) 0.2704(2) 0.5647(2)
C2 C 0.0006(3) 0.1534(2) 0.5860(2)
C3 C 0.1305(3) 0.1513(2) 0.4856(2)
C4 C 0.0737(2) 0.2724(2) 0.4007(2)
C5 C 0.1528(2) 0.3277(2) 0.2865(2)
C6 C 0.0744(2) 0.4570(2) 0.2242(2)
C7 C 0.1305(3) 0.5380(2) 0.1126(2)
C8 C 0.0009(3) 0.6574(2) 0.1014(2)
C9 C -0.1301(3) 0.6505(2) 0.1998(2)
C10 C 0.3727(3) 0.1481(3) 0.1420(3)
H1 H 0.3064 0.1137 0.1069
C11 C 0.3204(3) 0.2511(2) 0.2311(2)
C12 C 0.4608(3) 0.2691(3) 0.2579(3)
H2 H 0.4650 0.3318 0.3161
C13 C 0.5843(3) 0.1797(3) 0.1846(3)
H3 H 0.6903 0.1705 0.1829
C14 C 0.2912(3) 0.0447(3) 0.4753(3)
H4 H 0.2919 -0.0225 0.5495
H5 H 0.3684 0.0932 0.4738
H6 H 0.3172 -0.0055 0.3960
C15 C -0.2944(3) 0.3116(3) 0.6465(3)
H7 H -0.3118 0.3976 0.6900
H8 H -0.3054 0.2359 0.7108
H9 H -0.3712 0.3281 0.5916
C16 C 0.2896(3) 0.5112(3) 0.0257(2)
H10 H 0.2803 0.5678 -0.0548
H11 H 0.3320 0.4115 0.0071
H12 H 0.3595 0.5371 0.0687
C17 C -0.2924(3) 0.7552(3) 0.2223(3)
H13 H -0.3701 0.7047 0.2449
H14 H -0.3082 0.8141 0.1437
H15 H -0.3035 0.8146 0.2926
loop_
_geom_bond_atom_site_label_1
_geom_bond_atom_site_label_2
_geom_bond_site_symmetry_1
_geom_bond_site_symmetry_2
B1 F1 1_555 1_555
F2 B1 1_555 1_555
N1 B1 1_555 1_555
N2 B1 1_555 1_555
O1 C10 1_555 1_555
Cl1 C2 1_555 1_555
Cl2 C8 1_555 1_555
C1 N1 1_555 1_555
C2 C1 1_555 1_555
C3 C2 1_555 1_555
C4 N1 1_555 1_555
C5 C4 1_555 1_555
C6 N2 1_555 1_555
C7 C6 1_555 1_555
C8 C7 1_555 1_555
C9 N2 1_555 1_555
C10 H1 1_555 1_555
C11 C5 1_555 1_555
C12 C11 1_555 1_555
H2 C12 1_555 1_555
C13 O1 1_555 1_555
H3 C13 1_555 1_555
C14 C3 1_555 1_555
H4 C14 1_555 1_555
H5 C14 1_555 1_555
H6 C14 1_555 1_555
C15 C1 1_555 1_555
H7 C15 1_555 1_555
H8 C15 1_555 1_555
H9 C15 1_555 1_555
C16 C7 1_555 1_555
H10 C16 1_555 1_555
H11 C16 1_555 1_555
H12 C16 1_555 1_555
C17 C9 1_555 1_555
H13 C17 1_555 1_555
H14 C17 1_555 1_555
H15 C17 1_555 1_555
C3 C4 1_555 1_555
C5 C6 1_555 1_555
C8 C9 1_555 1_555
C10 C11 1_555 1_555
C12 C13 1_555 1_555

#END
