
#######################################################################
#
#                 Cambridge Crystallographic Data Centre
#                                CCDC 
#
#######################################################################
#
# If this CIF has been generated from an entry in the Cambridge 
# Structural Database, then it will include bibliographic, chemical, 
# crystal, experimental, refinement or atomic coordinate data resulting 
# from the CCDC's data processing and validation procedures.
#
#######################################################################

data_XELPOW
_chemical_formula_moiety         'C31 H19 N1 O3 S1'
_chemical_name_systematic        
1-(9-phenyl-9H-carbazol-3-yl)-10-thioxanthene-9,10,10-trione
_symmetry_cell_setting           monoclinic
_symmetry_space_group_name_H-M   'P 21/c'
_symmetry_Int_Tables_number      14
_space_group_name_Hall           '-P 2ybc'
loop_
_symmetry_equiv_pos_site_id
_symmetry_equiv_pos_as_xyz
1 x,y,z
2 -x,1/2+y,1/2-z
3 -x,-y,-z
4 x,1/2-y,1/2+z
_cell_length_a                   8.7548(19)
_cell_length_b                   18.820(4)
_cell_length_c                   14.236(3)
_cell_angle_alpha                90
_cell_angle_beta                 104.606(3)
_cell_angle_gamma                90
_cell_volume                     2269.8
_exptl_crystal_colour            'dark yellow'
_exptl_crystal_description       block
_cell_formula_units_Z            4
loop_
_atom_site_label
_atom_site_type_symbol
_atom_site_fract_x
_atom_site_fract_y
_atom_site_fract_z
S1 S 0.32305(6) 0.46128(2) 0.10199(3)
O1 O 0.26116(19) 0.53070(8) 0.07248(10)
O2 O 0.35272(19) 0.41478(9) 0.02857(9)
O3 O 0.32978(16) 0.48749(7) 0.39884(8)
N1 N 0.26413(16) 0.31223(7) 0.70444(9)
C1 C 0.4988(2) 0.47058(9) 0.19396(12)
C2 C 0.6393(2) 0.47893(10) 0.16659(15)
H1 H 0.6414 0.4748 0.1018
C3 C 0.7762(3) 0.49350(10) 0.23739(16)
H2 H 0.8712 0.4991 0.2202
C4 C 0.7723(2) 0.49978(10) 0.33328(16)
H3 H 0.8649 0.5098 0.3801
C5 C 0.6324(2) 0.49142(9) 0.36090(13)
H4 H 0.6314 0.4960 0.4258
C6 C 0.4934(2) 0.47611(9) 0.29126(12)
C7 C 0.3465(2) 0.46203(9) 0.32361(11)
C8 C 0.2224(2) 0.41527(9) 0.26197(11)
C9 C 0.1249(2) 0.37185(9) 0.30349(11)
C10 C -0.0019(2) 0.33726(10) 0.24183(13)
H5 H -0.0685 0.3097 0.2685
C11 C -0.0317(2) 0.34267(11) 0.14180(13)
H6 H -0.1197 0.3204 0.1025
C12 C 0.0690(2) 0.38095(11) 0.10017(12)
H7 H 0.0522 0.3830 0.0331
C13 C 0.1954(2) 0.41619(9) 0.16039(11)
C14 C 0.16400(19) 0.35641(8) 0.40950(11)
C15 C 0.31718(19) 0.33386(9) 0.45545(11)
H8 H 0.3914 0.3306 0.4190
C16 C 0.36206(19) 0.31628(9) 0.55273(11)
H9 H 0.4643 0.3014 0.5820
C17 C 0.24785(18) 0.32174(8) 0.60533(11)
C18 C 0.09297(18) 0.34366(8) 0.56139(11)
C19 C 0.05075(19) 0.36045(8) 0.46233(11)
H10 H -0.0520 0.3742 0.4322
C20 C 0.01094(18) 0.34803(8) 0.63785(11)
C21 C -0.1430(2) 0.36681(9) 0.63939(12)
H11 H -0.2172 0.3788 0.5824
C22 C -0.1824(2) 0.36709(10) 0.72774(13)
H12 H -0.2842 0.3794 0.7300
C23 C -0.0715(2) 0.34919(10) 0.81318(13)
H13 H -0.1012 0.3502 0.8715
C24 C 0.0808(2) 0.32998(9) 0.81412(12)
H14 H 0.1539 0.3179 0.8715
C25 C 0.12056(18) 0.32945(8) 0.72484(11)
C26 C 0.40360(18) 0.28916(8) 0.77215(11)
C27 C 0.48313(19) 0.22903(9) 0.75237(11)
H15 H 0.4453 0.2040 0.6949
C28 C 0.6191(2) 0.20687(9) 0.81915(13)
H16 H 0.6739 0.1674 0.8057
C29 C 0.6740(2) 0.24342(10) 0.90621(13)
H17 H 0.7640 0.2279 0.9515
C30 C 0.5941(2) 0.30281(10) 0.92483(12)
H18 H 0.6307 0.3272 0.9830
C31 C 0.4603(2) 0.32650(9) 0.85816(11)
H19 H 0.4086 0.3672 0.8708
loop_
_geom_bond_atom_site_label_1
_geom_bond_atom_site_label_2
_geom_bond_site_symmetry_1
_geom_bond_site_symmetry_2
S1 O1 1_555 1_555
O2 S1 1_555 1_555
O3 C7 1_555 1_555
N1 C17 1_555 1_555
C1 S1 1_555 1_555
C2 C1 1_555 1_555
H1 C2 1_555 1_555
C3 C2 1_555 1_555
H2 C3 1_555 1_555
C4 C3 1_555 1_555
H3 C4 1_555 1_555
C5 C4 1_555 1_555
H4 C5 1_555 1_555
C6 C1 1_555 1_555
C7 C6 1_555 1_555
C8 C7 1_555 1_555
C9 C8 1_555 1_555
C10 C9 1_555 1_555
H5 C10 1_555 1_555
C11 C10 1_555 1_555
H6 C11 1_555 1_555
C12 C11 1_555 1_555
H7 C12 1_555 1_555
C13 S1 1_555 1_555
C14 C9 1_555 1_555
C15 C14 1_555 1_555
H8 C15 1_555 1_555
C16 C15 1_555 1_555
H9 C16 1_555 1_555
C17 C16 1_555 1_555
C18 C17 1_555 1_555
C19 C14 1_555 1_555
H10 C19 1_555 1_555
C20 C18 1_555 1_555
C21 C20 1_555 1_555
H11 C21 1_555 1_555
C22 C21 1_555 1_555
H12 C22 1_555 1_555
C23 C22 1_555 1_555
H13 C23 1_555 1_555
C24 C23 1_555 1_555
H14 C24 1_555 1_555
C25 N1 1_555 1_555
C26 N1 1_555 1_555
C27 C26 1_555 1_555
H15 C27 1_555 1_555
C28 C27 1_555 1_555
H16 C28 1_555 1_555
C29 C28 1_555 1_555
H17 C29 1_555 1_555
C30 C29 1_555 1_555
H18 C30 1_555 1_555
C31 C26 1_555 1_555
H19 C31 1_555 1_555
C5 C6 1_555 1_555
C8 C13 1_555 1_555
C12 C13 1_555 1_555
C18 C19 1_555 1_555
C20 C25 1_555 1_555
C24 C25 1_555 1_555
C30 C31 1_555 1_555

#END
