
#######################################################################
#
#                 Cambridge Crystallographic Data Centre
#                                CCDC 
#
#######################################################################
#
# If this CIF has been generated from an entry in the Cambridge 
# Structural Database, then it will include bibliographic, chemical, 
# crystal, experimental, refinement or atomic coordinate data resulting 
# from the CCDC's data processing and validation procedures.
#
#######################################################################

data_XELQIR
_chemical_formula_moiety         'C13 H17 N3 O1 S1 Si1'
_chemical_name_systematic        
2-(4-methoxyphenyl)-6,6-dimethyl-6,7-dihydro-5H-[1,2,4]triazolo[5,1-b][1,3,5]thiazasiline
_symmetry_cell_setting           orthorhombic
_symmetry_space_group_name_H-M   'P n a 21'
_symmetry_Int_Tables_number      33
_space_group_name_Hall           'P 2c -2n'
loop_
_symmetry_equiv_pos_site_id
_symmetry_equiv_pos_as_xyz
1 x,y,z
2 -x,-y,1/2+z
3 1/2-x,1/2+y,1/2+z
4 1/2+x,1/2-y,z
_cell_length_a                   12.7224(10)
_cell_length_b                   6.4725(5)
_cell_length_c                   17.7028(14)
_cell_angle_alpha                90
_cell_angle_beta                 90
_cell_angle_gamma                90
_cell_volume                     1457.75
_cell_formula_units_Z            4
loop_
_atom_site_label
_atom_site_type_symbol
_atom_site_fract_x
_atom_site_fract_y
_atom_site_fract_z
S1 S 0.48485(4) 0.32865(8) 0.28985(4)
Si1 Si 0.70275(4) 0.51439(7) 0.28868(4)
O1 O 0.49786(16) -0.7748(3) 0.60935(10)
C1 C 0.77974(17) 0.7575(3) 0.29369(16)
H1 H 0.7720(13) 0.8339(15) 0.2462(5)
H2 H 0.7538(11) 0.8423(14) 0.3356(7)
H3 H 0.8541(3) 0.7249(4) 0.3019(12)
C2 C 0.72218(17) 0.3657(3) 0.37902(12)
H4 H 0.77984(17) 0.3877(3) 0.41215(12)
N1 N 0.63992(12) 0.2130(3) 0.39318(9)
N2 N 0.65580(14) 0.0606(3) 0.44653(10)
C3 C 0.56685(16) -0.0462(3) 0.44300(12)
C4 C 0.54652(17) -0.2327(3) 0.48775(11)
C5 C 0.62093(18) -0.3114(4) 0.53831(12)
H5 H 0.68549(18) -0.2404(4) 0.54557(12)
C6 C 0.6016(2) -0.4898(4) 0.57741(14)
H6 H 0.6528(2) -0.5409(4) 0.61174(14)
C7 C 0.5076(2) -0.5975(4) 0.56748(13)
C8 C 0.4044(3) -0.8905(4) 0.60085(18)
H7 H 0.3949(11) -0.927(4) 0.5475(3)
H8 H 0.4091(9) -1.017(2) 0.6310(12)
H9 H 0.3444(4) -0.8081(16) 0.6181(14)
C9 C 0.7381(2) 0.3584(4) 0.20453(14)
H10 H 0.8147(2) 0.346(3) 0.2011(6)
H11 H 0.7071(13) 0.2203(11) 0.2090(5)
H12 H 0.7111(13) 0.4260(16) 0.15895(17)
C10 C 0.55839(14) 0.5677(3) 0.28588(14)
H13 H 0.54080(14) 0.6427(3) 0.23881(14)
H14 H 0.53872(14) 0.6564(3) 0.32920(14)
C11 C 0.54384(16) 0.1885(3) 0.36237(12)
N3 N 0.49477(14) 0.0277(3) 0.39231(11)
C12 C 0.4323(2) -0.5218(4) 0.51845(13)
H15 H 0.3676(2) -0.5929(4) 0.51202(13)
C13 C 0.45206(18) -0.3408(3) 0.47862(13)
H16 H 0.40052(18) -0.2896(3) 0.44461(13)
loop_
_geom_bond_atom_site_label_1
_geom_bond_atom_site_label_2
_geom_bond_site_symmetry_1
_geom_bond_site_symmetry_2
S1 C10 1_555 1_555
Si1 C1 1_555 1_555
O1 C7 1_555 1_555
C1 H1 1_555 1_555
H2 C1 1_555 1_555
H3 C1 1_555 1_555
C2 Si1 1_555 1_555
H4 C2 1_555 1_555
N1 C2 1_555 1_555
N2 N1 1_555 1_555
C3 N2 1_555 1_555
C4 C3 1_555 1_555
C5 C4 1_555 1_555
H5 C5 1_555 1_555
C6 C5 1_555 1_555
H6 C6 1_555 1_555
C7 C6 1_555 1_555
C8 O1 1_555 1_555
H7 C8 1_555 1_555
H8 C8 1_555 1_555
H9 C8 1_555 1_555
C9 Si1 1_555 1_555
H10 C9 1_555 1_555
H11 C9 1_555 1_555
H12 C9 1_555 1_555
C10 Si1 1_555 1_555
H13 C10 1_555 1_555
H14 C10 1_555 1_555
C11 S1 1_555 1_555
N3 C3 1_555 1_555
C12 C7 1_555 1_555
H15 C12 1_555 1_555
C13 C4 1_555 1_555
H16 C13 1_555 1_555
N1 C11 1_555 1_555
C11 N3 1_555 1_555
C12 C13 1_555 1_555

#END
