
#######################################################################
#
#                 Cambridge Crystallographic Data Centre
#                                CCDC 
#
#######################################################################
#
# If this CIF has been generated from an entry in the Cambridge 
# Structural Database, then it will include bibliographic, chemical, 
# crystal, experimental, refinement or atomic coordinate data resulting 
# from the CCDC's data processing and validation procedures.
#
#######################################################################

data_XELTIS
_chemical_name_common            
'(S,S,S)-1,12-bis(diphenylphosphoryl)-6,7-dimethyl-6,7-dihydrodibenzo[e,g][1,4]dioxocin ethyl acetate solvate monohydrate'
_chemical_formula_moiety         'C40 H34 O4 P2,C4 H8 O2,H2 O1'
_chemical_name_systematic        
"(S)-6,6'-(2(S),3(S)-butandioxy)-2,2'-bis(diphenylphosphoryl)-1,1'-biphenyl ethyl acetate solvate monohydrate"
_symmetry_cell_setting           monoclinic
_symmetry_space_group_name_H-M   'P 21'
_symmetry_Int_Tables_number      4
_space_group_name_Hall           'P 2yb'
loop_
_symmetry_equiv_pos_site_id
_symmetry_equiv_pos_as_xyz
1 x,y,z
2 -x,1/2+y,-z
_cell_length_a                   11.334(2)
_cell_length_b                   15.006(3)
_cell_length_c                   11.748(2)
_cell_angle_alpha                90
_cell_angle_beta                 98.140(5)
_cell_angle_gamma                90
_cell_volume                     1977.95
_exptl_crystal_colour            colorless
_exptl_crystal_description       prism
_cell_formula_units_Z            2
loop_
_atom_site_label
_atom_site_type_symbol
_atom_site_fract_x
_atom_site_fract_y
_atom_site_fract_z
P1 P 0.72083(5) 0.42020(4) 0.24612(6)
P2 P 0.43625(6) 0.26871(4) 0.30170(5)
O1 O 0.28131(16) 0.53434(17) 0.15022(18)
O2 O 0.45237(16) 0.50568(14) -0.02914(16)
O3 O 0.70400(17) 0.32579(13) 0.27719(18)
O4 O 0.50146(17) 0.18426(12) 0.32805(17)
C1 C 0.5974(2) 0.49365(16) 0.2649(2)
C2 C 0.6141(3) 0.56856(19) 0.3359(3)
H1 H 0.6878 0.5778 0.3800
C3 C 0.5256(3) 0.6279(2) 0.3420(3)
H2 H 0.5385 0.6766 0.3910
C4 C 0.4175(3) 0.6165(2) 0.2768(3)
H3 H 0.3577 0.6585 0.2803
C5 C 0.3954(2) 0.54390(18) 0.2057(2)
C6 C 0.4836(2) 0.47864(16) 0.2014(2)
C7 C 0.2511(2) 0.5145(2) 0.0291(3)
H4 H 0.2452 0.4498 0.0188
C8 C 0.3383(3) 0.5512(2) -0.0450(3)
H5 H 0.3522 0.6142 -0.0254
C9 C 0.45205(19) 0.4181(2) 0.0044(2)
C10 C 0.4478(2) 0.3511(2) -0.0744(2)
H6 H 0.4439 0.3640 -0.1523
C11 C 0.4493(2) 0.2625(2) -0.0364(2)
H7 H 0.4503 0.2164 -0.0891
C12 C 0.4494(2) 0.24351(18) 0.0772(2)
H8 H 0.4458 0.1845 0.1007
C13 C 0.4550(2) 0.31242(18) 0.1590(2)
C14 C 0.46176(18) 0.39990(16) 0.1243(2)
C15 C 0.1257(3) 0.5559(3) 0.0003(4)
H9 H 0.0744 0.5320 0.0511
H10 H 0.0937 0.5421 -0.0778
H11 H 0.1310 0.6194 0.0097
C16 C 0.2905(4) 0.5451(4) -0.1709(3)
H12 H 0.3539 0.5558 -0.2154
H13 H 0.2291 0.5888 -0.1898
H14 H 0.2582 0.4866 -0.1878
C17 C 0.8521(2) 0.46383(17) 0.3327(2)
C18 C 0.9359(2) 0.5166(2) 0.2892(3)
H15 H 0.9219 0.5345 0.2127
C19 C 1.0398(3) 0.5434(3) 0.3569(3)
H16 H 1.0956 0.5785 0.3268
C20 C 1.0583(3) 0.5162(3) 0.4712(3)
H17 H 1.1266 0.5347 0.5185
C21 C 0.9771(3) 0.4622(3) 0.5161(3)
H18 H 0.9913 0.4438 0.5924
C22 C 0.8749(3) 0.4359(2) 0.4459(2)
H19 H 0.8205 0.3990 0.4752
C23 C 0.7421(2) 0.4330(2) 0.0972(2)
C24 C 0.7377(3) 0.5152(3) 0.0431(3)
H20 H 0.7180 0.5657 0.0822
C25 C 0.7618(3) 0.5229(4) -0.0666(3)
H21 H 0.7609 0.5786 -0.1016
C26 C 0.7874(3) 0.4483(4) -0.1252(3)
H22 H 0.8032 0.4535 -0.2004
C27 C 0.7901(3) 0.3662(3) -0.0747(3)
H23 H 0.8070 0.3159 -0.1157
C28 C 0.7674(3) 0.3578(3) 0.0387(3)
H24 H 0.7694 0.3022 0.0739
C29 C 0.4654(2) 0.34825(17) 0.4183(2)
C30 C 0.5630(3) 0.3316(2) 0.5003(2)
H25 H 0.6140 0.2844 0.4910
C31 C 0.5843(3) 0.3865(2) 0.5975(3)
H26 H 0.6483 0.3740 0.6540
C32 C 0.5125(3) 0.4588(2) 0.6114(3)
H27 H 0.5295 0.4962 0.6747
C33 C 0.4147(3) 0.4746(2) 0.5291(2)
H28 H 0.3650 0.5229 0.5370
C34 C 0.3907(3) 0.41827(19) 0.4348(2)
H29 H 0.3230 0.4280 0.3817
C35 C 0.2772(2) 0.24947(15) 0.2860(2)
C36 C 0.2384(3) 0.1700(2) 0.3290(3)
H30 H 0.2937 0.1282 0.3615
C37 C 0.1165(3) 0.1526(3) 0.3236(5)
H31 H 0.0903 0.0985 0.3493
C38 C 0.0355(4) 0.2172(3) 0.2794(4)
H32 H -0.0453 0.2067 0.2795
C39 C 0.0706(3) 0.2967(3) 0.2351(3)
H33 H 0.0149 0.3385 0.2033
C40 C 0.1927(2) 0.3118(2) 0.2401(3)
H34 H 0.2185 0.3652 0.2118
O5 O 0.9586(5) 0.8489(4) 0.2243(4)
O6 O 0.8423(5) 0.7436(4) 0.2391(4)
C41 C 0.8975(6) 0.7574(5) 0.0633(6)
H35 H 0.9771 0.7582 0.0442
H36 H 0.8492 0.7992 0.0154
H37 H 0.8646 0.6987 0.0510
C42 C 0.9001(6) 0.7823(5) 0.1845(6)
C43 C 0.8737(6) 0.7445(6) 0.3702(5)
H38 H 0.8654 0.6867 0.4050
H39 H 0.9518 0.7695 0.3963
C44 C 0.7745(5) 0.8065(5) 0.3837(6)
H40 H 0.7969 0.8661 0.3662
H41 H 0.7577 0.8040 0.4615
H42 H 0.7048 0.7894 0.3322
O7 O 0.7521(2) 0.17449(19) 0.4091(3)
H43 H 0.7703 0.2287 0.3995
H44 H 0.6754 0.1711 0.4049
loop_
_geom_bond_atom_site_label_1
_geom_bond_atom_site_label_2
_geom_bond_site_symmetry_1
_geom_bond_site_symmetry_2
P1 O3 1_555 1_555
P2 O4 1_555 1_555
O1 C5 1_555 1_555
O2 C8 1_555 1_555
C1 P1 1_555 1_555
C2 C1 1_555 1_555
H1 C2 1_555 1_555
C3 C2 1_555 1_555
H2 C3 1_555 1_555
C4 C3 1_555 1_555
H3 C4 1_555 1_555
C5 C4 1_555 1_555
C6 C1 1_555 1_555
C7 O1 1_555 1_555
H4 C7 1_555 1_555
C8 C7 1_555 1_555
H5 C8 1_555 1_555
C9 O2 1_555 1_555
C10 C9 1_555 1_555
H6 C10 1_555 1_555
C11 C10 1_555 1_555
H7 C11 1_555 1_555
C12 C11 1_555 1_555
H8 C12 1_555 1_555
C13 P2 1_555 1_555
C14 C6 1_555 1_555
C15 C7 1_555 1_555
H9 C15 1_555 1_555
H10 C15 1_555 1_555
H11 C15 1_555 1_555
C16 C8 1_555 1_555
H12 C16 1_555 1_555
H13 C16 1_555 1_555
H14 C16 1_555 1_555
C17 P1 1_555 1_555
C18 C17 1_555 1_555
H15 C18 1_555 1_555
C19 C18 1_555 1_555
H16 C19 1_555 1_555
C20 C19 1_555 1_555
H17 C20 1_555 1_555
C21 C20 1_555 1_555
H18 C21 1_555 1_555
C22 C17 1_555 1_555
H19 C22 1_555 1_555
C23 P1 1_555 1_555
C24 C23 1_555 1_555
H20 C24 1_555 1_555
C25 C24 1_555 1_555
H21 C25 1_555 1_555
C26 C25 1_555 1_555
H22 C26 1_555 1_555
C27 C26 1_555 1_555
H23 C27 1_555 1_555
C28 C23 1_555 1_555
H24 C28 1_555 1_555
C29 P2 1_555 1_555
C30 C29 1_555 1_555
H25 C30 1_555 1_555
C31 C30 1_555 1_555
H26 C31 1_555 1_555
C32 C31 1_555 1_555
H27 C32 1_555 1_555
C33 C32 1_555 1_555
H28 C33 1_555 1_555
C34 C29 1_555 1_555
H29 C34 1_555 1_555
C35 P2 1_555 1_555
C36 C35 1_555 1_555
H30 C36 1_555 1_555
C37 C36 1_555 1_555
H31 C37 1_555 1_555
C38 C37 1_555 1_555
H32 C38 1_555 1_555
C39 C38 1_555 1_555
H33 C39 1_555 1_555
C40 C35 1_555 1_555
H34 C40 1_555 1_555
O5 C42 1_555 1_555
O6 C42 1_555 1_555
C41 H35 1_555 1_555
H36 C41 1_555 1_555
H37 C41 1_555 1_555
C42 C41 1_555 1_555
C43 O6 1_555 1_555
H38 C43 1_555 1_555
H39 C43 1_555 1_555
C44 C43 1_555 1_555
H40 C44 1_555 1_555
H41 C44 1_555 1_555
H42 C44 1_555 1_555
O7 H43 1_555 1_555
H44 O7 1_555 1_555
C5 C6 1_555 1_555
C9 C14 1_555 1_555
C12 C13 1_555 1_555
C13 C14 1_555 1_555
C21 C22 1_555 1_555
C27 C28 1_555 1_555
C33 C34 1_555 1_555
C39 C40 1_555 1_555

#END
