
#######################################################################
#
#                 Cambridge Crystallographic Data Centre
#                                CCDC 
#
#######################################################################
#
# If this CIF has been generated from an entry in the Cambridge 
# Structural Database, then it will include bibliographic, chemical, 
# crystal, experimental, refinement or atomic coordinate data resulting 
# from the CCDC's data processing and validation procedures.
#
#######################################################################

data_XEMBEW
_chemical_formula_moiety         'C49 H57 K1 N1 O6 1+,Cl1 O4 1-'
_chemical_name_systematic        
'(\h^4^,\h^3^-N-Benzyl-25,27-dipropoxy-26,28-azacrown-5-calix(4)arene)-potassium perchlorate'
_symmetry_cell_setting           monoclinic
_symmetry_space_group_name_H-M   'P 21/c'
_symmetry_Int_Tables_number      14
_space_group_name_Hall           '-P 2ybc'
loop_
_symmetry_equiv_pos_site_id
_symmetry_equiv_pos_as_xyz
1 x,y,z
2 -x,1/2+y,1/2-z
3 -x,-y,-z
4 x,1/2-y,1/2+z
_cell_length_a                   16.4923(15)
_cell_length_b                   13.9235(11)
_cell_length_c                   19.913(5)
_cell_angle_alpha                90
_cell_angle_beta                 92.856(14)
_cell_angle_gamma                90
_cell_volume                     4566.95
_exptl_crystal_colour            colorless
_exptl_crystal_description       block
_cell_formula_units_Z            4
loop_
_atom_site_label
_atom_site_type_symbol
_atom_site_fract_x
_atom_site_fract_y
_atom_site_fract_z
K1 K 0.20299(8) 0.09047(10) 0.86922(7)
N1 N 0.1090(3) -0.0948(4) 0.8722(3)
O1 O 0.4623(4) 0.2045(4) 0.8837(3)
O2 O 0.2636(2) 0.4013(3) 0.8606(2)
O3 O 0.2529(2) 0.1773(3) 0.98949(19)
O4 O 0.1317(3) 0.0359(3) 0.9893(2)
O5 O 0.1462(3) 0.0051(3) 0.7465(2)
O6 O 0.2627(3) 0.1502(3) 0.74877(19)
C1 C 0.1944(4) 0.3404(5) 0.7321(3)
H1 H 0.1867 0.4084 0.7234
H2 H 0.1640 0.3059 0.6968
C2 C 0.2842(4) 0.3174(5) 0.7262(3)
C3 C 0.3370(5) 0.3897(6) 0.7093(3)
H3 H 0.3169 0.4511 0.7004
C4 C 0.4184(6) 0.3720(7) 0.7054(4)
H4 H 0.4533 0.4200 0.6919
C5 C 0.4476(5) 0.2818(7) 0.7218(4)
H5 H 0.5032 0.2710 0.7214
C6 C 0.3979(5) 0.2069(6) 0.7387(3)
C7 C 0.3152(4) 0.2265(5) 0.7380(3)
C8 C 0.4316(5) 0.1090(6) 0.7563(4)
H6 H 0.4902 0.1119 0.7550
H7 H 0.4124 0.0643 0.7217
C9 C 0.4104(4) 0.0686(6) 0.8242(5)
C10 C 0.3772(5) -0.0243(7) 0.8269(6)
H8 H 0.3668 -0.0582 0.7871
C11 C 0.3596(5) -0.0663(6) 0.8876(7)
H9 H 0.3400 -0.1289 0.8887
C12 C 0.3712(4) -0.0154(7) 0.9450(6)
H10 H 0.3565 -0.0424 0.9854
C13 C 0.4046(4) 0.0765(6) 0.9452(4)
C14 C 0.4256(4) 0.1161(6) 0.8843(5)
C15 C 0.5507(6) 0.2002(7) 0.8939(6)
C16 C 0.5893(12) 0.2979(13) 0.9133(9)
C17 C 0.5878(15) 0.3580(15) 0.8547(11)
C18 C 0.4185(5) 0.1289(6) 1.0114(4)
H11 H 0.3937 0.0914 1.0459
H12 H 0.4765 0.1298 1.0223
C19 C 0.3879(5) 0.2299(6) 1.0161(3)
C20 C 0.4410(5) 0.3054(8) 1.0350(4)
H13 H 0.4955 0.2924 1.0451
C21 C 0.4130(6) 0.3984(8) 1.0389(4)
H14 H 0.4481 0.4476 1.0529
C22 C 0.3337(5) 0.4180(6) 1.0223(3)
H15 H 0.3162 0.4814 1.0238
C23 C 0.2778(4) 0.3474(5) 1.0031(3)
C24 C 0.3062(4) 0.2531(5) 1.0030(3)
C25 C 0.1903(4) 0.3713(5) 0.9857(4)
H16 H 0.1578 0.3466 1.0211
H17 H 0.1847 0.4407 0.9855
C26 C 0.1560(4) 0.3338(4) 0.9199(3)
C27 C 0.0846(4) 0.2797(5) 0.9174(4)
H18 H 0.0594 0.2669 0.9572
C28 C 0.0504(4) 0.2446(5) 0.8578(4)
H19 H 0.0026 0.2091 0.8574
C29 C 0.0878(4) 0.2628(5) 0.7990(4)
H20 H 0.0654 0.2380 0.7588
C30 C 0.1579(4) 0.3171(5) 0.7982(3)
C31 C 0.1917(3) 0.3519(4) 0.8592(3)
C32 C 0.2577(4) 0.5037(5) 0.8556(4)
H21 H 0.2268 0.5291 0.8918
H22 H 0.2307 0.5219 0.8131
C33 C 0.3450(5) 0.5433(6) 0.8603(4)
H23 H 0.3734 0.5180 0.9004
H24 H 0.3736 0.5220 0.8216
C34 C 0.3452(6) 0.6491(6) 0.8630(5)
H25 H 0.4002 0.6719 0.8663
H26 H 0.3173 0.6701 0.9015
H27 H 0.3183 0.6742 0.8229
C35 C 0.2007(6) 0.1631(8) 1.0481(5)
C36 C 0.1870(8) 0.0521(9) 1.0497(6)
C37 C 0.1028(5) -0.0591(5) 0.9928(4)
H28 H 0.0673 -0.0654 1.0299
H29 H 0.1480 -0.1030 1.0003
C38 C 0.0571(4) -0.0835(5) 0.9278(4)
H30 H 0.0271 -0.1426 0.9337
H31 H 0.0180 -0.0330 0.9171
C39 C 0.0585(4) -0.0917(5) 0.8093(4)
H32 H 0.0226 -0.0367 0.8107
H33 H 0.0249 -0.1489 0.8067
C40 C 0.1055(5) -0.0855(5) 0.7470(4)
H34 H 0.1448 -0.1373 0.7463
H35 H 0.0690 -0.0914 0.7075
C41 C 0.2004(5) 0.0118(6) 0.6943(4)
C42 C 0.2372(8) 0.1028(11) 0.6869(7)
C43 C 0.1594(4) -0.1827(4) 0.8786(3)
H36 H 0.1966 -0.1752 0.9175
H37 H 0.1918 -0.1868 0.8394
C44 C 0.1156(4) -0.2764(5) 0.8855(3)
C45 C 0.1011(5) -0.3153(5) 0.9478(4)
H38 H 0.1206 -0.2839 0.9865
C46 C 0.0579(6) -0.4009(6) 0.9535(5)
H39 H 0.0485 -0.4263 0.9956
C47 C 0.0296(6) -0.4469(6) 0.8962(6)
H40 H 0.0002 -0.5035 0.8996
C48 C 0.0437(5) -0.4116(6) 0.8354(5)
H41 H 0.0251 -0.4442 0.7969
C49 C 0.0860(4) -0.3261(5) 0.8302(4)
H42 H 0.0946 -0.3017 0.7877
Cl1 Cl -0.20455(15) 0.16934(18) 0.84267(12)
O7 O -0.1692(5) 0.2369(6) 0.8858(4)
O8 O -0.2374(5) 0.2217(6) 0.7863(4)
O9 O -0.1410(5) 0.1033(5) 0.8263(4)
O10 O -0.2703(7) 0.1106(9) 0.8567(7)
O11? O -0.2562(8) 0.1375(10) 0.8967(8)
C50? C 0.5404(18) 0.348(2) 0.8799(15)
C51? C 0.636(3) 0.350(3) 0.890(2)
C52? C 0.2368(17) 0.110(2) 1.0458(13)
C53? C 0.1557(15) 0.0839(19) 1.0483(12)
C54? C 0.2093(10) 0.1307(11) 0.6846(7)
loop_
_geom_bond_atom_site_label_1
_geom_bond_atom_site_label_2
_geom_bond_site_symmetry_1
_geom_bond_site_symmetry_2
K1 N1 1_555 1_555
N1 C38 1_555 1_555
O1 C14 1_555 1_555
O2 C31 1_555 1_555
O3 K1 1_555 1_555
O4 K1 1_555 1_555
O5 K1 1_555 1_555
O6 K1 1_555 1_555
C1 H1 1_555 1_555
H2 C1 1_555 1_555
C2 C1 1_555 1_555
C3 C2 1_555 1_555
H3 C3 1_555 1_555
C4 C3 1_555 1_555
H4 C4 1_555 1_555
C5 C4 1_555 1_555
H5 C5 1_555 1_555
C6 C5 1_555 1_555
C7 O6 1_555 1_555
C8 C6 1_555 1_555
H6 C8 1_555 1_555
H7 C8 1_555 1_555
C9 C8 1_555 1_555
C10 K1 1_555 1_555
H8 C10 1_555 1_555
C11 K1 1_555 1_555
H9 C11 1_555 1_555
C12 K1 1_555 1_555
H10 C12 1_555 1_555
C13 C12 1_555 1_555
C14 C9 1_555 1_555
C15 O1 1_555 1_555
C16 C15 1_555 1_555
C17 C16 1_555 1_555
C18 C13 1_555 1_555
H11 C18 1_555 1_555
H12 C18 1_555 1_555
C19 C18 1_555 1_555
C20 C19 1_555 1_555
H13 C20 1_555 1_555
C21 C20 1_555 1_555
H14 C21 1_555 1_555
C22 C21 1_555 1_555
H15 C22 1_555 1_555
C23 C22 1_555 1_555
C24 O3 1_555 1_555
C25 C23 1_555 1_555
H16 C25 1_555 1_555
H17 C25 1_555 1_555
C26 C25 1_555 1_555
C27 K1 1_555 1_555
H18 C27 1_555 1_555
C28 K1 1_555 1_555
H19 C28 1_555 1_555
C29 K1 1_555 1_555
H20 C29 1_555 1_555
C30 K1 1_555 1_555
C31 C26 1_555 1_555
C32 O2 1_555 1_555
H21 C32 1_555 1_555
H22 C32 1_555 1_555
C33 C32 1_555 1_555
H23 C33 1_555 1_555
H24 C33 1_555 1_555
C34 C33 1_555 1_555
H25 C34 1_555 1_555
H26 C34 1_555 1_555
H27 C34 1_555 1_555
C35 O3 1_555 1_555
C36 O4 1_555 1_555
C37 O4 1_555 1_555
H28 C37 1_555 1_555
H29 C37 1_555 1_555
C38 C37 1_555 1_555
H30 C38 1_555 1_555
H31 C38 1_555 1_555
C39 N1 1_555 1_555
H32 C39 1_555 1_555
H33 C39 1_555 1_555
C40 O5 1_555 1_555
H34 C40 1_555 1_555
H35 C40 1_555 1_555
C41 O5 1_555 1_555
C42 O6 1_555 1_555
C43 N1 1_555 1_555
H36 C43 1_555 1_555
H37 C43 1_555 1_555
C44 C43 1_555 1_555
C45 C44 1_555 1_555
H38 C45 1_555 1_555
C46 C45 1_555 1_555
H39 C46 1_555 1_555
C47 C46 1_555 1_555
H40 C47 1_555 1_555
C48 C47 1_555 1_555
H41 C48 1_555 1_555
C49 C44 1_555 1_555
H42 C49 1_555 1_555
Cl1 O7 1_555 1_555
O8 Cl1 1_555 1_555
O9 Cl1 1_555 1_555
O10 Cl1 1_555 1_555
C1 C30 1_555 1_555
C2 C7 1_555 1_555
C6 C7 1_555 1_555
C9 C10 1_555 1_555
C10 C11 1_555 1_555
C11 C12 1_555 1_555
C13 C14 1_555 1_555
C19 C24 1_555 1_555
C23 C24 1_555 1_555
C26 C27 1_555 1_555
C27 C28 1_555 1_555
C28 C29 1_555 1_555
C29 C30 1_555 1_555
C30 C31 1_555 1_555
C35 C36 1_555 1_555
C39 C40 1_555 1_555
C41 C42 1_555 1_555
C48 C49 1_555 1_555

#END
