
#######################################################################
#
#                 Cambridge Crystallographic Data Centre
#                                CCDC 
#
#######################################################################
#
# If this CIF has been generated from an entry in the Cambridge 
# Structural Database, then it will include bibliographic, chemical, 
# crystal, experimental, refinement or atomic coordinate data resulting 
# from the CCDC's data processing and validation procedures.
#
#######################################################################

data_XEMGED
_chemical_formula_moiety         'C92 F48'
_chemical_name_systematic        hexadecakis(trifluoromethyl)-C76fullerene
_symmetry_cell_setting           triclinic
_symmetry_space_group_name_H-M   'P -1'
_symmetry_Int_Tables_number      2
_space_group_name_Hall           '-P 1'
loop_
_symmetry_equiv_pos_site_id
_symmetry_equiv_pos_as_xyz
1 x,y,z
2 -x,-y,-z
_cell_length_a                   13.9166(3)
_cell_length_b                   14.8358(3)
_cell_length_c                   17.9953(3)
_cell_angle_alpha                97.528(1)
_cell_angle_beta                 92.443(1)
_cell_angle_gamma                116.534(1)
_cell_volume                     3273.89
_exptl_crystal_colour            orange
_exptl_crystal_description       plate
_cell_formula_units_Z            2
_exptl_crystal_recrystallization_method hexane
loop_
_atom_site_label
_atom_site_type_symbol
_atom_site_fract_x
_atom_site_fract_y
_atom_site_fract_z
F1 F 0.80384(15) 0.83877(16) -0.60920(10)
F2 F 0.71996(15) 0.93035(14) -0.59568(10)
F3 F 0.62927(14) 0.76632(14) -0.62279(9)
F4 F 0.71607(15) 1.10447(17) -0.51353(13)
F5 F 0.8368(2) 1.21288(14) -0.42408(13)
F6 F 0.8747(3) 1.1145(2) -0.50093(17)
F7 F 0.71122(14) 0.38057(12) -0.42578(10)
F8 F 0.84540(15) 0.42345(13) -0.34165(11)
F9 F 0.87260(15) 0.48581(13) -0.44481(11)
F10 F 0.18953(15) 0.42339(14) -0.27528(11)
F11 F 0.20453(15) 0.40261(15) -0.39391(11)
F12 F 0.14170(14) 0.50372(18) -0.34789(14)
F13 F 0.17200(17) 0.7098(2) -0.41480(12)
F14 F 0.20363(18) 0.8341(2) -0.3303(2)
F15 F 0.14281(18) 0.6843(3) -0.3028(2)
F16 F 0.60668(18) 1.16197(15) -0.42036(11)
F17 F 0.65606(18) 1.23129(14) -0.30495(12)
F18 F 0.49080(17) 1.12253(17) -0.34115(17)
F19 F 1.05371(12) 1.23528(12) -0.18321(10)
F20 F 1.07145(13) 1.21026(12) -0.30139(10)
F21 F 0.96438(13) 1.27082(12) -0.26476(11)
F22 F 1.16256(12) 1.01162(13) -0.15563(9)
F23 F 1.19408(12) 1.02312(13) -0.27084(9)
F24 F 1.15402(13) 1.13085(12) -0.20586(11)
F25 F 0.88329(16) 0.55590(15) -0.07459(11)
F26 F 0.89175(17) 0.47923(14) -0.18246(12)
F27 F 1.01582(14) 0.63057(14) -0.13736(11)
F28 F 0.51391(15) 0.38777(13) -0.11394(12)
F29 F 0.5895(2) 0.33536(13) -0.19873(12)
F30 F 0.68271(16) 0.43051(15) -0.09576(13)
F31 F 0.33030(14) 0.38583(12) -0.16135(10)
F32 F 0.27230(13) 0.49065(13) -0.11642(10)
F33 F 0.40649(14) 0.48719(12) -0.05554(10)
F34 F 0.41916(14) 0.82213(12) -0.01571(10)
F35 F 0.27353(13) 0.69581(14) -0.07481(10)
F36 F 0.40042(14) 0.66996(12) -0.02391(9)
F37 F 0.43865(16) 1.06482(13) -0.14673(12)
F38 F 0.4054(2) 0.96735(17) -0.06486(11)
F39 F 0.29376(14) 0.92337(16) -0.16456(14)
F40 F 0.89617(12) 1.24051(12) -0.11859(10)
F41 F 0.74927(14) 1.16680(13) -0.06877(10)
F42 F 0.75421(15) 1.24894(13) -0.16024(12)
F43 F 1.04563(12) 0.93786(12) -0.03458(9)
F44 F 1.11046(12) 0.84516(13) -0.09343(9)
F45 F 0.99025(13) 0.78169(13) -0.01930(9)
F46 F 0.84767(12) 0.84559(13) 0.03090(9)
F47 F 0.71091(13) 0.87768(13) 0.02994(9)
F48 F 0.68834(14) 0.72618(13) 0.03850(9)
C1 C 0.6230(2) 0.65265(19) -0.46613(14)
C2 C 0.52405(19) 0.66431(19) -0.45793(14)
C3 C 0.5270(2) 0.7632(2) -0.45954(14)
C4 C 0.6245(2) 0.8504(2) -0.46808(14)
C5 C 0.7166(2) 0.83624(19) -0.49833(14)
C6 C 0.7122(2) 0.7339(2) -0.48670(14)
C7 C 0.8178(2) 0.7506(2) -0.46500(14)
C8 C 0.8349(2) 0.68018(19) -0.43092(14)
C9 C 0.7465(2) 0.59107(19) -0.41681(15)
C10 C 0.6406(2) 0.57887(18) -0.42969(14)
C11 C 0.5614(2) 0.51943(18) -0.38125(15)
C12 C 0.46594(19) 0.52897(18) -0.37875(14)
C13 C 0.44504(19) 0.59673(19) -0.41980(14)
C14 C 0.36555(19) 0.6185(2) -0.38475(15)
C15 C 0.36559(19) 0.7090(2) -0.38727(15)
C16 C 0.4465(2) 0.7820(2) -0.42476(14)
C17 C 0.4680(2) 0.8818(2) -0.39162(15)
C18 C 0.5660(2) 0.9633(2) -0.39543(15)
C19 C 0.6439(2) 0.9474(2) -0.43412(15)
C20 C 0.7576(2) 1.03797(19) -0.40787(15)
C21 C 0.83851(19) 0.99640(18) -0.39901(15)
C22 C 0.8243(2) 0.9120(2) -0.45064(14)
C23 C 0.88455(19) 0.85951(19) -0.43974(14)
C24 C 0.96021(19) 0.89176(19) -0.37678(15)
C25 C 0.97835(18) 0.81773(19) -0.34143(15)
C26 C 0.92091(19) 0.71403(19) -0.36954(15)
C27 C 0.8896(2) 0.64203(19) -0.31961(15)
C28 C 0.7853(2) 0.54795(19) -0.35642(15)
C29 C 0.7085(2) 0.51756(18) -0.29796(16)
C30 C 0.5950(2) 0.49220(17) -0.31775(15)
C31 C 0.5460(2) 0.48972(17) -0.25055(15)
C32 C 0.4580(2) 0.51147(18) -0.24583(15)
C33 C 0.41192(19) 0.51800(18) -0.31294(15)
C34 C 0.32954(19) 0.55880(19) -0.31977(15)
C35 C 0.34800(18) 0.63437(19) -0.24942(15)
C36 C 0.34743(18) 0.73314(19) -0.25240(15)
C37 C 0.32699(19) 0.7637(2) -0.32585(15)
C38 C 0.40905(19) 0.8749(2) -0.32491(16)
C39 C 0.4634(2) 0.93949(19) -0.26144(16)
C40 C 0.5717(2) 1.02193(18) -0.26153(16)
C41 C 0.6158(2) 1.05685(19) -0.33369(16)
C42 C 0.7355(2) 1.07999(18) -0.33092(16)
C43 C 0.79705(19) 1.09843(18) -0.26764(15)
C44 C 0.90480(19) 1.09295(18) -0.26219(15)
C45 C 0.91238(19) 1.02640(18) -0.33224(15)
C46 C 0.97211(18) 0.97435(18) -0.32206(14)
C47 C 1.01276(19) 0.96062(18) -0.24511(14)
C48 C 0.99933(18) 0.85168(18) -0.26283(14)
C49 C 0.96350(19) 0.78262(19) -0.21444(15)
C50 C 0.91078(19) 0.67639(19) -0.24300(15)
C51 C 0.8463(2) 0.61510(19) -0.18447(15)
C52 C 0.7340(2) 0.53895(18) -0.22307(16)
C53 C 0.6301(2) 0.50945(18) -0.18470(15)
C54 C 0.6385(2) 0.60074(19) -0.13211(15)
C55 C 0.5566(2) 0.62659(18) -0.12672(14)
C56 C 0.4419(2) 0.56266(19) -0.16862(15)
C57 C 0.39950(19) 0.63781(19) -0.18451(15)
C58 C 0.43345(18) 0.74304(18) -0.13549(14)
C59 C 0.39894(18) 0.79729(19) -0.18744(15)
C60 C 0.45342(19) 0.91191(18) -0.18199(15)
C61 C 0.57446(19) 0.95499(18) -0.15396(14)
C62 C 0.6336(2) 1.03267(18) -0.19933(15)
C63 C 0.7537(2) 1.08826(18) -0.19029(15)
C64 C 0.79798(19) 1.02002(18) -0.16346(14)
C65 C 0.88983(19) 1.03062(17) -0.19732(14)
C66 C 0.93383(18) 0.96378(18) -0.18927(14)
C67 C 0.88553(19) 0.88684(18) -0.14461(14)
C68 C 0.92879(19) 0.80722(19) -0.13793(15)
C69 C 0.8367(2) 0.70177(18) -0.13349(14)
C70 C 0.7431(2) 0.69027(19) -0.10996(14)
C71 C 0.72278(19) 0.77956(19) -0.08017(14)
C72 C 0.60211(19) 0.73659(19) -0.10304(14)
C73 C 0.55590(19) 0.79603(18) -0.11485(14)
C74 C 0.62091(18) 0.90239(18) -0.12352(14)
C75 C 0.73953(18) 0.93616(18) -0.12827(14)
C76 C 0.78756(19) 0.87319(18) -0.11641(14)
C77 C 0.7175(2) 0.8437(2) -0.58307(16)
C78 C 0.7968(2) 1.1191(2) -0.46187(17)
C79 C 0.8049(2) 0.4577(2) -0.39211(17)
C80 C 0.2140(2) 0.4709(2) -0.33459(17)
C81 C 0.2096(2) 0.7470(2) -0.34272(16)
C82 C 0.5923(2) 1.1450(2) -0.35004(18)
C83 C 1.0011(2) 1.20416(19) -0.25175(17)
C84 C 1.13264(19) 1.0334(2) -0.21860(15)
C85 C 0.9094(2) 0.5691(2) -0.14428(17)
C86 C 0.6030(2) 0.4139(2) -0.14788(17)
C87 C 0.3618(2) 0.4800(2) -0.12425(17)
C88 C 0.3801(2) 0.7326(2) -0.06143(16)
C89 C 0.3972(2) 0.9677(2) -0.13791(16)
C90 C 0.7901(2) 1.18885(19) -0.13386(16)
C91 C 1.0207(2) 0.8441(2) -0.07039(15)
C92 C 0.7435(2) 0.8077(2) 0.00666(15)
F49? F 0.1960(16) 0.7774(18) -0.3997(12)
F50? F 0.1888(11) 0.8023(10) -0.2871(9)
F51? F 0.1363(14) 0.6485(13) -0.3433(12)
F52? F 0.728(2) 1.151(2) -0.4733(18)
F53? F 0.889(3) 1.209(2) -0.4107(18)
F54? F 0.838(2) 1.095(2) -0.5148(16)
loop_
_geom_bond_atom_site_label_1
_geom_bond_atom_site_label_2
_geom_bond_site_symmetry_1
_geom_bond_site_symmetry_2
F1 C77 1_555 1_555
F2 C77 1_555 1_555
F3 C77 1_555 1_555
F4 C78 1_555 1_555
F5 C78 1_555 1_555
F6 C78 1_555 1_555
F7 C79 1_555 1_555
F8 C79 1_555 1_555
F9 C79 1_555 1_555
F10 C80 1_555 1_555
F11 C80 1_555 1_555
F12 C80 1_555 1_555
F13 C81 1_555 1_555
F14 C81 1_555 1_555
F15 C81 1_555 1_555
F16 C82 1_555 1_555
F17 C82 1_555 1_555
F18 C82 1_555 1_555
F19 C83 1_555 1_555
F20 C83 1_555 1_555
F21 C83 1_555 1_555
F22 C84 1_555 1_555
F23 C84 1_555 1_555
F24 C84 1_555 1_555
F25 C85 1_555 1_555
F26 C85 1_555 1_555
F27 C85 1_555 1_555
F28 C86 1_555 1_555
F29 C86 1_555 1_555
F30 C86 1_555 1_555
F31 C87 1_555 1_555
F32 C87 1_555 1_555
F33 C87 1_555 1_555
F34 C88 1_555 1_555
F35 C88 1_555 1_555
F36 C88 1_555 1_555
F37 C89 1_555 1_555
F38 C89 1_555 1_555
F39 C89 1_555 1_555
F40 C90 1_555 1_555
F41 C90 1_555 1_555
F42 C90 1_555 1_555
F43 C91 1_555 1_555
F44 C91 1_555 1_555
F45 C91 1_555 1_555
F46 C92 1_555 1_555
F47 C92 1_555 1_555
F48 C92 1_555 1_555
C1 C2 1_555 1_555
C2 C3 1_555 1_555
C3 C4 1_555 1_555
C4 C5 1_555 1_555
C5 C6 1_555 1_555
C6 C1 1_555 1_555
C7 C6 1_555 1_555
C8 C7 1_555 1_555
C9 C8 1_555 1_555
C10 C1 1_555 1_555
C11 C10 1_555 1_555
C12 C11 1_555 1_555
C13 C2 1_555 1_555
C14 C13 1_555 1_555
C15 C14 1_555 1_555
C16 C3 1_555 1_555
C17 C16 1_555 1_555
C18 C17 1_555 1_555
C19 C4 1_555 1_555
C20 C19 1_555 1_555
C21 C20 1_555 1_555
C22 C5 1_555 1_555
C23 C7 1_555 1_555
C24 C23 1_555 1_555
C25 C24 1_555 1_555
C26 C8 1_555 1_555
C27 C26 1_555 1_555
C28 C9 1_555 1_555
C29 C28 1_555 1_555
C30 C11 1_555 1_555
C31 C30 1_555 1_555
C32 C31 1_555 1_555
C33 C12 1_555 1_555
C34 C14 1_555 1_555
C35 C34 1_555 1_555
C36 C35 1_555 1_555
C37 C15 1_555 1_555
C38 C17 1_555 1_555
C39 C38 1_555 1_555
C40 C39 1_555 1_555
C41 C18 1_555 1_555
C42 C20 1_555 1_555
C43 C42 1_555 1_555
C44 C43 1_555 1_555
C45 C21 1_555 1_555
C46 C24 1_555 1_555
C47 C46 1_555 1_555
C48 C25 1_555 1_555
C49 C48 1_555 1_555
C50 C27 1_555 1_555
C51 C50 1_555 1_555
C52 C29 1_555 1_555
C53 C31 1_555 1_555
C54 C53 1_555 1_555
C55 C54 1_555 1_555
C56 C32 1_555 1_555
C57 C35 1_555 1_555
C58 C57 1_555 1_555
C59 C36 1_555 1_555
C60 C39 1_555 1_555
C61 C60 1_555 1_555
C62 C40 1_555 1_555
C63 C43 1_555 1_555
C64 C63 1_555 1_555
C65 C44 1_555 1_555
C66 C47 1_555 1_555
C67 C66 1_555 1_555
C68 C49 1_555 1_555
C69 C51 1_555 1_555
C70 C54 1_555 1_555
C71 C70 1_555 1_555
C72 C55 1_555 1_555
C73 C58 1_555 1_555
C74 C61 1_555 1_555
C75 C64 1_555 1_555
C76 C67 1_555 1_555
C77 C5 1_555 1_555
C78 C20 1_555 1_555
C79 C28 1_555 1_555
C80 C34 1_555 1_555
C81 C37 1_555 1_555
C82 C41 1_555 1_555
C83 C44 1_555 1_555
C84 C47 1_555 1_555
C85 C51 1_555 1_555
C86 C53 1_555 1_555
C87 C56 1_555 1_555
C88 C58 1_555 1_555
C89 C60 1_555 1_555
C90 C63 1_555 1_555
C91 C68 1_555 1_555
C92 C71 1_555 1_555
C9 C10 1_555 1_555
C12 C13 1_555 1_555
C15 C16 1_555 1_555
C18 C19 1_555 1_555
C21 C22 1_555 1_555
C22 C23 1_555 1_555
C25 C26 1_555 1_555
C27 C28 1_555 1_555
C29 C30 1_555 1_555
C32 C33 1_555 1_555
C33 C34 1_555 1_555
C36 C37 1_555 1_555
C37 C38 1_555 1_555
C40 C41 1_555 1_555
C41 C42 1_555 1_555
C44 C45 1_555 1_555
C45 C46 1_555 1_555
C47 C48 1_555 1_555
C49 C50 1_555 1_555
C51 C52 1_555 1_555
C52 C53 1_555 1_555
C55 C56 1_555 1_555
C56 C57 1_555 1_555
C58 C59 1_555 1_555
C59 C60 1_555 1_555
C61 C62 1_555 1_555
C62 C63 1_555 1_555
C64 C65 1_555 1_555
C65 C66 1_555 1_555
C67 C68 1_555 1_555
C68 C69 1_555 1_555
C69 C70 1_555 1_555
C71 C72 1_555 1_555
C71 C76 1_555 1_555
C72 C73 1_555 1_555
C73 C74 1_555 1_555
C74 C75 1_555 1_555
C75 C76 1_555 1_555

#END
