
#######################################################################
#
#                 Cambridge Crystallographic Data Centre
#                                CCDC 
#
#######################################################################
#
# If this CIF has been generated from an entry in the Cambridge 
# Structural Database, then it will include bibliographic, chemical, 
# crystal, experimental, refinement or atomic coordinate data resulting 
# from the CCDC's data processing and validation procedures.
#
#######################################################################

data_XEMGUR
_chemical_name_common            
1,4-bis(2,3,4,5,6-pentakis(Thiophenyl)phenyl)-2,3-diazabuta-1,3-diene
_chemical_formula_moiety         'C74 H52 N2 S10'
_chemical_name_systematic        'trans,trans-Decathiophenylbenzaldehyde azine'
_symmetry_cell_setting           triclinic
_symmetry_space_group_name_H-M   'P -1'
_symmetry_Int_Tables_number      2
_space_group_name_Hall           '-P 1'
loop_
_symmetry_equiv_pos_site_id
_symmetry_equiv_pos_as_xyz
1 x,y,z
2 -x,-y,-z
_cell_length_a                   9.6144(19)
_cell_length_b                   10.578(2)
_cell_length_c                   17.080(3)
_cell_angle_alpha                92.72(3)
_cell_angle_beta                 93.12(3)
_cell_angle_gamma                114.73(3)
_cell_volume                     1570.68
_exptl_crystal_colour            yellow
_chemical_melting_point          '201 deg.C'
_cell_formula_units_Z            1
_exptl_crystal_recrystallization_method hexane/chloroform
loop_
_atom_site_label
_atom_site_type_symbol
_atom_site_fract_x
_atom_site_fract_y
_atom_site_fract_z
S1 S 0.82048(7) 0.23423(6) 0.37245(4)
S2 S 0.81429(6) 0.34068(6) 0.20031(3)
S3 S 0.49877(7) 0.30798(7) 0.11604(3)
S4 S 0.19005(6) 0.17436(6) 0.20476(3)
S5 S 0.20244(7) 0.09165(8) 0.37823(3)
C1 C 0.6502(2) 0.2335(2) 0.32600(12)
C2 C 0.6436(2) 0.2745(2) 0.24954(12)
C3 C 0.5025(2) 0.2606(2) 0.21376(11)
C4 C 0.3680(2) 0.2000(2) 0.25367(12)
C5 C 0.3768(2) 0.1641(2) 0.33139(12)
C6 C 0.5181(2) 0.1785(2) 0.36722(12)
C7 C 0.5356(2) 0.1355(2) 0.44754(12)
H1 H 0.583(3) 0.203(3) 0.4881(15)
N1 N 0.4837(2) 0.00871(19) 0.46006(10)
C8 C 0.9548(3) 0.4112(2) 0.37699(13)
C9 C 1.1037(3) 0.4405(4) 0.36241(19)
H2 H 1.132(4) 0.369(4) 0.348(2)
C10 C 1.2120(4) 0.5802(5) 0.3700(2)
H3 H 1.315(5) 0.602(5) 0.362(2)
C11 C 1.1709(5) 0.6849(4) 0.3893(2)
H4 H 1.244(5) 0.778(5) 0.393(2)
C12 C 1.0241(5) 0.6539(4) 0.4035(3)
H5 H 0.995(5) 0.726(5) 0.417(2)
C13 C 0.9159(4) 0.5179(3) 0.3986(2)
H6 H 0.815(4) 0.498(4) 0.410(2)
C14 C 0.7838(3) 0.2129(2) 0.12255(12)
C15 C 0.6594(3) 0.0839(3) 0.11027(15)
H7 H 0.579(4) 0.059(3) 0.1436(16)
C16 C 0.6540(3) -0.0084(3) 0.04868(17)
H8 H 0.569(4) -0.095(4) 0.0400(18)
C17 C 0.7712(4) 0.0256(4) 0.00031(17)
H9 H 0.767(4) -0.038(4) -0.041(2)
C18 C 0.8954(4) 0.1528(4) 0.01270(18)
H10 H 0.976(4) 0.176(4) -0.020(2)
C19 C 0.9023(3) 0.2477(3) 0.07354(16)
H11 H 0.987(4) 0.335(3) 0.0814(18)
C20 C 0.4103(3) 0.4243(2) 0.11595(13)
C21 C 0.3350(3) 0.4284(3) 0.04480(16)
H12 H 0.323(4) 0.364(4) 0.0025(19)
C22 C 0.2784(4) 0.5268(4) 0.0362(2)
H13 H 0.229(4) 0.530(4) -0.012(2)
C23 C 0.2940(5) 0.6194(4) 0.0973(3)
H14 H 0.257(5) 0.688(5) 0.091(2)
C24 C 0.3640(5) 0.6144(4) 0.1685(3)
H15 H 0.371(5) 0.677(5) 0.211(2)
C25 C 0.4239(4) 0.5164(3) 0.17811(18)
H16 H 0.473(4) 0.514(3) 0.2267(19)
C26 C 0.0772(2) -0.0078(2) 0.20052(12)
C27 C -0.0768(3) -0.0500(3) 0.18154(16)
H17 H -0.116(4) 0.017(3) 0.1766(17)
C28 C -0.1757(3) -0.1896(3) 0.16953(19)
H18 H -0.280(4) -0.216(4) 0.1548(19)
C29 C -0.1224(3) -0.2900(3) 0.17886(16)
H19 H -0.190(4) -0.385(4) 0.1711(18)
C30 C 0.0302(4) -0.2494(3) 0.19962(17)
H20 H 0.067(4) -0.318(4) 0.2075(18)
C31 C 0.1327(3) -0.1096(3) 0.20942(16)
H21 H 0.238(4) -0.084(3) 0.2219(17)
C32 C 0.2540(3) 0.1633(3) 0.47652(13)
C33 C 0.3340(3) 0.3055(3) 0.49639(19)
H22 H 0.368(4) 0.368(4) 0.4570(19)
C34 C 0.3636(4) 0.3541(4) 0.5754(2)
H23 H 0.422(4) 0.450(4) 0.589(2)
C35 C 0.3093(4) 0.2641(4) 0.6325(2)
H24 H 0.329(4) 0.298(4) 0.686(2)
C36 C 0.2263(4) 0.1241(4) 0.61320(16)
H25 H 0.187(4) 0.063(4) 0.653(2)
C37 C 0.2006(3) 0.0727(3) 0.53532(14)
H26 H 0.147(3) -0.024(3) 0.5221(16)
N1A N 0.5163(2) -0.00871(19) 0.53994(10)
C7A C 0.4644(2) -0.1355(2) 0.55246(12)
C6A C 0.4819(2) -0.1785(2) 0.63278(12)
C1A C 0.3498(2) -0.2335(2) 0.67400(12)
S1A S 0.17952(7) -0.23423(6) 0.62755(4)
C8A C 0.0452(3) -0.4112(2) 0.62301(13)
C9A C -0.1037(3) -0.4405(4) 0.63759(19)
H2A H -0.132(4) -0.369(4) 0.652(2)
C10A C -0.2120(4) -0.5802(5) 0.6300(2)
H3A H -0.315(5) -0.602(5) 0.638(2)
C11A C -0.1709(5) -0.6849(4) 0.6107(2)
H4A H -0.244(5) -0.778(5) 0.607(2)
C12A C -0.0241(5) -0.6539(4) 0.5965(3)
H5A H 0.005(5) -0.726(5) 0.583(2)
C13A C 0.0841(4) -0.5179(3) 0.6014(2)
H6A H 0.185(4) -0.498(4) 0.590(2)
C2A C 0.3564(2) -0.2745(2) 0.75046(12)
S2A S 0.18571(6) -0.34068(6) 0.79969(3)
C14A C 0.2162(3) -0.2129(2) 0.87745(12)
C15A C 0.3406(3) -0.0839(3) 0.88973(15)
H7A H 0.421(4) -0.059(3) 0.8564(16)
C16A C 0.3460(3) 0.0084(3) 0.95132(17)
H8A H 0.431(4) 0.095(4) 0.9600(18)
C17A C 0.2288(4) -0.0256(4) 0.99969(17)
H9A H 0.233(4) 0.038(4) 1.041(2)
C18A C 0.1046(4) -0.1528(4) 0.98730(18)
H10A H 0.024(4) -0.176(4) 1.020(2)
C19A C 0.0977(3) -0.2477(3) 0.92646(16)
H11A H 0.013(4) -0.335(3) 0.9186(18)
C3A C 0.4975(2) -0.2606(2) 0.78624(11)
S3A S 0.50123(7) -0.30798(7) 0.88396(3)
C20A C 0.5897(3) -0.4243(2) 0.88405(13)
C21A C 0.6650(3) -0.4284(3) 0.95520(16)
H12A H 0.677(4) -0.364(4) 0.9975(19)
C22A C 0.7216(4) -0.5268(4) 0.9638(2)
H13A H 0.771(4) -0.530(4) 1.012(2)
C23A C 0.7060(5) -0.6194(4) 0.9027(3)
H14A H 0.743(5) -0.688(5) 0.909(2)
C24A C 0.6360(5) -0.6144(4) 0.8315(3)
H15A H 0.629(5) -0.677(5) 0.789(2)
C25A C 0.5761(4) -0.5164(3) 0.82189(18)
H16A H 0.527(4) -0.514(3) 0.7733(19)
C4A C 0.6320(2) -0.2000(2) 0.74633(12)
S4A S 0.80995(6) -0.17436(6) 0.79524(3)
C26A C 0.9228(2) 0.0078(2) 0.79948(12)
C27A C 1.0768(3) 0.0500(3) 0.81846(16)
H17A H 1.116(4) -0.017(3) 0.8234(17)
C28A C 1.1757(3) 0.1896(3) 0.83047(19)
H18A H 1.280(4) 0.216(4) 0.8452(19)
C29A C 1.1224(3) 0.2900(3) 0.82114(16)
H19A H 1.190(4) 0.385(4) 0.8289(18)
C30A C 0.9698(4) 0.2494(3) 0.80038(17)
H20A H 0.933(4) 0.318(4) 0.7925(18)
C31A C 0.8673(3) 0.1096(3) 0.79058(16)
H21A H 0.762(4) 0.084(3) 0.7781(17)
C5A C 0.6232(2) -0.1641(2) 0.66861(12)
S5A S 0.79756(7) -0.09165(8) 0.62177(3)
C32A C 0.7460(3) -0.1633(3) 0.52348(13)
C33A C 0.6660(3) -0.3055(3) 0.50361(19)
H22A H 0.632(4) -0.368(4) 0.5430(19)
C34A C 0.6364(4) -0.3541(4) 0.4246(2)
H23A H 0.578(4) -0.450(4) 0.411(2)
C35A C 0.6907(4) -0.2641(4) 0.3675(2)
H24A H 0.671(4) -0.298(4) 0.314(2)
C36A C 0.7737(4) -0.1241(4) 0.38680(16)
H25A H 0.813(4) -0.063(4) 0.347(2)
C37A C 0.7994(3) -0.0727(3) 0.46468(14)
H26A H 0.853(3) 0.024(3) 0.4779(16)
H1A H 0.417(3) -0.203(3) 0.5119(15)
loop_
_geom_bond_atom_site_label_1
_geom_bond_atom_site_label_2
_geom_bond_site_symmetry_1
_geom_bond_site_symmetry_2
S1 C1 1_555 1_555
S2 C2 1_555 1_555
S3 C3 1_555 1_555
S4 C4 1_555 1_555
S5 C5 1_555 1_555
C1 C2 1_555 1_555
C2 C3 1_555 1_555
C3 C4 1_555 1_555
C4 C5 1_555 1_555
C5 C6 1_555 1_555
C6 C1 1_555 1_555
C7 C6 1_555 1_555
H1 C7 1_555 1_555
N1 C7 1_555 1_555
C8 S1 1_555 1_555
C9 C8 1_555 1_555
H2 C9 1_555 1_555
C10 C9 1_555 1_555
H3 C10 1_555 1_555
C11 C10 1_555 1_555
H4 C11 1_555 1_555
C12 C11 1_555 1_555
H5 C12 1_555 1_555
C13 C8 1_555 1_555
H6 C13 1_555 1_555
C14 S2 1_555 1_555
C15 C14 1_555 1_555
H7 C15 1_555 1_555
C16 C15 1_555 1_555
H8 C16 1_555 1_555
C17 C16 1_555 1_555
H9 C17 1_555 1_555
C18 C17 1_555 1_555
H10 C18 1_555 1_555
C19 C14 1_555 1_555
H11 C19 1_555 1_555
C20 S3 1_555 1_555
C21 C20 1_555 1_555
H12 C21 1_555 1_555
C22 C21 1_555 1_555
H13 C22 1_555 1_555
C23 C22 1_555 1_555
H14 C23 1_555 1_555
C24 C23 1_555 1_555
H15 C24 1_555 1_555
C25 C20 1_555 1_555
H16 C25 1_555 1_555
C26 S4 1_555 1_555
C27 C26 1_555 1_555
H17 C27 1_555 1_555
C28 C27 1_555 1_555
H18 C28 1_555 1_555
C29 C28 1_555 1_555
H19 C29 1_555 1_555
C30 C29 1_555 1_555
H20 C30 1_555 1_555
C31 C26 1_555 1_555
H21 C31 1_555 1_555
C32 S5 1_555 1_555
C33 C32 1_555 1_555
H22 C33 1_555 1_555
C34 C33 1_555 1_555
H23 C34 1_555 1_555
C35 C34 1_555 1_555
H24 C35 1_555 1_555
C36 C35 1_555 1_555
H25 C36 1_555 1_555
C37 C32 1_555 1_555
H26 C37 1_555 1_555
N1A N1 1_555 1_555
C7A N1A 1_555 1_555
C6A C7A 1_555 1_555
C1A C6A 1_555 1_555
S1A C1A 1_555 1_555
C8A S1A 1_555 1_555
C9A C8A 1_555 1_555
H2A C9A 1_555 1_555
C10A C9A 1_555 1_555
H3A C10A 1_555 1_555
C11A C10A 1_555 1_555
H4A C11A 1_555 1_555
C12A C11A 1_555 1_555
H5A C12A 1_555 1_555
C13A C8A 1_555 1_555
H6A C13A 1_555 1_555
C2A C1A 1_555 1_555
S2A C2A 1_555 1_555
C14A S2A 1_555 1_555
C15A C14A 1_555 1_555
H7A C15A 1_555 1_555
C16A C15A 1_555 1_555
H8A C16A 1_555 1_555
C17A C16A 1_555 1_555
H9A C17A 1_555 1_555
C18A C17A 1_555 1_555
H10A C18A 1_555 1_555
C19A C14A 1_555 1_555
H11A C19A 1_555 1_555
C3A C2A 1_555 1_555
S3A C3A 1_555 1_555
C20A S3A 1_555 1_555
C21A C20A 1_555 1_555
H12A C21A 1_555 1_555
C22A C21A 1_555 1_555
H13A C22A 1_555 1_555
C23A C22A 1_555 1_555
H14A C23A 1_555 1_555
C24A C23A 1_555 1_555
H15A C24A 1_555 1_555
C25A C20A 1_555 1_555
H16A C25A 1_555 1_555
C4A C3A 1_555 1_555
S4A C4A 1_555 1_555
C26A S4A 1_555 1_555
C27A C26A 1_555 1_555
H17A C27A 1_555 1_555
C28A C27A 1_555 1_555
H18A C28A 1_555 1_555
C29A C28A 1_555 1_555
H19A C29A 1_555 1_555
C30A C29A 1_555 1_555
H20A C30A 1_555 1_555
C31A C26A 1_555 1_555
H21A C31A 1_555 1_555
C5A C6A 1_555 1_555
S5A C5A 1_555 1_555
C32A S5A 1_555 1_555
C33A C32A 1_555 1_555
H22A C33A 1_555 1_555
C34A C33A 1_555 1_555
H23A C34A 1_555 1_555
C35A C34A 1_555 1_555
H24A C35A 1_555 1_555
C36A C35A 1_555 1_555
H25A C36A 1_555 1_555
C37A C32A 1_555 1_555
H26A C37A 1_555 1_555
H1A C7A 1_555 1_555
C12 C13 1_555 1_555
C18 C19 1_555 1_555
C24 C25 1_555 1_555
C30 C31 1_555 1_555
C36 C37 1_555 1_555
C12A C13A 1_555 1_555
C18A C19A 1_555 1_555
C24A C25A 1_555 1_555
C4A C5A 1_555 1_555
C30A C31A 1_555 1_555
C36A C37A 1_555 1_555

#END
