
#######################################################################
#
#                 Cambridge Crystallographic Data Centre
#                                CCDC 
#
#######################################################################
#
# If this CIF has been generated from an entry in the Cambridge 
# Structural Database, then it will include bibliographic, chemical, 
# crystal, experimental, refinement or atomic coordinate data resulting 
# from the CCDC's data processing and validation procedures.
#
#######################################################################

data_XEMGIH
_chemical_formula_moiety         'C92 F48'
_chemical_name_systematic        hexadecakis(trifluoromethyl)-C76fullerene
_symmetry_cell_setting           triclinic
_symmetry_space_group_name_H-M   'P -1'
_symmetry_Int_Tables_number      2
_space_group_name_Hall           '-P 1'
loop_
_symmetry_equiv_pos_site_id
_symmetry_equiv_pos_as_xyz
1 x,y,z
2 -x,-y,-z
_cell_length_a                   12.031(1)
_cell_length_b                   12.920(1)
_cell_length_c                   23.167(2)
_cell_angle_alpha                83.005(4)
_cell_angle_beta                 76.086(4)
_cell_angle_gamma                67.971(4)
_cell_volume                     3238.24
_exptl_crystal_colour            orange
_exptl_crystal_description       plate
_cell_formula_units_Z            2
_exptl_crystal_recrystallization_method hexane
loop_
_atom_site_label
_atom_site_type_symbol
_atom_site_fract_x
_atom_site_fract_y
_atom_site_fract_z
F1 F 0.7087(4) 0.5420(3) 0.02697(17)
F2 F 0.8161(3) 0.3813(3) -0.01073(15)
F3 F 0.8836(3) 0.4470(4) 0.04897(16)
F4 F 0.8117(3) 0.1732(3) -0.04290(14)
F5 F 0.6414(3) 0.3099(3) -0.03617(15)
F6 F 0.6444(3) 0.1436(3) -0.03723(15)
F7 F 0.3445(7) 0.7776(5) 0.2979(3)
F8 F 0.5188(5) 0.7343(4) 0.3179(5)
F9 F 0.3661(11) 0.7239(6) 0.3859(2)
F10 F 0.5888(3) 0.5233(3) 0.45877(13)
F11 F 0.6688(3) 0.5913(3) 0.37728(15)
F12 F 0.7747(3) 0.4346(3) 0.41292(14)
F13 F 0.6960(3) 0.3005(3) 0.49688(14)
F14 F 0.8805(3) 0.2098(3) 0.45281(14)
F15 F 0.7605(3) 0.1225(3) 0.49666(14)
F16 F 0.9637(3) -0.0110(3) 0.42924(15)
F17 F 1.1024(3) -0.0721(3) 0.35217(16)
F18 F 0.9811(4) -0.1605(3) 0.39089(19)
F19 F 1.1945(3) -0.0693(3) 0.23717(15)
F20 F 1.1856(3) -0.1275(4) 0.15646(16)
F21 F 1.1483(3) -0.2163(3) 0.2397(2)
F22 F 0.7817(3) -0.1529(3) 0.03129(15)
F23 F 0.9540(3) -0.1566(3) 0.04286(17)
F24 F 0.8616(4) -0.0380(3) -0.01918(15)
F25 F 0.2546(3) 0.1415(3) 0.10049(14)
F26 F 0.3006(3) 0.2698(3) 0.04448(16)
F27 F 0.4170(3) 0.0982(3) 0.03105(14)
F28 F 0.0390(3) 0.4303(3) 0.22038(15)
F29 F 0.1217(3) 0.3273(3) 0.14528(18)
F30 F 0.1090(3) 0.4995(4) 0.13723(18)
F31 F 0.1949(3) 0.4811(3) 0.48561(15)
F32 F 0.1858(3) 0.6271(3) 0.42911(17)
F33 F 0.0764(3) 0.5315(3) 0.42383(16)
F34 F 0.4897(3) 0.2392(3) 0.52705(14)
F35 F 0.4240(4) 0.1128(3) 0.51650(14)
F36 F 0.3014(3) 0.2821(3) 0.52331(14)
F37 F 0.7892(3) -0.2984(3) 0.30377(17)
F38 F 0.9618(3) -0.3140(3) 0.24436(16)
F39 F 0.8111(3) -0.3163(3) 0.21094(17)
F40 F 0.3798(3) -0.0525(3) 0.13313(16)
F41 F 0.5655(3) -0.1551(3) 0.09810(15)
F42 F 0.4857(3) -0.1672(3) 0.19115(16)
F43 F 0.0063(3) 0.4520(3) 0.33886(15)
F44 F 0.0606(3) 0.2798(3) 0.31815(14)
F45 F 0.0624(3) 0.3228(3) 0.40455(14)
F46 F 0.3557(3) -0.0424(3) 0.38859(15)
F47 F 0.1934(3) 0.1038(3) 0.38993(17)
F48 F 0.2867(3) 0.0672(3) 0.46206(14)
C1 C 0.7386(5) 0.4220(5) 0.1963(2)
C2 C 0.8407(4) 0.3166(5) 0.1949(2)
C3 C 0.8741(5) 0.2402(5) 0.1465(2)
C4 C 0.8019(5) 0.2660(5) 0.1019(2)
C5 C 0.7202(5) 0.3847(5) 0.0926(2)
C6 C 0.6831(5) 0.4548(5) 0.1474(2)
C7 C 0.5597(5) 0.5222(5) 0.1546(2)
C8 C 0.4941(5) 0.5709(4) 0.2091(2)
C9 C 0.5512(5) 0.5519(5) 0.2572(2)
C10 C 0.6688(5) 0.4700(5) 0.2540(3)
C11 C 0.7022(4) 0.4102(5) 0.3079(2)
C12 C 0.7996(4) 0.3134(5) 0.3047(2)
C13 C 0.8738(4) 0.2700(5) 0.2476(2)
C14 C 0.9381(4) 0.1541(5) 0.2581(2)
C15 C 0.9769(4) 0.0816(5) 0.2130(2)
C16 C 0.9409(4) 0.1252(5) 0.1569(2)
C17 C 0.9264(4) 0.0391(5) 0.1307(2)
C18 C 0.8489(5) 0.0662(5) 0.0916(2)
C19 C 0.7878(5) 0.1804(5) 0.0766(2)
C20 C 0.6740(5) 0.1932(5) 0.0522(2)
C21 C 0.5677(5) 0.2949(5) 0.0786(2)
C22 C 0.5941(5) 0.3878(5) 0.0875(2)
C23 C 0.5032(5) 0.4780(5) 0.1190(2)
C24 C 0.3856(5) 0.4769(5) 0.1428(2)
C25 C 0.3183(5) 0.5273(5) 0.1988(2)
C26 C 0.3679(5) 0.5784(4) 0.2306(3)
C27 C 0.3426(5) 0.5705(5) 0.2931(3)
C28 C 0.4498(5) 0.5840(4) 0.3145(3)
C29 C 0.4836(5) 0.4987(5) 0.3628(2)
C30 C 0.6168(5) 0.4350(5) 0.3692(2)
C31 C 0.6093(4) 0.3255(4) 0.4018(2)
C32 C 0.7194(4) 0.2204(5) 0.4049(2)
C33 C 0.8165(4) 0.2199(5) 0.3484(2)
C34 C 0.9001(4) 0.1255(5) 0.3202(2)
C35 C 0.8975(5) 0.0103(5) 0.3384(2)
C36 C 0.9164(5) -0.0547(5) 0.2828(2)
C37 C 0.9965(5) -0.0423(5) 0.2223(2)
C38 C 0.9405(5) -0.0579(5) 0.1728(2)
C39 C 0.8554(4) -0.1052(5) 0.1807(2)
C40 C 0.7652(5) -0.0711(5) 0.1432(2)
C41 C 0.7796(5) -0.0066(5) 0.0846(2)
C42 C 0.6554(5) 0.0843(5) 0.0775(2)
C43 C 0.5488(4) 0.0786(5) 0.1089(2)
C44 C 0.4273(5) 0.1810(5) 0.1153(2)
C45 C 0.4492(5) 0.2915(5) 0.1052(2)
C46 C 0.3606(5) 0.3814(5) 0.1371(2)
C47 C 0.2551(5) 0.3744(5) 0.1899(2)
C48 C 0.2486(4) 0.4622(5) 0.2302(2)
C49 C 0.2319(4) 0.4498(4) 0.2903(3)
C50 C 0.2755(4) 0.5080(4) 0.3221(2)
C51 C 0.2891(4) 0.4544(4) 0.3828(2)
C52 C 0.4155(4) 0.4385(4) 0.3910(2)
C53 C 0.4920(4) 0.3333(4) 0.4149(2)
C54 C 0.4507(4) 0.2354(5) 0.4322(2)
C55 C 0.5567(4) 0.1330(4) 0.4063(2)
C56 C 0.6810(4) 0.1195(4) 0.3991(2)
C57 C 0.7643(5) 0.0253(5) 0.3680(2)
C58 C 0.7246(5) -0.0388(4) 0.3386(2)
C59 C 0.8235(4) -0.0901(5) 0.2886(2)
C60 C 0.7975(5) -0.1421(5) 0.2414(2)
C61 C 0.6604(5) -0.0894(5) 0.2386(3)
C62 C 0.6542(5) -0.0655(4) 0.1775(2)
C63 C 0.5367(4) -0.0067(4) 0.1575(2)
C64 C 0.4463(5) 0.0696(5) 0.2067(2)
C65 C 0.3769(4) 0.1696(5) 0.1836(2)
C66 C 0.3024(4) 0.2598(5) 0.2198(2)
C67 C 0.2976(4) 0.2430(5) 0.2820(2)
C68 C 0.2215(4) 0.3445(4) 0.3232(2)
C69 C 0.2845(4) 0.3383(5) 0.3747(2)
C70 C 0.3548(4) 0.2429(5) 0.3963(2)
C71 C 0.3841(4) 0.1309(4) 0.3712(2)
C72 C 0.5176(4) 0.0726(4) 0.3754(2)
C73 C 0.6018(5) -0.0109(4) 0.3372(2)
C74 C 0.5686(5) -0.0290(4) 0.2830(2)
C75 C 0.4564(4) 0.0559(4) 0.2667(2)
C76 C 0.3755(4) 0.1436(5) 0.3048(2)
C77 C 0.7833(6) 0.4409(6) 0.0379(3)
C78 C 0.6929(5) 0.2056(5) -0.0170(2)
C79 C 0.4186(5) 0.7066(5) 0.3305(3)
C80 C 0.6615(5) 0.4980(5) 0.4058(3)
C81 C 0.7658(5) 0.2131(5) 0.4634(2)
C82 C 0.9880(5) -0.0591(5) 0.3781(2)
C83 C 1.1321(5) -0.1154(6) 0.2138(3)
C84 C 0.8438(5) -0.0897(5) 0.0341(3)
C85 C 0.3474(5) 0.1721(5) 0.0729(2)
C86 C 0.1308(5) 0.4076(5) 0.1723(3)
C87 C 0.1852(5) 0.5244(5) 0.4306(3)
C88 C 0.4132(5) 0.2180(5) 0.5012(2)
C89 C 0.8411(5) -0.2701(5) 0.2514(3)
C90 C 0.4900(5) -0.0957(5) 0.1445(3)
C91 C 0.0859(5) 0.3497(5) 0.3467(3)
C92 C 0.3026(5) 0.0659(5) 0.4029(3)
F49? F 0.496(4) 0.726(3) 0.353(2)
F50? F 0.306(4) 0.737(4) 0.377(3)
F51? F 0.392(6) 0.771(4) 0.279(3)
loop_
_geom_bond_atom_site_label_1
_geom_bond_atom_site_label_2
_geom_bond_site_symmetry_1
_geom_bond_site_symmetry_2
F1 C77 1_555 1_555
F2 C77 1_555 1_555
F3 C77 1_555 1_555
F4 C78 1_555 1_555
F5 C78 1_555 1_555
F6 C78 1_555 1_555
F7 C79 1_555 1_555
F8 C79 1_555 1_555
F9 C79 1_555 1_555
F10 C80 1_555 1_555
F11 C80 1_555 1_555
F12 C80 1_555 1_555
F13 C81 1_555 1_555
F14 C81 1_555 1_555
F15 C81 1_555 1_555
F16 C82 1_555 1_555
F17 C82 1_555 1_555
F18 C82 1_555 1_555
F19 C83 1_555 1_555
F20 C83 1_555 1_555
F21 C83 1_555 1_555
F22 C84 1_555 1_555
F23 C84 1_555 1_555
F24 C84 1_555 1_555
F25 C85 1_555 1_555
F26 C85 1_555 1_555
F27 C85 1_555 1_555
F28 C86 1_555 1_555
F29 C86 1_555 1_555
F30 C86 1_555 1_555
F31 C87 1_555 1_555
F32 C87 1_555 1_555
F33 C87 1_555 1_555
F34 C88 1_555 1_555
F35 C88 1_555 1_555
F36 C88 1_555 1_555
F37 C89 1_555 1_555
F38 C89 1_555 1_555
F39 C89 1_555 1_555
F40 C90 1_555 1_555
F41 C90 1_555 1_555
F42 C90 1_555 1_555
F43 C91 1_555 1_555
F44 C91 1_555 1_555
F45 C91 1_555 1_555
F46 C92 1_555 1_555
F47 C92 1_555 1_555
F48 C92 1_555 1_555
C1 C2 1_555 1_555
C2 C3 1_555 1_555
C3 C4 1_555 1_555
C4 C5 1_555 1_555
C5 C6 1_555 1_555
C6 C1 1_555 1_555
C7 C6 1_555 1_555
C8 C7 1_555 1_555
C9 C8 1_555 1_555
C10 C1 1_555 1_555
C11 C10 1_555 1_555
C12 C11 1_555 1_555
C13 C2 1_555 1_555
C14 C13 1_555 1_555
C15 C14 1_555 1_555
C16 C3 1_555 1_555
C17 C16 1_555 1_555
C18 C17 1_555 1_555
C19 C4 1_555 1_555
C20 C19 1_555 1_555
C21 C20 1_555 1_555
C22 C5 1_555 1_555
C23 C7 1_555 1_555
C24 C23 1_555 1_555
C25 C24 1_555 1_555
C26 C8 1_555 1_555
C27 C26 1_555 1_555
C28 C9 1_555 1_555
C29 C28 1_555 1_555
C30 C11 1_555 1_555
C31 C30 1_555 1_555
C32 C31 1_555 1_555
C33 C12 1_555 1_555
C34 C14 1_555 1_555
C35 C34 1_555 1_555
C36 C35 1_555 1_555
C37 C15 1_555 1_555
C38 C17 1_555 1_555
C39 C38 1_555 1_555
C40 C39 1_555 1_555
C41 C18 1_555 1_555
C42 C20 1_555 1_555
C43 C42 1_555 1_555
C44 C43 1_555 1_555
C45 C21 1_555 1_555
C46 C24 1_555 1_555
C47 C46 1_555 1_555
C48 C25 1_555 1_555
C49 C48 1_555 1_555
C50 C27 1_555 1_555
C51 C50 1_555 1_555
C52 C29 1_555 1_555
C53 C31 1_555 1_555
C54 C53 1_555 1_555
C55 C54 1_555 1_555
C56 C32 1_555 1_555
C57 C35 1_555 1_555
C58 C57 1_555 1_555
C59 C36 1_555 1_555
C60 C39 1_555 1_555
C61 C60 1_555 1_555
C62 C40 1_555 1_555
C63 C43 1_555 1_555
C64 C63 1_555 1_555
C65 C44 1_555 1_555
C66 C47 1_555 1_555
C67 C66 1_555 1_555
C68 C49 1_555 1_555
C69 C51 1_555 1_555
C70 C54 1_555 1_555
C71 C70 1_555 1_555
C72 C55 1_555 1_555
C73 C58 1_555 1_555
C74 C61 1_555 1_555
C75 C64 1_555 1_555
C76 C67 1_555 1_555
C77 C5 1_555 1_555
C78 C20 1_555 1_555
C79 C28 1_555 1_555
C80 C30 1_555 1_555
C81 C32 1_555 1_555
C82 C35 1_555 1_555
C83 C37 1_555 1_555
C84 C41 1_555 1_555
C85 C44 1_555 1_555
C86 C47 1_555 1_555
C87 C51 1_555 1_555
C88 C54 1_555 1_555
C89 C60 1_555 1_555
C90 C63 1_555 1_555
C91 C68 1_555 1_555
C92 C71 1_555 1_555
C9 C10 1_555 1_555
C12 C13 1_555 1_555
C15 C16 1_555 1_555
C18 C19 1_555 1_555
C21 C22 1_555 1_555
C22 C23 1_555 1_555
C25 C26 1_555 1_555
C27 C28 1_555 1_555
C29 C30 1_555 1_555
C32 C33 1_555 1_555
C33 C34 1_555 1_555
C36 C37 1_555 1_555
C37 C38 1_555 1_555
C40 C41 1_555 1_555
C41 C42 1_555 1_555
C44 C45 1_555 1_555
C45 C46 1_555 1_555
C47 C48 1_555 1_555
C49 C50 1_555 1_555
C51 C52 1_555 1_555
C52 C53 1_555 1_555
C55 C56 1_555 1_555
C56 C57 1_555 1_555
C58 C59 1_555 1_555
C59 C60 1_555 1_555
C61 C62 1_555 1_555
C62 C63 1_555 1_555
C64 C65 1_555 1_555
C65 C66 1_555 1_555
C67 C68 1_555 1_555
C68 C69 1_555 1_555
C69 C70 1_555 1_555
C71 C72 1_555 1_555
C71 C76 1_555 1_555
C72 C73 1_555 1_555
C73 C74 1_555 1_555
C74 C75 1_555 1_555
C75 C76 1_555 1_555

#END
