
#######################################################################
#
#                 Cambridge Crystallographic Data Centre
#                                CCDC 
#
#######################################################################
#
# If this CIF has been generated from an entry in the Cambridge 
# Structural Database, then it will include bibliographic, chemical, 
# crystal, experimental, refinement or atomic coordinate data resulting 
# from the CCDC's data processing and validation procedures.
#
#######################################################################

data_XEMHAA
_chemical_formula_moiety         'C100 F54,0.5(C8 H10)'
_chemical_name_systematic        
'octadecakis(trifluoromethyl)-C82fullerene p-xylene solvate'
_symmetry_cell_setting           triclinic
_symmetry_space_group_name_H-M   'P -1'
_symmetry_Int_Tables_number      2
_space_group_name_Hall           '-P 1'
loop_
_symmetry_equiv_pos_site_id
_symmetry_equiv_pos_as_xyz
1 x,y,z
2 -x,-y,-z
_cell_length_a                   13.997(1)
_cell_length_b                   14.687(1)
_cell_length_c                   19.647(1)
_cell_angle_alpha                95.602(5)
_cell_angle_beta                 91.603(5)
_cell_angle_gamma                112.059(5)
_cell_volume                     3716.22
_exptl_crystal_colour            orange
_exptl_crystal_description       plate
_cell_formula_units_Z            2
loop_
_atom_site_label
_atom_site_type_symbol
_atom_site_fract_x
_atom_site_fract_y
_atom_site_fract_z
F1 F 0.8137(3) 0.7775(3) 0.56152(16)
F2 F 0.8581(3) 0.9191(3) 0.52758(18)
F3 F 0.6994(3) 0.8348(3) 0.53885(19)
F4 F 1.0033(3) 0.6112(3) 0.52752(17)
F5 F 0.8667(3) 0.6164(3) 0.56665(16)
F6 F 0.9914(3) 0.7500(2) 0.54992(16)
F7 F 0.4979(3) 0.6768(3) 0.50054(16)
F8 F 0.5246(3) 0.8178(3) 0.46593(17)
F9 F 0.3995(3) 0.6901(3) 0.41995(18)
F10 F 0.7768(3) 1.0163(3) 0.4494(2)
F11 F 0.9369(3) 1.0517(2) 0.43818(19)
F12 F 0.8472(3) 1.0915(2) 0.36537(19)
F13 F 1.1523(4) 0.7466(5) 0.4648(2)
F14 F 1.2437(4) 0.7467(5) 0.3798(2)
F15 F 1.1652(4) 0.6118(4) 0.4225(3)
F16 F 0.6945(3) 0.2854(2) 0.44511(16)
F17 F 0.5734(3) 0.1823(3) 0.37651(17)
F18 F 0.7288(3) 0.1971(3) 0.36230(19)
F19 F 0.3668(3) 0.5038(3) 0.4314(2)
F20 F 0.3784(3) 0.3640(3) 0.4085(2)
F21 F 0.2897(3) 0.4109(3) 0.34064(19)
F22 F 0.5272(3) 0.9318(3) 0.2593(2)
F23 F 0.4694(3) 0.8572(3) 0.3455(2)
F24 F 0.6099(3) 0.9819(3) 0.3576(3)
F25 F 1.0878(4) 1.1040(3) 0.2285(2)
F26 F 1.1556(3) 1.0636(3) 0.3119(3)
F27 F 1.0352(3) 1.1104(3) 0.3262(2)
F28 F 1.2868(3) 0.8394(3) 0.2705(2)
F29 F 1.2444(3) 0.9266(3) 0.3485(2)
F30 F 1.2502(3) 0.9597(3) 0.2454(2)
F31 F 1.2127(3) 0.5603(3) 0.2839(3)
F32 F 1.1009(3) 0.4165(3) 0.2943(2)
F33 F 1.1430(5) 0.4556(5) 0.1962(2)
F34 F 0.9248(3) 0.2593(3) 0.29307(17)
F35 F 0.9584(3) 0.2711(3) 0.18822(18)
F36 F 0.8114(3) 0.1743(3) 0.2153(2)
F37 F 0.3935(4) 0.1597(3) 0.2775(2)
F38 F 0.4171(3) 0.1364(3) 0.1715(2)
F39 F 0.5107(3) 0.1081(3) 0.2464(2)
F40 F 0.3741(3) 0.2663(3) 0.06308(19)
F41 F 0.3144(3) 0.3736(3) 0.1034(2)
F42 F 0.3039(3) 0.2514(3) 0.15888(18)
F43 F 0.5573(3) 0.8544(3) 0.0627(2)
F44 F 0.4454(3) 0.7074(3) 0.0693(2)
F45 F 0.4554(3) 0.8271(3) 0.1446(2)
F46 F 1.1586(4) 0.6511(6) 0.0607(2)
F47 F 1.2403(4) 0.7748(5) 0.1297(5)
F48 F 1.2232(4) 0.6312(5) 0.1537(3)
F49 F 0.6721(3) 0.2422(3) 0.02274(16)
F50 F 0.7809(4) 0.2097(3) 0.08475(19)
F51 F 0.6205(3) 0.1476(3) 0.10223(18)
F52 F 0.8593(4) 0.5523(3) -0.05386(19)
F53 F 0.9419(4) 0.7069(3) -0.05506(18)
F54 F 1.0198(4) 0.6158(4) -0.0260(2)
C1 C 0.7169(4) 0.6698(4) 0.4407(3)
C2 C 0.7728(5) 0.7797(4) 0.4452(3)
C3 C 0.8776(5) 0.8018(4) 0.4120(3)
C4 C 0.9328(4) 0.7406(4) 0.4138(3)
C5 C 0.8900(4) 0.6479(4) 0.4510(2)
C6 C 0.7718(4) 0.6107(4) 0.4464(3)
C7 C 0.7291(4) 0.5107(4) 0.4216(2)
C8 C 0.6283(4) 0.4670(4) 0.3926(3)
C9 C 0.5699(4) 0.5263(4) 0.3874(3)
C10 C 0.6142(5) 0.6279(5) 0.4113(3)
C11 C 0.5681(5) 0.7014(4) 0.3913(3)
C12 C 0.6462(13) 0.8006(13) 0.3664(7)
C13 C 0.7371(15) 0.8333(12) 0.3941(7)
C14 C 0.8199(5) 0.9211(4) 0.3588(3)
C15 C 0.9010(5) 0.8747(4) 0.3674(3)
C16 C 0.9808(5) 0.8864(4) 0.3236(3)
C17 C 1.0365(4) 0.8258(4) 0.3256(3)
C18 C 1.0122(5) 0.7521(4) 0.3700(3)
C19 C 1.0613(4) 0.6750(5) 0.3580(3)
C20 C 0.9789(4) 0.5729(4) 0.3626(3)
C21 C 0.9035(4) 0.5626(4) 0.4074(2)
C22 C 0.8109(4) 0.4801(4) 0.3969(3)
C23 C 0.7937(4) 0.4048(4) 0.3451(3)
C24 C 0.6844(4) 0.3285(4) 0.3329(3)
C25 C 0.6050(4) 0.3758(4) 0.3474(3)
C26 C 0.5276(4) 0.3451(4) 0.2957(3)
C27 C 0.4724(4) 0.4075(4) 0.2862(3)
C28 C 0.4715(4) 0.4868(4) 0.3409(3)
C29 C 0.4689(5) 0.5671(5) 0.2982(3)
C30 C 0.5151(5) 0.6648(5) 0.3197(3)
C31 C 0.5473(5) 0.7320(5) 0.2685(3)
C32 C 0.6156(5) 0.8363(5) 0.2990(3)
C33 C 0.6997(5) 0.8823(5) 0.2525(3)
C34 C 0.8021(5) 0.9265(4) 0.2819(3)
C35 C 0.8846(5) 0.9469(4) 0.2416(3)
C36 C 0.9906(4) 0.9514(4) 0.2652(3)
C37 C 1.0175(4) 0.8999(4) 0.2012(3)
C38 C 1.0652(4) 0.8347(5) 0.2015(3)
C39 C 1.1079(5) 0.8169(4) 0.2686(4)
C40 C 1.0961(9) 0.7104(14) 0.2387(8)
C41 C 1.0759(8) 0.6426(14) 0.2799(9)
C42 C 1.0377(4) 0.5321(4) 0.2520(3)
C43 C 0.9628(5) 0.4991(5) 0.3087(3)
C44 C 0.8706(4) 0.4146(4) 0.2991(3)
C45 C 0.8443(4) 0.3478(4) 0.2317(3)
C46 C 0.7287(5) 0.3063(4) 0.2124(3)
C47 C 0.6550(5) 0.2908(4) 0.2572(3)
C48 C 0.5442(5) 0.2784(4) 0.2384(3)
C49 C 0.5381(5) 0.3219(4) 0.1716(3)
C50 C 0.4694(5) 0.3781(4) 0.1580(3)
C51 C 0.4548(4) 0.4305(4) 0.2229(3)
C52 C 0.4610(5) 0.5324(4) 0.2289(3)
C53 C 0.5021(5) 0.5949(5) 0.1791(3)
C54 C 0.5392(5) 0.6964(5) 0.1999(3)
C55 C 0.5910(5) 0.7659(4) 0.1480(3)
C56 C 0.6827(5) 0.8561(4) 0.1825(3)
C57 C 0.7668(5) 0.8737(4) 0.1417(3)
C58 C 0.8667(5) 0.9206(4) 0.1706(3)
C59 C 0.9485(5) 0.8910(4) 0.1461(3)
C60 C 0.9271(5) 0.8155(4) 0.0925(3)
C61 C 0.9777(5) 0.7496(4) 0.0923(3)
C62 C 1.0466(5) 0.7589(5) 0.1466(3)
C63 C 1.0769(5) 0.6739(5) 0.1605(3)
C64 C 0.9859(5) 0.5752(5) 0.1405(3)
C65 C 0.9722(5) 0.5010(5) 0.1839(3)
C66 C 0.8842(5) 0.4169(4) 0.1760(3)
C67 C 0.8063(5) 0.4068(4) 0.1279(3)
C68 C 0.7083(5) 0.3192(4) 0.1374(3)
C69 C 0.6160(4) 0.3449(4) 0.1295(3)
C70 C 0.6188(5) 0.4275(4) 0.0934(3)
C71 C 0.5361(5) 0.4556(4) 0.1143(3)
C72 C 0.5449(5) 0.5517(4) 0.1191(3)
C73 C 0.6285(5) 0.6200(4) 0.0865(3)
C74 C 0.6479(5) 0.7200(4) 0.0982(3)
C75 C 0.7449(5) 0.7915(4) 0.0891(3)
C76 C 0.8226(5) 0.7627(5) 0.0652(3)
C77 C 0.8045(5) 0.6630(5) 0.0512(3)
C78 C 0.9079(5) 0.6494(4) 0.0530(3)
C79 C 0.9047(5) 0.5655(4) 0.0932(3)
C80 C 0.8099(5) 0.4842(4) 0.0899(3)
C81 C 0.7099(5) 0.4933(4) 0.0713(3)
C82 C 0.7114(5) 0.5896(4) 0.0621(3)
C83 C 0.7854(6) 0.8290(4) 0.5184(3)
C84 C 0.9387(5) 0.6585(4) 0.5248(3)
C85 C 0.4964(5) 0.7220(5) 0.4445(3)
C86 C 0.8460(6) 1.0213(4) 0.4030(3)
C87 C 1.1567(6) 0.6946(5) 0.4073(4)
C88 C 0.6707(5) 0.2463(4) 0.3799(3)
C89 C 0.3744(5) 0.4404(5) 0.3801(3)
C90 C 0.5559(6) 0.9026(5) 0.3154(4)
C91 C 1.0689(5) 1.0585(4) 0.2833(3)
C92 C 1.2251(5) 0.8882(5) 0.2842(4)
C93 C 1.1254(5) 0.4906(5) 0.2562(3)
C94 C 0.8855(6) 0.2628(5) 0.2319(3)
C95 C 0.4657(5) 0.1694(5) 0.2333(3)
C96 C 0.3622(5) 0.3153(5) 0.1200(3)
C97 C 0.5105(6) 0.7892(5) 0.1062(4)
C98 C 1.1778(6) 0.6828(6) 0.1277(3)
C99 C 0.6945(6) 0.2284(5) 0.0867(3)
C100 C 0.9342(7) 0.6323(5) -0.0206(3)
C101 C 1.1017(7) 1.0041(6) 0.0124(4)
C102 C 1.0356(7) 0.9389(5) -0.0383(4)
H1 H 1.0585 0.8951 -0.0658
C103 C 1.0646(7) 1.0654(5) 0.0510(4)
H2 H 1.1082 1.1114 0.0870
C104 C 1.2075(8) 1.0070(7) 0.0279(5)
H3 H 1.2103 0.9429 0.0117
H4 H 1.2245 1.0212 0.0775
H5 H 1.2574 1.0588 0.0048
C101A C 0.8983(7) 0.9959(6) -0.0124(4)
C102A C 0.9644(7) 1.0611(5) 0.0383(4)
H1A H 0.9415 1.1049 0.0658
C103A C 0.9354(7) 0.9346(5) -0.0510(4)
H2A H 0.8918 0.8886 -0.0870
C104A C 0.7925(8) 0.9930(7) -0.0279(5)
H3A H 0.7897 1.0571 -0.0117
H4A H 0.7755 0.9788 -0.0775
H5A H 0.7426 0.9412 -0.0048
C105? C 0.7029(19) 0.8542(15) 0.3597(10)
C106? C 0.6745(17) 0.7834(17) 0.4023(9)
C107? C 1.0945(11) 0.7120(19) 0.2898(9)
C108? C 1.0841(13) 0.649(2) 0.2381(11)
F55? F 1.217(4) 0.672(6) 0.384(3)
F56? F 1.129(4) 0.658(3) 0.472(3)
F57? F 1.202(4) 0.802(4) 0.438(3)
F58? F 1.110(3) 0.408(4) 0.223(3)
F59? F 1.201(5) 0.555(5) 0.235(4)
F60? F 1.154(4) 0.501(4) 0.331(2)
F61? F 1.258(2) 0.716(4) 0.1754(14)
F62? F 1.181(2) 0.602(2) 0.0905(17)
F63? F 1.198(3) 0.740(2) 0.085(2)
loop_
_geom_bond_atom_site_label_1
_geom_bond_atom_site_label_2
_geom_bond_site_symmetry_1
_geom_bond_site_symmetry_2
F1 C83 1_555 1_555
F2 C83 1_555 1_555
F3 C83 1_555 1_555
F4 C84 1_555 1_555
F5 C84 1_555 1_555
F6 C84 1_555 1_555
F7 C85 1_555 1_555
F8 C85 1_555 1_555
F9 C85 1_555 1_555
F10 C86 1_555 1_555
F11 C86 1_555 1_555
F12 C86 1_555 1_555
F13 C87 1_555 1_555
F14 C87 1_555 1_555
F15 C87 1_555 1_555
F16 C88 1_555 1_555
F17 C88 1_555 1_555
F18 C88 1_555 1_555
F19 C89 1_555 1_555
F20 C89 1_555 1_555
F21 C89 1_555 1_555
F22 C90 1_555 1_555
F23 C90 1_555 1_555
F24 C90 1_555 1_555
F25 C91 1_555 1_555
F26 C91 1_555 1_555
F27 C91 1_555 1_555
F28 C92 1_555 1_555
F29 C92 1_555 1_555
F30 C92 1_555 1_555
F31 C93 1_555 1_555
F32 C93 1_555 1_555
F33 C93 1_555 1_555
F34 C94 1_555 1_555
F35 C94 1_555 1_555
F36 C94 1_555 1_555
F37 C95 1_555 1_555
F38 C95 1_555 1_555
F39 C95 1_555 1_555
F40 C96 1_555 1_555
F41 C96 1_555 1_555
F42 C96 1_555 1_555
F43 C97 1_555 1_555
F44 C97 1_555 1_555
F45 C97 1_555 1_555
F46 C98 1_555 1_555
F47 C98 1_555 1_555
F48 C98 1_555 1_555
F49 C99 1_555 1_555
F50 C99 1_555 1_555
F51 C99 1_555 1_555
F52 C100 1_555 1_555
F53 C100 1_555 1_555
F54 C100 1_555 1_555
C1 C2 1_555 1_555
C2 C3 1_555 1_555
C3 C4 1_555 1_555
C4 C5 1_555 1_555
C5 C6 1_555 1_555
C6 C1 1_555 1_555
C7 C6 1_555 1_555
C8 C7 1_555 1_555
C9 C8 1_555 1_555
C10 C1 1_555 1_555
C11 C10 1_555 1_555
C12 C11 1_555 1_555
C13 C2 1_555 1_555
C14 C13 1_555 1_555
C15 C3 1_555 1_555
C16 C15 1_555 1_555
C17 C16 1_555 1_555
C18 C4 1_555 1_555
C19 C18 1_555 1_555
C20 C19 1_555 1_555
C21 C5 1_555 1_555
C22 C7 1_555 1_555
C23 C22 1_555 1_555
C24 C23 1_555 1_555
C25 C8 1_555 1_555
C26 C25 1_555 1_555
C27 C26 1_555 1_555
C28 C9 1_555 1_555
C29 C28 1_555 1_555
C30 C11 1_555 1_555
C31 C30 1_555 1_555
C32 C12 1_555 1_555
C33 C32 1_555 1_555
C34 C14 1_555 1_555
C35 C34 1_555 1_555
C36 C16 1_555 1_555
C37 C36 1_555 1_555
C38 C37 1_555 1_555
C39 C17 1_555 1_555
C40 C39 1_555 1_555
C41 C19 1_555 1_555
C42 C41 1_555 1_555
C43 C20 1_555 1_555
C44 C23 1_555 1_555
C45 C44 1_555 1_555
C46 C45 1_555 1_555
C47 C24 1_555 1_555
C48 C26 1_555 1_555
C49 C48 1_555 1_555
C50 C49 1_555 1_555
C51 C27 1_555 1_555
C52 C29 1_555 1_555
C53 C52 1_555 1_555
C54 C31 1_555 1_555
C55 C54 1_555 1_555
C56 C33 1_555 1_555
C57 C56 1_555 1_555
C58 C35 1_555 1_555
C59 C37 1_555 1_555
C60 C59 1_555 1_555
C61 C60 1_555 1_555
C62 C38 1_555 1_555
C63 C40 1_555 1_555
C64 C63 1_555 1_555
C65 C42 1_555 1_555
C66 C45 1_555 1_555
C67 C66 1_555 1_555
C68 C46 1_555 1_555
C69 C49 1_555 1_555
C70 C69 1_555 1_555
C71 C50 1_555 1_555
C72 C53 1_555 1_555
C73 C72 1_555 1_555
C74 C55 1_555 1_555
C75 C57 1_555 1_555
C76 C60 1_555 1_555
C77 C76 1_555 1_555
C78 C61 1_555 1_555
C79 C64 1_555 1_555
C80 C67 1_555 1_555
C81 C70 1_555 1_555
C82 C73 1_555 1_555
C83 C2 1_555 1_555
C84 C5 1_555 1_555
C85 C11 1_555 1_555
C86 C14 1_555 1_555
C87 C19 1_555 1_555
C88 C24 1_555 1_555
C89 C28 1_555 1_555
C90 C32 1_555 1_555
C91 C36 1_555 1_555
C92 C39 1_555 1_555
C93 C42 1_555 1_555
C94 C45 1_555 1_555
C95 C48 1_555 1_555
C96 C50 1_555 1_555
C97 C55 1_555 1_555
C98 C63 1_555 1_555
C99 C68 1_555 1_555
C100 C78 1_555 1_555
C101 C102 1_555 1_555
C102 H1 1_555 1_555
C103 C101 1_555 1_555
H2 C103 1_555 1_555
C104 C101 1_555 1_555
H3 C104 1_555 1_555
H4 C104 1_555 1_555
H5 C104 1_555 1_555
C101A C102A 1_555 1_555
C102A C103 1_555 1_555
H1A C102A 1_555 1_555
C103A C102 1_555 1_555
H2A C103A 1_555 1_555
C104A C101A 1_555 1_555
H3A C104A 1_555 1_555
H4A C104A 1_555 1_555
H5A C104A 1_555 1_555
C9 C10 1_555 1_555
C12 C13 1_555 1_555
C14 C15 1_555 1_555
C17 C18 1_555 1_555
C20 C21 1_555 1_555
C21 C22 1_555 1_555
C24 C25 1_555 1_555
C27 C28 1_555 1_555
C29 C30 1_555 1_555
C31 C32 1_555 1_555
C33 C34 1_555 1_555
C35 C36 1_555 1_555
C38 C39 1_555 1_555
C40 C41 1_555 1_555
C42 C43 1_555 1_555
C43 C44 1_555 1_555
C46 C47 1_555 1_555
C47 C48 1_555 1_555
C50 C51 1_555 1_555
C51 C52 1_555 1_555
C53 C54 1_555 1_555
C55 C56 1_555 1_555
C57 C58 1_555 1_555
C58 C59 1_555 1_555
C61 C62 1_555 1_555
C62 C63 1_555 1_555
C64 C65 1_555 1_555
C65 C66 1_555 1_555
C67 C68 1_555 1_555
C68 C69 1_555 1_555
C70 C71 1_555 1_555
C71 C72 1_555 1_555
C73 C74 1_555 1_555
C74 C75 1_555 1_555
C75 C76 1_555 1_555
C77 C78 1_555 1_555
C77 C82 1_555 1_555
C78 C79 1_555 1_555
C79 C80 1_555 1_555
C80 C81 1_555 1_555
C81 C82 1_555 1_555
C101A C103A 1_555 1_555

#END
