
#######################################################################
#
#                 Cambridge Crystallographic Data Centre
#                                CCDC 
#
#######################################################################
#
# If this CIF has been generated from an entry in the Cambridge 
# Structural Database, then it will include bibliographic, chemical, 
# crystal, experimental, refinement or atomic coordinate data resulting 
# from the CCDC's data processing and validation procedures.
#
#######################################################################

data_XEMQUD
_chemical_formula_moiety         'C23 H27 N1 O6'
_chemical_name_systematic        
4-(2,3,5,6,8,9,11,12,14,15-Decahydro-1,4,7,10,13,16-benzohexaoxacyclooctadecin-18-ylethynyl)pyridine
_symmetry_cell_setting           orthorhombic
_symmetry_space_group_name_H-M   'P 21 21 21'
_symmetry_Int_Tables_number      19
_space_group_name_Hall           'P 2ac 2ab'
loop_
_symmetry_equiv_pos_site_id
_symmetry_equiv_pos_as_xyz
1 x,y,z
2 1/2-x,-y,1/2+z
3 -x,1/2+y,1/2-z
4 1/2+x,1/2-y,-z
_cell_length_a                   4.4952(5)
_cell_length_b                   16.1797(17)
_cell_length_c                   28.966(3)
_cell_angle_alpha                90
_cell_angle_beta                 90
_cell_angle_gamma                90
_cell_volume                     2106.73
_exptl_crystal_colour            colorless
_exptl_crystal_description       needle
_chemical_melting_point          '118-120 deg.C'
_cell_formula_units_Z            4
_exptl_crystal_recrystallization_method dichloromethane/hexane
loop_
_atom_site_label
_atom_site_type_symbol
_atom_site_fract_x
_atom_site_fract_y
_atom_site_fract_z
O1 O 0.6684(7) 0.27526(16) 0.58810(9)
O2 O 0.3051(6) 0.39066(16) 0.61064(10)
O3 O 0.1813(7) 0.39958(18) 0.70831(10)
O4 O 0.6295(7) 0.22504(19) 0.74651(10)
O5 O 0.7770(7) 0.06377(17) 0.70993(10)
O6 O 0.6616(7) 0.09577(17) 0.60945(10)
N1 N 0.4429(10) 0.8342(2) 0.37150(15)
C1 C 0.5930(12) 0.7669(3) 0.35676(17)
H1 H 0.6797 0.7687 0.3269
C2 C 0.6282(12) 0.6957(3) 0.38251(17)
H2 H 0.7323 0.6499 0.3698
C3 C 0.5123(11) 0.6908(3) 0.42666(17)
C4 C 0.3622(12) 0.7591(3) 0.44276(16)
H3 H 0.2769 0.7591 0.4728
C5 C 0.3372(13) 0.8287(3) 0.41414(17)
H4 H 0.2368 0.8756 0.4263
C6 C 0.5485(11) 0.6171(3) 0.45514(18)
C7 C 0.5891(11) 0.5574(3) 0.47601(16)
C8 C 0.6138(10) 0.4839(3) 0.50403(15)
C9 C 0.8039(10) 0.4202(3) 0.49126(14)
H5 H 0.9163 0.4245 0.4636
C10 C 0.8308(10) 0.3492(3) 0.51913(15)
H6 H 0.9665 0.3068 0.5107
C11 C 0.6611(10) 0.3408(3) 0.55858(15)
C12 C 0.4631(9) 0.4046(3) 0.57118(15)
C13 C 0.4427(10) 0.4761(3) 0.54467(16)
H7 H 0.3138 0.5196 0.5539
C14 C 0.9069(9) 0.2160(2) 0.58051(14)
H8 H 1.1018 0.2445 0.5805
H9 H 0.8808 0.1883 0.5503
C15 C 0.1406(11) 0.4568(3) 0.63078(15)
H10 H -0.0071 0.4785 0.6085
H11 H 0.2759 0.5024 0.6397
C16 C -0.0138(10) 0.4229(3) 0.67267(15)
H12 H -0.1530 0.4652 0.6846
H13 H -0.1329 0.3742 0.6634
C17 C 0.2720(10) 0.3149(2) 0.70693(15)
H14 H 0.3838 0.3033 0.6782
H15 H 0.0966 0.2780 0.7082
C18 C 0.4700(11) 0.3018(3) 0.74915(15)
H16 H 0.6136 0.3479 0.7515
H17 H 0.3455 0.3020 0.7773
C19 C 0.4520(10) 0.1530(3) 0.75481(16)
H18 H 0.2979 0.1474 0.7306
H19 H 0.3516 0.1574 0.7851
C20 C 0.6529(11) 0.0799(3) 0.75420(15)
H20 H 0.8165 0.0891 0.7765
H21 H 0.5400 0.0307 0.7645
C21 C 0.5817(10) 0.0169(3) 0.68110(16)
H22 H 0.3797 0.0413 0.6820
H23 H 0.5691 -0.0406 0.6926
C22 C 0.6963(11) 0.0171(3) 0.63208(16)
H24 H 0.9098 0.0020 0.6323
H25 H 0.5887 -0.0256 0.6142
C23 C 0.8948(10) 0.1531(3) 0.61919(15)
H26 H 1.0873 0.1237 0.6215
H27 H 0.8563 0.1812 0.6490
loop_
_geom_bond_atom_site_label_1
_geom_bond_atom_site_label_2
_geom_bond_site_symmetry_1
_geom_bond_site_symmetry_2
O1 C11 1_555 1_555
O2 C12 1_555 1_555
O3 C16 1_555 1_555
O4 C18 1_555 1_555
O5 C20 1_555 1_555
O6 C22 1_555 1_555
N1 C1 1_555 1_555
C1 H1 1_555 1_555
C2 C1 1_555 1_555
H2 C2 1_555 1_555
C3 C2 1_555 1_555
C4 C3 1_555 1_555
H3 C4 1_555 1_555
C5 N1 1_555 1_555
H4 C5 1_555 1_555
C6 C3 1_555 1_555
C7 C6 1_555 1_555
C8 C7 1_555 1_555
C9 C8 1_555 1_555
H5 C9 1_555 1_555
C10 C9 1_555 1_555
H6 C10 1_555 1_555
C11 C10 1_555 1_555
C12 C11 1_555 1_555
C13 C8 1_555 1_555
H7 C13 1_555 1_555
C14 O1 1_555 1_555
H8 C14 1_555 1_555
H9 C14 1_555 1_555
C15 O2 1_555 1_555
H10 C15 1_555 1_555
H11 C15 1_555 1_555
C16 C15 1_555 1_555
H12 C16 1_555 1_555
H13 C16 1_555 1_555
C17 O3 1_555 1_555
H14 C17 1_555 1_555
H15 C17 1_555 1_555
C18 C17 1_555 1_555
H16 C18 1_555 1_555
H17 C18 1_555 1_555
C19 O4 1_555 1_555
H18 C19 1_555 1_555
H19 C19 1_555 1_555
C20 C19 1_555 1_555
H20 C20 1_555 1_555
H21 C20 1_555 1_555
C21 O5 1_555 1_555
H22 C21 1_555 1_555
H23 C21 1_555 1_555
C22 C21 1_555 1_555
H24 C22 1_555 1_555
H25 C22 1_555 1_555
C23 O6 1_555 1_555
H26 C23 1_555 1_555
H27 C23 1_555 1_555
C4 C5 1_555 1_555
C12 C13 1_555 1_555
C14 C23 1_555 1_555

#END
