
#######################################################################
#
#                 Cambridge Crystallographic Data Centre
#                                CCDC 
#
#######################################################################
#
# If this CIF has been generated from an entry in the Cambridge 
# Structural Database, then it will include bibliographic, chemical, 
# crystal, experimental, refinement or atomic coordinate data resulting 
# from the CCDC's data processing and validation procedures.
#
#######################################################################

data_XEMSEQ
_chemical_formula_moiety         'C22 H24 N2 O1'
_chemical_name_systematic        
2,4-bis{[4-(dimethylamino)phenyl]methylidene}cyclobutan-1-one
_symmetry_cell_setting           monoclinic
_symmetry_space_group_name_H-M   'P 21/c'
_symmetry_Int_Tables_number      14
_space_group_name_Hall           '-P 2ybc'
loop_
_symmetry_equiv_pos_site_id
_symmetry_equiv_pos_as_xyz
1 x,y,z
2 -x,1/2+y,1/2-z
3 -x,-y,-z
4 x,1/2-y,1/2+z
_cell_length_a                   7.489(2)
_cell_length_b                   19.945(6)
_cell_length_c                   12.403(3)
_cell_angle_alpha                90
_cell_angle_beta                 96.965(10)
_cell_angle_gamma                90
_cell_volume                     1838.94
_exptl_crystal_colour            red
_exptl_crystal_description       Block
_cell_formula_units_Z            4
loop_
_atom_site_label
_atom_site_type_symbol
_atom_site_fract_x
_atom_site_fract_y
_atom_site_fract_z
C1 C 0.3977(4) 0.87434(16) 0.0775(3)
H1 H 0.4577 0.8528 0.0228
H2 H 0.4543 0.9167 0.0961
H3 H 0.2737 0.8815 0.0502
C2 C 0.4595(5) 0.86356(19) 0.2759(2)
H4 H 0.3586 0.8636 0.3169
H5 H 0.4968 0.9089 0.2652
H6 H 0.5571 0.8391 0.3150
C3 C 0.3486(3) 0.76732(14) 0.1650(2)
C4 C 0.2815(3) 0.73870(15) 0.0656(2)
H7 H 0.2747 0.7646 0.0029
C5 C 0.2253(3) 0.67317(15) 0.0584(2)
H8 H 0.1815 0.6558 -0.0093
C6 C 0.2319(3) 0.63170(15) 0.14980(19)
C7 C 0.3003(4) 0.66040(15) 0.2484(2)
H9 H 0.3082 0.6343 0.3109
C8 C 0.3566(4) 0.72590(15) 0.2568(2)
H10 H 0.4008 0.7431 0.3245
C9 C 0.1678(3) 0.56294(15) 0.1386(2)
H11 H 0.1263 0.5494 0.0682
C10 C 0.1605(3) 0.51675(14) 0.2157(2)
C11 C 0.0908(4) 0.44739(16) 0.2121(2)
C12 C 0.1332(3) 0.44092(14) 0.3317(2)
C13 C 0.2066(4) 0.51246(13) 0.33872(19)
H12 H 0.1383 0.5430 0.3787
H13 H 0.3343 0.5153 0.3634
C14 C 0.1101(4) 0.39091(14) 0.4000(2)
H14 H 0.0586 0.3521 0.3682
C15 C 0.1541(3) 0.38871(13) 0.5168(2)
C16 C 0.1255(4) 0.33043(14) 0.5753(2)
H15 H 0.0789 0.2929 0.5374
C17 C 0.1635(4) 0.32635(15) 0.6866(2)
H16 H 0.1434 0.2862 0.7214
C18 C 0.2316(4) 0.38147(15) 0.7484(2)
C19 C 0.2611(4) 0.43982(15) 0.6899(2)
H17 H 0.3077 0.4775 0.7276
C20 C 0.2239(4) 0.44320(14) 0.5797(2)
H18 H 0.2456 0.4832 0.5449
C21 C 0.2418(5) 0.31768(18) 0.9185(3)
H19 H 0.1247 0.2993 0.8961
H20 H 0.2535 0.3272 0.9949
H21 H 0.3321 0.2859 0.9040
C22 C 0.3316(5) 0.43703(17) 0.9215(2)
H22 H 0.4492 0.4483 0.9038
H23 H 0.3383 0.4270 0.9976
H24 H 0.2517 0.4742 0.9045
N1 N 0.4089(4) 0.83246(13) 0.17261(19)
N2 N 0.2644(3) 0.37906(14) 0.85892(18)
O1 O 0.0247(3) 0.41006(11) 0.13999(15)
loop_
_geom_bond_atom_site_label_1
_geom_bond_atom_site_label_2
_geom_bond_site_symmetry_1
_geom_bond_site_symmetry_2
C1 H1 1_555 1_555
H2 C1 1_555 1_555
H3 C1 1_555 1_555
C2 H4 1_555 1_555
H5 C2 1_555 1_555
H6 C2 1_555 1_555
C3 C4 1_555 1_555
C4 H7 1_555 1_555
C5 C4 1_555 1_555
H8 C5 1_555 1_555
C6 C5 1_555 1_555
C7 C6 1_555 1_555
H9 C7 1_555 1_555
C8 C3 1_555 1_555
H10 C8 1_555 1_555
C9 C6 1_555 1_555
H11 C9 1_555 1_555
C10 C9 1_555 1_555
C11 C10 1_555 1_555
C12 C11 1_555 1_555
C13 C10 1_555 1_555
H12 C13 1_555 1_555
H13 C13 1_555 1_555
C14 C12 1_555 1_555
H14 C14 1_555 1_555
C15 C14 1_555 1_555
C16 C15 1_555 1_555
H15 C16 1_555 1_555
C17 C16 1_555 1_555
H16 C17 1_555 1_555
C18 C17 1_555 1_555
C19 C18 1_555 1_555
H17 C19 1_555 1_555
C20 C15 1_555 1_555
H18 C20 1_555 1_555
C21 H19 1_555 1_555
H20 C21 1_555 1_555
H21 C21 1_555 1_555
C22 H22 1_555 1_555
H23 C22 1_555 1_555
H24 C22 1_555 1_555
N1 C1 1_555 1_555
N2 C18 1_555 1_555
O1 C11 1_555 1_555
C2 N1 1_555 1_555
C3 N1 1_555 1_555
C7 C8 1_555 1_555
C12 C13 1_555 1_555
C19 C20 1_555 1_555
C21 N2 1_555 1_555
C22 N2 1_555 1_555

#END
