
#######################################################################
#
#                 Cambridge Crystallographic Data Centre
#                                CCDC 
#
#######################################################################
#
# If this CIF has been generated from an entry in the Cambridge 
# Structural Database, then it will include bibliographic, chemical, 
# crystal, experimental, refinement or atomic coordinate data resulting 
# from the CCDC's data processing and validation procedures.
#
#######################################################################

data_XEMTAN
_chemical_formula_moiety         'C21 H24 Br1 N1 O6 S1'
_chemical_name_systematic        
'diethyl [(4-bromophenyl){[(4-methylphenyl)sulfonyl]amino}methyl]propanedioate'
_symmetry_cell_setting           orthorhombic
_symmetry_space_group_name_H-M   'P 21 21 21'
_symmetry_Int_Tables_number      19
_space_group_name_Hall           'P 2ac 2ab'
loop_
_symmetry_equiv_pos_site_id
_symmetry_equiv_pos_as_xyz
1 x,y,z
2 1/2+x,1/2-y,-z
3 -x,1/2+y,1/2-z
4 1/2-x,-y,1/2+z
_cell_length_a                   9.7594(11)
_cell_length_b                   12.6345(14)
_cell_length_c                   17.835(2)
_cell_angle_alpha                90
_cell_angle_beta                 90
_cell_angle_gamma                90
_cell_volume                     2199.15
_exptl_crystal_colour            colorless
_exptl_crystal_description       prism
_cell_formula_units_Z            4
loop_
_atom_site_label
_atom_site_type_symbol
_atom_site_fract_x
_atom_site_fract_y
_atom_site_fract_z
Br1 Br 0.79175(5) 0.06955(4) 0.13436(3)
S1 S 0.73945(9) 0.21293(8) 0.52085(6)
O1 O 0.6500(4) 0.5195(4) 0.27073(18)
O2 O 0.5685(3) 0.6046(2) 0.46589(17)
O3 O 0.7694(3) 0.5399(2) 0.50885(15)
O4 O 0.8331(3) 0.5737(3) 0.33540(17)
O5 O 0.8824(3) 0.2380(3) 0.53129(17)
O6 O 0.6530(3) 0.1972(3) 0.58481(18)
C1 C 0.4323(5) 0.7386(4) 0.5208(3)
H1 H 0.4204 0.7701 0.4711
H2 H 0.4277 0.7942 0.5591
H3 H 0.3595 0.6867 0.5298
C2 C 0.7004(6) 0.5830(5) 0.2037(3)
H4 H 0.6262 0.5942 0.1667
H5 H 0.7372 0.6526 0.2194
C3 C 0.7282(4) 0.5260(3) 0.3314(2)
C4 C 0.6658(4) 0.4663(3) 0.3970(2)
H6 H 0.5673 0.4505 0.3861
C5 C 0.7434(3) 0.3618(3) 0.41128(19)
H7 H 0.8387 0.3795 0.4277
N1 N 0.6720(3) 0.3101(3) 0.47431(18)
H8 H 0.5900 0.3328 0.4871
C6 C 0.7287(4) 0.0994(3) 0.4640(3)
C7 C 0.8371(4) 0.0721(4) 0.4176(3)
H9 H 0.9214 0.1095 0.4202
C8 C 0.8204(4) -0.0114(4) 0.3669(3)
H10 H 0.8942 -0.0315 0.3352
C9 C 0.6959(5) -0.0653(4) 0.3625(3)
C10 C 0.6794(7) -0.1538(5) 0.3062(4)
H11 H 0.6856 -0.2221 0.3320
H12 H 0.7521 -0.1489 0.2684
H13 H 0.5899 -0.1477 0.2817
C11 C 0.7751(4) 0.1657(3) 0.2158(2)
C12 C 0.6487(4) 0.1780(4) 0.2496(2)
H14 H 0.5705 0.1424 0.2305
C13 C 0.6377(4) 0.2433(3) 0.3120(2)
H15 H 0.5511 0.2530 0.3353
C14 C 0.7524(3) 0.2945(3) 0.3406(2)
C15 C 0.6755(4) 0.5392(3) 0.4647(2)
C16 C 0.5677(5) 0.6851(4) 0.5248(3)
H16 H 0.6425 0.7368 0.5166
H17 H 0.5806 0.6519 0.5746
C17 C 0.8054(9) 0.5173(6) 0.1740(3)
H18 H 0.8787 0.5095 0.2112
H19 H 0.8426 0.5496 0.1284
H20 H 0.7673 0.4475 0.1620
C18 C 0.6048(4) 0.0452(4) 0.4604(3)
H21 H 0.5310 0.0646 0.4923
C19 C 0.5901(5) -0.0365(4) 0.4106(3)
H22 H 0.5060 -0.0742 0.4088
C20 C 0.8788(4) 0.2824(3) 0.3046(2)
H23 H 0.9571 0.3186 0.3232
C21 C 0.8909(4) 0.2180(4) 0.2420(2)
H24 H 0.9766 0.2098 0.2174
loop_
_geom_bond_atom_site_label_1
_geom_bond_atom_site_label_2
_geom_bond_site_symmetry_1
_geom_bond_site_symmetry_2
Br1 C11 1_555 1_555
S1 O5 1_555 1_555
O1 C2 1_555 1_555
O2 C15 1_555 1_555
O3 C15 1_555 1_555
O4 C3 1_555 1_555
O6 S1 1_555 1_555
C1 H1 1_555 1_555
H2 C1 1_555 1_555
H3 C1 1_555 1_555
C2 H4 1_555 1_555
H5 C2 1_555 1_555
C3 O1 1_555 1_555
C4 C3 1_555 1_555
H6 C4 1_555 1_555
C5 C4 1_555 1_555
H7 C5 1_555 1_555
N1 S1 1_555 1_555
H8 N1 1_555 1_555
C6 S1 1_555 1_555
C7 C6 1_555 1_555
H9 C7 1_555 1_555
C8 C7 1_555 1_555
H10 C8 1_555 1_555
C9 C8 1_555 1_555
C10 C9 1_555 1_555
H11 C10 1_555 1_555
H12 C10 1_555 1_555
H13 C10 1_555 1_555
C11 C12 1_555 1_555
C12 H14 1_555 1_555
C13 C12 1_555 1_555
H15 C13 1_555 1_555
C14 C5 1_555 1_555
C15 C4 1_555 1_555
C16 O2 1_555 1_555
H16 C16 1_555 1_555
H17 C16 1_555 1_555
C17 C2 1_555 1_555
H18 C17 1_555 1_555
H19 C17 1_555 1_555
H20 C17 1_555 1_555
C18 C6 1_555 1_555
H21 C18 1_555 1_555
C19 C9 1_555 1_555
H22 C19 1_555 1_555
C20 C14 1_555 1_555
H23 C20 1_555 1_555
C21 C11 1_555 1_555
H24 C21 1_555 1_555
C1 C16 1_555 1_555
C5 N1 1_555 1_555
C13 C14 1_555 1_555
C18 C19 1_555 1_555
C20 C21 1_555 1_555

#END
