
#######################################################################
#
#                 Cambridge Crystallographic Data Centre
#                                CCDC 
#
#######################################################################
#
# If this CIF has been generated from an entry in the Cambridge 
# Structural Database, then it will include bibliographic, chemical, 
# crystal, experimental, refinement or atomic coordinate data resulting 
# from the CCDC's data processing and validation procedures.
#
#######################################################################

data_XEMWER
_chemical_formula_moiety         'C15 H14 N2'
_chemical_name_systematic        4-(Dimethylamino)-3-cyanobiphenyl
_symmetry_cell_setting           triclinic
_symmetry_space_group_name_H-M   'P 1'
_symmetry_Int_Tables_number      1
_space_group_name_Hall           'P 1'
loop_
_symmetry_equiv_pos_site_id
_symmetry_equiv_pos_as_xyz
1 x,y,z
_cell_length_a                   9.7790(2)
_cell_length_b                   11.4354(4)
_cell_length_c                   23.4368(4)
_cell_angle_alpha                86.662(3)
_cell_angle_beta                 78.317(2)
_cell_angle_gamma                73.823(2)
_cell_volume                     2464.94
_exptl_crystal_colour            colorless
_exptl_crystal_description       needle
_cell_formula_units_Z            8
_exptl_crystal_recrystallization_method ethanol
loop_
_atom_site_label
_atom_site_type_symbol
_atom_site_fract_x
_atom_site_fract_y
_atom_site_fract_z
C1 C 0.5872(7) 0.0652(6) 0.0610(3)
H1 H 0.5994(7) 0.0174(6) 0.0287(3)
C2 C 0.5926(7) 0.0108(6) 0.1146(3)
H2 H 0.6154(7) -0.0733(6) 0.1186(3)
C3 C 0.5677(6) 0.0776(5) 0.1634(3)
H3 H 0.5695(6) 0.0404(5) 0.1996(3)
C4 C 0.5391(6) 0.2027(5) 0.1614(2)
C5 C 0.5317(6) 0.2609(6) 0.1076(2)
H4 H 0.5088(6) 0.3453(6) 0.1052(2)
C6 C 0.5569(7) 0.1911(6) 0.0583(2)
H5 H 0.5571(7) 0.2283(6) 0.0220(2)
C7 C 0.5165(6) 0.2746(5) 0.2160(2)
C8 C 0.5802(6) 0.2256(5) 0.2627(2)
H6 H 0.6375(6) 0.1455(5) 0.2595(2)
C9 C 0.5633(6) 0.2909(5) 0.3128(2)
C10 C 0.4727(7) 0.4116(6) 0.3187(2)
C11 C 0.4165(7) 0.4653(5) 0.2698(2)
H7 H 0.3639(7) 0.5468(5) 0.2704(2)
C12 C 0.4383(6) 0.3961(5) 0.2203(2)
H8 H 0.3992(6) 0.4332(5) 0.1887(2)
N1 N 0.4529(6) 0.4793(4) 0.3694(2)
C13 C 0.4202(7) 0.4225(6) 0.4281(3)
H9 H 0.3284(7) 0.4665(6) 0.4504(3)
H10 H 0.4963(7) 0.4230(6) 0.4482(3)
H11 H 0.4197(7) 0.3401(6) 0.4230(3)
C14 C 0.3878(8) 0.6103(6) 0.3688(3)
H12 H 0.3986(8) 0.6441(6) 0.4035(3)
H13 H 0.2870(8) 0.6326(6) 0.3662(3)
H14 H 0.4418(8) 0.6412(6) 0.3355(3)
C15 C 0.6493(7) 0.2363(5) 0.3542(2)
N2 N 0.7252(7) 0.1887(6) 0.3852(2)
C16 C 1.0871(6) 0.4144(6) 0.5624(3)
H15 H 1.1025(6) 0.4607(6) 0.5292(3)
C17 C 1.0250(7) 0.4702(5) 0.6167(2)
H16 H 1.0028(7) 0.5542(5) 0.6198(2)
C18 C 1.0045(6) 0.3981(5) 0.6661(3)
H17 H 0.9645(6) 0.4360(5) 0.7019(3)
C19 C 1.0362(6) 0.2734(5) 0.6625(2)
C20 C 1.0960(6) 0.2202(5) 0.6076(2)
H18 H 1.1199(6) 0.1362(5) 0.6040(2)
C21 C 1.1198(7) 0.2897(6) 0.5593(2)
H19 H 1.1600(7) 0.2520(6) 0.5234(2)
C22 C 1.0065(5) 0.1996(5) 0.7156(2)
C23 C 0.9007(6) 0.2474(5) 0.7628(2)
H20 H 0.8471(6) 0.3283(5) 0.7616(2)
C24 C 0.8672(6) 0.1812(4) 0.8143(2)
C25 C 0.9520(6) 0.0592(5) 0.8175(2)
C26 C 1.0549(6) 0.0090(5) 0.7691(2)
H21 H 1.1068(6) -0.0724(5) 0.7704(2)
C27 C 1.0799(6) 0.0763(5) 0.7193(2)
H22 H 1.1487(6) 0.0384(5) 0.6877(2)
N3 N 0.9254(6) -0.0080(4) 0.8689(2)
C28 C 0.9024(8) 0.0471(6) 0.9274(3)
H23 H 0.9599(8) -0.0064(6) 0.9520(3)
H24 H 0.8015(8) 0.0637(6) 0.9451(3)
H25 H 0.9295(8) 0.1219(6) 0.9222(3)
C29 C 0.9897(9) -0.1393(5) 0.8670(3)
H26 H 0.9456(9) -0.1768(5) 0.9007(3)
H27 H 1.0918(9) -0.1559(5) 0.8663(3)
H28 H 0.9752(9) -0.1715(5) 0.8326(3)
C30 C 0.7433(7) 0.2341(5) 0.8564(2)
N4 N 0.6390(7) 0.2738(5) 0.8893(3)
C31 C 0.9587(7) 0.9054(6) 0.3305(3)
H29 H 0.9370(7) 0.9490(6) 0.3649(3)
C32 C 0.9554(7) 0.9644(6) 0.2774(3)
H30 H 0.9404(7) 1.0483(6) 0.2763(3)
C33 C 0.9779(6) 0.8971(5) 0.2267(2)
H31 H 0.9748(6) 0.9392(5) 0.1917(2)
C34 C 1.0041(6) 0.7689(5) 0.2294(2)
C35 C 1.0075(6) 0.7159(6) 0.2841(2)
H32 H 1.0215(6) 0.6322(6) 0.2875(2)
C36 C 0.9878(7) 0.7821(6) 0.3345(3)
H33 H 1.0003(7) 0.7414(6) 0.3693(3)
C37 C 1.0238(6) 0.6980(5) 0.1769(2)
C38 C 0.9621(6) 0.7492(5) 0.1296(2)
H34 H 0.9079(6) 0.8303(5) 0.1306(2)
C39 C 0.9819(6) 0.6824(5) 0.0792(2)
C40 C 1.0710(6) 0.5612(4) 0.0720(2)
C41 C 1.1285(7) 0.5124(6) 0.1202(3)
H35 H 1.1836(7) 0.4315(6) 0.1182(3)
C42 C 1.1045(7) 0.5748(5) 0.1710(2)
H36 H 1.1463(7) 0.5356(5) 0.2017(2)
N5 N 1.0973(6) 0.4972(4) 0.0219(2)
C43 C 1.1238(9) 0.5540(7) -0.0333(2)
H37 H 1.0518(9) 0.5550(7) -0.0559(2)
H38 H 1.2173(9) 0.5079(7) -0.0535(2)
H39 H 1.1259(9) 0.6358(7) -0.0279(2)
C44 C 1.1642(10) 0.3666(6) 0.0230(3)
H40 H 1.2624(10) 0.3576(6) 0.0271(3)
H41 H 1.1645(10) 0.3313(6) -0.0131(3)
H42 H 1.1171(10) 0.3262(6) 0.0547(3)
C45 C 0.8891(8) 0.7383(5) 0.0376(2)
N6 N 0.8125(7) 0.7806(5) 0.0070(2)
C46 C 0.4549(7) -0.4394(6) 0.8279(3)
H43 H 0.4378(7) -0.4865(6) 0.8608(3)
C47 C 0.5092(7) -0.4933(5) 0.7752(3)
H44 H 0.5312(7) -0.5774(5) 0.7722(3)
C48 C 0.5392(6) -0.4277(5) 0.7259(2)
H45 H 0.5758(6) -0.4666(5) 0.6901(2)
C49 C 0.5089(6) -0.2995(5) 0.7281(2)
C50 C 0.4505(6) -0.2443(5) 0.7825(2)
H46 H 0.4315(6) -0.1605(5) 0.7858(2)
C51 C 0.4217(6) -0.3141(6) 0.8327(2)
H47 H 0.3802(6) -0.2765(6) 0.8685(2)
C52 C 0.5402(6) -0.2263(4) 0.6749(2)
C53 C 0.6477(6) -0.2759(5) 0.6273(2)
H48 H 0.7009(6) -0.3569(5) 0.6286(2)
C54 C 0.6728(6) -0.2063(5) 0.5788(2)
C55 C 0.5921(6) -0.0860(5) 0.5714(2)
C56 C 0.4888(7) -0.0366(5) 0.6213(3)
H49 H 0.4346(7) 0.0443(5) 0.6210(3)
C57 C 0.4638(7) -0.1049(5) 0.6704(2)
H50 H 0.3935(7) -0.0687(5) 0.7020(2)
N7 N 0.6144(6) -0.0190(4) 0.5221(2)
C58 C 0.6300(8) -0.0707(6) 0.4657(2)
H51 H 0.7178(8) -0.0615(6) 0.4413(2)
H52 H 0.5481(8) -0.0256(6) 0.4495(2)
H53 H 0.6324(8) -0.1551(6) 0.4682(2)
C59 C 0.5539(9) 0.1128(5) 0.5249(3)
H54 H 0.4531(9) 0.1350(5) 0.5224(3)
H55 H 0.6068(9) 0.1477(5) 0.4927(3)
H56 H 0.5643(9) 0.1426(5) 0.5607(3)
C60 C 0.8016(8) -0.2596(5) 0.5351(3)
N8 N 0.9051(7) -0.3050(5) 0.5024(2)
C61 C 0.9581(7) -0.4496(5) 0.8224(3)
H57 H 0.9426(7) -0.4969(5) 0.8553(3)
C62 C 1.1003(7) -0.4419(5) 0.7986(2)
H58 H 1.1783(7) -0.4853(5) 0.8152(2)
C63 C 1.1264(6) -0.3715(4) 0.7491(2)
H59 H 1.2202(6) -0.3677(4) 0.7332(2)
C64 C 1.0101(6) -0.3048(4) 0.7241(2)
C65 C 0.8708(6) -0.3112(5) 0.7483(2)
H60 H 0.7927(6) -0.2673(5) 0.7318(2)
C66 C 0.8452(7) -0.3843(6) 0.7980(2)
H61 H 0.7523(7) -0.3910(6) 0.8133(2)
C67 C 1.0368(6) -0.2318(4) 0.6704(2)
C68 C 1.1679(6) -0.2603(5) 0.6306(2)
H62 H 1.2452(6) -0.3227(5) 0.6392(2)
C69 C 1.1873(6) -0.1997(5) 0.5777(2)
C70 C 1.0775(6) -0.1007(4) 0.5628(2)
C71 C 0.9493(7) -0.0701(5) 0.6031(2)
H63 H 0.8745(7) -0.0046(5) 0.5951(2)
C72 C 0.9292(7) -0.1326(5) 0.6539(2)
H64 H 0.8402(7) -0.1086(5) 0.6793(2)
N9 N 1.0897(6) -0.0375(5) 0.5109(2)
C73 C 1.2372(6) -0.0307(4) 0.4799(2)
H65 H 1.2291(6) 0.0490(4) 0.4633(2)
H66 H 1.2744(6) -0.0904(4) 0.4495(2)
H67 H 1.3020(6) -0.0455(4) 0.5068(2)
C74 C 0.9656(8) 0.0513(6) 0.4962(3)
H68 H 0.9944(8) 0.0853(6) 0.4589(3)
H69 H 0.9250(8) 0.1153(6) 0.5245(3)
H70 H 0.8942(8) 0.0098(6) 0.4940(3)
C75 C 1.3282(7) -0.2505(5) 0.5402(2)
N10 N 1.4355(6) -0.2960(5) 0.5117(2)
C76 C 0.5833(7) 0.4229(5) 0.5692(2)
H71 H 0.6007(7) 0.4709(5) 0.5366(2)
C77 C 0.4471(6) 0.4189(5) 0.5935(2)
H72 H 0.3696(6) 0.4663(5) 0.5778(2)
C78 C 0.4234(6) 0.3470(5) 0.6406(2)
H73 H 0.3284(6) 0.3444(5) 0.6549(2)
C79 C 0.5332(6) 0.2778(5) 0.6678(2)
C80 C 0.6736(6) 0.2839(5) 0.6416(2)
H74 H 0.7516(6) 0.2378(5) 0.6574(2)
C81 C 0.6979(6) 0.3543(5) 0.5941(2)
H75 H 0.7927(6) 0.3549(5) 0.5780(2)
C82 C 0.5088(6) 0.2064(4) 0.7215(2)
C83 C 0.3801(6) 0.2368(5) 0.7609(2)
H76 H 0.3055(6) 0.3014(5) 0.7519(2)
C84 C 0.3554(6) 0.1735(5) 0.8136(2)
C85 C 0.4668(7) 0.0740(5) 0.8291(2)
C86 C 0.5995(6) 0.0452(5) 0.7869(2)
H77 H 0.6761(6) -0.0198(5) 0.7938(2)
C87 C 0.6180(6) 0.1103(5) 0.7360(2)
H78 H 0.7074(6) 0.0882(5) 0.7107(2)
N11 N 0.4487(6) 0.0067(4) 0.8789(2)
C88 C 0.3598(11) 0.0591(9) 0.9319(4)
H79 H 0.3793(11) 0.0004(9) 0.9622(4)
H80 H 0.2601(11) 0.0753(9) 0.9284(4)
H81 H 0.3781(11) 0.1330(9) 0.9413(4)
C89 C 0.5739(10) -0.0857(7) 0.8937(3)
H82 H 0.5468(10) -0.1204(7) 0.9310(3)
H83 H 0.6527(10) -0.0516(7) 0.8943(3)
H84 H 0.6038(10) -0.1478(7) 0.8645(3)
C90 C 0.2227(7) 0.2239(5) 0.8526(3)
N12 N 0.1115(7) 0.2730(5) 0.8811(2)
C91 C 0.4553(7) 0.9286(6) 0.3218(3)
H85 H 0.4378(7) 0.9802(6) 0.3531(3)
C92 C 0.3414(7) 0.9175(5) 0.2987(2)
H86 H 0.2473(7) 0.9581(5) 0.3165(2)
C93 C 0.3641(6) 0.8471(5) 0.2493(2)
H87 H 0.2851(6) 0.8443(5) 0.2337(2)
C94 C 0.5058(6) 0.7820(4) 0.2239(2)
C95 C 0.6190(6) 0.7893(5) 0.2495(2)
H88 H 0.7133(6) 0.7461(5) 0.2333(2)
C96 C 0.5975(7) 0.8641(6) 0.2982(2)
H89 H 0.6752(7) 0.8667(6) 0.3148(2)
C97 C 0.5332(6) 0.7076(4) 0.1719(2)
C98 C 0.4437(6) 0.7370(5) 0.1308(2)
H90 H 0.3590(6) 0.8007(5) 0.1379(2)
C99 C 0.4800(6) 0.6729(5) 0.0779(2)
C100 C 0.6019(7) 0.5768(5) 0.0648(2)
C101 C 0.6896(7) 0.5453(5) 0.1063(2)
H91 H 0.7696(7) 0.4773(5) 0.1008(2)
C102 C 0.6570(7) 0.6109(5) 0.1566(2)
H92 H 0.7222(7) 0.5898(5) 0.1818(2)
N13 N 0.6463(7) 0.5110(5) 0.0134(2)
C103 C 0.5328(12) 0.5161(9) -0.0206(4)
H93 H 0.5838(12) 0.4790(9) -0.0573(4)
H94 H 0.4894(12) 0.6011(9) -0.0264(4)
H95 H 0.4584(12) 0.4777(9) -0.0040(4)
C104 C 0.7804(8) 0.4178(7) -0.0005(3)
H96 H 0.7841(8) 0.3845(7) -0.0376(3)
H97 H 0.7851(8) 0.3547(7) 0.0284(3)
H98 H 0.8610(8) 0.4511(7) -0.0029(3)
C105 C 0.3768(7) 0.7188(5) 0.0405(2)
N14 N 0.2929(6) 0.7646(5) 0.0109(3)
C106 C 1.0850(7) 0.0472(5) 0.0685(2)
H99 H 1.1005(7) -0.0012(5) 0.0361(2)
C107 C 1.1997(6) 0.0510(6) 0.0938(3)
H100 H 1.2938(6) 0.0053(6) 0.0787(3)
C108 C 1.1762(6) 0.1252(5) 0.1404(2)
H101 H 1.2547(6) 0.1291(5) 0.1562(2)
C109 C 1.0389(6) 0.1932(4) 0.1662(2)
C110 C 0.9237(6) 0.1844(5) 0.1408(2)
H102 H 0.8295(6) 0.2279(5) 0.1570(2)
C111 C 0.9497(6) 0.1146(5) 0.0931(2)
H103 H 0.8717(6) 0.1108(5) 0.0769(2)
C112 C 1.0080(6) 0.2657(5) 0.2214(2)
C113 C 1.0975(6) 0.2379(5) 0.2609(2)
H104 H 1.1828(6) 0.1753(5) 0.2519(2)
C114 C 1.0688(7) 0.2998(5) 0.3135(2)
C115 C 0.9383(7) 0.4009(5) 0.3281(2)
C116 C 0.8517(7) 0.4284(5) 0.2850(2)
H105 H 0.7661(7) 0.4912(5) 0.2924(2)
C117 C 0.8858(6) 0.3648(4) 0.2338(2)
H106 H 0.8256(6) 0.3889(4) 0.2068(2)
N15 N 0.9056(6) 0.4651(4) 0.3789(2)
C118 C 0.9153(7) 0.4024(5) 0.4347(2)
H107 H 0.8238(7) 0.4343(5) 0.4604(2)
H108 H 0.9916(7) 0.4170(5) 0.4508(2)
H109 H 0.9323(7) 0.3165(5) 0.4300(2)
C119 C 0.7704(8) 0.5662(7) 0.3881(3)
H110 H 0.7560(8) 0.6040(7) 0.4251(3)
H111 H 0.6902(8) 0.5343(7) 0.3870(3)
H112 H 0.7769(8) 0.6252(7) 0.3577(3)
C120 C 1.1636(7) 0.2541(6) 0.3537(3)
N16 N 1.2421(8) 0.2164(7) 0.3828(2)
loop_
_geom_bond_atom_site_label_1
_geom_bond_atom_site_label_2
_geom_bond_site_symmetry_1
_geom_bond_site_symmetry_2
C1 H1 1_555 1_555
C2 C1 1_555 1_555
H2 C2 1_555 1_555
C3 C2 1_555 1_555
H3 C3 1_555 1_555
C4 C3 1_555 1_555
C5 C4 1_555 1_555
H4 C5 1_555 1_555
C6 C1 1_555 1_555
H5 C6 1_555 1_555
C7 C4 1_555 1_555
C8 C7 1_555 1_555
H6 C8 1_555 1_555
C9 C8 1_555 1_555
C10 C9 1_555 1_555
C11 C10 1_555 1_555
H7 C11 1_555 1_555
C12 C7 1_555 1_555
H8 C12 1_555 1_555
N1 C10 1_555 1_555
C13 N1 1_555 1_555
H9 C13 1_555 1_555
H10 C13 1_555 1_555
H11 C13 1_555 1_555
C14 N1 1_555 1_555
H12 C14 1_555 1_555
H13 C14 1_555 1_555
H14 C14 1_555 1_555
C15 C9 1_555 1_555
N2 C15 1_555 1_555
C16 H15 1_555 1_555
C17 C16 1_555 1_555
H16 C17 1_555 1_555
C18 C17 1_555 1_555
H17 C18 1_555 1_555
C19 C18 1_555 1_555
C20 C19 1_555 1_555
H18 C20 1_555 1_555
C21 C16 1_555 1_555
H19 C21 1_555 1_555
C22 C19 1_555 1_555
C23 C22 1_555 1_555
H20 C23 1_555 1_555
C24 C23 1_555 1_555
C25 C24 1_555 1_555
C26 C25 1_555 1_555
H21 C26 1_555 1_555
C27 C22 1_555 1_555
H22 C27 1_555 1_555
N3 C25 1_555 1_555
C28 N3 1_555 1_555
H23 C28 1_555 1_555
H24 C28 1_555 1_555
H25 C28 1_555 1_555
C29 N3 1_555 1_555
H26 C29 1_555 1_555
H27 C29 1_555 1_555
H28 C29 1_555 1_555
C30 C24 1_555 1_555
N4 C30 1_555 1_555
C31 H29 1_555 1_555
C32 C31 1_555 1_555
H30 C32 1_555 1_555
C33 C32 1_555 1_555
H31 C33 1_555 1_555
C34 C33 1_555 1_555
C35 C34 1_555 1_555
H32 C35 1_555 1_555
C36 C31 1_555 1_555
H33 C36 1_555 1_555
C37 C34 1_555 1_555
C38 C37 1_555 1_555
H34 C38 1_555 1_555
C39 C38 1_555 1_555
C40 C39 1_555 1_555
C41 C40 1_555 1_555
H35 C41 1_555 1_555
C42 C37 1_555 1_555
H36 C42 1_555 1_555
N5 C40 1_555 1_555
C43 N5 1_555 1_555
H37 C43 1_555 1_555
H38 C43 1_555 1_555
H39 C43 1_555 1_555
C44 N5 1_555 1_555
H40 C44 1_555 1_555
H41 C44 1_555 1_555
H42 C44 1_555 1_555
C45 C39 1_555 1_555
N6 C45 1_555 1_555
C46 H43 1_555 1_555
C47 C46 1_555 1_555
H44 C47 1_555 1_555
C48 C47 1_555 1_555
H45 C48 1_555 1_555
C49 C48 1_555 1_555
C50 C49 1_555 1_555
H46 C50 1_555 1_555
C51 C46 1_555 1_555
H47 C51 1_555 1_555
C52 C49 1_555 1_555
C53 C52 1_555 1_555
H48 C53 1_555 1_555
C54 C53 1_555 1_555
C55 C54 1_555 1_555
C56 C55 1_555 1_555
H49 C56 1_555 1_555
C57 C52 1_555 1_555
H50 C57 1_555 1_555
N7 C55 1_555 1_555
C58 N7 1_555 1_555
H51 C58 1_555 1_555
H52 C58 1_555 1_555
H53 C58 1_555 1_555
C59 N7 1_555 1_555
H54 C59 1_555 1_555
H55 C59 1_555 1_555
H56 C59 1_555 1_555
C60 C54 1_555 1_555
N8 C60 1_555 1_555
C61 H57 1_555 1_555
C62 C61 1_555 1_555
H58 C62 1_555 1_555
C63 C62 1_555 1_555
H59 C63 1_555 1_555
C64 C63 1_555 1_555
C65 C64 1_555 1_555
H60 C65 1_555 1_555
C66 C61 1_555 1_555
H61 C66 1_555 1_555
C67 C64 1_555 1_555
C68 C67 1_555 1_555
H62 C68 1_555 1_555
C69 C68 1_555 1_555
C70 C69 1_555 1_555
C71 C70 1_555 1_555
H63 C71 1_555 1_555
C72 C67 1_555 1_555
H64 C72 1_555 1_555
N9 C70 1_555 1_555
C73 N9 1_555 1_555
H65 C73 1_555 1_555
H66 C73 1_555 1_555
H67 C73 1_555 1_555
C74 N9 1_555 1_555
H68 C74 1_555 1_555
H69 C74 1_555 1_555
H70 C74 1_555 1_555
C75 C69 1_555 1_555
N10 C75 1_555 1_555
C76 H71 1_555 1_555
C77 C76 1_555 1_555
H72 C77 1_555 1_555
C78 C77 1_555 1_555
H73 C78 1_555 1_555
C79 C78 1_555 1_555
C80 C79 1_555 1_555
H74 C80 1_555 1_555
C81 C76 1_555 1_555
H75 C81 1_555 1_555
C82 C79 1_555 1_555
C83 C82 1_555 1_555
H76 C83 1_555 1_555
C84 C83 1_555 1_555
C85 C84 1_555 1_555
C86 C85 1_555 1_555
H77 C86 1_555 1_555
C87 C82 1_555 1_555
H78 C87 1_555 1_555
N11 C85 1_555 1_555
C88 N11 1_555 1_555
H79 C88 1_555 1_555
H80 C88 1_555 1_555
H81 C88 1_555 1_555
C89 N11 1_555 1_555
H82 C89 1_555 1_555
H83 C89 1_555 1_555
H84 C89 1_555 1_555
C90 C84 1_555 1_555
N12 C90 1_555 1_555
C91 H85 1_555 1_555
C92 C91 1_555 1_555
H86 C92 1_555 1_555
C93 C92 1_555 1_555
H87 C93 1_555 1_555
C94 C93 1_555 1_555
C95 C94 1_555 1_555
H88 C95 1_555 1_555
C96 C91 1_555 1_555
H89 C96 1_555 1_555
C97 C94 1_555 1_555
C98 C97 1_555 1_555
H90 C98 1_555 1_555
C99 C98 1_555 1_555
C100 C99 1_555 1_555
C101 C100 1_555 1_555
H91 C101 1_555 1_555
C102 C97 1_555 1_555
H92 C102 1_555 1_555
N13 C100 1_555 1_555
C103 N13 1_555 1_555
H93 C103 1_555 1_555
H94 C103 1_555 1_555
H95 C103 1_555 1_555
C104 N13 1_555 1_555
H96 C104 1_555 1_555
H97 C104 1_555 1_555
H98 C104 1_555 1_555
C105 C99 1_555 1_555
N14 C105 1_555 1_555
C106 H99 1_555 1_555
C107 C106 1_555 1_555
H100 C107 1_555 1_555
C108 C107 1_555 1_555
H101 C108 1_555 1_555
C109 C108 1_555 1_555
C110 C109 1_555 1_555
H102 C110 1_555 1_555
C111 C106 1_555 1_555
H103 C111 1_555 1_555
C112 C109 1_555 1_555
C113 C112 1_555 1_555
H104 C113 1_555 1_555
C114 C113 1_555 1_555
C115 C114 1_555 1_555
C116 C115 1_555 1_555
H105 C116 1_555 1_555
C117 C112 1_555 1_555
H106 C117 1_555 1_555
N15 C115 1_555 1_555
C118 N15 1_555 1_555
H107 C118 1_555 1_555
H108 C118 1_555 1_555
H109 C118 1_555 1_555
C119 N15 1_555 1_555
H110 C119 1_555 1_555
H111 C119 1_555 1_555
H112 C119 1_555 1_555
C120 C114 1_555 1_555
N16 C120 1_555 1_555
C5 C6 1_555 1_555
C11 C12 1_555 1_555
C20 C21 1_555 1_555
C26 C27 1_555 1_555
C35 C36 1_555 1_555
C41 C42 1_555 1_555
C50 C51 1_555 1_555
C56 C57 1_555 1_555
C65 C66 1_555 1_555
C71 C72 1_555 1_555
C80 C81 1_555 1_555
C86 C87 1_555 1_555
C95 C96 1_555 1_555
C101 C102 1_555 1_555
C110 C111 1_555 1_555
C116 C117 1_555 1_555

#END
