
#######################################################################
#
#                 Cambridge Crystallographic Data Centre
#                                CCDC 
#
#######################################################################
#
# If this CIF has been generated from an entry in the Cambridge 
# Structural Database, then it will include bibliographic, chemical, 
# crystal, experimental, refinement or atomic coordinate data resulting 
# from the CCDC's data processing and validation procedures.
#
#######################################################################

data_XEMZEU
_chemical_formula_moiety         'C10 H10 N2 2+,2(Cl1 1-)'
_chemical_name_systematic        "4,4'-Bipyridinium dichloride"
_symmetry_cell_setting           monoclinic
_symmetry_space_group_name_H-M   'C 2/c'
_symmetry_Int_Tables_number      15
_space_group_name_Hall           '-C 2yn'
loop_
_symmetry_equiv_pos_site_id
_symmetry_equiv_pos_as_xyz
1 x,y,z
2 1/2+x,1/2+y,z
3 x,-y,1/2+z
4 1/2+x,1/2-y,1/2+z
5 -x,-y,-z
6 1/2-x,1/2-y,-z
7 -x,y,1/2-z
8 1/2-x,1/2+y,1/2-z
_cell_length_a                   12.687(4)
_cell_length_b                   12.0981(19)
_cell_length_c                   7.0707(17)
_cell_angle_alpha                90
_cell_angle_beta                 112.565(18)
_cell_angle_gamma                90
_cell_volume                     1002.19
_exptl_crystal_colour            colorless
_exptl_crystal_description       block
_cell_formula_units_Z            4
loop_
_atom_site_label
_atom_site_type_symbol
_atom_site_fract_x
_atom_site_fract_y
_atom_site_fract_z
Cl1 Cl 0.34820(3) -0.13805(3) 0.22812(5)
N1 N 0.5000 0.07450(14) 0.2500
H1 H 0.5000 -0.001(3) 0.2500
N2 N 0.5000 0.64967(13) 0.2500
H2 H 0.5000 0.726(2) 0.2500
C1 C 0.58678(13) 0.12780(11) 0.2278(2)
H3 H 0.6467 0.0871 0.2110
C2 C 0.58957(12) 0.24157(11) 0.2291(2)
H4 H 0.6518 0.2797 0.2158
C3 C 0.5000 0.30018(15) 0.2500
C4 C 0.5000 0.42310(15) 0.2500
C5 C 0.39764(12) 0.48234(11) 0.1875(2)
H5 H 0.3268 0.4442 0.1445
C6 C 0.39982(13) 0.59649(12) 0.1885(2)
H6 H 0.3305 0.6371 0.1457
C2F C 0.41043(12) 0.24157(11) 0.2709(2)
C1F C 0.41322(13) 0.12780(11) 0.2722(2)
H3F H 0.3533 0.0871 0.2890
H4F H 0.3482 0.2797 0.2842
C6F C 0.60018(13) 0.59649(12) 0.3115(2)
C5F C 0.60236(12) 0.48234(11) 0.3125(2)
H5F H 0.6732 0.4442 0.3555
H6F H 0.6695 0.6371 0.3543
loop_
_geom_bond_atom_site_label_1
_geom_bond_atom_site_label_2
_geom_bond_site_symmetry_1
_geom_bond_site_symmetry_2
N1 H1 1_555 1_555
N2 H2 1_555 1_555
C1 N1 1_555 1_555
H3 C1 1_555 1_555
C2 C1 1_555 1_555
H4 C2 1_555 1_555
C3 C2 1_555 1_555
C4 C3 1_555 1_555
C5 C4 1_555 1_555
H5 C5 1_555 1_555
C6 N2 1_555 1_555
H6 C6 1_555 1_555
C2F C3 1_555 1_555
C1F N1 1_555 1_555
H3F C1F 1_555 1_555
H4F C2F 1_555 1_555
C6F N2 1_555 1_555
C5F C4 1_555 1_555
H5F C5F 1_555 1_555
H6F C6F 1_555 1_555
C5 C6 1_555 1_555
C2F C1F 1_555 1_555
C6F C5F 1_555 1_555

#END
