
#######################################################################
#
#                 Cambridge Crystallographic Data Centre
#                                CCDC 
#
#######################################################################
#
# If this CIF has been generated from an entry in the Cambridge 
# Structural Database, then it will include bibliographic, chemical, 
# crystal, experimental, refinement or atomic coordinate data resulting 
# from the CCDC's data processing and validation procedures.
#
#######################################################################

data_XENFIG
_chemical_formula_moiety         'C18 H12 F3 N3 O1 S2'
_chemical_name_systematic        
3-(5-(3-(Trifluoromethyl)phenyl)-1,3,4-thiadiazol-2-yl)-2-phenylthiazolidin-4-one
_symmetry_cell_setting           triclinic
_symmetry_space_group_name_H-M   'P -1'
_symmetry_Int_Tables_number      2
_space_group_name_Hall           '-P 1'
loop_
_symmetry_equiv_pos_site_id
_symmetry_equiv_pos_as_xyz
1 x,y,z
2 -x,-y,-z
_cell_length_a                   7.5370(15)
_cell_length_b                   10.538(2)
_cell_length_c                   11.380(2)
_cell_angle_alpha                79.86(3)
_cell_angle_beta                 78.03(3)
_cell_angle_gamma                84.70(3)
_cell_volume                     868.926
_exptl_crystal_colour            colorless
_exptl_crystal_description       block
_chemical_melting_point          '452-453 K'
_cell_formula_units_Z            2
_exptl_crystal_recrystallization_method acetone
loop_
_atom_site_label
_atom_site_type_symbol
_atom_site_fract_x
_atom_site_fract_y
_atom_site_fract_z
S1 S 0.42686(8) 0.68681(7) 0.48054(6)
S2 S 0.24768(6) 0.46681(5) 0.13863(4)
F1 F -0.422(2) -0.0008(12) 0.176(2)
F2 F -0.539(3) 0.1814(19) 0.2305(18)
F3 F -0.546(3) 0.144(3) 0.055(2)
O1 O 0.5429(2) 0.58159(18) 0.16410(15)
N1 N 0.2961(2) 0.60499(16) 0.31335(14)
N2 N 0.0151(2) 0.52331(17) 0.32498(15)
N3 N -0.0724(2) 0.44841(17) 0.26988(15)
C1 C 0.0389(4) 0.9932(2) 0.3088(2)
H1 H 0.0779 1.0641 0.2510
C2 C -0.1331(4) 0.9974(2) 0.3783(2)
H2 H -0.2100 1.0712 0.3686
C3 C -0.1902(3) 0.8919(3) 0.4621(2)
H3 H -0.3064 0.8941 0.5097
C4 C -0.0760(3) 0.7819(2) 0.4764(2)
H4 H -0.1166 0.7104 0.5328
C5 C 0.0983(3) 0.77758(18) 0.40725(17)
C6 C 0.1547(3) 0.8848(2) 0.3240(2)
H5 H 0.2718 0.8841 0.2776
C7 C 0.2238(3) 0.65840(19) 0.42685(18)
H6 H 0.1563 0.5922 0.4864
C8 C 0.5735(3) 0.6818(2) 0.3341(2)
H7 H 0.6012 0.7687 0.2936
H8 H 0.6866 0.6333 0.3442
C9 C 0.4763(3) 0.6180(2) 0.2594(2)
C10 C 0.1825(3) 0.53877(17) 0.26751(17)
C11 C 0.0295(2) 0.41173(18) 0.17300(17)
C12 C -0.0348(3) 0.32625(18) 0.10279(17)
C13 C -0.2046(3) 0.27643(19) 0.14750(18)
H9 H -0.2779 0.3009 0.2172
C14 C -0.2636(3) 0.1900(2) 0.08725(19)
C15 C -0.1572(3) 0.1552(2) -0.0186(2)
H10 H -0.1976 0.0965 -0.0580
C16 C 0.0075(3) 0.2076(2) -0.0648(2)
H11 H 0.0774 0.1863 -0.1369
C17 C 0.0707(3) 0.2927(2) -0.00421(19)
H12 H 0.1834 0.3271 -0.0352
C18 C -0.4411(3) 0.1295(2) 0.1371(2)
F4? F -0.517(3) 0.150(3) 0.2483(17)
F5? F -0.420(2) 0.0073(13) 0.142(2)
F6? F -0.564(2) 0.1659(19) 0.0680(19)
loop_
_geom_bond_atom_site_label_1
_geom_bond_atom_site_label_2
_geom_bond_site_symmetry_1
_geom_bond_site_symmetry_2
S1 C7 1_555 1_555
S2 C10 1_555 1_555
F1 C18 1_555 1_555
F2 C18 1_555 1_555
F3 C18 1_555 1_555
O1 C9 1_555 1_555
N1 C7 1_555 1_555
N2 N3 1_555 1_555
N3 C11 1_555 1_555
C1 H1 1_555 1_555
C2 C1 1_555 1_555
H2 C2 1_555 1_555
C3 C2 1_555 1_555
H3 C3 1_555 1_555
C4 C3 1_555 1_555
H4 C4 1_555 1_555
C5 C4 1_555 1_555
C6 C1 1_555 1_555
H5 C6 1_555 1_555
C7 C5 1_555 1_555
H6 C7 1_555 1_555
C8 S1 1_555 1_555
H7 C8 1_555 1_555
H8 C8 1_555 1_555
C9 N1 1_555 1_555
C10 N1 1_555 1_555
C11 S2 1_555 1_555
C12 C11 1_555 1_555
C13 C12 1_555 1_555
H9 C13 1_555 1_555
C14 C13 1_555 1_555
C15 C14 1_555 1_555
H10 C15 1_555 1_555
C16 C15 1_555 1_555
H11 C16 1_555 1_555
C17 C12 1_555 1_555
H12 C17 1_555 1_555
C18 C14 1_555 1_555
N2 C10 1_555 1_555
C5 C6 1_555 1_555
C8 C9 1_555 1_555
C16 C17 1_555 1_555

#END
