
#######################################################################
#
#                 Cambridge Crystallographic Data Centre
#                                CCDC 
#
#######################################################################
#
# If this CIF has been generated from an entry in the Cambridge 
# Structural Database, then it will include bibliographic, chemical, 
# crystal, experimental, refinement or atomic coordinate data resulting 
# from the CCDC's data processing and validation procedures.
#
#######################################################################

data_XENQAL
_chemical_formula_moiety         'C32 H28 N2,x(C5 H10 O2)'
_chemical_name_systematic        
'N-{3-(4-methylphenyl)-2-[4-(4-methylphenyl)quinolin-3-yl]prop-2-en-1-yl}aniline ethyl propanoate solvate'
_symmetry_cell_setting           triclinic
_symmetry_space_group_name_H-M   'P -1'
_symmetry_Int_Tables_number      2
_space_group_name_Hall           '-P 1'
loop_
_symmetry_equiv_pos_site_id
_symmetry_equiv_pos_as_xyz
1 x,y,z
2 -x,-y,-z
_cell_length_a                   10.474(5)
_cell_length_b                   10.511(5)
_cell_length_c                   13.935(6)
_cell_angle_alpha                87.432(8)
_cell_angle_beta                 75.479(7)
_cell_angle_gamma                71.405(8)
_cell_volume                     1406.57
_exptl_crystal_colour            colorless
_exptl_crystal_description       Block
_cell_formula_units_Z            2
loop_
_atom_site_label
_atom_site_type_symbol
_atom_site_fract_x
_atom_site_fract_y
_atom_site_fract_z
N1 N 0.3238(2) 1.09929(19) 0.44668(14)
N2 N 0.8462(2) 0.78042(18) 0.34635(14)
H1 H 0.8057 0.7815 0.4083
C1 C 0.3179(2) 1.1929(2) 0.37437(18)
C2 C 0.2197(3) 1.3232(2) 0.39910(19)
H2 H 0.1628 1.3435 0.4631
C3 C 0.2084(3) 1.4200(3) 0.3284(2)
H3 H 0.1436 1.5050 0.3447
C4 C 0.2947(3) 1.3898(2) 0.2324(2)
H4 H 0.2855 1.4551 0.1850
C5 C 0.3926(3) 1.2657(2) 0.20641(19)
H5 H 0.4490 1.2483 0.1421
C6 C 0.4085(2) 1.1625(2) 0.27800(17)
C7 C 0.5096(2) 1.0324(2) 0.25568(17)
C8 C 0.5165(2) 0.9388(2) 0.33000(16)
C9 C 0.4181(2) 0.9803(2) 0.42319(17)
H6 H 0.4207 0.9171 0.4722
C10 C 0.6186(2) 0.7988(2) 0.31981(17)
C11 C 0.5695(2) 0.6974(2) 0.36011(17)
H7 H 0.4752 0.7241 0.3915
C12 C 0.6433(3) 0.5516(2) 0.36162(17)
C13 C 0.5625(3) 0.4655(3) 0.3706(2)
H8 H 0.4672 0.5016 0.3774
C14 C 0.6238(3) 0.3272(3) 0.3694(2)
H9 H 0.5686 0.2721 0.3744
C15 C 0.7662(3) 0.2685(2) 0.36096(17)
C16 C 0.8448(3) 0.3546(2) 0.35602(17)
H10 H 0.9394 0.3180 0.3524
C17 C 0.7865(3) 0.4931(2) 0.35628(17)
H11 H 0.8420 0.5476 0.3529
C18 C 0.8325(3) 0.1179(2) 0.3596(2)
H12 H 0.8072 0.0861 0.4250
H13 H 0.9319 0.0959 0.3383
H14 H 0.8007 0.0762 0.3145
C19 C 0.7702(2) 0.7781(2) 0.27184(17)
H15 H 0.8109 0.6924 0.2351
H16 H 0.7783 0.8482 0.2253
C20 C 0.9821(2) 0.7809(2) 0.31819(17)
C21 C 1.0625(3) 0.7554(2) 0.21960(18)
H17 H 1.0230 0.7400 0.1703
C22 C 1.2002(3) 0.7529(3) 0.1951(2)
H18 H 1.2517 0.7355 0.1295
C23 C 1.2625(3) 0.7759(3) 0.2667(2)
H19 H 1.3546 0.7746 0.2498
C24 C 1.1831(3) 0.8010(3) 0.3650(2)
H20 H 1.2231 0.8167 0.4140
C25 C 1.0463(2) 0.8029(2) 0.39058(18)
H21 H 0.9958 0.8190 0.4565
C26 C 0.6042(3) 0.9979(2) 0.15385(17)
C27 C 0.7003(3) 1.0660(2) 0.11441(18)
H22 H 0.7025 1.1369 0.1508
C28 C 0.7921(3) 1.0284(3) 0.02171(19)
H23 H 0.8555 1.0742 -0.0029
C29 C 0.7909(3) 0.9231(3) -0.0350(2)
C30 C 0.6951(3) 0.8562(3) 0.00399(19)
H24 H 0.6929 0.7854 -0.0327
C31 C 0.6028(3) 0.8929(2) 0.09652(19)
H25 H 0.5393 0.8470 0.1206
C32 C 0.8902(4) 0.8841(4) -0.1369(2)
H26 H 0.8629 0.9527 -0.1824
H27 H 0.8875 0.8004 -0.1598
H28 H 0.9829 0.8745 -0.1328
loop_
_geom_bond_atom_site_label_1
_geom_bond_atom_site_label_2
_geom_bond_site_symmetry_1
_geom_bond_site_symmetry_2
N1 C1 1_555 1_555
N2 H1 1_555 1_555
C1 C2 1_555 1_555
C2 H2 1_555 1_555
C3 C2 1_555 1_555
H3 C3 1_555 1_555
C4 C3 1_555 1_555
H4 C4 1_555 1_555
C5 C4 1_555 1_555
H5 C5 1_555 1_555
C6 C1 1_555 1_555
C7 C6 1_555 1_555
C8 C7 1_555 1_555
C9 N1 1_555 1_555
H6 C9 1_555 1_555
C10 C8 1_555 1_555
C11 C10 1_555 1_555
H7 C11 1_555 1_555
C12 C11 1_555 1_555
C13 C12 1_555 1_555
H8 C13 1_555 1_555
C14 C13 1_555 1_555
H9 C14 1_555 1_555
C15 C14 1_555 1_555
C16 C15 1_555 1_555
H10 C16 1_555 1_555
C17 C12 1_555 1_555
H11 C17 1_555 1_555
C18 C15 1_555 1_555
H12 C18 1_555 1_555
H13 C18 1_555 1_555
H14 C18 1_555 1_555
C19 N2 1_555 1_555
H15 C19 1_555 1_555
H16 C19 1_555 1_555
C20 N2 1_555 1_555
C21 C20 1_555 1_555
H17 C21 1_555 1_555
C22 C21 1_555 1_555
H18 C22 1_555 1_555
C23 C22 1_555 1_555
H19 C23 1_555 1_555
C24 C23 1_555 1_555
H20 C24 1_555 1_555
C25 C20 1_555 1_555
H21 C25 1_555 1_555
C26 C7 1_555 1_555
C27 C26 1_555 1_555
H22 C27 1_555 1_555
C28 C27 1_555 1_555
H23 C28 1_555 1_555
C29 C28 1_555 1_555
C30 C29 1_555 1_555
H24 C30 1_555 1_555
C31 C26 1_555 1_555
H25 C31 1_555 1_555
C32 C29 1_555 1_555
H26 C32 1_555 1_555
H27 C32 1_555 1_555
H28 C32 1_555 1_555
C5 C6 1_555 1_555
C8 C9 1_555 1_555
C10 C19 1_555 1_555
C16 C17 1_555 1_555
C24 C25 1_555 1_555
C30 C31 1_555 1_555

#END
