
#######################################################################
#
#                 Cambridge Crystallographic Data Centre
#                                CCDC 
#
#######################################################################
#
# If this CIF has been generated from an entry in the Cambridge 
# Structural Database, then it will include bibliographic, chemical, 
# crystal, experimental, refinement or atomic coordinate data resulting 
# from the CCDC's data processing and validation procedures.
#
#######################################################################

data_XENQEN
_chemical_formula_moiety         'C16 H22 O4'
_chemical_name_systematic        
'Heptyl trans-(E)-3-(3,4-dihydroxyphenyl)prop-2-enoate'
_symmetry_cell_setting           triclinic
_symmetry_space_group_name_H-M   'P -1'
_symmetry_Int_Tables_number      2
_space_group_name_Hall           '-P 1'
loop_
_symmetry_equiv_pos_site_id
_symmetry_equiv_pos_as_xyz
1 x,y,z
2 -x,-y,-z
_cell_length_a                   5.296(3)
_cell_length_b                   10.711(13)
_cell_length_c                   13.870(4)
_cell_angle_alpha                98.84(7)
_cell_angle_beta                 90.97(4)
_cell_angle_gamma                96.77(7)
_cell_volume                     771.523
_exptl_crystal_colour            colorless
_exptl_crystal_description       prismatic
_chemical_melting_point          '381-382 K'
_cell_formula_units_Z            2
_exptl_crystal_recrystallization_method benzene
loop_
_atom_site_label
_atom_site_type_symbol
_atom_site_fract_x
_atom_site_fract_y
_atom_site_fract_z
O1 O 0.3471(5) 0.6365(3) 0.5124(2)
H1 H 0.2290 0.6625 0.5453
O2 O 0.7471(5) 0.5874(3) 0.3981(2)
H2 H 0.6565 0.5229 0.3704
O3 O 0.0151(6) 1.2448(3) 0.3755(2)
O4 O 0.2920(6) 1.3043(3) 0.2682(2)
C1 C 0.3102(7) 0.8260(3) 0.4417(3)
H3 H 0.1731 0.8438 0.4803
C2 C 0.4215(7) 0.7201(4) 0.4496(3)
C3 C 0.6280(7) 0.6919(4) 0.3926(3)
C4 C 0.7121(8) 0.7718(4) 0.3280(3)
H4 H 0.8466 0.7523 0.2884
C5 C 0.6011(7) 0.8797(4) 0.3208(3)
H5 H 0.6644 0.9334 0.2779
C6 C 0.3943(7) 0.9098(3) 0.3773(3)
C7 C 0.2708(7) 1.0227(4) 0.3740(3)
H6 H 0.1316 1.0315 0.4134
C8 C 0.3310(8) 1.1153(4) 0.3220(3)
H7 H 0.4672 1.1094 0.2807
C9 C 0.1953(8) 1.2239(4) 0.3266(3)
C10 C 0.1718(9) 1.4175(4) 0.2631(3)
H8 H 0.1999 1.4763 0.3240
H9 H -0.0100 1.3960 0.2502
C11 C 0.2953(9) 1.4764(4) 0.1797(3)
H10 H 0.4755 1.4999 0.1953
H11 H 0.2778 1.4134 0.1209
C12 C 0.1801(8) 1.5914(4) 0.1605(3)
H12 H 0.2041 1.6560 0.2182
H13 H -0.0014 1.5689 0.1475
C13 C 0.2981(10) 1.6463(5) 0.0738(4)
H14 H 0.4782 1.6714 0.0886
H15 H 0.2822 1.5795 0.0175
C14 C 0.1844(11) 1.7579(5) 0.0468(5)
H16 H 0.2170 1.8288 0.0999
H17 H 0.0016 1.7364 0.0379
C15 C 0.2956(14) 1.8000(7) -0.0495(6)
H18 H 0.4748 1.8304 -0.0372
H19 H 0.2836 1.7253 -0.0995
C16 C 0.1808(16) 1.8931(8) -0.0864(5)
H20 H 0.0031 1.8646 -0.0995
H21 H 0.2594 1.9096 -0.1457
H22 H 0.2002 1.9697 -0.0394
loop_
_geom_bond_atom_site_label_1
_geom_bond_atom_site_label_2
_geom_bond_site_symmetry_1
_geom_bond_site_symmetry_2
O1 H1 1_555 1_555
O2 H2 1_555 1_555
O3 C9 1_555 1_555
O4 C9 1_555 1_555
C1 H3 1_555 1_555
C2 O1 1_555 1_555
C3 O2 1_555 1_555
C4 C3 1_555 1_555
H4 C4 1_555 1_555
C5 C4 1_555 1_555
H5 C5 1_555 1_555
C6 C1 1_555 1_555
C7 C6 1_555 1_555
H6 C7 1_555 1_555
C8 C7 1_555 1_555
H7 C8 1_555 1_555
C9 C8 1_555 1_555
C10 O4 1_555 1_555
H8 C10 1_555 1_555
H9 C10 1_555 1_555
C11 C10 1_555 1_555
H10 C11 1_555 1_555
H11 C11 1_555 1_555
C12 C11 1_555 1_555
H12 C12 1_555 1_555
H13 C12 1_555 1_555
C13 C12 1_555 1_555
H14 C13 1_555 1_555
H15 C13 1_555 1_555
C14 C13 1_555 1_555
H16 C14 1_555 1_555
H17 C14 1_555 1_555
C15 C14 1_555 1_555
H18 C15 1_555 1_555
H19 C15 1_555 1_555
C16 C15 1_555 1_555
H20 C16 1_555 1_555
H21 C16 1_555 1_555
H22 C16 1_555 1_555
C1 C2 1_555 1_555
C2 C3 1_555 1_555
C5 C6 1_555 1_555

#END
