
#######################################################################
#
#                 Cambridge Crystallographic Data Centre
#                                CCDC 
#
#######################################################################
#
# If this CIF has been generated from an entry in the Cambridge 
# Structural Database, then it will include bibliographic, chemical, 
# crystal, experimental, refinement or atomic coordinate data resulting 
# from the CCDC's data processing and validation procedures.
#
#######################################################################

data_XENSUE
_chemical_formula_moiety         'C18 H15 N1 O3'
_chemical_name_systematic        
(3R,3'R)-1-Acetyl-1,2-dihydro-2-oxo-3'-phenylspiro(3H-indole-3,2'-oxetane)
_symmetry_cell_setting           monoclinic
_symmetry_space_group_name_H-M   'P 21/c'
_symmetry_Int_Tables_number      14
_space_group_name_Hall           '-P 2ybc'
loop_
_symmetry_equiv_pos_site_id
_symmetry_equiv_pos_as_xyz
1 x,y,z
2 x,1/2-y,1/2+z
3 -x,-y,-z
4 -x,1/2+y,1/2-z
_cell_length_a                   9.4575(2)
_cell_length_b                   17.2629(3)
_cell_length_c                   9.2678(1)
_cell_angle_alpha                90
_cell_angle_beta                 98.894(1)
_cell_angle_gamma                90
_cell_volume                     1494.9
_exptl_crystal_colour            colorless
_exptl_crystal_description       prism
_chemical_melting_point          '108-109 deg.C'
_cell_formula_units_Z            4
_exptl_crystal_recrystallization_method 'petroleum spirit/ethyl acetate'
loop_
_atom_site_label
_atom_site_type_symbol
_atom_site_fract_x
_atom_site_fract_y
_atom_site_fract_z
O1 O -0.15146(18) 0.01924(10) 0.3522(2)
O2 O 0.21917(15) 0.13717(7) 0.29153(17)
O3 O 0.36411(13) 0.05146(7) 0.08712(13)
N1 N 0.05885(15) 0.03351(8) 0.26632(18)
C1 C 0.3965(2) -0.12435(11) 0.4330(2)
H1 H 0.3298 -0.0986 0.4795
C2 C 0.4306(3) -0.20035(13) 0.4686(2)
H2 H 0.3861 -0.2257 0.5380
C3 C 0.5299(3) -0.23872(13) 0.4022(3)
H3 H 0.5548 -0.2895 0.4281
C4 C 0.5920(3) -0.20206(14) 0.2982(3)
H4 H 0.6583 -0.2282 0.2518
C5 C 0.5566(2) -0.12572(12) 0.2609(2)
H5 H 0.5990 -0.1013 0.1889
C6 C 0.46037(17) -0.08599(10) 0.32849(18)
C7 C 0.42178(18) -0.00239(10) 0.29756(19)
H6 H 0.4222 0.0264 0.3888
C8 C 0.4959(2) 0.04402(12) 0.1903(2)
H7 H 0.5333 0.0933 0.2294
H8 H 0.5694 0.0149 0.1519
C9 C 0.28256(18) 0.01569(9) 0.18697(19)
C10 C 0.18102(18) -0.04786(9) 0.13151(18)
C11 C 0.1997(2) -0.11040(10) 0.0441(2)
H9 H 0.2851 -0.1173 0.0077
C12 C 0.0882(2) -0.16298(12) 0.0116(2)
H10 H 0.0983 -0.2052 -0.0484
C13 C -0.0361(2) -0.15310(12) 0.0669(3)
H11 H -0.1089 -0.1895 0.0454
C14 C -0.0569(2) -0.09010(12) 0.1546(3)
H12 H -0.1421 -0.0835 0.1914
C15 C 0.05359(18) -0.03778(10) 0.1850(2)
C16 C 0.18710(18) 0.07228(10) 0.2535(2)
C17 C -0.0471(2) 0.05864(12) 0.3461(3)
C18 C -0.0208(3) 0.13395(14) 0.4262(4)
H13 H 0.0676 0.1560 0.4068
H14 H -0.0152 0.1251 0.5292
H15 H -0.0979 0.1691 0.3939
loop_
_geom_bond_atom_site_label_1
_geom_bond_atom_site_label_2
_geom_bond_site_symmetry_1
_geom_bond_site_symmetry_2
O1 C17 1_555 1_555
O2 C16 1_555 1_555
O3 C8 1_555 1_555
N1 C15 1_555 1_555
C1 H1 1_555 1_555
C2 C1 1_555 1_555
H2 C2 1_555 1_555
C3 C2 1_555 1_555
H3 C3 1_555 1_555
C4 C3 1_555 1_555
H4 C4 1_555 1_555
C5 C4 1_555 1_555
H5 C5 1_555 1_555
C6 C1 1_555 1_555
C7 C6 1_555 1_555
H6 C7 1_555 1_555
C8 C7 1_555 1_555
H7 C8 1_555 1_555
H8 C8 1_555 1_555
C9 O3 1_555 1_555
C10 C9 1_555 1_555
C11 C10 1_555 1_555
H9 C11 1_555 1_555
C12 C11 1_555 1_555
H10 C12 1_555 1_555
C13 C12 1_555 1_555
H11 C13 1_555 1_555
C14 C13 1_555 1_555
H12 C14 1_555 1_555
C15 C10 1_555 1_555
C16 N1 1_555 1_555
C17 N1 1_555 1_555
C18 C17 1_555 1_555
H13 C18 1_555 1_555
H14 C18 1_555 1_555
H15 C18 1_555 1_555
C5 C6 1_555 1_555
C7 C9 1_555 1_555
C9 C16 1_555 1_555
C14 C15 1_555 1_555

#END
