
#######################################################################
#
#                 Cambridge Crystallographic Data Centre
#                                CCDC 
#
#######################################################################
#
# If this CIF has been generated from an entry in the Cambridge 
# Structural Database, then it will include bibliographic, chemical, 
# crystal, experimental, refinement or atomic coordinate data resulting 
# from the CCDC's data processing and validation procedures.
#
#######################################################################

data_XENTAL
_chemical_formula_moiety         'C19 H17 N1 O3'
_chemical_name_systematic        
(3R,3'R)-1-Acetyl-1,2-dihydro-3'-methyl-2-oxo-3'-phenyl-spiro(3H-indole-3,2'-oxetane)
_symmetry_cell_setting           monoclinic
_symmetry_space_group_name_H-M   'P 21/c'
_symmetry_Int_Tables_number      14
_space_group_name_Hall           '-P 2ybc'
loop_
_symmetry_equiv_pos_site_id
_symmetry_equiv_pos_as_xyz
1 x,y,z
2 x,1/2-y,1/2+z
3 -x,-y,-z
4 -x,1/2+y,1/2-z
_cell_length_a                   8.1254(4)
_cell_length_b                   25.2801(14)
_cell_length_c                   8.1544(5)
_cell_angle_alpha                90
_cell_angle_beta                 110.812(1)
_cell_angle_gamma                90
_cell_volume                     1565.71
_exptl_crystal_colour            colorless
_exptl_crystal_description       plates
_chemical_melting_point          '149-150 deg.C'
_cell_formula_units_Z            4
_exptl_crystal_recrystallization_method 'petroleum spirit/ethyl acetate'
loop_
_atom_site_label
_atom_site_type_symbol
_atom_site_fract_x
_atom_site_fract_y
_atom_site_fract_z
O1 O 0.2401(4) 0.51233(9) 0.5809(3)
O2 O 0.0006(3) 0.57341(9) 0.0799(2)
O3 O -0.1295(3) 0.67804(8) 0.1093(2)
N1 N 0.0679(3) 0.56963(8) 0.3831(3)
C1 C -0.4572(4) 0.61745(13) 0.3575(4)
H1 H -0.3948 0.5859 0.3872
C2 C -0.5534(4) 0.63475(15) 0.4553(5)
H2 H -0.5516 0.6156 0.5533
C3 C -0.6520(5) 0.67988(18) 0.4098(6)
H3 H -0.7196 0.6911 0.4744
C4 C -0.6496(5) 0.70837(16) 0.2674(7)
H4 H -0.7162 0.7391 0.2351
C5 C -0.5497(4) 0.69182(13) 0.1724(5)
H5 H -0.5486 0.7119 0.0772
C6 C -0.4516(3) 0.64643(11) 0.2146(4)
C7 C -0.3374(4) 0.62610(12) 0.1157(3)
C8 C -0.3007(4) 0.66498(16) -0.0117(4)
H6 H -0.2981 0.6481 -0.1176
H7 H -0.3807 0.6949 -0.0409
C9 C -0.3954(4) 0.57096(14) 0.0440(4)
H8 H -0.3221 0.5587 -0.0181
H9 H -0.5157 0.5721 -0.0345
H10 H -0.3851 0.5473 0.1393
C10 C -0.1331(3) 0.63562(11) 0.2232(3)
C11 C -0.0160(3) 0.58976(11) 0.2116(3)
C12 C 0.1785(4) 0.52551(12) 0.4285(4)
C13 C 0.2174(5) 0.49673(14) 0.2871(5)
H11 H 0.1563 0.5134 0.1763
H12 H 0.1793 0.4607 0.2835
H13 H 0.3418 0.4976 0.3105
C14 C 0.0380(3) 0.60571(10) 0.5049(3)
C15 C 0.1059(4) 0.60470(13) 0.6865(3)
H14 H 0.1744 0.5766 0.7474
C16 C 0.0675(4) 0.64732(14) 0.7740(4)
H15 H 0.1109 0.6476 0.8960
C17 C -0.0329(4) 0.68909(14) 0.6855(4)
H16 H -0.0534 0.7175 0.7479
C18 C -0.1039(4) 0.68922(12) 0.5038(4)
H17 H -0.1734 0.7172 0.4434
C19 C -0.0690(3) 0.64683(10) 0.4148(3)
loop_
_geom_bond_atom_site_label_1
_geom_bond_atom_site_label_2
_geom_bond_site_symmetry_1
_geom_bond_site_symmetry_2
O1 C12 1_555 1_555
O2 C11 1_555 1_555
O3 C8 1_555 1_555
N1 C11 1_555 1_555
C1 H1 1_555 1_555
C2 C1 1_555 1_555
H2 C2 1_555 1_555
C3 C2 1_555 1_555
H3 C3 1_555 1_555
C4 C3 1_555 1_555
H4 C4 1_555 1_555
C5 C4 1_555 1_555
H5 C5 1_555 1_555
C6 C1 1_555 1_555
C7 C6 1_555 1_555
C8 C7 1_555 1_555
H6 C8 1_555 1_555
H7 C8 1_555 1_555
C9 C7 1_555 1_555
H8 C9 1_555 1_555
H9 C9 1_555 1_555
H10 C9 1_555 1_555
C10 O3 1_555 1_555
C11 C10 1_555 1_555
C12 N1 1_555 1_555
C13 C12 1_555 1_555
H11 C13 1_555 1_555
H12 C13 1_555 1_555
H13 C13 1_555 1_555
C14 N1 1_555 1_555
C15 C14 1_555 1_555
H14 C15 1_555 1_555
C16 C15 1_555 1_555
H15 C16 1_555 1_555
C17 C16 1_555 1_555
H16 C17 1_555 1_555
C18 C17 1_555 1_555
H17 C18 1_555 1_555
C19 C10 1_555 1_555
C5 C6 1_555 1_555
C7 C10 1_555 1_555
C14 C19 1_555 1_555
C18 C19 1_555 1_555

#END
