
#######################################################################
#
#                 Cambridge Crystallographic Data Centre
#                                CCDC 
#
#######################################################################
#
# If this CIF has been generated from an entry in the Cambridge 
# Structural Database, then it will include bibliographic, chemical, 
# crystal, experimental, refinement or atomic coordinate data resulting 
# from the CCDC's data processing and validation procedures.
#
#######################################################################

data_XENVUI
_chemical_formula_moiety         'C33 H22 S2'
_chemical_name_systematic        9,9-bis(3-Phenyl-2-thienyl)fluorene
_symmetry_cell_setting           monoclinic
_symmetry_space_group_name_H-M   'P 21/c'
_symmetry_Int_Tables_number      14
_space_group_name_Hall           '-P 2ybc'
loop_
_symmetry_equiv_pos_site_id
_symmetry_equiv_pos_as_xyz
1 x,y,z
2 -x,1/2+y,1/2-z
3 -x,-y,-z
4 x,1/2-y,1/2+z
_cell_length_a                   13.492(3)
_cell_length_b                   12.732(3)
_cell_length_c                   15.427(3)
_cell_angle_alpha                90
_cell_angle_beta                 112.29(3)
_cell_angle_gamma                90
_cell_volume                     2452.03
_exptl_crystal_colour            colorless
_exptl_crystal_description       cuboid
_cell_formula_units_Z            4
loop_
_atom_site_label
_atom_site_type_symbol
_atom_site_fract_x
_atom_site_fract_y
_atom_site_fract_z
S1 S 0.07896(3) 0.23227(4) 0.33446(3)
S2 S 0.00821(3) 0.40167(4) 0.11166(3)
C1 C 0.20076(12) 0.32613(12) 0.24634(11)
C2 C 0.30047(12) 0.31545(14) 0.22152(11)
C3 C 0.34959(13) 0.22701(16) 0.20605(12)
H1 H 0.3235 0.1606 0.2110
C4 C 0.43844(15) 0.2384(2) 0.18293(14)
H2 H 0.4707 0.1791 0.1702
C5 C 0.47973(15) 0.3356(2) 0.17848(14)
H3 H 0.5400 0.3413 0.1633
C6 C 0.43313(15) 0.4244(2) 0.19618(14)
H4 H 0.4618 0.4903 0.1941
C7 C 0.34243(13) 0.41402(15) 0.21732(12)
C8 C 0.28195(13) 0.49312(14) 0.24426(12)
C9 C 0.29330(18) 0.60123(17) 0.25149(16)
H5 H 0.3431 0.6354 0.2332
C10 C 0.2295(2) 0.65682(17) 0.28630(17)
H6 H 0.2361 0.7295 0.2913
C11 C 0.1566(2) 0.60744(17) 0.31364(16)
H7 H 0.1158 0.6466 0.3388
C12 C 0.14245(16) 0.50013(15) 0.30453(13)
H8 H 0.0921 0.4667 0.3227
C13 C 0.20449(13) 0.44376(13) 0.26796(11)
C14 C 0.20120(12) 0.25991(12) 0.32792(11)
C15 C 0.28264(13) 0.21468(13) 0.40081(11)
C16 C 0.24344(15) 0.15476(14) 0.45916(13)
H9 H 0.2877 0.1170 0.5110
C17 C 0.13664(14) 0.15805(15) 0.43205(13)
H10 H 0.0987 0.1238 0.4630
C18 C 0.39908(13) 0.22698(14) 0.42545(11)
C19 C 0.46410(15) 0.14036(16) 0.43751(14)
H11 H 0.4341 0.0735 0.4268
C20 C 0.57388(16) 0.1522(2) 0.46545(15)
H12 H 0.6171 0.0934 0.4728
C21 C 0.61886(17) 0.2495(2) 0.48214(17)
H13 H 0.6926 0.2573 0.5013
C22 C 0.55506(17) 0.3351(2) 0.47054(18)
H14 H 0.5855 0.4017 0.4820
C23 C 0.44568(14) 0.32430(16) 0.44203(14)
H15 H 0.4031 0.3838 0.4340
C24 C -0.07024(14) 0.32409(17) 0.02255(14)
H16 H -0.1339 0.3459 -0.0242
C25 C -0.02913(14) 0.22790(17) 0.02788(13)
H17 H -0.0614 0.1753 -0.0155
C26 C 0.06882(13) 0.21322(14) 0.10612(12)
C27 C 0.10007(12) 0.30246(13) 0.15845(11)
C28 C 0.12712(14) 0.11217(14) 0.12010(12)
C29 C 0.16568(15) 0.07942(16) 0.05373(14)
H18 H 0.1515 0.1192 -0.0002
C30 C 0.22484(17) -0.01116(17) 0.06615(16)
H19 H 0.2505 -0.0319 0.0207
C31 C 0.24620(19) -0.07095(18) 0.14466(17)
H20 H 0.2883 -0.1309 0.1540
C32 C 0.2046(2) -0.04135(17) 0.20960(17)
H21 H 0.2170 -0.0827 0.2624
C33 C 0.14492(17) 0.04867(15) 0.19717(15)
H22 H 0.1161 0.0672 0.2411
loop_
_geom_bond_atom_site_label_1
_geom_bond_atom_site_label_2
_geom_bond_site_symmetry_1
_geom_bond_site_symmetry_2
S1 C14 1_555 1_555
S2 C24 1_555 1_555
C1 C2 1_555 1_555
C2 C3 1_555 1_555
C3 H1 1_555 1_555
C4 C3 1_555 1_555
H2 C4 1_555 1_555
C5 C4 1_555 1_555
H3 C5 1_555 1_555
C6 C5 1_555 1_555
H4 C6 1_555 1_555
C7 C2 1_555 1_555
C8 C7 1_555 1_555
C9 C8 1_555 1_555
H5 C9 1_555 1_555
C10 C9 1_555 1_555
H6 C10 1_555 1_555
C11 C10 1_555 1_555
H7 C11 1_555 1_555
C12 C11 1_555 1_555
H8 C12 1_555 1_555
C13 C1 1_555 1_555
C14 C1 1_555 1_555
C15 C14 1_555 1_555
C16 C15 1_555 1_555
H9 C16 1_555 1_555
C17 S1 1_555 1_555
H10 C17 1_555 1_555
C18 C15 1_555 1_555
C19 C18 1_555 1_555
H11 C19 1_555 1_555
C20 C19 1_555 1_555
H12 C20 1_555 1_555
C21 C20 1_555 1_555
H13 C21 1_555 1_555
C22 C21 1_555 1_555
H14 C22 1_555 1_555
C23 C18 1_555 1_555
H15 C23 1_555 1_555
C24 H16 1_555 1_555
C25 C24 1_555 1_555
H17 C25 1_555 1_555
C26 C25 1_555 1_555
C27 S2 1_555 1_555
C28 C26 1_555 1_555
C29 C28 1_555 1_555
H18 C29 1_555 1_555
C30 C29 1_555 1_555
H19 C30 1_555 1_555
C31 C30 1_555 1_555
H20 C31 1_555 1_555
C32 C31 1_555 1_555
H21 C32 1_555 1_555
C33 C28 1_555 1_555
H22 C33 1_555 1_555
C1 C27 1_555 1_555
C6 C7 1_555 1_555
C8 C13 1_555 1_555
C12 C13 1_555 1_555
C16 C17 1_555 1_555
C22 C23 1_555 1_555
C26 C27 1_555 1_555
C32 C33 1_555 1_555

#END
