
#######################################################################
#
#                 Cambridge Crystallographic Data Centre
#                                CCDC 
#
#######################################################################
#
# If this CIF has been generated from an entry in the Cambridge 
# Structural Database, then it will include bibliographic, chemical, 
# crystal, experimental, refinement or atomic coordinate data resulting 
# from the CCDC's data processing and validation procedures.
#
#######################################################################

data_XENWIW
_chemical_formula_moiety         'C25 H38 F3 N1 O10'
_chemical_name_systematic        
'tris(t-Butyl) (2S,3S,4S,5S)-2-((S)-methoxycarbonyl-(2,2,2-trifluoroethanoylamino)methyl)-tetrahydro-pyran-3,4,5-tricarboxylate'
_symmetry_cell_setting           orthorhombic
_symmetry_space_group_name_H-M   'P 21 21 21'
_symmetry_Int_Tables_number      19
_space_group_name_Hall           'P 2ac 2ab'
loop_
_symmetry_equiv_pos_site_id
_symmetry_equiv_pos_as_xyz
1 x,y,z
2 1/2-x,-y,1/2+z
3 -x,1/2+y,1/2-z
4 1/2+x,1/2-y,-z
_cell_length_a                   11.879(5)
_cell_length_b                   16.504(7)
_cell_length_c                   32.737(13)
_cell_angle_alpha                90
_cell_angle_beta                 90
_cell_angle_gamma                90
_cell_volume                     6418.12
_exptl_crystal_colour            colorless
_exptl_crystal_description       'elongated prisms'
_cell_formula_units_Z            8
_exptl_crystal_recrystallization_method ethanol
loop_
_atom_site_label
_atom_site_type_symbol
_atom_site_fract_x
_atom_site_fract_y
_atom_site_fract_z
F1 F 0.0640(13) -0.7615(5) 0.0485(3)
F2 F 0.1606(10) -0.6854(6) 0.0105(5)
F3 F -0.0069(14) -0.7167(9) -0.0065(4)
O1 O 0.1714(5) -0.4118(4) 0.0350(2)
O2 O 0.1093(5) -0.4798(4) 0.1376(2)
O3 O 0.3421(6) -0.4567(4) 0.1433(2)
O4 O 0.3931(6) -0.4660(5) 0.0629(2)
O5 O -0.1063(6) -0.4594(5) -0.0019(2)
O6 O -0.1116(6) -0.3713(5) 0.0499(2)
O7 O -0.0584(10) -0.6355(5) 0.0739(4)
O8 O 0.1580(7) -0.6094(5) 0.1421(3)
O9 O 0.4123(8) -0.3423(6) 0.1657(2)
O10 O 0.5542(7) -0.4049(6) 0.0560(4)
N1 N 0.0514(7) -0.5532(6) 0.0362(3)
H1 H 0.1000(7) -0.5488(6) 0.0169(3)
C1 C 0.1061(6) -0.4274(5) 0.0703(2)
H2 H 0.0754(6) -0.3767(5) 0.0812(2)
C2 C 0.1788(6) -0.4685(6) 0.1022(2)
H3 H 0.2071(6) -0.5206(6) 0.0921(2)
C3 C 0.2751(7) -0.4133(5) 0.1140(3)
H4 H 0.2453(7) -0.3638(5) 0.1266(3)
C4 C 0.3421(7) -0.3914(5) 0.0762(3)
H5 H 0.3997(7) -0.3509(5) 0.0826(3)
C5 C 0.2658(8) -0.3619(6) 0.0429(3)
H6 H 0.2392(8) -0.3082(6) 0.0502(3)
H7 H 0.3094(8) -0.3568(6) 0.0180(3)
C6 C 0.0112(7) -0.4829(6) 0.0569(3)
H8 H -0.0278(7) -0.5013(6) 0.0816(3)
C7 C -0.0746(7) -0.4384(8) 0.0306(4)
C8 C -0.2012(7) -0.3254(6) 0.0305(3)
H9 H -0.2197(7) -0.2792(6) 0.0470(3)
H10 H -0.2664(7) -0.3591(6) 0.0275(3)
H11 H -0.1765(7) -0.3074(6) 0.0041(3)
C9 C 0.0136(9) -0.6240(7) 0.0471(3)
C10 C 0.0591(9) -0.6990(8) 0.0241(3)
C11 C 0.1043(7) -0.5529(6) 0.1538(3)
C12 C 0.0208(6) -0.5588(5) 0.1889(2)
C13 C -0.0944(7) -0.5345(8) 0.1737(4)
H12 H -0.0920(7) -0.4797(8) 0.1639(4)
H13 H -0.1477(7) -0.5384(8) 0.1957(4)
H14 H -0.1168(7) -0.5699(8) 0.1519(4)
C14 C 0.0581(12) -0.5025(9) 0.2227(3)
H15 H 0.1314(12) -0.5184(9) 0.2321(3)
H16 H 0.0055(12) -0.5053(9) 0.2449(3)
H17 H 0.0612(12) -0.4480(9) 0.2125(3)
C15 C 0.0179(10) -0.6450(7) 0.2044(4)
H18 H 0.0913(10) -0.6601(7) 0.2140(4)
H19 H -0.0044(10) -0.6806(7) 0.1827(4)
H20 H -0.0352(10) -0.6491(7) 0.2264(4)
C16 C 0.4063(9) -0.4145(6) 0.1680(3)
C17 C 0.4641(8) -0.4643(6) 0.2009(3)
C18 C 0.5707(11) -0.4221(10) 0.2142(5)
H21 H 0.5526(11) -0.3695(10) 0.2248(5)
H22 H 0.6202(11) -0.4164(10) 0.1912(5)
H23 H 0.6072(11) -0.4536(10) 0.2350(5)
C19 C 0.3856(14) -0.4723(12) 0.2371(4)
H24 H 0.3681(14) -0.4194(12) 0.2475(4)
H25 H 0.4214(14) -0.5038(12) 0.2580(4)
H26 H 0.3175(14) -0.4987(12) 0.2286(4)
C20 C 0.4912(18) -0.5474(7) 0.1842(5)
H27 H 0.4229(18) -0.5737(7) 0.1759(5)
H28 H 0.5273(18) -0.5791(7) 0.2050(5)
H29 H 0.5406(18) -0.5422(7) 0.1612(5)
C21 C 0.5009(7) -0.4657(6) 0.0547(3)
C22 C 0.5510(8) -0.5479(6) 0.0447(3)
C23 C 0.6447(14) -0.5656(11) 0.0747(6)
H30 H 0.7014(14) -0.5244(11) 0.0726(6)
H31 H 0.6773(14) -0.6174(11) 0.0686(6)
H32 H 0.6148(14) -0.5662(11) 0.1019(6)
C24 C 0.4611(13) -0.6123(7) 0.0474(6)
H33 H 0.4308(13) -0.6134(7) 0.0746(6)
H34 H 0.4933(13) -0.6641(7) 0.0410(6)
H35 H 0.4021(13) -0.6003(7) 0.0283(6)
C25 C 0.5993(16) -0.5456(10) 0.0019(4)
H36 H 0.6563(16) -0.5044(10) 0.0004(4)
H37 H 0.5405(16) -0.5335(10) -0.0172(4)
H38 H 0.6319(16) -0.5973(10) -0.0045(4)
F7 F -0.2644(8) -0.2352(5) -0.2390(3)
F8 F -0.1014(6) -0.2852(5) -0.2326(2)
F9 F -0.2220(7) -0.3434(6) -0.2700(2)
O11 O -0.0886(5) -0.3124(4) -0.0927(2)
O12 O -0.1205(5) -0.5272(5) -0.1169(2)
O13 O 0.1158(6) -0.5137(4) -0.1098(2)
O14 O 0.1349(5) -0.3487(4) -0.1202(2)
O15 O -0.3687(6) -0.2604(5) -0.1163(2)
O16 O -0.3681(5) -0.3623(5) -0.0720(3)
O17 O -0.3239(8) -0.4008(6) -0.2040(3)
O18 O -0.0995(10) -0.5393(6) -0.1829(2)
O19 O 0.1858(7) -0.5510(5) -0.0503(2)
O20 O 0.3058(6) -0.3495(8) -0.0962(3)
N2 N -0.2069(6) -0.3319(5) -0.1637(3)
H57 H -0.1575(6) -0.2939(5) -0.1626(3)
C32 C -0.1428(7) -0.3891(6) -0.0987(3)
H58 H -0.1712(7) -0.4091(6) -0.0724(3)
C33 C -0.0627(7) -0.4507(5) -0.1168(3)
H59 H -0.0410(7) -0.4352(5) -0.1446(3)
C34 C 0.0392(7) -0.4586(6) -0.0900(3)
H60 H 0.0160(7) -0.4823(6) -0.0639(3)
C35 C 0.0930(7) -0.3782(6) -0.0818(2)
H61 H 0.1546(7) -0.3841(6) -0.0621(2)
C36 C 0.0083(7) -0.3190(6) -0.0667(3)
H62 H -0.0160(7) -0.3353(6) -0.0396(3)
H63 H 0.0436(7) -0.2662(6) -0.0643(3)
C37 C -0.2414(7) -0.3713(6) -0.1269(3)
H64 H -0.2751(7) -0.4233(6) -0.1345(3)
C38 C -0.3316(8) -0.3219(9) -0.1054(4)
C39 C -0.4586(8) -0.3243(8) -0.0491(3)
H65 H -0.4781(8) -0.3578(8) -0.0262(3)
H66 H -0.5231(8) -0.3180(8) -0.0665(3)
H67 H -0.4344(8) -0.2722(8) -0.0395(3)
C40 C -0.2489(8) -0.3525(7) -0.1992(3)
C41 C -0.2083(7) -0.3027(7) -0.2361(3)
C42 C -0.1355(8) -0.5653(6) -0.1516(3)
C43 C -0.2014(8) -0.6437(6) -0.1480(3)
C44 C -0.3229(9) -0.6242(9) -0.1385(7)
H68 H -0.3271(9) -0.5950(9) -0.1131(7)
H69 H -0.3651(9) -0.6737(9) -0.1362(7)
H70 H -0.3539(9) -0.5917(9) -0.1600(7)
C45 C -0.1948(17) -0.6898(9) -0.1877(4)
H71 H -0.2257(17) -0.6573(9) -0.2093(4)
H72 H -0.2369(17) -0.7392(9) -0.1855(4)
H73 H -0.1175(17) -0.7021(9) -0.1937(4)
C46 C -0.1527(15) -0.6942(8) -0.1138(5)
H74 H -0.1573(15) -0.6646(8) -0.0886(5)
H75 H -0.0754(15) -0.7064(8) -0.1197(5)
H76 H -0.1945(15) -0.7437(8) -0.1114(5)
C47 C 0.1834(8) -0.5571(6) -0.0868(3)
C48 C 0.2604(8) -0.6137(6) -0.1103(3)
C49 C 0.3755(10) -0.6136(15) -0.0906(6)
H77 H 0.3691(10) -0.6316(15) -0.0628(6)
H78 H 0.4060(10) -0.5598(15) -0.0912(6)
H79 H 0.4245(10) -0.6495(15) -0.1054(6)
C50 C 0.2708(18) -0.5853(12) -0.1540(3)
H80 H 0.3008(18) -0.5313(12) -0.1545(3)
H81 H 0.1979(18) -0.5857(12) -0.1667(3)
H82 H 0.3204(18) -0.6209(12) -0.1687(3)
C51 C 0.2121(18) -0.6983(7) -0.1093(8)
H83 H 0.2059(18) -0.7161(7) -0.0815(8)
H84 H 0.2608(18) -0.7344(7) -0.1241(8)
H85 H 0.1389(18) -0.6983(7) -0.1217(8)
C52 C 0.2435(7) -0.3364(7) -0.1238(3)
C53 C 0.2772(6) -0.2986(6) -0.1642(2)
C54 C 0.3978(8) -0.3205(11) -0.1739(4)
H86 H 0.4462(8) -0.3002(11) -0.1527(4)
H87 H 0.4189(8) -0.2968(11) -0.1996(4)
H88 H 0.4050(8) -0.3783(11) -0.1755(4)
C55 C 0.2013(11) -0.3304(11) -0.1976(3)
H89 H 0.2091(11) -0.3882(11) -0.1995(3)
H90 H 0.2221(11) -0.3062(11) -0.2232(3)
H91 H 0.1245(11) -0.3170(11) -0.1914(3)
C56 C 0.2660(16) -0.2076(6) -0.1611(5)
H92 H 0.3142(16) -0.1879(6) -0.1397(5)
H93 H 0.1893(16) -0.1938(6) -0.1549(5)
H94 H 0.2873(16) -0.1833(6) -0.1865(5)
F4? F 0.1631(11) -0.7134(11) 0.0344(6)
F5? F 0.0564(19) -0.6869(8) -0.0153(3)
F6? F -0.0023(17) -0.7625(6) 0.0322(6)
C26? C 0.4476(24) -0.4233(12) 0.2418(3)
H39? H 0.4782(24) -0.3695(12) 0.2407(3)
H40? H 0.4855(24) -0.4538(12) 0.2626(3)
H41? H 0.3687(24) -0.4205(12) 0.2479(3)
C27? C 0.4151(18) -0.5487(7) 0.2022(6)
H42? H 0.4262(18) -0.5746(7) 0.1762(6)
H43? H 0.3360(18) -0.5456(7) 0.2080(6)
H44? H 0.4520(18) -0.5796(7) 0.2231(6)
C28? C 0.5884(9) -0.4692(16) 0.1912(7)
H45? H 0.6196(9) -0.4155(16) 0.1905(7)
H46? H 0.5985(9) -0.4945(16) 0.1650(7)
H47? H 0.6259(9) -0.5005(16) 0.2118(7)
C29? C 0.6772(9) -0.5581(20) 0.0425(12)
H48? H 0.7094(9) -0.5136(20) 0.0277(12)
H49? H 0.6948(9) -0.6079(20) 0.0288(12)
H50? H 0.7076(9) -0.5593(20) 0.0697(12)
C30? C 0.4997(18) -0.6178(11) 0.0681(7)
H51? H 0.4195(18) -0.6112(11) 0.0692(7)
H52? H 0.5298(18) -0.6188(11) 0.0953(7)
H53? H 0.5174(18) -0.6678(11) 0.0545(7)
C31? C 0.5029(31) -0.5462(22) 0.0019(5)
H54? H 0.4227(31) -0.5400(22) 0.0032(5)
H55? H 0.5208(31) -0.5961(22) -0.0118(5)
H56? H 0.5349(31) -0.5016(22) -0.0130(5)
C57? C 0.3012(20) -0.6802(11) -0.0824(5)
H95? H 0.2380(20) -0.7105(11) -0.0724(5)
H96? H 0.3411(20) -0.6568(11) -0.0598(5)
H97? H 0.3506(20) -0.7157(11) -0.0972(5)
C58? C 0.3594(14) -0.5659(12) -0.1265(8)
H98? H 0.3328(14) -0.5237(12) -0.1442(8)
H99? H 0.4084(14) -0.6014(12) -0.1414(8)
H100? H 0.3998(14) -0.5424(12) -0.1040(8)
C59? C 0.1961(15) -0.6504(14) -0.1456(6)
H101? H 0.1334(15) -0.6809(14) -0.1353(6)
H102? H 0.2450(15) -0.6856(14) -0.1608(6)
H103? H 0.1691(15) -0.6081(14) -0.1632(6)
C60? C 0.3660(22) -0.3573(19) -0.1789(11)
H104? H 0.4219(22) -0.3643(19) -0.1580(11)
H105? H 0.4010(22) -0.3362(19) -0.2032(11)
H106? H 0.3317(22) -0.4086(19) -0.1850(11)
C61? C 0.1889(19) -0.2866(20) -0.1968(7)
H107? H 0.1564(19) -0.3380(20) -0.2038(7)
H108? H 0.2231(19) -0.2631(20) -0.2206(7)
H109? H 0.1312(19) -0.2511(20) -0.1867(7)
C62? C 0.3310(28) -0.2183(11) -0.1538(10)
H110? H 0.3863(28) -0.2260(11) -0.1328(10)
H111? H 0.2743(28) -0.1813(11) -0.1444(10)
H112? H 0.3665(28) -0.1964(11) -0.1778(10)
loop_
_geom_bond_atom_site_label_1
_geom_bond_atom_site_label_2
_geom_bond_site_symmetry_1
_geom_bond_site_symmetry_2
F1 C10 1_555 1_555
F2 C10 1_555 1_555
F3 C10 1_555 1_555
O1 C1 1_555 1_555
O2 C2 1_555 1_555
O3 C3 1_555 1_555
O4 C4 1_555 1_555
O5 C7 1_555 1_555
O6 C7 1_555 1_555
O7 C9 1_555 1_555
O8 C11 1_555 1_555
O9 C16 1_555 1_555
O10 C21 1_555 1_555
N1 H1 1_555 1_555
C1 H2 1_555 1_555
C2 C1 1_555 1_555
H3 C2 1_555 1_555
C3 C2 1_555 1_555
H4 C3 1_555 1_555
C4 C3 1_555 1_555
H5 C4 1_555 1_555
C5 O1 1_555 1_555
H6 C5 1_555 1_555
H7 C5 1_555 1_555
C6 N1 1_555 1_555
H8 C6 1_555 1_555
C7 C6 1_555 1_555
C8 O6 1_555 1_555
H9 C8 1_555 1_555
H10 C8 1_555 1_555
H11 C8 1_555 1_555
C9 N1 1_555 1_555
C10 C9 1_555 1_555
C11 O2 1_555 1_555
C12 C11 1_555 1_555
C13 C12 1_555 1_555
H12 C13 1_555 1_555
H13 C13 1_555 1_555
H14 C13 1_555 1_555
C14 C12 1_555 1_555
H15 C14 1_555 1_555
H16 C14 1_555 1_555
H17 C14 1_555 1_555
C15 C12 1_555 1_555
H18 C15 1_555 1_555
H19 C15 1_555 1_555
H20 C15 1_555 1_555
C16 O3 1_555 1_555
C17 C16 1_555 1_555
C18 C17 1_555 1_555
H21 C18 1_555 1_555
H22 C18 1_555 1_555
H23 C18 1_555 1_555
C19 C17 1_555 1_555
H24 C19 1_555 1_555
H25 C19 1_555 1_555
H26 C19 1_555 1_555
C20 C17 1_555 1_555
H27 C20 1_555 1_555
H28 C20 1_555 1_555
H29 C20 1_555 1_555
C21 O4 1_555 1_555
C22 C21 1_555 1_555
C23 C22 1_555 1_555
H30 C23 1_555 1_555
H31 C23 1_555 1_555
H32 C23 1_555 1_555
C24 C22 1_555 1_555
H33 C24 1_555 1_555
H34 C24 1_555 1_555
H35 C24 1_555 1_555
C25 C22 1_555 1_555
H36 C25 1_555 1_555
H37 C25 1_555 1_555
H38 C25 1_555 1_555
F7 C41 1_555 1_555
F8 C41 1_555 1_555
F9 C41 1_555 1_555
O11 C32 1_555 1_555
O12 C33 1_555 1_555
O13 C34 1_555 1_555
O14 C35 1_555 1_555
O15 C38 1_555 1_555
O16 C38 1_555 1_555
O17 C40 1_555 1_555
O18 C42 1_555 1_555
O19 C47 1_555 1_555
O20 C52 1_555 1_555
N2 H57 1_555 1_555
C32 H58 1_555 1_555
C33 C32 1_555 1_555
H59 C33 1_555 1_555
C34 C33 1_555 1_555
H60 C34 1_555 1_555
C35 C34 1_555 1_555
H61 C35 1_555 1_555
C36 O11 1_555 1_555
H62 C36 1_555 1_555
H63 C36 1_555 1_555
C37 N2 1_555 1_555
H64 C37 1_555 1_555
C38 C37 1_555 1_555
C39 O16 1_555 1_555
H65 C39 1_555 1_555
H66 C39 1_555 1_555
H67 C39 1_555 1_555
C40 N2 1_555 1_555
C41 C40 1_555 1_555
C42 O12 1_555 1_555
C43 C42 1_555 1_555
C44 C43 1_555 1_555
H68 C44 1_555 1_555
H69 C44 1_555 1_555
H70 C44 1_555 1_555
C45 C43 1_555 1_555
H71 C45 1_555 1_555
H72 C45 1_555 1_555
H73 C45 1_555 1_555
C46 C43 1_555 1_555
H74 C46 1_555 1_555
H75 C46 1_555 1_555
H76 C46 1_555 1_555
C47 O13 1_555 1_555
C48 C47 1_555 1_555
C49 C48 1_555 1_555
H77 C49 1_555 1_555
H78 C49 1_555 1_555
H79 C49 1_555 1_555
C50 C48 1_555 1_555
H80 C50 1_555 1_555
H81 C50 1_555 1_555
H82 C50 1_555 1_555
C51 C48 1_555 1_555
H83 C51 1_555 1_555
H84 C51 1_555 1_555
H85 C51 1_555 1_555
C52 O14 1_555 1_555
C53 C52 1_555 1_555
C54 C53 1_555 1_555
H86 C54 1_555 1_555
H87 C54 1_555 1_555
H88 C54 1_555 1_555
C55 C53 1_555 1_555
H89 C55 1_555 1_555
H90 C55 1_555 1_555
H91 C55 1_555 1_555
C56 C53 1_555 1_555
H92 C56 1_555 1_555
H93 C56 1_555 1_555
H94 C56 1_555 1_555
C1 C6 1_555 1_555
C4 C5 1_555 1_555
C32 C37 1_555 1_555
C35 C36 1_555 1_555

#END
