
#######################################################################
#
#                 Cambridge Crystallographic Data Centre
#                                CCDC 
#
#######################################################################
#
# If this CIF has been generated from an entry in the Cambridge 
# Structural Database, then it will include bibliographic, chemical, 
# crystal, experimental, refinement or atomic coordinate data resulting 
# from the CCDC's data processing and validation procedures.
#
#######################################################################

data_XENXEU
_chemical_formula_moiety         'C27 H27 N1 O3'
_chemical_name_systematic        
1-(2-(4-Methoxyphenyl)ethyl)-3,4-bis(4-methoxyphenyl)pyrrole
_symmetry_cell_setting           monoclinic
_symmetry_space_group_name_H-M   'P 21/c'
_symmetry_Int_Tables_number      14
_space_group_name_Hall           '-P 2ybc'
loop_
_symmetry_equiv_pos_site_id
_symmetry_equiv_pos_as_xyz
1 x,y,z
2 -x,1/2+y,1/2-z
3 -x,-y,-z
4 x,1/2-y,1/2+z
_cell_length_a                   13.370(3)
_cell_length_b                   16.407(3)
_cell_length_c                   10.255(2)
_cell_angle_alpha                90
_cell_angle_beta                 91.85(3)
_cell_angle_gamma                90
_cell_volume                     2248.38
_exptl_crystal_colour            colorless
_exptl_crystal_description       needle
_cell_formula_units_Z            4
_exptl_crystal_recrystallization_method 'diethyl ether/petroleum ether'
loop_
_atom_site_label
_atom_site_type_symbol
_atom_site_fract_x
_atom_site_fract_y
_atom_site_fract_z
O1 O 0.39244(10) 0.70961(8) 0.06989(14)
O2 O 1.28046(11) 0.49886(9) 0.82204(14)
O3 O 1.27047(12) 1.04843(8) 0.85586(14)
N1 N 0.88838(12) 0.77663(13) 0.47224(17)
C1 C 0.93899(14) 0.70884(14) 0.5114(2)
H1 H 0.9251 0.6559 0.4841
C2 C 1.01438(14) 0.73169(13) 0.59842(19)
C3 C 1.00852(14) 0.81832(14) 0.61278(19)
C4 C 0.92876(15) 0.84299(15) 0.5327(2)
H2 H 0.9065 0.8964 0.5222
C5 C 0.80060(14) 0.77555(14) 0.3827(2)
H3 H 0.8139 0.7401 0.3096
H4 H 0.7891 0.8300 0.3488
C6 C 0.70757(14) 0.74634(13) 0.4483(2)
H5 H 0.7212 0.6941 0.4894
H6 H 0.6905 0.7847 0.5160
C7 C 0.61973(14) 0.73760(15) 0.3532(2)
C8 C 0.56008(15) 0.80278(13) 0.3188(2)
H7 H 0.5717 0.8527 0.3597
C9 C 0.48295(14) 0.79673(13) 0.2252(2)
H8 H 0.4435 0.8418 0.2039
C10 C 0.46589(14) 0.72330(14) 0.16445(19)
C11 C 0.52329(14) 0.65676(14) 0.1991(2)
H9 H 0.5107 0.6066 0.1598
C12 C 0.59982(15) 0.66433(14) 0.2924(2)
H10 H 0.6386 0.6190 0.3144
C13 C 1.08353(13) 0.67234(12) 0.66049(19)
C14 C 1.12098(14) 0.60762(13) 0.58915(19)
H11 H 1.1024 0.6027 0.5013
C15 C 1.18522(15) 0.55016(13) 0.6453(2)
H12 H 1.2086 0.5072 0.5956
C16 C 1.21445(15) 0.55696(13) 0.7755(2)
C17 C 1.17700(14) 0.61949(12) 0.84933(19)
H13 H 1.1955 0.6240 0.9372
C18 C 1.11149(13) 0.67586(12) 0.79198(19)
H14 H 1.0857 0.7171 0.8432
C19 C 1.07694(15) 0.87551(12) 0.68162(18)
C20 C 1.17726(14) 0.85759(12) 0.70511(17)
H15 H 1.2010 0.8067 0.6810
C21 C 1.24350(14) 0.91274(13) 0.76325(18)
H16 H 1.3100 0.8981 0.7788
C22 C 1.21104(16) 0.98890(14) 0.79785(19)
C23 C 1.11177(17) 1.00893(13) 0.7749(2)
H17 H 1.0889 1.0604 0.7978
C24 C 1.04609(16) 0.95341(14) 0.71852(19)
H18 H 0.9794 0.9682 0.7046
C25 C 0.34815(14) 0.77968(13) 0.0085(2)
H19 H 0.2985 0.7626 -0.0555
H20 H 0.3989 0.8107 -0.0332
H21 H 0.3172 0.8128 0.0730
C26 C 1.31129(17) 0.50485(14) 0.9557(2)
H22 H 1.3577 0.4619 0.9769
H23 H 1.2540 0.5001 1.0092
H24 H 1.3430 0.5566 0.9712
C27 C 1.37108(16) 1.02702(14) 0.8879(2)
H25 H 1.4049 1.0729 0.9273
H26 H 1.4043 1.0115 0.8101
H27 H 1.3722 0.9822 0.9481
loop_
_geom_bond_atom_site_label_1
_geom_bond_atom_site_label_2
_geom_bond_site_symmetry_1
_geom_bond_site_symmetry_2
O1 C10 1_555 1_555
O2 C16 1_555 1_555
O3 C22 1_555 1_555
N1 C1 1_555 1_555
C1 H1 1_555 1_555
C2 C1 1_555 1_555
C3 C2 1_555 1_555
C4 N1 1_555 1_555
H2 C4 1_555 1_555
C5 N1 1_555 1_555
H3 C5 1_555 1_555
H4 C5 1_555 1_555
C6 C5 1_555 1_555
H5 C6 1_555 1_555
H6 C6 1_555 1_555
C7 C6 1_555 1_555
C8 C7 1_555 1_555
H7 C8 1_555 1_555
C9 C8 1_555 1_555
H8 C9 1_555 1_555
C10 C9 1_555 1_555
C11 C10 1_555 1_555
H9 C11 1_555 1_555
C12 C7 1_555 1_555
H10 C12 1_555 1_555
C13 C2 1_555 1_555
C14 C13 1_555 1_555
H11 C14 1_555 1_555
C15 C14 1_555 1_555
H12 C15 1_555 1_555
C16 C15 1_555 1_555
C17 C16 1_555 1_555
H13 C17 1_555 1_555
C18 C13 1_555 1_555
H14 C18 1_555 1_555
C19 C3 1_555 1_555
C20 C19 1_555 1_555
H15 C20 1_555 1_555
C21 C20 1_555 1_555
H16 C21 1_555 1_555
C22 C21 1_555 1_555
C23 C22 1_555 1_555
H17 C23 1_555 1_555
C24 C19 1_555 1_555
H18 C24 1_555 1_555
C25 O1 1_555 1_555
H19 C25 1_555 1_555
H20 C25 1_555 1_555
H21 C25 1_555 1_555
C26 O2 1_555 1_555
H22 C26 1_555 1_555
H23 C26 1_555 1_555
H24 C26 1_555 1_555
C27 O3 1_555 1_555
H25 C27 1_555 1_555
H26 C27 1_555 1_555
H27 C27 1_555 1_555
C3 C4 1_555 1_555
C11 C12 1_555 1_555
C17 C18 1_555 1_555
C23 C24 1_555 1_555

#END
