
#######################################################################
#
#                 Cambridge Crystallographic Data Centre
#                                CCDC 
#
#######################################################################
#
# If this CIF has been generated from an entry in the Cambridge 
# Structural Database, then it will include bibliographic, chemical, 
# crystal, experimental, refinement or atomic coordinate data resulting 
# from the CCDC's data processing and validation procedures.
#
#######################################################################

data_XEPBEB
_chemical_formula_moiety         'C10 H8 N4,C4 H6 O4'
_chemical_name_systematic        "3,3'-azopyridine succinic acid"
_symmetry_cell_setting           monoclinic
_symmetry_space_group_name_H-M   'P 21/c'
_symmetry_Int_Tables_number      14
_space_group_name_Hall           '-P 2ybc'
loop_
_symmetry_equiv_pos_site_id
_symmetry_equiv_pos_as_xyz
1 x,y,z
2 -x,1/2+y,1/2-z
3 -x,-y,-z
4 x,1/2-y,1/2+z
_cell_length_a                   11.9092(7)
_cell_length_b                   5.2342(3)
_cell_length_c                   11.3589(7)
_cell_angle_alpha                90
_cell_angle_beta                 91.198(3)
_cell_angle_gamma                90
_cell_volume                     707.904
_exptl_crystal_colour            orange
_exptl_crystal_description       plate
_cell_formula_units_Z            2
loop_
_atom_site_label
_atom_site_type_symbol
_atom_site_fract_x
_atom_site_fract_y
_atom_site_fract_z
N1 N 0.22353(8) 0.21628(18) 0.18515(8)
C1 C 0.30171(9) 0.2240(2) 0.10285(10)
H1 H 0.2976 0.3551 0.0451
C2 C 0.38879(8) 0.0485(2) 0.09804(9)
N2 N 0.46146(7) 0.08056(18) 0.00152(8)
C3 C 0.39716(9) -0.1416(2) 0.18373(10)
H2 H 0.4563 -0.2633 0.1830
C4 C 0.31687(9) -0.1474(2) 0.26965(10)
H3 H 0.3203 -0.2726 0.3302
C5 C 0.23103(9) 0.0321(2) 0.26643(10)
H4 H 0.1750 0.0236 0.3247
N1B N 0.77647(8) -0.21628(18) -0.18515(8)
C1B C 0.69829(9) -0.2240(2) -0.10285(10)
H1B H 0.7024 -0.3551 -0.0451
C2B C 0.61121(8) -0.0485(2) -0.09804(9)
N2B N 0.53854(7) -0.08056(18) -0.00152(8)
C3B C 0.60284(9) 0.1416(2) -0.18373(10)
H2B H 0.5437 0.2633 -0.1830
C4B C 0.68313(9) 0.1474(2) -0.26965(10)
H3B H 0.6797 0.2726 -0.3302
C5B C 0.76897(9) -0.0321(2) -0.26643(10)
H4B H 0.8250 -0.0236 -0.3247
C6 C 0.07886(8) 0.71690(19) 0.07027(9)
O1 O 0.05586(6) 0.55739(15) 0.15732(7)
H5 H 0.1165(12) 0.443(3) 0.1686(12)
O2 O 0.16323(6) 0.70311(15) 0.01271(7)
C7 C -0.01114(8) 0.9151(2) 0.05220(9)
H6 H -0.0158 1.0216 0.1239
H7 H -0.0845 0.8288 0.0401
C6B C -0.07886(8) 1.28310(19) -0.07027(9)
O1B O -0.05586(6) 1.44261(15) -0.15732(7)
H5B H -0.1165(12) 1.557(3) -0.1686(12)
O2B O -0.16323(6) 1.29689(15) -0.01271(7)
C7B C 0.01114(8) 1.0849(2) -0.05220(9)
H6B H 0.0158 0.9784 -0.1239
H7B H 0.0845 1.1712 -0.0401
loop_
_geom_bond_atom_site_label_1
_geom_bond_atom_site_label_2
_geom_bond_site_symmetry_1
_geom_bond_site_symmetry_2
N1 C1 1_555 1_555
C1 H1 1_555 1_555
C2 C1 1_555 1_555
N2 C2 1_555 1_555
C3 C2 1_555 1_555
H2 C3 1_555 1_555
C4 C3 1_555 1_555
H3 C4 1_555 1_555
C5 N1 1_555 1_555
H4 C5 1_555 1_555
C6 O1 1_555 1_555
O1 H5 1_555 1_555
O2 C6 1_555 1_555
C7 C6 1_555 1_555
H6 C7 1_555 1_555
H7 C7 1_555 1_555
N1B C1B 1_555 1_555
C1B H1B 1_555 1_555
C2B C1B 1_555 1_555
N2B N2 1_555 1_555
C3B C2B 1_555 1_555
H2B C3B 1_555 1_555
C4B C3B 1_555 1_555
H3B C4B 1_555 1_555
C5B N1B 1_555 1_555
H4B C5B 1_555 1_555
C6B O1B 1_555 1_555
O1B H5B 1_555 1_555
O2B C6B 1_555 1_555
C7B C7 1_555 1_555
H6B C7B 1_555 1_555
H7B C7B 1_555 1_555
C4 C5 1_555 1_555
C2B N2B 1_555 1_555
C4B C5B 1_555 1_555
C6B C7B 1_555 1_555

#END
