
#######################################################################
#
#                 Cambridge Crystallographic Data Centre
#                                CCDC 
#
#######################################################################
#
# If this CIF has been generated from an entry in the Cambridge 
# Structural Database, then it will include bibliographic, chemical, 
# crystal, experimental, refinement or atomic coordinate data resulting 
# from the CCDC's data processing and validation procedures.
#
#######################################################################

data_XEPBIF
_chemical_formula_moiety         'C10 H8 N4,C6 H10 O4'
_chemical_name_systematic        "3,3'-azopyridine hexanedioic acid"
_symmetry_cell_setting           triclinic
_symmetry_space_group_name_H-M   'P -1'
_symmetry_Int_Tables_number      2
_space_group_name_Hall           '-P 1'
loop_
_symmetry_equiv_pos_site_id
_symmetry_equiv_pos_as_xyz
1 x,y,z
2 -x,-y,-z
_cell_length_a                   5.2025(4)
_cell_length_b                   7.0703(6)
_cell_length_c                   11.4579(10)
_cell_angle_alpha                99.247(5)
_cell_angle_beta                 102.957(6)
_cell_angle_gamma                101.395(5)
_cell_volume                     393.253
_exptl_crystal_colour            orange
_exptl_crystal_description       prism
_cell_formula_units_Z            1
loop_
_atom_site_label
_atom_site_type_symbol
_atom_site_fract_x
_atom_site_fract_y
_atom_site_fract_z
N1 N 0.45190(18) 0.32391(12) 0.26933(8)
C1 C 0.3220(2) 0.44091(13) 0.32443(9)
H1 H 0.3261 0.5675 0.3058
C2 C 0.18080(19) 0.38467(13) 0.40807(9)
N2 N 0.06191(18) 0.52845(12) 0.46214(8)
C3 C 0.1719(2) 0.19811(15) 0.43484(11)
H2 H 0.0786 0.1562 0.4921
C4 C 0.3022(2) 0.07577(14) 0.37593(11)
H3 H 0.2966 -0.0532 0.3908
C5 C 0.4419(2) 0.14387(14) 0.29455(10)
H4 H 0.5335 0.0599 0.2554
N1A N -0.45190(18) 0.67609(12) 0.73067(8)
C1A C -0.3220(2) 0.55909(13) 0.67557(9)
H1A H -0.3261 0.4325 0.6942
C2A C -0.18080(19) 0.61533(13) 0.59193(9)
N2A N -0.06191(18) 0.47155(12) 0.53786(8)
C3A C -0.1719(2) 0.80189(15) 0.56516(11)
H2A H -0.0786 0.8438 0.5079
C4A C -0.3022(2) 0.92423(14) 0.62407(11)
H3A H -0.2966 1.0532 0.6092
C5A C -0.4419(2) 0.85613(14) 0.70545(10)
H4A H -0.5335 0.9401 0.7446
C6 C 0.7562(2) 0.66816(14) 0.13255(10)
O1 O 0.74580(17) 0.47749(11) 0.12650(8)
H5 H 0.652(3) 0.428(2) 0.1777(15)
C7 C 0.9301(2) 0.75491(14) 0.05597(10)
H6 H 0.8838 0.6625 -0.0245
H7 H 1.1230 0.7654 0.0968
O2 O 0.64141(18) 0.75943(11) 0.19448(8)
C8 C 0.9001(2) 0.95725(14) 0.03435(10)
H8 H 0.9323 1.0484 0.1142
H9 H 0.7120 0.9459 -0.0137
C6A C 1.2438(2) 1.33184(14) -0.13255(10)
O1A O 1.25420(17) 1.52251(11) -0.12650(8)
H5A H 1.348(3) 1.572(2) -0.1777(15)
C7A C 1.0699(2) 1.24509(14) -0.05597(10)
H6A H 1.1162 1.3375 0.0245
H7A H 0.8770 1.2346 -0.0968
O2A O 1.35859(18) 1.24057(11) -0.19448(8)
C8A C 1.0999(2) 1.04275(14) -0.03435(10)
H8A H 1.0677 0.9516 -0.1142
H9A H 1.2880 1.0541 0.0137
loop_
_geom_bond_atom_site_label_1
_geom_bond_atom_site_label_2
_geom_bond_site_symmetry_1
_geom_bond_site_symmetry_2
N1 C1 1_555 1_555
C1 H1 1_555 1_555
C2 C1 1_555 1_555
N2 C2 1_555 1_555
C3 C2 1_555 1_555
H2 C3 1_555 1_555
C4 C3 1_555 1_555
H3 C4 1_555 1_555
C5 N1 1_555 1_555
H4 C5 1_555 1_555
C6 O1 1_555 1_555
O1 H5 1_555 1_555
C7 C6 1_555 1_555
H6 C7 1_555 1_555
H7 C7 1_555 1_555
O2 C6 1_555 1_555
C8 C7 1_555 1_555
H8 C8 1_555 1_555
H9 C8 1_555 1_555
N1A C1A 1_555 1_555
C1A H1A 1_555 1_555
C2A C1A 1_555 1_555
N2A N2 1_555 1_555
C3A C2A 1_555 1_555
H2A C3A 1_555 1_555
C4A C3A 1_555 1_555
H3A C4A 1_555 1_555
C5A N1A 1_555 1_555
H4A C5A 1_555 1_555
C6A O1A 1_555 1_555
O1A H5A 1_555 1_555
C7A C6A 1_555 1_555
H6A C7A 1_555 1_555
H7A C7A 1_555 1_555
O2A C6A 1_555 1_555
C8A C8 1_555 1_555
H8A C8A 1_555 1_555
H9A C8A 1_555 1_555
C4 C5 1_555 1_555
C2A N2A 1_555 1_555
C4A C5A 1_555 1_555
C7A C8A 1_555 1_555

#END
