
#######################################################################
#
#                 Cambridge Crystallographic Data Centre
#                                CCDC 
#
#######################################################################
#
# If this CIF has been generated from an entry in the Cambridge 
# Structural Database, then it will include bibliographic, chemical, 
# crystal, experimental, refinement or atomic coordinate data resulting 
# from the CCDC's data processing and validation procedures.
#
#######################################################################

data_XEPCAY
_chemical_formula_moiety         'C8 H14 O4,C10 H8 N4'
_chemical_name_systematic        "4,4'-azopyridine octanedioic acid"
_symmetry_cell_setting           triclinic
_symmetry_space_group_name_H-M   'P -1'
_symmetry_Int_Tables_number      2
_space_group_name_Hall           '-P 1'
loop_
_symmetry_equiv_pos_site_id
_symmetry_equiv_pos_as_xyz
1 x,y,z
2 -x,-y,-z
_cell_length_a                   5.8269(6)
_cell_length_b                   8.6817(8)
_cell_length_c                   9.0827(9)
_cell_angle_alpha                76.314(6)
_cell_angle_beta                 87.963(6)
_cell_angle_gamma                77.486(6)
_cell_volume                     435.759
_exptl_crystal_colour            orange
_exptl_crystal_description       prism
_cell_formula_units_Z            1
loop_
_atom_site_label
_atom_site_type_symbol
_atom_site_fract_x
_atom_site_fract_y
_atom_site_fract_z
N1 N 0.44565(18) 0.36459(12) 0.16690(12)
C1 C 0.4253(2) 0.29985(14) 0.04940(14)
H1 H 0.2790 0.3296 -0.0040
C2 C 0.6062(2) 0.19190(14) 0.00188(14)
H2 H 0.5855 0.1473 -0.0814
C3 C 0.81992(19) 0.15073(13) 0.08040(13)
N2 N 1.02287(16) 0.04115(12) 0.04308(12)
C4 C 0.8453(2) 0.21919(14) 0.19983(14)
H3 H 0.9913 0.1945 0.2528
C5 C 0.6527(2) 0.32481(14) 0.24056(15)
H4 H 0.6683 0.3706 0.3239
N1A N 1.55435(18) -0.36459(12) -0.16690(12)
C1A C 1.5747(2) -0.29985(14) -0.04940(14)
H1A H 1.7210 -0.3296 0.0040
C2A C 1.3938(2) -0.19190(14) -0.00188(14)
H2A H 1.4145 -0.1473 0.0814
C3A C 1.18008(19) -0.15073(13) -0.08040(13)
N2A N 0.97713(16) -0.04115(12) -0.04308(12)
C4A C 1.1547(2) -0.21919(14) -0.19983(14)
H3A H 1.0087 -0.1945 -0.2528
C5A C 1.3473(2) -0.32481(14) -0.24056(15)
H4A H 1.3317 -0.3706 -0.3239
C6 C 0.0293(2) 0.63516(13) 0.32508(14)
O1 O 0.04390(16) 0.56163(11) 0.21133(11)
H5 H 0.191(3) 0.5071(18) 0.2090(18)
O2 O 0.19091(15) 0.62041(11) 0.40993(11)
C7 C -0.21285(19) 0.73861(13) 0.33141(14)
H6 H -0.3278 0.6675 0.3494
H7 H -0.2513 0.8150 0.2314
C8 C -0.2424(2) 0.83518(13) 0.45201(14)
H8 H -0.1198 0.9001 0.4402
H9 H -0.2205 0.7595 0.5533
C9 C -0.48398(19) 0.94804(13) 0.44204(13)
H10 H -0.6057 0.8822 0.4575
H11 H -0.5079 1.0201 0.3391
C6A C -1.0293(2) 1.36484(13) 0.67492(14)
O1A O -1.04390(16) 1.43837(11) 0.78867(11)
H5A H -1.191(3) 1.4929(18) 0.7910(18)
O2A O -1.19091(15) 1.37959(11) 0.59007(11)
C7A C -0.78715(19) 1.26139(13) 0.66859(14)
H6A H -0.6722 1.3325 0.6506
H7A H -0.7487 1.1850 0.7686
C8A C -0.7576(2) 1.16482(13) 0.54799(14)
H8A H -0.8802 1.0999 0.5598
H9A H -0.7795 1.2405 0.4467
C9A C -0.51602(19) 1.05196(13) 0.55796(13)
H10A H -0.3943 1.1178 0.5425
H11A H -0.4921 0.9799 0.6609
loop_
_geom_bond_atom_site_label_1
_geom_bond_atom_site_label_2
_geom_bond_site_symmetry_1
_geom_bond_site_symmetry_2
N1 C1 1_555 1_555
C1 H1 1_555 1_555
C2 C1 1_555 1_555
H2 C2 1_555 1_555
C3 C2 1_555 1_555
N2 C3 1_555 1_555
C4 C3 1_555 1_555
H3 C4 1_555 1_555
C5 N1 1_555 1_555
H4 C5 1_555 1_555
C6 O1 1_555 1_555
O1 H5 1_555 1_555
O2 C6 1_555 1_555
C7 C6 1_555 1_555
H6 C7 1_555 1_555
H7 C7 1_555 1_555
C8 C7 1_555 1_555
H8 C8 1_555 1_555
H9 C8 1_555 1_555
C9 C8 1_555 1_555
H10 C9 1_555 1_555
H11 C9 1_555 1_555
N1A C1A 1_555 1_555
C1A H1A 1_555 1_555
C2A C1A 1_555 1_555
H2A C2A 1_555 1_555
C3A C2A 1_555 1_555
N2A N2 1_555 1_555
C4A C3A 1_555 1_555
H3A C4A 1_555 1_555
C5A N1A 1_555 1_555
H4A C5A 1_555 1_555
C6A O1A 1_555 1_555
O1A H5A 1_555 1_555
O2A C6A 1_555 1_555
C7A C6A 1_555 1_555
H6A C7A 1_555 1_555
H7A C7A 1_555 1_555
C8A C7A 1_555 1_555
H8A C8A 1_555 1_555
H9A C8A 1_555 1_555
C9A C9 1_555 1_555
H10A C9A 1_555 1_555
H11A C9A 1_555 1_555
C4 C5 1_555 1_555
C3A N2A 1_555 1_555
C4A C5A 1_555 1_555
C8A C9A 1_555 1_555

#END
