
#######################################################################
#
#                 Cambridge Crystallographic Data Centre
#                                CCDC 
#
#######################################################################
#
# If this CIF has been generated from an entry in the Cambridge 
# Structural Database, then it will include bibliographic, chemical, 
# crystal, experimental, refinement or atomic coordinate data resulting 
# from the CCDC's data processing and validation procedures.
#
#######################################################################

data_XEPFUU
_chemical_formula_moiety         'C12 H14 N4'
_chemical_name_systematic        
1,4-bis(1-Methyl-2-pyrrolyl)-2,3-diazabuta-1,3-diene
_symmetry_cell_setting           orthorhombic
_symmetry_space_group_name_H-M   'P b c n'
_symmetry_Int_Tables_number      60
_space_group_name_Hall           '-P 2n 2ab'
loop_
_symmetry_equiv_pos_site_id
_symmetry_equiv_pos_as_xyz
1 x,y,z
2 1/2-x,1/2-y,1/2+z
3 -x,y,1/2-z
4 1/2+x,1/2-y,-z
5 -x,-y,-z
6 1/2+x,1/2+y,1/2-z
7 x,-y,1/2+z
8 1/2-x,1/2+y,z
_cell_length_a                   24.737(4)
_cell_length_b                   6.0359(9)
_cell_length_c                   7.6523(11)
_cell_angle_alpha                90
_cell_angle_beta                 90
_cell_angle_gamma                90
_cell_volume                     1142.57
_exptl_crystal_colour            'light yellow'
_exptl_crystal_description       'trigonal plate'
_chemical_melting_point          '114-115 deg.C'
_cell_formula_units_Z            4
_exptl_crystal_recrystallization_method 'ethyl acetate/dichloromethane'
loop_
_atom_site_label
_atom_site_type_symbol
_atom_site_fract_x
_atom_site_fract_y
_atom_site_fract_z
N1 N 0.01839(6) 0.0818(2) 0.52951(17)
C1 C 0.06732(7) 0.0295(3) 0.4919(2)
H1 H 0.0728 -0.1041 0.4287
C2 C 0.11453(7) 0.1558(3) 0.5372(2)
N2 N 0.11535(5) 0.3544(2) 0.62777(18)
C3 C 0.16744(7) 0.0986(3) 0.5011(2)
H2 H 0.1791 -0.0293 0.4394
C4 C 0.20077(8) 0.2634(3) 0.5720(3)
H3 H 0.2391 0.2673 0.5678
C5 C 0.16787(7) 0.4175(3) 0.6486(2)
H4 H 0.1797 0.5477 0.7069
C6 C 0.06914(7) 0.4823(3) 0.6876(2)
H5 H 0.0818 0.6139 0.7504
H6 H 0.0470 0.3912 0.7660
H7 H 0.0474 0.5281 0.5868
N1D N -0.01839(6) -0.0818(2) 0.47049(17)
C1D C -0.06732(7) -0.0295(3) 0.5081(2)
H1D H -0.0728 0.1041 0.5713
C2D C -0.11453(7) -0.1558(3) 0.4628(2)
N2D N -0.11535(5) -0.3544(2) 0.37223(18)
C3D C -0.16744(7) -0.0986(3) 0.4989(2)
H2D H -0.1791 0.0293 0.5606
C4D C -0.20077(8) -0.2634(3) 0.4280(3)
H3D H -0.2391 -0.2673 0.4322
C5D C -0.16787(7) -0.4175(3) 0.3514(2)
H4D H -0.1797 -0.5477 0.2931
C6D C -0.06914(7) -0.4823(3) 0.3124(2)
H5D H -0.0818 -0.6139 0.2496
H6D H -0.0470 -0.3912 0.2340
H7D H -0.0474 -0.5281 0.4132
loop_
_geom_bond_atom_site_label_1
_geom_bond_atom_site_label_2
_geom_bond_site_symmetry_1
_geom_bond_site_symmetry_2
N1 C1 1_555 1_555
C1 H1 1_555 1_555
C2 C1 1_555 1_555
N2 C2 1_555 1_555
C3 C2 1_555 1_555
H2 C3 1_555 1_555
C4 C3 1_555 1_555
H3 C4 1_555 1_555
C5 N2 1_555 1_555
H4 C5 1_555 1_555
C6 N2 1_555 1_555
H5 C6 1_555 1_555
H6 C6 1_555 1_555
H7 C6 1_555 1_555
N1D N1 1_555 1_555
C1D N1D 1_555 1_555
H1D C1D 1_555 1_555
C2D C1D 1_555 1_555
N2D C2D 1_555 1_555
C3D C2D 1_555 1_555
H2D C3D 1_555 1_555
C4D C3D 1_555 1_555
H3D C4D 1_555 1_555
C5D N2D 1_555 1_555
H4D C5D 1_555 1_555
C6D N2D 1_555 1_555
H5D C6D 1_555 1_555
H6D C6D 1_555 1_555
H7D C6D 1_555 1_555
C4 C5 1_555 1_555
C4D C5D 1_555 1_555

#END
