
#######################################################################
#
#                 Cambridge Crystallographic Data Centre
#                                CCDC 
#
#######################################################################
#
# If this CIF has been generated from an entry in the Cambridge 
# Structural Database, then it will include bibliographic, chemical, 
# crystal, experimental, refinement or atomic coordinate data resulting 
# from the CCDC's data processing and validation procedures.
#
#######################################################################

data_XEPGAB
_chemical_formula_moiety         'C10 H6 N4 S2'
_chemical_name_systematic        3,6-bis(2-Thienyl)-1,2,4,5-tetrazine
_symmetry_cell_setting           monoclinic
_symmetry_space_group_name_H-M   'P 21/n'
_symmetry_Int_Tables_number      14
_space_group_name_Hall           '-P 2yn'
loop_
_symmetry_equiv_pos_site_id
_symmetry_equiv_pos_as_xyz
1 x,y,z
2 1/2-x,1/2+y,1/2-z
3 -x,-y,-z
4 1/2+x,1/2-y,1/2+z
_cell_length_a                   5.227(2)
_cell_length_b                   9.129(1)
_cell_length_c                   10.922(1)
_cell_angle_alpha                90
_cell_angle_beta                 92.84(2)
_cell_angle_gamma                90
_cell_volume                     520.528
_exptl_crystal_colour            red
_exptl_crystal_description       plate
_chemical_melting_point          '191.5-192.5 deg.C'
_cell_formula_units_Z            2
_exptl_crystal_recrystallization_method dichloromethane
loop_
_atom_site_label
_atom_site_type_symbol
_atom_site_fract_x
_atom_site_fract_y
_atom_site_fract_z
S1 S 0.0299(1) 0.22668(8) 0.33244(6)
N1 N 0.4402(4) 0.4434(2) 0.3866(2)
N2 N 0.3722(4) 0.4607(2) 0.6010(2)
C1 C 0.3168(4) 0.4061(2) 0.4878(2)
C2 C 0.1114(4) 0.3008(3) 0.4741(2)
C3 C -0.0410(5) 0.2467(3) 0.5636(2)
C4 C -0.2237(5) 0.1465(3) 0.5137(2)
C5 C -0.2069(5) 0.1251(3) 0.3919(2)
H1 H -0.0249 0.2735 0.6477
H2 H -0.3465 0.0987 0.5610
H3 H -0.3152 0.0607 0.3448
S1B S 0.9701(1) 0.77332(8) 0.66756(6)
N1B N 0.5598(4) 0.5566(2) 0.6134(2)
N2B N 0.6278(4) 0.5393(2) 0.3990(2)
C1B C 0.6832(4) 0.5939(2) 0.5122(2)
C2B C 0.8886(4) 0.6992(3) 0.5259(2)
C3B C 1.0410(5) 0.7533(3) 0.4364(2)
C4B C 1.2237(5) 0.8535(3) 0.4863(2)
C5B C 1.2069(5) 0.8749(3) 0.6081(2)
H1B H 1.0249 0.7265 0.3523
H2B H 1.3465 0.9013 0.4390
H3B H 1.3152 0.9393 0.6552
loop_
_geom_bond_atom_site_label_1
_geom_bond_atom_site_label_2
_geom_bond_site_symmetry_1
_geom_bond_site_symmetry_2
S1 C2 1_555 1_555
N1 C1 1_555 1_555
N2 C1 1_555 1_555
C1 C2 1_555 1_555
C2 C3 1_555 1_555
C3 C4 1_555 1_555
C4 C5 1_555 1_555
C5 S1 1_555 1_555
H1 C3 1_555 1_555
H2 C4 1_555 1_555
H3 C5 1_555 1_555
S1B C2B 1_555 1_555
N1B N2 1_555 1_555
N2B N1 1_555 1_555
C1B N1B 1_555 1_555
C2B C1B 1_555 1_555
C3B C2B 1_555 1_555
C4B C3B 1_555 1_555
C5B S1B 1_555 1_555
H1B C3B 1_555 1_555
H2B C4B 1_555 1_555
H3B C5B 1_555 1_555
N2B C1B 1_555 1_555
C4B C5B 1_555 1_555

#END
