
#######################################################################
#
#                 Cambridge Crystallographic Data Centre
#                                CCDC 
#
#######################################################################
#
# If this CIF has been generated from an entry in the Cambridge 
# Structural Database, then it will include bibliographic, chemical, 
# crystal, experimental, refinement or atomic coordinate data resulting 
# from the CCDC's data processing and validation procedures.
#
#######################################################################

data_XEPGEH
_chemical_formula_moiety         'C36 H24 N2'
_chemical_name_systematic        
3,3'-(anthracene-9,10-diyl)bis(6-phenylpyridine)
_symmetry_cell_setting           triclinic
_symmetry_space_group_name_H-M   'P 1'
_symmetry_Int_Tables_number      1
_space_group_name_Hall           'P 1'
loop_
_symmetry_equiv_pos_site_id
_symmetry_equiv_pos_as_xyz
1 x,y,z
_cell_length_a                   7.869(2)
_cell_length_b                   9.895(3)
_cell_length_c                   10.042(3)
_cell_angle_alpha                115.421(6)
_cell_angle_beta                 96.317(9)
_cell_angle_gamma                110.322(7)
_cell_volume                     630.493
_cell_formula_units_Z            1
loop_
_atom_site_label
_atom_site_type_symbol
_atom_site_fract_x
_atom_site_fract_y
_atom_site_fract_z
C1 C -0.3336(16) -0.0614(15) 0.3804(15)
H1 H -0.2451 -0.0639 0.4478
C2 C -0.524(2) -0.1671(18) 0.333(2)
H2 H -0.5583 -0.2414 0.3695
C3 C -0.6646(19) -0.1739(19) 0.2401(17)
H3 H -0.7914 -0.2482 0.2117
C4 C -0.6037(17) -0.057(2) 0.1881(19)
H4 H -0.6934 -0.0568 0.1200
C5 C -0.4155(17) 0.0553(17) 0.2357(17)
H5 H -0.3826 0.1361 0.2066
C6 C -0.2761(14) 0.0496(12) 0.3252(12)
C7 C -0.0763(15) 0.1640(14) 0.3717(13)
C8 C -0.0189(14) 0.3090(14) 0.3661(14)
H6 H -0.1111 0.3338 0.3294
C9 C 0.1693(14) 0.4186(15) 0.4124(15)
H7 H 0.2037 0.5161 0.4079
C10 C 0.3062(13) 0.3817(11) 0.4658(11)
C11 C 0.2473(15) 0.2322(15) 0.4721(14)
H8 H 0.3369 0.2061 0.5106
C12 C 0.5179(13) 0.4947(12) 0.5183(13)
C13 C 0.6205(12) 0.5937(13) 0.6789(11)
C14 C 0.5306(16) 0.5803(16) 0.7938(15)
H9 H 0.4040 0.5051 0.7641
C15 C 0.6344(15) 0.6791(14) 0.9450(12)
H10 H 0.5742 0.6700 1.0175
C16 C 0.8233(15) 0.7928(16) 0.9995(14)
H11 H 0.8910 0.8573 1.1044
C17 C 0.9047(12) 0.8041(12) 0.8877(11)
H12 H 1.0303 0.8834 0.9219
C18 C 0.8168(13) 0.7083(13) 0.7288(11)
C19 C 0.6097(14) 0.5127(13) 0.4111(13)
C20 C 0.5013(17) 0.4065(16) 0.2400(14)
H13 H 0.3740 0.3300 0.2034
C21 C 0.5987(16) 0.4289(14) 0.1449(11)
H14 H 0.5330 0.3636 0.0396
C22 C 0.7973(15) 0.5449(14) 0.1884(13)
H15 H 0.8568 0.5550 0.1159
C23 C 0.8899(14) 0.6384(12) 0.3456(13)
H16 H 1.0177 0.7124 0.3783
C24 C 0.8060(13) 0.6303(11) 0.4603(12)
C25 C 0.9074(14) 0.7246(13) 0.6199(13)
C26 C 1.1114(14) 0.8443(14) 0.6739(12)
C27 C 1.1814(14) 0.9914(14) 0.6782(14)
H17 H 1.0917 1.0246 0.6528
C28 C 1.2535(13) 0.8069(13) 0.7260(14)
H18 H 1.2168 0.7099 0.7316
C29 C 1.4417(14) 0.9071(13) 0.7683(13)
H19 H 1.5328 0.8782 0.7997
C30 C 1.4943(12) 1.0507(13) 0.7636(12)
C31 C 1.7031(15) 1.1663(14) 0.8078(14)
C32 C 1.8388(17) 1.1711(18) 0.9107(16)
H20 H 1.8039 1.1020 0.9528
C33 C 2.033(2) 1.283(2) 0.952(2)
H21 H 2.1267 1.2814 1.0160
C34 C 2.0801(19) 1.385(2) 0.9027(19)
H22 H 2.2081 1.4578 0.9348
C35 C 1.945(2) 1.3936(19) 0.798(2)
H23 H 1.9820 1.4669 0.7605
C36 C 1.7611(15) 1.2854(15) 0.7610(15)
H24 H 1.6676 1.2905 0.7007
N1 N 0.0564(12) 0.1264(11) 0.4209(11)
N2 N 1.3637(13) 1.0964(12) 0.7145(11)
loop_
_geom_bond_atom_site_label_1
_geom_bond_atom_site_label_2
_geom_bond_site_symmetry_1
_geom_bond_site_symmetry_2
C1 H1 1_555 1_555
C2 C1 1_555 1_555
H2 C2 1_555 1_555
C3 C2 1_555 1_555
H3 C3 1_555 1_555
C4 C3 1_555 1_555
H4 C4 1_555 1_555
C5 C4 1_555 1_555
H5 C5 1_555 1_555
C6 C1 1_555 1_555
C7 C6 1_555 1_555
C8 C7 1_555 1_555
H6 C8 1_555 1_555
C9 C8 1_555 1_555
H7 C9 1_555 1_555
C10 C9 1_555 1_555
C11 C10 1_555 1_555
H8 C11 1_555 1_555
C12 C10 1_555 1_555
C13 C12 1_555 1_555
C14 C13 1_555 1_555
H9 C14 1_555 1_555
C15 C14 1_555 1_555
H10 C15 1_555 1_555
C16 C15 1_555 1_555
H11 C16 1_555 1_555
C17 C16 1_555 1_555
H12 C17 1_555 1_555
C18 C13 1_555 1_555
C19 C12 1_555 1_555
C20 C19 1_555 1_555
H13 C20 1_555 1_555
C21 C20 1_555 1_555
H14 C21 1_555 1_555
C22 C21 1_555 1_555
H15 C22 1_555 1_555
C23 C22 1_555 1_555
H16 C23 1_555 1_555
C24 C19 1_555 1_555
C25 C18 1_555 1_555
C26 C25 1_555 1_555
C27 C26 1_555 1_555
H17 C27 1_555 1_555
C28 C26 1_555 1_555
H18 C28 1_555 1_555
C29 C28 1_555 1_555
H19 C29 1_555 1_555
C30 C29 1_555 1_555
C31 C30 1_555 1_555
C32 C31 1_555 1_555
H20 C32 1_555 1_555
C33 C32 1_555 1_555
H21 C33 1_555 1_555
C34 C33 1_555 1_555
H22 C34 1_555 1_555
C35 C34 1_555 1_555
H23 C35 1_555 1_555
C36 C31 1_555 1_555
H24 C36 1_555 1_555
N1 C7 1_555 1_555
N2 C27 1_555 1_555
C5 C6 1_555 1_555
C11 N1 1_555 1_555
C17 C18 1_555 1_555
C23 C24 1_555 1_555
C24 C25 1_555 1_555
C30 N2 1_555 1_555
C35 C36 1_555 1_555

#END
