
#######################################################################
#
#                 Cambridge Crystallographic Data Centre
#                                CCDC 
#
#######################################################################
#
# If this CIF has been generated from an entry in the Cambridge 
# Structural Database, then it will include bibliographic, chemical, 
# crystal, experimental, refinement or atomic coordinate data resulting 
# from the CCDC's data processing and validation procedures.
#
#######################################################################

data_XEPHUY
_chemical_formula_moiety         'C14 H13 F3 N2 O2'
_chemical_name_systematic        
'ethyl 2-(2-methylphenyl)-4-(trifluoromethyl)-1H-imidazole-5-carboxylate'
_symmetry_cell_setting           monoclinic
_symmetry_space_group_name_H-M   'P 21/c'
_symmetry_Int_Tables_number      14
_space_group_name_Hall           '-P 2ybc'
loop_
_symmetry_equiv_pos_site_id
_symmetry_equiv_pos_as_xyz
1 x,y,z
2 -x,1/2+y,1/2-z
3 -x,-y,-z
4 x,1/2-y,1/2+z
_cell_length_a                   12.9089(8)
_cell_length_b                   24.6306(18)
_cell_length_c                   9.2995(8)
_cell_angle_alpha                90
_cell_angle_beta                 104.030(7)
_cell_angle_gamma                90
_cell_volume                     2868.61
_exptl_crystal_colour            colorless
_exptl_crystal_description       block
_cell_formula_units_Z            8
loop_
_atom_site_label
_atom_site_type_symbol
_atom_site_fract_x
_atom_site_fract_y
_atom_site_fract_z
F1 F 0.6884(2) 0.36664(11) 0.3463(5)
F2 F 0.6332(2) 0.43234(16) 0.4446(3)
F3 F 0.69268(17) 0.44520(12) 0.2645(3)
O1 O 0.35786(17) 0.52133(9) 0.0932(3)
O2 O 0.52283(17) 0.52175(9) 0.2372(3)
N1 N 0.49345(19) 0.35044(10) 0.1824(3)
N2 N 0.36463(18) 0.40740(10) 0.0843(3)
H1 H 0.3035 0.4193 0.0356
C1 C 0.3617(2) 0.26451(13) -0.0265(4)
C2 C 0.2905(3) 0.22293(14) -0.0784(4)
H2 H 0.3150 0.1920 -0.1172
C3 C 0.1848(3) 0.22556(15) -0.0748(4)
H3 H 0.1392 0.1967 -0.1103
C4 C 0.1470(3) 0.27064(16) -0.0191(4)
H4 H 0.0752 0.2731 -0.0186
C5 C 0.2162(2) 0.31261(14) 0.0367(4)
H5 H 0.1907 0.3431 0.0761
C6 C 0.3235(2) 0.30987(13) 0.0349(3)
C7 C 0.3943(2) 0.35491(12) 0.0982(3)
C8 C 0.5265(2) 0.40202(13) 0.2198(4)
C9 C 0.4472(2) 0.43866(13) 0.1600(3)
C10 C 0.4362(2) 0.49769(13) 0.1590(4)
C11 C 0.5207(3) 0.58080(15) 0.2450(5)
H6 H 0.5074 0.5961 0.1462
H7 H 0.4640 0.5924 0.2900
C12 C 0.6228(4) 0.5993(2) 0.3332(7)
H8 H 0.6791 0.5833 0.2966
H9 H 0.6303 0.5889 0.4347
H10 H 0.6267 0.6381 0.3269
C13 C 0.4753(3) 0.25957(17) -0.0409(5)
H11 H 0.4967 0.2930 -0.0781
H12 H 0.4800 0.2306 -0.1081
H13 H 0.5215 0.2519 0.0545
C14 C 0.6351(3) 0.41113(16) 0.3163(5)
F4 F -0.11928(17) 0.52906(11) 0.5644(3)
F5 F -0.17875(16) 0.50346(10) 0.7419(3)
F6 F -0.18940(17) 0.58587(9) 0.6819(3)
O3 O 0.16863(18) 0.44117(9) 0.8936(3)
O4 O 0.00974(17) 0.43846(9) 0.7346(3)
N3 N 0.00306(18) 0.60524(10) 0.8537(3)
N4 N 0.14047(18) 0.55167(9) 0.9397(3)
H14 H 0.2025 0.5410 0.9883
C15 C 0.1618(2) 0.69938(12) 0.9602(3)
C16 C 0.2283(2) 0.73855(13) 1.0414(4)
H15 H 0.2271 0.7734 1.0026
C17 C 0.2959(2) 0.72785(14) 1.1769(4)
H16 H 0.3398 0.7550 1.2282
C18 C 0.2981(2) 0.67660(14) 1.2357(4)
H17 H 0.3428 0.6689 1.3279
C19 C 0.2335(2) 0.63650(13) 1.1572(4)
H18 H 0.2354 0.6018 1.1970
C20 C 0.1655(2) 0.64748(12) 1.0192(3)
C21 C 0.1024(2) 0.60238(12) 0.9382(3)
C22 C -0.0205(2) 0.55428(12) 0.8005(3)
C23 C 0.0642(2) 0.51977(12) 0.8511(3)
C24 C 0.0868(2) 0.46300(13) 0.8301(4)
C25 C 0.0271(3) 0.38173(14) 0.7007(5)
H19 H 0.0994 0.3767 0.6903
H20 H 0.0163 0.3584 0.7798
C26 C -0.0497(4) 0.36841(19) 0.5619(5)
H21 H -0.0393 0.3923 0.4850
H22 H -0.1209 0.3726 0.5743
H23 H -0.0392 0.3315 0.5351
C27 C 0.0905(3) 0.71438(14) 0.8119(4)
H24 H 0.1034 0.6901 0.7373
H25 H 0.1054 0.7509 0.7874
H26 H 0.0171 0.7117 0.8164
C28 C -0.1265(3) 0.54311(14) 0.6982(4)
loop_
_geom_bond_atom_site_label_1
_geom_bond_atom_site_label_2
_geom_bond_site_symmetry_1
_geom_bond_site_symmetry_2
F1 C14 1_555 1_555
F2 C14 1_555 1_555
F3 C14 1_555 1_555
O1 C10 1_555 1_555
O2 C10 1_555 1_555
N1 C7 1_555 1_555
N2 H1 1_555 1_555
C1 C2 1_555 1_555
C2 H2 1_555 1_555
C3 C2 1_555 1_555
H3 C3 1_555 1_555
C4 C3 1_555 1_555
H4 C4 1_555 1_555
C5 C4 1_555 1_555
H5 C5 1_555 1_555
C6 C1 1_555 1_555
C7 N2 1_555 1_555
C8 N1 1_555 1_555
C9 N2 1_555 1_555
C10 C9 1_555 1_555
C11 O2 1_555 1_555
H6 C11 1_555 1_555
H7 C11 1_555 1_555
C12 C11 1_555 1_555
H8 C12 1_555 1_555
H9 C12 1_555 1_555
H10 C12 1_555 1_555
C13 C1 1_555 1_555
H11 C13 1_555 1_555
H12 C13 1_555 1_555
H13 C13 1_555 1_555
C14 C8 1_555 1_555
F4 C28 1_555 1_555
F5 C28 1_555 1_555
F6 C28 1_555 1_555
O3 C24 1_555 1_555
O4 C24 1_555 1_555
N3 C21 1_555 1_555
N4 H14 1_555 1_555
C15 C16 1_555 1_555
C16 H15 1_555 1_555
C17 C16 1_555 1_555
H16 C17 1_555 1_555
C18 C17 1_555 1_555
H17 C18 1_555 1_555
C19 C18 1_555 1_555
H18 C19 1_555 1_555
C20 C15 1_555 1_555
C21 N4 1_555 1_555
C22 N3 1_555 1_555
C23 N4 1_555 1_555
C24 C23 1_555 1_555
C25 O4 1_555 1_555
H19 C25 1_555 1_555
H20 C25 1_555 1_555
C26 C25 1_555 1_555
H21 C26 1_555 1_555
H22 C26 1_555 1_555
H23 C26 1_555 1_555
C27 C15 1_555 1_555
H24 C27 1_555 1_555
H25 C27 1_555 1_555
H26 C27 1_555 1_555
C28 C22 1_555 1_555
C5 C6 1_555 1_555
C6 C7 1_555 1_555
C8 C9 1_555 1_555
C19 C20 1_555 1_555
C20 C21 1_555 1_555
C22 C23 1_555 1_555

#END
