
#######################################################################
#
#                 Cambridge Crystallographic Data Centre
#                                CCDC 
#
#######################################################################
#
# If this CIF has been generated from an entry in the Cambridge 
# Structural Database, then it will include bibliographic, chemical, 
# crystal, experimental, refinement or atomic coordinate data resulting 
# from the CCDC's data processing and validation procedures.
#
#######################################################################

data_XEPJAG
_chemical_formula_moiety         'C13 H10 Br1 F3 N2 O2'
_chemical_name_systematic        
'ethyl 2-(4-bromophenyl)-4-(trifluoromethyl)-1H-imidazole-5-carboxylate'
_symmetry_cell_setting           triclinic
_symmetry_space_group_name_H-M   'P -1'
_symmetry_Int_Tables_number      2
_space_group_name_Hall           '-P 1'
loop_
_symmetry_equiv_pos_site_id
_symmetry_equiv_pos_as_xyz
1 x,y,z
2 -x,-y,-z
_cell_length_a                   8.0597(7)
_cell_length_b                   8.0602(7)
_cell_length_c                   12.2760(10)
_cell_angle_alpha                85.354(7)
_cell_angle_beta                 76.767(7)
_cell_angle_gamma                64.817(9)
_cell_volume                     702.401
_exptl_crystal_colour            colorless
_exptl_crystal_description       block
_cell_formula_units_Z            2
loop_
_atom_site_label
_atom_site_type_symbol
_atom_site_fract_x
_atom_site_fract_y
_atom_site_fract_z
Br1 Br 0.45094(9) 0.66646(10) 0.87010(5)
F1 F 0.9522(6) 1.0601(10) 0.1990(5)
F2 F 1.1670(10) 0.8203(8) 0.1222(3)
F3 F 1.2302(7) 1.0217(6) 0.1717(4)
O1 O 1.5885(5) 0.5804(6) 0.3819(3)
O2 O 1.5329(5) 0.7491(6) 0.2296(3)
N1 N 1.2017(6) 0.6891(6) 0.4598(4)
H1 H 1.2625 0.6205 0.5077
N2 N 0.9639(6) 0.8629(6) 0.3819(4)
C1 C 0.8804(7) 0.7346(7) 0.5655(4)
C2 C 0.6894(8) 0.8249(8) 0.5687(5)
H2 H 0.6475 0.8998 0.5100
C3 C 0.5614(8) 0.8041(8) 0.6583(5)
H3 H 0.4335 0.8668 0.6608
C4 C 0.6232(8) 0.6908(8) 0.7440(5)
C5 C 0.8132(8) 0.5964(9) 0.7400(5)
H4 H 0.8547 0.5188 0.7978
C6 C 0.9408(8) 0.6168(8) 0.6509(5)
H5 H 1.0687 0.5511 0.6478
C7 C 1.0133(7) 0.7615(7) 0.4698(5)
C8 C 1.1253(8) 0.8521(7) 0.3141(5)
C9 C 1.2791(7) 0.7443(7) 0.3597(4)
C10 C 1.4813(7) 0.6826(8) 0.3268(5)
C11 C 1.7346(8) 0.6908(10) 0.1843(5)
H6 H 1.7991 0.5580 0.1818
H7 H 1.7874 0.7380 0.2311
C12 C 1.7565(11) 0.7641(13) 0.0707(6)
H8 H 1.7072 0.7137 0.0246
H9 H 1.8872 0.7313 0.0393
H10 H 1.6894 0.8953 0.0741
C13 C 1.1172(9) 0.9419(10) 0.2032(6)
loop_
_geom_bond_atom_site_label_1
_geom_bond_atom_site_label_2
_geom_bond_site_symmetry_1
_geom_bond_site_symmetry_2
Br1 C4 1_555 1_555
F1 C13 1_555 1_555
F2 C13 1_555 1_555
F3 C13 1_555 1_555
O1 C10 1_555 1_555
O2 C10 1_555 1_555
N1 H1 1_555 1_555
N2 C7 1_555 1_555
C1 C2 1_555 1_555
C2 H2 1_555 1_555
C3 C2 1_555 1_555
H3 C3 1_555 1_555
C4 C3 1_555 1_555
C5 C4 1_555 1_555
H4 C5 1_555 1_555
C6 C1 1_555 1_555
H5 C6 1_555 1_555
C7 N1 1_555 1_555
C8 N2 1_555 1_555
C9 N1 1_555 1_555
C10 C9 1_555 1_555
C11 O2 1_555 1_555
H6 C11 1_555 1_555
H7 C11 1_555 1_555
C12 C11 1_555 1_555
H8 C12 1_555 1_555
H9 C12 1_555 1_555
H10 C12 1_555 1_555
C13 C8 1_555 1_555
C1 C7 1_555 1_555
C5 C6 1_555 1_555
C8 C9 1_555 1_555

#END
