
#######################################################################
#
#                 Cambridge Crystallographic Data Centre
#                                CCDC 
#
#######################################################################
#
# If this CIF has been generated from an entry in the Cambridge 
# Structural Database, then it will include bibliographic, chemical, 
# crystal, experimental, refinement or atomic coordinate data resulting 
# from the CCDC's data processing and validation procedures.
#
#######################################################################

data_XEPPEQ
_chemical_formula_moiety         'C29 H33 Br1 O4'
_chemical_name_systematic        
'3-(benzyloxy)-1,1,7-trimethyl-8-oxodecahydro-3a,7-methanocyclopenta[8]annulen-6-yl 4-bromobenzoate'
_symmetry_cell_setting           triclinic
_symmetry_space_group_name_H-M   'P -1'
_symmetry_Int_Tables_number      2
_space_group_name_Hall           '-P 1'
loop_
_symmetry_equiv_pos_site_id
_symmetry_equiv_pos_as_xyz
1 x,y,z
2 -x,-y,-z
_cell_length_a                   9.8378(11)
_cell_length_b                   10.0606(10)
_cell_length_c                   14.0335(12)
_cell_angle_alpha                70.001(9)
_cell_angle_beta                 80.759(8)
_cell_angle_gamma                83.195(9)
_cell_volume                     1285.23
_exptl_crystal_description       block
_cell_formula_units_Z            2
loop_
_atom_site_label
_atom_site_type_symbol
_atom_site_fract_x
_atom_site_fract_y
_atom_site_fract_z
Br1 Br 0.37326(9) 1.12012(8) 0.16037(8)
C1 C 0.1550(8) 0.0617(8) 0.5387(5)
C2 C 0.1441(8) 0.2260(7) 0.4965(5)
C3 C 0.2917(8) 0.2680(7) 0.4519(5)
H1 H 0.3283 0.2231 0.3986
C4 C 0.3859(8) 0.2244(8) 0.5344(5)
H2 H 0.4747 0.2687 0.5055
H3 H 0.4054 0.1202 0.5561
C5 C 0.3242(8) 0.2671(8) 0.6284(5)
H4 H 0.3853 0.2258 0.6825
H5 H 0.3211 0.3716 0.6095
C6 C 0.1791(7) 0.2179(7) 0.6710(5)
C7 C 0.1240(7) 0.2675(8) 0.7653(4)
H6 H 0.2012 0.2697 0.8030
C8 C 0.0282(7) 0.1430(7) 0.8302(5)
H7 H 0.0042 0.1424 0.9016
H8 H -0.0580 0.1524 0.7997
C9 C 0.1145(7) 0.0103(7) 0.8259(4)
C10 C 0.1786(7) 0.0506(7) 0.7111(4)
H9 H 0.2767 0.0108 0.7085
C11 C 0.1082(8) -0.0036(8) 0.6491(4)
H10 H 0.0073 0.0168 0.6625
H11 H 0.1267 -0.1077 0.6689
C12 C 0.0913(8) 0.2775(7) 0.5846(5)
H12 H -0.0045 0.2500 0.6105
H13 H 0.0894 0.3823 0.5607
C13 C 0.0534(8) 0.2729(8) 0.4178(5)
H14 H -0.0348 0.2294 0.4448
H15 H 0.0963 0.2447 0.3590
H16 H 0.0375 0.3763 0.3964
C14 C 0.0285(8) -0.1212(7) 0.8613(5)
H17 H -0.0134 -0.1383 0.9323
H18 H 0.0887 -0.2041 0.8565
H19 H -0.0442 -0.1044 0.8175
C15 C 0.2283(8) -0.0203(8) 0.8937(5)
H20 H 0.2929 0.0548 0.8658
H21 H 0.2776 -0.1117 0.8962
H22 H 0.1876 -0.0237 0.9629
C16 C 0.3082(6) 0.4804(7) 0.3024(5)
C17 C 0.3256(6) 0.6348(6) 0.2714(4)
C18 C 0.3680(7) 0.7061(7) 0.1685(4)
H23 H 0.3851 0.6564 0.1207
C19 C 0.3850(8) 0.8503(8) 0.1366(5)
H24 H 0.4168 0.8987 0.0670
C20 C 0.3563(7) 0.9236(7) 0.2045(5)
C21 C 0.3140(7) 0.8547(7) 0.3057(5)
H25 H 0.2945 0.9061 0.3524
C22 C 0.2997(7) 0.7093(7) 0.3400(5)
H26 H 0.2721 0.6611 0.4104
C23 C 0.0208(8) 0.4528(8) 0.8188(5)
H27 H -0.0250 0.3806 0.8791
H28 H -0.0449 0.5371 0.7996
C24 C 0.1476(7) 0.4941(6) 0.8483(4)
C25 C 0.2390(8) 0.5810(7) 0.7752(5)
H29 H 0.2254 0.6108 0.7052
C26 C 0.3518(8) 0.6255(8) 0.8031(6)
H30 H 0.4153 0.6834 0.7518
C27 C 0.3709(8) 0.5865(8) 0.9029(6)
H31 H 0.4467 0.6187 0.9212
C28 C 0.2822(8) 0.5015(8) 0.9769(5)
H32 H 0.2954 0.4749 1.0467
C29 C 0.1707(7) 0.4533(7) 0.9493(5)
H33 H 0.1104 0.3917 1.0009
O1 O 0.1988(7) -0.0061(6) 0.4819(4)
O2 O 0.2902(5) 0.4223(5) 0.4062(3)
O3 O 0.3158(5) 0.4155(5) 0.2449(3)
O4 O 0.0507(5) 0.3979(5) 0.7364(3)
loop_
_geom_bond_atom_site_label_1
_geom_bond_atom_site_label_2
_geom_bond_site_symmetry_1
_geom_bond_site_symmetry_2
Br1 C20 1_555 1_555
C1 C2 1_555 1_555
C2 C3 1_555 1_555
C3 H1 1_555 1_555
C4 C3 1_555 1_555
H2 C4 1_555 1_555
H3 C4 1_555 1_555
C5 C4 1_555 1_555
H4 C5 1_555 1_555
H5 C5 1_555 1_555
C6 C5 1_555 1_555
C7 C6 1_555 1_555
H6 C7 1_555 1_555
C8 C7 1_555 1_555
H7 C8 1_555 1_555
H8 C8 1_555 1_555
C9 C8 1_555 1_555
C10 C6 1_555 1_555
H9 C10 1_555 1_555
C11 C1 1_555 1_555
H10 C11 1_555 1_555
H11 C11 1_555 1_555
C12 C2 1_555 1_555
H12 C12 1_555 1_555
H13 C12 1_555 1_555
C13 C2 1_555 1_555
H14 C13 1_555 1_555
H15 C13 1_555 1_555
H16 C13 1_555 1_555
C14 C9 1_555 1_555
H17 C14 1_555 1_555
H18 C14 1_555 1_555
H19 C14 1_555 1_555
C15 C9 1_555 1_555
H20 C15 1_555 1_555
H21 C15 1_555 1_555
H22 C15 1_555 1_555
C16 C17 1_555 1_555
C17 C18 1_555 1_555
C18 H23 1_555 1_555
C19 C18 1_555 1_555
H24 C19 1_555 1_555
C20 C19 1_555 1_555
C21 C20 1_555 1_555
H25 C21 1_555 1_555
C22 C17 1_555 1_555
H26 C22 1_555 1_555
C23 H27 1_555 1_555
H28 C23 1_555 1_555
C24 C23 1_555 1_555
C25 C24 1_555 1_555
H29 C25 1_555 1_555
C26 C25 1_555 1_555
H30 C26 1_555 1_555
C27 C26 1_555 1_555
H31 C27 1_555 1_555
C28 C27 1_555 1_555
H32 C28 1_555 1_555
C29 C24 1_555 1_555
H33 C29 1_555 1_555
O1 C1 1_555 1_555
O2 C3 1_555 1_555
O3 C16 1_555 1_555
O4 C7 1_555 1_555
C6 C12 1_555 1_555
C9 C10 1_555 1_555
C10 C11 1_555 1_555
C16 O2 1_555 1_555
C21 C22 1_555 1_555
C23 O4 1_555 1_555
C28 C29 1_555 1_555

#END
