
#######################################################################
#
#                 Cambridge Crystallographic Data Centre
#                                CCDC 
#
#######################################################################
#
# If this CIF has been generated from an entry in the Cambridge 
# Structural Database, then it will include bibliographic, chemical, 
# crystal, experimental, refinement or atomic coordinate data resulting 
# from the CCDC's data processing and validation procedures.
#
#######################################################################

data_XEPRUG
_chemical_formula_moiety         'C19 H24 N2 O4 S1'
_chemical_name_systematic        
2-((Benzylamino)sulfonyl)-N-((1S)-1-hydroxymethyl-2-methylpropyl)benzamide
_symmetry_cell_setting           orthorhombic
_symmetry_space_group_name_H-M   'P 21 21 21'
_symmetry_Int_Tables_number      19
_space_group_name_Hall           'P 2ac 2ab'
loop_
_symmetry_equiv_pos_site_id
_symmetry_equiv_pos_as_xyz
1 x,y,z
2 1/2-x,-y,1/2+z
3 -x,1/2+y,1/2-z
4 1/2+x,1/2-y,-z
_cell_length_a                   8.5173(10)
_cell_length_b                   12.5191(14)
_cell_length_c                   18.195(2)
_cell_angle_alpha                90
_cell_angle_beta                 90
_cell_angle_gamma                90
_cell_volume                     1940.11
_exptl_crystal_colour            colorless
_exptl_crystal_description       block
_chemical_melting_point          136-137deg.C
_cell_formula_units_Z            4
_exptl_crystal_recrystallization_method dichloromethane
loop_
_atom_site_label
_atom_site_type_symbol
_atom_site_fract_x
_atom_site_fract_y
_atom_site_fract_z
S1 S 0.17171(6) 0.53250(3) 0.15695(2)
O1 O 0.03909(15) 0.76963(11) 0.13039(7)
N1 N 0.24998(19) 0.81659(14) 0.06095(9)
C1 C 0.2974(2) 0.62709(15) 0.19946(10)
O2 O 0.17843(18) 0.55431(11) 0.07966(7)
N2 N -0.0069(2) 0.55620(14) 0.18282(9)
C2 C 0.2954(2) 0.73409(15) 0.17713(10)
C3 C 0.3971(2) 0.80484(17) 0.21124(11)
H1 H 0.3978 0.8777 0.1966
O3 O 0.21291(19) 0.42877(11) 0.18312(9)
O4 O 0.08091(17) 0.68331(12) -0.04421(8)
H2 H 0.1250 0.6539 -0.0082
C4 C 0.4983(3) 0.7710(2) 0.26662(12)
H3 H 0.5673 0.8205 0.2895
C5 C 0.4981(3) 0.66552(19) 0.28823(12)
H4 H 0.5666 0.6424 0.3262
C6 C 0.3979(2) 0.59272(17) 0.25453(11)
H5 H 0.3983 0.5199 0.2692
C7 C 0.1820(2) 0.77491(14) 0.11979(10)
C8 C 0.1653(2) 0.86144(15) -0.00187(9)
H6 H 0.0549 0.8775 0.0131
C9 C 0.1635(2) 0.77795(16) -0.06315(11)
H7 H 0.1146 0.8097 -0.1074
H8 H 0.2731 0.7590 -0.0758
C10 C 0.2442(2) 0.96477(17) -0.02807(11)
H9 H 0.3450 0.9448 -0.0527
C11 C 0.1417(3) 1.0218(2) -0.08490(14)
H10 H 0.1177 0.9727 -0.1253
H11 H 0.1981 1.0841 -0.1042
H12 H 0.0438 1.0452 -0.0617
C12 C 0.2835(3) 1.03971(19) 0.03510(13)
H13 H 0.3492 1.0022 0.0710
H14 H 0.1862 1.0632 0.0589
H15 H 0.3402 1.1020 0.0162
C13 C -0.0602(3) 0.51885(17) 0.25566(11)
H16 H -0.0380 0.4414 0.2598
H17 H -0.1754 0.5283 0.2588
C14 C 0.0149(3) 0.57534(16) 0.31994(11)
C15 C -0.0100(3) 0.68385(18) 0.33136(12)
H18 H -0.0758 0.7226 0.2987
C16 C 0.1122(3) 0.51992(18) 0.36752(11)
H19 H 0.1301 0.4458 0.3601
C17 C 0.0599(4) 0.7358(2) 0.38953(14)
H20 H 0.0418 0.8098 0.3972
C18 C 0.1838(3) 0.57191(19) 0.42617(12)
H21 H 0.2506 0.5336 0.4586
C19 C 0.1570(4) 0.6793(2) 0.43689(13)
H22 H 0.2054 0.7149 0.4770
H23 H 0.353(3) 0.8152(18) 0.0578(12)
H24 H -0.029(3) 0.624(2) 0.1732(13)
loop_
_geom_bond_atom_site_label_1
_geom_bond_atom_site_label_2
_geom_bond_site_symmetry_1
_geom_bond_site_symmetry_2
S1 C1 1_555 1_555
O1 C7 1_555 1_555
N1 C7 1_555 1_555
C1 C2 1_555 1_555
O2 S1 1_555 1_555
N2 S1 1_555 1_555
C2 C3 1_555 1_555
C3 H1 1_555 1_555
O3 S1 1_555 1_555
O4 H2 1_555 1_555
C4 C3 1_555 1_555
H3 C4 1_555 1_555
C5 C4 1_555 1_555
H4 C5 1_555 1_555
C6 C1 1_555 1_555
H5 C6 1_555 1_555
C7 C2 1_555 1_555
C8 N1 1_555 1_555
H6 C8 1_555 1_555
C9 O4 1_555 1_555
H7 C9 1_555 1_555
H8 C9 1_555 1_555
C10 C8 1_555 1_555
H9 C10 1_555 1_555
C11 C10 1_555 1_555
H10 C11 1_555 1_555
H11 C11 1_555 1_555
H12 C11 1_555 1_555
C12 C10 1_555 1_555
H13 C12 1_555 1_555
H14 C12 1_555 1_555
H15 C12 1_555 1_555
C13 N2 1_555 1_555
H16 C13 1_555 1_555
H17 C13 1_555 1_555
C14 C13 1_555 1_555
C15 C14 1_555 1_555
H18 C15 1_555 1_555
C16 C14 1_555 1_555
H19 C16 1_555 1_555
C17 C15 1_555 1_555
H20 C17 1_555 1_555
C18 C16 1_555 1_555
H21 C18 1_555 1_555
C19 C17 1_555 1_555
H22 C19 1_555 1_555
H23 N1 1_555 1_555
H24 N2 1_555 1_555
C5 C6 1_555 1_555
C8 C9 1_555 1_555
C18 C19 1_555 1_555

#END
