
#######################################################################
#
#                 Cambridge Crystallographic Data Centre
#                                CCDC 
#
#######################################################################
#
# If this CIF has been generated from an entry in the Cambridge 
# Structural Database, then it will include bibliographic, chemical, 
# crystal, experimental, refinement or atomic coordinate data resulting 
# from the CCDC's data processing and validation procedures.
#
#######################################################################

data_XEPROA
_chemical_formula_moiety         'C23 H22 N2 O3 S1'
_chemical_name_systematic        
N-Benzyl-2-((4S)-4-benzyl-4,5-dihydro-1,3-oxazol-2-yl)benzenesulfonamide
_symmetry_cell_setting           triclinic
_symmetry_space_group_name_H-M   'P 1'
_symmetry_Int_Tables_number      1
_space_group_name_Hall           'P 1'
loop_
_symmetry_equiv_pos_site_id
_symmetry_equiv_pos_as_xyz
1 x,y,z
_cell_length_a                   5.8503(15)
_cell_length_b                   7.736(2)
_cell_length_c                   22.170(6)
_cell_angle_alpha                87.995(4)
_cell_angle_beta                 85.686(4)
_cell_angle_gamma                89.818(4)
_cell_volume                     999.913
_exptl_crystal_colour            colorless
_exptl_crystal_description       tablet
_chemical_melting_point          90-93deg.C
_cell_formula_units_Z            2
_exptl_crystal_recrystallization_method dichloromethane
loop_
_atom_site_label
_atom_site_type_symbol
_atom_site_fract_x
_atom_site_fract_y
_atom_site_fract_z
S1 S -0.0470(2) 0.55117(17) -0.17181(7)
O1 O 0.1995(7) 0.5458(6) -0.1767(2)
N1 N 0.1027(8) 0.1664(6) -0.1263(2)
C1 C -0.0501(9) 0.2286(7) -0.2260(2)
N2 N -0.1319(8) 0.4896(7) -0.1033(2)
H1 H -0.070(11) 0.382(4) -0.099(3)
O2 O -0.1553(7) 0.7122(5) -0.1853(2)
C2 C -0.1424(9) 0.3979(7) -0.2222(3)
O3 O 0.2683(7) 0.0455(6) -0.20986(19)
C3 C -0.3060(10) 0.4529(8) -0.2615(3)
H2 H -0.3719 0.5648 -0.2582
C4 C -0.3717(11) 0.3440(9) -0.3051(3)
H3 H -0.4829 0.3824 -0.3317
C5 C -0.2779(11) 0.1784(9) -0.3110(3)
H4 H -0.3201 0.1052 -0.3419
C6 C -0.1195(10) 0.1240(8) -0.2699(3)
H5 H -0.0579 0.0105 -0.2725
C7 C 0.1113(9) 0.1493(7) -0.1830(3)
C8 C 0.3909(11) -0.0298(8) -0.1607(3)
H6 H 0.5546 0.0040 -0.1652
H7 H 0.3805 -0.1576 -0.1597
C9 C 0.2728(11) 0.0427(8) -0.1033(3)
H8 H 0.3870 0.1067 -0.0812
C10 C 0.1550(11) -0.0944(8) -0.0609(3)
H9 H 0.0215 -0.1402 -0.0802
H10 H 0.2630 -0.1915 -0.0553
C11 C 0.0747(10) -0.0289(7) 0.0002(3)
C12 C 0.2078(11) -0.0559(8) 0.0491(3)
H11 H 0.3491 -0.1163 0.0436
C13 C -0.1299(12) 0.0591(9) 0.0103(3)
H12 H -0.2254 0.0768 -0.0222
C14 C 0.1383(14) 0.0030(9) 0.1048(3)
H13 H 0.2318 -0.0176 0.1375
C15 C -0.1999(12) 0.1223(9) 0.0665(3)
H14 H -0.3386 0.1858 0.0724
C16 C -0.0611(13) 0.0902(10) 0.1144(3)
H15 H -0.1069 0.1296 0.1536
C17 C -0.3823(10) 0.4912(8) -0.0860(3)
H16 H -0.4521 0.3841 -0.0994
H17 H -0.4534 0.5907 -0.1068
C18 C -0.4309(10) 0.5040(7) -0.0188(3)
C19 C -0.2778(10) 0.5824(8) 0.0170(3)
H18 H -0.1343 0.6227 -0.0009
C20 C -0.6391(10) 0.4460(8) 0.0095(3)
H19 H -0.7467 0.3924 -0.0139
C21 C -0.3325(11) 0.6023(9) 0.0787(3)
H20 H -0.2279 0.6572 0.1026
C22 C -0.6911(12) 0.4643(9) 0.0693(3)
H21 H -0.8345 0.4229 0.0870
C23 C -0.5436(12) 0.5405(9) 0.1051(3)
H22 H -0.5829 0.5516 0.1472
O4 O -0.2709(7) 0.0778(5) 0.5279(2)
C24 C -0.0215(9) -0.2506(7) 0.5768(2)
N3 N -0.1759(9) -0.2920(6) 0.4782(2)
S2 S -0.0239(2) 0.08380(16) 0.52328(7)
O5 O 0.0869(7) 0.2416(5) 0.5364(2)
N4 N 0.0612(8) 0.0340(6) 0.4549(2)
H23 H 0.012(10) -0.076(3) 0.450(3)
C25 C 0.0699(9) -0.0825(8) 0.5733(3)
O6 O -0.3397(8) -0.4290(6) 0.5616(2)
C26 C 0.2341(10) -0.0354(8) 0.6126(3)
H24 H 0.3000 0.0770 0.6091
C27 C 0.3011(10) -0.1544(8) 0.6572(3)
H25 H 0.4121 -0.1230 0.6840
C28 C 0.2045(11) -0.3175(8) 0.6620(3)
H26 H 0.2459 -0.3970 0.6929
C29 C 0.0487(10) -0.3654(8) 0.6221(3)
H27 H -0.0127 -0.4792 0.6254
C30 C -0.1834(9) -0.3186(7) 0.5349(3)
C31 C -0.4704(11) -0.4908(8) 0.5127(3)
H28 H -0.6318 -0.4518 0.5177
H29 H -0.4672 -0.6187 0.5119
C32 C -0.3475(11) -0.4096(7) 0.4546(3)
H30 H -0.4586 -0.3414 0.4312
C33 C -0.2239(11) -0.5420(8) 0.4145(3)
H31 H -0.0915 -0.5887 0.4351
H32 H -0.3296 -0.6393 0.4094
C34 C -0.1388(10) -0.4693(7) 0.3523(3)
C35 C 0.0656(12) -0.3770(9) 0.3430(3)
H33 H 0.1546 -0.3592 0.3763
C36 C -0.2645(11) -0.4957(9) 0.3026(3)
H34 H -0.4055 -0.5568 0.3080
C37 C 0.1417(12) -0.3109(9) 0.2863(4)
H35 H 0.2811 -0.2477 0.2810
C38 C -0.1873(13) -0.4346(11) 0.2461(3)
H36 H -0.2717 -0.4589 0.2124
C39 C 0.0129(14) -0.3373(10) 0.2372(4)
H37 H 0.0609 -0.2898 0.1982
C40 C 0.3079(10) 0.0388(8) 0.4367(3)
H38 H 0.3788 -0.0706 0.4505
H39 H 0.3787 0.1346 0.4571
C41 C 0.3593(11) 0.0632(7) 0.3687(3)
C42 C 0.2055(11) 0.1510(8) 0.3341(3)
H40 H 0.0648 0.1923 0.3525
C43 C 0.5682(10) 0.0087(8) 0.3412(3)
H41 H 0.6761 -0.0478 0.3651
C44 C 0.6204(11) 0.0356(9) 0.2800(3)
H42 H 0.7608 -0.0058 0.2615
C45 C 0.2584(11) 0.1782(8) 0.2723(3)
H43 H 0.1504 0.2347 0.2484
C46 C 0.4643(13) 0.1247(10) 0.2450(3)
H44 H 0.5006 0.1477 0.2030
loop_
_geom_bond_atom_site_label_1
_geom_bond_atom_site_label_2
_geom_bond_site_symmetry_1
_geom_bond_site_symmetry_2
S1 O1 1_555 1_555
N1 C7 1_555 1_555
C1 C2 1_555 1_555
N2 S1 1_555 1_555
H1 N2 1_555 1_555
O2 S1 1_555 1_555
C2 S1 1_555 1_555
O3 C7 1_555 1_555
C3 C2 1_555 1_555
H2 C3 1_555 1_555
C4 C3 1_555 1_555
H3 C4 1_555 1_555
C5 C4 1_555 1_555
H4 C5 1_555 1_555
C6 C1 1_555 1_555
H5 C6 1_555 1_555
C7 C1 1_555 1_555
C8 O3 1_555 1_555
H6 C8 1_555 1_555
H7 C8 1_555 1_555
C9 N1 1_555 1_555
H8 C9 1_555 1_555
C10 C9 1_555 1_555
H9 C10 1_555 1_555
H10 C10 1_555 1_555
C11 C10 1_555 1_555
C12 C11 1_555 1_555
H11 C12 1_555 1_555
C13 C11 1_555 1_555
H12 C13 1_555 1_555
C14 C12 1_555 1_555
H13 C14 1_555 1_555
C15 C13 1_555 1_555
H14 C15 1_555 1_555
C16 C14 1_555 1_555
H15 C16 1_555 1_555
C17 N2 1_555 1_555
H16 C17 1_555 1_555
H17 C17 1_555 1_555
C18 C17 1_555 1_555
C19 C18 1_555 1_555
H18 C19 1_555 1_555
C20 C18 1_555 1_555
H19 C20 1_555 1_555
C21 C19 1_555 1_555
H20 C21 1_555 1_555
C22 C20 1_555 1_555
H21 C22 1_555 1_555
C23 C21 1_555 1_555
H22 C23 1_555 1_555
O4 S2 1_555 1_555
C24 C25 1_555 1_555
N3 C30 1_555 1_555
S2 O5 1_555 1_555
N4 S2 1_555 1_555
H23 N4 1_555 1_555
C25 S2 1_555 1_555
O6 C30 1_555 1_555
C26 C25 1_555 1_555
H24 C26 1_555 1_555
C27 C26 1_555 1_555
H25 C27 1_555 1_555
C28 C27 1_555 1_555
H26 C28 1_555 1_555
C29 C24 1_555 1_555
H27 C29 1_555 1_555
C30 C24 1_555 1_555
C31 O6 1_555 1_555
H28 C31 1_555 1_555
H29 C31 1_555 1_555
C32 N3 1_555 1_555
H30 C32 1_555 1_555
C33 C32 1_555 1_555
H31 C33 1_555 1_555
H32 C33 1_555 1_555
C34 C33 1_555 1_555
C35 C34 1_555 1_555
H33 C35 1_555 1_555
C36 C34 1_555 1_555
H34 C36 1_555 1_555
C37 C35 1_555 1_555
H35 C37 1_555 1_555
C38 C36 1_555 1_555
H36 C38 1_555 1_555
C39 C37 1_555 1_555
H37 C39 1_555 1_555
C40 N4 1_555 1_555
H38 C40 1_555 1_555
H39 C40 1_555 1_555
C41 C40 1_555 1_555
C42 C41 1_555 1_555
H40 C42 1_555 1_555
C43 C41 1_555 1_555
H41 C43 1_555 1_555
C44 C43 1_555 1_555
H42 C44 1_555 1_555
C45 C42 1_555 1_555
H43 C45 1_555 1_555
C46 C44 1_555 1_555
H44 C46 1_555 1_555
C5 C6 1_555 1_555
C8 C9 1_555 1_555
C15 C16 1_555 1_555
C22 C23 1_555 1_555
C28 C29 1_555 1_555
C31 C32 1_555 1_555
C38 C39 1_555 1_555
C45 C46 1_555 1_555

#END
