
#######################################################################
#
#                 Cambridge Crystallographic Data Centre
#                                CCDC 
#
#######################################################################
#
# If this CIF has been generated from an entry in the Cambridge 
# Structural Database, then it will include bibliographic, chemical, 
# crystal, experimental, refinement or atomic coordinate data resulting 
# from the CCDC's data processing and validation procedures.
#
#######################################################################

data_XEPSAN
_chemical_formula_moiety         'C9 H8 Br1 N1 O3 S1'
_chemical_name_systematic        
'2-(2-Bromoethyl)-1,2-benzisothiazol-3(2H)-one 1,1-dioxide'
_symmetry_cell_setting           monoclinic
_symmetry_space_group_name_H-M   'P 21/n'
_symmetry_Int_Tables_number      14
_space_group_name_Hall           '-P 2yn'
loop_
_symmetry_equiv_pos_site_id
_symmetry_equiv_pos_as_xyz
1 x,y,z
2 1/2-x,1/2+y,1/2-z
3 -x,-y,-z
4 1/2+x,1/2-y,1/2+z
_cell_length_a                   10.3122(9)
_cell_length_b                   18.944(2)
_cell_length_c                   11.5524(10)
_cell_angle_alpha                90
_cell_angle_beta                 109.501(1)
_cell_angle_gamma                90
_cell_volume                     2127.35
_exptl_crystal_colour            colorless
_exptl_crystal_description       lath
_chemical_melting_point          96-98deg.C
_cell_formula_units_Z            8
_exptl_crystal_recrystallization_method isopropanol
loop_
_atom_site_label
_atom_site_type_symbol
_atom_site_fract_x
_atom_site_fract_y
_atom_site_fract_z
Br1 Br -0.35783(3) -0.098777(18) 0.00462(3)
S1 S -0.00064(7) 0.10367(4) 0.08294(6)
O1 O -0.0210(2) 0.12508(12) -0.04093(19)
N1 N -0.1535(2) 0.09428(13) 0.1025(2)
C1 C 0.0451(3) 0.17592(15) 0.1829(3)
O2 O 0.0833(2) 0.04310(11) 0.12858(19)
C2 C 0.1660(3) 0.21397(16) 0.2138(3)
H1 H 0.2387 0.2010 0.1847
O3 O -0.2866(2) 0.14484(13) 0.2040(2)
C3 C 0.1761(4) 0.27252(17) 0.2899(3)
H2 H 0.2573 0.3005 0.3132
C4 C 0.0687(4) 0.29034(18) 0.3320(3)
H3 H 0.0777 0.3308 0.3828
C5 C -0.0508(4) 0.25094(18) 0.3021(3)
H4 H -0.1227 0.2632 0.3327
C6 C -0.0623(3) 0.19293(15) 0.2259(3)
C7 C -0.1806(3) 0.14339(16) 0.1805(3)
C8 C -0.2529(3) 0.04072(15) 0.0333(3)
H5 H -0.2435 0.0340 -0.0485
H6 H -0.3476 0.0571 0.0212
C9 C -0.2276(3) -0.02866(16) 0.1023(3)
H7 H -0.2402 -0.0226 0.1829
H8 H -0.1321 -0.0447 0.1166
Br2 Br 1.01821(4) 0.21880(2) 0.63875(3)
S2 S 0.81295(8) -0.03869(4) 0.52107(7)
O4 O 0.7776(2) -0.01906(13) 0.3944(2)
C10 C 0.6787(3) -0.08492(16) 0.5488(3)
N2 N 0.7974(3) 0.03082(13) 0.6055(2)
O5 O 0.9439(2) -0.07146(13) 0.5778(2)
C11 C 0.6309(3) -0.15146(18) 0.5068(3)
H9 H 0.6667 -0.1772 0.4536
O6 O 0.6744(2) 0.06743(12) 0.7274(2)
C12 C 0.5273(3) -0.17894(19) 0.5463(3)
H10 H 0.4924 -0.2248 0.5206
C13 C 0.4742(3) -0.14027(19) 0.6227(3)
H11 H 0.4038 -0.1603 0.6483
C14 C 0.5220(3) -0.07302(18) 0.6622(3)
H12 H 0.4847 -0.0466 0.7135
C15 C 0.6259(3) -0.04563(16) 0.6245(3)
C16 C 0.6963(3) 0.02343(16) 0.6601(3)
C17 C 0.9099(3) 0.08402(18) 0.6494(3)
H13 H 0.9969 0.0638 0.6459
H14 H 0.9233 0.0966 0.7358
C18 C 0.8738(3) 0.14910(18) 0.5704(3)
H15 H 0.7840 0.1680 0.5696
H16 H 0.8670 0.1375 0.4850
loop_
_geom_bond_atom_site_label_1
_geom_bond_atom_site_label_2
_geom_bond_site_symmetry_1
_geom_bond_site_symmetry_2
Br1 C9 1_555 1_555
S1 O1 1_555 1_555
N1 S1 1_555 1_555
C1 S1 1_555 1_555
O2 S1 1_555 1_555
C2 C1 1_555 1_555
H1 C2 1_555 1_555
O3 C7 1_555 1_555
C3 C2 1_555 1_555
H2 C3 1_555 1_555
C4 C3 1_555 1_555
H3 C4 1_555 1_555
C5 C4 1_555 1_555
H4 C5 1_555 1_555
C6 C1 1_555 1_555
C7 N1 1_555 1_555
C8 N1 1_555 1_555
H5 C8 1_555 1_555
H6 C8 1_555 1_555
C9 C8 1_555 1_555
H7 C9 1_555 1_555
H8 C9 1_555 1_555
Br2 C18 1_555 1_555
S2 O4 1_555 1_555
C10 S2 1_555 1_555
N2 S2 1_555 1_555
O5 S2 1_555 1_555
C11 C10 1_555 1_555
H9 C11 1_555 1_555
O6 C16 1_555 1_555
C12 C11 1_555 1_555
H10 C12 1_555 1_555
C13 C12 1_555 1_555
H11 C13 1_555 1_555
C14 C13 1_555 1_555
H12 C14 1_555 1_555
C15 C10 1_555 1_555
C16 N2 1_555 1_555
C17 N2 1_555 1_555
H13 C17 1_555 1_555
H14 C17 1_555 1_555
C18 C17 1_555 1_555
H15 C18 1_555 1_555
H16 C18 1_555 1_555
C5 C6 1_555 1_555
C6 C7 1_555 1_555
C14 C15 1_555 1_555
C15 C16 1_555 1_555

#END
