
#######################################################################
#
#                 Cambridge Crystallographic Data Centre
#                                CCDC 
#
#######################################################################
#
# If this CIF has been generated from an entry in the Cambridge 
# Structural Database, then it will include bibliographic, chemical, 
# crystal, experimental, refinement or atomic coordinate data resulting 
# from the CCDC's data processing and validation procedures.
#
#######################################################################

data_XEPTAQ
_chemical_formula_moiety         'C72 H50 B2 N6,3(C7 H8)'
_chemical_name_systematic        
"3,6,9,12,12c,12j-hexakis(4-methylphenyl)-12cH,12jH-8b,11b,12b,12d,12i,12k-hexaaza-12,12j-dibora-as-indaceno[2,3,4,5,6,7-pqrstuv]bis-s-indaceno[7,8,1,2-cdefg:2',1',8',7'-ijklm]pentaphene toluene solvate"
_symmetry_cell_setting           monoclinic
_symmetry_space_group_name_H-M   'C 2/c'
_symmetry_Int_Tables_number      15
_space_group_name_Hall           '-C 2yn'
loop_
_symmetry_equiv_pos_site_id
_symmetry_equiv_pos_as_xyz
1 x,y,z
2 -x,y,1/2-z
3 1/2+x,1/2+y,z
4 1/2-x,1/2+y,1/2-z
5 -x,-y,-z
6 x,-y,1/2+z
7 1/2-x,1/2-y,-z
8 1/2+x,1/2-y,1/2+z
_cell_length_a                   34.686(9)
_cell_length_b                   11.335(2)
_cell_length_c                   21.642(6)
_cell_angle_alpha                90
_cell_angle_beta                 125.911(6)
_cell_angle_gamma                90
_cell_volume                     6891.6
_exptl_crystal_colour            brown
_exptl_crystal_description       Prism
_cell_formula_units_Z            4
loop_
_atom_site_label
_atom_site_type_symbol
_atom_site_fract_x
_atom_site_fract_y
_atom_site_fract_z
C1 C 0.37998(6) 0.42769(16) 0.06169(10)
C2 C 0.41595(6) 0.42481(16) 0.04812(10)
H1 H 0.4130 0.3886 0.0059
C3 C 0.45568(6) 0.48401(16) 0.10734(10)
C4 C 0.44316(6) 0.52647(16) 0.15601(10)
C5 C 0.47501(6) 0.55254(16) 0.23392(10)
C6 C 0.46214(6) 0.52587(16) 0.28275(10)
C7 C 0.49342(6) 0.48497(16) 0.36007(10)
C8 C 0.46469(6) 0.42938(16) 0.37618(10)
H2 H 0.4749 0.3959 0.4238
C9 C 0.41654(7) 0.43130(16) 0.30794(10)
C10 C 0.37783(6) 0.35449(17) 0.28411(10)
C11 C 0.34632(6) 0.32662(17) 0.20513(10)
C12 C 0.31265(6) 0.23367(17) 0.16299(11)
H3 H 0.2999 0.1822 0.1815
C13 C 0.30202(6) 0.23226(17) 0.09109(11)
H4 H 0.2807 0.1793 0.0512
C14 C 0.32862(6) 0.32455(17) 0.08637(10)
C15 C 0.34103(6) 0.35052(17) 0.03578(10)
C16 C 0.37649(6) 0.29050(17) 0.34227(10)
C17 C 0.38182(7) 0.35268(18) 0.40270(11)
H5 H 0.3850 0.4361 0.4048
C18 C 0.38246(7) 0.29409(18) 0.45956(11)
H6 H 0.3858 0.3381 0.4998
C19 C 0.37832(7) 0.17167(18) 0.45858(11)
C20 C 0.37293(7) 0.10973(18) 0.39839(11)
H7 H 0.3698 0.0263 0.3965
C21 C 0.37208(7) 0.16750(18) 0.34115(11)
H8 H 0.3685 0.1233 0.3008
C22 C 0.38094(8) 0.1084(2) 0.52218(12)
H9 H 0.3847 0.1662 0.5591
H10 H 0.3516 0.0634 0.5011
H11 H 0.4082 0.0545 0.5477
C23 C 0.32050(6) 0.28576(17) -0.03648(10)
C24 C 0.30963(6) 0.34595(17) -0.10143(11)
H12 H 0.3153 0.4284 -0.0988
C25 C 0.29074(7) 0.28656(18) -0.16963(11)
H13 H 0.2836 0.3291 -0.2130
C26 C 0.28213(7) 0.16565(19) -0.17548(11)
C27 C 0.29401(7) 0.10584(18) -0.11046(11)
H14 H 0.2892 0.0230 -0.1129
C28 C 0.31266(7) 0.16415(17) -0.04222(11)
H15 H 0.3202 0.1210 0.0012
C29 C 0.26118(9) 0.1014(2) -0.24979(13)
H16 H 0.2552 0.1577 -0.2889
H17 H 0.2836 0.0410 -0.2430
H18 H 0.2312 0.0639 -0.2658
C30 C 0.33961(6) 0.61158(17) 0.14600(10)
C31 C 0.29571(7) 0.59964(19) 0.13382(12)
H19 H 0.2869 0.5249 0.1418
C32 C 0.26430(7) 0.6938(2) 0.11037(12)
H20 H 0.2346 0.6819 0.1025
C33 C 0.27559(7) 0.80446(18) 0.09834(11)
C34 C 0.31994(8) 0.81858(19) 0.11251(12)
H21 H 0.3292 0.8942 0.1065
C35 C 0.35089(7) 0.72433(18) 0.13521(11)
H22 H 0.3807 0.7368 0.1437
C36 C 0.24073(8) 0.9053(2) 0.06863(12)
H23 H 0.2551 0.9759 0.0639
H24 H 0.2119 0.8845 0.0185
H25 H 0.2325 0.9210 0.1041
N1 N 0.39732(5) 0.49624(13) 0.12538(8)
N2 N 0.41671(5) 0.49648(13) 0.25459(8)
N3 N 0.35185(5) 0.38271(14) 0.15485(8)
B1 B 0.37524(7) 0.50210(19) 0.16949(12)
C1A C 0.62002(6) 0.42769(16) 0.43831(10)
C2A C 0.58405(6) 0.42481(16) 0.45188(10)
H1A H 0.5870 0.3886 0.4941
C3A C 0.54432(6) 0.48401(16) 0.39266(10)
C4A C 0.55684(6) 0.52647(16) 0.34399(10)
C5A C 0.52499(6) 0.55254(16) 0.26608(10)
C6A C 0.53786(6) 0.52587(16) 0.21725(10)
C7A C 0.50658(6) 0.48497(16) 0.13993(10)
C8A C 0.53531(6) 0.42938(16) 0.12382(10)
H2A H 0.5251 0.3959 0.0762
C9A C 0.58346(7) 0.43130(16) 0.19206(10)
C10A C 0.62217(6) 0.35449(17) 0.21589(10)
C11A C 0.65368(6) 0.32662(17) 0.29487(10)
C12A C 0.68735(6) 0.23367(17) 0.33701(11)
H3A H 0.7001 0.1822 0.3185
C13A C 0.69798(6) 0.23226(17) 0.40891(11)
H4A H 0.7193 0.1793 0.4488
C14A C 0.67138(6) 0.32455(17) 0.41363(10)
C15A C 0.65897(6) 0.35052(17) 0.46422(10)
C16A C 0.62351(6) 0.29050(17) 0.15773(10)
C17A C 0.61818(7) 0.35268(18) 0.09730(11)
H5A H 0.6150 0.4361 0.0952
C18A C 0.61754(7) 0.29409(18) 0.04044(11)
H6A H 0.6142 0.3381 0.0002
C19A C 0.62168(7) 0.17167(18) 0.04142(11)
C20A C 0.62707(7) 0.10973(18) 0.10161(11)
H7A H 0.6302 0.0263 0.1035
C21A C 0.62792(7) 0.16750(18) 0.15885(11)
H8A H 0.6315 0.1233 0.1992
C22A C 0.61906(8) 0.1084(2) -0.02218(12)
H9A H 0.6153 0.1662 -0.0591
H10A H 0.6484 0.0634 -0.0011
H11A H 0.5918 0.0545 -0.0477
C23A C 0.67950(6) 0.28576(17) 0.53648(10)
C24A C 0.69037(6) 0.34595(17) 0.60143(11)
H12A H 0.6847 0.4284 0.5988
C25A C 0.70926(7) 0.28656(18) 0.66963(11)
H13A H 0.7164 0.3291 0.7130
C26A C 0.71787(7) 0.16565(19) 0.67548(11)
C27A C 0.70599(7) 0.10584(18) 0.61046(11)
H14A H 0.7108 0.0230 0.6129
C28A C 0.68734(7) 0.16415(17) 0.54222(11)
H15A H 0.6798 0.1210 0.4988
C29A C 0.73882(9) 0.1014(2) 0.74979(13)
H16A H 0.7448 0.1577 0.7889
H17A H 0.7164 0.0410 0.7430
H18A H 0.7688 0.0639 0.7658
C30A C 0.66039(6) 0.61158(17) 0.35400(10)
C31A C 0.70429(7) 0.59964(19) 0.36618(12)
H19A H 0.7131 0.5249 0.3582
C32A C 0.73570(7) 0.6938(2) 0.38963(12)
H20A H 0.7654 0.6819 0.3975
C33A C 0.72441(7) 0.80446(18) 0.40166(11)
C34A C 0.68006(8) 0.81858(19) 0.38749(12)
H21A H 0.6708 0.8942 0.3935
C35A C 0.64911(7) 0.72433(18) 0.36479(11)
H22A H 0.6193 0.7368 0.3563
C36A C 0.75927(8) 0.9053(2) 0.43137(12)
H23A H 0.7449 0.9759 0.4361
H24A H 0.7881 0.8845 0.4815
H25A H 0.7675 0.9210 0.3959
N1A N 0.60268(5) 0.49624(13) 0.37462(8)
N2A N 0.58329(5) 0.49648(13) 0.24541(8)
N3A N 0.64815(5) 0.38271(14) 0.34515(8)
B1A B 0.62476(7) 0.50210(19) 0.33051(12)
C37 C 0.53943(8) 0.82980(19) 0.01428(12)
C38 C 0.50385(8) 0.8258(2) 0.02535(13)
H26 H 0.4718 0.8414 -0.0163
C39 C 0.51428(9) 0.7994(2) 0.09601(14)
H27 H 0.4895 0.7969 0.1024
C40 C 0.56064(9) 0.7766(2) 0.15739(13)
H28 H 0.5678 0.7595 0.2061
C41 C 0.59642(8) 0.7789(2) 0.14727(13)
H29 H 0.6283 0.7626 0.1890
C42 C 0.58569(8) 0.80512(19) 0.07609(13)
H30 H 0.6105 0.8062 0.0696
C43 C 0.52787(10) 0.8606(2) -0.06239(14)
H31 H 0.4936 0.8750 -0.0985
H32 H 0.5454 0.9318 -0.0579
H33 H 0.5371 0.7951 -0.0808
C44? C -0.02612(12) 0.5965(3) 0.2358(3)
C45? C 0.00101(16) 0.4973(2) 0.2478(3)
H34? H -0.0127 0.4209 0.2383
C46? C 0.04813(15) 0.5098(3) 0.2737(3)
H35? H 0.0667 0.4419 0.2819
C47? C 0.06813(12) 0.6215(4) 0.2875(3)
H36? H 0.1003 0.6301 0.3052
C48? C 0.04100(15) 0.7208(3) 0.2755(3)
H37? H 0.0547 0.7972 0.2849
C49? C -0.00612(15) 0.7083(2) 0.2496(3)
H38? H -0.0247 0.7761 0.2414
C50? C -0.0768(3) 0.5827(12) 0.2083(6)
H39? H -0.0907 0.6607 0.2028
H40? H -0.0949 0.5425 0.1588
H41? H -0.0780 0.5360 0.2452
loop_
_geom_bond_atom_site_label_1
_geom_bond_atom_site_label_2
_geom_bond_site_symmetry_1
_geom_bond_site_symmetry_2
C1 C2 1_555 1_555
C2 H1 1_555 1_555
C3 C2 1_555 1_555
C4 C3 1_555 1_555
C5 C4 1_555 1_555
C6 C5 1_555 1_555
C7 C6 1_555 1_555
C8 C7 1_555 1_555
H2 C8 1_555 1_555
C9 C8 1_555 1_555
C10 C9 1_555 1_555
C11 C10 1_555 1_555
C12 C11 1_555 1_555
H3 C12 1_555 1_555
C13 C12 1_555 1_555
H4 C13 1_555 1_555
C14 C13 1_555 1_555
C15 C1 1_555 1_555
C16 C10 1_555 1_555
C17 C16 1_555 1_555
H5 C17 1_555 1_555
C18 C17 1_555 1_555
H6 C18 1_555 1_555
C19 C18 1_555 1_555
C20 C19 1_555 1_555
H7 C20 1_555 1_555
C21 C16 1_555 1_555
H8 C21 1_555 1_555
C22 C19 1_555 1_555
H9 C22 1_555 1_555
H10 C22 1_555 1_555
H11 C22 1_555 1_555
C23 C15 1_555 1_555
C24 C23 1_555 1_555
H12 C24 1_555 1_555
C25 C24 1_555 1_555
H13 C25 1_555 1_555
C26 C25 1_555 1_555
C27 C26 1_555 1_555
H14 C27 1_555 1_555
C28 C23 1_555 1_555
H15 C28 1_555 1_555
C29 C26 1_555 1_555
H16 C29 1_555 1_555
H17 C29 1_555 1_555
H18 C29 1_555 1_555
C30 C31 1_555 1_555
C31 H19 1_555 1_555
C32 C31 1_555 1_555
H20 C32 1_555 1_555
C33 C32 1_555 1_555
C34 C33 1_555 1_555
H21 C34 1_555 1_555
C35 C30 1_555 1_555
H22 C35 1_555 1_555
C36 C33 1_555 1_555
H23 C36 1_555 1_555
H24 C36 1_555 1_555
H25 C36 1_555 1_555
N1 C1 1_555 1_555
N2 C6 1_555 1_555
N3 C11 1_555 1_555
B1 C30 1_555 1_555
C37 C38 1_555 1_555
C38 H26 1_555 1_555
C39 C38 1_555 1_555
H27 C39 1_555 1_555
C40 C39 1_555 1_555
H28 C40 1_555 1_555
C41 C40 1_555 1_555
H29 C41 1_555 1_555
C42 C37 1_555 1_555
H30 C42 1_555 1_555
C43 C37 1_555 1_555
H31 C43 1_555 1_555
H32 C43 1_555 1_555
H33 C43 1_555 1_555
C1A C2A 1_555 1_555
C2A H1A 1_555 1_555
C3A C7 1_555 1_555
C4A C3A 1_555 1_555
C5A C5 1_555 1_555
C6A C5A 1_555 1_555
C7A C3 1_555 1_555
C8A C7A 1_555 1_555
H2A C8A 1_555 1_555
C9A C8A 1_555 1_555
C10A C9A 1_555 1_555
C11A C10A 1_555 1_555
C12A C11A 1_555 1_555
H3A C12A 1_555 1_555
C13A C12A 1_555 1_555
H4A C13A 1_555 1_555
C14A C13A 1_555 1_555
C15A C1A 1_555 1_555
C16A C10A 1_555 1_555
C17A C16A 1_555 1_555
H5A C17A 1_555 1_555
C18A C17A 1_555 1_555
H6A C18A 1_555 1_555
C19A C18A 1_555 1_555
C20A C19A 1_555 1_555
H7A C20A 1_555 1_555
C21A C16A 1_555 1_555
H8A C21A 1_555 1_555
C22A C19A 1_555 1_555
H9A C22A 1_555 1_555
H10A C22A 1_555 1_555
H11A C22A 1_555 1_555
C23A C15A 1_555 1_555
C24A C23A 1_555 1_555
H12A C24A 1_555 1_555
C25A C24A 1_555 1_555
H13A C25A 1_555 1_555
C26A C25A 1_555 1_555
C27A C26A 1_555 1_555
H14A C27A 1_555 1_555
C28A C23A 1_555 1_555
H15A C28A 1_555 1_555
C29A C26A 1_555 1_555
H16A C29A 1_555 1_555
H17A C29A 1_555 1_555
H18A C29A 1_555 1_555
C30A C31A 1_555 1_555
C31A H19A 1_555 1_555
C32A C31A 1_555 1_555
H20A C32A 1_555 1_555
C33A C32A 1_555 1_555
C34A C33A 1_555 1_555
H21A C34A 1_555 1_555
C35A C30A 1_555 1_555
H22A C35A 1_555 1_555
C36A C33A 1_555 1_555
H23A C36A 1_555 1_555
H24A C36A 1_555 1_555
H25A C36A 1_555 1_555
N1A C1A 1_555 1_555
N2A C6A 1_555 1_555
N3A C11A 1_555 1_555
B1A C30A 1_555 1_555
C4 N1 1_555 1_555
C9 N2 1_555 1_555
C14 C15 1_555 1_555
C14 N3 1_555 1_555
C20 C21 1_555 1_555
C27 C28 1_555 1_555
C34 C35 1_555 1_555
N1 B1 1_555 1_555
N2 B1 1_555 1_555
N3 B1 1_555 1_555
C41 C42 1_555 1_555
C2A C3A 1_555 1_555
C4A C5A 1_555 1_555
C4A N1A 1_555 1_555
C6A C7A 1_555 1_555
C9A N2A 1_555 1_555
C14A C15A 1_555 1_555
C14A N3A 1_555 1_555
C20A C21A 1_555 1_555
C27A C28A 1_555 1_555
C34A C35A 1_555 1_555
N1A B1A 1_555 1_555
N2A B1A 1_555 1_555
N3A B1A 1_555 1_555

#END
