
#######################################################################
#
#                 Cambridge Crystallographic Data Centre
#                                CCDC 
#
#######################################################################
#
# If this CIF has been generated from an entry in the Cambridge 
# Structural Database, then it will include bibliographic, chemical, 
# crystal, experimental, refinement or atomic coordinate data resulting 
# from the CCDC's data processing and validation procedures.
#
#######################################################################

data_XEPVOG
_chemical_formula_moiety         'C20 H17 Cl1 S1'
_chemical_name_systematic        
3-[1-(4-chlorophenyl)-1-phenylbut-1-en-2-yl]thiophene
_symmetry_cell_setting           triclinic
_symmetry_space_group_name_H-M   'P -1'
_symmetry_Int_Tables_number      2
_space_group_name_Hall           '-P 1'
loop_
_symmetry_equiv_pos_site_id
_symmetry_equiv_pos_as_xyz
1 x,y,z
2 -x,-y,-z
_cell_length_a                   8.5228(3)
_cell_length_b                   12.1509(4)
_cell_length_c                   17.0050(6)
_cell_angle_alpha                72.1070(10)
_cell_angle_beta                 89.7840(10)
_cell_angle_gamma                82.2810(10)
_cell_volume                     1659.36
_exptl_crystal_colour            colorless
_exptl_crystal_description       block
_cell_formula_units_Z            4
loop_
_atom_site_label
_atom_site_type_symbol
_atom_site_fract_x
_atom_site_fract_y
_atom_site_fract_z
C1 C 0.47431(19) 0.79348(14) 0.84107(10)
C2 C 0.40681(19) 0.90591(14) 0.80632(10)
C3 C 0.4842(2) 1.01224(15) 0.80262(12)
H1 H 0.481059 1.063296 0.744551
H2 H 0.596779 0.987034 0.821445
C4 C 0.4029(2) 1.08210(17) 0.85611(15)
H3 H 0.289362 1.101266 0.841091
H4 H 0.449302 1.154353 0.846969
H5 H 0.417904 1.035439 0.914542
C5 C 0.24505(19) 0.93412(14) 0.76634(10)
C6 C 0.2080(2) 1.00969(15) 0.68411(11)
H6 H 0.283437 1.049858 0.649499
C7 C 0.0468(2) 1.01860(13) 0.65943(10)
H7 H 0.001361 1.062083 0.606201
C8 C 0.11337(19) 0.89190(14) 0.80337(11)
H8 H 0.113677 0.841498 0.858568
C9 C 0.63293(19) 0.75807(14) 0.88524(10)
C10 C 0.7371(2) 0.66698(15) 0.87099(10)
H9 H 0.704317 0.628061 0.834546
C11 C 0.8867(2) 0.63284(16) 0.90909(11)
H10 H 0.956099 0.571858 0.897941
C12 C 0.9357(2) 0.68765(16) 0.96366(12)
H11 H 1.038560 0.664550 0.989619
C13 C 0.8334(2) 0.77627(16) 0.97992(11)
H12 H 0.866137 0.813643 1.017347
C14 C 0.6827(2) 0.81072(15) 0.94162(11)
H13 H 0.612996 0.870616 0.953889
C15 C 0.39717(18) 0.69387(14) 0.83326(10)
C16 C 0.37372(18) 0.60182(14) 0.90372(10)
H14 H 0.405785 0.604048 0.956587
C17 C 0.30452(19) 0.50732(14) 0.89784(10)
H15 H 0.288087 0.445736 0.946073
C18 C 0.25977(19) 0.50458(14) 0.81999(10)
C19 C 0.2836(2) 0.59317(15) 0.74896(10)
H16 H 0.253427 0.589556 0.696183
C20 C 0.35225(19) 0.68757(14) 0.75588(10)
H17 H 0.368872 0.748637 0.707367
S1 S -0.05240(5) 0.94039(4) 0.73874(3)
Cl1 Cl 0.17127(5) 0.38726(4) 0.81150(3)
C21 C 0.74964(18) 0.38425(14) 0.60383(10)
C22 C 0.72789(18) 0.49901(14) 0.55959(10)
C23 C 0.68143(19) 0.54571(14) 0.46853(10)
H18 H 0.578188 0.596633 0.461311
H19 H 0.666868 0.479279 0.448448
C24 C 0.8017(2) 0.61507(16) 0.41501(11)
H20 H 0.817747 0.680847 0.434543
H21 H 0.761784 0.644646 0.357328
H22 H 0.902725 0.564122 0.418912
C25 C 0.74538(19) 0.59066(14) 0.59866(10)
C26 C 0.86934(19) 0.58482(14) 0.65744(10)
H23 H 0.946739 0.518123 0.679127
C27 C 0.8651(2) 0.68416(15) 0.67903(11)
H24 H 0.939090 0.695311 0.716568
C28 C 0.6501(2) 0.69656(15) 0.57850(11)
H25 H 0.561508 0.717697 0.540522
C29 C 0.74692(18) 0.28883(13) 0.56565(10)
C30 C 0.65659(19) 0.19900(14) 0.60156(10)
H26 H 0.598258 0.200629 0.649004
C31 C 0.6509(2) 0.10775(14) 0.56901(11)
H27 H 0.588647 0.047882 0.593909
C32 C 0.7370(2) 0.10433(14) 0.49953(11)
H28 H 0.733115 0.042386 0.476807
C33 C 0.8280(2) 0.19157(15) 0.46395(10)
H29 H 0.886704 0.189354 0.416726
C34 C 0.83408(19) 0.28245(14) 0.49694(10)
H30 H 0.898372 0.341101 0.472441
C35 C 0.76228(18) 0.34146(13) 0.69659(10)
C36 C 0.6494(2) 0.38419(15) 0.74373(11)
H31 H 0.570926 0.448020 0.716852
C37 C 0.6495(2) 0.33543(16) 0.82876(11)
H32 H 0.572814 0.365955 0.860109
C38 C 0.7630(2) 0.24147(15) 0.86755(10)
C39 C 0.8791(2) 0.19806(14) 0.82337(11)
H33 H 0.958041 0.134921 0.850849
C40 C 0.87802(19) 0.24876(14) 0.73789(10)
H34 H 0.957393 0.219822 0.707074
S2 S 0.70934(6) 0.78642(4) 0.62985(3)
Cl2 Cl 0.75378(5) 0.17320(4) 0.97366(3)
loop_
_geom_bond_atom_site_label_1
_geom_bond_atom_site_label_2
_geom_bond_site_symmetry_1
_geom_bond_site_symmetry_2
C1 C2 1_555 1_555
C2 C3 1_555 1_555
C3 H1 1_555 1_555
H2 C3 1_555 1_555
C4 C3 1_555 1_555
H3 C4 1_555 1_555
H4 C4 1_555 1_555
H5 C4 1_555 1_555
C5 C2 1_555 1_555
C6 C5 1_555 1_555
H6 C6 1_555 1_555
C7 C6 1_555 1_555
H7 C7 1_555 1_555
C8 C5 1_555 1_555
H8 C8 1_555 1_555
C9 C1 1_555 1_555
C10 C9 1_555 1_555
H9 C10 1_555 1_555
C11 C10 1_555 1_555
H10 C11 1_555 1_555
C12 C11 1_555 1_555
H11 C12 1_555 1_555
C13 C12 1_555 1_555
H12 C13 1_555 1_555
C14 C9 1_555 1_555
H13 C14 1_555 1_555
C15 C1 1_555 1_555
C16 C15 1_555 1_555
H14 C16 1_555 1_555
C17 C16 1_555 1_555
H15 C17 1_555 1_555
C18 C17 1_555 1_555
C19 C18 1_555 1_555
H16 C19 1_555 1_555
C20 C15 1_555 1_555
H17 C20 1_555 1_555
S1 C7 1_555 1_555
Cl1 C18 1_555 1_555
C21 C22 1_555 1_555
C22 C23 1_555 1_555
C23 H18 1_555 1_555
H19 C23 1_555 1_555
C24 C23 1_555 1_555
H20 C24 1_555 1_555
H21 C24 1_555 1_555
H22 C24 1_555 1_555
C25 C22 1_555 1_555
C26 C25 1_555 1_555
H23 C26 1_555 1_555
C27 C26 1_555 1_555
H24 C27 1_555 1_555
C28 C25 1_555 1_555
H25 C28 1_555 1_555
C29 C21 1_555 1_555
C30 C29 1_555 1_555
H26 C30 1_555 1_555
C31 C30 1_555 1_555
H27 C31 1_555 1_555
C32 C31 1_555 1_555
H28 C32 1_555 1_555
C33 C32 1_555 1_555
H29 C33 1_555 1_555
C34 C29 1_555 1_555
H30 C34 1_555 1_555
C35 C21 1_555 1_555
C36 C35 1_555 1_555
H31 C36 1_555 1_555
C37 C36 1_555 1_555
H32 C37 1_555 1_555
C38 C37 1_555 1_555
C39 C38 1_555 1_555
H33 C39 1_555 1_555
C40 C35 1_555 1_555
H34 C40 1_555 1_555
S2 C27 1_555 1_555
Cl2 C38 1_555 1_555
C8 S1 1_555 1_555
C13 C14 1_555 1_555
C19 C20 1_555 1_555
C28 S2 1_555 1_555
C33 C34 1_555 1_555
C39 C40 1_555 1_555

#END
