
#######################################################################
#
#                 Cambridge Crystallographic Data Centre
#                                CCDC 
#
#######################################################################
#
# If this CIF has been generated from an entry in the Cambridge 
# Structural Database, then it will include bibliographic, chemical, 
# crystal, experimental, refinement or atomic coordinate data resulting 
# from the CCDC's data processing and validation procedures.
#
#######################################################################

data_XEPVAS
_chemical_formula_moiety         'C23 H21 Cl1 O1'
_chemical_name_systematic        
1-[1-(4-chlorophenyl)-1-phenylbut-1-en-2-yl]-4-methoxybenzene
_symmetry_cell_setting           triclinic
_symmetry_space_group_name_H-M   'P -1'
_symmetry_Int_Tables_number      2
_space_group_name_Hall           '-P 1'
loop_
_symmetry_equiv_pos_site_id
_symmetry_equiv_pos_as_xyz
1 x,y,z
2 -x,-y,-z
_cell_length_a                   5.4926(2)
_cell_length_b                   9.9685(4)
_cell_length_c                   18.0281(6)
_cell_angle_alpha                80.689(2)
_cell_angle_beta                 89.091(2)
_cell_angle_gamma                74.881(2)
_cell_volume                     940.011
_exptl_crystal_colour            colorless
_exptl_crystal_description       blade
_cell_formula_units_Z            2
loop_
_atom_site_label
_atom_site_type_symbol
_atom_site_fract_x
_atom_site_fract_y
_atom_site_fract_z
C1 C 0.5303(3) 0.58871(17) 0.79207(9)
C2 C 0.5784(3) 0.45279(17) 0.82631(9)
C3 C 0.5602(3) 0.41027(18) 0.91021(9)
H1 H 0.446209 0.347404 0.919488
H2 H 0.484581 0.495526 0.932647
C4 C 0.8156(4) 0.33497(19) 0.94925(10)
H3 H 0.893768 0.251763 0.926438
H4 H 0.791183 0.305832 1.002816
H5 H 0.925431 0.399030 0.943505
C5 C 0.6628(3) 0.33365(16) 0.78355(9)
C6 C 0.8688(3) 0.32609(17) 0.73676(9)
H6 H 0.955011 0.397977 0.732822
C7 C 0.9518(3) 0.21752(17) 0.69589(9)
H7 H 1.092094 0.215496 0.664167
C8 C 0.8279(3) 0.11146(16) 0.70174(9)
C9 C 0.6245(3) 0.11511(17) 0.74878(9)
H8 H 0.539895 0.042486 0.753034
C10 C 0.5450(3) 0.22404(17) 0.78940(9)
H9 H 0.407317 0.224495 0.822012
C11 C 1.0965(4) -0.0034(2) 0.61316(11)
H10 H 1.053060 0.080850 0.574439
H11 H 1.126324 -0.087675 0.589327
H12 H 1.249407 -0.005015 0.640955
C12 C 0.4801(3) 0.70977(17) 0.83458(9)
C13 C 0.6614(3) 0.72298(18) 0.88436(9)
H13 H 0.818065 0.653353 0.892032
C14 C 0.6154(3) 0.83663(18) 0.92275(9)
H14 H 0.741073 0.844645 0.956131
C15 C 0.3875(3) 0.93832(18) 0.91265(9)
H15 H 0.355015 1.015064 0.939741
C16 C 0.2067(3) 0.92751(18) 0.86273(9)
H16 H 0.050015 0.997180 0.855447
C17 C 0.2542(3) 0.81525(17) 0.82346(9)
H17 H 0.130975 0.810074 0.788414
C18 C 0.5253(3) 0.62833(16) 0.70832(9)
C19 C 0.6650(3) 0.71920(17) 0.67450(9)
H18 H 0.759977 0.757328 0.705142
C20 C 0.6674(3) 0.75477(17) 0.59679(9)
H19 H 0.765277 0.815450 0.574341
C21 C 0.5258(3) 0.70093(17) 0.55262(9)
C22 C 0.3811(3) 0.61303(17) 0.58421(9)
H20 H 0.282641 0.577533 0.553243
C23 C 0.3820(3) 0.57756(17) 0.66181(9)
H21 H 0.282711 0.517303 0.683820
O1 O 0.8937(2) -0.00090(12) 0.66376(7)
Cl1 Cl 0.52067(9) 0.74888(5) 0.45528(2)
loop_
_geom_bond_atom_site_label_1
_geom_bond_atom_site_label_2
_geom_bond_site_symmetry_1
_geom_bond_site_symmetry_2
C1 C2 1_555 1_555
C2 C3 1_555 1_555
C3 H1 1_555 1_555
H2 C3 1_555 1_555
C4 C3 1_555 1_555
H3 C4 1_555 1_555
H4 C4 1_555 1_555
H5 C4 1_555 1_555
C5 C2 1_555 1_555
C6 C5 1_555 1_555
H6 C6 1_555 1_555
C7 C6 1_555 1_555
H7 C7 1_555 1_555
C8 C7 1_555 1_555
C9 C8 1_555 1_555
H8 C9 1_555 1_555
C10 C5 1_555 1_555
H9 C10 1_555 1_555
C11 H10 1_555 1_555
H11 C11 1_555 1_555
H12 C11 1_555 1_555
C12 C1 1_555 1_555
C13 C12 1_555 1_555
H13 C13 1_555 1_555
C14 C13 1_555 1_555
H14 C14 1_555 1_555
C15 C14 1_555 1_555
H15 C15 1_555 1_555
C16 C15 1_555 1_555
H16 C16 1_555 1_555
C17 C12 1_555 1_555
H17 C17 1_555 1_555
C18 C1 1_555 1_555
C19 C18 1_555 1_555
H18 C19 1_555 1_555
C20 C19 1_555 1_555
H19 C20 1_555 1_555
C21 C20 1_555 1_555
C22 C21 1_555 1_555
H20 C22 1_555 1_555
C23 C18 1_555 1_555
H21 C23 1_555 1_555
O1 C8 1_555 1_555
Cl1 C21 1_555 1_555
C9 C10 1_555 1_555
C11 O1 1_555 1_555
C16 C17 1_555 1_555
C22 C23 1_555 1_555

#END
