
#######################################################################
#
#                 Cambridge Crystallographic Data Centre
#                                CCDC 
#
#######################################################################
#
# If this CIF has been generated from an entry in the Cambridge 
# Structural Database, then it will include bibliographic, chemical, 
# crystal, experimental, refinement or atomic coordinate data resulting 
# from the CCDC's data processing and validation procedures.
#
#######################################################################

data_XEPVUM
_chemical_formula_moiety         'C22 H19 Cl1'
_chemical_name_systematic        
1,1'-[1-(4-chlorophenyl)but-1-ene-1,2-diyl]dibenzene
_symmetry_cell_setting           orthorhombic
_symmetry_space_group_name_H-M   'P 21 21 2'
_symmetry_Int_Tables_number      18
_space_group_name_Hall           'P 2 2ab'
loop_
_symmetry_equiv_pos_site_id
_symmetry_equiv_pos_as_xyz
1 x,y,z
2 -x,-y,z
3 1/2-x,1/2+y,-z
4 1/2+x,1/2-y,-z
_cell_length_a                   16.1056(5)
_cell_length_b                   18.6607(5)
_cell_length_c                   5.7399(2)
_cell_angle_alpha                90
_cell_angle_beta                 90
_cell_angle_gamma                90
_cell_volume                     1725.08
_exptl_crystal_colour            colorless
_exptl_crystal_description       rod
_cell_formula_units_Z            4
loop_
_atom_site_label
_atom_site_type_symbol
_atom_site_fract_x
_atom_site_fract_y
_atom_site_fract_z
C1 C 0.71281(15) 0.34492(12) 0.2250(4)
C2 C 0.64765(15) 0.38970(12) 0.2083(4)
C3 C 0.65535(16) 0.46912(12) 0.1617(5)
H1 H 0.714765 0.482554 0.168834
H2 H 0.626193 0.495503 0.287008
C4 C 0.62054(17) 0.49272(15) -0.0710(5)
H3 H 0.656441 0.475201 -0.196567
H4 H 0.618102 0.545163 -0.076448
H5 H 0.564556 0.473054 -0.090670
C5 C 0.56036(14) 0.36380(12) 0.2395(4)
C6 C 0.52657(15) 0.31207(13) 0.0915(5)
H6 H 0.559398 0.293103 -0.031400
C7 C 0.44549(16) 0.28784(13) 0.1214(5)
H7 H 0.423237 0.252938 0.018370
C8 C 0.39749(16) 0.31445(13) 0.3004(5)
H8 H 0.342476 0.297447 0.322936
C9 C 0.43014(15) 0.36616(13) 0.4472(5)
H9 H 0.397391 0.384566 0.571130
C10 C 0.51000(15) 0.39114(13) 0.4144(5)
H10 H 0.530859 0.427730 0.513498
C11 C 0.80099(15) 0.36640(12) 0.1824(4)
C12 C 0.82626(15) 0.39993(12) -0.0219(5)
H11 H 0.786794 0.409496 -0.140917
C13 C 0.90895(15) 0.41964(13) -0.0538(5)
H12 H 0.925353 0.442764 -0.193926
C14 C 0.96715(16) 0.40576(13) 0.1168(5)
H13 H 1.023418 0.419447 0.094753
C15 C 0.94309(15) 0.37187(13) 0.3197(5)
H14 H 0.982896 0.362321 0.437826
C16 C 0.86081(15) 0.35169(13) 0.3516(4)
H15 H 0.845092 0.327548 0.490528
C17 C 0.70170(14) 0.26895(12) 0.3034(4)
C18 C 0.72855(15) 0.21209(12) 0.1650(5)
H16 H 0.756331 0.221912 0.022518
C19 C 0.71555(15) 0.14163(13) 0.2308(4)
H17 H 0.732645 0.103359 0.132778
C20 C 0.67722(14) 0.12786(12) 0.4421(5)
C21 C 0.65274(15) 0.18278(12) 0.5876(4)
H18 H 0.627916 0.172574 0.734036
C22 C 0.66494(14) 0.25336(12) 0.5169(4)
H19 H 0.647922 0.291435 0.615861
Cl1 Cl 0.65898(4) 0.03962(3) 0.52751(13)
loop_
_geom_bond_atom_site_label_1
_geom_bond_atom_site_label_2
_geom_bond_site_symmetry_1
_geom_bond_site_symmetry_2
C1 C2 1_555 1_555
C2 C3 1_555 1_555
C3 H1 1_555 1_555
H2 C3 1_555 1_555
C4 C3 1_555 1_555
H3 C4 1_555 1_555
H4 C4 1_555 1_555
H5 C4 1_555 1_555
C5 C2 1_555 1_555
C6 C5 1_555 1_555
H6 C6 1_555 1_555
C7 C6 1_555 1_555
H7 C7 1_555 1_555
C8 C7 1_555 1_555
H8 C8 1_555 1_555
C9 C8 1_555 1_555
H9 C9 1_555 1_555
C10 C5 1_555 1_555
H10 C10 1_555 1_555
C11 C1 1_555 1_555
C12 C11 1_555 1_555
H11 C12 1_555 1_555
C13 C12 1_555 1_555
H12 C13 1_555 1_555
C14 C13 1_555 1_555
H13 C14 1_555 1_555
C15 C14 1_555 1_555
H14 C15 1_555 1_555
C16 C11 1_555 1_555
H15 C16 1_555 1_555
C17 C1 1_555 1_555
C18 C17 1_555 1_555
H16 C18 1_555 1_555
C19 C18 1_555 1_555
H17 C19 1_555 1_555
C20 C19 1_555 1_555
C21 C20 1_555 1_555
H18 C21 1_555 1_555
C22 C17 1_555 1_555
H19 C22 1_555 1_555
Cl1 C20 1_555 1_555
C9 C10 1_555 1_555
C15 C16 1_555 1_555
C21 C22 1_555 1_555

#END
