
#######################################################################
#
#                 Cambridge Crystallographic Data Centre
#                                CCDC 
#
#######################################################################
#
# If this CIF has been generated from an entry in the Cambridge 
# Structural Database, then it will include bibliographic, chemical, 
# crystal, experimental, refinement or atomic coordinate data resulting 
# from the CCDC's data processing and validation procedures.
#
#######################################################################

data_XEPXIC
_chemical_name_common            gene835
_chemical_formula_moiety         'C27 H28 O2'
_chemical_name_systematic        't-butyl 4-(1,2-diphenylbut-1-en-1-yl)benzoate'
_symmetry_cell_setting           monoclinic
_symmetry_space_group_name_H-M   'P 21/n'
_symmetry_Int_Tables_number      14
_space_group_name_Hall           '-P 2yn'
loop_
_symmetry_equiv_pos_site_id
_symmetry_equiv_pos_as_xyz
1 x,y,z
2 1/2-x,1/2+y,1/2-z
3 -x,-y,-z
4 1/2+x,1/2-y,1/2+z
_cell_length_a                   14.358(3)
_cell_length_b                   9.3991(17)
_cell_length_c                   16.714(3)
_cell_angle_alpha                90
_cell_angle_beta                 104.030(6)
_cell_angle_gamma                90
_cell_volume                     2188.31
_exptl_crystal_colour            colorless
_exptl_crystal_description       plate
_cell_formula_units_Z            4
loop_
_atom_site_label
_atom_site_type_symbol
_atom_site_fract_x
_atom_site_fract_y
_atom_site_fract_z
C1 C 0.13427(16) 0.4379(2) 0.25480(15)
C2 C 0.11185(17) 0.4587(2) 0.32789(16)
C3 C 0.0126(2) 0.4304(3) 0.3401(2)
H1 H 0.017403 0.360389 0.385132
H2 H -0.027515 0.387995 0.289054
C4 C -0.0364(2) 0.5652(3) 0.3611(2)
H3 H 0.003086 0.607975 0.411438
H4 H -0.099604 0.540709 0.369753
H5 H -0.044208 0.633222 0.315490
C5 C 0.18231(18) 0.5112(3) 0.40237(15)
C6 C 0.23064(16) 0.6388(2) 0.40028(13)
H6 H 0.218802 0.691941 0.350488
C7 C 0.29568(17) 0.6897(3) 0.46945(14)
H7 H 0.328351 0.776748 0.466590
C8 C 0.3134(2) 0.6145(4) 0.54281(15)
H8 H 0.358140 0.649259 0.590319
C9 C 0.2654(2) 0.4887(4) 0.54599(18)
H9 H 0.277255 0.436115 0.595993
C10 C 0.2002(2) 0.4384(3) 0.47717(18)
H10 H 0.166854 0.352317 0.480817
C11 C 0.05877(16) 0.3974(2) 0.17974(15)
C12 C -0.0089(2) 0.4937(3) 0.1392(2)
H11 H -0.007171 0.589055 0.158347
C13 C -0.0790(2) 0.4526(3) 0.0712(3)
H12 H -0.124838 0.520326 0.043758
C14 C -0.08368(18) 0.3150(3) 0.04226(18)
H13 H -0.131569 0.287926 -0.005202
C15 C -0.01832(17) 0.2182(3) 0.08299(15)
H14 H -0.021685 0.122216 0.064779
C16 C 0.05281(17) 0.2594(3) 0.15070(14)
H15 H 0.098545 0.191257 0.177793
C17 C 0.23487(15) 0.4460(2) 0.24332(13)
C18 C 0.25369(15) 0.5103(2) 0.17367(12)
H16 H 0.202270 0.551217 0.133565
C19 C 0.34593(15) 0.5157(2) 0.16175(12)
H17 H 0.357299 0.562032 0.114507
C20 C 0.42180(14) 0.4534(2) 0.21877(12)
C21 C 0.40307(16) 0.3867(2) 0.28791(13)
H18 H 0.454212 0.343112 0.327064
C22 C 0.31166(16) 0.3832(2) 0.30022(13)
H19 H 0.300606 0.337599 0.347814
C23 C 0.52368(16) 0.4546(2) 0.21079(13)
C24 C 0.63085(15) 0.5426(3) 0.12734(13)
C25 C 0.70006(18) 0.6180(3) 0.19785(16)
H20 H 0.669186 0.703215 0.213352
H21 H 0.757877 0.645617 0.180297
H22 H 0.717745 0.553894 0.245348
C26 C 0.60992(17) 0.6344(3) 0.05025(14)
H23 H 0.562660 0.586555 0.006317
H24 H 0.669306 0.649503 0.032345
H25 H 0.584295 0.726439 0.062347
C27 C 0.66473(18) 0.3965(3) 0.10888(16)
H26 H 0.677025 0.338199 0.158963
H27 H 0.723952 0.405590 0.089982
H28 H 0.615138 0.351052 0.065728
O1 O 0.58781(11) 0.3933(2) 0.25883(9)
O2 O 0.53458(10) 0.53035(16) 0.14592(8)
loop_
_geom_bond_atom_site_label_1
_geom_bond_atom_site_label_2
_geom_bond_site_symmetry_1
_geom_bond_site_symmetry_2
C1 C2 1_555 1_555
C2 C3 1_555 1_555
C3 H1 1_555 1_555
H2 C3 1_555 1_555
C4 C3 1_555 1_555
H3 C4 1_555 1_555
H4 C4 1_555 1_555
H5 C4 1_555 1_555
C5 C2 1_555 1_555
C6 C5 1_555 1_555
H6 C6 1_555 1_555
C7 C6 1_555 1_555
H7 C7 1_555 1_555
C8 C7 1_555 1_555
H8 C8 1_555 1_555
C9 C8 1_555 1_555
H9 C9 1_555 1_555
C10 C5 1_555 1_555
H10 C10 1_555 1_555
C11 C1 1_555 1_555
C12 C11 1_555 1_555
H11 C12 1_555 1_555
C13 C12 1_555 1_555
H12 C13 1_555 1_555
C14 C13 1_555 1_555
H13 C14 1_555 1_555
C15 C14 1_555 1_555
H14 C15 1_555 1_555
C16 C11 1_555 1_555
H15 C16 1_555 1_555
C17 C1 1_555 1_555
C18 C17 1_555 1_555
H16 C18 1_555 1_555
C19 C18 1_555 1_555
H17 C19 1_555 1_555
C20 C19 1_555 1_555
C21 C20 1_555 1_555
H18 C21 1_555 1_555
C22 C17 1_555 1_555
H19 C22 1_555 1_555
C23 C20 1_555 1_555
C24 C25 1_555 1_555
C25 H20 1_555 1_555
H21 C25 1_555 1_555
H22 C25 1_555 1_555
C26 C24 1_555 1_555
H23 C26 1_555 1_555
H24 C26 1_555 1_555
H25 C26 1_555 1_555
C27 C24 1_555 1_555
H26 C27 1_555 1_555
H27 C27 1_555 1_555
H28 C27 1_555 1_555
O1 C23 1_555 1_555
O2 C23 1_555 1_555
C9 C10 1_555 1_555
C15 C16 1_555 1_555
C21 C22 1_555 1_555
C24 O2 1_555 1_555

#END
