
#######################################################################
#
#                 Cambridge Crystallographic Data Centre
#                                CCDC 
#
#######################################################################
#
# If this CIF has been generated from an entry in the Cambridge 
# Structural Database, then it will include bibliographic, chemical, 
# crystal, experimental, refinement or atomic coordinate data resulting 
# from the CCDC's data processing and validation procedures.
#
#######################################################################

data_XEPYEZ
_chemical_name_common            gene831
_chemical_formula_moiety         'C37 H38 N1 O4 P1'
_chemical_name_systematic        
'bis(2,6-dimethylphenyl) 1,2-diphenyl-1-(pyridin-4-yl)butyl phosphate'
_symmetry_cell_setting           monoclinic
_symmetry_space_group_name_H-M   'P 21/c'
_symmetry_Int_Tables_number      14
_space_group_name_Hall           '-P 2ybc'
loop_
_symmetry_equiv_pos_site_id
_symmetry_equiv_pos_as_xyz
1 x,y,z
2 -x,1/2+y,1/2-z
3 -x,-y,-z
4 x,1/2-y,1/2+z
_cell_length_a                   10.7335(5)
_cell_length_b                   14.9683(7)
_cell_length_c                   20.7298(10)
_cell_angle_alpha                90
_cell_angle_beta                 103.2320(10)
_cell_angle_gamma                90
_cell_volume                     3242.08
_exptl_crystal_colour            colorless
_exptl_crystal_description       plate
_cell_formula_units_Z            4
loop_
_atom_site_label
_atom_site_type_symbol
_atom_site_fract_x
_atom_site_fract_y
_atom_site_fract_z
C1 C 0.34428(19) 0.25967(13) 0.47433(9)
C2 C 0.22576(19) 0.21005(13) 0.48867(10)
H1 H 0.229453 0.147809 0.471674
C3 C 0.2273(2) 0.20088(14) 0.56295(10)
H2 H 0.314250 0.183685 0.587633
H3 H 0.206100 0.259196 0.580266
C4 C 0.1316(2) 0.13098(16) 0.57396(11)
H4 H 0.044932 0.149809 0.551783
H5 H 0.137113 0.124418 0.621571
H6 H 0.151039 0.073657 0.555642
C5 C 0.09888(19) 0.24884(14) 0.45082(10)
C6 C 0.0260(2) 0.20371(15) 0.39660(11)
H7 H 0.057888 0.149936 0.382084
C7 C -0.0930(2) 0.23602(17) 0.36314(12)
H8 H -0.141441 0.204396 0.326051
C8 C -0.1405(2) 0.31362(18) 0.38374(13)
H9 H -0.221759 0.335572 0.361033
C9 C -0.0695(2) 0.35956(17) 0.43761(12)
H10 H -0.102147 0.413330 0.451701
C10 C 0.0487(2) 0.32779(15) 0.47117(11)
H11 H 0.096273 0.359732 0.508313
C11 C 0.47310(19) 0.21197(13) 0.49964(9)
C12 C 0.4848(2) 0.12638(13) 0.52615(10)
H12 H 0.410345 0.094281 0.529711
C13 C 0.6045(2) 0.08729(14) 0.54752(10)
H13 H 0.611516 0.029327 0.566684
C14 C 0.7134(2) 0.13206(14) 0.54110(10)
H14 H 0.795042 0.105096 0.555874
C15 C 0.7031(2) 0.21635(14) 0.51309(10)
H15 H 0.777611 0.246802 0.507591
C16 C 0.58407(19) 0.25643(14) 0.49301(10)
H16 H 0.577830 0.314784 0.474537
C17 C 0.35245(19) 0.35609(13) 0.49840(10)
C18 C 0.3083(2) 0.42771(14) 0.45711(11)
H17 H 0.272843 0.418532 0.411233
C19 C 0.3168(2) 0.51276(15) 0.48381(12)
H18 H 0.285818 0.560918 0.454699
C20 C 0.4083(2) 0.46227(15) 0.58634(12)
H19 H 0.444319 0.473547 0.631894
C21 C 0.4040(2) 0.37517(14) 0.56470(10)
H20 H 0.436103 0.328394 0.594918
C22 C 0.1611(2) 0.21293(18) 0.24111(10)
C23 C 0.1452(2) 0.1339(2) 0.20529(11)
C24 C 0.0288(3) 0.1240(3) 0.15895(12)
H21 H 0.013286 0.070967 0.133216
C25 C -0.0630(3) 0.1889(3) 0.14987(15)
H22 H -0.140746 0.180621 0.117683
C26 C -0.0445(3) 0.2655(3) 0.18640(15)
H23 H -0.109939 0.309508 0.179672
C27 C 0.0702(2) 0.28036(19) 0.23394(12)
C28 C 0.2468(3) 0.0633(2) 0.21397(14)
H24 H 0.329667 0.091269 0.214706
H25 H 0.225938 0.020876 0.177060
H26 H 0.251162 0.031632 0.255798
C29 C 0.0936(2) 0.36450(19) 0.27361(15)
H27 H 0.089037 0.352016 0.319418
H28 H 0.028525 0.408864 0.254414
H29 H 0.178682 0.387815 0.273034
C30 C 0.55117(19) 0.18248(15) 0.30221(10)
C31 C 0.6007(2) 0.09662(16) 0.30510(11)
C32 C 0.6607(2) 0.07117(19) 0.25557(13)
H30 H 0.694101 0.012412 0.255524
C33 C 0.6722(3) 0.1295(2) 0.20695(14)
H31 H 0.712105 0.110531 0.172868
C34 C 0.6270(2) 0.2155(2) 0.20631(12)
H32 H 0.637782 0.255270 0.172311
C35 C 0.5651(2) 0.24543(17) 0.25515(11)
C36 C 0.5926(2) 0.03331(16) 0.36013(13)
H33 H 0.619726 0.063988 0.402810
H34 H 0.648618 -0.018066 0.358934
H35 H 0.504127 0.012669 0.354588
C37 C 0.5180(2) 0.33895(18) 0.25724(15)
H36 H 0.427038 0.341687 0.235029
H37 H 0.566739 0.378670 0.234599
H38 H 0.529158 0.357893 0.303466
N1 N 0.36510(17) 0.53214(12) 0.54728(10)
O1 O 0.32188(13) 0.26817(9) 0.40116(6)
O2 O 0.30818(14) 0.10384(9) 0.36608(7)
O3 O 0.28219(13) 0.23302(10) 0.28253(7)
O4 O 0.49230(13) 0.20952(9) 0.35316(7)
P1 P 0.34653(5) 0.19371(4) 0.35258(3)
loop_
_geom_bond_atom_site_label_1
_geom_bond_atom_site_label_2
_geom_bond_site_symmetry_1
_geom_bond_site_symmetry_2
C1 C2 1_555 1_555
C2 H1 1_555 1_555
C3 C2 1_555 1_555
H2 C3 1_555 1_555
H3 C3 1_555 1_555
C4 C3 1_555 1_555
H4 C4 1_555 1_555
H5 C4 1_555 1_555
H6 C4 1_555 1_555
C5 C2 1_555 1_555
C6 C5 1_555 1_555
H7 C6 1_555 1_555
C7 C6 1_555 1_555
H8 C7 1_555 1_555
C8 C7 1_555 1_555
H9 C8 1_555 1_555
C9 C8 1_555 1_555
H10 C9 1_555 1_555
C10 C5 1_555 1_555
H11 C10 1_555 1_555
C11 C1 1_555 1_555
C12 C11 1_555 1_555
H12 C12 1_555 1_555
C13 C12 1_555 1_555
H13 C13 1_555 1_555
C14 C13 1_555 1_555
H14 C14 1_555 1_555
C15 C14 1_555 1_555
H15 C15 1_555 1_555
C16 C11 1_555 1_555
H16 C16 1_555 1_555
C17 C1 1_555 1_555
C18 C17 1_555 1_555
H17 C18 1_555 1_555
C19 C18 1_555 1_555
H18 C19 1_555 1_555
C20 H19 1_555 1_555
C21 C17 1_555 1_555
H20 C21 1_555 1_555
C22 C23 1_555 1_555
C23 C24 1_555 1_555
C24 H21 1_555 1_555
C25 C24 1_555 1_555
H22 C25 1_555 1_555
C26 C25 1_555 1_555
H23 C26 1_555 1_555
C27 C22 1_555 1_555
C28 C23 1_555 1_555
H24 C28 1_555 1_555
H25 C28 1_555 1_555
H26 C28 1_555 1_555
C29 C27 1_555 1_555
H27 C29 1_555 1_555
H28 C29 1_555 1_555
H29 C29 1_555 1_555
C30 C31 1_555 1_555
C31 C32 1_555 1_555
C32 H30 1_555 1_555
C33 C32 1_555 1_555
H31 C33 1_555 1_555
C34 C33 1_555 1_555
H32 C34 1_555 1_555
C35 C30 1_555 1_555
C36 C31 1_555 1_555
H33 C36 1_555 1_555
H34 C36 1_555 1_555
H35 C36 1_555 1_555
C37 C35 1_555 1_555
H36 C37 1_555 1_555
H37 C37 1_555 1_555
H38 C37 1_555 1_555
N1 C19 1_555 1_555
O1 C1 1_555 1_555
O2 P1 1_555 1_555
O3 C22 1_555 1_555
O4 C30 1_555 1_555
P1 O1 1_555 1_555
C9 C10 1_555 1_555
C15 C16 1_555 1_555
C20 C21 1_555 1_555
C20 N1 1_555 1_555
C26 C27 1_555 1_555
C34 C35 1_555 1_555
O3 P1 1_555 1_555
O4 P1 1_555 1_555

#END
