
#######################################################################
#
#                 Cambridge Crystallographic Data Centre
#                                CCDC 
#
#######################################################################
#
# If this CIF has been generated from an entry in the Cambridge 
# Structural Database, then it will include bibliographic, chemical, 
# crystal, experimental, refinement or atomic coordinate data resulting 
# from the CCDC's data processing and validation procedures.
#
#######################################################################

data_XEPYAU
_chemical_formula_moiety         'C15 H9 F5 O3 S2'
_chemical_name_systematic        
2-(((4-(Pentafluorophenoxy)phenyl)sulfonyl)methyl)thiirane
_symmetry_cell_setting           monoclinic
_symmetry_space_group_name_H-M   'C 2/c'
_symmetry_Int_Tables_number      15
_space_group_name_Hall           '-C 2yn'
loop_
_symmetry_equiv_pos_site_id
_symmetry_equiv_pos_as_xyz
1 x,y,z
2 -x,y,1/2-z
3 1/2+x,1/2+y,z
4 1/2-x,1/2+y,1/2-z
5 -x,-y,-z
6 x,-y,1/2+z
7 1/2-x,1/2-y,-z
8 1/2+x,1/2-y,1/2+z
_cell_length_a                   21.3874(7)
_cell_length_b                   5.5765(3)
_cell_length_c                   26.7076(11)
_cell_angle_alpha                90
_cell_angle_beta                 100.485(4)
_cell_angle_gamma                90
_cell_volume                     3132.14
_exptl_crystal_colour            colorless
_exptl_crystal_description       parallelepiped
_cell_formula_units_Z            8
loop_
_atom_site_label
_atom_site_type_symbol
_atom_site_fract_x
_atom_site_fract_y
_atom_site_fract_z
S1 S 0.03532(4) 0.33199(14) 0.43852(3)
O1 O 0.11030(11) 0.0095(4) 0.24803(8)
O2 O -0.03025(11) 0.2646(5) 0.43358(10)
O3 O 0.05108(14) 0.5785(4) 0.44526(9)
F1 F 0.22309(9) -0.0801(4) 0.21963(7)
F2 F 0.26846(9) 0.2030(4) 0.15266(8)
F3 F 0.20344(11) 0.5997(4) 0.11479(8)
F4 F 0.09289(9) 0.7091(3) 0.14408(8)
F5 F 0.04643(8) 0.4293(4) 0.21116(8)
C1 C 0.13360(13) 0.1674(5) 0.21668(10)
C2 C 0.18975(13) 0.1144(5) 0.20083(10)
C3 C 0.21313(13) 0.2563(6) 0.16685(10)
C4 C 0.18044(14) 0.4565(6) 0.14767(11)
C5 C 0.12459(14) 0.5128(5) 0.16279(11)
C6 C 0.10117(12) 0.3701(5) 0.19675(11)
C7 C 0.09643(13) 0.0916(5) 0.29402(10)
C8 C 0.05506(14) -0.0480(5) 0.31504(11)
H1 H 0.0388 -0.1886 0.2990
C9 C 0.03793(14) 0.0221(5) 0.35999(11)
H2 H 0.0101 -0.0711 0.3747
C10 C 0.06227(12) 0.2316(5) 0.38320(10)
C11 C 0.10498(14) 0.3681(5) 0.36272(11)
H3 H 0.1220 0.5068 0.3791
C12 C 0.12236(14) 0.2977(6) 0.31773(11)
H4 H 0.1512 0.3881 0.3035
C13 C 0.07650(15) 0.1589(7) 0.48946(12)
H5 H 0.0631 0.2088 0.5207
H6 H 0.0646 -0.0080 0.4836
C14 C 0.14513(18) 0.1776(7) 0.49636(13)
H7 H 0.1630 0.3376 0.5046
S2 S 0.1882(3) -0.0109(15) 0.4612(2)
C15 C 0.1788(11) -0.033(5) 0.5288(10)
H8 H 0.1523 -0.1608 0.5378
H9 H 0.2154 0.0058 0.5547
C16? C 0.1859(12) 0.026(5) 0.4662(9)
H10? H 0.2196 0.1074 0.4531
H11? H 0.1643 -0.0970 0.4438
S3? S 0.1985(4) -0.0320(10) 0.5334(2)
loop_
_geom_bond_atom_site_label_1
_geom_bond_atom_site_label_2
_geom_bond_site_symmetry_1
_geom_bond_site_symmetry_2
S1 O2 1_555 1_555
O1 C1 1_555 1_555
O3 S1 1_555 1_555
F1 C2 1_555 1_555
F2 C3 1_555 1_555
F3 C4 1_555 1_555
F4 C5 1_555 1_555
F5 C6 1_555 1_555
C1 C2 1_555 1_555
C2 C3 1_555 1_555
C3 C4 1_555 1_555
C4 C5 1_555 1_555
C5 C6 1_555 1_555
C6 C1 1_555 1_555
C7 O1 1_555 1_555
C8 C7 1_555 1_555
H1 C8 1_555 1_555
C9 C8 1_555 1_555
H2 C9 1_555 1_555
C10 S1 1_555 1_555
C11 C10 1_555 1_555
H3 C11 1_555 1_555
C12 C7 1_555 1_555
H4 C12 1_555 1_555
C13 S1 1_555 1_555
H5 C13 1_555 1_555
H6 C13 1_555 1_555
C14 C13 1_555 1_555
H7 C14 1_555 1_555
S2 C14 1_555 1_555
C15 C14 1_555 1_555
H8 C15 1_555 1_555
H9 C15 1_555 1_555
C9 C10 1_555 1_555
C11 C12 1_555 1_555
S2 C15 1_555 1_555

#END
