
#######################################################################
#
#                 Cambridge Crystallographic Data Centre
#                                CCDC 
#
#######################################################################
#
# If this CIF has been generated from an entry in the Cambridge 
# Structural Database, then it will include bibliographic, chemical, 
# crystal, experimental, refinement or atomic coordinate data resulting 
# from the CCDC's data processing and validation procedures.
#
#######################################################################

data_XEPYUP
_chemical_name_common            gene726
_chemical_formula_moiety         'C23 H23 Cl1 O1'
_chemical_name_systematic        
1-(4-chlorophenyl)-2-(2-methylphenyl)-1-phenylbutan-1-ol
_symmetry_cell_setting           triclinic
_symmetry_space_group_name_H-M   'P -1'
_symmetry_Int_Tables_number      2
_space_group_name_Hall           '-P 1'
loop_
_symmetry_equiv_pos_site_id
_symmetry_equiv_pos_as_xyz
1 x,y,z
2 -x,-y,-z
_cell_length_a                   6.4515(3)
_cell_length_b                   17.1888(8)
_cell_length_c                   18.0877(8)
_cell_angle_alpha                68.7370(10)
_cell_angle_beta                 87.4180(10)
_cell_angle_gamma                89.4220(10)
_cell_volume                     1867.33
_exptl_crystal_colour            colorless
_exptl_crystal_description       plate
_cell_formula_units_Z            4
loop_
_atom_site_label
_atom_site_type_symbol
_atom_site_fract_x
_atom_site_fract_y
_atom_site_fract_z
C1 C 0.0282(3) 0.97635(12) 0.29811(11)
C2 C 0.1671(3) 1.04442(11) 0.23480(11)
H1 H 0.3067 1.0190 0.2334
C3 C 0.1997(3) 1.12156(12) 0.25728(11)
H2 H 0.0654 1.1502 0.2564
H3 H 0.2488 1.1033 0.3120
C4 C 0.3564(3) 1.18266(13) 0.20096(12)
H4 H 0.4891 1.1543 0.2011
H5 H 0.3761 1.2297 0.2183
H6 H 0.3049 1.2032 0.1471
C5 C 0.1187(3) 0.94627(11) 0.38113(11)
C6 C 0.3270(4) 0.94393(18) 0.39483(13)
H7 H 0.4247 0.9636 0.3511
C7 C 0.3969(4) 0.9134(2) 0.47147(14)
H8 H 0.5413 0.9121 0.4799
C8 C 0.2583(3) 0.88522(12) 0.53470(11)
C9 C 0.0524(4) 0.88790(17) 0.52325(13)
H9 H -0.0446 0.8697 0.5673
C10 C -0.0150(4) 0.91742(17) 0.44668(14)
H10 H -0.1598 0.9178 0.4390
C11 C -0.0025(3) 0.90134(12) 0.27308(11)
C12 C -0.1831(4) 0.89195(14) 0.23800(13)
H11 H -0.2904 0.9320 0.2304
C13 C -0.2085(4) 0.82514(15) 0.21407(14)
H12 H -0.3329 0.8195 0.1902
C14 C -0.0533(4) 0.76610(14) 0.22466(13)
H13 H -0.0708 0.7201 0.2081
C15 C 0.1261(4) 0.77475(13) 0.25933(13)
H14 H 0.2330 0.7346 0.2665
C16 C 0.1523(4) 0.84143(13) 0.28384(12)
H15 H 0.2764 0.8464 0.3081
C17 C 0.0863(3) 1.07036(11) 0.15118(11)
C18 C -0.0887(3) 1.12074(12) 0.13192(12)
H16 H -0.1574 1.1367 0.1717
C19 C -0.1656(3) 1.14823(13) 0.05652(12)
H17 H -0.2869 1.1815 0.0453
C20 C -0.0643(3) 1.12687(13) -0.00205(12)
H18 H -0.1147 1.1458 -0.0542
C21 C 0.1110(3) 1.07773(12) 0.01553(12)
H19 H 0.1809 1.0638 -0.0253
C22 C 0.1882(3) 1.04798(12) 0.09172(11)
C23 C 0.3782(3) 0.99400(13) 0.10666(12)
H20 H 0.4110 0.9782 0.0606
H21 H 0.3520 0.9436 0.1538
H22 H 0.4954 1.0250 0.1153
O1 O -0.1762(2) 1.00848(8) 0.30329(8)
H23 H -0.1679 1.0515 0.3148
Cl1 Cl 0.34740(9) 0.84625(3) 0.63120(3)
C24 C 0.5666(3) 0.50889(12) 0.28659(11)
C25 C 0.4412(3) 0.43660(11) 0.27670(11)
H24 H 0.3007 0.4591 0.2594
C26 C 0.4079(3) 0.36274(12) 0.35607(12)
H25 H 0.5359 0.3290 0.3674
H26 H 0.3820 0.3846 0.3993
C27 C 0.2276(4) 0.30728(14) 0.35521(14)
H27 H 0.0998 0.3401 0.3452
H28 H 0.2126 0.2613 0.4067
H29 H 0.2537 0.2846 0.3132
C28 C 0.4548(3) 0.54679(11) 0.34259(11)
C29 C 0.2445(3) 0.53525(12) 0.36541(12)
H30 H 0.1623 0.5010 0.3470
C30 C 0.1537(3) 0.57327(12) 0.41483(12)
H31 H 0.0107 0.5646 0.4306
C31 C 0.2729(3) 0.62358(13) 0.44062(11)
C32 C 0.4806(3) 0.63772(13) 0.41824(12)
H32 H 0.5607 0.6731 0.4360
C33 C 0.5702(3) 0.59908(12) 0.36920(12)
H33 H 0.7131 0.6084 0.3535
C34 C 0.6105(3) 0.57796(11) 0.20621(11)
C35 C 0.4603(3) 0.63735(12) 0.17279(12)
H34 H 0.3303 0.6348 0.2004
C36 C 0.4982(4) 0.70019(13) 0.09956(13)
H35 H 0.3947 0.7408 0.0779
C37 C 0.6846(4) 0.70436(14) 0.05786(13)
H36 H 0.7099 0.7474 0.0076
C38 C 0.8341(4) 0.64506(14) 0.09021(13)
H37 H 0.9628 0.6472 0.0618
C39 C 0.7977(3) 0.58242(13) 0.16381(12)
H38 H 0.9019 0.5421 0.1855
C40 C 0.5362(3) 0.40757(11) 0.21197(12)
C41 C 0.7177(3) 0.36071(12) 0.22561(13)
H39 H 0.7814 0.3478 0.2750
C42 C 0.8076(3) 0.33253(13) 0.16890(14)
H40 H 0.9315 0.3008 0.1796
C43 C 0.7171(4) 0.35057(13) 0.09719(13)
H41 H 0.7787 0.3318 0.0580
C44 C 0.5361(3) 0.39615(12) 0.08264(13)
H42 H 0.4736 0.4080 0.0332
C45 C 0.4423(3) 0.42539(12) 0.13878(12)
C46 C 0.2450(3) 0.47454(13) 0.11848(12)
H43 H 0.1351 0.4469 0.1583
H44 H 0.2037 0.4777 0.0660
H45 H 0.2679 0.5311 0.1179
O2 O 0.7659(2) 0.47909(8) 0.31777(8)
H46 H 0.7493 0.4445 0.3644
Cl2 Cl 0.15534(9) 0.67295(4) 0.50064(3)
loop_
_geom_bond_atom_site_label_1
_geom_bond_atom_site_label_2
_geom_bond_site_symmetry_1
_geom_bond_site_symmetry_2
C1 C2 1_555 1_555
C2 H1 1_555 1_555
C3 C2 1_555 1_555
H2 C3 1_555 1_555
H3 C3 1_555 1_555
C4 C3 1_555 1_555
H4 C4 1_555 1_555
H5 C4 1_555 1_555
H6 C4 1_555 1_555
C5 C1 1_555 1_555
C6 C5 1_555 1_555
H7 C6 1_555 1_555
C7 C6 1_555 1_555
H8 C7 1_555 1_555
C8 C7 1_555 1_555
C9 C8 1_555 1_555
H9 C9 1_555 1_555
C10 C5 1_555 1_555
H10 C10 1_555 1_555
C11 C1 1_555 1_555
C12 C11 1_555 1_555
H11 C12 1_555 1_555
C13 C12 1_555 1_555
H12 C13 1_555 1_555
C14 C13 1_555 1_555
H13 C14 1_555 1_555
C15 C14 1_555 1_555
H14 C15 1_555 1_555
C16 C11 1_555 1_555
H15 C16 1_555 1_555
C17 C2 1_555 1_555
C18 C17 1_555 1_555
H16 C18 1_555 1_555
C19 C18 1_555 1_555
H17 C19 1_555 1_555
C20 C19 1_555 1_555
H18 C20 1_555 1_555
C21 C20 1_555 1_555
H19 C21 1_555 1_555
C22 C17 1_555 1_555
C23 C22 1_555 1_555
H20 C23 1_555 1_555
H21 C23 1_555 1_555
H22 C23 1_555 1_555
O1 C1 1_555 1_555
H23 O1 1_555 1_555
Cl1 C8 1_555 1_555
C24 C25 1_555 1_555
C25 H24 1_555 1_555
C26 C25 1_555 1_555
H25 C26 1_555 1_555
H26 C26 1_555 1_555
C27 C26 1_555 1_555
H27 C27 1_555 1_555
H28 C27 1_555 1_555
H29 C27 1_555 1_555
C28 C24 1_555 1_555
C29 C28 1_555 1_555
H30 C29 1_555 1_555
C30 C29 1_555 1_555
H31 C30 1_555 1_555
C31 C30 1_555 1_555
C32 C31 1_555 1_555
H32 C32 1_555 1_555
C33 C28 1_555 1_555
H33 C33 1_555 1_555
C34 C24 1_555 1_555
C35 C34 1_555 1_555
H34 C35 1_555 1_555
C36 C35 1_555 1_555
H35 C36 1_555 1_555
C37 C36 1_555 1_555
H36 C37 1_555 1_555
C38 C37 1_555 1_555
H37 C38 1_555 1_555
C39 C34 1_555 1_555
H38 C39 1_555 1_555
C40 C25 1_555 1_555
C41 C40 1_555 1_555
H39 C41 1_555 1_555
C42 C41 1_555 1_555
H40 C42 1_555 1_555
C43 C42 1_555 1_555
H41 C43 1_555 1_555
C44 C43 1_555 1_555
H42 C44 1_555 1_555
C45 C40 1_555 1_555
C46 C45 1_555 1_555
H43 C46 1_555 1_555
H44 C46 1_555 1_555
H45 C46 1_555 1_555
O2 C24 1_555 1_555
H46 O2 1_555 1_555
Cl2 C31 1_555 1_555
C9 C10 1_555 1_555
C15 C16 1_555 1_555
C21 C22 1_555 1_555
C32 C33 1_555 1_555
C38 C39 1_555 1_555
C44 C45 1_555 1_555

#END
