
#######################################################################
#
#                 Cambridge Crystallographic Data Centre
#                                CCDC 
#
#######################################################################
#
# If this CIF has been generated from an entry in the Cambridge 
# Structural Database, then it will include bibliographic, chemical, 
# crystal, experimental, refinement or atomic coordinate data resulting 
# from the CCDC's data processing and validation procedures.
#
#######################################################################

data_XEPYEW
_chemical_formula_moiety         'C18 H19 N1 O4 S1'
_chemical_name_systematic        
'Methyl trans-2-(p-toluenesulfonyl)amino-3-methylcinnamate'
_symmetry_cell_setting           orthorhombic
_symmetry_space_group_name_H-M   'P 21 21 21'
_symmetry_Int_Tables_number      19
_space_group_name_Hall           'P 2ac 2ab'
loop_
_symmetry_equiv_pos_site_id
_symmetry_equiv_pos_as_xyz
1 x,y,z
2 1/2-x,-y,1/2+z
3 1/2+x,1/2-y,-z
4 -x,1/2+y,1/2-z
_cell_length_a                   8.807(3)
_cell_length_b                   9.790(4)
_cell_length_c                   20.758(8)
_cell_angle_alpha                90
_cell_angle_beta                 90
_cell_angle_gamma                90
_cell_volume                     1789.77
_chemical_melting_point          159-160deg.C
_cell_formula_units_Z            4
loop_
_atom_site_label
_atom_site_type_symbol
_atom_site_fract_x
_atom_site_fract_y
_atom_site_fract_z
S1 S 0.9647(1) 0.2594(1) 0.71148(5)
O1 O 0.6649(3) 0.1134(3) 0.8394(1)
O2 O 0.8875(3) 0.1780(3) 0.8817(1)
O3 O 1.1137(3) 0.3061(3) 0.6969(1)
O4 O 0.9383(4) 0.1197(3) 0.7297(1)
N1 N 0.9049(4) 0.3517(3) 0.7711(2)
C1 C 0.5163(4) 0.3731(4) 0.8477(2)
C2 C 0.7824(4) 0.1969(4) 0.8459(2)
C3 C 0.6452(4) 0.4003(4) 0.8039(2)
C4 C 0.8481(5) 0.2952(4) 0.6444(2)
C5 C 0.7673(4) 0.3200(4) 0.8037(2)
C6 C 0.3708(5) 0.3526(4) 0.8242(2)
C7 C 0.8680(5) 0.4156(5) 0.6120(2)
C8 C 0.5378(5) 0.3692(5) 0.9138(2)
C9 C 0.7407(6) 0.2029(5) 0.6239(2)
C10 C 0.6356(5) 0.5281(5) 0.7638(2)
C11 C 0.2534(5) 0.3248(5) 0.8653(3)
C12 C 0.4186(6) 0.3430(5) 0.9545(2)
C13 C 0.2754(6) 0.3220(5) 0.9306(2)
C14 C 0.6567(6) 0.2325(5) 0.5695(3)
C15 C 0.7818(6) 0.4425(5) 0.5579(2)
C16 C 0.6772(6) 0.3495(5) 0.5359(2)
C17 C 0.6547(6) 0.0028(5) 0.8849(2)
C18 C 0.5876(7) 0.3806(8) 0.4745(3)
H1 H 0.650(4) 0.033(4) 0.927(2)
H2 H 0.750(6) -0.050(5) 0.884(2)
H3 H 0.571(6) -0.048(5) 0.872(2)
H4 H 0.643(5) 0.612(5) 0.792(2)
H5 H 0.494(8) 0.339(7) 0.480(3)
H6 H 0.932(4) 0.424(3) 0.769(2)
H7 H 0.6361 0.3847 0.9311
H8 H 0.4354 0.3394 0.9996
H9 H 0.1926 0.3056 0.9589
H10 H 0.1552 0.3072 0.8482
H11 H 0.3524 0.3578 0.7791
H12 H 0.7246 0.1200 0.6467
H13 H 0.5823 0.1689 0.5552
H14 H 0.9405 0.4802 0.6266
H15 H 0.7950 0.5263 0.5355
H16 H 0.5412 0.5294 0.7416
H17 H 0.7162 0.5285 0.7334
H18 H 0.6385 0.3443 0.4379
loop_
_geom_bond_atom_site_label_1
_geom_bond_atom_site_label_2
_geom_bond_site_symmetry_1
_geom_bond_site_symmetry_2
S1 O3 1_555 1_555
O1 C2 1_555 1_555
O2 C2 1_555 1_555
O4 S1 1_555 1_555
N1 S1 1_555 1_555
C1 C3 1_555 1_555
C2 C5 1_555 1_555
C3 C5 1_555 1_555
C4 S1 1_555 1_555
C5 N1 1_555 1_555
C6 C1 1_555 1_555
C7 C4 1_555 1_555
C8 C1 1_555 1_555
C9 C4 1_555 1_555
C10 C3 1_555 1_555
C11 C6 1_555 1_555
C12 C8 1_555 1_555
C13 C11 1_555 1_555
C14 C9 1_555 1_555
C15 C7 1_555 1_555
C16 C14 1_555 1_555
C17 O1 1_555 1_555
C18 C16 1_555 1_555
H1 C17 1_555 1_555
H2 C17 1_555 1_555
H3 C17 1_555 1_555
H4 C10 1_555 1_555
H5 C18 1_555 1_555
H6 N1 1_555 1_555
H7 C8 1_555 1_555
H8 C12 1_555 1_555
H9 C13 1_555 1_555
H10 C11 1_555 1_555
H11 C6 1_555 1_555
H12 C9 1_555 1_555
H13 C14 1_555 1_555
H14 C7 1_555 1_555
H15 C15 1_555 1_555
H16 C10 1_555 1_555
H17 C10 1_555 1_555
H18 C18 1_555 1_555
C12 C13 1_555 1_555
C15 C16 1_555 1_555

#END
