
#######################################################################
#
#                 Cambridge Crystallographic Data Centre
#                                CCDC 
#
#######################################################################
#
# If this CIF has been generated from an entry in the Cambridge 
# Structural Database, then it will include bibliographic, chemical, 
# crystal, experimental, refinement or atomic coordinate data resulting 
# from the CCDC's data processing and validation procedures.
#
#######################################################################

data_XEPZIE
_chemical_name_common            gene728
_chemical_formula_moiety         'C23 H23 Cl1 O1'
_chemical_name_systematic        
1-(4-chlorophenyl)-3-methyl-1,2-diphenylbutan-1-ol
_symmetry_cell_setting           monoclinic
_symmetry_space_group_name_H-M   'P 21/c'
_symmetry_Int_Tables_number      14
_space_group_name_Hall           '-P 2ybc'
loop_
_symmetry_equiv_pos_site_id
_symmetry_equiv_pos_as_xyz
1 x,y,z
2 -x,1/2+y,1/2-z
3 -x,-y,-z
4 x,1/2-y,1/2+z
_cell_length_a                   18.5748(11)
_cell_length_b                   6.4645(4)
_cell_length_c                   15.9299(9)
_cell_angle_alpha                90
_cell_angle_beta                 107.348(2)
_cell_angle_gamma                90
_cell_volume                     1825.8
_exptl_crystal_colour            colorless
_exptl_crystal_description       prism
_cell_formula_units_Z            4
loop_
_atom_site_label
_atom_site_type_symbol
_atom_site_fract_x
_atom_site_fract_y
_atom_site_fract_z
C1 C 0.72643(7) 0.52613(19) 0.61229(8)
C2 C 0.75451(7) 0.6695(2) 0.69402(8)
H1 H 0.7556 0.8116 0.6696
C3 C 0.69859(7) 0.6838(2) 0.75026(8)
H2 H 0.6462 0.6713 0.7093
C4 C 0.70572(8) 0.8965(2) 0.79378(9)
H3 H 0.6683 0.9094 0.8257
H4 H 0.6970 1.0042 0.7486
H5 H 0.7564 0.9122 0.8350
C5 C 0.70831(8) 0.5181(2) 0.82156(9)
H6 H 0.7567 0.5384 0.8670
H7 H 0.7073 0.3807 0.7952
H8 H 0.6671 0.5293 0.8481
C6 C 0.83560(7) 0.6251(2) 0.74842(8)
C7 C 0.88638(7) 0.7892(2) 0.77133(8)
H9 H 0.8693 0.9257 0.7541
C8 C 0.96158(7) 0.7571(2) 0.81900(8)
H10 H 0.9952 0.8712 0.8346
C9 C 0.98726(7) 0.5589(2) 0.84358(8)
H11 H 1.0386 0.5359 0.8757
C10 C 0.93752(7) 0.3942(2) 0.82100(8)
H12 H 0.9551 0.2578 0.8374
C11 C 0.86222(7) 0.4264(2) 0.77461(8)
H13 H 0.8286 0.3121 0.7606
C12 C 0.78684(7) 0.5018(2) 0.56517(8)
C13 C 0.82442(7) 0.6747(2) 0.54683(8)
H14 H 0.8126 0.8081 0.5641
C14 C 0.87875(7) 0.6545(2) 0.50379(8)
H15 H 0.9045 0.7734 0.4925
C15 C 0.89569(7) 0.4612(2) 0.47714(8)
H16 H 0.9333 0.4470 0.4482
C16 C 0.85748(7) 0.2895(2) 0.49299(8)
H17 H 0.8681 0.1571 0.4737
C17 C 0.80344(7) 0.3092(2) 0.53706(8)
H18 H 0.7777 0.1900 0.5480
C18 C 0.65497(7) 0.6078(2) 0.54294(8)
C19 C 0.61276(7) 0.4657(2) 0.48141(8)
H19 H 0.6273 0.3243 0.4864
C20 C 0.55026(7) 0.5259(2) 0.41340(9)
H20 H 0.5219 0.4274 0.3726
C21 C 0.53020(7) 0.7316(2) 0.40635(8)
C22 C 0.57027(7) 0.8765(2) 0.46565(9)
H21 H 0.5555 1.0177 0.4600
C23 C 0.63278(7) 0.8135(2) 0.53406(9)
H22 H 0.6605 0.9127 0.5751
O1 O 0.71056(5) 0.32166(14) 0.63774(6)
H23 H 0.6708 0.3241 0.6526
Cl1 Cl 0.45341(2) 0.81356(7) 0.31934(2)
loop_
_geom_bond_atom_site_label_1
_geom_bond_atom_site_label_2
_geom_bond_site_symmetry_1
_geom_bond_site_symmetry_2
C1 C2 1_555 1_555
C2 H1 1_555 1_555
C3 C2 1_555 1_555
H2 C3 1_555 1_555
C4 C3 1_555 1_555
H3 C4 1_555 1_555
H4 C4 1_555 1_555
H5 C4 1_555 1_555
C5 C3 1_555 1_555
H6 C5 1_555 1_555
H7 C5 1_555 1_555
H8 C5 1_555 1_555
C6 C2 1_555 1_555
C7 C6 1_555 1_555
H9 C7 1_555 1_555
C8 C7 1_555 1_555
H10 C8 1_555 1_555
C9 C8 1_555 1_555
H11 C9 1_555 1_555
C10 C9 1_555 1_555
H12 C10 1_555 1_555
C11 C6 1_555 1_555
H13 C11 1_555 1_555
C12 C1 1_555 1_555
C13 C12 1_555 1_555
H14 C13 1_555 1_555
C14 C13 1_555 1_555
H15 C14 1_555 1_555
C15 C14 1_555 1_555
H16 C15 1_555 1_555
C16 C15 1_555 1_555
H17 C16 1_555 1_555
C17 C12 1_555 1_555
H18 C17 1_555 1_555
C18 C1 1_555 1_555
C19 C18 1_555 1_555
H19 C19 1_555 1_555
C20 C19 1_555 1_555
H20 C20 1_555 1_555
C21 C20 1_555 1_555
C22 C21 1_555 1_555
H21 C22 1_555 1_555
C23 C18 1_555 1_555
H22 C23 1_555 1_555
O1 C1 1_555 1_555
H23 O1 1_555 1_555
Cl1 C21 1_555 1_555
C10 C11 1_555 1_555
C16 C17 1_555 1_555
C22 C23 1_555 1_555

#END
