
#######################################################################
#
#                 Cambridge Crystallographic Data Centre
#                                CCDC 
#
#######################################################################
#
# If this CIF has been generated from an entry in the Cambridge 
# Structural Database, then it will include bibliographic, chemical, 
# crystal, experimental, refinement or atomic coordinate data resulting 
# from the CCDC's data processing and validation procedures.
#
#######################################################################

data_XEPZOK
_chemical_name_common            gene802
_chemical_formula_moiety         'C23 H21 Cl1 O1'
_chemical_name_systematic        1-(4-chlorophenyl)-1,2-diphenylpent-4-en-1-ol
_symmetry_cell_setting           monoclinic
_symmetry_space_group_name_H-M   'P 21/c'
_symmetry_Int_Tables_number      14
_space_group_name_Hall           '-P 2ybc'
loop_
_symmetry_equiv_pos_site_id
_symmetry_equiv_pos_as_xyz
1 x,y,z
2 -x,1/2+y,1/2-z
3 -x,-y,-z
4 x,1/2-y,1/2+z
_cell_length_a                   5.8455(3)
_cell_length_b                   16.6918(7)
_cell_length_c                   37.3464(16)
_cell_angle_alpha                90
_cell_angle_beta                 90.567(3)
_cell_angle_gamma                90
_cell_volume                     3643.78
_exptl_crystal_colour            colorless
_exptl_crystal_description       needle
_cell_formula_units_Z            8
loop_
_atom_site_label
_atom_site_type_symbol
_atom_site_fract_x
_atom_site_fract_y
_atom_site_fract_z
C1 C 0.6288(5) 0.84122(18) 0.43091(7)
C2 C 0.4934(5) 0.91933(17) 0.42097(7)
H1 H 0.328395 0.904083 0.418827
C3 C 0.5106(6) 0.98447(19) 0.45031(8)
H2 H 0.468882 0.961011 0.473698
H3 H 0.670430 1.003794 0.452117
C4 C 0.3571(8) 1.0528(2) 0.44215(10)
H4 H 0.394038 1.084728 0.421943
C5 C 0.1767(7) 1.0733(2) 0.46005(12)
H5 H 0.133014 1.043212 0.480461
H6 H 0.088614 1.118324 0.452717
C6 C 0.5654(5) 0.95108(17) 0.38452(8)
C7 C 0.7653(6) 0.99544(19) 0.38020(8)
H7 H 0.857094 1.007947 0.400578
C8 C 0.8325(6) 1.02157(19) 0.34676(9)
H8 H 0.970205 1.051195 0.344301
C9 C 0.6985(6) 1.00452(19) 0.31672(9)
H9 H 0.745465 1.021504 0.293649
C10 C 0.4966(6) 0.9627(2) 0.32076(8)
H10 H 0.402234 0.952007 0.300461
C11 C 0.4314(6) 0.93626(19) 0.35413(8)
H11 H 0.292312 0.907383 0.356471
C12 C 0.5912(5) 0.77859(17) 0.40120(7)
C13 C 0.7541(5) 0.76321(18) 0.37557(8)
H12 H 0.895435 0.791260 0.376372
C14 C 0.7143(6) 0.7071(2) 0.34850(8)
H13 H 0.828493 0.696867 0.331168
C15 C 0.5091(6) 0.66661(19) 0.34696(8)
H14 H 0.480670 0.629164 0.328288
C16 C 0.3455(6) 0.68036(18) 0.37245(8)
H15 H 0.205452 0.651485 0.371689
C17 C 0.3849(5) 0.73662(18) 0.39937(7)
H16 H 0.270161 0.746517 0.416664
C18 C 0.5593(5) 0.80350(18) 0.46658(7)
C19 C 0.3461(5) 0.81527(18) 0.48176(7)
H17 H 0.240935 0.851436 0.470879
C20 C 0.2851(5) 0.77482(19) 0.51263(8)
H18 H 0.139120 0.783474 0.522894
C21 C 0.4366(5) 0.72203(18) 0.52839(7)
C22 C 0.6505(5) 0.70896(18) 0.51383(8)
H19 H 0.754796 0.672559 0.524750
C23 C 0.7091(5) 0.75006(18) 0.48301(8)
H20 H 0.855489 0.741458 0.472868
O1 O 0.8668(3) 0.85997(13) 0.43448(5)
H21 H 0.912503 0.881693 0.415564
Cl1 Cl 0.34923(14) 0.66753(5) 0.56550(2)
C24 C 0.1471(5) 0.58241(18) 0.66100(8)
C25 C -0.0035(5) 0.65326(17) 0.67390(7)
H22 H -0.165342 0.633869 0.673620
C26 C 0.0057(5) 0.72677(18) 0.64884(8)
H23 H 0.155384 0.753847 0.651767
H24 H -0.008447 0.708767 0.623654
C27 C -0.1821(6) 0.78481(19) 0.65684(9)
H25 H -0.183722 0.808179 0.680030
C28 C -0.3448(6) 0.8059(2) 0.63427(10)
H26 H -0.348988 0.783821 0.610827
H27 H -0.458282 0.843218 0.641379
C29 C 0.0550(5) 0.67519(16) 0.71282(8)
C30 C 0.2614(5) 0.71232(18) 0.72208(8)
H28 H 0.363863 0.728179 0.703819
C31 C 0.3180(6) 0.72625(19) 0.75764(9)
H29 H 0.459989 0.750789 0.763618
C32 C 0.1693(6) 0.70468(18) 0.78440(8)
H30 H 0.209461 0.713635 0.808785
C33 C -0.0392(6) 0.66981(18) 0.77555(8)
H31 H -0.144067 0.656009 0.793819
C34 C -0.0938(5) 0.65521(17) 0.73992(8)
H32 H -0.236398 0.630996 0.734024
C35 C 0.1396(5) 0.51573(17) 0.68917(7)
C36 C 0.3212(6) 0.50052(18) 0.71264(8)
H33 H 0.457553 0.531275 0.711227
C37 C 0.3024(6) 0.44007(19) 0.73820(8)
H34 H 0.428075 0.428891 0.753726
C38 C 0.1033(6) 0.39630(19) 0.74119(8)
H35 H 0.091517 0.355239 0.758691
C39 C -0.0786(6) 0.41278(18) 0.71851(8)
H36 H -0.217369 0.383684 0.720711
C40 C -0.0594(5) 0.47151(17) 0.69259(8)
H37 H -0.184785 0.481681 0.676867
C41 C 0.0729(5) 0.54582(17) 0.62479(7)
C42 C -0.1398(5) 0.55880(18) 0.60872(8)
H38 H -0.244352 0.595173 0.619286
C43 C -0.2007(5) 0.51884(19) 0.57724(8)
H39 H -0.345867 0.528171 0.566352
C44 C -0.0508(6) 0.46620(18) 0.56212(8)
C45 C 0.1625(6) 0.45183(19) 0.57742(8)
H40 H 0.265587 0.415033 0.566805
C46 C 0.2218(5) 0.49228(18) 0.60850(8)
H41 H 0.368172 0.483253 0.619004
O2 O 0.3835(3) 0.60725(13) 0.65862(5)
H42 H 0.393845 0.645739 0.644237
Cl2 Cl -0.13503(15) 0.41462(5) 0.52353(2)
loop_
_geom_bond_atom_site_label_1
_geom_bond_atom_site_label_2
_geom_bond_site_symmetry_1
_geom_bond_site_symmetry_2
C1 C2 1_555 1_555
C2 H1 1_555 1_555
C3 C2 1_555 1_555
H2 C3 1_555 1_555
H3 C3 1_555 1_555
C4 C3 1_555 1_555
H4 C4 1_555 1_555
C5 C4 1_555 1_555
H5 C5 1_555 1_555
H6 C5 1_555 1_555
C6 C2 1_555 1_555
C7 C6 1_555 1_555
H7 C7 1_555 1_555
C8 C7 1_555 1_555
H8 C8 1_555 1_555
C9 C8 1_555 1_555
H9 C9 1_555 1_555
C10 C9 1_555 1_555
H10 C10 1_555 1_555
C11 C6 1_555 1_555
H11 C11 1_555 1_555
C12 C1 1_555 1_555
C13 C12 1_555 1_555
H12 C13 1_555 1_555
C14 C13 1_555 1_555
H13 C14 1_555 1_555
C15 C14 1_555 1_555
H14 C15 1_555 1_555
C16 C15 1_555 1_555
H15 C16 1_555 1_555
C17 C12 1_555 1_555
H16 C17 1_555 1_555
C18 C1 1_555 1_555
C19 C18 1_555 1_555
H17 C19 1_555 1_555
C20 C19 1_555 1_555
H18 C20 1_555 1_555
C21 C20 1_555 1_555
C22 C21 1_555 1_555
H19 C22 1_555 1_555
C23 C18 1_555 1_555
H20 C23 1_555 1_555
O1 C1 1_555 1_555
H21 O1 1_555 1_555
Cl1 C21 1_555 1_555
C24 C25 1_555 1_555
C25 H22 1_555 1_555
C26 C25 1_555 1_555
H23 C26 1_555 1_555
H24 C26 1_555 1_555
C27 C26 1_555 1_555
H25 C27 1_555 1_555
C28 C27 1_555 1_555
H26 C28 1_555 1_555
H27 C28 1_555 1_555
C29 C25 1_555 1_555
C30 C29 1_555 1_555
H28 C30 1_555 1_555
C31 C30 1_555 1_555
H29 C31 1_555 1_555
C32 C31 1_555 1_555
H30 C32 1_555 1_555
C33 C32 1_555 1_555
H31 C33 1_555 1_555
C34 C29 1_555 1_555
H32 C34 1_555 1_555
C35 C24 1_555 1_555
C36 C35 1_555 1_555
H33 C36 1_555 1_555
C37 C36 1_555 1_555
H34 C37 1_555 1_555
C38 C37 1_555 1_555
H35 C38 1_555 1_555
C39 C38 1_555 1_555
H36 C39 1_555 1_555
C40 C35 1_555 1_555
H37 C40 1_555 1_555
C41 C24 1_555 1_555
C42 C41 1_555 1_555
H38 C42 1_555 1_555
C43 C42 1_555 1_555
H39 C43 1_555 1_555
C44 C43 1_555 1_555
C45 C44 1_555 1_555
H40 C45 1_555 1_555
C46 C41 1_555 1_555
H41 C46 1_555 1_555
O2 C24 1_555 1_555
H42 O2 1_555 1_555
Cl2 C44 1_555 1_555
C10 C11 1_555 1_555
C16 C17 1_555 1_555
C22 C23 1_555 1_555
C33 C34 1_555 1_555
C39 C40 1_555 1_555
C45 C46 1_555 1_555

#END
