
#######################################################################
#
#                 Cambridge Crystallographic Data Centre
#                                CCDC 
#
#######################################################################
#
# If this CIF has been generated from an entry in the Cambridge 
# Structural Database, then it will include bibliographic, chemical, 
# crystal, experimental, refinement or atomic coordinate data resulting 
# from the CCDC's data processing and validation procedures.
#
#######################################################################

data_XEPZEA
_chemical_name_common            gene671
_chemical_formula_moiety         'C22 H21 Cl1 O1'
_chemical_name_systematic        1-(4-chlorophenyl)-1,2-diphenylbutan-1-ol
_symmetry_cell_setting           monoclinic
_symmetry_space_group_name_H-M   'P 21/c'
_symmetry_Int_Tables_number      14
_space_group_name_Hall           '-P 2ybc'
loop_
_symmetry_equiv_pos_site_id
_symmetry_equiv_pos_as_xyz
1 x,y,z
2 -x,1/2+y,1/2-z
3 -x,-y,-z
4 x,1/2-y,1/2+z
_cell_length_a                   11.7165(4)
_cell_length_b                   6.0572(2)
_cell_length_c                   24.9509(10)
_cell_angle_alpha                90
_cell_angle_beta                 94.480(2)
_cell_angle_gamma                90
_cell_volume                     1765.33
_exptl_crystal_colour            colorless
_exptl_crystal_description       blade
_cell_formula_units_Z            4
loop_
_atom_site_label
_atom_site_type_symbol
_atom_site_fract_x
_atom_site_fract_y
_atom_site_fract_z
C1 C 0.3112(2) 0.5129(5) 0.62177(14)
C2 C 0.2006(2) 0.3812(5) 0.60413(12)
H1 H 0.2163 0.2233 0.6138
C3 C 0.1722(3) 0.3882(6) 0.54308(13)
H2 H 0.1447 0.5378 0.5326
H3 H 0.2427 0.3592 0.5248
C4 C 0.0818(3) 0.2204(7) 0.52428(14)
H4 H 0.1089 0.0717 0.5341
H5 H 0.0669 0.2301 0.4851
H6 H 0.0110 0.2509 0.5414
C5 C 0.0983(2) 0.4518(5) 0.63398(12)
C6 C 0.0440(3) 0.6542(5) 0.62452(13)
H7 H 0.0721 0.7527 0.5990
C7 C -0.0502(3) 0.7153(5) 0.65153(14)
H8 H -0.0857 0.8546 0.6447
C8 C -0.0920(3) 0.5728(6) 0.68831(13)
H9 H -0.1568 0.6130 0.7068
C9 C -0.0395(3) 0.3717(6) 0.69818(14)
H10 H -0.0683 0.2735 0.7236
C10 C 0.0554(2) 0.3113(5) 0.67116(13)
H11 H 0.0910 0.1724 0.6784
C11 C 0.3296(2) 0.5113(5) 0.68317(13)
C12 C 0.3025(3) 0.6910(6) 0.71389(16)
H12 H 0.2740 0.8223 0.6969
C13 C 0.3170(3) 0.6795(6) 0.76923(18)
H13 H 0.2994 0.8043 0.7901
C14 C 0.3567(3) 0.4890(7) 0.79469(15)
H14 H 0.3647 0.4818 0.8328
C15 C 0.3849(3) 0.3086(6) 0.76438(13)
H15 H 0.4135 0.1777 0.7815
C16 C 0.3711(2) 0.3203(5) 0.70900(13)
H16 H 0.3902 0.1963 0.6882
C17 C 0.4193(3) 0.4206(5) 0.59885(13)
C18 C 0.5165(3) 0.5551(6) 0.60146(13)
H17 H 0.5119 0.7011 0.6150
C19 C 0.6200(3) 0.4787(7) 0.58452(15)
H18 H 0.6856 0.5713 0.5863
C20 C 0.6254(3) 0.2650(7) 0.56501(15)
C21 C 0.5317(3) 0.1311(6) 0.56205(15)
H19 H 0.5365 -0.0145 0.5483
C22 C 0.4292(3) 0.2086(6) 0.57924(15)
H20 H 0.3644 0.1139 0.5775
O1 O 0.2971(2) 0.7394(4) 0.60501(11)
H21 H 0.2863 0.7449 0.5714
Cl1 Cl 0.75414(8) 0.1603(2) 0.54512(5)
loop_
_geom_bond_atom_site_label_1
_geom_bond_atom_site_label_2
_geom_bond_site_symmetry_1
_geom_bond_site_symmetry_2
C1 C2 1_555 1_555
C2 H1 1_555 1_555
C3 C2 1_555 1_555
H2 C3 1_555 1_555
H3 C3 1_555 1_555
C4 C3 1_555 1_555
H4 C4 1_555 1_555
H5 C4 1_555 1_555
H6 C4 1_555 1_555
C5 C2 1_555 1_555
C6 C5 1_555 1_555
H7 C6 1_555 1_555
C7 C6 1_555 1_555
H8 C7 1_555 1_555
C8 C7 1_555 1_555
H9 C8 1_555 1_555
C9 C8 1_555 1_555
H10 C9 1_555 1_555
C10 C5 1_555 1_555
H11 C10 1_555 1_555
C11 C1 1_555 1_555
C12 C11 1_555 1_555
H12 C12 1_555 1_555
C13 C12 1_555 1_555
H13 C13 1_555 1_555
C14 C13 1_555 1_555
H14 C14 1_555 1_555
C15 C14 1_555 1_555
H15 C15 1_555 1_555
C16 C11 1_555 1_555
H16 C16 1_555 1_555
C17 C1 1_555 1_555
C18 C17 1_555 1_555
H17 C18 1_555 1_555
C19 C18 1_555 1_555
H18 C19 1_555 1_555
C20 C19 1_555 1_555
C21 C20 1_555 1_555
H19 C21 1_555 1_555
C22 C17 1_555 1_555
H20 C22 1_555 1_555
O1 C1 1_555 1_555
H21 O1 1_555 1_555
Cl1 C20 1_555 1_555
C9 C10 1_555 1_555
C15 C16 1_555 1_555
C21 C22 1_555 1_555

#END
