
#######################################################################
#
#                 Cambridge Crystallographic Data Centre
#                                CCDC 
#
#######################################################################
#
# If this CIF has been generated from an entry in the Cambridge 
# Structural Database, then it will include bibliographic, chemical, 
# crystal, experimental, refinement or atomic coordinate data resulting 
# from the CCDC's data processing and validation procedures.
#
#######################################################################

data_XEPZAU
_chemical_formula_moiety         
'C14 H27 N3 O4,0.25(C2 H1 F3 O2),0.13(C2 H6 O1)'
_chemical_name_systematic        
'Valyl-isoleucyl-alanine trifluoroacetic acid ethanol solvate'
_symmetry_cell_setting           triclinic
_symmetry_space_group_name_H-M   'P 1'
_symmetry_Int_Tables_number      1
_space_group_name_Hall           'P 1'
loop_
_symmetry_equiv_pos_site_id
_symmetry_equiv_pos_as_xyz
1 x,y,z
_cell_length_a                   9.6224(5)
_cell_length_b                   14.0220(8)
_cell_length_c                   16.2566(9)
_cell_angle_alpha                101.369(5)
_cell_angle_beta                 105.131(5)
_cell_angle_gamma                90.220(4)
_cell_volume                     2072.29
_exptl_crystal_colour            white
_exptl_crystal_description       block
_cell_formula_units_Z            4
_exptl_crystal_recrystallization_method water/ethanol
loop_
_atom_site_label
_atom_site_type_symbol
_atom_site_fract_x
_atom_site_fract_y
_atom_site_fract_z
O1 O 0.5970(6) 0.5169(6) 0.2540(6)
O2 O 0.3788(7) 0.5511(6) 0.1987(5)
C1 C 0.4699(9) 0.5146(6) 0.2515(6)
C2 C 0.4199(8) 0.4640(6) 0.3168(6)
H1 H 0.3143 0.4572 0.2990
C3 C 0.4650(16) 0.5243(9) 0.4046(9)
H2 H 0.5631 0.5486 0.4164
H3 H 0.4575 0.4858 0.4461
H4 H 0.4039 0.5780 0.4088
N1 N 0.4740(6) 0.3663(4) 0.3106(4)
H5 H 0.5611 0.3585 0.3072
C4 C 0.3932(7) 0.2897(5) 0.3101(4)
O3 O 0.2674(5) 0.2923(4) 0.3118(3)
C5 C 0.4679(7) 0.1919(5) 0.3034(4)
H6 H 0.5719 0.2070 0.3164
C6 C 0.4198(9) 0.1271(7) 0.2134(5)
H7 H 0.4837 0.0728 0.2132
C7 C 0.2683(10) 0.0831(7) 0.1902(5)
H8 H 0.2506 0.0356 0.1367
H9 H 0.2014 0.1334 0.1832
H10 H 0.2563 0.0522 0.2358
C8 C 0.4422(10) 0.1822(7) 0.1429(5)
H11 H 0.3729 0.2322 0.1374
H12 H 0.5377 0.2147 0.1631
C9 C 0.4269(12) 0.1201(8) 0.0549(6)
H13 H 0.3350 0.0843 0.0355
H14 H 0.5024 0.0753 0.0579
H15 H 0.4334 0.1606 0.0147
N2 N 0.4423(5) 0.1492(4) 0.3736(4)
H16 H 0.3558 0.1443 0.3784
C10 C 0.5503(6) 0.1172(5) 0.4310(4)
O4 O 0.6727(5) 0.1079(4) 0.4230(3)
C11 C 0.5182(7) 0.1005(6) 0.5130(4)
H17 H 0.4137 0.0898 0.5018
N3 N 0.5879(6) 0.0098(5) 0.5332(4)
H18 H 0.5391 -0.0418 0.4955
H19 H 0.5877 0.0050 0.5870
H20 H 0.6783 0.0121 0.5294
C12 C 0.5686(17) 0.1883(8) 0.5858(6)
H21 H 0.6713 0.1940 0.5883
C13 C 0.520(2) 0.2852(9) 0.5633(9)
H22 H 0.4166 0.2851 0.5500
H23 H 0.5508 0.2945 0.5137
H24 H 0.5614 0.3371 0.6120
C14 C 0.5767(18) 0.1820(11) 0.6753(9)
H25 H 0.6357 0.1298 0.6907
H26 H 0.4815 0.1698 0.6806
H27 H 0.6182 0.2423 0.7136
C15 C 1.0225(8) 0.0163(7) 0.5978(6)
O5 O 1.1084(5) -0.0293(5) 0.6453(4)
O6 O 0.8905(5) 0.0101(5) 0.5878(4)
C16 C 1.0880(8) 0.0931(6) 0.5606(5)
H28 H 1.1778 0.0697 0.5483
C17 C 1.1234(11) 0.1886(8) 0.6290(6)
H29 H 1.0398 0.2066 0.6489
H30 H 1.1517 0.2392 0.6035
H31 H 1.2009 0.1798 0.6773
N4 N 0.9912(6) 0.1086(5) 0.4809(4)
H32 H 0.8996 0.1053 0.4745
C18 C 1.0427(7) 0.1281(5) 0.4170(5)
C19 C 0.9339(7) 0.1447(5) 0.3354(5)
H33 H 0.8395 0.1523 0.3474
O7 O 1.1718(5) 0.1331(4) 0.4228(4)
N5 N 0.9803(6) 0.2354(4) 0.3182(4)
H34 H 1.0658 0.2410 0.3120
C20 C 0.8968(7) 0.3110(6) 0.3115(4)
O8 O 0.7686(5) 0.3080(4) 0.3111(3)
C21 C 0.9687(8) 0.4060(6) 0.3088(5)
H35 H 1.0564 0.3922 0.2897
N6 N 0.8673(7) 0.4513(6) 0.2440(5)
H36 H 0.8407 0.4090 0.1933
H37 H 0.9104 0.5043 0.2372
H38 H 0.7898 0.4677 0.2626
C22 C 0.9220(9) 0.0570(6) 0.2610(6)
H39 H 1.0182 0.0477 0.2518
C23 C 0.8741(12) -0.0348(8) 0.2854(7)
H40 H 0.7782 -0.0287 0.2923
H41 H 0.9388 -0.0434 0.3390
H42 H 0.8749 -0.0902 0.2402
C24 C 0.8206(10) 0.0758(8) 0.1758(6)
H43 H 0.8458 0.1398 0.1679
H44 H 0.7223 0.0758 0.1806
C25 C 0.8286(12) -0.0004(9) 0.0957(7)
H45 H 0.7715 -0.0581 0.0922
H46 H 0.9270 -0.0162 0.1006
H47 H 0.7923 0.0253 0.0442
C26 C 1.0091(11) 0.4773(7) 0.3982(6)
H48 H 0.9199 0.4887 0.4161
C27 C 1.1092(12) 0.4271(9) 0.4658(7)
H49 H 1.1434 0.4731 0.5199
H50 H 1.1898 0.4037 0.4448
H51 H 1.0567 0.3734 0.4746
C28 C 1.058(4) 0.566(2) 0.386(2)
H52 H 1.0838 0.5561 0.3316
H53 H 1.1403 0.5928 0.4326
H54 H 0.9823 0.6112 0.3840
C29 C 1.1077(8) -0.3253(8) 0.1187(6)
H55 H 1.2046 -0.3454 0.1173
C30 C 1.1194(13) -0.2169(8) 0.1620(7)
H56 H 1.0258 -0.1963 0.1657
H57 H 1.1560 -0.1795 0.1279
H58 H 1.1837 -0.2072 0.2195
N7 N 1.0153(7) -0.3445(5) 0.0286(5)
H59 H 0.9237 -0.3533 0.0199
C31 C 1.0498(9) -0.3862(8) 0.1723(6)
O9 O 1.1319(7) -0.4444(7) 0.2105(5)
O10 O 0.9247(6) -0.3805(6) 0.1752(4)
C32 C 1.0688(8) -0.3487(6) -0.0401(6)
O11 O 1.1996(5) -0.3419(5) -0.0321(4)
C33 C 0.9654(8) -0.3626(6) -0.1283(6)
H60 H 0.8670 -0.3595 -0.1218
C34 C 0.9809(9) -0.4654(7) -0.1848(7)
H61 H 1.0792 -0.4669 -0.1917
C35 C 0.8783(12) -0.4779(8) -0.2738(7)
H62 H 0.8843 -0.4192 -0.2962
H63 H 0.7806 -0.4868 -0.2696
C36 C 0.9123(15) -0.5684(11) -0.3398(9)
H64 H 0.8748 -0.6274 -0.3299
H65 H 1.0148 -0.5707 -0.3310
H66 H 0.8681 -0.5619 -0.3985
C37 C 0.9608(16) -0.5460(9) -0.1374(9)
H67 H 0.9543 -0.6083 -0.1759
H68 H 0.8739 -0.5376 -0.1189
H69 H 1.0416 -0.5429 -0.0874
N8 N 0.9945(6) -0.2815(5) -0.1673(4)
H70 H 1.0809 -0.2708 -0.1703
C38 C 0.8965(7) -0.2257(6) -0.1972(4)
O12 O 0.7668(5) -0.2350(5) -0.2038(4)
C39 C 0.9509(7) -0.1343(6) -0.2239(5)
H71 H 1.0493 -0.1427 -0.2294
N9 N 0.8536(7) -0.1279(6) -0.3089(5)
H72 H 0.7698 -0.1065 -0.3016
H73 H 0.8388 -0.1866 -0.3438
H74 H 0.8935 -0.0868 -0.3327
C40 C 0.9488(13) -0.0433(8) -0.1558(7)
H75 H 0.8511 -0.0384 -0.1482
C41 C 0.9911(18) 0.0490(9) -0.1798(10)
H76 H 1.0113 0.1010 -0.1294
H77 H 0.9134 0.0654 -0.2244
H78 H 1.0754 0.0395 -0.2008
C42 C 1.0586(17) -0.0547(11) -0.0643(8)
H79 H 1.1495 -0.0746 -0.0739
H80 H 1.0186 -0.1030 -0.0412
H81 H 1.0728 0.0066 -0.0237
C43 C 1.4033(8) -0.0930(7) -0.2380(6)
H82 H 1.2988 -0.1075 -0.2583
C44 C 1.4047(9) -0.4318(8) -0.2410(6)
H83 H 1.3014 -0.4349 -0.2447
C45 C 1.4217(13) -0.4236(9) -0.3309(6)
H84 H 1.3928 -0.4849 -0.3708
H85 H 1.5207 -0.4066 -0.3260
H86 H 1.3622 -0.3741 -0.3521
C46 C 1.4685(11) -0.5232(7) -0.2110(6)
H87 H 1.4963 -0.5108 -0.1479
H88 H 1.5548 -0.5368 -0.2305
C47 C 1.3606(15) -0.6145(10) -0.2466(12)
H89 H 1.3594 -0.6413 -0.3059
H90 H 1.2657 -0.5958 -0.2440
H91 H 1.3902 -0.6625 -0.2118
N10 N 1.4606(6) -0.3435(4) -0.0891(4)
H92 H 1.3761 -0.3449 -0.0807
C48 C 1.5744(7) -0.3453(5) -0.0231(5)
C49 C 1.5426(7) -0.3414(6) 0.0668(5)
H93 H 1.4400 -0.3579 0.0578
N11 N 1.6291(7) -0.4162(6) 0.1055(5)
H94 H 1.7216 -0.3953 0.1238
H95 H 1.6187 -0.4712 0.0657
H96 H 1.5991 -0.4271 0.1504
C50 C 1.5821(10) -0.2395(7) 0.1237(6)
H97 H 1.6846 -0.2242 0.1310
C51 C 1.5596(13) -0.2356(9) 0.2141(7)
H98 H 1.4615 -0.2561 0.2082
H99 H 1.5796 -0.1701 0.2474
H100 H 1.6234 -0.2782 0.2433
C52 C 1.4976(12) -0.1661(7) 0.0791(8)
H101 H 1.5252 -0.1020 0.1143
H102 H 1.3965 -0.1800 0.0707
H103 H 1.5168 -0.1693 0.0236
O13 O 1.6996(5) -0.3476(5) -0.0261(4)
C53 C 1.4340(14) -0.0116(8) -0.1579(8)
H104 H 1.5318 0.0141 -0.1447
H105 H 1.4204 -0.0366 -0.1094
H106 H 1.3694 0.0393 -0.1686
N12 N 1.4700(5) -0.1797(5) -0.2189(4)
H107 H 1.5578 -0.1880 -0.2204
C54 C 1.3954(6) -0.2480(6) -0.1986(4)
O14 O 1.2690(5) -0.2401(5) -0.1968(4)
C55 C 1.4736(8) -0.3391(6) -0.1755(5)
H108 H 1.5756 -0.3314 -0.1739
C56 C 1.4512(7) -0.0574(6) -0.3091(5)
O15 O 1.5783(6) -0.0638(5) -0.3134(4)
O16 O 1.3611(6) -0.0146(5) -0.3607(4)
C57 C 0.7148(15) 0.3375(10) 0.0225(8)
O17 O 0.6319(14) 0.4085(9) 0.0047(8)
H109 H 0.5587 0.3865 -0.0335
O18 O 0.7930(15) 0.3276(9) 0.0872(7)
C58 C 0.707(2) 0.2531(13) -0.0569(9)
F1 F 0.770(3) 0.2756(10) -0.1078(11)
F2 F 0.7362(18) 0.1724(8) -0.0377(8)
F3 F 0.5571(18) 0.2296(9) -0.1045(7)
O19 O 0.141(3) -0.2254(17) 0.3686(15)
H110 H 0.0821 -0.2680 0.3682
C59 C 0.137(4) -0.134(2) 0.442(2)
H111 H 0.0471 -0.1017 0.4291
H112 H 0.1560 -0.1496 0.4991
C60 C 0.247(2) -0.0832(14) 0.4320(13)
H113 H 0.3356 -0.0993 0.4686
H114 H 0.2345 -0.0147 0.4481
H115 H 0.2499 -0.0989 0.3723
loop_
_geom_bond_atom_site_label_1
_geom_bond_atom_site_label_2
_geom_bond_site_symmetry_1
_geom_bond_site_symmetry_2
O1 C1 1_555 1_555
O2 C1 1_555 1_555
C1 C2 1_555 1_555
C2 H1 1_555 1_555
C3 C2 1_555 1_555
H2 C3 1_555 1_555
H3 C3 1_555 1_555
H4 C3 1_555 1_555
N1 C2 1_555 1_555
H5 N1 1_555 1_555
C4 N1 1_555 1_555
O3 C4 1_555 1_555
C5 C4 1_555 1_555
H6 C5 1_555 1_555
C6 C5 1_555 1_555
H7 C6 1_555 1_555
C7 C6 1_555 1_555
H8 C7 1_555 1_555
H9 C7 1_555 1_555
H10 C7 1_555 1_555
C8 C6 1_555 1_555
H11 C8 1_555 1_555
H12 C8 1_555 1_555
C9 C8 1_555 1_555
H13 C9 1_555 1_555
H14 C9 1_555 1_555
H15 C9 1_555 1_555
N2 C5 1_555 1_555
H16 N2 1_555 1_555
C10 N2 1_555 1_555
O4 C10 1_555 1_555
C11 C10 1_555 1_555
H17 C11 1_555 1_555
N3 C11 1_555 1_555
H18 N3 1_555 1_555
H19 N3 1_555 1_555
H20 N3 1_555 1_555
C12 C11 1_555 1_555
H21 C12 1_555 1_555
C13 C12 1_555 1_555
H22 C13 1_555 1_555
H23 C13 1_555 1_555
H24 C13 1_555 1_555
C14 C12 1_555 1_555
H25 C14 1_555 1_555
H26 C14 1_555 1_555
H27 C14 1_555 1_555
C15 O5 1_555 1_555
O6 C15 1_555 1_555
C16 C15 1_555 1_555
H28 C16 1_555 1_555
C17 C16 1_555 1_555
H29 C17 1_555 1_555
H30 C17 1_555 1_555
H31 C17 1_555 1_555
N4 C16 1_555 1_555
H32 N4 1_555 1_555
C18 N4 1_555 1_555
C19 C18 1_555 1_555
H33 C19 1_555 1_555
O7 C18 1_555 1_555
N5 C19 1_555 1_555
H34 N5 1_555 1_555
C20 N5 1_555 1_555
O8 C20 1_555 1_555
C21 C20 1_555 1_555
H35 C21 1_555 1_555
N6 C21 1_555 1_555
H36 N6 1_555 1_555
H37 N6 1_555 1_555
H38 N6 1_555 1_555
C22 C19 1_555 1_555
H39 C22 1_555 1_555
C23 C22 1_555 1_555
H40 C23 1_555 1_555
H41 C23 1_555 1_555
H42 C23 1_555 1_555
C24 C22 1_555 1_555
H43 C24 1_555 1_555
H44 C24 1_555 1_555
C25 C24 1_555 1_555
H45 C25 1_555 1_555
H46 C25 1_555 1_555
H47 C25 1_555 1_555
C26 C21 1_555 1_555
H48 C26 1_555 1_555
C27 C26 1_555 1_555
H49 C27 1_555 1_555
H50 C27 1_555 1_555
H51 C27 1_555 1_555
C28 C26 1_555 1_555
H52 C28 1_555 1_555
H53 C28 1_555 1_555
H54 C28 1_555 1_555
C29 H55 1_555 1_555
C30 C29 1_555 1_555
H56 C30 1_555 1_555
H57 C30 1_555 1_555
H58 C30 1_555 1_555
N7 C29 1_555 1_555
H59 N7 1_555 1_555
C31 C29 1_555 1_555
O9 C31 1_555 1_555
O10 C31 1_555 1_555
C32 N7 1_555 1_555
O11 C32 1_555 1_555
C33 C32 1_555 1_555
H60 C33 1_555 1_555
C34 C33 1_555 1_555
H61 C34 1_555 1_555
C35 C34 1_555 1_555
H62 C35 1_555 1_555
H63 C35 1_555 1_555
C36 C35 1_555 1_555
H64 C36 1_555 1_555
H65 C36 1_555 1_555
H66 C36 1_555 1_555
C37 C34 1_555 1_555
H67 C37 1_555 1_555
H68 C37 1_555 1_555
H69 C37 1_555 1_555
N8 C33 1_555 1_555
H70 N8 1_555 1_555
C38 N8 1_555 1_555
O12 C38 1_555 1_555
C39 C38 1_555 1_555
H71 C39 1_555 1_555
N9 C39 1_555 1_555
H72 N9 1_555 1_555
H73 N9 1_555 1_555
H74 N9 1_555 1_555
C40 C39 1_555 1_555
H75 C40 1_555 1_555
C41 C40 1_555 1_555
H76 C41 1_555 1_555
H77 C41 1_555 1_555
H78 C41 1_555 1_555
C42 C40 1_555 1_555
H79 C42 1_555 1_555
H80 C42 1_555 1_555
H81 C42 1_555 1_555
C43 H82 1_555 1_555
C44 H83 1_555 1_555
C45 C44 1_555 1_555
H84 C45 1_555 1_555
H85 C45 1_555 1_555
H86 C45 1_555 1_555
C46 C44 1_555 1_555
H87 C46 1_555 1_555
H88 C46 1_555 1_555
C47 C46 1_555 1_555
H89 C47 1_555 1_555
H90 C47 1_555 1_555
H91 C47 1_555 1_555
N10 H92 1_555 1_555
C48 N10 1_555 1_555
C49 C48 1_555 1_555
H93 C49 1_555 1_555
N11 C49 1_555 1_555
H94 N11 1_555 1_555
H95 N11 1_555 1_555
H96 N11 1_555 1_555
C50 C49 1_555 1_555
H97 C50 1_555 1_555
C51 C50 1_555 1_555
H98 C51 1_555 1_555
H99 C51 1_555 1_555
H100 C51 1_555 1_555
C52 C50 1_555 1_555
H101 C52 1_555 1_555
H102 C52 1_555 1_555
H103 C52 1_555 1_555
O13 C48 1_555 1_555
C53 C43 1_555 1_555
H104 C53 1_555 1_555
H105 C53 1_555 1_555
H106 C53 1_555 1_555
N12 C43 1_555 1_555
H107 N12 1_555 1_555
C54 N12 1_555 1_555
O14 C54 1_555 1_555
C55 C44 1_555 1_555
H108 C55 1_555 1_555
C56 C43 1_555 1_555
O15 C56 1_555 1_555
O16 C56 1_555 1_555
C57 O17 1_555 1_555
O17 H109 1_555 1_555
O18 C57 1_555 1_555
C58 C57 1_555 1_555
F1 C58 1_555 1_555
F2 C58 1_555 1_555
F3 C58 1_555 1_555
O19 H110 1_555 1_555
C59 O19 1_555 1_555
H111 C59 1_555 1_555
H112 C59 1_555 1_555
C60 C59 1_555 1_555
H113 C60 1_555 1_555
H114 C60 1_555 1_555
H115 C60 1_555 1_555
N10 C55 1_555 1_555
C54 C55 1_555 1_555

#END
