
#######################################################################
#
#                 Cambridge Crystallographic Data Centre
#                                CCDC 
#
#######################################################################
#
# If this CIF has been generated from an entry in the Cambridge 
# Structural Database, then it will include bibliographic, chemical, 
# crystal, experimental, refinement or atomic coordinate data resulting 
# from the CCDC's data processing and validation procedures.
#
#######################################################################

data_XEQBUT
_chemical_name_common            gene601
_chemical_formula_moiety         'C22 H21 F1 O1'
_chemical_name_systematic        1-(4-fluorophenyl)-1,2-diphenylbutan-1-ol
_symmetry_cell_setting           monoclinic
_symmetry_space_group_name_H-M   'P 21'
_symmetry_Int_Tables_number      4
_space_group_name_Hall           'P 2yb'
loop_
_symmetry_equiv_pos_site_id
_symmetry_equiv_pos_as_xyz
1 x,y,z
2 -x,1/2+y,-z
_cell_length_a                   11.7538(5)
_cell_length_b                   5.9738(2)
_cell_length_c                   12.1137(5)
_cell_angle_alpha                90
_cell_angle_beta                 93.451(2)
_cell_angle_gamma                90
_cell_volume                     849.019
_exptl_crystal_colour            colorless
_exptl_crystal_description       rod
_cell_formula_units_Z            2
loop_
_atom_site_label
_atom_site_type_symbol
_atom_site_fract_x
_atom_site_fract_y
_atom_site_fract_z
C1 C 0.6887(3) 0.5569(6) 0.7620(3)
C2 C 0.7945(3) 0.4096(6) 0.7970(3)
H1 H 0.7747 0.2518 0.7760
C3 C 0.8249(3) 0.4113(7) 0.9221(3)
H2 H 0.8573 0.5591 0.9437
H3 H 0.7546 0.3897 0.9620
C4 C 0.9102(4) 0.2294(7) 0.9566(3)
H4 H 0.8779 0.0825 0.9366
H5 H 0.9270 0.2361 1.0368
H6 H 0.9806 0.2521 0.9187
C5 C 0.8981(3) 0.4748(7) 0.7338(3)
C6 C 0.9527(3) 0.6801(7) 0.7509(3)
H7 H 0.9240 0.7842 0.8016
C7 C 1.0489(3) 0.7346(7) 0.6946(3)
H8 H 1.0851 0.8752 0.7071
C8 C 1.0917(3) 0.5851(8) 0.6205(4)
H9 H 1.1568 0.6231 0.5817
C9 C 1.0389(3) 0.3789(7) 0.6033(3)
H10 H 1.0686 0.2743 0.5534
C10 C 0.9426(3) 0.3262(7) 0.6592(3)
H11 H 0.9064 0.1858 0.6462
C11 C 0.6703(3) 0.5555(7) 0.6360(3)
C12 C 0.6967(3) 0.7380(7) 0.5717(3)
H12 H 0.7256 0.8712 0.6058
C13 C 0.6810(3) 0.7257(7) 0.4573(3)
H13 H 0.6996 0.8507 0.4134
C14 C 0.6383(3) 0.5324(7) 0.4066(3)
H14 H 0.6275 0.5253 0.3283
C15 C 0.6115(3) 0.3497(7) 0.4705(3)
H15 H 0.5827 0.2165 0.4363
C16 C 0.6268(3) 0.3626(7) 0.5847(3)
H16 H 0.6074 0.2380 0.6286
C17 C 0.5772(3) 0.4822(6) 0.8120(3)
C18 C 0.5601(3) 0.2738(7) 0.8585(3)
H17 H 0.6199 0.1666 0.8612
C19 C 0.4568(3) 0.2201(7) 0.9010(3)
H18 H 0.4458 0.0782 0.9341
C20 C 0.3710(3) 0.3750(7) 0.8947(3)
C21 C 0.3823(3) 0.5816(7) 0.8469(3)
H19 H 0.3209 0.6851 0.8420
C22 C 0.4869(3) 0.6335(7) 0.8059(3)
H20 H 0.4971 0.7758 0.7729
O1 O 0.7095(2) 0.7864(4) 0.7956(2)
H21 H 0.7193 0.7926 0.8648
F1 F 0.26987(19) 0.3245(4) 0.93935(19)
loop_
_geom_bond_atom_site_label_1
_geom_bond_atom_site_label_2
_geom_bond_site_symmetry_1
_geom_bond_site_symmetry_2
C1 C2 1_555 1_555
C2 H1 1_555 1_555
C3 C2 1_555 1_555
H2 C3 1_555 1_555
H3 C3 1_555 1_555
C4 C3 1_555 1_555
H4 C4 1_555 1_555
H5 C4 1_555 1_555
H6 C4 1_555 1_555
C5 C2 1_555 1_555
C6 C5 1_555 1_555
H7 C6 1_555 1_555
C7 C6 1_555 1_555
H8 C7 1_555 1_555
C8 C7 1_555 1_555
H9 C8 1_555 1_555
C9 C8 1_555 1_555
H10 C9 1_555 1_555
C10 C5 1_555 1_555
H11 C10 1_555 1_555
C11 C1 1_555 1_555
C12 C11 1_555 1_555
H12 C12 1_555 1_555
C13 C12 1_555 1_555
H13 C13 1_555 1_555
C14 C13 1_555 1_555
H14 C14 1_555 1_555
C15 C14 1_555 1_555
H15 C15 1_555 1_555
C16 C11 1_555 1_555
H16 C16 1_555 1_555
C17 C1 1_555 1_555
C18 C17 1_555 1_555
H17 C18 1_555 1_555
C19 C18 1_555 1_555
H18 C19 1_555 1_555
C20 C19 1_555 1_555
C21 C20 1_555 1_555
H19 C21 1_555 1_555
C22 C17 1_555 1_555
H20 C22 1_555 1_555
O1 C1 1_555 1_555
H21 O1 1_555 1_555
F1 C20 1_555 1_555
C9 C10 1_555 1_555
C15 C16 1_555 1_555
C21 C22 1_555 1_555

#END
