
#######################################################################
#
#                 Cambridge Crystallographic Data Centre
#                                CCDC 
#
#######################################################################
#
# If this CIF has been generated from an entry in the Cambridge 
# Structural Database, then it will include bibliographic, chemical, 
# crystal, experimental, refinement or atomic coordinate data resulting 
# from the CCDC's data processing and validation procedures.
#
#######################################################################

data_XEQBIH
_chemical_name_common            gene578
_chemical_formula_moiety         'C23 H24 O1'
_chemical_name_systematic        1-(4-methylphenyl)-1,2-diphenylbutan-1-ol
_symmetry_cell_setting           monoclinic
_symmetry_space_group_name_H-M   'P 21'
_symmetry_Int_Tables_number      4
_space_group_name_Hall           'P 2yb'
loop_
_symmetry_equiv_pos_site_id
_symmetry_equiv_pos_as_xyz
1 x,y,z
2 -x,1/2+y,-z
_cell_length_a                   5.9827(2)
_cell_length_b                   25.0699(7)
_cell_length_c                   11.6168(3)
_cell_angle_alpha                90
_cell_angle_beta                 90.887(2)
_cell_angle_gamma                90
_cell_volume                     1742.14
_exptl_crystal_colour            colorless
_exptl_crystal_description       rod
_cell_formula_units_Z            4
loop_
_atom_site_label
_atom_site_type_symbol
_atom_site_fract_x
_atom_site_fract_y
_atom_site_fract_z
C1 C 0.2654(4) 0.36324(10) 0.0364(2)
C2 C 0.4216(4) 0.34775(10) 0.1401(2)
H1 H 0.5755 0.3603 0.1215
C3 C 0.4342(4) 0.28712(10) 0.1581(2)
H2 H 0.2923 0.2745 0.1913
H3 H 0.4518 0.2695 0.0825
C4 C 0.6276(4) 0.27101(10) 0.2374(2)
H4 H 0.7695 0.2790 0.2000
H5 H 0.6190 0.2327 0.2534
H6 H 0.6189 0.2909 0.3097
C5 C 0.2383(4) 0.42349(10) 0.03189(19)
C6 C 0.4153(4) 0.45498(10) -0.0057(2)
H7 H 0.5494 0.4384 -0.0299
C7 C 0.3982(4) 0.50999(11) -0.0084(2)
H8 H 0.5205 0.5308 -0.0339
C8 C 0.2038(5) 0.53490(11) 0.0259(2)
H9 H 0.1919 0.5727 0.0245
C9 C 0.0266(4) 0.50382(12) 0.0626(2)
H10 H -0.1078 0.5206 0.0858
C10 C 0.0426(4) 0.44894(11) 0.0658(2)
H11 H -0.0804 0.4283 0.0914
C11 C 0.3470(4) 0.34469(9) -0.0814(2)
C12 C 0.5591(4) 0.32545(10) -0.1052(2)
H12 H 0.6649 0.3206 -0.0442
C13 C 0.6180(4) 0.31325(10) -0.2175(2)
H13 H 0.7628 0.2994 -0.2315
C14 C 0.4703(4) 0.32085(10) -0.3099(2)
C15 C 0.2574(4) 0.33993(10) -0.2852(2)
H14 H 0.1521 0.3452 -0.3462
C16 C 0.1974(4) 0.35123(9) -0.1742(2)
H15 H 0.0506 0.3638 -0.1600
C17 C 0.5401(4) 0.31050(11) -0.4315(2)
H16 H 0.4344 0.3278 -0.4850
H17 H 0.5413 0.2720 -0.4459
H18 H 0.6903 0.3250 -0.4431
C18 C 0.3517(4) 0.37635(10) 0.2495(2)
C19 C 0.1511(4) 0.36457(11) 0.3036(2)
H19 H 0.0596 0.3365 0.2747
C20 C 0.0833(4) 0.39335(12) 0.3991(2)
H20 H -0.0551 0.3852 0.4339
C21 C 0.2155(5) 0.43373(11) 0.4438(2)
H21 H 0.1680 0.4535 0.5087
C22 C 0.4180(5) 0.44500(11) 0.3931(2)
H22 H 0.5120 0.4720 0.4245
C23 C 0.4841(4) 0.41678(11) 0.2962(2)
H23 H 0.6221 0.4253 0.2613
O1 O 0.0473(3) 0.34050(7) 0.05409(14)
H24 H 0.0552 0.3071 0.0495
C24 C 0.6906(4) 0.61988(10) 0.70447(19)
C25 C 0.8289(4) 0.64398(9) 0.60380(19)
H25 H 0.9894 0.6351 0.6198
C26 C 0.8123(4) 0.70483(10) 0.5969(2)
H26 H 0.6573 0.7149 0.5751
H27 H 0.8456 0.7202 0.6738
C27 C 0.9723(4) 0.72855(11) 0.5099(2)
H28 H 1.1256 0.7176 0.5294
H29 H 0.9619 0.7676 0.5119
H30 H 0.9325 0.7157 0.4326
C28 C 0.7257(4) 0.55944(10) 0.71007(18)
C29 C 0.5583(4) 0.52360(10) 0.6797(2)
H31 H 0.4153 0.5366 0.6567
C30 C 0.5969(4) 0.46902(10) 0.6825(2)
H32 H 0.4804 0.4450 0.6613
C31 C 0.8040(4) 0.44927(10) 0.7160(2)
H33 H 0.8307 0.4119 0.7170
C32 C 0.9722(4) 0.48468(10) 0.7481(2)
H34 H 1.1144 0.4715 0.7720
C33 C 0.9336(4) 0.53898(10) 0.7453(2)
H35 H 1.0499 0.5628 0.7677
C34 C 0.7501(4) 0.64377(9) 0.8225(2)
C35 C 0.5916(4) 0.64207(9) 0.9096(2)
H36 H 0.4466 0.6284 0.8929
C36 C 0.6416(4) 0.65987(10) 1.0195(2)
H37 H 0.5301 0.6582 1.0768
C37 C 0.8517(4) 0.68021(10) 1.0483(2)
C38 C 1.0096(4) 0.68249(10) 0.9615(2)
H38 H 1.1534 0.6969 0.9781
C39 C 0.9601(4) 0.66390(10) 0.8505(2)
H39 H 1.0720 0.6651 0.7934
C40 C 0.9064(5) 0.69859(11) 1.1691(2)
H40 H 0.8104 0.7288 1.1888
H41 H 1.0634 0.7096 1.1739
H42 H 0.8810 0.6693 1.2232
C41 C 0.7647(4) 0.61728(10) 0.49039(19)
C42 C 0.5689(4) 0.63102(11) 0.4296(2)
H43 H 0.4774 0.6590 0.4575
C43 C 0.5063(4) 0.60438(12) 0.3293(2)
H44 H 0.3707 0.6136 0.2906
C44 C 0.6407(5) 0.56455(11) 0.2856(2)
H45 H 0.5979 0.5464 0.2170
C45 C 0.8386(5) 0.55129(11) 0.3428(2)
H46 H 0.9335 0.5245 0.3125
C46 C 0.8972(4) 0.57720(10) 0.4439(2)
H47 H 1.0318 0.5674 0.4829
O2 O 0.4579(2) 0.63218(7) 0.68581(13)
H48 H 0.4197 0.6235 0.6185
loop_
_geom_bond_atom_site_label_1
_geom_bond_atom_site_label_2
_geom_bond_site_symmetry_1
_geom_bond_site_symmetry_2
C1 C2 1_555 1_555
C2 H1 1_555 1_555
C3 C2 1_555 1_555
H2 C3 1_555 1_555
H3 C3 1_555 1_555
C4 C3 1_555 1_555
H4 C4 1_555 1_555
H5 C4 1_555 1_555
H6 C4 1_555 1_555
C5 C1 1_555 1_555
C6 C5 1_555 1_555
H7 C6 1_555 1_555
C7 C6 1_555 1_555
H8 C7 1_555 1_555
C8 C7 1_555 1_555
H9 C8 1_555 1_555
C9 C8 1_555 1_555
H10 C9 1_555 1_555
C10 C5 1_555 1_555
H11 C10 1_555 1_555
C11 C1 1_555 1_555
C12 C11 1_555 1_555
H12 C12 1_555 1_555
C13 C12 1_555 1_555
H13 C13 1_555 1_555
C14 C13 1_555 1_555
C15 C14 1_555 1_555
H14 C15 1_555 1_555
C16 C11 1_555 1_555
H15 C16 1_555 1_555
C17 C14 1_555 1_555
H16 C17 1_555 1_555
H17 C17 1_555 1_555
H18 C17 1_555 1_555
C18 C2 1_555 1_555
C19 C18 1_555 1_555
H19 C19 1_555 1_555
C20 C19 1_555 1_555
H20 C20 1_555 1_555
C21 C20 1_555 1_555
H21 C21 1_555 1_555
C22 C21 1_555 1_555
H22 C22 1_555 1_555
C23 C18 1_555 1_555
H23 C23 1_555 1_555
O1 C1 1_555 1_555
H24 O1 1_555 1_555
C24 C25 1_555 1_555
C25 H25 1_555 1_555
C26 C25 1_555 1_555
H26 C26 1_555 1_555
H27 C26 1_555 1_555
C27 C26 1_555 1_555
H28 C27 1_555 1_555
H29 C27 1_555 1_555
H30 C27 1_555 1_555
C28 C24 1_555 1_555
C29 C28 1_555 1_555
H31 C29 1_555 1_555
C30 C29 1_555 1_555
H32 C30 1_555 1_555
C31 C30 1_555 1_555
H33 C31 1_555 1_555
C32 C31 1_555 1_555
H34 C32 1_555 1_555
C33 C28 1_555 1_555
H35 C33 1_555 1_555
C34 C24 1_555 1_555
C35 C34 1_555 1_555
H36 C35 1_555 1_555
C36 C35 1_555 1_555
H37 C36 1_555 1_555
C37 C36 1_555 1_555
C38 C37 1_555 1_555
H38 C38 1_555 1_555
C39 C34 1_555 1_555
H39 C39 1_555 1_555
C40 C37 1_555 1_555
H40 C40 1_555 1_555
H41 C40 1_555 1_555
H42 C40 1_555 1_555
C41 C25 1_555 1_555
C42 C41 1_555 1_555
H43 C42 1_555 1_555
C43 C42 1_555 1_555
H44 C43 1_555 1_555
C44 C43 1_555 1_555
H45 C44 1_555 1_555
C45 C44 1_555 1_555
H46 C45 1_555 1_555
C46 C41 1_555 1_555
H47 C46 1_555 1_555
O2 C24 1_555 1_555
H48 O2 1_555 1_555
C9 C10 1_555 1_555
C15 C16 1_555 1_555
C22 C23 1_555 1_555
C32 C33 1_555 1_555
C38 C39 1_555 1_555
C45 C46 1_555 1_555

#END
