
#######################################################################
#
#                 Cambridge Crystallographic Data Centre
#                                CCDC 
#
#######################################################################
#
# If this CIF has been generated from an entry in the Cambridge 
# Structural Database, then it will include bibliographic, chemical, 
# crystal, experimental, refinement or atomic coordinate data resulting 
# from the CCDC's data processing and validation procedures.
#
#######################################################################

data_XEQDAY
_chemical_formula_moiety         'C15 H13 Cl1 N2 O1 S1'
_chemical_name_systematic        1-(2-Chlorobenzoyl)-3-(p-tolyl)thiourea
_chemical_properties_biological  'insecticidal activity'
_symmetry_cell_setting           triclinic
_symmetry_space_group_name_H-M   'P -1'
_symmetry_Int_Tables_number      2
_space_group_name_Hall           '-P 1'
loop_
_symmetry_equiv_pos_site_id
_symmetry_equiv_pos_as_xyz
1 x,y,z
2 -x,-y,-z
_cell_length_a                   7.984(2)
_cell_length_b                   9.712(1)
_cell_length_c                   11.140(1)
_cell_angle_alpha                97.58(1)
_cell_angle_beta                 110.55(1)
_cell_angle_gamma                106.14(1)
_cell_volume                     751.241
_exptl_crystal_colour            'pale yellow'
_exptl_crystal_description       prism
_chemical_melting_point          '438.7 K'
_cell_formula_units_Z            2
_exptl_crystal_recrystallization_method toluene/chloroform
loop_
_atom_site_label
_atom_site_type_symbol
_atom_site_fract_x
_atom_site_fract_y
_atom_site_fract_z
Cl1 Cl 0.03777(12) 0.12636(7) 0.13960(8)
S1 S 0.28342(7) 0.65073(7) 0.04926(5)
O1 O 0.2828(2) 0.4689(2) 0.40478(14)
N1 N 0.4825(2) 0.6110(2) 0.2828(2)
N2 N 0.1575(2) 0.4950(2) 0.1961(2)
C1 C 1.2579(4) 0.8958(4) 0.3653(4)
C2 C 1.0505(2) 0.8229(2) 0.3392(2)
C3 C 0.9930(3) 0.8298(2) 0.4423(2)
C4 C 0.8050(3) 0.7639(2) 0.4212(2)
C5 C 0.6702(2) 0.6879(2) 0.2950(2)
C6 C 0.7255(3) 0.6788(2) 0.1916(2)
C7 C 0.9147(3) 0.7473(2) 0.2146(2)
C8 C 0.3161(2) 0.5848(2) 0.1825(2)
C9 C 0.1470(2) 0.4367(2) 0.2985(2)
C10 C -0.0468(2) 0.3310(2) 0.2713(2)
C11 C -0.1654(3) 0.3769(3) 0.3192(2)
C12 C -0.3444(3) 0.2792(3) 0.2943(3)
C13 C -0.4026(3) 0.1366(3) 0.2232(3)
C14 C -0.2878(4) 0.0875(3) 0.1757(2)
C15 C -0.1091(3) 0.1859(2) 0.1998(2)
loop_
_geom_bond_atom_site_label_1
_geom_bond_atom_site_label_2
_geom_bond_site_symmetry_1
_geom_bond_site_symmetry_2
Cl1 C15 1_555 1_555
S1 C8 1_555 1_555
O1 C9 1_555 1_555
N1 C5 1_555 1_555
N2 C8 1_555 1_555
C1 C2 1_555 1_555
C2 C3 1_555 1_555
C3 C4 1_555 1_555
C4 C5 1_555 1_555
C5 C6 1_555 1_555
C6 C7 1_555 1_555
C7 C2 1_555 1_555
C8 N1 1_555 1_555
C9 N2 1_555 1_555
C10 C9 1_555 1_555
C11 C10 1_555 1_555
C12 C11 1_555 1_555
C13 C12 1_555 1_555
C14 C13 1_555 1_555
C15 C10 1_555 1_555
C14 C15 1_555 1_555

#END
