
#######################################################################
#
#                 Cambridge Crystallographic Data Centre
#                                CCDC 
#
#######################################################################
#
# If this CIF has been generated from an entry in the Cambridge 
# Structural Database, then it will include bibliographic, chemical, 
# crystal, experimental, refinement or atomic coordinate data resulting 
# from the CCDC's data processing and validation procedures.
#
#######################################################################

data_XEQHIN
_chemical_formula_moiety         'C20 H28 N2 O4,0.5(H2 O1)'
_chemical_name_systematic        
'3-amino-2,10-dihydroxy-4,10a-dimethyl-8,11-bis(propan-2-yl)-1,2,6,6a,10,10a-hexahydro-2,6,10-(methanetriyl)-1-benzazocine-5,7-dione hemihydrate'
_symmetry_cell_setting           monoclinic
_symmetry_space_group_name_H-M   'I 2/a'
_symmetry_Int_Tables_number      15
_space_group_name_Hall           '-I 2ya'
loop_
_symmetry_equiv_pos_site_id
_symmetry_equiv_pos_as_xyz
1 x,y,z
2 1/2-x,y,-z
3 1/2+x,1/2+y,1/2+z
4 -x,1/2+y,1/2-z
5 -x,-y,-z
6 1/2+x,-y,z
7 1/2-x,1/2-y,1/2-z
8 x,1/2-y,1/2+z
_cell_length_a                   19.1867(3)
_cell_length_b                   13.9416(2)
_cell_length_c                   29.5414(5)
_cell_angle_alpha                90
_cell_angle_beta                 96.919(2)
_cell_angle_gamma                90
_cell_volume                     7844.58
_exptl_crystal_colour            colorless
_exptl_crystal_description       block
_cell_formula_units_Z            16
loop_
_atom_site_label
_atom_site_type_symbol
_atom_site_fract_x
_atom_site_fract_y
_atom_site_fract_z
O1 O 0.30396(9) 0.75231(11) 0.31412(6)
H1 H 0.3307 0.7101 0.3250
O2 O 0.42594(9) 0.70582(11) 0.36526(6)
H2 H 0.4617 0.6814 0.3578
O3 O 0.34036(10) 1.11810(12) 0.37578(7)
N1 N 0.39642(10) 0.85679(15) 0.30009(7)
O4 O 0.55942(10) 1.04585(13) 0.39317(8)
N2 N 0.23044(12) 0.88767(17) 0.27448(8)
H3 H 0.2281 0.8260 0.2748
H4 H 0.1901 0.9113 0.2782
C1 C 0.45802(11) 0.86599(15) 0.33423(8)
C2 C 0.27870(12) 0.91723(17) 0.30831(8)
C3 C 0.38744(11) 0.96119(15) 0.38072(8)
H5 H 0.3994 0.9751 0.4132
C4 C 0.33470(11) 0.84331(15) 0.32454(8)
C5 C 0.43804(11) 0.80474(14) 0.37463(8)
C6 C 0.36516(11) 0.85535(15) 0.37553(8)
C7 C 0.45654(11) 0.96629(15) 0.35701(8)
H6 H 0.4541 1.0178 0.3343
C8 C 0.33424(12) 1.03502(16) 0.36053(9)
C9 C 0.49233(13) 0.81760(17) 0.41548(8)
H7 H 0.4989 0.7670 0.4361
C10 C 0.53181(13) 0.89585(18) 0.42445(9)
C11 C 0.28098(12) 1.00879(17) 0.32494(9)
C12 C 0.52015(12) 0.97729(16) 0.39219(9)
C13 C 0.52501(12) 0.84369(18) 0.31441(9)
H8 H 0.5213 0.7817 0.3002
H9 H 0.5636 0.8438 0.3383
H10 H 0.5328 0.8914 0.2921
C14 C 0.31786(14) 0.81510(18) 0.40994(9)
H11 H 0.3067 0.7489 0.4005
C15 C 0.22733(16) 1.0827(2) 0.30641(13)
H12 H 0.2315 1.0941 0.2748
H13 H 0.2354 1.1414 0.3232
H14 H 0.1810 1.0594 0.3095
C16 C 0.59093(18) 0.9054(2) 0.46331(12)
H15 H 0.5931 0.9735 0.4716
C17 C 0.24786(17) 0.8668(3) 0.40955(13)
H16 H 0.2559 0.9309 0.4209
H17 H 0.2190 0.8329 0.4286
H18 H 0.2245 0.8691 0.3789
C18 C 0.3537(2) 0.8098(3) 0.45826(12)
H19 H 0.3935 0.7679 0.4594
H20 H 0.3213 0.7855 0.4779
H21 H 0.3690 0.8727 0.4682
C19 C 0.5773(4) 0.8521(5) 0.50515(18)
H22 H 0.5324 0.8705 0.5135
H23 H 0.6133 0.8672 0.5296
H24 H 0.5776 0.7844 0.4992
C20 C 0.6595(2) 0.8821(5) 0.4467(2)
H25 H 0.6627 0.8141 0.4422
H26 H 0.6973 0.9026 0.4689
H27 H 0.6626 0.9145 0.4183
H28 H 0.402(5) 0.891(6) 0.2751(19)
O5 O 0.46406(9) 0.21025(11) 0.38228(6)
H29 H 0.4277 0.1787 0.3797
O6 O 0.59564(10) 0.23727(12) 0.35664(7)
H30 H 0.5680 0.1984 0.3652
O7 O 0.32312(9) 0.52956(13) 0.31998(7)
N3 N 0.50425(11) 0.30250(15) 0.30414(7)
O8 O 0.53038(11) 0.61421(13) 0.33351(9)
N4 N 0.67195(13) 0.34723(18) 0.31550(9)
H31 H 0.7034 0.3802 0.3040
H32 H 0.6779 0.2867 0.3201
C21 C 0.51743(11) 0.36728(15) 0.37897(8)
C22 C 0.44823(12) 0.30657(14) 0.37073(8)
C23 C 0.42872(12) 0.43764(16) 0.32125(8)
H33 H 0.4340 0.4677 0.2919
C24 C 0.49152(11) 0.46508(15) 0.35895(8)
H34 H 0.4728 0.5024 0.3829
C25 C 0.34552(11) 0.41531(16) 0.37994(8)
C26 C 0.55951(12) 0.32207(16) 0.34240(8)
C27 C 0.43627(12) 0.32722(16) 0.31903(8)
C28 C 0.36103(12) 0.46706(16) 0.33855(8)
C29 C 0.61423(12) 0.38971(18) 0.32612(8)
C30 C 0.38746(12) 0.34169(15) 0.39377(8)
H35 H 0.3782 0.3094 0.4199
C31 C 0.60183(13) 0.48600(18) 0.31958(9)
C32 C 0.55601(13) 0.3621(2) 0.42774(9)
H36 H 0.5603 0.2937 0.4353
C33 C 0.54309(13) 0.52677(16) 0.33698(9)
C34 C 0.37664(15) 0.2750(2) 0.29083(9)
H37 H 0.3745 0.2946 0.2595
H38 H 0.3331 0.2903 0.3021
H39 H 0.3846 0.2071 0.2930
C35 C 0.64927(15) 0.5499(2) 0.29611(11)
H40 H 0.6973 0.5329 0.3056
H41 H 0.6416 0.6155 0.3040
H42 H 0.6392 0.5420 0.2637
C36 C 0.28608(14) 0.4501(2) 0.40499(10)
H43 H 0.2518 0.4817 0.3826
C37 C 0.51608(18) 0.4064(3) 0.46319(11)
H44 H 0.5143 0.4747 0.4591
H45 H 0.5393 0.3918 0.4930
H46 H 0.4692 0.3811 0.4601
C38 C 0.63000(18) 0.4011(3) 0.43234(12)
H47 H 0.6553 0.3719 0.4098
H48 H 0.6531 0.3868 0.4622
H49 H 0.6286 0.4693 0.4279
C39 C 0.3143(2) 0.5255(4) 0.43937(16)
H50 H 0.3446 0.4956 0.4635
H51 H 0.2759 0.5560 0.4517
H52 H 0.3402 0.5726 0.4246
C40 C 0.2486(3) 0.3696(3) 0.4258(2)
H53 H 0.2308 0.3252 0.4024
H54 H 0.2103 0.3952 0.4402
H55 H 0.2807 0.3371 0.4481
H56 H 0.510(5) 0.318(7) 0.2754(12)
O9 O 0.0604(4) 0.8871(5) 0.2631(3)
H57 H 0.069(7) 0.828(3) 0.258(5)
H58 H 0.018(3) 0.900(8) 0.251(5)
loop_
_geom_bond_atom_site_label_1
_geom_bond_atom_site_label_2
_geom_bond_site_symmetry_1
_geom_bond_site_symmetry_2
O1 H1 1_555 1_555
O2 H2 1_555 1_555
O3 C8 1_555 1_555
N1 C1 1_555 1_555
O4 C12 1_555 1_555
N2 H3 1_555 1_555
H4 N2 1_555 1_555
C1 C5 1_555 1_555
C2 N2 1_555 1_555
C3 H5 1_555 1_555
C4 O1 1_555 1_555
C5 O2 1_555 1_555
C6 C3 1_555 1_555
C7 C1 1_555 1_555
H6 C7 1_555 1_555
C8 C3 1_555 1_555
C9 C5 1_555 1_555
H7 C9 1_555 1_555
C10 C9 1_555 1_555
C11 C2 1_555 1_555
C12 C7 1_555 1_555
C13 C1 1_555 1_555
H8 C13 1_555 1_555
H9 C13 1_555 1_555
H10 C13 1_555 1_555
C14 C6 1_555 1_555
H11 C14 1_555 1_555
C15 C11 1_555 1_555
H12 C15 1_555 1_555
H13 C15 1_555 1_555
H14 C15 1_555 1_555
C16 C10 1_555 1_555
H15 C16 1_555 1_555
C17 C14 1_555 1_555
H16 C17 1_555 1_555
H17 C17 1_555 1_555
H18 C17 1_555 1_555
C18 C14 1_555 1_555
H19 C18 1_555 1_555
H20 C18 1_555 1_555
H21 C18 1_555 1_555
C19 C16 1_555 1_555
H22 C19 1_555 1_555
H23 C19 1_555 1_555
H24 C19 1_555 1_555
C20 C16 1_555 1_555
H25 C20 1_555 1_555
H26 C20 1_555 1_555
H27 C20 1_555 1_555
H28 N1 1_555 1_555
O5 H29 1_555 1_555
O6 H30 1_555 1_555
O7 C28 1_555 1_555
N3 C26 1_555 1_555
O8 C33 1_555 1_555
N4 H31 1_555 1_555
H32 N4 1_555 1_555
C21 C22 1_555 1_555
C22 O5 1_555 1_555
C23 H33 1_555 1_555
C24 C21 1_555 1_555
H34 C24 1_555 1_555
C25 C28 1_555 1_555
C26 O6 1_555 1_555
C27 N3 1_555 1_555
C28 C23 1_555 1_555
C29 N4 1_555 1_555
C30 C22 1_555 1_555
H35 C30 1_555 1_555
C31 C29 1_555 1_555
C32 C21 1_555 1_555
H36 C32 1_555 1_555
C33 C24 1_555 1_555
C34 C27 1_555 1_555
H37 C34 1_555 1_555
H38 C34 1_555 1_555
H39 C34 1_555 1_555
C35 C31 1_555 1_555
H40 C35 1_555 1_555
H41 C35 1_555 1_555
H42 C35 1_555 1_555
C36 C25 1_555 1_555
H43 C36 1_555 1_555
C37 C32 1_555 1_555
H44 C37 1_555 1_555
H45 C37 1_555 1_555
H46 C37 1_555 1_555
C38 C32 1_555 1_555
H47 C38 1_555 1_555
H48 C38 1_555 1_555
H49 C38 1_555 1_555
C39 C36 1_555 1_555
H50 C39 1_555 1_555
H51 C39 1_555 1_555
H52 C39 1_555 1_555
C40 C36 1_555 1_555
H53 C40 1_555 1_555
H54 C40 1_555 1_555
H55 C40 1_555 1_555
H56 N3 1_555 1_555
O9 H57 1_555 1_555
H58 O9 1_555 1_555
N1 C4 1_555 1_555
C2 C4 1_555 1_555
C3 C7 1_555 1_555
C4 C6 1_555 1_555
C5 C6 1_555 1_555
C8 C11 1_555 1_555
C10 C12 1_555 1_555
C21 C26 1_555 1_555
C22 C27 1_555 1_555
C23 C24 1_555 1_555
C23 C27 1_555 1_555
C25 C30 1_555 1_555
C26 C29 1_555 1_555
C31 C33 1_555 1_555

#END
