
#######################################################################
#
#                 Cambridge Crystallographic Data Centre
#                                CCDC 
#
#######################################################################
#
# If this CIF has been generated from an entry in the Cambridge 
# Structural Database, then it will include bibliographic, chemical, 
# crystal, experimental, refinement or atomic coordinate data resulting 
# from the CCDC's data processing and validation procedures.
#
#######################################################################

data_XEQJEI
_chemical_formula_moiety         'C26 H22 Br2 N2 O2,2(C2 H6 O1 S1)'
_chemical_name_systematic        
"(R*,R*)-N,N'-bis(4-Bromophenyl)-1,2-bis(2-hydroxyphenyl)ethane-1,2-diamine dimethylsulfoxide solvate"
_symmetry_cell_setting           monoclinic
_symmetry_space_group_name_H-M   'P 21/c'
_symmetry_Int_Tables_number      14
_space_group_name_Hall           '-P 2ybc'
loop_
_symmetry_equiv_pos_site_id
_symmetry_equiv_pos_as_xyz
1 x,y,z
2 -x,1/2+y,1/2-z
3 -x,-y,-z
4 x,1/2-y,1/2+z
_cell_length_a                   8.582(1)
_cell_length_b                   17.624(2)
_cell_length_c                   11.039(1)
_cell_angle_alpha                90
_cell_angle_beta                 111.06(1)
_cell_angle_gamma                90
_cell_volume                     1558.12
_exptl_crystal_colour            white
_cell_formula_units_Z            2
loop_
_atom_site_label
_atom_site_type_symbol
_atom_site_fract_x
_atom_site_fract_y
_atom_site_fract_z
Br1 Br 0.0574(1) 0.6614(1) 0.6582(1)
O1 O 0.2452(4) 0.3788(2) 0.1658(3)
N1 N -0.0196(5) 0.5764(2) 0.1075(4)
C1 C 0.0935(6) 0.5503(3) 0.3392(4)
C2 C 0.1091(6) 0.5700(3) 0.4634(5)
C3 C 0.0358(6) 0.6353(3) 0.4858(5)
C4 C -0.0555(6) 0.6812(3) 0.3840(5)
C5 C -0.0723(6) 0.6605(3) 0.2583(5)
C6 C 0.0027(5) 0.5947(3) 0.2339(4)
C7 C 0.0448(6) 0.5068(3) 0.0727(4)
C8 C 0.2329(6) 0.5090(3) 0.1102(4)
C9 C 0.3142(7) 0.5755(3) 0.0986(5)
C10 C 0.4861(8) 0.5774(3) 0.1342(5)
C11 C 0.5792(7) 0.5128(4) 0.1831(5)
C12 C 0.5016(6) 0.4464(3) 0.1951(5)
C13 C 0.3280(6) 0.4439(3) 0.1585(4)
C7B C -0.0448(6) 0.4932(3) -0.0727(4)
N1B N 0.0196(5) 0.4236(2) -0.1075(4)
C6B C -0.0027(5) 0.4053(3) -0.2339(4)
C1B C -0.0935(6) 0.4497(3) -0.3392(4)
C2B C -0.1091(6) 0.4300(3) -0.4634(5)
C3B C -0.0358(6) 0.3647(3) -0.4858(5)
Br1B Br -0.0574(1) 0.3386(1) -0.6582(1)
C4B C 0.0555(6) 0.3188(3) -0.3840(5)
C5B C 0.0723(6) 0.3395(3) -0.2583(5)
C8B C -0.2329(6) 0.4910(3) -0.1102(4)
C9B C -0.3142(7) 0.4245(3) -0.0986(5)
C10B C -0.4861(8) 0.4226(3) -0.1342(5)
C11B C -0.5792(7) 0.4872(4) -0.1831(5)
C12B C -0.5016(6) 0.5536(3) -0.1951(5)
C13B C -0.3280(6) 0.5561(3) -0.1585(4)
O1B O -0.2452(4) 0.6212(2) -0.1658(3)
S1 S 0.4166(3) 0.2904(1) 0.4811(2)
O2 O 0.4359(5) 0.2846(2) 0.3516(3)
C14 C 0.4297(9) 0.3905(4) 0.5158(6)
C15 C 0.6088(9) 0.2623(4) 0.5973(6)
S2? S 0.5488(11) 0.3128(4) 0.4754(8)
loop_
_geom_bond_atom_site_label_1
_geom_bond_atom_site_label_2
_geom_bond_site_symmetry_1
_geom_bond_site_symmetry_2
Br1 C3 1_555 1_555
O1 C13 1_555 1_555
N1 C6 1_555 1_555
C1 C2 1_555 1_555
C2 C3 1_555 1_555
C3 C4 1_555 1_555
C4 C5 1_555 1_555
C5 C6 1_555 1_555
C6 C1 1_555 1_555
C7 N1 1_555 1_555
C8 C7 1_555 1_555
C9 C8 1_555 1_555
C10 C9 1_555 1_555
C11 C10 1_555 1_555
C12 C11 1_555 1_555
C13 C8 1_555 1_555
S1 O2 1_555 1_555
C14 S1 1_555 1_555
C15 S1 1_555 1_555
C7B C7 1_555 1_555
N1B C7B 1_555 1_555
C6B N1B 1_555 1_555
C1B C6B 1_555 1_555
C2B C1B 1_555 1_555
C3B C2B 1_555 1_555
Br1B C3B 1_555 1_555
C4B C3B 1_555 1_555
C5B C6B 1_555 1_555
C8B C7B 1_555 1_555
C9B C8B 1_555 1_555
C10B C9B 1_555 1_555
C11B C10B 1_555 1_555
C12B C11B 1_555 1_555
C13B C8B 1_555 1_555
O1B C13B 1_555 1_555
C12 C13 1_555 1_555
C4B C5B 1_555 1_555
C12B C13B 1_555 1_555

#END
