
#######################################################################
#
#                 Cambridge Crystallographic Data Centre
#                                CCDC 
#
#######################################################################
#
# If this CIF has been generated from an entry in the Cambridge 
# Structural Database, then it will include bibliographic, chemical, 
# crystal, experimental, refinement or atomic coordinate data resulting 
# from the CCDC's data processing and validation procedures.
#
#######################################################################

data_XEQJIP
_chemical_formula_moiety         'C20 H20 O1 S1'
_chemical_name_systematic        1,2-diphenyl-1-(thiophen-3-yl)butan-1-ol
_symmetry_cell_setting           orthorhombic
_symmetry_space_group_name_H-M   'P 21 21 21'
_symmetry_Int_Tables_number      19
_space_group_name_Hall           'P 2ac 2ab'
loop_
_symmetry_equiv_pos_site_id
_symmetry_equiv_pos_as_xyz
1 x,y,z
2 1/2-x,-y,1/2+z
3 -x,1/2+y,1/2-z
4 1/2+x,1/2-y,-z
_cell_length_a                   5.9092(3)
_cell_length_b                   13.9608(5)
_cell_length_c                   39.1514(16)
_cell_angle_alpha                90
_cell_angle_beta                 90
_cell_angle_gamma                90
_cell_volume                     3229.88
_exptl_crystal_colour            colorless
_exptl_crystal_description       blade
_cell_formula_units_Z            8
loop_
_atom_site_label
_atom_site_type_symbol
_atom_site_fract_x
_atom_site_fract_y
_atom_site_fract_z
C1 C 0.7904(5) 0.0677(2) 0.44842(8)
C2 C 0.9224(6) 0.05865(19) 0.48245(7)
H1 H 1.084994 0.048914 0.476295
C3 C 0.9119(6) 0.1489(2) 0.50481(8)
H2 H 0.947606 0.205572 0.490614
H3 H 0.755946 0.156695 0.513637
C4 C 1.0751(7) 0.1447(2) 0.53466(7)
H4 H 1.039336 0.089190 0.548976
H5 H 1.061333 0.203423 0.548243
H6 H 1.230281 0.138961 0.526058
C5 C 0.8498(5) -0.02901(19) 0.50288(7)
C6 C 0.6476(6) -0.0308(2) 0.52137(8)
H7 H 0.552470 0.024110 0.521442
C7 C 0.5837(6) -0.1116(2) 0.53966(7)
H8 H 0.444471 -0.112165 0.551791
C8 C 0.7220(6) -0.1909(2) 0.54020(8)
H9 H 0.678746 -0.246066 0.552840
C9 C 0.9224(7) -0.1904(2) 0.52248(8)
H10 H 1.018721 -0.244811 0.523111
C10 C 0.9845(6) -0.1104(2) 0.50363(7)
H11 H 1.121812 -0.111393 0.491006
C11 C 0.8024(6) -0.0261(2) 0.42801(7)
C12 C 0.6228(6) -0.0893(2) 0.42697(8)
H12 H 0.486652 -0.074351 0.438720
C13 C 0.6396(7) -0.1748(2) 0.40885(8)
H13 H 0.514293 -0.217390 0.408075
C14 C 0.8366(7) -0.1980(2) 0.39207(8)
H14 H 0.848743 -0.256924 0.380090
C15 C 1.0160(7) -0.1351(2) 0.39274(8)
H15 H 1.151583 -0.150148 0.380866
C16 C 0.9991(6) -0.0494(2) 0.41081(7)
H16 H 1.124013 -0.006612 0.411322
C17 C 0.8746(6) 0.1493(2) 0.42604(7)
C18 C 0.7403(6) 0.1900(2) 0.39965(7)
H17 H 0.591324 0.169590 0.394158
C19 C 0.850(2) 0.2606(7) 0.3835(3)
H18 H 0.784679 0.295656 0.365179
C20 C 1.0816(6) 0.1919(2) 0.42762(9)
H19 H 1.196476 0.173313 0.443257
O1 O 0.5565(4) 0.08911(15) 0.45596(5)
H20 H 0.515046 0.057481 0.473106
S1 S 1.1134(2) 0.28225(7) 0.39856(3)
C22 C 0.5712(5) 0.5503(2) 0.26271(7)
C23 C 0.7289(6) 0.61004(19) 0.28690(7)
H22 H 0.886133 0.584763 0.284056
C24 C 0.7336(6) 0.7171(2) 0.27706(8)
H23 H 0.747970 0.722711 0.251943
H24 H 0.588252 0.746962 0.283780
C25 C 0.9261(6) 0.7714(2) 0.29381(8)
H25 H 0.911794 0.766952 0.318696
H26 H 0.920252 0.838809 0.286874
H27 H 1.070859 0.743541 0.286684
C26 C 0.6637(5) 0.59617(19) 0.32414(7)
C27 C 0.4626(6) 0.6308(2) 0.33764(8)
H28 H 0.363831 0.666946 0.323467
C28 C 0.4027(6) 0.6140(2) 0.37121(7)
H29 H 0.263725 0.638351 0.379788
C29 C 0.5430(6) 0.5623(2) 0.39227(8)
H30 H 0.500804 0.550383 0.415290
C30 C 0.7463(6) 0.5277(2) 0.37974(8)
H31 H 0.844935 0.492443 0.394192
C31 C 0.8058(6) 0.5449(2) 0.34573(7)
H32 H 0.945626 0.521181 0.337245
C32 C 0.5390(5) 0.4502(2) 0.27734(7)
C33 C 0.3406(6) 0.4244(2) 0.29405(7)
H33 H 0.217633 0.468177 0.294810
C34 C 0.3195(6) 0.3360(2) 0.30957(8)
H34 H 0.182506 0.319205 0.320771
C35 C 0.4966(7) 0.2723(2) 0.30879(8)
H35 H 0.483175 0.212032 0.319843
C36 C 0.6944(6) 0.2960(2) 0.29193(8)
H36 H 0.816192 0.251577 0.291181
C37 C 0.7153(6) 0.3845(2) 0.27610(7)
H37 H 0.851007 0.400237 0.264348
C38 C 0.6602(5) 0.54284(19) 0.22644(7)
C39 C 0.5222(6) 0.5089(2) 0.19943(7)
H38 H 0.369329 0.489846 0.202676
C40 C 0.624(4) 0.5058(14) 0.1692(3)
H39 H 0.553651 0.484924 0.148691
C41 C 0.8743(6) 0.5638(2) 0.21497(7)
H40 H 0.992479 0.586067 0.229375
O2 O 0.3508(4) 0.59445(14) 0.26131(5)
H41 H 0.360261 0.647366 0.251204
S3 S 0.9058(3) 0.54548(11) 0.17217(3)
C21? C 1.123(9) 0.246(3) 0.4005(7)
H21? H 1.269992 0.267439 0.394249
S2? S 0.865(5) 0.2773(17) 0.3764(6)
C42? C 0.901(6) 0.5504(19) 0.1831(5)
H42? H 1.041758 0.559859 0.171918
S4? S 0.652(3) 0.5124(12) 0.1611(3)
loop_
_geom_bond_atom_site_label_1
_geom_bond_atom_site_label_2
_geom_bond_site_symmetry_1
_geom_bond_site_symmetry_2
C1 C2 1_555 1_555
C2 H1 1_555 1_555
C3 C2 1_555 1_555
H2 C3 1_555 1_555
H3 C3 1_555 1_555
C4 C3 1_555 1_555
H4 C4 1_555 1_555
H5 C4 1_555 1_555
H6 C4 1_555 1_555
C5 C2 1_555 1_555
C6 C5 1_555 1_555
H7 C6 1_555 1_555
C7 C6 1_555 1_555
H8 C7 1_555 1_555
C8 C7 1_555 1_555
H9 C8 1_555 1_555
C9 C8 1_555 1_555
H10 C9 1_555 1_555
C10 C5 1_555 1_555
H11 C10 1_555 1_555
C11 C1 1_555 1_555
C12 C11 1_555 1_555
H12 C12 1_555 1_555
C13 C12 1_555 1_555
H13 C13 1_555 1_555
C14 C13 1_555 1_555
H14 C14 1_555 1_555
C15 C14 1_555 1_555
H15 C15 1_555 1_555
C16 C11 1_555 1_555
H16 C16 1_555 1_555
C17 C1 1_555 1_555
C18 C17 1_555 1_555
H17 C18 1_555 1_555
C19 C18 1_555 1_555
H18 C19 1_555 1_555
C20 C17 1_555 1_555
H19 C20 1_555 1_555
O1 C1 1_555 1_555
H20 O1 1_555 1_555
S1 C19 1_555 1_555
C22 C23 1_555 1_555
C23 H22 1_555 1_555
C24 C23 1_555 1_555
H23 C24 1_555 1_555
H24 C24 1_555 1_555
C25 C24 1_555 1_555
H25 C25 1_555 1_555
H26 C25 1_555 1_555
H27 C25 1_555 1_555
C26 C23 1_555 1_555
C27 C26 1_555 1_555
H28 C27 1_555 1_555
C28 C27 1_555 1_555
H29 C28 1_555 1_555
C29 C28 1_555 1_555
H30 C29 1_555 1_555
C30 C29 1_555 1_555
H31 C30 1_555 1_555
C31 C26 1_555 1_555
H32 C31 1_555 1_555
C32 C22 1_555 1_555
C33 C32 1_555 1_555
H33 C33 1_555 1_555
C34 C33 1_555 1_555
H34 C34 1_555 1_555
C35 C34 1_555 1_555
H35 C35 1_555 1_555
C36 C35 1_555 1_555
H36 C36 1_555 1_555
C37 C32 1_555 1_555
H37 C37 1_555 1_555
C38 C22 1_555 1_555
C39 C38 1_555 1_555
H38 C39 1_555 1_555
C40 C39 1_555 1_555
H39 C40 1_555 1_555
C41 C38 1_555 1_555
H40 C41 1_555 1_555
O2 C22 1_555 1_555
H41 O2 1_555 1_555
S3 C40 1_555 1_555
C9 C10 1_555 1_555
C15 C16 1_555 1_555
C20 S1 1_555 1_555
C30 C31 1_555 1_555
C36 C37 1_555 1_555
C41 S3 1_555 1_555

#END
