
#######################################################################
#
#                 Cambridge Crystallographic Data Centre
#                                CCDC 
#
#######################################################################
#
# If this CIF has been generated from an entry in the Cambridge 
# Structural Database, then it will include bibliographic, chemical, 
# crystal, experimental, refinement or atomic coordinate data resulting 
# from the CCDC's data processing and validation procedures.
#
#######################################################################

data_XEQJAH
_chemical_formula_moiety         'C23 H24 O2'
_chemical_name_systematic        1-(3-methoxyphenyl)-1,2-diphenylbutan-1-ol
_symmetry_cell_setting           triclinic
_symmetry_space_group_name_H-M   'P -1'
_symmetry_Int_Tables_number      2
_space_group_name_Hall           '-P 1'
loop_
_symmetry_equiv_pos_site_id
_symmetry_equiv_pos_as_xyz
1 x,y,z
2 -x,-y,-z
_cell_length_a                   6.5207(5)
_cell_length_b                   16.0428(11)
_cell_length_c                   17.9567(8)
_cell_angle_alpha                83.358(5)
_cell_angle_beta                 86.821(5)
_cell_angle_gamma                80.353(6)
_cell_volume                     1838.21
_exptl_crystal_colour            colorless
_exptl_crystal_description       needle
_cell_formula_units_Z            4
loop_
_atom_site_label
_atom_site_type_symbol
_atom_site_fract_x
_atom_site_fract_y
_atom_site_fract_z
C1 C 0.7399(4) 0.29855(17) 0.08300(14)
C2 C 0.7915(4) 0.22566(16) 0.14840(14)
H1 H 0.946341 0.208886 0.147535
C3 C 0.7257(4) 0.25428(18) 0.22658(15)
H2 H 0.774412 0.308737 0.230686
H3 H 0.571819 0.264419 0.231778
C4 C 0.8126(5) 0.1892(2) 0.29018(17)
H4 H 0.759385 0.135984 0.287919
H5 H 0.769477 0.211059 0.338365
H6 H 0.964912 0.178699 0.285255
C5 C 0.7013(4) 0.14752(17) 0.13410(15)
C6 C 0.4966(5) 0.1378(2) 0.15580(19)
H7 H 0.411318 0.179682 0.182081
C7 C 0.4169(5) 0.0670(2) 0.1391(2)
H8 H 0.277922 0.060975 0.154465
C8 C 0.5369(6) 0.0058(2) 0.1007(2)
H9 H 0.480431 -0.041755 0.088892
C9 C 0.7400(6) 0.0139(2) 0.07938(18)
H10 H 0.824192 -0.028376 0.053220
C10 C 0.8208(5) 0.08384(18) 0.09623(16)
H11 H 0.960996 0.088533 0.081620
C11 C 0.8215(4) 0.26557(16) 0.00811(14)
C12 C 0.6857(4) 0.24594(18) -0.04146(16)
H12 H 0.539991 0.256414 -0.030536
C13 C 0.7609(4) 0.21088(18) -0.10737(16)
H13 H 0.666381 0.196424 -0.140260
C14 C 0.9714(4) 0.19719(19) -0.12487(16)
H14 H 1.022316 0.173994 -0.169946
C15 C 1.1080(4) 0.21759(18) -0.07604(16)
H15 H 1.253311 0.208348 -0.087870
C16 C 1.0347(4) 0.25143(16) -0.00997(15)
H16 H 1.130067 0.265017 0.023075
C17 C 0.8336(4) 0.37840(17) 0.09282(14)
C18 C 0.7312(4) 0.45743(17) 0.06280(15)
H17 H 0.605487 0.460936 0.037460
C19 C 0.8104(4) 0.53062(17) 0.06947(15)
H18 H 0.737211 0.583950 0.049204
C20 C 0.9947(4) 0.52776(17) 0.10518(14)
H19 H 1.048980 0.578336 0.109369
C21 C 1.0985(4) 0.44890(16) 0.13478(14)
C22 C 1.0196(4) 0.37509(16) 0.12772(14)
H20 H 1.094153 0.321632 0.147063
C23 C 1.3517(4) 0.51056(19) 0.19326(17)
H21 H 1.368340 0.550635 0.148683
H22 H 1.485400 0.493629 0.217638
H23 H 1.248315 0.537852 0.228314
O1 O 0.5195(2) 0.32031(12) 0.07817(10)
H24 H 0.473148 0.353902 0.109983
O2 O 1.2835(3) 0.43703(12) 0.17160(10)
C24 C 0.2664(4) 0.29385(17) 0.53270(14)
C25 C 0.3334(4) 0.19862(17) 0.51866(15)
H25 H 0.485515 0.183659 0.528169
C26 C 0.3065(5) 0.18326(19) 0.43723(17)
H26 H 0.156120 0.192774 0.427290
H27 H 0.371404 0.225320 0.403158
C27 C 0.4021(6) 0.0944(2) 0.4195(2)
H28 H 0.550982 0.084327 0.429380
H29 H 0.383365 0.089179 0.366559
H30 H 0.333494 0.052427 0.451113
C28 C 0.2222(4) 0.14214(17) 0.57632(17)
C29 C 0.3118(5) 0.10826(19) 0.64393(17)
H31 H 0.447593 0.117961 0.653013
C30 C 0.2081(5) 0.0604(2) 0.6988(2)
H32 H 0.271613 0.038611 0.744892
C31 C 0.0112(6) 0.0451(2) 0.6853(2)
H33 H -0.062031 0.013274 0.722570
C32 C -0.0785(5) 0.0764(2) 0.6172(3)
H34 H -0.211733 0.064486 0.607325
C33 C 0.0252(5) 0.1248(2) 0.5636(2)
H35 H -0.038747 0.146475 0.517524
C34 C 0.3095(4) 0.30578(16) 0.61338(14)
C35 C 0.5137(4) 0.29363(16) 0.63729(14)
H36 H 0.626502 0.278727 0.603000
C36 C 0.5529(4) 0.30313(17) 0.71069(15)
H37 H 0.692186 0.293788 0.726634
C37 C 0.3891(4) 0.32630(17) 0.76104(15)
H38 H 0.416102 0.333651 0.811110
C38 C 0.1870(4) 0.33854(17) 0.73782(15)
H39 H 0.074577 0.354052 0.772110
C39 C 0.1471(4) 0.32822(17) 0.66425(15)
H40 H 0.007434 0.336631 0.648790
C40 C 0.3771(4) 0.35568(17) 0.47927(14)
C41 C 0.2764(4) 0.43913(17) 0.46287(15)
H41 H 0.140495 0.455911 0.483517
C42 C 0.3718(4) 0.49776(18) 0.41699(16)
H42 H 0.300106 0.554157 0.406215
C43 C 0.5707(4) 0.47540(18) 0.38647(15)
H43 H 0.635046 0.515604 0.354345
C44 C 0.6739(4) 0.39294(17) 0.40386(14)
C45 C 0.5790(4) 0.33376(17) 0.45011(14)
H44 H 0.652427 0.277846 0.461963
C46 C 0.9682(4) 0.4178(2) 0.32312(16)
H45 H 0.881322 0.430659 0.279112
H46 H 1.106753 0.389058 0.308532
H47 H 0.980655 0.470890 0.343333
O3 O 0.0462(2) 0.31608(12) 0.52456(10)
H48 H 0.019886 0.323306 0.478780
O4 O 0.8742(3) 0.36364(12) 0.37926(10)
loop_
_geom_bond_atom_site_label_1
_geom_bond_atom_site_label_2
_geom_bond_site_symmetry_1
_geom_bond_site_symmetry_2
C1 C2 1_555 1_555
C2 H1 1_555 1_555
C3 C2 1_555 1_555
H2 C3 1_555 1_555
H3 C3 1_555 1_555
C4 C3 1_555 1_555
H4 C4 1_555 1_555
H5 C4 1_555 1_555
H6 C4 1_555 1_555
C5 C2 1_555 1_555
C6 C5 1_555 1_555
H7 C6 1_555 1_555
C7 C6 1_555 1_555
H8 C7 1_555 1_555
C8 C7 1_555 1_555
H9 C8 1_555 1_555
C9 C8 1_555 1_555
H10 C9 1_555 1_555
C10 C5 1_555 1_555
H11 C10 1_555 1_555
C11 C1 1_555 1_555
C12 C11 1_555 1_555
H12 C12 1_555 1_555
C13 C12 1_555 1_555
H13 C13 1_555 1_555
C14 C13 1_555 1_555
H14 C14 1_555 1_555
C15 C14 1_555 1_555
H15 C15 1_555 1_555
C16 C11 1_555 1_555
H16 C16 1_555 1_555
C17 C1 1_555 1_555
C18 C17 1_555 1_555
H17 C18 1_555 1_555
C19 C18 1_555 1_555
H18 C19 1_555 1_555
C20 C19 1_555 1_555
H19 C20 1_555 1_555
C21 C20 1_555 1_555
C22 C17 1_555 1_555
H20 C22 1_555 1_555
C23 H21 1_555 1_555
H22 C23 1_555 1_555
H23 C23 1_555 1_555
O1 C1 1_555 1_555
H24 O1 1_555 1_555
O2 C21 1_555 1_555
C24 C25 1_555 1_555
C25 H25 1_555 1_555
C26 C25 1_555 1_555
H26 C26 1_555 1_555
H27 C26 1_555 1_555
C27 C26 1_555 1_555
H28 C27 1_555 1_555
H29 C27 1_555 1_555
H30 C27 1_555 1_555
C28 C25 1_555 1_555
C29 C28 1_555 1_555
H31 C29 1_555 1_555
C30 C29 1_555 1_555
H32 C30 1_555 1_555
C31 C30 1_555 1_555
H33 C31 1_555 1_555
C32 C31 1_555 1_555
H34 C32 1_555 1_555
C33 C28 1_555 1_555
H35 C33 1_555 1_555
C34 C24 1_555 1_555
C35 C34 1_555 1_555
H36 C35 1_555 1_555
C36 C35 1_555 1_555
H37 C36 1_555 1_555
C37 C36 1_555 1_555
H38 C37 1_555 1_555
C38 C37 1_555 1_555
H39 C38 1_555 1_555
C39 C34 1_555 1_555
H40 C39 1_555 1_555
C40 C24 1_555 1_555
C41 C40 1_555 1_555
H41 C41 1_555 1_555
C42 C41 1_555 1_555
H42 C42 1_555 1_555
C43 C42 1_555 1_555
H43 C43 1_555 1_555
C44 C43 1_555 1_555
C45 C40 1_555 1_555
H44 C45 1_555 1_555
C46 H45 1_555 1_555
H46 C46 1_555 1_555
H47 C46 1_555 1_555
O3 C24 1_555 1_555
H48 O3 1_555 1_555
O4 C44 1_555 1_555
C9 C10 1_555 1_555
C15 C16 1_555 1_555
C21 C22 1_555 1_555
C23 O2 1_555 1_555
C32 C33 1_555 1_555
C38 C39 1_555 1_555
C44 C45 1_555 1_555
C46 O4 1_555 1_555

#END
