
#######################################################################
#
#                 Cambridge Crystallographic Data Centre
#                                CCDC 
#
#######################################################################
#
# If this CIF has been generated from an entry in the Cambridge 
# Structural Database, then it will include bibliographic, chemical, 
# crystal, experimental, refinement or atomic coordinate data resulting 
# from the CCDC's data processing and validation procedures.
#
#######################################################################

data_XEQNEP
_chemical_formula_moiety         'C14 H13 N1 O1'
_chemical_name_systematic        N-benzylbenzamide
_symmetry_cell_setting           monoclinic
_symmetry_space_group_name_H-M   'P 21/n'
_symmetry_Int_Tables_number      14
_space_group_name_Hall           '-P 2yn'
loop_
_symmetry_equiv_pos_site_id
_symmetry_equiv_pos_as_xyz
1 x,y,z
2 1/2-x,1/2+y,1/2-z
3 -x,-y,-z
4 1/2+x,1/2-y,1/2+z
_cell_length_a                   7.9741(8)
_cell_length_b                   24.748(3)
_cell_length_c                   5.7767(5)
_cell_angle_alpha                90
_cell_angle_beta                 90.056(5)
_cell_angle_gamma                90
_cell_volume                     1139.99
_exptl_crystal_colour            colorless
_exptl_crystal_description       prism
_cell_formula_units_Z            4
loop_
_atom_site_label
_atom_site_type_symbol
_atom_site_fract_x
_atom_site_fract_y
_atom_site_fract_z
C1 C 0.3255(2) 0.34549(6) 0.3349(3)
H1 H 0.391412 0.327271 0.222448
C2 C 0.2761(2) 0.39830(7) 0.2968(3)
H2 H 0.308436 0.416411 0.158844
C3 C 0.1793(2) 0.42470(7) 0.4605(3)
H3 H 0.146982 0.461188 0.435725
C4 C 0.1295(2) 0.39827(7) 0.6599(3)
H4 H 0.061139 0.416355 0.769875
C5 C 0.1794(2) 0.34538(6) 0.6992(3)
H5 H 0.145689 0.327260 0.836479
C6 C 0.27898(19) 0.31889(6) 0.5372(3)
C7 C 0.3465(2) 0.26299(6) 0.5745(3)
O1 O 0.47488(17) 0.24814(5) 0.4742(3)
N1 N 0.26593(18) 0.23075(5) 0.7208(2)
H6 H 0.169(3) 0.2412(9) 0.790(4)
C8 C 0.3270(2) 0.17662(6) 0.7724(3)
H7 H 0.298256 0.167825 0.934790
H8 H 0.450836 0.176616 0.759846
C9 C 0.25799(19) 0.13267(6) 0.6173(3)
C10 C 0.2780(2) 0.07900(7) 0.6840(3)
H9 H 0.332086 0.070949 0.826492
C11 C 0.2205(2) 0.03725(7) 0.5463(3)
H10 H 0.235951 0.000845 0.593934
C12 C 0.1402(2) 0.04842(7) 0.3390(3)
H11 H 0.101047 0.019839 0.243381
C13 C 0.1178(2) 0.10152(7) 0.2726(3)
H12 H 0.061415 0.109434 0.131743
C14 C 0.1768(2) 0.14343(6) 0.4097(3)
H13 H 0.161586 0.179772 0.361142
loop_
_geom_bond_atom_site_label_1
_geom_bond_atom_site_label_2
_geom_bond_site_symmetry_1
_geom_bond_site_symmetry_2
C1 H1 1_555 1_555
C2 C1 1_555 1_555
H2 C2 1_555 1_555
C3 C2 1_555 1_555
H3 C3 1_555 1_555
C4 C3 1_555 1_555
H4 C4 1_555 1_555
C5 C4 1_555 1_555
H5 C5 1_555 1_555
C6 C1 1_555 1_555
C7 C6 1_555 1_555
O1 C7 1_555 1_555
N1 C7 1_555 1_555
H6 N1 1_555 1_555
C8 N1 1_555 1_555
H7 C8 1_555 1_555
H8 C8 1_555 1_555
C9 C8 1_555 1_555
C10 C9 1_555 1_555
H9 C10 1_555 1_555
C11 C10 1_555 1_555
H10 C11 1_555 1_555
C12 C11 1_555 1_555
H11 C12 1_555 1_555
C13 C12 1_555 1_555
H12 C13 1_555 1_555
C14 C9 1_555 1_555
H13 C14 1_555 1_555
C5 C6 1_555 1_555
C13 C14 1_555 1_555

#END
