
#######################################################################
#
#                 Cambridge Crystallographic Data Centre
#                                CCDC 
#
#######################################################################
#
# If this CIF has been generated from an entry in the Cambridge 
# Structural Database, then it will include bibliographic, chemical, 
# crystal, experimental, refinement or atomic coordinate data resulting 
# from the CCDC's data processing and validation procedures.
#
#######################################################################

data_XEQVUM
_chemical_formula_moiety         'C30 H30 B1 N1 S2'
_chemical_name_systematic        
1-(Dimesitylboryl)-2,5-bis(2-thienyl)-1H-pyrrole
_symmetry_cell_setting           triclinic
_symmetry_space_group_name_H-M   'P -1'
_symmetry_Int_Tables_number      2
_space_group_name_Hall           '-P 1'
loop_
_symmetry_equiv_pos_site_id
_symmetry_equiv_pos_as_xyz
1 x,y,z
2 -x,-y,-z
_cell_length_a                   8.49(3)
_cell_length_b                   12.61(4)
_cell_length_c                   12.72(6)
_cell_angle_alpha                105.34(9)
_cell_angle_beta                 91.55(8)
_cell_angle_gamma                102.24(8)
_cell_volume                     1278.42
_exptl_crystal_colour            'pale yellow'
_exptl_crystal_description       block
_cell_formula_units_Z            2
loop_
_atom_site_label
_atom_site_type_symbol
_atom_site_fract_x
_atom_site_fract_y
_atom_site_fract_z
N1 N 0.7400(3) 0.2044(2) 0.6391(2)
C1 C 0.8038(4) 0.2652(3) 0.5663(3)
C2 C 0.8705(4) 0.1963(3) 0.4868(3)
H1 H 0.9242 0.2168 0.4281
C3 C 0.8458(4) 0.0901(3) 0.5071(3)
H2 H 0.8789 0.0260 0.4640
C4 C 0.7664(4) 0.0945(3) 0.5991(3)
C5 C 0.8094(4) 0.3853(3) 0.5813(3)
C6 C 0.9138(5) 0.4770(3) 0.6518(3)
H3 H 0.9974 0.4715 0.6999
C7 C 0.8815(5) 0.5803(3) 0.6438(3)
H4 H 0.9388 0.6519 0.6886
C8 C 0.7627(5) 0.5674(3) 0.5675(3)
H5 H 0.7276 0.6283 0.5507
S1 S 0.68207(14) 0.42953(9) 0.50405(8)
C9 C 0.6966(4) 0.0020(3) 0.6448(3)
C10 C 0.5103(8) -0.1368(6) 0.6971(7)
H6 H 0.4062 -0.1758 0.7083
C11 C 0.6519(6) -0.1632(6) 0.7200(6)
H7 H 0.6595 -0.2238 0.7496
B1 B 0.6888(4) 0.2523(3) 0.7478(3)
C12 C 0.7394(4) 0.2053(3) 0.8443(2)
C13 C 0.6260(4) 0.1659(3) 0.9124(3)
C14 C 0.6769(4) 0.1311(3) 0.9998(3)
H8 H 0.5984 0.1019 1.0429
C15 C 0.8394(5) 0.1376(3) 1.0259(3)
C16 C 0.9509(4) 0.1784(3) 0.9605(3)
H9 H 1.0627 0.1853 0.9785
C17 C 0.9052(4) 0.2095(3) 0.8694(3)
C18 C 0.4483(4) 0.1619(3) 0.8936(3)
H10 H 0.4303 0.1894 0.8301
H11 H 0.4132 0.2098 0.9585
H12 H 0.3860 0.0840 0.8801
C19 C 0.8936(6) 0.1036(4) 1.1242(3)
H13 H 1.0116 0.1143 1.1296
H14 H 0.8432 0.0240 1.1158
H15 H 0.8610 0.1505 1.1908
C20 C 1.0379(4) 0.2518(3) 0.8037(3)
H16 H 0.9901 0.2708 0.7420
H17 H 1.0973 0.1929 0.7760
H18 H 1.1124 0.3192 0.8505
C21 C 0.5941(4) 0.3480(3) 0.7651(2)
C22 C 0.4497(4) 0.3328(3) 0.6992(2)
C23 C 0.3634(4) 0.4173(3) 0.7173(3)
H19 H 0.2653 0.4046 0.6734
C24 C 0.4153(4) 0.5193(3) 0.7970(3)
C25 C 0.5562(5) 0.5339(3) 0.8621(3)
H20 H 0.5927 0.6027 0.9180
C26 C 0.6461(4) 0.4517(3) 0.8488(3)
C27 C 0.3816(4) 0.2259(3) 0.6100(3)
H21 H 0.4529 0.1734 0.6062
H22 H 0.3740 0.2436 0.5398
H23 H 0.2736 0.1911 0.6259
C28 C 0.3219(5) 0.6109(3) 0.8136(3)
H24 H 0.2267 0.5860 0.7603
H25 H 0.3913 0.6796 0.8033
H26 H 0.2871 0.6269 0.8879
C29 C 0.8004(5) 0.4785(3) 0.9218(3)
H27 H 0.8516 0.4139 0.9036
H28 H 0.7757 0.4938 0.9984
H29 H 0.8743 0.5450 0.9108
S2 S 0.81615(18) -0.07379(13) 0.68926(16)
C30 C 0.5411(12) -0.0415(15) 0.6534(16)
H30 H 0.4562 -0.0110 0.6320
C31? C 0.788(4) -0.051(3) 0.693(4)
C32? C 0.703(5) -0.148(3) 0.721(4)
C33? C 0.544(6) -0.148(4) 0.704(4)
H31? H 0.9020 -0.0252 0.7078
H32? H 0.7468 -0.2012 0.7462
H33? H 0.4605 -0.2025 0.7214
S3? S 0.500(2) -0.044(2) 0.650(3)
loop_
_geom_bond_atom_site_label_1
_geom_bond_atom_site_label_2
_geom_bond_site_symmetry_1
_geom_bond_site_symmetry_2
N1 C1 1_555 1_555
C1 C2 1_555 1_555
C2 H1 1_555 1_555
C3 C2 1_555 1_555
H2 C3 1_555 1_555
C4 N1 1_555 1_555
C5 C1 1_555 1_555
C6 C5 1_555 1_555
H3 C6 1_555 1_555
C7 C6 1_555 1_555
H4 C7 1_555 1_555
C8 C7 1_555 1_555
H5 C8 1_555 1_555
S1 C5 1_555 1_555
C9 C4 1_555 1_555
C10 H6 1_555 1_555
C11 C10 1_555 1_555
H7 C11 1_555 1_555
B1 N1 1_555 1_555
C12 B1 1_555 1_555
C13 C12 1_555 1_555
C14 C13 1_555 1_555
H8 C14 1_555 1_555
C15 C14 1_555 1_555
C16 C15 1_555 1_555
H9 C16 1_555 1_555
C17 C12 1_555 1_555
C18 C13 1_555 1_555
H10 C18 1_555 1_555
H11 C18 1_555 1_555
H12 C18 1_555 1_555
C19 C15 1_555 1_555
H13 C19 1_555 1_555
H14 C19 1_555 1_555
H15 C19 1_555 1_555
C20 C17 1_555 1_555
H16 C20 1_555 1_555
H17 C20 1_555 1_555
H18 C20 1_555 1_555
C21 B1 1_555 1_555
C22 C21 1_555 1_555
C23 C22 1_555 1_555
H19 C23 1_555 1_555
C24 C23 1_555 1_555
C25 C24 1_555 1_555
H20 C25 1_555 1_555
C26 C21 1_555 1_555
C27 C22 1_555 1_555
H21 C27 1_555 1_555
H22 C27 1_555 1_555
H23 C27 1_555 1_555
C28 C24 1_555 1_555
H24 C28 1_555 1_555
H25 C28 1_555 1_555
H26 C28 1_555 1_555
C29 C26 1_555 1_555
H27 C29 1_555 1_555
H28 C29 1_555 1_555
H29 C29 1_555 1_555
S2 C9 1_555 1_555
C30 C9 1_555 1_555
H30 C30 1_555 1_555
C3 C4 1_555 1_555
C8 S1 1_555 1_555
C10 C30 1_555 1_555
C11 S2 1_555 1_555
C16 C17 1_555 1_555
C25 C26 1_555 1_555

#END
