
#######################################################################
#
#                 Cambridge Crystallographic Data Centre
#                                CCDC 
#
#######################################################################
#
# If this CIF has been generated from an entry in the Cambridge 
# Structural Database, then it will include bibliographic, chemical, 
# crystal, experimental, refinement or atomic coordinate data resulting 
# from the CCDC's data processing and validation procedures.
#
#######################################################################

data_XEQVOG
_chemical_formula_moiety         'C30 H30 B1 N1'
_chemical_name_systematic        9-(Dimesitylboryl)-9H-carbazole
_symmetry_cell_setting           monoclinic
_symmetry_space_group_name_H-M   'C 2/c'
_symmetry_Int_Tables_number      15
_space_group_name_Hall           '-C 2yn'
loop_
_symmetry_equiv_pos_site_id
_symmetry_equiv_pos_as_xyz
1 x,y,z
2 -x,y,1/2-z
3 1/2+x,1/2+y,z
4 1/2-x,1/2+y,1/2-z
5 -x,-y,-z
6 x,-y,1/2+z
7 1/2-x,1/2-y,-z
8 1/2+x,1/2-y,1/2+z
_cell_length_a                   12.716(3)
_cell_length_b                   10.577(2)
_cell_length_c                   17.530(4)
_cell_angle_alpha                90
_cell_angle_beta                 90.626(3)
_cell_angle_gamma                90
_cell_volume                     2357.59
_exptl_crystal_colour            colorless
_exptl_crystal_description       prism
_cell_formula_units_Z            4
loop_
_atom_site_label
_atom_site_type_symbol
_atom_site_fract_x
_atom_site_fract_y
_atom_site_fract_z
C1 C -0.02370(10) 0.08385(13) 0.81244(8)
C2 C -0.04750(11) 0.05332(13) 0.88754(8)
H1 H -0.0515 -0.0323 0.9036
C3 C -0.06520(12) 0.15120(14) 0.93799(8)
H2 H -0.0821 0.1320 0.9894
C4 C -0.05890(12) 0.27735(14) 0.91546(8)
H3 H -0.0725 0.3427 0.9512
C5 C -0.03290(11) 0.30782(13) 0.84132(8)
H4 H -0.0274 0.3937 0.8259
C6 C -0.01497(10) 0.21071(12) 0.78970(8)
N1 N 0.0000 0.00287(14) 0.7500
B1 B 0.0000 -0.1334(2) 0.7500
C7 C -0.06670(10) -0.20827(12) 0.81031(8)
C8 C -0.02067(11) -0.29981(12) 0.85889(8)
C9 C -0.08360(11) -0.36946(13) 0.90774(8)
H5 H -0.0511 -0.4288 0.9412
C10 C -0.19180(12) -0.35569(13) 0.90953(8)
C11 C -0.23696(11) -0.26592(13) 0.86135(9)
H6 H -0.3111 -0.2552 0.8614
C12 C -0.17688(11) -0.19129(13) 0.81315(8)
C13 C 0.09664(12) -0.32174(14) 0.86161(9)
H7 H 0.1131 -0.3867 0.8998
H8 H 0.1325 -0.2428 0.8754
H9 H 0.1205 -0.3500 0.8114
C14 C -0.25855(14) -0.43535(16) 0.96123(10)
H10 H -0.2667 -0.5201 0.9393
H11 H -0.3279 -0.3961 0.9665
H12 H -0.2245 -0.4417 1.0115
C15 C -0.23349(11) -0.09419(15) 0.76427(9)
H13 H -0.3094 -0.1095 0.7659
H14 H -0.2095 -0.1010 0.7115
H15 H -0.2182 -0.0092 0.7838
C1A C 0.02370(10) 0.08385(13) 0.68756(8)
C2A C 0.04750(11) 0.05332(13) 0.61246(8)
H1A H 0.0515 -0.0323 0.5964
C3A C 0.06520(12) 0.15120(14) 0.56201(8)
H2A H 0.0821 0.1320 0.5106
C4A C 0.05890(12) 0.27735(14) 0.58454(8)
H3A H 0.0725 0.3427 0.5488
C5A C 0.03290(11) 0.30782(13) 0.65868(8)
H4A H 0.0274 0.3937 0.6741
C6A C 0.01497(10) 0.21071(12) 0.71030(8)
C7A C 0.06670(10) -0.20827(12) 0.68969(8)
C8A C 0.02067(11) -0.29981(12) 0.64111(8)
C9A C 0.08360(11) -0.36946(13) 0.59226(8)
H5A H 0.0511 -0.4288 0.5588
C10A C 0.19180(12) -0.35569(13) 0.59047(8)
C11A C 0.23696(11) -0.26592(13) 0.63865(9)
H6A H 0.3111 -0.2552 0.6386
C12A C 0.17688(11) -0.19129(13) 0.68685(8)
C13A C -0.09664(12) -0.32174(14) 0.63839(9)
H7A H -0.1131 -0.3867 0.6002
H8A H -0.1325 -0.2428 0.6246
H9A H -0.1205 -0.3500 0.6886
C14A C 0.25855(14) -0.43535(16) 0.53877(10)
H10A H 0.2667 -0.5201 0.5607
H11A H 0.3279 -0.3961 0.5335
H12A H 0.2245 -0.4417 0.4885
C15A C 0.23349(11) -0.09419(15) 0.73573(9)
H13A H 0.3094 -0.1095 0.7341
H14A H 0.2095 -0.1010 0.7885
H15A H 0.2182 -0.0092 0.7162
loop_
_geom_bond_atom_site_label_1
_geom_bond_atom_site_label_2
_geom_bond_site_symmetry_1
_geom_bond_site_symmetry_2
C1 C2 1_555 1_555
C2 H1 1_555 1_555
C3 C2 1_555 1_555
H2 C3 1_555 1_555
C4 C3 1_555 1_555
H3 C4 1_555 1_555
C5 C4 1_555 1_555
H4 C5 1_555 1_555
C6 C1 1_555 1_555
N1 C1 1_555 1_555
B1 N1 1_555 1_555
C7 B1 1_555 1_555
C8 C7 1_555 1_555
C9 C8 1_555 1_555
H5 C9 1_555 1_555
C10 C9 1_555 1_555
C11 C10 1_555 1_555
H6 C11 1_555 1_555
C12 C7 1_555 1_555
C13 C8 1_555 1_555
H7 C13 1_555 1_555
H8 C13 1_555 1_555
H9 C13 1_555 1_555
C14 C10 1_555 1_555
H10 C14 1_555 1_555
H11 C14 1_555 1_555
H12 C14 1_555 1_555
C15 C12 1_555 1_555
H13 C15 1_555 1_555
H14 C15 1_555 1_555
H15 C15 1_555 1_555
C1A N1 1_555 1_555
C2A C1A 1_555 1_555
H1A C2A 1_555 1_555
C3A C2A 1_555 1_555
H2A C3A 1_555 1_555
C4A C3A 1_555 1_555
H3A C4A 1_555 1_555
C5A C4A 1_555 1_555
H4A C5A 1_555 1_555
C6A C6 1_555 1_555
C7A B1 1_555 1_555
C8A C7A 1_555 1_555
C9A C8A 1_555 1_555
H5A C9A 1_555 1_555
C10A C9A 1_555 1_555
C11A C10A 1_555 1_555
H6A C11A 1_555 1_555
C12A C7A 1_555 1_555
C13A C8A 1_555 1_555
H7A C13A 1_555 1_555
H8A C13A 1_555 1_555
H9A C13A 1_555 1_555
C14A C10A 1_555 1_555
H10A C14A 1_555 1_555
H11A C14A 1_555 1_555
H12A C14A 1_555 1_555
C15A C12A 1_555 1_555
H13A C15A 1_555 1_555
H14A C15A 1_555 1_555
H15A C15A 1_555 1_555
C5 C6 1_555 1_555
C11 C12 1_555 1_555
C1A C6A 1_555 1_555
C5A C6A 1_555 1_555
C11A C12A 1_555 1_555

#END
