
#######################################################################
#
#                 Cambridge Crystallographic Data Centre
#                                CCDC 
#
#######################################################################
#
# If this CIF has been generated from an entry in the Cambridge 
# Structural Database, then it will include bibliographic, chemical, 
# crystal, experimental, refinement or atomic coordinate data resulting 
# from the CCDC's data processing and validation procedures.
#
#######################################################################

data_XEQVEV
_chemical_formula_moiety         'C24 H23 N1 O3 S1'
_chemical_name_systematic        
6,6-Dimethyl-4-(p-tolyl)-9-(2-thienyl)-5,6,7,9-tetrahydrofuro(3,4-b)quinoline-1,8(3H,4H)-dione
_symmetry_cell_setting           monoclinic
_symmetry_space_group_name_H-M   'C 2/c'
_symmetry_Int_Tables_number      15
_space_group_name_Hall           '-C 2yn'
loop_
_symmetry_equiv_pos_site_id
_symmetry_equiv_pos_as_xyz
1 x,y,z
2 1/2+x,1/2+y,z
3 -x,y,1/2-z
4 1/2-x,1/2+y,1/2-z
5 -x,-y,-z
6 1/2-x,1/2-y,-z
7 x,-y,1/2+z
8 1/2+x,1/2-y,1/2+z
_cell_length_a                   26.12(2)
_cell_length_b                   12.566(11)
_cell_length_c                   15.496(11)
_cell_angle_alpha                90
_cell_angle_beta                 122.43(5)
_cell_angle_gamma                90
_cell_volume                     4292.96
_exptl_crystal_colour            red
_exptl_crystal_description       block
_cell_formula_units_Z            8
loop_
_atom_site_label
_atom_site_type_symbol
_atom_site_fract_x
_atom_site_fract_y
_atom_site_fract_z
N1 N 0.1640(2) 0.3308(4) 0.5952(4)
O1 O 0.2680(2) 0.3949(4) 0.5161(3)
O2 O 0.3575(2) 0.3303(4) 0.6423(4)
O3 O 0.2915(2) 0.1172(4) 0.8841(4)
S1 S 0.29486(9) 0.43609(17) 0.87589(16)
C1 C 0.2128(3) 0.3506(5) 0.5842(5)
C2 C 0.2075(3) 0.4030(6) 0.4945(5)
H1 H 0.1787 0.3661 0.4317
H2 H 0.1951 0.4767 0.4892
C3 C 0.3039(4) 0.3463(6) 0.6099(6)
C4 C 0.2687(3) 0.3203(5) 0.6516(5)
C5 C 0.2886(3) 0.2682(5) 0.7522(5)
H3 H 0.3129 0.2055 0.7594
C6 C 0.2319(3) 0.2308(5) 0.7472(4)
C7 C 0.2402(4) 0.1520(5) 0.8221(5)
C8 C 0.1853(3) 0.1083(6) 0.8180(6)
H4 H 0.1970 0.0839 0.8856
H5 H 0.1700 0.0475 0.7723
C9 C 0.1348(3) 0.1913(7) 0.7810(6)
C10 C 0.1203(3) 0.2330(6) 0.6784(5)
H6 H 0.0991 0.1779 0.6274
H7 H 0.0931 0.2933 0.6592
C11 C 0.1751(3) 0.2669(5) 0.6764(5)
C12 C 0.1040(3) 0.3616(6) 0.5137(4)
C13 C 0.0642(3) 0.2857(6) 0.4440(5)
H8 H 0.0762 0.2151 0.4485
C14 C 0.0072(3) 0.3177(6) 0.3689(5)
H9 H -0.0195 0.2670 0.3231
C15 C -0.0126(3) 0.4233(7) 0.3578(5)
C16 C 0.0288(3) 0.4962(6) 0.4253(5)
H10 H 0.0179 0.5677 0.4178
C17 C 0.0861(3) 0.4663(6) 0.5039(5)
H11 H 0.1126 0.5168 0.5502
C18 C -0.0753(3) 0.4505(6) 0.2727(5)
H12 H -0.0958 0.3869 0.2359
H13 H -0.0734 0.4998 0.2272
H14 H -0.0970 0.4821 0.3001
C19 C 0.1526(4) 0.2802(7) 0.8585(6)
H15 H 0.1200 0.3306 0.8331
H16 H 0.1883 0.3152 0.8694
H17 H 0.1607 0.2510 0.9219
C20 C 0.0781(4) 0.1343(8) 0.7638(7)
H18 H 0.0457 0.1847 0.7408
H19 H 0.0869 0.1027 0.8267
H20 H 0.0662 0.0799 0.7130
C21 C 0.3279(3) 0.3429(5) 0.8409(5)
C22 C 0.3930(3) 0.3475(6) 0.9008(5)
H21 H 0.4200 0.3031 0.8962
C23 C 0.4076(4) 0.4372(8) 0.9704(6)
H22 H 0.4474 0.4576 1.0172
C24 C 0.3612(4) 0.4874(7) 0.9629(5)
H23 H 0.3653 0.5461 1.0026
loop_
_geom_bond_atom_site_label_1
_geom_bond_atom_site_label_2
_geom_bond_site_symmetry_1
_geom_bond_site_symmetry_2
N1 C1 1_555 1_555
O1 C2 1_555 1_555
O2 C3 1_555 1_555
O3 C7 1_555 1_555
S1 C21 1_555 1_555
C1 C2 1_555 1_555
C2 H1 1_555 1_555
H2 C2 1_555 1_555
C3 O1 1_555 1_555
C4 C1 1_555 1_555
C5 C4 1_555 1_555
H3 C5 1_555 1_555
C6 C5 1_555 1_555
C7 C6 1_555 1_555
C8 C7 1_555 1_555
H4 C8 1_555 1_555
H5 C8 1_555 1_555
C9 C8 1_555 1_555
C10 C9 1_555 1_555
H6 C10 1_555 1_555
H7 C10 1_555 1_555
C11 N1 1_555 1_555
C12 N1 1_555 1_555
C13 C12 1_555 1_555
H8 C13 1_555 1_555
C14 C13 1_555 1_555
H9 C14 1_555 1_555
C15 C14 1_555 1_555
C16 C15 1_555 1_555
H10 C16 1_555 1_555
C17 C12 1_555 1_555
H11 C17 1_555 1_555
C18 C15 1_555 1_555
H12 C18 1_555 1_555
H13 C18 1_555 1_555
H14 C18 1_555 1_555
C19 C9 1_555 1_555
H15 C19 1_555 1_555
H16 C19 1_555 1_555
H17 C19 1_555 1_555
C20 C9 1_555 1_555
H18 C20 1_555 1_555
H19 C20 1_555 1_555
H20 C20 1_555 1_555
C21 C5 1_555 1_555
C22 C21 1_555 1_555
H21 C22 1_555 1_555
C23 C22 1_555 1_555
H22 C23 1_555 1_555
C24 S1 1_555 1_555
H23 C24 1_555 1_555
C3 C4 1_555 1_555
C6 C11 1_555 1_555
C10 C11 1_555 1_555
C16 C17 1_555 1_555
C23 C24 1_555 1_555

#END
