
#######################################################################
#
#                 Cambridge Crystallographic Data Centre
#                                CCDC 
#
#######################################################################
#
# If this CIF has been generated from an entry in the Cambridge 
# Structural Database, then it will include bibliographic, chemical, 
# crystal, experimental, refinement or atomic coordinate data resulting 
# from the CCDC's data processing and validation procedures.
#
#######################################################################

data_XEQYEY
_chemical_formula_moiety         'C88 H104 N2 O8'
_chemical_name_systematic        
37,40-bis(4-Cyanobenzyloxy)-38,41-(3,6-dioxaoctane-1,8-diolato)-39,42-dihydroxy-5,11,17,23,29,35-hexa-t-butylcalix(6)arene
_symmetry_cell_setting           triclinic
_symmetry_space_group_name_H-M   'P -1'
_symmetry_Int_Tables_number      2
_space_group_name_Hall           '-P 1'
loop_
_symmetry_equiv_pos_site_id
_symmetry_equiv_pos_as_xyz
1 x,y,z
2 -x,-y,-z
_cell_length_a                   10.2018(6)
_cell_length_b                   17.5307(10)
_cell_length_c                   24.2165(15)
_cell_angle_alpha                108.696(3)
_cell_angle_beta                 96.579(3)
_cell_angle_gamma                105.719(3)
_cell_volume                     3851.48
_exptl_crystal_description       block
_cell_formula_units_Z            2
loop_
_atom_site_label
_atom_site_type_symbol
_atom_site_fract_x
_atom_site_fract_y
_atom_site_fract_z
C1 C -0.3681(2) 0.12753(13) 0.06134(10)
C2 C -0.3688(3) 0.12909(15) -0.00104(10)
H1 H -0.4321 0.0836 -0.0348
N1 N 0.2791(5) -0.0287(2) 0.3515(2)
N2 N 0.3913(3) 0.1536(2) -0.11617(13)
O1 O 0.00957(15) 0.41282(9) 0.39547(6)
O2 O 0.26783(15) 0.39150(9) 0.34683(7)
O3 O -0.01767(16) 0.39476(10) 0.17579(7)
H2 H -0.0879 0.3692 0.1473
O4 O -0.26236(15) 0.30538(9) 0.08685(7)
O5 O -0.13606(16) 0.12155(9) 0.07231(7)
O6 O -0.09678(18) 0.26685(10) 0.29166(7)
H3 H -0.0659 0.3075 0.3248
O7 O -0.30823(18) 0.42677(11) 0.18166(7)
O8 O -0.23272(17) 0.42099(12) 0.33224(8)
C3 C 0.2100(2) 0.43198(14) 0.46851(9)
C4 C 0.2939(2) 0.51607(14) 0.46584(10)
H4 H 0.3589 0.5587 0.5004
C5 C 0.2740(2) 0.53215(14) 0.40768(10)
C6 C 0.2596(2) 0.60958(14) 0.40994(10)
H5 H 0.2631 0.6504 0.4475
C7 C 0.2404(2) 0.62948(14) 0.35912(10)
C8 C 0.2368(2) 0.56859(14) 0.30504(10)
H6 H 0.2244 0.5810 0.2698
C9 C 0.2504(2) 0.49053(13) 0.30053(9)
C10 C 0.2429(2) 0.42337(14) 0.24110(10)
H7 H 0.3297 0.4084 0.2434
H8 H 0.1639 0.3714 0.2341
C11 C 0.2244(2) 0.45122(13) 0.18849(9)
C12 C 0.3388(2) 0.49637(14) 0.17307(10)
H9 H 0.4295 0.5062 0.1946
C13 C 0.3267(2) 0.52800(14) 0.12737(10)
C14 C 0.1922(2) 0.50881(14) 0.09541(10)
H10 H 0.1807 0.5278 0.0631
C15 C 0.0738(2) 0.46292(13) 0.10871(10)
C16 C -0.0690(2) 0.44288(14) 0.07108(10)
H11 H -0.1354 0.4496 0.0976
H12 H -0.0639 0.4846 0.0512
C17 C -0.1244(2) 0.35370(14) 0.02394(10)
C18 C -0.0804(2) 0.33581(14) -0.02969(10)
H13 H -0.0143 0.3804 -0.0359
C19 C -0.1292(2) 0.25567(15) -0.07435(10)
C20 C -0.2209(2) 0.19091(15) -0.06215(10)
H14 H -0.2534 0.1350 -0.0917
C21 C -0.2673(2) 0.20399(14) -0.00891(10)
C22 C -0.4894(2) 0.12184(14) 0.08302(10)
H15 H -0.5706 0.1198 0.0583
C23 C -0.4968(2) 0.11895(15) 0.13934(10)
C24 C -0.3749(2) 0.12366(15) 0.17443(10)
H16 H -0.3757 0.1243 0.2138
C25 C -0.2522(2) 0.12744(14) 0.15444(10)
C26 C -0.1233(3) 0.12713(16) 0.19326(11)
H17 H -0.0937 0.0792 0.1704
H18 H -0.0463 0.1806 0.2014
C27 C -0.1446(2) 0.11920(15) 0.25166(11)
C28 C -0.1822(3) 0.04096(16) 0.25843(12)
H19 H -0.1893 -0.0085 0.2255
C29 C -0.2097(3) 0.03186(16) 0.31116(13)
C30 C -0.1976(3) 0.10455(16) 0.35805(11)
H20 H -0.2156 0.0997 0.3946
C31 C -0.1603(2) 0.18523(14) 0.35456(10)
C32 C -0.1509(2) 0.26189(15) 0.40747(10)
H21 H -0.2080 0.2431 0.4340
H22 H -0.1908 0.2996 0.3933
C33 C -0.0029(2) 0.31214(14) 0.44304(10)
C34 C 0.0626(2) 0.28194(15) 0.48122(10)
H23 H 0.0114 0.2310 0.4857
C35 C 0.1995(2) 0.32358(14) 0.51283(10)
C36 C 0.2701(2) 0.39885(15) 0.50549(10)
H24 H 0.3640 0.4287 0.5270
C37 C 0.0722(2) 0.38698(14) 0.43724(9)
C38 C 0.2696(2) 0.47314(13) 0.35280(10)
C39 C 0.0912(2) 0.43573(13) 0.15673(10)
C40 C -0.2199(2) 0.28674(14) 0.03279(10)
C41 C -0.2506(2) 0.12781(13) 0.09733(10)
C42 C -0.1332(2) 0.19170(14) 0.30069(10)
C43 C 0.2748(3) 0.28785(17) 0.55204(12)
C44 C 0.3817(4) 0.2570(2) 0.52018(15)
H25 H 0.4479 0.3048 0.5147
H26 H 0.3338 0.2123 0.4811
H27 H 0.4322 0.2341 0.5443
C45 C 0.1730(4) 0.2130(3) 0.5602(2)
H28 H 0.1041 0.2321 0.5809
H29 H 0.2242 0.1899 0.5839
H30 H 0.1252 0.1685 0.5209
C46 C 0.3511(4) 0.3561(2) 0.61297(13)
H31 H 0.2835 0.3761 0.6342
H32 H 0.4176 0.4040 0.6077
H33 H 0.4016 0.3322 0.6363
C47 C 0.2227(3) 0.71474(15) 0.36055(12)
C48 C 0.3408(3) 0.76179(17) 0.33797(14)
H34 H 0.4306 0.7738 0.3641
H35 H 0.3287 0.8155 0.3382
H36 H 0.3389 0.7263 0.2971
C49 C 0.2263(4) 0.77266(18) 0.42393(14)
H37 H 0.3156 0.7847 0.4503
H38 H 0.1497 0.7440 0.4388
H39 H 0.2157 0.8262 0.4231
C50 C 0.0823(3) 0.69617(19) 0.31997(16)
H40 H 0.0788 0.6591 0.2794
H41 H 0.0717 0.7498 0.3193
H42 H 0.0064 0.6677 0.3353
C51 C 0.4561(3) 0.58199(15) 0.11442(11)
C52 C 0.4182(3) 0.61515(19) 0.06567(13)
H43 H 0.3666 0.5669 0.0287
H44 H 0.5038 0.6489 0.0586
H45 H 0.3600 0.6509 0.0785
C53 C 0.5378(3) 0.65886(19) 0.17124(14)
H46 H 0.5641 0.6390 0.2030
H47 H 0.4795 0.6946 0.1839
H48 H 0.6223 0.6922 0.1632
C54 C 0.5488(3) 0.5276(2) 0.09396(15)
H49 H 0.5747 0.5063 0.1250
H50 H 0.6335 0.5623 0.0869
H51 H 0.4978 0.4793 0.0569
C55 C -0.0927(3) 0.23813(16) -0.13577(11)
C56 C -0.0574(4) 0.1561(2) -0.15591(17)
H52 H -0.1352 0.1091 -0.1556
H53 H 0.0270 0.1624 -0.1286
H54 H -0.0411 0.1439 -0.1965
C57 C -0.2192(5) 0.2268(4) -0.18058(16)
H55 H -0.2986 0.1805 -0.1804
H56 H -0.1990 0.2127 -0.2205
H57 H -0.2420 0.2798 -0.1698
C58 C 0.0307(5) 0.3092(2) -0.13599(18)
H58 H 0.0503 0.2952 -0.1761
H59 H 0.1127 0.3158 -0.1072
H60 H 0.0090 0.3625 -0.1248
C59 C -0.6308(3) 0.11112(17) 0.16300(12)
C60 C -0.6363(4) 0.1986(2) 0.1981(2)
H61 H -0.5529 0.2295 0.2306
H62 H -0.7199 0.1924 0.2148
H63 H -0.6396 0.2303 0.1715
C61 C -0.6364(3) 0.0605(3) 0.20445(16)
H64 H -0.6330 0.0037 0.1825
H65 H -0.7233 0.0551 0.2187
H66 H -0.5565 0.0905 0.2386
C62 C -0.7605(3) 0.0628(2) 0.11248(14)
H67 H -0.7571 0.0061 0.0900
H68 H -0.7638 0.0942 0.0857
H69 H -0.8440 0.0569 0.1292
C63 C -0.2591(5) -0.0568(2) 0.31494(17)
C64 C -0.4123(5) -0.1039(3) 0.2750(2)
H70 H -0.4481 -0.1606 0.2768
H71 H -0.4109 -0.1094 0.2335
H72 H -0.4729 -0.0708 0.2899
C65 C -0.1719(6) -0.1077(3) 0.2892(4)
H73 H -0.0761 -0.0809 0.3132
H74 H -0.1720 -0.1106 0.2481
H75 H -0.2096 -0.1654 0.2892
C66 C -0.2917(7) -0.0525(3) 0.3765(2)
H76 H -0.2050 -0.0240 0.4074
H77 H -0.3341 -0.1104 0.3755
H78 H -0.3567 -0.0204 0.3857
C67 C -0.0178(2) 0.19735(14) 0.09026(11)
H79 H 0.0398 0.2063 0.1290
H80 H -0.0495 0.2473 0.0952
C68 C 0.0669(2) 0.18819(14) 0.04347(10)
C69 C 0.1696(2) 0.25943(15) 0.04378(12)
H81 H 0.1828 0.3141 0.0726
C70 C 0.2522(3) 0.25099(17) 0.00239(12)
H82 H 0.3202 0.3001 0.0022
C71 C 0.2365(3) 0.17138(17) -0.03885(11)
C72 C 0.1341(3) 0.10017(16) -0.03951(12)
H83 H 0.1224 0.0453 -0.0677
C73 C 0.0496(3) 0.10947(15) 0.00099(11)
H84 H -0.0220 0.0608 -0.0003
C74 C 0.3227(3) 0.16221(19) -0.08198(13)
C75 C 0.3968(2) 0.38029(15) 0.36316(12)
H85 H 0.4454 0.4210 0.4041
H86 H 0.4570 0.3912 0.3354
C76 C 0.3696(2) 0.29074(14) 0.36068(10)
C77 C 0.4811(3) 0.26218(17) 0.36932(12)
H87 H 0.5737 0.2993 0.3767
C78 C 0.4585(3) 0.17931(18) 0.36729(14)
H88 H 0.5353 0.1598 0.3733
C79 C 0.3237(3) 0.12577(16) 0.35648(13)
C80 C 0.2119(3) 0.15361(16) 0.34765(13)
H89 H 0.1193 0.1163 0.3401
C81 C 0.2352(2) 0.23615(15) 0.34985(11)
H90 H 0.1582 0.2555 0.3439
C82 C 0.2990(4) 0.0390(2) 0.35372(18)
C83 C -0.3906(2) 0.32446(16) 0.08363(11)
H91 H -0.4684 0.2738 0.0561
H92 H -0.3829 0.3716 0.0688
C84 C -0.4163(3) 0.34961(16) 0.14535(11)
H93 H -0.5084 0.3581 0.1449
H94 H -0.4157 0.3044 0.1614
C85 C -0.3042(3) 0.44944(18) 0.24404(11)
H95 H -0.4000 0.4423 0.2507
H96 H -0.2474 0.5102 0.2653
C86 C -0.2429(3) 0.39511(18) 0.26931(12)
H97 H -0.3025 0.3347 0.2496
H98 H -0.1489 0.3999 0.2609
C87 C -0.1174(3) 0.49331(16) 0.36721(11)
H99 H -0.1482 0.5437 0.3816
H100 H -0.0482 0.5047 0.3429
C88 C -0.0528(3) 0.47734(15) 0.41908(10)
H101 H 0.0190 0.5302 0.4476
H102 H -0.1247 0.4576 0.4402
loop_
_geom_bond_atom_site_label_1
_geom_bond_atom_site_label_2
_geom_bond_site_symmetry_1
_geom_bond_site_symmetry_2
C1 C2 1_555 1_555
C2 H1 1_555 1_555
N1 C82 1_555 1_555
N2 C74 1_555 1_555
O1 C37 1_555 1_555
O2 C38 1_555 1_555
O3 H2 1_555 1_555
O4 C40 1_555 1_555
O5 C41 1_555 1_555
O6 H3 1_555 1_555
O7 C84 1_555 1_555
O8 C86 1_555 1_555
C3 C4 1_555 1_555
C4 H4 1_555 1_555
C5 C4 1_555 1_555
C6 C5 1_555 1_555
H5 C6 1_555 1_555
C7 C6 1_555 1_555
C8 C7 1_555 1_555
H6 C8 1_555 1_555
C9 C8 1_555 1_555
C10 C9 1_555 1_555
H7 C10 1_555 1_555
H8 C10 1_555 1_555
C11 C10 1_555 1_555
C12 C11 1_555 1_555
H9 C12 1_555 1_555
C13 C12 1_555 1_555
C14 C13 1_555 1_555
H10 C14 1_555 1_555
C15 C14 1_555 1_555
C16 C15 1_555 1_555
H11 C16 1_555 1_555
H12 C16 1_555 1_555
C17 C16 1_555 1_555
C18 C17 1_555 1_555
H13 C18 1_555 1_555
C19 C18 1_555 1_555
C20 C19 1_555 1_555
H14 C20 1_555 1_555
C21 C2 1_555 1_555
C22 C1 1_555 1_555
H15 C22 1_555 1_555
C23 C22 1_555 1_555
C24 C23 1_555 1_555
H16 C24 1_555 1_555
C25 C24 1_555 1_555
C26 C25 1_555 1_555
H17 C26 1_555 1_555
H18 C26 1_555 1_555
C27 C26 1_555 1_555
C28 C27 1_555 1_555
H19 C28 1_555 1_555
C29 C28 1_555 1_555
C30 C29 1_555 1_555
H20 C30 1_555 1_555
C31 C30 1_555 1_555
C32 C31 1_555 1_555
H21 C32 1_555 1_555
H22 C32 1_555 1_555
C33 C32 1_555 1_555
C34 C33 1_555 1_555
H23 C34 1_555 1_555
C35 C34 1_555 1_555
C36 C3 1_555 1_555
H24 C36 1_555 1_555
C37 C3 1_555 1_555
C38 C5 1_555 1_555
C39 O3 1_555 1_555
C40 C17 1_555 1_555
C41 C1 1_555 1_555
C42 O6 1_555 1_555
C43 C35 1_555 1_555
C44 C43 1_555 1_555
H25 C44 1_555 1_555
H26 C44 1_555 1_555
H27 C44 1_555 1_555
C45 C43 1_555 1_555
H28 C45 1_555 1_555
H29 C45 1_555 1_555
H30 C45 1_555 1_555
C46 C43 1_555 1_555
H31 C46 1_555 1_555
H32 C46 1_555 1_555
H33 C46 1_555 1_555
C47 C7 1_555 1_555
C48 C47 1_555 1_555
H34 C48 1_555 1_555
H35 C48 1_555 1_555
H36 C48 1_555 1_555
C49 C47 1_555 1_555
H37 C49 1_555 1_555
H38 C49 1_555 1_555
H39 C49 1_555 1_555
C50 C47 1_555 1_555
H40 C50 1_555 1_555
H41 C50 1_555 1_555
H42 C50 1_555 1_555
C51 C13 1_555 1_555
C52 C51 1_555 1_555
H43 C52 1_555 1_555
H44 C52 1_555 1_555
H45 C52 1_555 1_555
C53 C51 1_555 1_555
H46 C53 1_555 1_555
H47 C53 1_555 1_555
H48 C53 1_555 1_555
C54 C51 1_555 1_555
H49 C54 1_555 1_555
H50 C54 1_555 1_555
H51 C54 1_555 1_555
C55 C19 1_555 1_555
C56 C55 1_555 1_555
H52 C56 1_555 1_555
H53 C56 1_555 1_555
H54 C56 1_555 1_555
C57 C55 1_555 1_555
H55 C57 1_555 1_555
H56 C57 1_555 1_555
H57 C57 1_555 1_555
C58 C55 1_555 1_555
H58 C58 1_555 1_555
H59 C58 1_555 1_555
H60 C58 1_555 1_555
C59 C23 1_555 1_555
C60 C59 1_555 1_555
H61 C60 1_555 1_555
H62 C60 1_555 1_555
H63 C60 1_555 1_555
C61 C59 1_555 1_555
H64 C61 1_555 1_555
H65 C61 1_555 1_555
H66 C61 1_555 1_555
C62 C59 1_555 1_555
H67 C62 1_555 1_555
H68 C62 1_555 1_555
H69 C62 1_555 1_555
C63 C29 1_555 1_555
C64 C63 1_555 1_555
H70 C64 1_555 1_555
H71 C64 1_555 1_555
H72 C64 1_555 1_555
C65 C63 1_555 1_555
H73 C65 1_555 1_555
H74 C65 1_555 1_555
H75 C65 1_555 1_555
C66 C63 1_555 1_555
H76 C66 1_555 1_555
H77 C66 1_555 1_555
H78 C66 1_555 1_555
C67 O5 1_555 1_555
H79 C67 1_555 1_555
H80 C67 1_555 1_555
C68 C67 1_555 1_555
C69 C68 1_555 1_555
H81 C69 1_555 1_555
C70 C69 1_555 1_555
H82 C70 1_555 1_555
C71 C70 1_555 1_555
C72 C71 1_555 1_555
H83 C72 1_555 1_555
C73 C68 1_555 1_555
H84 C73 1_555 1_555
C74 C71 1_555 1_555
C75 O2 1_555 1_555
H85 C75 1_555 1_555
H86 C75 1_555 1_555
C76 C75 1_555 1_555
C77 C76 1_555 1_555
H87 C77 1_555 1_555
C78 C77 1_555 1_555
H88 C78 1_555 1_555
C79 C78 1_555 1_555
C80 C79 1_555 1_555
H89 C80 1_555 1_555
C81 C76 1_555 1_555
H90 C81 1_555 1_555
C82 C79 1_555 1_555
C83 O4 1_555 1_555
H91 C83 1_555 1_555
H92 C83 1_555 1_555
C84 C83 1_555 1_555
H93 C84 1_555 1_555
H94 C84 1_555 1_555
C85 O7 1_555 1_555
H95 C85 1_555 1_555
H96 C85 1_555 1_555
C86 C85 1_555 1_555
H97 C86 1_555 1_555
H98 C86 1_555 1_555
C87 O8 1_555 1_555
H99 C87 1_555 1_555
H100 C87 1_555 1_555
C88 O1 1_555 1_555
H101 C88 1_555 1_555
H102 C88 1_555 1_555
C9 C38 1_555 1_555
C11 C39 1_555 1_555
C15 C39 1_555 1_555
C20 C21 1_555 1_555
C21 C40 1_555 1_555
C25 C41 1_555 1_555
C27 C42 1_555 1_555
C31 C42 1_555 1_555
C33 C37 1_555 1_555
C35 C36 1_555 1_555
C72 C73 1_555 1_555
C80 C81 1_555 1_555
C87 C88 1_555 1_555

#END
