
#######################################################################
#
#                 Cambridge Crystallographic Data Centre
#                                CCDC 
#
#######################################################################
#
# If this CIF has been generated from an entry in the Cambridge 
# Structural Database, then it will include bibliographic, chemical, 
# crystal, experimental, refinement or atomic coordinate data resulting 
# from the CCDC's data processing and validation procedures.
#
#######################################################################

data_XEQZAX
_chemical_formula_moiety         'C24 H25 F1 O7 S1'
_chemical_name_systematic        
'diethyl 3-[2-(ethoxycarbonyl)prop-2-en-1-yl]-9-fluoro-2,3-dihydro[1]benzothieno[3,2-b]oxepine-3,5-dicarboxylate'
_symmetry_cell_setting           triclinic
_symmetry_space_group_name_H-M   'P -1'
_symmetry_Int_Tables_number      2
_space_group_name_Hall           '-P 1'
loop_
_symmetry_equiv_pos_site_id
_symmetry_equiv_pos_as_xyz
1 x,y,z
2 -x,-y,-z
_cell_length_a                   7.7157(8)
_cell_length_b                   11.4525(10)
_cell_length_c                   13.9009(16)
_cell_angle_alpha                97.178(9)
_cell_angle_beta                 95.839(9)
_cell_angle_gamma                100.355(8)
_cell_volume                     1189.12
_exptl_crystal_description       block
_cell_formula_units_Z            2
loop_
_atom_site_label
_atom_site_type_symbol
_atom_site_fract_x
_atom_site_fract_y
_atom_site_fract_z
S1 S 0.23584(14) 0.08007(9) 0.57322(7)
O1 O 0.6011(4) 0.3509(2) 0.53432(16)
O2 O 0.8346(4) 0.6400(2) 0.72140(18)
F1 F 0.5150(4) 0.0821(3) 0.20056(18)
O3 O 0.7192(4) 0.5866(3) 0.8543(2)
O4 O 0.1304(5) 0.1683(4) 0.7483(2)
O5 O 1.1267(4) 0.5212(3) 0.8237(3)
O6 O 0.3381(5) 0.2448(4) 0.8717(2)
C1 C 0.6794(5) 0.4386(3) 0.7090(2)
C2 C 0.7439(5) 0.5630(3) 0.7709(3)
C3 C 0.4358(5) 0.1666(3) 0.4484(3)
C4 C 0.8379(5) 0.3694(3) 0.7110(3)
H1 H 0.8757 0.3629 0.7785
H2 H 0.7938 0.2886 0.6769
C5 C 0.4744(5) 0.2520(3) 0.5366(3)
C6 C 0.4083(5) 0.2752(3) 0.7141(2)
O7 O 1.2726(5) 0.5686(4) 0.6991(4)
C7 C 0.2770(6) 0.2234(4) 0.7779(3)
C8 C 0.3087(5) 0.0658(3) 0.4597(3)
C9 C 0.3831(5) 0.2192(3) 0.6118(3)
C10 C 0.9986(6) 0.4235(4) 0.6667(3)
C11 C 0.5357(5) 0.3679(3) 0.7559(3)
H3 H 0.5357 0.3917 0.8223
C12 C 0.6133(5) 0.4551(3) 0.6043(2)
H4 H 0.4972 0.4765 0.6036
H5 H 0.6935 0.5212 0.5852
C13 C 0.9072(6) 0.7598(4) 0.7717(3)
H6 H 0.9786 0.7564 0.8325
H7 H 0.8122 0.8016 0.7865
C14 C 0.4495(6) 0.0779(4) 0.2875(3)
C15 C 0.3243(6) -0.0214(4) 0.2960(3)
H8 H 0.2896 -0.0834 0.2439
C16 C 0.5078(5) 0.1742(4) 0.3604(3)
H9 H 0.5903 0.2407 0.3516
C17 C 0.2507(6) -0.0285(4) 0.3816(3)
H10 H 0.1645 -0.0943 0.3878
C18 C 1.1466(7) 0.5113(4) 0.7294(4)
C19 C 1.0191(7) 0.8234(4) 0.7054(4)
H11 H 0.9487 0.8217 0.6440
H12 H 1.1170 0.7842 0.6948
H13 H 1.0635 0.9051 0.7348
C20 C 1.0244(9) 0.3917(7) 0.5780(5)
C21 C 0.2193(9) 0.2002(6) 0.9404(4)
H14 H 0.2344 0.2595 0.9984
H15 H 0.0970 0.1879 0.9104
C22 C 0.2560(14) 0.0885(8) 0.9678(6)
H16 H 0.2376 0.0291 0.9106
H17 H 0.1779 0.0616 1.0134
H18 H 0.3770 0.1007 0.9974
C23 C 1.2669(8) 0.6014(8) 0.8921(6)
H19 H 1.3678 0.5625 0.9015
H20 H 1.3056 0.6737 0.8641
C24 C 1.2123(11) 0.6324(9) 0.9815(5)
H21 H 1.0928 0.6459 0.9718
H22 H 1.2894 0.7044 1.0149
H23 H 1.2165 0.5687 1.0198
H24 H 0.938(7) 0.336(5) 0.532(3)
H25 H 1.121(7) 0.423(5) 0.552(4)
loop_
_geom_bond_atom_site_label_1
_geom_bond_atom_site_label_2
_geom_bond_site_symmetry_1
_geom_bond_site_symmetry_2
S1 C8 1_555 1_555
O1 C5 1_555 1_555
O2 C2 1_555 1_555
F1 C14 1_555 1_555
O3 C2 1_555 1_555
O4 C7 1_555 1_555
O5 C18 1_555 1_555
O6 C7 1_555 1_555
C1 C2 1_555 1_555
C3 C5 1_555 1_555
C4 C1 1_555 1_555
H1 C4 1_555 1_555
H2 C4 1_555 1_555
C5 C9 1_555 1_555
C6 C7 1_555 1_555
O7 C18 1_555 1_555
C8 C3 1_555 1_555
C9 S1 1_555 1_555
C10 C4 1_555 1_555
C11 C1 1_555 1_555
H3 C11 1_555 1_555
C12 O1 1_555 1_555
H4 C12 1_555 1_555
H5 C12 1_555 1_555
C13 O2 1_555 1_555
H6 C13 1_555 1_555
H7 C13 1_555 1_555
C14 C15 1_555 1_555
C15 H8 1_555 1_555
C16 C3 1_555 1_555
H9 C16 1_555 1_555
C17 C8 1_555 1_555
H10 C17 1_555 1_555
C18 C10 1_555 1_555
C19 C13 1_555 1_555
H11 C19 1_555 1_555
H12 C19 1_555 1_555
H13 C19 1_555 1_555
C20 C10 1_555 1_555
C21 O6 1_555 1_555
H14 C21 1_555 1_555
H15 C21 1_555 1_555
C22 C21 1_555 1_555
H16 C22 1_555 1_555
H17 C22 1_555 1_555
H18 C22 1_555 1_555
C23 O5 1_555 1_555
H19 C23 1_555 1_555
H20 C23 1_555 1_555
C24 C23 1_555 1_555
H21 C24 1_555 1_555
H22 C24 1_555 1_555
H23 C24 1_555 1_555
H24 C20 1_555 1_555
H25 C20 1_555 1_555
C1 C12 1_555 1_555
C6 C9 1_555 1_555
C6 C11 1_555 1_555
C14 C16 1_555 1_555
C15 C17 1_555 1_555

#END
