
#######################################################################
#
#                 Cambridge Crystallographic Data Centre
#                                CCDC 
#
#######################################################################
#
# If this CIF has been generated from an entry in the Cambridge 
# Structural Database, then it will include bibliographic, chemical, 
# crystal, experimental, refinement or atomic coordinate data resulting 
# from the CCDC's data processing and validation procedures.
#
#######################################################################

data_XERBUU
_chemical_formula_moiety         'C13 H9 N1 O1,C10 H2 N4'
_chemical_name_systematic        
'benzene-1,2,4,5-tetracarbonitrile 9H-carbazole-9-carbaldehyde'
_symmetry_cell_setting           monoclinic
_symmetry_space_group_name_H-M   'P 21/n'
_symmetry_Int_Tables_number      14
_space_group_name_Hall           '-P 2yn'
loop_
_symmetry_equiv_pos_site_id
_symmetry_equiv_pos_as_xyz
1 x,y,z
2 1/2-x,1/2+y,1/2-z
3 -x,-y,-z
4 1/2+x,1/2-y,1/2+z
_cell_length_a                   7.5190(15)
_cell_length_b                   7.1310(14)
_cell_length_c                   34.566(7)
_cell_angle_alpha                90
_cell_angle_beta                 95.93(3)
_cell_angle_gamma                90
_cell_volume                     1843.44
_exptl_crystal_colour            yellow
_exptl_crystal_description       lamellar
_cell_formula_units_Z            4
loop_
_atom_site_label
_atom_site_type_symbol
_atom_site_fract_x
_atom_site_fract_y
_atom_site_fract_z
O1 O 0.6420(3) 0.1778(3) 0.64696(8)
N1 N 0.8041(3) 0.4395(3) 0.66450(7)
C1 C 0.7863(3) 0.5402(4) 0.62914(8)
C2 C 0.7106(4) 0.4847(5) 0.59263(9)
H1 H 0.6632 0.3651 0.5884
C3 C 0.7082(5) 0.6136(6) 0.56291(10)
H2 H 0.6565 0.5805 0.5382
C4 C 0.7802(5) 0.7901(6) 0.56873(11)
H3 H 0.7765 0.8736 0.5480
C5 C 0.8578(4) 0.8446(5) 0.60499(10)
H4 H 0.9070 0.9637 0.6088
C6 C 0.8609(4) 0.7178(4) 0.63561(8)
C7 C 0.9316(3) 0.7257(4) 0.67617(8)
C8 C 1.0231(4) 0.8641(5) 0.69844(10)
H5 H 1.0496 0.9785 0.6874
C9 C 1.0732(5) 0.8284(7) 0.73699(12)
H6 H 1.1331 0.9204 0.7524
C10 C 1.0361(5) 0.6574(7) 0.75340(11)
H7 H 1.0726 0.6367 0.7796
C11 C 0.9464(4) 0.5168(5) 0.73195(9)
H8 H 0.9212 0.4023 0.7430
C12 C 0.8962(4) 0.5552(4) 0.69328(8)
C13 C 0.7306(4) 0.2698(5) 0.67106(11)
H9 H 0.7501 0.2209 0.6961
N2 N 0.1886(4) 0.2526(4) 0.64105(10)
N3 N 0.4754(4) 0.6736(4) 0.69713(9)
N4 N 0.3952(4) 1.1924(4) 0.53161(8)
N5 N 0.0822(4) 0.7861(4) 0.47680(9)
C14 C 0.2515(4) 0.5608(4) 0.60584(9)
C15 C 0.1858(4) 0.5811(4) 0.56728(9)
H10 H 0.1196 0.4852 0.5545
C16 C 0.2190(4) 0.7447(4) 0.54768(8)
C17 C 0.3186(4) 0.8898(4) 0.56689(8)
C18 C 0.3830(4) 0.8688(4) 0.60592(8)
H11 H 0.4490 0.9644 0.6188
C19 C 0.3487(4) 0.7062(4) 0.62531(8)
C20 C 0.2178(4) 0.3894(5) 0.62607(10)
C21 C 0.4169(4) 0.6850(4) 0.66541(10)
C22 C 0.3597(4) 1.0584(5) 0.54696(8)
C23 C 0.1457(4) 0.7685(4) 0.50790(10)
loop_
_geom_bond_atom_site_label_1
_geom_bond_atom_site_label_2
_geom_bond_site_symmetry_1
_geom_bond_site_symmetry_2
O1 C13 1_555 1_555
N1 C1 1_555 1_555
C1 C2 1_555 1_555
C2 H1 1_555 1_555
C3 C2 1_555 1_555
H2 C3 1_555 1_555
C4 C3 1_555 1_555
H3 C4 1_555 1_555
C5 C4 1_555 1_555
H4 C5 1_555 1_555
C6 C1 1_555 1_555
C7 C6 1_555 1_555
C8 C7 1_555 1_555
H5 C8 1_555 1_555
C9 C8 1_555 1_555
H6 C9 1_555 1_555
C10 C9 1_555 1_555
H7 C10 1_555 1_555
C11 C10 1_555 1_555
H8 C11 1_555 1_555
C12 N1 1_555 1_555
C13 N1 1_555 1_555
H9 C13 1_555 1_555
N2 C20 1_555 1_555
N3 C21 1_555 1_555
N4 C22 1_555 1_555
N5 C23 1_555 1_555
C14 C15 1_555 1_555
C15 H10 1_555 1_555
C16 C15 1_555 1_555
C17 C16 1_555 1_555
C18 C17 1_555 1_555
H11 C18 1_555 1_555
C19 C14 1_555 1_555
C20 C14 1_555 1_555
C21 C19 1_555 1_555
C22 C17 1_555 1_555
C23 C16 1_555 1_555
C5 C6 1_555 1_555
C7 C12 1_555 1_555
C11 C12 1_555 1_555
C18 C19 1_555 1_555

#END
