
#######################################################################
#
#                 Cambridge Crystallographic Data Centre
#                                CCDC 
#
#######################################################################
#
# If this CIF has been generated from an entry in the Cambridge 
# Structural Database, then it will include bibliographic, chemical, 
# crystal, experimental, refinement or atomic coordinate data resulting 
# from the CCDC's data processing and validation procedures.
#
#######################################################################

data_XERCOP
_chemical_formula_moiety         'C24 H21 Cl1 O5 S1'
_chemical_name_systematic        
'2-ethyl 4-methyl 3-(4-chlorophenyl)-2,8-dimethyl-2H-[1]benzothieno[3,2-b]pyran-2,4-dicarboxylate'
_symmetry_cell_setting           triclinic
_symmetry_space_group_name_H-M   'P -1'
_symmetry_Int_Tables_number      2
_space_group_name_Hall           '-P 1'
loop_
_symmetry_equiv_pos_site_id
_symmetry_equiv_pos_as_xyz
1 x,y,z
2 -x,-y,-z
_cell_length_a                   8.680(2)
_cell_length_b                   10.6240(15)
_cell_length_c                   12.798(2)
_cell_angle_alpha                79.965(14)
_cell_angle_beta                 74.188(18)
_cell_angle_gamma                89.590(15)
_cell_volume                     1117.14
_exptl_crystal_colour            colorless
_exptl_crystal_description       block
_cell_formula_units_Z            2
loop_
_atom_site_label
_atom_site_type_symbol
_atom_site_fract_x
_atom_site_fract_y
_atom_site_fract_z
S1 S 0.7597(2) 0.88262(15) 0.74174(14)
Cl1 Cl 0.7740(3) -0.02504(16) 1.02602(17)
O1 O 0.4509(5) 0.6247(3) 0.7278(3)
O2 O 0.7228(6) 0.4135(4) 0.5872(3)
O3 O 0.8065(6) 0.5528(5) 0.9703(4)
O4 O 0.9634(6) 0.6860(5) 0.8256(4)
O5 O 0.6195(6) 0.5976(4) 0.5252(4)
C1 C 0.6874(8) 0.3671(5) 0.8506(5)
C2 C 0.4896(8) 0.8601(5) 0.6874(5)
C3 C 0.5397(8) 0.5087(5) 0.7211(5)
C4 C 0.8362(8) 0.6087(6) 0.8752(6)
C5 C 0.7261(7) 0.6064(6) 0.8016(5)
C6 C 0.6552(8) 0.4969(5) 0.7944(5)
C7 C 0.3316(8) 1.0286(6) 0.6228(5)
C8 C 0.6804(8) 0.7278(5) 0.7498(5)
C9 C 0.6005(8) 0.9516(6) 0.6957(5)
C10 C 0.6312(8) 0.5148(5) 0.5995(5)
C11 C 0.3564(8) 0.8997(6) 0.6506(5)
H1 H 0.2839 0.8390 0.6448
C12 C 0.5757(9) 1.0829(6) 0.6666(5)
H2 H 0.6474 1.1448 0.6714
C13 C 0.5438(8) 0.7339(5) 0.7192(5)
C14 C 0.8261(8) 0.3060(6) 0.8109(5)
H3 H 0.9025 0.3459 0.7478
C15 C 0.4088(8) 0.4027(5) 0.7537(5)
H4 H 0.3353 0.4108 0.8232
H5 H 0.4565 0.3209 0.7603
H6 H 0.3523 0.4098 0.6982
C16 C 0.8537(9) 0.1850(6) 0.8643(6)
H7 H 0.9479 0.1448 0.8369
C17 C 0.4420(9) 1.1176(6) 0.6306(5)
H8 H 0.4257 1.2041 0.6109
C18 C 0.5757(9) 0.3059(6) 0.9459(5)
H9 H 0.4822 0.3462 0.9745
C19 C 0.7415(10) 0.1263(6) 0.9566(6)
C20 C 0.1883(9) 1.0738(6) 0.5850(6)
H10 H 0.1461 1.0065 0.5581
H11 H 0.2193 1.1470 0.5270
H12 H 0.1077 1.0968 0.6458
C21 C 0.6025(10) 0.1848(6) 0.9990(6)
H13 H 0.5271 0.1442 1.0624
C22 C 0.8045(10) 0.4011(7) 0.4741(5)
H14 H 0.8540 0.4829 0.4328
H15 H 0.7281 0.3743 0.4385
C23 C 1.0674(10) 0.7102(7) 0.8935(6)
H16 H 1.1117 0.7963 0.8699
H17 H 1.1527 0.6515 0.8855
H18 H 1.0061 0.6986 0.9695
C24 C 0.9291(10) 0.3044(7) 0.4762(6)
H19 H 0.9833 0.2950 0.4020
H20 H 0.8793 0.2238 0.5172
H21 H 1.0050 0.3321 0.5106
loop_
_geom_bond_atom_site_label_1
_geom_bond_atom_site_label_2
_geom_bond_site_symmetry_1
_geom_bond_site_symmetry_2
S1 C8 1_555 1_555
Cl1 C19 1_555 1_555
O1 C3 1_555 1_555
O2 C10 1_555 1_555
O3 C4 1_555 1_555
O4 C4 1_555 1_555
O5 C10 1_555 1_555
C1 C6 1_555 1_555
C2 C9 1_555 1_555
C3 C6 1_555 1_555
C4 C5 1_555 1_555
C5 C6 1_555 1_555
C7 C11 1_555 1_555
C8 C5 1_555 1_555
C9 S1 1_555 1_555
C10 C3 1_555 1_555
C11 C2 1_555 1_555
H1 C11 1_555 1_555
C12 C9 1_555 1_555
H2 C12 1_555 1_555
C13 O1 1_555 1_555
C14 C1 1_555 1_555
H3 C14 1_555 1_555
C15 C3 1_555 1_555
H4 C15 1_555 1_555
H5 C15 1_555 1_555
H6 C15 1_555 1_555
C16 C14 1_555 1_555
H7 C16 1_555 1_555
C17 C7 1_555 1_555
H8 C17 1_555 1_555
C18 C1 1_555 1_555
H9 C18 1_555 1_555
C19 C16 1_555 1_555
C20 C7 1_555 1_555
H10 C20 1_555 1_555
H11 C20 1_555 1_555
H12 C20 1_555 1_555
C21 C18 1_555 1_555
H13 C21 1_555 1_555
C22 O2 1_555 1_555
H14 C22 1_555 1_555
H15 C22 1_555 1_555
C23 O4 1_555 1_555
H16 C23 1_555 1_555
H17 C23 1_555 1_555
H18 C23 1_555 1_555
C24 C22 1_555 1_555
H19 C24 1_555 1_555
H20 C24 1_555 1_555
H21 C24 1_555 1_555
C2 C13 1_555 1_555
C8 C13 1_555 1_555
C12 C17 1_555 1_555
C19 C21 1_555 1_555

#END
