
#######################################################################
#
#                 Cambridge Crystallographic Data Centre
#                                CCDC 
#
#######################################################################
#
# If this CIF has been generated from an entry in the Cambridge 
# Structural Database, then it will include bibliographic, chemical, 
# crystal, experimental, refinement or atomic coordinate data resulting 
# from the CCDC's data processing and validation procedures.
#
#######################################################################

data_XERCEF
_chemical_formula_moiety         '2(C17 H10 O1),C10 H2 N4'
_chemical_name_systematic        
'benzene-1,2,4,5-tetracarbonitrile bis(pyrene-1-carbaldehyde)'
_symmetry_cell_setting           monoclinic
_symmetry_space_group_name_H-M   'P 21/n'
_symmetry_Int_Tables_number      14
_space_group_name_Hall           '-P 2yn'
loop_
_symmetry_equiv_pos_site_id
_symmetry_equiv_pos_as_xyz
1 x,y,z
2 1/2-x,1/2+y,1/2-z
3 -x,-y,-z
4 1/2+x,1/2-y,1/2+z
_cell_length_a                   8.5800(17)
_cell_length_b                   11.091(2)
_cell_length_c                   16.435(3)
_cell_angle_alpha                90
_cell_angle_beta                 97.56(3)
_cell_angle_gamma                90
_cell_volume                     1550.37
_exptl_crystal_colour            orange
_exptl_crystal_description       'rod like'
_cell_formula_units_Z            2
loop_
_atom_site_label
_atom_site_type_symbol
_atom_site_fract_x
_atom_site_fract_y
_atom_site_fract_z
O1 O -0.1335(5) 0.4437(3) 0.22156(18)
C1 C 0.0593(5) 0.4212(3) 0.3393(2)
C2 C 0.2174(5) 0.4437(3) 0.3623(2)
H1 H 0.2771 0.4754 0.3241
C3 C 0.2880(4) 0.4199(3) 0.4406(3)
H2 H 0.3948 0.4356 0.4542
C4 C 0.2047(4) 0.3735(3) 0.4995(2)
C5 C 0.0401(4) 0.3493(3) 0.4778(2)
C6 C -0.0328(5) 0.3715(3) 0.3972(2)
C7 C 0.2731(5) 0.3529(4) 0.5821(2)
H3 H 0.3794 0.3690 0.5969
C8 C 0.1900(6) 0.3118(4) 0.6382(3)
H4 H 0.2393 0.2990 0.6913
C9 C 0.0300(6) 0.2872(3) 0.6197(2)
C10 C -0.0467(5) 0.3047(3) 0.5387(2)
C11 C -0.0604(7) 0.2487(4) 0.6803(3)
H5 H -0.0131 0.2379 0.7340
C12 C -0.2181(7) 0.2270(4) 0.6604(3)
H6 H -0.2771 0.2038 0.7013
C13 C -0.2907(6) 0.2391(4) 0.5809(3)
H7 H -0.3968 0.2199 0.5687
C14 C -0.2083(5) 0.2794(3) 0.5184(3)
C15 C -0.2788(4) 0.2986(3) 0.4353(3)
H8 H -0.3843 0.2801 0.4198
C16 C -0.1925(5) 0.3432(3) 0.3797(2)
H9 H -0.2418 0.3561 0.3266
C17 C -0.0020(6) 0.4564(4) 0.2567(3)
H10 H 0.0691 0.4938 0.2268
C18 C 0.8596(4) 0.9651(3) 0.5261(2)
C19 C 0.9970(4) 0.9694(3) 0.58103(19)
C20 C 1.1373(4) 1.0044(3) 0.5553(2)
H11 H 1.2288 1.0073 0.5925
C21 C 0.7129(5) 0.9291(3) 0.5545(2)
C22 C 0.9911(4) 0.9369(3) 0.6665(2)
N1 N 0.6019(4) 0.9013(3) 0.5777(2)
N2 N 0.9837(4) 0.9114(3) 0.73242(19)
C18B C 1.1404(4) 1.0349(3) 0.4739(2)
C19B C 1.0030(4) 1.0306(3) 0.41897(19)
C20B C 0.8627(4) 0.9956(3) 0.4447(2)
H11B H 0.7712 0.9927 0.4075
C21B C 1.2871(5) 1.0709(3) 0.4455(2)
C22B C 1.0089(4) 1.0631(3) 0.3335(2)
N1B N 1.3981(4) 1.0987(3) 0.4223(2)
N2B N 1.0163(4) 1.0886(3) 0.26758(19)
loop_
_geom_bond_atom_site_label_1
_geom_bond_atom_site_label_2
_geom_bond_site_symmetry_1
_geom_bond_site_symmetry_2
O1 C17 1_555 1_555
C1 C2 1_555 1_555
C2 H1 1_555 1_555
C3 C2 1_555 1_555
H2 C3 1_555 1_555
C4 C3 1_555 1_555
C5 C4 1_555 1_555
C6 C1 1_555 1_555
C7 C4 1_555 1_555
H3 C7 1_555 1_555
C8 C7 1_555 1_555
H4 C8 1_555 1_555
C9 C8 1_555 1_555
C10 C5 1_555 1_555
C11 C9 1_555 1_555
H5 C11 1_555 1_555
C12 C11 1_555 1_555
H6 C12 1_555 1_555
C13 C12 1_555 1_555
H7 C13 1_555 1_555
C14 C10 1_555 1_555
C15 C14 1_555 1_555
H8 C15 1_555 1_555
C16 C6 1_555 1_555
H9 C16 1_555 1_555
C17 C1 1_555 1_555
H10 C17 1_555 1_555
C18 C19 1_555 1_555
C19 C20 1_555 1_555
C20 H11 1_555 1_555
C21 C18 1_555 1_555
C22 C19 1_555 1_555
N1 C21 1_555 1_555
N2 C22 1_555 1_555
C18B C20 1_555 1_555
C19B C18B 1_555 1_555
C20B C18 1_555 1_555
H11B C20B 1_555 1_555
C21B C18B 1_555 1_555
C22B C19B 1_555 1_555
N1B C21B 1_555 1_555
N2B C22B 1_555 1_555
C5 C6 1_555 1_555
C9 C10 1_555 1_555
C13 C14 1_555 1_555
C15 C16 1_555 1_555
C19B C20B 1_555 1_555

#END
