
#######################################################################
#
#                 Cambridge Crystallographic Data Centre
#                                CCDC 
#
#######################################################################
#
# If this CIF has been generated from an entry in the Cambridge 
# Structural Database, then it will include bibliographic, chemical, 
# crystal, experimental, refinement or atomic coordinate data resulting 
# from the CCDC's data processing and validation procedures.
#
#######################################################################

data_XERGIN
_chemical_formula_moiety         'C20 H16 O1'
_chemical_name_systematic        
1-phenyl-2,3-dihydro-1H-phenalene-2-carbaldehyde
_symmetry_cell_setting           monoclinic
_symmetry_space_group_name_H-M   'P 21/n'
_symmetry_Int_Tables_number      14
_space_group_name_Hall           '-P 2yn'
loop_
_symmetry_equiv_pos_site_id
_symmetry_equiv_pos_as_xyz
1 x,y,z
2 1/2-x,1/2+y,1/2-z
3 -x,-y,-z
4 1/2+x,1/2-y,1/2+z
_cell_length_a                   14.6522(17)
_cell_length_b                   5.5556(7)
_cell_length_c                   17.383(2)
_cell_angle_alpha                90
_cell_angle_beta                 98.333(2)
_cell_angle_gamma                90
_cell_volume                     1400.07
_exptl_crystal_colour            colorless
_exptl_crystal_description       block
_cell_formula_units_Z            4
loop_
_atom_site_label
_atom_site_type_symbol
_atom_site_fract_x
_atom_site_fract_y
_atom_site_fract_z
C1 C 0.11138(11) 0.5872(3) -0.04775(9)
H1 H 0.0719 0.6680 -0.0174
C2 C 0.07453(11) 0.4062(3) -0.10028(9)
H2 H 0.0108 0.3680 -0.1051
C3 C 0.12957(12) 0.2860(3) -0.14400(9)
H3 H 0.1042 0.1623 -0.1783
C4 C 0.22463(11) 0.3439(3) -0.13884(8)
C5 C 0.28282(12) 0.2261(3) -0.18510(9)
H4 H 0.2586 0.1008 -0.2193
C6 C 0.37343(12) 0.2899(3) -0.18136(10)
H5 H 0.4115 0.2105 -0.2132
C7 C 0.41036(12) 0.4739(3) -0.13011(9)
H6 H 0.4734 0.5171 -0.1279
C8 C 0.35701(11) 0.5917(3) -0.08334(9)
C9 C 0.26175(10) 0.5299(3) -0.08663(8)
C10 C 0.20328(10) 0.6491(3) -0.03959(8)
C11 C 0.24187(10) 0.8465(3) 0.01730(8)
H7 H 0.2331 1.0039 -0.0107
C12 C 0.34652(10) 0.8099(3) 0.04197(9)
H8 H 0.3564 0.6568 0.0723
C13 C 0.39639(11) 0.7906(3) -0.02981(9)
H9 H 0.3907 0.9453 -0.0584
H10 H 0.4628 0.7598 -0.0127
C14 C 0.19293(10) 0.8628(3) 0.08887(8)
C15 C 0.20501(10) 0.6849(3) 0.14594(9)
H11 H 0.2414 0.5475 0.1388
C16 C 0.16471(11) 0.7053(3) 0.21297(9)
H12 H 0.1749 0.5846 0.2520
C17 C 0.10937(10) 0.9022(3) 0.22308(9)
H13 H 0.0816 0.9163 0.2690
C18 C 0.09478(11) 1.0779(3) 0.16627(10)
H14 H 0.0562 1.2116 0.1727
C19 C 0.13691(11) 1.0585(3) 0.09934(9)
H15 H 0.1272 1.1803 0.0606
C20 C 0.38955(11) 1.0132(3) 0.09157(10)
H16 H 0.4410 0.9741 0.1293
O1 O 0.36595(10) 1.2163(2) 0.08843(8)
loop_
_geom_bond_atom_site_label_1
_geom_bond_atom_site_label_2
_geom_bond_site_symmetry_1
_geom_bond_site_symmetry_2
C1 H1 1_555 1_555
C2 C1 1_555 1_555
H2 C2 1_555 1_555
C3 C2 1_555 1_555
H3 C3 1_555 1_555
C4 C3 1_555 1_555
C5 C4 1_555 1_555
H4 C5 1_555 1_555
C6 C5 1_555 1_555
H5 C6 1_555 1_555
C7 C6 1_555 1_555
H6 C7 1_555 1_555
C8 C7 1_555 1_555
C9 C4 1_555 1_555
C10 C1 1_555 1_555
C11 C10 1_555 1_555
H7 C11 1_555 1_555
C12 C11 1_555 1_555
H8 C12 1_555 1_555
C13 C8 1_555 1_555
H9 C13 1_555 1_555
H10 C13 1_555 1_555
C14 C11 1_555 1_555
C15 C14 1_555 1_555
H11 C15 1_555 1_555
C16 C15 1_555 1_555
H12 C16 1_555 1_555
C17 C16 1_555 1_555
H13 C17 1_555 1_555
C18 C17 1_555 1_555
H14 C18 1_555 1_555
C19 C14 1_555 1_555
H15 C19 1_555 1_555
C20 C12 1_555 1_555
H16 C20 1_555 1_555
O1 C20 1_555 1_555
C8 C9 1_555 1_555
C9 C10 1_555 1_555
C12 C13 1_555 1_555
C18 C19 1_555 1_555

#END
