
#######################################################################
#
#                 Cambridge Crystallographic Data Centre
#                                CCDC 
#
#######################################################################
#
# If this CIF has been generated from an entry in the Cambridge 
# Structural Database, then it will include bibliographic, chemical, 
# crystal, experimental, refinement or atomic coordinate data resulting 
# from the CCDC's data processing and validation procedures.
#
#######################################################################

data_XERGAF
_chemical_formula_moiety         'C20 H16 O1'
_chemical_name_systematic        
2-phenyl-2,3-dihydro-1H-phenalene-1-carbaldehyde
_symmetry_cell_setting           orthorhombic
_symmetry_space_group_name_H-M   'P 21 21 21'
_symmetry_Int_Tables_number      19
_space_group_name_Hall           'P 2ac 2ab'
loop_
_symmetry_equiv_pos_site_id
_symmetry_equiv_pos_as_xyz
1 x,y,z
2 1/2+x,1/2-y,-z
3 -x,1/2+y,1/2-z
4 1/2-x,-y,1/2+z
_cell_length_a                   7.5161(14)
_cell_length_b                   8.9972(18)
_cell_length_c                   21.410(4)
_cell_angle_alpha                90
_cell_angle_beta                 90
_cell_angle_gamma                90
_cell_volume                     1447.83
_exptl_crystal_colour            colorless
_exptl_crystal_description       block
_cell_formula_units_Z            4
loop_
_atom_site_label
_atom_site_type_symbol
_atom_site_fract_x
_atom_site_fract_y
_atom_site_fract_z
C1 C 1.0202(3) 0.8129(3) -0.05691(10)
H1 H 0.9227 0.7537 -0.0470
C2 C 1.0998(4) 0.7984(3) -0.11489(11)
H2 H 1.0551 0.7308 -0.1438
C3 C 1.2442(4) 0.8839(3) -0.12958(11)
H3 H 1.2973 0.8751 -0.1686
C4 C 1.3108(3) 0.9826(3) -0.08664(11)
H4 H 1.4104 1.0394 -0.0964
C5 C 1.2304(3) 0.9979(3) -0.02899(10)
H5 H 1.2758 1.0655 -0.0003
C6 C 1.0826(3) 0.9134(2) -0.01350(10)
C7 C 0.9875(3) 0.9308(3) 0.04814(9)
H6 H 0.9095 0.8443 0.0529
C8 C 1.1091(3) 0.9338(4) 0.10451(10)
H7 H 1.1838 0.8459 0.1042
H8 H 1.1860 1.0202 0.1020
C9 C 1.0060(4) 0.9391(3) 0.16434(10)
C10 C 0.8389(3) 1.0105(3) 0.16511(11)
C11 C 0.7662(3) 1.0783(3) 0.11046(11)
C12 C 0.8674(3) 1.0697(3) 0.04930(10)
H9 H 0.9424 1.1583 0.0453
C13 C 1.0690(5) 0.8730(3) 0.21713(12)
H10 H 1.1786 0.8251 0.2163
C14 C 0.9704(6) 0.8763(4) 0.27266(13)
H11 H 1.0144 0.8294 0.3082
C15 C 0.8133(5) 0.9462(4) 0.27509(13)
H12 H 0.7517 0.9504 0.3127
C16 C 0.7399(4) 1.0138(3) 0.22150(12)
C17 C 0.5720(5) 1.0850(4) 0.22135(16)
H13 H 0.5050 1.0867 0.2579
C18 C 0.5076(5) 1.1498(4) 0.16989(16)
H14 H 0.3977 1.1971 0.1713
C19 C 0.6044(4) 1.1471(3) 0.11369(13)
H15 H 0.5577 1.1927 0.0783
C20 C 0.7418(3) 1.0646(3) -0.00443(12)
H16 H 0.6644 0.9841 -0.0061
O1 O 0.7304(3) 1.1541(2) -0.04569(9)
loop_
_geom_bond_atom_site_label_1
_geom_bond_atom_site_label_2
_geom_bond_site_symmetry_1
_geom_bond_site_symmetry_2
C1 H1 1_555 1_555
C2 C1 1_555 1_555
H2 C2 1_555 1_555
C3 C2 1_555 1_555
H3 C3 1_555 1_555
C4 C3 1_555 1_555
H4 C4 1_555 1_555
C5 C4 1_555 1_555
H5 C5 1_555 1_555
C6 C1 1_555 1_555
C7 C6 1_555 1_555
H6 C7 1_555 1_555
C8 C7 1_555 1_555
H7 C8 1_555 1_555
H8 C8 1_555 1_555
C9 C8 1_555 1_555
C10 C9 1_555 1_555
C11 C10 1_555 1_555
C12 C7 1_555 1_555
H9 C12 1_555 1_555
C13 C9 1_555 1_555
H10 C13 1_555 1_555
C14 C13 1_555 1_555
H11 C14 1_555 1_555
C15 C14 1_555 1_555
H12 C15 1_555 1_555
C16 C10 1_555 1_555
C17 C16 1_555 1_555
H13 C17 1_555 1_555
C18 C17 1_555 1_555
H14 C18 1_555 1_555
C19 C11 1_555 1_555
H15 C19 1_555 1_555
C20 C12 1_555 1_555
H16 C20 1_555 1_555
O1 C20 1_555 1_555
C5 C6 1_555 1_555
C11 C12 1_555 1_555
C15 C16 1_555 1_555
C18 C19 1_555 1_555

#END
