
#######################################################################
#
#                 Cambridge Crystallographic Data Centre
#                                CCDC 
#
#######################################################################
#
# If this CIF has been generated from an entry in the Cambridge 
# Structural Database, then it will include bibliographic, chemical, 
# crystal, experimental, refinement or atomic coordinate data resulting 
# from the CCDC's data processing and validation procedures.
#
#######################################################################

data_XERJAF
_chemical_formula_moiety         'C24 H18 O5'
_chemical_name_systematic        
'(3-Phenyl-2(5H)-oxofuran-4-yl) 5-methoxy-2-phenylbenzoate'
_symmetry_cell_setting           orthorhombic
_symmetry_space_group_name_H-M   'P b c a'
_symmetry_Int_Tables_number      61
_space_group_name_Hall           '-P 2ac 2ab'
loop_
_symmetry_equiv_pos_site_id
_symmetry_equiv_pos_as_xyz
1 x,y,z
2 1/2-x,-y,1/2+z
3 1/2+x,1/2-y,-z
4 -x,1/2+y,1/2-z
5 -x,-y,-z
6 1/2+x,y,1/2-z
7 1/2-x,1/2+y,z
8 x,1/2-y,1/2+z
_cell_length_a                   21.160(2)
_cell_length_b                   25.365(2)
_cell_length_c                   7.022(1)
_cell_angle_alpha                90
_cell_angle_beta                 90
_cell_angle_gamma                90
_cell_volume                     3768.87
_exptl_crystal_colour            colorless
_exptl_crystal_description       parallelepiped
_cell_formula_units_Z            8
_exptl_crystal_recrystallization_method chlorobutane
loop_
_atom_site_label
_atom_site_type_symbol
_atom_site_fract_x
_atom_site_fract_y
_atom_site_fract_z
O1 O 0.6435(1) 0.0824(1) 0.1639(3)
O2 O 0.5402(1) 0.0753(1) 0.2438(2)
O3 O 0.5626(1) -0.0652(1) 0.1833(2)
O4 O 0.4681(1) -0.1006(1) 0.2415(3)
O5 O 0.4467(1) 0.2436(1) 0.0973(2)
C1 C 0.5944(1) 0.1036(1) 0.2031(3)
C2 C 0.5372(1) 0.0215(1) 0.2314(3)
C3 C 0.5912(1) -0.0136(1) 0.1851(3)
C4 C 0.5003(1) -0.0616(1) 0.2309(3)
C5 C 0.4833(1) -0.0057(1) 0.2620(3)
C6 C 0.4191(1) 0.0127(1) 0.3115(3)
C7 C 0.4075(1) 0.0652(1) 0.3646(4)
C8 C 0.3473(1) 0.0823(1) 0.4057(4)
C9 C 0.2965(1) 0.0485(1) 0.3978(4)
C10 C 0.3071(1) -0.0031(1) 0.3478(4)
C11 C 0.3671(1) -0.0214(1) 0.3061(4)
C12 C 0.5808(1) 0.1609(1) 0.2120(3)
C13 C 0.6284(1) 0.1977(1) 0.2639(3)
C14 C 0.6121(1) 0.2511(1) 0.2552(3)
C15 C 0.5533(1) 0.2684(1) 0.2010(3)
C16 C 0.5070(1) 0.2317(1) 0.1524(3)
C17 C 0.5213(1) 0.1780(1) 0.1581(3)
C18 C 0.4293(1) 0.2983(1) 0.1035(4)
C19 C 0.6929(1) 0.1829(1) 0.3370(3)
C20 C 0.6987(1) 0.1509(1) 0.4959(4)
C21 C 0.7582(2) 0.1420(1) 0.5729(5)
C22 C 0.8110(1) 0.1654(1) 0.4911(6)
C23 C 0.8039(1) 0.1982(1) 0.3351(5)
C24 C 0.7454(1) 0.2072(1) 0.2607(4)
H1 H 0.6065 -0.0054 0.0612
H2 H 0.6216 -0.0118 0.2842
H3 H 0.4420 0.0891 0.3722
H4 H 0.3408 0.1182 0.4404
H5 H 0.2549 0.0606 0.4266
H6 H 0.2725 -0.0269 0.3415
H7 H 0.3732 -0.0573 0.2740
H8 H 0.6432 0.2764 0.2890
H9 H 0.5441 0.3051 0.1963
H10 H 0.4897 0.1530 0.1252
H11 H 0.4369 0.3120 0.2276
H12 H 0.3858 0.3021 0.0733
H13 H 0.4540 0.3176 0.0137
H14 H 0.6623 0.1353 0.5526
H15 H 0.7630 0.1199 0.6808
H16 H 0.8519 0.1590 0.5424
H17 H 0.8403 0.2146 0.2796
H18 H 0.7404 0.2307 0.1545
loop_
_geom_bond_atom_site_label_1
_geom_bond_atom_site_label_2
_geom_bond_site_symmetry_1
_geom_bond_site_symmetry_2
O1 C1 1_555 1_555
O2 C1 1_555 1_555
O3 C3 1_555 1_555
O4 C4 1_555 1_555
O5 C16 1_555 1_555
C1 C12 1_555 1_555
C2 O2 1_555 1_555
C3 C2 1_555 1_555
C4 O3 1_555 1_555
C5 C2 1_555 1_555
C6 C5 1_555 1_555
C7 C6 1_555 1_555
C8 C7 1_555 1_555
C9 C8 1_555 1_555
C10 C9 1_555 1_555
C11 C6 1_555 1_555
C12 C13 1_555 1_555
C13 C14 1_555 1_555
C14 C15 1_555 1_555
C15 C16 1_555 1_555
C16 C17 1_555 1_555
C17 C12 1_555 1_555
C18 O5 1_555 1_555
C19 C13 1_555 1_555
C20 C19 1_555 1_555
C21 C20 1_555 1_555
C22 C21 1_555 1_555
C23 C22 1_555 1_555
C24 C19 1_555 1_555
H1 C3 1_555 1_555
H2 C3 1_555 1_555
H3 C7 1_555 1_555
H4 C8 1_555 1_555
H5 C9 1_555 1_555
H6 C10 1_555 1_555
H7 C11 1_555 1_555
H8 C14 1_555 1_555
H9 C15 1_555 1_555
H10 C17 1_555 1_555
H11 C18 1_555 1_555
H12 C18 1_555 1_555
H13 C18 1_555 1_555
H14 C20 1_555 1_555
H15 C21 1_555 1_555
H16 C22 1_555 1_555
H17 C23 1_555 1_555
H18 C24 1_555 1_555
C4 C5 1_555 1_555
C10 C11 1_555 1_555
C23 C24 1_555 1_555

#END
