
#######################################################################
#
#                 Cambridge Crystallographic Data Centre
#                                CCDC 
#
#######################################################################
#
# If this CIF has been generated from an entry in the Cambridge 
# Structural Database, then it will include bibliographic, chemical, 
# crystal, experimental, refinement or atomic coordinate data resulting 
# from the CCDC's data processing and validation procedures.
#
#######################################################################

data_XERJEJ
_chemical_formula_moiety         'C18 H15 N1 O4'
_chemical_name_systematic        
"16-Methoxy-1-methylspiro(1,3,4-trihydroquinoline-4,3'-3-hydroisobenzofuran)-2,11-dione unknown solvate"
_symmetry_cell_setting           triclinic
_symmetry_space_group_name_H-M   'P -1'
_symmetry_Int_Tables_number      2
_space_group_name_Hall           '-P 1'
loop_
_symmetry_equiv_pos_site_id
_symmetry_equiv_pos_as_xyz
1 x,y,z
2 -x,-y,-z
_cell_length_a                   10.603(1)
_cell_length_b                   11.851(1)
_cell_length_c                   7.345(1)
_cell_angle_alpha                101.26(1)
_cell_angle_beta                 95.22(1)
_cell_angle_gamma                109.50(1)
_cell_volume                     840.999
_exptl_crystal_colour            colorless
_exptl_crystal_description       'irregular block'
_cell_formula_units_Z            2
_exptl_crystal_recrystallization_method chlorobutane/dichloromethane/hexanes
loop_
_atom_site_label
_atom_site_type_symbol
_atom_site_fract_x
_atom_site_fract_y
_atom_site_fract_z
O1 O 0.1497(2) -0.2447(1) 0.2025(2)
O2 O 0.3065(1) 0.0436(1) 0.0443(2)
O3 O 0.4204(2) 0.0989(1) -0.1844(2)
O4 O 0.8535(2) 0.4237(1) 0.3584(2)
N1 N 0.0617(2) -0.0930(2) 0.2251(2)
C1 C 0.3244(2) 0.0785(2) 0.2537(3)
C2 C 0.3058(2) -0.0385(2) 0.3198(3)
C3 C 0.1671(2) -0.1342(2) 0.2442(3)
C4 C -0.0759(3) -0.1828(2) 0.1585(4)
C5 C 0.0816(2) 0.0345(2) 0.2796(3)
C6 C 0.2108(2) 0.1233(2) 0.3016(3)
C7 C -0.0289(3) 0.0716(2) 0.3064(3)
C8 C -0.0085(3) 0.1959(2) 0.3588(3)
C9 C 0.1188(3) 0.2839(2) 0.3863(3)
C10 C 0.2290(3) 0.2474(2) 0.3564(3)
C11 C 0.4167(2) 0.1095(2) -0.0180(3)
C12 C 0.5205(2) 0.1901(2) 0.1468(3)
C13 C 0.4663(2) 0.1723(2) 0.3071(3)
C14 C 0.6510(2) 0.2715(2) 0.1501(3)
C15 C 0.7260(2) 0.3380(2) 0.3263(3)
C16 C 0.6720(2) 0.3188(2) 0.4904(3)
C17 C 0.5432(2) 0.2369(2) 0.4829(3)
C18 C 0.9116(3) 0.4557(3) 0.1993(4)
H1 H 0.3689(25) -0.0759(21) 0.2761(31)
H2 H 0.3185(22) -0.0201(18) 0.4539(34)
H3 H -0.1258(27) -0.1584(23) 0.0609(37)
H4 H -0.1254(30) -0.1925(25) 0.2585(41)
H5 H -0.0657(30) -0.2559(30) 0.1200(39)
H6 H -0.1193(31) 0.0095(25) 0.2871(37)
H7 H -0.0828(34) 0.2243(28) 0.3813(41)
H8 H 0.1349(27) 0.3750(26) 0.4246(36)
H9 H 0.3222(26) 0.3083(22) 0.3769(30)
H10 H 0.6850(24) 0.2830(20) 0.0327(34)
H11 H 0.7269(27) 0.3644(23) 0.6136(38)
H12 H 0.5064(24) 0.2244(20) 0.5968(33)
H13 H 0.8501(32) 0.4799(26) 0.1168(42)
H14 H 0.9985(33) 0.5214(27) 0.2430(37)
H15 H 0.9213(27) 0.3863(26) 0.1312(38)
Cl1? Cl -0.3566(2) -0.4354(2) -0.0781(5)
C19? C -0.3713(6) -0.3984(6) 0.0930(18)
C20? C -0.3724(4) -0.4137(4) 0.2081(9)
C21? C -0.4936(7) -0.5382(4) -0.0204(10)
C22? C -0.5345(13) -0.5242(6) -0.2461(9)
C23? C -0.4526(9) -0.5198(6) -0.1789(7)
loop_
_geom_bond_atom_site_label_1
_geom_bond_atom_site_label_2
_geom_bond_site_symmetry_1
_geom_bond_site_symmetry_2
O1 C3 1_555 1_555
O2 C1 1_555 1_555
O3 C11 1_555 1_555
O4 C15 1_555 1_555
N1 C3 1_555 1_555
C1 C2 1_555 1_555
C2 C3 1_555 1_555
C4 N1 1_555 1_555
C5 N1 1_555 1_555
C6 C1 1_555 1_555
C7 C5 1_555 1_555
C8 C7 1_555 1_555
C9 C8 1_555 1_555
C10 C6 1_555 1_555
C11 O2 1_555 1_555
C12 C11 1_555 1_555
C13 C1 1_555 1_555
C14 C12 1_555 1_555
C15 C14 1_555 1_555
C16 C15 1_555 1_555
C17 C13 1_555 1_555
C18 O4 1_555 1_555
H1 C2 1_555 1_555
H2 C2 1_555 1_555
H3 C4 1_555 1_555
H4 C4 1_555 1_555
H5 C4 1_555 1_555
H6 C7 1_555 1_555
H7 C8 1_555 1_555
H8 C9 1_555 1_555
H9 C10 1_555 1_555
H10 C14 1_555 1_555
H11 C16 1_555 1_555
H12 C17 1_555 1_555
H13 C18 1_555 1_555
H14 C18 1_555 1_555
H15 C18 1_555 1_555
C5 C6 1_555 1_555
C9 C10 1_555 1_555
C12 C13 1_555 1_555
C16 C17 1_555 1_555

#END
