
#######################################################################
#
#                 Cambridge Crystallographic Data Centre
#                                CCDC 
#
#######################################################################
#
# If this CIF has been generated from an entry in the Cambridge 
# Structural Database, then it will include bibliographic, chemical, 
# crystal, experimental, refinement or atomic coordinate data resulting 
# from the CCDC's data processing and validation procedures.
#
#######################################################################

data_XERMUC
_chemical_formula_moiety         'C26 H16 N2 O3'
_chemical_name_systematic        'O-(9-Nitro-9-fluorenyl)fluorenone oxime'
_symmetry_cell_setting           monoclinic
_symmetry_space_group_name_H-M   'P 21/n'
_symmetry_Int_Tables_number      14
_space_group_name_Hall           '-P 2yn'
loop_
_symmetry_equiv_pos_site_id
_symmetry_equiv_pos_as_xyz
1 x,y,z
2 1/2-x,1/2+y,1/2-z
3 -x,-y,-z
4 1/2+x,1/2-y,1/2+z
_cell_length_a                   9.8776(6)
_cell_length_b                   11.9206(6)
_cell_length_c                   17.4262(12)
_cell_angle_alpha                90
_cell_angle_beta                 101.550(3)
_cell_angle_gamma                90
_cell_volume                     2010.33
_exptl_crystal_colour            'pale yellow'
_exptl_crystal_description       'irregular chunk'
_chemical_melting_point          '80 deg.C'
_cell_formula_units_Z            4
_exptl_crystal_recrystallization_method acetonitrile/benzene
loop_
_atom_site_label
_atom_site_type_symbol
_atom_site_fract_x
_atom_site_fract_y
_atom_site_fract_z
O1 O 0.2186(3) 0.5252(2) 0.3364(2)
O2 O 0.4234(3) 0.5825(3) 0.3579(2)
N1 N 0.3067(3) 0.5882(3) 0.3665(2)
O3 O 0.3937(8) 0.7273(6) 0.4600(4)
N2 N 0.4183(9) 0.8082(7) 0.4065(5)
C1 C 0.6464(11) 0.7718(11) 0.5719(7)
H1 H 0.5808(11) 0.7155(11) 0.5705(7)
C2 C 0.7604(20) 0.7787(17) 0.6370(10)
H2 H 0.7707(20) 0.7272(17) 0.6779(10)
C3 C 0.8562(12) 0.8658(12) 0.6371(7)
H3 H 0.9304(12) 0.8731(12) 0.6790(7)
C4 C 0.8417(21) 0.9393(18) 0.5765(11)
H4 H 0.9070(21) 0.9957(18) 0.5775(11)
C5 C 0.7336(19) 0.9325(21) 0.5142(12)
C6 C 0.6955(27) 0.9990(25) 0.4438(15)
C7 C 0.7568(28) 1.0932(19) 0.4182(14)
H5 H 0.8335(28) 1.1261(19) 0.4499(14)
C8 C 0.7019(17) 1.1380(13) 0.3444(8)
H6 H 0.7455(17) 1.1985(13) 0.3258(8)
C9 C 0.5851(11) 1.0939(8) 0.2995(6)
H7 H 0.5478(11) 1.1259(8) 0.2513(6)
C10 C 0.5215(12) 1.0013(10) 0.3255(8)
H8 H 0.4416(12) 0.9712(10) 0.2951(8)
C11 C 0.5800(13) 0.9541(10) 0.3983(9)
C12 C 0.5317(10) 0.8607(10) 0.4387(7)
C13 C 0.6333(16) 0.8465(11) 0.5126(8)
C14 C 0.1135(4) 0.8029(3) 0.3093(2)
H9 H 0.1846(4) 0.8136(3) 0.2823(2)
C15 C -0.0141(4) 0.8486(3) 0.2821(2)
H10 H -0.0290(4) 0.8919(3) 0.2368(2)
C16 C -0.1208(4) 0.8313(3) 0.3209(3)
H11 H -0.2079(4) 0.8605(3) 0.3006(3)
C17 C -0.0993(3) 0.7713(3) 0.3891(3)
H12 H -0.1707(3) 0.7618(3) 0.4162(3)
C18 C 0.0294(3) 0.7249(3) 0.4177(2)
C19 C 0.0832(3) 0.6589(3) 0.4874(2)
C20 C 0.0215(4) 0.6237(3) 0.5481(3)
H13 H -0.0695(4) 0.6429(3) 0.5490(3)
C21 C 0.0972(5) 0.5601(4) 0.6065(2)
H14 H 0.0567(5) 0.5371(4) 0.6477(2)
C22 C 0.2315(5) 0.5287(4) 0.6067(2)
H15 H 0.2799(5) 0.4842(4) 0.6468(2)
C23 C 0.2941(4) 0.5645(4) 0.5460(2)
H16 H 0.3847(4) 0.5444(4) 0.5449(2)
C24 C 0.2194(3) 0.6298(3) 0.4882(2)
C25 C 0.2639(3) 0.6830(3) 0.4193(2)
C26 C 0.1351(3) 0.7414(3) 0.3768(2)
O4? O 0.3600(9) 0.7790(7) 0.4230(5)
N3? N 0.4754(7) 0.7540(6) 0.4855(4)
C27? C 0.7218(16) 0.7560(12) 0.6136(9)
H17? H 0.6640(16) 0.6962(12) 0.6190(9)
C28? C 0.8461(8) 0.7739(9) 0.6699(6)
H18? H 0.8704(8) 0.7262(9) 0.7127(6)
C29? C 0.9289(9) 0.8625(11) 0.6601(7)
H19? H 1.0100(9) 0.8738(11) 0.6969(7)
C30? C 0.8965(18) 0.9373(21) 0.5965(13)
H20? H 0.9534(18) 0.9975(21) 0.5907(13)
C31? C 0.7733(23) 0.9160(20) 0.5423(12)
C32? C 0.7131(23) 0.9757(20) 0.4724(13)
C33? C 0.7583(29) 1.0655(21) 0.4357(13)
H21? H 0.8438(29) 1.0973(21) 0.4563(13)
C34? C 0.6783(20) 1.1096(13) 0.3682(11)
H22? H 0.7077(20) 1.1735(13) 0.3458(11)
C35? C 0.5531(14) 1.0585(12) 0.3335(9)
H23? H 0.5005(14) 1.0857(12) 0.2869(9)
C36? C 0.5103(13) 0.9667(9) 0.3704(8)
H24? H 0.4274(13) 0.9321(9) 0.3482(8)
C37? C 0.5851(12) 0.9252(11) 0.4381(6)
C38? C 0.5682(14) 0.8304(11) 0.4884(9)
C39? C 0.6895(10) 0.8262(10) 0.5528(8)
loop_
_geom_bond_atom_site_label_1
_geom_bond_atom_site_label_2
_geom_bond_site_symmetry_1
_geom_bond_site_symmetry_2
O1 N1 1_555 1_555
O2 N1 1_555 1_555
N1 C25 1_555 1_555
O3 N2 1_555 1_555
N2 C12 1_555 1_555
C1 H1 1_555 1_555
C2 C1 1_555 1_555
H2 C2 1_555 1_555
C3 C2 1_555 1_555
H3 C3 1_555 1_555
C4 C3 1_555 1_555
H4 C4 1_555 1_555
C5 C4 1_555 1_555
C6 C5 1_555 1_555
C7 C6 1_555 1_555
H5 C7 1_555 1_555
C8 C7 1_555 1_555
H6 C8 1_555 1_555
C9 C8 1_555 1_555
H7 C9 1_555 1_555
C10 C9 1_555 1_555
H8 C10 1_555 1_555
C11 C6 1_555 1_555
C12 C11 1_555 1_555
C13 C1 1_555 1_555
C14 H9 1_555 1_555
C15 C14 1_555 1_555
H10 C15 1_555 1_555
C16 C15 1_555 1_555
H11 C16 1_555 1_555
C17 C16 1_555 1_555
H12 C17 1_555 1_555
C18 C17 1_555 1_555
C19 C18 1_555 1_555
C20 C19 1_555 1_555
H13 C20 1_555 1_555
C21 C20 1_555 1_555
H14 C21 1_555 1_555
C22 C21 1_555 1_555
H15 C22 1_555 1_555
C23 C22 1_555 1_555
H16 C23 1_555 1_555
C24 C19 1_555 1_555
C25 O3 1_555 1_555
C26 C14 1_555 1_555
C5 C13 1_555 1_555
C10 C11 1_555 1_555
C12 C13 1_555 1_555
C18 C26 1_555 1_555
C23 C24 1_555 1_555
C24 C25 1_555 1_555
C25 C26 1_555 1_555

#END
