
#######################################################################
#
#                 Cambridge Crystallographic Data Centre
#                                CCDC 
#
#######################################################################
#
# If this CIF has been generated from an entry in the Cambridge 
# Structural Database, then it will include bibliographic, chemical, 
# crystal, experimental, refinement or atomic coordinate data resulting 
# from the CCDC's data processing and validation procedures.
#
#######################################################################

data_XERPOB
_chemical_name_common            2a
_chemical_formula_moiety         'C42 H58 Ca1 N4 O2'
_chemical_name_systematic        
bis(2,6-di-isopropyl-N-((1H-pyrrol-2-yl)methylene)anilinato)-(bis(tetrahydrofuran))-calcium
_symmetry_cell_setting           monoclinic
_symmetry_space_group_name_H-M   'P 21/c'
_symmetry_Int_Tables_number      14
_space_group_name_Hall           '-P 2ybc'
loop_
_symmetry_equiv_pos_site_id
_symmetry_equiv_pos_as_xyz
1 x,y,z
2 -x,1/2+y,1/2-z
3 -x,-y,-z
4 x,1/2-y,1/2+z
_cell_length_a                   12.247(5)
_cell_length_b                   18.471(5)
_cell_length_c                   18.353(5)
_cell_angle_alpha                90
_cell_angle_beta                 103.398(5)
_cell_angle_gamma                90
_cell_volume                     4038.72
_exptl_crystal_colour            colorless
_exptl_crystal_description       block
_cell_formula_units_Z            4
loop_
_atom_site_label
_atom_site_type_symbol
_atom_site_fract_x
_atom_site_fract_y
_atom_site_fract_z
Ca1 Ca 0.73338(4) 0.28175(3) 0.91446(3)
O1 O 0.69704(18) 0.24312(11) 0.78689(11)
O2 O 0.89036(16) 0.35167(10) 0.89485(11)
N1 N 0.73382(18) 0.36396(12) 1.01735(12)
N2 N 0.59168(17) 0.38018(12) 0.86658(12)
N3 N 0.63238(17) 0.18207(12) 0.95020(12)
N4 N 0.87168(17) 0.18005(12) 0.95871(11)
C1 C 0.7810(2) 0.37862(16) 1.08987(15)
H1 H 0.8341 0.3481 1.1214
C2 C 0.7424(2) 0.44404(17) 1.11318(17)
H2 H 0.7635 0.4651 1.1616
C3 C 0.6673(2) 0.47175(16) 1.05135(17)
H3 H 0.6269 0.5160 1.0487
C4 C 0.6625(2) 0.42174(14) 0.99344(15)
C5 C 0.5939(2) 0.42690(15) 0.91967(15)
H4 H 0.5459 0.4678 0.9084
C6 C 0.5125(2) 0.39695(14) 0.79744(15)
C7 C 0.4098(2) 0.35949(15) 0.78061(15)
C8 C 0.3312(2) 0.37946(16) 0.71511(17)
H5 H 0.2613 0.3549 0.7020
C9 C 0.3535(3) 0.43403(18) 0.66949(18)
H6 H 0.2976 0.4483 0.6268
C10 C 0.4564(2) 0.46808(17) 0.68538(17)
H7 H 0.4716 0.5045 0.6525
C11 C 0.5387(2) 0.44977(15) 0.74929(16)
C12 C 0.6531(3) 0.48635(17) 0.76453(18)
H8 H 0.7063 0.4559 0.8017
C13 C 0.6499(3) 0.56120(19) 0.7991(2)
H9 H 0.7247 0.5831 0.8084
H10 H 0.6265 0.5567 0.8464
H11 H 0.5963 0.5919 0.7645
C14 C 0.6997(3) 0.4917(2) 0.69401(19)
H12 H 0.7734 0.5153 0.7065
H13 H 0.6482 0.5202 0.6559
H14 H 0.7074 0.4430 0.6746
C15 C 0.3431(3) 0.33163(17) 0.89843(18)
H15 H 0.3287 0.2919 0.9304
H16 H 0.2736 0.3588 0.8795
H17 H 0.4003 0.3640 0.9277
C16 C 0.3850(2) 0.30065(15) 0.83231(16)
H18 H 0.4574 0.2751 0.8536
C17 C 0.3016(3) 0.24343(17) 0.79182(19)
H19 H 0.2898 0.2069 0.8279
H20 H 0.3320 0.2202 0.7527
H21 H 0.2300 0.2667 0.7690
C18 C 0.5312(2) 0.16183(15) 0.96107(15)
H22 H 0.4662 0.1917 0.9495
C19 C 0.5326(2) 0.09212(15) 0.99120(16)
H23 H 0.4716 0.0668 1.0032
C20 C 0.6423(2) 0.06787(15) 0.99974(16)
H24 H 0.6713 0.0222 1.0189
C21 C 0.7018(2) 0.12352(14) 0.97476(14)
C22 C 0.8183(2) 0.12461(14) 0.97715(14)
H25 H 0.8603 0.0820 0.9933
C23 C 0.9903(2) 0.17049(14) 0.96656(14)
C24 C 1.0319(2) 0.12306(15) 0.91926(15)
C25 C 1.1482(2) 0.11483(16) 0.93130(16)
H26 H 1.1777 0.0822 0.9008
C26 C 1.2211(2) 0.15302(17) 0.98651(17)
H27 H 1.2998 0.1464 0.9939
C27 C 1.1791(2) 0.20120(16) 1.03118(16)
H28 H 1.2298 0.2280 1.0685
C28 C 1.0642(2) 0.21098(14) 1.02222(14)
C29 C 0.9916(2) 0.21548(16) 1.13910(15)
H29 H 0.9612 0.2475 1.1722
H30 H 1.0607 0.1928 1.1675
H31 H 0.9363 0.1779 1.1190
C30 C 1.0172(2) 0.25986(15) 1.07426(15)
H32 H 0.9446 0.2801 1.0448
C31 C 1.0942(3) 0.32411(16) 1.10470(17)
H33 H 1.0594 0.3534 1.1377
H34 H 1.1053 0.3539 1.0628
H35 H 1.1668 0.3060 1.1330
C32 C 0.9820(3) 0.10440(19) 0.78041(17)
H36 H 0.9323 0.0780 0.7395
H37 H 1.0603 0.0925 0.7814
H38 H 0.9702 0.1566 0.7726
C33 C 0.9556(2) 0.08266(16) 0.85512(15)
H39 H 0.8764 0.0971 0.8536
C34 C 0.9649(3) -0.00039(17) 0.86593(18)
H40 H 0.9146 -0.0244 0.8235
H41 H 0.9435 -0.0137 0.9124
H42 H 1.0423 -0.0157 0.8687
C35 C 0.7148(3) 0.28483(19) 0.72449(17)
H43 H 0.7836 0.2685 0.7097
H44 H 0.7229 0.3368 0.7377
C36 C 0.6134(3) 0.2727(2) 0.66183(18)
H45 H 0.6348 0.2698 0.6131
H46 H 0.5586 0.3125 0.6596
C37 C 0.5645(3) 0.2020(2) 0.6798(2)
H47 H 0.5678 0.1653 0.6411
H48 H 0.4854 0.2084 0.6827
C38 C 0.6365(3) 0.17915(19) 0.75526(19)
H49 H 0.5889 0.1611 0.7882
H50 H 0.6894 0.1404 0.7489
C39 C 0.9770(3) 0.33143(17) 0.85702(18)
H51 H 0.9497 0.2935 0.8190
H52 H 1.0444 0.3133 0.8931
C40 C 1.0026(3) 0.40037(19) 0.8206(2)
H53 H 1.0810 0.4006 0.8150
H54 H 0.9513 0.4067 0.7707
C41 C 0.9843(4) 0.4586(2) 0.8738(2)
H55 H 0.9418 0.4996 0.8459
H56 H 1.0571 0.4770 0.9034
C42 C 0.9184(2) 0.42416(16) 0.92442(17)
H57 H 0.9640 0.4218 0.9765
H58 H 0.8494 0.4522 0.9239
loop_
_geom_bond_atom_site_label_1
_geom_bond_atom_site_label_2
_geom_bond_site_symmetry_1
_geom_bond_site_symmetry_2
Ca1 O1 1_555 1_555
O1 C35 1_555 1_555
O2 Ca1 1_555 1_555
N1 Ca1 1_555 1_555
N2 Ca1 1_555 1_555
N3 Ca1 1_555 1_555
N4 Ca1 1_555 1_555
C1 N1 1_555 1_555
H1 C1 1_555 1_555
C2 C1 1_555 1_555
H2 C2 1_555 1_555
C3 C2 1_555 1_555
H3 C3 1_555 1_555
C4 N1 1_555 1_555
C5 N2 1_555 1_555
H4 C5 1_555 1_555
C6 N2 1_555 1_555
C7 C6 1_555 1_555
C8 C7 1_555 1_555
H5 C8 1_555 1_555
C9 C8 1_555 1_555
H6 C9 1_555 1_555
C10 C9 1_555 1_555
H7 C10 1_555 1_555
C11 C6 1_555 1_555
C12 C11 1_555 1_555
H8 C12 1_555 1_555
C13 C12 1_555 1_555
H9 C13 1_555 1_555
H10 C13 1_555 1_555
H11 C13 1_555 1_555
C14 C12 1_555 1_555
H12 C14 1_555 1_555
H13 C14 1_555 1_555
H14 C14 1_555 1_555
C15 H15 1_555 1_555
H16 C15 1_555 1_555
H17 C15 1_555 1_555
C16 C7 1_555 1_555
H18 C16 1_555 1_555
C17 C16 1_555 1_555
H19 C17 1_555 1_555
H20 C17 1_555 1_555
H21 C17 1_555 1_555
C18 N3 1_555 1_555
H22 C18 1_555 1_555
C19 C18 1_555 1_555
H23 C19 1_555 1_555
C20 C19 1_555 1_555
H24 C20 1_555 1_555
C21 N3 1_555 1_555
C22 N4 1_555 1_555
H25 C22 1_555 1_555
C23 N4 1_555 1_555
C24 C23 1_555 1_555
C25 C24 1_555 1_555
H26 C25 1_555 1_555
C26 C25 1_555 1_555
H27 C26 1_555 1_555
C27 C26 1_555 1_555
H28 C27 1_555 1_555
C28 C23 1_555 1_555
C29 H29 1_555 1_555
H30 C29 1_555 1_555
H31 C29 1_555 1_555
C30 C28 1_555 1_555
H32 C30 1_555 1_555
C31 C30 1_555 1_555
H33 C31 1_555 1_555
H34 C31 1_555 1_555
H35 C31 1_555 1_555
C32 H36 1_555 1_555
H37 C32 1_555 1_555
H38 C32 1_555 1_555
C33 C24 1_555 1_555
H39 C33 1_555 1_555
C34 C33 1_555 1_555
H40 C34 1_555 1_555
H41 C34 1_555 1_555
H42 C34 1_555 1_555
C35 H43 1_555 1_555
H44 C35 1_555 1_555
C36 C35 1_555 1_555
H45 C36 1_555 1_555
H46 C36 1_555 1_555
C37 C36 1_555 1_555
H47 C37 1_555 1_555
H48 C37 1_555 1_555
C38 O1 1_555 1_555
H49 C38 1_555 1_555
H50 C38 1_555 1_555
C39 O2 1_555 1_555
H51 C39 1_555 1_555
H52 C39 1_555 1_555
C40 C39 1_555 1_555
H53 C40 1_555 1_555
H54 C40 1_555 1_555
C41 C40 1_555 1_555
H55 C41 1_555 1_555
H56 C41 1_555 1_555
C42 O2 1_555 1_555
H57 C42 1_555 1_555
H58 C42 1_555 1_555
C3 C4 1_555 1_555
C4 C5 1_555 1_555
C10 C11 1_555 1_555
C15 C16 1_555 1_555
C20 C21 1_555 1_555
C21 C22 1_555 1_555
C27 C28 1_555 1_555
C29 C30 1_555 1_555
C32 C33 1_555 1_555
C37 C38 1_555 1_555
C41 C42 1_555 1_555

#END
