
#######################################################################
#
#                 Cambridge Crystallographic Data Centre
#                                CCDC 
#
#######################################################################
#
# If this CIF has been generated from an entry in the Cambridge 
# Structural Database, then it will include bibliographic, chemical, 
# crystal, experimental, refinement or atomic coordinate data resulting 
# from the CCDC's data processing and validation procedures.
#
#######################################################################

data_XERPUH
_chemical_name_common            2b
_chemical_formula_moiety         'C34 H42 Ca1 N4 O2'
_chemical_name_systematic        
bis(4-methyl-N-(1-(1H-pyrrol-2-yl)ethylidene)anilinato)-(bis(tetrahydrofuran))-calcium
_symmetry_cell_setting           triclinic
_symmetry_space_group_name_H-M   'P -1'
_symmetry_Int_Tables_number      2
_space_group_name_Hall           '-P 1'
loop_
_symmetry_equiv_pos_site_id
_symmetry_equiv_pos_as_xyz
1 x,y,z
2 -x,-y,-z
_cell_length_a                   9.464(5)
_cell_length_b                   12.651(5)
_cell_length_c                   13.610(5)
_cell_angle_alpha                91.323(5)
_cell_angle_beta                 93.428(5)
_cell_angle_gamma                104.213(5)
_cell_volume                     1575.6
_exptl_crystal_colour            colorless
_exptl_crystal_description       block
_cell_formula_units_Z            2
loop_
_atom_site_label
_atom_site_type_symbol
_atom_site_fract_x
_atom_site_fract_y
_atom_site_fract_z
Ca1 Ca 0.5000 0.5000 0.0000
O1 O 0.5118(4) 0.3168(3) -0.0109(3)
N1 N 0.2951(5) 0.4449(3) 0.0989(3)
N2 N 0.2731(4) 0.4495(3) -0.1054(3)
C1 C 0.2679(6) 0.4208(4) 0.1926(4)
H1 H 0.3383 0.4420 0.2467
C2 C 0.1243(6) 0.3608(5) 0.2016(4)
H2 H 0.0807 0.3344 0.2602
C3 C 0.0582(6) 0.3478(4) 0.1059(4)
H3 H -0.0398 0.3105 0.0865
C4 C 0.1639(5) 0.4002(4) 0.0446(4)
C5 C 0.1548(5) 0.4097(4) -0.0613(4)
C6 C 0.0056(5) 0.3700(4) -0.1147(4)
H4 H -0.0407 0.4310 -0.1211
H5 H -0.0551 0.3128 -0.0773
H6 H 0.0160 0.3405 -0.1804
C7 C 0.2686(5) 0.4581(4) -0.2097(4)
C8 C 0.3524(5) 0.4050(4) -0.2624(4)
H7 H 0.4092 0.3629 -0.2288
C9 C 0.3549(6) 0.4120(5) -0.3639(4)
H8 H 0.4105 0.3724 -0.3989
C10 C 0.2781(6) 0.4757(5) -0.4152(4)
C11 C 0.1976(6) 0.5305(5) -0.3619(4)
H9 H 0.1434 0.5745 -0.3953
C12 C 0.1937(6) 0.5232(5) -0.2604(4)
H10 H 0.1388 0.5633 -0.2254
C13 C 0.2810(7) 0.4849(5) -0.5262(4)
H11 H 0.1846 0.4491 -0.5574
H12 H 0.3542 0.4496 -0.5504
H13 H 0.3061 0.5621 -0.5423
C14 C 0.3925(6) 0.2204(4) -0.0310(4)
H14 H 0.3415 0.2244 -0.0959
H15 H 0.3211 0.2139 0.0202
C15 C 0.4600(6) 0.1240(5) -0.0304(5)
H16 H 0.4196 0.0731 -0.0872
H17 H 0.4414 0.0840 0.0311
C16 C 0.6220(6) 0.1725(5) -0.0372(5)
H18 H 0.6804 0.1291 -0.0009
H19 H 0.6478 0.1761 -0.1066
C17 C 0.6469(6) 0.2839(5) 0.0092(4)
H20 H 0.6695 0.2826 0.0811
H21 H 0.7292 0.3350 -0.0197
O1A O 0.4882(4) 0.6832(3) 0.0109(3)
N1A N 0.7049(5) 0.5551(3) -0.0989(3)
N2A N 0.7269(4) 0.5505(3) 0.1054(3)
C1A C 0.7321(6) 0.5792(4) -0.1926(4)
H1A H 0.6617 0.5580 -0.2467
C2A C 0.8757(6) 0.6392(5) -0.2016(4)
H2A H 0.9193 0.6656 -0.2602
C3A C 0.9418(6) 0.6522(4) -0.1059(4)
H3A H 1.0398 0.6895 -0.0865
C4A C 0.8361(5) 0.5998(4) -0.0446(4)
C5A C 0.8452(5) 0.5903(4) 0.0613(4)
C6A C 0.9944(5) 0.6300(4) 0.1147(4)
H4A H 1.0407 0.5690 0.1211
H5A H 1.0551 0.6872 0.0773
H6A H 0.9840 0.6595 0.1804
C7A C 0.7314(5) 0.5419(4) 0.2097(4)
C8A C 0.6476(5) 0.5950(4) 0.2624(4)
H7A H 0.5908 0.6371 0.2288
C9A C 0.6451(6) 0.5880(5) 0.3639(4)
H8A H 0.5895 0.6276 0.3989
C10A C 0.7219(6) 0.5243(5) 0.4152(4)
C11A C 0.8024(6) 0.4695(5) 0.3619(4)
H9A H 0.8566 0.4255 0.3953
C12A C 0.8063(6) 0.4768(5) 0.2604(4)
H10A H 0.8612 0.4367 0.2254
C13A C 0.7190(7) 0.5151(5) 0.5262(4)
H11A H 0.8154 0.5509 0.5574
H12A H 0.6458 0.5504 0.5504
H13A H 0.6939 0.4379 0.5423
C14A C 0.6075(6) 0.7796(4) 0.0310(4)
H14A H 0.6585 0.7756 0.0959
H15A H 0.6789 0.7861 -0.0202
C15A C 0.5400(6) 0.8760(5) 0.0304(5)
H16A H 0.5804 0.9269 0.0872
H17A H 0.5586 0.9160 -0.0311
C16A C 0.3780(6) 0.8275(5) 0.0372(5)
H18A H 0.3196 0.8709 0.0009
H19A H 0.3522 0.8239 0.1066
C17A C 0.3531(6) 0.7161(5) -0.0092(4)
H20A H 0.3305 0.7174 -0.0811
H21A H 0.2708 0.6650 0.0197
Ca2 Ca 0.5000 0.0000 0.5000
N3 N 0.6131(5) 0.1573(4) 0.6011(3)
N4 N 0.7431(5) 0.0866(4) 0.4426(3)
C18 C 0.5875(6) 0.2138(5) 0.6810(4)
H22 H 0.4977 0.1983 0.7119
C19 C 0.7080(6) 0.2972(5) 0.7123(4)
H23 H 0.7155 0.3473 0.7666
C20 C 0.8150(6) 0.2928(5) 0.6488(4)
H24 H 0.9108 0.3393 0.6512
C21 C 0.7557(6) 0.2071(4) 0.5804(4)
C22 C 0.8201(6) 0.1678(4) 0.4992(4)
C23 C 0.9782(6) 0.2231(5) 0.4841(4)
H25 H 0.9822 0.2752 0.4316
H26 H 1.0296 0.1679 0.4655
H27 H 1.0249 0.2617 0.5454
C24 C 0.8051(6) 0.0470(5) 0.3605(4)
C25 C 0.8155(6) -0.0605(5) 0.3597(4)
H28 H 0.7797 -0.1057 0.4122
C26 C 0.8779(6) -0.1028(5) 0.2826(4)
H29 H 0.8886 -0.1754 0.2845
C27 C 0.9248(6) -0.0396(5) 0.2026(4)
C28 C 0.9057(6) 0.0641(5) 0.2020(4)
H30 H 0.9338 0.1074 0.1470
C29 C 0.8460(5) 0.1082(5) 0.2797(4)
H31 H 0.8336 0.1803 0.2769
C30 C 0.9982(7) -0.0839(5) 0.1207(4)
H32 H 1.0361 -0.0254 0.0761
H33 H 0.9270 -0.1431 0.0840
H34 H 1.0790 -0.1117 0.1490
O2 O 0.6144(4) -0.1129(3) 0.5976(3)
C31 C 0.5355(7) -0.2045(6) 0.7384(5)
H35 H 0.5318 -0.2737 0.7718
H36 H 0.4499 -0.1772 0.7546
C32 C 0.5412(7) -0.2193(5) 0.6286(5)
H37 H 0.5967 -0.2737 0.6129
H38 H 0.4416 -0.2433 0.5961
C33 C 0.6781(7) -0.1199(6) 0.7670(5)
H39 H 0.6609 -0.0618 0.8113
H40 H 0.7499 -0.1544 0.8008
C34 C 0.7320(6) -0.0740(6) 0.6714(4)
H41 H 0.7587 0.0067 0.6763
H42 H 0.8191 -0.0992 0.6547
N3A N 0.3869(5) -0.1573(4) 0.3989(3)
N4A N 0.2569(5) -0.0866(4) 0.5574(3)
C18A C 0.4125(6) -0.2138(5) 0.3190(4)
H22A H 0.5023 -0.1983 0.2881
C19A C 0.2920(6) -0.2972(5) 0.2877(4)
H23A H 0.2845 -0.3473 0.2334
C20A C 0.1850(6) -0.2928(5) 0.3512(4)
H24A H 0.0892 -0.3393 0.3488
C21A C 0.2443(6) -0.2071(4) 0.4196(4)
C22A C 0.1799(6) -0.1678(4) 0.5008(4)
C23A C 0.0218(6) -0.2231(5) 0.5159(4)
H25A H 0.0178 -0.2752 0.5684
H26A H -0.0296 -0.1679 0.5345
H27A H -0.0249 -0.2617 0.4546
C24A C 0.1949(6) -0.0470(5) 0.6395(4)
C25A C 0.1845(6) 0.0605(5) 0.6403(4)
H28A H 0.2203 0.1057 0.5878
C26A C 0.1221(6) 0.1028(5) 0.7174(4)
H29A H 0.1114 0.1754 0.7155
C27A C 0.0752(6) 0.0396(5) 0.7974(4)
C28A C 0.0943(6) -0.0641(5) 0.7980(4)
H30A H 0.0662 -0.1074 0.8530
C29A C 0.1540(5) -0.1082(5) 0.7203(4)
H31A H 0.1664 -0.1803 0.7231
C30A C 0.0018(7) 0.0839(5) 0.8793(4)
H32A H -0.0361 0.0254 0.9239
H33A H 0.0730 0.1431 0.9160
H34A H -0.0790 0.1117 0.8510
O2A O 0.3856(4) 0.1129(3) 0.4024(3)
C31A C 0.4645(7) 0.2045(6) 0.2616(5)
H35A H 0.4682 0.2737 0.2282
H36A H 0.5501 0.1772 0.2454
C32A C 0.4588(7) 0.2193(5) 0.3714(5)
H37A H 0.4033 0.2737 0.3871
H38A H 0.5584 0.2433 0.4039
C33A C 0.3219(7) 0.1199(6) 0.2330(5)
H39A H 0.3391 0.0618 0.1887
H40A H 0.2501 0.1544 0.1992
C34A C 0.2680(6) 0.0740(6) 0.3286(4)
H41A H 0.2413 -0.0067 0.3237
H42A H 0.1809 0.0992 0.3453
loop_
_geom_bond_atom_site_label_1
_geom_bond_atom_site_label_2
_geom_bond_site_symmetry_1
_geom_bond_site_symmetry_2
Ca1 O1 1_555 1_555
Ca2 N3 1_555 1_555
O1 C14 1_555 1_555
N1 Ca1 1_555 1_555
N2 Ca1 1_555 1_555
N3 C18 1_555 1_555
N4 Ca2 1_555 1_555
C1 N1 1_555 1_555
H1 C1 1_555 1_555
C2 C1 1_555 1_555
H2 C2 1_555 1_555
C3 C2 1_555 1_555
H3 C3 1_555 1_555
C4 N1 1_555 1_555
C5 N2 1_555 1_555
C6 C5 1_555 1_555
H4 C6 1_555 1_555
H5 C6 1_555 1_555
H6 C6 1_555 1_555
C7 N2 1_555 1_555
C8 C7 1_555 1_555
H7 C8 1_555 1_555
C9 C8 1_555 1_555
H8 C9 1_555 1_555
C10 C9 1_555 1_555
C11 C10 1_555 1_555
H9 C11 1_555 1_555
C12 C7 1_555 1_555
H10 C12 1_555 1_555
C13 C10 1_555 1_555
H11 C13 1_555 1_555
H12 C13 1_555 1_555
H13 C13 1_555 1_555
C14 H14 1_555 1_555
H15 C14 1_555 1_555
C15 C14 1_555 1_555
H16 C15 1_555 1_555
H17 C15 1_555 1_555
C16 C15 1_555 1_555
H18 C16 1_555 1_555
H19 C16 1_555 1_555
C17 O1 1_555 1_555
H20 C17 1_555 1_555
H21 C17 1_555 1_555
C18 H22 1_555 1_555
C19 C18 1_555 1_555
H23 C19 1_555 1_555
C20 C19 1_555 1_555
H24 C20 1_555 1_555
C21 N3 1_555 1_555
C22 N4 1_555 1_555
C23 C22 1_555 1_555
H25 C23 1_555 1_555
H26 C23 1_555 1_555
H27 C23 1_555 1_555
C24 N4 1_555 1_555
C25 C24 1_555 1_555
H28 C25 1_555 1_555
C26 C25 1_555 1_555
H29 C26 1_555 1_555
C27 C26 1_555 1_555
C28 C27 1_555 1_555
H30 C28 1_555 1_555
C29 C24 1_555 1_555
H31 C29 1_555 1_555
C30 C27 1_555 1_555
H32 C30 1_555 1_555
H33 C30 1_555 1_555
H34 C30 1_555 1_555
O2 Ca2 1_555 1_555
C31 H35 1_555 1_555
H36 C31 1_555 1_555
C32 O2 1_555 1_555
H37 C32 1_555 1_555
H38 C32 1_555 1_555
C33 C31 1_555 1_555
H39 C33 1_555 1_555
H40 C33 1_555 1_555
C34 O2 1_555 1_555
H41 C34 1_555 1_555
H42 C34 1_555 1_555
O1A Ca1 1_555 1_555
N1A Ca1 1_555 1_555
N2A Ca1 1_555 1_555
N3A Ca2 1_555 1_555
N4A Ca2 1_555 1_555
C1A N1A 1_555 1_555
H1A C1A 1_555 1_555
C2A C1A 1_555 1_555
H2A C2A 1_555 1_555
C3A C2A 1_555 1_555
H3A C3A 1_555 1_555
C4A N1A 1_555 1_555
C5A N2A 1_555 1_555
C6A C5A 1_555 1_555
H4A C6A 1_555 1_555
H5A C6A 1_555 1_555
H6A C6A 1_555 1_555
C7A N2A 1_555 1_555
C8A C7A 1_555 1_555
H7A C8A 1_555 1_555
C9A C8A 1_555 1_555
H8A C9A 1_555 1_555
C10A C9A 1_555 1_555
C11A C10A 1_555 1_555
H9A C11A 1_555 1_555
C12A C7A 1_555 1_555
H10A C12A 1_555 1_555
C13A C10A 1_555 1_555
H11A C13A 1_555 1_555
H12A C13A 1_555 1_555
H13A C13A 1_555 1_555
C14A O1A 1_555 1_555
H14A C14A 1_555 1_555
H15A C14A 1_555 1_555
C15A C14A 1_555 1_555
H16A C15A 1_555 1_555
H17A C15A 1_555 1_555
C16A C15A 1_555 1_555
H18A C16A 1_555 1_555
H19A C16A 1_555 1_555
C17A O1A 1_555 1_555
H20A C17A 1_555 1_555
H21A C17A 1_555 1_555
C18A N3A 1_555 1_555
H22A C18A 1_555 1_555
C19A C18A 1_555 1_555
H23A C19A 1_555 1_555
C20A C19A 1_555 1_555
H24A C20A 1_555 1_555
C21A N3A 1_555 1_555
C22A N4A 1_555 1_555
C23A C22A 1_555 1_555
H25A C23A 1_555 1_555
H26A C23A 1_555 1_555
H27A C23A 1_555 1_555
C24A N4A 1_555 1_555
C25A C24A 1_555 1_555
H28A C25A 1_555 1_555
C26A C25A 1_555 1_555
H29A C26A 1_555 1_555
C27A C26A 1_555 1_555
C28A C27A 1_555 1_555
H30A C28A 1_555 1_555
C29A C24A 1_555 1_555
H31A C29A 1_555 1_555
C30A C27A 1_555 1_555
H32A C30A 1_555 1_555
H33A C30A 1_555 1_555
H34A C30A 1_555 1_555
O2A Ca2 1_555 1_555
C31A H35A 1_555 1_555
H36A C31A 1_555 1_555
C32A O2A 1_555 1_555
H37A C32A 1_555 1_555
H38A C32A 1_555 1_555
C33A C31A 1_555 1_555
H39A C33A 1_555 1_555
H40A C33A 1_555 1_555
C34A O2A 1_555 1_555
H41A C34A 1_555 1_555
H42A C34A 1_555 1_555
C3 C4 1_555 1_555
C4 C5 1_555 1_555
C11 C12 1_555 1_555
C16 C17 1_555 1_555
C20 C21 1_555 1_555
C21 C22 1_555 1_555
C28 C29 1_555 1_555
C31 C32 1_555 1_555
C33 C34 1_555 1_555
C3A C4A 1_555 1_555
C4A C5A 1_555 1_555
C11A C12A 1_555 1_555
C16A C17A 1_555 1_555
C20A C21A 1_555 1_555
C21A C22A 1_555 1_555
C28A C29A 1_555 1_555
C31A C32A 1_555 1_555
C33A C34A 1_555 1_555

#END
