
#######################################################################
#
#                 Cambridge Crystallographic Data Centre
#                                CCDC 
#
#######################################################################
#
# If this CIF has been generated from an entry in the Cambridge 
# Structural Database, then it will include bibliographic, chemical, 
# crystal, experimental, refinement or atomic coordinate data resulting 
# from the CCDC's data processing and validation procedures.
#
#######################################################################

data_XERQAO
_chemical_name_common            4a
_chemical_formula_moiety         'C31 H55 Ca1 N3 O2 Si2'
_chemical_name_systematic        
(2,6-Di-isopropyl-N-((1H-pyrrol-2-yl)methylene)anilinato)(bis(tetrahydrofuran))-(1,1,1-trimethyl-N-(trimethylsilyl)silanaminato)-calcium
_symmetry_cell_setting           monoclinic
_symmetry_space_group_name_H-M   'P 21/n'
_symmetry_Int_Tables_number      14
_space_group_name_Hall           '-P 2yn'
loop_
_symmetry_equiv_pos_site_id
_symmetry_equiv_pos_as_xyz
1 x,y,z
2 1/2-x,1/2+y,1/2-z
3 -x,-y,-z
4 1/2+x,1/2-y,1/2+z
_cell_length_a                   10.6913(9)
_cell_length_b                   15.3420(11)
_cell_length_c                   22.2988(17)
_cell_angle_alpha                90
_cell_angle_beta                 96.069(4)
_cell_angle_gamma                90
_cell_volume                     3637.08
_exptl_crystal_colour            colorless
_exptl_crystal_description       block
_cell_formula_units_Z            4
loop_
_atom_site_label
_atom_site_type_symbol
_atom_site_fract_x
_atom_site_fract_y
_atom_site_fract_z
Ca1 Ca 0.92147(5) 0.80906(3) 0.15669(2)
Si1 Si 1.08905(7) 0.63502(5) 0.21820(3)
Si2 Si 1.09881(7) 0.80756(5) 0.28801(3)
O1 O 1.09576(17) 0.86603(12) 0.11042(8)
O2 O 0.73908(17) 0.77548(12) 0.20683(8)
N1 N 0.8139(2) 0.93962(14) 0.12354(9)
N2 N 0.80443(19) 0.77734(13) 0.05777(9)
N3 N 1.05297(19) 0.73963(13) 0.23068(9)
C1 C 0.7894(3) 1.02274(18) 0.13869(13)
H1 H 0.8292 1.0512 0.1735
C2 C 0.6997(3) 1.06203(19) 0.09782(14)
H2 H 0.6679 1.1197 0.0994
C3 C 0.6661(3) 0.99947(18) 0.05429(13)
H3 H 0.6064 1.0060 0.0199
C4 C 0.7369(2) 0.92503(16) 0.07054(12)
C5 C 0.7348(2) 0.84348(18) 0.03927(12)
H4 H 0.678(3) 0.8375(18) 0.0011(13)
C6 C 0.7910(2) 0.69798(16) 0.02325(11)
C7 C 0.6907(2) 0.64128(17) 0.03067(11)
C8 C 0.6840(3) 0.56343(18) -0.00153(13)
H5 H 0.6161 0.5246 0.0023
C9 C 0.7741(3) 0.54163(18) -0.03890(13)
H6 H 0.7675 0.4884 -0.0607
C10 C 0.8742(3) 0.59717(18) -0.04464(12)
H7 H 0.9363 0.5812 -0.0701
C11 C 0.8852(2) 0.67581(17) -0.01372(11)
C12 C 0.5914(3) 0.6619(2) 0.07244(14)
H8 H 0.619(3) 0.7110(19) 0.0982(14)
C13 C 0.4668(3) 0.6881(2) 0.03675(17)
H9 H 0.4364 0.6401 0.0100
H10 H 0.4798 0.7400 0.0126
H11 H 0.4045 0.7008 0.0648
C14 C 0.5717(3) 0.5868(2) 0.11555(15)
H12 H 0.5218 0.5409 0.0938
H13 H 0.5271 0.6082 0.1488
H14 H 0.6535 0.5631 0.1317
C15 C 0.9925(3) 0.73873(18) -0.02131(12)
H15 H 1.008(2) 0.7715(16) 0.0173(12)
C16 C 0.9546(3) 0.80543(18) -0.07052(13)
H16 H 0.9365 0.7755 -0.1093
H17 H 1.0236 0.8469 -0.0730
H18 H 0.8794 0.8368 -0.0609
C17 C 1.1145(3) 0.6937(2) -0.03337(13)
H19 H 1.1368 0.6498 -0.0021
H20 H 1.1820 0.7370 -0.0328
H21 H 1.1032 0.6652 -0.0729
C18 C 1.0158(4) 0.6048(2) 0.14064(15)
H22 H 1.0490 0.6428 0.1107
H23 H 0.9243 0.6119 0.1385
H24 H 1.0358 0.5440 0.1322
C19 C 1.0261(3) 0.55446(19) 0.27067(14)
H25 H 0.9348 0.5613 0.2694
H26 H 1.0651 0.5648 0.3118
H27 H 1.0457 0.4952 0.2582
C20 C 1.2619(3) 0.6124(2) 0.22052(19)
H28 H 1.3036 0.6276 0.2604
H29 H 1.2974 0.6474 0.1897
H30 H 1.2750 0.5504 0.2127
C21 C 1.2684(3) 0.8413(2) 0.29092(14)
H31 H 1.2803 0.8769 0.2555
H32 H 1.3216 0.7893 0.2912
H33 H 1.2915 0.8753 0.3276
C22 C 1.0765(4) 0.7647(3) 0.36503(13)
H34 H 0.9865 0.7584 0.3688
H35 H 1.1136 0.8056 0.3957
H36 H 1.1178 0.7079 0.3708
C23 C 1.0049(3) 0.9116(2) 0.27591(15)
H37 H 0.9163 0.8998 0.2804
H38 H 1.0123 0.9339 0.2353
H39 H 1.0374 0.9551 0.3058
C24 C 1.2202(2) 0.82674(18) 0.11497(13)
H40 H 1.2235 0.7802 0.0844
H41 H 1.2415 0.8010 0.1555
C25 C 1.3112(3) 0.8990(2) 0.10415(17)
H42 H 1.3500 0.8890 0.0664
H43 H 1.3786 0.9034 0.1381
C26 C 1.2310(3) 0.98100(19) 0.09956(15)
H44 H 1.2313 1.0099 0.1393
H45 H 1.2609 1.0228 0.0704
C27 C 1.1036(3) 0.94700(19) 0.07798(14)
H46 H 1.0372 0.9881 0.0877
H47 H 1.0953 0.9369 0.0339
C28 C 0.7393(3) 0.71161(19) 0.25462(13)
H48 H 0.8253 0.6894 0.2666
H49 H 0.6833 0.6620 0.2422
C29 C 0.6889(11) 0.7645(7) 0.3069(5)
H50 H 0.6305 0.7286 0.3281
H51 H 0.7592 0.7838 0.3364
C30 C 0.6239(3) 0.8389(2) 0.27828(14)
H52 H 0.6650 0.8937 0.2932
H53 H 0.5353 0.8399 0.2874
C31 C 0.6298(3) 0.8301(2) 0.21131(14)
H54 H 0.5527 0.8021 0.1916
H55 H 0.6404 0.8877 0.1925
C32? C 0.6434(10) 0.7369(7) 0.2955(6)
H56? H 0.6756 0.7292 0.3385
H57? H 0.5645 0.7034 0.2867
loop_
_geom_bond_atom_site_label_1
_geom_bond_atom_site_label_2
_geom_bond_site_symmetry_1
_geom_bond_site_symmetry_2
Ca1 O1 1_555 1_555
Si1 N3 1_555 1_555
Si2 N3 1_555 1_555
O1 C24 1_555 1_555
O2 Ca1 1_555 1_555
N1 Ca1 1_555 1_555
N2 Ca1 1_555 1_555
N3 Ca1 1_555 1_555
C1 N1 1_555 1_555
H1 C1 1_555 1_555
C2 C1 1_555 1_555
H2 C2 1_555 1_555
C3 C2 1_555 1_555
H3 C3 1_555 1_555
C4 N1 1_555 1_555
C5 N2 1_555 1_555
H4 C5 1_555 1_555
C6 N2 1_555 1_555
C7 C6 1_555 1_555
C8 C7 1_555 1_555
H5 C8 1_555 1_555
C9 C8 1_555 1_555
H6 C9 1_555 1_555
C10 C9 1_555 1_555
H7 C10 1_555 1_555
C11 C6 1_555 1_555
C12 C7 1_555 1_555
H8 C12 1_555 1_555
C13 C12 1_555 1_555
H9 C13 1_555 1_555
H10 C13 1_555 1_555
H11 C13 1_555 1_555
C14 C12 1_555 1_555
H12 C14 1_555 1_555
H13 C14 1_555 1_555
H14 C14 1_555 1_555
C15 C11 1_555 1_555
H15 C15 1_555 1_555
C16 C15 1_555 1_555
H16 C16 1_555 1_555
H17 C16 1_555 1_555
H18 C16 1_555 1_555
C17 C15 1_555 1_555
H19 C17 1_555 1_555
H20 C17 1_555 1_555
H21 C17 1_555 1_555
C18 Si1 1_555 1_555
H22 C18 1_555 1_555
H23 C18 1_555 1_555
H24 C18 1_555 1_555
C19 Si1 1_555 1_555
H25 C19 1_555 1_555
H26 C19 1_555 1_555
H27 C19 1_555 1_555
C20 Si1 1_555 1_555
H28 C20 1_555 1_555
H29 C20 1_555 1_555
H30 C20 1_555 1_555
C21 Si2 1_555 1_555
H31 C21 1_555 1_555
H32 C21 1_555 1_555
H33 C21 1_555 1_555
C22 Si2 1_555 1_555
H34 C22 1_555 1_555
H35 C22 1_555 1_555
H36 C22 1_555 1_555
C23 Si2 1_555 1_555
H37 C23 1_555 1_555
H38 C23 1_555 1_555
H39 C23 1_555 1_555
C24 H40 1_555 1_555
H41 C24 1_555 1_555
C25 C24 1_555 1_555
H42 C25 1_555 1_555
H43 C25 1_555 1_555
C26 C25 1_555 1_555
H44 C26 1_555 1_555
H45 C26 1_555 1_555
C27 O1 1_555 1_555
H46 C27 1_555 1_555
H47 C27 1_555 1_555
C28 O2 1_555 1_555
H48 C28 1_555 1_555
H49 C28 1_555 1_555
C29 C28 1_555 1_555
H50 C29 1_555 1_555
H51 C29 1_555 1_555
C30 C29 1_555 1_555
H52 C30 1_555 1_555
H53 C30 1_555 1_555
C31 O2 1_555 1_555
H54 C31 1_555 1_555
H55 C31 1_555 1_555
C3 C4 1_555 1_555
C4 C5 1_555 1_555
C10 C11 1_555 1_555
C26 C27 1_555 1_555
C30 C31 1_555 1_555

#END
