
#######################################################################
#
#                 Cambridge Crystallographic Data Centre
#                                CCDC 
#
#######################################################################
#
# If this CIF has been generated from an entry in the Cambridge 
# Structural Database, then it will include bibliographic, chemical, 
# crystal, experimental, refinement or atomic coordinate data resulting 
# from the CCDC's data processing and validation procedures.
#
#######################################################################

data_XERROB
_chemical_formula_moiety         'C21 H33 N1 O3 Si1'
_chemical_name_systematic        
(3S,2'S,5'R)-5-Aza-5'-methyl-2'-(1-methylethyl)-1-phenyl-1-sila-2,8,9-trioxatricyclo(3.3.3.0^1,5^)undecane-3-spiro-1'-cyclohexane
_symmetry_cell_setting           orthorhombic
_symmetry_space_group_name_H-M   'P 21 21 21'
_symmetry_Int_Tables_number      19
_space_group_name_Hall           'P 2ac 2ab'
loop_
_symmetry_equiv_pos_site_id
_symmetry_equiv_pos_as_xyz
1 x,y,z
2 1/2-x,-y,1/2+z
3 1/2+x,1/2-y,-z
4 -x,1/2+y,1/2-z
_cell_length_a                   11.9115(3)
_cell_length_b                   12.3417(2)
_cell_length_c                   14.1792(3)
_cell_angle_alpha                90
_cell_angle_beta                 90
_cell_angle_gamma                90
_cell_volume                     2084.46
_exptl_crystal_colour            colorless
_exptl_crystal_description       needle
_chemical_melting_point          185-188deg.C
_cell_formula_units_Z            4
loop_
_atom_site_label
_atom_site_type_symbol
_atom_site_fract_x
_atom_site_fract_y
_atom_site_fract_z
Si1 Si 0.39251(4) 0.06098(4) 0.70506(3)
O1 O 0.28893(11) 0.11459(9) 0.76595(8)
O2 O 0.52556(11) 0.08792(12) 0.73233(11)
O3 O 0.36871(13) -0.05274(10) 0.64555(9)
N1 N 0.40252(14) -0.04670(11) 0.82538(11)
C1 C 0.25115(15) 0.08480(14) 0.85801(12)
C2 C 0.30023(18) -0.02822(15) 0.88158(14)
C3 C 0.58689(19) 0.0224(2) 0.79691(19)
C4 C 0.5090(2) -0.0171(2) 0.87292(18)
C5 C 0.3443(2) -0.15178(16) 0.69232(17)
C6 C 0.4090(2) -0.15604(15) 0.78394(16)
C7 C 0.12122(16) 0.08485(15) 0.85888(13)
C8 C 0.07697(19) 0.20043(18) 0.84419(17)
C9 C 0.1256(2) 0.28109(18) 0.91426(18)
C10 C 0.2527(2) 0.28366(16) 0.90871(18)
C11 C 0.2969(2) 0.16945(16) 0.92711(14)
C12 C 0.3056(3) 0.3650(2) 0.9770(2)
C13 C 0.06145(17) 0.00300(17) 0.79281(16)
C14 C 0.0760(2) 0.0226(2) 0.68687(16)
C15 C -0.0639(2) -0.0055(2) 0.8156(2)
C16 C 0.38060(14) 0.15788(13) 0.60164(12)
C17 C 0.46142(18) 0.16102(16) 0.53108(15)
C18 C 0.29059(16) 0.22804(15) 0.58906(14)
C19 C 0.4534(2) 0.22872(18) 0.45397(16)
C20 C 0.28098(18) 0.29577(17) 0.51134(16)
C21 C 0.36277(19) 0.29568(17) 0.44365(14)
H1 H 0.31810 -0.03220 0.94820
H2 H 0.24520 -0.08390 0.86750
H3 H 0.64730 0.06430 0.82470
H4 H 0.61960 -0.03890 0.76400
H5 H 0.54080 -0.07950 0.90470
H6 H 0.49610 0.03950 0.91920
H7 H 0.36550 -0.21240 0.65260
H8 H 0.26450 -0.15670 0.70490
H9 H 0.37600 -0.20900 0.82630
H10 H 0.48650 -0.17600 0.77240
H11 H 0.09940 0.06450 0.92310
H12 H 0.09520 0.22380 0.78070
H13 H -0.00420 0.20000 0.85010
H14 H 0.09610 0.35280 0.90100
H15 H 0.10280 0.26110 0.97760
H16 H 0.27390 0.30440 0.84440
H17 H 0.27700 0.14820 0.99080
H18 H 0.37820 0.17030 0.92290
H19 H 0.38580 0.36340 0.97030
H20 H 0.28570 0.34620 1.04060
H21 H 0.27860 0.43650 0.96300
H22 H 0.09420 -0.06820 0.80610
H23 H 0.15450 0.02810 0.67230
H24 H 0.03890 0.08870 0.66950
H25 H 0.04380 -0.03670 0.65240
H26 H -0.07350 -0.01810 0.88200
H27 H -0.09620 -0.06450 0.78080
H28 H -0.10080 0.06080 0.79840
H29 H 0.52350 0.11560 0.53600
H30 H 0.23440 0.22970 0.63460
H31 H 0.50990 0.22880 0.40870
H32 H 0.21910 0.34110 0.50530
H33 H 0.35680 0.34060 0.39120
loop_
_geom_bond_atom_site_label_1
_geom_bond_atom_site_label_2
_geom_bond_site_symmetry_1
_geom_bond_site_symmetry_2
Si1 O1 1_555 1_555
O1 C1 1_555 1_555
O2 Si1 1_555 1_555
O3 Si1 1_555 1_555
N1 Si1 1_555 1_555
C1 C2 1_555 1_555
C2 N1 1_555 1_555
C3 O2 1_555 1_555
C4 N1 1_555 1_555
C5 O3 1_555 1_555
C6 N1 1_555 1_555
C7 C1 1_555 1_555
C8 C7 1_555 1_555
C9 C8 1_555 1_555
C10 C9 1_555 1_555
C11 C1 1_555 1_555
C12 C10 1_555 1_555
C13 C7 1_555 1_555
C14 C13 1_555 1_555
C15 C13 1_555 1_555
C16 Si1 1_555 1_555
C17 C16 1_555 1_555
C18 C16 1_555 1_555
C19 C17 1_555 1_555
C20 C18 1_555 1_555
C21 C19 1_555 1_555
H1 C2 1_555 1_555
H2 C2 1_555 1_555
H3 C3 1_555 1_555
H4 C3 1_555 1_555
H5 C4 1_555 1_555
H6 C4 1_555 1_555
H7 C5 1_555 1_555
H8 C5 1_555 1_555
H9 C6 1_555 1_555
H10 C6 1_555 1_555
H11 C7 1_555 1_555
H12 C8 1_555 1_555
H13 C8 1_555 1_555
H14 C9 1_555 1_555
H15 C9 1_555 1_555
H16 C10 1_555 1_555
H17 C11 1_555 1_555
H18 C11 1_555 1_555
H19 C12 1_555 1_555
H20 C12 1_555 1_555
H21 C12 1_555 1_555
H22 C13 1_555 1_555
H23 C14 1_555 1_555
H24 C14 1_555 1_555
H25 C14 1_555 1_555
H26 C15 1_555 1_555
H27 C15 1_555 1_555
H28 C15 1_555 1_555
H29 C17 1_555 1_555
H30 C18 1_555 1_555
H31 C19 1_555 1_555
H32 C20 1_555 1_555
H33 C21 1_555 1_555
C3 C4 1_555 1_555
C5 C6 1_555 1_555
C10 C11 1_555 1_555
C20 C21 1_555 1_555

#END
