
#######################################################################
#
#                 Cambridge Crystallographic Data Centre
#                                CCDC 
#
#######################################################################
#
# If this CIF has been generated from an entry in the Cambridge 
# Structural Database, then it will include bibliographic, chemical, 
# crystal, experimental, refinement or atomic coordinate data resulting 
# from the CCDC's data processing and validation procedures.
#
#######################################################################

data_XERSAO
_chemical_formula_moiety         'C15 H27 N1 O3 Si1'
_chemical_name_systematic        
(3R,6S,8R)-5-Aza-1-phenyl-1-sila-2,8,9-trioxatricyclo(3.3.3.0^1,5^)-undecane-3-spiro-1'-7,7-dimethylbicyclo(3.1.1)heptane
_symmetry_cell_setting           orthorhombic
_symmetry_space_group_name_H-M   'P 21 21 21'
_symmetry_Int_Tables_number      19
_space_group_name_Hall           'P 2ac 2ab'
loop_
_symmetry_equiv_pos_site_id
_symmetry_equiv_pos_as_xyz
1 x,y,z
2 1/2-x,-y,1/2+z
3 1/2+x,1/2-y,-z
4 -x,1/2+y,1/2-z
_cell_length_a                   7.9750(2)
_cell_length_b                   9.2206(2)
_cell_length_c                   21.7279(5)
_cell_angle_alpha                90
_cell_angle_beta                 90
_cell_angle_gamma                90
_cell_volume                     1597.75
_exptl_crystal_colour            colorless
_exptl_crystal_description       needle
_chemical_melting_point          112-115deg.C
_cell_formula_units_Z            4
loop_
_atom_site_label
_atom_site_type_symbol
_atom_site_fract_x
_atom_site_fract_y
_atom_site_fract_z
Si1 Si 0.99150(5) -0.00158(5) 0.05958(2)
O1 O 1.02471(14) 0.10992(16) 0.11730(6)
O2 O 1.01213(19) 0.05618(19) -0.01253(6)
O3 O 1.01709(17) -0.17847(14) 0.07192(7)
N1 N 1.26369(15) -0.00270(18) 0.05665(6)
C1 C 1.1805(2) 0.16153(19) 0.14138(7)
C2 C 1.3196(2) 0.0623(2) 0.11513(8)
C3 C 1.1679(3) 0.0571(3) -0.04358(9)
C4 C 1.3062(3) 0.0834(3) 0.00163(9)
C5 C 1.1751(3) -0.2403(2) 0.08461(11)
C6 C 1.3087(3) -0.1568(2) 0.05087(10)
C7 C 1.1690(2) 0.14383(19) 0.21126(8)
C8 C 1.3058(3) 0.2293(2) 0.24753(8)
C9 C 1.1857(3) 0.3599(2) 0.24057(9)
C10 C 1.2069(4) 0.4323(2) 0.17816(10)
C11 C 1.1999(3) 0.3243(2) 0.12452(9)
C12 C 1.0396(3) 0.2534(2) 0.23608(10)
C13 C 1.3128(5) 0.1753(4) 0.31467(10)
C14 C 1.4838(3) 0.2423(3) 0.22403(12)
C15 C 0.7569(2) 0.0026(3) 0.06282(12)
H1 H 1.414(3) 0.121(3) 0.1093(10)
H2 H 1.336(3) -0.020(3) 0.1446(11)
H3 H 1.175(4) 0.126(3) -0.0729(14)
H4 H 1.176(3) -0.036(3) -0.0626(11)
H5 H 1.414(4) 0.051(3) -0.0141(12)
H6 H 1.300(3) 0.191(3) 0.0150(11)
H7 H 1.164(4) -0.340(3) 0.0727(13)
H8 H 1.199(3) -0.230(2) 0.1302(11)
H9 H 1.417(3) -0.181(2) 0.0674(10)
H10 H 1.317(3) -0.181(3) 0.0056(11)
H11 H 1.159(3) 0.043(2) 0.2200(9)
H12 H 1.183(3) 0.428(2) 0.2725(10)
H13 H 1.123(4) 0.509(3) 0.1782(14)
H14 H 1.316(3) 0.487(3) 0.1775(11)
H15 H 1.307(4) 0.345(3) 0.0970(13)
H16 H 1.106(4) 0.342(3) 0.0989(13)
H17 H 0.947(3) 0.278(2) 0.2102(10)
H18 H 0.988(4) 0.228(3) 0.2748(12)
H19 H 1.185(5) 0.174(4) 0.3319(15)
H20 H 1.380(5) 0.235(4) 0.338(2)
H21 H 1.355(4) 0.069(5) 0.3166(16)
H22 H 1.534(4) 0.144(4) 0.2252(15)
H23 H 1.554(4) 0.325(4) 0.2505(16)
H24 H 1.493(3) 0.282(2) 0.1795(12)
H25 H 0.712(5) -0.071(5) 0.0391(18)
H26 H 0.717(5) 0.092(5) 0.0473(19)
H27 H 0.719(5) -0.014(5) 0.1026(18)
loop_
_geom_bond_atom_site_label_1
_geom_bond_atom_site_label_2
_geom_bond_site_symmetry_1
_geom_bond_site_symmetry_2
Si1 O1 1_555 1_555
O1 C1 1_555 1_555
O2 Si1 1_555 1_555
O3 Si1 1_555 1_555
N1 Si1 1_555 1_555
C1 C2 1_555 1_555
C2 N1 1_555 1_555
C3 O2 1_555 1_555
C4 N1 1_555 1_555
C5 O3 1_555 1_555
C6 N1 1_555 1_555
C7 C1 1_555 1_555
C8 C7 1_555 1_555
C9 C8 1_555 1_555
C10 C9 1_555 1_555
C11 C1 1_555 1_555
C12 C7 1_555 1_555
C13 C8 1_555 1_555
C14 C8 1_555 1_555
C15 Si1 1_555 1_555
H1 C2 1_555 1_555
H2 C2 1_555 1_555
H3 C3 1_555 1_555
H4 C3 1_555 1_555
H5 C4 1_555 1_555
H6 C4 1_555 1_555
H7 C5 1_555 1_555
H8 C5 1_555 1_555
H9 C6 1_555 1_555
H10 C6 1_555 1_555
H11 C7 1_555 1_555
H12 C9 1_555 1_555
H13 C10 1_555 1_555
H14 C10 1_555 1_555
H15 C11 1_555 1_555
H16 C11 1_555 1_555
H17 C12 1_555 1_555
H18 C12 1_555 1_555
H19 C13 1_555 1_555
H20 C13 1_555 1_555
H21 C13 1_555 1_555
H22 C14 1_555 1_555
H23 C14 1_555 1_555
H24 C14 1_555 1_555
H25 C15 1_555 1_555
H26 C15 1_555 1_555
H27 C15 1_555 1_555
C3 C4 1_555 1_555
C5 C6 1_555 1_555
C9 C12 1_555 1_555
C10 C11 1_555 1_555

#END
