
#######################################################################
#
#                 Cambridge Crystallographic Data Centre
#                                CCDC 
#
#######################################################################
#
# If this CIF has been generated from an entry in the Cambridge 
# Structural Database, then it will include bibliographic, chemical, 
# crystal, experimental, refinement or atomic coordinate data resulting 
# from the CCDC's data processing and validation procedures.
#
#######################################################################

data_XERTOG
_chemical_formula_moiety         'C21 H17 Br1 O1'
_chemical_name_systematic        
1-[1-(2-bromophenyl)-2,3-dihydro-1H-phenalen-2-yl]ethan-1-one
_symmetry_cell_setting           monoclinic
_symmetry_space_group_name_H-M   'P 21/c'
_symmetry_Int_Tables_number      14
_space_group_name_Hall           '-P 2ybc'
loop_
_symmetry_equiv_pos_site_id
_symmetry_equiv_pos_as_xyz
1 x,y,z
2 -x,1/2+y,1/2-z
3 -x,-y,-z
4 x,1/2-y,1/2+z
_cell_length_a                   11.370(3)
_cell_length_b                   11.708(3)
_cell_length_c                   12.450(3)
_cell_angle_alpha                90
_cell_angle_beta                 100.723(4)
_cell_angle_gamma                90
_cell_volume                     1628.4
_exptl_crystal_colour            colorless
_exptl_crystal_description       block
_cell_formula_units_Z            4
loop_
_atom_site_label
_atom_site_type_symbol
_atom_site_fract_x
_atom_site_fract_y
_atom_site_fract_z
Br1 Br 0.22379(4) 0.57086(3) 0.01325(4)
C1 C 0.1365(3) 0.6504(3) 0.1067(3)
C2 C 0.0418(4) 0.5940(4) 0.1377(4)
H1 H 0.0216 0.5203 0.1131
C3 C -0.0215(4) 0.6484(5) 0.2051(4)
H2 H -0.0868 0.6120 0.2254
C4 C 0.0095(4) 0.7553(4) 0.2431(4)
H3 H -0.0337 0.7916 0.2898
C5 C 0.1054(3) 0.8094(4) 0.2118(3)
H4 H 0.1262 0.8825 0.2380
C6 C 0.1713(3) 0.7586(3) 0.1430(3)
C7 C 0.2782(3) 0.8179(3) 0.1098(2)
H5 H 0.3409 0.7602 0.1110
C8 C 0.3289(3) 0.9106(3) 0.1890(3)
C9 C 0.4062(3) 0.8831(4) 0.2825(3)
H6 H 0.4265 0.8069 0.2966
C10 C 0.4550(4) 0.9645(5) 0.3562(3)
H7 H 0.5076 0.9430 0.4194
C11 C 0.4277(4) 1.0747(5) 0.3383(4)
H8 H 0.4607 1.1289 0.3898
C12 C 0.3496(4) 1.1101(4) 0.2427(4)
C13 C 0.3206(6) 1.2230(5) 0.2177(6)
H9 H 0.3522 1.2796 0.2672
C14 C 0.2482(7) 1.2532(5) 0.1244(8)
H10 H 0.2319 1.3300 0.1097
C15 C 0.1970(5) 1.1705(4) 0.0491(5)
H11 H 0.1468 1.1931 -0.0151
C16 C 0.2195(3) 1.0575(3) 0.0684(4)
C17 C 0.2984(3) 1.0252(3) 0.1659(3)
C18 C 0.1658(3) 0.9670(4) -0.0089(3)
H12 H 0.1487 0.9980 -0.0824
H13 H 0.0908 0.9422 0.0099
C19 C 0.2484(3) 0.8655(3) -0.0062(3)
H14 H 0.2039 0.8061 -0.0523
C20 C 0.3626(3) 0.8879(4) -0.0498(3)
C21 C 0.3552(4) 0.9654(4) -0.1446(4)
H15 H 0.3481 1.0428 -0.1212
H16 H 0.2864 0.9460 -0.1988
H17 H 0.4262 0.9577 -0.1754
O1 O 0.4543(3) 0.8420(3) -0.0098(2)
loop_
_geom_bond_atom_site_label_1
_geom_bond_atom_site_label_2
_geom_bond_site_symmetry_1
_geom_bond_site_symmetry_2
Br1 C1 1_555 1_555
C1 C2 1_555 1_555
C2 H1 1_555 1_555
C3 C2 1_555 1_555
H2 C3 1_555 1_555
C4 C3 1_555 1_555
H3 C4 1_555 1_555
C5 C4 1_555 1_555
H4 C5 1_555 1_555
C6 C1 1_555 1_555
C7 C6 1_555 1_555
H5 C7 1_555 1_555
C8 C7 1_555 1_555
C9 C8 1_555 1_555
H6 C9 1_555 1_555
C10 C9 1_555 1_555
H7 C10 1_555 1_555
C11 C10 1_555 1_555
H8 C11 1_555 1_555
C12 C11 1_555 1_555
C13 C12 1_555 1_555
H9 C13 1_555 1_555
C14 C13 1_555 1_555
H10 C14 1_555 1_555
C15 C14 1_555 1_555
H11 C15 1_555 1_555
C16 C15 1_555 1_555
C17 C8 1_555 1_555
C18 C16 1_555 1_555
H12 C18 1_555 1_555
H13 C18 1_555 1_555
C19 C7 1_555 1_555
H14 C19 1_555 1_555
C20 C19 1_555 1_555
C21 C20 1_555 1_555
H15 C21 1_555 1_555
H16 C21 1_555 1_555
H17 C21 1_555 1_555
O1 C20 1_555 1_555
C5 C6 1_555 1_555
C12 C17 1_555 1_555
C16 C17 1_555 1_555
C18 C19 1_555 1_555

#END
