
#######################################################################
#
#                 Cambridge Crystallographic Data Centre
#                                CCDC 
#
#######################################################################
#
# If this CIF has been generated from an entry in the Cambridge 
# Structural Database, then it will include bibliographic, chemical, 
# crystal, experimental, refinement or atomic coordinate data resulting 
# from the CCDC's data processing and validation procedures.
#
#######################################################################

data_XERTUM
_chemical_formula_moiety         'C21 H17 Cl1 O1'
_chemical_name_systematic        
1-[2-(2-chlorophenyl)-2,3-dihydro-1H-phenalen-1-yl]ethan-1-one
_symmetry_cell_setting           orthorhombic
_symmetry_space_group_name_H-M   'P 21 21 21'
_symmetry_Int_Tables_number      19
_space_group_name_Hall           'P 2ac 2ab'
loop_
_symmetry_equiv_pos_site_id
_symmetry_equiv_pos_as_xyz
1 x,y,z
2 1/2-x,-y,1/2+z
3 -x,1/2+y,1/2-z
4 1/2+x,1/2-y,-z
_cell_length_a                   10.2776(9)
_cell_length_b                   11.4356(10)
_cell_length_c                   27.885(3)
_cell_angle_alpha                90
_cell_angle_beta                 90
_cell_angle_gamma                90
_cell_volume                     3277.34
_exptl_crystal_colour            colorless
_exptl_crystal_description       block
_cell_formula_units_Z            8
loop_
_atom_site_label
_atom_site_type_symbol
_atom_site_fract_x
_atom_site_fract_y
_atom_site_fract_z
Cl1 Cl 0.88230(8) 0.79185(7) 0.80727(2)
O1 O 1.09162(18) 0.9587(2) 0.99305(7)
C1 C 0.6193(2) 0.8411(2) 0.93745(7)
C2 C 0.4932(2) 0.8085(3) 0.92888(9)
H1 H 0.4762 0.7377 0.9137
C3 C 0.3889(2) 0.8810(3) 0.94283(9)
H2 H 0.3039 0.8571 0.9370
C4 C 0.4112(2) 0.9854(3) 0.96472(10)
H3 H 0.3413 1.0323 0.9736
C5 C 0.5402(2) 1.0234(2) 0.97405(8)
C6 C 0.5667(3) 1.1297(2) 0.99745(10)
H4 H 0.4982 1.1788 1.0058
C7 C 0.6894(3) 1.1618(2) 1.00797(11)
H5 H 0.7044 1.2327 1.0233
C8 C 0.7967(2) 1.0884(2) 0.99585(9)
H6 H 0.8807 1.1113 1.0039
C9 C 0.7768(2) 0.98479(19) 0.97256(8)
C10 C 0.64619(19) 0.9494(2) 0.96071(8)
C11 C 0.7317(2) 0.7629(2) 0.92341(8)
H7 H 0.7099 0.7215 0.8941
H8 H 0.7458 0.7053 0.9484
C12 C 0.8568(2) 0.83259(19) 0.91568(7)
H9 H 0.8402 0.8897 0.8902
C13 C 0.88799(18) 0.90066(18) 0.96162(7)
H10 H 0.8927 0.8442 0.9880
C14 C 1.01689(19) 0.9660(2) 0.95996(8)
C15 C 1.0480(3) 1.0381(3) 0.91714(10)
H11 H 1.1205 1.0882 0.9242
H12 H 0.9738 1.0850 0.9088
H13 H 1.0697 0.9879 0.8908
C16 C 0.96634(19) 0.75300(18) 0.89876(7)
C17 C 1.0499(2) 0.6981(2) 0.93045(9)
H14 H 1.0385 0.7090 0.9632
C18 C 1.1507(2) 0.6266(2) 0.91437(10)
H15 H 1.2064 0.5912 0.9363
C19 C 1.1674(3) 0.6089(2) 0.86655(11)
H16 H 1.2355 0.5621 0.8559
C20 C 1.0851(3) 0.6591(2) 0.83382(10)
H17 H 1.0961 0.6457 0.8012
C21 C 0.9852(2) 0.7301(2) 0.85017(8)
Cl2 Cl 0.53087(8) 0.66129(8) 0.80319(3)
O2 O 0.6709(2) 0.7469(3) 0.61500(9)
C22 C 0.2035(2) 0.6418(2) 0.68205(7)
C23 C 0.0794(2) 0.6219(2) 0.69906(9)
H18 H 0.0648 0.5589 0.7195
C24 C -0.0249(2) 0.6940(3) 0.68635(10)
H19 H -0.1071 0.6797 0.6990
C25 C -0.0072(2) 0.7836(3) 0.65597(9)
H20 H -0.0779 0.8296 0.6472
C26 C 0.1177(2) 0.8092(2) 0.63704(8)
C27 C 0.1390(2) 0.9030(2) 0.60484(9)
H21 H 0.0697 0.9508 0.5961
C28 C 0.2585(3) 0.9241(3) 0.58676(9)
H22 H 0.2706 0.9848 0.5650
C29 C 0.3648(2) 0.8544(2) 0.60072(9)
H23 H 0.4466 0.8704 0.5880
C30 C 0.3514(2) 0.7641(2) 0.63233(7)
C31 C 0.2246(2) 0.7375(2) 0.65075(7)
C32 C 0.3165(2) 0.56494(19) 0.69590(9)
H24 H 0.3252 0.5020 0.6728
H25 H 0.3002 0.5305 0.7271
C33 C 0.44216(18) 0.63525(18) 0.69758(7)
H26 H 0.4298 0.6995 0.7204
C34 C 0.46666(19) 0.6894(2) 0.64757(8)
H27 H 0.4757 0.6254 0.6244
C35 C 0.5932(2) 0.7606(3) 0.64698(10)
C36 C 0.6179(3) 0.8443(3) 0.68647(14)
H28 H 0.6376 0.8019 0.7153
H29 H 0.5419 0.8916 0.6915
H30 H 0.6901 0.8935 0.6782
C37 C 0.5570(2) 0.56245(19) 0.71482(8)
C38 C 0.6183(3) 0.4836(2) 0.68439(10)
H31 H 0.5884 0.4755 0.6531
C39 C 0.7228(3) 0.4167(3) 0.69961(12)
H32 H 0.7623 0.3646 0.6786
C40 C 0.7681(2) 0.4272(3) 0.74561(11)
H33 H 0.8390 0.3828 0.7556
C41 C 0.7095(2) 0.5027(3) 0.77686(10)
H34 H 0.7400 0.5098 0.8081
C42 C 0.6038(2) 0.5688(2) 0.76140(8)
loop_
_geom_bond_atom_site_label_1
_geom_bond_atom_site_label_2
_geom_bond_site_symmetry_1
_geom_bond_site_symmetry_2
Cl1 C21 1_555 1_555
O1 C14 1_555 1_555
C1 C2 1_555 1_555
C2 H1 1_555 1_555
C3 C2 1_555 1_555
H2 C3 1_555 1_555
C4 C3 1_555 1_555
H3 C4 1_555 1_555
C5 C4 1_555 1_555
C6 C5 1_555 1_555
H4 C6 1_555 1_555
C7 C6 1_555 1_555
H5 C7 1_555 1_555
C8 C7 1_555 1_555
H6 C8 1_555 1_555
C9 C8 1_555 1_555
C10 C1 1_555 1_555
C11 C1 1_555 1_555
H7 C11 1_555 1_555
H8 C11 1_555 1_555
C12 C11 1_555 1_555
H9 C12 1_555 1_555
C13 C9 1_555 1_555
H10 C13 1_555 1_555
C14 C13 1_555 1_555
C15 C14 1_555 1_555
H11 C15 1_555 1_555
H12 C15 1_555 1_555
H13 C15 1_555 1_555
C16 C12 1_555 1_555
C17 C16 1_555 1_555
H14 C17 1_555 1_555
C18 C17 1_555 1_555
H15 C18 1_555 1_555
C19 C18 1_555 1_555
H16 C19 1_555 1_555
C20 C19 1_555 1_555
H17 C20 1_555 1_555
C21 C16 1_555 1_555
Cl2 C42 1_555 1_555
O2 C35 1_555 1_555
C22 C23 1_555 1_555
C23 H18 1_555 1_555
C24 C23 1_555 1_555
H19 C24 1_555 1_555
C25 C24 1_555 1_555
H20 C25 1_555 1_555
C26 C25 1_555 1_555
C27 C26 1_555 1_555
H21 C27 1_555 1_555
C28 C27 1_555 1_555
H22 C28 1_555 1_555
C29 C28 1_555 1_555
H23 C29 1_555 1_555
C30 C29 1_555 1_555
C31 C22 1_555 1_555
C32 C22 1_555 1_555
H24 C32 1_555 1_555
H25 C32 1_555 1_555
C33 C32 1_555 1_555
H26 C33 1_555 1_555
C34 C30 1_555 1_555
H27 C34 1_555 1_555
C35 C34 1_555 1_555
C36 C35 1_555 1_555
H28 C36 1_555 1_555
H29 C36 1_555 1_555
H30 C36 1_555 1_555
C37 C33 1_555 1_555
C38 C37 1_555 1_555
H31 C38 1_555 1_555
C39 C38 1_555 1_555
H32 C39 1_555 1_555
C40 C39 1_555 1_555
H33 C40 1_555 1_555
C41 C40 1_555 1_555
H34 C41 1_555 1_555
C42 C37 1_555 1_555
C5 C10 1_555 1_555
C9 C10 1_555 1_555
C12 C13 1_555 1_555
C20 C21 1_555 1_555
C26 C31 1_555 1_555
C30 C31 1_555 1_555
C33 C34 1_555 1_555
C41 C42 1_555 1_555

#END
