
#######################################################################
#
#                 Cambridge Crystallographic Data Centre
#                                CCDC 
#
#######################################################################
#
# If this CIF has been generated from an entry in the Cambridge 
# Structural Database, then it will include bibliographic, chemical, 
# crystal, experimental, refinement or atomic coordinate data resulting 
# from the CCDC's data processing and validation procedures.
#
#######################################################################

data_XERXOK
_chemical_formula_moiety         'C15 H14 N2 O4 S1'
_chemical_name_systematic        
N-[2-(furan-3-yl)-4-phenyl-1,3-oxazol-5-yl]-N-methylmethanesulfonamide
_symmetry_cell_setting           monoclinic
_symmetry_space_group_name_H-M   'P 21/n'
_symmetry_Int_Tables_number      14
_space_group_name_Hall           '-P 2yn'
loop_
_symmetry_equiv_pos_site_id
_symmetry_equiv_pos_as_xyz
1 x,y,z
2 1/2-x,1/2+y,1/2-z
3 -x,-y,-z
4 1/2+x,1/2-y,1/2+z
_cell_length_a                   10.36180(12)
_cell_length_b                   9.18131(13)
_cell_length_c                   15.6457(2)
_cell_angle_alpha                90
_cell_angle_beta                 90.0940(12)
_cell_angle_gamma                90
_cell_volume                     1488.45
_exptl_crystal_colour            colorless
_exptl_crystal_description       block
_cell_formula_units_Z            4
loop_
_atom_site_label
_atom_site_type_symbol
_atom_site_fract_x
_atom_site_fract_y
_atom_site_fract_z
S1 S 0.30955(3) 0.16067(4) 0.75176(2)
O1 O 0.35344(10) 0.02772(12) 0.78979(6)
O2 O 0.34928(10) 0.29696(12) 0.78780(7)
N1 N 0.36195(12) 0.16006(13) 0.65163(8)
O3 O 0.24759(9) -0.01666(11) 0.56936(6)
O4 O -0.01762(11) -0.29778(14) 0.44528(8)
N2 N 0.39430(12) -0.19237(14) 0.55143(8)
C1 C 0.45101(14) -0.07839(16) 0.59760(9)
C2 C 0.36178(13) 0.02726(16) 0.60887(9)
C3 C 0.35067(16) 0.29506(17) 0.60059(10)
C4 C 0.13992(14) 0.15787(17) 0.74621(10)
C5 C 0.58554(14) -0.08713(17) 0.62712(9)
C6 C 0.65035(15) 0.03367(18) 0.66039(10)
C7 C 0.27657(15) -0.15048(16) 0.53738(9)
C8 C 0.65159(15) -0.21925(18) 0.62118(10)
C9 C 0.17577(15) -0.22923(17) 0.49348(9)
C10 C 0.04779(16) -0.20065(19) 0.49444(11)
C11 C 0.77879(16) -0.22956(19) 0.64777(11)
C12 C 0.84218(15) -0.1097(2) 0.68095(11)
C13 C 0.19124(19) -0.3542(2) 0.43978(13)
C14 C 0.77765(16) 0.0219(2) 0.68686(11)
C15 C 0.07276(19) -0.3906(2) 0.41242(14)
H1 H 0.60902(15) -0.30259(18) 0.59876(10)
H2 H 0.82294(16) -0.31990(19) 0.64317(11)
H3 H 0.92923(15) -0.1176(2) 0.69952(11)
H4 H 0.82095(16) 0.1047(2) 0.70924(11)
H5 H 0.60694(15) 0.12448(18) 0.66489(10)
H6 H 0.2688(5) 0.2944(6) 0.5691(6)
H7 H 0.3532(12) 0.37966(18) 0.63875(12)
H8 H 0.4225(7) 0.3006(7) 0.5601(5)
H9 H 0.11173(15) 0.0709(7) 0.7151(6)
H10 H 0.10420(14) 0.1560(12) 0.80416(10)
H11 H 0.10938(15) 0.2452(6) 0.7163(6)
H12 H 0.00889(16) -0.12315(19) 0.52530(11)
H13 H 0.26992(19) -0.4019(2) 0.42618(13)
H14 H 0.05426(19) -0.4699(2) 0.37536(14)
loop_
_geom_bond_atom_site_label_1
_geom_bond_atom_site_label_2
_geom_bond_site_symmetry_1
_geom_bond_site_symmetry_2
S1 O1 1_555 1_555
O2 S1 1_555 1_555
N1 S1 1_555 1_555
O3 C2 1_555 1_555
O4 C10 1_555 1_555
N2 C1 1_555 1_555
C1 C2 1_555 1_555
C2 N1 1_555 1_555
C3 N1 1_555 1_555
C4 S1 1_555 1_555
C5 C1 1_555 1_555
C6 C5 1_555 1_555
C7 O3 1_555 1_555
C8 C5 1_555 1_555
C9 C7 1_555 1_555
C10 C9 1_555 1_555
C11 C8 1_555 1_555
C12 C11 1_555 1_555
C13 C9 1_555 1_555
C14 C6 1_555 1_555
C15 O4 1_555 1_555
H1 C8 1_555 1_555
H2 C11 1_555 1_555
H3 C12 1_555 1_555
H4 C14 1_555 1_555
H5 C6 1_555 1_555
H6 C3 1_555 1_555
H7 C3 1_555 1_555
H8 C3 1_555 1_555
H9 C4 1_555 1_555
H10 C4 1_555 1_555
H11 C4 1_555 1_555
H12 C10 1_555 1_555
H13 C13 1_555 1_555
H14 C15 1_555 1_555
N2 C7 1_555 1_555
C12 C14 1_555 1_555
C13 C15 1_555 1_555

#END
