
#######################################################################
#
#                 Cambridge Crystallographic Data Centre
#                                CCDC 
#
#######################################################################
#
# If this CIF has been generated from an entry in the Cambridge 
# Structural Database, then it will include bibliographic, chemical, 
# crystal, experimental, refinement or atomic coordinate data resulting 
# from the CCDC's data processing and validation procedures.
#
#######################################################################

data_XERZOM
_chemical_formula_moiety         'C68 H45 N1 O1,C1 H1 Cl3'
_chemical_name_systematic        
'1,1-diphenyl-2-(4-(10-(4-cyanophenyl)anthracen-9-yl)phenyl)-2-(4-(10-(4-methoxyphenyl)anthracen-9-yl)phenyl)ethene chloroform solvate'
_symmetry_cell_setting           monoclinic
_symmetry_space_group_name_H-M   'C 2/c'
_symmetry_Int_Tables_number      15
_space_group_name_Hall           '-C 2yn'
loop_
_symmetry_equiv_pos_site_id
_symmetry_equiv_pos_as_xyz
1 x,y,z
2 -x,y,1/2-z
3 1/2+x,1/2+y,z
4 1/2-x,1/2+y,1/2-z
5 -x,-y,-z
6 x,-y,1/2+z
7 1/2-x,1/2-y,-z
8 1/2+x,1/2-y,1/2+z
_cell_length_a                   13.1358(8)
_cell_length_b                   14.0526(6)
_cell_length_c                   28.8957(13)
_cell_angle_alpha                90
_cell_angle_beta                 97.657(6)
_cell_angle_gamma                90
_cell_volume                     5286.36
_exptl_crystal_colour            colorless
_exptl_crystal_description       plate
_cell_formula_units_Z            4
loop_
_atom_site_label
_atom_site_type_symbol
_atom_site_fract_x
_atom_site_fract_y
_atom_site_fract_z
C1 C 0.16819(19) 0.72735(16) 0.22047(9)
H1 H 0.1991 0.6767 0.2391
C2 C 0.2261(2) 0.77884(18) 0.19300(9)
H2 H 0.2959 0.7623 0.1920
C3 C 0.1831(2) 0.85439(19) 0.16693(9)
H3 H 0.2232 0.8897 0.1479
C4 C 0.0820(2) 0.87869(17) 0.16856(8)
H4 H 0.0530 0.9317 0.1512
C5 C 0.0229(2) 0.82636(15) 0.19532(8)
H5 H -0.0469 0.8433 0.1961
C6 C 0.06474(19) 0.74861(14) 0.22132(7)
C7 C 0.0000 0.6920(2) 0.2500
C8 C 0.0000 0.59569(19) 0.2500
C9 C 0.05642(17) 0.53872(13) 0.21794(7)
C10 C 0.13097(18) 0.47354(14) 0.23591(8)
H6 H 0.1411 0.4612 0.2685
C11 C 0.19030(17) 0.42659(15) 0.20744(8)
H7 H 0.2422 0.3839 0.2208
C12 C 0.17524(17) 0.44086(14) 0.15933(8)
C13 C 0.09694(19) 0.50157(16) 0.14091(8)
H8 H 0.0831 0.5101 0.1081
C14 C 0.03866(19) 0.54989(16) 0.16987(8)
H9 H -0.0144 0.5914 0.1566
C15 C 0.24427(17) 0.39332(15) 0.12903(7)
C16 C 0.24202(18) 0.29407(15) 0.12353(8)
C17 C 0.1741(2) 0.23551(17) 0.14568(9)
H10 H 0.1286 0.2640 0.1646
C18 C 0.1735(3) 0.13953(19) 0.14013(11)
H11 H 0.1282 0.1016 0.1554
C19 C 0.2393(3) 0.09614(19) 0.11204(11)
H12 H 0.2377 0.0289 0.1084
C20 C 0.3046(2) 0.14784(17) 0.09009(9)
H13 H 0.3483 0.1165 0.0713
C21 C 0.30922(19) 0.24885(15) 0.09465(8)
C22 C 0.37628(18) 0.30386(16) 0.07184(7)
C23 C 0.37889(18) 0.40317(15) 0.07737(7)
C24 C 0.4490(2) 0.46098(17) 0.05605(8)
H14 H 0.4923 0.4321 0.0362
C25 C 0.4551(2) 0.55606(18) 0.06349(9)
H15 H 0.5024 0.5931 0.0490
C26 C 0.3911(2) 0.60050(18) 0.09280(9)
H16 H 0.3966 0.6671 0.0981
C27 C 0.3219(2) 0.54900(16) 0.11346(8)
H17 H 0.2793 0.5803 0.1328
C28 C 0.31233(18) 0.44823(15) 0.10650(7)
C29 C 0.4467(2) 0.25621(16) 0.04233(8)
C30 C 0.5447(2) 0.2288(2) 0.06118(9)
H18 H 0.5668 0.2407 0.0933
C31 C 0.6113(2) 0.1849(2) 0.03484(10)
H19 H 0.6786 0.1680 0.0486
C32 C 0.5793(3) 0.16572(19) -0.01163(9)
C33 C 0.4819(3) 0.1905(2) -0.03088(9)
H20 H 0.4595 0.1768 -0.0628
C34 C 0.4157(2) 0.23540(19) -0.00423(8)
H21 H 0.3484 0.2520 -0.0181
C35 C 0.6452(2) 0.1212(2) -0.04027(9)
N1 N 0.6889(7) 0.1010(5) -0.0663(3)
C1A C -0.16819(19) 0.72735(16) 0.27953(9)
H1A H -0.1991 0.6767 0.2609
C2A C -0.2261(2) 0.77884(18) 0.30700(9)
H2A H -0.2959 0.7623 0.3080
C3A C -0.1831(2) 0.85439(19) 0.33307(9)
H3A H -0.2232 0.8897 0.3521
C4A C -0.0820(2) 0.87869(17) 0.33144(8)
H4A H -0.0530 0.9317 0.3488
C5A C -0.0229(2) 0.82636(15) 0.30468(8)
H5A H 0.0469 0.8433 0.3039
C6A C -0.06474(19) 0.74861(14) 0.27868(7)
C9A C -0.05642(17) 0.53872(13) 0.28206(7)
C10A C -0.13097(18) 0.47354(14) 0.26409(8)
H6A H -0.1411 0.4612 0.2315
C11A C -0.19030(17) 0.42659(15) 0.29256(8)
H7A H -0.2422 0.3839 0.2792
C12A C -0.17524(17) 0.44086(14) 0.34067(8)
C13A C -0.09694(19) 0.50157(16) 0.35909(8)
H8A H -0.0831 0.5101 0.3919
C14A C -0.03866(19) 0.54989(16) 0.33013(8)
H9A H 0.0144 0.5914 0.3434
C15A C -0.24427(17) 0.39332(15) 0.37097(7)
C16A C -0.24202(18) 0.29407(15) 0.37647(8)
C17A C -0.1741(2) 0.23551(17) 0.35432(9)
H10A H -0.1286 0.2640 0.3354
C18A C -0.1735(3) 0.13953(19) 0.35987(11)
H11A H -0.1282 0.1016 0.3446
C19A C -0.2393(3) 0.09614(19) 0.38796(11)
H12A H -0.2377 0.0289 0.3916
C20A C -0.3046(2) 0.14784(17) 0.40991(9)
H13A H -0.3483 0.1165 0.4287
C21A C -0.30922(19) 0.24885(15) 0.40535(8)
C22A C -0.37628(18) 0.30386(16) 0.42816(7)
C23A C -0.37889(18) 0.40317(15) 0.42263(7)
C24A C -0.4490(2) 0.46098(17) 0.44395(8)
H14A H -0.4923 0.4321 0.4638
C25A C -0.4551(2) 0.55606(18) 0.43651(9)
H15A H -0.5024 0.5931 0.4510
C26A C -0.3911(2) 0.60050(18) 0.40720(9)
H16A H -0.3966 0.6671 0.4019
C27A C -0.3219(2) 0.54900(16) 0.38654(8)
H17A H -0.2793 0.5803 0.3672
C28A C -0.31233(18) 0.44823(15) 0.39350(7)
C29A C -0.4467(2) 0.25621(16) 0.45767(8)
C30A C -0.5447(2) 0.2288(2) 0.43882(9)
H18A H -0.5668 0.2407 0.4067
C31A C -0.6113(2) 0.1849(2) 0.46516(10)
H19A H -0.6786 0.1680 0.4514
C32A C -0.5793(3) 0.16572(19) 0.51163(9)
C33A C -0.4819(3) 0.1905(2) 0.53088(9)
H20A H -0.4595 0.1768 0.5628
C34A C -0.4157(2) 0.23540(19) 0.50423(8)
H21A H -0.3484 0.2520 0.5181
C35A C -0.6452(2) 0.1212(2) 0.54027(9)
N1A N -0.6889(7) 0.1010(5) 0.5663(3)
Cl1? Cl -0.0772(6) 0.0731(6) 0.2077(3)
O1? O 0.6452(2) 0.1212(2) -0.04027(9)
C36? C 0.7486(5) 0.0864(5) -0.0183(3)
H22? H 0.7849 0.0576 -0.0423
H23? H 0.7397 0.0389 0.0057
H24? H 0.7887 0.1401 -0.0039
C37? C -0.0002(5) 0.1176(4) 0.26793(19)
H25? H -0.0307 0.1071 0.2974
Cl2? Cl 0.0019(10) 0.23928(10) 0.2440(4)
Cl3? Cl 0.11061(7) 0.06307(6) 0.26117(4)
loop_
_geom_bond_atom_site_label_1
_geom_bond_atom_site_label_2
_geom_bond_site_symmetry_1
_geom_bond_site_symmetry_2
C1 H1 1_555 1_555
C2 C1 1_555 1_555
H2 C2 1_555 1_555
C3 C2 1_555 1_555
H3 C3 1_555 1_555
C4 C3 1_555 1_555
H4 C4 1_555 1_555
C5 C4 1_555 1_555
H5 C5 1_555 1_555
C6 C1 1_555 1_555
C7 C6 1_555 1_555
C8 C7 1_555 1_555
C9 C8 1_555 1_555
C10 C9 1_555 1_555
H6 C10 1_555 1_555
C11 C10 1_555 1_555
H7 C11 1_555 1_555
C12 C11 1_555 1_555
C13 C12 1_555 1_555
H8 C13 1_555 1_555
C14 C9 1_555 1_555
H9 C14 1_555 1_555
C15 C12 1_555 1_555
C16 C15 1_555 1_555
C17 C16 1_555 1_555
H10 C17 1_555 1_555
C18 C17 1_555 1_555
H11 C18 1_555 1_555
C19 C18 1_555 1_555
H12 C19 1_555 1_555
C20 C19 1_555 1_555
H13 C20 1_555 1_555
C21 C16 1_555 1_555
C22 C21 1_555 1_555
C23 C22 1_555 1_555
C24 C23 1_555 1_555
H14 C24 1_555 1_555
C25 C24 1_555 1_555
H15 C25 1_555 1_555
C26 C25 1_555 1_555
H16 C26 1_555 1_555
C27 C26 1_555 1_555
H17 C27 1_555 1_555
C28 C15 1_555 1_555
C29 C22 1_555 1_555
C30 C29 1_555 1_555
H18 C30 1_555 1_555
C31 C30 1_555 1_555
H19 C31 1_555 1_555
C32 C31 1_555 1_555
C33 C32 1_555 1_555
H20 C33 1_555 1_555
C34 C29 1_555 1_555
H21 C34 1_555 1_555
C35 C32 1_555 1_555
N1 C35 1_555 1_555
C1A H1A 1_555 1_555
C2A C1A 1_555 1_555
H2A C2A 1_555 1_555
C3A C2A 1_555 1_555
H3A C3A 1_555 1_555
C4A C3A 1_555 1_555
H4A C4A 1_555 1_555
C5A C4A 1_555 1_555
H5A C5A 1_555 1_555
C6A C7 1_555 1_555
C9A C8 1_555 1_555
C10A C9A 1_555 1_555
H6A C10A 1_555 1_555
C11A C10A 1_555 1_555
H7A C11A 1_555 1_555
C12A C11A 1_555 1_555
C13A C12A 1_555 1_555
H8A C13A 1_555 1_555
C14A C9A 1_555 1_555
H9A C14A 1_555 1_555
C15A C12A 1_555 1_555
C16A C15A 1_555 1_555
C17A C16A 1_555 1_555
H10A C17A 1_555 1_555
C18A C17A 1_555 1_555
H11A C18A 1_555 1_555
C19A C18A 1_555 1_555
H12A C19A 1_555 1_555
C20A C19A 1_555 1_555
H13A C20A 1_555 1_555
C21A C16A 1_555 1_555
C22A C21A 1_555 1_555
C23A C22A 1_555 1_555
C24A C23A 1_555 1_555
H14A C24A 1_555 1_555
C25A C24A 1_555 1_555
H15A C25A 1_555 1_555
C26A C25A 1_555 1_555
H16A C26A 1_555 1_555
C27A C26A 1_555 1_555
H17A C27A 1_555 1_555
C28A C15A 1_555 1_555
C29A C22A 1_555 1_555
C30A C29A 1_555 1_555
H18A C30A 1_555 1_555
C31A C30A 1_555 1_555
H19A C31A 1_555 1_555
C32A C31A 1_555 1_555
C33A C32A 1_555 1_555
H20A C33A 1_555 1_555
C34A C29A 1_555 1_555
H21A C34A 1_555 1_555
C35A C32A 1_555 1_555
N1A C35A 1_555 1_555
C5 C6 1_555 1_555
C13 C14 1_555 1_555
C20 C21 1_555 1_555
C23 C28 1_555 1_555
C27 C28 1_555 1_555
C33 C34 1_555 1_555
C1A C6A 1_555 1_555
C5A C6A 1_555 1_555
C13A C14A 1_555 1_555
C20A C21A 1_555 1_555
C23A C28A 1_555 1_555
C27A C28A 1_555 1_555
C33A C34A 1_555 1_555

#END
