
#######################################################################
#
#                 Cambridge Crystallographic Data Centre
#                                CCDC 
#
#######################################################################
#
# If this CIF has been generated from an entry in the Cambridge 
# Structural Database, then it will include bibliographic, chemical, 
# crystal, experimental, refinement or atomic coordinate data resulting 
# from the CCDC's data processing and validation procedures.
#
#######################################################################

data_XERZEC
_chemical_formula_moiety         'C26 H42 Ca1 N4'
_chemical_name_systematic        
dibenzyl-(1,4,7,10-tetramethyl-1,4,7,10-tetraazacyclododecane)-calcium(ii)
_symmetry_cell_setting           monoclinic
_symmetry_space_group_name_H-M   'C 2/c'
_symmetry_Int_Tables_number      15
_space_group_name_Hall           '-C 2yn'
loop_
_symmetry_equiv_pos_site_id
_symmetry_equiv_pos_as_xyz
1 x,y,z
2 -x,y,1/2-z
3 1/2+x,1/2+y,z
4 1/2-x,1/2+y,1/2-z
5 -x,-y,-z
6 x,-y,1/2+z
7 1/2-x,1/2-y,-z
8 1/2+x,1/2-y,1/2+z
_cell_length_a                   10.371(3)
_cell_length_b                   15.703(4)
_cell_length_c                   15.646(4)
_cell_angle_alpha                90
_cell_angle_beta                 94.684(5)
_cell_angle_gamma                90
_cell_volume                     2539.53
_exptl_crystal_colour            red
_exptl_crystal_description       block
_cell_formula_units_Z            4
_chemical_properties_physical    'air- and moisture-sensitive'
_exptl_crystal_recrystallization_method tetrahydrofuran
loop_
_atom_site_label
_atom_site_type_symbol
_atom_site_fract_x
_atom_site_fract_y
_atom_site_fract_z
Ca1 Ca 0.0000 0.14914(3) 0.2500
N1 N 0.08488(14) 0.24578(9) 0.13383(9)
N2 N -0.19090(14) 0.24786(10) 0.17922(9)
C1 C -0.16950(18) 0.02352(12) 0.23652(11)
H1 H -0.2368(19) 0.0302(13) 0.1885(13)
H2 H -0.1031(19) -0.0187(13) 0.2236(12)
C2 C -0.21364(15) 0.01650(11) 0.32052(11)
C3 C -0.33913(16) 0.04367(12) 0.34002(11)
H3 H -0.3970(19) 0.0627(13) 0.2917(13)
C4 C -0.37890(16) 0.04218(12) 0.42193(11)
H4 H -0.4637(19) 0.0614(13) 0.4306(12)
C5 C -0.29742(16) 0.01320(11) 0.49114(11)
H5 H -0.3246(19) 0.0144(13) 0.5494(13)
C6 C -0.17534(16) -0.01658(11) 0.47427(11)
H6 H -0.1182(19) -0.0386(13) 0.5227(13)
C7 C -0.13514(16) -0.01586(11) 0.39232(11)
H7 H -0.0511(19) -0.0400(13) 0.3830(12)
C8 C -0.00413(19) 0.31860(13) 0.11739(13)
H8 H 0.021(2) 0.3521(13) 0.0662(14)
H9 H 0.006(2) 0.3589(14) 0.1673(14)
C9 C -0.14353(19) 0.29094(14) 0.10257(12)
H10 H -0.196(2) 0.3445(14) 0.0861(14)
H11 H -0.150(2) 0.2486(14) 0.0549(14)
C10 C -0.22084(19) 0.31263(13) 0.24354(12)
H12 H -0.310(2) 0.3381(14) 0.2305(13)
H13 H -0.159(2) 0.3623(14) 0.2424(14)
C11 C -0.21574(18) 0.27656(13) 0.33360(12)
H14 H -0.2429(19) 0.3224(14) 0.3758(13)
H15 H -0.278(2) 0.2276(14) 0.3336(13)
C12 C 0.09832(18) 0.19960(12) 0.05260(11)
H16 H 0.016(2) 0.1689(14) 0.0333(14)
H17 H 0.162(2) 0.1542(14) 0.0604(14)
H18 H 0.120(2) 0.2391(14) 0.0079(14)
C13 C -0.31099(19) 0.20203(15) 0.15076(13)
H19 H -0.345(2) 0.1731(15) 0.2023(16)
H20 H -0.294(2) 0.1548(15) 0.1075(16)
H21 H -0.377(2) 0.2426(15) 0.1233(15)
N1A N -0.08488(14) 0.24578(9) 0.36617(9)
N2A N 0.19090(14) 0.24786(10) 0.32078(9)
C8A C 0.00413(19) 0.31860(13) 0.38261(13)
H8A H -0.021(2) 0.3521(13) 0.4338(14)
H9A H -0.006(2) 0.3589(14) 0.3327(14)
C9A C 0.14353(19) 0.29094(14) 0.39743(12)
H10A H 0.196(2) 0.3445(14) 0.4139(14)
H11A H 0.150(2) 0.2486(14) 0.4451(14)
C10A C 0.22084(19) 0.31263(13) 0.25646(12)
H12A H 0.310(2) 0.3381(14) 0.2695(13)
H13A H 0.159(2) 0.3623(14) 0.2576(14)
C11A C 0.21574(18) 0.27656(13) 0.16640(12)
H14A H 0.2429(19) 0.3224(14) 0.1242(13)
H15A H 0.278(2) 0.2276(14) 0.1664(13)
C12A C -0.09832(18) 0.19960(12) 0.44740(11)
H16A H -0.016(2) 0.1689(14) 0.4667(14)
H17A H -0.162(2) 0.1542(14) 0.4396(14)
H18A H -0.120(2) 0.2391(14) 0.4921(14)
C13A C 0.31099(19) 0.20203(15) 0.34924(13)
H19A H 0.345(2) 0.1731(15) 0.2977(16)
H20A H 0.294(2) 0.1548(15) 0.3925(16)
H21A H 0.377(2) 0.2426(15) 0.3767(15)
C1A C 0.16950(18) 0.02352(12) 0.26348(11)
H1A H 0.2368(19) 0.0302(13) 0.3115(13)
H2A H 0.1031(19) -0.0187(13) 0.2764(12)
C2A C 0.21364(15) 0.01650(11) 0.17948(11)
C3A C 0.33913(16) 0.04367(12) 0.15998(11)
H3A H 0.3970(19) 0.0627(13) 0.2083(13)
C4A C 0.37890(16) 0.04218(12) 0.07807(11)
H4A H 0.4637(19) 0.0614(13) 0.0694(12)
C5A C 0.29742(16) 0.01320(11) 0.00886(11)
H5A H 0.3246(19) 0.0144(13) -0.0494(13)
C6A C 0.17534(16) -0.01658(11) 0.02573(11)
H6A H 0.1182(19) -0.0386(13) -0.0227(13)
C7A C 0.13514(16) -0.01586(11) 0.10768(11)
H7A H 0.0511(19) -0.0400(13) 0.1170(12)
loop_
_geom_bond_atom_site_label_1
_geom_bond_atom_site_label_2
_geom_bond_site_symmetry_1
_geom_bond_site_symmetry_2
Ca1 N1 1_555 1_555
N1 C8 1_555 1_555
N2 Ca1 1_555 1_555
C1 Ca1 1_555 1_555
H1 C1 1_555 1_555
H2 C1 1_555 1_555
C2 C1 1_555 1_555
C3 C2 1_555 1_555
H3 C3 1_555 1_555
C4 C3 1_555 1_555
H4 C4 1_555 1_555
C5 C4 1_555 1_555
H5 C5 1_555 1_555
C6 C5 1_555 1_555
H6 C6 1_555 1_555
C7 C2 1_555 1_555
H7 C7 1_555 1_555
C8 H8 1_555 1_555
H9 C8 1_555 1_555
C9 N2 1_555 1_555
H10 C9 1_555 1_555
H11 C9 1_555 1_555
C10 N2 1_555 1_555
H12 C10 1_555 1_555
H13 C10 1_555 1_555
C11 C10 1_555 1_555
H14 C11 1_555 1_555
H15 C11 1_555 1_555
C12 N1 1_555 1_555
H16 C12 1_555 1_555
H17 C12 1_555 1_555
H18 C12 1_555 1_555
C13 N2 1_555 1_555
H19 C13 1_555 1_555
H20 C13 1_555 1_555
H21 C13 1_555 1_555
N1A Ca1 1_555 1_555
N2A Ca1 1_555 1_555
C8A N1A 1_555 1_555
H8A C8A 1_555 1_555
H9A C8A 1_555 1_555
C9A N2A 1_555 1_555
H10A C9A 1_555 1_555
H11A C9A 1_555 1_555
C10A N2A 1_555 1_555
H12A C10A 1_555 1_555
H13A C10A 1_555 1_555
C11A N1 1_555 1_555
H14A C11A 1_555 1_555
H15A C11A 1_555 1_555
C12A N1A 1_555 1_555
H16A C12A 1_555 1_555
H17A C12A 1_555 1_555
H18A C12A 1_555 1_555
C13A N2A 1_555 1_555
H19A C13A 1_555 1_555
H20A C13A 1_555 1_555
H21A C13A 1_555 1_555
C1A Ca1 1_555 1_555
H1A C1A 1_555 1_555
H2A C1A 1_555 1_555
C2A C1A 1_555 1_555
C3A C2A 1_555 1_555
H3A C3A 1_555 1_555
C4A C3A 1_555 1_555
H4A C4A 1_555 1_555
C5A C4A 1_555 1_555
H5A C5A 1_555 1_555
C6A C5A 1_555 1_555
H6A C6A 1_555 1_555
C7A C2A 1_555 1_555
H7A C7A 1_555 1_555
C6 C7 1_555 1_555
C8 C9 1_555 1_555
C11 N1A 1_555 1_555
C8A C9A 1_555 1_555
C10A C11A 1_555 1_555
C6A C7A 1_555 1_555

#END
