
#######################################################################
#
#                 Cambridge Crystallographic Data Centre
#                                CCDC 
#
#######################################################################
#
# If this CIF has been generated from an entry in the Cambridge 
# Structural Database, then it will include bibliographic, chemical, 
# crystal, experimental, refinement or atomic coordinate data resulting 
# from the CCDC's data processing and validation procedures.
#
#######################################################################

data_XESHIN
_chemical_formula_moiety         'C34 H26 N2 O8,C3 H6 O1'
_chemical_name_systematic        
'(S)-2-(7-((S)-1-Methoxycarbonyl-2-phenylethyl)-1,3,6,8-tetraoxo-3,6,7,8-tetrahydro-1H-benzo[lmn][3,8]phenanthrolin-2-yl)-3-phenylpropionic acid methyl ester acetone solvate'
_symmetry_cell_setting           orthorhombic
_symmetry_space_group_name_H-M   'C 2 2 21'
_symmetry_Int_Tables_number      20
_space_group_name_Hall           'C 2n 2'
loop_
_symmetry_equiv_pos_site_id
_symmetry_equiv_pos_as_xyz
1 x,y,z
2 -x,-y,1/2+z
3 x,-y,-z
4 -x,y,1/2-z
5 1/2+x,1/2+y,z
6 1/2-x,1/2-y,1/2+z
7 1/2+x,1/2-y,-z
8 1/2-x,1/2+y,1/2-z
_cell_length_a                   9.2755(2)
_cell_length_b                   13.5333(3)
_cell_length_c                   25.1099(7)
_cell_angle_alpha                90
_cell_angle_beta                 90
_cell_angle_gamma                90
_cell_volume                     3152
_exptl_crystal_colour            colorless
_exptl_crystal_description       block
_cell_formula_units_Z            4
loop_
_atom_site_label
_atom_site_type_symbol
_atom_site_fract_x
_atom_site_fract_y
_atom_site_fract_z
N1 N 0.3188(3) 0.7313(2) 0.32648(10)
O1 O 0.3243(3) 0.56356(16) 0.32401(10)
C1 C 0.0646(4) 0.5525(2) 0.26469(12)
H1 H 0.1084 0.4916 0.2743
O2 O 0.3045(3) 0.78651(19) 0.42993(9)
C2 C 0.4333(4) 0.7997(3) 0.40705(14)
C3 C 0.1280(4) 0.6401(2) 0.27954(12)
O3 O 0.3194(3) 0.89858(17) 0.32557(11)
C4 C 0.4508(3) 0.7332(3) 0.35923(12)
H2 H 0.4649 0.6647 0.3732
O4 O 0.5240(3) 0.8542(2) 0.42401(12)
C5 C 0.0658(4) 0.7312(2) 0.26481(10)
C6 C 0.5839(4) 0.7577(3) 0.32589(13)
H3 H 0.5796 0.7198 0.2922
H4 H 0.5818 0.8288 0.3167
C7 C 0.1275(4) 0.8219(2) 0.27945(12)
C8 C 0.7253(4) 0.7348(3) 0.35380(12)
C9 C 0.0636(4) 0.9098(2) 0.26505(12)
H5 H 0.1060 0.9707 0.2755
C10 C 0.7658(4) 0.6376(3) 0.36315(13)
H6 H 0.7038 0.5853 0.3526
C11 C 0.2634(4) 0.6396(2) 0.31144(12)
C12 C 0.8953(4) 0.6160(3) 0.38769(15)
H7 H 0.9219 0.5492 0.3940
C13 C 0.2603(4) 0.8226(2) 0.31176(12)
C14 C 0.9860(4) 0.6916(3) 0.40298(14)
H8 H 1.0752 0.6770 0.4199
C15 C 0.9469(4) 0.7887(3) 0.39366(15)
H9 H 1.0093 0.8408 0.4043
C16 C 0.8183(4) 0.8101(3) 0.36911(14)
H10 H 0.7927 0.8770 0.3625
C17 C 0.2752(5) 0.8450(4) 0.47706(16)
H11 H 0.1989 0.8133 0.4979
H12 H 0.2441 0.9113 0.4664
H13 H 0.3630 0.8499 0.4987
N1C N -0.3188(3) 0.7313(2) 0.17352(10)
O1C O -0.3243(3) 0.56356(16) 0.17599(10)
C1C C -0.0646(4) 0.5525(2) 0.23531(12)
H1C H -0.1084 0.4916 0.2257
O2C O -0.3045(3) 0.78651(19) 0.07007(9)
C2C C -0.4333(4) 0.7997(3) 0.09295(14)
C3C C -0.1280(4) 0.6401(2) 0.22046(12)
O3C O -0.3194(3) 0.89858(17) 0.17443(11)
C4C C -0.4508(3) 0.7332(3) 0.14077(12)
H2C H -0.4649 0.6647 0.1268
O4C O -0.5240(3) 0.8542(2) 0.07599(12)
C5C C -0.0658(4) 0.7312(2) 0.23519(10)
C6C C -0.5839(4) 0.7577(3) 0.17411(13)
H3C H -0.5796 0.7198 0.2078
H4C H -0.5818 0.8288 0.1833
C7C C -0.1275(4) 0.8219(2) 0.22055(12)
C8C C -0.7253(4) 0.7348(3) 0.14620(12)
C9C C -0.0636(4) 0.9098(2) 0.23495(12)
H5C H -0.1060 0.9707 0.2245
C10C C -0.7658(4) 0.6376(3) 0.13685(13)
H6C H -0.7038 0.5853 0.1474
C11C C -0.2634(4) 0.6396(2) 0.18856(12)
C12C C -0.8953(4) 0.6160(3) 0.11231(15)
H7C H -0.9219 0.5492 0.1060
C13C C -0.2603(4) 0.8226(2) 0.18824(12)
C14C C -0.9860(4) 0.6916(3) 0.09702(14)
H8C H -1.0752 0.6770 0.0801
C15C C -0.9469(4) 0.7887(3) 0.10634(15)
H9C H -1.0093 0.8408 0.0957
C16C C -0.8183(4) 0.8101(3) 0.13089(14)
H10C H -0.7927 0.8770 0.1375
C17C C -0.2752(5) 0.8450(4) 0.02294(16)
H11C H -0.1989 0.8133 0.0021
H12C H -0.2441 0.9113 0.0336
H13C H -0.3630 0.8499 0.0013
C18? C 0.3922(10) 0.4878(10) 0.5105(4)
C19? C 0.4219(13) 0.5438(9) 0.4643(5)
H14? H 0.5024 0.5136 0.4449
H15? H 0.4475 0.6114 0.4745
H16? H 0.3364 0.5450 0.4414
O5? O 0.4972(9) 0.4521(6) 0.5374(3)
C20? C 0.2465(10) 0.4707(8) 0.5290(4)
H17? H 0.2472 0.4601 0.5676
H18? H 0.2070 0.4121 0.5113
H19? H 0.1865 0.5283 0.5206
loop_
_geom_bond_atom_site_label_1
_geom_bond_atom_site_label_2
_geom_bond_site_symmetry_1
_geom_bond_site_symmetry_2
N1 C4 1_555 1_555
O1 C11 1_555 1_555
C1 H1 1_555 1_555
O2 C2 1_555 1_555
C2 C4 1_555 1_555
C3 C1 1_555 1_555
O3 C13 1_555 1_555
C4 H2 1_555 1_555
O4 C2 1_555 1_555
C5 C3 1_555 1_555
C6 C4 1_555 1_555
H3 C6 1_555 1_555
H4 C6 1_555 1_555
C7 C5 1_555 1_555
C8 C6 1_555 1_555
C9 C7 1_555 1_555
H5 C9 1_555 1_555
C10 C8 1_555 1_555
H6 C10 1_555 1_555
C11 N1 1_555 1_555
C12 C10 1_555 1_555
H7 C12 1_555 1_555
C13 N1 1_555 1_555
C14 C12 1_555 1_555
H8 C14 1_555 1_555
C15 C14 1_555 1_555
H9 C15 1_555 1_555
C16 C8 1_555 1_555
H10 C16 1_555 1_555
C17 O2 1_555 1_555
H11 C17 1_555 1_555
H12 C17 1_555 1_555
H13 C17 1_555 1_555
N1C C4C 1_555 1_555
O1C C11C 1_555 1_555
C1C C1 1_555 1_555
H1C C1C 1_555 1_555
O2C C2C 1_555 1_555
C2C C4C 1_555 1_555
C3C C1C 1_555 1_555
O3C C13C 1_555 1_555
C4C H2C 1_555 1_555
O4C C2C 1_555 1_555
C5C C5 1_555 1_555
C6C C4C 1_555 1_555
H3C C6C 1_555 1_555
H4C C6C 1_555 1_555
C7C C5C 1_555 1_555
C8C C6C 1_555 1_555
C9C C9 1_555 1_555
H5C C9C 1_555 1_555
C10C C8C 1_555 1_555
H6C C10C 1_555 1_555
C11C N1C 1_555 1_555
C12C C10C 1_555 1_555
H7C C12C 1_555 1_555
C13C N1C 1_555 1_555
C14C C12C 1_555 1_555
H8C C14C 1_555 1_555
C15C C14C 1_555 1_555
H9C C15C 1_555 1_555
C16C C8C 1_555 1_555
H10C C16C 1_555 1_555
C17C O2C 1_555 1_555
H11C C17C 1_555 1_555
H12C C17C 1_555 1_555
H13C C17C 1_555 1_555
C3 C11 1_555 1_555
C7 C13 1_555 1_555
C15 C16 1_555 1_555
C3C C5C 1_555 1_555
C3C C11C 1_555 1_555
C7C C9C 1_555 1_555
C7C C13C 1_555 1_555
C15C C16C 1_555 1_555

#END
