
#######################################################################
#
#                 Cambridge Crystallographic Data Centre
#                                CCDC 
#
#######################################################################
#
# If this CIF has been generated from an entry in the Cambridge 
# Structural Database, then it will include bibliographic, chemical, 
# crystal, experimental, refinement or atomic coordinate data resulting 
# from the CCDC's data processing and validation procedures.
#
#######################################################################

data_XESMEO
_chemical_compound_source        
'leaves of Chinese medicinal herb Isodon eriocalyx (Labiatae )'
_chemical_name_common            'maoecrystal Z'
_chemical_formula_moiety         'C22 H30 O6'
_chemical_name_systematic        
6\b-hydroxy-11\a-acetoxy-6,7:8,15-di-seco-7,20-olide-6,8-cyclo-ent-kaur-16-en-15-aldehyde
_chemical_properties_biological  
'cytotoxic activity with inhibitory effect against human K562 leukaemia, MCF7 breast and A2780 ovarian tumour cells'
_symmetry_cell_setting           monoclinic
_symmetry_space_group_name_H-M   'P 21'
_symmetry_Int_Tables_number      4
_space_group_name_Hall           'P 2yb'
loop_
_symmetry_equiv_pos_site_id
_symmetry_equiv_pos_as_xyz
1 x,y,z
2 -x,1/2+y,-z
_cell_length_a                   6.4400(17)
_cell_length_b                   14.431(3)
_cell_length_c                   11.2310(18)
_cell_angle_alpha                90
_cell_angle_beta                 90.988(9)
_cell_angle_gamma                90
_cell_volume                     1043.6
_exptl_crystal_colour            colorless
_exptl_crystal_description       platelet
_cell_formula_units_Z            2
_exptl_crystal_recrystallization_method acetone/methanol/water
loop_
_atom_site_label
_atom_site_type_symbol
_atom_site_fract_x
_atom_site_fract_y
_atom_site_fract_z
O1 O 0.3170(3) -0.12841(19) 0.4322(2)
O2 O -0.2946(3) -0.0604(2) 0.5358(2)
O3 O -0.2003(3) 0.06608(19) 0.4405(2)
O4 O -0.0946(3) 0.13650(18) 0.6818(2)
O5 O -0.0384(4) 0.2486(2) 0.8203(3)
O6 O -0.3147(5) -0.0765(3) 0.9220(3)
C1 C 0.3128(5) 0.2018(2) 0.4316(3)
C2 C 0.3266(5) 0.2263(2) 0.2981(3)
C3 C 0.4042(5) 0.1443(2) 0.2215(3)
C4 C 0.2783(5) 0.0537(2) 0.2343(3)
C5 C 0.2626(5) 0.0362(2) 0.3702(2)
C6 C 0.1689(5) -0.0555(2) 0.4181(2)
C7 C 0.0736(5) -0.0249(2) 0.5429(3)
C8 C 0.1884(4) 0.0674(2) 0.5707(2)
C9 C 0.1760(5) 0.1161(2) 0.4490(3)
C10 C 0.1257(5) 0.1114(2) 0.6882(3)
C11 C 0.1526(5) 0.0407(2) 0.7896(3)
C12 C 0.0247(5) -0.0485(2) 0.7625(3)
C13 C 0.0958(5) -0.0936(2) 0.6452(2)
C14 C -0.1540(5) -0.0067(2) 0.5113(2)
C15 C -0.0528(5) 0.1422(2) 0.4248(3)
C16 C 0.0673(6) 0.0602(3) 0.1671(3)
C17 C 0.4008(6) -0.0268(3) 0.1793(3)
C18 C 0.0315(5) -0.1133(2) 0.8684(3)
C19 C -0.1569(6) -0.1184(4) 0.9419(3)
C20 C 0.1931(7) -0.1655(3) 0.9026(3)
C21 C -0.1575(5) 0.2026(2) 0.7604(3)
C22 C -0.3899(5) 0.2078(3) 0.7628(3)
H1 H 0.4538 0.1896 0.4644
H2 H 0.2537 0.2549 0.4754
H3 H 0.4222 0.2794 0.2888
H4 H 0.1877 0.2457 0.2683
H5 H 0.4001 0.1633 0.1368
H6 H 0.5509 0.1315 0.2435
H7 H 0.4114 0.0323 0.3967
H8 H 0.3377 0.0499 0.5820
H9 H 0.2122 0.1677 0.7048
H10 H 0.1057 0.0684 0.8652
H11 H 0.3013 0.0245 0.7993
H12 H 0.2425 -0.1133 0.6536
H13 H 0.0104 -0.1492 0.6280
H14 H -0.0907 0.1934 0.4788
H15 H -0.0668 0.1654 0.3421
H16 H -0.0144 0.1111 0.2001
H17 H -0.0086 0.0018 0.1760
H18 H 0.0911 0.0718 0.0824
H19 H 0.5356 -0.0327 0.2204
H20 H 0.4224 -0.0143 0.0946
H21 H 0.3224 -0.0845 0.1878
H22 H -0.1525 -0.1577 1.0098
H23 H 0.1836 -0.2036 0.9713
H24 H 0.3173 -0.1646 0.8583
H25 H -0.4491 0.1634 0.7056
H26 H -0.4349 0.2706 0.7414
H27 H -0.4374 0.1928 0.8429
H28 H 0.0542 -0.0764 0.3633
H29 H -0.1233 -0.0291 0.7502
H30 H 0.4345 -0.1095 0.4117
loop_
_geom_bond_atom_site_label_1
_geom_bond_atom_site_label_2
_geom_bond_site_symmetry_1
_geom_bond_site_symmetry_2
O1 C6 1_555 1_555
O2 C14 1_555 1_555
O3 C14 1_555 1_555
O4 C10 1_555 1_555
O5 C21 1_555 1_555
O6 C19 1_555 1_555
C1 C2 1_555 1_555
C2 C3 1_555 1_555
C3 C4 1_555 1_555
C4 C5 1_555 1_555
C5 C6 1_555 1_555
C6 C7 1_555 1_555
C7 C8 1_555 1_555
C8 C9 1_555 1_555
C9 C1 1_555 1_555
C10 C8 1_555 1_555
C11 C10 1_555 1_555
C12 C11 1_555 1_555
C13 C7 1_555 1_555
C14 C7 1_555 1_555
C15 O3 1_555 1_555
C16 C4 1_555 1_555
C17 C4 1_555 1_555
C18 C12 1_555 1_555
C19 C18 1_555 1_555
C20 C18 1_555 1_555
C21 O4 1_555 1_555
C22 C21 1_555 1_555
H1 C1 1_555 1_555
H2 C1 1_555 1_555
H3 C2 1_555 1_555
H4 C2 1_555 1_555
H5 C3 1_555 1_555
H6 C3 1_555 1_555
H7 C5 1_555 1_555
H8 C8 1_555 1_555
H9 C10 1_555 1_555
H10 C11 1_555 1_555
H11 C11 1_555 1_555
H12 C13 1_555 1_555
H13 C13 1_555 1_555
H14 C15 1_555 1_555
H15 C15 1_555 1_555
H16 C16 1_555 1_555
H17 C16 1_555 1_555
H18 C16 1_555 1_555
H19 C17 1_555 1_555
H20 C17 1_555 1_555
H21 C17 1_555 1_555
H22 C19 1_555 1_555
H23 C20 1_555 1_555
H24 C20 1_555 1_555
H25 C22 1_555 1_555
H26 C22 1_555 1_555
H27 C22 1_555 1_555
H28 C6 1_555 1_555
H29 C12 1_555 1_555
H30 O1 1_555 1_555
C5 C9 1_555 1_555
C9 C15 1_555 1_555
C12 C13 1_555 1_555

#END
