
#######################################################################
#
#                 Cambridge Crystallographic Data Centre
#                                CCDC 
#
#######################################################################
#
# If this CIF has been generated from an entry in the Cambridge 
# Structural Database, then it will include bibliographic, chemical, 
# crystal, experimental, refinement or atomic coordinate data resulting 
# from the CCDC's data processing and validation procedures.
#
#######################################################################

data_XESQAP
_chemical_formula_moiety         'C25 H18 Br1 F8 N3 O1'
_chemical_name_systematic        
4-(1-(4-Bromo-2,3,5,6-tetrafluorophenyl)-3-(4-ethoxy-2,3,5,6-tetrafluorophenyl)-4,5-dihydro-1H-pyrazol-5-yl)-N,N-dimethylaniline
_symmetry_cell_setting           monoclinic
_symmetry_space_group_name_H-M   'P 21/c'
_symmetry_Int_Tables_number      14
_space_group_name_Hall           '-P 2ybc'
loop_
_symmetry_equiv_pos_site_id
_symmetry_equiv_pos_as_xyz
1 x,y,z
2 -x,1/2+y,1/2-z
3 -x,-y,-z
4 x,1/2-y,1/2+z
_cell_length_a                   10.23(3)
_cell_length_b                   14.83(4)
_cell_length_c                   16.92(5)
_cell_angle_alpha                90
_cell_angle_beta                 96.87(4)
_cell_angle_gamma                90
_cell_volume                     2548.52
_cell_formula_units_Z            4
loop_
_atom_site_label
_atom_site_type_symbol
_atom_site_fract_x
_atom_site_fract_y
_atom_site_fract_z
Br1 Br 0.66241(12) 0.49702(5) 1.10616(7)
C1 C 0.6062(8) 0.5978(5) 1.0449(5)
C2 C 0.5105(9) 0.6568(5) 1.0665(5)
C3 C 0.4707(8) 0.7328(5) 1.0231(5)
C4 C 0.5260(8) 0.7573(4) 0.9577(5)
C5 C 0.6176(9) 0.6973(5) 0.9335(5)
C6 C 0.6570(9) 0.6197(5) 0.9758(5)
C7 C 0.3871(8) 0.9629(5) 0.8939(5)
C8 C 0.4092(9) 0.9339(5) 0.8105(5)
H1 H 0.4799 0.9679 0.7911
H2 H 0.3298 0.9404 0.7734
C9 C 0.4470(9) 0.8333(5) 0.8240(5)
H3 H 0.5197 0.8179 0.7937
C10 C 0.3380(8) 0.7670(4) 0.8066(5)
C11 C 0.2214(9) 0.7689(5) 0.8433(5)
H4 H 0.2109 0.8139 0.8803
C12 C 0.1248(10) 0.7078(6) 0.8264(5)
H5 H 0.0511 0.7115 0.8535
C13 C 0.1292(9) 0.6394(5) 0.7707(5)
C14 C 0.2428(10) 0.6376(5) 0.7322(5)
H6 H 0.2514 0.5938 0.6938
C15 C 0.3417(9) 0.6993(5) 0.7500(5)
H7 H 0.4153 0.6957 0.7228
C16 C 0.3101(8) 1.0437(5) 0.9144(5)
C17 C 0.2416(10) 1.0485(5) 0.9803(6)
C18 C 0.1643(11) 1.1221(5) 0.9929(6)
C19 C 0.1484(9) 1.1962(5) 0.9441(6)
C20 C 0.2177(9) 1.1919(4) 0.8760(6)
C21 C 0.2954(8) 1.1186(4) 0.8625(5)
C22 C 0.0460(15) 0.5010(6) 0.7031(8)
H8 H 0.0869 0.5201 0.6578
H9 H -0.0383 0.4747 0.6855
H10 H 0.1009 0.4570 0.7326
C23 C -0.0711(12) 0.5700(9) 0.8064(7)
H11 H -0.0309 0.5527 0.8584
H12 H -0.1343 0.5251 0.7866
H13 H -0.1146 0.6270 0.8096
C24 C -0.0419(14) 1.2868(10) 0.9193(11)
H14 H -0.0971 1.2338 0.9209
H15 H -0.0293 1.2975 0.8642
C25 C -0.1092(14) 1.3630(7) 0.9481(9)
H16 H -0.1597 1.3437 0.9893
H17 H -0.1669 1.3889 0.9052
H18 H -0.0458 1.4073 0.9691
F1 F 0.7493(6) 0.5662(3) 0.9511(4)
F2 F 0.6796(6) 0.7168(3) 0.8693(4)
F3 F 0.3728(5) 0.7839(3) 1.0503(3)
F4 F 0.4546(6) 0.6385(3) 1.1340(3)
F5 F 0.2450(7) 0.9796(3) 1.0301(4)
F6 F 0.0967(8) 1.1225(4) 1.0559(4)
F7 F 0.2128(6) 1.2627(3) 0.8249(4)
F8 F 0.3625(5) 1.1210(3) 0.7986(4)
N1 N 0.4959(6) 0.8361(3) 0.9122(4)
N2 N 0.4355(6) 0.9073(4) 0.9492(4)
N3 N 0.0288(9) 0.5776(5) 0.7533(5)
O1 O 0.0786(7) 1.2695(3) 0.9620(5)
loop_
_geom_bond_atom_site_label_1
_geom_bond_atom_site_label_2
_geom_bond_site_symmetry_1
_geom_bond_site_symmetry_2
Br1 C1 1_555 1_555
C1 C2 1_555 1_555
C2 C3 1_555 1_555
C3 C4 1_555 1_555
C4 C5 1_555 1_555
C5 C6 1_555 1_555
C6 C1 1_555 1_555
C7 C8 1_555 1_555
C8 H1 1_555 1_555
H2 C8 1_555 1_555
C9 C8 1_555 1_555
H3 C9 1_555 1_555
C10 C9 1_555 1_555
C11 C10 1_555 1_555
H4 C11 1_555 1_555
C12 C11 1_555 1_555
H5 C12 1_555 1_555
C13 C12 1_555 1_555
C14 C13 1_555 1_555
H6 C14 1_555 1_555
C15 C10 1_555 1_555
H7 C15 1_555 1_555
C16 C7 1_555 1_555
C17 C16 1_555 1_555
C18 C17 1_555 1_555
C19 C18 1_555 1_555
C20 C19 1_555 1_555
C21 C16 1_555 1_555
C22 H8 1_555 1_555
H9 C22 1_555 1_555
H10 C22 1_555 1_555
C23 H11 1_555 1_555
H12 C23 1_555 1_555
H13 C23 1_555 1_555
C24 H14 1_555 1_555
H15 C24 1_555 1_555
C25 C24 1_555 1_555
H16 C25 1_555 1_555
H17 C25 1_555 1_555
H18 C25 1_555 1_555
F1 C6 1_555 1_555
F2 C5 1_555 1_555
F3 C3 1_555 1_555
F4 C2 1_555 1_555
F5 C17 1_555 1_555
F6 C18 1_555 1_555
F7 C20 1_555 1_555
F8 C21 1_555 1_555
N1 C4 1_555 1_555
N2 C7 1_555 1_555
N3 C13 1_555 1_555
O1 C19 1_555 1_555
C9 N1 1_555 1_555
C14 C15 1_555 1_555
C20 C21 1_555 1_555
C22 N3 1_555 1_555
C23 N3 1_555 1_555
C24 O1 1_555 1_555
N1 N2 1_555 1_555

#END
