
#######################################################################
#
#                 Cambridge Crystallographic Data Centre
#                                CCDC 
#
#######################################################################
#
# If this CIF has been generated from an entry in the Cambridge 
# Structural Database, then it will include bibliographic, chemical, 
# crystal, experimental, refinement or atomic coordinate data resulting 
# from the CCDC's data processing and validation procedures.
#
#######################################################################

data_XESSEU
_chemical_name_common            
'1-n-Butyl-9,9-di-p-tolyl-1,9-dihydro-10-oxa-1,3-diazaphenanthrene-2,4-dione trifluoromethanesulfonic acid chloroform solvate'
_chemical_formula_moiety         'C29 H29 N2 O3 1+,C1 F3 O3 S1 1-,C1 H1 Cl3'
_chemical_name_systematic        
'4-n-Butyl-1-hydroxy-6,6-di-p-tolyl-3-oxo-4,6-dihydro-3H-isochromeno(3,4-d)pyrimidin-2-ium trifluoromethanesulfonate chloroform solvate'
_symmetry_cell_setting           monoclinic
_symmetry_space_group_name_H-M   'P 21/c'
_symmetry_Int_Tables_number      14
_space_group_name_Hall           '-P 2ybc'
loop_
_symmetry_equiv_pos_site_id
_symmetry_equiv_pos_as_xyz
1 x,y,z
2 -x,1/2+y,1/2-z
3 -x,-y,-z
4 x,1/2-y,1/2+z
_cell_length_a                   11.768(3)
_cell_length_b                   23.204(5)
_cell_length_c                   12.531(3)
_cell_angle_alpha                90
_cell_angle_beta                 92.748(4)
_cell_angle_gamma                90
_cell_volume                     3417.84
_exptl_crystal_colour            colorless
_exptl_crystal_description       block
_cell_formula_units_Z            4
loop_
_atom_site_label
_atom_site_type_symbol
_atom_site_fract_x
_atom_site_fract_y
_atom_site_fract_z
N1 N 1.0546(2) 0.88723(11) 0.7039(2)
N2 N 1.1118(2) 0.81562(12) 0.8244(2)
H1 H 1.157(2) 0.8036(11) 0.875(2)
H2 H 1.108(4) 0.7050(17) 0.874(4)
O1 O 1.1648(2) 0.90819(11) 0.85378(19)
O2 O 1.0642(2) 0.72103(10) 0.80103(18)
O3 O 0.93700(17) 0.86676(9) 0.56273(17)
C1 C 0.9950(3) 0.84565(14) 0.6475(2)
C2 C 0.9958(3) 0.78833(13) 0.6732(2)
C3 C 1.0582(3) 0.77416(15) 0.7668(3)
C4 C 1.1142(3) 0.87323(17) 0.7977(3)
C5 C 0.9420(3) 0.74768(13) 0.5953(2)
C6 C 0.8655(3) 0.77101(13) 0.5186(2)
C7 C 0.8177(3) 0.73637(15) 0.4385(3)
H3 H 0.7673 0.7522 0.3871
C8 C 0.8443(3) 0.67845(17) 0.4346(3)
H4 H 0.8110 0.6550 0.3816
C9 C 0.9210(3) 0.65577(15) 0.5101(3)
H5 H 0.9403 0.6170 0.5067
C10 C 0.9695(3) 0.68974(14) 0.5905(3)
H6 H 1.0204 0.6737 0.6412
C11 C 1.0572(3) 0.94771(14) 0.6657(3)
H7 H 1.0754 0.9728 0.7260
H8 H 0.9820 0.9582 0.6368
C12 C 1.1429(4) 0.95765(15) 0.5808(3)
H9 H 1.1232 0.9330 0.5203
H10 H 1.1362 0.9972 0.5565
C13 C 1.2637(4) 0.94662(17) 0.6158(4)
H11 H 1.2731 0.9059 0.6310
H12 H 1.2811 0.9675 0.6816
C14 C 1.3479(5) 0.9641(2) 0.5341(5)
H13 H 1.3261 0.9472 0.4663
H14 H 1.4225 0.9509 0.5568
H15 H 1.3485 1.0053 0.5275
C15 C 0.8319(3) 0.83339(14) 0.5290(2)
C16 C 0.7460(3) 0.84403(15) 0.6152(2)
C17 C 0.7255(3) 0.89980(17) 0.6474(3)
H16 H 0.7671 0.9301 0.6204
C18 C 0.6429(4) 0.91055(18) 0.7198(3)
H17 H 0.6302 0.9483 0.7410
C19 C 0.5793(3) 0.8671(2) 0.7614(3)
C20 C 0.6017(3) 0.81185(18) 0.7311(3)
H18 H 0.5611 0.7816 0.7598
C21 C 0.6844(3) 0.79987(16) 0.6576(3)
H19 H 0.6979 0.7620 0.6375
C22 C 0.4876(4) 0.8803(2) 0.8395(4)
H20 H 0.4151 0.8677 0.8097
H21 H 0.4852 0.9211 0.8523
H22 H 0.5045 0.8605 0.9056
C23 C 0.7947(3) 0.86145(14) 0.4232(2)
C24 C 0.8708(3) 0.88156(13) 0.3529(2)
H23 H 0.9482 0.8790 0.3707
C25 C 0.8357(4) 0.90538(14) 0.2569(3)
H24 H 0.8897 0.9199 0.2121
C26 C 0.7207(4) 0.90834(17) 0.2249(3)
C27 C 0.6445(4) 0.8871(2) 0.2939(3)
H25 H 0.5672 0.8879 0.2745
C28 C 0.6807(3) 0.86433(19) 0.3934(3)
H26 H 0.6272 0.8510 0.4397
C29 C 0.6820(5) 0.9354(2) 0.1193(3)
H27 H 0.6535 0.9060 0.0713
H28 H 0.7450 0.9545 0.0888
H29 H 0.6228 0.9629 0.1309
C30 C 0.2259(4) 0.92588(19) 0.1209(3)
H30 H 0.2054 0.8942 0.0719
Cl1 Cl 0.35686(13) 0.95149(7) 0.08832(13)
Cl2 Cl 0.12408(15) 0.98076(8) 0.10080(16)
Cl3 Cl 0.2223(2) 0.90067(9) 0.24562(14)
S1 S 0.25588(8) 0.73252(5) 0.03497(7)
O4 O 0.2348(2) 0.79249(11) 0.0144(2)
O5 O 0.1798(2) 0.69501(10) -0.02796(19)
O6 O 0.2738(2) 0.71563(13) 0.14297(19)
C31 C 0.3909(4) 0.7209(2) -0.0241(4)
F1 F 0.3802(3) 0.73087(15) -0.1279(2)
F2 F 0.4694(2) 0.75511(15) 0.0177(3)
F3 F 0.4250(2) 0.66716(15) -0.0101(3)
loop_
_geom_bond_atom_site_label_1
_geom_bond_atom_site_label_2
_geom_bond_site_symmetry_1
_geom_bond_site_symmetry_2
N1 C1 1_555 1_555
N2 H1 1_555 1_555
H2 O2 1_555 1_555
O1 C4 1_555 1_555
O2 C3 1_555 1_555
O3 C1 1_555 1_555
C1 C2 1_555 1_555
C2 C3 1_555 1_555
C3 N2 1_555 1_555
C4 N1 1_555 1_555
C5 C2 1_555 1_555
C6 C5 1_555 1_555
C7 C6 1_555 1_555
H3 C7 1_555 1_555
C8 C7 1_555 1_555
H4 C8 1_555 1_555
C9 C8 1_555 1_555
H5 C9 1_555 1_555
C10 C5 1_555 1_555
H6 C10 1_555 1_555
C11 N1 1_555 1_555
H7 C11 1_555 1_555
H8 C11 1_555 1_555
C12 C11 1_555 1_555
H9 C12 1_555 1_555
H10 C12 1_555 1_555
C13 C12 1_555 1_555
H11 C13 1_555 1_555
H12 C13 1_555 1_555
C14 C13 1_555 1_555
H13 C14 1_555 1_555
H14 C14 1_555 1_555
H15 C14 1_555 1_555
C15 O3 1_555 1_555
C16 C15 1_555 1_555
C17 C16 1_555 1_555
H16 C17 1_555 1_555
C18 C17 1_555 1_555
H17 C18 1_555 1_555
C19 C18 1_555 1_555
C20 C19 1_555 1_555
H18 C20 1_555 1_555
C21 C16 1_555 1_555
H19 C21 1_555 1_555
C22 C19 1_555 1_555
H20 C22 1_555 1_555
H21 C22 1_555 1_555
H22 C22 1_555 1_555
C23 C15 1_555 1_555
C24 C23 1_555 1_555
H23 C24 1_555 1_555
C25 C24 1_555 1_555
H24 C25 1_555 1_555
C26 C25 1_555 1_555
C27 C26 1_555 1_555
H25 C27 1_555 1_555
C28 C23 1_555 1_555
H26 C28 1_555 1_555
C29 C26 1_555 1_555
H27 C29 1_555 1_555
H28 C29 1_555 1_555
H29 C29 1_555 1_555
C30 H30 1_555 1_555
Cl1 C30 1_555 1_555
Cl2 C30 1_555 1_555
Cl3 C30 1_555 1_555
S1 O4 1_555 1_555
O5 S1 1_555 1_555
O6 S1 1_555 1_555
C31 S1 1_555 1_555
F1 C31 1_555 1_555
F2 C31 1_555 1_555
F3 C31 1_555 1_555
N2 C4 1_555 1_555
C6 C15 1_555 1_555
C9 C10 1_555 1_555
C20 C21 1_555 1_555
C27 C28 1_555 1_555

#END
