
#######################################################################
#
#                 Cambridge Crystallographic Data Centre
#                                CCDC 
#
#######################################################################
#
# If this CIF has been generated from an entry in the Cambridge 
# Structural Database, then it will include bibliographic, chemical, 
# crystal, experimental, refinement or atomic coordinate data resulting 
# from the CCDC's data processing and validation procedures.
#
#######################################################################

data_XESYUQ
_chemical_formula_moiety         'C15 H15 Br1 N2 O3'
_chemical_name_systematic        
'Methyl 3-((E)-2-(4-bromobenzoylmethylidene)imidazolidin-1-yl)acrylate'
_symmetry_cell_setting           monoclinic
_symmetry_space_group_name_H-M   'C c'
_symmetry_Int_Tables_number      9
_space_group_name_Hall           'C -2yc'
loop_
_symmetry_equiv_pos_site_id
_symmetry_equiv_pos_as_xyz
1 x,y,z
2 x,-y,1/2+z
3 1/2+x,1/2+y,z
4 1/2+x,1/2-y,1/2+z
_cell_length_a                   15.819(4)
_cell_length_b                   20.899(5)
_cell_length_c                   9.994(2)
_cell_angle_alpha                90
_cell_angle_beta                 117.307(4)
_cell_angle_gamma                90
_cell_volume                     2935.83
_exptl_crystal_colour            colorless
_exptl_crystal_description       block
_chemical_melting_point          '388 K'
_cell_formula_units_Z            8
_exptl_crystal_recrystallization_method chloroform
loop_
_atom_site_label
_atom_site_type_symbol
_atom_site_fract_x
_atom_site_fract_y
_atom_site_fract_z
Br1 Br 0.41405(6) 0.30174(4) -0.57365(8)
O4 O 0.7405(3) 0.3908(2) 0.1227(5)
O5 O 0.9989(4) 0.0341(3) 0.5693(7)
O6 O 0.8894(4) 0.0542(2) 0.3335(6)
N3 N 0.8744(4) 0.3502(3) 0.3841(6)
H2 H 0.8448 0.3850 0.3436
N4 N 0.9065(5) 0.2476(3) 0.4136(7)
C1 C 0.6204(5) 0.3737(3) -0.1755(8)
H3 H 0.6463 0.4139 -0.1402
C2 C 0.5490(5) 0.3677(4) -0.3189(9)
H4 H 0.5257 0.4035 -0.3802
C3 C 0.5127(5) 0.3094(4) -0.3711(8)
C4 C 0.5416(5) 0.2567(3) -0.2819(9)
H5 H 0.5129 0.2172 -0.3172
C5 C 0.6145(6) 0.2633(3) -0.1380(9)
H6 H 0.6370 0.2272 -0.0771
C6 C 0.6547(5) 0.3217(4) -0.0824(8)
C7 C 0.7309(5) 0.3345(4) 0.0778(8)
C8 C 0.7820(5) 0.2827(3) 0.1683(8)
H7 H 0.7686 0.2412 0.1305
C9 C 0.8527(6) 0.2934(3) 0.3149(9)
C10 C 0.9524(6) 0.3469(3) 0.5332(9)
H8 H 0.9354 0.3655 0.6065
H9 H 1.0080 0.3688 0.5386
C11 C 0.9702(6) 0.2759(4) 0.5589(9)
H10 H 1.0360 0.2656 0.5870
H11 H 0.9550 0.2609 0.6371
C12 C 0.9038(5) 0.1842(3) 0.3918(7)
H12 H 0.8616 0.1692 0.2967
C13 C 0.9560(5) 0.1407(3) 0.4941(8)
H13 H 0.9994 0.1562 0.5880
C14 C 0.9523(6) 0.0714(5) 0.4740(11)
C15 C 0.8787(6) -0.0142(3) 0.3082(9)
H14 H 0.9359 -0.0315 0.3118
H15 H 0.8261 -0.0225 0.2111
H16 H 0.8668 -0.0339 0.3848
Br2 Br 0.71934(6) 0.08836(4) 1.01521(8)
O1 O 0.3381(3) -0.00721(19) 0.3780(5)
O2 O 0.2708(4) 0.3330(3) 0.0987(6)
O3 O 0.1667(4) 0.3446(2) -0.1410(5)
N1 N 0.2198(4) 0.0339(3) 0.0961(6)
H1 H 0.2308 -0.0006 0.1484
N2 N 0.2198(4) 0.1355(2) 0.0436(7)
C16 C 0.5312(5) 0.0965(3) 0.5632(7)
H17 H 0.5293 0.1156 0.4779
C17 C 0.6114(5) 0.1041(3) 0.7005(8)
H18 H 0.6644 0.1261 0.7074
C18 C 0.6104(6) 0.0779(3) 0.8277(8)
C19 C 0.5347(5) 0.0448(3) 0.8149(7)
H19 H 0.5346 0.0279 0.9009
C20 C 0.4583(4) 0.0353(3) 0.6798(7)
H20 H 0.4075 0.0109 0.6738
C21 C 0.4548(5) 0.0617(3) 0.5501(9)
C22 C 0.3712(5) 0.0483(3) 0.4013(7)
C23 C 0.3344(5) 0.0982(3) 0.2957(8)
H21 H 0.3605 0.1389 0.3232
C24 C 0.2622(5) 0.0891(3) 0.1547(9)
C25 C 0.1533(5) 0.0363(3) -0.0645(8)
H22 H 0.0915 0.0193 -0.0845
H23 H 0.1774 0.0129 -0.1236
C26 C 0.1480(5) 0.1069(3) -0.0966(9)
H24 H 0.1623 0.1157 -0.1793
H25 H 0.0851 0.1235 -0.1217
C27 C 0.2347(4) 0.1994(3) 0.0615(6)
H26 H 0.2768 0.2141 0.1570
C28 C 0.1943(5) 0.2426(3) -0.0458(8)
H27 H 0.1510 0.2292 -0.1418
C29 C 0.2151(5) 0.3088(3) -0.0185(8)
C30 C 0.1854(5) 0.4123(3) -0.1274(9)
H28 H 0.1692 0.4299 -0.0534
H29 H 0.1478 0.4326 -0.2227
H30 H 0.2516 0.4196 -0.0969
loop_
_geom_bond_atom_site_label_1
_geom_bond_atom_site_label_2
_geom_bond_site_symmetry_1
_geom_bond_site_symmetry_2
Br1 C3 1_555 1_555
Br2 C18 1_555 1_555
O1 C22 1_555 1_555
O2 C29 1_555 1_555
O3 C29 1_555 1_555
O4 C7 1_555 1_555
O5 C14 1_555 1_555
O6 C14 1_555 1_555
N1 H1 1_555 1_555
N2 C24 1_555 1_555
N3 H2 1_555 1_555
N4 C9 1_555 1_555
C1 H3 1_555 1_555
C2 C1 1_555 1_555
H4 C2 1_555 1_555
C3 C2 1_555 1_555
C4 C3 1_555 1_555
H5 C4 1_555 1_555
C5 C4 1_555 1_555
H6 C5 1_555 1_555
C6 C1 1_555 1_555
C7 C6 1_555 1_555
C8 C7 1_555 1_555
H7 C8 1_555 1_555
C9 N3 1_555 1_555
C10 N3 1_555 1_555
H8 C10 1_555 1_555
H9 C10 1_555 1_555
C11 N4 1_555 1_555
H10 C11 1_555 1_555
H11 C11 1_555 1_555
C12 N4 1_555 1_555
H12 C12 1_555 1_555
C13 C12 1_555 1_555
H13 C13 1_555 1_555
C14 C13 1_555 1_555
C15 O6 1_555 1_555
H14 C15 1_555 1_555
H15 C15 1_555 1_555
H16 C15 1_555 1_555
C16 H17 1_555 1_555
C17 C16 1_555 1_555
H18 C17 1_555 1_555
C18 C17 1_555 1_555
C19 C18 1_555 1_555
H19 C19 1_555 1_555
C20 C19 1_555 1_555
H20 C20 1_555 1_555
C21 C16 1_555 1_555
C22 C21 1_555 1_555
C23 C22 1_555 1_555
H21 C23 1_555 1_555
C24 N1 1_555 1_555
C25 N1 1_555 1_555
H22 C25 1_555 1_555
H23 C25 1_555 1_555
C26 N2 1_555 1_555
H24 C26 1_555 1_555
H25 C26 1_555 1_555
C27 N2 1_555 1_555
H26 C27 1_555 1_555
C28 C27 1_555 1_555
H27 C28 1_555 1_555
C29 C28 1_555 1_555
C30 O3 1_555 1_555
H28 C30 1_555 1_555
H29 C30 1_555 1_555
H30 C30 1_555 1_555
C5 C6 1_555 1_555
C8 C9 1_555 1_555
C10 C11 1_555 1_555
C20 C21 1_555 1_555
C23 C24 1_555 1_555
C25 C26 1_555 1_555

#END
