
#######################################################################
#
#                 Cambridge Crystallographic Data Centre
#                                CCDC 
#
#######################################################################
#
# If this CIF has been generated from an entry in the Cambridge 
# Structural Database, then it will include bibliographic, chemical, 
# crystal, experimental, refinement or atomic coordinate data resulting 
# from the CCDC's data processing and validation procedures.
#
#######################################################################

data_XETROG
_chemical_name_common            2,3-bis(3-methoxyphenoxy)-1,4-naphthoquinone
_chemical_formula_moiety         'C24 H18 O6'
_chemical_name_systematic        
2,3-Bis(3-methoxyphenoxy)naphthalene-1,4-dione
_symmetry_cell_setting           orthorhombic
_symmetry_space_group_name_H-M   'P 21 21 2'
_symmetry_Int_Tables_number      18
_space_group_name_Hall           'P 2 2ab'
loop_
_symmetry_equiv_pos_site_id
_symmetry_equiv_pos_as_xyz
1 x,y,z
2 -x,-y,z
3 1/2+x,1/2-y,-z
4 1/2-x,1/2+y,-z
_cell_length_a                   18.032(12)
_cell_length_b                   5.182(3)
_cell_length_c                   10.227(7)
_cell_angle_alpha                90
_cell_angle_beta                 90
_cell_angle_gamma                90
_cell_volume                     955.63
_exptl_crystal_colour            red
_exptl_crystal_description       needle
_cell_formula_units_Z            2
_exptl_crystal_recrystallization_method toluene
loop_
_atom_site_label
_atom_site_type_symbol
_atom_site_fract_x
_atom_site_fract_y
_atom_site_fract_z
O1 O 0.45886(7) 0.2189(3) 0.59831(13)
O2 O 0.41488(8) 0.4246(3) 0.36163(16)
O3 O 0.26553(8) 0.6219(3) 0.84831(14)
C1 C 0.47720(10) 0.1031(4) 0.48205(19)
C2 C 0.25884(11) 0.0796(4) 0.62430(19)
H1 H 0.2225 -0.0365 0.5915
C3 C 0.38331(10) 0.2334(4) 0.62962(19)
C4 C 0.45180(10) 0.2275(4) 0.3583(2)
C5 C 0.36437(11) 0.4272(4) 0.71798(19)
H2 H 0.4006 0.5456 0.7488
C6 C 0.29084(11) 0.4432(4) 0.76005(19)
C7 C 0.23801(11) 0.2698(4) 0.71247(19)
H3 H 0.1879 0.2820 0.7404
C8 C 0.47581(11) 0.1062(4) 0.2325(2)
C9 C 0.33239(11) 0.0562(4) 0.5830(2)
H4 H 0.3470 -0.0772 0.5247
C10 C 0.47562(13) 0.1040(5) -0.0036(2)
H5 H 0.4589 0.1744 -0.0842
C11 C 0.32005(13) 0.7820(5) 0.9105(2)
H6 H 0.3438 0.8925 0.8449
H7 H 0.3576 0.6730 0.9523
H8 H 0.2960 0.8899 0.9768
C12 C 0.45122(12) 0.2094(5) 0.1136(2)
H9 H 0.4179 0.3514 0.1132
O1A O 0.54114(7) -0.2189(3) 0.59831(13)
O2A O 0.58512(8) -0.4246(3) 0.36163(16)
O3A O 0.73447(8) -0.6219(3) 0.84831(14)
C1A C 0.52280(10) -0.1031(4) 0.48205(19)
C2A C 0.74116(11) -0.0796(4) 0.62430(19)
H1A H 0.7775 0.0365 0.5915
C3A C 0.61669(10) -0.2334(4) 0.62962(19)
C4A C 0.54820(10) -0.2275(4) 0.3583(2)
C5A C 0.63563(11) -0.4272(4) 0.71798(19)
H2A H 0.5994 -0.5456 0.7488
C6A C 0.70916(11) -0.4432(4) 0.76005(19)
C7A C 0.76199(11) -0.2698(4) 0.71247(19)
H3A H 0.8121 -0.2820 0.7404
C8A C 0.52419(11) -0.1062(4) 0.2325(2)
C9A C 0.66761(11) -0.0562(4) 0.5830(2)
H4A H 0.6530 0.0772 0.5247
C10A C 0.52438(13) -0.1040(5) -0.0036(2)
H5A H 0.5411 -0.1744 -0.0842
C11A C 0.67995(13) -0.7820(5) 0.9105(2)
H6A H 0.6562 -0.8925 0.8449
H7A H 0.6424 -0.6730 0.9523
H8A H 0.7040 -0.8899 0.9768
C12A C 0.54878(12) -0.2094(5) 0.1136(2)
H9A H 0.5821 -0.3514 0.1132
loop_
_geom_bond_atom_site_label_1
_geom_bond_atom_site_label_2
_geom_bond_site_symmetry_1
_geom_bond_site_symmetry_2
O1 C1 1_555 1_555
O2 C4 1_555 1_555
O3 C6 1_555 1_555
C1 C4 1_555 1_555
C2 H1 1_555 1_555
C3 O1 1_555 1_555
C4 C8 1_555 1_555
C5 C3 1_555 1_555
H2 C5 1_555 1_555
C6 C5 1_555 1_555
C7 C2 1_555 1_555
H3 C7 1_555 1_555
C8 C12 1_555 1_555
C9 C2 1_555 1_555
H4 C9 1_555 1_555
C10 H5 1_555 1_555
C11 O3 1_555 1_555
H6 C11 1_555 1_555
H7 C11 1_555 1_555
H8 C11 1_555 1_555
C12 C10 1_555 1_555
H9 C12 1_555 1_555
O1A C1A 1_555 1_555
O2A C4A 1_555 1_555
O3A C6A 1_555 1_555
C1A C1 1_555 1_555
C2A H1A 1_555 1_555
C3A O1A 1_555 1_555
C4A C1A 1_555 1_555
C5A C3A 1_555 1_555
H2A C5A 1_555 1_555
C6A C5A 1_555 1_555
C7A C2A 1_555 1_555
H3A C7A 1_555 1_555
C8A C8 1_555 1_555
C9A C2A 1_555 1_555
H4A C9A 1_555 1_555
C10A C10 1_555 1_555
H5A C10A 1_555 1_555
C11A O3A 1_555 1_555
H6A C11A 1_555 1_555
H7A C11A 1_555 1_555
H8A C11A 1_555 1_555
C12A C8A 1_555 1_555
H9A C12A 1_555 1_555
C3 C9 1_555 1_555
C6 C7 1_555 1_555
C3A C9A 1_555 1_555
C4A C8A 1_555 1_555
C6A C7A 1_555 1_555
C10A C12A 1_555 1_555

#END
