
#######################################################################
#
#                 Cambridge Crystallographic Data Centre
#                                CCDC 
#
#######################################################################
#
# If this CIF has been generated from an entry in the Cambridge 
# Structural Database, then it will include bibliographic, chemical, 
# crystal, experimental, refinement or atomic coordinate data resulting 
# from the CCDC's data processing and validation procedures.
#
#######################################################################

data_XETSAT
_chemical_formula_moiety         'C26 H26 Cl2 N4 O4'
_chemical_name_systematic        
"di-t-butyl 2,2'-(2,3-dichloroquinoxaline-5,8-diyl)bis(1H-pyrrole-1-carboxylate)"
_symmetry_cell_setting           monoclinic
_symmetry_space_group_name_H-M   'P 21/c'
_symmetry_Int_Tables_number      14
_space_group_name_Hall           '-P 2ybc'
loop_
_symmetry_equiv_pos_site_id
_symmetry_equiv_pos_as_xyz
1 x,y,z
2 -x,1/2+y,1/2-z
3 -x,-y,-z
4 x,1/2-y,1/2+z
_cell_length_a                   13.8347(2)
_cell_length_b                   15.9451(3)
_cell_length_c                   23.7008(4)
_cell_angle_alpha                90
_cell_angle_beta                 99.276(2)
_cell_angle_gamma                90
_cell_volume                     5159.93
_exptl_crystal_colour            colorless
_exptl_crystal_description       plate
_cell_formula_units_Z            8
_exptl_crystal_preparation       ', Luminescent'
loop_
_atom_site_label
_atom_site_type_symbol
_atom_site_fract_x
_atom_site_fract_y
_atom_site_fract_z
Cl1 Cl 0.86910(4) 0.61920(4) 0.67928(3)
Cl2 Cl 0.64076(4) 0.60086(4) 0.67165(3)
O1 O 0.87901(11) 0.71444(10) 0.49471(7)
O2 O 0.52146(11) 0.72253(11) 0.47390(7)
O3 O 0.36112(12) 0.69111(12) 0.47340(8)
O4 O 1.04324(13) 0.69147(13) 0.50855(8)
N1 N 0.42800(12) 0.79475(12) 0.52875(8)
N2 N 0.62693(12) 0.73030(11) 0.60386(7)
N3 N 0.82945(12) 0.74222(12) 0.60708(7)
N4 N 0.98274(13) 0.81411(13) 0.53677(8)
C1 C 0.76777(14) 0.79689(13) 0.57475(8)
C2 C 0.60149(15) 0.85382(14) 0.54585(8)
C3 C 0.66567(14) 0.79196(13) 0.57449(8)
C4 C 0.44400(15) 0.73237(15) 0.48975(9)
C5 C 0.80730(15) 0.86144(14) 0.54351(8)
C6 C 0.68758(15) 0.67878(14) 0.63353(9)
C7 C 0.64228(16) 0.91703(14) 0.51785(9)
H1 H 0.6020 0.9590 0.4997
C8 C 0.74317(16) 0.91974(14) 0.51603(9)
H2 H 0.7674 0.9624 0.4955
C9 C 0.91306(16) 0.87432(15) 0.54599(9)
C10 C 0.49657(15) 0.85508(15) 0.55129(9)
C11 C 0.79104(15) 0.68618(14) 0.63594(9)
C12 C 0.33849(16) 0.81481(17) 0.54522(10)
H3 H 0.2806 0.7847 0.5358
C13 C 0.97313(16) 0.73416(17) 0.51288(9)
C14 C 0.44913(17) 0.91081(16) 0.58056(10)
H4 H 0.4769 0.9580 0.5998
C15 C 0.96214(17) 0.94691(17) 0.56163(10)
H5 H 0.9336 0.9973 0.5699
C16 C 0.34997(17) 0.88483(17) 0.57691(10)
H6 H 0.3018 0.9116 0.5935
C17 C 1.07452(17) 0.8530(2) 0.54783(11)
H7 H 1.1339 0.8274 0.5449
C18 C 1.06384(18) 0.93293(18) 0.56330(11)
H8 H 1.1137 0.9719 0.5732
C19 C 0.8514(2) 0.62837(17) 0.47412(12)
C20 C 0.3565(2) 0.62626(17) 0.42769(13)
C21 C 0.3736(2) 0.6670(2) 0.37319(12)
H9 H 0.3273 0.7117 0.3636
H10 H 0.3655 0.6263 0.3430
H11 H 0.4389 0.6893 0.3780
C22 C 0.7401(2) 0.6317(2) 0.46685(14)
H12 H 0.7203 0.6402 0.5034
H13 H 0.7133 0.5799 0.4507
H14 H 0.7165 0.6772 0.4418
C23 C 0.8861(3) 0.6129(2) 0.41753(13)
H15 H 0.8596 0.6552 0.3906
H16 H 0.8643 0.5586 0.4032
H17 H 0.9563 0.6151 0.4230
C24 C 0.8931(3) 0.56438(19) 0.51914(14)
H18 H 0.9631 0.5628 0.5221
H19 H 0.8666 0.5100 0.5083
H20 H 0.8759 0.5799 0.5554
C25 C 0.2516(3) 0.5963(3) 0.42252(18)
H21 H 0.2400 0.5754 0.4588
H22 H 0.2403 0.5524 0.3945
H23 H 0.2080 0.6422 0.4109
C26 C 0.4284(3) 0.5569(2) 0.4480(2)
H24 H 0.4940 0.5787 0.4526
H25 H 0.4214 0.5125 0.4203
H26 H 0.4156 0.5357 0.4840
Cl3 Cl 0.36126(5) 0.62859(5) 0.62922(2)
Cl4 Cl 0.13603(5) 0.64740(5) 0.63547(3)
O5 O 0.46016(10) 0.45382(10) 0.78281(6)
O6 O -0.04380(10) 0.47340(10) 0.77961(7)
O7 O 0.59542(12) 0.45156(11) 0.74046(7)
O8 O 0.12256(11) 0.47271(11) 0.79303(7)
N5 N 0.38540(13) 0.61645(12) 0.73976(8)
N6 N 0.03707(13) 0.58056(12) 0.82610(8)
N7 N 0.18599(13) 0.63110(12) 0.74559(8)
N8 N 0.57820(13) 0.55068(13) 0.80713(8)
C27 C 0.21906(15) 0.61616(13) 0.84833(9)
C28 C 0.35322(15) 0.61269(13) 0.79147(9)
C29 C 0.25226(15) 0.61963(13) 0.79446(9)
C30 C 0.11578(16) 0.62716(14) 0.85466(10)
C31 C 0.42320(15) 0.60311(13) 0.84212(9)
C32 C 0.38886(16) 0.60208(14) 0.89361(9)
H27 H 0.4335 0.5972 0.9273
C33 C 0.52952(16) 0.60129(14) 0.84180(9)
C34 C 0.54608(15) 0.48090(15) 0.77265(9)
C35 C 0.28904(16) 0.60815(14) 0.89675(9)
H28 H 0.2692 0.6068 0.9324
C36 C 0.04521(15) 0.50396(15) 0.79785(9)
C37 C 0.21903(17) 0.63388(15) 0.69763(10)
C38 C 0.07898(17) 0.68342(16) 0.88884(10)
H29 H 0.1151 0.7221 0.9130
C39 C 0.32036(17) 0.62579(15) 0.69462(10)
C40 C 0.41407(17) 0.37796(14) 0.75282(10)
C41 C -0.05569(16) 0.38898(15) 0.75206(10)
C42 C 0.59840(16) 0.65072(16) 0.87371(10)
H30 H 0.5866 0.6905 0.9005
C43 C 0.47862(18) 0.30222(15) 0.76863(11)
H31 H 0.5391 0.3092 0.7542
H32 H 0.4458 0.2528 0.7523
H33 H 0.4919 0.2966 0.8095
C44 C -0.04821(16) 0.61047(16) 0.84301(11)
H34 H -0.1112 0.5908 0.8301
C45 C -0.02439(18) 0.67274(17) 0.88121(11)
H35 H -0.0678 0.7033 0.8993
C46 C 0.31893(18) 0.37204(16) 0.77717(12)
H36 H 0.3335 0.3660 0.8180
H37 H 0.2822 0.3243 0.7611
H38 H 0.2811 0.4221 0.7678
C47 C 0.67762(16) 0.57025(17) 0.81872(11)
H39 H 0.7265 0.5457 0.8016
C48 C 0.39291(19) 0.39382(17) 0.68870(10)
H40 H 0.3542 0.4438 0.6812
H41 H 0.3577 0.3470 0.6700
H42 H 0.4535 0.4007 0.6744
C49 C 0.69099(18) 0.63075(18) 0.85888(11)
H43 H 0.7505 0.6552 0.8742
C50 C -0.00419(19) 0.32284(17) 0.79156(11)
H44 H 0.0654 0.3294 0.7943
H45 H -0.0230 0.2682 0.7767
H46 H -0.0222 0.3289 0.8288
C51 C -0.0185(2) 0.39321(18) 0.69540(11)
H47 H -0.0526 0.4367 0.6722
H48 H -0.0296 0.3404 0.6760
H49 H 0.0504 0.4053 0.7021
C52 C -0.16612(18) 0.37763(19) 0.74404(13)
H50 H -0.1872 0.3776 0.7807
H51 H -0.1835 0.3253 0.7251
H52 H -0.1973 0.4228 0.7213
loop_
_geom_bond_atom_site_label_1
_geom_bond_atom_site_label_2
_geom_bond_site_symmetry_1
_geom_bond_site_symmetry_2
Cl1 C11 1_555 1_555
Cl2 C6 1_555 1_555
O1 C13 1_555 1_555
O2 C4 1_555 1_555
O3 C4 1_555 1_555
O4 C13 1_555 1_555
N1 C4 1_555 1_555
N2 C3 1_555 1_555
N3 C1 1_555 1_555
N4 C9 1_555 1_555
C1 C3 1_555 1_555
C2 C3 1_555 1_555
C5 C1 1_555 1_555
C6 N2 1_555 1_555
C7 C2 1_555 1_555
H1 C7 1_555 1_555
C8 C5 1_555 1_555
H2 C8 1_555 1_555
C9 C5 1_555 1_555
C10 N1 1_555 1_555
C11 N3 1_555 1_555
C12 N1 1_555 1_555
H3 C12 1_555 1_555
C13 N4 1_555 1_555
C14 C10 1_555 1_555
H4 C14 1_555 1_555
C15 C9 1_555 1_555
H5 C15 1_555 1_555
C16 C12 1_555 1_555
H6 C16 1_555 1_555
C17 N4 1_555 1_555
H7 C17 1_555 1_555
C18 C15 1_555 1_555
H8 C18 1_555 1_555
C19 O1 1_555 1_555
C20 O3 1_555 1_555
C21 C20 1_555 1_555
H9 C21 1_555 1_555
H10 C21 1_555 1_555
H11 C21 1_555 1_555
C22 C19 1_555 1_555
H12 C22 1_555 1_555
H13 C22 1_555 1_555
H14 C22 1_555 1_555
C23 C19 1_555 1_555
H15 C23 1_555 1_555
H16 C23 1_555 1_555
H17 C23 1_555 1_555
C24 C19 1_555 1_555
H18 C24 1_555 1_555
H19 C24 1_555 1_555
H20 C24 1_555 1_555
C25 C20 1_555 1_555
H21 C25 1_555 1_555
H22 C25 1_555 1_555
H23 C25 1_555 1_555
C26 C20 1_555 1_555
H24 C26 1_555 1_555
H25 C26 1_555 1_555
H26 C26 1_555 1_555
Cl3 C39 1_555 1_555
Cl4 C37 1_555 1_555
O5 C34 1_555 1_555
O6 C36 1_555 1_555
O7 C34 1_555 1_555
O8 C36 1_555 1_555
N5 C28 1_555 1_555
N6 C30 1_555 1_555
N7 C29 1_555 1_555
N8 C33 1_555 1_555
C27 C29 1_555 1_555
C28 C29 1_555 1_555
C30 C27 1_555 1_555
C31 C28 1_555 1_555
C32 C31 1_555 1_555
H27 C32 1_555 1_555
C33 C31 1_555 1_555
C34 N8 1_555 1_555
C35 C27 1_555 1_555
H28 C35 1_555 1_555
C36 N6 1_555 1_555
C37 N7 1_555 1_555
C38 C30 1_555 1_555
H29 C38 1_555 1_555
C39 N5 1_555 1_555
C40 O5 1_555 1_555
C41 O6 1_555 1_555
C42 C33 1_555 1_555
H30 C42 1_555 1_555
C43 C40 1_555 1_555
H31 C43 1_555 1_555
H32 C43 1_555 1_555
H33 C43 1_555 1_555
C44 N6 1_555 1_555
H34 C44 1_555 1_555
C45 C38 1_555 1_555
H35 C45 1_555 1_555
C46 C40 1_555 1_555
H36 C46 1_555 1_555
H37 C46 1_555 1_555
H38 C46 1_555 1_555
C47 N8 1_555 1_555
H39 C47 1_555 1_555
C48 C40 1_555 1_555
H40 C48 1_555 1_555
H41 C48 1_555 1_555
H42 C48 1_555 1_555
C49 C42 1_555 1_555
H43 C49 1_555 1_555
C50 C41 1_555 1_555
H44 C50 1_555 1_555
H45 C50 1_555 1_555
H46 C50 1_555 1_555
C51 C41 1_555 1_555
H47 C51 1_555 1_555
H48 C51 1_555 1_555
H49 C51 1_555 1_555
C52 C41 1_555 1_555
H50 C52 1_555 1_555
H51 C52 1_555 1_555
H52 C52 1_555 1_555
C2 C10 1_555 1_555
C6 C11 1_555 1_555
C7 C8 1_555 1_555
C14 C16 1_555 1_555
C17 C18 1_555 1_555
C32 C35 1_555 1_555
C37 C39 1_555 1_555
C44 C45 1_555 1_555
C47 C49 1_555 1_555

#END
