
#######################################################################
#
#                 Cambridge Crystallographic Data Centre
#                                CCDC 
#
#######################################################################
#
# If this CIF has been generated from an entry in the Cambridge 
# Structural Database, then it will include bibliographic, chemical, 
# crystal, experimental, refinement or atomic coordinate data resulting 
# from the CCDC's data processing and validation procedures.
#
#######################################################################

data_XETSOH
_chemical_name_common            
'4,5-bis(2-oxopyridin-1(2H)-yl)pentacyclo[6.6.6.0$2,7!.0$9,14!.0$15,20!]icosa-2(7),4,9,11,13,15,17,19-octaene-3,6-dione dichloromethane solvate'
_chemical_formula_moiety         'C30 H18 N2 O4,C1 H2 Cl2'
_chemical_name_systematic        
'14,15-bis(2-oxopyridin-1(2H)-yl)-9,10-dihydro-9,10-[1,2]benzenoanthracene-13,16-dione dichloromethane solvate'
_symmetry_cell_setting           triclinic
_symmetry_space_group_name_H-M   'P -1'
_symmetry_Int_Tables_number      2
_space_group_name_Hall           '-P 1'
loop_
_symmetry_equiv_pos_site_id
_symmetry_equiv_pos_as_xyz
1 x,y,z
2 -x,-y,-z
_cell_length_a                   9.5418(9)
_cell_length_b                   11.7365(11)
_cell_length_c                   12.3526(12)
_cell_angle_alpha                109.369(4)
_cell_angle_beta                 100.228(5)
_cell_angle_gamma                95.129(5)
_cell_volume                     1267.81
_exptl_crystal_colour            orange
_exptl_crystal_description       plate
_cell_formula_units_Z            2
loop_
_atom_site_label
_atom_site_type_symbol
_atom_site_fract_x
_atom_site_fract_y
_atom_site_fract_z
O1 O 0.8700(3) 0.3834(3) 0.4569(3)
O2 O 0.3966(3) 0.3686(4) 0.1464(3)
N1 N 0.6180(4) 0.2568(3) 0.4664(3)
N2 N 0.3648(4) 0.2529(4) 0.3056(3)
O3 O 0.7418(5) 0.1182(4) 0.3598(4)
O4 O 0.3218(4) 0.4345(4) 0.4199(4)
C1 C 0.6484(4) 0.4306(4) 0.2156(4)
C2 C 0.7969(5) 0.4249(4) 0.0729(4)
C3 C 0.7481(5) 0.6198(4) 0.1978(4)
C4 C 0.7642(4) 0.3812(4) 0.3857(3)
C5 C 0.5052(4) 0.3729(4) 0.2158(4)
C6 C 0.6197(4) 0.3145(4) 0.3823(4)
C7 C 0.8682(5) 0.6279(5) 0.2827(4)
C8 C 0.5017(4) 0.3127(4) 0.3060(4)
C9 C 0.9176(5) 0.4352(4) 0.1584(4)
C10 C 0.7673(4) 0.4379(4) 0.2969(4)
C11 C 0.9039(5) 0.5040(5) 0.2841(4)
H1 H 0.9910 0.5101 0.3455
C12 C 0.6764(4) 0.4858(4) 0.1246(4)
H2 H 0.5881 0.4786 0.0640
C13 C 0.6849(5) 0.1514(4) 0.4471(4)
C14 C 0.5572(5) 0.3053(5) 0.5605(4)
H3 H 0.5177 0.3787 0.5711
C15 C 0.2762(5) 0.3264(5) 0.3691(4)
C16 C 0.7025(5) 0.7220(5) 0.1811(5)
H4 H 0.6211 0.7142 0.1208
C17 C 0.7936(6) 0.3663(5) -0.0440(4)
H5 H 0.7111 0.3601 -0.1027
C18 C 0.9434(6) 0.7408(5) 0.3555(5)
H6 H 1.0257 0.7473 0.4145
C19 C 0.6817(5) 0.0952(5) 0.5327(5)
H7 H 0.7247 0.0238 0.5257
C20 C 0.6184(5) 0.1419(5) 0.6240(5)
H8 H 0.6173 0.1024 0.6797
C21 C 0.5543(5) 0.2470(6) 0.6384(5)
H9 H 0.5090 0.2774 0.7025
C22 C 1.0391(6) 0.3869(5) 0.1272(5)
H10 H 1.1228 0.3948 0.1855
C23 C 0.9165(7) 0.3151(5) -0.0753(5)
H11 H 0.9156 0.2723 -0.1556
C24 C 0.3281(6) 0.1299(5) 0.2481(5)
H12 H 0.3918 0.0843 0.2071
C25 C 0.8971(7) 0.8467(6) 0.3415(5)
H13 H 0.9477 0.9251 0.3922
C26 C 0.1429(5) 0.2635(6) 0.3676(5)
H14 H 0.0771 0.3075 0.4074
C27 C 0.7783(7) 0.8376(6) 0.2545(5)
H15 H 0.7484 0.9093 0.2447
C28 C 1.0342(7) 0.3268(6) 0.0084(6)
H16 H 1.1160 0.2932 -0.0142
C29 C 0.1072(6) 0.1415(7) 0.3104(6)
H17 H 0.0168 0.1012 0.3113
C30 C 0.1989(7) 0.0738(6) 0.2506(7)
H18 H 0.1714 -0.0120 0.2111
Cl3 Cl 0.6073(3) 0.1327(2) 0.0219(2)
Cl4 Cl 0.8182(3) -0.0246(3) 0.0518(2)
C32 C 0.7770(9) 0.1230(8) 0.0962(8)
H21 H 0.8512 0.1781 0.0826
H22 H 0.7804 0.1518 0.1817
Cl3A Cl 0.3927(3) -0.1327(2) -0.0219(2)
Cl4A Cl 0.1818(3) 0.0246(3) -0.0518(2)
C32A C 0.2230(9) -0.1230(8) -0.0962(8)
H21A H 0.1488 -0.1781 -0.0826
H22A H 0.2196 -0.1518 -0.1817
Cl1? Cl 0.8138(18) 0.062(2) 0.0158(17)
C31? C 0.638(3) 0.028(5) 0.035(5)
H19? H 0.6366 0.0585 0.1196
H20? H 0.6053 -0.0615 0.0027
Cl2? Cl 0.5218(18) 0.1004(15) -0.0404(16)
loop_
_geom_bond_atom_site_label_1
_geom_bond_atom_site_label_2
_geom_bond_site_symmetry_1
_geom_bond_site_symmetry_2
O1 C4 1_555 1_555
O2 C5 1_555 1_555
N1 C6 1_555 1_555
N2 C8 1_555 1_555
O3 C13 1_555 1_555
O4 C15 1_555 1_555
C1 C5 1_555 1_555
C2 C9 1_555 1_555
C3 C7 1_555 1_555
C4 C6 1_555 1_555
C5 C8 1_555 1_555
C6 C8 1_555 1_555
C7 C11 1_555 1_555
C9 C11 1_555 1_555
C10 C1 1_555 1_555
C11 C10 1_555 1_555
H1 C11 1_555 1_555
C12 C1 1_555 1_555
H2 C12 1_555 1_555
C13 N1 1_555 1_555
C14 N1 1_555 1_555
H3 C14 1_555 1_555
C15 N2 1_555 1_555
C16 C3 1_555 1_555
H4 C16 1_555 1_555
C17 C2 1_555 1_555
H5 C17 1_555 1_555
C18 C7 1_555 1_555
H6 C18 1_555 1_555
C19 C13 1_555 1_555
H7 C19 1_555 1_555
C20 C19 1_555 1_555
H8 C20 1_555 1_555
C21 C14 1_555 1_555
H9 C21 1_555 1_555
C22 C9 1_555 1_555
H10 C22 1_555 1_555
C23 C17 1_555 1_555
H11 C23 1_555 1_555
C24 N2 1_555 1_555
H12 C24 1_555 1_555
C25 C18 1_555 1_555
H13 C25 1_555 1_555
C26 C15 1_555 1_555
H14 C26 1_555 1_555
C27 C16 1_555 1_555
H15 C27 1_555 1_555
C28 C22 1_555 1_555
H16 C28 1_555 1_555
C29 C26 1_555 1_555
H17 C29 1_555 1_555
C30 C24 1_555 1_555
H18 C30 1_555 1_555
Cl3 C32 1_555 1_555
Cl4 C32 1_555 1_555
C32 H21 1_555 1_555
H22 C32 1_555 1_555
Cl3A C32A 1_555 1_555
Cl4A C32A 1_555 1_555
C32A H21A 1_555 1_555
H22A C32A 1_555 1_555
C2 C12 1_555 1_555
C3 C12 1_555 1_555
C4 C10 1_555 1_555
C20 C21 1_555 1_555
C23 C28 1_555 1_555
C25 C27 1_555 1_555
C29 C30 1_555 1_555

#END
