
#######################################################################
#
#                 Cambridge Crystallographic Data Centre
#                                CCDC 
#
#######################################################################
#
# If this CIF has been generated from an entry in the Cambridge 
# Structural Database, then it will include bibliographic, chemical, 
# crystal, experimental, refinement or atomic coordinate data resulting 
# from the CCDC's data processing and validation procedures.
#
#######################################################################

data_XETVUP
_chemical_formula_moiety         'C24 H21 O1 P1'
_chemical_name_systematic        
'(1-(1-Naphthyl)ethyl)(diphenyl)phosphine oxide'
_symmetry_cell_setting           monoclinic
_symmetry_space_group_name_H-M   'C c'
_symmetry_Int_Tables_number      9
_space_group_name_Hall           'C -2yc'
loop_
_symmetry_equiv_pos_site_id
_symmetry_equiv_pos_as_xyz
1 x,y,z
2 x,-y,1/2+z
3 1/2+x,1/2+y,z
4 1/2+x,1/2-y,1/2+z
_cell_length_a                   20.87(3)
_cell_length_b                   9.251(12)
_cell_length_c                   11.143(14)
_cell_angle_alpha                90
_cell_angle_beta                 116.405(10)
_cell_angle_gamma                90
_cell_volume                     1926.92
_exptl_crystal_colour            yellow
_exptl_crystal_description       block
_cell_formula_units_Z            4
loop_
_atom_site_label
_atom_site_type_symbol
_atom_site_fract_x
_atom_site_fract_y
_atom_site_fract_z
C1 C 0.70308(13) 0.0606(3) 0.6868(3)
C2 C 0.72323(14) 0.1932(3) 0.6467(3)
C3 C 0.69053(15) 0.2475(3) 0.5152(3)
H1 H 0.6535 0.1959 0.4488
C4 C 0.7124(2) 0.3749(4) 0.4835(4)
H2 H 0.6907 0.4088 0.3958
C5 C 0.7678(2) 0.4550(4) 0.5837(5)
H3 H 0.7823 0.5421 0.5620
C6 C 0.7997(2) 0.4065(4) 0.7098(4)
H4 H 0.8362 0.4608 0.7745
C7 C 0.77926(16) 0.2755(3) 0.7472(3)
C8 C 0.81318(19) 0.2253(4) 0.8805(4)
H5 H 0.8501 0.2790 0.9451
C9 C 0.79285(17) 0.1011(4) 0.9153(3)
H6 H 0.8154 0.0691 1.0036
C10 C 0.73744(16) 0.0198(3) 0.8182(3)
H7 H 0.7235 -0.0653 0.8442
C11 C 0.64224(14) -0.0324(3) 0.5877(3)
H8 H 0.6309 -0.0004 0.4967
C12 C 0.66048(16) -0.1934(3) 0.5993(3)
H9 H 0.7001 -0.2088 0.5790
H10 H 0.6198 -0.2468 0.5374
H11 H 0.6731 -0.2256 0.6889
C13 C 0.54293(14) 0.1881(3) 0.5772(3)
C14 C 0.50521(19) 0.2358(3) 0.4467(4)
H12 H 0.4887 0.1695 0.3767
C15 C 0.4919(2) 0.3813(4) 0.4199(5)
H13 H 0.4658 0.4130 0.3322
C16 C 0.5175(2) 0.4788(4) 0.5230(6)
H14 H 0.5093 0.5769 0.5046
C17 C 0.5546(2) 0.4338(4) 0.6518(5)
H15 H 0.5708 0.5013 0.7209
C18 C 0.56861(19) 0.2879(3) 0.6814(4)
H16 H 0.5948 0.2574 0.7695
C19 C 0.49008(13) -0.1026(2) 0.4987(3)
C20 C 0.48102(14) -0.1367(3) 0.3707(3)
H17 H 0.5136 -0.1027 0.3414
C21 C 0.42397(16) -0.2205(3) 0.2867(3)
H18 H 0.4189 -0.2438 0.2017
C22 C 0.37492(16) -0.2697(3) 0.3268(3)
H19 H 0.3369 -0.3269 0.2698
C23 C 0.38212(17) -0.2345(3) 0.4506(4)
H20 H 0.3484 -0.2665 0.4777
C24 C 0.43927(16) -0.1512(3) 0.5369(3)
H21 H 0.4434 -0.1278 0.6213
O1 O 0.57744(11) -0.0332(2) 0.75682(19)
P1 P 0.56447(4) 0.00078(6) 0.61853(7)
loop_
_geom_bond_atom_site_label_1
_geom_bond_atom_site_label_2
_geom_bond_site_symmetry_1
_geom_bond_site_symmetry_2
C1 C2 1_555 1_555
C2 C3 1_555 1_555
C3 H1 1_555 1_555
C4 C3 1_555 1_555
H2 C4 1_555 1_555
C5 C4 1_555 1_555
H3 C5 1_555 1_555
C6 C5 1_555 1_555
H4 C6 1_555 1_555
C7 C2 1_555 1_555
C8 C7 1_555 1_555
H5 C8 1_555 1_555
C9 C8 1_555 1_555
H6 C9 1_555 1_555
C10 C1 1_555 1_555
H7 C10 1_555 1_555
C11 C1 1_555 1_555
H8 C11 1_555 1_555
C12 C11 1_555 1_555
H9 C12 1_555 1_555
H10 C12 1_555 1_555
H11 C12 1_555 1_555
C13 C14 1_555 1_555
C14 H12 1_555 1_555
C15 C14 1_555 1_555
H13 C15 1_555 1_555
C16 C15 1_555 1_555
H14 C16 1_555 1_555
C17 C16 1_555 1_555
H15 C17 1_555 1_555
C18 C13 1_555 1_555
H16 C18 1_555 1_555
C19 C20 1_555 1_555
C20 H17 1_555 1_555
C21 C20 1_555 1_555
H18 C21 1_555 1_555
C22 C21 1_555 1_555
H19 C22 1_555 1_555
C23 C22 1_555 1_555
H20 C23 1_555 1_555
C24 C19 1_555 1_555
H21 C24 1_555 1_555
O1 P1 1_555 1_555
P1 C11 1_555 1_555
C6 C7 1_555 1_555
C9 C10 1_555 1_555
C13 P1 1_555 1_555
C17 C18 1_555 1_555
C19 P1 1_555 1_555
C23 C24 1_555 1_555

#END
