
#######################################################################
#
#                 Cambridge Crystallographic Data Centre
#                                CCDC 
#
#######################################################################
#
# If this CIF has been generated from an entry in the Cambridge 
# Structural Database, then it will include bibliographic, chemical, 
# crystal, experimental, refinement or atomic coordinate data resulting 
# from the CCDC's data processing and validation procedures.
#
#######################################################################

data_XETWUQ
_chemical_formula_moiety         'C36 H26 Br2 O3 P2'
_chemical_name_systematic        
'(Oxybis(5-bromo-2,1-phenylene))bis(diphenylphosphine) dioxide'
_symmetry_cell_setting           monoclinic
_symmetry_space_group_name_H-M   'P 21/c'
_symmetry_Int_Tables_number      14
_space_group_name_Hall           '-P 2ybc'
loop_
_symmetry_equiv_pos_site_id
_symmetry_equiv_pos_as_xyz
1 x,y,z
2 -x,1/2+y,1/2-z
3 -x,-y,-z
4 x,1/2-y,1/2+z
_cell_length_a                   9.3340(19)
_cell_length_b                   17.757(4)
_cell_length_c                   19.623(4)
_cell_angle_alpha                90
_cell_angle_beta                 98.92(3)
_cell_angle_gamma                90
_cell_volume                     3213.06
_cell_formula_units_Z            4
loop_
_atom_site_label
_atom_site_type_symbol
_atom_site_fract_x
_atom_site_fract_y
_atom_site_fract_z
Br1 Br 0.46891(6) 0.21693(3) 0.47060(3)
Br2 Br 0.21822(9) 0.48561(4) -0.01855(3)
P1 P 0.81907(11) 0.41816(6) 0.35203(6)
P2 P 0.41960(12) 0.62374(6) 0.23215(6)
O1 O 0.8369(3) 0.49848(15) 0.37090(16)
O2 O 0.3196(3) 0.68195(16) 0.19725(16)
O3 O 0.5388(3) 0.46676(14) 0.27150(14)
C1 C 0.4827(5) 0.2981(2) 0.4091(2)
C2 C 0.6196(4) 0.3246(2) 0.4048(2)
H1 H 0.6991 0.3049 0.4337
C3 C 0.6407(4) 0.3806(2) 0.3577(2)
C4 C 0.5171(4) 0.4094(2) 0.3167(2)
C5 C 0.3798(4) 0.3835(2) 0.3229(2)
H2 H 0.2990 0.4038 0.2954
C6 C 0.3627(5) 0.3282(3) 0.3692(2)
H3 H 0.2705 0.3110 0.3738
C7 C 0.9414(4) 0.3592(2) 0.4090(2)
C8 C 1.0229(5) 0.3938(3) 0.4651(3)
H4 H 1.0195 0.4459 0.4695
C9 C 1.1099(5) 0.3518(4) 0.5151(3)
H5 H 1.1633 0.3754 0.5531
C10 C 1.1163(6) 0.2757(4) 0.5080(3)
H6 H 1.1740 0.2474 0.5414
C11 C 1.0384(6) 0.2402(3) 0.4518(3)
H7 H 1.0440 0.1881 0.4473
C12 C 0.9519(5) 0.2818(3) 0.4019(2)
H8 H 0.9006 0.2578 0.3635
C13 C 0.8523(4) 0.3973(2) 0.2655(2)
C14 C 0.7924(5) 0.3367(3) 0.2282(2)
H9 H 0.7297 0.3047 0.2468
C15 C 0.8250(6) 0.3229(3) 0.1626(3)
H10 H 0.7839 0.2819 0.1373
C16 C 0.9177(8) 0.3699(4) 0.1353(3)
H11 H 0.9395 0.3606 0.0915
C17 C 0.9778(7) 0.4297(4) 0.1718(4)
H12 H 1.0404 0.4612 0.1527
C18 C 0.9468(5) 0.4444(3) 0.2375(3)
H13 H 0.9889 0.4854 0.2625
C19 C 0.3106(5) 0.4789(3) 0.0739(2)
C20 C 0.3293(4) 0.5419(3) 0.1146(2)
H14 H 0.2933 0.5879 0.0969
C21 C 0.4014(4) 0.5381(2) 0.1823(2)
C22 C 0.4550(4) 0.4685(2) 0.2064(2)
C23 C 0.4348(5) 0.4044(2) 0.1656(3)
H15 H 0.4704 0.3581 0.1828
C24 C 0.3618(5) 0.4102(3) 0.0997(3)
H16 H 0.3466 0.3675 0.0721
C25 C 0.6077(4) 0.6493(2) 0.2415(2)
C26 C 0.6586(5) 0.7067(3) 0.2862(3)
H17 H 0.5972 0.7287 0.3135
C27 C 0.8010(6) 0.7320(3) 0.2908(3)
H18 H 0.8347 0.7702 0.3216
C28 C 0.8906(6) 0.7010(3) 0.2503(3)
H19 H 0.9854 0.7183 0.2532
C29 C 0.8424(6) 0.6442(3) 0.2050(3)
H20 H 0.9044 0.6233 0.1773
C30 C 0.7006(5) 0.6177(3) 0.2005(2)
H21 H 0.6682 0.5790 0.1700
C31 C 0.3792(4) 0.6008(2) 0.3166(2)
C32 C 0.4821(5) 0.5877(2) 0.3738(2)
H22 H 0.5801 0.5889 0.3699
C33 C 0.4401(6) 0.5726(3) 0.4370(3)
H23 H 0.5098 0.5663 0.4759
C34 C 0.2950(7) 0.5669(3) 0.4422(3)
H24 H 0.2671 0.5554 0.4845
C35 C 0.1919(6) 0.5781(3) 0.3857(3)
H25 H 0.0941 0.5735 0.3893
C36 C 0.2333(5) 0.5963(3) 0.3230(3)
H26 H 0.1629 0.6057 0.2849
loop_
_geom_bond_atom_site_label_1
_geom_bond_atom_site_label_2
_geom_bond_site_symmetry_1
_geom_bond_site_symmetry_2
Br1 C1 1_555 1_555
Br2 C19 1_555 1_555
P1 O1 1_555 1_555
P2 O2 1_555 1_555
O3 C4 1_555 1_555
C1 C2 1_555 1_555
C2 H1 1_555 1_555
C3 P1 1_555 1_555
C4 C3 1_555 1_555
C5 C4 1_555 1_555
H2 C5 1_555 1_555
C6 C1 1_555 1_555
H3 C6 1_555 1_555
C7 P1 1_555 1_555
C8 C7 1_555 1_555
H4 C8 1_555 1_555
C9 C8 1_555 1_555
H5 C9 1_555 1_555
C10 C9 1_555 1_555
H6 C10 1_555 1_555
C11 C10 1_555 1_555
H7 C11 1_555 1_555
C12 C7 1_555 1_555
H8 C12 1_555 1_555
C13 P1 1_555 1_555
C14 C13 1_555 1_555
H9 C14 1_555 1_555
C15 C14 1_555 1_555
H10 C15 1_555 1_555
C16 C15 1_555 1_555
H11 C16 1_555 1_555
C17 C16 1_555 1_555
H12 C17 1_555 1_555
C18 C13 1_555 1_555
H13 C18 1_555 1_555
C19 C20 1_555 1_555
C20 H14 1_555 1_555
C21 P2 1_555 1_555
C22 O3 1_555 1_555
C23 C22 1_555 1_555
H15 C23 1_555 1_555
C24 C19 1_555 1_555
H16 C24 1_555 1_555
C25 P2 1_555 1_555
C26 C25 1_555 1_555
H17 C26 1_555 1_555
C27 C26 1_555 1_555
H18 C27 1_555 1_555
C28 C27 1_555 1_555
H19 C28 1_555 1_555
C29 C28 1_555 1_555
H20 C29 1_555 1_555
C30 C25 1_555 1_555
H21 C30 1_555 1_555
C31 P2 1_555 1_555
C32 C31 1_555 1_555
H22 C32 1_555 1_555
C33 C32 1_555 1_555
H23 C33 1_555 1_555
C34 C33 1_555 1_555
H24 C34 1_555 1_555
C35 C34 1_555 1_555
H25 C35 1_555 1_555
C36 C31 1_555 1_555
H26 C36 1_555 1_555
C2 C3 1_555 1_555
C5 C6 1_555 1_555
C11 C12 1_555 1_555
C17 C18 1_555 1_555
C20 C21 1_555 1_555
C21 C22 1_555 1_555
C23 C24 1_555 1_555
C29 C30 1_555 1_555
C35 C36 1_555 1_555

#END
