
#######################################################################
#
#                 Cambridge Crystallographic Data Centre
#                                CCDC 
#
#######################################################################
#
# If this CIF has been generated from an entry in the Cambridge 
# Structural Database, then it will include bibliographic, chemical, 
# crystal, experimental, refinement or atomic coordinate data resulting 
# from the CCDC's data processing and validation procedures.
#
#######################################################################

data_XETWOK
_chemical_formula_moiety         'C36 H27 Br1 O3 P2,C2 H6 O1'
_chemical_name_systematic        
'(2-(4-bromo-2-(diphenylphosphoryl)phenoxy)phenyl)(oxo)diphenylphosphine ethanol solvate'
_symmetry_cell_setting           monoclinic
_symmetry_space_group_name_H-M   'P 21/n'
_symmetry_Int_Tables_number      14
_space_group_name_Hall           '-P 2yn'
loop_
_symmetry_equiv_pos_site_id
_symmetry_equiv_pos_as_xyz
1 x,y,z
2 1/2-x,1/2+y,1/2-z
3 -x,-y,-z
4 1/2+x,1/2-y,1/2+z
_cell_length_a                   10.891(2)
_cell_length_b                   16.349(3)
_cell_length_c                   19.110(4)
_cell_angle_alpha                90
_cell_angle_beta                 98.02(3)
_cell_angle_gamma                90
_cell_volume                     3369.39
_cell_formula_units_Z            4
loop_
_atom_site_label
_atom_site_type_symbol
_atom_site_fract_x
_atom_site_fract_y
_atom_site_fract_z
Br1 Br 0.32057(5) 0.54911(3) 0.10257(3)
P1 P 0.93008(9) 0.80232(6) 0.37900(5)
P2 P 0.48184(10) 0.84984(6) 0.21221(5)
O1 O 0.6921(2) 0.74487(14) 0.29798(12)
O2 O 0.3570(3) 0.86644(17) 0.17277(14)
O3 O 0.8924(2) 0.88611(15) 0.35537(15)
C1 C 1.0552(4) 0.8036(3) 0.4518(2)
C2 C 1.0753(4) 0.8746(3) 0.4908(2)
H1 H 1.0263 0.9203 0.4782
C3 C 1.1674(5) 0.8785(4) 0.5484(3)
H2 H 1.1806 0.9268 0.5741
C4 C 1.2386(5) 0.8117(5) 0.5675(3)
H3 H 1.2999 0.8141 0.6065
C5 C 1.2201(5) 0.7409(4) 0.5293(3)
H4 H 1.2690 0.6954 0.5426
C6 C 1.1291(4) 0.7364(3) 0.4711(3)
H5 H 1.1178 0.6882 0.4451
C7 C 0.9815(4) 0.7422(2) 0.3102(2)
C8 C 1.0391(4) 0.7818(3) 0.2597(2)
H6 H 1.0511 0.8381 0.2627
C9 C 1.0788(5) 0.7386(4) 0.2048(3)
H7 H 1.1182 0.7657 0.1714
C10 C 1.0603(6) 0.6567(5) 0.1996(3)
H8 H 1.0863 0.6280 0.1623
C11 C 1.0041(5) 0.6159(3) 0.2486(3)
H9 H 0.9925 0.5596 0.2448
C12 C 0.9640(4) 0.6583(3) 0.3041(2)
H10 H 0.9253 0.6304 0.3373
C13 C 0.8083(3) 0.7460(2) 0.41240(18)
C14 C 0.6970(3) 0.7258(2) 0.36937(18)
C15 C 0.5983(4) 0.6928(2) 0.3964(2)
H11 H 0.5250 0.6815 0.3669
C16 C 0.6086(4) 0.6764(3) 0.4680(2)
H12 H 0.5413 0.6545 0.4867
C17 C 0.7167(4) 0.6921(3) 0.5116(2)
H13 H 0.7240 0.6794 0.5594
C18 C 0.8147(4) 0.7269(3) 0.4841(2)
H14 H 0.8875 0.7381 0.5142
C19 C 0.6080(3) 0.6995(2) 0.25092(18)
C20 C 0.5110(3) 0.7408(2) 0.21058(18)
C21 C 0.4267(4) 0.6941(2) 0.16560(19)
H15 H 0.3603 0.7196 0.1383
C22 C 0.4407(4) 0.6102(2) 0.1612(2)
C23 C 0.5406(4) 0.5711(2) 0.1994(2)
H16 H 0.5514 0.5151 0.1946
C24 C 0.6241(4) 0.6163(2) 0.2448(2)
H17 H 0.6913 0.5905 0.2713
C25 C 0.4906(3) 0.8778(2) 0.30364(19)
C26 C 0.3871(4) 0.8583(3) 0.3352(2)
H18 H 0.3177 0.8354 0.3084
C27 C 0.3867(5) 0.8728(3) 0.4067(3)
H19 H 0.3171 0.8598 0.4277
C28 C 0.4883(5) 0.9061(3) 0.4464(2)
H20 H 0.4879 0.9151 0.4944
C29 C 0.5910(5) 0.9262(3) 0.4158(2)
H21 H 0.6598 0.9491 0.4431
C30 C 0.5926(4) 0.9126(2) 0.3440(2)
H22 H 0.6619 0.9269 0.3233
C31 C 0.6001(4) 0.8998(2) 0.17108(19)
C32 C 0.5599(5) 0.9506(3) 0.1135(2)
H23 H 0.4754 0.9584 0.0995
C33 C 0.6446(6) 0.9894(3) 0.0774(2)
H24 H 0.6170 1.0232 0.0393
C34 C 0.7692(6) 0.9784(3) 0.0975(2)
H25 H 0.8259 1.0046 0.0729
C35 C 0.8103(5) 0.9289(3) 0.1535(2)
H26 H 0.8951 0.9216 0.1668
C36 C 0.7272(4) 0.8894(2) 0.1907(2)
H27 H 0.7563 0.8560 0.2288
O4 O 1.1377(8) 0.9474(5) 0.1808(6)
H28 H 1.2032 0.9235 0.1788
C37 C 1.1512(10) 1.0245(6) 0.1681(6)
H29 H 1.2074 1.0461 0.2076
H30 H 1.0713 1.0499 0.1701
C38 C 1.1954(13) 1.0557(9) 0.1028(8)
H31 H 1.1981 1.1143 0.1041
H32 H 1.1398 1.0381 0.0622
H33 H 1.2769 1.0347 0.1001
O5? O 1.1237(8) 0.9351(5) 0.1426(7)
H34? H 1.1919 0.9135 0.1521
C39? C 1.2088(17) 1.0748(12) 0.1534(10)
H35? H 1.2104 1.1214 0.1230
H36? H 1.2921 1.0572 0.1693
H37? H 1.1690 1.0892 0.1934
C40? C 1.1357(19) 1.0042(13) 0.1119(11)
H38? H 1.0530 1.0245 0.0954
H39? H 1.1750 0.9935 0.0703
loop_
_geom_bond_atom_site_label_1
_geom_bond_atom_site_label_2
_geom_bond_site_symmetry_1
_geom_bond_site_symmetry_2
Br1 C22 1_555 1_555
P1 O3 1_555 1_555
P2 O2 1_555 1_555
O1 C14 1_555 1_555
C1 P1 1_555 1_555
C2 C1 1_555 1_555
H1 C2 1_555 1_555
C3 C2 1_555 1_555
H2 C3 1_555 1_555
C4 C3 1_555 1_555
H3 C4 1_555 1_555
C5 C4 1_555 1_555
H4 C5 1_555 1_555
C6 C1 1_555 1_555
H5 C6 1_555 1_555
C7 P1 1_555 1_555
C8 C7 1_555 1_555
H6 C8 1_555 1_555
C9 C8 1_555 1_555
H7 C9 1_555 1_555
C10 C9 1_555 1_555
H8 C10 1_555 1_555
C11 C10 1_555 1_555
H9 C11 1_555 1_555
C12 C7 1_555 1_555
H10 C12 1_555 1_555
C13 P1 1_555 1_555
C14 C13 1_555 1_555
C15 C14 1_555 1_555
H11 C15 1_555 1_555
C16 C15 1_555 1_555
H12 C16 1_555 1_555
C17 C16 1_555 1_555
H13 C17 1_555 1_555
C18 C13 1_555 1_555
H14 C18 1_555 1_555
C19 O1 1_555 1_555
C20 P2 1_555 1_555
C21 C20 1_555 1_555
H15 C21 1_555 1_555
C22 C21 1_555 1_555
C23 C22 1_555 1_555
H16 C23 1_555 1_555
C24 C19 1_555 1_555
H17 C24 1_555 1_555
C25 P2 1_555 1_555
C26 C25 1_555 1_555
H18 C26 1_555 1_555
C27 C26 1_555 1_555
H19 C27 1_555 1_555
C28 C27 1_555 1_555
H20 C28 1_555 1_555
C29 C28 1_555 1_555
H21 C29 1_555 1_555
C30 C25 1_555 1_555
H22 C30 1_555 1_555
C31 P2 1_555 1_555
C32 C31 1_555 1_555
H23 C32 1_555 1_555
C33 C32 1_555 1_555
H24 C33 1_555 1_555
C34 C33 1_555 1_555
H25 C34 1_555 1_555
C35 C34 1_555 1_555
H26 C35 1_555 1_555
C36 C31 1_555 1_555
H27 C36 1_555 1_555
O4 H28 1_555 1_555
C37 O4 1_555 1_555
H29 C37 1_555 1_555
H30 C37 1_555 1_555
C38 C37 1_555 1_555
H31 C38 1_555 1_555
H32 C38 1_555 1_555
H33 C38 1_555 1_555
C5 C6 1_555 1_555
C11 C12 1_555 1_555
C17 C18 1_555 1_555
C19 C20 1_555 1_555
C23 C24 1_555 1_555
C29 C30 1_555 1_555
C35 C36 1_555 1_555

#END
