
#######################################################################
#
#                 Cambridge Crystallographic Data Centre
#                                CCDC 
#
#######################################################################
#
# If this CIF has been generated from an entry in the Cambridge 
# Structural Database, then it will include bibliographic, chemical, 
# crystal, experimental, refinement or atomic coordinate data resulting 
# from the CCDC's data processing and validation procedures.
#
#######################################################################

data_XETXIF
_chemical_formula_moiety         'C20 H32 O5'
_chemical_name_systematic        15,16,17,18-Tetrahydroxyabiet-7-en-3-one
_symmetry_cell_setting           orthorhombic
_symmetry_space_group_name_H-M   'P 21 21 21'
_symmetry_Int_Tables_number      19
_space_group_name_Hall           'P 2ac 2ab'
loop_
_symmetry_equiv_pos_site_id
_symmetry_equiv_pos_as_xyz
1 x,y,z
2 1/2+x,1/2-y,-z
3 -x,1/2+y,1/2-z
4 1/2-x,-y,1/2+z
_cell_length_a                   6.44160(10)
_cell_length_b                   22.4994(2)
_cell_length_c                   24.9788(2)
_cell_angle_alpha                90
_cell_angle_beta                 90
_cell_angle_gamma                90
_cell_volume                     3620.23
_exptl_crystal_colour            colorless
_exptl_crystal_description       piece
_cell_formula_units_Z            8
loop_
_atom_site_label
_atom_site_type_symbol
_atom_site_fract_x
_atom_site_fract_y
_atom_site_fract_z
O1 O 0.4411(2) 0.67803(5) 0.44320(5)
H1 H 0.4355 0.7053 0.4661
O2 O 0.6875(2) 0.70306(7) 0.12564(5)
H2 H 0.7953 0.7050 0.1068
O3 O -0.0101(2) 0.71810(5) 0.05354(5)
H3 H -0.0094 0.6873 0.0345
O4 O 0.3647(2) 0.64907(5) 0.08097(5)
H4 H 0.4855 0.6386 0.0895
O5 O 0.0246(2) 0.72614(6) 0.49160(5)
C1 C 0.2712(3) 0.63846(7) 0.45085(6)
H5 H 0.2384 0.6363 0.4895
H6 H 0.3124 0.5982 0.4389
C2 C 0.0750(3) 0.65759(7) 0.42009(6)
C3 C 0.1334(3) 0.66369(7) 0.35957(6)
H7 H 0.2776 0.6802 0.3593
C4 C 0.0035(3) 0.70710(7) 0.32450(6)
C5 C 0.1332(3) 0.71870(7) 0.27284(6)
H8 H 0.2499 0.7456 0.2833
C6 C 0.0099(3) 0.75091(7) 0.22864(6)
H9 H -0.1132 0.7268 0.2191
H10 H -0.0401 0.7895 0.2427
C7 C 0.1393(3) 0.76189(7) 0.17812(6)
H11 H 0.2609 0.7869 0.1870
H12 H 0.0546 0.7833 0.1512
C8 C 0.2129(3) 0.70244(7) 0.15483(6)
H13 H 0.0862 0.6777 0.1485
C9 C 0.3261(3) 0.70804(7) 0.10063(6)
C10 C 0.5341(3) 0.74114(9) 0.10418(7)
H14 H 0.5766 0.7546 0.0681
H15 H 0.5187 0.7766 0.1273
C11 C 0.1953(3) 0.74013(7) 0.05857(6)
H16 H 0.1887 0.7829 0.0679
H17 H 0.2655 0.7367 0.0234
C12 C 0.2312(3) 0.66267(7) 0.24981(6)
C13 C 0.2312(3) 0.61114(7) 0.27580(6)
H18 H 0.2863 0.5773 0.2580
C14 C 0.1494(3) 0.60327(7) 0.33161(6)
H19 H 0.2434 0.5769 0.3521
H20 H 0.0108 0.5843 0.3303
C15 C -0.0947(3) 0.61101(7) 0.43225(7)
H21 H -0.1138 0.6078 0.4711
H22 H -0.0525 0.5724 0.4178
H23 H -0.2256 0.6233 0.4156
C16 C -0.0040(3) 0.71587(7) 0.44445(6)
C17 C -0.1240(3) 0.75803(8) 0.40966(6)
H24 H -0.1349 0.7970 0.4278
H25 H -0.2662 0.7425 0.4042
C18 C -0.0180(3) 0.76605(7) 0.35522(6)
H26 H 0.1216 0.7834 0.3607
H27 H -0.0997 0.7943 0.3334
C19 C -0.2125(3) 0.68248(8) 0.31054(7)
H28 H -0.2793 0.6675 0.3431
H29 H -0.1983 0.6501 0.2846
H30 H -0.2976 0.7142 0.2950
C20 C 0.3433(3) 0.67030(7) 0.19739(6)
H31 H 0.3831 0.6307 0.1836
H32 H 0.4724 0.6931 0.2037
O6 O 0.4186(2) 0.87071(5) 0.01578(5)
H33 H 0.2920 0.8789 0.0190
O7 O 0.5189(3) 0.98962(6) 0.47169(5)
H34 H 0.4682 1.0239 0.4741
O8 O 0.2843(2) 1.06745(5) 0.41417(5)
O9 O 0.7672(2) 0.98446(5) 0.06992(4)
H35 H 0.8236 0.9924 0.0404
O10 O 0.9820(2) 0.88950(5) 0.01881(4)
H36 H 0.9311 0.8725 -0.0081
C21 C 0.5373(3) 0.92428(7) 0.01693(6)
H37 H 0.4424 0.9589 0.0167
H38 H 0.6256 0.9265 -0.0154
C22 C 0.6754(3) 0.92674(7) 0.06739(6)
C23 C 0.5405(3) 0.91856(7) 0.11817(6)
H39 H 0.4622 0.8804 0.1141
C24 C 0.3804(3) 0.96877(7) 0.12363(6)
H40 H 0.4531 1.0075 0.1240
H41 H 0.2863 0.9682 0.0923
C25 C 0.2524(3) 0.96232(7) 0.17491(6)
H42 H 0.1782 0.9238 0.1743
H43 H 0.1473 0.9944 0.1764
C26 C 0.3907(3) 0.96545(7) 0.22508(6)
H44 H 0.4687 1.0038 0.2232
C27 C 0.2674(3) 0.96593(7) 0.27875(6)
C28 C 0.4238(3) 0.95236(7) 0.32429(6)
H45 H 0.5463 0.9784 0.3168
C29 C 0.3558(3) 0.96845(7) 0.38321(6)
C30 C 0.5560(3) 0.97602(8) 0.41704(7)
H46 H 0.6377 0.9388 0.4150
H47 H 0.6409 1.0082 0.4011
C31 C 0.2400(3) 1.02769(7) 0.38322(6)
C32 C 0.2150(3) 0.92225(8) 0.41107(7)
H48 H 0.1842 0.9355 0.4476
H49 H 0.2863 0.8838 0.4123
H50 H 0.0852 0.9182 0.3910
C33 C 0.6713(3) 0.91388(7) 0.16985(6)
H51 H 0.7498 0.8761 0.1689
H52 H 0.7737 0.9467 0.1701
C34 C 0.5488(3) 0.91622(7) 0.22141(6)
C35 C 0.5873(3) 0.87951(7) 0.26217(6)
H53 H 0.6717 0.8456 0.2556
C36 C 0.5045(3) 0.88871(7) 0.31797(6)
H54 H 0.6161 0.8813 0.3444
H55 H 0.3906 0.8602 0.3249
C37 C 0.8496(3) 0.88024(7) 0.06412(6)
H56 H 0.9337 0.8820 0.0972
H57 H 0.7872 0.8401 0.0618
C38 C 0.1776(3) 1.02863(8) 0.28638(7)
H58 H 0.0738 1.0365 0.2580
H59 H 0.2905 1.0582 0.2826
C39 C 0.0744(3) 1.03626(9) 0.34153(7)
H60 H 0.0129 1.0764 0.3447
H61 H -0.0373 1.0065 0.3463
C40 C 0.0906(3) 0.92028(8) 0.27619(7)
H62 H 0.0291 0.9156 0.3118
H63 H 0.1456 0.8820 0.2640
H64 H -0.0158 0.9341 0.2511
loop_
_geom_bond_atom_site_label_1
_geom_bond_atom_site_label_2
_geom_bond_site_symmetry_1
_geom_bond_site_symmetry_2
O1 H1 1_555 1_555
O2 H2 1_555 1_555
O3 H3 1_555 1_555
O4 H4 1_555 1_555
O5 C16 1_555 1_555
C1 O1 1_555 1_555
H5 C1 1_555 1_555
H6 C1 1_555 1_555
C2 C1 1_555 1_555
C3 C2 1_555 1_555
H7 C3 1_555 1_555
C4 C3 1_555 1_555
C5 C4 1_555 1_555
H8 C5 1_555 1_555
C6 C5 1_555 1_555
H9 C6 1_555 1_555
H10 C6 1_555 1_555
C7 C6 1_555 1_555
H11 C7 1_555 1_555
H12 C7 1_555 1_555
C8 C7 1_555 1_555
H13 C8 1_555 1_555
C9 O4 1_555 1_555
C10 O2 1_555 1_555
H14 C10 1_555 1_555
H15 C10 1_555 1_555
C11 O3 1_555 1_555
H16 C11 1_555 1_555
H17 C11 1_555 1_555
C12 C5 1_555 1_555
C13 C12 1_555 1_555
H18 C13 1_555 1_555
C14 C3 1_555 1_555
H19 C14 1_555 1_555
H20 C14 1_555 1_555
C15 C2 1_555 1_555
H21 C15 1_555 1_555
H22 C15 1_555 1_555
H23 C15 1_555 1_555
C16 C2 1_555 1_555
C17 C16 1_555 1_555
H24 C17 1_555 1_555
H25 C17 1_555 1_555
C18 C4 1_555 1_555
H26 C18 1_555 1_555
H27 C18 1_555 1_555
C19 C4 1_555 1_555
H28 C19 1_555 1_555
H29 C19 1_555 1_555
H30 C19 1_555 1_555
C20 C8 1_555 1_555
H31 C20 1_555 1_555
H32 C20 1_555 1_555
O6 H33 1_555 1_555
O7 H34 1_555 1_555
O8 C31 1_555 1_555
O9 H35 1_555 1_555
O10 H36 1_555 1_555
C21 O6 1_555 1_555
H37 C21 1_555 1_555
H38 C21 1_555 1_555
C22 O9 1_555 1_555
C23 C22 1_555 1_555
H39 C23 1_555 1_555
C24 C23 1_555 1_555
H40 C24 1_555 1_555
H41 C24 1_555 1_555
C25 C24 1_555 1_555
H42 C25 1_555 1_555
H43 C25 1_555 1_555
C26 C25 1_555 1_555
H44 C26 1_555 1_555
C27 C26 1_555 1_555
C28 C27 1_555 1_555
H45 C28 1_555 1_555
C29 C28 1_555 1_555
C30 O7 1_555 1_555
H46 C30 1_555 1_555
H47 C30 1_555 1_555
C31 C29 1_555 1_555
C32 C29 1_555 1_555
H48 C32 1_555 1_555
H49 C32 1_555 1_555
H50 C32 1_555 1_555
C33 C23 1_555 1_555
H51 C33 1_555 1_555
H52 C33 1_555 1_555
C34 C26 1_555 1_555
C35 C34 1_555 1_555
H53 C35 1_555 1_555
C36 C28 1_555 1_555
H54 C36 1_555 1_555
H55 C36 1_555 1_555
C37 O10 1_555 1_555
H56 C37 1_555 1_555
H57 C37 1_555 1_555
C38 C27 1_555 1_555
H58 C38 1_555 1_555
H59 C38 1_555 1_555
C39 C31 1_555 1_555
H60 C39 1_555 1_555
H61 C39 1_555 1_555
C40 C27 1_555 1_555
H62 C40 1_555 1_555
H63 C40 1_555 1_555
H64 C40 1_555 1_555
C8 C9 1_555 1_555
C9 C10 1_555 1_555
C9 C11 1_555 1_555
C12 C20 1_555 1_555
C13 C14 1_555 1_555
C17 C18 1_555 1_555
C21 C22 1_555 1_555
C22 C37 1_555 1_555
C29 C30 1_555 1_555
C33 C34 1_555 1_555
C35 C36 1_555 1_555
C38 C39 1_555 1_555

#END
