
#######################################################################
#
#                 Cambridge Crystallographic Data Centre
#                                CCDC 
#
#######################################################################
#
# If this CIF has been generated from an entry in the Cambridge 
# Structural Database, then it will include bibliographic, chemical, 
# crystal, experimental, refinement or atomic coordinate data resulting 
# from the CCDC's data processing and validation procedures.
#
#######################################################################

data_XETYIG
_chemical_formula_moiety         'C48 H50 N2 O4 S2'
_chemical_name_systematic        
5-(5-(1-Benzofuran-2-yl)-2-thienyl)-3-(5-(5-(1-benzofuran-2-yl)-2-thienyl)-1-(2-ethylhexyl)-2-oxo-1,2-dihydro-3H-pyrrol-3-ylidene)-1-(2-ethylhexyl)-1,3-dihydro-2H-pyrrol-2-one
_symmetry_cell_setting           triclinic
_symmetry_space_group_name_H-M   'P -1'
_symmetry_Int_Tables_number      2
_space_group_name_Hall           '-P 1'
loop_
_symmetry_equiv_pos_site_id
_symmetry_equiv_pos_as_xyz
1 x,y,z
2 -x,-y,-z
_cell_length_a                   9.5525(19)
_cell_length_b                   9.7452(19)
_cell_length_c                   12.660(3)
_cell_angle_alpha                73.02(3)
_cell_angle_beta                 83.17(3)
_cell_angle_gamma                63.39(3)
_cell_volume                     1007.67
_exptl_crystal_colour            black
_exptl_crystal_description       plate
_cell_formula_units_Z            1
loop_
_atom_site_label
_atom_site_type_symbol
_atom_site_fract_x
_atom_site_fract_y
_atom_site_fract_z
S1 S 0.58959(12) 0.80382(12) 0.12900(9)
O1 O 0.3759(4) 0.6510(4) 0.1089(3)
O2 O 0.9497(3) 1.1918(3) 0.1287(3)
N1 N 0.7503(4) 1.1118(4) 0.1598(3)
C1 C 0.8870(5) 1.1160(5) 0.1095(3)
C2 C 0.9374(4) 1.0098(4) 0.0347(3)
C3 C 0.8283(4) 0.9439(4) 0.0498(3)
H1 H 0.8317 0.8692 0.0141
C4 C 0.7176(4) 1.0047(4) 0.1236(3)
C5 C 0.5850(4) 0.9695(4) 0.1583(3)
C6 C 0.4465(5) 1.0459(5) 0.2062(3)
H2 H 0.4227 1.1383 0.2293
C7 C 0.3420(5) 0.9771(5) 0.2185(3)
H3 H 0.2411 1.0174 0.2500
C8 C 0.4042(4) 0.8433(5) 0.1793(3)
C9 C 0.3289(5) 0.7443(5) 0.1789(4)
C10 C 0.2072(4) 0.7358(5) 0.2375(3)
H4 H 0.1551 0.7916 0.2914
C11 C 0.1683(5) 0.6301(5) 0.2061(4)
C12 C 0.0560(14) 0.5700(16) 0.2247(13)
H5 H -0.0256 0.6017 0.2758
C13 C 0.0648(14) 0.4637(12) 0.1678(12)
H6 H -0.0081 0.4190 0.1841
C14 C 0.1765(17) 0.4213(12) 0.0882(11)
H7 H 0.1766 0.3498 0.0508
C15 C 0.2875(16) 0.4796(13) 0.0614(10)
H8 H 0.3641 0.4552 0.0060
C16 C 0.2725(5) 0.5780(5) 0.1257(4)
C17 C 0.6728(5) 1.1974(5) 0.2442(4)
H9 H 0.5597 1.2598 0.2257
H10 H 0.7159 1.2736 0.2417
C18 C 0.6925(9) 1.0856(9) 0.3652(5)
H11 H 0.6348 1.0207 0.3680
C19 C 0.8669(10) 0.9663(10) 0.3957(7)
H12 H 0.9099 0.9096 0.3375
H13 H 0.9256 1.0289 0.3934
C20 C 0.9004(15) 0.8406(14) 0.5083(10)
H14 H 0.8369 0.7827 0.5148
H15 H 0.8740 0.8935 0.5677
H16 H 1.0117 0.7655 0.5139
C21 C 0.6237(10) 1.1742(10) 0.4550(7)
H17 H 0.6355 1.0951 0.5274
H18 H 0.6846 1.2325 0.4585
C22 C 0.4505(12) 1.2924(15) 0.4355(9)
H19 H 0.3902 1.2411 0.4185
H20 H 0.4386 1.3859 0.3728
C23 C 0.3890(13) 1.3460(12) 0.5454(9)
H21 H 0.3790 1.2580 0.6040
H22 H 0.4635 1.3746 0.5716
C24 C 0.2353(12) 1.4850(14) 0.5206(10)
H23 H 0.2461 1.5703 0.4611
H24 H 0.1960 1.5227 0.5868
H25 H 0.1616 1.4544 0.4972
S1A S 1.41041(12) 1.19618(12) -0.12900(9)
O1A O 1.6241(4) 1.3490(4) -0.1089(3)
O2A O 1.0503(3) 0.8082(3) -0.1287(3)
N1A N 1.2497(4) 0.8882(4) -0.1598(3)
C1A C 1.1130(5) 0.8840(5) -0.1095(3)
C2A C 1.0626(4) 0.9902(4) -0.0347(3)
C3A C 1.1717(4) 1.0561(4) -0.0498(3)
H1A H 1.1683 1.1308 -0.0141
C4A C 1.2824(4) 0.9953(4) -0.1236(3)
C5A C 1.4150(4) 1.0305(4) -0.1583(3)
C6A C 1.5535(5) 0.9541(5) -0.2062(3)
H2A H 1.5773 0.8617 -0.2293
C7A C 1.6580(5) 1.0229(5) -0.2185(3)
H3A H 1.7589 0.9826 -0.2500
C8A C 1.5958(4) 1.1567(5) -0.1793(3)
C9A C 1.6711(5) 1.2557(5) -0.1789(4)
C10A C 1.7928(4) 1.2642(5) -0.2375(3)
H4A H 1.8449 1.2084 -0.2914
C11A C 1.8317(5) 1.3699(5) -0.2061(4)
C12A C 1.9440(14) 1.4300(16) -0.2247(13)
H5A H 2.0256 1.3983 -0.2758
C13A C 1.9352(14) 1.5363(12) -0.1678(12)
H6A H 2.0081 1.5810 -0.1841
C14A C 1.8235(17) 1.5787(12) -0.0882(11)
H7A H 1.8234 1.6502 -0.0508
C15A C 1.7125(16) 1.5204(13) -0.0614(10)
H8A H 1.6359 1.5448 -0.0060
C16A C 1.7275(5) 1.4220(5) -0.1257(4)
C17A C 1.3272(5) 0.8026(5) -0.2442(4)
H9A H 1.4403 0.7402 -0.2257
H10A H 1.2841 0.7264 -0.2417
C18A C 1.3075(9) 0.9144(9) -0.3652(5)
H11A H 1.3652 0.9793 -0.3680
C19A C 1.1331(10) 1.0337(10) -0.3957(7)
H12A H 1.0901 1.0904 -0.3375
H13A H 1.0744 0.9711 -0.3934
C20A C 1.0996(15) 1.1594(14) -0.5083(10)
H14A H 1.1631 1.2173 -0.5148
H15A H 1.1260 1.1065 -0.5677
H16A H 0.9883 1.2345 -0.5139
C21A C 1.3763(10) 0.8258(10) -0.4550(7)
H17A H 1.3645 0.9049 -0.5274
H18A H 1.3154 0.7675 -0.4585
C22A C 1.5495(12) 0.7076(15) -0.4355(9)
H19A H 1.6098 0.7589 -0.4185
H20A H 1.5614 0.6141 -0.3728
C23A C 1.6110(13) 0.6540(12) -0.5454(9)
H21A H 1.6210 0.7420 -0.6040
H22A H 1.5365 0.6254 -0.5716
C24A C 1.7647(12) 0.5150(14) -0.5206(10)
H23A H 1.7539 0.4297 -0.4611
H24A H 1.8040 0.4773 -0.5868
H25A H 1.8384 0.5456 -0.4972
C25? C 0.0475(19) 0.591(2) 0.2555(16)
H26? H -0.0127 0.6297 0.3147
C26? C 0.0238(19) 0.4896(19) 0.2099(17)
H27? H -0.0571 0.4578 0.2377
C27? C 0.116(2) 0.4333(17) 0.1242(15)
H28? H 0.0942 0.3694 0.0906
C28? C 0.240(2) 0.4724(18) 0.0889(17)
H29? H 0.3079 0.4242 0.0358
C29? C 0.7610(16) 1.1266(13) 0.3528(8)
H30? H 0.8706 1.1155 0.3421
C30? C 0.7587(18) 0.9660(16) 0.3963(11)
H31? H 0.8075 0.9003 0.3436
H32? H 0.6504 0.9775 0.4108
C31? C 0.857(3) 0.891(3) 0.5058(17)
H33? H 0.9639 0.8791 0.4890
H34? H 0.8592 0.7865 0.5420
H35? H 0.8090 0.9609 0.5550
C32? C 0.6658(15) 1.2476(18) 0.4170(12)
H36? H 0.6579 1.3526 0.3718
H37? H 0.7262 1.2192 0.4847
C33? C 0.5001(18) 1.268(2) 0.4519(16)
H38? H 0.5042 1.1647 0.4976
H39? H 0.4350 1.3023 0.3854
C34? C 0.4237(18) 1.395(2) 0.5194(15)
H40? H 0.4991 1.3719 0.5768
H41? H 0.4016 1.5018 0.4693
C35? C 0.278(2) 1.397(3) 0.5727(16)
H42? H 0.2109 1.3978 0.5192
H43? H 0.2225 1.4925 0.5994
H44? H 0.3021 1.3019 0.6352
loop_
_geom_bond_atom_site_label_1
_geom_bond_atom_site_label_2
_geom_bond_site_symmetry_1
_geom_bond_site_symmetry_2
S1 C5 1_555 1_555
O1 C9 1_555 1_555
O2 C1 1_555 1_555
N1 C1 1_555 1_555
C1 C2 1_555 1_555
C2 C3 1_555 1_555
C3 H1 1_555 1_555
C4 N1 1_555 1_555
C5 C4 1_555 1_555
C6 C5 1_555 1_555
H2 C6 1_555 1_555
C7 C6 1_555 1_555
H3 C7 1_555 1_555
C8 S1 1_555 1_555
C9 C8 1_555 1_555
C10 C9 1_555 1_555
H4 C10 1_555 1_555
C11 C10 1_555 1_555
C12 C11 1_555 1_555
H5 C12 1_555 1_555
C13 C12 1_555 1_555
H6 C13 1_555 1_555
C14 C13 1_555 1_555
H7 C14 1_555 1_555
C15 C14 1_555 1_555
H8 C15 1_555 1_555
C16 O1 1_555 1_555
C17 N1 1_555 1_555
H9 C17 1_555 1_555
H10 C17 1_555 1_555
C18 C17 1_555 1_555
H11 C18 1_555 1_555
C19 C18 1_555 1_555
H12 C19 1_555 1_555
H13 C19 1_555 1_555
C20 C19 1_555 1_555
H14 C20 1_555 1_555
H15 C20 1_555 1_555
H16 C20 1_555 1_555
C21 C18 1_555 1_555
H17 C21 1_555 1_555
H18 C21 1_555 1_555
C22 C21 1_555 1_555
H19 C22 1_555 1_555
H20 C22 1_555 1_555
C23 C22 1_555 1_555
H21 C23 1_555 1_555
H22 C23 1_555 1_555
C24 C23 1_555 1_555
H23 C24 1_555 1_555
H24 C24 1_555 1_555
H25 C24 1_555 1_555
S1A C5A 1_555 1_555
O1A C9A 1_555 1_555
O2A C1A 1_555 1_555
N1A C1A 1_555 1_555
C1A C2A 1_555 1_555
C2A C2 1_555 1_555
C3A C2A 1_555 1_555
H1A C3A 1_555 1_555
C4A N1A 1_555 1_555
C5A C4A 1_555 1_555
C6A C5A 1_555 1_555
H2A C6A 1_555 1_555
C7A C6A 1_555 1_555
H3A C7A 1_555 1_555
C8A S1A 1_555 1_555
C9A C8A 1_555 1_555
C10A C9A 1_555 1_555
H4A C10A 1_555 1_555
C11A C10A 1_555 1_555
C12A C11A 1_555 1_555
H5A C12A 1_555 1_555
C13A C12A 1_555 1_555
H6A C13A 1_555 1_555
C14A C13A 1_555 1_555
H7A C14A 1_555 1_555
C15A C14A 1_555 1_555
H8A C15A 1_555 1_555
C16A O1A 1_555 1_555
C17A N1A 1_555 1_555
H9A C17A 1_555 1_555
H10A C17A 1_555 1_555
C18A C17A 1_555 1_555
H11A C18A 1_555 1_555
C19A C18A 1_555 1_555
H12A C19A 1_555 1_555
H13A C19A 1_555 1_555
C20A C19A 1_555 1_555
H14A C20A 1_555 1_555
H15A C20A 1_555 1_555
H16A C20A 1_555 1_555
C21A C18A 1_555 1_555
H17A C21A 1_555 1_555
H18A C21A 1_555 1_555
C22A C21A 1_555 1_555
H19A C22A 1_555 1_555
H20A C22A 1_555 1_555
C23A C22A 1_555 1_555
H21A C23A 1_555 1_555
H22A C23A 1_555 1_555
C24A C23A 1_555 1_555
H23A C24A 1_555 1_555
H24A C24A 1_555 1_555
H25A C24A 1_555 1_555
C3 C4 1_555 1_555
C7 C8 1_555 1_555
C11 C16 1_555 1_555
C15 C16 1_555 1_555
C3A C4A 1_555 1_555
C7A C8A 1_555 1_555
C11A C16A 1_555 1_555
C15A C16A 1_555 1_555

#END
