
#######################################################################
#
#                 Cambridge Crystallographic Data Centre
#                                CCDC 
#
#######################################################################
#
# If this CIF has been generated from an entry in the Cambridge 
# Structural Database, then it will include bibliographic, chemical, 
# crystal, experimental, refinement or atomic coordinate data resulting 
# from the CCDC's data processing and validation procedures.
#
#######################################################################

data_XEVCOT
_chemical_formula_moiety         'C25 H23 Br1 F3 N1 O4'
_chemical_name_systematic        
't-butyl (2R,3S,4S)-2-(4-bromophenyl)-3-formyl-4-hydroxy-4-(trifluoromethyl)-1,2,3,4-tetrahydro-9H-carbazole-9-carboxylate'
_symmetry_cell_setting           orthorhombic
_symmetry_space_group_name_H-M   'P 21 21 21'
_symmetry_Int_Tables_number      19
_space_group_name_Hall           'P 2ac 2ab'
loop_
_symmetry_equiv_pos_site_id
_symmetry_equiv_pos_as_xyz
1 x,y,z
2 1/2-x,-y,1/2+z
3 -x,1/2+y,1/2-z
4 1/2+x,1/2-y,-z
_cell_length_a                   9.23314(12)
_cell_length_b                   11.96368(14)
_cell_length_c                   20.9650(3)
_cell_angle_alpha                90
_cell_angle_beta                 90
_cell_angle_gamma                90
_cell_volume                     2315.84
_exptl_crystal_colour            colorless
_exptl_crystal_description       block
_chemical_melting_point          '182-183 deg.C'
_cell_formula_units_Z            4
loop_
_atom_site_label
_atom_site_type_symbol
_atom_site_fract_x
_atom_site_fract_y
_atom_site_fract_z
Br1 Br 0.48602(3) 0.19952(2) 0.31724(2)
F1 F 0.66123(14) 0.96980(11) 0.36234(7)
F2 F 0.79962(14) 0.90935(12) 0.43828(7)
F3 F 0.65946(14) 1.04965(12) 0.45442(7)
O1 O 0.11983(17) 0.87126(14) 0.28896(8)
O2 O 0.57037(18) 0.85398(14) 0.51293(8)
O3 O 0.80542(18) 0.67356(15) 0.42352(9)
O4 O -0.02077(17) 1.00377(14) 0.33528(7)
N1 N 0.18557(19) 0.94137(16) 0.38376(9)
C1 C 0.4022(2) 0.91885(19) 0.43126(11)
C2 C 0.3329(2) 1.01632(19) 0.45952(11)
C3 C 0.3101(2) 0.87395(19) 0.38813(11)
C4 C 0.5477(2) 0.86940(18) 0.44647(10)
C5 C 0.0823(2) 0.94314(19) 0.33440(10)
C6 C 0.3692(3) 0.3787(2) 0.38906(12)
H1 H 0.3124 0.3238 0.4080
C7 C 0.6847(2) 0.68637(19) 0.44332(11)
H2 H 0.6593 0.6514 0.4813
C8 C 0.4442(2) 0.57274(18) 0.38093(11)
C9 C 0.1378(3) 1.18032(19) 0.49663(11)
H3 H 0.0740 1.2361 0.5095
C10 C 0.3246(2) 0.75870(19) 0.36066(11)
H4 H 0.3635 0.7626 0.3177
H5 H 0.2306 0.7225 0.3589
C11 C 0.5388(3) 0.54276(19) 0.33225(11)
H6 H 0.5957 0.5973 0.3130
C12 C 0.4657(3) 0.35206(18) 0.34116(11)
C13 C 0.5495(3) 0.43247(19) 0.31204(12)
H7 H 0.6125 0.4132 0.2792
C14 C 0.6674(2) 0.9505(2) 0.42541(11)
C15 C 0.5712(2) 0.75662(19) 0.40973(11)
H8 H 0.6061 0.7739 0.3667
C16 C 0.3687(3) 1.0881(2) 0.50987(11)
H9 H 0.4567 1.0808 0.5311
C17 C 0.0989(3) 1.10955(19) 0.44735(11)
H10 H 0.0098 1.1162 0.4270
C18 C 0.2713(3) 1.16962(19) 0.52748(11)
H11 H 0.2947 1.2184 0.5605
C19 C 0.1983(2) 1.02793(18) 0.42935(11)
C20 C 0.4271(2) 0.6925(2) 0.40394(11)
H12 H 0.3833 0.6898 0.4465
C21 C 0.3591(3) 0.4900(2) 0.40827(12)
H13 H 0.2937 0.5093 0.4402
C22 C 0.0182(3) 0.8494(2) 0.23509(10)
C23 C 0.0974(3) 0.7599(2) 0.19805(13)
H14 H 0.1889 0.7887 0.1837
H15 H 0.0403 0.7380 0.1619
H16 H 0.1134 0.6963 0.2250
C24 C 0.0003(3) 0.9543(2) 0.19533(12)
H17 H -0.0505 1.0098 0.2197
H18 H -0.0539 0.9370 0.1575
H19 H 0.0939 0.9824 0.1836
C25 C -0.1238(3) 0.8048(3) 0.26135(14)
H20 H -0.1045 0.7452 0.2908
H21 H -0.1823 0.7772 0.2269
H22 H -0.1745 0.8638 0.2829
H23 H 0.492(3) 0.853(2) 0.5300(13)
loop_
_geom_bond_atom_site_label_1
_geom_bond_atom_site_label_2
_geom_bond_site_symmetry_1
_geom_bond_site_symmetry_2
Br1 C12 1_555 1_555
F1 C14 1_555 1_555
F2 C14 1_555 1_555
F3 C14 1_555 1_555
O1 C5 1_555 1_555
O2 C4 1_555 1_555
O3 C7 1_555 1_555
O4 C5 1_555 1_555
N1 C3 1_555 1_555
C1 C2 1_555 1_555
C2 C16 1_555 1_555
C3 C1 1_555 1_555
C4 C1 1_555 1_555
C5 N1 1_555 1_555
C6 H1 1_555 1_555
C7 H2 1_555 1_555
C8 C11 1_555 1_555
C9 H3 1_555 1_555
C10 C3 1_555 1_555
H4 C10 1_555 1_555
H5 C10 1_555 1_555
C11 H6 1_555 1_555
C12 C6 1_555 1_555
C13 C11 1_555 1_555
H7 C13 1_555 1_555
C14 C4 1_555 1_555
C15 C4 1_555 1_555
H8 C15 1_555 1_555
C16 H9 1_555 1_555
C17 C9 1_555 1_555
H10 C17 1_555 1_555
C18 C9 1_555 1_555
H11 C18 1_555 1_555
C19 N1 1_555 1_555
C20 C8 1_555 1_555
H12 C20 1_555 1_555
C21 C6 1_555 1_555
H13 C21 1_555 1_555
C22 O1 1_555 1_555
C23 C22 1_555 1_555
H14 C23 1_555 1_555
H15 C23 1_555 1_555
H16 C23 1_555 1_555
C24 C22 1_555 1_555
H17 C24 1_555 1_555
H18 C24 1_555 1_555
H19 C24 1_555 1_555
C25 C22 1_555 1_555
H20 C25 1_555 1_555
H21 C25 1_555 1_555
H22 C25 1_555 1_555
H23 O2 1_555 1_555
C2 C19 1_555 1_555
C7 C15 1_555 1_555
C8 C21 1_555 1_555
C10 C20 1_555 1_555
C12 C13 1_555 1_555
C15 C20 1_555 1_555
C16 C18 1_555 1_555
C17 C19 1_555 1_555

#END
