
#######################################################################
#
#                 Cambridge Crystallographic Data Centre
#                                CCDC 
#
#######################################################################
#
# If this CIF has been generated from an entry in the Cambridge 
# Structural Database, then it will include bibliographic, chemical, 
# crystal, experimental, refinement or atomic coordinate data resulting 
# from the CCDC's data processing and validation procedures.
#
#######################################################################

data_XEVJEN
_chemical_compound_source        'Stem bark of Aglaia lawii'
_chemical_name_common            'Cabraleadiol monoacetate'
_chemical_formula_moiety         'C32 H54 O4'
_chemical_name_systematic        
'(20S,24S)-20,24-Epoxydammarane-3\a,25-diol acetate'
_chemical_properties_biological  
'no activity against various human cancer cell lines; Vietnamese parent plant used in treatment of bacterial infection, liver and tumour diseases'
_symmetry_cell_setting           monoclinic
_symmetry_space_group_name_H-M   'C 2'
_symmetry_Int_Tables_number      5
_space_group_name_Hall           'C 2y'
loop_
_symmetry_equiv_pos_site_id
_symmetry_equiv_pos_as_xyz
1 x,y,z
2 -x,y,-z
3 1/2+x,1/2+y,z
4 1/2-x,1/2+y,-z
_cell_length_a                   30.2897(6)
_cell_length_b                   7.1071(2)
_cell_length_c                   13.8023(4)
_cell_angle_alpha                90
_cell_angle_beta                 95.3225(12)
_cell_angle_gamma                90
_cell_volume                     2958.44
_exptl_crystal_colour            colorless
_exptl_crystal_description       block
_chemical_melting_point          148-150deg.C
_cell_formula_units_Z            4
loop_
_atom_site_label
_atom_site_type_symbol
_atom_site_fract_x
_atom_site_fract_y
_atom_site_fract_z
O1 O 0.46423(6) 0.4675(3) 0.69341(13)
O2 O 0.53402(9) 0.4849(8) 0.6629(2)
O3 O 0.11580(5) 0.4382(3) 0.86736(12)
O4 O 0.03904(6) 0.6326(4) 0.89558(15)
H1 H 0.0446(13) 0.553(6) 0.854(3)
C1 C 0.37545(9) 0.5395(4) 0.5936(2)
H2 H 0.3819(8) 0.597(5) 0.658(2)
H3 H 0.3542(9) 0.633(5) 0.5529(18)
C2 C 0.50599(9) 0.5182(5) 0.7139(2)
C3 C 0.41890(9) 0.5177(4) 0.5456(2)
H4 H 0.4375(10) 0.652(5) 0.548(2)
H5 H 0.4125(8) 0.475(4) 0.480(2)
C4 C 0.51443(13) 0.6062(7) 0.8116(3)
H6 H 0.5443(14) 0.658(6) 0.825(3)
H7 H 0.5081(16) 0.512(8) 0.861(4)
H8 H 0.4940(14) 0.665(7) 0.827(3)
C5 C 0.45052(9) 0.3826(4) 0.59925(18)
H9 H 0.4770(10) 0.370(5) 0.566(2)
C6 C 0.43065(8) 0.1891(4) 0.61648(16)
C7 C 0.38557(8) 0.2154(3) 0.66161(16)
H10 H 0.3939(7) 0.276(4) 0.7243(16)
C8 C 0.36350(9) 0.0323(4) 0.6883(2)
H11 H 0.3830(10) -0.054(5) 0.713(2)
H12 H 0.3513(9) -0.048(4) 0.630(2)
C9 C 0.32789(8) 0.0680(4) 0.75729(19)
H13 H 0.3425(8) 0.127(4) 0.8186(18)
H14 H 0.3112(8) -0.050(5) 0.7700(18)
C10 C 0.29172(7) 0.2063(3) 0.71633(15)
C11 C 0.31426(7) 0.3864(3) 0.67768(15)
H15 H 0.3317(7) 0.437(3) 0.7352(15)
C12 C 0.35157(8) 0.3516(3) 0.60712(15)
C13 C 0.27934(9) 0.5323(4) 0.64018(19)
H16 H 0.2600(10) 0.495(5) 0.578(2)
H17 H 0.2964(9) 0.650(5) 0.628(2)
C14 C 0.24672(8) 0.5851(4) 0.7143(2)
H18 H 0.2616(9) 0.652(5) 0.772(2)
H19 H 0.2226(10) 0.662(5) 0.678(2)
C15 C 0.22630(7) 0.4076(3) 0.75320(16)
H20 H 0.2129(8) 0.339(4) 0.6970(17)
C16 C 0.26221(7) 0.2717(3) 0.79799(15)
C17 C 0.23365(9) 0.1202(4) 0.8422(2)
H21 H 0.2229(9) 0.047(5) 0.787(2)
H22 H 0.2486(11) 0.035(5) 0.890(2)
C18 C 0.19673(10) 0.2347(4) 0.8848(2)
H23 H 0.1679(11) 0.160(5) 0.878(2)
H24 H 0.2052(9) 0.261(5) 0.952(2)
C19 C 0.19249(7) 0.4239(4) 0.83002(16)
H25 H 0.2016(7) 0.533(4) 0.8760(16)
C20 C 0.26287(9) 0.1017(4) 0.6352(2)
H26 H 0.2794(10) 0.034(5) 0.592(2)
H27 H 0.2399(16) 0.005(8) 0.668(3)
H28 H 0.2472(13) 0.192(6) 0.593(3)
C21 C 0.33215(10) 0.2813(5) 0.50551(17)
H29 H 0.3017(10) 0.346(4) 0.491(2)
H30 H 0.3512(10) 0.326(5) 0.455(2)
H31 H 0.3301(12) 0.137(7) 0.499(3)
C22 C 0.14434(7) 0.4678(4) 0.78952(17)
C23 C 0.12652(11) 0.3388(6) 0.7074(2)
H32 H 0.0929(13) 0.351(6) 0.698(3)
H33 H 0.1407(10) 0.372(5) 0.648(2)
H34 H 0.1349(13) 0.192(7) 0.724(3)
C24 C 0.13668(10) 0.6765(5) 0.7668(2)
H35 H 0.1099(12) 0.686(5) 0.718(2)
H36 H 0.1593(9) 0.739(4) 0.7325(19)
C25 C 0.12991(11) 0.7657(5) 0.8641(2)
H37 H 0.1074(10) 0.855(5) 0.857(2)
H38 H 0.1583(16) 0.824(7) 0.899(3)
C26 C 0.11810(7) 0.6001(4) 0.92839(17)
H39 H 0.1423(9) 0.585(5) 0.9834(19)
C27 C 0.07376(7) 0.6139(5) 0.97312(17)
C28 C 0.06623(11) 0.4377(6) 1.0316(2)
H40 H 0.0678(11) 0.318(5) 0.992(2)
H41 H 0.0903(13) 0.407(6) 1.084(3)
H42 H 0.0372(12) 0.449(6) 1.056(2)
C29 C 0.07158(12) 0.7874(6) 1.0359(2)
H43 H 0.0941(12) 0.780(6) 1.095(3)
H44 H 0.0452(16) 0.781(8) 1.066(3)
H45 H 0.0802(12) 0.899(6) 1.001(3)
C30 C 0.42678(11) 0.0814(5) 0.5193(2)
H46 H 0.4135(9) 0.158(5) 0.462(2)
H47 H 0.4082(11) -0.038(6) 0.524(2)
H48 H 0.4544(11) 0.052(5) 0.506(2)
C31 C 0.46292(10) 0.0769(5) 0.6872(2)
H49 H 0.4644(9) 0.130(5) 0.756(2)
H50 H 0.4528(10) -0.058(6) 0.689(2)
H51 H 0.4921(10) 0.068(5) 0.665(2)
C32 C 0.28976(10) 0.3676(5) 0.88478(18)
H52 H 0.2709(10) 0.441(5) 0.929(2)
H53 H 0.3118(13) 0.450(6) 0.872(3)
H54 H 0.3079(16) 0.289(8) 0.922(3)
loop_
_geom_bond_atom_site_label_1
_geom_bond_atom_site_label_2
_geom_bond_site_symmetry_1
_geom_bond_site_symmetry_2
O1 C2 1_555 1_555
O2 C2 1_555 1_555
O3 C22 1_555 1_555
O4 H1 1_555 1_555
C1 H2 1_555 1_555
H3 C1 1_555 1_555
C2 C4 1_555 1_555
C3 C1 1_555 1_555
H4 C3 1_555 1_555
H5 C3 1_555 1_555
C4 H6 1_555 1_555
H7 C4 1_555 1_555
H8 C4 1_555 1_555
C5 O1 1_555 1_555
H9 C5 1_555 1_555
C6 C5 1_555 1_555
C7 C6 1_555 1_555
H10 C7 1_555 1_555
C8 C7 1_555 1_555
H11 C8 1_555 1_555
H12 C8 1_555 1_555
C9 C8 1_555 1_555
H13 C9 1_555 1_555
H14 C9 1_555 1_555
C10 C9 1_555 1_555
C11 C10 1_555 1_555
H15 C11 1_555 1_555
C12 C1 1_555 1_555
C13 C11 1_555 1_555
H16 C13 1_555 1_555
H17 C13 1_555 1_555
C14 C13 1_555 1_555
H18 C14 1_555 1_555
H19 C14 1_555 1_555
C15 C14 1_555 1_555
H20 C15 1_555 1_555
C16 C10 1_555 1_555
C17 C16 1_555 1_555
H21 C17 1_555 1_555
H22 C17 1_555 1_555
C18 C17 1_555 1_555
H23 C18 1_555 1_555
H24 C18 1_555 1_555
C19 C15 1_555 1_555
H25 C19 1_555 1_555
C20 C10 1_555 1_555
H26 C20 1_555 1_555
H27 C20 1_555 1_555
H28 C20 1_555 1_555
C21 C12 1_555 1_555
H29 C21 1_555 1_555
H30 C21 1_555 1_555
H31 C21 1_555 1_555
C22 C19 1_555 1_555
C23 C22 1_555 1_555
H32 C23 1_555 1_555
H33 C23 1_555 1_555
H34 C23 1_555 1_555
C24 C22 1_555 1_555
H35 C24 1_555 1_555
H36 C24 1_555 1_555
C25 C24 1_555 1_555
H37 C25 1_555 1_555
H38 C25 1_555 1_555
C26 O3 1_555 1_555
H39 C26 1_555 1_555
C27 O4 1_555 1_555
C28 C27 1_555 1_555
H40 C28 1_555 1_555
H41 C28 1_555 1_555
H42 C28 1_555 1_555
C29 C27 1_555 1_555
H43 C29 1_555 1_555
H44 C29 1_555 1_555
H45 C29 1_555 1_555
C30 C6 1_555 1_555
H46 C30 1_555 1_555
H47 C30 1_555 1_555
H48 C30 1_555 1_555
C31 C6 1_555 1_555
H49 C31 1_555 1_555
H50 C31 1_555 1_555
H51 C31 1_555 1_555
C32 C16 1_555 1_555
H52 C32 1_555 1_555
H53 C32 1_555 1_555
H54 C32 1_555 1_555
C3 C5 1_555 1_555
C7 C12 1_555 1_555
C11 C12 1_555 1_555
C15 C16 1_555 1_555
C18 C19 1_555 1_555
C25 C26 1_555 1_555
C26 C27 1_555 1_555

#END
