
#######################################################################
#
#                 Cambridge Crystallographic Data Centre
#                                CCDC 
#
#######################################################################
#
# If this CIF has been generated from an entry in the Cambridge 
# Structural Database, then it will include bibliographic, chemical, 
# crystal, experimental, refinement or atomic coordinate data resulting 
# from the CCDC's data processing and validation procedures.
#
#######################################################################

data_XEVKIV
_chemical_formula_moiety         'C19 H31 B10 N1'
_chemical_name_systematic        
1-(aminomethyl)-2-t-butyl-4,5-diphenyl-1,2-dicarba-closo-dodecaborane(8)
_symmetry_cell_setting           monoclinic
_symmetry_space_group_name_H-M   'C 2/c'
_symmetry_Int_Tables_number      15
_space_group_name_Hall           '-C 2yn'
loop_
_symmetry_equiv_pos_site_id
_symmetry_equiv_pos_as_xyz
1 x,y,z
2 -x,y,1/2-z
3 1/2+x,1/2+y,z
4 1/2-x,1/2+y,1/2-z
5 -x,-y,-z
6 x,-y,1/2+z
7 1/2-x,1/2-y,-z
8 1/2+x,1/2-y,1/2+z
_cell_length_a                   17.6118(12)
_cell_length_b                   12.1001(9)
_cell_length_c                   20.3538(16)
_cell_angle_alpha                90
_cell_angle_beta                 94.094(3)
_cell_angle_gamma                90
_cell_volume                     4326.42
_exptl_crystal_description       block
_cell_formula_units_Z            8
loop_
_atom_site_label
_atom_site_type_symbol
_atom_site_fract_x
_atom_site_fract_y
_atom_site_fract_z
H1 H 0.1433(15) 0.452(3) 0.2383(14)
H2 H 0.1311(13) 0.341(2) 0.2641(13)
H3 H 0.2012(10) 0.3963(16) 0.1534(10)
H4 H 0.2400(11) 0.3280(16) 0.2144(10)
N1 N 0.13160(11) 0.38148(19) 0.22688(11)
C1 C 0.21720(11) 0.12071(16) 0.27824(10)
C2 C 0.33455(11) 0.18381(17) 0.14434(10)
C3 C 0.39076(11) 0.10322(18) 0.15676(11)
H5 H 0.3762 0.0276 0.1572
C4 C 0.48930(12) 0.23938(19) 0.16719(11)
H6 H 0.5412 0.2587 0.1767
C5 C 0.18680(12) 0.09425(19) 0.39198(11)
H7 H 0.1515 0.0711 0.4224
C6 C 0.17311(11) 0.22818(16) 0.15544(10)
C7 C 0.46707(12) 0.1305(2) 0.16838(12)
H8 H 0.5039 0.0741 0.1771
C8 C 0.19188(12) 0.33977(18) 0.18802(11)
C9 C 0.09507(11) 0.20985(17) 0.09885(10)
C10 C 0.43588(12) 0.32001(19) 0.15221(12)
H9 H 0.4513 0.3951 0.1500
C11 C 0.30813(12) 0.16683(19) 0.36949(11)
H10 H 0.3567 0.1946 0.3845
B1 B 0.24840(13) 0.14603(19) 0.13478(12)
C12 C 0.03656(12) 0.30484(18) 0.07769(11)
C13 C 0.28847(12) 0.15962(18) 0.30251(11)
H11 H 0.3243 0.1817 0.2723
C14 C 0.35981(12) 0.29276(18) 0.14030(11)
H12 H 0.3239 0.3496 0.1291
C15 C 0.16758(12) 0.08845(18) 0.32473(11)
H13 H 0.1187 0.0614 0.3100
C16 C -0.02372(11) 0.3171(2) 0.12780(12)
H14 H -0.0628 0.3697 0.1110
H15 H 0.0003 0.3444 0.1696
H16 H -0.0473 0.2452 0.1349
C17 C 0.25771(13) 0.13400(19) 0.41454(12)
H17 H 0.2714 0.1386 0.4605
C18 C 0.07425(12) 0.41743(18) 0.06875(12)
H18 H 0.1133 0.4106 0.0370
H19 H 0.0979 0.4427 0.1112
H20 H 0.0357 0.4710 0.0524
B2 B 0.06183(14) 0.0784(2) 0.10753(13)
H21 H 0.0001 0.0571 0.0985
B3 B 0.09601(13) 0.1539(2) 0.17798(13)
H22 H 0.0571 0.1840 0.2154
C19 C -0.00456(14) 0.2739(2) 0.01102(13)
H23 H -0.0277 0.2006 0.0142
H24 H 0.0321 0.2729 -0.0230
H25 H -0.0443 0.3285 -0.0007
B4 B 0.18618(13) 0.2113(2) 0.07284(12)
H26 H 0.2065 0.2795 0.0412
B5 B 0.19118(13) 0.1100(2) 0.20235(12)
B6 B 0.21502(14) 0.0078(2) 0.14389(13)
H27 H 0.2550 -0.0613 0.1585
B7 B 0.11858(14) 0.1111(2) 0.04206(13)
H28 H 0.0953 0.1105 -0.0106
B8 B 0.13540(14) -0.0131(2) 0.08659(13)
H29 H 0.1229 -0.0959 0.0637
B9 B 0.12113(13) 0.0135(2) 0.17063(13)
H30 H 0.0986 -0.0517 0.2032
B10 B 0.21298(14) 0.0704(2) 0.06466(13)
H31 H 0.2521 0.0434 0.0267
loop_
_geom_bond_atom_site_label_1
_geom_bond_atom_site_label_2
_geom_bond_site_symmetry_1
_geom_bond_site_symmetry_2
H1 N1 1_555 1_555
H2 N1 1_555 1_555
H3 C8 1_555 1_555
H4 C8 1_555 1_555
N1 C8 1_555 1_555
C1 C13 1_555 1_555
C2 C3 1_555 1_555
C3 H5 1_555 1_555
C4 H6 1_555 1_555
C5 H7 1_555 1_555
C6 C8 1_555 1_555
C7 C3 1_555 1_555
H8 C7 1_555 1_555
C9 C6 1_555 1_555
C10 C4 1_555 1_555
H9 C10 1_555 1_555
C11 H10 1_555 1_555
B1 C2 1_555 1_555
C12 C9 1_555 1_555
C13 C11 1_555 1_555
H11 C13 1_555 1_555
C14 C2 1_555 1_555
H12 C14 1_555 1_555
C15 C1 1_555 1_555
H13 C15 1_555 1_555
C16 C12 1_555 1_555
H14 C16 1_555 1_555
H15 C16 1_555 1_555
H16 C16 1_555 1_555
C17 C5 1_555 1_555
H17 C17 1_555 1_555
C18 C12 1_555 1_555
H18 C18 1_555 1_555
H19 C18 1_555 1_555
H20 C18 1_555 1_555
B2 C9 1_555 1_555
H21 B2 1_555 1_555
B3 C6 1_555 1_555
H22 B3 1_555 1_555
C19 C12 1_555 1_555
H23 C19 1_555 1_555
H24 C19 1_555 1_555
H25 C19 1_555 1_555
B4 C6 1_555 1_555
H26 B4 1_555 1_555
B5 C1 1_555 1_555
B6 B1 1_555 1_555
H27 B6 1_555 1_555
B7 C9 1_555 1_555
H28 B7 1_555 1_555
B8 B2 1_555 1_555
H29 B8 1_555 1_555
B9 B2 1_555 1_555
H30 B9 1_555 1_555
B10 B1 1_555 1_555
H31 B10 1_555 1_555
C4 C7 1_555 1_555
C5 C15 1_555 1_555
C6 B1 1_555 1_555
C6 B5 1_555 1_555
C9 B3 1_555 1_555
C9 B4 1_555 1_555
C10 C14 1_555 1_555
C11 C17 1_555 1_555
B1 B4 1_555 1_555
B1 B5 1_555 1_555
B2 B3 1_555 1_555
B2 B7 1_555 1_555
B3 B5 1_555 1_555
B3 B9 1_555 1_555
B4 B7 1_555 1_555
B4 B10 1_555 1_555
B5 B6 1_555 1_555
B5 B9 1_555 1_555
B6 B8 1_555 1_555
B6 B9 1_555 1_555
B6 B10 1_555 1_555
B7 B8 1_555 1_555
B7 B10 1_555 1_555
B8 B9 1_555 1_555
B8 B10 1_555 1_555

#END
