
#######################################################################
#
#                 Cambridge Crystallographic Data Centre
#                                CCDC 
#
#######################################################################
#
# If this CIF has been generated from an entry in the Cambridge 
# Structural Database, then it will include bibliographic, chemical, 
# crystal, experimental, refinement or atomic coordinate data resulting 
# from the CCDC's data processing and validation procedures.
#
#######################################################################

data_XEVMAP
_chemical_formula_moiety         'C14 H14 N4 O1'
_chemical_name_systematic        
3-butylpyrimido[4,5-b][1,8]naphthyridin-4(3H)-one
_symmetry_cell_setting           monoclinic
_symmetry_space_group_name_H-M   'P 21/c'
_symmetry_Int_Tables_number      14
_space_group_name_Hall           '-P 2ybc'
loop_
_symmetry_equiv_pos_site_id
_symmetry_equiv_pos_as_xyz
1 x,y,z
2 -x,1/2+y,1/2-z
3 -x,-y,-z
4 x,1/2-y,1/2+z
_cell_length_a                   7.753(2)
_cell_length_b                   14.532(4)
_cell_length_c                   11.144(3)
_cell_angle_alpha                90
_cell_angle_beta                 98.574(6)
_cell_angle_gamma                90
_cell_volume                     1241.52
_cell_formula_units_Z            4
loop_
_atom_site_label
_atom_site_type_symbol
_atom_site_fract_x
_atom_site_fract_y
_atom_site_fract_z
O1 O 0.08830(13) 0.82432(7) 1.00706(9)
N1 N 0.28522(16) 0.90477(8) 0.70306(9)
N2 N 0.36706(14) 1.04657(7) 0.78430(9)
N3 N 0.44570(15) 1.19144(8) 0.85393(10)
N4 N 0.13471(15) 0.79867(8) 0.81293(10)
C1 C 0.45588(18) 1.25308(10) 0.94052(12)
H1 H 0.5012 1.3104 0.9250
C2 C 0.40404(18) 1.23988(10) 1.05503(13)
H2 H 0.4164 1.2866 1.1127
C3 C 0.33583(17) 1.15759(10) 1.07901(11)
H3 H 0.3012 1.1466 1.1541
C4 C 0.31754(15) 1.08826(9) 0.98881(10)
C5 C 0.37628(16) 1.10779(9) 0.87617(10)
C6 C 0.24428(16) 1.00214(9) 1.00229(11)
H4 H 0.2054 0.9865 1.0746
C7 C 0.22986(15) 0.94040(9) 0.90811(10)
C8 C 0.29563(16) 0.96561(9) 0.79993(10)
C9 C 0.14643(16) 0.85124(9) 0.91731(11)
C10 C 0.2081(2) 0.82831(10) 0.71500(12)
H5 H 0.2008 0.7880 0.6496
C11 C 0.05460(19) 0.70656(10) 0.80921(14)
H6 H 0.0022 0.6928 0.7266
H7 H -0.0374 0.7064 0.8594
C12 C 0.18577(19) 0.63257(10) 0.85330(13)
H8 H 0.2795 0.6341 0.8046
H9 H 0.2357 0.6455 0.9366
C13 C 0.1067(2) 0.53778(10) 0.84665(15)
H10 H 0.0613 0.5238 0.7628
H11 H 0.0096 0.5371 0.8924
C14 C 0.2354(3) 0.46417(12) 0.89565(18)
H12 H 0.1785 0.4053 0.8893
H13 H 0.3306 0.4635 0.8496
H14 H 0.2789 0.4768 0.9792
loop_
_geom_bond_atom_site_label_1
_geom_bond_atom_site_label_2
_geom_bond_site_symmetry_1
_geom_bond_site_symmetry_2
O1 C9 1_555 1_555
N1 C8 1_555 1_555
N2 C5 1_555 1_555
N3 C1 1_555 1_555
N4 C9 1_555 1_555
C1 H1 1_555 1_555
C2 C1 1_555 1_555
H2 C2 1_555 1_555
C3 C2 1_555 1_555
H3 C3 1_555 1_555
C4 C3 1_555 1_555
C5 N3 1_555 1_555
C6 C4 1_555 1_555
H4 C6 1_555 1_555
C7 C6 1_555 1_555
C8 N2 1_555 1_555
C9 C7 1_555 1_555
C10 N1 1_555 1_555
H5 C10 1_555 1_555
C11 N4 1_555 1_555
H6 C11 1_555 1_555
H7 C11 1_555 1_555
C12 C11 1_555 1_555
H8 C12 1_555 1_555
H9 C12 1_555 1_555
C13 C12 1_555 1_555
H10 C13 1_555 1_555
H11 C13 1_555 1_555
C14 C13 1_555 1_555
H12 C14 1_555 1_555
H13 C14 1_555 1_555
H14 C14 1_555 1_555
N4 C10 1_555 1_555
C4 C5 1_555 1_555
C7 C8 1_555 1_555

#END
