
#######################################################################
#
#                 Cambridge Crystallographic Data Centre
#                                CCDC 
#
#######################################################################
#
# If this CIF has been generated from an entry in the Cambridge 
# Structural Database, then it will include bibliographic, chemical, 
# crystal, experimental, refinement or atomic coordinate data resulting 
# from the CCDC's data processing and validation procedures.
#
#######################################################################

data_XEWBIM
_chemical_formula_moiety         'C31 H42 N2 O10'
_chemical_name_systematic        
'Tetraethyl 2,7-bis(cyclohexylimino)-1,6-dioxaspiro[4.4]nona-3,8-diene-3,4,8,9-tetracarboxylate'
_symmetry_cell_setting           monoclinic
_symmetry_space_group_name_H-M   'C 2/c'
_symmetry_Int_Tables_number      15
_space_group_name_Hall           '-C 2yn'
loop_
_symmetry_equiv_pos_site_id
_symmetry_equiv_pos_as_xyz
1 x,y,z
2 -x,y,1/2-z
3 1/2+x,1/2+y,z
4 1/2-x,1/2+y,1/2-z
5 -x,-y,-z
6 x,-y,1/2+z
7 1/2-x,1/2-y,-z
8 1/2+x,1/2-y,1/2+z
_cell_length_a                   38.03(2)
_cell_length_b                   8.049(3)
_cell_length_c                   25.145(11)
_cell_angle_alpha                90
_cell_angle_beta                 120.622(9)
_cell_angle_gamma                90
_cell_volume                     6623.6
_exptl_crystal_colour            colorless
_exptl_crystal_description       block
_cell_formula_units_Z            8
loop_
_atom_site_label
_atom_site_type_symbol
_atom_site_fract_x
_atom_site_fract_y
_atom_site_fract_z
O1 O 0.63983(5) 0.88080(19) 0.62747(7)
O2 O 0.55338(7) 0.4896(2) 0.53675(9)
O3 O 0.55198(6) 0.4810(2) 0.62432(8)
O4 O 0.56342(6) 0.8079(3) 0.71374(9)
O5 O 0.61495(6) 0.6252(2) 0.75626(8)
O6 O 0.63951(5) 0.62815(19) 0.58260(7)
O7 O 0.55278(7) 1.0191(3) 0.54170(10)
O8 O 0.55148(5) 1.0297(2) 0.45192(8)
O9 O 0.56078(6) 0.7016(3) 0.37889(8)
O10 O 0.61353(6) 0.8780(2) 0.41486(8)
N1 N 0.65050(6) 0.9877(3) 0.72174(9)
N2 N 0.64817(6) 0.5176(3) 0.50372(9)
C1 C 0.61439(7) 0.7544(3) 0.58577(10)
C2 C 0.59138(6) 0.6834(3) 0.61501(9)
C3 C 0.60354(7) 0.7605(3) 0.66802(10)
C4 C 0.63350(7) 0.8884(3) 0.67720(10)
C5 C 0.56317(7) 0.5417(3) 0.58678(10)
C6 C 0.52653(9) 0.3306(3) 0.60573(14)
H1 H 0.5324 0.2610 0.5792
H2 H 0.4975 0.3605 0.5828
C7 C 0.53645(12) 0.2398(4) 0.66296(18)
H3 H 0.5654 0.2134 0.6858
H4 H 0.5207 0.1379 0.6523
H5 H 0.5298 0.3087 0.6883
C8 C 0.59068(7) 0.7345(3) 0.71467(10)
C9 C 0.60649(10) 0.5867(4) 0.80511(13)
H6 H 0.5838 0.5076 0.7902
H7 H 0.5990 0.6879 0.8187
C10 C 0.64429(11) 0.5133(5) 0.85704(14)
H8 H 0.6507 0.4106 0.8435
H9 H 0.6401 0.4905 0.8913
H10 H 0.6668 0.5908 0.8702
C11 C 0.67961(7) 1.1124(3) 0.72548(11)
H11 H 0.6885 1.0839 0.6958
C12 C 0.65886(8) 1.2807(4) 0.70897(14)
H12 H 0.6461 1.3004 0.7338
H13 H 0.6372 1.2806 0.6653
C13 C 0.68871(9) 1.4213(4) 0.72011(15)
H14 H 0.6989 1.4101 0.6915
H15 H 0.6745 1.5281 0.7119
C14 C 0.72434(8) 1.4191(3) 0.78587(12)
H16 H 0.7437 1.5068 0.7911
H17 H 0.7145 1.4418 0.8143
C15 C 0.74575(8) 1.2536(4) 0.80151(14)
H18 H 0.7676 1.2536 0.8450
H19 H 0.7582 1.2365 0.7761
C16 C 0.71637(8) 1.1113(3) 0.79054(12)
H20 H 0.7309 1.0055 0.7978
H21 H 0.7070 1.1197 0.8202
C17 C 0.59102(6) 0.8259(3) 0.52154(9)
C18 C 0.60236(7) 0.7474(3) 0.48642(10)
C19 C 0.63217(7) 0.6188(3) 0.52292(10)
C20 C 0.56284(7) 0.9679(3) 0.50676(11)
C21 C 0.52588(9) 1.1789(3) 0.43138(12)
H22 H 0.5327 1.2514 0.4667
H23 H 0.4969 1.1486 0.4116
C22 C 0.53403(12) 1.2641(4) 0.38719(19)
H24 H 0.5625 1.2966 0.4077
H25 H 0.5169 1.3622 0.3715
H26 H 0.5280 1.1899 0.3532
C23 C 0.58896(7) 0.7734(3) 0.42021(10)
C24 C 0.60504(11) 0.9138(4) 0.35305(13)
H27 H 0.5832 0.9965 0.3332
H28 H 0.5966 0.8127 0.3278
C25 C 0.64399(12) 0.9800(5) 0.36003(18)
H29 H 0.6509 1.0839 0.3827
H30 H 0.6405 0.9986 0.3195
H31 H 0.6658 0.9002 0.3825
C26 C 0.67714(8) 0.3916(3) 0.54450(11)
H32 H 0.6827 0.4081 0.5871
C27 C 0.71653(8) 0.4092(4) 0.54369(15)
H33 H 0.7295 0.5152 0.5627
H34 H 0.7103 0.4105 0.5008
C28 C 0.74611(9) 0.2673(4) 0.57840(15)
H35 H 0.7703 0.2784 0.5743
H36 H 0.7550 0.2748 0.6224
C29 C 0.72690(9) 0.1014(4) 0.55430(13)
H37 H 0.7463 0.0139 0.5791
H38 H 0.7206 0.0891 0.5116
C30 C 0.68836(9) 0.0809(4) 0.55638(17)
H39 H 0.6950 0.0802 0.5995
H40 H 0.6756 -0.0257 0.5377
C31 C 0.65847(9) 0.2221(4) 0.52155(16)
H41 H 0.6492 0.2132 0.4775
H42 H 0.6345 0.2105 0.5261
loop_
_geom_bond_atom_site_label_1
_geom_bond_atom_site_label_2
_geom_bond_site_symmetry_1
_geom_bond_site_symmetry_2
O1 C1 1_555 1_555
O2 C5 1_555 1_555
O3 C5 1_555 1_555
O4 C8 1_555 1_555
O5 C8 1_555 1_555
O6 C1 1_555 1_555
O7 C20 1_555 1_555
O8 C20 1_555 1_555
O9 C23 1_555 1_555
O10 C23 1_555 1_555
N1 C4 1_555 1_555
N2 C19 1_555 1_555
C1 C2 1_555 1_555
C2 C3 1_555 1_555
C3 C4 1_555 1_555
C4 O1 1_555 1_555
C5 C2 1_555 1_555
C6 O3 1_555 1_555
H1 C6 1_555 1_555
H2 C6 1_555 1_555
C7 C6 1_555 1_555
H3 C7 1_555 1_555
H4 C7 1_555 1_555
H5 C7 1_555 1_555
C8 C3 1_555 1_555
C9 O5 1_555 1_555
H6 C9 1_555 1_555
H7 C9 1_555 1_555
C10 C9 1_555 1_555
H8 C10 1_555 1_555
H9 C10 1_555 1_555
H10 C10 1_555 1_555
C11 N1 1_555 1_555
H11 C11 1_555 1_555
C12 C11 1_555 1_555
H12 C12 1_555 1_555
H13 C12 1_555 1_555
C13 C12 1_555 1_555
H14 C13 1_555 1_555
H15 C13 1_555 1_555
C14 C13 1_555 1_555
H16 C14 1_555 1_555
H17 C14 1_555 1_555
C15 C14 1_555 1_555
H18 C15 1_555 1_555
H19 C15 1_555 1_555
C16 C11 1_555 1_555
H20 C16 1_555 1_555
H21 C16 1_555 1_555
C17 C1 1_555 1_555
C18 C17 1_555 1_555
C19 O6 1_555 1_555
C20 C17 1_555 1_555
C21 O8 1_555 1_555
H22 C21 1_555 1_555
H23 C21 1_555 1_555
C22 C21 1_555 1_555
H24 C22 1_555 1_555
H25 C22 1_555 1_555
H26 C22 1_555 1_555
C23 C18 1_555 1_555
C24 O10 1_555 1_555
H27 C24 1_555 1_555
H28 C24 1_555 1_555
C25 C24 1_555 1_555
H29 C25 1_555 1_555
H30 C25 1_555 1_555
H31 C25 1_555 1_555
C26 N2 1_555 1_555
H32 C26 1_555 1_555
C27 C26 1_555 1_555
H33 C27 1_555 1_555
H34 C27 1_555 1_555
C28 C27 1_555 1_555
H35 C28 1_555 1_555
H36 C28 1_555 1_555
C29 C28 1_555 1_555
H37 C29 1_555 1_555
H38 C29 1_555 1_555
C30 C29 1_555 1_555
H39 C30 1_555 1_555
H40 C30 1_555 1_555
C31 C26 1_555 1_555
H41 C31 1_555 1_555
H42 C31 1_555 1_555
C15 C16 1_555 1_555
C18 C19 1_555 1_555
C30 C31 1_555 1_555

#END
