
#######################################################################
#
#                 Cambridge Crystallographic Data Centre
#                                CCDC 
#
#######################################################################
#
# If this CIF has been generated from an entry in the Cambridge 
# Structural Database, then it will include bibliographic, chemical, 
# crystal, experimental, refinement or atomic coordinate data resulting 
# from the CCDC's data processing and validation procedures.
#
#######################################################################

data_XEWCAG
_chemical_formula_moiety         'C28 H41 Br1 O5 Si1'
_chemical_name_systematic        
'8-{[t-butyl(dimethyl)silyl]oxy}-10-hydroxy-12-oxotetradecahydro-6,10-methanobenzo[10]annulen-1-yl 4-bromobenzoate'
_symmetry_cell_setting           triclinic
_symmetry_space_group_name_H-M   'P -1'
_symmetry_Int_Tables_number      2
_space_group_name_Hall           '-P 1'
loop_
_symmetry_equiv_pos_site_id
_symmetry_equiv_pos_as_xyz
1 x,y,z
2 -x,-y,-z
_cell_length_a                   10.165(2)
_cell_length_b                   11.075(2)
_cell_length_c                   14.023(3)
_cell_angle_alpha                82.06(3)
_cell_angle_beta                 73.27(3)
_cell_angle_gamma                74.24(3)
_cell_volume                     1451.94
_exptl_crystal_colour            colorless
_exptl_crystal_description       block
_cell_formula_units_Z            2
loop_
_atom_site_label
_atom_site_type_symbol
_atom_site_fract_x
_atom_site_fract_y
_atom_site_fract_z
Br1 Br 0.41509(7) 0.21913(7) 0.59575(4)
Si1 Si 1.05718(15) 0.65841(13) -0.26781(10)
O1 O 0.5296(3) 0.2381(3) 0.0945(2)
O2 O 1.0354(4) 0.5340(3) -0.3073(3)
O3 O 1.1225(3) 0.1857(3) -0.0723(3)
H1 H 1.1163 0.1134 -0.0538
O4 O 0.8598(4) 0.0827(3) 0.0428(3)
O5 O 0.4050(4) 0.4398(3) 0.1137(3)
C1 C 1.0159(5) 0.2459(4) -0.1243(3)
C2 C 0.7702(5) 0.2487(4) -0.2319(3)
H2 H 0.7377 0.3219 -0.1928
H3 H 0.7255 0.2678 -0.2865
C3 C 0.9331(5) 0.2243(4) -0.2758(3)
H4 H 0.9584 0.1670 -0.3291
C4 C 0.8095(5) 0.1643(4) -0.0151(3)
C5 C 0.4417(5) 0.3037(4) 0.2574(4)
C6 C 0.6892(4) 0.1491(4) -0.0519(3)
H5 H 0.6678 0.0697 -0.0199
C7 C 0.4558(5) 0.3372(5) 0.1481(4)
C8 C 0.9784(5) 0.3455(4) -0.3251(3)
H6 H 1.0736 0.3224 -0.3685
H7 H 0.9159 0.3892 -0.3664
C9 C 0.9757(5) 0.4352(4) -0.2508(4)
H8 H 0.8772 0.4707 -0.2149
C10 C 0.9036(6) 0.7235(6) -0.1637(4)
H9 H 0.8197 0.7516 -0.1871
H10 H 0.9210 0.7930 -0.1394
H11 H 0.8908 0.6594 -0.1106
C11 C 0.7219(5) 0.1377(4) -0.1657(3)
H12 H 0.7986 0.0621 -0.1829
C12 C 1.0714(6) 0.7736(5) -0.3805(4)
C13 C 1.0587(5) 0.3675(4) -0.1757(4)
H13 H 1.0446 0.4244 -0.1250
H14 H 1.1588 0.3466 -0.2099
C14 C 0.8699(5) 0.2786(4) -0.0481(3)
H15 H 0.8793 0.3115 0.0097
H16 H 0.8053 0.3435 -0.0778
C15 C 0.5540(5) 0.2530(5) -0.0144(3)
H17 H 0.5712 0.3359 -0.0394
C16 C 1.0222(5) 0.1617(4) -0.2039(4)
H18 H 1.1201 0.1340 -0.2418
H19 H 0.9908 0.0876 -0.1710
C17 C 1.2247(6) 0.6191(6) -0.2283(5)
H20 H 1.2182 0.5591 -0.1718
H21 H 1.2395 0.6941 -0.2105
H22 H 1.3026 0.5840 -0.2823
C18 C 0.4936(6) 0.1827(5) 0.2942(4)
H23 H 0.5348 0.1182 0.2509
C19 C 0.3777(6) 0.3972(5) 0.3230(4)
H24 H 0.3414 0.4783 0.2989
C20 C 0.4275(5) 0.2372(6) -0.0427(4)
H25 H 0.3490 0.3098 -0.0240
H26 H 0.3991 0.1635 -0.0060
C21 C 0.4231(6) 0.2528(6) 0.4590(4)
C22 C 0.5890(5) 0.1155(5) -0.1864(4)
H27 H 0.6069 0.1071 -0.2572
H28 H 0.5704 0.0376 -0.1512
C23 C 1.1885(7) 0.7161(6) -0.4671(4)
H29 H 1.2761 0.6895 -0.4482
H30 H 1.1972 0.7772 -0.5228
H31 H 1.1669 0.6448 -0.4856
C24 C 0.4591(5) 0.2231(6) -0.1532(4)
H32 H 0.4759 0.3007 -0.1900
H33 H 0.3781 0.2066 -0.1678
C25 C 0.9323(7) 0.8111(7) -0.4111(5)
H34 H 0.9094 0.7371 -0.4234
H35 H 0.9422 0.8660 -0.4706
H36 H 0.8579 0.8538 -0.3584
C26 C 0.4845(6) 0.1575(6) 0.3943(4)
H37 H 0.5197 0.0762 0.4186
C27 C 0.3662(6) 0.3728(6) 0.4245(4)
H38 H 0.3210 0.4362 0.4684
C28 C 1.1031(9) 0.8907(6) -0.3540(5)
H39 H 1.0272 0.9287 -0.3000
H40 H 1.1116 0.9497 -0.4111
H41 H 1.1901 0.8670 -0.3344
loop_
_geom_bond_atom_site_label_1
_geom_bond_atom_site_label_2
_geom_bond_site_symmetry_1
_geom_bond_site_symmetry_2
Br1 C21 1_555 1_555
Si1 O2 1_555 1_555
O1 C7 1_555 1_555
O2 C9 1_555 1_555
O3 H1 1_555 1_555
O4 C4 1_555 1_555
O5 C7 1_555 1_555
C1 O3 1_555 1_555
C2 H2 1_555 1_555
H3 C2 1_555 1_555
C3 C2 1_555 1_555
H4 C3 1_555 1_555
C4 C6 1_555 1_555
C5 C7 1_555 1_555
C6 H5 1_555 1_555
C8 C3 1_555 1_555
H6 C8 1_555 1_555
H7 C8 1_555 1_555
C9 C8 1_555 1_555
H8 C9 1_555 1_555
C10 Si1 1_555 1_555
H9 C10 1_555 1_555
H10 C10 1_555 1_555
H11 C10 1_555 1_555
C11 C2 1_555 1_555
H12 C11 1_555 1_555
C12 Si1 1_555 1_555
C13 C1 1_555 1_555
H13 C13 1_555 1_555
H14 C13 1_555 1_555
C14 C1 1_555 1_555
H15 C14 1_555 1_555
H16 C14 1_555 1_555
C15 O1 1_555 1_555
H17 C15 1_555 1_555
C16 C1 1_555 1_555
H18 C16 1_555 1_555
H19 C16 1_555 1_555
C17 Si1 1_555 1_555
H20 C17 1_555 1_555
H21 C17 1_555 1_555
H22 C17 1_555 1_555
C18 C5 1_555 1_555
H23 C18 1_555 1_555
C19 C5 1_555 1_555
H24 C19 1_555 1_555
C20 C15 1_555 1_555
H25 C20 1_555 1_555
H26 C20 1_555 1_555
C21 C26 1_555 1_555
C22 C11 1_555 1_555
H27 C22 1_555 1_555
H28 C22 1_555 1_555
C23 C12 1_555 1_555
H29 C23 1_555 1_555
H30 C23 1_555 1_555
H31 C23 1_555 1_555
C24 C20 1_555 1_555
H32 C24 1_555 1_555
H33 C24 1_555 1_555
C25 C12 1_555 1_555
H34 C25 1_555 1_555
H35 C25 1_555 1_555
H36 C25 1_555 1_555
C26 C18 1_555 1_555
H37 C26 1_555 1_555
C27 C19 1_555 1_555
H38 C27 1_555 1_555
C28 C12 1_555 1_555
H39 C28 1_555 1_555
H40 C28 1_555 1_555
H41 C28 1_555 1_555
C3 C16 1_555 1_555
C4 C14 1_555 1_555
C6 C11 1_555 1_555
C6 C15 1_555 1_555
C9 C13 1_555 1_555
C21 C27 1_555 1_555
C22 C24 1_555 1_555

#END
