
#######################################################################
#
#                 Cambridge Crystallographic Data Centre
#                                CCDC 
#
#######################################################################
#
# If this CIF has been generated from an entry in the Cambridge 
# Structural Database, then it will include bibliographic, chemical, 
# crystal, experimental, refinement or atomic coordinate data resulting 
# from the CCDC's data processing and validation procedures.
#
#######################################################################

data_XEWCEK
_chemical_formula_moiety         'C14 H26 O1 Si1'
_chemical_name_systematic        
9-(trimethylsilyl)bicyclo[5.3.1]undec-2-en-1-ol
_symmetry_cell_setting           monoclinic
_symmetry_space_group_name_H-M   'P 21/n'
_symmetry_Int_Tables_number      14
_space_group_name_Hall           '-P 2yn'
loop_
_symmetry_equiv_pos_site_id
_symmetry_equiv_pos_as_xyz
1 x,y,z
2 1/2-x,1/2+y,1/2-z
3 -x,-y,-z
4 1/2+x,1/2-y,1/2+z
_cell_length_a                   13.574(3)
_cell_length_b                   17.020(3)
_cell_length_c                   19.696(4)
_cell_angle_alpha                90
_cell_angle_beta                 84.06(3)
_cell_angle_gamma                90
_cell_volume                     4525.92
_exptl_crystal_colour            colorless
_exptl_crystal_description       block
_cell_formula_units_Z            12
loop_
_atom_site_label
_atom_site_type_symbol
_atom_site_fract_x
_atom_site_fract_y
_atom_site_fract_z
C1 C -0.0764(5) 0.7735(4) 0.4706(4)
H1 H -0.1151 0.7856 0.5110
Si1 Si 0.1536(2) 0.89238(13) 0.60536(12)
O1 O -0.0104(4) 0.6492(2) 0.4993(2)
H2 H -0.0416 0.6299 0.4699
C2 C 0.1085(5) 0.8469(4) 0.5274(3)
H3 H 0.0546 0.8803 0.5145
C3 C 0.0637(6) 0.7632(4) 0.5415(3)
H4 H 0.1152 0.7281 0.5539
H5 H 0.0127 0.7659 0.5798
C4 C 0.0191(5) 0.7301(3) 0.4795(3)
C5 C -0.1129(6) 0.7968(4) 0.4144(5)
H6 H -0.1715 0.8254 0.4209
C6 C 0.1848(6) 0.8422(4) 0.4655(4)
H7 H 0.2397 0.8100 0.4767
H8 H 0.2102 0.8945 0.4548
C7 C 0.0122(7) 0.8413(5) 0.3175(5)
H9 H 0.0549 0.8170 0.2808
H10 H -0.0171 0.8873 0.2986
C8 C -0.0718(6) 0.7831(5) 0.3401(4)
H11 H -0.1247 0.7892 0.3109
H12 H -0.0469 0.7298 0.3349
C9 C 0.2039(8) 0.9932(4) 0.5819(4)
H13 H 0.2724 0.9890 0.5643
H14 H 0.1982 1.0261 0.6217
H15 H 0.1669 1.0158 0.5478
C10 C 0.1428(6) 0.8072(4) 0.4008(4)
H16 H 0.1991 0.7977 0.3666
C11 C 0.0768(6) 0.8689(4) 0.3715(4)
H17 H 0.0339 0.8913 0.4090
H18 H 0.1191 0.9109 0.3520
C12 C 0.0450(10) 0.9037(7) 0.6726(6)
H19 H -0.0019 0.9398 0.6568
H20 H 0.0678 0.9235 0.7139
H21 H 0.0139 0.8535 0.6814
C13 C 0.2512(10) 0.8344(7) 0.6387(6)
H22 H 0.2263 0.7829 0.6508
H23 H 0.2718 0.8597 0.6785
H24 H 0.3066 0.8301 0.6045
C14 C 0.0960(5) 0.7279(4) 0.4199(4)
H25 H 0.0663 0.7073 0.3809
H26 H 0.1478 0.6917 0.4300
Si2 Si 0.12359(16) 0.56510(11) 0.15281(10)
O2 O -0.0160(3) 0.4314(2) 0.3807(2)
H27 H -0.0113 0.4009 0.4124
C15 C 0.0797(5) 0.4378(3) 0.3398(3)
C16 C 0.0582(4) 0.4863(4) 0.2768(3)
H28 H 0.0232 0.5338 0.2920
H29 H 0.0152 0.4561 0.2502
C17 C 0.2243(5) 0.5540(4) 0.2747(4)
H30 H 0.2852 0.5670 0.2469
H31 H 0.1931 0.6027 0.2907
C18 C 0.2484(5) 0.5065(4) 0.3350(3)
H32 H 0.2841 0.5417 0.3633
C19 C 0.1509(5) 0.4830(4) 0.3788(3)
H33 H 0.1673 0.4513 0.4170
H34 H 0.1183 0.5303 0.3972
C20 C 0.1094(5) 0.3555(4) 0.3161(3)
H35 H 0.0733 0.3352 0.2825
C21 C 0.3181(5) 0.4377(4) 0.3150(4)
H36 H 0.2932 0.4113 0.2766
H37 H 0.3821 0.4597 0.2986
C22 C 0.1799(5) 0.3069(4) 0.3360(4)
H38 H 0.1878 0.2587 0.3140
C23 C 0.1538(5) 0.5093(4) 0.2300(3)
H39 H 0.1871 0.4605 0.2141
C24 C 0.2465(5) 0.3238(4) 0.3906(4)
H40 H 0.2706 0.2744 0.4070
H41 H 0.2080 0.3493 0.4286
C25 C 0.3354(5) 0.3758(4) 0.3672(4)
H42 H 0.3570 0.4017 0.4070
H43 H 0.3892 0.3422 0.3483
C26 C 0.0573(6) 0.6587(4) 0.1793(4)
H44 H -0.0002 0.6469 0.2102
H45 H 0.0374 0.6847 0.1397
H46 H 0.1008 0.6923 0.2015
C27 C 0.2442(5) 0.5893(4) 0.1008(4)
H47 H 0.2853 0.6191 0.1282
H48 H 0.2313 0.6195 0.0616
H49 H 0.2775 0.5415 0.0863
C28 C 0.0447(8) 0.5026(5) 0.1011(5)
H50 H 0.0772 0.4533 0.0909
H51 H 0.0351 0.5292 0.0593
H52 H -0.0183 0.4935 0.1267
C29 C 0.7198(5) 0.0575(4) 0.1103(4)
C30 C 0.7730(5) 0.1353(4) 0.0989(4)
H53 H 0.7420 0.1741 0.1303
H54 H 0.7673 0.1533 0.0528
C31 C 0.8851(5) 0.1275(4) 0.1101(4)
H55 H 0.8875 0.1092 0.1571
C32 C 0.7689(6) -0.0015(5) 0.0598(5)
H56 H 0.7653 0.0173 0.0136
H57 H 0.7341 -0.0513 0.0647
C33 C 0.7106(6) 0.0356(5) 0.1852(4)
H58 H 0.6977 0.0781 0.2144
C34 C 0.9327(7) 0.0662(7) 0.0649(5)
H59 H 1.0006 0.0595 0.0749
H60 H 0.9342 0.0835 0.0179
C35 C 0.9045(7) -0.0530(5) 0.1414(6)
H61 H 0.9753 -0.0616 0.1398
H62 H 0.8847 -0.0183 0.1794
C36 C 0.8507(8) -0.1301(7) 0.1513(7)
H63 H 0.8847 -0.1639 0.1810
H64 H 0.8493 -0.1564 0.1078
C37 C 0.8793(7) -0.0135(7) 0.0724(6)
H65 H 0.9091 -0.0469 0.0353
C38 C 0.7454(14) -0.1145(8) 0.1831(8)
H66 H 0.7291 -0.1549 0.2171
H67 H 0.7018 -0.1221 0.1476
C39 C 0.7175(8) -0.0335(8) 0.2178(5)
H68 H 0.7045 -0.0331 0.2651
Si3 Si 0.95465(18) 0.22383(15) 0.10219(13)
C40 C 0.8926(8) 0.2956(5) 0.1646(6)
H69 H 0.8623 0.3365 0.1404
H70 H 0.9408 0.3181 0.1912
H71 H 0.8427 0.2691 0.1943
C41 C 0.9583(10) 0.2599(7) 0.0117(5)
H72 H 0.9894 0.2210 -0.0187
H73 H 0.9954 0.3079 0.0069
H74 H 0.8920 0.2691 0.0007
C42 C 1.0817(6) 0.2118(7) 0.1240(6)
H75 H 1.0809 0.1840 0.1664
H76 H 1.1113 0.2625 0.1283
H77 H 1.1195 0.1826 0.0886
O3 O 0.6195(3) 0.0716(3) 0.0927(2)
H78 H 0.5912 0.0295 0.0892
loop_
_geom_bond_atom_site_label_1
_geom_bond_atom_site_label_2
_geom_bond_site_symmetry_1
_geom_bond_site_symmetry_2
C1 H1 1_555 1_555
Si1 C2 1_555 1_555
O1 H2 1_555 1_555
C2 H3 1_555 1_555
C3 C2 1_555 1_555
H4 C3 1_555 1_555
H5 C3 1_555 1_555
C4 C1 1_555 1_555
C5 C1 1_555 1_555
H6 C5 1_555 1_555
C6 C2 1_555 1_555
H7 C6 1_555 1_555
H8 C6 1_555 1_555
C7 H9 1_555 1_555
H10 C7 1_555 1_555
C8 C5 1_555 1_555
H11 C8 1_555 1_555
H12 C8 1_555 1_555
C9 Si1 1_555 1_555
H13 C9 1_555 1_555
H14 C9 1_555 1_555
H15 C9 1_555 1_555
C10 C6 1_555 1_555
H16 C10 1_555 1_555
C11 C7 1_555 1_555
H17 C11 1_555 1_555
H18 C11 1_555 1_555
C12 Si1 1_555 1_555
H19 C12 1_555 1_555
H20 C12 1_555 1_555
H21 C12 1_555 1_555
C13 Si1 1_555 1_555
H22 C13 1_555 1_555
H23 C13 1_555 1_555
H24 C13 1_555 1_555
C14 C4 1_555 1_555
H25 C14 1_555 1_555
H26 C14 1_555 1_555
Si2 C23 1_555 1_555
O2 H27 1_555 1_555
C15 O2 1_555 1_555
C16 C15 1_555 1_555
H28 C16 1_555 1_555
H29 C16 1_555 1_555
C17 H30 1_555 1_555
H31 C17 1_555 1_555
C18 C17 1_555 1_555
H32 C18 1_555 1_555
C19 C15 1_555 1_555
H33 C19 1_555 1_555
H34 C19 1_555 1_555
C20 C15 1_555 1_555
H35 C20 1_555 1_555
C21 C18 1_555 1_555
H36 C21 1_555 1_555
H37 C21 1_555 1_555
C22 C20 1_555 1_555
H38 C22 1_555 1_555
C23 C16 1_555 1_555
H39 C23 1_555 1_555
C24 C22 1_555 1_555
H40 C24 1_555 1_555
H41 C24 1_555 1_555
C25 C21 1_555 1_555
H42 C25 1_555 1_555
H43 C25 1_555 1_555
C26 Si2 1_555 1_555
H44 C26 1_555 1_555
H45 C26 1_555 1_555
H46 C26 1_555 1_555
C27 Si2 1_555 1_555
H47 C27 1_555 1_555
H48 C27 1_555 1_555
H49 C27 1_555 1_555
C28 Si2 1_555 1_555
H50 C28 1_555 1_555
H51 C28 1_555 1_555
H52 C28 1_555 1_555
C29 C30 1_555 1_555
C30 H53 1_555 1_555
H54 C30 1_555 1_555
C31 C30 1_555 1_555
H55 C31 1_555 1_555
C32 C29 1_555 1_555
H56 C32 1_555 1_555
H57 C32 1_555 1_555
C33 C29 1_555 1_555
H58 C33 1_555 1_555
C34 C31 1_555 1_555
H59 C34 1_555 1_555
H60 C34 1_555 1_555
C35 H61 1_555 1_555
H62 C35 1_555 1_555
C36 C35 1_555 1_555
H63 C36 1_555 1_555
H64 C36 1_555 1_555
C37 C32 1_555 1_555
H65 C37 1_555 1_555
C38 C36 1_555 1_555
H66 C38 1_555 1_555
H67 C38 1_555 1_555
C39 C33 1_555 1_555
H68 C39 1_555 1_555
Si3 C31 1_555 1_555
C40 Si3 1_555 1_555
H69 C40 1_555 1_555
H70 C40 1_555 1_555
H71 C40 1_555 1_555
C41 Si3 1_555 1_555
H72 C41 1_555 1_555
H73 C41 1_555 1_555
H74 C41 1_555 1_555
C42 Si3 1_555 1_555
H75 C42 1_555 1_555
H76 C42 1_555 1_555
H77 C42 1_555 1_555
O3 C29 1_555 1_555
H78 O3 1_555 1_555
O1 C4 1_555 1_555
C3 C4 1_555 1_555
C7 C8 1_555 1_555
C10 C11 1_555 1_555
C10 C14 1_555 1_555
C17 C23 1_555 1_555
C18 C19 1_555 1_555
C24 C25 1_555 1_555
C34 C37 1_555 1_555
C35 C37 1_555 1_555
C38 C39 1_555 1_555

#END
