
#######################################################################
#
#                 Cambridge Crystallographic Data Centre
#                                CCDC 
#
#######################################################################
#
# If this CIF has been generated from an entry in the Cambridge 
# Structural Database, then it will include bibliographic, chemical, 
# crystal, experimental, refinement or atomic coordinate data resulting 
# from the CCDC's data processing and validation procedures.
#
#######################################################################

data_XEWJUH
_chemical_formula_moiety         'C13 H11 F1 O1'
_chemical_name_systematic        4-(fluoromethoxy)biphenyl
_symmetry_cell_setting           monoclinic
_symmetry_space_group_name_H-M   'P 21/c'
_symmetry_Int_Tables_number      14
_space_group_name_Hall           '-P 2ybc'
loop_
_symmetry_equiv_pos_site_id
_symmetry_equiv_pos_as_xyz
1 x,y,z
2 -x,1/2+y,1/2-z
3 -x,-y,-z
4 x,1/2-y,1/2+z
_cell_length_a                   22.1930(19)
_cell_length_b                   5.2966(4)
_cell_length_c                   8.4120(10)
_cell_angle_alpha                90
_cell_angle_beta                 90
_cell_angle_gamma                90
_cell_volume                     988.809
_exptl_crystal_colour            colorless
_cell_formula_units_Z            4
loop_
_atom_site_label
_atom_site_type_symbol
_atom_site_fract_x
_atom_site_fract_y
_atom_site_fract_z
F1 F 0.44729(5) 0.6738(2) 0.82352(12)
O1 O 0.42849(5) 0.4669(2) 0.59321(14)
C1 C 0.45726(8) 0.6729(3) 0.6593(2)
H1 H 0.4414 0.8306 0.6117
H2 H 0.5010 0.6638 0.6373
C2 C 0.36793(8) 0.4884(3) 0.5555(2)
C3 C 0.34566(9) 0.3093(3) 0.4513(3)
H3 H 0.3716 0.1826 0.4102
C4 C 0.28601(9) 0.3142(3) 0.4068(3)
H4 H 0.2715 0.1892 0.3354
C5 C 0.24605(8) 0.4971(3) 0.4634(2)
C6 C 0.26995(9) 0.6733(3) 0.5691(2)
H5 H 0.2442 0.8006 0.6105
C7 C 0.32961(8) 0.6703(3) 0.6159(2)
H6 H 0.3442 0.7924 0.6891
C8 C 0.18166(8) 0.4999(3) 0.4140(2)
C9 C 0.15847(10) 0.3230(4) 0.3078(3)
H7 H 0.1846 0.1980 0.2654
C10 C 0.09873(9) 0.3236(4) 0.2624(3)
H8 H 0.0846 0.1998 0.1896
C11 C 0.05947(9) 0.5011(4) 0.3210(2)
H9 H 0.0182 0.5003 0.2907
C12 C 0.08129(10) 0.6798(4) 0.4246(3)
H10 H 0.0549 0.8052 0.4655
C13 C 0.14086(10) 0.6791(4) 0.4697(3)
H11 H 0.1547 0.8052 0.5413
loop_
_geom_bond_atom_site_label_1
_geom_bond_atom_site_label_2
_geom_bond_site_symmetry_1
_geom_bond_site_symmetry_2
F1 C1 1_555 1_555
O1 C1 1_555 1_555
C1 H1 1_555 1_555
H2 C1 1_555 1_555
C2 O1 1_555 1_555
C3 C2 1_555 1_555
H3 C3 1_555 1_555
C4 C3 1_555 1_555
H4 C4 1_555 1_555
C5 C4 1_555 1_555
C6 C5 1_555 1_555
H5 C6 1_555 1_555
C7 C2 1_555 1_555
H6 C7 1_555 1_555
C8 C5 1_555 1_555
C9 C8 1_555 1_555
H7 C9 1_555 1_555
C10 C9 1_555 1_555
H8 C10 1_555 1_555
C11 C10 1_555 1_555
H9 C11 1_555 1_555
C12 C11 1_555 1_555
H10 C12 1_555 1_555
C13 C8 1_555 1_555
H11 C13 1_555 1_555
C6 C7 1_555 1_555
C12 C13 1_555 1_555

#END
