
#######################################################################
#
#                 Cambridge Crystallographic Data Centre
#                                CCDC 
#
#######################################################################
#
# If this CIF has been generated from an entry in the Cambridge 
# Structural Database, then it will include bibliographic, chemical, 
# crystal, experimental, refinement or atomic coordinate data resulting 
# from the CCDC's data processing and validation procedures.
#
#######################################################################

data_XEWKAO
_chemical_formula_moiety         'C7 H5 Cl2 F1 O1'
_chemical_name_systematic        2,4-dichloro-1-(fluoromethoxy)benzene
_symmetry_cell_setting           monoclinic
_symmetry_space_group_name_H-M   'P 21/c'
_symmetry_Int_Tables_number      14
_space_group_name_Hall           '-P 2ybc'
loop_
_symmetry_equiv_pos_site_id
_symmetry_equiv_pos_as_xyz
1 x,y,z
2 -x,1/2+y,1/2-z
3 -x,-y,-z
4 x,1/2-y,1/2+z
_cell_length_a                   14.335(3)
_cell_length_b                   3.9830(5)
_cell_length_c                   13.998(3)
_cell_angle_alpha                90
_cell_angle_beta                 110.24(3)
_cell_angle_gamma                90
_cell_volume                     749.883
_exptl_crystal_colour            colorless
_cell_formula_units_Z            4
loop_
_atom_site_label
_atom_site_type_symbol
_atom_site_fract_x
_atom_site_fract_y
_atom_site_fract_z
Cl1 Cl 0.49199(6) 0.1009(2) 0.63308(7)
Cl2 Cl 0.79047(7) 0.6618(2) 0.53896(6)
F1 F 0.94713(17) 0.7468(5) 0.92010(16)
O1 O 0.90311(18) 0.5990(6) 0.75349(19)
C1 C 0.9707(3) 0.5438(10) 0.8510(3)
H1 H 0.9687 0.3050 0.8697
H2 H 1.0388 0.5955 0.8527
C2 C 0.8085(2) 0.4719(9) 0.7305(3)
C3 C 0.7720(3) 0.3280(9) 0.8013(3)
H3 H 0.8137 0.3105 0.8707
C4 C 0.6748(3) 0.2098(9) 0.7711(3)
H4 H 0.6501 0.1093 0.8191
C5 C 0.6151(3) 0.2404(9) 0.6709(3)
C6 C 0.6484(3) 0.3821(8) 0.5983(3)
H5 H 0.6061 0.4023 0.5292
C7 C 0.7465(2) 0.4940(9) 0.6304(3)
loop_
_geom_bond_atom_site_label_1
_geom_bond_atom_site_label_2
_geom_bond_site_symmetry_1
_geom_bond_site_symmetry_2
Cl1 C5 1_555 1_555
Cl2 C7 1_555 1_555
F1 C1 1_555 1_555
O1 C1 1_555 1_555
C1 H1 1_555 1_555
H2 C1 1_555 1_555
C2 O1 1_555 1_555
C3 C2 1_555 1_555
H3 C3 1_555 1_555
C4 C3 1_555 1_555
H4 C4 1_555 1_555
C5 C4 1_555 1_555
C6 C5 1_555 1_555
H5 C6 1_555 1_555
C7 C2 1_555 1_555
C6 C7 1_555 1_555

#END
