
#######################################################################
#
#                 Cambridge Crystallographic Data Centre
#                                CCDC 
#
#######################################################################
#
# If this CIF has been generated from an entry in the Cambridge 
# Structural Database, then it will include bibliographic, chemical, 
# crystal, experimental, refinement or atomic coordinate data resulting 
# from the CCDC's data processing and validation procedures.
#
#######################################################################

data_XEWKES
_chemical_formula_moiety         'C7 H5 Br1 Cl1 F1 O1'
_chemical_name_systematic        4-bromo-2-chloro-1-(fluoromethoxy)benzene
_symmetry_cell_setting           monoclinic
_symmetry_space_group_name_H-M   'P 21/c'
_symmetry_Int_Tables_number      14
_space_group_name_Hall           '-P 2ybc'
loop_
_symmetry_equiv_pos_site_id
_symmetry_equiv_pos_as_xyz
1 x,y,z
2 -x,1/2+y,1/2-z
3 -x,-y,-z
4 x,1/2-y,1/2+z
_cell_length_a                   14.510(3)
_cell_length_b                   4.0354(6)
_cell_length_c                   14.160(3)
_cell_angle_alpha                90
_cell_angle_beta                 110.36(2)
_cell_angle_gamma                90
_cell_volume                     777.321
_exptl_crystal_colour            colorless
_cell_formula_units_Z            4
loop_
_atom_site_label
_atom_site_type_symbol
_atom_site_fract_x
_atom_site_fract_y
_atom_site_fract_z
Br1 Br 0.51173(5) 0.0941(2) 0.36870(5)
Cl1 Cl 0.20635(16) 0.6640(6) 0.45746(15)
F1 F 0.0507(3) 0.7465(12) 0.0808(3)
O1 O 0.0944(4) 0.6008(13) 0.2449(4)
C1 C 0.0276(6) 0.544(2) 0.1482(6)
H1 H 0.0306 0.3087 0.1296
H2 H -0.0400 0.5918 0.1462
C2 C 0.1875(6) 0.470(2) 0.2672(6)
C3 C 0.2237(6) 0.325(2) 0.1979(6)
H3 H 0.1821 0.3055 0.1295
C4 C 0.3197(6) 0.210(2) 0.2274(6)
H4 H 0.3442 0.1110 0.1800
C5 C 0.3788(6) 0.243(2) 0.3273(6)
C6 C 0.3456(6) 0.3870(18) 0.3978(6)
H5 H 0.3881 0.4106 0.4658
C7 C 0.2493(5) 0.497(2) 0.3680(5)
loop_
_geom_bond_atom_site_label_1
_geom_bond_atom_site_label_2
_geom_bond_site_symmetry_1
_geom_bond_site_symmetry_2
Br1 C5 1_555 1_555
Cl1 C7 1_555 1_555
F1 C1 1_555 1_555
O1 C1 1_555 1_555
C1 H1 1_555 1_555
H2 C1 1_555 1_555
C2 O1 1_555 1_555
C3 C2 1_555 1_555
H3 C3 1_555 1_555
C4 C3 1_555 1_555
H4 C4 1_555 1_555
C5 C4 1_555 1_555
C6 C5 1_555 1_555
H5 C6 1_555 1_555
C7 C2 1_555 1_555
C6 C7 1_555 1_555

#END
