
#######################################################################
#
#                 Cambridge Crystallographic Data Centre
#                                CCDC 
#
#######################################################################
#
# If this CIF has been generated from an entry in the Cambridge 
# Structural Database, then it will include bibliographic, chemical, 
# crystal, experimental, refinement or atomic coordinate data resulting 
# from the CCDC's data processing and validation procedures.
#
#######################################################################

data_XEWKER
_chemical_compound_source        'leaves of Isodon japonica'
_chemical_formula_moiety         'C20 H34 O3'
_chemical_name_systematic        3\a,14\b,16\a-Trihydroxy-ent-kaurane
_symmetry_cell_setting           triclinic
_symmetry_space_group_name_H-M   'P 1'
_symmetry_Int_Tables_number      1
_space_group_name_Hall           'P 1'
loop_
_symmetry_equiv_pos_site_id
_symmetry_equiv_pos_as_xyz
1 x,y,z
_cell_length_a                   6.359(2)
_cell_length_b                   7.282(3)
_cell_length_c                   10.598(4)
_cell_angle_alpha                79.543(18)
_cell_angle_beta                 80.771(17)
_cell_angle_gamma                64.371(12)
_cell_volume                     433.262
_exptl_crystal_colour            colorless
_cell_formula_units_Z            1
_exptl_crystal_recrystallization_method methanol
loop_
_atom_site_label
_atom_site_type_symbol
_atom_site_fract_x
_atom_site_fract_y
_atom_site_fract_z
O1 O 0.3280(3) 0.3823(3) 0.79608(18)
O2 O 0.5866(3) 0.3485(3) -0.01270(18)
O3 O 0.8600(3) 0.5314(3) -0.15490(18)
C1 C 0.3970(5) 0.7121(4) 0.4855(3)
H1 H 0.5573 0.6950 0.4944
H2 H 0.3042 0.8586 0.4555
C2 C 0.2874(5) 0.6561(4) 0.6181(3)
H3 H 0.2932 0.7400 0.6802
H4 H 0.1209 0.6887 0.6121
C3 C 0.4137(4) 0.4316(4) 0.6667(2)
H5 H 0.5807 0.4058 0.6698
C4 C 0.4163(4) 0.2903(4) 0.5736(3)
C5 C 0.5253(4) 0.3526(4) 0.4407(2)
H6 H 0.6847 0.3319 0.4579
C6 C 0.5736(5) 0.2119(4) 0.3386(2)
H7 H 0.4263 0.2445 0.3015
H8 H 0.6341 0.0670 0.3787
C7 C 0.7538(4) 0.2413(4) 0.2318(2)
H9 H 0.9028 0.2012 0.2693
H10 H 0.7844 0.1487 0.1668
C8 C 0.6761(4) 0.4587(4) 0.1657(3)
C9 C 0.5810(4) 0.6149(4) 0.2654(2)
H11 H 0.7235 0.5908 0.3062
C10 C 0.4101(4) 0.5817(4) 0.3824(3)
C11 C 0.5003(5) 0.8385(4) 0.1988(3)
H12 H 0.3822 0.9300 0.2588
H13 H 0.6364 0.8744 0.1839
C12 C 0.3950(5) 0.8834(4) 0.0700(3)
H14 H 0.2272 0.9103 0.0875
H15 H 0.4049 1.0092 0.0210
C13 C 0.5179(4) 0.7075(4) -0.0132(3)
H16 H 0.4423 0.7427 -0.0953
C14 C 0.5023(4) 0.5146(4) 0.0641(3)
H17 H 0.3401 0.5435 0.1052
C15 C 0.8842(5) 0.4902(5) 0.0793(3)
H18 H 0.969(5) 0.552(4) 0.132(3)
H19 H 0.999(5) 0.366(4) 0.054(3)
C16 C 0.7837(5) 0.6404(4) -0.0416(3)
C17 C 0.8703(5) 0.8098(4) -0.0751(3)
H20 H 0.8234 0.8915 -0.0033
H21 H 0.8019 0.8985 -0.1526
H22 H 1.0415 0.7485 -0.0910
C18 C 0.5795(5) 0.0686(4) 0.6251(3)
H23 H 0.5712 -0.0281 0.5748
H24 H 0.5297 0.0380 0.7158
H25 H 0.7409 0.0555 0.6173
C19 C 0.1713(5) 0.2955(5) 0.5741(3)
H26 H 0.1319 0.2253 0.6561
H27 H 0.1710 0.2260 0.5031
H28 H 0.0552 0.4384 0.5632
C20 C 0.1607(4) 0.6509(4) 0.3439(3)
H29 H 0.1559 0.5449 0.3006
H30 H 0.1180 0.7796 0.2853
H31 H 0.0497 0.6720 0.4213
H32 H 0.157(5) 0.423(4) 0.798(3)
H33 H 0.465(6) 0.376(5) -0.065(3)
H34 H 0.805(6) 0.443(5) -0.138(3)
loop_
_geom_bond_atom_site_label_1
_geom_bond_atom_site_label_2
_geom_bond_site_symmetry_1
_geom_bond_site_symmetry_2
O1 C3 1_555 1_555
O2 C14 1_555 1_555
O3 C16 1_555 1_555
C1 H1 1_555 1_555
H2 C1 1_555 1_555
C2 C1 1_555 1_555
H3 C2 1_555 1_555
H4 C2 1_555 1_555
C3 C2 1_555 1_555
H5 C3 1_555 1_555
C4 C3 1_555 1_555
C5 C4 1_555 1_555
H6 C5 1_555 1_555
C6 C5 1_555 1_555
H7 C6 1_555 1_555
H8 C6 1_555 1_555
C7 C6 1_555 1_555
H9 C7 1_555 1_555
H10 C7 1_555 1_555
C8 C7 1_555 1_555
C9 C8 1_555 1_555
H11 C9 1_555 1_555
C10 C1 1_555 1_555
C11 C9 1_555 1_555
H12 C11 1_555 1_555
H13 C11 1_555 1_555
C12 C11 1_555 1_555
H14 C12 1_555 1_555
H15 C12 1_555 1_555
C13 C12 1_555 1_555
H16 C13 1_555 1_555
C14 C8 1_555 1_555
H17 C14 1_555 1_555
C15 C8 1_555 1_555
H18 C15 1_555 1_555
H19 C15 1_555 1_555
C16 C13 1_555 1_555
C17 C16 1_555 1_555
H20 C17 1_555 1_555
H21 C17 1_555 1_555
H22 C17 1_555 1_555
C18 C4 1_555 1_555
H23 C18 1_555 1_555
H24 C18 1_555 1_555
H25 C18 1_555 1_555
C19 C4 1_555 1_555
H26 C19 1_555 1_555
H27 C19 1_555 1_555
H28 C19 1_555 1_555
C20 C10 1_555 1_555
H29 C20 1_555 1_555
H30 C20 1_555 1_555
H31 C20 1_555 1_555
H32 O1 1_555 1_555
H33 O2 1_555 1_555
H34 O3 1_555 1_555
C5 C10 1_555 1_555
C9 C10 1_555 1_555
C13 C14 1_555 1_555
C15 C16 1_555 1_555

#END
