
#######################################################################
#
#                 Cambridge Crystallographic Data Centre
#                                CCDC 
#
#######################################################################
#
# If this CIF has been generated from an entry in the Cambridge 
# Structural Database, then it will include bibliographic, chemical, 
# crystal, experimental, refinement or atomic coordinate data resulting 
# from the CCDC's data processing and validation procedures.
#
#######################################################################

data_XEWLAO
_chemical_formula_moiety         'C22 H24 O4'
_chemical_name_systematic        
'Ethyl 3-(4,5-dimethoxy-2-(3-phenylprop-2-en-1-yl)phenyl)acrylate'
_symmetry_cell_setting           triclinic
_symmetry_space_group_name_H-M   'P -1'
_symmetry_Int_Tables_number      2
_space_group_name_Hall           '-P 1'
loop_
_symmetry_equiv_pos_site_id
_symmetry_equiv_pos_as_xyz
1 x,y,z
2 -x,-y,-z
_cell_length_a                   8.8858(6)
_cell_length_b                   10.6870(7)
_cell_length_c                   11.4669(7)
_cell_angle_alpha                113.590(4)
_cell_angle_beta                 106.365(3)
_cell_angle_gamma                97.642(3)
_cell_volume                     919.346
_exptl_crystal_colour            colorless
_cell_formula_units_Z            2
loop_
_atom_site_label
_atom_site_type_symbol
_atom_site_fract_x
_atom_site_fract_y
_atom_site_fract_z
O1 O 0.89431(12) 0.35503(10) 0.14397(10)
O2 O 0.88112(13) 0.58118(11) 0.21036(10)
O3 O 0.61120(13) 0.51516(11) 0.84411(10)
O4 O 0.67935(12) 0.30260(10) 0.67989(9)
C1 C 0.95641(19) 0.21364(18) -0.04771(15)
H1 H 1.0411 0.1945 0.0137
H2 H 0.9889 0.2126 -0.1229
H3 H 0.8530 0.1403 -0.0850
C2 C 0.93534(18) 0.35717(16) 0.03072(14)
H4 H 1.0377 0.4327 0.0655
H5 H 0.8469 0.3761 -0.0292
C3 C 0.87258(17) 0.47693(15) 0.22799(14)
C4 C 0.83633(17) 0.46098(15) 0.33959(14)
H6 H 0.8515 0.3807 0.3531
C5 C 0.78290(17) 0.55614(15) 0.42193(14)
H7 H 0.7721 0.6361 0.4066
C6 C 0.73914(16) 0.55037(14) 0.53352(13)
C7 C 0.69995(16) 0.66476(15) 0.62177(14)
C8 C 0.70196(17) 0.79845(15) 0.60555(14)
H8 H 0.6324 0.7713 0.5102
H9 H 0.6521 0.8578 0.6664
C9 C 0.86805(17) 0.88715(15) 0.63695(14)
H10 H 0.8714 0.9552 0.6034
C10 C 1.01069(17) 0.87942(15) 0.70717(13)
H11 H 1.0073 0.8115 0.7409
C11 C 1.17331(17) 0.96581(14) 0.73765(13)
C12 C 1.19714(18) 1.07347(15) 0.69919(14)
H12 H 1.1052 1.0936 0.6516
C13 C 1.35262(18) 1.15081(15) 0.72956(14)
H13 H 1.3664 1.2233 0.7024
C14 C 1.48945(18) 1.12338(15) 0.79973(14)
H14 H 1.5961 1.1764 0.8198
C15 C 1.46856(18) 1.01871(16) 0.83977(14)
H15 H 1.5612 0.9998 0.8881
C16 C 1.31230(17) 0.94064(15) 0.80960(13)
H16 H 1.2994 0.8691 0.8381
C17 C 0.65772(16) 0.65485(15) 0.72699(14)
H17 H 0.6321 0.7328 0.7873
C18 C 0.65239(17) 0.53430(15) 0.74540(14)
C19 C 0.5794(2) 0.63296(16) 0.94078(16)
H18 H 0.6744 0.7164 0.9855
H19 H 0.5583 0.6091 1.0099
H20 H 0.4837 0.6541 0.8932
C20 C 0.69100(17) 0.41846(14) 0.65602(13)
C21 C 0.71897(19) 0.18446(15) 0.59184(15)
H21 H 0.6496 0.1532 0.4965
H22 H 0.7006 0.1062 0.6149
H23 H 0.8339 0.2128 0.6036
C22 C 0.73355(16) 0.42791(15) 0.55327(13)
H24 H 0.7600 0.3500 0.4937
loop_
_geom_bond_atom_site_label_1
_geom_bond_atom_site_label_2
_geom_bond_site_symmetry_1
_geom_bond_site_symmetry_2
O1 C2 1_555 1_555
O2 C3 1_555 1_555
O3 C18 1_555 1_555
O4 C20 1_555 1_555
C1 H1 1_555 1_555
H2 C1 1_555 1_555
H3 C1 1_555 1_555
C2 C1 1_555 1_555
H4 C2 1_555 1_555
H5 C2 1_555 1_555
C3 O1 1_555 1_555
C4 C3 1_555 1_555
H6 C4 1_555 1_555
C5 C4 1_555 1_555
H7 C5 1_555 1_555
C6 C5 1_555 1_555
C7 C6 1_555 1_555
C8 C7 1_555 1_555
H8 C8 1_555 1_555
H9 C8 1_555 1_555
C9 C8 1_555 1_555
H10 C9 1_555 1_555
C10 C9 1_555 1_555
H11 C10 1_555 1_555
C11 C10 1_555 1_555
C12 C11 1_555 1_555
H12 C12 1_555 1_555
C13 C12 1_555 1_555
H13 C13 1_555 1_555
C14 C13 1_555 1_555
H14 C14 1_555 1_555
C15 C14 1_555 1_555
H15 C15 1_555 1_555
C16 C11 1_555 1_555
H16 C16 1_555 1_555
C17 C7 1_555 1_555
H17 C17 1_555 1_555
C18 C17 1_555 1_555
C19 O3 1_555 1_555
H18 C19 1_555 1_555
H19 C19 1_555 1_555
H20 C19 1_555 1_555
C20 C18 1_555 1_555
C21 O4 1_555 1_555
H21 C21 1_555 1_555
H22 C21 1_555 1_555
H23 C21 1_555 1_555
C22 C6 1_555 1_555
H24 C22 1_555 1_555
C15 C16 1_555 1_555
C20 C22 1_555 1_555

#END
