
#######################################################################
#
#                 Cambridge Crystallographic Data Centre
#                                CCDC 
#
#######################################################################
#
# If this CIF has been generated from an entry in the Cambridge 
# Structural Database, then it will include bibliographic, chemical, 
# crystal, experimental, refinement or atomic coordinate data resulting 
# from the CCDC's data processing and validation procedures.
#
#######################################################################

data_XEWLOA
_chemical_formula_moiety         'C20 H12 N4 O2'
_chemical_name_systematic        
2-(2-Nitrophenyl)-2H-phenanthro(9,10-d)triazole
_symmetry_cell_setting           triclinic
_symmetry_space_group_name_H-M   'P -1'
_symmetry_Int_Tables_number      2
_space_group_name_Hall           '-P 1'
loop_
_symmetry_equiv_pos_site_id
_symmetry_equiv_pos_as_xyz
1 x,y,z
2 -x,-y,-z
_cell_length_a                   10.0172(8)
_cell_length_b                   10.141(1)
_cell_length_c                   8.0396(7)
_cell_angle_alpha                100.679(7)
_cell_angle_beta                 92.450(7)
_cell_angle_gamma                94.385(7)
_cell_volume                     798.853
_exptl_crystal_colour            yellow
_exptl_crystal_description       prisms
_chemical_melting_point          180-181deg.C
_cell_formula_units_Z            2
_exptl_crystal_recrystallization_method ethanol
loop_
_atom_site_label
_atom_site_type_symbol
_atom_site_fract_x
_atom_site_fract_y
_atom_site_fract_z
O1 O -0.3231(3) 0.1066(3) 0.5129(3)
O2 O -0.4996(3) 0.1592(3) 0.6477(4)
N1 N -0.2089(2) 0.3406(2) 0.7701(3)
N2 N -0.1426(2) 0.2458(2) 0.8261(3)
N3 N -0.0086(2) 0.2702(2) 0.8504(3)
N4 N -0.3889(3) 0.1186(3) 0.6377(4)
C1 C -0.1097(2) 0.4334(2) 0.7560(3)
C2 C 0.0130(3) 0.3899(3) 0.8056(3)
C3 C 0.1391(3) 0.4659(3) 0.7969(3)
C4 C 0.2622(3) 0.4202(3) 0.8391(4)
C5 C 0.3806(3) 0.4915(3) 0.8180(4)
C6 C 0.3772(3) 0.6103(3) 0.7578(4)
C7 C 0.2574(3) 0.6576(3) 0.7171(4)
C8 C 0.1341(3) 0.5870(3) 0.7346(3)
C9 C 0.0044(3) 0.6339(3) 0.6848(3)
C10 C -0.0028(2) 0.7537(3) 0.6211(4)
C11 C -0.1242(3) 0.7947(3) 0.5733(4)
C12 C -0.2431(3) 0.7186(3) 0.5847(4)
C13 C -0.2405(3) 0.6012(3) 0.6462(4)
C14 C -0.1183(3) 0.5583(3) 0.6966(3)
C15 C -0.2098(3) 0.1286(3) 0.8662(3)
C16 C -0.3316(3) 0.0719(3) 0.7856(3)
C17 C -0.4005(3) -0.0366(3) 0.8332(4)
C18 C -0.3449(3) -0.0932(3) 0.9603(4)
C19 C -0.2224(3) -0.0403(3) 1.0391(4)
C20 C -0.1552(3) 0.0710(3) 0.9939(4)
loop_
_geom_bond_atom_site_label_1
_geom_bond_atom_site_label_2
_geom_bond_site_symmetry_1
_geom_bond_site_symmetry_2
O1 N4 1_555 1_555
O2 N4 1_555 1_555
N1 N2 1_555 1_555
N2 N3 1_555 1_555
N3 C2 1_555 1_555
N4 C16 1_555 1_555
C1 N1 1_555 1_555
C2 C1 1_555 1_555
C3 C2 1_555 1_555
C4 C3 1_555 1_555
C5 C4 1_555 1_555
C6 C5 1_555 1_555
C7 C6 1_555 1_555
C8 C3 1_555 1_555
C9 C8 1_555 1_555
C10 C9 1_555 1_555
C11 C10 1_555 1_555
C12 C11 1_555 1_555
C13 C12 1_555 1_555
C14 C1 1_555 1_555
C15 N2 1_555 1_555
C16 C15 1_555 1_555
C17 C16 1_555 1_555
C18 C17 1_555 1_555
C19 C18 1_555 1_555
C20 C15 1_555 1_555
C7 C8 1_555 1_555
C9 C14 1_555 1_555
C13 C14 1_555 1_555
C19 C20 1_555 1_555

#END
