
#######################################################################
#
#                 Cambridge Crystallographic Data Centre
#                                CCDC 
#
#######################################################################
#
# If this CIF has been generated from an entry in the Cambridge 
# Structural Database, then it will include bibliographic, chemical, 
# crystal, experimental, refinement or atomic coordinate data resulting 
# from the CCDC's data processing and validation procedures.
#
#######################################################################

data_XEWNET
_chemical_formula_moiety         'C2 H7 N6 1+,C3 N3 O2 1-'
_chemical_name_systematic        
'1,5-Diamino-4-methyltetrazolium nitrodicyanomethanide'
_symmetry_cell_setting           triclinic
_symmetry_space_group_name_H-M   'P -1'
_symmetry_Int_Tables_number      2
_space_group_name_Hall           '-P 1'
loop_
_symmetry_equiv_pos_site_id
_symmetry_equiv_pos_as_xyz
1 x,y,z
2 -x,-y,-z
_cell_length_a                   7.9530(1)
_cell_length_b                   8.1987(1)
_cell_length_c                   9.7025(2)
_cell_angle_alpha                67.227(1)
_cell_angle_beta                 66.496(1)
_cell_angle_gamma                63.832(1)
_cell_volume                     503.256
_exptl_crystal_colour            colorless
_cell_formula_units_Z            2
_exptl_crystal_recrystallization_method hexane/dichloromethane
loop_
_atom_site_label
_atom_site_type_symbol
_atom_site_fract_x
_atom_site_fract_y
_atom_site_fract_z
C1 C 1.12397(18) -0.09679(19) 0.75983(16)
H1 H 1.1035 -0.0721 0.8574
H2 H 1.2299 -0.0547 0.6796
H3 H 1.1584 -0.2319 0.7756
N1 N 0.94513(14) 0.00520(14) 0.71035(12)
N2 N 0.93157(16) 0.15848(15) 0.58361(12)
N3 N 0.76026(15) 0.22177(15) 0.56843(12)
N4 N 0.65990(14) 0.10965(14) 0.68558(11)
C2 C 0.77473(17) -0.02550(16) 0.77495(14)
N5 N 0.72660(16) -0.15828(15) 0.89546(12)
N6 N 0.46411(15) 0.13865(16) 0.71721(13)
H4 H 0.804(3) -0.229(2) 0.960(2)
H5 H 0.600(2) -0.158(2) 0.9275(18)
H6 H 0.394(2) 0.250(2) 0.7414(18)
H7 H 0.444(2) 0.141(2) 0.633(2)
C3 C 0.27848(17) 0.51384(17) 0.20597(14)
C4 C 0.32678(17) 0.34760(17) 0.32347(14)
N7 N 0.36264(16) 0.21126(15) 0.41978(13)
C5 C 0.10485(18) 0.58348(16) 0.16244(14)
N8 N -0.03636(15) 0.63767(16) 0.12728(13)
N9 N 0.40550(14) 0.61276(14) 0.13139(12)
O1 O 0.56242(12) 0.55137(12) 0.16578(10)
O2 O 0.35971(12) 0.76569(12) 0.02950(10)
loop_
_geom_bond_atom_site_label_1
_geom_bond_atom_site_label_2
_geom_bond_site_symmetry_1
_geom_bond_site_symmetry_2
C1 H1 1_555 1_555
H2 C1 1_555 1_555
H3 C1 1_555 1_555
N1 C1 1_555 1_555
N2 N1 1_555 1_555
N3 N2 1_555 1_555
N4 N3 1_555 1_555
C2 N1 1_555 1_555
N5 C2 1_555 1_555
N6 N4 1_555 1_555
C3 C4 1_555 1_555
C4 N7 1_555 1_555
C5 C3 1_555 1_555
N8 C5 1_555 1_555
N9 C3 1_555 1_555
O1 N9 1_555 1_555
O2 N9 1_555 1_555
H4 N5 1_555 1_555
H5 N5 1_555 1_555
H6 N6 1_555 1_555
H7 N6 1_555 1_555
N4 C2 1_555 1_555

#END
