
#######################################################################
#
#                 Cambridge Crystallographic Data Centre
#                                CCDC 
#
#######################################################################
#
# If this CIF has been generated from an entry in the Cambridge 
# Structural Database, then it will include bibliographic, chemical, 
# crystal, experimental, refinement or atomic coordinate data resulting 
# from the CCDC's data processing and validation procedures.
#
#######################################################################

data_XEWNOF
_chemical_formula_moiety         'C26 H36 B1 N3 O2 S1'
_chemical_name_systematic        
3-[(1,3-dimethyl-1H-3\l^5^-imidazol-2-yl)-\l^5^-boranyl]-1-[(4-methylphenyl)sulfonyl]-4-phenyl-5-(propan-2-yl)piperidine
_symmetry_cell_setting           monoclinic
_symmetry_space_group_name_H-M   'P 21/c'
_symmetry_Int_Tables_number      14
_space_group_name_Hall           '-P 2ybc'
loop_
_symmetry_equiv_pos_site_id
_symmetry_equiv_pos_as_xyz
1 x,y,z
2 -x,1/2+y,1/2-z
3 -x,-y,-z
4 x,1/2-y,1/2+z
_cell_length_a                   14.4365(13)
_cell_length_b                   16.4030(9)
_cell_length_c                   11.8242(9)
_cell_angle_alpha                90
_cell_angle_beta                 111.146(10)
_cell_angle_gamma                90
_cell_volume                     2611.45
_exptl_crystal_colour            colorless
_exptl_crystal_description       block
_cell_formula_units_Z            4
loop_
_atom_site_label
_atom_site_type_symbol
_atom_site_fract_x
_atom_site_fract_y
_atom_site_fract_z
S1 S 0.81541(4) 0.46690(3) 0.50731(5)
O1 O 0.92004(12) 0.47071(10) 0.57531(15)
O2 O 0.75235(14) 0.42759(10) 0.55992(18)
N1 N 0.77662(14) 0.56043(11) 0.47801(18)
N2 N 0.94741(16) 0.86989(12) 0.59306(18)
N3 N 0.86564(17) 0.92752(12) 0.42501(18)
C1 C 0.81473(16) 0.70618(12) 0.4596(2)
H1 H 0.8355 0.7129 0.5476
C2 C 0.83501(17) 0.61803(12) 0.4337(2)
H2 H 0.8178 0.6108 0.3471
H3 H 0.9052 0.6063 0.4732
C3 C 0.70230(16) 0.72264(13) 0.4031(2)
H4 H 0.6829 0.7162 0.3152
C4 C 0.67346(17) 0.80819(13) 0.4257(2)
C5 C 0.64193(16) 0.65954(13) 0.4458(2)
H5 H 0.6633 0.6649 0.5341
C6 C 0.79960(17) 0.41675(13) 0.3695(2)
C7 C 0.89979(18) 0.85433(14) 0.4738(2)
C8 C 0.66906(17) 0.57299(14) 0.4202(2)
H6 H 0.6342 0.5336 0.4514
H7 H 0.6489 0.5648 0.3334
C9 C 0.87726(19) 0.41086(15) 0.3288(2)
H8 H 0.9382 0.4343 0.3733
C10 C 0.7008(2) 0.84082(15) 0.5417(2)
H9 H 0.7396 0.8099 0.6078
C11 C 0.52912(18) 0.67309(16) 0.3945(3)
H10 H 0.5182 0.7293 0.4147
C12 C 0.7077(2) 0.38343(16) 0.3013(3)
H11 H 0.6544 0.3873 0.3276
C13 C 0.8651(2) 0.37022(16) 0.2218(3)
H12 H 0.9187 0.3657 0.1962
C14 C 0.9409(2) 0.95074(17) 0.6186(3)
H13 H 0.9670 0.9756 0.6943
C15 C 0.6144(2) 0.85596(16) 0.3301(3)
H14 H 0.5953 0.8360 0.2514
C16 C 0.7752(3) 0.33634(16) 0.1526(3)
C17 C 1.0036(2) 0.80985(19) 0.6832(3)
H15 H 0.9619 0.7874 0.7228
H16 H 1.0600 0.8358 0.7422
H17 H 1.0257 0.7670 0.6437
C18 C 0.8898(3) 0.98653(16) 0.5134(3)
H18 H 0.8735 1.0415 0.5019
C19 C 0.6716(3) 0.91783(17) 0.5608(3)
H19 H 0.6921 0.9388 0.6391
C20 C 0.6970(3) 0.34417(18) 0.1930(3)
H20 H 0.6355 0.3226 0.1465
C21 C 0.5832(3) 0.93275(18) 0.3495(3)
H21 H 0.5423 0.9632 0.2841
B1 B 0.8845(2) 0.76596(16) 0.4110(3)
C22 C 0.6122(3) 0.96417(18) 0.4645(4)
H22 H 0.5921 1.0161 0.4775
C23 C 0.4816(2) 0.6661(2) 0.2573(3)
H23 H 0.5132 0.7036 0.2202
H24 H 0.4122 0.6788 0.2321
H25 H 0.4895 0.6115 0.2330
C24 C 0.8151(3) 0.9442(2) 0.2952(3)
H26 H 0.8636 0.9501 0.2575
H27 H 0.7773 0.9935 0.2850
H28 H 0.7715 0.8997 0.2580
C25 C 0.4752(2) 0.6189(2) 0.4552(4)
H29 H 0.4772 0.5634 0.4305
H30 H 0.4073 0.6362 0.4318
H31 H 0.5070 0.6228 0.5417
C26 C 0.7624(4) 0.2917(2) 0.0352(3)
H32 H 0.8265 0.2786 0.0329
H33 H 0.7272 0.3260 -0.0325
H34 H 0.7254 0.2425 0.0311
H35 H 0.9652(19) 0.7373(15) 0.438(2)
H36 H 0.8528(19) 0.7745(15) 0.309(2)
loop_
_geom_bond_atom_site_label_1
_geom_bond_atom_site_label_2
_geom_bond_site_symmetry_1
_geom_bond_site_symmetry_2
S1 O1 1_555 1_555
O2 S1 1_555 1_555
N1 S1 1_555 1_555
N2 C7 1_555 1_555
N3 C7 1_555 1_555
C1 H1 1_555 1_555
C2 N1 1_555 1_555
H2 C2 1_555 1_555
H3 C2 1_555 1_555
C3 C1 1_555 1_555
H4 C3 1_555 1_555
C4 C3 1_555 1_555
C5 C3 1_555 1_555
H5 C5 1_555 1_555
C6 S1 1_555 1_555
C7 B1 1_555 1_555
C8 N1 1_555 1_555
H6 C8 1_555 1_555
H7 C8 1_555 1_555
C9 C6 1_555 1_555
H8 C9 1_555 1_555
C10 C4 1_555 1_555
H9 C10 1_555 1_555
C11 C5 1_555 1_555
H10 C11 1_555 1_555
C12 C6 1_555 1_555
H11 C12 1_555 1_555
C13 C9 1_555 1_555
H12 C13 1_555 1_555
C14 N2 1_555 1_555
H13 C14 1_555 1_555
C15 C4 1_555 1_555
H14 C15 1_555 1_555
C16 C13 1_555 1_555
C17 N2 1_555 1_555
H15 C17 1_555 1_555
H16 C17 1_555 1_555
H17 C17 1_555 1_555
C18 N3 1_555 1_555
H18 C18 1_555 1_555
C19 C10 1_555 1_555
H19 C19 1_555 1_555
C20 C12 1_555 1_555
H20 C20 1_555 1_555
C21 C15 1_555 1_555
H21 C21 1_555 1_555
B1 C1 1_555 1_555
C22 C19 1_555 1_555
H22 C22 1_555 1_555
C23 C11 1_555 1_555
H23 C23 1_555 1_555
H24 C23 1_555 1_555
H25 C23 1_555 1_555
C24 N3 1_555 1_555
H26 C24 1_555 1_555
H27 C24 1_555 1_555
H28 C24 1_555 1_555
C25 C11 1_555 1_555
H29 C25 1_555 1_555
H30 C25 1_555 1_555
H31 C25 1_555 1_555
C26 C16 1_555 1_555
H32 C26 1_555 1_555
H33 C26 1_555 1_555
H34 C26 1_555 1_555
H35 B1 1_555 1_555
H36 B1 1_555 1_555
C1 C2 1_555 1_555
C5 C8 1_555 1_555
C14 C18 1_555 1_555
C16 C20 1_555 1_555
C21 C22 1_555 1_555

#END
