
#######################################################################
#
#                 Cambridge Crystallographic Data Centre
#                                CCDC 
#
#######################################################################
#
# If this CIF has been generated from an entry in the Cambridge 
# Structural Database, then it will include bibliographic, chemical, 
# crystal, experimental, refinement or atomic coordinate data resulting 
# from the CCDC's data processing and validation procedures.
#
#######################################################################

data_XEWPEW
_chemical_formula_moiety         'C70 H58 N4 S1 Se2,C1 H1 Cl3'
_chemical_name_systematic        
'6,11,21,26-Tetramesityl-35-thia-37,40-diselena-36,38,39,41-tetraazanonacyclo[14.14.4.1^2,5^.1^7,10^.1^12,15^.1^17,20^.1^22,25^.1^27,30^.1^31,34^]hentetraconta-1,3,5(41),6,8,10,12(39),13,15,17(38),18,20,22,24,26,28,30(36),31,33-nonadecaene chloroform solvate'
_symmetry_cell_setting           monoclinic
_symmetry_space_group_name_H-M   'P 21/c'
_symmetry_Int_Tables_number      14
_space_group_name_Hall           '-P 2ybc'
loop_
_symmetry_equiv_pos_site_id
_symmetry_equiv_pos_as_xyz
1 x,y,z
2 -x,1/2+y,1/2-z
3 -x,-y,-z
4 x,1/2-y,1/2+z
_cell_length_a                   14.6576(7)
_cell_length_b                   12.8656(6)
_cell_length_c                   17.6237(8)
_cell_angle_alpha                90
_cell_angle_beta                 101.350(2)
_cell_angle_gamma                90
_cell_volume                     3258.46
_exptl_crystal_colour            green
_exptl_crystal_description       plate
_cell_formula_units_Z            2
loop_
_atom_site_label
_atom_site_type_symbol
_atom_site_fract_x
_atom_site_fract_y
_atom_site_fract_z
C38 C 0.1302(15) 0.5308(17) 0.3594(14)
H29 H 0.1592 0.4908 0.3232
Cl1 Cl 0.1461(9) 0.6605(9) 0.3466(6)
Cl2 Cl 0.0140(10) 0.5037(15) 0.3445(9)
Cl3 Cl 0.1786(10) 0.4973(10) 0.4521(8)
Se1 Se 0.34487(5) 0.94217(6) 0.12816(4)
C1 C 0.3210(5) 1.1360(6) 0.3238(4)
C2 C 0.3483(5) 1.0995(6) 0.2501(4)
C3 C 0.2371(5) 1.1806(7) 0.3238(5)
C4 C 0.3833(5) 1.1182(6) 0.3943(4)
C5 C 0.2136(6) 1.2107(8) 0.3926(5)
H1 H 0.1568 1.2434 0.3916
C6 C 0.3582(6) 1.1470(8) 0.4624(5)
H2 H 0.3997 1.1353 0.5087
C7 C 0.2738(6) 1.1928(9) 0.4643(5)
C8 C 0.1687(7) 1.2029(10) 0.2493(6)
H3 H 0.1524 1.2753 0.2473
H4 H 0.1137 1.1617 0.2475
H5 H 0.1965 1.1859 0.2060
C9 C 0.2472(9) 1.2278(12) 0.5389(6)
H6 H 0.2993 1.2615 0.5709
H7 H 0.2293 1.1685 0.5657
H8 H 0.1959 1.2755 0.5275
C10 C 0.2453(5) 0.9424(6) 0.2439(4)
H9 H 0.2204 0.9617 0.2864
C11 C 0.4145(5) 1.1580(6) 0.2190(4)
C12 C 0.4603(6) 1.2540(6) 0.2467(4)
H10 H 0.4518 1.2927 0.2893
C13 C 0.3111(5) 1.0048(6) 0.2164(4)
C14 C 0.6123(5) 1.2381(5) 0.0465(4)
C15 C 0.6542(5) 1.3379(6) 0.0697(4)
H11 H 0.6427 1.3797 0.1099
C16 C 0.7128(5) 1.3583(6) 0.0222(4)
H12 H 0.7510 1.4163 0.0240
C17 C 0.4802(6) 1.0733(8) 0.3974(5)
H13 H 0.5235 1.1289 0.3961
H14 H 0.4793 1.0283 0.3538
H15 H 0.4988 1.0343 0.4444
C18 C 0.5065(5) 1.1937(6) 0.1410(4)
C19 C 0.2625(5) 0.8321(6) 0.1408(4)
C20 C 0.5476(6) 1.1773(6) 0.0759(5)
C21 C 0.7057(5) 1.2735(6) -0.0323(4)
C22 C 0.5176(6) 1.2758(6) 0.1979(4)
H16 H 0.5570 1.3329 0.2003
C23 C 0.2201(5) 0.8514(6) 0.2041(4)
H17 H 0.1774 0.8055 0.2184
C24 C 0.2466(5) 0.7445(6) 0.0928(4)
C25 C 0.1774(5) 0.6629(6) 0.1066(5)
C26 C 0.2064(6) 0.5731(7) 0.1473(6)
C27 C 0.0189(6) 0.5999(10) 0.0870(7)
H18 H -0.0442 0.6095 0.0673
C28 C 0.0823(6) 0.6798(8) 0.0753(6)
C29 C 0.3070(7) 0.5525(9) 0.1813(9)
H19 H 0.3365 0.5219 0.1427
H20 H 0.3114 0.5058 0.2243
H21 H 0.3374 0.6168 0.1986
C30 C 0.1398(7) 0.4991(8) 0.1544(6)
H22 H 0.1600 0.4379 0.1804
C31 C 0.0470(7) 0.5097(8) 0.1259(7)
N1 N 0.6438(5) 1.2024(5) -0.0163(3)
N2 N 0.4439(5) 1.1249(5) 0.1557(3)
C32 C -0.0279(10) 0.4340(12) 0.1340(10)
H23 H -0.0817 0.4465 0.0942
H24 H -0.0442 0.4423 0.1838
H25 H -0.0060 0.3644 0.1291
C33 C 0.0517(8) 0.7761(10) 0.0278(8)
H26 H 0.0937 0.8322 0.0455
H27 H -0.0101 0.7950 0.0333
H28 H 0.0520 0.7623 -0.0257
C34 C 0.4931(11) 1.0968(12) 0.0152(8)
S1 S 0.4841(3) 1.0308(3) -0.0329(2)
C35 C 0.4148(12) 1.0190(13) -0.0949(10)
C36 C 0.5482(10) 1.0652(11) 0.0543(8)
C37 C 0.4385(13) 1.1120(12) -0.0542(9)
Se1B Se 0.65513(5) 1.05783(6) -0.12816(4)
C1B C 0.6790(5) 0.8640(6) -0.3238(4)
C2B C 0.6517(5) 0.9005(6) -0.2501(4)
C3B C 0.7629(5) 0.8194(7) -0.3238(5)
C4B C 0.6167(5) 0.8818(6) -0.3943(4)
C5B C 0.7864(6) 0.7893(8) -0.3926(5)
H1B H 0.8432 0.7566 -0.3916
C6B C 0.6418(6) 0.8530(8) -0.4624(5)
H2B H 0.6003 0.8647 -0.5087
C7B C 0.7262(6) 0.8072(9) -0.4643(5)
C8B C 0.8313(7) 0.7971(10) -0.2493(6)
H3B H 0.8476 0.7247 -0.2473
H4B H 0.8863 0.8383 -0.2475
H5B H 0.8035 0.8141 -0.2060
C9B C 0.7528(9) 0.7722(12) -0.5389(6)
H6B H 0.7007 0.7385 -0.5709
H7B H 0.7707 0.8315 -0.5657
H8B H 0.8041 0.7245 -0.5275
C10B C 0.7547(5) 1.0576(6) -0.2439(4)
H9B H 0.7796 1.0383 -0.2864
C11B C 0.5855(5) 0.8420(6) -0.2190(4)
C12B C 0.5397(6) 0.7460(6) -0.2467(4)
H10B H 0.5482 0.7073 -0.2893
C13B C 0.6889(5) 0.9952(6) -0.2164(4)
C14B C 0.3877(5) 0.7619(5) -0.0465(4)
C15B C 0.3458(5) 0.6621(6) -0.0697(4)
H11B H 0.3573 0.6203 -0.1099
C16B C 0.2872(5) 0.6417(6) -0.0222(4)
H12B H 0.2490 0.5837 -0.0240
C17B C 0.5198(6) 0.9267(8) -0.3974(5)
H13B H 0.4765 0.8711 -0.3961
H14B H 0.5207 0.9717 -0.3538
H15B H 0.5012 0.9657 -0.4444
C18B C 0.4935(5) 0.8063(6) -0.1410(4)
C19B C 0.7375(5) 1.1679(6) -0.1408(4)
C20B C 0.4524(6) 0.8227(6) -0.0759(5)
C21B C 0.2943(5) 0.7265(6) 0.0323(4)
C22B C 0.4824(6) 0.7242(6) -0.1979(4)
H16B H 0.4430 0.6671 -0.2003
C23B C 0.7799(5) 1.1486(6) -0.2041(4)
H17B H 0.8226 1.1945 -0.2184
C24B C 0.7534(5) 1.2555(6) -0.0928(4)
C25B C 0.8226(5) 1.3371(6) -0.1066(5)
C26B C 0.7936(6) 1.4269(7) -0.1473(6)
C27B C 0.9811(6) 1.4001(10) -0.0870(7)
H18B H 1.0442 1.3905 -0.0673
C28B C 0.9177(6) 1.3202(8) -0.0753(6)
C29B C 0.6930(7) 1.4475(9) -0.1813(9)
H19B H 0.6635 1.4781 -0.1427
H20B H 0.6886 1.4942 -0.2243
H21B H 0.6626 1.3832 -0.1986
C30B C 0.8602(7) 1.5009(8) -0.1544(6)
H22B H 0.8400 1.5621 -0.1804
C31B C 0.9530(7) 1.4903(8) -0.1259(7)
N1B N 0.3562(5) 0.7976(5) 0.0163(3)
N2B N 0.5561(5) 0.8751(5) -0.1557(3)
C32B C 1.0279(10) 1.5660(12) -0.1340(10)
H23B H 1.0817 1.5535 -0.0942
H24B H 1.0442 1.5577 -0.1838
H25B H 1.0060 1.6356 -0.1291
C33B C 0.9483(8) 1.2239(10) -0.0278(8)
H26B H 0.9063 1.1678 -0.0455
H27B H 1.0101 1.2050 -0.0333
H28B H 0.9480 1.2377 0.0257
C34B C 0.5069(11) 0.9032(12) -0.0152(8)
S1B S 0.5159(3) 0.9692(3) 0.0329(2)
C35B C 0.5852(12) 0.9810(13) 0.0949(10)
C36B C 0.4518(10) 0.9348(11) -0.0543(8)
C37B C 0.5615(13) 0.8880(12) 0.0542(9)
Cl4? Cl 0.0263(16) 0.506(3) 0.3852(16)
Cl5? Cl 0.1086(16) 0.6689(16) 0.3220(13)
Cl6? Cl 0.2188(14) 0.5103(17) 0.3979(15)
C39? C 0.1145(16) 0.539(2) 0.340(2)
H30? H 0.1081 0.5004 0.2907
loop_
_geom_bond_atom_site_label_1
_geom_bond_atom_site_label_2
_geom_bond_site_symmetry_1
_geom_bond_site_symmetry_2
Se1 C13 1_555 1_555
C1 C2 1_555 1_555
C2 C11 1_555 1_555
C3 C1 1_555 1_555
C4 C1 1_555 1_555
C5 C3 1_555 1_555
H1 C5 1_555 1_555
C6 C4 1_555 1_555
H2 C6 1_555 1_555
C7 C5 1_555 1_555
C8 C3 1_555 1_555
H3 C8 1_555 1_555
H4 C8 1_555 1_555
H5 C8 1_555 1_555
C9 C7 1_555 1_555
H6 C9 1_555 1_555
H7 C9 1_555 1_555
H8 C9 1_555 1_555
C10 H9 1_555 1_555
C11 C12 1_555 1_555
C12 H10 1_555 1_555
C13 C2 1_555 1_555
C14 C15 1_555 1_555
C15 H11 1_555 1_555
C16 C15 1_555 1_555
H12 C16 1_555 1_555
C17 C4 1_555 1_555
H13 C17 1_555 1_555
H14 C17 1_555 1_555
H15 C17 1_555 1_555
C18 C20 1_555 1_555
C19 Se1 1_555 1_555
C20 C14 1_555 1_555
C21 C16 1_555 1_555
C22 C12 1_555 1_555
H16 C22 1_555 1_555
C23 C10 1_555 1_555
H17 C23 1_555 1_555
C24 C19 1_555 1_555
C25 C24 1_555 1_555
C26 C25 1_555 1_555
C27 H18 1_555 1_555
C28 C25 1_555 1_555
C29 C26 1_555 1_555
H19 C29 1_555 1_555
H20 C29 1_555 1_555
H21 C29 1_555 1_555
C30 C26 1_555 1_555
H22 C30 1_555 1_555
C31 C27 1_555 1_555
N1 C14 1_555 1_555
N2 C11 1_555 1_555
C32 C31 1_555 1_555
H23 C32 1_555 1_555
H24 C32 1_555 1_555
H25 C32 1_555 1_555
C33 C28 1_555 1_555
H26 C33 1_555 1_555
H27 C33 1_555 1_555
H28 C33 1_555 1_555
C34 C20 1_555 1_555
S1 C34 1_555 1_555
C35 S1 1_555 1_555
C36 C20 1_555 1_555
C37 C34 1_555 1_555
C38 H29 1_555 1_555
Cl1 C38 1_555 1_555
Cl2 C38 1_555 1_555
Cl3 C38 1_555 1_555
Se1B C13B 1_555 1_555
C1B C2B 1_555 1_555
C2B C11B 1_555 1_555
C3B C1B 1_555 1_555
C4B C1B 1_555 1_555
C5B C3B 1_555 1_555
H1B C5B 1_555 1_555
C6B C4B 1_555 1_555
H2B C6B 1_555 1_555
C7B C5B 1_555 1_555
C8B C3B 1_555 1_555
H3B C8B 1_555 1_555
H4B C8B 1_555 1_555
H5B C8B 1_555 1_555
C9B C7B 1_555 1_555
H6B C9B 1_555 1_555
H7B C9B 1_555 1_555
H8B C9B 1_555 1_555
C10B H9B 1_555 1_555
C11B C12B 1_555 1_555
C12B H10B 1_555 1_555
C13B C2B 1_555 1_555
C14B C15B 1_555 1_555
C15B H11B 1_555 1_555
C16B C15B 1_555 1_555
H12B C16B 1_555 1_555
C17B C4B 1_555 1_555
H13B C17B 1_555 1_555
H14B C17B 1_555 1_555
H15B C17B 1_555 1_555
C18B C20B 1_555 1_555
C19B Se1B 1_555 1_555
C20B C14B 1_555 1_555
C21B C24 1_555 1_555
C22B C12B 1_555 1_555
H16B C22B 1_555 1_555
C23B C10B 1_555 1_555
H17B C23B 1_555 1_555
C24B C21 1_555 1_555
C25B C24B 1_555 1_555
C26B C25B 1_555 1_555
C27B H18B 1_555 1_555
C28B C25B 1_555 1_555
C29B C26B 1_555 1_555
H19B C29B 1_555 1_555
H20B C29B 1_555 1_555
H21B C29B 1_555 1_555
C30B C26B 1_555 1_555
H22B C30B 1_555 1_555
C31B C27B 1_555 1_555
N1B C14B 1_555 1_555
N2B C11B 1_555 1_555
C32B C31B 1_555 1_555
H23B C32B 1_555 1_555
H24B C32B 1_555 1_555
H25B C32B 1_555 1_555
C33B C28B 1_555 1_555
H26B C33B 1_555 1_555
H27B C33B 1_555 1_555
H28B C33B 1_555 1_555
C34B S1 1_555 1_555
S1B C34 1_555 1_555
C35B C36 1_555 1_555
C36B S1 1_555 1_555
C37B C34B 1_555 1_555
C6 C7 1_555 1_555
C10 C13 1_555 1_555
C18 C22 1_555 1_555
C18 N2 1_555 1_555
C19 C23 1_555 1_555
C21 N1 1_555 1_555
C27 C28 1_555 1_555
C30 C31 1_555 1_555
C34 C36 1_555 1_555
S1 C36 1_555 1_555
S1 C37 1_555 1_555
S1 S1B 1_555 1_555
C35 C37 1_555 1_555
C35 C36B 1_555 1_555
C36 S1B 1_555 1_555
C6B C7B 1_555 1_555
C10B C13B 1_555 1_555
C16B C21B 1_555 1_555
C18B C22B 1_555 1_555
C18B N2B 1_555 1_555
C19B C23B 1_555 1_555
C19B C24B 1_555 1_555
C20B C34B 1_555 1_555
C20B C36B 1_555 1_555
C21B N1B 1_555 1_555
C27B C28B 1_555 1_555
C30B C31B 1_555 1_555
C34B S1B 1_555 1_555
C34B C36B 1_555 1_555
S1B C35B 1_555 1_555
S1B C36B 1_555 1_555
S1B C37B 1_555 1_555
C35B C37B 1_555 1_555

#END
