
#######################################################################
#
#                 Cambridge Crystallographic Data Centre
#                                CCDC 
#
#######################################################################
#
# If this CIF has been generated from an entry in the Cambridge 
# Structural Database, then it will include bibliographic, chemical, 
# crystal, experimental, refinement or atomic coordinate data resulting 
# from the CCDC's data processing and validation procedures.
#
#######################################################################

data_XEWPEX
_chemical_formula_moiety         'C22 H32 B1 N3 O4 S1'
_chemical_name_systematic        
'9-[(1,3-dimethyl-1H-3\l^5^-imidazol-2-yl)-\l^5^-boranyl]-2-[(4-methylphenyl)sulfonyl]-4-(propan-2-yl)-7-oxa-2-azabicyclo[3.3.1]nonan-6-one unknown solvate'
_symmetry_cell_setting           monoclinic
_symmetry_space_group_name_H-M   'P 21/c'
_symmetry_Int_Tables_number      14
_space_group_name_Hall           '-P 2ybc'
loop_
_symmetry_equiv_pos_site_id
_symmetry_equiv_pos_as_xyz
1 x,y,z
2 -x,1/2+y,1/2-z
3 -x,-y,-z
4 x,1/2-y,1/2+z
_cell_length_a                   16.28460(10)
_cell_length_b                   9.74050(10)
_cell_length_c                   18.2493(2)
_cell_angle_alpha                90
_cell_angle_beta                 91.1010(10)
_cell_angle_gamma                90
_cell_volume                     2894.17
_exptl_crystal_description       block
_cell_formula_units_Z            4
loop_
_atom_site_label
_atom_site_type_symbol
_atom_site_fract_x
_atom_site_fract_y
_atom_site_fract_z
S1 S 0.98530(2) 0.43810(4) 0.33892(2)
O1 O 1.02580(6) 0.39868(12) 0.27323(6)
O2 O 0.75336(7) 0.67184(12) 0.23497(8)
O3 O 1.02771(7) 0.52398(14) 0.39067(7)
N1 N 0.70565(8) 0.07896(13) 0.19857(8)
N2 N 0.90171(7) 0.51771(13) 0.31443(7)
O4 O 0.63240(8) 0.64918(15) 0.28208(9)
N3 N 0.59911(8) 0.20417(15) 0.18236(8)
C1 C 0.78378(8) 0.38743(14) 0.25704(7)
H1 H 0.8032 0.3047 0.2825
C2 C 0.85710(8) 0.48155(14) 0.24517(8)
H2 H 0.8955 0.4345 0.2129
C3 C 0.68182(8) 0.20968(16) 0.18722(8)
C4 C 0.95799(8) 0.28725(16) 0.38566(7)
C5 C 0.72706(8) 0.46658(15) 0.30857(9)
H3 H 0.6785 0.4099 0.3172
C6 C 0.95053(9) 0.16359(16) 0.34818(8)
H4 H 0.9629 0.1589 0.2987
C7 C 0.77080(9) 0.49397(16) 0.38361(8)
H5 H 0.7871 0.4042 0.4033
C8 C 0.85011(10) 0.57486(16) 0.37243(9)
H6 H 0.8362 0.6690 0.3601
H7 H 0.8815 0.5761 0.4181
C9 C 0.82864(10) 0.61259(17) 0.20760(10)
H8 H 0.8720 0.6804 0.2125
H9 H 0.8209 0.5938 0.1557
C10 C 0.94064(11) 0.29375(19) 0.45991(8)
H10 H 0.9472 0.3756 0.4856
C11 C 0.92467(11) 0.04773(18) 0.38465(9)
H11 H 0.9204 -0.0352 0.3596
C12 C 0.69901(9) 0.59911(17) 0.27391(10)
C13 C 0.90485(11) 0.0533(2) 0.45880(9)
C14 C 0.91355(12) 0.1772(2) 0.49493(9)
H12 H 0.9008 0.1822 0.5443
C15 C 0.63829(11) -0.00782(19) 0.20019(12)
H13 H 0.6391 -0.1024 0.2072
C16 C 0.71837(12) 0.5636(2) 0.44276(11)
H14 H 0.7064 0.6576 0.4265
C17 C 0.57201(11) 0.0707(2) 0.18978(12)
H15 H 0.5177 0.0410 0.1879
C18 C 0.79033(11) 0.0332(2) 0.20740(12)
H16 H 0.8254 0.0912 0.1792
H17 H 0.7949 -0.0598 0.1906
H18 H 0.8065 0.0382 0.2582
B1 B 0.74050(10) 0.34087(19) 0.17857(10)
C19 C 0.54415(12) 0.3203(2) 0.17065(16)
H19 H 0.5652 0.3988 0.1967
H20 H 0.4906 0.2979 0.1883
H21 H 0.5404 0.3409 0.1192
C20 C 0.87540(16) -0.0725(3) 0.49830(13)
H22 H 0.8225 -0.0546 0.5185
H23 H 0.9137 -0.0952 0.5371
H24 H 0.8713 -0.1478 0.4645
C21 C 0.76430(16) 0.5719(3) 0.51579(12)
H25 H 0.7815 0.4816 0.5305
H26 H 0.7289 0.6096 0.5521
H27 H 0.8116 0.6297 0.5110
C22 C 0.63697(16) 0.4904(4) 0.45348(16)
H28 H 0.6047 0.4951 0.4090
H29 H 0.6078 0.5338 0.4924
H30 H 0.6471 0.3960 0.4658
H31 H 0.7901(12) 0.305(2) 0.1395(10)
H32 H 0.7004(13) 0.430(2) 0.1529(11)
loop_
_geom_bond_atom_site_label_1
_geom_bond_atom_site_label_2
_geom_bond_site_symmetry_1
_geom_bond_site_symmetry_2
S1 O1 1_555 1_555
O2 C9 1_555 1_555
O3 S1 1_555 1_555
N1 C3 1_555 1_555
N2 S1 1_555 1_555
O4 C12 1_555 1_555
N3 C3 1_555 1_555
C1 H1 1_555 1_555
C2 N2 1_555 1_555
H2 C2 1_555 1_555
C3 B1 1_555 1_555
C4 S1 1_555 1_555
C5 C1 1_555 1_555
H3 C5 1_555 1_555
C6 C4 1_555 1_555
H4 C6 1_555 1_555
C7 C5 1_555 1_555
H5 C7 1_555 1_555
C8 N2 1_555 1_555
H6 C8 1_555 1_555
H7 C8 1_555 1_555
C9 C2 1_555 1_555
H8 C9 1_555 1_555
H9 C9 1_555 1_555
C10 C4 1_555 1_555
H10 C10 1_555 1_555
C11 C6 1_555 1_555
H11 C11 1_555 1_555
C12 O2 1_555 1_555
C13 C11 1_555 1_555
C14 C10 1_555 1_555
H12 C14 1_555 1_555
C15 N1 1_555 1_555
H13 C15 1_555 1_555
C16 C7 1_555 1_555
H14 C16 1_555 1_555
C17 N3 1_555 1_555
H15 C17 1_555 1_555
C18 N1 1_555 1_555
H16 C18 1_555 1_555
H17 C18 1_555 1_555
H18 C18 1_555 1_555
B1 C1 1_555 1_555
C19 N3 1_555 1_555
H19 C19 1_555 1_555
H20 C19 1_555 1_555
H21 C19 1_555 1_555
C20 C13 1_555 1_555
H22 C20 1_555 1_555
H23 C20 1_555 1_555
H24 C20 1_555 1_555
C21 C16 1_555 1_555
H25 C21 1_555 1_555
H26 C21 1_555 1_555
H27 C21 1_555 1_555
C22 C16 1_555 1_555
H28 C22 1_555 1_555
H29 C22 1_555 1_555
H30 C22 1_555 1_555
H31 B1 1_555 1_555
H32 B1 1_555 1_555
C1 C2 1_555 1_555
C5 C12 1_555 1_555
C7 C8 1_555 1_555
C13 C14 1_555 1_555
C15 C17 1_555 1_555

#END
