
#######################################################################
#
#                 Cambridge Crystallographic Data Centre
#                                CCDC 
#
#######################################################################
#
# If this CIF has been generated from an entry in the Cambridge 
# Structural Database, then it will include bibliographic, chemical, 
# crystal, experimental, refinement or atomic coordinate data resulting 
# from the CCDC's data processing and validation procedures.
#
#######################################################################

data_XEWPIB
_chemical_formula_moiety         'C12 H8 Cl1 F2 N1 O2 S1'
_chemical_name_systematic        
2-{3-chloro-2-[(difluoromethyl)sulfanyl]prop-2-en-1-yl}-1H-isoindole-1,3(2H)-dione
_symmetry_cell_setting           monoclinic
_symmetry_space_group_name_H-M   'P 21/n'
_symmetry_Int_Tables_number      14
_space_group_name_Hall           '-P 2yn'
loop_
_symmetry_equiv_pos_site_id
_symmetry_equiv_pos_as_xyz
1 x,y,z
2 1/2-x,1/2+y,1/2-z
3 -x,-y,-z
4 1/2+x,1/2-y,1/2+z
_cell_length_a                   10.3256(5)
_cell_length_b                   8.3160(4)
_cell_length_c                   14.5608(7)
_cell_angle_alpha                90
_cell_angle_beta                 100.265(2)
_cell_angle_gamma                90
_cell_volume                     1230.29
_cell_formula_units_Z            4
loop_
_atom_site_label
_atom_site_type_symbol
_atom_site_fract_x
_atom_site_fract_y
_atom_site_fract_z
C1 C 0.83153(16) 0.4435(2) 0.50219(12)
C2 C 0.86779(17) 0.2865(2) 0.48821(13)
H1 H 0.880922 0.210669 0.537799
C3 C 0.88425(18) 0.2442(2) 0.39853(13)
H2 H 0.908326 0.136996 0.386459
C4 C 0.86610(18) 0.3558(2) 0.32624(13)
H3 H 0.878011 0.323267 0.265760
C5 C 0.83089(17) 0.5141(2) 0.34061(12)
H4 H 0.819103 0.590606 0.291395
C6 C 0.81378(16) 0.5551(2) 0.42988(12)
C7 C 0.77578(16) 0.7113(2) 0.46766(12)
C8 C 0.80252(16) 0.5235(2) 0.58766(12)
C9 C 0.73950(17) 0.8061(2) 0.62509(12)
H5 H 0.780804 0.908711 0.611371
H6 H 0.777661 0.775038 0.689898
C10 C 0.59353(17) 0.83215(19) 0.61819(11)
C11 C 0.53754(18) 0.5866(2) 0.72669(13)
H7 H 0.635422 0.591228 0.745710
C12 C 0.53454(18) 0.9737(2) 0.61497(12)
H8 H 0.441927 0.976572 0.612072
Cl1 Cl 0.61845(5) 1.15426(5) 0.61580(3)
F1 F 0.49469(12) 0.43291(13) 0.72760(9)
F2 F 0.47837(13) 0.66593(15) 0.78906(8)
N1 N 0.77145(14) 0.68289(16) 0.56167(10)
O1 O 0.80299(12) 0.46823(15) 0.66466(8)
O2 O 0.75235(13) 0.83988(15) 0.42908(9)
S1 S 0.48827(4) 0.66163(5) 0.60980(3)
loop_
_geom_bond_atom_site_label_1
_geom_bond_atom_site_label_2
_geom_bond_site_symmetry_1
_geom_bond_site_symmetry_2
C1 C2 1_555 1_555
C2 H1 1_555 1_555
C3 C2 1_555 1_555
H2 C3 1_555 1_555
C4 C3 1_555 1_555
H3 C4 1_555 1_555
C5 C4 1_555 1_555
H4 C5 1_555 1_555
C6 C1 1_555 1_555
C7 C6 1_555 1_555
C8 C1 1_555 1_555
C9 H5 1_555 1_555
H6 C9 1_555 1_555
C10 C9 1_555 1_555
C11 H7 1_555 1_555
C12 C10 1_555 1_555
H8 C12 1_555 1_555
Cl1 C12 1_555 1_555
F1 C11 1_555 1_555
F2 C11 1_555 1_555
N1 C7 1_555 1_555
O1 C8 1_555 1_555
O2 C7 1_555 1_555
S1 C10 1_555 1_555
C5 C6 1_555 1_555
C8 N1 1_555 1_555
C9 N1 1_555 1_555
C11 S1 1_555 1_555

#END
