
#######################################################################
#
#                 Cambridge Crystallographic Data Centre
#                                CCDC 
#
#######################################################################
#
# If this CIF has been generated from an entry in the Cambridge 
# Structural Database, then it will include bibliographic, chemical, 
# crystal, experimental, refinement or atomic coordinate data resulting 
# from the CCDC's data processing and validation procedures.
#
#######################################################################

data_XEWTEA
_chemical_formula_moiety         'C32 H26 O2'
_chemical_name_systematic        4,4'-dimethoxy-2,3',5-triphenyl-biphenyl
_symmetry_cell_setting           monoclinic
_symmetry_space_group_name_H-M   'P 21/c'
_symmetry_Int_Tables_number      14
_space_group_name_Hall           '-P 2ybc'
loop_
_symmetry_equiv_pos_site_id
_symmetry_equiv_pos_as_xyz
1 x,y,z
2 -x,1/2+y,1/2-z
3 -x,-y,-z
4 x,1/2-y,1/2+z
_cell_length_a                   13.0439(11)
_cell_length_b                   6.8056(6)
_cell_length_c                   27.870(2)
_cell_angle_alpha                90
_cell_angle_beta                 101.891(2)
_cell_angle_gamma                90
_cell_volume                     2420.97
_exptl_crystal_colour            colorless
_cell_formula_units_Z            4
loop_
_atom_site_label
_atom_site_type_symbol
_atom_site_fract_x
_atom_site_fract_y
_atom_site_fract_z
O1 O -0.06873(8) 0.28803(15) 0.37041(4)
O2 O 0.52660(7) 0.27040(13) 0.20315(3)
C1 C 0.01033(11) 0.2799(2) 0.34483(5)
C2 C 0.01240(11) 0.1492(2) 0.30675(5)
H1 H -0.0448 0.0624 0.2962
C3 C 0.09751(11) 0.1446(2) 0.28402(5)
H2 H 0.0979 0.0541 0.2581
C4 C 0.18216(10) 0.27007(18) 0.29849(5)
C5 C 0.17666(10) 0.40558(18) 0.33563(5)
H3 H 0.2326 0.4961 0.3450
C6 C 0.09309(11) 0.41379(19) 0.35942(5)
C7 C 0.44731(10) 0.27088(17) 0.22849(5)
C8 C 0.46309(10) 0.27159(17) 0.27928(5)
H4 H 0.5326 0.2755 0.2981
C9 C 0.37903(10) 0.26662(17) 0.30346(5)
C10 C 0.27619(10) 0.26309(18) 0.27583(5)
C11 C 0.26241(10) 0.25972(18) 0.22470(5)
H5 H 0.1930 0.2545 0.2058
C12 C 0.34495(10) 0.26357(17) 0.20000(5)
C13 C -0.14701(14) 0.1388(2) 0.36088(8)
H6 H -0.1853 0.1488 0.3268
H7 H -0.1959 0.1556 0.3830
H8 H -0.1137 0.0094 0.3663
C14 C 0.63147(10) 0.26639(19) 0.23086(5)
H9 H 0.6443 0.3833 0.2518
H10 H 0.6804 0.2650 0.2085
H11 H 0.6418 0.1482 0.2514
C15 C 0.40452(10) 0.25800(19) 0.35828(5)
C16 C 0.47498(11) 0.3915(2) 0.38501(5)
H12 H 0.5051 0.4909 0.3683
C17 C 0.50156(12) 0.3805(2) 0.43583(5)
H13 H 0.5493 0.4726 0.4537
C18 C 0.45857(12) 0.2354(2) 0.46045(5)
H14 H 0.4769 0.2277 0.4952
C19 C 0.38875(12) 0.1017(2) 0.43424(5)
H15 H 0.3592 0.0022 0.4511
C20 C 0.36174(11) 0.1124(2) 0.38365(5)
H16 H 0.3137 0.0200 0.3660
C21 C 0.32289(10) 0.25889(19) 0.14547(5)
C22 C 0.25046(13) 0.1252(3) 0.12072(6)
H17 H 0.2178 0.0351 0.1389
C23 C 0.22518(14) 0.1213(3) 0.06999(6)
H18 H 0.1763 0.0275 0.0536
C24 C 0.27054(13) 0.2525(3) 0.04319(6)
H19 H 0.2527 0.2502 0.0084
C25 C 0.34203(12) 0.3874(2) 0.06705(5)
H20 H 0.3730 0.4790 0.0486
C26 C 0.36905(11) 0.3903(2) 0.11790(5)
H21 H 0.4193 0.4824 0.1340
C27 C 0.0859(7) 0.556(2) 0.3978(4)
C28 C 0.1136(2) 0.7538(4) 0.38979(10)
H22 H 0.1304 0.7898 0.3594
C29 C 0.1164(2) 0.8951(4) 0.42642(11)
H23 H 0.1379 1.0256 0.4214
C30 C 0.0880(4) 0.8456(8) 0.4696(2)
H24 H 0.0894 0.9422 0.4944
C31 C 0.0577(2) 0.6563(5) 0.47729(11)
H25 H 0.0370 0.6235 0.5070
C32 C 0.0571(2) 0.5129(4) 0.44159(10)
H26 H 0.0365 0.3826 0.4475
C33? C 0.1047(7) 0.5625(18) 0.4016(4)
C34? C 0.2006(2) 0.5762(4) 0.43615(10)
H27? H 0.2579 0.4943 0.4332
C35? C 0.2103(2) 0.7102(4) 0.47435(11)
H28? H 0.2747 0.7199 0.4975
C36? C 0.1282(4) 0.8286(9) 0.4791(2)
H29? H 0.1359 0.9212 0.5051
C37? C 0.0338(3) 0.8128(5) 0.44585(14)
H30? H -0.0235 0.8940 0.4492
C38? C 0.0224(2) 0.6779(4) 0.40731(11)
H31? H -0.0429 0.6665 0.3849
loop_
_geom_bond_atom_site_label_1
_geom_bond_atom_site_label_2
_geom_bond_site_symmetry_1
_geom_bond_site_symmetry_2
O1 C1 1_555 1_555
O2 C7 1_555 1_555
C1 C2 1_555 1_555
C2 H1 1_555 1_555
C3 C2 1_555 1_555
H2 C3 1_555 1_555
C4 C3 1_555 1_555
C5 C4 1_555 1_555
H3 C5 1_555 1_555
C6 C1 1_555 1_555
C7 C8 1_555 1_555
C8 H4 1_555 1_555
C9 C8 1_555 1_555
C10 C4 1_555 1_555
C11 C10 1_555 1_555
H5 C11 1_555 1_555
C12 C7 1_555 1_555
C13 O1 1_555 1_555
H6 C13 1_555 1_555
H7 C13 1_555 1_555
H8 C13 1_555 1_555
C14 O2 1_555 1_555
H9 C14 1_555 1_555
H10 C14 1_555 1_555
H11 C14 1_555 1_555
C15 C9 1_555 1_555
C16 C15 1_555 1_555
H12 C16 1_555 1_555
C17 C16 1_555 1_555
H13 C17 1_555 1_555
C18 C17 1_555 1_555
H14 C18 1_555 1_555
C19 C18 1_555 1_555
H15 C19 1_555 1_555
C20 C15 1_555 1_555
H16 C20 1_555 1_555
C21 C12 1_555 1_555
C22 C21 1_555 1_555
H17 C22 1_555 1_555
C23 C22 1_555 1_555
H18 C23 1_555 1_555
C24 C23 1_555 1_555
H19 C24 1_555 1_555
C25 C24 1_555 1_555
H20 C25 1_555 1_555
C26 C21 1_555 1_555
H21 C26 1_555 1_555
C27 C6 1_555 1_555
C28 C27 1_555 1_555
H22 C28 1_555 1_555
C29 C28 1_555 1_555
H23 C29 1_555 1_555
C30 C29 1_555 1_555
H24 C30 1_555 1_555
C31 C30 1_555 1_555
H25 C31 1_555 1_555
C32 C27 1_555 1_555
H26 C32 1_555 1_555
C5 C6 1_555 1_555
C9 C10 1_555 1_555
C11 C12 1_555 1_555
C19 C20 1_555 1_555
C25 C26 1_555 1_555
C31 C32 1_555 1_555

#END
