
#######################################################################
#
#                 Cambridge Crystallographic Data Centre
#                                CCDC 
#
#######################################################################
#
# If this CIF has been generated from an entry in the Cambridge 
# Structural Database, then it will include bibliographic, chemical, 
# crystal, experimental, refinement or atomic coordinate data resulting 
# from the CCDC's data processing and validation procedures.
#
#######################################################################

data_XEWTEZ
_chemical_name_common            
"Melamine 2,2',4,4',6,6'-hexanitrodiphenylamine monohydrate"
_chemical_formula_moiety         'C3 H7 N6 1+,C12 H4 N7 O12 1-,H2 O1'
_chemical_name_systematic        'Melaminium dipicrylaminate monohydrate'
_symmetry_cell_setting           monoclinic
_symmetry_space_group_name_H-M   'P 21/n'
_symmetry_Int_Tables_number      14
_space_group_name_Hall           '-P 2yn'
loop_
_symmetry_equiv_pos_site_id
_symmetry_equiv_pos_as_xyz
1 x,y,z
2 1/2-x,1/2+y,1/2-z
3 -x,-y,-z
4 1/2+x,1/2-y,1/2+z
_cell_length_a                   11.4990(13)
_cell_length_b                   9.6536(11)
_cell_length_c                   20.372(2)
_cell_angle_alpha                90
_cell_angle_beta                 90.820(2)
_cell_angle_gamma                90
_cell_volume                     2261.2
_exptl_crystal_colour            red
_exptl_crystal_description       block
_cell_formula_units_Z            4
loop_
_atom_site_label
_atom_site_type_symbol
_atom_site_fract_x
_atom_site_fract_y
_atom_site_fract_z
O1 O 0.6171(3) 0.0260(4) 0.42305(18)
O2 O 0.5123(3) -0.1521(3) 0.44458(15)
O3 O 0.3758(4) -0.3910(4) 0.2438(3)
O4 O 0.2767(3) -0.2650(5) 0.17583(18)
O5 O 0.3406(3) 0.2209(5) 0.17055(18)
O6 O 0.4844(4) 0.3078(4) 0.22517(18)
O7 O 0.3793(3) 0.3406(4) 0.4366(2)
O8 O 0.3866(4) 0.5476(4) 0.4133(3)
O9 O 0.7716(3) 0.7469(3) 0.41132(19)
O10 O 0.9160(2) 0.6201(3) 0.38035(16)
O11 O 0.8494(4) 0.1873(5) 0.2843(3)
O12 O 0.6911(3) 0.0950(4) 0.2759(2)
N1 N 0.5005(2) 0.2021(3) 0.34628(15)
N2 N 0.5427(3) -0.0575(3) 0.40823(16)
N3 N 0.3467(3) -0.2816(5) 0.2229(2)
N4 N 0.4158(3) 0.2153(5) 0.21298(16)
N5 N 0.4298(2) 0.4366(3) 0.41364(15)
N6 N 0.8121(3) 0.6361(3) 0.39084(16)
N7 N 0.7473(3) 0.1871(3) 0.29459(17)
C1 C 0.4801(3) 0.0860(3) 0.31319(15)
C2 C 0.4878(3) -0.0470(3) 0.34363(16)
C3 C 0.4463(3) -0.1665(4) 0.31547(19)
H1 H 0.4534 -0.2512 0.3369
C4 C 0.3929(3) -0.1571(4) 0.2537(2)
C5 C 0.3809(3) -0.0329(5) 0.22205(18)
H2 H 0.3425 -0.0279 0.1816
C6 C 0.4260(3) 0.0839(4) 0.25043(16)
C7 C 0.5784(3) 0.2961(3) 0.35428(15)
C8 C 0.5476(3) 0.4214(3) 0.38989(16)
C9 C 0.6202(3) 0.5307(3) 0.40089(16)
H3 H 0.5937 0.6095 0.4223
C10 C 0.7339(3) 0.5227(3) 0.37975(17)
C11 C 0.7722(3) 0.4076(3) 0.34562(16)
H4 H 0.8486 0.4036 0.3314
C12 C 0.6980(3) 0.2997(3) 0.33271(16)
O13 O 0.2134(2) 0.5611(3) 0.05152(16)
H5 H 0.1701 0.6346 0.0496
H6 H 0.2871 0.5789 0.0610
N8 N 0.5791(2) 0.8271(3) 0.01530(14)
N9 N 0.4572(3) 0.6705(3) 0.07425(16)
N10 N 0.6383(3) 0.5981(3) 0.03769(15)
H7 H 0.6895 0.5338 0.0339
N11 N 0.7544(3) 0.7443(4) -0.02016(18)
H8 H 0.7695 0.8236 -0.0372
H9 H 0.8037 0.6777 -0.0231
N12 N 0.3970(3) 0.8888(3) 0.04814(16)
H10 H 0.4076 0.9688 0.0306
H11 H 0.3325 0.8706 0.0672
N13 N 0.5245(3) 0.4520(3) 0.0983(2)
H12 H 0.4612 0.4342 0.1186
H13 H 0.5781 0.3900 0.0959
C13 C 0.6559(3) 0.7249(3) 0.01043(17)
C14 C 0.4796(3) 0.7939(3) 0.04571(16)
C15 C 0.5397(3) 0.5748(3) 0.07067(18)
loop_
_geom_bond_atom_site_label_1
_geom_bond_atom_site_label_2
_geom_bond_site_symmetry_1
_geom_bond_site_symmetry_2
O1 N2 1_555 1_555
O2 N2 1_555 1_555
O3 N3 1_555 1_555
O4 N3 1_555 1_555
O5 N4 1_555 1_555
O6 N4 1_555 1_555
O7 N5 1_555 1_555
O8 N5 1_555 1_555
O9 N6 1_555 1_555
O10 N6 1_555 1_555
O11 N7 1_555 1_555
O12 N7 1_555 1_555
N1 C1 1_555 1_555
N2 C2 1_555 1_555
N3 C4 1_555 1_555
N4 C6 1_555 1_555
N5 C8 1_555 1_555
N6 C10 1_555 1_555
N7 C12 1_555 1_555
C1 C2 1_555 1_555
C2 C3 1_555 1_555
C3 H1 1_555 1_555
C4 C3 1_555 1_555
C5 C4 1_555 1_555
H2 C5 1_555 1_555
C6 C1 1_555 1_555
C7 N1 1_555 1_555
C8 C7 1_555 1_555
C9 C8 1_555 1_555
H3 C9 1_555 1_555
C10 C9 1_555 1_555
C11 C10 1_555 1_555
H4 C11 1_555 1_555
C12 C7 1_555 1_555
O13 H5 1_555 1_555
H6 O13 1_555 1_555
N8 C13 1_555 1_555
N9 C14 1_555 1_555
N10 H7 1_555 1_555
N11 H8 1_555 1_555
H9 N11 1_555 1_555
N12 H10 1_555 1_555
H11 N12 1_555 1_555
N13 H12 1_555 1_555
H13 N13 1_555 1_555
C13 N10 1_555 1_555
C14 N8 1_555 1_555
C15 N9 1_555 1_555
C5 C6 1_555 1_555
C11 C12 1_555 1_555
N10 C15 1_555 1_555
N11 C13 1_555 1_555
N12 C14 1_555 1_555
N13 C15 1_555 1_555

#END
