
#######################################################################
#
#                 Cambridge Crystallographic Data Centre
#                                CCDC 
#
#######################################################################
#
# If this CIF has been generated from an entry in the Cambridge 
# Structural Database, then it will include bibliographic, chemical, 
# crystal, experimental, refinement or atomic coordinate data resulting 
# from the CCDC's data processing and validation procedures.
#
#######################################################################

data_XEWVAZ
_chemical_formula_moiety         'C42 H56 O20'
_chemical_name_systematic        
'7-[(4,5-dihydroxyhex-2-enoyl)oxy]-4-oxo-2-(4,13,21-trihydroxy-3,9,16,22-tetramethyl-1,7,12,18,24,26-hexaoxo-4,7,9,10,11,12,12a,13,14,15,16,21,22,25a-tetradecahydro-1H,3H,18H-13,25-methano[1,7]dioxacyclotetradecino[9,10-j][1,7]dioxacyclopentadecin-25(24H)-yl)octanoic acid'
_symmetry_cell_setting           orthorhombic
_symmetry_space_group_name_H-M   'P 21 21 21'
_symmetry_Int_Tables_number      19
_space_group_name_Hall           'P 2ac 2ab'
loop_
_symmetry_equiv_pos_site_id
_symmetry_equiv_pos_as_xyz
1 x,y,z
2 1/2-x,-y,1/2+z
3 -x,1/2+y,1/2-z
4 1/2+x,1/2-y,-z
_cell_length_a                   10.4486(7)
_cell_length_b                   15.2134(10)
_cell_length_c                   28.9143(17)
_cell_angle_alpha                90
_cell_angle_beta                 90
_cell_angle_gamma                90
_cell_volume                     4596.18
_exptl_crystal_colour            colorless
_exptl_crystal_description       block
_cell_formula_units_Z            4
loop_
_atom_site_label
_atom_site_type_symbol
_atom_site_fract_x
_atom_site_fract_y
_atom_site_fract_z
C1 C 0.5660(4) 0.5368(3) 0.91632(13)
H1 H 0.552184 0.487989 0.894215
H2 H 0.497251 0.533616 0.939821
C2 C 0.6952(4) 0.5225(3) 0.94058(13)
H3 H 0.759751 0.561917 0.926469
H4 H 0.686687 0.539011 0.973563
C3 C 0.7425(5) 0.4282(3) 0.93746(14)
H5 H 0.676433 0.387198 0.950150
C4 C 0.8683(6) 0.4130(4) 0.96114(18)
H6 H 0.896127 0.352357 0.955826
H7 H 0.858558 0.423206 0.994419
H8 H 0.932332 0.453651 0.948636
C5 C 0.7272(4) 0.3351(3) 0.87017(15)
C6 C 0.7389(4) 0.3327(3) 0.81922(15)
H9 H 0.731697 0.277776 0.803816
C7 C 0.7591(4) 0.4041(2) 0.79440(13)
H10 H 0.772487 0.457645 0.810616
C8 C 0.7624(4) 0.4075(3) 0.74245(14)
H11 H 0.843343 0.436856 0.732377
C9 C 0.6482(4) 0.4577(2) 0.72245(13)
H12 H 0.567386 0.424293 0.728234
C10 C 0.6615(6) 0.4771(3) 0.67174(14)
H13 H 0.582368 0.503976 0.660298
H14 H 0.677828 0.422354 0.654913
H15 H 0.733097 0.517765 0.666925
C11 C 0.5558(3) 0.5538(2) 0.77954(12)
C12 C 0.5647(3) 0.6442(2) 0.80228(12)
C13 C 0.6404(3) 0.6228(2) 0.84680(12)
C14 C 0.5532(4) 0.6241(2) 0.89013(12)
C15 C 0.4162(4) 0.6385(2) 0.87048(12)
H16 H 0.370538 0.580794 0.869887
C16 C 0.4313(3) 0.6721(2) 0.82009(12)
H17 H 0.430125 0.737802 0.821231
C17 C 0.3261(3) 0.6436(2) 0.78720(13)
C18 C 0.1074(4) 0.5986(3) 0.78231(14)
H18 H 0.128627 0.599595 0.748590
C19 C 0.0831(5) 0.5049(3) 0.79759(18)
H19 H 0.158163 0.468711 0.790464
H20 H 0.008328 0.481606 0.781210
H21 H 0.067106 0.503720 0.830978
C20 C -0.0026(4) 0.6616(3) 0.79195(13)
H22 H -0.084926 0.631992 0.783614
C21 C -0.0061(3) 0.6853(3) 0.84207(14)
H23 H -0.003105 0.638365 0.863702
C22 C -0.0131(5) 0.7657(3) 0.85890(17)
H24 H -0.025901 0.813580 0.838312
C23 C -0.0014(5) 0.7833(3) 0.90914(18)
C24 C 0.0760(4) 0.7190(3) 0.97957(14)
H25 H 0.034859 0.770872 0.994758
C25 C 0.0367(5) 0.6362(3) 1.00431(16)
H26 H -0.056327 0.628884 1.002038
H27 H 0.061417 0.640161 1.036935
H28 H 0.079267 0.585586 0.990061
C26 C 0.2200(5) 0.7335(3) 0.97675(15)
H29 H 0.255686 0.731247 1.008440
H30 H 0.235898 0.793191 0.964421
C27 C 0.2924(5) 0.6667(3) 0.94648(14)
H31 H 0.366106 0.643816 0.964327
H32 H 0.234822 0.616534 0.939952
C28 C 0.3410(4) 0.7024(3) 0.90124(13)
C29 C 0.6406(3) 0.7120(2) 0.77418(12)
H33 H 0.727265 0.685722 0.769385
C30 C 0.6621(3) 0.7950(2) 0.80196(12)
C31 C 0.5900(4) 0.7338(3) 0.72585(12)
H34 H 0.548773 0.680920 0.712530
H35 H 0.524357 0.780440 0.728253
C32 C 0.6970(4) 0.7645(3) 0.69365(13)
C33 C 0.6525(5) 0.8282(3) 0.65720(15)
H36 H 0.637047 0.885793 0.672093
H37 H 0.569659 0.807167 0.644822
C34 C 0.7450(5) 0.8419(3) 0.61641(15)
H38 H 0.740853 0.903887 0.606111
H39 H 0.833639 0.829707 0.626666
C35 C 0.7117(7) 0.7823(4) 0.57650(17)
H40 H 0.617812 0.787094 0.570240
C36 C 0.7440(13) 0.6874(4) 0.5854(2)
H41 H 0.720734 0.652103 0.558322
H42 H 0.696188 0.666501 0.612426
H43 H 0.835969 0.681760 0.591274
C37 C 0.7377(7) 0.8772(4) 0.51176(17)
C38 C 0.8019(6) 0.8872(3) 0.46699(16)
H44 H 0.866247 0.846516 0.457996
C39 C 0.7706(7) 0.9527(3) 0.43905(16)
H45 H 0.714960 0.996127 0.451362
C40 C 0.8135(6) 0.9655(3) 0.39033(16)
H46 H 0.866301 1.020309 0.389798
C41 C 0.6980(6) 0.9820(3) 0.35902(16)
H47 H 0.655203 1.037334 0.369535
C42 C 0.5995(7) 0.9085(4) 0.3600(2)
H48 H 0.530693 0.921802 0.337998
H49 H 0.563641 0.903439 0.391179
H50 H 0.640499 0.852989 0.351337
O1 O 0.6888(5) 0.2744(2) 0.89315(11)
O2 O 0.7602(3) 0.41212(18) 0.88797(10)
O3 O 0.7554(3) 0.32345(18) 0.72187(10)
H51 H 0.824143 0.296233 0.726619
O4 O 0.6430(3) 0.54332(17) 0.74605(8)
O5 O 0.4840(3) 0.49839(17) 0.79282(9)
O6 O 0.7519(2) 0.60545(17) 0.84658(9)
O7 O 0.5938(3) 0.69242(17) 0.91999(8)
H52 H 0.613046 0.736936 0.904271
O8 O 0.3415(3) 0.63674(18) 0.74596(8)
O9 O 0.2167(3) 0.63038(19) 0.80895(9)
O10 O 0.0111(3) 0.7386(2) 0.76437(11)
H53 H -0.044991 0.738712 0.743545
O11 O 0.0283(3) 0.7104(2) 0.93266(10)
O12 O -0.0149(5) 0.8546(3) 0.92661(14)
O13 O 0.3258(3) 0.7770(2) 0.88997(10)
O14 O 0.7023(3) 0.85948(18) 0.77576(9)
H54 H 0.704501 0.906149 0.791269
O15 O 0.6462(3) 0.80096(16) 0.84346(9)
O16 O 0.8066(3) 0.7411(2) 0.69784(10)
O17 O 0.6505(7) 0.9218(4) 0.52541(14)
O18 O 0.7812(4) 0.8075(2) 0.53497(11)
O19 O 0.8920(4) 0.8967(2) 0.37298(11)
H55 H 0.857463 0.848012 0.378549
O20 O 0.7412(4) 0.99492(19) 0.31306(11)
H56 H 0.787788 0.952515 0.305164
loop_
_geom_bond_atom_site_label_1
_geom_bond_atom_site_label_2
_geom_bond_site_symmetry_1
_geom_bond_site_symmetry_2
C1 H1 1_555 1_555
H2 C1 1_555 1_555
C2 C1 1_555 1_555
H3 C2 1_555 1_555
H4 C2 1_555 1_555
C3 C2 1_555 1_555
H5 C3 1_555 1_555
C4 C3 1_555 1_555
H6 C4 1_555 1_555
H7 C4 1_555 1_555
H8 C4 1_555 1_555
C5 C6 1_555 1_555
C6 H9 1_555 1_555
C7 C6 1_555 1_555
H10 C7 1_555 1_555
C8 C7 1_555 1_555
H11 C8 1_555 1_555
C9 C8 1_555 1_555
H12 C9 1_555 1_555
C10 C9 1_555 1_555
H13 C10 1_555 1_555
H14 C10 1_555 1_555
H15 C10 1_555 1_555
C11 C12 1_555 1_555
C12 C13 1_555 1_555
C13 C14 1_555 1_555
C14 C1 1_555 1_555
C15 C14 1_555 1_555
H16 C15 1_555 1_555
C16 C12 1_555 1_555
H17 C16 1_555 1_555
C17 C16 1_555 1_555
C18 H18 1_555 1_555
C19 C18 1_555 1_555
H19 C19 1_555 1_555
H20 C19 1_555 1_555
H21 C19 1_555 1_555
C20 C18 1_555 1_555
H22 C20 1_555 1_555
C21 C20 1_555 1_555
H23 C21 1_555 1_555
C22 C21 1_555 1_555
H24 C22 1_555 1_555
C23 C22 1_555 1_555
C24 H25 1_555 1_555
C25 C24 1_555 1_555
H26 C25 1_555 1_555
H27 C25 1_555 1_555
H28 C25 1_555 1_555
C26 C24 1_555 1_555
H29 C26 1_555 1_555
H30 C26 1_555 1_555
C27 C26 1_555 1_555
H31 C27 1_555 1_555
H32 C27 1_555 1_555
C28 C15 1_555 1_555
C29 C12 1_555 1_555
H33 C29 1_555 1_555
C30 C29 1_555 1_555
C31 C29 1_555 1_555
H34 C31 1_555 1_555
H35 C31 1_555 1_555
C32 C31 1_555 1_555
C33 C32 1_555 1_555
H36 C33 1_555 1_555
H37 C33 1_555 1_555
C34 C33 1_555 1_555
H38 C34 1_555 1_555
H39 C34 1_555 1_555
C35 C34 1_555 1_555
H40 C35 1_555 1_555
C36 C35 1_555 1_555
H41 C36 1_555 1_555
H42 C36 1_555 1_555
H43 C36 1_555 1_555
C37 C38 1_555 1_555
C38 H44 1_555 1_555
C39 C38 1_555 1_555
H45 C39 1_555 1_555
C40 C39 1_555 1_555
H46 C40 1_555 1_555
C41 C40 1_555 1_555
H47 C41 1_555 1_555
C42 C41 1_555 1_555
H48 C42 1_555 1_555
H49 C42 1_555 1_555
H50 C42 1_555 1_555
O1 C5 1_555 1_555
O2 C3 1_555 1_555
O3 C8 1_555 1_555
H51 O3 1_555 1_555
O4 C9 1_555 1_555
O5 C11 1_555 1_555
O6 C13 1_555 1_555
O7 C14 1_555 1_555
H52 O7 1_555 1_555
O8 C17 1_555 1_555
O9 C17 1_555 1_555
O10 C20 1_555 1_555
H53 O10 1_555 1_555
O11 C23 1_555 1_555
O12 C23 1_555 1_555
O13 C28 1_555 1_555
O14 C30 1_555 1_555
H54 O14 1_555 1_555
O15 C30 1_555 1_555
O16 C32 1_555 1_555
O17 C37 1_555 1_555
O18 C35 1_555 1_555
O19 C40 1_555 1_555
H55 O19 1_555 1_555
O20 C41 1_555 1_555
H56 O20 1_555 1_555
C5 O2 1_555 1_555
C11 O4 1_555 1_555
C15 C16 1_555 1_555
C18 O9 1_555 1_555
C24 O11 1_555 1_555
C27 C28 1_555 1_555
C37 O18 1_555 1_555

#END
