
#######################################################################
#
#                 Cambridge Crystallographic Data Centre
#                                CCDC 
#
#######################################################################
#
# If this CIF has been generated from an entry in the Cambridge 
# Structural Database, then it will include bibliographic, chemical, 
# crystal, experimental, refinement or atomic coordinate data resulting 
# from the CCDC's data processing and validation procedures.
#
#######################################################################

data_XEWWEE
_chemical_formula_moiety         'C20 H27 F1 N2 O3'
_chemical_name_systematic        
't-butyl {1-[7-(fluoromethoxy)-2,3-dihydro-1H-pyrrolo[1,2-a]indol-9-yl]propan-2-yl}carbamate'
_symmetry_cell_setting           orthorhombic
_symmetry_space_group_name_H-M   'P 21 21 21'
_symmetry_Int_Tables_number      19
_space_group_name_Hall           'P 2ac 2ab'
loop_
_symmetry_equiv_pos_site_id
_symmetry_equiv_pos_as_xyz
1 x,y,z
2 1/2-x,-y,1/2+z
3 -x,1/2+y,1/2-z
4 1/2+x,1/2-y,-z
_cell_length_a                   5.3216(11)
_cell_length_b                   12.009(2)
_cell_length_c                   29.813(6)
_cell_angle_alpha                90
_cell_angle_beta                 90
_cell_angle_gamma                90
_cell_volume                     1905.26
_exptl_crystal_colour            colorless
_exptl_crystal_description       needle
_cell_formula_units_Z            4
loop_
_atom_site_label
_atom_site_type_symbol
_atom_site_fract_x
_atom_site_fract_y
_atom_site_fract_z
F1 F 0.5613(6) 0.5553(3) 1.15072(10)
O1 O 0.8734(7) 0.4573(3) 1.11696(10)
O2 O 0.1524(6) 0.3381(3) 0.85220(10)
O3 O 0.4810(6) 0.3525(3) 0.80209(10)
N1 N 0.5638(6) 0.3293(3) 0.87476(12)
H1 H 0.7222 0.3299 0.8663
N2 N 0.9739(7) 0.6306(3) 0.94585(12)
C1 C 0.6387(11) 0.4514(5) 1.13627(17)
H2 H 0.6435 0.3995 1.1621
H3 H 0.5169 0.4220 1.1141
C2 C 0.8893(9) 0.5051(4) 1.07369(15)
C3 C 1.0890(9) 0.5825(4) 1.06744(17)
H4 H 1.1923 0.6027 1.0921
C4 C 1.1329(9) 0.6281(4) 1.02608(15)
H5 H 1.2689 0.6782 1.0217
C5 C 0.9755(9) 0.5998(4) 0.99056(15)
C6 C 0.7721(8) 0.5219(4) 0.99596(14)
C7 C 0.7360(8) 0.4743(4) 1.03878(15)
H6 H 0.6062 0.4211 1.0434
C8 C 0.6506(8) 0.5089(4) 0.95320(14)
C9 C 0.7811(8) 0.5758(4) 0.92347(15)
C10 C 0.7862(8) 0.6130(4) 0.87506(15)
H7 H 0.6552 0.6696 0.8691
H8 H 0.7625 0.5493 0.8544
C11 C 1.0523(9) 0.6631(5) 0.87044(15)
H9 H 1.1715 0.6063 0.8592
H10 H 1.0508 0.7267 0.8493
C12 C 1.1292(9) 0.7022(4) 0.91775(15)
H11 H 1.3104 0.6897 0.9233
H12 H 1.0893 0.7818 0.9225
C13 C 0.4321(8) 0.4312(4) 0.94376(16)
H13 H 0.3135 0.4697 0.9234
H14 H 0.3424 0.4171 0.9723
C14 C 0.5014(9) 0.3179(4) 0.92272(14)
H15 H 0.3499 0.2689 0.9249
C15 C 0.7152(9) 0.2592(4) 0.94676(16)
H16 H 0.7307 0.1829 0.9354
H17 H 0.6803 0.2571 0.9790
H18 H 0.8724 0.2995 0.9414
C16 C 0.3805(10) 0.3388(4) 0.84369(15)
C17 C 0.3158(9) 0.3668(5) 0.76220(15)
C18 C 0.1513(11) 0.2634(5) 0.75623(18)
H19 H 0.2561 0.1964 0.7582
H20 H 0.0693 0.2659 0.7268
H21 H 0.0232 0.2615 0.7798
C19 C 0.5017(11) 0.3767(6) 0.72369(16)
H22 H 0.6146 0.4397 0.7292
H23 H 0.4101 0.3888 0.6956
H24 H 0.6003 0.3080 0.7215
C20 C 0.1633(11) 0.4740(5) 0.76653(19)
H25 H 0.0385 0.4655 0.7905
H26 H 0.0774 0.4894 0.7381
H27 H 0.2760 0.5360 0.7738
loop_
_geom_bond_atom_site_label_1
_geom_bond_atom_site_label_2
_geom_bond_site_symmetry_1
_geom_bond_site_symmetry_2
F1 C1 1_555 1_555
O1 C1 1_555 1_555
O2 C16 1_555 1_555
O3 C16 1_555 1_555
N1 H1 1_555 1_555
N2 C5 1_555 1_555
C1 H2 1_555 1_555
H3 C1 1_555 1_555
C2 O1 1_555 1_555
C3 C2 1_555 1_555
H4 C3 1_555 1_555
C4 C3 1_555 1_555
H5 C4 1_555 1_555
C5 C4 1_555 1_555
C6 C5 1_555 1_555
C7 C2 1_555 1_555
H6 C7 1_555 1_555
C8 C6 1_555 1_555
C9 N2 1_555 1_555
C10 C9 1_555 1_555
H7 C10 1_555 1_555
H8 C10 1_555 1_555
C11 C10 1_555 1_555
H9 C11 1_555 1_555
H10 C11 1_555 1_555
C12 N2 1_555 1_555
H11 C12 1_555 1_555
H12 C12 1_555 1_555
C13 C8 1_555 1_555
H13 C13 1_555 1_555
H14 C13 1_555 1_555
C14 N1 1_555 1_555
H15 C14 1_555 1_555
C15 C14 1_555 1_555
H16 C15 1_555 1_555
H17 C15 1_555 1_555
H18 C15 1_555 1_555
C16 N1 1_555 1_555
C17 O3 1_555 1_555
C18 C17 1_555 1_555
H19 C18 1_555 1_555
H20 C18 1_555 1_555
H21 C18 1_555 1_555
C19 C17 1_555 1_555
H22 C19 1_555 1_555
H23 C19 1_555 1_555
H24 C19 1_555 1_555
C20 C17 1_555 1_555
H25 C20 1_555 1_555
H26 C20 1_555 1_555
H27 C20 1_555 1_555
C6 C7 1_555 1_555
C8 C9 1_555 1_555
C11 C12 1_555 1_555
C13 C14 1_555 1_555

#END
