
#######################################################################
#
#                 Cambridge Crystallographic Data Centre
#                                CCDC 
#
#######################################################################
#
# If this CIF has been generated from an entry in the Cambridge 
# Structural Database, then it will include bibliographic, chemical, 
# crystal, experimental, refinement or atomic coordinate data resulting 
# from the CCDC's data processing and validation procedures.
#
#######################################################################

data_XEWYII
_chemical_formula_moiety         'C24 H36 Mg1 O6 P2 Se4'
_chemical_name_systematic        
aqua-(diselenobis(phenyl(phosphinoselenoate))-O,O')-tris(tetrahydrofuran)-magnesium
_symmetry_cell_setting           monoclinic
_symmetry_space_group_name_H-M   'P 21/c'
_symmetry_Int_Tables_number      14
_space_group_name_Hall           '-P 2ybc'
loop_
_symmetry_equiv_pos_site_id
_symmetry_equiv_pos_as_xyz
1 x,y,z
2 -x,1/2+y,1/2-z
3 -x,-y,-z
4 x,1/2-y,1/2+z
_cell_length_a                   15.527(3)
_cell_length_b                   41.777(8)
_cell_length_c                   9.782(2)
_cell_angle_alpha                90
_cell_angle_beta                 91.38(3)
_cell_angle_gamma                90
_cell_volume                     6343.46
_exptl_crystal_colour            colorless
_exptl_crystal_description       block
_chemical_melting_point          '125-128 deg.C (dec.)'
_cell_formula_units_Z            8
loop_
_atom_site_label
_atom_site_type_symbol
_atom_site_fract_x
_atom_site_fract_y
_atom_site_fract_z
Se1 Se 0.06519(9) 0.06552(5) 0.7511(2)
Se2 Se 0.16222(10) 0.11538(4) 0.98408(14)
Se3 Se 0.30275(10) 0.13151(4) 1.03636(13)
Se4 Se 0.44557(9) 0.18570(4) 0.93213(17)
P1 P 0.1903(2) 0.08170(9) 0.8117(4)
P2 P 0.3135(2) 0.17360(9) 0.8958(3)
Mg1 Mg 0.3125(3) 0.13098(11) 0.6116(4)
O1 O 0.2449(5) 0.0975(2) 0.7074(8)
O2 O 0.2853(5) 0.1649(2) 0.7508(7)
O3 O 0.3276(9) 0.0999(4) 0.4434(15)
C1 C 0.2546(11) 0.0828(6) 0.390(3)
H1 H 0.2162 0.0974 0.3368
H2 H 0.2215 0.0733 0.4648
C2 C 0.2887(18) 0.0565(9) 0.297(4)
H3 H 0.2637 0.0355 0.3207
H4 H 0.2745 0.0612 0.1997
C3 C 0.3801(15) 0.0565(6) 0.321(3)
H5 H 0.4103 0.0536 0.2337
H6 H 0.3969 0.0388 0.3834
C4 C 0.4024(12) 0.0876(7) 0.382(3)
H7 H 0.4490 0.0849 0.4524
H8 H 0.4227 0.1025 0.3115
O5 O 0.2067(9) 0.1513(5) 0.4910(14)
C9 C 0.1233(13) 0.1566(9) 0.545(2)
H17 H 0.1251 0.1739 0.6142
H18 H 0.1013 0.1368 0.5879
C10 C 0.0661(13) 0.1662(10) 0.421(2)
H19 H 0.0265 0.1485 0.3955
H20 H 0.0315 0.1854 0.4430
C11 C 0.1233(13) 0.1729(8) 0.313(2)
H21 H 0.1130 0.1947 0.2770
H22 H 0.1143 0.1574 0.2375
C12 C 0.2106(12) 0.1703(7) 0.369(2)
H23 H 0.2484 0.1599 0.3024
H24 H 0.2340 0.1918 0.3910
O7 O 0.3862(11) 0.1664(4) 0.4981(17)
C17 C 0.387(2) 0.2001(5) 0.524(3)
H33 H 0.4159 0.2048 0.6132
H34 H 0.3279 0.2088 0.5245
C18 C 0.438(2) 0.2147(5) 0.406(3)
H35 H 0.3991 0.2212 0.3293
H36 H 0.4720 0.2335 0.4372
C19 C 0.4938(17) 0.1892(6) 0.366(3)
H37 H 0.5490 0.1900 0.4181
H38 H 0.5060 0.1907 0.2668
C20 C 0.4471(13) 0.1594(5) 0.395(2)
H39 H 0.4171 0.1515 0.3112
H40 H 0.4879 0.1427 0.4277
O9 O 0.4321(5) 0.1222(2) 0.7070(8)
H49 H 0.430(9) 0.1406(14) 0.764(9)
H50 H 0.425(9) 0.1029(13) 0.756(9)
C41 C 0.2558(9) 0.0506(4) 0.8906(15)
C42 C 0.2199(15) 0.0274(6) 0.969(2)
H85 H 0.1596 0.0277 0.9833
C43 C 0.2712(17) 0.0029(6) 1.029(2)
H86 H 0.2467 -0.0127 1.0876
C44 C 0.3568(12) 0.0023(5) 1.001(2)
H87 H 0.3923 -0.0142 1.0380
C45 C 0.3919(12) 0.0250(7) 0.920(3)
H88 H 0.4522 0.0249 0.9054
C46 C 0.3402(10) 0.0487(5) 0.858(2)
H89 H 0.3638 0.0631 0.7935
C47 C 0.2401(9) 0.2022(3) 0.9605(13)
C48 C 0.1548(9) 0.2040(4) 0.9048(12)
H90 H 0.1351 0.1898 0.8347
C49 C 0.1004(9) 0.2279(4) 0.9587(15)
H91 H 0.0437 0.2304 0.9217
C50 C 0.1279(10) 0.2473(4) 1.0620(14)
H92 H 0.0900 0.2630 1.0972
C51 C 0.2102(11) 0.2445(5) 1.1163(17)
H93 H 0.2279 0.2576 1.1910
C52 C 0.2650(9) 0.2234(4) 1.0649(14)
H94 H 0.3226 0.2228 1.0999
Se5 Se 0.93054(12) 0.30579(5) 0.1991(2)
Se6 Se 0.80138(12) 0.35879(4) 0.02947(14)
Se7 Se 0.66565(10) 0.38050(4) 0.06257(16)
Se8 Se 0.57502(9) 0.43865(5) 0.2409(2)
P3 P 0.8021(3) 0.32442(10) 0.2056(3)
P4 P 0.7016(2) 0.42103(10) 0.2015(4)
Mg2 Mg 0.8146(3) 0.37874(11) 0.4472(4)
O10 O 0.7721(6) 0.3414(2) 0.3349(7)
O11 O 0.7622(6) 0.4118(2) 0.3196(9)
O12 O 0.8756(14) 0.4110(5) 0.600(2)
C25 C 0.904(2) 0.4426(7) 0.565(3)
H51 H 0.8577 0.4585 0.5804
H52 H 0.9198 0.4435 0.4674
C26 C 0.9830(18) 0.4492(8) 0.659(3)
H53 H 1.0362 0.4504 0.6057
H54 H 0.9760 0.4696 0.7094
C27 C 0.987(3) 0.4227(13) 0.753(5)
H55 H 0.9984 0.4302 0.8472
H56 H 1.0329 0.4076 0.7272
C28 C 0.902(2) 0.4073(9) 0.741(3)
H57 H 0.9060 0.3844 0.7659
H58 H 0.8606 0.4179 0.8017
O14 O 0.8551(6) 0.3436(3) 0.5981(9)
O15 O 0.7003(10) 0.3870(5) 0.5572(19)
C33 C 0.6178(14) 0.3734(7) 0.514(3)
H67 H 0.6222 0.3502 0.4961
H68 H 0.5938 0.3843 0.4316
C34 C 0.5637(18) 0.3805(8) 0.642(3)
H69 H 0.5010 0.3791 0.6218
H70 H 0.5789 0.3659 0.7191
C35 C 0.5907(19) 0.4130(9) 0.670(5)
H71 H 0.5822 0.4184 0.7676
H72 H 0.5572 0.4282 0.6127
C36 C 0.6825(15) 0.4143(6) 0.638(3)
H73 H 0.6952 0.4341 0.5868
H74 H 0.7183 0.4141 0.7230
O17 O 0.9344(7) 0.3772(3) 0.3607(10)
H83 H 0.929(11) 0.3576(15) 0.311(11)
H84 H 0.942(10) 0.3948(19) 0.300(10)
C53 C 0.7234(11) 0.2951(4) 0.1589(12)
C54 C 0.7447(14) 0.2717(5) 0.0615(16)
H95 H 0.7993 0.2717 0.0197
C55 C 0.6842(16) 0.2489(5) 0.0290(19)
H96 H 0.6963 0.2337 -0.0402
C56 C 0.6086(12) 0.2474(4) 0.0915(18)
H97 H 0.5690 0.2307 0.0695
C57 C 0.5886(13) 0.2695(5) 0.1857(18)
H98 H 0.5348 0.2682 0.2297
C58 C 0.6445(10) 0.2942(4) 0.2198(15)
H99 H 0.6288 0.3101 0.2839
C59 C 0.7582(9) 0.4493(4) 0.0956(16)
C60 C 0.8436(11) 0.4564(5) 0.125(2)
H100 H 0.8725 0.4456 0.1977
C61 C 0.8866(14) 0.4781(8) 0.053(3)
H101 H 0.9443 0.4834 0.0783
C62 C 0.8450(14) 0.4935(6) -0.062(3)
H102 H 0.8745 0.5089 -0.1145
C63 C 0.7606(14) 0.4851(5) -0.094(2)
H103 H 0.7334 0.4938 -0.1740
C64 C 0.7162(14) 0.4649(4) -0.0156(16)
H104 H 0.6568 0.4611 -0.0346
C65 C 0.7921(11) 0.3231(5) 0.6647(15)
H105 H 0.7519 0.3135 0.5959
H106 H 0.7583 0.3356 0.7305
C66 C 0.8429(14) 0.2975(5) 0.7373(17)
H107 H 0.8637 0.3047 0.8286
H108 H 0.8085 0.2777 0.7477
C67 C 0.9143(14) 0.2925(5) 0.6449(19)
H109 H 0.8979 0.2776 0.5703
H110 H 0.9656 0.2841 0.6948
C68 C 0.9308(12) 0.3252(6) 0.591(2)
H111 H 0.9777 0.3356 0.6448
H112 H 0.9489 0.3238 0.4944
O4? O 0.3414(12) 0.0915(5) 0.4811(19)
C5? C 0.2728(19) 0.0685(10) 0.467(5)
H9? H 0.2174 0.0791 0.4427
H10? H 0.2661 0.0561 0.5521
C6? C 0.303(2) 0.0470(9) 0.349(4)
H11? H 0.2749 0.0258 0.3499
H12? H 0.2934 0.0572 0.2588
C7? C 0.394(2) 0.0447(9) 0.384(6)
H13? H 0.4276 0.0393 0.3025
H14? H 0.4043 0.0282 0.4550
C8? C 0.4164(14) 0.0766(8) 0.436(4)
H15? H 0.4591 0.0748 0.5121
H16? H 0.4421 0.0895 0.3622
O6? O 0.2028(10) 0.1396(6) 0.4924(16)
C13? C 0.1179(14) 0.1435(11) 0.543(2)
H25? H 0.1164 0.1616 0.6081
H26? H 0.0996 0.1238 0.5906
C14? C 0.0579(17) 0.1501(16) 0.420(3)
H27? H 0.0181 0.1319 0.4035
H28? H 0.0235 0.1697 0.4349
C15? C 0.113(2) 0.1542(13) 0.307(3)
H29? H 0.1228 0.1773 0.2882
H30? H 0.0881 0.1442 0.2233
C16? C 0.194(2) 0.1385(13) 0.347(2)
H31? H 0.1942 0.1161 0.3151
H32? H 0.2435 0.1497 0.3053
O8? O 0.3702(15) 0.1617(6) 0.484(3)
C21? C 0.3235(15) 0.1893(7) 0.435(4)
H41? H 0.2821 0.1966 0.5037
H42? H 0.2915 0.1844 0.3487
C22? C 0.393(2) 0.2152(6) 0.411(3)
H43? H 0.3757 0.2300 0.3366
H44? H 0.4060 0.2276 0.4953
C23? C 0.4659(18) 0.1960(7) 0.373(3)
H45? H 0.5208 0.2075 0.3907
H46? H 0.4618 0.1898 0.2757
C24? C 0.4591(14) 0.1676(7) 0.463(3)
H47? H 0.4862 0.1488 0.4200
H48? H 0.4890 0.1717 0.5520
O13? O 0.8700(14) 0.4151(6) 0.570(2)
C29? C 0.886(3) 0.4472(9) 0.528(5)
H59? H 0.8358 0.4610 0.5442
H60? H 0.8994 0.4479 0.4295
C30? C 0.965(2) 0.4585(8) 0.615(4)
H61? H 1.0179 0.4575 0.5616
H62? H 0.9563 0.4808 0.6466
C31? C 0.969(4) 0.4370(11) 0.728(4)
H63? H 0.9385 0.4458 0.8072
H64? H 1.0301 0.4330 0.7566
C32? C 0.929(3) 0.4074(8) 0.680(4)
H65? H 0.9728 0.3922 0.6482
H66? H 0.8972 0.3971 0.7554
O16? O 0.7085(11) 0.3794(5) 0.5712(19)
C37? C 0.6261(15) 0.3647(7) 0.541(3)
H75? H 0.6170 0.3458 0.5998
H76? H 0.6213 0.3582 0.4440
C38? C 0.5604(17) 0.3918(10) 0.573(4)
H77? H 0.5513 0.4062 0.4940
H78? H 0.5043 0.3828 0.6004
C39? C 0.6031(19) 0.4079(12) 0.685(5)
H79? H 0.5881 0.3978 0.7732
H80? H 0.5856 0.4307 0.6877
C40? C 0.6957(18) 0.4052(9) 0.663(4)
H81? H 0.7179 0.4254 0.6235
H82? H 0.7269 0.4012 0.7506
loop_
_geom_bond_atom_site_label_1
_geom_bond_atom_site_label_2
_geom_bond_site_symmetry_1
_geom_bond_site_symmetry_2
Se1 P1 1_555 1_555
Se2 Se3 1_555 1_555
Se3 P2 1_555 1_555
Se4 P2 1_555 1_555
Se5 P3 1_555 1_555
Se6 Se7 1_555 1_555
Se7 P4 1_555 1_555
Se8 P4 1_555 1_555
P1 Se2 1_555 1_555
P2 O2 1_555 1_555
P3 Se6 1_555 1_555
P4 O11 1_555 1_555
Mg1 O1 1_555 1_555
Mg2 O10 1_555 1_555
O1 P1 1_555 1_555
O2 Mg1 1_555 1_555
O3 Mg1 1_555 1_555
C1 O3 1_555 1_555
H1 C1 1_555 1_555
H2 C1 1_555 1_555
C2 C1 1_555 1_555
H3 C2 1_555 1_555
H4 C2 1_555 1_555
C3 C2 1_555 1_555
H5 C3 1_555 1_555
H6 C3 1_555 1_555
C4 O3 1_555 1_555
H7 C4 1_555 1_555
H8 C4 1_555 1_555
O5 Mg1 1_555 1_555
C9 O5 1_555 1_555
H17 C9 1_555 1_555
H18 C9 1_555 1_555
C10 C9 1_555 1_555
H19 C10 1_555 1_555
H20 C10 1_555 1_555
C11 C10 1_555 1_555
H21 C11 1_555 1_555
H22 C11 1_555 1_555
C12 O5 1_555 1_555
H23 C12 1_555 1_555
H24 C12 1_555 1_555
O7 Mg1 1_555 1_555
C17 O7 1_555 1_555
H33 C17 1_555 1_555
H34 C17 1_555 1_555
C18 C17 1_555 1_555
H35 C18 1_555 1_555
H36 C18 1_555 1_555
C19 C18 1_555 1_555
H37 C19 1_555 1_555
H38 C19 1_555 1_555
C20 O7 1_555 1_555
H39 C20 1_555 1_555
H40 C20 1_555 1_555
O9 Mg1 1_555 1_555
H49 O9 1_555 1_555
H50 O9 1_555 1_555
O10 P3 1_555 1_555
O11 Mg2 1_555 1_555
O12 Mg2 1_555 1_555
C25 O12 1_555 1_555
H51 C25 1_555 1_555
H52 C25 1_555 1_555
C26 C25 1_555 1_555
H53 C26 1_555 1_555
H54 C26 1_555 1_555
C27 C26 1_555 1_555
H55 C27 1_555 1_555
H56 C27 1_555 1_555
C28 O12 1_555 1_555
H57 C28 1_555 1_555
H58 C28 1_555 1_555
O14 Mg2 1_555 1_555
O15 Mg2 1_555 1_555
C33 O15 1_555 1_555
H67 C33 1_555 1_555
H68 C33 1_555 1_555
C34 C33 1_555 1_555
H69 C34 1_555 1_555
H70 C34 1_555 1_555
C35 C34 1_555 1_555
H71 C35 1_555 1_555
H72 C35 1_555 1_555
C36 O15 1_555 1_555
H73 C36 1_555 1_555
H74 C36 1_555 1_555
O17 Mg2 1_555 1_555
H83 O17 1_555 1_555
H84 O17 1_555 1_555
C41 P1 1_555 1_555
C42 C41 1_555 1_555
H85 C42 1_555 1_555
C43 C42 1_555 1_555
H86 C43 1_555 1_555
C44 C43 1_555 1_555
H87 C44 1_555 1_555
C45 C44 1_555 1_555
H88 C45 1_555 1_555
C46 C41 1_555 1_555
H89 C46 1_555 1_555
C47 P2 1_555 1_555
C48 C47 1_555 1_555
H90 C48 1_555 1_555
C49 C48 1_555 1_555
H91 C49 1_555 1_555
C50 C49 1_555 1_555
H92 C50 1_555 1_555
C51 C50 1_555 1_555
H93 C51 1_555 1_555
C52 C47 1_555 1_555
H94 C52 1_555 1_555
C53 P3 1_555 1_555
C54 C53 1_555 1_555
H95 C54 1_555 1_555
C55 C54 1_555 1_555
H96 C55 1_555 1_555
C56 C55 1_555 1_555
H97 C56 1_555 1_555
C57 C56 1_555 1_555
H98 C57 1_555 1_555
C58 C53 1_555 1_555
H99 C58 1_555 1_555
C59 P4 1_555 1_555
C60 C59 1_555 1_555
H100 C60 1_555 1_555
C61 C60 1_555 1_555
H101 C61 1_555 1_555
C62 C61 1_555 1_555
H102 C62 1_555 1_555
C63 C62 1_555 1_555
H103 C63 1_555 1_555
C64 C59 1_555 1_555
H104 C64 1_555 1_555
C65 O14 1_555 1_555
H105 C65 1_555 1_555
H106 C65 1_555 1_555
C66 C65 1_555 1_555
H107 C66 1_555 1_555
H108 C66 1_555 1_555
C67 C66 1_555 1_555
H109 C67 1_555 1_555
H110 C67 1_555 1_555
C68 O14 1_555 1_555
H111 C68 1_555 1_555
H112 C68 1_555 1_555
C3 C4 1_555 1_555
C11 C12 1_555 1_555
C19 C20 1_555 1_555
C27 C28 1_555 1_555
C35 C36 1_555 1_555
C45 C46 1_555 1_555
C51 C52 1_555 1_555
C57 C58 1_555 1_555
C63 C64 1_555 1_555
C67 C68 1_555 1_555

#END
