
#######################################################################
#
#                 Cambridge Crystallographic Data Centre
#                                CCDC 
#
#######################################################################
#
# If this CIF has been generated from an entry in the Cambridge 
# Structural Database, then it will include bibliographic, chemical, 
# crystal, experimental, refinement or atomic coordinate data resulting 
# from the CCDC's data processing and validation procedures.
#
#######################################################################

data_XEXBOU
_chemical_formula_moiety         'C14 H9 F3 N2 O2'
_chemical_name_systematic        
N-[4-(trifluoromethyl)benzene-1-carbonyl]pyridine-2-carboxamide
_symmetry_cell_setting           orthorhombic
_symmetry_space_group_name_H-M   'P b c a'
_symmetry_Int_Tables_number      61
_space_group_name_Hall           '-P 2ac 2ab'
loop_
_symmetry_equiv_pos_site_id
_symmetry_equiv_pos_as_xyz
1 x,y,z
2 1/2+x,1/2-y,-z
3 -x,1/2+y,1/2-z
4 1/2-x,-y,1/2+z
5 -x,-y,-z
6 1/2-x,1/2+y,z
7 x,1/2-y,1/2+z
8 1/2+x,y,1/2-z
_cell_length_a                   10.2234(4)
_cell_length_b                   9.6568(4)
_cell_length_c                   26.0874(12)
_cell_angle_alpha                90
_cell_angle_beta                 90
_cell_angle_gamma                90
_cell_volume                     2575.49
_exptl_crystal_colour            colorless
_exptl_crystal_description       'part of a plate'
_cell_formula_units_Z            8
loop_
_atom_site_label
_atom_site_type_symbol
_atom_site_fract_x
_atom_site_fract_y
_atom_site_fract_z
C1 C 0.44177(11) 0.31030(11) 0.97408(4)
C2 C 0.39258(11) 0.25816(11) 0.92349(4)
C3 C 0.27371(11) 0.18991(12) 0.91792(4)
H1 H 0.2177 0.1778 0.9466
C4 C 0.23731(11) 0.13946(13) 0.87013(4)
H2 H 0.1572 0.0908 0.8662
C5 C 0.31823(12) 0.16042(13) 0.82829(4)
C6 C 0.43664(13) 0.22909(13) 0.83351(5)
H3 H 0.4912 0.2437 0.8045
C7 C 0.47433(12) 0.27601(12) 0.88134(5)
H4 H 0.5565 0.3207 0.8855
C8 C 0.27906(12) 0.10474(14) 0.77700(5)
C9 C 0.36393(11) 0.40401(11) 1.05666(4)
C10 C 0.24322(11) 0.46747(11) 1.07928(4)
C11 C 0.24133(12) 0.49931(12) 1.13117(4)
H5 H 0.3137 0.4777 1.1526
C12 C 0.13114(13) 0.56335(13) 1.15084(5)
H6 H 0.1265 0.5873 1.1861
C13 C 0.02821(12) 0.59188(12) 1.11837(5)
H7 H -0.0483 0.6365 1.1308
C14 C 0.03835(11) 0.55423(12) 1.06715(5)
H8 H -0.0335 0.5730 1.0451
N1 N 0.14384(9) 0.49302(9) 1.04729(3)
N2 N 0.34514(10) 0.35228(11) 1.00773(4)
H9 H 0.2657(16) 0.3563(16) 0.9974(6)
O1 O 0.55761(8) 0.31634(9) 0.98358(3)
O2 O 0.46631(8) 0.39951(9) 1.07981(3)
F1 F 0.3427(8) -0.0113(6) 0.7653(3)
F2 F 0.3033(12) 0.1899(6) 0.73821(18)
F3 F 0.1534(4) 0.0680(13) 0.7736(2)
F4? F 0.3776(9) 0.049(2) 0.7506(4)
F5? F 0.2312(19) 0.1993(11) 0.7449(5)
F6? F 0.1912(16) 0.0028(15) 0.7788(5)
F7? F 0.2987(12) -0.0307(4) 0.7735(4)
F8? F 0.3508(9) 0.1609(10) 0.7397(2)
F9? F 0.1552(5) 0.1375(13) 0.7667(3)
loop_
_geom_bond_atom_site_label_1
_geom_bond_atom_site_label_2
_geom_bond_site_symmetry_1
_geom_bond_site_symmetry_2
C1 C2 1_555 1_555
C2 C3 1_555 1_555
C3 H1 1_555 1_555
C4 C3 1_555 1_555
H2 C4 1_555 1_555
C5 C4 1_555 1_555
C6 C5 1_555 1_555
H3 C6 1_555 1_555
C7 C2 1_555 1_555
H4 C7 1_555 1_555
C8 C5 1_555 1_555
C9 C10 1_555 1_555
C10 C11 1_555 1_555
C11 H5 1_555 1_555
C12 C11 1_555 1_555
H6 C12 1_555 1_555
C13 C12 1_555 1_555
H7 C13 1_555 1_555
C14 C13 1_555 1_555
H8 C14 1_555 1_555
N1 C10 1_555 1_555
N2 C1 1_555 1_555
H9 N2 1_555 1_555
O1 C1 1_555 1_555
O2 C9 1_555 1_555
F1 C8 1_555 1_555
F2 C8 1_555 1_555
F3 C8 1_555 1_555
C6 C7 1_555 1_555
C9 N2 1_555 1_555
C14 N1 1_555 1_555

#END
