
#######################################################################
#
#                 Cambridge Crystallographic Data Centre
#                                CCDC 
#
#######################################################################
#
# If this CIF has been generated from an entry in the Cambridge 
# Structural Database, then it will include bibliographic, chemical, 
# crystal, experimental, refinement or atomic coordinate data resulting 
# from the CCDC's data processing and validation procedures.
#
#######################################################################

data_XEXFOY
_chemical_formula_moiety         'C90 H52 Cl4 N12 O8'
_chemical_name_systematic        
"10,10',26,26'-tetrachloro-18,18'-bis(diphenylmethylene)-2,2'-bi(7,13,23,29-tetraoxa-9,11,25,27,35,40-hexaazaheptacyclo[28.2.2.2^3,6^.2^14,17^.2^19,22^.1^8,12^.1^24,28^]dotetracontane)-1(32),1'(32'),2(2'),3,3',5,5',8(40),8'(40'),9,9',11,11',14,14',16,16',19,19',21,21',24(35),24'(35'),25,25',27,27',30,30',33,33',36,36',38,38',41,41'-heptatriacontaene unknown solvate"
_symmetry_cell_setting           monoclinic
_symmetry_space_group_name_H-M   'P 21/n'
_symmetry_Int_Tables_number      14
_space_group_name_Hall           '-P 2yn'
loop_
_symmetry_equiv_pos_site_id
_symmetry_equiv_pos_as_xyz
1 x,y,z
2 1/2-x,1/2+y,1/2-z
3 -x,-y,-z
4 1/2+x,1/2-y,1/2+z
_cell_length_a                   18.4479(3)
_cell_length_b                   16.7177(3)
_cell_length_c                   32.6769(7)
_cell_angle_alpha                90
_cell_angle_beta                 93.2044(18)
_cell_angle_gamma                90
_cell_volume                     10062
_exptl_crystal_colour            colorless
_exptl_crystal_description       Prism
_cell_formula_units_Z            4
_chemical_properties_physical    ', Efflorescent'
_exptl_crystal_preparation       'Fiber, Luminescent'
loop_
_atom_site_label
_atom_site_type_symbol
_atom_site_fract_x
_atom_site_fract_y
_atom_site_fract_z
Cl1 Cl 0.16088(2) 1.11328(3) 0.71309(2)
Cl2 Cl 0.34818(2) 0.13780(2) 0.78929(2)
Cl3 Cl 0.58305(2) 1.06538(2) 0.39811(2)
Cl4 Cl 1.08387(2) 0.45888(3) 0.61530(3)
O1 O 0.34891(5) 0.91373(6) 0.71813(3)
O2 O 0.15633(6) 0.88310(6) 0.62314(4)
O3 O 0.25262(5) 0.35035(6) 0.70248(3)
O4 O 0.48145(7) 0.37935(8) 0.76432(5)
O5 O 0.54360(5) 0.85106(6) 0.49380(3)
O6 O 0.64625(6) 1.08603(6) 0.54313(3)
O7 O 0.95495(6) 0.70456(6) 0.63343(4)
O8 O 0.82346(5) 0.47040(6) 0.62552(3)
N1 N 0.25947(7) 1.00366(7) 0.71469(4)
N2 N 0.15988(7) 0.98886(8) 0.66537(4)
N3 N 0.25468(6) 0.89105(7) 0.66982(4)
N4 N 0.36722(7) 0.37213(8) 0.73197(5)
N5 N 0.29795(6) 0.25578(7) 0.74491(4)
N6 N 0.41758(7) 0.26835(9) 0.77520(5)
N7 N 0.59550(6) 0.96573(7) 0.52184(4)
N8 N 0.56302(6) 0.95172(7) 0.45041(4)
N9 N 0.61703(7) 1.07331(7) 0.47600(4)
N10 N 0.88343(6) 0.59146(7) 0.62947(4)
N11 N 0.94403(7) 0.46711(8) 0.62038(5)
N12 N 1.01186(7) 0.58906(8) 0.62449(5)
C1 C 0.52480(7) 0.65618(8) 0.66863(4)
C2 C 0.56892(7) 0.65813(8) 0.63675(4)
C3 C 0.47614(7) 0.72379(8) 0.67905(4)
C4 C 0.50096(7) 0.80249(8) 0.67931(4)
H1 H 0.5484 0.8137 0.6710
C5 C 0.45725(8) 0.86504(9) 0.69156(4)
H2 H 0.4748 0.9185 0.6920
C6 C 0.38807(8) 0.84807(9) 0.70314(4)
C7 C 0.36189(8) 0.77077(9) 0.70401(5)
H3 H 0.3144 0.7602 0.7125
C8 C 0.40614(7) 0.70907(9) 0.69227(5)
H4 H 0.3889 0.6556 0.6932
C9 C 0.28504(8) 0.93546(9) 0.69974(4)
C10 C 0.19740(8) 1.02533(9) 0.69578(5)
C11 C 0.19266(8) 0.92146(9) 0.65408(5)
C12 C 0.18484(8) 0.80931(9) 0.60953(5)
C13 C 0.24889(8) 0.80807(9) 0.58936(5)
H5 H 0.2737 0.8563 0.5838
C14 C 0.27596(8) 0.73480(9) 0.57756(4)
H6 H 0.3202 0.7329 0.5640
C15 C 0.23935(7) 0.66349(8) 0.58524(4)
C16 C 0.17318(8) 0.66784(9) 0.60404(4)
H7 H 0.1468 0.6202 0.6087
C17 C 0.14547(8) 0.74128(9) 0.61609(5)
H8 H 0.1003 0.7442 0.6286
C18 C 0.27409(7) 0.58440(8) 0.57701(4)
C19 C 0.30811(8) 0.56949(8) 0.54185(4)
C20 C 0.29696(9) 0.62011(9) 0.50431(5)
C21 C 0.22695(10) 0.64099(11) 0.48955(5)
H9 H 0.1862 0.6230 0.5035
C22 C 0.21658(12) 0.68781(12) 0.45465(6)
H10 H 0.1688 0.7009 0.4445
C23 C 0.27591(14) 0.71547(12) 0.43452(6)
H11 H 0.2689 0.7491 0.4112
C24 C 0.34483(13) 0.69401(11) 0.44841(6)
H12 H 0.3854 0.7125 0.4344
C25 C 0.35560(10) 0.64557(10) 0.48268(5)
H13 H 0.4034 0.6296 0.4915
C26 C 0.35942(8) 0.50050(9) 0.53885(5)
C27 C 0.34817(10) 0.44270(10) 0.50883(5)
H14 H 0.3089 0.4483 0.4890
C28 C 0.39375(11) 0.37650(10) 0.50745(6)
H15 H 0.3851 0.3369 0.4869
C29 C 0.45147(10) 0.36828(10) 0.53585(6)
H16 H 0.4818 0.3224 0.5354
C30 C 0.46483(9) 0.42690(10) 0.56485(6)
H17 H 0.5055 0.4223 0.5838
C31 C 0.41915(8) 0.49266(10) 0.56653(5)
H18 H 0.4287 0.5327 0.5868
C32 C 0.27143(7) 0.52341(8) 0.61035(4)
C33 C 0.25888(8) 0.44223(9) 0.60127(5)
H19 H 0.2531 0.4257 0.5735
C34 C 0.25477(8) 0.38602(9) 0.63219(5)
H20 H 0.2466 0.3313 0.6257
C35 C 0.26271(7) 0.41042(9) 0.67272(5)
C36 C 0.27340(8) 0.48962(9) 0.68295(5)
H21 H 0.2779 0.5057 0.7109
C37 C 0.27752(7) 0.54575(9) 0.65170(4)
H22 H 0.2846 0.6005 0.6586
C38 C 0.30891(8) 0.32632(9) 0.72713(5)
C39 C 0.35511(8) 0.23131(9) 0.76755(5)
C40 C 0.41922(9) 0.33955(11) 0.75641(6)
C41 C 0.49505(9) 0.44836(12) 0.74071(7)
C42 C 0.50449(9) 0.51983(12) 0.76070(6)
H23 H 0.5024 0.5229 0.7896
C43 C 0.51727(8) 0.58823(10) 0.73756(5)
H24 H 0.5238 0.6384 0.7509
C44 C 0.52055(7) 0.58362(9) 0.69508(5)
C45 C 0.51314(8) 0.50867(9) 0.67614(6)
H25 H 0.5166 0.5044 0.6473
C46 C 0.50083(9) 0.44059(10) 0.69898(7)
H26 H 0.4965 0.3897 0.6862
C47 C 0.56129(7) 0.71520(8) 0.60167(4)
C48 C 0.49445(7) 0.72791(8) 0.58036(4)
H27 H 0.4520 0.7038 0.5899
C49 C 0.48919(7) 0.77529(8) 0.54534(4)
H28 H 0.4437 0.7826 0.5307
C50 C 0.55108(8) 0.81171(8) 0.53216(4)
C51 C 0.61803(8) 0.80157(8) 0.55280(5)
H29 H 0.6600 0.8276 0.5437
C52 C 0.62257(8) 0.75270(8) 0.58700(5)
H30 H 0.6685 0.7443 0.6009
C53 C 0.56946(7) 0.92561(8) 0.48923(4)
C54 C 0.58819(8) 1.02552(9) 0.44704(5)
C55 C 0.61856(8) 1.03879(8) 0.51304(4)
C56 C 0.66519(8) 1.04964(8) 0.58175(4)
C57 C 0.61297(8) 1.01788(8) 0.60554(5)
H31 H 0.5628 1.0240 0.5979
C58 C 0.63535(8) 0.97658(8) 0.64098(4)
H32 H 0.6000 0.9533 0.6574
C59 C 0.70881(8) 0.96879(8) 0.65283(4)
C60 C 0.75952(8) 1.00726(9) 0.62930(5)
H33 H 0.8095 1.0056 0.6379
C61 C 0.73795(8) 1.04787(9) 0.59358(5)
H34 H 0.7726 1.0738 0.5777
C62 C 0.73419(8) 0.91280(8) 0.68654(5)
C63 C 0.70549(9) 0.91097(8) 0.72394(5)
C64 C 0.65317(9) 0.97200(9) 0.73818(5)
C65 C 0.59275(9) 0.94850(9) 0.75928(5)
H35 H 0.5855 0.8934 0.7649
C66 C 0.54326(10) 1.00466(10) 0.77207(5)
H36 H 0.5016 0.9876 0.7855
C67 C 0.55441(10) 1.08541(10) 0.76529(5)
H37 H 0.5207 1.1237 0.7742
C68 C 0.61502(10) 1.11004(9) 0.74546(5)
H38 H 0.6233 1.1654 0.7413
C69 C 0.66365(9) 1.05398(9) 0.73172(5)
H39 H 0.7046 1.0714 0.7177
C70 C 0.72300(10) 0.84578(9) 0.75458(5)
C71 C 0.69351(10) 0.76942(9) 0.74889(5)
H40 H 0.6641 0.7577 0.7248
C72 C 0.70692(12) 0.71059(10) 0.77822(6)
H41 H 0.6858 0.6591 0.7745
C73 C 0.75106(14) 0.72649(11) 0.81301(6)
H42 H 0.7608 0.6857 0.8328
C74 C 0.78108(15) 0.80201(12) 0.81894(6)
H43 H 0.8115 0.8129 0.8427
C75 C 0.76658(13) 0.86154(10) 0.79007(6)
H44 H 0.7864 0.9135 0.7944
C76 C 0.79101(8) 0.85470(8) 0.67362(5)
C77 C 0.78690(8) 0.82401(9) 0.63384(5)
H45 H 0.7477 0.8399 0.6155
C78 C 0.83811(9) 0.77100(9) 0.62015(6)
H46 H 0.8336 0.7495 0.5932
C79 C 0.89571(8) 0.75050(9) 0.64680(6)
C80 C 0.90325(9) 0.78053(9) 0.68556(6)
H47 H 0.9439 0.7660 0.7031
C81 C 0.85083(8) 0.83280(9) 0.69934(5)
H48 H 0.8559 0.8536 0.7264
C82 C 0.94843(8) 0.62553(9) 0.62884(5)
C83 C 1.00391(8) 0.51139(10) 0.62051(6)
C84 C 0.88538(8) 0.51271(9) 0.62535(5)
C85 C 0.75838(7) 0.51397(8) 0.62973(5)
C86 C 0.74779(7) 0.55622(8) 0.66518(4)
H49 H 0.7832 0.5554 0.6874
C87 C 0.68428(7) 0.59987(8) 0.66750(4)
H50 H 0.6761 0.6290 0.6918
C88 C 0.63211(7) 0.60186(8) 0.63482(4)
C89 C 0.64395(8) 0.55618(8) 0.60014(5)
H51 H 0.6085 0.5559 0.5779
C90 C 0.70686(8) 0.51090(8) 0.59761(5)
H52 H 0.7141 0.4786 0.5743
loop_
_geom_bond_atom_site_label_1
_geom_bond_atom_site_label_2
_geom_bond_site_symmetry_1
_geom_bond_site_symmetry_2
Cl1 C10 1_555 1_555
Cl2 C39 1_555 1_555
Cl3 C54 1_555 1_555
Cl4 C83 1_555 1_555
O1 C6 1_555 1_555
O2 C11 1_555 1_555
O3 C35 1_555 1_555
O4 C40 1_555 1_555
O5 C50 1_555 1_555
O6 C55 1_555 1_555
O7 C79 1_555 1_555
O8 C84 1_555 1_555
N1 C9 1_555 1_555
N2 C10 1_555 1_555
N3 C9 1_555 1_555
N4 C38 1_555 1_555
N5 C38 1_555 1_555
N6 C39 1_555 1_555
N7 C53 1_555 1_555
N8 C53 1_555 1_555
N9 C54 1_555 1_555
N10 C82 1_555 1_555
N11 C83 1_555 1_555
N12 C82 1_555 1_555
C1 C2 1_555 1_555
C2 C47 1_555 1_555
C3 C1 1_555 1_555
C4 C3 1_555 1_555
H1 C4 1_555 1_555
C5 C4 1_555 1_555
H2 C5 1_555 1_555
C6 C5 1_555 1_555
C7 C6 1_555 1_555
H3 C7 1_555 1_555
C8 C3 1_555 1_555
H4 C8 1_555 1_555
C9 O1 1_555 1_555
C10 N1 1_555 1_555
C11 N2 1_555 1_555
C12 O2 1_555 1_555
C13 C12 1_555 1_555
H5 C13 1_555 1_555
C14 C13 1_555 1_555
H6 C14 1_555 1_555
C15 C14 1_555 1_555
C16 C15 1_555 1_555
H7 C16 1_555 1_555
C17 C12 1_555 1_555
H8 C17 1_555 1_555
C18 C15 1_555 1_555
C19 C18 1_555 1_555
C20 C19 1_555 1_555
C21 C20 1_555 1_555
H9 C21 1_555 1_555
C22 C21 1_555 1_555
H10 C22 1_555 1_555
C23 C22 1_555 1_555
H11 C23 1_555 1_555
C24 C23 1_555 1_555
H12 C24 1_555 1_555
C25 C20 1_555 1_555
H13 C25 1_555 1_555
C26 C19 1_555 1_555
C27 C26 1_555 1_555
H14 C27 1_555 1_555
C28 C27 1_555 1_555
H15 C28 1_555 1_555
C29 C28 1_555 1_555
H16 C29 1_555 1_555
C30 C29 1_555 1_555
H17 C30 1_555 1_555
C31 C26 1_555 1_555
H18 C31 1_555 1_555
C32 C18 1_555 1_555
C33 C32 1_555 1_555
H19 C33 1_555 1_555
C34 C33 1_555 1_555
H20 C34 1_555 1_555
C35 C34 1_555 1_555
C36 C35 1_555 1_555
H21 C36 1_555 1_555
C37 C32 1_555 1_555
H22 C37 1_555 1_555
C38 O3 1_555 1_555
C39 N5 1_555 1_555
C40 N4 1_555 1_555
C41 O4 1_555 1_555
C42 C41 1_555 1_555
H23 C42 1_555 1_555
C43 C42 1_555 1_555
H24 C43 1_555 1_555
C44 C1 1_555 1_555
C45 C44 1_555 1_555
H25 C45 1_555 1_555
C46 C41 1_555 1_555
H26 C46 1_555 1_555
C47 C48 1_555 1_555
C48 H27 1_555 1_555
C49 C48 1_555 1_555
H28 C49 1_555 1_555
C50 C49 1_555 1_555
C51 C50 1_555 1_555
H29 C51 1_555 1_555
C52 C47 1_555 1_555
H30 C52 1_555 1_555
C53 O5 1_555 1_555
C54 N8 1_555 1_555
C55 N7 1_555 1_555
C56 O6 1_555 1_555
C57 C56 1_555 1_555
H31 C57 1_555 1_555
C58 C57 1_555 1_555
H32 C58 1_555 1_555
C59 C58 1_555 1_555
C60 C59 1_555 1_555
H33 C60 1_555 1_555
C61 C56 1_555 1_555
H34 C61 1_555 1_555
C62 C59 1_555 1_555
C63 C62 1_555 1_555
C64 C63 1_555 1_555
C65 C64 1_555 1_555
H35 C65 1_555 1_555
C66 C65 1_555 1_555
H36 C66 1_555 1_555
C67 C66 1_555 1_555
H37 C67 1_555 1_555
C68 C67 1_555 1_555
H38 C68 1_555 1_555
C69 C64 1_555 1_555
H39 C69 1_555 1_555
C70 C63 1_555 1_555
C71 C70 1_555 1_555
H40 C71 1_555 1_555
C72 C71 1_555 1_555
H41 C72 1_555 1_555
C73 C72 1_555 1_555
H42 C73 1_555 1_555
C74 C73 1_555 1_555
H43 C74 1_555 1_555
C75 C70 1_555 1_555
H44 C75 1_555 1_555
C76 C62 1_555 1_555
C77 C76 1_555 1_555
H45 C77 1_555 1_555
C78 C77 1_555 1_555
H46 C78 1_555 1_555
C79 C78 1_555 1_555
C80 C79 1_555 1_555
H47 C80 1_555 1_555
C81 C76 1_555 1_555
H48 C81 1_555 1_555
C82 O7 1_555 1_555
C83 N12 1_555 1_555
C84 N10 1_555 1_555
C85 O8 1_555 1_555
C86 C85 1_555 1_555
H49 C86 1_555 1_555
C87 C86 1_555 1_555
H50 C87 1_555 1_555
C88 C2 1_555 1_555
C89 C88 1_555 1_555
H51 C89 1_555 1_555
C90 C85 1_555 1_555
H52 C90 1_555 1_555
N3 C11 1_555 1_555
N6 C40 1_555 1_555
N9 C55 1_555 1_555
N11 C84 1_555 1_555
C7 C8 1_555 1_555
C16 C17 1_555 1_555
C24 C25 1_555 1_555
C30 C31 1_555 1_555
C36 C37 1_555 1_555
C43 C44 1_555 1_555
C45 C46 1_555 1_555
C51 C52 1_555 1_555
C60 C61 1_555 1_555
C68 C69 1_555 1_555
C74 C75 1_555 1_555
C80 C81 1_555 1_555
C87 C88 1_555 1_555
C89 C90 1_555 1_555

#END
