
#######################################################################
#
#                 Cambridge Crystallographic Data Centre
#                                CCDC 
#
#######################################################################
#
# If this CIF has been generated from an entry in the Cambridge 
# Structural Database, then it will include bibliographic, chemical, 
# crystal, experimental, refinement or atomic coordinate data resulting 
# from the CCDC's data processing and validation procedures.
#
#######################################################################

data_XEXQUN
_chemical_formula_moiety         'C76 H38 O10,2(C1 H2 Cl2)'
_chemical_name_systematic        
'38,44,53,59-tetrakis(t-Butylperoxy)-41,57-dihydroxy-C60fullerene dichloromethane solvate'
_symmetry_cell_setting           triclinic
_symmetry_space_group_name_H-M   'P -1'
_symmetry_Int_Tables_number      2
_space_group_name_Hall           '-P 1'
loop_
_symmetry_equiv_pos_site_id
_symmetry_equiv_pos_as_xyz
1 x,y,z
2 -x,-y,-z
_cell_length_a                   14.204(3)
_cell_length_b                   14.679(3)
_cell_length_c                   14.867(3)
_cell_angle_alpha                93.40(3)
_cell_angle_beta                 97.88(3)
_cell_angle_gamma                114.35(3)
_cell_volume                     2774.23
_exptl_crystal_colour            red
_exptl_crystal_description       block
_cell_formula_units_Z            2
_exptl_crystal_recrystallization_method dichloromethane/ethanol
loop_
_atom_site_label
_atom_site_type_symbol
_atom_site_fract_x
_atom_site_fract_y
_atom_site_fract_z
Cl1 Cl 0.3382(2) 0.2495(2) 0.10222(18)
Cl2 Cl 0.4074(3) 0.3915(3) 0.2645(2)
C77 C 0.4368(7) 0.3126(7) 0.1943(8)
H39 H 0.5009 0.3521 0.1724
H40 H 0.4493 0.2640 0.2297
O1 O 0.8929(3) 0.4542(3) 0.4533(3)
H1 H 0.9489 0.4746 0.4889
O2 O 0.7160(3) 0.4255(3) 0.2406(3)
H2 H 0.7058 0.4441 0.1908
O3 O 0.8798(3) 0.4970(3) 0.1598(2)
O4 O 0.9206(3) 0.5705(3) 0.2443(2)
O5 O 0.5935(3) 0.2482(3) 0.0204(3)
O6 O 0.6354(3) 0.3573(3) 0.0384(3)
O7 O 0.4514(3) 0.0626(3) 0.2004(2)
O8 O 0.4316(3) 0.1028(3) 0.2858(3)
O9 O 0.6248(3) 0.1763(3) 0.4707(2)
O10 O 0.6888(3) 0.2753(4) 0.5281(3)
C1 C 1.0684(5) 0.0898(6) 0.2187(5)
C2 C 1.0176(5) 0.0214(5) 0.2811(5)
C3 C 0.9256(5) -0.0592(5) 0.2316(5)
C4 C 0.9148(6) -0.0471(5) 0.1346(4)
C5 C 1.0061(5) 0.0468(5) 0.1269(4)
C6 C 0.9948(5) 0.1098(5) 0.0665(4)
C7 C 1.0466(5) 0.2211(5) 0.0945(4)
C8 C 1.1051(4) 0.2612(5) 0.1798(4)
C9 C 1.1186(5) 0.1946(5) 0.2457(4)
C10 C 1.1145(5) 0.2331(5) 0.3344(4)
C11 C 1.0669(5) 0.1714(5) 0.3942(4)
C12 C 1.0182(5) 0.0624(6) 0.3669(5)
C13 C 0.9210(5) 0.0172(6) 0.4058(5)
C14 C 0.8332(5) -0.0587(5) 0.3600(4)
C15 C 0.8359(6) -0.0997(5) 0.2674(5)
C16 C 0.7340(5) -0.1266(4) 0.2124(4)
C17 C 0.7259(5) -0.1109(5) 0.1226(4)
C18 C 0.8225(5) -0.0693(5) 0.0841(4)
C19 C 0.8097(5) -0.0043(5) 0.0193(4)
C20 C 0.8936(5) 0.0843(5) 0.0112(4)
C21 C 0.8814(5) 0.1781(5) 0.0039(4)
C22 C 0.9732(5) 0.2607(5) 0.0561(4)
C23 C 0.9630(4) 0.3359(4) 0.1033(4)
C24 C 1.0248(5) 0.3780(5) 0.1947(4)
C25 C 1.0955(4) 0.3403(4) 0.2305(4)
C26 C 1.1037(4) 0.3260(4) 0.3261(4)
C27 C 1.0399(4) 0.3490(5) 0.3787(4)
C28 C 0.9894(4) 0.2849(5) 0.4417(4)
C29 C 1.0030(4) 0.1965(5) 0.4508(4)
C30 C 0.9148(5) 0.1014(5) 0.4577(4)
C31 C 0.8169(4) 0.1058(5) 0.4583(4)
C32 C 0.7224(5) 0.0223(5) 0.4043(4)
C33 C 0.7324(5) -0.0573(5) 0.3582(4)
C34 C 0.6698(5) -0.0988(4) 0.2679(4)
C35 C 0.6038(4) -0.0582(4) 0.2308(4)
C36 C 0.5944(4) 0.0229(4) 0.2819(4)
C37 C 0.6524(4) 0.0618(5) 0.3670(4)
C38 C 0.6910(4) 0.1704(5) 0.4067(4)
C39 C 0.8043(5) 0.1955(5) 0.4528(4)
C40 C 0.8889(5) 0.2850(5) 0.4467(3)
C41 C 0.8797(4) 0.3700(5) 0.3963(4)
C42 C 0.9705(4) 0.3917(4) 0.3406(4)
C43 C 0.9622(4) 0.4046(4) 0.2490(4)
C44 C 0.8644(4) 0.4016(4) 0.1908(4)
C45 C 0.8610(5) 0.3375(4) 0.1030(4)
C46 C 0.7742(4) 0.2593(4) 0.0543(3)
C47 C 0.7847(5) 0.1766(5) 0.0082(4)
C48 C 0.6933(4) 0.0829(5) 0.0126(4)
C49 C 0.7058(5) -0.0032(5) 0.0187(4)
C50 C 0.6546(5) -0.0699(4) 0.0820(4)
C51 C 0.5977(4) -0.0432(4) 0.1354(4)
C52 C 0.5806(4) 0.0453(4) 0.1254(4)
C53 C 0.5602(4) 0.0837(4) 0.2134(4)
C54 C 0.6337(4) 0.1928(4) 0.2398(4)
C55 C 0.6976(4) 0.2373(4) 0.3316(3)
C56 C 0.7769(4) 0.3246(5) 0.3267(4)
C57 C 0.7645(4) 0.3563(4) 0.2320(3)
C58 C 0.6761(4) 0.2565(4) 0.1787(4)
C59 C 0.6631(4) 0.2219(4) 0.0776(3)
C60 C 0.6266(4) 0.1087(4) 0.0634(3)
C61 C 0.9917(5) 0.6664(4) 0.2199(4)
C62 C 1.0852(6) 0.6571(6) 0.1897(6)
H3 H 1.1188 0.6331 0.2369
H4 H 1.1341 0.7219 0.1784
H5 H 1.0620 0.6104 0.1346
C63 C 0.9360 0.7049 0.1509
H6 H 0.8787 0.7109 0.1741
H7 H 0.9095 0.6589 0.0953
H8 H 0.9840 0.7698 0.1389
C64 C 1.0252(7) 0.7345(6) 0.3125(5)
H9 H 1.0618 0.7099 0.3566
H10 H 0.9640 0.7338 0.3336
H11 H 1.0706 0.8022 0.3048
C65 C 0.6300 0.4006 -0.0444
C66 C 0.6747(9) 0.5092(7) -0.0158(9)
H12 H 0.7460 0.5320 0.0149
H13 H 0.6344 0.5235 0.0251
H14 H 0.6732 0.5435 -0.0687
C67 C 0.5199 0.3534 -0.0933
H15 H 0.4756 0.3651 -0.0552
H16 H 0.4979 0.2822 -0.1075
H17 H 0.5149 0.3823 -0.1490
C68 C 0.7043 0.3855 -0.0999
H18 H 0.7744 0.4173 -0.0654
H19 H 0.7014 0.4148 -0.1557
H20 H 0.6845 0.3146 -0.1141
C69 C 0.3330(4) 0.0243(5) 0.3048(4)
C70 C 0.3535(7) -0.0600(7) 0.3403(7)
H21 H 0.4077 -0.0340 0.3937
H22 H 0.3756 -0.0911 0.2940
H23 H 0.2904 -0.1090 0.3561
C71 C 0.2493(5) -0.0097(6) 0.2222(4)
H24 H 0.2401 0.0473 0.2016
H25 H 0.1847 -0.0570 0.2370
H26 H 0.2691 -0.0415 0.1745
C72 C 0.3096(6) 0.0879(7) 0.3794(4)
H27 H 0.2984 0.1415 0.3531
H28 H 0.3683 0.1158 0.4291
H29 H 0.2479 0.0454 0.4017
C73 C 0.6206(5) 0.3196(5) 0.5503(5)
C74 C 0.5406(7) 0.2460(7) 0.6070(6)
H30 H 0.4924 0.1861 0.5674
H31 H 0.5023 0.2792 0.6318
H32 H 0.5787 0.2284 0.6560
C75 C 0.5674(8) 0.3370(7) 0.4610(6)
H33 H 0.5198 0.2732 0.4267
H34 H 0.6196 0.3732 0.4258
H35 H 0.5292 0.3756 0.4744
C76 C 0.6956(6) 0.4149(6) 0.6101(5)
H36 H 0.7445 0.4575 0.5752
H37 H 0.7331 0.3989 0.6608
H38 H 0.6572 0.4494 0.6326
Cl3 Cl 0.6879 0.6417 0.4742
Cl4 Cl 0.6871 0.6310 0.2813
C78 C 0.7403 0.6092 0.3858
H41 H 0.7260 0.5385 0.3833
H42 H 0.8158 0.6484 0.3974
loop_
_geom_bond_atom_site_label_1
_geom_bond_atom_site_label_2
_geom_bond_site_symmetry_1
_geom_bond_site_symmetry_2
Cl1 C77 1_555 1_555
Cl2 C77 1_555 1_555
O1 H1 1_555 1_555
O2 H2 1_555 1_555
O3 O4 1_555 1_555
O4 C61 1_555 1_555
O5 O6 1_555 1_555
O6 C65 1_555 1_555
O7 O8 1_555 1_555
O8 C69 1_555 1_555
O9 O10 1_555 1_555
O10 C73 1_555 1_555
C1 C2 1_555 1_555
C2 C3 1_555 1_555
C3 C4 1_555 1_555
C4 C5 1_555 1_555
C5 C1 1_555 1_555
C6 C5 1_555 1_555
C7 C6 1_555 1_555
C8 C7 1_555 1_555
C9 C1 1_555 1_555
C10 C9 1_555 1_555
C11 C10 1_555 1_555
C12 C2 1_555 1_555
C13 C12 1_555 1_555
C14 C13 1_555 1_555
C15 C3 1_555 1_555
C16 C15 1_555 1_555
C17 C16 1_555 1_555
C18 C4 1_555 1_555
C19 C18 1_555 1_555
C20 C6 1_555 1_555
C21 C20 1_555 1_555
C22 C7 1_555 1_555
C23 C22 1_555 1_555
C24 C23 1_555 1_555
C25 C8 1_555 1_555
C26 C10 1_555 1_555
C27 C26 1_555 1_555
C28 C27 1_555 1_555
C29 C11 1_555 1_555
C30 C13 1_555 1_555
C31 C30 1_555 1_555
C32 C31 1_555 1_555
C33 C14 1_555 1_555
C34 C16 1_555 1_555
C35 C34 1_555 1_555
C36 C35 1_555 1_555
C37 C32 1_555 1_555
C38 O9 1_555 1_555
C39 C31 1_555 1_555
C40 C28 1_555 1_555
C41 O1 1_555 1_555
C42 C27 1_555 1_555
C43 C24 1_555 1_555
C44 O3 1_555 1_555
C45 C23 1_555 1_555
C46 C45 1_555 1_555
C47 C21 1_555 1_555
C48 C47 1_555 1_555
C49 C19 1_555 1_555
C50 C17 1_555 1_555
C51 C35 1_555 1_555
C52 C51 1_555 1_555
C53 O7 1_555 1_555
C54 C53 1_555 1_555
C55 C38 1_555 1_555
C56 C41 1_555 1_555
C57 O2 1_555 1_555
C58 C54 1_555 1_555
C59 O5 1_555 1_555
C60 C48 1_555 1_555
C61 C62 1_555 1_555
C62 H3 1_555 1_555
H4 C62 1_555 1_555
H5 C62 1_555 1_555
C63 C61 1_555 1_555
H6 C63 1_555 1_555
H7 C63 1_555 1_555
H8 C63 1_555 1_555
C64 C61 1_555 1_555
H9 C64 1_555 1_555
H10 C64 1_555 1_555
H11 C64 1_555 1_555
C65 C66 1_555 1_555
C66 H12 1_555 1_555
H13 C66 1_555 1_555
H14 C66 1_555 1_555
C67 C65 1_555 1_555
H15 C67 1_555 1_555
H16 C67 1_555 1_555
H17 C67 1_555 1_555
C68 C65 1_555 1_555
H18 C68 1_555 1_555
H19 C68 1_555 1_555
H20 C68 1_555 1_555
C69 C70 1_555 1_555
C70 H21 1_555 1_555
H22 C70 1_555 1_555
H23 C70 1_555 1_555
C71 C69 1_555 1_555
H24 C71 1_555 1_555
H25 C71 1_555 1_555
H26 C71 1_555 1_555
C72 C69 1_555 1_555
H27 C72 1_555 1_555
H28 C72 1_555 1_555
H29 C72 1_555 1_555
C73 C74 1_555 1_555
C74 H30 1_555 1_555
H31 C74 1_555 1_555
H32 C74 1_555 1_555
C75 C73 1_555 1_555
H33 C75 1_555 1_555
H34 C75 1_555 1_555
H35 C75 1_555 1_555
C76 C73 1_555 1_555
H36 C76 1_555 1_555
H37 C76 1_555 1_555
H38 C76 1_555 1_555
C77 H39 1_555 1_555
H40 C77 1_555 1_555
Cl3 C78 1_555 1_555
Cl4 C78 1_555 1_555
C78 H41 1_555 1_555
H42 C78 1_555 1_555
C8 C9 1_555 1_555
C11 C12 1_555 1_555
C14 C15 1_555 1_555
C17 C18 1_555 1_555
C19 C20 1_555 1_555
C21 C22 1_555 1_555
C24 C25 1_555 1_555
C25 C26 1_555 1_555
C28 C29 1_555 1_555
C29 C30 1_555 1_555
C32 C33 1_555 1_555
C33 C34 1_555 1_555
C36 C37 1_555 1_555
C36 C53 1_555 1_555
C37 C38 1_555 1_555
C38 C39 1_555 1_555
C39 C40 1_555 1_555
C40 C41 1_555 1_555
C41 C42 1_555 1_555
C42 C43 1_555 1_555
C43 C44 1_555 1_555
C44 C45 1_555 1_555
C44 C57 1_555 1_555
C46 C47 1_555 1_555
C46 C59 1_555 1_555
C48 C49 1_555 1_555
C49 C50 1_555 1_555
C50 C51 1_555 1_555
C52 C53 1_555 1_555
C52 C60 1_555 1_555
C54 C55 1_555 1_555
C55 C56 1_555 1_555
C56 C57 1_555 1_555
C57 C58 1_555 1_555
C58 C59 1_555 1_555
C59 C60 1_555 1_555

#END
