
#######################################################################
#
#                 Cambridge Crystallographic Data Centre
#                                CCDC 
#
#######################################################################
#
# If this CIF has been generated from an entry in the Cambridge 
# Structural Database, then it will include bibliographic, chemical, 
# crystal, experimental, refinement or atomic coordinate data resulting 
# from the CCDC's data processing and validation procedures.
#
#######################################################################

data_XEXRAU
_chemical_formula_moiety         'C76 H36 Cl2 O9,C1 S2'
_chemical_name_systematic        
'46,49,52,55-tetrakis(t-Butylperoxy)-43,59-dichloro-58,60-epoxy-C60fullerene carbon disulfide solvate'
_symmetry_cell_setting           monoclinic
_symmetry_space_group_name_H-M   'P 21/n'
_symmetry_Int_Tables_number      14
_space_group_name_Hall           '-P 2yn'
loop_
_symmetry_equiv_pos_site_id
_symmetry_equiv_pos_as_xyz
1 x,y,z
2 1/2-x,1/2+y,1/2-z
3 -x,-y,-z
4 1/2+x,1/2-y,1/2+z
_cell_length_a                   14.620(3)
_cell_length_b                   13.968(3)
_cell_length_c                   26.487(5)
_cell_angle_alpha                90
_cell_angle_beta                 101.70(3)
_cell_angle_gamma                90
_cell_volume                     5296.58
_exptl_crystal_colour            red
_exptl_crystal_description       block
_cell_formula_units_Z            4
_exptl_crystal_recrystallization_method 'carbon disulfide/ethanol'
loop_
_atom_site_label
_atom_site_type_symbol
_atom_site_fract_x
_atom_site_fract_y
_atom_site_fract_z
Cl1 Cl 0.34801(5) 0.98972(6) 0.24006(3)
Cl2 Cl 0.46758(5) 0.82784(6) 0.21615(3)
O1 O 0.43653(13) 1.17137(15) 0.25130(7)
O2 O 0.55773(13) 1.14161(14) 0.17926(7)
O3 O 0.49598(15) 1.06372(16) 0.15450(7)
O4 O 0.49978(14) 1.33329(14) 0.29277(7)
O5 O 0.55421(15) 1.42125(15) 0.30776(8)
O6 O 0.40151(13) 1.20283(15) 0.40671(7)
O7 O 0.32353(14) 1.13420(16) 0.39955(8)
O8 O 0.36013(13) 0.91326(15) 0.36112(7)
O9 O 0.35488(14) 0.82862(15) 0.39386(7)
C1 C 0.9389(2) 0.9599(2) 0.39913(12)
C2 C 0.9479(2) 1.0608(3) 0.41243(12)
C3 C 0.9156(2) 1.0737(2) 0.46096(11)
C4 C 0.8861(2) 0.9805(2) 0.47612(11)
C5 C 0.9003(2) 0.9108(2) 0.43823(11)
C6 C 0.8358(2) 0.8370(2) 0.42484(11)
C7 C 0.8065(2) 0.8097(2) 0.37101(12)
C8 C 0.8437(2) 0.8575(2) 0.33352(11)
C9 C 0.9112(2) 0.9339(2) 0.34732(12)
C10 C 0.8915(2) 1.0073(2) 0.30792(11)
C11 C 0.9002(2) 1.1040(2) 0.32088(12)
C12 C 0.9296(2) 1.1310(2) 0.37502(12)
C13 C 0.8788(2) 1.2169(2) 0.38295(11)
C14 C 0.8475(2) 1.2284(2) 0.42907(11)
C15 C 0.8671(2) 1.1555(2) 0.46904(11)
C16 C 0.7859(2) 1.1483(2) 0.49262(11)
C17 C 0.7573(2) 1.0596(2) 0.50728(11)
C18 C 0.8080(2) 0.9743(2) 0.49937(11)
C19 C 0.7416(2) 0.8967(2) 0.48525(11)
C20 C 0.7548(2) 0.8289(2) 0.44856(12)
C21 C 0.6756(2) 0.7985(2) 0.40978(11)
C22 C 0.7079(2) 0.7864(2) 0.36205(11)
C23 C 0.6495(2) 0.8142(2) 0.31649(11)
C24 C 0.6877(2) 0.8645(2) 0.27778(11)
C25 C 0.7822(2) 0.8842(2) 0.28554(11)
C26 C 0.8117(2) 0.9765(2) 0.26940(11)
C27 C 0.7452(2) 1.0412(2) 0.24665(11)
C28 C 0.7544(2) 1.1413(2) 0.25993(11)
C29 C 0.8312(2) 1.1716(2) 0.29655(11)
C30 C 0.8175(2) 1.2417(2) 0.33459(11)
C31 C 0.7278(2) 1.2756(2) 0.33365(11)
C32 C 0.6959(2) 1.2877(2) 0.38129(11)
C33 C 0.7547(2) 1.2655(2) 0.42813(12)
C34 C 0.7172(2) 1.2168(2) 0.46742(11)
C35 C 0.6226(2) 1.1916(2) 0.45732(11)
C36 C 0.5932(2) 1.0998(2) 0.47352(11)
C37 C 0.6587(2) 1.0346(2) 0.49816(11)
C38 C 0.6493(2) 0.9350(2) 0.48448(11)
C39 C 0.5739(2) 0.9063(2) 0.44676(11)
C40 C 0.5872(2) 0.8362(2) 0.40816(11)
C41 C 0.5257(2) 0.8597(2) 0.36026(11)
C42 C 0.5567(2) 0.8500(2) 0.31512(11)
C43 C 0.52583(19) 0.9083(2) 0.26609(11)
C44 C 0.6192(2) 0.9317(2) 0.25254(11)
C45 C 0.6469(2) 1.0178(2) 0.23633(10)
C46 C 0.5881(2) 1.1090(2) 0.23141(10)
C47 C 0.6627(2) 1.1811(2) 0.25799(10)
C48 C 0.6504(2) 1.2468(2) 0.29444(11)
C49 C 0.5593(2) 1.2563(2) 0.31416(11)
C50 C 0.5979(2) 1.2648(2) 0.37265(11)
C51 C 0.5631(2) 1.2180(2) 0.40959(11)
C52 C 0.4805(2) 1.1492(2) 0.39813(11)
C53 C 0.5129(2) 1.0679(2) 0.43625(11)
C54 C 0.5032(2) 0.9733(2) 0.42349(11)
C55 C 0.4566(2) 0.9383(2) 0.36887(11)
C56 C 0.46235(19) 1.0175(2) 0.33108(11)
C57 C 0.4718(2) 1.1105(2) 0.34387(11)
C58 C 0.49978(19) 1.1675(2) 0.30161(10)
C59 C 0.46761(19) 1.0002(2) 0.27426(11)
C60 C 0.5076(2) 1.0992(2) 0.25980(11)
C61 C 0.5116(2) 1.0529(3) 0.10201(12)
C62 C 0.4809(2) 1.1443(2) 0.07131(12)
H1 H 0.5234 1.1953 0.0840
H2 H 0.4191 1.1615 0.0751
H3 H 0.4810 1.1334 0.0355
C63 C 0.6135(3) 1.0276(3) 0.10272(14)
H4 H 0.6524 1.0816 0.1149
H5 H 0.6205 1.0115 0.0685
H6 H 0.6315 0.9740 0.1252
C64 C 0.4469(3) 0.9693(3) 0.08309(13)
H7 H 0.3836 0.9873 0.0831
H8 H 0.4639 0.9154 0.1055
H9 H 0.4526 0.9525 0.0487
C65 C 0.4884(2) 1.4929(2) 0.31972(12)
C66 C 0.5525(2) 1.5791(2) 0.33042(14)
H10 H 0.6002 1.5671 0.3605
H11 H 0.5170 1.6344 0.3362
H12 H 0.5811 1.5904 0.3014
C67 C 0.4522(3) 1.4626(3) 0.36661(14)
H13 H 0.5037 1.4547 0.3952
H14 H 0.4193 1.4031 0.3597
H15 H 0.4107 1.5108 0.3748
C68 C 0.4114(2) 1.5065(3) 0.27268(13)
H16 H 0.3728 1.4503 0.2675
H17 H 0.4384 1.5169 0.2430
H18 H 0.3741 1.5609 0.2777
C69 C 0.2421(2) 1.1832(3) 0.36965(12)
C70 C 0.2618(2) 1.2115(3) 0.31699(12)
H19 H 0.3082 1.2610 0.3214
H20 H 0.2053 1.2344 0.2953
H21 H 0.2841 1.1567 0.3012
C71 C 0.1699(2) 1.1049(3) 0.36424(13)
H22 H 0.1890 1.0523 0.3454
H23 H 0.1109 1.1290 0.3460
H24 H 0.1639 1.0834 0.3978
C72 C 0.2176(3) 1.2693(3) 0.39903(13)
H25 H 0.2659 1.3167 0.4013
H26 H 0.2122 1.2500 0.4331
H27 H 0.1594 1.2958 0.3813
C73 C 0.2795(2) 0.7689(2) 0.36529(12)
C74 C 0.1857(2) 0.8200(3) 0.35794(12)
H28 H 0.1731 0.8371 0.3910
H29 H 0.1373 0.7783 0.3404
H30 H 0.1874 0.8768 0.3378
C75 C 0.2837(2) 0.6835(2) 0.40111(13)
H31 H 0.2688 0.7038 0.4331
H32 H 0.3454 0.6567 0.4075
H33 H 0.2394 0.6361 0.3854
C76 C 0.3022(3) 0.7400(3) 0.31386(12)
H34 H 0.3615 0.7080 0.3197
H35 H 0.3049 0.7962 0.2933
H36 H 0.2546 0.6978 0.2961
S1 S 0.95803(9) 0.14489(8) 0.00723(4)
S2 S 0.80610(10) -0.00262(12) 0.01610(6)
C77 C 0.8813(3) 0.0722(3) 0.01137(14)
loop_
_geom_bond_atom_site_label_1
_geom_bond_atom_site_label_2
_geom_bond_site_symmetry_1
_geom_bond_site_symmetry_2
Cl1 C59 1_555 1_555
Cl2 C43 1_555 1_555
S1 C77 1_555 1_555
S2 C77 1_555 1_555
O1 C58 1_555 1_555
O2 O3 1_555 1_555
O3 C61 1_555 1_555
O4 O5 1_555 1_555
O5 C65 1_555 1_555
O6 O7 1_555 1_555
O7 C69 1_555 1_555
O8 O9 1_555 1_555
O9 C73 1_555 1_555
C1 C2 1_555 1_555
C2 C3 1_555 1_555
C3 C4 1_555 1_555
C4 C5 1_555 1_555
C5 C1 1_555 1_555
C6 C5 1_555 1_555
C7 C6 1_555 1_555
C8 C7 1_555 1_555
C9 C1 1_555 1_555
C10 C9 1_555 1_555
C11 C10 1_555 1_555
C12 C2 1_555 1_555
C13 C12 1_555 1_555
C14 C13 1_555 1_555
C15 C3 1_555 1_555
C16 C15 1_555 1_555
C17 C16 1_555 1_555
C18 C4 1_555 1_555
C19 C18 1_555 1_555
C20 C6 1_555 1_555
C21 C20 1_555 1_555
C22 C7 1_555 1_555
C23 C22 1_555 1_555
C24 C23 1_555 1_555
C25 C8 1_555 1_555
C26 C10 1_555 1_555
C27 C26 1_555 1_555
C28 C27 1_555 1_555
C29 C11 1_555 1_555
C30 C13 1_555 1_555
C31 C30 1_555 1_555
C32 C31 1_555 1_555
C33 C14 1_555 1_555
C34 C16 1_555 1_555
C35 C34 1_555 1_555
C36 C35 1_555 1_555
C37 C17 1_555 1_555
C38 C19 1_555 1_555
C39 C38 1_555 1_555
C40 C21 1_555 1_555
C41 C40 1_555 1_555
C42 C23 1_555 1_555
C43 C42 1_555 1_555
C44 C24 1_555 1_555
C45 C27 1_555 1_555
C46 O2 1_555 1_555
C47 C28 1_555 1_555
C48 C31 1_555 1_555
C49 O4 1_555 1_555
C50 C32 1_555 1_555
C51 C35 1_555 1_555
C52 O6 1_555 1_555
C53 C36 1_555 1_555
C54 C39 1_555 1_555
C55 O8 1_555 1_555
C56 C55 1_555 1_555
C57 C52 1_555 1_555
C58 C49 1_555 1_555
C59 C43 1_555 1_555
C60 O1 1_555 1_555
C61 C62 1_555 1_555
C62 H1 1_555 1_555
H2 C62 1_555 1_555
H3 C62 1_555 1_555
C63 C61 1_555 1_555
H4 C63 1_555 1_555
H5 C63 1_555 1_555
H6 C63 1_555 1_555
C64 C61 1_555 1_555
H7 C64 1_555 1_555
H8 C64 1_555 1_555
H9 C64 1_555 1_555
C65 C66 1_555 1_555
C66 H10 1_555 1_555
H11 C66 1_555 1_555
H12 C66 1_555 1_555
C67 C65 1_555 1_555
H13 C67 1_555 1_555
H14 C67 1_555 1_555
H15 C67 1_555 1_555
C68 C65 1_555 1_555
H16 C68 1_555 1_555
H17 C68 1_555 1_555
H18 C68 1_555 1_555
C69 C70 1_555 1_555
C70 H19 1_555 1_555
H20 C70 1_555 1_555
H21 C70 1_555 1_555
C71 C69 1_555 1_555
H22 C71 1_555 1_555
H23 C71 1_555 1_555
H24 C71 1_555 1_555
C72 C69 1_555 1_555
H25 C72 1_555 1_555
H26 C72 1_555 1_555
H27 C72 1_555 1_555
C73 C74 1_555 1_555
C74 H28 1_555 1_555
H29 C74 1_555 1_555
H30 C74 1_555 1_555
C75 C73 1_555 1_555
H31 C75 1_555 1_555
H32 C75 1_555 1_555
H33 C75 1_555 1_555
C76 C73 1_555 1_555
H34 C76 1_555 1_555
H35 C76 1_555 1_555
H36 C76 1_555 1_555
C8 C9 1_555 1_555
C11 C12 1_555 1_555
C14 C15 1_555 1_555
C17 C18 1_555 1_555
C19 C20 1_555 1_555
C21 C22 1_555 1_555
C24 C25 1_555 1_555
C25 C26 1_555 1_555
C28 C29 1_555 1_555
C29 C30 1_555 1_555
C32 C33 1_555 1_555
C33 C34 1_555 1_555
C36 C37 1_555 1_555
C37 C38 1_555 1_555
C39 C40 1_555 1_555
C41 C42 1_555 1_555
C41 C55 1_555 1_555
C43 C44 1_555 1_555
C44 C45 1_555 1_555
C45 C46 1_555 1_555
C46 C47 1_555 1_555
C46 C60 1_555 1_555
C47 C48 1_555 1_555
C48 C49 1_555 1_555
C49 C50 1_555 1_555
C50 C51 1_555 1_555
C51 C52 1_555 1_555
C52 C53 1_555 1_555
C53 C54 1_555 1_555
C54 C55 1_555 1_555
C56 C57 1_555 1_555
C56 C59 1_555 1_555
C57 C58 1_555 1_555
C58 C60 1_555 1_555
C59 C60 1_555 1_555

#END
