
#######################################################################
#
#                 Cambridge Crystallographic Data Centre
#                                CCDC 
#
#######################################################################
#
# If this CIF has been generated from an entry in the Cambridge 
# Structural Database, then it will include bibliographic, chemical, 
# crystal, experimental, refinement or atomic coordinate data resulting 
# from the CCDC's data processing and validation procedures.
#
#######################################################################

data_XEXREY
_chemical_formula_moiety         'C76 H36 Br2 O9,2(C2 H6 O1)'
_chemical_name_systematic        
'51,53-Dibromo-34,37,50,54-tetrakis(t-butylperoxy)-52,60-epoxy-C60fullerene ethanol solvate'
_symmetry_cell_setting           monoclinic
_symmetry_space_group_name_H-M   'P 21/c'
_symmetry_Int_Tables_number      14
_space_group_name_Hall           '-P 2ybc'
loop_
_symmetry_equiv_pos_site_id
_symmetry_equiv_pos_as_xyz
1 x,y,z
2 -x,1/2+y,1/2-z
3 -x,-y,-z
4 x,1/2-y,1/2+z
_cell_length_a                   22.264(5)
_cell_length_b                   13.809(3)
_cell_length_c                   18.716(4)
_cell_angle_alpha                90
_cell_angle_beta                 100.64(3)
_cell_angle_gamma                90
_cell_volume                     5655.18
_exptl_crystal_colour            red
_exptl_crystal_description       block
_cell_formula_units_Z            4
_exptl_crystal_recrystallization_method 'carbon disulfide/ethanol'
loop_
_atom_site_label
_atom_site_type_symbol
_atom_site_fract_x
_atom_site_fract_y
_atom_site_fract_z
Br1 Br 0.31302(5) 0.31502(8) 0.48848(5)
Br2 Br 0.39117(5) 0.44721(8) 0.37340(5)
O1 O 0.1928(2) 0.2819(4) 0.4834(3)
O2 O 0.1326(3) 0.2527(4) 0.4963(3)
O3 O 0.2887(3) 0.5133(5) 0.5950(3)
O4 O 0.3513(3) 0.5441(6) 0.5910(3)
O5 O 0.3835(3) 0.6543(4) 0.4569(3)
O6 O 0.4022(3) 0.7570(5) 0.4680(3)
O7 O 0.3482(3) 0.5585(5) 0.2442(3)
O8 O 0.3434(3) 0.4679(5) 0.2052(4)
O9 O 0.2614(3) 0.3289(4) 0.3138(3)
C1 C 0.0974(4) 0.8450(6) 0.4107(5)
C2 C 0.1561(5) 0.8723(6) 0.3994(5)
C3 C 0.2009(4) 0.8323(6) 0.4578(5)
C4 C 0.1691(5) 0.7818(6) 0.5060(4)
C5 C 0.1036(4) 0.7861(7) 0.4772(4)
C6 C 0.0672(4) 0.7106(7) 0.4822(5)
C7 C 0.0189(4) 0.6855(8) 0.4220(5)
C8 C 0.0115(4) 0.7401(6) 0.3588(5)
C9 C 0.0501(4) 0.8198(7) 0.3523(5)
C10 C 0.0634(4) 0.8231(7) 0.2797(5)
C11 C 0.1213(4) 0.8494(6) 0.2676(5)
C12 C 0.1669(4) 0.8757(6) 0.3282(5)
C13 C 0.2241(4) 0.8372(6) 0.3142(5)
C14 C 0.2663(4) 0.7985(7) 0.3700(5)
C15 C 0.2544(4) 0.7954(6) 0.4426(5)
C16 C 0.2804(4) 0.7131(6) 0.4776(5)
C17 C 0.2516(3) 0.6596(6) 0.5235(4)
C18 C 0.1946(4) 0.6945(7) 0.5364(4)
C19 C 0.1543(4) 0.6135(7) 0.5417(4)
C20 C 0.0910(4) 0.6211(7) 0.5148(4)
C21 C 0.0625(4) 0.5416(8) 0.4751(4)
C22 C 0.0138(4) 0.5843(8) 0.4154(5)
C23 C 0.0039(4) 0.5349(7) 0.3498(5)
C24 C -0.0048(3) 0.5911(6) 0.2829(4)
C25 C -0.0018(4) 0.6917(7) 0.2868(4)
C26 C 0.0306(4) 0.7433(6) 0.2401(4)
C27 C 0.0577(4) 0.6927(7) 0.1888(4)
C28 C 0.1174(4) 0.7211(7) 0.1760(4)
C29 C 0.1469(4) 0.7963(7) 0.2149(5)
C30 C 0.2119(4) 0.7893(6) 0.2445(4)
C31 C 0.2438(4) 0.7067(7) 0.2356(4)
C32 C 0.2887(4) 0.6665(7) 0.2937(5)
C33 C 0.3003(4) 0.7134(6) 0.3577(5)
C34 C 0.3191(4) 0.6578(6) 0.4311(5)
C35 C 0.3007(4) 0.5550(6) 0.4200(4)
C36 C 0.2704(4) 0.5044(6) 0.4640(4)
C37 C 0.2530(4) 0.5515(6) 0.5307(4)
C38 C 0.1849(4) 0.5251(7) 0.5320(4)
C39 C 0.1558(4) 0.4496(6) 0.4938(4)
C40 C 0.0930(4) 0.4581(7) 0.4624(5)
C41 C 0.0820(4) 0.4105(6) 0.3934(4)
C42 C 0.0370(4) 0.4484(7) 0.3392(5)
C43 C 0.0485(4) 0.4498(6) 0.2658(4)
C44 C 0.0233(4) 0.5410(7) 0.2320(4)
C45 C 0.0537(4) 0.5913(7) 0.1858(4)
C46 C 0.1093(4) 0.5530(6) 0.1716(4)
C47 C 0.1493(5) 0.6324(7) 0.1652(4)
C48 C 0.2115(4) 0.6262(7) 0.1948(4)
C49 C 0.2367(4) 0.5378(7) 0.2269(4)
C50 C 0.2963(4) 0.5583(7) 0.2800(5)
C51 C 0.3057(4) 0.4959(7) 0.3541(4)
C52 C 0.2614(4) 0.4160(6) 0.3575(4)
C53 C 0.2502(4) 0.4087(6) 0.4360(4)
C54 C 0.1856(4) 0.3737(6) 0.4488(4)
C55 C 0.1369(4) 0.3721(6) 0.3787(4)
C56 C 0.1486(4) 0.3760(6) 0.3115(4)
C57 C 0.1031(4) 0.4191(6) 0.2530(5)
C58 C 0.1366(4) 0.4699(6) 0.2053(4)
C59 C 0.2016(4) 0.4624(7) 0.2311(4)
C60 C 0.2109(4) 0.3955(6) 0.2963(4)
C61 C 0.1273(4) 0.1491(6) 0.4764(5)
C62 C 0.1215(4) 0.1361(6) 0.3957(4)
H4 H 0.0876 0.1734 0.3710
H5 H 0.1150 0.0689 0.3836
H6 H 0.1584 0.1577 0.3810
C63 C 0.0663(4) 0.1244(7) 0.4997(5)
H7 H 0.0703 0.1335 0.5513
H8 H 0.0558 0.0582 0.4877
H9 H 0.0347 0.1662 0.4748
C64 C 0.1786(4) 0.0937(6) 0.5207(4)
H10 H 0.1793 0.1055 0.5714
H11 H 0.2166 0.1143 0.5084
H12 H 0.1730 0.0258 0.5108
C65 C 0.3891(5) 0.5490(12) 0.6584(6)
C66 C 0.4467(6) 0.5840(14) 0.6449(7)
H13 H 0.4517 0.5650 0.5970
H14 H 0.4792 0.5570 0.6802
H15 H 0.4477 0.6534 0.6485
C67 C 0.3910(15) 0.419(2) 0.6768(14)
H16 H 0.4073 0.3855 0.6397
H17 H 0.3503 0.3961 0.6772
H18 H 0.4163 0.4066 0.7233
C68 C 0.3638(7) 0.5678(18) 0.7216(8)
H19 H 0.3240 0.5391 0.7160
H20 H 0.3606 0.6365 0.7279
H21 H 0.3899 0.5406 0.7633
C69 C 0.4597(4) 0.7676(8) 0.4433(6)
C70 C 0.4538(5) 0.7495(10) 0.3655(6)
H22 H 0.4240 0.7928 0.3391
H23 H 0.4410 0.6838 0.3551
H24 H 0.4925 0.7599 0.3511
C71 C 0.4727(6) 0.8741(8) 0.4615(7)
H25 H 0.4415 0.9133 0.4331
H26 H 0.5117 0.8914 0.4505
H27 H 0.4730 0.8846 0.5122
C72 C 0.5065(4) 0.7012(8) 0.4860(6)
H28 H 0.5116 0.7168 0.5367
H29 H 0.5447 0.7089 0.4699
H30 H 0.4929 0.6353 0.4785
C73 C 0.3727(5) 0.4861(10) 0.1413(5)
C74 C 0.3341(6) 0.5602(9) 0.0905(5)
H31 H 0.2934 0.5356 0.0755
H32 H 0.3523 0.5707 0.0484
H33 H 0.3326 0.6203 0.1159
C75 C 0.4363(5) 0.5175(9) 0.1659(6)
H34 H 0.4582 0.4688 0.1969
H35 H 0.4369 0.5772 0.1923
H36 H 0.4555 0.5271 0.1245
C76 C 0.3666(5) 0.3811(9) 0.1101(6)
H37 H 0.3242 0.3656 0.0946
H38 H 0.3848 0.3363 0.1471
H39 H 0.3872 0.3768 0.0694
O10 O 0.2521(7) 0.2117(11) 0.1649(7)
H1 H 0.2798 0.2243 0.2326
C77 C 0.2036(8) 0.1621(13) 0.1844(8)
H40 H 0.1704 0.1773 0.1368
H41 H 0.1864 0.2153 0.2152
C78 C 0.1693(6) 0.0800(9) 0.2042(6)
H44 H 0.1275 0.0988 0.2026
H45 H 0.1868 0.0591 0.2524
H46 H 0.1708 0.0280 0.1706
O12 O 0.3995(4) 0.1777(6) 0.3454(5)
H3 H 0.3879 0.2335 0.3492
C79 C 0.3572(9) 0.1073(12) 0.3773(7)
H47 H 0.3699 0.1270 0.4276
H48 H 0.3812 0.0494 0.3737
C80 C 0.3007(4) 0.0565(5) 0.3877(4)
H49 H 0.3107 0.0088 0.4253
H50 H 0.2824 0.0252 0.3431
H51 H 0.2725 0.1024 0.4013
O11? O 0.1578(9) 0.2412(12) 0.1610(8)
H2? H 0.1471 0.2576 0.1070
H42? H 0.2308 0.1954 0.2198
H43? H 0.2185 0.1547 0.1409
loop_
_geom_bond_atom_site_label_1
_geom_bond_atom_site_label_2
_geom_bond_site_symmetry_1
_geom_bond_site_symmetry_2
Br1 C53 1_555 1_555
Br2 C51 1_555 1_555
O1 O2 1_555 1_555
O2 C61 1_555 1_555
O3 O4 1_555 1_555
O4 C65 1_555 1_555
O5 O6 1_555 1_555
O6 C69 1_555 1_555
O7 O8 1_555 1_555
O8 C73 1_555 1_555
O9 C52 1_555 1_555
O10 H1 1_555 1_555
O12 H3 1_555 1_555
C1 C2 1_555 1_555
C2 C3 1_555 1_555
C3 C4 1_555 1_555
C4 C5 1_555 1_555
C5 C1 1_555 1_555
C6 C5 1_555 1_555
C7 C6 1_555 1_555
C8 C7 1_555 1_555
C9 C1 1_555 1_555
C10 C9 1_555 1_555
C11 C10 1_555 1_555
C12 C2 1_555 1_555
C13 C12 1_555 1_555
C14 C13 1_555 1_555
C15 C3 1_555 1_555
C16 C15 1_555 1_555
C17 C16 1_555 1_555
C18 C4 1_555 1_555
C19 C18 1_555 1_555
C20 C6 1_555 1_555
C21 C20 1_555 1_555
C22 C7 1_555 1_555
C23 C22 1_555 1_555
C24 C23 1_555 1_555
C25 C8 1_555 1_555
C26 C10 1_555 1_555
C27 C26 1_555 1_555
C28 C27 1_555 1_555
C29 C11 1_555 1_555
C30 C13 1_555 1_555
C31 C30 1_555 1_555
C32 C31 1_555 1_555
C33 C14 1_555 1_555
C34 O5 1_555 1_555
C35 C34 1_555 1_555
C36 C35 1_555 1_555
C37 O3 1_555 1_555
C38 C19 1_555 1_555
C39 C38 1_555 1_555
C40 C21 1_555 1_555
C41 C40 1_555 1_555
C42 C23 1_555 1_555
C43 C42 1_555 1_555
C44 C24 1_555 1_555
C45 C27 1_555 1_555
C46 C45 1_555 1_555
C47 C28 1_555 1_555
C48 C31 1_555 1_555
C49 C48 1_555 1_555
C50 O7 1_555 1_555
C51 C35 1_555 1_555
C52 C51 1_555 1_555
C53 C36 1_555 1_555
C54 O1 1_555 1_555
C55 C41 1_555 1_555
C56 C55 1_555 1_555
C57 C43 1_555 1_555
C58 C46 1_555 1_555
C59 C49 1_555 1_555
C60 O9 1_555 1_555
C61 C62 1_555 1_555
C62 H4 1_555 1_555
H5 C62 1_555 1_555
H6 C62 1_555 1_555
C63 C61 1_555 1_555
H7 C63 1_555 1_555
H8 C63 1_555 1_555
H9 C63 1_555 1_555
C64 C61 1_555 1_555
H10 C64 1_555 1_555
H11 C64 1_555 1_555
H12 C64 1_555 1_555
C65 C66 1_555 1_555
C66 H13 1_555 1_555
H14 C66 1_555 1_555
H15 C66 1_555 1_555
C67 C65 1_555 1_555
H16 C67 1_555 1_555
H17 C67 1_555 1_555
H18 C67 1_555 1_555
C68 C65 1_555 1_555
H19 C68 1_555 1_555
H20 C68 1_555 1_555
H21 C68 1_555 1_555
C69 C70 1_555 1_555
C70 H22 1_555 1_555
H23 C70 1_555 1_555
H24 C70 1_555 1_555
C71 C69 1_555 1_555
H25 C71 1_555 1_555
H26 C71 1_555 1_555
H27 C71 1_555 1_555
C72 C69 1_555 1_555
H28 C72 1_555 1_555
H29 C72 1_555 1_555
H30 C72 1_555 1_555
C73 C74 1_555 1_555
C74 H31 1_555 1_555
H32 C74 1_555 1_555
H33 C74 1_555 1_555
C75 C73 1_555 1_555
H34 C75 1_555 1_555
H35 C75 1_555 1_555
H36 C75 1_555 1_555
C76 C73 1_555 1_555
H37 C76 1_555 1_555
H38 C76 1_555 1_555
H39 C76 1_555 1_555
C77 O10 1_555 1_555
H40 C77 1_555 1_555
H41 C77 1_555 1_555
C78 C77 1_555 1_555
H44 C78 1_555 1_555
H45 C78 1_555 1_555
H46 C78 1_555 1_555
C79 O12 1_555 1_555
H47 C79 1_555 1_555
H48 C79 1_555 1_555
C80 C79 1_555 1_555
H49 C80 1_555 1_555
H50 C80 1_555 1_555
H51 C80 1_555 1_555
C8 C9 1_555 1_555
C11 C12 1_555 1_555
C14 C15 1_555 1_555
C16 C34 1_555 1_555
C17 C18 1_555 1_555
C17 C37 1_555 1_555
C19 C20 1_555 1_555
C21 C22 1_555 1_555
C24 C25 1_555 1_555
C25 C26 1_555 1_555
C28 C29 1_555 1_555
C29 C30 1_555 1_555
C32 C33 1_555 1_555
C32 C50 1_555 1_555
C33 C34 1_555 1_555
C36 C37 1_555 1_555
C37 C38 1_555 1_555
C39 C40 1_555 1_555
C39 C54 1_555 1_555
C41 C42 1_555 1_555
C43 C44 1_555 1_555
C44 C45 1_555 1_555
C46 C47 1_555 1_555
C47 C48 1_555 1_555
C49 C50 1_555 1_555
C50 C51 1_555 1_555
C52 C53 1_555 1_555
C52 C60 1_555 1_555
C53 C54 1_555 1_555
C54 C55 1_555 1_555
C56 C57 1_555 1_555
C56 C60 1_555 1_555
C57 C58 1_555 1_555
C58 C59 1_555 1_555
C59 C60 1_555 1_555

#END
