
#######################################################################
#
#                 Cambridge Crystallographic Data Centre
#                                CCDC 
#
#######################################################################
#
# If this CIF has been generated from an entry in the Cambridge 
# Structural Database, then it will include bibliographic, chemical, 
# crystal, experimental, refinement or atomic coordinate data resulting 
# from the CCDC's data processing and validation procedures.
#
#######################################################################

data_XEXYUX
_chemical_formula_moiety         'C33 H44 O9,0.38(H2 O1),0.367(C1 H4 O1)'
_chemical_name_systematic        
'3a,4,9-tris(acetyloxy)-11-hydroxy-2,5,8,8,12-pentamethyl-2,3,3a,4,5,8,9,10,11,13a-decahydro-1H-cyclopenta[12]annulen-1-yl benzoate methanol solvate hydrate'
_symmetry_cell_setting           orthorhombic
_symmetry_space_group_name_H-M   'P 21 21 2'
_symmetry_Int_Tables_number      18
_space_group_name_Hall           'P 2 2ab'
loop_
_symmetry_equiv_pos_site_id
_symmetry_equiv_pos_as_xyz
1 x,y,z
2 -x,-y,z
3 1/2+x,1/2-y,-z
4 1/2-x,1/2+y,-z
_cell_length_a                   24.9080(4)
_cell_length_b                   15.6416(3)
_cell_length_c                   8.21842(14)
_cell_angle_alpha                90
_cell_angle_beta                 90
_cell_angle_gamma                90
_cell_volume                     3201.9
_cell_formula_units_Z            4
loop_
_atom_site_label
_atom_site_type_symbol
_atom_site_fract_x
_atom_site_fract_y
_atom_site_fract_z
O10 O -0.0380(3) 0.4409(8) 0.8118(10)
O10A O 0.0380(3) 0.5591(8) 0.8118(10)
O1 O 0.13109(5) 0.97411(9) 0.35021(17)
O2 O 0.11946(6) 0.47892(9) 0.36078(19)
O3 O -0.05886(6) 0.88935(10) 0.60481(19)
O4 O 0.00497(5) 0.82784(9) 0.75985(17)
O5 O 0.15606(5) 0.78484(9) 0.61118(17)
O6 O 0.01165(7) 0.58796(11) 0.4972(2)
H1 H 0.0336 0.6072 0.5656
O7 O 0.23988(6) 0.83585(10) 0.6541(2)
C1 C 0.03339(8) 0.72449(13) 0.3669(3)
C2 C -0.13859(8) 0.81333(14) 0.8094(3)
H2 H -0.1502 0.8595 0.7430
C3 C 0.05726(7) 0.75448(13) 0.4996(3)
H3 H 0.0659 0.7143 0.5823
C4 C -0.06816(8) 0.71924(14) 0.9035(3)
H4 H -0.0317 0.7015 0.9022
C5 C 0.13444(7) 0.92899(13) 0.6994(2)
H5 H 0.1696 0.9273 0.7556
H6 H 0.1276 0.9881 0.6615
O8 O 0.13126(11) 0.50418(15) 0.6263(2)
C6 C 0.20714(8) 0.77987(14) 0.6657(2)
O9 O 0.19142(7) 1.07062(11) 0.4394(2)
C7 C 0.21087(9) 0.89114(14) 0.1395(3)
H7 H 0.2008 0.9512 0.1247
H8 H 0.2116 0.8624 0.0336
H9 H 0.2465 0.8880 0.1897
C8 C 0.04504(7) 0.88324(13) 0.6880(2)
H10 H 0.0279 0.9394 0.6613
C9 C -0.17503(8) 0.77009(15) 0.9065(3)
H11 H -0.2116 0.7873 0.9078
C10 C 0.08951(8) 0.89824(13) 0.8116(2)
H12 H 0.1001 0.8423 0.8612
C11 C 0.15111(8) 1.05406(14) 0.3662(3)
C12 C 0.13325(8) 0.86577(12) 0.5565(2)
C13 C 0.01896(8) 0.63061(14) 0.3462(3)
H13 H -0.0161 0.6284 0.2873
C14 C -0.04592(8) 0.83986(13) 0.7111(2)
C15 C 0.11504(8) 0.56986(13) 0.3232(3)
H14 H 0.1153 0.6027 0.4276
C16 C 0.15851(8) 0.69191(13) 0.1996(3)
H15 H 0.1326 0.7093 0.1214
C17 C 0.11653(10) 1.11722(14) 0.2783(3)
H16 H 0.1264 1.1182 0.1629
H17 H 0.1218 1.1742 0.3253
H18 H 0.0788 1.1006 0.2892
C18 C 0.16295(7) 0.90168(12) 0.4059(2)
H19 H 0.1991 0.9228 0.4404
C19 C -0.10519(9) 0.67606(15) 0.9988(3)
H20 H -0.0940 0.6286 1.0624
C20 C 0.21644(9) 0.69518(14) 0.7470(3)
H21 H 0.2126 0.7017 0.8650
H22 H 0.2527 0.6749 0.7218
H23 H 0.1901 0.6536 0.7073
C21 C 0.16496(8) 0.59628(13) 0.2218(3)
C22 C 0.18437(8) 0.75423(13) 0.2753(3)
H24 H 0.2130 0.7403 0.3468
C23 C 0.16584(10) 0.55034(15) 0.0567(3)
H25 H 0.1632 0.4885 0.0739
H26 H 0.1995 0.5635 0.0001
H27 H 0.1354 0.5697 -0.0093
C24 C 0.16948(8) 0.84684(13) 0.2507(2)
H28 H 0.1343 0.8478 0.1923
C25 C 0.21586(9) 0.57364(14) 0.3168(3)
H29 H 0.2139 0.5988 0.4258
H30 H 0.2473 0.5963 0.2595
H31 H 0.2189 0.5114 0.3257
C26 C -0.08459(8) 0.78878(13) 0.8096(2)
C27 C 0.06035(8) 0.58256(13) 0.2404(3)
H32 H 0.0455 0.5258 0.2116
H33 H 0.0658 0.6148 0.1381
C28 C -0.15857(9) 0.70188(15) 1.0016(3)
H34 H -0.1837 0.6728 1.0687
C29 C 0.12824(9) 0.45570(16) 0.5149(3)
C30 C 0.01854(9) 0.77731(15) 0.2203(3)
H35 H -0.0203 0.7742 0.2028
H36 H 0.0372 0.7551 0.1242
H37 H 0.0291 0.8369 0.2386
C31 C 0.07411(8) 0.96032(13) 0.9462(2)
H38 H 0.1042 0.9666 1.0221
H39 H 0.0427 0.9383 1.0046
H40 H 0.0655 1.0161 0.8986
C32 C 0.07186(7) 0.84672(12) 0.5307(2)
H41 H 0.0591 0.8814 0.4360
C33 C 0.13414(11) 0.36014(17) 0.5272(4)
H42 H 0.0995 0.3329 0.5049
H43 H 0.1461 0.3449 0.6370
H44 H 0.1607 0.3404 0.4476
O11? O 0.0444(4) 0.5896(5) 0.8195(12)
C34? C 0.0110(5) 0.5144(8) 0.8508(15)
loop_
_geom_bond_atom_site_label_1
_geom_bond_atom_site_label_2
_geom_bond_site_symmetry_1
_geom_bond_site_symmetry_2
O1 C11 1_555 1_555
O2 C15 1_555 1_555
O3 C14 1_555 1_555
O4 C8 1_555 1_555
O5 C6 1_555 1_555
O6 H1 1_555 1_555
O7 C6 1_555 1_555
C1 C3 1_555 1_555
C2 H2 1_555 1_555
C3 H3 1_555 1_555
C4 H4 1_555 1_555
C5 H5 1_555 1_555
H6 C5 1_555 1_555
O8 C29 1_555 1_555
C6 C20 1_555 1_555
O9 C11 1_555 1_555
C7 H7 1_555 1_555
H8 C7 1_555 1_555
H9 C7 1_555 1_555
C8 H10 1_555 1_555
C9 C2 1_555 1_555
H11 C9 1_555 1_555
C10 C5 1_555 1_555
H12 C10 1_555 1_555
C11 C17 1_555 1_555
C12 O5 1_555 1_555
C13 O6 1_555 1_555
H13 C13 1_555 1_555
C14 O4 1_555 1_555
C15 H14 1_555 1_555
C16 H15 1_555 1_555
C17 H16 1_555 1_555
H17 C17 1_555 1_555
H18 C17 1_555 1_555
C18 O1 1_555 1_555
H19 C18 1_555 1_555
C19 C4 1_555 1_555
H20 C19 1_555 1_555
C20 H21 1_555 1_555
H22 C20 1_555 1_555
H23 C20 1_555 1_555
C21 C15 1_555 1_555
C22 C16 1_555 1_555
H24 C22 1_555 1_555
C23 C21 1_555 1_555
H25 C23 1_555 1_555
H26 C23 1_555 1_555
H27 C23 1_555 1_555
C24 C7 1_555 1_555
H28 C24 1_555 1_555
C25 C21 1_555 1_555
H29 C25 1_555 1_555
H30 C25 1_555 1_555
H31 C25 1_555 1_555
C26 C2 1_555 1_555
C27 C13 1_555 1_555
H32 C27 1_555 1_555
H33 C27 1_555 1_555
C28 C9 1_555 1_555
H34 C28 1_555 1_555
C29 O2 1_555 1_555
C30 C1 1_555 1_555
H35 C30 1_555 1_555
H36 C30 1_555 1_555
H37 C30 1_555 1_555
C31 C10 1_555 1_555
H38 C31 1_555 1_555
H39 C31 1_555 1_555
H40 C31 1_555 1_555
C32 C3 1_555 1_555
H41 C32 1_555 1_555
C33 C29 1_555 1_555
H42 C33 1_555 1_555
H43 C33 1_555 1_555
H44 C33 1_555 1_555
C1 C13 1_555 1_555
C4 C26 1_555 1_555
C5 C12 1_555 1_555
C8 C10 1_555 1_555
C8 C32 1_555 1_555
C12 C18 1_555 1_555
C12 C32 1_555 1_555
C14 C26 1_555 1_555
C15 C27 1_555 1_555
C16 C21 1_555 1_555
C18 C24 1_555 1_555
C19 C28 1_555 1_555
C22 C24 1_555 1_555

#END
