
#######################################################################
#
#                 Cambridge Crystallographic Data Centre
#                                CCDC 
#
#######################################################################
#
# If this CIF has been generated from an entry in the Cambridge 
# Structural Database, then it will include bibliographic, chemical, 
# crystal, experimental, refinement or atomic coordinate data resulting 
# from the CCDC's data processing and validation procedures.
#
#######################################################################

data_XEXYOR
_chemical_formula_moiety         'C29 H38 O7'
_chemical_name_systematic        
'4-(acetyloxy)-3a,11-dihydroxy-2,5,8,8,12-pentamethyl-9-oxo-2,3,3a,4,5,8,9,10,11,13a-decahydro-1H-cyclopenta[12]annulen-1-yl benzoate'
_symmetry_cell_setting           orthorhombic
_symmetry_space_group_name_H-M   'P 21 21 21'
_symmetry_Int_Tables_number      19
_space_group_name_Hall           'P 2ac 2ab'
loop_
_symmetry_equiv_pos_site_id
_symmetry_equiv_pos_as_xyz
1 x,y,z
2 1/2-x,-y,1/2+z
3 1/2+x,1/2-y,-z
4 -x,1/2+y,1/2-z
_cell_length_a                   6.04781(16)
_cell_length_b                   13.9609(6)
_cell_length_c                   30.5491(11)
_cell_angle_alpha                90
_cell_angle_beta                 90
_cell_angle_gamma                90
_cell_volume                     2579.35
_cell_formula_units_Z            4
loop_
_atom_site_label
_atom_site_type_symbol
_atom_site_fract_x
_atom_site_fract_y
_atom_site_fract_z
O1 O 0.57554(19) 0.49754(8) 0.09643(4)
H1 H 0.5173 0.4439 0.1010
O2 O 0.5598(2) 0.24417(10) 0.12714(5)
O3 O 0.12570(19) 0.66920(8) 0.07790(4)
O4 O 0.1536(2) 0.60345(10) 0.25109(4)
O5 O 0.50482(19) 0.58403(9) 0.22756(4)
O6 O 0.4865(2) 0.28058(10) 0.21437(4)
H2 H 0.5701 0.2692 0.1930
O7 O 0.3185(2) 0.75582(9) 0.02860(4)
C1 C 0.2613(3) 0.58479(11) 0.07005(5)
H3 H 0.3504 0.5965 0.0430
C2 C 0.0959(3) 0.50379(11) 0.06008(5)
H4 H -0.0122 0.4998 0.0848
C3 C 0.3399(3) 0.57541(12) 0.25667(5)
C4 C 0.2819(3) 0.53161(12) 0.33457(6)
H5 H 0.1438 0.5639 0.3330
C5 C 0.3619(3) 0.23131(12) 0.12267(6)
C6 C 0.5504(3) 0.44126(13) 0.37568(6)
H6 H 0.5967 0.4129 0.4024
C7 C 0.6180(3) 0.47714(13) 0.29947(6)
H7 H 0.7095 0.4728 0.2743
C8 C 0.2655(3) 0.28975(13) 0.19937(6)
H8 H 0.1673 0.2729 0.2245
C9 C 0.5699(3) 0.66072(12) 0.11485(5)
H9 H 0.6918 0.6618 0.0932
H10 H 0.4821 0.7202 0.1119
C10 C 0.4178(3) 0.52624(12) 0.29752(5)
C11 C 0.2568(3) 0.23303(13) 0.07657(6)
C12 C 0.4239(3) 0.57186(11) 0.10869(5)
C13 C 0.3547(3) 0.45225(12) 0.17148(5)
H11 H 0.5032 0.4301 0.1719
C14 C 0.6830(3) 0.43451(14) 0.33864(6)
H12 H 0.8190 0.4006 0.3401
C15 C -0.0421(3) 0.41161(14) 0.18695(6)
H13 H -0.1033 0.4110 0.1572
H14 H -0.0660 0.4748 0.2001
H15 H -0.1160 0.3626 0.2047
C16 C 0.2069(3) 0.40798(12) 0.05532(5)
H16 H 0.3311 0.4033 0.0364
C17 C -0.0056(3) 0.82380(12) 0.06177(6)
H17 H -0.1474 0.8034 0.0494
H18 H 0.0408 0.8839 0.0480
H19 H -0.0218 0.8335 0.0934
C18 C 0.3497(3) 0.48966(13) 0.37350(6)
H20 H 0.2587 0.4940 0.3988
C19 C 0.3200(3) 0.55317(12) 0.15550(5)
H21 H 0.1586 0.5687 0.1552
C20 C 0.1408(3) 0.32987(12) 0.07609(5)
H22 H 0.0074 0.3347 0.0924
C21 C 0.2027(3) 0.39078(12) 0.18509(5)
C22 C 0.4464(3) 0.62532(12) 0.18582(5)
H23 H 0.3559 0.6845 0.1903
C23 C 0.2133(3) 0.21794(12) 0.16225(6)
H24 H 0.2311 0.1519 0.1735
H25 H 0.0573 0.2259 0.1532
C24 C 0.7866(3) 0.73476(13) 0.17950(6)
H26 H 0.9136 0.7483 0.1606
H27 H 0.8387 0.7199 0.2091
H28 H 0.6896 0.7909 0.1805
C25 C 0.1655(3) 0.74805(12) 0.05343(5)
C26 C 0.6591(3) 0.64960(12) 0.16141(5)
H29 H 0.7579 0.5922 0.1622
C27 C -0.0322(3) 0.52756(13) 0.01769(6)
H30 H -0.0980 0.5915 0.0202
H31 H -0.1495 0.4801 0.0133
H32 H 0.0694 0.5262 -0.0073
C28 C 0.4373(3) 0.22352(13) 0.04209(6)
H33 H 0.5478 0.2740 0.0464
H34 H 0.3720 0.2297 0.0129
H35 H 0.5084 0.1607 0.0448
C29 C 0.0865(3) 0.15122(13) 0.07167(6)
H36 H 0.1545 0.0905 0.0804
H37 H 0.0386 0.1471 0.0411
H38 H -0.0417 0.1643 0.0904
loop_
_geom_bond_atom_site_label_1
_geom_bond_atom_site_label_2
_geom_bond_site_symmetry_1
_geom_bond_site_symmetry_2
O1 H1 1_555 1_555
O2 C5 1_555 1_555
O3 C1 1_555 1_555
O4 C3 1_555 1_555
O5 C3 1_555 1_555
O6 H2 1_555 1_555
O7 C25 1_555 1_555
C1 H3 1_555 1_555
C2 C1 1_555 1_555
H4 C2 1_555 1_555
C3 C10 1_555 1_555
C4 H5 1_555 1_555
C5 C11 1_555 1_555
C6 H6 1_555 1_555
C7 H7 1_555 1_555
C8 O6 1_555 1_555
H8 C8 1_555 1_555
C9 H9 1_555 1_555
H10 C9 1_555 1_555
C10 C4 1_555 1_555
C11 C20 1_555 1_555
C12 O1 1_555 1_555
C13 H11 1_555 1_555
C14 C6 1_555 1_555
H12 C14 1_555 1_555
C15 H13 1_555 1_555
H14 C15 1_555 1_555
H15 C15 1_555 1_555
C16 C2 1_555 1_555
H16 C16 1_555 1_555
C17 H17 1_555 1_555
H18 C17 1_555 1_555
H19 C17 1_555 1_555
C18 C4 1_555 1_555
H20 C18 1_555 1_555
C19 C12 1_555 1_555
H21 C19 1_555 1_555
C20 C16 1_555 1_555
H22 C20 1_555 1_555
C21 C8 1_555 1_555
C22 O5 1_555 1_555
H23 C22 1_555 1_555
C23 C5 1_555 1_555
H24 C23 1_555 1_555
H25 C23 1_555 1_555
C24 H26 1_555 1_555
H27 C24 1_555 1_555
H28 C24 1_555 1_555
C25 O3 1_555 1_555
C26 C9 1_555 1_555
H29 C26 1_555 1_555
C27 C2 1_555 1_555
H30 C27 1_555 1_555
H31 C27 1_555 1_555
H32 C27 1_555 1_555
C28 C11 1_555 1_555
H33 C28 1_555 1_555
H34 C28 1_555 1_555
H35 C28 1_555 1_555
C29 C11 1_555 1_555
H36 C29 1_555 1_555
H37 C29 1_555 1_555
H38 C29 1_555 1_555
C1 C12 1_555 1_555
C6 C18 1_555 1_555
C7 C10 1_555 1_555
C7 C14 1_555 1_555
C8 C23 1_555 1_555
C9 C12 1_555 1_555
C13 C19 1_555 1_555
C13 C21 1_555 1_555
C15 C21 1_555 1_555
C17 C25 1_555 1_555
C19 C22 1_555 1_555
C22 C26 1_555 1_555
C24 C26 1_555 1_555

#END
