
#######################################################################
#
#                 Cambridge Crystallographic Data Centre
#                                CCDC 
#
#######################################################################
#
# If this CIF has been generated from an entry in the Cambridge 
# Structural Database, then it will include bibliographic, chemical, 
# crystal, experimental, refinement or atomic coordinate data resulting 
# from the CCDC's data processing and validation procedures.
#
#######################################################################

data_XEYBEK
_chemical_formula_moiety         'C39 H31 N3 S2'
_chemical_name_systematic        
((4-(2-(5-(2-(4-(Diphenylamino)phenyl)vinyl)-2-methyl-3-thienyl)cyclopent-1-en-1-yl)-5-methyl-2-thienyl)methylene)malononitrile
_symmetry_cell_setting           monoclinic
_symmetry_space_group_name_H-M   'P 21/c'
_symmetry_Int_Tables_number      14
_space_group_name_Hall           '-P 2ybc'
loop_
_symmetry_equiv_pos_site_id
_symmetry_equiv_pos_as_xyz
1 x,y,z
2 -x,1/2+y,1/2-z
3 -x,-y,-z
4 x,1/2-y,1/2+z
_cell_length_a                   19.681(2)
_cell_length_b                   8.3397(9)
_cell_length_c                   21.489(2)
_cell_angle_alpha                90
_cell_angle_beta                 110.841(2)
_cell_angle_gamma                90
_cell_volume                     3296.3
_exptl_crystal_colour            colorless
_exptl_crystal_description       prismatic
_cell_formula_units_Z            4
loop_
_atom_site_label
_atom_site_type_symbol
_atom_site_fract_x
_atom_site_fract_y
_atom_site_fract_z
S1 S 0.18116(4) 0.41125(7) 0.65032(3)
S2 S 0.13796(4) 0.42636(7) 0.36263(3)
N1 N -0.01544(15) 0.4334(3) 0.80456(14)
N2 N 0.17158(19) 0.6534(3) 0.77617(16)
N3 N 0.41776(13) 0.6043(3) 0.12559(12)
C1 C 0.07290(15) 0.4364(3) 0.74152(13)
C2 C 0.06793(14) 0.3238(3) 0.69525(12)
H1 H 0.0309 0.2495 0.6895
C3 C 0.10903(13) 0.2981(3) 0.65370(12)
C4 C 0.09765(14) 0.1708(3) 0.61101(13)
H2 H 0.0613 0.0954 0.6062
C5 C 0.14450(13) 0.1620(3) 0.57510(12)
C6 C 0.19430(13) 0.2866(3) 0.59199(12)
C7 C 0.13964(13) 0.0302(3) 0.52856(13)
C8 C 0.11991(17) -0.1354(3) 0.54529(15)
H3 H 0.1502 -0.1659 0.5902
H4 H 0.0693 -0.1399 0.5414
C9 C 0.1335(2) -0.2424(3) 0.49505(16)
H5 H 0.0944 -0.3195 0.4780
H6 H 0.1788 -0.3004 0.5152
C10 C 0.13762(15) -0.1369(3) 0.43960(14)
H7 H 0.0933 -0.1442 0.4008
H8 H 0.1786 -0.1663 0.4269
C11 C 0.14724(12) 0.0308(3) 0.46923(12)
C12 C 0.15692(12) 0.1663(3) 0.42972(11)
C13 C 0.11359(12) 0.2996(3) 0.41493(12)
C14 C 0.20663(13) 0.2995(3) 0.36013(11)
C15 C 0.20890(13) 0.1675(3) 0.39832(12)
H9 H 0.2421 0.0848 0.4033
C16 C 0.25126(14) 0.3320(3) 0.32095(12)
H10 H 0.2882 0.2590 0.3243
C17 C 0.24474(15) 0.4557(3) 0.28059(13)
H11 H 0.2081 0.5289 0.2778
C18 C 0.28897(15) 0.4899(3) 0.23984(13)
C19 C 0.34290(17) 0.3889(3) 0.23623(15)
H12 H 0.3515 0.2934 0.2602
C20 C 0.38430(17) 0.4246(3) 0.19848(15)
H13 H 0.4199 0.3528 0.1970
C21 C 0.37381(15) 0.5663(3) 0.16245(13)
C22 C 0.31856(16) 0.6659(3) 0.16449(14)
H14 H 0.3090 0.7601 0.1397
C23 C 0.27738(16) 0.6284(3) 0.20241(14)
H15 H 0.2407 0.6982 0.2028
C24 C 0.48622(16) 0.5300(4) 0.13856(16)
C25 C 0.5381(2) 0.5276(4) 0.2014(2)
H16 H 0.5283 0.5719 0.2371
C26 C 0.6067(3) 0.4570(5) 0.2114(3)
H17 H 0.6429 0.4561 0.2534
C27 C 0.6189(3) 0.3904(7) 0.1585(4)
H18 H 0.6637 0.3433 0.1648
C28 C 0.5679(3) 0.3913(7) 0.0978(3)
H19 H 0.5772 0.3444 0.0624
C29 C 0.5011(2) 0.4618(5) 0.0874(2)
H20 H 0.4659 0.4626 0.0448
C30 C 0.40055(16) 0.7350(4) 0.08014(15)
C31 C 0.33947(17) 0.7333(4) 0.02433(16)
H21 H 0.3076 0.6470 0.0163
C32 C 0.3247(2) 0.8591(6) -0.02038(19)
H22 H 0.2827 0.8574 -0.0582
C33 C 0.3704(3) 0.9833(6) -0.0096(3)
H23 H 0.3604 1.0671 -0.0401
C34 C 0.4317(3) 0.9877(5) 0.0459(3)
H24 H 0.4635 1.0740 0.0533
C35 C 0.44651(19) 0.8620(4) 0.0916(2)
H25 H 0.4879 0.8652 0.1299
C36 C 0.02421(16) 0.4345(3) 0.77677(14)
C37 C 0.12754(19) 0.5585(3) 0.75999(15)
C38 C 0.25563(14) 0.3199(3) 0.56883(14)
H26 H 0.2768 0.2205 0.5624
H27 H 0.2917 0.3830 0.6016
H28 H 0.2380 0.3777 0.5275
C39 C 0.04896(14) 0.3387(3) 0.43264(15)
H29 H 0.0247 0.2414 0.4364
H30 H 0.0163 0.4051 0.3986
H31 H 0.0643 0.3948 0.4744
loop_
_geom_bond_atom_site_label_1
_geom_bond_atom_site_label_2
_geom_bond_site_symmetry_1
_geom_bond_site_symmetry_2
S1 C3 1_555 1_555
S2 C13 1_555 1_555
N1 C36 1_555 1_555
N2 C37 1_555 1_555
N3 C21 1_555 1_555
C1 C2 1_555 1_555
C2 H1 1_555 1_555
C3 C2 1_555 1_555
C4 C3 1_555 1_555
H2 C4 1_555 1_555
C5 C4 1_555 1_555
C6 S1 1_555 1_555
C7 C5 1_555 1_555
C8 C7 1_555 1_555
H3 C8 1_555 1_555
H4 C8 1_555 1_555
C9 C8 1_555 1_555
H5 C9 1_555 1_555
H6 C9 1_555 1_555
C10 C9 1_555 1_555
H7 C10 1_555 1_555
H8 C10 1_555 1_555
C11 C7 1_555 1_555
C12 C11 1_555 1_555
C13 C12 1_555 1_555
C14 S2 1_555 1_555
C15 C12 1_555 1_555
H9 C15 1_555 1_555
C16 C14 1_555 1_555
H10 C16 1_555 1_555
C17 C16 1_555 1_555
H11 C17 1_555 1_555
C18 C17 1_555 1_555
C19 C18 1_555 1_555
H12 C19 1_555 1_555
C20 C19 1_555 1_555
H13 C20 1_555 1_555
C21 C20 1_555 1_555
C22 C21 1_555 1_555
H14 C22 1_555 1_555
C23 C18 1_555 1_555
H15 C23 1_555 1_555
C24 N3 1_555 1_555
C25 C24 1_555 1_555
H16 C25 1_555 1_555
C26 C25 1_555 1_555
H17 C26 1_555 1_555
C27 C26 1_555 1_555
H18 C27 1_555 1_555
C28 C27 1_555 1_555
H19 C28 1_555 1_555
C29 C24 1_555 1_555
H20 C29 1_555 1_555
C30 N3 1_555 1_555
C31 C30 1_555 1_555
H21 C31 1_555 1_555
C32 C31 1_555 1_555
H22 C32 1_555 1_555
C33 C32 1_555 1_555
H23 C33 1_555 1_555
C34 C33 1_555 1_555
H24 C34 1_555 1_555
C35 C30 1_555 1_555
H25 C35 1_555 1_555
C36 C1 1_555 1_555
C37 C1 1_555 1_555
C38 C6 1_555 1_555
H26 C38 1_555 1_555
H27 C38 1_555 1_555
H28 C38 1_555 1_555
C39 C13 1_555 1_555
H29 C39 1_555 1_555
H30 C39 1_555 1_555
H31 C39 1_555 1_555
C5 C6 1_555 1_555
C10 C11 1_555 1_555
C14 C15 1_555 1_555
C22 C23 1_555 1_555
C28 C29 1_555 1_555
C34 C35 1_555 1_555

#END
