
#######################################################################
#
#                 Cambridge Crystallographic Data Centre
#                                CCDC 
#
#######################################################################
#
# If this CIF has been generated from an entry in the Cambridge 
# Structural Database, then it will include bibliographic, chemical, 
# crystal, experimental, refinement or atomic coordinate data resulting 
# from the CCDC's data processing and validation procedures.
#
#######################################################################

data_XEYJOD
_chemical_formula_moiety         'C62 H58 N10 O4 4+,4(F6 P1 1-),2(C2 H3 N1)'
_chemical_name_systematic        
'2,30,35,63-tetraoxa-5,16,27,38,49,60-hexaaza-8,24,41,57-tetraazoniatridecacyclo[62.2.2.2^31,34^.1^5,8^.1^14,18^.1^24,27^.1^38,41^.1^47,51^.1^57,60^.0^10,15^.0^17,22^.0^43,48^.0^50,55^]hexaheptaconta-1(66),6,8(76),10,12,14(75),15,17,19,21,24(74),25,31,33,39,41(71),43,45,47(70),48,50,52,54,57(69),58,64,67,72-octacosaene tetrakis(hexafluorophosphate) acetonitrile solvate'
_symmetry_cell_setting           triclinic
_symmetry_space_group_name_H-M   'P -1'
_symmetry_Int_Tables_number      2
_space_group_name_Hall           '-P 1'
loop_
_symmetry_equiv_pos_site_id
_symmetry_equiv_pos_as_xyz
1 x,y,z
2 -x,-y,-z
_cell_length_a                   9.7702(6)
_cell_length_b                   12.8941(5)
_cell_length_c                   14.5273(8)
_cell_angle_alpha                73.615(4)
_cell_angle_beta                 85.352(5)
_cell_angle_gamma                82.667(4)
_cell_volume                     1739.48
_exptl_crystal_colour            colorless
_exptl_crystal_description       needle
_cell_formula_units_Z            1
loop_
_atom_site_label
_atom_site_type_symbol
_atom_site_fract_x
_atom_site_fract_y
_atom_site_fract_z
P1 P 0.55745(8) 0.80377(6) 0.90186(5)
F1 F 0.39850(18) 0.85029(14) 0.88726(14)
F2 F 0.5149(2) 0.68268(14) 0.93051(16)
F3 F 0.5422(2) 0.80409(18) 1.01103(14)
F4 F 0.7157(2) 0.75824(18) 0.91552(16)
F5 F 0.5983(2) 0.92522(16) 0.87079(18)
F6 F 0.5713(3) 0.8046(2) 0.79107(14)
P2 P -0.12886(8) 0.33993(6) 0.83150(6)
F7 F -0.12457(18) 0.24492(14) 0.77921(13)
F8 F -0.2606(2) 0.29575(16) 0.89570(14)
F9 F -0.1339(2) 0.43605(17) 0.88149(16)
F10 F -0.2304(2) 0.41631(16) 0.75249(16)
F11 F 0.0032(2) 0.38393(17) 0.76455(16)
F12 F -0.0288(2) 0.26299(19) 0.90908(16)
O1 O 0.3661(2) 0.46429(16) 0.76819(15)
O2 O 0.4309(2) 0.75480(16) 0.40935(15)
N1 N 0.2727(2) 1.06155(18) 0.72443(17)
N2 N 0.0841(2) 0.85225(18) 0.61139(17)
N3 N 0.0284(2) 0.68037(18) 0.80428(17)
N4 N 0.4254(2) 1.15060(19) 0.75752(17)
N5 N 0.1940(3) 0.57780(19) 0.88534(17)
C1 C 0.1599(3) 0.9245(2) 0.5488(2)
C2 C 0.1749(3) 0.9325(2) 0.4478(2)
C3 C 0.2263(3) 0.9962(2) 0.5850(2)
C4 C 0.0251(3) 0.7829(2) 0.5776(2)
C5 C 0.2017(3) 1.1469(2) 0.7542(2)
H1 H 0.106273 1.162665 0.759279
C6 C 0.0410(3) 0.7804(2) 0.4791(2)
C7 C 0.4071(3) 1.0657(2) 0.7272(2)
H2 H 0.476972 1.017221 0.710579
C8 C 0.0968(3) 0.5819(2) 0.8254(2)
H3 H 0.079631 0.524898 0.801990
C9 C 0.3005(3) 1.0722(2) 0.5233(2)
H4 H 0.344316 1.118363 0.547235
C10 C 0.1147(3) 0.8581(2) 0.4153(2)
H5 H 0.123671 0.860420 0.350528
C11 C 0.2516(3) 1.0140(2) 0.3864(2)
H6 H 0.260515 1.020706 0.320827
C12 C 0.4156(3) 0.4782(3) 0.8537(2)
H7 H 0.459323 0.544840 0.838708
H8 H 0.483172 0.417793 0.881502
C13 C 0.2976(3) 1.2032(2) 0.7745(2)
H9 H 0.280640 1.265444 0.795784
C14 C 0.3118(3) 1.0818(2) 0.4231(2)
H10 H 0.361059 1.135173 0.382234
C15 C 0.3803(3) 0.5423(2) 0.6816(2)
C16 C 0.1881(3) 0.6779(2) 0.9026(2)
H11 H 0.244899 0.697768 0.941645
C17 C 0.4086(3) 0.6816(2) 0.4973(2)
C18 C 0.0842(3) 0.7414(2) 0.8521(2)
H12 H 0.055492 0.813579 0.850044
C19 C 0.2107(3) 0.9802(2) 0.6930(2)
H13 H 0.113168 0.983479 0.712259
H14 H 0.253562 0.908325 0.725163
C20 C 0.5610(3) 1.1874(2) 0.7609(2)
H15 H 0.632645 1.127171 0.764218
H16 H 0.563195 1.211607 0.818119
C21 C -0.0607(3) 0.7092(2) 0.6426(2)
C22 C -0.0926(3) 0.7175(2) 0.7441(2)
C23 C -0.1188(3) 0.6358(2) 0.6104(2)
H17 H -0.174678 0.588523 0.652546
C24 C -0.0195(3) 0.6999(2) 0.4502(2)
H18 H -0.006344 0.695870 0.387121
C25 C 0.2939(3) 0.4833(2) 0.9240(2)
H19 H 0.249218 0.417325 0.937100
H20 H 0.326133 0.487978 0.983939
C26 C 0.4110(3) 0.7207(2) 0.3268(2)
H21 H 0.317086 0.703355 0.328040
H22 H 0.473719 0.656312 0.325763
C27 C -0.0957(4) 0.6300(3) 0.5141(2)
H23 H -0.133641 0.577304 0.494948
C28 C 0.3490(4) 0.5873(3) 0.5120(3)
H24 H 0.318039 0.569310 0.460211
C29 C 0.3349(4) 0.5190(3) 0.6037(3)
H25 H 0.293594 0.455560 0.612798
C30 C 0.4363(5) 0.7124(3) 0.5761(3)
H26 H 0.463071 0.781288 0.567978
C31 C 0.4251(5) 0.6422(3) 0.6686(3)
H27 H 0.447953 0.663112 0.721112
O1A O 0.6339(2) 1.53571(16) 0.23181(15)
O2A O 0.5691(2) 1.24520(16) 0.59065(15)
N1A N 0.7273(2) 0.93845(18) 0.27557(17)
N2A N 0.9159(2) 1.14775(18) 0.38861(17)
N3A N 0.9716(2) 1.31963(18) 0.19572(17)
N4A N 0.5746(2) 0.84940(19) 0.24248(17)
N5A N 0.8060(3) 1.42220(19) 0.11466(17)
C1A C 0.8401(3) 1.0755(2) 0.4512(2)
C2A C 0.8251(3) 1.0675(2) 0.5522(2)
C3A C 0.7737(3) 1.0038(2) 0.4150(2)
C4A C 0.9749(3) 1.2171(2) 0.4224(2)
C5A C 0.7983(3) 0.8531(2) 0.2458(2)
H1A H 0.893727 0.837335 0.240721
C6A C 0.9590(3) 1.2196(2) 0.5209(2)
C7A C 0.5929(3) 0.9343(2) 0.2728(2)
H2A H 0.523028 0.982779 0.289421
C8A C 0.9032(3) 1.4181(2) 0.1746(2)
H3A H 0.920369 1.475102 0.198010
C9A C 0.6995(3) 0.9278(2) 0.4767(2)
H4A H 0.655684 0.881637 0.452765
C10A C 0.8853(3) 1.1419(2) 0.5847(2)
H5A H 0.876329 1.139580 0.649472
C11A C 0.7484(3) 0.9860(2) 0.6136(2)
H6A H 0.739485 0.979294 0.679173
C12A C 0.5844(3) 1.5218(3) 0.1463(2)
H7A H 0.540677 1.455160 0.161292
H8A H 0.516828 1.582207 0.118498
C13A C 0.7024(3) 0.7968(2) 0.2255(2)
H9A H 0.719360 0.734556 0.204216
C14A C 0.6882(3) 0.9182(2) 0.5769(2)
H10A H 0.638941 0.864827 0.617766
C15A C 0.6197(3) 1.4577(2) 0.3184(2)
C16A C 0.8119(3) 1.3221(2) 0.0974(2)
H11A H 0.755101 1.302232 0.058355
C17A C 0.5914(3) 1.3184(2) 0.5027(2)
C18A C 0.9158(3) 1.2586(2) 0.1479(2)
H12A H 0.944508 1.186421 0.149956
C19A C 0.7893(3) 1.0198(2) 0.3070(2)
H13A H 0.886832 1.016521 0.287741
H14A H 0.746438 1.091675 0.274837
C20A C 0.4390(3) 0.8126(2) 0.2391(2)
H15A H 0.367355 0.872829 0.235782
H16A H 0.436805 0.788393 0.181881
C21A C 1.0607(3) 1.2908(2) 0.3574(2)
C22A C 1.0926(3) 1.2825(2) 0.2559(2)
C23A C 1.1188(3) 1.3642(2) 0.3896(2)
H17A H 1.174678 1.411477 0.347454
C24A C 1.0195(3) 1.3001(2) 0.5498(2)
H18A H 1.006344 1.304130 0.612879
C25A C 0.7061(3) 1.5167(2) 0.0760(2)
H19A H 0.750782 1.582675 0.062900
H20A H 0.673867 1.512022 0.016061
C26A C 0.5890(3) 1.2793(2) 0.6732(2)
H21A H 0.682914 1.296645 0.671960
H22A H 0.526281 1.343688 0.674237
C27A C 1.0957(4) 1.3700(3) 0.4859(2)
H23A H 1.133641 1.422696 0.505052
C28A C 0.6510(4) 1.4127(3) 0.4880(3)
H24A H 0.681961 1.430690 0.539789
C29A C 0.6651(4) 1.4810(3) 0.3963(3)
H25A H 0.706406 1.544440 0.387202
C30A C 0.5637(5) 1.2876(3) 0.4239(3)
H26A H 0.536929 1.218712 0.432022
C31A C 0.5749(5) 1.3578(3) 0.3314(3)
H27A H 0.552047 1.336888 0.278888
N6 N 0.9217(3) 0.9922(2) 0.8357(2)
C32 C 0.8621(3) 1.0018(2) 0.9043(2)
C33 C 0.7867(4) 1.0155(3) 0.9903(3)
H28 H 0.837756 0.975422 1.045330
H29 H 0.698245 0.988955 0.994747
H30 H 0.773844 1.091215 0.987991
loop_
_geom_bond_atom_site_label_1
_geom_bond_atom_site_label_2
_geom_bond_site_symmetry_1
_geom_bond_site_symmetry_2
P1 F1 1_555 1_555
F2 P1 1_555 1_555
F3 P1 1_555 1_555
F4 P1 1_555 1_555
F5 P1 1_555 1_555
F6 P1 1_555 1_555
P2 F7 1_555 1_555
F8 P2 1_555 1_555
F9 P2 1_555 1_555
F10 P2 1_555 1_555
F11 P2 1_555 1_555
F12 P2 1_555 1_555
O1 C12 1_555 1_555
O2 C17 1_555 1_555
N1 C5 1_555 1_555
N2 C1 1_555 1_555
N3 C8 1_555 1_555
N4 C7 1_555 1_555
N5 C8 1_555 1_555
C1 C2 1_555 1_555
C2 C10 1_555 1_555
C3 C1 1_555 1_555
C4 N2 1_555 1_555
C5 H1 1_555 1_555
C6 C4 1_555 1_555
C7 N1 1_555 1_555
H2 C7 1_555 1_555
C8 H3 1_555 1_555
C9 C3 1_555 1_555
H4 C9 1_555 1_555
C10 C6 1_555 1_555
H5 C10 1_555 1_555
C11 C2 1_555 1_555
H6 C11 1_555 1_555
C12 H7 1_555 1_555
H8 C12 1_555 1_555
C13 N4 1_555 1_555
H9 C13 1_555 1_555
C14 C9 1_555 1_555
H10 C14 1_555 1_555
C15 O1 1_555 1_555
C16 N5 1_555 1_555
H11 C16 1_555 1_555
C17 C28 1_555 1_555
C18 N3 1_555 1_555
H12 C18 1_555 1_555
C19 N1 1_555 1_555
H13 C19 1_555 1_555
H14 C19 1_555 1_555
C20 N4 1_555 1_555
H15 C20 1_555 1_555
H16 C20 1_555 1_555
C21 C4 1_555 1_555
C22 N3 1_555 1_555
C23 C21 1_555 1_555
H17 C23 1_555 1_555
C24 C6 1_555 1_555
H18 C24 1_555 1_555
C25 N5 1_555 1_555
H19 C25 1_555 1_555
H20 C25 1_555 1_555
C26 O2 1_555 1_555
H21 C26 1_555 1_555
H22 C26 1_555 1_555
C27 C23 1_555 1_555
H23 C27 1_555 1_555
C28 H24 1_555 1_555
C29 C15 1_555 1_555
H25 C29 1_555 1_555
C30 C17 1_555 1_555
H26 C30 1_555 1_555
C31 C15 1_555 1_555
H27 C31 1_555 1_555
N6 C32 1_555 1_555
C32 C33 1_555 1_555
C33 H28 1_555 1_555
H29 C33 1_555 1_555
H30 C33 1_555 1_555
O1A C12A 1_555 1_555
O2A C17A 1_555 1_555
N1A C5A 1_555 1_555
N2A C1A 1_555 1_555
N3A C8A 1_555 1_555
N4A C7A 1_555 1_555
N5A C8A 1_555 1_555
C1A C2A 1_555 1_555
C2A C10A 1_555 1_555
C3A C1A 1_555 1_555
C4A N2A 1_555 1_555
C5A H1A 1_555 1_555
C6A C4A 1_555 1_555
C7A N1A 1_555 1_555
H2A C7A 1_555 1_555
C8A H3A 1_555 1_555
C9A C3A 1_555 1_555
H4A C9A 1_555 1_555
C10A C6A 1_555 1_555
H5A C10A 1_555 1_555
C11A C2A 1_555 1_555
H6A C11A 1_555 1_555
C12A H7A 1_555 1_555
H8A C12A 1_555 1_555
C13A N4A 1_555 1_555
H9A C13A 1_555 1_555
C14A C9A 1_555 1_555
H10A C14A 1_555 1_555
C15A O1A 1_555 1_555
C16A N5A 1_555 1_555
H11A C16A 1_555 1_555
C17A C28A 1_555 1_555
C18A N3A 1_555 1_555
H12A C18A 1_555 1_555
C19A N1A 1_555 1_555
H13A C19A 1_555 1_555
H14A C19A 1_555 1_555
C20A C26 1_555 1_555
H15A C20A 1_555 1_555
H16A C20A 1_555 1_555
C21A C4A 1_555 1_555
C22A N3A 1_555 1_555
C23A C21A 1_555 1_555
H17A C23A 1_555 1_555
C24A C6A 1_555 1_555
H18A C24A 1_555 1_555
C25A N5A 1_555 1_555
H19A C25A 1_555 1_555
H20A C25A 1_555 1_555
C26A C20 1_555 1_555
H21A C26A 1_555 1_555
H22A C26A 1_555 1_555
C27A C23A 1_555 1_555
H23A C27A 1_555 1_555
C28A H24A 1_555 1_555
C29A C15A 1_555 1_555
H25A C29A 1_555 1_555
C30A C17A 1_555 1_555
H26A C30A 1_555 1_555
C31A C15A 1_555 1_555
H27A C31A 1_555 1_555
C3 C19 1_555 1_555
C5 C13 1_555 1_555
C11 C14 1_555 1_555
C12 C25 1_555 1_555
C16 C18 1_555 1_555
C21 C22 1_555 1_555
C24 C27 1_555 1_555
C28 C29 1_555 1_555
C30 C31 1_555 1_555
O2A C26A 1_555 1_555
N4A C20A 1_555 1_555
C3A C19A 1_555 1_555
C5A C13A 1_555 1_555
C11A C14A 1_555 1_555
C12A C25A 1_555 1_555
C16A C18A 1_555 1_555
C21A C22A 1_555 1_555
C24A C27A 1_555 1_555
C28A C29A 1_555 1_555
C30A C31A 1_555 1_555

#END
