
#######################################################################
#
#                 Cambridge Crystallographic Data Centre
#                                CCDC 
#
#######################################################################
#
# If this CIF has been generated from an entry in the Cambridge 
# Structural Database, then it will include bibliographic, chemical, 
# crystal, experimental, refinement or atomic coordinate data resulting 
# from the CCDC's data processing and validation procedures.
#
#######################################################################

data_XEYSEA
_chemical_formula_moiety         'C15 H18 O6'
_chemical_name_systematic        '(2S,3S)-Diethyl 2,3-O-benzylidene-D-tartrate'
_symmetry_cell_setting           monoclinic
_symmetry_space_group_name_H-M   'P 21'
_symmetry_Int_Tables_number      4
_space_group_name_Hall           'P 2yb'
loop_
_symmetry_equiv_pos_site_id
_symmetry_equiv_pos_as_xyz
1 x,y,z
2 -x,1/2+y,-z
_cell_length_a                   7.5400(15)
_cell_length_b                   26.500(5)
_cell_length_c                   8.2100(16)
_cell_angle_alpha                90
_cell_angle_beta                 114.50(3)
_cell_angle_gamma                90
_cell_volume                     1492.74
_exptl_crystal_colour            colorless
_exptl_crystal_description       block
_cell_formula_units_Z            4
_exptl_crystal_recrystallization_method ethanol
loop_
_atom_site_label
_atom_site_type_symbol
_atom_site_fract_x
_atom_site_fract_y
_atom_site_fract_z
C1 C 1.1727(9) 0.8725(3) 0.2846(8)
C2 C 1.2078(10) 0.8236(3) 0.2463(10)
H1 H 1.1083 0.8049 0.1606
C3 C 1.3215(9) 0.9006(3) 0.4137(9)
H2 H 1.2977 0.9334 0.4391
C4 C 1.5069(10) 0.8793(3) 0.5049(9)
H3 H 1.6074 0.8975 0.5914
C5 C 1.5359(9) 0.8301(2) 0.4621(8)
H4 H 1.6580 0.8154 0.5214
C6 C 1.3898(9) 0.8026(3) 0.3352(9)
H5 H 1.4137 0.7699 0.3091
C7 C 0.9717(9) 0.8899(2) 0.1815(8)
H6 H 0.9106 0.8651 0.0859
C8 C 0.7349(8) 0.9511(2) 0.0707(7)
H7 H 0.6446 0.9518 -0.0562
C9 C 0.6764(8) 0.9106(2) 0.1749(8)
H8 H 0.5984 0.9232 0.2366
C10 C 0.7397(9) 1.0013(2) 0.1624(8)
C11 C 0.5422(8) 1.0611(2) 0.2281(7)
H9 H 0.5443 1.0888 0.1517
H10 H 0.6462 1.0659 0.3462
C12 C 0.3415(8) 1.0580(2) 0.2387(8)
H11 H 0.2841 1.0255 0.1972
H12 H 0.2572 1.0839 0.1650
H13 H 0.3593 1.0627 0.3605
C13 C 0.5855(8) 0.8668(2) 0.0464(7)
C14 C 0.2761(9) 0.8399(2) -0.1768(8)
H14 H 0.2960 0.8079 -0.1144
H15 H 0.3141 0.8359 -0.2754
C15 C 0.0596(9) 0.8546(2) -0.2501(8)
H16 H 0.0318 0.8685 -0.1553
H17 H -0.0194 0.8252 -0.2975
H18 H 0.0313 0.8792 -0.3433
O1 O 0.9301(6) 0.93990(15) 0.0945(5)
O2 O 0.8604(6) 0.88909(15) 0.2893(5)
O3 O 0.8785(5) 1.02980(16) 0.2151(5)
O4 O 0.5637(6) 1.01352(14) 0.1536(5)
O5 O 0.6363(5) 0.82564(14) 0.0246(5)
O6 O 0.3962(6) 0.87824(15) -0.0556(5)
C16 C 0.7141(9) 0.6673(2) 0.3514(7)
C17 C 0.8833(8) 0.6460(2) 0.4815(7)
H19 H 0.8824 0.6127 0.5172
C18 C 1.0524(8) 0.6744(2) 0.5572(7)
H20 H 1.1643 0.6603 0.6447
C19 C 1.0549(9) 0.7244(2) 0.5020(7)
H21 H 1.1689 0.7433 0.5513
C20 C 0.8859(8) 0.7456(2) 0.3729(7)
H22 H 0.8867 0.7788 0.3364
C21 C 0.7154(9) 0.7169(2) 0.2984(8)
H23 H 0.6024 0.7312 0.2130
C22 C 0.5514(9) 0.6315(2) 0.2710(7)
H24 H 0.5994 0.5968 0.2804
C23 C 0.2238(9) 0.6249(2) 0.2336(7)
H25 H 0.1270 0.6434 0.2611
C24 C 0.2236(8) 0.6414(2) 0.0559(6)
H26 H 0.1570 0.6159 -0.0352
C25 C 0.2039(8) 0.5683(2) 0.2466(7)
C26 C -0.0143(9) 0.5029(2) 0.2321(9)
H27 H 0.0906 0.4868 0.3319
H28 H -0.0273 0.4866 0.1219
C27 C -0.2038(9) 0.5002(2) 0.2544(8)
H29 H -0.1940 0.5207 0.3541
H30 H -0.2288 0.4659 0.2757
H31 H -0.3085 0.5123 0.1475
C28 C 0.1201(9) 0.6911(2) -0.0020(7)
C29 C -0.1877(8) 0.7302(2) -0.1310(7)
H32 H -0.1631 0.7481 -0.2227
H33 H -0.1617 0.7524 -0.0296
C30 C -0.3949(8) 0.7086(2) -0.2038(8)
H34 H -0.4374 0.7007 -0.3284
H35 H -0.4813 0.7331 -0.1896
H36 H -0.3956 0.6786 -0.1389
O7 O 0.4201(6) 0.63674(16) 0.3578(5)
O8 O 0.4236(6) 0.64430(15) 0.0836(5)
O9 O 0.3241(6) 0.53567(17) 0.2538(5)
O10 O 0.0227(6) 0.55682(15) 0.2270(5)
O11 O 0.1993(6) 0.73071(17) 0.0087(5)
O12 O -0.0752(5) 0.68353(13) -0.0778(5)
loop_
_geom_bond_atom_site_label_1
_geom_bond_atom_site_label_2
_geom_bond_site_symmetry_1
_geom_bond_site_symmetry_2
C1 C2 1_555 1_555
C2 H1 1_555 1_555
C3 C1 1_555 1_555
H2 C3 1_555 1_555
C4 C3 1_555 1_555
H3 C4 1_555 1_555
C5 C4 1_555 1_555
H4 C5 1_555 1_555
C6 C2 1_555 1_555
H5 C6 1_555 1_555
C7 C1 1_555 1_555
H6 C7 1_555 1_555
C8 H7 1_555 1_555
C9 C8 1_555 1_555
H8 C9 1_555 1_555
C10 C8 1_555 1_555
C11 H9 1_555 1_555
H10 C11 1_555 1_555
C12 C11 1_555 1_555
H11 C12 1_555 1_555
H12 C12 1_555 1_555
H13 C12 1_555 1_555
C13 C9 1_555 1_555
C14 H14 1_555 1_555
H15 C14 1_555 1_555
C15 C14 1_555 1_555
H16 C15 1_555 1_555
H17 C15 1_555 1_555
H18 C15 1_555 1_555
C16 C17 1_555 1_555
C17 H19 1_555 1_555
C18 C17 1_555 1_555
H20 C18 1_555 1_555
C19 C18 1_555 1_555
H21 C19 1_555 1_555
C20 C19 1_555 1_555
H22 C20 1_555 1_555
C21 C16 1_555 1_555
H23 C21 1_555 1_555
C22 C16 1_555 1_555
H24 C22 1_555 1_555
C23 H25 1_555 1_555
C24 C23 1_555 1_555
H26 C24 1_555 1_555
C25 C23 1_555 1_555
C26 H27 1_555 1_555
H28 C26 1_555 1_555
C27 C26 1_555 1_555
H29 C27 1_555 1_555
H30 C27 1_555 1_555
H31 C27 1_555 1_555
C28 C24 1_555 1_555
C29 H32 1_555 1_555
H33 C29 1_555 1_555
C30 C29 1_555 1_555
H34 C30 1_555 1_555
H35 C30 1_555 1_555
H36 C30 1_555 1_555
O1 C7 1_555 1_555
O2 C7 1_555 1_555
O3 C10 1_555 1_555
O4 C10 1_555 1_555
O5 C13 1_555 1_555
O6 C13 1_555 1_555
O7 C22 1_555 1_555
O8 C22 1_555 1_555
O9 C25 1_555 1_555
O10 C25 1_555 1_555
O11 C28 1_555 1_555
O12 C28 1_555 1_555
C5 C6 1_555 1_555
C8 O1 1_555 1_555
C9 O2 1_555 1_555
C11 O4 1_555 1_555
C14 O6 1_555 1_555
C20 C21 1_555 1_555
C23 O7 1_555 1_555
C24 O8 1_555 1_555
C26 O10 1_555 1_555
C29 O12 1_555 1_555

#END
