
#######################################################################
#
#                 Cambridge Crystallographic Data Centre
#                                CCDC 
#
#######################################################################
#
# If this CIF has been generated from an entry in the Cambridge 
# Structural Database, then it will include bibliographic, chemical, 
# crystal, experimental, refinement or atomic coordinate data resulting 
# from the CCDC's data processing and validation procedures.
#
#######################################################################

data_XEYTOL
_chemical_formula_moiety         'C21 H31 Cl1 O4'
_chemical_name_systematic        
3\b-Acetoxy-6\a-chloro-5\b-hydroxyandrostan-17-one
_symmetry_cell_setting           orthorhombic
_symmetry_space_group_name_H-M   'P 21 21 21'
_symmetry_Int_Tables_number      19
_space_group_name_Hall           'P 2ac 2ab'
loop_
_symmetry_equiv_pos_site_id
_symmetry_equiv_pos_as_xyz
1 x,y,z
2 1/2-x,-y,1/2+z
3 -x,1/2+y,1/2-z
4 1/2+x,1/2-y,-z
_cell_length_a                   9.751(4)
_cell_length_b                   11.841(5)
_cell_length_c                   17.779(7)
_cell_angle_alpha                90
_cell_angle_beta                 90
_cell_angle_gamma                90
_cell_volume                     2052.79
_exptl_crystal_colour            colorless
_exptl_crystal_description       prismatic
_chemical_melting_point          '464 K'
_cell_formula_units_Z            4
_exptl_crystal_recrystallization_method THF/acetone/water
loop_
_atom_site_label
_atom_site_type_symbol
_atom_site_fract_x
_atom_site_fract_y
_atom_site_fract_z
Cl1 Cl 0.06666(7) 0.23743(4) 0.21416(4)
O1 O -0.21827(16) 0.02135(13) 0.04046(9)
O2 O -0.39862(18) -0.09294(16) 0.02292(11)
O3 O 0.03436(18) 0.13817(13) 0.05745(10)
H1 H -0.037(2) 0.121(2) 0.0436(15)
O4 O 0.4417(2) -0.40357(16) 0.32329(12)
C1 C 0.0411(3) -0.11035(18) 0.02956(12)
H2 H 0.0180 -0.0608 -0.0120
H3 H 0.0882 -0.1755 0.0089
C2 C -0.0899(2) -0.14952(18) 0.06667(14)
H4 H -0.1471 -0.1871 0.0297
H5 H -0.0682 -0.2037 0.1058
C3 C -0.1681(2) -0.05187(18) 0.10054(13)
H6 H -0.2460 -0.0808 0.1296
C4 C -0.0788(2) 0.02006(17) 0.15067(12)
H7 H -0.0608 -0.0215 0.1967
H8 H -0.1297 0.0875 0.1642
C5 C 0.0594(2) 0.05639(15) 0.11650(11)
C6 C 0.1512(2) 0.11494(15) 0.17358(13)
H9 H 0.2323 0.1422 0.1466
C7 C 0.2008(2) 0.04054(16) 0.23637(12)
H10 H 0.1231 0.0150 0.2659
H11 H 0.2609 0.0834 0.2691
C8 C 0.2781(2) -0.06183(15) 0.20536(12)
H12 H 0.3614 -0.0354 0.1800
C9 C 0.1882(2) -0.12479(15) 0.14785(11)
H13 H 0.1054 -0.1486 0.1748
C10 C 0.1401(2) -0.04725(17) 0.08309(11)
C11 C 0.2593(3) -0.23380(18) 0.12004(12)
H14 H 0.1962 -0.2752 0.0881
H15 H 0.3384 -0.2134 0.0898
C12 C 0.3058(3) -0.31040(18) 0.18427(14)
H16 H 0.2262 -0.3389 0.2109
H17 H 0.3556 -0.3744 0.1639
C13 C 0.3967(2) -0.24659(17) 0.23816(12)
C14 C 0.3190(2) -0.14291(17) 0.26770(11)
H18 H 0.2334 -0.1713 0.2895
C15 C 0.4067(3) -0.1019(2) 0.33368(15)
H19 H 0.4861 -0.0600 0.3162
H20 H 0.3539 -0.0549 0.3677
C16 C 0.4491(4) -0.2127(3) 0.37133(16)
H21 H 0.5439 -0.2091 0.3878
H22 H 0.3915 -0.2280 0.4146
C17 C 0.4311(3) -0.3035(2) 0.31234(14)
C18 C 0.5353(3) -0.2171(2) 0.20145(16)
H23 H 0.5806 -0.2853 0.1861
H24 H 0.5917 -0.1776 0.2370
H25 H 0.5200 -0.1701 0.1583
C19 C 0.2628(3) -0.0060(2) 0.03597(14)
H26 H 0.3291 0.0290 0.0684
H27 H 0.2317 0.0478 -0.0006
H28 H 0.3042 -0.0691 0.0108
C20 C -0.3364(3) -0.0101(2) 0.00601(14)
C21 C -0.3744(4) 0.0713(3) -0.0543(2)
H29 H -0.3024 0.0745 -0.0911
H30 H -0.3875 0.1449 -0.0328
H31 H -0.4578 0.0471 -0.0780
loop_
_geom_bond_atom_site_label_1
_geom_bond_atom_site_label_2
_geom_bond_site_symmetry_1
_geom_bond_site_symmetry_2
Cl1 C6 1_555 1_555
O1 C3 1_555 1_555
O2 C20 1_555 1_555
O3 H1 1_555 1_555
O4 C17 1_555 1_555
C1 H2 1_555 1_555
H3 C1 1_555 1_555
C2 C1 1_555 1_555
H4 C2 1_555 1_555
H5 C2 1_555 1_555
C3 C2 1_555 1_555
H6 C3 1_555 1_555
C4 C3 1_555 1_555
H7 C4 1_555 1_555
H8 C4 1_555 1_555
C5 O3 1_555 1_555
C6 C5 1_555 1_555
H9 C6 1_555 1_555
C7 C6 1_555 1_555
H10 C7 1_555 1_555
H11 C7 1_555 1_555
C8 C7 1_555 1_555
H12 C8 1_555 1_555
C9 C8 1_555 1_555
H13 C9 1_555 1_555
C10 C1 1_555 1_555
C11 C9 1_555 1_555
H14 C11 1_555 1_555
H15 C11 1_555 1_555
C12 C11 1_555 1_555
H16 C12 1_555 1_555
H17 C12 1_555 1_555
C13 C12 1_555 1_555
C14 C8 1_555 1_555
H18 C14 1_555 1_555
C15 C14 1_555 1_555
H19 C15 1_555 1_555
H20 C15 1_555 1_555
C16 C15 1_555 1_555
H21 C16 1_555 1_555
H22 C16 1_555 1_555
C17 C13 1_555 1_555
C18 C13 1_555 1_555
H23 C18 1_555 1_555
H24 C18 1_555 1_555
H25 C18 1_555 1_555
C19 C10 1_555 1_555
H26 C19 1_555 1_555
H27 C19 1_555 1_555
H28 C19 1_555 1_555
C20 O1 1_555 1_555
C21 C20 1_555 1_555
H29 C21 1_555 1_555
H30 C21 1_555 1_555
H31 C21 1_555 1_555
C4 C5 1_555 1_555
C5 C10 1_555 1_555
C9 C10 1_555 1_555
C13 C14 1_555 1_555
C16 C17 1_555 1_555

#END
