
#######################################################################
#
#                 Cambridge Crystallographic Data Centre
#                                CCDC 
#
#######################################################################
#
# If this CIF has been generated from an entry in the Cambridge 
# Structural Database, then it will include bibliographic, chemical, 
# crystal, experimental, refinement or atomic coordinate data resulting 
# from the CCDC's data processing and validation procedures.
#
#######################################################################

data_XEYTUR
_chemical_formula_moiety         'C10 H13 Cl2 N2 O4 P1 S1'
_chemical_name_systematic        
N-((2,4-Dichlorophenoxy)acetyl)-N'-(dimethoxythiophosphinoyl)hydrazine
_symmetry_cell_setting           monoclinic
_symmetry_space_group_name_H-M   'P 21/n'
_symmetry_Int_Tables_number      14
_space_group_name_Hall           '-P 2yn'
loop_
_symmetry_equiv_pos_site_id
_symmetry_equiv_pos_as_xyz
1 x,y,z
2 1/2-x,1/2+y,1/2-z
3 -x,-y,-z
4 1/2+x,1/2-y,1/2+z
_cell_length_a                   10.8386(10)
_cell_length_b                   8.4586(8)
_cell_length_c                   17.2846(17)
_cell_angle_alpha                90
_cell_angle_beta                 94.148(2)
_cell_angle_gamma                90
_cell_volume                     1580.49
_exptl_crystal_colour            colorless
_exptl_crystal_description       block
_cell_formula_units_Z            4
_exptl_crystal_recrystallization_method 'ethyl acetate'
loop_
_atom_site_label
_atom_site_type_symbol
_atom_site_fract_x
_atom_site_fract_y
_atom_site_fract_z
C1 C 0.6508(2) 0.4421(3) 0.45695(15)
C2 C 0.7136(3) 0.3294(3) 0.50098(16)
H1 H 0.7792 0.3571 0.5360
C3 C 0.6771(3) 0.1740(3) 0.49205(18)
C4 C 0.5813(3) 0.1317(3) 0.44012(17)
H2 H 0.5595 0.0259 0.4340
C5 C 0.5172(3) 0.2458(3) 0.39708(16)
H3 H 0.4510 0.2177 0.3626
C6 C 0.5519(2) 0.4022(3) 0.40532(14)
C7 C 0.3933(2) 0.4947(3) 0.31238(16)
H4 H 0.3238 0.4566 0.3395
H5 H 0.4149 0.4142 0.2757
C8 C 0.3589(2) 0.6460(3) 0.27016(15)
C9 C 0.4872(4) 0.7962(5) 0.0849(2)
H6 H 0.4049 0.7736 0.0989
H7 H 0.5202 0.7051 0.0605
H8 H 0.4850 0.8839 0.0496
C10 C 0.7603(3) 1.0250(5) 0.2598(3)
H9 H 0.8044 0.9473 0.2322
H10 H 0.8035 1.0447 0.3094
H11 H 0.7546 1.1213 0.2304
Cl1 Cl 0.69484(7) 0.63886(9) 0.46604(5)
Cl2 Cl 0.75355(11) 0.03012(11) 0.54919(7)
N1 N 0.42549(19) 0.7727(3) 0.29375(13)
H12 H 0.4843(19) 0.768(4) 0.3292(13)
N2 N 0.4137(2) 0.9155(3) 0.25408(15)
H13 H 0.359(2) 0.980(3) 0.2680(18)
O1 O 0.49562(17) 0.5254(2) 0.36611(12)
O2 O 0.27684(17) 0.6488(2) 0.21827(11)
O3 O 0.56481(19) 0.8355(2) 0.15387(12)
O4 O 0.64022(17) 0.9687(3) 0.27083(12)
P1 P 0.52974(6) 0.97746(8) 0.20659(4)
S1 S 0.49439(8) 1.17619(9) 0.15708(5)
loop_
_geom_bond_atom_site_label_1
_geom_bond_atom_site_label_2
_geom_bond_site_symmetry_1
_geom_bond_site_symmetry_2
C1 C2 1_555 1_555
C2 H1 1_555 1_555
C3 C2 1_555 1_555
C4 C3 1_555 1_555
H2 C4 1_555 1_555
C5 C4 1_555 1_555
H3 C5 1_555 1_555
C6 C1 1_555 1_555
C7 H4 1_555 1_555
H5 C7 1_555 1_555
C8 C7 1_555 1_555
C9 H6 1_555 1_555
H7 C9 1_555 1_555
H8 C9 1_555 1_555
C10 H9 1_555 1_555
H10 C10 1_555 1_555
H11 C10 1_555 1_555
Cl1 C1 1_555 1_555
Cl2 C3 1_555 1_555
N1 C8 1_555 1_555
H12 N1 1_555 1_555
N2 N1 1_555 1_555
H13 N2 1_555 1_555
O1 C6 1_555 1_555
O2 C8 1_555 1_555
O3 C9 1_555 1_555
O4 C10 1_555 1_555
P1 N2 1_555 1_555
S1 P1 1_555 1_555
C5 C6 1_555 1_555
C7 O1 1_555 1_555
O3 P1 1_555 1_555
O4 P1 1_555 1_555

#END
