
#######################################################################
#
#                 Cambridge Crystallographic Data Centre
#                                CCDC 
#
#######################################################################
#
# If this CIF has been generated from an entry in the Cambridge 
# Structural Database, then it will include bibliographic, chemical, 
# crystal, experimental, refinement or atomic coordinate data resulting 
# from the CCDC's data processing and validation procedures.
#
#######################################################################

data_XEYTEC
_chemical_formula_moiety         'C34 H23 N3 O2,2.5(H2 O1)'
_chemical_name_systematic        
"3-(5,6-Dihydrobenzimidazo[1,2-c]quinazolin-6-yl)-1,1'-binaphthalene-2,2'-diol hydrate"
_symmetry_cell_setting           orthorhombic
_symmetry_space_group_name_H-M   'P 21 21 2'
_symmetry_Int_Tables_number      18
_space_group_name_Hall           'P 2 2ab'
loop_
_symmetry_equiv_pos_site_id
_symmetry_equiv_pos_as_xyz
1 x,y,z
2 -x,-y,z
3 1/2+x,1/2-y,-z
4 1/2-x,1/2+y,-z
_cell_length_a                   13.722(5)
_cell_length_b                   20.879(5)
_cell_length_c                   11.753(5)
_cell_angle_alpha                90
_cell_angle_beta                 90
_cell_angle_gamma                90
_cell_volume                     3367.25
_exptl_crystal_description       block
_cell_formula_units_Z            4
loop_
_atom_site_label
_atom_site_type_symbol
_atom_site_fract_x
_atom_site_fract_y
_atom_site_fract_z
O1 O 0.4256(3) 0.8017(2) -0.1016(3)
C1 C 0.4293(4) 0.7999(3) -0.2179(5)
N1 N 0.6641(3) 0.7722(2) -0.1552(4)
C2 C 0.7877(4) 0.8464(3) -0.0861(5)
N2 N 0.7875(4) 0.7273(3) -0.0561(4)
N3 N 0.6710(4) 0.8760(3) -0.2318(5)
C3 C 0.5217(4) 0.8137(3) -0.2667(5)
C4 C 0.6475(4) 0.7071(3) -0.1569(5)
C5 C 0.3512(4) 0.7863(3) -0.2864(5)
C6 C 0.7499(4) 0.7821(3) -0.0943(5)
C7 C 0.7486(5) 0.8930(3) -0.1596(6)
C8 C 0.3636(4) 0.7858(3) -0.4054(5)
C9 C 0.2202(5) 0.7081(4) -0.2165(5)
C10 C 0.6063(4) 0.8289(3) -0.1839(6)
H1 H 0.5786 0.8463 -0.1135
C11 C 0.5338(4) 0.8136(3) -0.3782(5)
H2 H 0.5947 0.8235 -0.4083
C12 C 0.2520(4) 0.7722(3) -0.2355(5)
O2 O 0.2154(4) 0.8850(2) -0.2288(5)
C13 C 0.8703(4) 0.8624(4) -0.0205(5)
H3 H 0.8983 0.8317 0.0268
C14 C 0.1911(5) 0.8214(4) -0.2068(5)
C15 C 0.7896(5) 0.9544(3) -0.1623(7)
H4 H 0.7627 0.9852 -0.2098
C16 C 0.1293(5) 0.6951(4) -0.1641(6)
C17 C 0.4556(4) 0.7987(4) -0.4535(5)
C18 C 0.9106(5) 0.9241(4) -0.0260(6)
H5 H 0.9652 0.9338 0.0174
C19 C 0.5766(5) 0.6685(3) -0.2079(6)
H6 H 0.5246 0.6862 -0.2476
C20 C 0.7263(4) 0.6806(3) -0.0953(5)
C21 C 0.2759(5) 0.6543(3) -0.2534(6)
H7 H 0.3359 0.6612 -0.2881
C22 C 0.4688(6) 0.7973(5) -0.5742(6)
H8 H 0.5299 0.8053 -0.6054
C23 C 0.0997(5) 0.8085(4) -0.1521(6)
H9 H 0.0594 0.8422 -0.1305
C24 C 0.7324(6) 0.6145(3) -0.0850(7)
H10 H 0.7829 0.5959 -0.0439
C25 C 0.0720(5) 0.7476(4) -0.1318(6)
H11 H 0.0129 0.7402 -0.0953
C26 C 0.2849(5) 0.7727(4) -0.4807(6)
H12 H 0.2236 0.7633 -0.4514
C27 C 0.8703(6) 0.9703(4) -0.0948(6)
H13 H 0.8962 1.0115 -0.0965
C28 C 0.6638(7) 0.5776(3) -0.1357(7)
H14 H 0.6685 0.5333 -0.1290
C29 C 0.5870(6) 0.6032(4) -0.1971(7)
H15 H 0.5420 0.5760 -0.2314
C30 C 0.2987(6) 0.7738(5) -0.5967(7)
H16 H 0.2461 0.7676 -0.6454
C31 C 0.3930(7) 0.7845(6) -0.6419(7)
H17 H 0.4023 0.7826 -0.7202
C32 C 0.0992(7) 0.6324(6) -0.1497(7)
H18 H 0.0395 0.6247 -0.1149
C33 C 0.2443(8) 0.5942(4) -0.2395(8)
H19 H 0.2827 0.5609 -0.2666
C34 C 0.1560(9) 0.5794(5) -0.1859(9)
H20 H 0.1358 0.5373 -0.1748
O3 O 0.3483(6) 0.9494(5) -0.3558(10)
H21 H 0.420666 0.949400 -0.355800
H22 H 0.324178 0.988232 -0.395629
O4 O 0.0443(7) 0.9413(5) -0.3336(10)
O5 O 0.5000 1.0000 -0.2443(11)
loop_
_geom_bond_atom_site_label_1
_geom_bond_atom_site_label_2
_geom_bond_site_symmetry_1
_geom_bond_site_symmetry_2
O1 C1 1_555 1_555
C1 C3 1_555 1_555
N1 C4 1_555 1_555
C2 C6 1_555 1_555
N2 C6 1_555 1_555
N3 C7 1_555 1_555
C3 C10 1_555 1_555
C4 C19 1_555 1_555
C5 C1 1_555 1_555
C6 N1 1_555 1_555
C7 C2 1_555 1_555
C8 C5 1_555 1_555
C9 C12 1_555 1_555
C10 N1 1_555 1_555
H1 C10 1_555 1_555
C11 C3 1_555 1_555
H2 C11 1_555 1_555
C12 C5 1_555 1_555
O2 C14 1_555 1_555
C13 C2 1_555 1_555
H3 C13 1_555 1_555
C14 C12 1_555 1_555
C15 C7 1_555 1_555
H4 C15 1_555 1_555
C16 C9 1_555 1_555
C17 C8 1_555 1_555
C18 C13 1_555 1_555
H5 C18 1_555 1_555
C19 H6 1_555 1_555
C20 N2 1_555 1_555
C21 C9 1_555 1_555
H7 C21 1_555 1_555
C22 C17 1_555 1_555
H8 C22 1_555 1_555
C23 C14 1_555 1_555
H9 C23 1_555 1_555
C24 C20 1_555 1_555
H10 C24 1_555 1_555
C25 C16 1_555 1_555
H11 C25 1_555 1_555
C26 C8 1_555 1_555
H12 C26 1_555 1_555
C27 C15 1_555 1_555
H13 C27 1_555 1_555
C28 C24 1_555 1_555
H14 C28 1_555 1_555
C29 C19 1_555 1_555
H15 C29 1_555 1_555
C30 C26 1_555 1_555
H16 C30 1_555 1_555
C31 C22 1_555 1_555
H17 C31 1_555 1_555
C32 C16 1_555 1_555
H18 C32 1_555 1_555
C33 C21 1_555 1_555
H19 C33 1_555 1_555
C34 C32 1_555 1_555
H20 C34 1_555 1_555
O3 H21 1_555 1_555
H22 O3 1_555 1_555
N3 C10 1_555 1_555
C4 C20 1_555 1_555
C11 C17 1_555 1_555
C18 C27 1_555 1_555
C23 C25 1_555 1_555
C28 C29 1_555 1_555
C30 C31 1_555 1_555
C33 C34 1_555 1_555

#END
