
#######################################################################
#
#                 Cambridge Crystallographic Data Centre
#                                CCDC 
#
#######################################################################
#
# If this CIF has been generated from an entry in the Cambridge 
# Structural Database, then it will include bibliographic, chemical, 
# crystal, experimental, refinement or atomic coordinate data resulting 
# from the CCDC's data processing and validation procedures.
#
#######################################################################

data_XEYXOR
_chemical_formula_moiety         'C10 H14 N4 O4'
_chemical_name_systematic        
'(3R*,4aS*)-Methyl 3-(azidomethyl)-1-oxohexahydro-1H-pyrrolo[1,2-c][1,3]oxazine-4a-carboxylate'
_symmetry_cell_setting           monoclinic
_symmetry_space_group_name_H-M   'P 21/c'
_symmetry_Int_Tables_number      14
_space_group_name_Hall           '-P 2ybc'
loop_
_symmetry_equiv_pos_site_id
_symmetry_equiv_pos_as_xyz
1 x,y,z
2 -x,1/2+y,1/2-z
3 -x,-y,-z
4 x,1/2-y,1/2+z
_cell_length_a                   13.8464(5)
_cell_length_b                   7.02107(19)
_cell_length_c                   12.2206(4)
_cell_angle_alpha                90
_cell_angle_beta                 101.124(3)
_cell_angle_gamma                90
_cell_volume                     1165.72
_exptl_crystal_colour            colorless
_cell_formula_units_Z            4
_exptl_crystal_recrystallization_method 'slow diffusion ether/chloroform'
loop_
_atom_site_label
_atom_site_type_symbol
_atom_site_fract_x
_atom_site_fract_y
_atom_site_fract_z
O1 O 0.17781(9) 0.74763(15) 0.48266(9)
O2 O 0.36901(9) 0.54560(17) 0.23362(10)
O3 O 0.22402(10) 0.58885(17) 0.64057(9)
O4 O 0.41119(10) 0.69433(18) 0.39867(10)
N1 N 0.27718(11) 0.48003(18) 0.48845(11)
N2 N -0.03046(11) 0.73443(19) 0.43214(12)
N3 N -0.01420(11) 0.73933(19) 0.33637(12)
N4 N -0.05451(14) 0.7173(2) 0.51546(14)
C1 C 0.36008(13) 0.5841(2) 0.33840(13)
C2 C 0.17735(13) 0.5681(2) 0.31017(13)
H1 H 0.1774 0.5826 0.2312
H2 H 0.1216 0.4892 0.3182
C3 C 0.16836(13) 0.7617(2) 0.36212(13)
H3 H 0.2209 0.8442 0.3458
C4 C 0.22685(13) 0.6018(2) 0.54181(13)
C5 C 0.27236(13) 0.4736(2) 0.36763(12)
C6 C 0.28019(13) 0.2592(2) 0.34701(13)
H4 H 0.2165 0.1977 0.3394
H5 H 0.3069 0.2348 0.2806
C7 C 0.31821(14) 0.3040(2) 0.54504(14)
H6 H 0.2688 0.2353 0.5757
H7 H 0.3738 0.3316 0.6044
C8 C 0.35030(14) 0.1910(2) 0.45131(14)
H8 H 0.4181 0.2189 0.4471
H9 H 0.3435 0.0551 0.4620
C9 C 0.07068(13) 0.8576(2) 0.32071(14)
H10 H 0.0690 0.9772 0.3600
H11 H 0.0646 0.8863 0.2420
C10 C 0.44081(16) 0.6560(3) 0.18945(16)
H12 H 0.4286 0.6441 0.1097
H13 H 0.5057 0.6098 0.2200
H14 H 0.4359 0.7874 0.2093
loop_
_geom_bond_atom_site_label_1
_geom_bond_atom_site_label_2
_geom_bond_site_symmetry_1
_geom_bond_site_symmetry_2
O1 C3 1_555 1_555
O2 C1 1_555 1_555
O3 C4 1_555 1_555
O4 C1 1_555 1_555
N1 C4 1_555 1_555
N2 N3 1_555 1_555
N3 C9 1_555 1_555
N4 N2 1_555 1_555
C1 C5 1_555 1_555
C2 H1 1_555 1_555
H2 C2 1_555 1_555
C3 C2 1_555 1_555
H3 C3 1_555 1_555
C4 O1 1_555 1_555
C5 N1 1_555 1_555
C6 C5 1_555 1_555
H4 C6 1_555 1_555
H5 C6 1_555 1_555
C7 N1 1_555 1_555
H6 C7 1_555 1_555
H7 C7 1_555 1_555
C8 C6 1_555 1_555
H8 C8 1_555 1_555
H9 C8 1_555 1_555
C9 C3 1_555 1_555
H10 C9 1_555 1_555
H11 C9 1_555 1_555
C10 O2 1_555 1_555
H12 C10 1_555 1_555
H13 C10 1_555 1_555
H14 C10 1_555 1_555
C2 C5 1_555 1_555
C7 C8 1_555 1_555

#END
