
#######################################################################
#
#                 Cambridge Crystallographic Data Centre
#                                CCDC 
#
#######################################################################
#
# If this CIF has been generated from an entry in the Cambridge 
# Structural Database, then it will include bibliographic, chemical, 
# crystal, experimental, refinement or atomic coordinate data resulting 
# from the CCDC's data processing and validation procedures.
#
#######################################################################

data_XEZFUE
_chemical_formula_moiety         'C12 H14 N3 1+,C7 H7 O3 S1 1-'
_chemical_name_systematic        
'2-Anilino-4,6-dimethylpyrimidinium p-toluenesulfonate'
_symmetry_cell_setting           monoclinic
_symmetry_space_group_name_H-M   'P 21/c'
_symmetry_Int_Tables_number      14
_space_group_name_Hall           '-P 2ybc'
loop_
_symmetry_equiv_pos_site_id
_symmetry_equiv_pos_as_xyz
1 x,y,z
2 -x,1/2+y,1/2-z
3 -x,-y,-z
4 x,1/2-y,1/2+z
_cell_length_a                   8.0092(11)
_cell_length_b                   9.7882(13)
_cell_length_c                   24.937(3)
_cell_angle_alpha                90
_cell_angle_beta                 106.069(4)
_cell_angle_gamma                90
_cell_volume                     1878.57
_exptl_crystal_colour            colorless
_exptl_crystal_description       block
_cell_formula_units_Z            4
loop_
_atom_site_label
_atom_site_type_symbol
_atom_site_fract_x
_atom_site_fract_y
_atom_site_fract_z
S1 S 0.78684(7) 0.77165(6) 0.88039(2)
O1 O 0.9210(2) 0.8481(2) 0.86617(8)
O2 O 0.7731(2) 0.63079(16) 0.86121(7)
O3 O 0.7962(2) 0.77676(16) 0.93952(6)
C1 C 0.1082(4) 1.0473(4) 0.76111(14)
H1 H 0.0129 0.9852 0.7575
H2 H 0.1114 1.0773 0.7248
H3 H 0.0933 1.1248 0.7829
C2 C 0.2769(3) 0.9763(3) 0.78937(10)
C3 C 0.4267(3) 1.0035(3) 0.77414(10)
H4 H 0.4225 1.0645 0.7452
C4 C 0.5816(3) 0.9411(2) 0.80134(9)
H5 H 0.6812 0.9594 0.7904
C5 C 0.5895(3) 0.8517(2) 0.84458(8)
C6 C 0.4414(3) 0.8249(3) 0.86023(12)
H6 H 0.4455 0.7655 0.8897
C7 C 0.2878(4) 0.8856(3) 0.83267(12)
H7 H 0.1879 0.8653 0.8432
N1 N 0.1984(2) 0.59024(17) 1.07156(7)
H8 H 0.1969 0.5155 1.0896
N2 N 0.2366(2) 0.69754(17) 0.99161(7)
N3 N 0.2403(2) 0.46065(17) 0.99940(7)
H9 H 0.2253 0.3932 1.0197
C8 C 0.1472(4) 0.7047(3) 1.15184(11)
H10 H 0.2438 0.6590 1.1769
H11 H 0.1388 0.7961 1.1649
H12 H 0.0421 0.6559 1.1504
C9 C 0.1741(3) 0.7100(2) 1.09487(9)
C10 C 0.1784(3) 0.8263(2) 1.06563(10)
H13 H 0.1576 0.9106 1.0798
C11 C 0.2140(3) 0.8175(2) 1.01417(9)
C12 C 0.2327(4) 0.9412(2) 0.98187(11)
H14 H 0.1565 0.9338 0.9447
H15 H 0.2023 1.0207 0.9997
H16 H 0.3505 0.9491 0.9802
C13 C 0.2253(3) 0.5853(2) 1.01991(8)
C14 C 0.2775(3) 0.4250(2) 0.94878(8)
C15 C 0.2616(3) 0.5123(2) 0.90382(9)
H17 H 0.2232 0.6015 0.9053
C16 C 0.3033(4) 0.4653(3) 0.85691(11)
H18 H 0.2971 0.5247 0.8273
C17 C 0.3542(3) 0.3328(3) 0.85300(11)
H19 H 0.3803 0.3020 0.8210
C18 C 0.3654(3) 0.2462(3) 0.89669(11)
H20 H 0.3990 0.1561 0.8941
C19 C 0.3279(3) 0.2909(2) 0.94461(10)
H21 H 0.3364 0.2307 0.9741
loop_
_geom_bond_atom_site_label_1
_geom_bond_atom_site_label_2
_geom_bond_site_symmetry_1
_geom_bond_site_symmetry_2
S1 O1 1_555 1_555
O2 S1 1_555 1_555
O3 S1 1_555 1_555
C1 H1 1_555 1_555
H2 C1 1_555 1_555
H3 C1 1_555 1_555
C2 C1 1_555 1_555
C3 C2 1_555 1_555
H4 C3 1_555 1_555
C4 C3 1_555 1_555
H5 C4 1_555 1_555
C5 S1 1_555 1_555
C6 C5 1_555 1_555
H6 C6 1_555 1_555
C7 C2 1_555 1_555
H7 C7 1_555 1_555
N1 H8 1_555 1_555
N2 C11 1_555 1_555
N3 H9 1_555 1_555
C8 H10 1_555 1_555
H11 C8 1_555 1_555
H12 C8 1_555 1_555
C9 N1 1_555 1_555
C10 C9 1_555 1_555
H13 C10 1_555 1_555
C11 C10 1_555 1_555
C12 C11 1_555 1_555
H14 C12 1_555 1_555
H15 C12 1_555 1_555
H16 C12 1_555 1_555
C13 N1 1_555 1_555
C14 N3 1_555 1_555
C15 C14 1_555 1_555
H17 C15 1_555 1_555
C16 C15 1_555 1_555
H18 C16 1_555 1_555
C17 C16 1_555 1_555
H19 C17 1_555 1_555
C18 C17 1_555 1_555
H20 C18 1_555 1_555
C19 C14 1_555 1_555
H21 C19 1_555 1_555
C4 C5 1_555 1_555
C6 C7 1_555 1_555
N2 C13 1_555 1_555
N3 C13 1_555 1_555
C8 C9 1_555 1_555
C18 C19 1_555 1_555

#END
