
#######################################################################
#
#                 Cambridge Crystallographic Data Centre
#                                CCDC 
#
#######################################################################
#
# If this CIF has been generated from an entry in the Cambridge 
# Structural Database, then it will include bibliographic, chemical, 
# crystal, experimental, refinement or atomic coordinate data resulting 
# from the CCDC's data processing and validation procedures.
#
#######################################################################

data_XEZJOD
_chemical_formula_moiety         'C25 H18 O4'
_chemical_name_systematic        
2,3-Dimethoxybenzo[11,12]triphenyleno[2,3-d][1,3]dioxole
_symmetry_cell_setting           orthorhombic
_symmetry_space_group_name_H-M   'P n a 21'
_symmetry_Int_Tables_number      33
_space_group_name_Hall           'P 2c -2n'
loop_
_symmetry_equiv_pos_site_id
_symmetry_equiv_pos_as_xyz
1 x,y,z
2 -x,-y,1/2+z
3 1/2-x,1/2+y,1/2+z
4 1/2+x,1/2-y,z
_cell_length_a                   26.3820(19)
_cell_length_b                   3.7786(3)
_cell_length_c                   17.0118(12)
_cell_angle_alpha                90
_cell_angle_beta                 90
_cell_angle_gamma                90
_cell_volume                     1695.86
_exptl_crystal_colour            colorless
_exptl_crystal_description       tabular
_cell_formula_units_Z            4
loop_
_atom_site_label
_atom_site_type_symbol
_atom_site_fract_x
_atom_site_fract_y
_atom_site_fract_z
O1 O 0.26149(4) 0.0370(3) 0.56665(6)
O2 O 0.39418(4) 0.2314(3) 1.09934(7)
O3 O 0.33414(4) -0.0599(3) 1.02370(6)
O4 O 0.24588(4) 0.2915(3) 0.70413(7)
C1 C 0.26785(7) -0.0985(5) 0.48935(9)
H1 H 0.2922 0.0488 0.4607
H2 H 0.2352 -0.0958 0.4619
H3 H 0.2805 -0.3419 0.4922
C2 C 0.30359(6) 0.0558(4) 0.61287(9)
C3 C 0.35179(6) -0.0313(4) 0.59114(9)
H4 H 0.3579 -0.1215 0.5399
C4 C 0.39304(6) 0.0109(4) 0.64396(10)
C5 C 0.38417(6) 0.1220(4) 0.72189(9)
C6 C 0.42637(6) 0.1576(3) 0.77540(9)
C7 C 0.42000(6) 0.1834(4) 0.86002(9)
C8 C 0.37594(6) 0.0422(4) 0.89691(9)
H5 H 0.3502 -0.0704 0.8668
C9 C 0.37167(6) 0.0726(4) 0.97595(9)
C10 C 0.40837(6) 0.2388(4) 1.02108(9)
C11 C 0.34449(6) 0.0764(4) 1.10045(10)
H6 H 0.3431 -0.1167 1.1397
H7 H 0.3189 0.2570 1.1148
C12 C 0.45239(6) 0.3588(4) 0.98959(9)
H8 H 0.4777 0.4643 1.0216
C13 C 0.45941(6) 0.3216(4) 0.90735(9)
C14 C 0.50822(6) 0.3977(4) 0.87126(9)
C15 C 0.51714(6) 0.2939(4) 0.79264(9)
C16 C 0.47545(6) 0.1637(4) 0.74428(9)
C17 C 0.29499(6) 0.1945(4) 0.68943(9)
C18 C 0.23572(6) 0.4361(4) 0.77966(10)
H9 H 0.2425 0.2570 0.8200
H10 H 0.2001 0.5091 0.7825
H11 H 0.2576 0.6419 0.7885
C19 C 0.33386(6) 0.2233(4) 0.74177(9)
H12 H 0.3272 0.3133 0.7929
C20 C 0.44351(6) -0.0407(4) 0.61846(9)
H13 H 0.4498 -0.1385 0.5679
C21 C 0.48301(6) 0.0481(4) 0.66549(9)
H14 H 0.5165 0.0328 0.6454
C22 C 0.56583(6) 0.3440(4) 0.76045(10)
H15 H 0.5723 0.2740 0.7077
C23 C 0.60409(6) 0.4924(4) 0.80406(10)
H16 H 0.6367 0.5224 0.7814
C24 C 0.59542(6) 0.5988(4) 0.88099(10)
H17 H 0.6220 0.7026 0.9108
C25 C 0.54812(6) 0.5536(4) 0.91401(10)
H18 H 0.5423 0.6290 0.9665
loop_
_geom_bond_atom_site_label_1
_geom_bond_atom_site_label_2
_geom_bond_site_symmetry_1
_geom_bond_site_symmetry_2
O1 C1 1_555 1_555
O2 C10 1_555 1_555
O3 C9 1_555 1_555
O4 C17 1_555 1_555
C1 H1 1_555 1_555
H2 C1 1_555 1_555
H3 C1 1_555 1_555
C2 O1 1_555 1_555
C3 C2 1_555 1_555
H4 C3 1_555 1_555
C4 C3 1_555 1_555
C5 C4 1_555 1_555
C6 C5 1_555 1_555
C7 C6 1_555 1_555
C8 C7 1_555 1_555
H5 C8 1_555 1_555
C9 C8 1_555 1_555
C10 C9 1_555 1_555
C11 O2 1_555 1_555
H6 C11 1_555 1_555
H7 C11 1_555 1_555
C12 C10 1_555 1_555
H8 C12 1_555 1_555
C13 C7 1_555 1_555
C14 C13 1_555 1_555
C15 C14 1_555 1_555
C16 C6 1_555 1_555
C17 C2 1_555 1_555
C18 O4 1_555 1_555
H9 C18 1_555 1_555
H10 C18 1_555 1_555
H11 C18 1_555 1_555
C19 C5 1_555 1_555
H12 C19 1_555 1_555
C20 C4 1_555 1_555
H13 C20 1_555 1_555
C21 C16 1_555 1_555
H14 C21 1_555 1_555
C22 C15 1_555 1_555
H15 C22 1_555 1_555
C23 C22 1_555 1_555
H16 C23 1_555 1_555
C24 C23 1_555 1_555
H17 C24 1_555 1_555
C25 C14 1_555 1_555
H18 C25 1_555 1_555
O3 C11 1_555 1_555
C12 C13 1_555 1_555
C15 C16 1_555 1_555
C17 C19 1_555 1_555
C20 C21 1_555 1_555
C24 C25 1_555 1_555

#END
