
#######################################################################
#
#                 Cambridge Crystallographic Data Centre
#                                CCDC 
#
#######################################################################
#
# If this CIF has been generated from an entry in the Cambridge 
# Structural Database, then it will include bibliographic, chemical, 
# crystal, experimental, refinement or atomic coordinate data resulting 
# from the CCDC's data processing and validation procedures.
#
#######################################################################

data_XEZSIG
_chemical_formula_moiety         'C40 H32 N2'
_chemical_name_systematic        
N,N'-Ethane-1,2-diylidenebis(1,1,1-triphenylmethanamine)
_symmetry_cell_setting           triclinic
_symmetry_space_group_name_H-M   'P -1'
_symmetry_Int_Tables_number      2
_space_group_name_Hall           '-P 1'
loop_
_symmetry_equiv_pos_site_id
_symmetry_equiv_pos_as_xyz
1 x,y,z
2 -x,-y,-z
_cell_length_a                   9.435(5)
_cell_length_b                   11.370(5)
_cell_length_c                   14.164(5)
_cell_angle_alpha                91.307(5)
_cell_angle_beta                 91.403(5)
_cell_angle_gamma                107.631(5)
_cell_volume                     1446.92
_exptl_crystal_colour            colorless
_exptl_crystal_description       block
_cell_formula_units_Z            2
loop_
_atom_site_label
_atom_site_type_symbol
_atom_site_fract_x
_atom_site_fract_y
_atom_site_fract_z
N1 N 0.35934(17) 0.38169(14) 0.54933(11)
C1 C 0.4502(2) 0.43744(17) 0.48849(14)
H1 H 0.4538 0.3997 0.4300
C2 C 0.2506(2) 0.25680(16) 0.52786(13)
C3 C 0.2976(2) 0.18277(16) 0.44794(13)
C4 C 0.2085(2) 0.13527(18) 0.36780(14)
H2 H 0.1200 0.1541 0.3584
C5 C 0.2489(2) 0.06021(18) 0.30152(14)
H3 H 0.1871 0.0288 0.2488
C6 C 0.3808(2) 0.03212(18) 0.31373(14)
H4 H 0.4078 -0.0183 0.2696
C7 C 0.4723(2) 0.07964(18) 0.39212(14)
H5 H 0.5615 0.0617 0.4005
C8 C 0.4309(2) 0.15450(17) 0.45870(14)
H6 H 0.4933 0.1861 0.5111
C9 C 0.2361(2) 0.18606(17) 0.62095(13)
C10 C 0.2370(2) 0.24793(18) 0.70700(13)
H7 H 0.2523 0.3327 0.7084
C11 C 0.2155(2) 0.1850(2) 0.79054(14)
H8 H 0.2171 0.2279 0.8475
C12 C 0.1916(2) 0.0586(2) 0.78997(14)
H9 H 0.1781 0.0165 0.8462
C13 C 0.1880(2) -0.00412(18) 0.70483(14)
H10 H 0.1713 -0.0891 0.7037
C14 C 0.2093(2) 0.05870(17) 0.62098(14)
H11 H 0.2055 0.0152 0.5641
C15 C 0.1015(2) 0.27915(17) 0.50232(13)
C16 C -0.0306(2) 0.21053(17) 0.54010(13)
H12 H -0.0291 0.1528 0.5853
C17 C 0.0945(3) 0.3645(2) 0.43476(18)
H13 H 0.1816 0.4115 0.4078
C18 C -0.1659(2) 0.22628(18) 0.51169(13)
H14 H -0.2536 0.1786 0.5375
C19 C -0.1702(2) 0.3120(2) 0.44563(16)
H15 H -0.2603 0.3235 0.4272
C20 C -0.0400(3) 0.3806(2) 0.4071(2)
H16 H -0.0422 0.4384 0.3621
N1A N 0.64066(17) 0.61831(14) 0.45067(11)
C1A C 0.5498(2) 0.56256(17) 0.51151(14)
H1A H 0.5462 0.6003 0.5700
C2A C 0.7494(2) 0.74320(16) 0.47214(13)
C3A C 0.7024(2) 0.81723(16) 0.55206(13)
C4A C 0.7915(2) 0.86473(18) 0.63220(14)
H2A H 0.8800 0.8459 0.6416
C5A C 0.7511(2) 0.93979(18) 0.69848(14)
H3A H 0.8129 0.9712 0.7512
C6A C 0.6192(2) 0.96788(18) 0.68627(14)
H4A H 0.5922 1.0183 0.7304
C7A C 0.5277(2) 0.92036(18) 0.60788(14)
H5A H 0.4385 0.9383 0.5995
C8A C 0.5691(2) 0.84550(17) 0.54130(14)
H6A H 0.5067 0.8139 0.4889
C9A C 0.7639(2) 0.81394(17) 0.37905(13)
C10A C 0.7630(2) 0.75207(18) 0.29300(13)
H7A H 0.7477 0.6673 0.2916
C11A C 0.7845(2) 0.8150(2) 0.20946(14)
H8A H 0.7829 0.7721 0.1525
C12A C 0.8084(2) 0.9414(2) 0.21003(14)
H9A H 0.8219 0.9835 0.1538
C13A C 0.8120(2) 1.00412(18) 0.29517(14)
H10A H 0.8287 1.0891 0.2963
C14A C 0.7907(2) 0.94130(17) 0.37902(14)
H11A H 0.7945 0.9848 0.4359
C15A C 0.8985(2) 0.72085(17) 0.49768(13)
C16A C 1.0306(2) 0.78947(17) 0.45990(13)
H12A H 1.0291 0.8472 0.4147
C17A C 0.9055(3) 0.6355(2) 0.56524(18)
H13A H 0.8184 0.5885 0.5922
C18A C 1.1659(2) 0.77372(18) 0.48831(13)
H14A H 1.2536 0.8214 0.4625
C19A C 1.1702(2) 0.6880(2) 0.55437(16)
H15A H 1.2603 0.6765 0.5728
C20A C 1.0400(3) 0.6194(2) 0.5929(2)
H16A H 1.0422 0.5616 0.6379
N2 N 0.31921(18) -0.10207(14) 1.00282(10)
C21 C 0.4590(2) -0.06564(17) 0.99202(13)
H17 H 0.5087 -0.1215 0.9742
C22 C 0.2342(2) -0.23672(17) 0.99337(13)
C23 C 0.0781(2) -0.24393(17) 0.95418(13)
C24 C 0.0069(2) -0.16096(18) 0.98870(13)
H18 H 0.0562 -0.0999 1.0332
C25 C -0.1358(2) -0.16861(19) 0.95755(14)
H19 H -0.1811 -0.1123 0.9809
C26 C -0.2116(2) -0.2590(2) 0.89212(15)
H20 H -0.3074 -0.2638 0.8712
C27 C -0.1434(2) -0.3423(2) 0.85808(15)
H21 H -0.1939 -0.4040 0.8144
C28 C -0.0002(2) -0.33446(19) 0.88856(15)
H22 H 0.0445 -0.3909 0.8647
C29 C 0.2276(2) -0.28123(17) 1.09639(13)
C30 C 0.3602(2) -0.26947(18) 1.14746(14)
H23 H 0.4508 -0.2362 1.1190
C31 C 0.3581(3) -0.30693(19) 1.24031(14)
H24 H 0.4469 -0.3003 1.2732
C32 C 0.2243(3) -0.3538(2) 1.28339(15)
H25 H 0.2227 -0.3780 1.3457
C33 C 0.0930(3) -0.3650(2) 1.23433(16)
H26 H 0.0028 -0.3961 1.2638
C34 C 0.0945(2) -0.33006(19) 1.14100(15)
H27 H 0.0051 -0.3396 1.1081
C35 C 0.3068(2) -0.31061(17) 0.92806(13)
C36 C 0.3480(2) -0.26825(18) 0.83808(13)
H28 H 0.3345 -0.1944 0.8195
C37 C 0.4085(2) -0.33423(18) 0.77596(14)
H29 H 0.4367 -0.3037 0.7167
C38 C 0.4274(2) -0.44574(19) 0.80176(14)
H30 H 0.4676 -0.4903 0.7599
C39 C 0.3859(2) -0.48987(19) 0.89013(15)
H31 H 0.3986 -0.5644 0.9079
C40 C 0.3253(2) -0.42352(17) 0.95297(14)
H32 H 0.2969 -0.4547 1.0121
N2A N 0.68079(18) 0.10207(14) 0.99718(10)
C21A C 0.5410(2) 0.06564(17) 1.00798(13)
H17A H 0.4913 0.1215 1.0258
C22A C 0.7658(2) 0.23672(17) 1.00663(13)
C35A C 0.6932(2) 0.31061(17) 1.07194(13)
C36A C 0.6520(2) 0.26825(18) 1.16192(13)
H28A H 0.6655 0.1944 1.1805
C37A C 0.5915(2) 0.33423(18) 1.22404(14)
H29A H 0.5633 0.3037 1.2833
C38A C 0.5726(2) 0.44574(19) 1.19824(14)
H30A H 0.5324 0.4903 1.2401
C39A C 0.6141(2) 0.48987(19) 1.10987(15)
H31A H 0.6014 0.5644 1.0921
C40A C 0.6747(2) 0.42352(17) 1.04703(14)
H32A H 0.7031 0.4547 0.9879
C23A C 0.9219(2) 0.24393(17) 1.04582(13)
C24A C 0.9931(2) 0.16096(18) 1.01130(13)
H18A H 0.9438 0.0999 0.9668
C25A C 1.1358(2) 0.16861(19) 1.04245(14)
H19A H 1.1811 0.1123 1.0191
C26A C 1.2116(2) 0.2590(2) 1.10788(15)
H20A H 1.3074 0.2638 1.1288
C27A C 1.1434(2) 0.3423(2) 1.14192(15)
H21A H 1.1939 0.4040 1.1856
C28A C 1.0002(2) 0.33446(19) 1.11144(15)
H22A H 0.9555 0.3909 1.1353
C29A C 0.7724(2) 0.28123(17) 0.90361(13)
C30A C 0.6398(2) 0.26947(18) 0.85254(14)
H23A H 0.5492 0.2362 0.8810
C31A C 0.6419(3) 0.30693(19) 0.75969(14)
H24A H 0.5531 0.3003 0.7268
C32A C 0.7757(3) 0.3538(2) 0.71661(15)
H25A H 0.7773 0.3780 0.6543
C33A C 0.9070(3) 0.3650(2) 0.76567(16)
H26A H 0.9972 0.3961 0.7362
C34A C 0.9055(2) 0.33006(19) 0.85900(15)
H27A H 0.9949 0.3396 0.8919
loop_
_geom_bond_atom_site_label_1
_geom_bond_atom_site_label_2
_geom_bond_site_symmetry_1
_geom_bond_site_symmetry_2
N1 C1 1_555 1_555
C1 H1 1_555 1_555
C2 N1 1_555 1_555
C3 C2 1_555 1_555
C4 C3 1_555 1_555
H2 C4 1_555 1_555
C5 C4 1_555 1_555
H3 C5 1_555 1_555
C6 C5 1_555 1_555
H4 C6 1_555 1_555
C7 C6 1_555 1_555
H5 C7 1_555 1_555
C8 C3 1_555 1_555
H6 C8 1_555 1_555
C9 C2 1_555 1_555
C10 C9 1_555 1_555
H7 C10 1_555 1_555
C11 C10 1_555 1_555
H8 C11 1_555 1_555
C12 C11 1_555 1_555
H9 C12 1_555 1_555
C13 C12 1_555 1_555
H10 C13 1_555 1_555
C14 C9 1_555 1_555
H11 C14 1_555 1_555
C15 C2 1_555 1_555
C16 C15 1_555 1_555
H12 C16 1_555 1_555
C17 C15 1_555 1_555
H13 C17 1_555 1_555
C18 C16 1_555 1_555
H14 C18 1_555 1_555
C19 C18 1_555 1_555
H15 C19 1_555 1_555
C20 C17 1_555 1_555
H16 C20 1_555 1_555
N2 C21 1_555 1_555
C21 H17 1_555 1_555
C22 N2 1_555 1_555
C23 C22 1_555 1_555
C24 C23 1_555 1_555
H18 C24 1_555 1_555
C25 C24 1_555 1_555
H19 C25 1_555 1_555
C26 C25 1_555 1_555
H20 C26 1_555 1_555
C27 C26 1_555 1_555
H21 C27 1_555 1_555
C28 C23 1_555 1_555
H22 C28 1_555 1_555
C29 C22 1_555 1_555
C30 C29 1_555 1_555
H23 C30 1_555 1_555
C31 C30 1_555 1_555
H24 C31 1_555 1_555
C32 C31 1_555 1_555
H25 C32 1_555 1_555
C33 C32 1_555 1_555
H26 C33 1_555 1_555
C34 C29 1_555 1_555
H27 C34 1_555 1_555
C35 C22 1_555 1_555
C36 C35 1_555 1_555
H28 C36 1_555 1_555
C37 C36 1_555 1_555
H29 C37 1_555 1_555
C38 C37 1_555 1_555
H30 C38 1_555 1_555
C39 C38 1_555 1_555
H31 C39 1_555 1_555
C40 C35 1_555 1_555
H32 C40 1_555 1_555
N1A C1A 1_555 1_555
C1A C1 1_555 1_555
H1A C1A 1_555 1_555
C2A N1A 1_555 1_555
C3A C2A 1_555 1_555
C4A C3A 1_555 1_555
H2A C4A 1_555 1_555
C5A C4A 1_555 1_555
H3A C5A 1_555 1_555
C6A C5A 1_555 1_555
H4A C6A 1_555 1_555
C7A C6A 1_555 1_555
H5A C7A 1_555 1_555
C8A C3A 1_555 1_555
H6A C8A 1_555 1_555
C9A C2A 1_555 1_555
C10A C9A 1_555 1_555
H7A C10A 1_555 1_555
C11A C10A 1_555 1_555
H8A C11A 1_555 1_555
C12A C11A 1_555 1_555
H9A C12A 1_555 1_555
C13A C12A 1_555 1_555
H10A C13A 1_555 1_555
C14A C9A 1_555 1_555
H11A C14A 1_555 1_555
C15A C2A 1_555 1_555
C16A C15A 1_555 1_555
H12A C16A 1_555 1_555
C17A C15A 1_555 1_555
H13A C17A 1_555 1_555
C18A C16A 1_555 1_555
H14A C18A 1_555 1_555
C19A C18A 1_555 1_555
H15A C19A 1_555 1_555
C20A C17A 1_555 1_555
H16A C20A 1_555 1_555
N2A C21A 1_555 1_555
C21A C21 1_555 1_555
H17A C21A 1_555 1_555
C22A N2A 1_555 1_555
C35A C22A 1_555 1_555
C36A C35A 1_555 1_555
H28A C36A 1_555 1_555
C37A C36A 1_555 1_555
H29A C37A 1_555 1_555
C38A C37A 1_555 1_555
H30A C38A 1_555 1_555
C39A C38A 1_555 1_555
H31A C39A 1_555 1_555
C40A C35A 1_555 1_555
H32A C40A 1_555 1_555
C23A C22A 1_555 1_555
C24A C23A 1_555 1_555
H18A C24A 1_555 1_555
C25A C24A 1_555 1_555
H19A C25A 1_555 1_555
C26A C25A 1_555 1_555
H20A C26A 1_555 1_555
C27A C26A 1_555 1_555
H21A C27A 1_555 1_555
C28A C23A 1_555 1_555
H22A C28A 1_555 1_555
C29A C22A 1_555 1_555
C30A C29A 1_555 1_555
H23A C30A 1_555 1_555
C31A C30A 1_555 1_555
H24A C31A 1_555 1_555
C32A C31A 1_555 1_555
H25A C32A 1_555 1_555
C33A C32A 1_555 1_555
H26A C33A 1_555 1_555
C34A C29A 1_555 1_555
H27A C34A 1_555 1_555
C7 C8 1_555 1_555
C13 C14 1_555 1_555
C19 C20 1_555 1_555
C27 C28 1_555 1_555
C33 C34 1_555 1_555
C39 C40 1_555 1_555
C7A C8A 1_555 1_555
C13A C14A 1_555 1_555
C19A C20A 1_555 1_555
C39A C40A 1_555 1_555
C27A C28A 1_555 1_555
C33A C34A 1_555 1_555

#END
