
#######################################################################
#
#                 Cambridge Crystallographic Data Centre
#                                CCDC 
#
#######################################################################
#
# If this CIF has been generated from an entry in the Cambridge 
# Structural Database, then it will include bibliographic, chemical, 
# crystal, experimental, refinement or atomic coordinate data resulting 
# from the CCDC's data processing and validation procedures.
#
#######################################################################

data_XEZSOM
_chemical_formula_moiety         'C28 H24 N2'
_chemical_name_systematic        
N,N'-Ethane-1,2-diylidenebis(1,1-diphenylmethanamine)
_symmetry_cell_setting           monoclinic
_symmetry_space_group_name_H-M   'P 21/n'
_symmetry_Int_Tables_number      14
_space_group_name_Hall           '-P 2yn'
loop_
_symmetry_equiv_pos_site_id
_symmetry_equiv_pos_as_xyz
1 x,y,z
2 1/2-x,1/2+y,1/2-z
3 -x,-y,-z
4 1/2+x,1/2-y,1/2+z
_cell_length_a                   12.6098(16)
_cell_length_b                   5.5803(7)
_cell_length_c                   15.513(2)
_cell_angle_alpha                90
_cell_angle_beta                 101.385(13)
_cell_angle_gamma                90
_cell_volume                     1070.12
_exptl_crystal_colour            colorless
_exptl_crystal_description       block
_cell_formula_units_Z            2
loop_
_atom_site_label
_atom_site_type_symbol
_atom_site_fract_x
_atom_site_fract_y
_atom_site_fract_z
N1 N 0.38578(9) 0.1811(2) 0.99513(8)
C1 C 0.23717(11) 0.3424(3) 1.05913(9)
C2 C 0.20481(10) 0.1773(2) 0.90535(9)
C3 C 0.21626(11) 0.3762(3) 0.85378(10)
H1 H 0.2642 0.4977 0.8766
C4 C 0.27020(11) 0.1550(3) 0.99847(10)
H2 H 0.2584 -0.0046 1.0212
C5 C 0.08464(12) 0.2169(3) 0.73479(10)
H3 H 0.0446 0.2302 0.6778
C6 C 0.27621(14) 0.6707(3) 1.16160(10)
H4 H 0.3262 0.7762 1.1935
C7 C 0.44248(11) -0.0067(3) 1.00217(9)
H5 H 0.4113 -0.1541 1.0101
C8 C 0.16894(14) 0.6826(3) 1.16875(10)
H6 H 0.1461 0.7969 1.2048
C9 C 0.15702(12) 0.3947(3) 0.76892(10)
H7 H 0.1660 0.5273 0.7347
C10 C 0.13198(11) -0.0013(3) 0.87049(10)
H8 H 0.1234 -0.1351 0.9042
C11 C 0.07178(12) 0.0195(3) 0.78534(10)
H9 H 0.0228 -0.0999 0.7625
C12 C 0.30983(12) 0.5014(3) 1.10689(10)
H10 H 0.3822 0.4952 1.1024
C13 C 0.12917(13) 0.3546(3) 1.06786(11)
H11 H 0.0790 0.2478 1.0369
C14 C 0.09610(14) 0.5237(4) 1.12197(11)
H12 H 0.0238 0.5303 1.1268
N1B N 0.61422(9) -0.1811(2) 1.00487(8)
C1B C 0.76283(11) -0.3424(3) 0.94087(9)
C2B C 0.79519(10) -0.1773(2) 1.09465(9)
C3B C 0.78374(11) -0.3762(3) 1.14622(10)
H1B H 0.7358 -0.4977 1.1234
C4B C 0.72980(11) -0.1550(3) 1.00153(10)
H2B H 0.7416 0.0046 0.9788
C5B C 0.91536(12) -0.2169(3) 1.26521(10)
H3B H 0.9554 -0.2302 1.3222
C6B C 0.72379(14) -0.6707(3) 0.83840(10)
H4B H 0.6738 -0.7762 0.8065
C7B C 0.55752(11) 0.0067(3) 0.99783(9)
H5B H 0.5887 0.1541 0.9899
C8B C 0.83106(14) -0.6826(3) 0.83125(10)
H6B H 0.8539 -0.7969 0.7952
C9B C 0.84298(12) -0.3947(3) 1.23108(10)
H7B H 0.8340 -0.5273 1.2653
C10B C 0.86802(11) 0.0013(3) 1.12951(10)
H8B H 0.8766 0.1351 1.0958
C11B C 0.92822(12) -0.0195(3) 1.21466(10)
H9B H 0.9772 0.0999 1.2375
C12B C 0.69017(12) -0.5014(3) 0.89311(10)
H10B H 0.6178 -0.4952 0.8976
C13B C 0.87083(13) -0.3546(3) 0.93214(11)
H11B H 0.9210 -0.2478 0.9631
C14B C 0.90390(14) -0.5237(4) 0.87803(11)
H12B H 0.9762 -0.5303 0.8732
loop_
_geom_bond_atom_site_label_1
_geom_bond_atom_site_label_2
_geom_bond_site_symmetry_1
_geom_bond_site_symmetry_2
N1 C4 1_555 1_555
C1 C4 1_555 1_555
C2 C3 1_555 1_555
C3 H1 1_555 1_555
C4 C2 1_555 1_555
H2 C4 1_555 1_555
C5 H3 1_555 1_555
C6 H4 1_555 1_555
C7 N1 1_555 1_555
H5 C7 1_555 1_555
C8 C6 1_555 1_555
H6 C8 1_555 1_555
C9 C3 1_555 1_555
H7 C9 1_555 1_555
C10 C2 1_555 1_555
H8 C10 1_555 1_555
C11 C5 1_555 1_555
H9 C11 1_555 1_555
C12 C1 1_555 1_555
H10 C12 1_555 1_555
C13 C1 1_555 1_555
H11 C13 1_555 1_555
C14 C8 1_555 1_555
H12 C14 1_555 1_555
N1B C4B 1_555 1_555
C1B C4B 1_555 1_555
C2B C3B 1_555 1_555
C3B H1B 1_555 1_555
C4B C2B 1_555 1_555
H2B C4B 1_555 1_555
C5B H3B 1_555 1_555
C6B H4B 1_555 1_555
C7B C7 1_555 1_555
H5B C7B 1_555 1_555
C8B C6B 1_555 1_555
H6B C8B 1_555 1_555
C9B C3B 1_555 1_555
H7B C9B 1_555 1_555
C10B C2B 1_555 1_555
H8B C10B 1_555 1_555
C11B C5B 1_555 1_555
H9B C11B 1_555 1_555
C12B C1B 1_555 1_555
H10B C12B 1_555 1_555
C13B C1B 1_555 1_555
H11B C13B 1_555 1_555
C14B C8B 1_555 1_555
H12B C14B 1_555 1_555
C5 C9 1_555 1_555
C6 C12 1_555 1_555
C10 C11 1_555 1_555
C13 C14 1_555 1_555
N1B C7B 1_555 1_555
C5B C9B 1_555 1_555
C6B C12B 1_555 1_555
C10B C11B 1_555 1_555
C13B C14B 1_555 1_555

#END
