
#######################################################################
#
#                 Cambridge Crystallographic Data Centre
#                                CCDC 
#
#######################################################################
#
# If this CIF has been generated from an entry in the Cambridge 
# Structural Database, then it will include bibliographic, chemical, 
# crystal, experimental, refinement or atomic coordinate data resulting 
# from the CCDC's data processing and validation procedures.
#
#######################################################################

data_XEZWIJ
_chemical_name_common            
'6-(4-bromobenzyl)-3-ethyl-8-methyl-7-oxooctahydro-2H-pyrazino[1,2-a]pyrazin-2-ium chloride hydrate'
_chemical_formula_moiety         'C17 H25 Br1 N3 O1 1+,Cl1 1-,H2 O1'
_chemical_name_systematic        
'rac-(4R,7R,9aS)-4-(4-bromobenzyl)-7-ethyl-2-methylhexahydro-2H-pyrazino(1,2-a)pyrazin-3(4H)-one hydrochloride hydrate'
_symmetry_cell_setting           orthorhombic
_symmetry_space_group_name_H-M   'P b c a'
_symmetry_Int_Tables_number      61
_space_group_name_Hall           '-P 2ac 2ab'
loop_
_symmetry_equiv_pos_site_id
_symmetry_equiv_pos_as_xyz
1 x,y,z
2 1/2-x,-y,1/2+z
3 -x,1/2+y,1/2-z
4 1/2+x,1/2-y,-z
5 -x,-y,-z
6 1/2+x,y,1/2-z
7 x,1/2-y,1/2+z
8 1/2-x,1/2+y,z
_cell_length_a                   8.5880(10)
_cell_length_b                   13.007(3)
_cell_length_c                   35.007(5)
_cell_angle_alpha                90
_cell_angle_beta                 90
_cell_angle_gamma                90
_cell_volume                     3910.43
_cell_formula_units_Z            8
loop_
_atom_site_label
_atom_site_type_symbol
_atom_site_fract_x
_atom_site_fract_y
_atom_site_fract_z
Br1 Br 0.34209(10) 0.98928(6) -0.04314(2)
O1 O 0.2443(5) 0.6433(3) 0.09849(12)
N1 N 0.1331(5) 1.0037(3) 0.21079(12)
H3 H 0.1364 1.0670 0.2211
H4 H 0.1469 0.9578 0.2297
N2 N 0.1031(5) 0.8752(3) 0.14507(11)
N3 N 0.3720(6) 0.7892(4) 0.11163(13)
C1 C -0.0202(7) 0.8813(4) 0.17435(14)
H5 H -0.0017 0.8295 0.1938
H6 H -0.1203 0.8671 0.1626
C2 C -0.0242(6) 0.9869(4) 0.19286(14)
H7 H -0.1012 0.9846 0.2135
C3 C 0.2622(7) 0.9931(4) 0.18262(15)
H8 H 0.3613 0.9997 0.1957
H9 H 0.2550 1.0478 0.1639
C4 C 0.2553(7) 0.8898(4) 0.16240(15)
H10 H 0.2750 0.8346 0.1808
C5 C 0.3770(7) 0.8869(5) 0.13153(16)
H11 H 0.3587 0.9423 0.1135
H12 H 0.4792 0.8966 0.1427
C6 C 0.2447(8) 0.7307(5) 0.11149(15)
C7 C 0.0907(6) 0.7767(4) 0.12489(16)
H13 H 0.0419 0.7273 0.1423
C8 C -0.0680(7) 1.0759(5) 0.16653(17)
H14 H -0.0450 1.1405 0.1791
H15 H -0.0060 1.0723 0.1434
C9 C -0.2404(9) 1.0723(6) 0.1561(2)
H16 H -0.2647 1.1288 0.1395
H17 H -0.3019 1.0773 0.1789
H18 H -0.2630 1.0087 0.1434
C10 C 0.5097(8) 0.7596(5) 0.09036(19)
H19 H 0.5919 0.8078 0.0953
H20 H 0.4864 0.7593 0.0635
H21 H 0.5420 0.6921 0.0981
C11 C -0.0136(7) 0.7871(4) 0.09013(15)
H22 H -0.0493 0.7192 0.0826
H23 H -0.1045 0.8273 0.0970
C12 C 0.0642(7) 0.8364(4) 0.05695(15)
C13 C 0.1192(7) 0.7802(5) 0.02608(17)
H24 H 0.0996 0.7099 0.0254
C14 C 0.2016(7) 0.8233(5) -0.00366(17)
H25 H 0.2382 0.7833 -0.0237
C15 C 0.2281(8) 0.9286(5) -0.00264(17)
C16 C 0.1750(8) 0.9873(5) 0.02641(18)
H26 H 0.1932 1.0578 0.0265
C17 C 0.0929(7) 0.9417(5) 0.05620(18)
H27 H 0.0564 0.9826 0.0761
Cl1 Cl 0.11579(18) 0.84802(12) 0.27870(4)
O2 O 0.1381(8) 1.1911(4) 0.2456(2)
H1 H 0.086(10) 1.234(5) 0.240(3)
H2 H 0.195(6) 1.216(4) 0.2574(16)
loop_
_geom_bond_atom_site_label_1
_geom_bond_atom_site_label_2
_geom_bond_site_symmetry_1
_geom_bond_site_symmetry_2
Br1 C15 1_555 1_555
O1 C6 1_555 1_555
O2 H1 1_555 1_555
H2 O2 1_555 1_555
N1 H3 1_555 1_555
H4 N1 1_555 1_555
N2 C1 1_555 1_555
N3 C5 1_555 1_555
C1 H5 1_555 1_555
H6 C1 1_555 1_555
C2 N1 1_555 1_555
H7 C2 1_555 1_555
C3 N1 1_555 1_555
H8 C3 1_555 1_555
H9 C3 1_555 1_555
C4 N2 1_555 1_555
H10 C4 1_555 1_555
C5 C4 1_555 1_555
H11 C5 1_555 1_555
H12 C5 1_555 1_555
C6 N3 1_555 1_555
C7 N2 1_555 1_555
H13 C7 1_555 1_555
C8 C2 1_555 1_555
H14 C8 1_555 1_555
H15 C8 1_555 1_555
C9 C8 1_555 1_555
H16 C9 1_555 1_555
H17 C9 1_555 1_555
H18 C9 1_555 1_555
C10 N3 1_555 1_555
H19 C10 1_555 1_555
H20 C10 1_555 1_555
H21 C10 1_555 1_555
C11 C7 1_555 1_555
H22 C11 1_555 1_555
H23 C11 1_555 1_555
C12 C11 1_555 1_555
C13 C12 1_555 1_555
H24 C13 1_555 1_555
C14 C13 1_555 1_555
H25 C14 1_555 1_555
C15 C14 1_555 1_555
C16 C15 1_555 1_555
H26 C16 1_555 1_555
C17 C12 1_555 1_555
H27 C17 1_555 1_555
C1 C2 1_555 1_555
C3 C4 1_555 1_555
C6 C7 1_555 1_555
C16 C17 1_555 1_555

#END
