
#######################################################################
#
#                 Cambridge Crystallographic Data Centre
#                                CCDC 
#
#######################################################################
#
# If this CIF has been generated from an entry in the Cambridge 
# Structural Database, then it will include bibliographic, chemical, 
# crystal, experimental, refinement or atomic coordinate data resulting 
# from the CCDC's data processing and validation procedures.
#
#######################################################################

data_XIBFOG
_chemical_formula_moiety         'C23 H21 N3 O4'
_chemical_name_systematic        
2-(1-benzyl-2-oxo-1,2-dihydro-3H-indol-3-ylidene)-3-[2-(methoxycarbonyl)prop-2-en-1-yl]-5-oxopyrazolidin-2-ium-1-ide
_symmetry_cell_setting           monoclinic
_symmetry_space_group_name_H-M   'P 21/c'
_symmetry_Int_Tables_number      14
_space_group_name_Hall           '-P 2ybc'
loop_
_symmetry_equiv_pos_site_id
_symmetry_equiv_pos_as_xyz
1 x,y,z
2 -x,1/2+y,1/2-z
3 -x,-y,-z
4 x,1/2-y,1/2+z
_cell_length_a                   12.911(3)
_cell_length_b                   18.214(4)
_cell_length_c                   8.5540(17)
_cell_angle_alpha                90
_cell_angle_beta                 91.90(3)
_cell_angle_gamma                90
_cell_volume                     2010.46
_cell_formula_units_Z            4
loop_
_atom_site_label
_atom_site_type_symbol
_atom_site_fract_x
_atom_site_fract_y
_atom_site_fract_z
O1 O 0.5897(3) -0.0620(2) 0.6372(5)
N1 N 0.6962(3) -0.0981(3) 0.8318(5)
C1 C 0.7262(4) -0.0727(3) 0.9839(6)
N2 N 0.5554(3) 0.0669(3) 0.8430(5)
O2 O 0.4405(4) 0.2208(3) 0.9621(6)
O3 O 0.8136(3) 0.1445(3) 0.8526(6)
C2 C 0.7977(5) -0.0993(4) 1.0921(7)
H1 H 0.8334 -0.1426 1.0733
N3 N 0.5381(3) 0.1179(3) 0.9501(6)
O4 O 0.8076(4) 0.0599(3) 0.6642(6)
C3 C 0.8158(5) -0.0608(4) 1.2286(8)
H2 H 0.8665 -0.0775 1.2998
C4 C 0.7610(4) 0.0017(4) 1.2629(6)
H3 H 0.7722 0.0250 1.3587
C5 C 0.6918(5) 0.0289(4) 1.1589(8)
H4 H 0.6554 0.0712 1.1833
C6 C 0.6729(4) -0.0046(3) 1.0153(6)
C7 C 0.6130(4) 0.0096(3) 0.8727(7)
C8 C 0.6300(4) -0.0540(3) 0.7636(7)
C9 C 0.7296(5) -0.1688(3) 0.7803(7)
H5 H 0.6846 -0.1847 0.6938
H6 H 0.7227 -0.2038 0.8648
C10 C 0.8408(5) -0.1694(4) 0.7285(8)
C11 C 0.9044(5) -0.2277(4) 0.7874(10)
H7 H 0.8794 -0.2624 0.8565
C12 C 1.0080(6) -0.2303(6) 0.7356(12)
H8 H 1.0484 -0.2715 0.7575
C13 C 1.0472(6) -0.1756(6) 0.6577(12)
H9 H 1.1175 -0.1759 0.6372
C14 C 0.9866(6) -0.1173(5) 0.6049(9)
H10 H 1.0137 -0.0810 0.5417
C15 C 0.8839(6) -0.1149(5) 0.6497(9)
H11 H 0.8441 -0.0738 0.6238
C16 C 0.5141(4) 0.0878(3) 0.6857(6)
H12 H 0.4750 0.0465 0.6402
C17 C 0.4421(4) 0.1482(4) 0.7179(7)
H13 H 0.3705 0.1324 0.7075
H14 H 0.4529 0.1898 0.6496
C18 C 0.4728(4) 0.1662(3) 0.8878(7)
C19 C 0.6031(4) 0.1096(4) 0.5734(7)
H15 H 0.6359 0.0655 0.5352
H16 H 0.5737 0.1360 0.4840
C20 C 0.6835(5) 0.1571(4) 0.6566(8)
C21 C 0.6810(6) 0.2279(5) 0.6637(12)
H17 H 0.7346 0.2533 0.7146
H18 H 0.6254 0.2534 0.6180
C22 C 0.7735(5) 0.1159(4) 0.7306(9)
C23 C 0.9027(6) 0.1057(5) 0.9234(10)
H19 H 0.9271 0.1316 1.0153
H20 H 0.9571 0.1032 0.8497
H21 H 0.8824 0.0569 0.9515
loop_
_geom_bond_atom_site_label_1
_geom_bond_atom_site_label_2
_geom_bond_site_symmetry_1
_geom_bond_site_symmetry_2
O1 C8 1_555 1_555
N1 C1 1_555 1_555
C1 C2 1_555 1_555
N2 N3 1_555 1_555
O2 C18 1_555 1_555
O3 C22 1_555 1_555
C2 H1 1_555 1_555
N3 C18 1_555 1_555
O4 C22 1_555 1_555
C3 C2 1_555 1_555
H2 C3 1_555 1_555
C4 C3 1_555 1_555
H3 C4 1_555 1_555
C5 C4 1_555 1_555
H4 C5 1_555 1_555
C6 C1 1_555 1_555
C7 N2 1_555 1_555
C8 N1 1_555 1_555
C9 N1 1_555 1_555
H5 C9 1_555 1_555
H6 C9 1_555 1_555
C10 C9 1_555 1_555
C11 C10 1_555 1_555
H7 C11 1_555 1_555
C12 C11 1_555 1_555
H8 C12 1_555 1_555
C13 C12 1_555 1_555
H9 C13 1_555 1_555
C14 C13 1_555 1_555
H10 C14 1_555 1_555
C15 C10 1_555 1_555
H11 C15 1_555 1_555
C16 N2 1_555 1_555
H12 C16 1_555 1_555
C17 C16 1_555 1_555
H13 C17 1_555 1_555
H14 C17 1_555 1_555
C18 C17 1_555 1_555
C19 C16 1_555 1_555
H15 C19 1_555 1_555
H16 C19 1_555 1_555
C20 C19 1_555 1_555
C21 C20 1_555 1_555
H17 C21 1_555 1_555
H18 C21 1_555 1_555
C22 C20 1_555 1_555
C23 O3 1_555 1_555
H19 C23 1_555 1_555
H20 C23 1_555 1_555
H21 C23 1_555 1_555
C5 C6 1_555 1_555
C6 C7 1_555 1_555
C7 C8 1_555 1_555
C14 C15 1_555 1_555

#END
