
#######################################################################
#
#                 Cambridge Crystallographic Data Centre
#                                CCDC 
#
#######################################################################
#
# If this CIF has been generated from an entry in the Cambridge 
# Structural Database, then it will include bibliographic, chemical, 
# crystal, experimental, refinement or atomic coordinate data resulting 
# from the CCDC's data processing and validation procedures.
#
#######################################################################

data_XIBNEE
_chemical_formula_moiety         'C31 H21 Br1 Cl1 N1 O2 S2,C1 H1 Cl3'
_chemical_name_systematic        
'2-{[(4-bromophenyl)sulfanyl](4-chlorophenyl)methylidene}-1-[(4-methylphenyl)sulfonyl]-1,2-dihydrobenzo[cd]indole chloroform solvate'
_symmetry_cell_setting           monoclinic
_symmetry_space_group_name_H-M   'P 21/c'
_symmetry_Int_Tables_number      14
_space_group_name_Hall           '-P 2ybc'
loop_
_symmetry_equiv_pos_site_id
_symmetry_equiv_pos_as_xyz
1 x,y,z
2 -x,1/2+y,1/2-z
3 -x,-y,-z
4 x,1/2-y,1/2+z
_cell_length_a                   9.9316(14)
_cell_length_b                   9.6118(13)
_cell_length_c                   33.373(5)
_cell_angle_alpha                90
_cell_angle_beta                 97.634(4)
_cell_angle_gamma                90
_cell_volume                     3157.57
_exptl_crystal_colour            yellow
_exptl_crystal_description       block
_cell_formula_units_Z            4
loop_
_atom_site_label
_atom_site_type_symbol
_atom_site_fract_x
_atom_site_fract_y
_atom_site_fract_z
Br1 Br 0.94783(6) 0.85625(6) 0.87679(2)
S1 S 0.53625(7) 0.70327(9) 0.57940(2)
S2 S 0.86353(8) 0.60786(9) 0.69691(2)
Cl1 Cl 0.21672(8) 0.73440(11) 0.74447(3)
O1 O 0.5000(2) 0.6056(3) 0.60827(7)
O2 O 0.4348(2) 0.7889(3) 0.55759(7)
N1 N 0.6497(2) 0.8156(3) 0.60390(7)
C1 C 0.8884(3) 0.8007(3) 0.62031(8)
C2 C 0.8546(3) 0.8920(3) 0.58779(8)
C3 C 0.7145(3) 0.9045(3) 0.57726(9)
C4 C 0.7582(3) 0.7606(3) 0.63393(8)
C5 C 0.6002(3) 0.7098(3) 0.68598(8)
C6 C 0.8750(3) 0.6798(3) 0.74615(8)
C7 C 0.5247(3) 0.8326(3) 0.68422(9)
H1 H 0.5542 0.9100 0.6711
C8 C 0.7310(3) 0.7039(3) 0.66928(8)
C9 C 0.3637(3) 0.7253(3) 0.72121(9)
C10 C 1.0253(3) 0.7788(4) 0.63318(9)
H2 H 1.0533 0.7179 0.6543
C11 C 0.6268(3) 0.6165(3) 0.54535(9)
C12 C 0.5552(3) 0.5964(3) 0.70619(9)
H3 H 0.6054 0.5144 0.7080
C13 C 0.8495(3) 0.8181(3) 0.75341(9)
H4 H 0.8181 0.8769 0.7321
C14 C 0.4064(3) 0.8404(3) 0.70179(10)
H5 H 0.3563 0.9223 0.7005
C15 C 0.4369(3) 0.6033(3) 0.72371(10)
H6 H 0.4072 0.5265 0.7370
C16 C 0.9487(3) 0.9650(3) 0.56769(9)
C17 C 0.6624(4) 0.9889(4) 0.54629(10)
H7 H 0.5692 0.9981 0.5391
C18 C 0.9214(3) 0.5933(3) 0.77853(9)
H8 H 0.9369 0.4996 0.7739
C19 C 0.7767(4) 0.4788(4) 0.49291(11)
C20 C 0.9179(3) 0.7829(4) 0.82347(10)
C21 C 0.8705(3) 0.8689(4) 0.79230(11)
H9 H 0.8524 0.9617 0.7973
C22 C 0.9446(4) 0.6452(4) 0.81725(10)
H10 H 0.9778 0.5880 0.8388
C23 C 0.7130(3) 0.5088(4) 0.55935(10)
H11 H 0.7209 0.4821 0.5864
C24 C 1.1212(3) 0.8510(4) 0.61340(11)
H12 H 1.2130 0.8367 0.6222
C25 C 0.7871(4) 0.4412(4) 0.53325(11)
H13 H 0.8450 0.3692 0.5428
C26 C 0.7550(4) 1.0618(4) 0.52562(11)
H14 H 0.7214 1.1186 0.5040
C27 C 1.0862(4) 0.9405(4) 0.58219(11)
H15 H 1.1536 0.9857 0.5703
C28 C 0.6142(4) 0.6547(4) 0.50496(10)
H16 H 0.5554 0.7258 0.4952
C29 C 0.8928(4) 1.0525(4) 0.53608(11)
H17 H 0.9500 1.1047 0.5221
C30 C 0.6902(4) 0.5855(4) 0.47946(11)
H18 H 0.6827 0.6119 0.4524
C31 C 0.8569(4) 0.4029(5) 0.46441(13)
H19 H 0.9463 0.4423 0.4661
H20 H 0.8118 0.4116 0.4373
H21 H 0.8638 0.3063 0.4717
Cl2 Cl 0.55389(14) 0.73536(15) 0.81643(4)
Cl3 Cl 0.58231(18) 0.64356(19) 0.89827(5)
Cl4 Cl 0.32333(15) 0.7347(2) 0.85938(5)
C32 C 0.4988(5) 0.7609(5) 0.86316(14)
H22 H 0.5202 0.8562 0.8723
loop_
_geom_bond_atom_site_label_1
_geom_bond_atom_site_label_2
_geom_bond_site_symmetry_1
_geom_bond_site_symmetry_2
Br1 C20 1_555 1_555
S1 O1 1_555 1_555
S2 C6 1_555 1_555
Cl1 C9 1_555 1_555
O2 S1 1_555 1_555
N1 S1 1_555 1_555
C1 C2 1_555 1_555
C2 C3 1_555 1_555
C3 N1 1_555 1_555
C4 N1 1_555 1_555
C5 C7 1_555 1_555
C6 C13 1_555 1_555
C7 H1 1_555 1_555
C8 S2 1_555 1_555
C9 C14 1_555 1_555
C10 C1 1_555 1_555
H2 C10 1_555 1_555
C11 S1 1_555 1_555
C12 C5 1_555 1_555
H3 C12 1_555 1_555
C13 H4 1_555 1_555
C14 C7 1_555 1_555
H5 C14 1_555 1_555
C15 C9 1_555 1_555
H6 C15 1_555 1_555
C16 C2 1_555 1_555
C17 C3 1_555 1_555
H7 C17 1_555 1_555
C18 C6 1_555 1_555
H8 C18 1_555 1_555
C19 C25 1_555 1_555
C20 C21 1_555 1_555
C21 C13 1_555 1_555
H9 C21 1_555 1_555
C22 C18 1_555 1_555
H10 C22 1_555 1_555
C23 C11 1_555 1_555
H11 C23 1_555 1_555
C24 C10 1_555 1_555
H12 C24 1_555 1_555
C25 C23 1_555 1_555
H13 C25 1_555 1_555
C26 C17 1_555 1_555
H14 C26 1_555 1_555
C27 C16 1_555 1_555
H15 C27 1_555 1_555
C28 C11 1_555 1_555
H16 C28 1_555 1_555
C29 C16 1_555 1_555
H17 C29 1_555 1_555
C30 C19 1_555 1_555
H18 C30 1_555 1_555
C31 C19 1_555 1_555
H19 C31 1_555 1_555
H20 C31 1_555 1_555
H21 C31 1_555 1_555
Cl2 C32 1_555 1_555
Cl3 C32 1_555 1_555
Cl4 C32 1_555 1_555
C32 H22 1_555 1_555
C1 C4 1_555 1_555
C4 C8 1_555 1_555
C5 C8 1_555 1_555
C12 C15 1_555 1_555
C20 C22 1_555 1_555
C24 C27 1_555 1_555
C26 C29 1_555 1_555
C28 C30 1_555 1_555

#END
