
#######################################################################
#
#                 Cambridge Crystallographic Data Centre
#                                CCDC 
#
#######################################################################
#
# If this CIF has been generated from an entry in the Cambridge 
# Structural Database, then it will include bibliographic, chemical, 
# crystal, experimental, refinement or atomic coordinate data resulting 
# from the CCDC's data processing and validation procedures.
#
#######################################################################

data_XIBNAA
_chemical_formula_moiety         'C20 H19 N5 O3,C2 H6 O1'
_chemical_name_systematic        
'2-amino-7-(4-methylphenyl)-6-nitro-5-phenyl-5,6,7,8-tetrahydropyrido[2,3-d]pyrimidin-4(3H)-one ethanol solvate'
_symmetry_cell_setting           triclinic
_symmetry_space_group_name_H-M   'P -1'
_symmetry_Int_Tables_number      2
_space_group_name_Hall           '-P 1'
loop_
_symmetry_equiv_pos_site_id
_symmetry_equiv_pos_as_xyz
1 x,y,z
2 -x,-y,-z
_cell_length_a                   9.324(3)
_cell_length_b                   9.760(3)
_cell_length_c                   12.772(4)
_cell_angle_alpha                75.736(6)
_cell_angle_beta                 70.173(5)
_cell_angle_gamma                77.227(5)
_cell_volume                     1047.55
_exptl_crystal_colour            colorless
_exptl_crystal_description       block
_cell_formula_units_Z            2
loop_
_atom_site_label
_atom_site_type_symbol
_atom_site_fract_x
_atom_site_fract_y
_atom_site_fract_z
C1 C 0.11066(18) 0.55038(17) 0.32708(14)
C2 C 0.13822(18) 0.30439(16) 0.31187(14)
C3 C 0.20900(18) 0.46949(17) 0.15089(14)
C4 C 0.17223(18) 0.58221(16) 0.20891(14)
C5 C 0.18456(18) 0.73501(16) 0.14969(13)
H1 H 0.0863 0.7951 0.1851
C6 C 0.31692(18) 0.79529(17) 0.15893(13)
C7 C 0.44723(19) 0.70830(17) 0.18065(15)
H2 H 0.4539 0.6073 0.1939
C8 C 0.5681(2) 0.76814(19) 0.18317(16)
H3 H 0.6571 0.7078 0.1975
C9 C 0.5592(2) 0.9149(2) 0.16497(15)
H4 H 0.6419 0.9556 0.1666
C10 C 0.4289(2) 1.00254(18) 0.14431(15)
H5 H 0.4220 1.1035 0.1323
C11 C 0.3088(2) 0.94344(17) 0.14112(14)
H6 H 0.2201 1.0042 0.1267
C12 C 0.20022(18) 0.75498(17) 0.02276(14)
H7 H 0.2468 0.8439 -0.0172
C13 C 0.30769(18) 0.62927(17) -0.03083(14)
H8 H 0.4133 0.6314 -0.0284
C14 C 0.32010(18) 0.64023(16) -0.15373(14)
C15 C 0.44152(19) 0.69918(18) -0.23836(15)
H9 H 0.5146 0.7337 -0.2185
C16 C 0.4568(2) 0.7080(2) -0.35172(15)
H10 H 0.5403 0.7491 -0.4083
C17 C 0.3531(2) 0.6584(2) -0.38418(15)
C18 C 0.2327(2) 0.59873(19) -0.29896(16)
H11 H 0.1610 0.5626 -0.3190
C19 C 0.21470(19) 0.59069(18) -0.18526(15)
H12 H 0.1301 0.5512 -0.1288
C20 C 0.3677(3) 0.6724(3) -0.50778(18)
H13 H 0.3194 0.7680 -0.5357
H14 H 0.3161 0.6002 -0.5161
H15 H 0.4770 0.6580 -0.5516
N1 N 0.10004(16) 0.40781(14) 0.37567(12)
H16 H 0.0677 0.3834 0.4500
N2 N 0.12009(18) 0.17100(15) 0.36694(13)
H17 H 0.1445 0.1011 0.3288
H18 H 0.0838 0.1530 0.4413
N3 N 0.19279(16) 0.33149(14) 0.20006(12)
N4 N 0.26357(17) 0.49319(14) 0.03622(12)
H19 H 0.2726 0.4233 0.0010
N5 N 0.04450(16) 0.77533(15) 0.00605(12)
O1 O 0.06248(15) 0.63991(12) 0.39231(10)
O2 O -0.04217(15) 0.68898(15) 0.06186(13)
O3 O 0.01382(17) 0.87786(16) -0.06381(13)
C21 C 0.1368(3) 0.0177(2) 0.6595(2)
H20 H 0.1612 -0.0859 0.6576
H21 H 0.1060 0.0280 0.7397
C22 C 0.2766(3) 0.0827(3) 0.5974(2)
H22 H 0.3056 0.0773 0.5171
H23 H 0.3606 0.0312 0.6284
H24 H 0.2570 0.1830 0.6054
O4 O 0.00862(16) 0.07791(13) 0.61619(12)
H25 H -0.0228 0.1621 0.6276
loop_
_geom_bond_atom_site_label_1
_geom_bond_atom_site_label_2
_geom_bond_site_symmetry_1
_geom_bond_site_symmetry_2
C1 C4 1_555 1_555
C2 N1 1_555 1_555
C3 C4 1_555 1_555
C4 C5 1_555 1_555
C5 H1 1_555 1_555
C6 C5 1_555 1_555
C7 C6 1_555 1_555
H2 C7 1_555 1_555
C8 C7 1_555 1_555
H3 C8 1_555 1_555
C9 C8 1_555 1_555
H4 C9 1_555 1_555
C10 C9 1_555 1_555
H5 C10 1_555 1_555
C11 C6 1_555 1_555
H6 C11 1_555 1_555
C12 C5 1_555 1_555
H7 C12 1_555 1_555
C13 C12 1_555 1_555
H8 C13 1_555 1_555
C14 C13 1_555 1_555
C15 C14 1_555 1_555
H9 C15 1_555 1_555
C16 C15 1_555 1_555
H10 C16 1_555 1_555
C17 C16 1_555 1_555
C18 C17 1_555 1_555
H11 C18 1_555 1_555
C19 C14 1_555 1_555
H12 C19 1_555 1_555
C20 C17 1_555 1_555
H13 C20 1_555 1_555
H14 C20 1_555 1_555
H15 C20 1_555 1_555
N1 C1 1_555 1_555
H16 N1 1_555 1_555
N2 C2 1_555 1_555
H17 N2 1_555 1_555
H18 N2 1_555 1_555
N3 C2 1_555 1_555
N4 C3 1_555 1_555
H19 N4 1_555 1_555
N5 C12 1_555 1_555
O1 C1 1_555 1_555
O2 N5 1_555 1_555
O3 N5 1_555 1_555
C21 H20 1_555 1_555
H21 C21 1_555 1_555
C22 C21 1_555 1_555
H22 C22 1_555 1_555
H23 C22 1_555 1_555
H24 C22 1_555 1_555
O4 C21 1_555 1_555
H25 O4 1_555 1_555
C3 N3 1_555 1_555
C10 C11 1_555 1_555
C13 N4 1_555 1_555
C18 C19 1_555 1_555

#END
