
#######################################################################
#
#                 Cambridge Crystallographic Data Centre
#                                CCDC 
#
#######################################################################
#
# If this CIF has been generated from an entry in the Cambridge 
# Structural Database, then it will include bibliographic, chemical, 
# crystal, experimental, refinement or atomic coordinate data resulting 
# from the CCDC's data processing and validation procedures.
#
#######################################################################

data_XIBNOM
_chemical_compound_source        
'rhizomes of Astilbe chinensis (Maxim.) Franch. et Sav'
_chemical_formula_moiety         'C30 H48 O4,C1 H4 O1'
_chemical_name_systematic        
'2\b,24-Dihydroxyurs-12-en-27-oic acid methanol solvate'
_chemical_properties_biological  
'extracts of source plant may have antineoplastic and immunopotentiating activities; rhizome used in traditional Chinese medicine for treatment of headache, arthralgia, chronic bronchitis and stomachalgia'
_symmetry_cell_setting           monoclinic
_symmetry_space_group_name_H-M   'P 21'
_symmetry_Int_Tables_number      4
_space_group_name_Hall           'P 2yb'
loop_
_symmetry_equiv_pos_site_id
_symmetry_equiv_pos_as_xyz
1 x,y,z
2 -x,1/2+y,-z
_cell_length_a                   11.068(3)
_cell_length_b                   7.9037(18)
_cell_length_c                   16.677(4)
_cell_angle_alpha                90
_cell_angle_beta                 95.487(4)
_cell_angle_gamma                90
_cell_volume                     1452.19
_exptl_crystal_colour            colorless
_exptl_crystal_description       plate
_chemical_melting_point          '508-510 K'
_cell_formula_units_Z            2
_exptl_crystal_recrystallization_method methanol
loop_
_atom_site_label
_atom_site_type_symbol
_atom_site_fract_x
_atom_site_fract_y
_atom_site_fract_z
O1 O 0.3451(2) 0.4922(5) 0.70011(13)
H1 H 0.4119 0.5275 0.7181
O2 O 0.2393(2) 0.1974(4) 0.72067(12)
H2 H 0.2734 0.2827 0.7394
O3 O 0.42138(19) 0.3733(3) 0.25983(14)
H3 H 0.4934 0.3743 0.2520
O4 O 0.43757(19) 0.1022(3) 0.22756(13)
C1 C 0.2348(3) 0.5833(5) 0.48279(19)
H4 H 0.3104 0.6092 0.4604
H5 H 0.1746 0.6646 0.4613
C2 C 0.2534(3) 0.6026(5) 0.57458(19)
H6 H 0.2833 0.7155 0.5877
H7 H 0.1759 0.5897 0.5965
C3 C 0.3420(3) 0.4742(6) 0.61361(19)
H8 H 0.4229 0.5013 0.5979
C4 C 0.3143(3) 0.2884(5) 0.59109(18)
C5 C 0.2860(3) 0.2758(4) 0.49791(18)
H9 H 0.3631 0.3051 0.4770
C6 C 0.2590(3) 0.0968(4) 0.46586(18)
H10 H 0.3131 0.0169 0.4953
H11 H 0.1763 0.0663 0.4743
C7 C 0.2757(3) 0.0868(4) 0.37686(18)
H12 H 0.2589 -0.0279 0.3583
H13 H 0.3598 0.1114 0.3694
C8 C 0.1930(2) 0.2103(4) 0.32449(16)
C9 C 0.2040(3) 0.3906(4) 0.36236(16)
H14 H 0.2866 0.4280 0.3549
C10 C 0.1934(3) 0.4047(4) 0.45575(17)
C11 C 0.1206(3) 0.5130(5) 0.31231(18)
H15 H 0.0375 0.4938 0.3240
H16 H 0.1422 0.6281 0.3280
C12 C 0.1280(3) 0.4941(5) 0.22406(18)
H17 H 0.0920 0.5786 0.1911
C13 C 0.1808(3) 0.3689(4) 0.18791(17)
C14 C 0.2347(2) 0.2146(4) 0.23480(16)
C15 C 0.1972(3) 0.0496(4) 0.18869(18)
H18 H 0.2475 -0.0424 0.2114
H19 H 0.1137 0.0236 0.1971
C16 C 0.2083(3) 0.0580(4) 0.09875(18)
H20 H 0.1790 -0.0473 0.0741
H21 H 0.2933 0.0695 0.0899
C17 C 0.1372(3) 0.2053(5) 0.05756(17)
C18 C 0.1866(3) 0.3732(4) 0.09621(17)
H22 H 0.1299 0.4618 0.0757
C19 C 0.3134(3) 0.4265(4) 0.07159(18)
H23 H 0.3735 0.3451 0.0951
C20 C 0.3156(3) 0.4225(5) -0.02051(19)
H24 H 0.2575 0.5072 -0.0432
C21 C 0.2749(3) 0.2522(5) -0.05515(19)
H25 H 0.2743 0.2557 -0.1133
H26 H 0.3325 0.1661 -0.0350
C22 C 0.1498(3) 0.2047(6) -0.03332(18)
H27 H 0.1298 0.0927 -0.0544
H28 H 0.0912 0.2833 -0.0594
C23 C 0.4281(3) 0.1821(7) 0.6166(2)
H29 H 0.4911 0.2102 0.5831
H30 H 0.4087 0.0641 0.6107
H31 H 0.4554 0.2056 0.6718
C24 C 0.2082(3) 0.2197(6) 0.63611(17)
H32 H 0.1404 0.2975 0.6281
H33 H 0.1820 0.1119 0.6127
C25 C 0.0624(3) 0.3788(5) 0.47933(18)
H34 H 0.0531 0.4377 0.5287
H35 H 0.0478 0.2603 0.4865
H36 H 0.0054 0.4223 0.4374
C26 C 0.0614(3) 0.1458(5) 0.32095(19)
H37 H 0.0305 0.1638 0.3721
H38 H 0.0595 0.0271 0.3086
H39 H 0.0121 0.2062 0.2800
C27 C 0.3744(3) 0.2230(5) 0.23998(16)
C28 C 0.0015(3) 0.1904(6) 0.0694(2)
H40 H -0.0274 0.0803 0.0525
H41 H -0.0431 0.2754 0.0378
H42 H -0.0097 0.2062 0.1253
C29 C 0.3485(3) 0.6020(5) 0.1051(2)
H43 H 0.4326 0.6230 0.0991
H44 H 0.3353 0.6067 0.1611
H45 H 0.2996 0.6863 0.0760
C30 C 0.4400(3) 0.4697(6) -0.0466(2)
H46 H 0.5014 0.4018 -0.0176
H47 H 0.4559 0.5871 -0.0353
H48 H 0.4408 0.4498 -0.1033
O5 O 0.6514(3) 0.4051(5) 0.2382(2)
H49 H 0.6846 0.4946 0.2520
C31 C 0.7162(5) 0.3261(6) 0.1804(3)
H50 H 0.7423 0.4096 0.1440
H51 H 0.6648 0.2451 0.1509
H52 H 0.7857 0.2694 0.2068
loop_
_geom_bond_atom_site_label_1
_geom_bond_atom_site_label_2
_geom_bond_site_symmetry_1
_geom_bond_site_symmetry_2
O1 H1 1_555 1_555
O2 H2 1_555 1_555
O3 H3 1_555 1_555
O4 C27 1_555 1_555
C1 H4 1_555 1_555
H5 C1 1_555 1_555
C2 C1 1_555 1_555
H6 C2 1_555 1_555
H7 C2 1_555 1_555
C3 O1 1_555 1_555
H8 C3 1_555 1_555
C4 C3 1_555 1_555
C5 C4 1_555 1_555
H9 C5 1_555 1_555
C6 C5 1_555 1_555
H10 C6 1_555 1_555
H11 C6 1_555 1_555
C7 C6 1_555 1_555
H12 C7 1_555 1_555
H13 C7 1_555 1_555
C8 C7 1_555 1_555
C9 C8 1_555 1_555
H14 C9 1_555 1_555
C10 C1 1_555 1_555
C11 C9 1_555 1_555
H15 C11 1_555 1_555
H16 C11 1_555 1_555
C12 C11 1_555 1_555
H17 C12 1_555 1_555
C13 C12 1_555 1_555
C14 C8 1_555 1_555
C15 C14 1_555 1_555
H18 C15 1_555 1_555
H19 C15 1_555 1_555
C16 C15 1_555 1_555
H20 C16 1_555 1_555
H21 C16 1_555 1_555
C17 C16 1_555 1_555
C18 C13 1_555 1_555
H22 C18 1_555 1_555
C19 C18 1_555 1_555
H23 C19 1_555 1_555
C20 C19 1_555 1_555
H24 C20 1_555 1_555
C21 C20 1_555 1_555
H25 C21 1_555 1_555
H26 C21 1_555 1_555
C22 C17 1_555 1_555
H27 C22 1_555 1_555
H28 C22 1_555 1_555
C23 C4 1_555 1_555
H29 C23 1_555 1_555
H30 C23 1_555 1_555
H31 C23 1_555 1_555
C24 O2 1_555 1_555
H32 C24 1_555 1_555
H33 C24 1_555 1_555
C25 C10 1_555 1_555
H34 C25 1_555 1_555
H35 C25 1_555 1_555
H36 C25 1_555 1_555
C26 C8 1_555 1_555
H37 C26 1_555 1_555
H38 C26 1_555 1_555
H39 C26 1_555 1_555
C27 O3 1_555 1_555
C28 C17 1_555 1_555
H40 C28 1_555 1_555
H41 C28 1_555 1_555
H42 C28 1_555 1_555
C29 C19 1_555 1_555
H43 C29 1_555 1_555
H44 C29 1_555 1_555
H45 C29 1_555 1_555
C30 C20 1_555 1_555
H46 C30 1_555 1_555
H47 C30 1_555 1_555
H48 C30 1_555 1_555
O5 H49 1_555 1_555
C31 O5 1_555 1_555
H50 C31 1_555 1_555
H51 C31 1_555 1_555
H52 C31 1_555 1_555
C2 C3 1_555 1_555
C4 C24 1_555 1_555
C5 C10 1_555 1_555
C9 C10 1_555 1_555
C13 C14 1_555 1_555
C14 C27 1_555 1_555
C17 C18 1_555 1_555
C21 C22 1_555 1_555

#END
