
#######################################################################
#
#                 Cambridge Crystallographic Data Centre
#                                CCDC 
#
#######################################################################
#
# If this CIF has been generated from an entry in the Cambridge 
# Structural Database, then it will include bibliographic, chemical, 
# crystal, experimental, refinement or atomic coordinate data resulting 
# from the CCDC's data processing and validation procedures.
#
#######################################################################

data_XIBQEH
_chemical_formula_moiety         'C28 H53 Li1 Mg1 N2 O1 Si2'
_chemical_name_systematic        
(\m-(2,3-dimethylbuta-1,3-diene-1,4-diyl)bis(trimethylsilane))-bis(1,2-bis(dimethylamino)ethane)-phenyl-tetrahydrofuran-lithium-magnesium
_symmetry_cell_setting           monoclinic
_symmetry_space_group_name_H-M   'P 21/c'
_symmetry_Int_Tables_number      14
_space_group_name_Hall           '-P 2ybc'
loop_
_symmetry_equiv_pos_site_id
_symmetry_equiv_pos_as_xyz
1 x,y,z
2 -x,1/2+y,1/2-z
3 -x,-y,-z
4 x,1/2-y,1/2+z
_cell_length_a                   10.5175(3)
_cell_length_b                   19.0840(6)
_cell_length_c                   17.1101(6)
_cell_angle_alpha                90
_cell_angle_beta                 104.306(3)
_cell_angle_gamma                90
_cell_volume                     3327.77
_exptl_crystal_colour            'light yellow'
_exptl_crystal_description       block
_cell_formula_units_Z            4
loop_
_atom_site_label
_atom_site_type_symbol
_atom_site_fract_x
_atom_site_fract_y
_atom_site_fract_z
Si1 Si 0.38176(7) 0.48147(4) 0.13688(5)
Si2 Si 0.19694(8) 0.78879(4) 0.24422(6)
Mg1 Mg 0.42852(8) 0.65019(5) 0.22928(5)
O1 O 0.510(2) 0.7089(13) 0.1537(14)
N1 N 0.0114(2) 0.54898(16) 0.22793(17)
N2 N 0.2267(3) 0.56647(15) 0.37102(15)
C1 C 0.3103(2) 0.56576(14) 0.15591(16)
C2 C 0.2174(2) 0.60509(14) 0.10570(15)
C3 C 0.1751(3) 0.67589(15) 0.13386(17)
C4 C 0.2362(3) 0.70296(14) 0.20690(17)
C5 C 0.6001(3) 0.64367(17) 0.32965(17)
C6 C 0.6595(3) 0.58057(19) 0.36100(18)
H1 H 0.6185 0.5379 0.3400
C7 C 0.7762(3) 0.5773(2) 0.4217(2)
H2 H 0.8122 0.5332 0.4412
C8 C 0.8387(3) 0.6381(3) 0.4532(2)
H3 H 0.9179 0.6362 0.4944
C9 C 0.7857(3) 0.7010(3) 0.4245(2)
H4 H 0.8284 0.7433 0.4456
C10 C 0.6691(3) 0.7035(2) 0.3644(2)
H5 H 0.6344 0.7482 0.3458
C11 C 0.4029(3) 0.42466(18) 0.2288(2)
H6 H 0.4539 0.4500 0.2760
H7 H 0.4492 0.3816 0.2212
H8 H 0.3165 0.4128 0.2371
C12 C 0.5487(3) 0.50176(18) 0.1215(2)
H9 H 0.5404 0.5362 0.0780
H10 H 0.5884 0.4587 0.1070
H11 H 0.6045 0.5209 0.1715
C13 C 0.2941(4) 0.42194(18) 0.0519(2)
H12 H 0.2047 0.4130 0.0569
H13 H 0.3418 0.3775 0.0549
H14 H 0.2905 0.4446 0.0000
C14 C 0.1499(3) 0.58467(18) 0.01934(18)
H15 H 0.1624 0.6219 -0.0175
H16 H 0.0559 0.5780 0.0145
H17 H 0.1880 0.5410 0.0054
C15 C 0.0634(4) 0.7122(2) 0.0735(3)
H18 H 0.0366 0.7542 0.0983
H19 H -0.0114 0.6801 0.0578
H20 H 0.0931 0.7256 0.0256
C16 C 0.3109(4) 0.80740(18) 0.3444(2)
H21 H 0.2949 0.7739 0.3843
H22 H 0.2958 0.8551 0.3613
H23 H 0.4018 0.8030 0.3402
C17 C 0.0268(4) 0.7946(2) 0.2611(3)
H24 H -0.0379 0.7953 0.2089
H25 H 0.0190 0.8375 0.2909
H26 H 0.0109 0.7538 0.2922
C18 C 0.2234(4) 0.8630(2) 0.1768(3)
H27 H 0.3057 0.8555 0.1609
H28 H 0.2280 0.9075 0.2061
H29 H 0.1503 0.8646 0.1286
C19 C 0.4577(8) 0.7162(5) 0.0648(5)
H30 H 0.3606 0.7179 0.0480
H31 H 0.4917 0.6800 0.0338
C20 C 0.5323(8) 0.8001(5) 0.0621(5)
H32 H 0.5374 0.8133 0.0070
H33 H 0.4879 0.8375 0.0855
C21 C 0.6618(8) 0.7818(5) 0.1146(5)
H34 H 0.7171 0.7602 0.0820
H35 H 0.7063 0.8248 0.1401
C22 C 0.6458(8) 0.7351(6) 0.1740(6)
H36 H 0.6652 0.7589 0.2270
H37 H 0.7075 0.6953 0.1775
C23 C -0.0065(4) 0.4904(2) 0.1745(2)
H38 H -0.0020 0.5061 0.1207
H39 H -0.0924 0.4692 0.1714
H40 H 0.0627 0.4558 0.1947
C24 C -0.0902(6) 0.5949(4) 0.2290(5)
H41 H -0.1085 0.6238 0.1802
H42 H -0.0652 0.6251 0.2767
H43 H -0.1690 0.5682 0.2310
C25 C 0.0309(7) 0.5024(4) 0.3103(4)
H44 H -0.0563 0.4920 0.3199
H45 H 0.0728 0.4572 0.3029
C26 C 0.1029(4) 0.5345(2) 0.3735(3)
H46 H 0.1216 0.5002 0.4183
H47 H 0.0478 0.5716 0.3886
C27 C 0.3345(5) 0.5209(3) 0.4056(3)
H48 H 0.3371 0.5126 0.4625
H49 H 0.4168 0.5428 0.4014
H50 H 0.3231 0.4762 0.3765
C28 C 0.2093(12) 0.6333(4) 0.4100(6)
H51 H 0.1991 0.6243 0.4645
H52 H 0.1309 0.6572 0.3783
H53 H 0.2864 0.6631 0.4131
Li1 Li 0.1976(4) 0.5934(3) 0.2455(3)
O2? O 0.517(3) 0.6993(15) 0.1431(16)
C29? C 0.4405(7) 0.7433(5) 0.0738(4)
H54? H 0.3801 0.7141 0.0331
H55? H 0.3896 0.7803 0.0929
C30? C 0.5419(8) 0.7726(6) 0.0419(6)
H56? H 0.5330 0.8242 0.0391
H57? H 0.5343 0.7547 -0.0134
C31? C 0.6742(9) 0.7529(6) 0.0955(6)
H58? H 0.7320 0.7322 0.0639
H59? H 0.7185 0.7939 0.1259
C32? C 0.6427(7) 0.7073(5) 0.1429(6)
H60? H 0.6913 0.7191 0.1986
H61? H 0.6755 0.6612 0.1299
C33? C -0.0933(6) 0.5975(4) 0.1694(5)
H62? H -0.0772 0.5970 0.1154
H63? H -0.0854 0.6456 0.1902
H64? H -0.1819 0.5799 0.1665
C34? C -0.0176(6) 0.5503(4) 0.3007(4)
H65? H -0.0872 0.5153 0.3007
H66? H -0.0531 0.5971 0.3087
H67? H 0.0803 0.5498 0.4237
H68? H 0.1157 0.4831 0.3771
C35? C 0.2882(15) 0.6230(6) 0.4289(6)
H69? H 0.2903 0.6083 0.4841
H70? H 0.2365 0.6661 0.4163
H71? H 0.3779 0.6317 0.4243
loop_
_geom_bond_atom_site_label_1
_geom_bond_atom_site_label_2
_geom_bond_site_symmetry_1
_geom_bond_site_symmetry_2
Si1 C1 1_555 1_555
Si2 C4 1_555 1_555
Mg1 O1 1_555 1_555
O1 C19 1_555 1_555
N1 C23 1_555 1_555
N2 C26 1_555 1_555
C1 Mg1 1_555 1_555
C2 C1 1_555 1_555
C3 C2 1_555 1_555
C4 Mg1 1_555 1_555
C5 Mg1 1_555 1_555
C6 C5 1_555 1_555
H1 C6 1_555 1_555
C7 C6 1_555 1_555
H2 C7 1_555 1_555
C8 C7 1_555 1_555
H3 C8 1_555 1_555
C9 C8 1_555 1_555
H4 C9 1_555 1_555
C10 C5 1_555 1_555
H5 C10 1_555 1_555
C11 Si1 1_555 1_555
H6 C11 1_555 1_555
H7 C11 1_555 1_555
H8 C11 1_555 1_555
C12 Si1 1_555 1_555
H9 C12 1_555 1_555
H10 C12 1_555 1_555
H11 C12 1_555 1_555
C13 Si1 1_555 1_555
H12 C13 1_555 1_555
H13 C13 1_555 1_555
H14 C13 1_555 1_555
C14 C2 1_555 1_555
H15 C14 1_555 1_555
H16 C14 1_555 1_555
H17 C14 1_555 1_555
C15 C3 1_555 1_555
H18 C15 1_555 1_555
H19 C15 1_555 1_555
H20 C15 1_555 1_555
C16 Si2 1_555 1_555
H21 C16 1_555 1_555
H22 C16 1_555 1_555
H23 C16 1_555 1_555
C17 Si2 1_555 1_555
H24 C17 1_555 1_555
H25 C17 1_555 1_555
H26 C17 1_555 1_555
C18 Si2 1_555 1_555
H27 C18 1_555 1_555
H28 C18 1_555 1_555
H29 C18 1_555 1_555
C19 H30 1_555 1_555
H31 C19 1_555 1_555
C20 C19 1_555 1_555
H32 C20 1_555 1_555
H33 C20 1_555 1_555
C21 C20 1_555 1_555
H34 C21 1_555 1_555
H35 C21 1_555 1_555
C22 O1 1_555 1_555
H36 C22 1_555 1_555
H37 C22 1_555 1_555
C23 H38 1_555 1_555
H39 C23 1_555 1_555
H40 C23 1_555 1_555
C24 N1 1_555 1_555
H41 C24 1_555 1_555
H42 C24 1_555 1_555
H43 C24 1_555 1_555
C25 N1 1_555 1_555
H44 C25 1_555 1_555
H45 C25 1_555 1_555
C26 C25 1_555 1_555
H46 C26 1_555 1_555
H47 C26 1_555 1_555
C27 N2 1_555 1_555
H48 C27 1_555 1_555
H49 C27 1_555 1_555
H50 C27 1_555 1_555
C28 N2 1_555 1_555
H51 C28 1_555 1_555
H52 C28 1_555 1_555
H53 C28 1_555 1_555
Li1 N1 1_555 1_555
N2 Li1 1_555 1_555
C1 Li1 1_555 1_555
C3 C4 1_555 1_555
C4 Li1 1_555 1_555
C9 C10 1_555 1_555
C21 C22 1_555 1_555

#END
