
#######################################################################
#
#                 Cambridge Crystallographic Data Centre
#                                CCDC 
#
#######################################################################
#
# If this CIF has been generated from an entry in the Cambridge 
# Structural Database, then it will include bibliographic, chemical, 
# crystal, experimental, refinement or atomic coordinate data resulting 
# from the CCDC's data processing and validation procedures.
#
#######################################################################

data_XIBQIL
_chemical_formula_moiety         'C30 H55 Li1 Mg1 N2 O1 Si2'
_chemical_name_systematic        
(\m-(cyclohexane-1,2-diylidenedimethylylidene)bis(trimethylsilane))-bis(1,2-bis(dimethylamino)ethane)-phenyl-tetrahydrofuran-lithium-magnesium
_symmetry_cell_setting           monoclinic
_symmetry_space_group_name_H-M   'P 21/c'
_symmetry_Int_Tables_number      14
_space_group_name_Hall           '-P 2ybc'
loop_
_symmetry_equiv_pos_site_id
_symmetry_equiv_pos_as_xyz
1 x,y,z
2 -x,1/2+y,1/2-z
3 -x,-y,-z
4 x,1/2-y,1/2+z
_cell_length_a                   10.3188(4)
_cell_length_b                   20.4063(7)
_cell_length_c                   16.7154(7)
_cell_angle_alpha                90
_cell_angle_beta                 100.460(4)
_cell_angle_gamma                90
_cell_volume                     3461.25
_exptl_crystal_colour            'light yellow'
_exptl_crystal_description       block
_cell_formula_units_Z            4
loop_
_atom_site_label
_atom_site_type_symbol
_atom_site_fract_x
_atom_site_fract_y
_atom_site_fract_z
Mg1 Mg 0.43240(11) 0.63936(6) 0.73995(7)
Li1 Li 0.2055(6) 0.5834(3) 0.7729(4)
Si1 Si 0.18054(10) 0.76686(5) 0.74025(6)
Si2 Si 0.41167(13) 0.47423(6) 0.66786(8)
O1 O 0.5207(3) 0.68035(15) 0.64737(18)
N1 N 0.0341(4) 0.5301(2) 0.7789(2)
N2 N 0.2432(3) 0.58106(17) 0.9017(2)
C1 C 0.2340(3) 0.68402(16) 0.7152(2)
C2 C 0.1714(3) 0.64792(17) 0.6514(2)
C3 C 0.2256(4) 0.58025(17) 0.6313(2)
C4 C 0.3270(4) 0.55158(17) 0.6822(2)
C5 C 0.5994(4) 0.6500(2) 0.8392(2)
C6 C 0.6678(4) 0.6003(2) 0.8879(3)
H1 H 0.6370 0.5575 0.8804
C7 C 0.7802(4) 0.6123(3) 0.9470(3)
H2 H 0.8217 0.5779 0.9779
C8 C 0.8287(4) 0.6742(3) 0.9594(3)
H3 H 0.9029 0.6822 0.9989
C9 C 0.7670(4) 0.7251(3) 0.9129(3)
H4 H 0.7999 0.7676 0.9202
C10 C 0.6546(4) 0.7120(2) 0.8548(3)
H5 H 0.6139 0.7470 0.8245
C11 C 0.3035(4) 0.8024(2) 0.8255(3)
H6 H 0.3077 0.7757 0.8732
H7 H 0.2771 0.8460 0.8370
H8 H 0.3886 0.8037 0.8101
C12 C 0.0174(4) 0.7677(2) 0.7750(3)
H9 H -0.0506 0.7540 0.7312
H10 H -0.0011 0.8112 0.7916
H11 H 0.0205 0.7383 0.8202
C13 C 0.1735(6) 0.8269(2) 0.6536(3)
H12 H 0.2611 0.8350 0.6440
H13 H 0.1354 0.8673 0.6674
H14 H 0.1206 0.8090 0.6054
C14 C 0.0484(4) 0.6675(2) 0.5905(2)
H15 H 0.0202 0.7109 0.6039
H16 H -0.0224 0.6371 0.5943
C15 C 0.0751(4) 0.6677(2) 0.5027(2)
H17 H -0.0080 0.6706 0.4649
H18 H 0.1272 0.7059 0.4948
C16 C 0.1488(6) 0.6055(2) 0.4841(3)
H19 H 0.1052 0.5875 0.4325
H20 H 0.2379 0.6173 0.4787
C17 C 0.1549(5) 0.5532(2) 0.5495(2)
H21 H 0.2017 0.5151 0.5348
H22 H 0.0663 0.5397 0.5539
C18 C 0.3352(7) 0.4114(3) 0.5902(4)
H23 H 0.2508 0.3985 0.6013
H24 H 0.3916 0.3737 0.5933
H25 H 0.3245 0.4300 0.5367
C19 C 0.5719(7) 0.4967(3) 0.6345(5)
H26 H 0.5533 0.5207 0.5844
H27 H 0.6195 0.4575 0.6267
H28 H 0.6242 0.5233 0.6756
C20 C 0.4551(9) 0.4319(3) 0.7667(4)
H29 H 0.5167 0.4581 0.8032
H30 H 0.4942 0.3902 0.7589
H31 H 0.3770 0.4253 0.7893
C21 C 0.4626(5) 0.7176(3) 0.5764(3)
H32 H 0.3746 0.7320 0.5808
H33 H 0.4573 0.6913 0.5276
C22 C 0.5521(6) 0.7758(4) 0.5736(4)
H34 H 0.5153 0.8148 0.5939
H35 H 0.5650 0.7839 0.5184
C23 C 0.6812(7) 0.7572(4) 0.6279(5)
H36 H 0.7547 0.7626 0.5996
H37 H 0.6967 0.7835 0.6770
C24 C 0.6620(5) 0.6862(3) 0.6472(3)
H38 H 0.6880 0.6579 0.6063
H39 H 0.7131 0.6747 0.7000
C25 C 0.0145(8) 0.4722(3) 0.7267(4)
H40 H 0.0840 0.4413 0.7442
H41 H 0.0154 0.4848 0.6714
H42 H -0.0688 0.4524 0.7300
C26 C -0.0797(5) 0.5730(4) 0.7608(4)
H43 H -0.1571 0.5495 0.7687
H44 H -0.0904 0.5875 0.7054
H45 H -0.0669 0.6102 0.7964
C27 C 0.0511(5) 0.5080(2) 0.8654(3)
H46 H 0.1060 0.4691 0.8730
H47 H -0.0341 0.4969 0.8785
C28 C 0.1145(4) 0.5617(2) 0.9216(3)
H48 H 0.0566 0.5995 0.9166
H49 H 0.1271 0.5465 0.9774
C29 C 0.3440(5) 0.5328(3) 0.9354(3)
H50 H 0.3501 0.5304 0.9933
H51 H 0.4276 0.5458 0.9231
H52 H 0.3202 0.4906 0.9118
C30 C 0.2828(5) 0.6447(3) 0.9399(3)
H53 H 0.2168 0.6769 0.9205
H54 H 0.3654 0.6579 0.9263
H55 H 0.2921 0.6408 0.9979
loop_
_geom_bond_atom_site_label_1
_geom_bond_atom_site_label_2
_geom_bond_site_symmetry_1
_geom_bond_site_symmetry_2
Mg1 O1 1_555 1_555
Li1 N1 1_555 1_555
Si1 C1 1_555 1_555
Si2 C4 1_555 1_555
O1 C21 1_555 1_555
N1 C25 1_555 1_555
N2 Li1 1_555 1_555
C1 Mg1 1_555 1_555
C2 C1 1_555 1_555
C3 C2 1_555 1_555
C4 Mg1 1_555 1_555
C5 Mg1 1_555 1_555
C6 C5 1_555 1_555
H1 C6 1_555 1_555
C7 C6 1_555 1_555
H2 C7 1_555 1_555
C8 C7 1_555 1_555
H3 C8 1_555 1_555
C9 C8 1_555 1_555
H4 C9 1_555 1_555
C10 C5 1_555 1_555
H5 C10 1_555 1_555
C11 Si1 1_555 1_555
H6 C11 1_555 1_555
H7 C11 1_555 1_555
H8 C11 1_555 1_555
C12 Si1 1_555 1_555
H9 C12 1_555 1_555
H10 C12 1_555 1_555
H11 C12 1_555 1_555
C13 Si1 1_555 1_555
H12 C13 1_555 1_555
H13 C13 1_555 1_555
H14 C13 1_555 1_555
C14 C2 1_555 1_555
H15 C14 1_555 1_555
H16 C14 1_555 1_555
C15 C14 1_555 1_555
H17 C15 1_555 1_555
H18 C15 1_555 1_555
C16 C15 1_555 1_555
H19 C16 1_555 1_555
H20 C16 1_555 1_555
C17 C3 1_555 1_555
H21 C17 1_555 1_555
H22 C17 1_555 1_555
C18 Si2 1_555 1_555
H23 C18 1_555 1_555
H24 C18 1_555 1_555
H25 C18 1_555 1_555
C19 Si2 1_555 1_555
H26 C19 1_555 1_555
H27 C19 1_555 1_555
H28 C19 1_555 1_555
C20 Si2 1_555 1_555
H29 C20 1_555 1_555
H30 C20 1_555 1_555
H31 C20 1_555 1_555
C21 H32 1_555 1_555
H33 C21 1_555 1_555
C22 C21 1_555 1_555
H34 C22 1_555 1_555
H35 C22 1_555 1_555
C23 C22 1_555 1_555
H36 C23 1_555 1_555
H37 C23 1_555 1_555
C24 O1 1_555 1_555
H38 C24 1_555 1_555
H39 C24 1_555 1_555
C25 H40 1_555 1_555
H41 C25 1_555 1_555
H42 C25 1_555 1_555
C26 N1 1_555 1_555
H43 C26 1_555 1_555
H44 C26 1_555 1_555
H45 C26 1_555 1_555
C27 N1 1_555 1_555
H46 C27 1_555 1_555
H47 C27 1_555 1_555
C28 N2 1_555 1_555
H48 C28 1_555 1_555
H49 C28 1_555 1_555
C29 N2 1_555 1_555
H50 C29 1_555 1_555
H51 C29 1_555 1_555
H52 C29 1_555 1_555
C30 N2 1_555 1_555
H53 C30 1_555 1_555
H54 C30 1_555 1_555
H55 C30 1_555 1_555
Li1 C1 1_555 1_555
Li1 C4 1_555 1_555
C3 C4 1_555 1_555
C9 C10 1_555 1_555
C16 C17 1_555 1_555
C23 C24 1_555 1_555
C27 C28 1_555 1_555

#END
