
#######################################################################
#
#                 Cambridge Crystallographic Data Centre
#                                CCDC 
#
#######################################################################
#
# If this CIF has been generated from an entry in the Cambridge 
# Structural Database, then it will include bibliographic, chemical, 
# crystal, experimental, refinement or atomic coordinate data resulting 
# from the CCDC's data processing and validation procedures.
#
#######################################################################

data_XIBSOR
_chemical_formula_moiety         'C20 H24 Ba2 N12 O28'
_chemical_name_systematic        
bis(\m~2~-3,5-Dinitropyridin-2-olato-N,O,O,O')-bis((3,5-dinitropyridin-2-olato-O,O')-tetraaqua-barium(ii))
_symmetry_cell_setting           triclinic
_symmetry_space_group_name_H-M   'P -1'
_symmetry_Int_Tables_number      2
_space_group_name_Hall           '-P 1'
loop_
_symmetry_equiv_pos_site_id
_symmetry_equiv_pos_as_xyz
1 x,y,z
2 -x,-y,-z
_cell_length_a                   8.2036(8)
_cell_length_b                   10.6875(11)
_cell_length_c                   10.8308(11)
_cell_angle_alpha                93.1500(10)
_cell_angle_beta                 92.2190(10)
_cell_angle_gamma                96.0270(10)
_cell_volume                     941.978
_exptl_crystal_colour            yellow
_exptl_crystal_description       block
_cell_formula_units_Z            1
_exptl_crystal_recrystallization_method water
loop_
_atom_site_label
_atom_site_type_symbol
_atom_site_fract_x
_atom_site_fract_y
_atom_site_fract_z
Ba1 Ba 0.060080(13) 0.407560(9) 0.808681(8)
O1 O 0.35141(17) 0.46022(13) 0.35095(13)
O2 O 0.7743(2) 0.02537(15) 0.30243(15)
O3 O 0.7371(2) 0.01754(16) 0.49925(16)
O4 O 0.26610(17) 0.42997(14) 0.58579(13)
O5 O 0.3702(2) 0.28755(16) 0.68648(13)
O6 O 0.03303(18) 0.37933(12) 1.06886(12)
O7 O 0.04750(18) 0.64728(13) 0.69348(12)
O8 O -0.0628(2) 0.78776(14) 0.59328(12)
O9 O -0.3722(2) 1.08978(16) 0.79751(15)
O10 O -0.3498(3) 1.11198(19) 0.99574(17)
O11 O -0.12030(19) 0.38692(15) 0.58201(13)
O12 O -0.2861(2) 0.38006(17) 0.84058(15)
O13 O 0.0015(2) 0.16661(15) 0.69436(17)
O14 O 0.3488(2) 0.52386(18) 0.91131(16)
N1 N 0.51111(19) 0.32048(15) 0.26890(14)
N2 N 0.35450(18) 0.34338(15) 0.59099(13)
N3 N 0.7132(2) 0.06277(15) 0.39919(16)
N4 N 0.1517(2) 0.21921(16) 0.97949(14)
N5 N -0.3268(3) 1.05548(17) 0.89761(17)
N6 N -0.03658(18) 0.73655(13) 0.69019(13)
C1 C 0.4288(2) 0.36823(16) 0.36798(16)
C2 C 0.4412(2) 0.30551(16) 0.48301(15)
C3 C 0.5347(2) 0.20649(16) 0.49547(16)
H1 H 0.5450 0.1690 0.5705
C4 C 0.6127(2) 0.16497(16) 0.39219(17)
C5 C 0.5968(2) 0.22416(18) 0.28122(17)
H2 H 0.6492 0.1941 0.2128
C6 C 0.0918(2) 0.27767(16) 1.08319(15)
C7 C -0.1049(2) 0.78454(15) 0.80196(15)
C8 C -0.1836(2) 0.89225(16) 0.79411(16)
H3 H -0.1959 0.9295 0.7192
C9 C -0.2434(3) 0.94261(17) 0.90105(17)
C10 C 0.2228(3) 0.1152(2) 0.98749(18)
H4 H 0.2610 0.0784 0.9159
H5 H -0.088(3) 0.380(2) 0.5122(17)
H6 H -0.192(3) 0.436(2) 0.581(2)
H7 H -0.330(4) 0.427(3) 0.792(3)
H8 H -0.335(4) 0.3097(18) 0.835(3)
H9 H 0.064(3) 0.113(3) 0.688(3)
H10 H -0.055(4) 0.170(3) 0.632(2)
H11 H 0.349(4) 0.549(3) 0.9817(17)
H12 H 0.412(3) 0.566(2) 0.870(2)
Ba1A Ba -0.060080(13) 0.592440(9) 1.191319(8)
O1A O -0.35141(17) 0.53978(13) 1.64905(13)
O2A O -0.7743(2) 0.97463(15) 1.69757(15)
O3A O -0.7371(2) 0.98246(16) 1.50075(16)
O4A O -0.26610(17) 0.57003(14) 1.41421(13)
O5A O -0.3702(2) 0.71245(16) 1.31352(13)
O6A O -0.03303(18) 0.62067(12) 0.93114(12)
O7A O -0.04750(18) 0.35272(13) 1.30652(12)
O8A O 0.0628(2) 0.21224(14) 1.40672(12)
O9A O 0.3722(2) -0.08978(16) 1.20249(15)
O10A O 0.3498(3) -0.11198(19) 1.00426(17)
O11A O 0.12030(19) 0.61308(15) 1.41799(13)
O12A O 0.2861(2) 0.61994(17) 1.15942(15)
O13A O -0.0015(2) 0.83339(15) 1.30564(17)
O14A O -0.3488(2) 0.47614(18) 1.08869(16)
N1A N -0.51111(19) 0.67952(15) 1.73110(14)
N2A N -0.35450(18) 0.65662(15) 1.40901(13)
N3A N -0.7132(2) 0.93723(15) 1.60081(16)
N4A N -0.1517(2) 0.78079(16) 1.02051(14)
N5A N 0.3268(3) -0.05548(17) 1.10239(17)
N6A N 0.03658(18) 0.26345(13) 1.30981(13)
C1A C -0.4288(2) 0.63177(16) 1.63202(16)
C2A C -0.4412(2) 0.69449(16) 1.51699(15)
C3A C -0.5347(2) 0.79351(16) 1.50453(16)
H1A H -0.5450 0.8310 1.4295
C4A C -0.6127(2) 0.83503(16) 1.60781(17)
C5A C -0.5968(2) 0.77584(18) 1.71878(17)
H2A H -0.6492 0.8059 1.7872
C6A C -0.0918(2) 0.72233(16) 0.91681(15)
C7A C 0.1049(2) 0.21546(15) 1.19804(15)
C8A C 0.1836(2) 0.10775(16) 1.20589(16)
H3A H 0.1959 0.0705 1.2808
C9A C 0.2434(3) 0.05739(17) 1.09895(17)
C10A C -0.2228(3) 0.8848(2) 1.01251(18)
H4A H -0.2610 0.9216 1.0841
H5A H 0.088(3) 0.620(2) 1.4878(17)
H6A H 0.192(3) 0.564(2) 1.419(2)
H7A H 0.330(4) 0.573(3) 1.208(3)
H8A H 0.335(4) 0.6903(18) 1.165(3)
H9A H -0.064(3) 0.887(3) 1.312(3)
H10A H 0.055(4) 0.830(3) 1.368(2)
H11A H -0.349(4) 0.451(3) 1.0183(17)
H12A H -0.412(3) 0.434(2) 1.130(2)
loop_
_geom_bond_atom_site_label_1
_geom_bond_atom_site_label_2
_geom_bond_site_symmetry_1
_geom_bond_site_symmetry_2
Ba1 O4 1_555 1_555
O1 C1 1_555 1_555
O2 N3 1_555 1_555
O3 N3 1_555 1_555
O4 N2 1_555 1_555
O5 Ba1 1_555 1_555
O6 Ba1 1_555 1_555
O7 Ba1 1_555 1_555
O8 N6 1_555 1_555
O9 N5 1_555 1_555
O10 N5 1_555 1_555
O11 Ba1 1_555 1_555
O12 Ba1 1_555 1_555
O13 Ba1 1_555 1_555
O14 Ba1 1_555 1_555
N1 C1 1_555 1_555
N2 O5 1_555 1_555
N3 C4 1_555 1_555
N4 Ba1 1_555 1_555
N5 C9 1_555 1_555
N6 O7 1_555 1_555
C1 C2 1_555 1_555
C2 N2 1_555 1_555
C3 C2 1_555 1_555
H1 C3 1_555 1_555
C4 C3 1_555 1_555
C5 N1 1_555 1_555
H2 C5 1_555 1_555
C6 O6 1_555 1_555
C7 N6 1_555 1_555
C8 C7 1_555 1_555
H3 C8 1_555 1_555
C9 C8 1_555 1_555
C10 N4 1_555 1_555
H4 C10 1_555 1_555
H5 O11 1_555 1_555
H6 O11 1_555 1_555
H7 O12 1_555 1_555
H8 O12 1_555 1_555
H9 O13 1_555 1_555
H10 O13 1_555 1_555
H11 O14 1_555 1_555
H12 O14 1_555 1_555
Ba1A O6 1_555 1_555
O1A C1A 1_555 1_555
O2A N3A 1_555 1_555
O3A N3A 1_555 1_555
O4A Ba1A 1_555 1_555
O5A Ba1A 1_555 1_555
O6A Ba1 1_555 1_555
O7A Ba1A 1_555 1_555
O8A N6A 1_555 1_555
O9A N5A 1_555 1_555
O10A N5A 1_555 1_555
O11A Ba1A 1_555 1_555
O12A Ba1A 1_555 1_555
O13A Ba1A 1_555 1_555
O14A Ba1A 1_555 1_555
N1A C1A 1_555 1_555
N2A O4A 1_555 1_555
N3A C4A 1_555 1_555
N4A Ba1A 1_555 1_555
N5A C9A 1_555 1_555
N6A O7A 1_555 1_555
C1A C2A 1_555 1_555
C2A N2A 1_555 1_555
C3A C2A 1_555 1_555
H1A C3A 1_555 1_555
C4A C3A 1_555 1_555
C5A N1A 1_555 1_555
H2A C5A 1_555 1_555
C6A C7 1_555 1_555
C7A C6 1_555 1_555
C8A C7A 1_555 1_555
H3A C8A 1_555 1_555
C9A C10 1_555 1_555
C10A C9 1_555 1_555
H4A C10A 1_555 1_555
H5A O11A 1_555 1_555
H6A O11A 1_555 1_555
H7A O12A 1_555 1_555
H8A O12A 1_555 1_555
H9A O13A 1_555 1_555
H10A O13A 1_555 1_555
H11A O14A 1_555 1_555
H12A O14A 1_555 1_555
N4 C6 1_555 1_555
C4 C5 1_555 1_555
Ba1A O6A 1_555 1_555
O5A N2A 1_555 1_555
O6A C6A 1_555 1_555
N4A C6A 1_555 1_555
N4A C10A 1_555 1_555
N6A C7A 1_555 1_555
C4A C5A 1_555 1_555
C8A C9A 1_555 1_555

#END
