
#######################################################################
#
#                 Cambridge Crystallographic Data Centre
#                                CCDC 
#
#######################################################################
#
# If this CIF has been generated from an entry in the Cambridge 
# Structural Database, then it will include bibliographic, chemical, 
# crystal, experimental, refinement or atomic coordinate data resulting 
# from the CCDC's data processing and validation procedures.
#
#######################################################################

data_XIBTUZ
_chemical_formula_moiety         'C37 H38 Cl2 N4 O3'
_chemical_name_systematic        
2-(2-((3,5-Dichloro-2-hydroxybenzylidene)amino)ethyl)-3',6'-bis(diethylamino)spiro[isoindole-1,9'-xanthen]-3(2H)-one
_symmetry_cell_setting           monoclinic
_symmetry_space_group_name_H-M   'P 21/c'
_symmetry_Int_Tables_number      14
_space_group_name_Hall           '-P 2ybc'
loop_
_symmetry_equiv_pos_site_id
_symmetry_equiv_pos_as_xyz
1 x,y,z
2 -x,1/2+y,1/2-z
3 -x,-y,-z
4 x,1/2-y,1/2+z
_cell_length_a                   13.066(5)
_cell_length_b                   9.757(3)
_cell_length_c                   29.525(11)
_cell_angle_alpha                90
_cell_angle_beta                 116.000(17)
_cell_angle_gamma                90
_cell_volume                     3383.05
_exptl_crystal_colour            colorless
_exptl_crystal_description       block
_cell_formula_units_Z            4
loop_
_atom_site_label
_atom_site_type_symbol
_atom_site_fract_x
_atom_site_fract_y
_atom_site_fract_z
C1 C 0.1205(2) 1.1003(2) 0.73118(9)
C2 C 0.0758(2) 1.1937(2) 0.75399(10)
C3 C 0.1391(3) 1.2995(3) 0.78295(11)
H1 H 0.1075 1.3608 0.7975
C4 C 0.2509(3) 1.3149(3) 0.79050(11)
C5 C 0.2993(2) 1.2232(3) 0.76997(10)
H2 H 0.3748 1.2338 0.7759
C6 C 0.2353(2) 1.1152(2) 0.74047(9)
C7 C 0.2871(2) 1.0146(2) 0.72073(10)
H3 H 0.3638 1.0227 0.7282
C8 C 0.2824(2) 0.8106(2) 0.67527(11)
H4 H 0.3644 0.8226 0.6910
H5 H 0.2548 0.8176 0.6390
C9 C 0.2519(2) 0.6725(2) 0.68903(9)
H6 H 0.2902 0.6625 0.7254
H7 H 0.1706 0.6705 0.6790
C10 C 0.36767(19) 0.4680(2) 0.69350(9)
C11 C 0.35539(19) 0.3490(2) 0.66045(9)
C12 C 0.4206(2) 0.2297(3) 0.67019(11)
H8 H 0.4841 0.2169 0.7008
C13 C 0.3878(3) 0.1324(3) 0.63322(13)
H9 H 0.4294 0.0516 0.6390
C14 C 0.2933(3) 0.1519(3) 0.58710(12)
H10 H 0.2731 0.0843 0.5625
C15 C 0.2293(2) 0.2708(2) 0.57753(10)
H11 H 0.1663 0.2845 0.5467
C16 C 0.26170(19) 0.3686(2) 0.61513(8)
C17 C 0.20471(18) 0.5051(2) 0.61470(8)
C18 C 0.08383(18) 0.4889(2) 0.60878(8)
C19 C 0.0604(2) 0.4133(3) 0.64352(10)
H12 H 0.1196 0.3669 0.6692
C20 C -0.0471(2) 0.4055(3) 0.64080(10)
H13 H -0.0585 0.3561 0.6651
C21 C -0.1396(2) 0.4704(3) 0.60224(10)
C22 C -0.1176(2) 0.5424(2) 0.56670(10)
H14 H -0.1771 0.5852 0.5399
C23 C -0.00814(19) 0.5509(2) 0.57090(8)
C24 C 0.1082(2) 0.6586(2) 0.53849(8)
C25 C 0.1091(2) 0.7520(2) 0.50326(9)
H15 H 0.0406 0.7872 0.4793
C26 C 0.2104(2) 0.7936(2) 0.50315(10)
C27 C 0.3116(2) 0.7348(3) 0.54039(11)
H16 H 0.3817 0.7587 0.5416
C28 C 0.3069(2) 0.6435(3) 0.57436(10)
H17 H 0.3749 0.6069 0.5983
C29 C 0.20600(19) 0.6024(2) 0.57504(8)
C30 C -0.2608(3) 0.4274(5) 0.64446(15)
H18 H -0.2091 0.3521 0.6606
H19 H -0.2334 0.5054 0.6670
C31 C -0.3671(5) 0.3909(6) 0.6421(2)
H20 H -0.4119 0.4719 0.6381
H21 H -0.3560 0.3450 0.6727
H22 H -0.4060 0.3308 0.6140
C32 C -0.3452(3) 0.5284(4) 0.55686(16)
H23 H -0.3366 0.5164 0.5261
H24 H -0.4159 0.4851 0.5523
C33 C -0.3501(5) 0.6716(5) 0.5662(3)
H25 H -0.3595 0.6835 0.5965
H26 H -0.4133 0.7124 0.5384
H27 H -0.2807 0.7149 0.5702
C34 C 0.3207(3) 0.9465(4) 0.47373(16)
H28 H 0.3077 1.0408 0.4621
H29 H 0.3747 0.9472 0.5091
C35 C 0.3685(6) 0.8735(6) 0.4461(2)
H30 H 0.3953 0.7860 0.4617
H31 H 0.4310 0.9248 0.4459
H32 H 0.3116 0.8604 0.4122
C36 C 0.1083(3) 0.9308(3) 0.42603(12)
H33 H 0.0545 0.8553 0.4159
H34 H 0.1248 0.9527 0.3979
C37 C 0.0548(4) 1.0522(3) 0.43760(17)
H35 H 0.0284 1.0274 0.4621
H36 H -0.0084 1.0828 0.4074
H37 H 0.1099 1.1245 0.4508
Cl1 Cl -0.06329(6) 1.17012(7) 0.74498(3)
Cl2 Cl 0.33071(9) 1.45010(9) 0.82732(4)
N1 N 0.28125(16) 0.55561(18) 0.66635(7)
N2 N -0.2485(2) 0.4617(3) 0.59931(10)
N3 N 0.2131(2) 0.8873(3) 0.46859(10)
N4 N 0.22893(18) 0.9150(2) 0.69325(8)
O1 O 0.05484(15) 0.99951(18) 0.70281(7)
H38 H 0.0917 0.9515 0.6925
O2 O 0.43920(15) 0.4868(2) 0.73691(7)
O3 O 0.00089(13) 0.62935(17) 0.53388(6)
loop_
_geom_bond_atom_site_label_1
_geom_bond_atom_site_label_2
_geom_bond_site_symmetry_1
_geom_bond_site_symmetry_2
C1 C2 1_555 1_555
C2 C3 1_555 1_555
C3 H1 1_555 1_555
C4 C3 1_555 1_555
C5 C4 1_555 1_555
H2 C5 1_555 1_555
C6 C1 1_555 1_555
C7 C6 1_555 1_555
H3 C7 1_555 1_555
C8 H4 1_555 1_555
H5 C8 1_555 1_555
C9 C8 1_555 1_555
H6 C9 1_555 1_555
H7 C9 1_555 1_555
C10 C11 1_555 1_555
C11 C12 1_555 1_555
C12 H8 1_555 1_555
C13 C12 1_555 1_555
H9 C13 1_555 1_555
C14 C13 1_555 1_555
H10 C14 1_555 1_555
C15 C14 1_555 1_555
H11 C15 1_555 1_555
C16 C11 1_555 1_555
C17 C16 1_555 1_555
C18 C17 1_555 1_555
C19 C18 1_555 1_555
H12 C19 1_555 1_555
C20 C19 1_555 1_555
H13 C20 1_555 1_555
C21 C20 1_555 1_555
C22 C21 1_555 1_555
H14 C22 1_555 1_555
C23 C18 1_555 1_555
C24 C25 1_555 1_555
C25 H15 1_555 1_555
C26 C25 1_555 1_555
C27 C26 1_555 1_555
H16 C27 1_555 1_555
C28 C27 1_555 1_555
H17 C28 1_555 1_555
C29 C17 1_555 1_555
C30 H18 1_555 1_555
H19 C30 1_555 1_555
C31 C30 1_555 1_555
H20 C31 1_555 1_555
H21 C31 1_555 1_555
H22 C31 1_555 1_555
C32 H23 1_555 1_555
H24 C32 1_555 1_555
C33 C32 1_555 1_555
H25 C33 1_555 1_555
H26 C33 1_555 1_555
H27 C33 1_555 1_555
C34 H28 1_555 1_555
H29 C34 1_555 1_555
C35 C34 1_555 1_555
H30 C35 1_555 1_555
H31 C35 1_555 1_555
H32 C35 1_555 1_555
C36 H33 1_555 1_555
H34 C36 1_555 1_555
C37 C36 1_555 1_555
H35 C37 1_555 1_555
H36 C37 1_555 1_555
H37 C37 1_555 1_555
Cl1 C2 1_555 1_555
Cl2 C4 1_555 1_555
N1 C9 1_555 1_555
N2 C21 1_555 1_555
N3 C26 1_555 1_555
N4 C7 1_555 1_555
O1 C1 1_555 1_555
H38 O1 1_555 1_555
O2 C10 1_555 1_555
O3 C23 1_555 1_555
C5 C6 1_555 1_555
C8 N4 1_555 1_555
C10 N1 1_555 1_555
C15 C16 1_555 1_555
C17 N1 1_555 1_555
C22 C23 1_555 1_555
C24 C29 1_555 1_555
C24 O3 1_555 1_555
C28 C29 1_555 1_555
C30 N2 1_555 1_555
C32 N2 1_555 1_555
C34 N3 1_555 1_555
C36 N3 1_555 1_555

#END
