
#######################################################################
#
#                 Cambridge Crystallographic Data Centre
#                                CCDC 
#
#######################################################################
#
# If this CIF has been generated from an entry in the Cambridge 
# Structural Database, then it will include bibliographic, chemical, 
# crystal, experimental, refinement or atomic coordinate data resulting 
# from the CCDC's data processing and validation procedures.
#
#######################################################################

data_XIBXIQ
_chemical_formula_moiety         'C24 H26 N4 4+,4(Cl1 1-),2(H2 O1)'
_chemical_name_systematic        
"N,N'-bis(3-Pyridiniomethyl)-4,4'-benzidinediium tetrachloride dihydrate"
_symmetry_cell_setting           triclinic
_symmetry_space_group_name_H-M   'P -1'
_symmetry_Int_Tables_number      2
_space_group_name_Hall           '-P 1'
loop_
_symmetry_equiv_pos_site_id
_symmetry_equiv_pos_as_xyz
1 x,y,z
2 -x,-y,-z
_cell_length_a                   8.9764(17)
_cell_length_b                   9.1437(18)
_cell_length_c                   9.5321(18)
_cell_angle_alpha                63.838(3)
_cell_angle_beta                 78.558(3)
_cell_angle_gamma                70.586(3)
_cell_volume                     661.049
_exptl_crystal_colour            colorless
_exptl_crystal_description       prism
_cell_formula_units_Z            1
_exptl_crystal_recrystallization_method ethanol
loop_
_atom_site_label
_atom_site_type_symbol
_atom_site_fract_x
_atom_site_fract_y
_atom_site_fract_z
C1 C 0.29594(19) 0.4568(2) 0.88845(19)
H1 H 0.3716 0.5106 0.8781
N1 N 0.23685(16) 0.37193(17) 1.03007(16)
H2 H 0.2699 0.3684 1.1105
C2 C 0.1280(2) 0.2918(2) 1.0523(2)
H3 H 0.0904 0.2327 1.1532
C3 C 0.0728(2) 0.2973(2) 0.9271(2)
H4 H -0.0038 0.2433 0.9411
C4 C 0.1320(2) 0.3844(2) 0.7777(2)
H5 H 0.0954 0.3884 0.6910
C5 C 0.24525(19) 0.4652(2) 0.75755(18)
C6 C 0.31881(19) 0.5535(2) 0.59914(18)
H6 H 0.4262 0.5472 0.6102
H7 H 0.3240 0.4954 0.5335
C7 C 0.30339(19) 0.8204(2) 0.36685(18)
C8 C 0.4142(2) 0.8985(2) 0.35521(19)
H8 H 0.4376 0.9042 0.4431
C9 C 0.4913(2) 0.9692(2) 0.21075(19)
H9 H 0.5665 1.0225 0.2028
C10 C 0.45858(17) 0.96202(18) 0.07760(17)
C11 C 0.3445(2) 0.8823(2) 0.09431(19)
H10 H 0.3198 0.8760 0.0072
C12 C 0.2672(2) 0.8122(2) 0.2375(2)
H11 H 0.1911 0.7597 0.2465
N2 N 0.22775(16) 0.73607(17) 0.52057(15)
H12 H 0.1286 0.7424 0.5084
H13 H 0.2217 0.7901 0.5817
C1A C 0.70406(19) 1.5432(2) -0.88845(19)
H1A H 0.6284 1.4894 -0.8781
N1A N 0.76315(16) 1.62807(17) -1.03007(16)
H2A H 0.7301 1.6316 -1.1105
C2A C 0.8720(2) 1.7082(2) -1.0523(2)
H3A H 0.9096 1.7673 -1.1532
C3A C 0.9272(2) 1.7027(2) -0.9271(2)
H4A H 1.0038 1.7567 -0.9411
C4A C 0.8680(2) 1.6156(2) -0.7777(2)
H5A H 0.9046 1.6116 -0.6910
C5A C 0.75475(19) 1.5348(2) -0.75755(18)
C6A C 0.68119(19) 1.4465(2) -0.59914(18)
H6A H 0.5738 1.4528 -0.6102
H7A H 0.6760 1.5046 -0.5335
C7A C 0.69661(19) 1.1796(2) -0.36685(18)
C8A C 0.5858(2) 1.1015(2) -0.35521(19)
H8A H 0.5624 1.0958 -0.4431
C9A C 0.5087(2) 1.0308(2) -0.21075(19)
H9A H 0.4335 0.9775 -0.2028
C10A C 0.54142(17) 1.03798(18) -0.07760(17)
C11A C 0.6555(2) 1.1177(2) -0.09431(19)
H10A H 0.6802 1.1240 -0.0072
C12A C 0.7328(2) 1.1878(2) -0.2375(2)
H11A H 0.8089 1.2403 -0.2465
N2A N 0.77225(16) 1.26393(17) -0.52057(15)
H12A H 0.8714 1.2576 -0.5084
H13A H 0.7783 1.2099 -0.5817
O1 O 0.06598(18) 0.2552(2) 0.5187(2)
H14 H 0.108(3) 0.156(3) 0.578(3)
H15 H 0.132(4) 0.282(4) 0.447(4)
Cl1 Cl 0.17635(5) 0.89076(6) 0.75802(5)
Cl2 Cl 0.34066(6) 0.38621(7) 0.29976(5)
loop_
_geom_bond_atom_site_label_1
_geom_bond_atom_site_label_2
_geom_bond_site_symmetry_1
_geom_bond_site_symmetry_2
C1 H1 1_555 1_555
N1 C1 1_555 1_555
H2 N1 1_555 1_555
C2 N1 1_555 1_555
H3 C2 1_555 1_555
C3 C2 1_555 1_555
H4 C3 1_555 1_555
C4 C3 1_555 1_555
H5 C4 1_555 1_555
C5 C1 1_555 1_555
C6 C5 1_555 1_555
H6 C6 1_555 1_555
H7 C6 1_555 1_555
C7 C8 1_555 1_555
C8 H8 1_555 1_555
C9 C8 1_555 1_555
H9 C9 1_555 1_555
C10 C9 1_555 1_555
C11 C10 1_555 1_555
H10 C11 1_555 1_555
C12 C7 1_555 1_555
H11 C12 1_555 1_555
N2 C6 1_555 1_555
H12 N2 1_555 1_555
H13 N2 1_555 1_555
O1 H14 1_555 1_555
H15 O1 1_555 1_555
C1A H1A 1_555 1_555
N1A C1A 1_555 1_555
H2A N1A 1_555 1_555
C2A N1A 1_555 1_555
H3A C2A 1_555 1_555
C3A C2A 1_555 1_555
H4A C3A 1_555 1_555
C4A C3A 1_555 1_555
H5A C4A 1_555 1_555
C5A C1A 1_555 1_555
C6A C5A 1_555 1_555
H6A C6A 1_555 1_555
H7A C6A 1_555 1_555
C7A C8A 1_555 1_555
C8A H8A 1_555 1_555
C9A C8A 1_555 1_555
H9A C9A 1_555 1_555
C10A C10 1_555 1_555
C11A C10A 1_555 1_555
H10A C11A 1_555 1_555
C12A C7A 1_555 1_555
H11A C12A 1_555 1_555
N2A C6A 1_555 1_555
H12A N2A 1_555 1_555
H13A N2A 1_555 1_555
C4 C5 1_555 1_555
C7 N2 1_555 1_555
C11 C12 1_555 1_555
C4A C5A 1_555 1_555
C7A N2A 1_555 1_555
C9A C10A 1_555 1_555
C11A C12A 1_555 1_555

#END
