
#######################################################################
#
#                 Cambridge Crystallographic Data Centre
#                                CCDC 
#
#######################################################################
#
# If this CIF has been generated from an entry in the Cambridge 
# Structural Database, then it will include bibliographic, chemical, 
# crystal, experimental, refinement or atomic coordinate data resulting 
# from the CCDC's data processing and validation procedures.
#
#######################################################################

data_XIBYOW
_chemical_formula_moiety         'C20 H22 B10 N2 O4'
_chemical_name_systematic        
1,2-bis(phthalimidomethyl)-1,2-dicarba-closo-dodecaborane(10)
_symmetry_cell_setting           monoclinic
_symmetry_space_group_name_H-M   'P 21/c'
_symmetry_Int_Tables_number      14
_space_group_name_Hall           '-P 2ybc'
loop_
_symmetry_equiv_pos_site_id
_symmetry_equiv_pos_as_xyz
1 x,y,z
2 x,1/2-y,1/2+z
3 -x,-y,-z
4 -x,1/2+y,1/2-z
_cell_length_a                   21.664(2)
_cell_length_b                   14.622(2)
_cell_length_c                   7.639(1)
_cell_angle_alpha                90
_cell_angle_beta                 97.283(7)
_cell_angle_gamma                90
_cell_volume                     2400.29
_exptl_crystal_colour            colorless
_exptl_crystal_description       rod
_chemical_melting_point          228-230deg.C
_cell_formula_units_Z            4
_exptl_crystal_recrystallization_method toluene
loop_
_atom_site_label
_atom_site_type_symbol
_atom_site_fract_x
_atom_site_fract_y
_atom_site_fract_z
C1 C 0.78001(8) 0.01038(12) 0.3286(2)
C2 C 0.72335(8) 0.04915(12) 0.4446(2)
B1 B 0.79962(11) 0.0514(2) 0.5396(3)
B2 B 0.83457(11) -0.0487(2) 0.4634(3)
B3 B 0.77816(13) -0.1063(2) 0.3148(4)
B4 B 0.70829(11) -0.0407(2) 0.2980(4)
B5 B 0.73560(15) -0.1043(2) 0.6560(5)
B6 B 0.73854(13) 0.0160(2) 0.6600(3)
B7 B 0.80864(14) -0.0478(2) 0.6747(4)
B8 B 0.79461(15) -0.1451(2) 0.5341(5)
B9 B 0.71620(15) -0.1401(2) 0.4320(5)
B10 B 0.68200(13) -0.0405(2) 0.5100(4)
O1 O 0.57569(7) 0.14168(12) 0.5429(2)
O2 O 0.65819(6) 0.15093(11) 0.0223(2)
O3 O 0.81679(7) 0.25440(9) 0.2846(2)
O4 O 0.91752(7) 0.00327(11) 0.1042(2)
C3 C 0.69378(9) 0.14270(13) 0.4022(3)
H1 H 0.69175(9) 0.17533(13) 0.5119(3)
H2 H 0.72044(9) 0.17744(13) 0.3339(3)
N1 N 0.63184(7) 0.13886(11) 0.3051(2)
C4 C 0.61909(9) 0.14306(13) 0.1213(3)
C5 C 0.51332(10) 0.1347(2) -0.0800(3)
H3 H 0.53045(10) 0.1354(2) -0.1856(3)
C6 C 0.44915(11) 0.1312(2) -0.0775(4)
H4 H 0.42280(11) 0.1298(2) -0.1835(4)
C7 C 0.42394(11) 0.1298(2) 0.0809(4)
H5 H 0.38097(11) 0.1271(2) 0.0791(4)
C8 C 0.46161(10) 0.1323(2) 0.2414(3)
H6 H 0.44474(10) 0.1320(2) 0.3475(3)
C9 C 0.57689(10) 0.13878(14) 0.3852(3)
C10 C 0.55023(9) 0.13705(13) 0.0800(3)
C11 C 0.52512(9) 0.13543(14) 0.2382(3)
C12 C 0.79639(9) 0.06528(14) 0.1706(3)
H7 H 0.79822(9) 0.02368(14) 0.0724(3)
H8 H 0.76309(9) 0.10851(14) 0.1361(3)
N2 N 0.85443(7) 0.11499(11) 0.2004(2)
C13 C 0.91062(9) 0.08042(15) 0.1553(3)
C14 C 1.01697(10) 0.1599(2) 0.1489(3)
H9 H 1.03786(10) 0.1073(2) 0.1213(3)
C15 C 1.04636(11) 0.2440(2) 0.1637(3)
H10 H 1.08798(11) 0.2482(2) 0.1464(3)
C16 C 1.01484(13) 0.3224(2) 0.2040(3)
H11 H 1.03554(13) 0.3782(2) 0.2110(3)
C17 C 0.95272(11) 0.3190(2) 0.2344(3)
H12 H 0.93153(11) 0.3713(2) 0.2617(3)
C18 C 0.85893(9) 0.20862(13) 0.2415(3)
C19 C 0.95538(9) 0.15740(15) 0.1769(3)
C20 C 0.92417(9) 0.23465(15) 0.2220(3)
H13 H 0.8217(9) 0.1166(15) 0.5517(26)
H14 H 0.8815(10) -0.0429(14) 0.4353(28)
H15 H 0.7916(11) -0.1341(16) 0.1902(32)
H16 H 0.6813(9) -0.0279(14) 0.1757(28)
H17 H 0.7194(13) -0.1419(18) 0.7663(39)
H18 H 0.7236(11) 0.0628(17) 0.7615(33)
H19 H 0.8419(12) -0.0478(18) 0.7963(36)
H20 H 0.8216(11) -0.2095(18) 0.5647(34)
H21 H 0.6869(12) -0.1978(18) 0.3904(33)
H22 H 0.6339(10) -0.0297(14) 0.5178(28)
loop_
_geom_bond_atom_site_label_1
_geom_bond_atom_site_label_2
_geom_bond_site_symmetry_1
_geom_bond_site_symmetry_2
C1 C2 1_555 1_555
C2 B1 1_555 1_555
B1 C1 1_555 1_555
B2 C1 1_555 1_555
B3 C1 1_555 1_555
B4 C1 1_555 1_555
B5 B6 1_555 1_555
B6 C2 1_555 1_555
B7 B1 1_555 1_555
B8 B2 1_555 1_555
B9 B3 1_555 1_555
B10 C2 1_555 1_555
O1 C9 1_555 1_555
O2 C4 1_555 1_555
O3 C18 1_555 1_555
O4 C13 1_555 1_555
C3 C2 1_555 1_555
H1 C3 1_555 1_555
H2 C3 1_555 1_555
N1 C3 1_555 1_555
C4 N1 1_555 1_555
C5 H3 1_555 1_555
C6 C5 1_555 1_555
H4 C6 1_555 1_555
C7 C6 1_555 1_555
H5 C7 1_555 1_555
C8 C7 1_555 1_555
H6 C8 1_555 1_555
C9 N1 1_555 1_555
C10 C4 1_555 1_555
C11 C8 1_555 1_555
C12 C1 1_555 1_555
H7 C12 1_555 1_555
H8 C12 1_555 1_555
N2 C12 1_555 1_555
C13 N2 1_555 1_555
C14 H9 1_555 1_555
C15 C14 1_555 1_555
H10 C15 1_555 1_555
C16 C15 1_555 1_555
H11 C16 1_555 1_555
C17 C16 1_555 1_555
H12 C17 1_555 1_555
C18 N2 1_555 1_555
C19 C13 1_555 1_555
C20 C17 1_555 1_555
H13 B1 1_555 1_555
H14 B2 1_555 1_555
H15 B3 1_555 1_555
H16 B4 1_555 1_555
H17 B5 1_555 1_555
H18 B6 1_555 1_555
H19 B7 1_555 1_555
H20 B8 1_555 1_555
H21 B9 1_555 1_555
H22 B10 1_555 1_555
C2 B4 1_555 1_555
B1 B6 1_555 1_555
B1 B2 1_555 1_555
B2 B7 1_555 1_555
B2 B3 1_555 1_555
B3 B8 1_555 1_555
B3 B4 1_555 1_555
B4 B9 1_555 1_555
B4 B10 1_555 1_555
B5 B7 1_555 1_555
B5 B9 1_555 1_555
B5 B8 1_555 1_555
B5 B10 1_555 1_555
B6 B7 1_555 1_555
B6 B10 1_555 1_555
B7 B8 1_555 1_555
B8 B9 1_555 1_555
B9 B10 1_555 1_555
C5 C10 1_555 1_555
C9 C11 1_555 1_555
C10 C11 1_555 1_555
C14 C19 1_555 1_555
C18 C20 1_555 1_555
C19 C20 1_555 1_555

#END
