
#######################################################################
#
#                 Cambridge Crystallographic Data Centre
#                                CCDC 
#
#######################################################################
#
# If this CIF has been generated from an entry in the Cambridge 
# Structural Database, then it will include bibliographic, chemical, 
# crystal, experimental, refinement or atomic coordinate data resulting 
# from the CCDC's data processing and validation procedures.
#
#######################################################################

data_XIBYAK
_chemical_formula_moiety         'C31 H31 N1 O2 S1'
_chemical_name_systematic        
'6-Methyl-7,10-diphenyl-8,9-dipropyl-6H-benzo[f]cyclopenta[d][1,2]thiazepine 5,5-dioxide'
_symmetry_cell_setting           monoclinic
_symmetry_space_group_name_H-M   'P 21/n'
_symmetry_Int_Tables_number      14
_space_group_name_Hall           '-P 2yn'
loop_
_symmetry_equiv_pos_site_id
_symmetry_equiv_pos_as_xyz
1 x,y,z
2 1/2-x,1/2+y,1/2-z
3 -x,-y,-z
4 1/2+x,1/2-y,1/2+z
_cell_length_a                   10.517(4)
_cell_length_b                   13.401(5)
_cell_length_c                   18.699(7)
_cell_angle_alpha                90
_cell_angle_beta                 90.737(5)
_cell_angle_gamma                90
_cell_volume                     2635.19
_exptl_crystal_colour            brown
_exptl_crystal_description       block
_cell_formula_units_Z            4
loop_
_atom_site_label
_atom_site_type_symbol
_atom_site_fract_x
_atom_site_fract_y
_atom_site_fract_z
S1 S 0.57341(5) 0.75162(4) 0.20304(3)
O1 O 0.60247(16) 0.76081(13) 0.27755(9)
O2 O 0.60434(14) 0.83135(11) 0.15634(10)
N1 N 0.41839(16) 0.73108(14) 0.19681(10)
C1 C 0.3621(2) 0.6774(2) 0.25761(14)
H1 H 0.2735 0.6655 0.2479
H2 H 0.3710 0.7170 0.3002
H3 H 0.4051 0.6148 0.2643
C2 C 0.3534(2) 0.73449(15) 0.13018(12)
C3 C 0.2161(2) 0.75607(16) 0.13805(12)
C4 C 0.1748(2) 0.83779(19) 0.17705(15)
H4 H 0.2338 0.8808 0.1980
C5 C 0.0459(3) 0.8555(2) 0.18484(17)
H5 H 0.0187 0.9113 0.2100
C6 C -0.0412(3) 0.7915(3) 0.15576(17)
H6 H -0.1276 0.8039 0.1610
C7 C -0.0024(2) 0.7095(2) 0.11901(15)
H7 H -0.0624 0.6652 0.1004
C8 C 0.1257(2) 0.69166(19) 0.10923(13)
H8 H 0.1514 0.6362 0.0832
C9 C 0.41118(19) 0.72228(15) 0.06601(12)
C10 C 0.3646(2) 0.76080(15) -0.00369(12)
C11 C 0.2547(2) 0.83127(19) -0.01657(15)
H9 H 0.1824 0.8090 0.0110
H10 H 0.2304 0.8290 -0.0668
C12 C 0.2860(3) 0.9384(2) 0.0038(2)
H11 H 0.2836 0.9461 0.0554
H12 H 0.3709 0.9553 -0.0119
C13 C 0.18904(16) 1.00756(12) -0.03143(9)
H13 H 0.2081 1.0754 -0.0188
H14 H 0.1054 0.9908 -0.0153
H15 H 0.1924 1.0000 -0.0824
C14 C 0.45348(16) 0.74002(12) -0.05341(9)
C15 C 0.45863(16) 0.77756(12) -0.12827(9)
H16 H 0.3738 0.7959 -0.1445
H17 H 0.4896 0.7252 -0.1593
C16 C 0.5489(3) 0.8708(3) -0.13264(18)
H18 H 0.5302 0.9150 -0.0931
H19 H 0.6360 0.8483 -0.1266
C17 C 0.5393(4) 0.9271(3) -0.1983(2)
H20 H 0.5505 0.8831 -0.2383
H21 H 0.6040 0.9776 -0.1987
H22 H 0.4571 0.9579 -0.2017
C18 C 0.5577(2) 0.68367(15) -0.01943(12)
C19 C 0.6732(2) 0.65024(16) -0.05748(12)
C20 C 0.6670(2) 0.58441(17) -0.11503(12)
H23 H 0.5885 0.5604 -0.1307
C21 C 0.7756(3) 0.55465(19) -0.14890(14)
H24 H 0.7700 0.5097 -0.1867
C22 C 0.8917(3) 0.5901(2) -0.12785(15)
H25 H 0.9647 0.5701 -0.1514
C23 C 0.8999(2) 0.6553(2) -0.07192(16)
H26 H 0.9789 0.6796 -0.0572
C24 C 0.7915(2) 0.68533(18) -0.03698(13)
H27 H 0.7984 0.7299 0.0010
C25 C 0.53489(19) 0.67355(15) 0.05131(12)
C26 C 0.61025(18) 0.61112(15) 0.10154(11)
C27 C 0.6585(2) 0.51873(15) 0.07971(12)
H28 H 0.6439 0.4971 0.0331
C28 C 0.7273(2) 0.45942(17) 0.12632(14)
H29 H 0.7591 0.3987 0.1104
C29 C 0.7500(2) 0.48818(19) 0.19568(14)
H30 H 0.7967 0.4474 0.2265
C30 C 0.7028(2) 0.57840(18) 0.21952(13)
H31 H 0.7155 0.5982 0.2667
C31 C 0.63624(19) 0.63868(16) 0.17204(12)
H32? H 0.3463 0.9638 -0.0305
H33? H 0.3289 0.9374 0.0501
C32? C 0.1756(9) 1.0132(7) 0.0081(10)
H34? H 0.2080 1.0774 0.0219
H35? H 0.1157 0.9907 0.0429
H36? H 0.1342 1.0181 -0.0378
loop_
_geom_bond_atom_site_label_1
_geom_bond_atom_site_label_2
_geom_bond_site_symmetry_1
_geom_bond_site_symmetry_2
S1 O1 1_555 1_555
O2 S1 1_555 1_555
N1 S1 1_555 1_555
C1 N1 1_555 1_555
H1 C1 1_555 1_555
H2 C1 1_555 1_555
H3 C1 1_555 1_555
C2 N1 1_555 1_555
C3 C2 1_555 1_555
C4 C3 1_555 1_555
H4 C4 1_555 1_555
C5 C4 1_555 1_555
H5 C5 1_555 1_555
C6 C5 1_555 1_555
H6 C6 1_555 1_555
C7 C6 1_555 1_555
H7 C7 1_555 1_555
C8 C3 1_555 1_555
H8 C8 1_555 1_555
C9 C2 1_555 1_555
C10 C9 1_555 1_555
C11 C10 1_555 1_555
H9 C11 1_555 1_555
H10 C11 1_555 1_555
C12 C11 1_555 1_555
H11 C12 1_555 1_555
H12 C12 1_555 1_555
C13 C12 1_555 1_555
H13 C13 1_555 1_555
H14 C13 1_555 1_555
H15 C13 1_555 1_555
C14 C10 1_555 1_555
C15 C14 1_555 1_555
H16 C15 1_555 1_555
H17 C15 1_555 1_555
C16 C15 1_555 1_555
H18 C16 1_555 1_555
H19 C16 1_555 1_555
C17 C16 1_555 1_555
H20 C17 1_555 1_555
H21 C17 1_555 1_555
H22 C17 1_555 1_555
C18 C14 1_555 1_555
C19 C18 1_555 1_555
C20 C19 1_555 1_555
H23 C20 1_555 1_555
C21 C20 1_555 1_555
H24 C21 1_555 1_555
C22 C21 1_555 1_555
H25 C22 1_555 1_555
C23 C22 1_555 1_555
H26 C23 1_555 1_555
C24 C19 1_555 1_555
H27 C24 1_555 1_555
C25 C9 1_555 1_555
C26 C25 1_555 1_555
C27 C26 1_555 1_555
H28 C27 1_555 1_555
C28 C27 1_555 1_555
H29 C28 1_555 1_555
C29 C28 1_555 1_555
H30 C29 1_555 1_555
C30 C29 1_555 1_555
H31 C30 1_555 1_555
C31 S1 1_555 1_555
C7 C8 1_555 1_555
C18 C25 1_555 1_555
C23 C24 1_555 1_555
C26 C31 1_555 1_555
C30 C31 1_555 1_555

#END
