
#######################################################################
#
#                 Cambridge Crystallographic Data Centre
#                                CCDC 
#
#######################################################################
#
# If this CIF has been generated from an entry in the Cambridge 
# Structural Database, then it will include bibliographic, chemical, 
# crystal, experimental, refinement or atomic coordinate data resulting 
# from the CCDC's data processing and validation procedures.
#
#######################################################################

data_XICBEQ
_chemical_name_common            
"C-methylcalix[4]resorcinarene 4,4'-bipyridyl solvate benzophenone clathrate monohydrate"
_chemical_formula_moiety         'C32 H32 O8,C10 H8 N2,C13 H10 O1,H2 O1'
_chemical_name_systematic        
"2,8,14,20-tetramethyl-4,6,10,12,16,18,22,24-octahydroxycalix(4)arene 4,4'-bipyridyl benzophenone clathrate monohydrate"
_symmetry_cell_setting           triclinic
_symmetry_space_group_name_H-M   'P -1'
_symmetry_Int_Tables_number      2
_space_group_name_Hall           '-P 1'
loop_
_symmetry_equiv_pos_site_id
_symmetry_equiv_pos_as_xyz
1 x,y,z
2 -x,-y,-z
_cell_length_a                   10.0723(2)
_cell_length_b                   13.7350(3)
_cell_length_c                   17.3384(4)
_cell_angle_alpha                75.975(1)
_cell_angle_beta                 79.797(1)
_cell_angle_gamma                68.858(1)
_cell_volume                     2159.81
_exptl_crystal_colour            yellow
_exptl_crystal_description       block
_cell_formula_units_Z            2
loop_
_atom_site_label
_atom_site_type_symbol
_atom_site_fract_x
_atom_site_fract_y
_atom_site_fract_z
O1 O 0.10117(15) 0.33852(11) -0.09010(8)
O2 O 0.19320(15) 0.62564(10) -0.03012(9)
H1 H 0.210(3) 0.643(2) 0.0037(19)
O3 O 0.01201(15) 0.51805(11) 0.22054(8)
H2 H -0.058(3) 0.526(2) 0.2507(16)
O4 O 0.23497(15) 0.29474(11) 0.45382(8)
H3 H 0.134(4) 0.314(3) 0.4761(19)
O5 O 0.68757(18) 0.11053(12) 0.48840(10)
H4 H 0.720(5) 0.068(4) 0.523(3)
O6 O 0.60897(17) -0.17819(11) 0.41636(9)
H5 H 0.651(3) -0.212(2) 0.4635(18)
O7 O 0.1751(2) 0.04544(17) 0.39071(10)
O8 O -0.06890(16) 0.27096(12) 0.17349(10)
H6 H -0.072(4) 0.280(3) 0.127(2)
C1 C 0.14867(19) 0.37868(14) -0.03919(11)
C2 C 0.15543(19) 0.48090(14) -0.05992(10)
H7 H 0.123(2) 0.5240(18) -0.1120(13)
C3 C 0.19651(19) 0.52143(14) -0.00538(10)
C4 C 0.23362(19) 0.46115(14) 0.06959(10)
C5 C 0.22777(19) 0.35781(14) 0.08723(10)
H8 H 0.253(2) 0.3137(18) 0.1416(14)
C6 C 0.18662(19) 0.31398(14) 0.03465(10)
C7 C 0.27738(19) 0.50790(14) 0.12852(10)
H9 H 0.205(2) 0.5828(17) 0.1281(12)
C8 C 0.4272(2) 0.51752(16) 0.10146(11)
H10 H 0.458(2) 0.5479(18) 0.1380(13)
H11 H 0.500(3) 0.4504(19) 0.0975(14)
H12 H 0.428(3) 0.559(2) 0.0444(15)
C9 C 0.26594(19) 0.44869(14) 0.21444(10)
C10 C 0.13230(19) 0.45640(14) 0.25746(10)
C11 C 0.1217(2) 0.40372(15) 0.33665(11)
H13 H 0.024(3) 0.407(2) 0.3670(15)
C12 C 0.2445(2) 0.34387(14) 0.37505(10)
C13 C 0.38002(19) 0.33346(14) 0.33422(10)
C14 C 0.3862(2) 0.38629(14) 0.25481(10)
H14 H 0.477(2) 0.3819(18) 0.2242(13)
C15 C 0.51401(19) 0.26558(14) 0.37522(10)
H15 H 0.501(2) 0.2782(17) 0.4291(13)
C16 C 0.6475(2) 0.29427(15) 0.33541(11)
H16 H 0.730(2) 0.2552(18) 0.3650(14)
H17 H 0.635(2) 0.3700(17) 0.3323(12)
H18 H 0.685(2) 0.2737(18) 0.2842(14)
C17 C 0.54148(19) 0.14700(14) 0.38344(11)
C18 C 0.6307(2) 0.07324(15) 0.43930(11)
C19 C 0.6584(2) -0.03520(15) 0.44899(11)
H19 H 0.717(2) -0.0846(19) 0.4902(14)
C20 C 0.5924(2) -0.07182(14) 0.40392(11)
C21 C 0.5028(2) -0.00156(14) 0.34656(10)
C22 C 0.48093(19) 0.10657(14) 0.33783(10)
H20 H 0.417(2) 0.1563(17) 0.3000(13)
C23 C 0.4339(2) -0.04377(14) 0.29617(11)
H21 H 0.397(3) -0.098(2) 0.3318(14)
C24 C 0.5466(2) -0.09851(16) 0.23432(12)
H22 H 0.624(3) -0.161(2) 0.2618(15)
H23 H 0.596(3) -0.051(2) 0.1965(15)
H24 H 0.512(2) -0.1302(19) 0.2034(14)
C25 C 0.3034(2) 0.04140(14) 0.26014(11)
C26 C 0.1793(2) 0.08141(15) 0.30934(11)
C27 C 0.0573(2) 0.15699(16) 0.27850(12)
H25 H -0.031(3) 0.189(2) 0.3122(16)
C28 C 0.0559(2) 0.19490(15) 0.19709(11)
C29 C 0.1774(2) 0.15740(14) 0.14470(11)
C30 C 0.2981(2) 0.08154(14) 0.17843(11)
H26 H 0.381(3) 0.0542(19) 0.1442(14)
C31 C 0.1768(2) 0.20191(14) 0.05537(11)
H27 H 0.083(2) 0.2068(17) 0.0372(13)
C32 C 0.2916(2) 0.12846(15) 0.00466(12)
H28 H 0.272(3) 0.1567(19) -0.0518(15)
H29 H 0.286(3) 0.055(2) 0.0145(15)
H30 H 0.382(3) 0.122(2) 0.0121(15)
H49 H 0.059(3) 0.392(2) -0.1333(17)
H50 H 0.201(10) 0.013(8) 0.393(6)
O9 O -0.58705(16) 0.77565(13) 0.12221(9)
C43 C -0.9518(2) 0.79071(16) 0.15139(12)
H39 H -0.955(2) 0.7631(19) 0.1010(14)
C44 C -1.0664(2) 0.80260(17) 0.21000(13)
H40 H -1.153(3) 0.775(2) 0.2040(16)
C45 C -1.0680(3) 0.84555(18) 0.27511(14)
H41 H -1.152(3) 0.857(2) 0.3171(16)
C46 C -0.9527(3) 0.87443(18) 0.28231(13)
H42 H -0.955(3) 0.905(2) 0.3279(16)
C47 C -0.8356(2) 0.85910(17) 0.22540(13)
H43 H -0.763(3) 0.881(2) 0.2325(15)
C48 C -0.8350(2) 0.81865(15) 0.15867(12)
C49 C -0.7055(2) 0.80330(16) 0.09929(13)
C50 C -0.7206(2) 0.82409(15) 0.01183(12)
C51 C -0.5986(2) 0.78499(16) -0.03923(13)
H44 H -0.507(3) 0.740(2) -0.0186(16)
C52 C -0.6048(2) 0.80884(17) -0.12109(13)
H45 H -0.514(3) 0.783(2) -0.1590(16)
C53 C -0.7331(2) 0.87250(17) -0.15313(13)
H46 H -0.741(3) 0.890(2) -0.2120(15)
C54 C -0.8552(2) 0.91105(17) -0.10280(13)
H47 H -0.944(3) 0.957(2) -0.1283(16)
C55 C -0.8492(2) 0.88670(16) -0.02075(12)
H48 H -0.939(3) 0.914(2) 0.0151(15)
O10 O -0.0352(5) 0.0767(3) 0.4965(3)
C33 C -0.1228(3) 0.2936(3) 0.49854(17)
H31 H -0.089(4) 0.262(3) 0.454(2)
C34 C -0.2636(3) 0.3104(3) 0.53028(17)
H32 H -0.333(4) 0.289(3) 0.508(2)
C35 C -0.3165(2) 0.36280(18) 0.59383(12)
C36 C -0.2225(2) 0.39539(16) 0.62300(12)
H33 H -0.249(2) 0.4327(18) 0.6657(14)
C37 C -0.0842(2) 0.37575(17) 0.58693(13)
H34 H -0.017(3) 0.399(2) 0.6036(16)
C38 C -0.4674(2) 0.38473(17) 0.62823(12)
C39 C -0.5775(2) 0.4130(2) 0.58004(14)
H35 H -0.555(3) 0.412(2) 0.5304(18)
C40 C -0.7167(2) 0.4362(2) 0.61413(14)
H36 H -0.792(3) 0.459(2) 0.5821(16)
C41 C -0.6474(2) 0.40127(17) 0.73892(12)
H37 H -0.675(2) 0.3942(19) 0.7946(15)
C42 C -0.5052(2) 0.37839(16) 0.70980(12)
H38 H -0.445(3) 0.358(2) 0.7460(16)
N1 N -0.03315(19) 0.32670(17) 0.52509(10)
N2 N -0.75358(19) 0.43167(15) 0.69239(11)
loop_
_geom_bond_atom_site_label_1
_geom_bond_atom_site_label_2
_geom_bond_site_symmetry_1
_geom_bond_site_symmetry_2
O1 C1 1_555 1_555
O2 H1 1_555 1_555
O3 H2 1_555 1_555
O4 H3 1_555 1_555
O5 H4 1_555 1_555
O6 H5 1_555 1_555
O7 C26 1_555 1_555
O8 H6 1_555 1_555
O9 C49 1_555 1_555
C1 C2 1_555 1_555
C2 H7 1_555 1_555
C3 O2 1_555 1_555
C4 C3 1_555 1_555
C5 C4 1_555 1_555
H8 C5 1_555 1_555
C6 C1 1_555 1_555
C7 C4 1_555 1_555
H9 C7 1_555 1_555
C8 C7 1_555 1_555
H10 C8 1_555 1_555
H11 C8 1_555 1_555
H12 C8 1_555 1_555
C9 C7 1_555 1_555
C10 O3 1_555 1_555
C11 C10 1_555 1_555
H13 C11 1_555 1_555
C12 O4 1_555 1_555
C13 C12 1_555 1_555
C14 C9 1_555 1_555
H14 C14 1_555 1_555
C15 C13 1_555 1_555
H15 C15 1_555 1_555
C16 C15 1_555 1_555
H16 C16 1_555 1_555
H17 C16 1_555 1_555
H18 C16 1_555 1_555
C17 C15 1_555 1_555
C18 O5 1_555 1_555
C19 C18 1_555 1_555
H19 C19 1_555 1_555
C20 O6 1_555 1_555
C21 C20 1_555 1_555
C22 C17 1_555 1_555
H20 C22 1_555 1_555
C23 C21 1_555 1_555
H21 C23 1_555 1_555
C24 C23 1_555 1_555
H22 C24 1_555 1_555
H23 C24 1_555 1_555
H24 C24 1_555 1_555
C25 C23 1_555 1_555
C26 C25 1_555 1_555
C27 C26 1_555 1_555
H25 C27 1_555 1_555
C28 O8 1_555 1_555
C29 C28 1_555 1_555
C30 C25 1_555 1_555
H26 C30 1_555 1_555
C31 C6 1_555 1_555
H27 C31 1_555 1_555
C32 C31 1_555 1_555
H28 C32 1_555 1_555
H29 C32 1_555 1_555
H30 C32 1_555 1_555
C33 H31 1_555 1_555
C34 C33 1_555 1_555
H32 C34 1_555 1_555
C35 C34 1_555 1_555
C36 C35 1_555 1_555
H33 C36 1_555 1_555
C37 C36 1_555 1_555
H34 C37 1_555 1_555
C38 C35 1_555 1_555
C39 C38 1_555 1_555
H35 C39 1_555 1_555
C40 C39 1_555 1_555
H36 C40 1_555 1_555
C41 H37 1_555 1_555
C42 C38 1_555 1_555
H38 C42 1_555 1_555
C43 H39 1_555 1_555
C44 C43 1_555 1_555
H40 C44 1_555 1_555
C45 C44 1_555 1_555
H41 C45 1_555 1_555
C46 C45 1_555 1_555
H42 C46 1_555 1_555
C47 C46 1_555 1_555
H43 C47 1_555 1_555
C48 C43 1_555 1_555
C49 C48 1_555 1_555
C50 C49 1_555 1_555
C51 C50 1_555 1_555
H44 C51 1_555 1_555
C52 C51 1_555 1_555
H45 C52 1_555 1_555
C53 C52 1_555 1_555
H46 C53 1_555 1_555
C54 C53 1_555 1_555
H47 C54 1_555 1_555
C55 C50 1_555 1_555
H48 C55 1_555 1_555
N1 C33 1_555 1_555
N2 C40 1_555 1_555
H49 O1 1_555 1_555
H50 O7 1_555 1_555
C2 C3 1_555 1_555
C5 C6 1_555 1_555
C9 C10 1_555 1_555
C11 C12 1_555 1_555
C13 C14 1_555 1_555
C17 C18 1_555 1_555
C19 C20 1_555 1_555
C21 C22 1_555 1_555
C27 C28 1_555 1_555
C29 C31 1_555 1_555
C29 C30 1_555 1_555
C37 N1 1_555 1_555
C41 N2 1_555 1_555
C41 C42 1_555 1_555
C47 C48 1_555 1_555
C54 C55 1_555 1_555

#END
