
#######################################################################
#
#                 Cambridge Crystallographic Data Centre
#                                CCDC 
#
#######################################################################
#
# If this CIF has been generated from an entry in the Cambridge 
# Structural Database, then it will include bibliographic, chemical, 
# crystal, experimental, refinement or atomic coordinate data resulting 
# from the CCDC's data processing and validation procedures.
#
#######################################################################

data_XICHOH
_chemical_formula_moiety         'C22 H26 Cl1 N2 O5 P1'
_chemical_name_systematic        
'Ethyl 3-(2-chlorophenyl)-5-(diethoxyphosphinoyl)-1-phenyl-4,5-dihydro-1H-pyrazolyl-5-carboxylate'
_symmetry_cell_setting           triclinic
_symmetry_space_group_name_H-M   'P -1'
_symmetry_Int_Tables_number      2
_space_group_name_Hall           '-P 1'
loop_
_symmetry_equiv_pos_site_id
_symmetry_equiv_pos_as_xyz
1 x,y,z
2 -x,-y,-z
_cell_length_a                   10.195(2)
_cell_length_b                   10.986(2)
_cell_length_c                   11.409(3)
_cell_angle_alpha                82.434(4)
_cell_angle_beta                 84.994(4)
_cell_angle_gamma                68.390(4)
_cell_volume                     1176.63
_exptl_crystal_colour            colorless
_exptl_crystal_description       prism
_cell_formula_units_Z            2
_exptl_crystal_recrystallization_method chloroform/dichloromethane
loop_
_atom_site_label
_atom_site_type_symbol
_atom_site_fract_x
_atom_site_fract_y
_atom_site_fract_z
P1 P 0.53534(8) 0.21089(7) 0.40236(7)
Cl1 Cl 0.28699(17) 0.46404(13) 0.02371(8)
O1 O 0.5859(2) 0.1056(2) 0.49854(19)
O2 O 0.5627(2) 0.16433(19) 0.27593(18)
O3 O 0.5960(2) 0.32340(18) 0.3917(2)
O4 O 0.0098(2) 0.3383(2) 0.48657(19)
O5 O 0.1655(2) 0.2701(2) 0.62944(16)
N1 N 0.2147(2) 0.2248(2) 0.31721(19)
N2 N 0.2184(2) 0.3364(2) 0.24868(19)
C1 C 0.2896(3) 0.3881(3) 0.3001(2)
C2 C 0.3138(3) 0.5085(3) 0.2496(2)
C3 C 0.3387(3) 0.5872(3) 0.3249(3)
H1 H 0.3430 0.5598 0.4056
C4 C 0.3572(4) 0.7038(3) 0.2847(3)
H2 H 0.3733 0.7538 0.3376
C5 C 0.3517(4) 0.7453(4) 0.1667(4)
H3 H 0.3626 0.8246 0.1390
C6 C 0.3300(5) 0.6705(4) 0.0885(4)
H4 H 0.3277 0.6986 0.0079
C7 C 0.3115(4) 0.5524(3) 0.1295(3)
C8 C 0.3480(3) 0.3066(3) 0.4163(2)
H5 H 0.3292 0.3640 0.4796
C9 C 0.5790(4) 0.0312(3) 0.2568(3)
H6 H 0.6747 -0.0281 0.2731
H7 H 0.5146 0.0018 0.3102
C10 C 0.5498(6) 0.0284(5) 0.1364(5)
H8 H 0.4569 0.0906 0.1194
H9 H 0.5547 -0.0583 0.1254
H10 H 0.6181 0.0511 0.0840
C11 C 0.7421(3) 0.3031(3) 0.3552(4)
H11 H 0.7757 0.2381 0.2991
H12 H 0.8007 0.2706 0.4234
C12 C 0.7521(4) 0.4273(4) 0.3009(3)
H13 H 0.6944 0.4588 0.2332
H14 H 0.8485 0.4139 0.2765
H15 H 0.7200 0.4910 0.3571
C13 C 0.2560(3) 0.2202(3) 0.4378(2)
H16 H 0.3112 0.1300 0.4696
C14 C 0.1274(3) 0.2827(3) 0.5186(2)
C15 C 0.0540(3) 0.3368(3) 0.7135(3)
H17 H -0.0222 0.3034 0.7173
H18 H 0.0162 0.4307 0.6888
C16 C 0.1168(4) 0.3114(4) 0.8319(3)
H19 H 0.1461 0.2192 0.8587
H20 H 0.0476 0.3606 0.8874
H21 H 0.1970 0.3382 0.8257
C17 C 0.1387(3) 0.1544(3) 0.2808(2)
C18 C 0.0870(3) 0.1836(3) 0.1676(3)
H22 H 0.1003 0.2517 0.1165
C19 C 0.0154(4) 0.1103(4) 0.1314(3)
H23 H -0.0188 0.1298 0.0556
C20 C -0.0060(4) 0.0095(4) 0.2053(4)
H24 H -0.0545 -0.0387 0.1802
C21 C 0.0456(3) -0.0188(3) 0.3169(3)
H25 H 0.0319 -0.0872 0.3673
C22 C 0.1173(3) 0.0521(3) 0.3559(3)
H26 H 0.1512 0.0316 0.4318
loop_
_geom_bond_atom_site_label_1
_geom_bond_atom_site_label_2
_geom_bond_site_symmetry_1
_geom_bond_site_symmetry_2
P1 O1 1_555 1_555
Cl1 C7 1_555 1_555
O2 P1 1_555 1_555
O3 P1 1_555 1_555
O4 C14 1_555 1_555
O5 C14 1_555 1_555
N1 N2 1_555 1_555
N2 C1 1_555 1_555
C1 C2 1_555 1_555
C2 C3 1_555 1_555
C3 H1 1_555 1_555
C4 C3 1_555 1_555
H2 C4 1_555 1_555
C5 C4 1_555 1_555
H3 C5 1_555 1_555
C6 C5 1_555 1_555
H4 C6 1_555 1_555
C7 C2 1_555 1_555
C8 P1 1_555 1_555
H5 C8 1_555 1_555
C9 O2 1_555 1_555
H6 C9 1_555 1_555
H7 C9 1_555 1_555
C10 C9 1_555 1_555
H8 C10 1_555 1_555
H9 C10 1_555 1_555
H10 C10 1_555 1_555
C11 O3 1_555 1_555
H11 C11 1_555 1_555
H12 C11 1_555 1_555
C12 C11 1_555 1_555
H13 C12 1_555 1_555
H14 C12 1_555 1_555
H15 C12 1_555 1_555
C13 N1 1_555 1_555
H16 C13 1_555 1_555
C14 C13 1_555 1_555
C15 O5 1_555 1_555
H17 C15 1_555 1_555
H18 C15 1_555 1_555
C16 C15 1_555 1_555
H19 C16 1_555 1_555
H20 C16 1_555 1_555
H21 C16 1_555 1_555
C17 N1 1_555 1_555
C18 C17 1_555 1_555
H22 C18 1_555 1_555
C19 C18 1_555 1_555
H23 C19 1_555 1_555
C20 C19 1_555 1_555
H24 C20 1_555 1_555
C21 C20 1_555 1_555
H25 C21 1_555 1_555
C22 C17 1_555 1_555
H26 C22 1_555 1_555
C1 C8 1_555 1_555
C6 C7 1_555 1_555
C8 C13 1_555 1_555
C21 C22 1_555 1_555

#END
