
#######################################################################
#
#                 Cambridge Crystallographic Data Centre
#                                CCDC 
#
#######################################################################
#
# If this CIF has been generated from an entry in the Cambridge 
# Structural Database, then it will include bibliographic, chemical, 
# crystal, experimental, refinement or atomic coordinate data resulting 
# from the CCDC's data processing and validation procedures.
#
#######################################################################

data_XICLEB
_chemical_formula_moiety         'C7 H18 N1 O2 1+,I1 1-'
_chemical_name_systematic        
'(2-(Hydroxyethoxy)ethyl)trimethylammonium iodide'
_symmetry_cell_setting           monoclinic
_symmetry_space_group_name_H-M   'P 21/c'
_symmetry_Int_Tables_number      14
_space_group_name_Hall           '-P 2ybc'
loop_
_symmetry_equiv_pos_site_id
_symmetry_equiv_pos_as_xyz
1 x,y,z
2 -x,1/2+y,1/2-z
3 -x,-y,-z
4 x,1/2-y,1/2+z
_cell_length_a                   7.5815(5)
_cell_length_b                   12.6485(9)
_cell_length_c                   11.4120(8)
_cell_angle_alpha                90
_cell_angle_beta                 102.5370(10)
_cell_angle_gamma                90
_cell_volume                     1068.26
_exptl_crystal_colour            colorless
_exptl_crystal_description       block
_cell_formula_units_Z            4
_exptl_crystal_recrystallization_method dichloromethane
loop_
_atom_site_label
_atom_site_type_symbol
_atom_site_fract_x
_atom_site_fract_y
_atom_site_fract_z
I1 I 0.703019(10) 0.432530(6) 0.763923(7)
O1 O 1.10078(15) 0.58117(8) 0.77659(9)
O2 O 0.96371(11) 0.65523(7) 0.53070(8)
N1 N 0.63992(14) 0.79430(8) 0.49255(9)
C1 C 1.15626(18) 0.54443(11) 0.67183(12)
C2 C 1.14889(17) 0.63074(11) 0.58008(11)
C3 C 0.94525(17) 0.74044(10) 0.44858(11)
C4 C 0.74677(16) 0.76264(10) 0.39988(10)
C5 C 0.46054(17) 0.83699(11) 0.42568(12)
C6 C 0.60412(18) 0.70078(10) 0.56531(11)
C7 C 0.73576(18) 0.87875(11) 0.57429(12)
H1 H 1.008(3) 0.5545(14) 0.7789(19)
H2 H 1.082(2) 0.4859(14) 0.6375(14)
H3 H 1.283(2) 0.5205(14) 0.6937(15)
H4 H 1.209(2) 0.6946(13) 0.6156(14)
H5 H 1.206(2) 0.6058(15) 0.5145(16)
H6 H 1.008(2) 0.8043(13) 0.4897(16)
H7 H 0.995(2) 0.7249(12) 0.3792(14)
H8 H 0.736(2) 0.8213(13) 0.3471(15)
H9 H 0.686(2) 0.7021(12) 0.3612(13)
H10 H 0.483(3) 0.8996(16) 0.3832(17)
H11 H 0.402(2) 0.7837(12) 0.3727(14)
H12 H 0.387(3) 0.8554(15) 0.4863(17)
H13 H 0.541(2) 0.6433(13) 0.5093(15)
H14 H 0.527(3) 0.7213(15) 0.6209(17)
H15 H 0.717(2) 0.6717(13) 0.6083(14)
H16 H 0.657(3) 0.9020(15) 0.6240(17)
H17 H 0.845(2) 0.8498(13) 0.6231(15)
H18 H 0.762(3) 0.9352(13) 0.5267(19)
loop_
_geom_bond_atom_site_label_1
_geom_bond_atom_site_label_2
_geom_bond_site_symmetry_1
_geom_bond_site_symmetry_2
O1 C1 1_555 1_555
O2 C2 1_555 1_555
N1 C4 1_555 1_555
C1 C2 1_555 1_555
C2 H4 1_555 1_555
C3 O2 1_555 1_555
C4 C3 1_555 1_555
C5 N1 1_555 1_555
C6 N1 1_555 1_555
C7 N1 1_555 1_555
H1 O1 1_555 1_555
H2 C1 1_555 1_555
H3 C1 1_555 1_555
H5 C2 1_555 1_555
H6 C3 1_555 1_555
H7 C3 1_555 1_555
H8 C4 1_555 1_555
H9 C4 1_555 1_555
H10 C5 1_555 1_555
H11 C5 1_555 1_555
H12 C5 1_555 1_555
H13 C6 1_555 1_555
H14 C6 1_555 1_555
H15 C6 1_555 1_555
H16 C7 1_555 1_555
H17 C7 1_555 1_555
H18 C7 1_555 1_555

#END
