
#######################################################################
#
#                 Cambridge Crystallographic Data Centre
#                                CCDC 
#
#######################################################################
#
# If this CIF has been generated from an entry in the Cambridge 
# Structural Database, then it will include bibliographic, chemical, 
# crystal, experimental, refinement or atomic coordinate data resulting 
# from the CCDC's data processing and validation procedures.
#
#######################################################################

data_XICSUY
_chemical_formula_moiety         'C20 H40 Cs1 O10 1+,C11 H16 F3 N2 S4 Te1 1-'
_chemical_name_systematic        
"bis(15-Crown-5)-cesium bis(N,N-tetramethylenedithiocarbamato-S,S')-trifluoromethyl-tellurium(ii)"
_symmetry_cell_setting           triclinic
_symmetry_space_group_name_H-M   'P -1'
_symmetry_Int_Tables_number      2
_space_group_name_Hall           '-P 1'
loop_
_symmetry_equiv_pos_site_id
_symmetry_equiv_pos_as_xyz
1 x,y,z
2 -x,-y,-z
_cell_length_a                   13.1917(13)
_cell_length_b                   13.1781(14)
_cell_length_c                   14.9388(15)
_cell_angle_alpha                87.971(8)
_cell_angle_beta                 78.721(8)
_cell_angle_gamma                61.217(7)
_cell_volume                     2226.94
_exptl_crystal_colour            yellow
_exptl_crystal_description       polyhedron
_chemical_melting_point          135deg.C.(dec.)
_cell_formula_units_Z            2
_exptl_crystal_recrystallization_method 'dichloromethane/diethyl ether'
loop_
_atom_site_label
_atom_site_type_symbol
_atom_site_fract_x
_atom_site_fract_y
_atom_site_fract_z
Te1 Te 0.06901(4) 0.73714(4) 0.30391(3)
C1 C 0.0299(7) 0.7477(7) 0.4579(5)
F1 F 0.1014(12) 0.6593(7) 0.4935(4)
F2 F -0.0721(9) 0.7739(15) 0.4961(4)
F3 F 0.0497(10) 0.8247(9) 0.4965(4)
S1 S 0.03646(18) 0.87912(15) 0.13807(11)
S2 S -0.04941(17) 0.96993(15) 0.33451(11)
C2 C -0.0362(6) 0.9918(6) 0.2191(5)
N1 N -0.0852(6) 1.1007(5) 0.1939(4)
C3 C -0.0827(10) 1.1315(7) 0.0980(5)
H1 H -0.1166 1.0958 0.0666
H2 H -0.0026 1.1074 0.0654
C4 C -0.1561(18) 1.2607(8) 0.1056(8)
H3 H -0.1149 1.2943 0.0652
H4 H -0.2303 1.2829 0.0873
C5 C -0.1776(18) 1.3015(8) 0.1945(8)
H5 H -0.2600 1.3599 0.2128
H6 H -0.1297 1.3379 0.1985
C6 C -0.1498(8) 1.2054(6) 0.2581(5)
H7 H -0.1008 1.2069 0.2982
H8 H -0.2213 1.2099 0.2949
S3 S 0.18641(18) 0.57066(15) 0.13018(12)
S4 S 0.17484(18) 0.50654(15) 0.32544(12)
C7 C 0.2188(6) 0.4690(6) 0.2092(5)
N2 N 0.2808(6) 0.3562(5) 0.1823(4)
C8 C 0.3163(8) 0.2619(6) 0.2446(6)
H9 H 0.2485 0.2571 0.2791
H10 H 0.3589 0.2716 0.2867
C9 C 0.3949(18) 0.1576(9) 0.1792(8)
H11 H 0.4767 0.1319 0.1813
H12 H 0.3781 0.0951 0.1978
C10 C 0.3791(17) 0.1811(9) 0.0937(8)
H13 H 0.3293 0.1519 0.0783
H14 H 0.4547 0.1434 0.0512
C11 C 0.3214(10) 0.3112(7) 0.0860(5)
H15 H 0.3777 0.3340 0.0536
H16 H 0.2557 0.3380 0.0551
Cs1 Cs 0.57323(4) 0.74404(5) 0.26515(4)
O1 O 0.5284(7) 0.5438(6) 0.1996(5)
C12 C 0.4629(13) 0.5101(10) 0.2608(7)
H17 H 0.4690 0.4400 0.2358
H18 H 0.3808 0.5698 0.2698
C13 C 0.4981(9) 0.4878(8) 0.3500(6)
H19 H 0.5812 0.4307 0.3410
H20 H 0.4534 0.4558 0.3880
O2 O 0.4783(7) 0.5936(7) 0.3975(5)
C14 C 0.3669(10) 0.6555(11) 0.4481(7)
H21 H 0.3529 0.6089 0.4955
H22 H 0.3101 0.6746 0.4092
C15 C 0.3504(10) 0.7634(9) 0.4904(5)
H23 H 0.4132 0.7439 0.5234
H24 H 0.2762 0.7983 0.5346
O3 O 0.3499(6) 0.8504(7) 0.4240(5)
C16 C 0.2381(9) 0.9161(10) 0.4036(7)
H25 H 0.1797 0.9563 0.4586
H26 H 0.2153 0.8668 0.3758
C17 C 0.2480(9) 1.0010(8) 0.3381(6)
H27 H 0.1693 1.0575 0.3304
H28 H 0.2803 1.0423 0.3648
O4 O 0.3200(7) 0.9503(6) 0.2500(5)
C18 C 0.2597(12) 0.9300(9) 0.1916(7)
H29 H 0.1922 1.0025 0.1828
H30 H 0.2311 0.8781 0.2186
C19 C 0.3415(8) 0.8767(7) 0.1013(5)
H31 H 0.2962 0.8747 0.0581
H32 H 0.3759 0.9255 0.0781
O5 O 0.4339(6) 0.7625(7) 0.1062(4)
C20 C 0.3993(12) 0.6785(9) 0.1014(7)
H33 H 0.3761 0.6798 0.0434
H34 H 0.3319 0.6950 0.1502
C21 C 0.5005(9) 0.5602(7) 0.1102(5)
H35 H 0.4808 0.5015 0.0956
H36 H 0.5700 0.5488 0.0658
O6 O 0.6922(15) 0.6831(19) 0.4317(10)
C22 C 0.8131(14) 0.6172(16) 0.4206(14)
H37 H 0.8364 0.5919 0.4786
H38 H 0.8526 0.6595 0.3921
C23 C 0.8385(19) 0.5168(18) 0.3589(10)
H39 H 0.7886 0.4841 0.3863
H40 H 0.9199 0.4574 0.3556
O7 O 0.8196(10) 0.5455(10) 0.2630(12)
C24 C 0.9060(17) 0.5410(10) 0.2080(9)
H41 H 0.9726 0.4638 0.2067
H42 H 0.9264 0.5952 0.2311
C25 C 0.8898(8) 0.5674(7) 0.1115(6)
H43 H 0.9615 0.5161 0.0685
H44 H 0.8258 0.5564 0.0999
O8 O 0.8620(17) 0.6900(14) 0.1011(8)
C26 C 0.7599(11) 0.7575(15) 0.1110(7)
H45 H 0.7183 0.7522 0.1707
H46 H 0.7267 0.7411 0.0646
C27 C 0.7468(10) 0.8820(9) 0.1025(7)
H47 H 0.8224 0.8769 0.0757
H48 H 0.6911 0.9261 0.0639
O9 O 0.7036(14) 0.9386(10) 0.1959(9)
C28 C 0.6264(12) 0.9449(11) 0.2621(8)
H49 H 0.6388 0.8664 0.2683
H50 H 0.5516 0.9887 0.2427
C29 C 0.6077(12) 0.9903(17) 0.3517(11)
H51 H 0.5247 1.0206 0.3791
H52 H 0.6226 1.0558 0.3465
O10 O 0.6766(18) 0.9136(17) 0.4162(13)
C30 C 0.6158(14) 0.8564(17) 0.4310(14)
H53 H 0.6178 0.8204 0.3747
H54 H 0.5343 0.9066 0.4610
C31 C 0.6808(14) 0.7699(17) 0.4912(8)
H55 H 0.7554 0.7656 0.4949
H56 H 0.6342 0.7761 0.5518
loop_
_geom_bond_atom_site_label_1
_geom_bond_atom_site_label_2
_geom_bond_site_symmetry_1
_geom_bond_site_symmetry_2
Te1 C1 1_555 1_555
C1 F1 1_555 1_555
F2 C1 1_555 1_555
F3 C1 1_555 1_555
S1 Te1 1_555 1_555
S2 Te1 1_555 1_555
C2 S1 1_555 1_555
N1 C2 1_555 1_555
C3 N1 1_555 1_555
H1 C3 1_555 1_555
H2 C3 1_555 1_555
C4 C3 1_555 1_555
H3 C4 1_555 1_555
H4 C4 1_555 1_555
C5 C4 1_555 1_555
H5 C5 1_555 1_555
H6 C5 1_555 1_555
C6 N1 1_555 1_555
H7 C6 1_555 1_555
H8 C6 1_555 1_555
S3 Te1 1_555 1_555
S4 Te1 1_555 1_555
C7 S3 1_555 1_555
N2 C7 1_555 1_555
C8 N2 1_555 1_555
H9 C8 1_555 1_555
H10 C8 1_555 1_555
C9 C8 1_555 1_555
H11 C9 1_555 1_555
H12 C9 1_555 1_555
C10 C9 1_555 1_555
H13 C10 1_555 1_555
H14 C10 1_555 1_555
C11 N2 1_555 1_555
H15 C11 1_555 1_555
H16 C11 1_555 1_555
Cs1 O1 1_555 1_555
O1 C12 1_555 1_555
C12 H17 1_555 1_555
H18 C12 1_555 1_555
C13 C12 1_555 1_555
H19 C13 1_555 1_555
H20 C13 1_555 1_555
O2 Cs1 1_555 1_555
C14 O2 1_555 1_555
H21 C14 1_555 1_555
H22 C14 1_555 1_555
C15 C14 1_555 1_555
H23 C15 1_555 1_555
H24 C15 1_555 1_555
O3 Cs1 1_555 1_555
C16 O3 1_555 1_555
H25 C16 1_555 1_555
H26 C16 1_555 1_555
C17 C16 1_555 1_555
H27 C17 1_555 1_555
H28 C17 1_555 1_555
O4 Cs1 1_555 1_555
C18 O4 1_555 1_555
H29 C18 1_555 1_555
H30 C18 1_555 1_555
C19 C18 1_555 1_555
H31 C19 1_555 1_555
H32 C19 1_555 1_555
O5 Cs1 1_555 1_555
C20 O5 1_555 1_555
H33 C20 1_555 1_555
H34 C20 1_555 1_555
C21 O1 1_555 1_555
H35 C21 1_555 1_555
H36 C21 1_555 1_555
O6 Cs1 1_555 1_555
C22 O6 1_555 1_555
H37 C22 1_555 1_555
H38 C22 1_555 1_555
C23 C22 1_555 1_555
H39 C23 1_555 1_555
H40 C23 1_555 1_555
O7 Cs1 1_555 1_555
C24 O7 1_555 1_555
H41 C24 1_555 1_555
H42 C24 1_555 1_555
C25 C24 1_555 1_555
H43 C25 1_555 1_555
H44 C25 1_555 1_555
O8 Cs1 1_555 1_555
C26 O8 1_555 1_555
H45 C26 1_555 1_555
H46 C26 1_555 1_555
C27 C26 1_555 1_555
H47 C27 1_555 1_555
H48 C27 1_555 1_555
O9 Cs1 1_555 1_555
C28 O9 1_555 1_555
H49 C28 1_555 1_555
H50 C28 1_555 1_555
C29 C28 1_555 1_555
H51 C29 1_555 1_555
H52 C29 1_555 1_555
O10 Cs1 1_555 1_555
C30 O10 1_555 1_555
H53 C30 1_555 1_555
H54 C30 1_555 1_555
C31 O6 1_555 1_555
H55 C31 1_555 1_555
H56 C31 1_555 1_555
S2 C2 1_555 1_555
C5 C6 1_555 1_555
S4 C7 1_555 1_555
C10 C11 1_555 1_555
C13 O2 1_555 1_555
C15 O3 1_555 1_555
C17 O4 1_555 1_555
C19 O5 1_555 1_555
C20 C21 1_555 1_555
C23 O7 1_555 1_555
C25 O8 1_555 1_555
C27 O9 1_555 1_555
C29 O10 1_555 1_555
C30 C31 1_555 1_555

#END
