
#######################################################################
#
#                 Cambridge Crystallographic Data Centre
#                                CCDC 
#
#######################################################################
#
# If this CIF has been generated from an entry in the Cambridge 
# Structural Database, then it will include bibliographic, chemical, 
# crystal, experimental, refinement or atomic coordinate data resulting 
# from the CCDC's data processing and validation procedures.
#
#######################################################################

data_XICTOT
_chemical_formula_moiety         'C60 H56 N4 S8 Te1'
_chemical_name_systematic        
tetrakis(N,N-Dibenzyldithiocarbamato-S,S')-tellurium(iv)
_symmetry_cell_setting           tetragonal
_symmetry_space_group_name_H-M   'P -4 21 c'
_symmetry_Int_Tables_number      114
_space_group_name_Hall           'P -4 2n'
loop_
_symmetry_equiv_pos_site_id
_symmetry_equiv_pos_as_xyz
1 x,y,z
2 -x,-y,z
3 1/2+x,1/2-y,1/2-z
4 1/2-x,1/2+y,1/2-z
5 1/2+y,1/2+x,1/2+z
6 1/2-y,1/2-x,1/2+z
7 -y,x,-z
8 y,-x,-z
_cell_length_a                   15.4060(15)
_cell_length_b                   15.4060(15)
_cell_length_c                   12.1612(15)
_cell_angle_alpha                90
_cell_angle_beta                 90
_cell_angle_gamma                90
_cell_volume                     2886.4
_exptl_crystal_colour            yellow
_exptl_crystal_description       polyhedron
_cell_formula_units_Z            2
loop_
_atom_site_label
_atom_site_type_symbol
_atom_site_fract_x
_atom_site_fract_y
_atom_site_fract_z
Te1 Te 1.0000 0.0000 1.0000
S1 S 0.96141(8) 0.09594(8) 1.18483(11)
S2 S 0.92945(9) 0.15886(8) 0.95927(11)
C1 C 0.9348(3) 0.1787(3) 1.0978(4)
N1 N 0.9210(3) 0.2596(2) 1.1384(3)
C2 C 0.9329(4) 0.2790(3) 1.2550(5)
H1 H 0.9259 0.2261 1.2972
H2 H 0.8882 0.3195 1.2783
C3 C 1.0213(3) 0.3178(3) 1.2794(5)
C4 C 1.0312(5) 0.3725(5) 1.3681(7)
H3 H 0.9830 0.3885 1.4094
C5 C 1.1131(6) 0.4040(6) 1.3964(10)
H4 H 1.1184 0.4394 1.4580
C6 C 1.1837(5) 0.3853(5) 1.3383(8)
H5 H 1.2374 0.4094 1.3557
C7 C 1.1745(5) 0.3302(5) 1.2535(7)
H6 H 1.2233 0.3144 1.2133
C8 C 1.0953(4) 0.2964(4) 1.2242(6)
H7 H 1.0921 0.2580 1.1654
C9 C 0.8987(3) 0.3333(3) 1.0680(5)
H8 H 0.9135 0.3192 0.9925
H9 H 0.9332 0.3831 1.0897
C10 C 0.8040(4) 0.3572(3) 1.0737(5)
C11 C 0.7436(4) 0.3108(4) 1.0150(7)
H10 H 0.7615 0.2642 0.9719
C12 C 0.6567(4) 0.3323(5) 1.0192(8)
H11 H 0.6168 0.3010 0.9777
C13 C 0.6290(6) 0.3993(6) 1.0839(7)
H12 H 0.5703 0.4133 1.0877
C14 C 0.6888(6) 0.4457(6) 1.1432(7)
H13 H 0.6703 0.4912 1.1876
C15 C 0.7753(5) 0.4260(4) 1.1380(6)
H14 H 0.8151 0.4588 1.1777
S1A S 1.03859(8) -0.09594(8) 1.18483(11)
S1F S 0.90406(8) -0.03859(8) 0.81517(11)
S1G S 1.09594(8) 0.03859(8) 0.81517(11)
S2A S 1.07055(9) -0.15886(8) 0.95927(11)
S2F S 0.84114(8) -0.07055(9) 1.04073(11)
S2G S 1.15886(8) 0.07055(9) 1.04073(11)
C1A C 1.0652(3) -0.1787(3) 1.0978(4)
C1F C 0.8213(3) -0.0652(3) 0.9022(4)
C1G C 1.1787(3) 0.0652(3) 0.9022(4)
N1G N 1.2596(2) 0.0790(3) 0.8616(3)
N1F N 0.7404(2) -0.0790(3) 0.8616(3)
N1A N 1.0790(3) -0.2596(2) 1.1384(3)
C2G C 1.2790(3) 0.0671(4) 0.7450(5)
C2F C 0.7210(3) -0.0671(4) 0.7450(5)
C2A C 1.0671(4) -0.2790(3) 1.2550(5)
H1G H 1.2261 0.0741 0.7028
H1F H 0.7739 -0.0741 0.7028
H1A H 1.0741 -0.2261 1.2972
H2G H 1.3195 0.1118 0.7217
H2F H 0.6805 -0.1118 0.7217
H2A H 1.1118 -0.3195 1.2783
C3G C 1.3178(3) -0.0213(3) 0.7206(5)
C3F C 0.6822(3) 0.0213(3) 0.7206(5)
C3A C 0.9787(3) -0.3178(3) 1.2794(5)
C4G C 1.3725(5) -0.0312(5) 0.6319(7)
C4F C 0.6275(5) 0.0312(5) 0.6319(7)
C4A C 0.9688(5) -0.3725(5) 1.3681(7)
H3G H 1.3885 0.0170 0.5906
H3F H 0.6115 -0.0170 0.5906
H3A H 1.0170 -0.3885 1.4094
C5G C 1.4040(6) -0.1131(6) 0.6036(10)
C5F C 0.5960(6) 0.1131(6) 0.6036(10)
C5A C 0.8869(6) -0.4040(6) 1.3964(10)
H4G H 1.4394 -0.1184 0.5420
H4F H 0.5606 0.1184 0.5420
H4A H 0.8816 -0.4394 1.4580
C6G C 1.3853(5) -0.1837(5) 0.6617(8)
C6F C 0.6147(5) 0.1837(5) 0.6617(8)
C6A C 0.8163(5) -0.3853(5) 1.3383(8)
H5G H 1.4094 -0.2374 0.6443
H5F H 0.5906 0.2374 0.6443
H5A H 0.7626 -0.4094 1.3557
C7G C 1.3302(5) -0.1745(5) 0.7465(7)
C7F C 0.6698(5) 0.1745(5) 0.7465(7)
C7A C 0.8255(5) -0.3302(5) 1.2535(7)
H6G H 1.3144 -0.2233 0.7867
H6F H 0.6856 0.2233 0.7867
H6A H 0.7767 -0.3144 1.2133
C8G C 1.2964(4) -0.0953(4) 0.7758(6)
C8F C 0.7036(4) 0.0953(4) 0.7758(6)
C8A C 0.9047(4) -0.2964(4) 1.2242(6)
H7G H 1.2580 -0.0921 0.8346
H7F H 0.7420 0.0921 0.8346
H7A H 0.9079 -0.2580 1.1654
C9G C 1.3333(3) 0.1013(3) 0.9320(5)
C9F C 0.6667(3) -0.1013(3) 0.9320(5)
C9A C 1.1013(3) -0.3333(3) 1.0680(5)
H8G H 1.3192 0.0865 1.0075
H8F H 0.6808 -0.0865 1.0075
H8A H 1.0865 -0.3192 0.9925
H9G H 1.3831 0.0668 0.9103
H9F H 0.6169 -0.0668 0.9103
H9A H 1.0668 -0.3831 1.0897
C10G C 1.3572(3) 0.1960(4) 0.9263(5)
C10F C 0.6428(3) -0.1960(4) 0.9263(5)
C10A C 1.1960(4) -0.3572(3) 1.0737(5)
C11G C 1.3108(4) 0.2564(4) 0.9850(7)
C11F C 0.6892(4) -0.2564(4) 0.9850(7)
C11A C 1.2564(4) -0.3108(4) 1.0150(7)
H10G H 1.2642 0.2385 1.0281
H10F H 0.7358 -0.2385 1.0281
H10A H 1.2385 -0.2642 0.9719
C12G C 1.3323(5) 0.3433(4) 0.9808(8)
C12F C 0.6677(5) -0.3433(4) 0.9808(8)
C12A C 1.3433(4) -0.3323(5) 1.0192(8)
H11G H 1.3010 0.3832 1.0223
H11F H 0.6990 -0.3832 1.0223
H11A H 1.3832 -0.3010 0.9777
C13G C 1.3993(6) 0.3710(6) 0.9161(7)
C13F C 0.6007(6) -0.3710(6) 0.9161(7)
C13A C 1.3710(6) -0.3993(6) 1.0839(7)
H12G H 1.4133 0.4297 0.9123
H12F H 0.5867 -0.4297 0.9123
H12A H 1.4297 -0.4133 1.0877
C14G C 1.4457(6) 0.3112(6) 0.8568(7)
C14F C 0.5543(6) -0.3112(6) 0.8568(7)
C14A C 1.3112(6) -0.4457(6) 1.1432(7)
H13G H 1.4912 0.3297 0.8124
H13F H 0.5088 -0.3297 0.8124
H13A H 1.3297 -0.4912 1.1876
C15G C 1.4260(4) 0.2247(5) 0.8620(6)
C15F C 0.5740(4) -0.2247(5) 0.8620(6)
C15A C 1.2247(5) -0.4260(4) 1.1380(6)
H14G H 1.4588 0.1849 0.8223
H14F H 0.5412 -0.1849 0.8223
H14A H 1.1849 -0.4588 1.1777
loop_
_geom_bond_atom_site_label_1
_geom_bond_atom_site_label_2
_geom_bond_site_symmetry_1
_geom_bond_site_symmetry_2
Te1 S1 1_555 1_555
S1 C1 1_555 1_555
S2 Te1 1_555 1_555
C1 S2 1_555 1_555
N1 C1 1_555 1_555
C2 N1 1_555 1_555
H1 C2 1_555 1_555
H2 C2 1_555 1_555
C3 C2 1_555 1_555
C4 C3 1_555 1_555
H3 C4 1_555 1_555
C5 C4 1_555 1_555
H4 C5 1_555 1_555
C6 C5 1_555 1_555
H5 C6 1_555 1_555
C7 C6 1_555 1_555
H6 C7 1_555 1_555
C8 C3 1_555 1_555
H7 C8 1_555 1_555
C9 N1 1_555 1_555
H8 C9 1_555 1_555
H9 C9 1_555 1_555
C10 C9 1_555 1_555
C11 C10 1_555 1_555
H10 C11 1_555 1_555
C12 C11 1_555 1_555
H11 C12 1_555 1_555
C13 C12 1_555 1_555
H12 C13 1_555 1_555
C14 C13 1_555 1_555
H13 C14 1_555 1_555
C15 C10 1_555 1_555
H14 C15 1_555 1_555
S1A Te1 1_555 1_555
S1F Te1 1_555 1_555
S1G Te1 1_555 1_555
S2A Te1 1_555 1_555
S2F Te1 1_555 1_555
S2G Te1 1_555 1_555
C1A S1A 1_555 1_555
C1F S1F 1_555 1_555
C1G S1G 1_555 1_555
N1G C1G 1_555 1_555
N1F C1F 1_555 1_555
N1A C1A 1_555 1_555
C2G N1G 1_555 1_555
C2F N1F 1_555 1_555
C2A N1A 1_555 1_555
H1G C2G 1_555 1_555
H1F C2F 1_555 1_555
H1A C2A 1_555 1_555
H2G C2G 1_555 1_555
H2F C2F 1_555 1_555
H2A C2A 1_555 1_555
C3G C2G 1_555 1_555
C3F C2F 1_555 1_555
C3A C2A 1_555 1_555
C4G C3G 1_555 1_555
C4F C3F 1_555 1_555
C4A C3A 1_555 1_555
H3G C4G 1_555 1_555
H3F C4F 1_555 1_555
H3A C4A 1_555 1_555
C5G C4G 1_555 1_555
C5F C4F 1_555 1_555
C5A C4A 1_555 1_555
H4G C5G 1_555 1_555
H4F C5F 1_555 1_555
H4A C5A 1_555 1_555
C6G C5G 1_555 1_555
C6F C5F 1_555 1_555
C6A C5A 1_555 1_555
H5G C6G 1_555 1_555
H5F C6F 1_555 1_555
H5A C6A 1_555 1_555
C7G C6G 1_555 1_555
C7F C6F 1_555 1_555
C7A C6A 1_555 1_555
H6G C7G 1_555 1_555
H6F C7F 1_555 1_555
H6A C7A 1_555 1_555
C8G C3G 1_555 1_555
C8F C3F 1_555 1_555
C8A C3A 1_555 1_555
H7G C8G 1_555 1_555
H7F C8F 1_555 1_555
H7A C8A 1_555 1_555
C9G N1G 1_555 1_555
C9F N1F 1_555 1_555
C9A N1A 1_555 1_555
H8G C9G 1_555 1_555
H8F C9F 1_555 1_555
H8A C9A 1_555 1_555
H9G C9G 1_555 1_555
H9F C9F 1_555 1_555
H9A C9A 1_555 1_555
C10G C9G 1_555 1_555
C10F C9F 1_555 1_555
C10A C9A 1_555 1_555
C11G C10G 1_555 1_555
C11F C10F 1_555 1_555
C11A C10A 1_555 1_555
H10G C11G 1_555 1_555
H10F C11F 1_555 1_555
H10A C11A 1_555 1_555
C12G C11G 1_555 1_555
C12F C11F 1_555 1_555
C12A C11A 1_555 1_555
H11G C12G 1_555 1_555
H11F C12F 1_555 1_555
H11A C12A 1_555 1_555
C13G C12G 1_555 1_555
C13F C12F 1_555 1_555
C13A C12A 1_555 1_555
H12G C13G 1_555 1_555
H12F C13F 1_555 1_555
H12A C13A 1_555 1_555
C14G C13G 1_555 1_555
C14F C13F 1_555 1_555
C14A C13A 1_555 1_555
H13G C14G 1_555 1_555
H13F C14F 1_555 1_555
H13A C14A 1_555 1_555
C15G C10G 1_555 1_555
C15F C10F 1_555 1_555
C15A C10A 1_555 1_555
H14G C15G 1_555 1_555
H14F C15F 1_555 1_555
H14A C15A 1_555 1_555
C7 C8 1_555 1_555
C14 C15 1_555 1_555
S2A C1A 1_555 1_555
S2F C1F 1_555 1_555
S2G C1G 1_555 1_555
C7G C8G 1_555 1_555
C7F C8F 1_555 1_555
C7A C8A 1_555 1_555
C14G C15G 1_555 1_555
C14F C15F 1_555 1_555
C14A C15A 1_555 1_555

#END
