
#######################################################################
#
#                 Cambridge Crystallographic Data Centre
#                                CCDC 
#
#######################################################################
#
# If this CIF has been generated from an entry in the Cambridge 
# Structural Database, then it will include bibliographic, chemical, 
# crystal, experimental, refinement or atomic coordinate data resulting 
# from the CCDC's data processing and validation procedures.
#
#######################################################################

data_XICTIN
_chemical_formula_moiety         'C10 H16 N2 S4 Te1'
_chemical_name_systematic        
bis(N,N-Tetramethylenedithiocarbamato-S,S')-tellurium(ii)
_symmetry_cell_setting           monoclinic
_symmetry_space_group_name_H-M   'P 21/n'
_symmetry_Int_Tables_number      14
_space_group_name_Hall           '-P 2yn'
loop_
_symmetry_equiv_pos_site_id
_symmetry_equiv_pos_as_xyz
1 x,y,z
2 1/2-x,1/2+y,1/2-z
3 -x,-y,-z
4 1/2+x,1/2-y,1/2+z
_cell_length_a                   8.0940(11)
_cell_length_b                   11.7267(13)
_cell_length_c                   16.101(2)
_cell_angle_alpha                90
_cell_angle_beta                 92.147(10)
_cell_angle_gamma                90
_cell_volume                     1527.17
_exptl_crystal_colour            red
_exptl_crystal_description       rectangular
_cell_formula_units_Z            4
loop_
_atom_site_label
_atom_site_type_symbol
_atom_site_fract_x
_atom_site_fract_y
_atom_site_fract_z
Te1 Te 0.62435(3) 0.136769(18) 0.882006(19)
C1 C 0.6365(5) 0.2488(3) 1.0582(3)
S1 S 0.62396(17) 0.10510(8) 1.06050(8)
S2 S 0.65251(14) 0.31892(8) 0.96412(7)
N1 N 0.6355(4) 0.3118(2) 1.1265(2)
C2 C 0.6435(6) 0.4376(3) 1.1279(3)
H1 H 0.5552 0.4704 1.0932
H2 H 0.7488 0.4644 1.1087
C3 C 0.6240(10) 0.4673(5) 1.2162(4)
H3 H 0.7151 0.5155 1.2353
H4 H 0.5220 0.5094 1.2221
C4 C 0.6209(9) 0.3662(5) 1.2656(4)
H5 H 0.5210 0.3647 1.2970
H6 H 0.7152 0.3655 1.3046
C5 C 0.6261(7) 0.2653(4) 1.2112(3)
H7 H 0.7222 0.2187 1.2251
H8 H 0.5274 0.2193 1.2162
C6 C 0.6283(5) 0.1742(3) 0.6905(3)
S3 S 0.64922(15) 0.27790(8) 0.76720(7)
S4 S 0.61072(16) 0.03605(7) 0.71764(8)
N2 N 0.6298(4) 0.2095(2) 0.6130(2)
C7 C 0.6415(6) 0.3306(3) 0.5876(3)
H9 H 0.7503 0.3613 0.6016
H10 H 0.5591 0.3765 0.6143
C8 C 0.6100(7) 0.3275(4) 0.4958(3)
H11 H 0.6782 0.3834 0.4689
H12 H 0.4948 0.3443 0.4821
C9 C 0.6525(7) 0.2094(4) 0.4676(3)
H13 H 0.7677 0.2050 0.4533
H14 H 0.5839 0.1876 0.4195
C10 C 0.6194(6) 0.1338(4) 0.5404(3)
H15 H 0.5105 0.0996 0.5344
H16 H 0.7013 0.0736 0.5455
loop_
_geom_bond_atom_site_label_1
_geom_bond_atom_site_label_2
_geom_bond_site_symmetry_1
_geom_bond_site_symmetry_2
Te1 S1 1_555 1_555
C1 S1 1_555 1_555
S2 Te1 1_555 1_555
N1 C1 1_555 1_555
C2 N1 1_555 1_555
H1 C2 1_555 1_555
H2 C2 1_555 1_555
C3 C2 1_555 1_555
H3 C3 1_555 1_555
H4 C3 1_555 1_555
C4 C3 1_555 1_555
H5 C4 1_555 1_555
H6 C4 1_555 1_555
C5 N1 1_555 1_555
H7 C5 1_555 1_555
H8 C5 1_555 1_555
C6 S3 1_555 1_555
S3 Te1 1_555 1_555
S4 Te1 1_555 1_555
N2 C6 1_555 1_555
C7 N2 1_555 1_555
H9 C7 1_555 1_555
H10 C7 1_555 1_555
C8 C7 1_555 1_555
H11 C8 1_555 1_555
H12 C8 1_555 1_555
C9 C8 1_555 1_555
H13 C9 1_555 1_555
H14 C9 1_555 1_555
C10 N2 1_555 1_555
H15 C10 1_555 1_555
H16 C10 1_555 1_555
C1 S2 1_555 1_555
C4 C5 1_555 1_555
C6 S4 1_555 1_555
C9 C10 1_555 1_555

#END
