
#######################################################################
#
#                 Cambridge Crystallographic Data Centre
#                                CCDC 
#
#######################################################################
#
# If this CIF has been generated from an entry in the Cambridge 
# Structural Database, then it will include bibliographic, chemical, 
# crystal, experimental, refinement or atomic coordinate data resulting 
# from the CCDC's data processing and validation procedures.
#
#######################################################################

data_XICVAJ
_chemical_formula_moiety         'C14 H22 O2'
_chemical_name_systematic        
1,7,8-trimethyltetrahydro-1H-1,4-ethenoindene-4,7a(2H,5H)-diol
_symmetry_cell_setting           orthorhombic
_symmetry_space_group_name_H-M   'P 21 21 21'
_symmetry_Int_Tables_number      19
_space_group_name_Hall           'P 2ac 2ab'
loop_
_symmetry_equiv_pos_site_id
_symmetry_equiv_pos_as_xyz
1 x,y,z
2 1/2-x,-y,1/2+z
3 -x,1/2+y,1/2-z
4 1/2+x,1/2-y,-z
_cell_length_a                   9.9878(9)
_cell_length_b                   11.4709(11)
_cell_length_c                   21.283(2)
_cell_angle_alpha                90
_cell_angle_beta                 90
_cell_angle_gamma                90
_cell_volume                     2438.37
_exptl_crystal_colour            colorless
_exptl_crystal_description       plate
_cell_formula_units_Z            8
loop_
_atom_site_label
_atom_site_type_symbol
_atom_site_fract_x
_atom_site_fract_y
_atom_site_fract_z
O1 O 0.3842(2) 0.6346(2) 0.56496(11)
H1 H 0.361855 0.571897 0.580165
O2 O 0.7501(3) 0.9100(2) 0.55448(12)
H2 H 0.781426 0.874375 0.524492
C1 C 0.4305(3) 0.7486(3) 0.65843(16)
H3 H 0.406939 0.689515 0.689810
C2 C 0.5283(4) 0.8332(4) 0.68949(17)
H4 H 0.479164 0.884559 0.717401
H5 H 0.591644 0.789356 0.714702
C3 C 0.6050(4) 0.9065(3) 0.64185(19)
H6 H 0.543135 0.958090 0.620351
H7 H 0.670205 0.954293 0.663664
C4 C 0.6762(3) 0.8306(3) 0.59392(16)
C5 C 0.7681(3) 0.7481(3) 0.62882(15)
C6 C 0.7246(3) 0.6422(3) 0.64211(17)
H8 H 0.775138 0.597191 0.669676
C7 C 0.5981(4) 0.5893(3) 0.61545(17)
C8 C 0.4919(3) 0.6845(3) 0.60197(15)
C9 C 0.5728(3) 0.7607(3) 0.55638(15)
H9 H 0.513455 0.813059 0.533008
C10 C 0.6368(4) 0.6701(4) 0.51183(17)
H10 H 0.585722 0.664019 0.473200
H11 H 0.727943 0.692155 0.501547
C11 C 0.6346(4) 0.5535(4) 0.5478(2)
H12 H 0.568012 0.501079 0.530495
H13 H 0.721511 0.515886 0.546457
C12 C 0.3015(4) 0.8132(4) 0.6410(2)
H14 H 0.319894 0.868310 0.608199
H15 H 0.267881 0.853609 0.677242
H16 H 0.235774 0.758166 0.626721
C13 C 0.8997(4) 0.7941(4) 0.65305(19)
H17 H 0.941321 0.736211 0.679113
H18 H 0.884171 0.863447 0.677229
H19 H 0.957282 0.811941 0.618257
C14 C 0.5506(4) 0.4901(3) 0.6573(2)
H20 H 0.617180 0.429777 0.658084
H21 H 0.468262 0.459131 0.641016
H22 H 0.536237 0.518734 0.699119
O3 O 0.2769(2) 0.3917(2) 0.57852(12)
H23 H 0.305824 0.355467 0.548221
O4 O -0.1093(3) 0.1458(2) 0.54336(12)
H24 H -0.139167 0.083006 0.555260
C15 C 0.2368(4) 0.2371(3) 0.65421(17)
H25 H 0.266648 0.280913 0.691168
C16 C 0.1397(4) 0.1424(3) 0.67721(18)
H26 H 0.190641 0.079032 0.695630
H27 H 0.082642 0.174769 0.709692
C17 C 0.0528(4) 0.0947(3) 0.62448(17)
H28 H -0.011242 0.039680 0.641597
H29 H 0.108551 0.053687 0.594424
C18 C -0.0220(3) 0.1934(3) 0.59117(16)
C19 C -0.1003(3) 0.2610(3) 0.64008(17)
C20 C -0.0477(4) 0.3591(3) 0.66272(16)
H30 H -0.089840 0.393968 0.696846
C21 C 0.0759(3) 0.4172(3) 0.63661(16)
C22 C 0.1718(3) 0.3251(3) 0.60836(16)
C23 C 0.0793(4) 0.2730(3) 0.55817(16)
H31 H 0.131064 0.229249 0.526956
C24 C 0.0135(4) 0.3809(3) 0.52803(16)
H32 H -0.080575 0.366575 0.519790
H33 H 0.057412 0.400500 0.488769
C25 C 0.0307(4) 0.4807(3) 0.57653(17)
H34 H 0.097841 0.536159 0.562735
H35 H -0.053202 0.521495 0.583257
C26 C 0.3601(4) 0.1783(4) 0.6258(2)
H36 H 0.333840 0.132995 0.589937
H37 H 0.400553 0.128236 0.656561
H38 H 0.423304 0.236754 0.613078
C27 C -0.2265(4) 0.2082(4) 0.6653(2)
H39 H -0.259635 0.255076 0.699317
H40 H -0.208329 0.130832 0.680297
H41 H -0.292503 0.204789 0.632587
C28 C 0.1404(4) 0.4981(3) 0.68527(18)
H42 H 0.166528 0.453549 0.721419
H43 H 0.077172 0.556864 0.697618
H44 H 0.217879 0.534651 0.667252
loop_
_geom_bond_atom_site_label_1
_geom_bond_atom_site_label_2
_geom_bond_site_symmetry_1
_geom_bond_site_symmetry_2
O1 H1 1_555 1_555
O2 H2 1_555 1_555
C1 H3 1_555 1_555
C2 C1 1_555 1_555
H4 C2 1_555 1_555
H5 C2 1_555 1_555
C3 C2 1_555 1_555
H6 C3 1_555 1_555
H7 C3 1_555 1_555
C4 O2 1_555 1_555
C5 C4 1_555 1_555
C6 C5 1_555 1_555
H8 C6 1_555 1_555
C7 C6 1_555 1_555
C8 O1 1_555 1_555
C9 C4 1_555 1_555
H9 C9 1_555 1_555
C10 C9 1_555 1_555
H10 C10 1_555 1_555
H11 C10 1_555 1_555
C11 C7 1_555 1_555
H12 C11 1_555 1_555
H13 C11 1_555 1_555
C12 C1 1_555 1_555
H14 C12 1_555 1_555
H15 C12 1_555 1_555
H16 C12 1_555 1_555
C13 C5 1_555 1_555
H17 C13 1_555 1_555
H18 C13 1_555 1_555
H19 C13 1_555 1_555
C14 C7 1_555 1_555
H20 C14 1_555 1_555
H21 C14 1_555 1_555
H22 C14 1_555 1_555
O3 H23 1_555 1_555
O4 H24 1_555 1_555
C15 H25 1_555 1_555
C16 C15 1_555 1_555
H26 C16 1_555 1_555
H27 C16 1_555 1_555
C17 C16 1_555 1_555
H28 C17 1_555 1_555
H29 C17 1_555 1_555
C18 O4 1_555 1_555
C19 C18 1_555 1_555
C20 C19 1_555 1_555
H30 C20 1_555 1_555
C21 C20 1_555 1_555
C22 O3 1_555 1_555
C23 C18 1_555 1_555
H31 C23 1_555 1_555
C24 C23 1_555 1_555
H32 C24 1_555 1_555
H33 C24 1_555 1_555
C25 C21 1_555 1_555
H34 C25 1_555 1_555
H35 C25 1_555 1_555
C26 C15 1_555 1_555
H36 C26 1_555 1_555
H37 C26 1_555 1_555
H38 C26 1_555 1_555
C27 C19 1_555 1_555
H39 C27 1_555 1_555
H40 C27 1_555 1_555
H41 C27 1_555 1_555
C28 C21 1_555 1_555
H42 C28 1_555 1_555
H43 C28 1_555 1_555
H44 C28 1_555 1_555
C1 C8 1_555 1_555
C3 C4 1_555 1_555
C7 C8 1_555 1_555
C8 C9 1_555 1_555
C10 C11 1_555 1_555
C15 C22 1_555 1_555
C17 C18 1_555 1_555
C21 C22 1_555 1_555
C22 C23 1_555 1_555
C24 C25 1_555 1_555

#END
