
#######################################################################
#
#                 Cambridge Crystallographic Data Centre
#                                CCDC 
#
#######################################################################
#
# If this CIF has been generated from an entry in the Cambridge 
# Structural Database, then it will include bibliographic, chemical, 
# crystal, experimental, refinement or atomic coordinate data resulting 
# from the CCDC's data processing and validation procedures.
#
#######################################################################

data_XICZIV
_chemical_formula_moiety         'C18 H22 N6 O5'
_chemical_name_systematic        
'(8S*,9aR*)-2-Benzyl 9a-methyl 8-(azidomethyl)-6-oxohexahydro-1H-pyrazino[1,2-c]pyrimidine-2,9a(6H)-dicarboxylate'
_symmetry_cell_setting           monoclinic
_symmetry_space_group_name_H-M   'C c'
_symmetry_Int_Tables_number      9
_space_group_name_Hall           'C -2yc'
loop_
_symmetry_equiv_pos_site_id
_symmetry_equiv_pos_as_xyz
1 x,y,z
2 x,-y,1/2+z
3 1/2+x,1/2+y,z
4 1/2+x,1/2-y,1/2+z
_cell_length_a                   6.1736(6)
_cell_length_b                   41.049(4)
_cell_length_c                   14.9267(9)
_cell_angle_alpha                90
_cell_angle_beta                 91.877(7)
_cell_angle_gamma                90
_cell_volume                     3780.7
_exptl_crystal_colour            colorless
_exptl_crystal_description       irregular
_cell_formula_units_Z            8
loop_
_atom_site_label
_atom_site_type_symbol
_atom_site_fract_x
_atom_site_fract_y
_atom_site_fract_z
N1 N 0.0195(9) 0.24913(12) 0.4132(3)
H1 H -0.0357 0.2303 0.4019
O1 O -0.0705(8) 0.33344(10) 0.3844(2)
O2 O 0.2605(9) 0.35260(11) 0.3554(3)
N2 N 0.1173(10) 0.21572(13) 0.2505(3)
N3 N 0.3053(9) 0.34469(13) 0.5859(3)
O3 O 0.3011(9) 0.39267(11) 0.6643(3)
N4 N 0.0654(9) 0.29271(12) 0.5121(3)
C1 C 0.2874(12) 0.23321(15) 0.3038(4)
H2 H 0.3982 0.2412 0.2648
H3 H 0.3551 0.2186 0.3475
O4 O -0.1915(8) 0.25441(10) 0.5329(2)
O5 O 0.571(2) 0.3803(7) 0.5663(16)
C2 C 0.1510(11) 0.32821(16) 0.6422(4)
H4 H 0.0898 0.3436 0.6838
H5 H 0.2233 0.3111 0.6766
C3 C 0.4083(11) 0.32298(16) 0.5229(3)
H6 H 0.4856 0.3059 0.5554
H7 H 0.5118 0.3351 0.4884
C4 C -0.0458(11) 0.26520(16) 0.4868(4)
C5 C 0.3457(11) 0.28154(15) 0.4042(3)
H8 H 0.4444 0.2917 0.3633
H9 H 0.4293 0.2673 0.4439
C6 C 0.1430(13) 0.33428(15) 0.3942(4)
N5 N 0.1376(10) 0.18560(16) 0.2524(3)
C7 C 0.2340(11) 0.30783(15) 0.4593(4)
C8 C 0.1786(11) 0.26194(16) 0.3517(4)
H10 H 0.1053 0.2760 0.3071
C9 C 0.3816(13) 0.37518(18) 0.6096(4)
C10 C -0.0291(11) 0.31364(15) 0.5814(4)
H11 H -0.1264 0.3009 0.6171
H12 H -0.1122 0.3310 0.5529
N6 N 0.1392(11) 0.15788(14) 0.2479(3)
C11 C 0.7351(15) 0.4245(2) 0.4893(4)
C12 C 0.5787(12) 0.4254(2) 0.4202(5)
H13 H 0.4411 0.4170 0.4291
C13 C 0.6280(15) 0.4389(2) 0.3379(5)
H14 H 0.5234 0.4395 0.2917
C14 C 0.8337(17) 0.4514(2) 0.3247(4)
H15 H 0.8667 0.4604 0.2697
C15 C 0.9901(13) 0.4505(2) 0.3938(5)
H16 H 1.1277 0.4589 0.3850
C16 C 0.9407(13) 0.4370(2) 0.4761(5)
H17 H 1.0454 0.4364 0.5224
C17 C -0.1688(13) 0.35812(16) 0.3233(4)
H18 H -0.1145 0.3553 0.2643
H19 H -0.1321 0.3795 0.3448
H20 H -0.3235 0.3556 0.3212
C18 C 0.623(10) 0.4165(11) 0.5745(14)
H21 H 0.4893 0.4286 0.5795
H22 H 0.7101 0.4201 0.6289
O7 O 0.8101(8) 0.18180(10) 0.3893(2)
N7 N 0.5547(9) 0.14437(13) 0.4292(3)
N8 N 0.3278(10) 0.08603(13) 0.3925(3)
O8 O 0.3227(19) 0.0358(3) 0.3236(8)
N9 N 0.5948(9) 0.19424(12) 0.5032(3)
H30 H 0.6441 0.2138 0.5024
C26 C 0.6530(11) 0.11892(15) 0.3743(3)
H31 H 0.7442 0.1050 0.4122
H32 H 0.7436 0.1290 0.3302
O9 O 0.3892(8) 0.09835(11) 0.6233(3)
O10 O 0.7145(8) 0.11569(10) 0.5783(2)
C27 C 0.5020(13) 0.11288(16) 0.5720(4)
C28 C 0.3983(11) 0.13305(16) 0.4934(4)
C29 C 0.2272(12) 0.11221(15) 0.4447(4)
H33 H 0.1324 0.1027 0.4881
H34 H 0.1398 0.1259 0.4047
O11 O 0.1147(15) 0.0486(2) 0.4421(6)
C30 C 0.6602(11) 0.17352(17) 0.4393(4)
C31 C 0.2789(11) 0.16203(15) 0.5341(3)
H35 H 0.1906 0.1729 0.4881
H36 H 0.1844 0.1544 0.5804
N10 N 0.0498(12) 0.20158(15) 0.6851(3)
C32 C 0.4774(11) 0.09817(16) 0.3263(4)
H37 H 0.3992 0.1112 0.2818
H38 H 0.5439 0.0800 0.2960
N11 N 0.2376(10) 0.21233(14) 0.6945(3)
C33 C 0.4452(11) 0.18562(15) 0.5738(4)
H39 H 0.5265 0.1748 0.6229
C34 C 0.264(2) 0.0552(3) 0.3789(11)
C35 C 0.3507(12) 0.21769(15) 0.6084(4)
H40 H 0.4664 0.2334 0.6180
H41 H 0.2490 0.2265 0.5639
C36 C 0.8174(12) 0.09835(18) 0.6548(4)
H42 H 0.9721 0.0998 0.6513
H43 H 0.7742 0.0759 0.6532
H44 H 0.7729 0.1081 0.7097
N12 N -0.1210(11) 0.19202(16) 0.6880(3)
C37 C -0.1044(13) 0.0110(2) 0.5222(4)
C38 C -0.3122(14) 0.0241(2) 0.5207(4)
H45 H -0.3618 0.0363 0.4716
C39 C -0.4460(11) 0.0189(2) 0.5924(5)
H46 H -0.5850 0.0276 0.5914
C40 C -0.3718(13) 0.0007(2) 0.6657(4)
H47 H -0.4613 -0.0028 0.7137
C41 C -0.1640(14) -0.01236(19) 0.6672(4)
H48 H -0.1143 -0.0246 0.7162
C42 C -0.0302(11) -0.0072(2) 0.5954(5)
H49 H 0.1088 -0.0159 0.5964
C43 C 0.038(2) 0.0147(3) 0.4414(6)
H50 H 0.1591 -0.0002 0.4456
H51 H -0.0453 0.0102 0.3864
O6? O 0.527(5) 0.3870(12) 0.550(3)
C19? C 0.691(17) 0.4126(19) 0.581(2)
H23? H 0.6282 0.4292 0.6184
H24? H 0.8179 0.4032 0.6111
C20? C 0.745(2) 0.4293(3) 0.4949(8)
C21? C 0.665(2) 0.4467(3) 0.4210(9)
H25? H 0.5227 0.4541 0.4192
C22? C 0.798(3) 0.4530(3) 0.3497(7)
H26? H 0.7449 0.4646 0.3003
C23? C 1.011(2) 0.4420(3) 0.3524(7)
H27? H 1.1004 0.4462 0.3047
C24? C 1.0912(19) 0.4246(3) 0.4263(8)
H28? H 1.2337 0.4173 0.4281
C25? C 0.958(2) 0.4183(3) 0.4976(7)
H29? H 1.0116 0.4067 0.5470
O12? O 0.246(3) 0.0374(4) 0.3281(12)
C44? C 0.198(3) 0.0591(4) 0.3815(17)
O13? O 0.017(2) 0.0561(3) 0.4320(9)
C45? C -0.110(3) 0.0260(4) 0.4228(8)
H52? H -0.0275 0.0094 0.3928
H53? H -0.2428 0.0300 0.3877
C46? C -0.163(2) 0.0148(3) 0.5171(6)
C47? C 0.0018(17) 0.0131(3) 0.5825(8)
H54? H 0.1406 0.0201 0.5697
C48? C -0.0406(18) 0.0009(3) 0.6670(7)
H55? H 0.0699 -0.0003 0.7107
C49? C -0.248(2) -0.0097(4) 0.6860(6)
H56? H -0.2765 -0.0178 0.7425
C50? C -0.4132(17) -0.0079(4) 0.6206(8)
H57? H -0.5520 -0.0150 0.6334
C51? C -0.371(2) 0.0043(3) 0.5361(7)
H58? H -0.4813 0.0054 0.4924
loop_
_geom_bond_atom_site_label_1
_geom_bond_atom_site_label_2
_geom_bond_site_symmetry_1
_geom_bond_site_symmetry_2
N1 H1 1_555 1_555
O1 C6 1_555 1_555
O2 C6 1_555 1_555
N2 C1 1_555 1_555
N3 C2 1_555 1_555
O3 C9 1_555 1_555
N4 C4 1_555 1_555
C1 H2 1_555 1_555
H3 C1 1_555 1_555
O4 C4 1_555 1_555
O5 C9 1_555 1_555
C2 H4 1_555 1_555
H5 C2 1_555 1_555
C3 N3 1_555 1_555
H6 C3 1_555 1_555
H7 C3 1_555 1_555
C4 N1 1_555 1_555
C5 H8 1_555 1_555
H9 C5 1_555 1_555
C6 C7 1_555 1_555
N5 N2 1_555 1_555
C7 N4 1_555 1_555
C8 N1 1_555 1_555
H10 C8 1_555 1_555
C9 N3 1_555 1_555
C10 N4 1_555 1_555
H11 C10 1_555 1_555
H12 C10 1_555 1_555
N6 N5 1_555 1_555
C11 C12 1_555 1_555
C12 H13 1_555 1_555
C13 C12 1_555 1_555
H14 C13 1_555 1_555
C14 C13 1_555 1_555
H15 C14 1_555 1_555
C15 C14 1_555 1_555
H16 C15 1_555 1_555
C16 C11 1_555 1_555
H17 C16 1_555 1_555
C17 O1 1_555 1_555
H18 C17 1_555 1_555
H19 C17 1_555 1_555
H20 C17 1_555 1_555
C18 O5 1_555 1_555
H21 C18 1_555 1_555
H22 C18 1_555 1_555
O7 C30 1_555 1_555
N7 C26 1_555 1_555
N8 C29 1_555 1_555
O8 C34 1_555 1_555
N9 H30 1_555 1_555
C26 H31 1_555 1_555
H32 C26 1_555 1_555
O9 C27 1_555 1_555
O10 C27 1_555 1_555
C27 C28 1_555 1_555
C28 N7 1_555 1_555
C29 C28 1_555 1_555
H33 C29 1_555 1_555
H34 C29 1_555 1_555
O11 C34 1_555 1_555
C30 N7 1_555 1_555
C31 C28 1_555 1_555
H35 C31 1_555 1_555
H36 C31 1_555 1_555
N10 N11 1_555 1_555
C32 N8 1_555 1_555
H37 C32 1_555 1_555
H38 C32 1_555 1_555
N11 C35 1_555 1_555
C33 N9 1_555 1_555
H39 C33 1_555 1_555
C34 N8 1_555 1_555
C35 C33 1_555 1_555
H40 C35 1_555 1_555
H41 C35 1_555 1_555
C36 O10 1_555 1_555
H42 C36 1_555 1_555
H43 C36 1_555 1_555
H44 C36 1_555 1_555
N12 N10 1_555 1_555
C37 C38 1_555 1_555
C38 H45 1_555 1_555
C39 C38 1_555 1_555
H46 C39 1_555 1_555
C40 C39 1_555 1_555
H47 C40 1_555 1_555
C41 C40 1_555 1_555
H48 C41 1_555 1_555
C42 C37 1_555 1_555
H49 C42 1_555 1_555
C43 O11 1_555 1_555
H50 C43 1_555 1_555
H51 C43 1_555 1_555
C1 C8 1_555 1_555
C2 C10 1_555 1_555
C3 C7 1_555 1_555
C5 C7 1_555 1_555
C5 C8 1_555 1_555
C11 C18 1_555 1_555
C15 C16 1_555 1_555
N9 C30 1_555 1_555
C26 C32 1_555 1_555
C31 C33 1_555 1_555
C37 C43 1_555 1_555
C41 C42 1_555 1_555

#END
