
#######################################################################
#
#                 Cambridge Crystallographic Data Centre
#                                CCDC 
#
#######################################################################
#
# If this CIF has been generated from an entry in the Cambridge 
# Structural Database, then it will include bibliographic, chemical, 
# crystal, experimental, refinement or atomic coordinate data resulting 
# from the CCDC's data processing and validation procedures.
#
#######################################################################

data_XIDBUI
_chemical_formula_moiety         'C21 H12 N3 P1 S3'
_chemical_name_systematic        tris(Benzothiazol-2-yl)phosphine
_symmetry_cell_setting           rhombohedral
_symmetry_space_group_name_H-M   'R 3 c'
_symmetry_Int_Tables_number      161
_space_group_name_Hall           'R 3 -2"c'
loop_
_symmetry_equiv_pos_site_id
_symmetry_equiv_pos_as_xyz
1 x,y,z
2 -y,x-y,z
3 -x+y,-x,z
4 -y,-x,1/2+z
5 -x+y,y,1/2+z
6 x,x-y,1/2+z
7 2/3+x,1/3+y,1/3+z
8 2/3-y,1/3+x-y,1/3+z
9 2/3-x+y,1/3-x,1/3+z
10 2/3-y,1/3-x,5/6+z
11 2/3-x+y,1/3+y,5/6+z
12 2/3+x,1/3+x-y,5/6+z
13 1/3+x,2/3+y,2/3+z
14 1/3-y,2/3+x-y,2/3+z
15 1/3-x+y,2/3-x,2/3+z
16 1/3-y,2/3-x,1/6+z
17 1/3-x+y,2/3+y,1/6+z
18 1/3+x,2/3+x-y,1/6+z
_cell_length_a                   20.096(3)
_cell_length_b                   20.096(3)
_cell_length_c                   15.524(3)
_cell_angle_alpha                90
_cell_angle_beta                 90
_cell_angle_gamma                120.00
_cell_volume                     5429.42
_exptl_crystal_colour            colorless
_exptl_crystal_description       blocks
_cell_formula_units_Z            12
loop_
_atom_site_label
_atom_site_type_symbol
_atom_site_fract_x
_atom_site_fract_y
_atom_site_fract_z
P1 P 0.0000 0.0000 0.14032(5)
C1 C -0.04300(10) 0.05066(10) 0.08839(11)
S1 S 0.00727(3) 0.14801(2) 0.06196(3)
C2 C -0.07955(11) 0.14227(11) 0.03723(12)
C3 C -0.09343(11) 0.19967(11) 0.00869(12)
H1 H -0.0523 0.2507 0.0008
C4 C -0.16830(11) 0.18103(11) -0.00804(14)
H2 H -0.1791 0.2197 -0.0268
C5 C -0.22854(10) 0.10515(11) 0.00255(13)
H3 H -0.2796 0.0930 -0.0102
C6 C -0.21522(11) 0.04813(11) 0.03090(12)
H4 H -0.2565 -0.0030 0.0376
C7 C -0.13972(10) 0.06681(10) 0.04966(11)
N1 N -0.11687(9) 0.01662(8) 0.07997(10)
C1A C -0.05066(10) -0.09366(14) 0.08839(11)
C1B C 0.09366(14) 0.04300(10) 0.08839(11)
S1A S -0.14801(2) -0.14074(4) 0.06196(3)
S1B S 0.14074(4) -0.00727(3) 0.06196(3)
C2A C -0.14227(11) -0.22182(16) 0.03723(12)
C2B C 0.22182(16) 0.07955(11) 0.03723(12)
C3A C -0.19967(11) -0.29310(16) 0.00869(12)
C3B C 0.29310(16) 0.09343(11) 0.00869(12)
H1A H -0.2507 -0.3030 0.0008
H1B H 0.3030 0.0523 0.0008
C4A C -0.18103(11) -0.34933(16) -0.00804(14)
C4B C 0.34933(16) 0.16830(11) -0.00804(14)
H2A H -0.2197 -0.3988 -0.0268
H2B H 0.3988 0.1791 -0.0268
C5A C -0.10515(11) -0.33369(15) 0.00255(13)
C5B C 0.33369(15) 0.22854(10) 0.00255(13)
H3A H -0.0930 -0.3726 -0.0102
H3B H 0.3726 0.2796 -0.0102
C6A C -0.04813(11) -0.26335(16) 0.03090(12)
C6B C 0.26335(16) 0.21522(11) 0.03090(12)
H4A H 0.0030 -0.2535 0.0376
H4B H 0.2535 0.2565 0.0376
C7A C -0.06681(10) -0.20653(14) 0.04966(11)
C7B C 0.20653(14) 0.13972(10) 0.04966(11)
N1A N -0.01662(8) -0.13349(12) 0.07997(10)
N1B N 0.13349(12) 0.11687(9) 0.07997(10)
P2 P 0.0000 0.0000 0.39191(5)
C8 C -0.05424(11) 0.03914(11) 0.33992(11)
S2 S -0.14953(2) -0.01490(3) 0.30616(3)
C9 C -0.14856(10) 0.07035(10) 0.28532(12)
C10 C -0.20777(11) 0.08098(11) 0.25454(13)
H5 H -0.2570 0.0382 0.2425
C11 C -0.19314(11) 0.15505(11) 0.24203(13)
H6 H -0.2328 0.1636 0.2216
C12 C -0.12028(11) 0.21774(10) 0.25930(12)
H7 H -0.1108 0.2684 0.2492
C13 C -0.06206(11) 0.20732(11) 0.29062(13)
H8 H -0.0130 0.2503 0.3027
C14 C -0.07611(10) 0.13297(10) 0.30433(11)
N2 N -0.02423(8) 0.11313(9) 0.33660(10)
C8A C -0.03914(11) -0.09338(16) 0.33992(11)
C8B C 0.09338(16) 0.05424(11) 0.33992(11)
S2A S 0.01490(3) -0.13463(4) 0.30616(3)
S2B S 0.13463(4) 0.14953(2) 0.30616(3)
C9A C -0.07035(10) -0.21891(14) 0.28532(12)
C9B C 0.21891(14) 0.14856(10) 0.28532(12)
C10A C -0.08098(11) -0.28875(16) 0.25454(13)
C10B C 0.28875(16) 0.20777(11) 0.25454(13)
H5A H -0.0382 -0.2952 0.2425
H5B H 0.2952 0.2570 0.2425
C11A C -0.15505(11) -0.34819(16) 0.24203(13)
C11B C 0.34819(16) 0.19314(11) 0.24203(13)
H6A H -0.1636 -0.3964 0.2216
H6B H 0.3964 0.2328 0.2216
C12A C -0.21774(10) -0.33802(15) 0.25930(12)
C12B C 0.33802(15) 0.12028(11) 0.25930(12)
H7A H -0.2684 -0.3792 0.2492
H7B H 0.3792 0.1108 0.2492
C13A C -0.20732(11) -0.26938(16) 0.29062(13)
C13B C 0.26938(16) 0.06206(11) 0.29062(13)
H8A H -0.2503 -0.2633 0.3027
H8B H 0.2633 0.0130 0.3027
C14A C -0.13297(10) -0.20908(14) 0.30433(11)
C14B C 0.20908(14) 0.07611(10) 0.30433(11)
N2A N -0.11313(9) -0.13736(12) 0.33660(10)
N2B N 0.13736(12) 0.02423(8) 0.33660(10)
loop_
_geom_bond_atom_site_label_1
_geom_bond_atom_site_label_2
_geom_bond_site_symmetry_1
_geom_bond_site_symmetry_2
P1 C1 1_555 1_555
C1 S1 1_555 1_555
S1 C2 1_555 1_555
C2 C3 1_555 1_555
C3 H1 1_555 1_555
C4 C3 1_555 1_555
H2 C4 1_555 1_555
C5 C4 1_555 1_555
H3 C5 1_555 1_555
C6 C5 1_555 1_555
H4 C6 1_555 1_555
C7 C2 1_555 1_555
N1 C1 1_555 1_555
P2 C8 1_555 1_555
C8 S2 1_555 1_555
S2 C9 1_555 1_555
C9 C10 1_555 1_555
C10 H5 1_555 1_555
C11 C10 1_555 1_555
H6 C11 1_555 1_555
C12 C11 1_555 1_555
H7 C12 1_555 1_555
C13 C12 1_555 1_555
H8 C13 1_555 1_555
C14 C9 1_555 1_555
N2 C8 1_555 1_555
C1A P1 1_555 1_555
C1B P1 1_555 1_555
S1A C1A 1_555 1_555
S1B C1B 1_555 1_555
C2A S1A 1_555 1_555
C2B S1B 1_555 1_555
C3A C2A 1_555 1_555
C3B C2B 1_555 1_555
H1A C3A 1_555 1_555
H1B C3B 1_555 1_555
C4A C3A 1_555 1_555
C4B C3B 1_555 1_555
H2A C4A 1_555 1_555
H2B C4B 1_555 1_555
C5A C4A 1_555 1_555
C5B C4B 1_555 1_555
H3A C5A 1_555 1_555
H3B C5B 1_555 1_555
C6A C5A 1_555 1_555
C6B C5B 1_555 1_555
H4A C6A 1_555 1_555
H4B C6B 1_555 1_555
C7A C2A 1_555 1_555
C7B C2B 1_555 1_555
N1A C1A 1_555 1_555
N1B C1B 1_555 1_555
C8A P2 1_555 1_555
C8B P2 1_555 1_555
S2A C8A 1_555 1_555
S2B C8B 1_555 1_555
C9A S2A 1_555 1_555
C9B S2B 1_555 1_555
C10A C9A 1_555 1_555
C10B C9B 1_555 1_555
H5A C10A 1_555 1_555
H5B C10B 1_555 1_555
C11A C10A 1_555 1_555
C11B C10B 1_555 1_555
H6A C11A 1_555 1_555
H6B C11B 1_555 1_555
C12A C11A 1_555 1_555
C12B C11B 1_555 1_555
H7A C12A 1_555 1_555
H7B C12B 1_555 1_555
C13A C12A 1_555 1_555
C13B C12B 1_555 1_555
H8A C13A 1_555 1_555
H8B C13B 1_555 1_555
C14A C9A 1_555 1_555
C14B C9B 1_555 1_555
N2A C8A 1_555 1_555
N2B C8B 1_555 1_555
C6 C7 1_555 1_555
C7 N1 1_555 1_555
C13 C14 1_555 1_555
C14 N2 1_555 1_555
C6A C7A 1_555 1_555
C6B C7B 1_555 1_555
C7A N1A 1_555 1_555
C7B N1B 1_555 1_555
C13A C14A 1_555 1_555
C13B C14B 1_555 1_555
C14A N2A 1_555 1_555
C14B N2B 1_555 1_555

#END
