
#######################################################################
#
#                 Cambridge Crystallographic Data Centre
#                                CCDC 
#
#######################################################################
#
# If this CIF has been generated from an entry in the Cambridge 
# Structural Database, then it will include bibliographic, chemical, 
# crystal, experimental, refinement or atomic coordinate data resulting 
# from the CCDC's data processing and validation procedures.
#
#######################################################################

data_XIDCAP
_chemical_formula_moiety         'C14 H9 N2 P1 S2'
_chemical_name_systematic        
(Benzothiazol-2-yl)(3H-benzothiazol-2-ylidene)phosphine
_symmetry_cell_setting           orthorhombic
_symmetry_space_group_name_H-M   'P b c a'
_symmetry_Int_Tables_number      61
_space_group_name_Hall           '-P 2ac 2ab'
loop_
_symmetry_equiv_pos_site_id
_symmetry_equiv_pos_as_xyz
1 x,y,z
2 1/2-x,-y,1/2+z
3 -x,1/2+y,1/2-z
4 1/2+x,1/2-y,-z
5 -x,-y,-z
6 1/2+x,y,1/2-z
7 x,1/2-y,1/2+z
8 1/2-x,1/2+y,z
_cell_length_a                   14.607(5)
_cell_length_b                   7.272(3)
_cell_length_c                   24.478(8)
_cell_angle_alpha                90
_cell_angle_beta                 90
_cell_angle_gamma                90
_cell_volume                     2600.1
_exptl_crystal_colour            yellow
_exptl_crystal_description       needle
_chemical_melting_point          102deg.C
_cell_formula_units_Z            8
loop_
_atom_site_label
_atom_site_type_symbol
_atom_site_fract_x
_atom_site_fract_y
_atom_site_fract_z
P1 P 0.39522(8) 0.28302(15) 0.34907(5)
S1 S 0.42277(7) 0.44586(15) 0.23513(5)
N1 N 0.2603(2) 0.3882(4) 0.27324(15)
C1 C 0.3480(3) 0.3713(6) 0.28720(19)
C2 C 0.3297(3) 0.4943(5) 0.19267(19)
C3 C 0.3293(3) 0.5609(5) 0.13972(19)
H1 H 0.3849 0.5878 0.1212
C4 C 0.2450(3) 0.5873(5) 0.1143(2)
H2 H 0.2427 0.6311 0.0777
C5 C 0.1636(3) 0.5495(5) 0.14239(19)
H3 H 0.1066 0.5689 0.1246
C6 C 0.1643(3) 0.4850(5) 0.1953(2)
H4 H 0.1087 0.4604 0.2140
C7 C 0.2482(3) 0.4565(5) 0.22070(19)
S2 S 0.29570(8) 0.18712(14) 0.45505(5)
N2 N 0.2060(2) 0.2886(5) 0.37098(16)
H5 H 0.196(3) 0.336(6) 0.3398(19)
C8 C 0.2920(3) 0.2576(5) 0.38686(18)
C9 C 0.1769(3) 0.2112(5) 0.46093(18)
C10 C 0.1223(3) 0.1861(5) 0.50661(19)
H6 H 0.1473 0.1436 0.5401
C11 C 0.0300(3) 0.2252(5) 0.50155(19)
H7 H -0.0090 0.2119 0.5324
C12 C -0.0064(3) 0.2834(5) 0.4523(2)
H8 H -0.0700 0.3093 0.4500
C13 C 0.0472(3) 0.3046(5) 0.40667(19)
H9 H 0.0213 0.3428 0.3729
C14 C 0.1404(3) 0.2687(5) 0.41109(18)
loop_
_geom_bond_atom_site_label_1
_geom_bond_atom_site_label_2
_geom_bond_site_symmetry_1
_geom_bond_site_symmetry_2
P1 C1 1_555 1_555
S1 C1 1_555 1_555
N1 C1 1_555 1_555
C2 S1 1_555 1_555
C3 C2 1_555 1_555
H1 C3 1_555 1_555
C4 C3 1_555 1_555
H2 C4 1_555 1_555
C5 C4 1_555 1_555
H3 C5 1_555 1_555
C6 C5 1_555 1_555
H4 C6 1_555 1_555
C7 N1 1_555 1_555
S2 C8 1_555 1_555
N2 H5 1_555 1_555
C8 P1 1_555 1_555
C9 S2 1_555 1_555
C10 C9 1_555 1_555
H6 C10 1_555 1_555
C11 C10 1_555 1_555
H7 C11 1_555 1_555
C12 C11 1_555 1_555
H8 C12 1_555 1_555
C13 C12 1_555 1_555
H9 C13 1_555 1_555
C14 N2 1_555 1_555
C2 C7 1_555 1_555
C6 C7 1_555 1_555
N2 C8 1_555 1_555
C9 C14 1_555 1_555
C13 C14 1_555 1_555

#END
