
#######################################################################
#
#                 Cambridge Crystallographic Data Centre
#                                CCDC 
#
#######################################################################
#
# If this CIF has been generated from an entry in the Cambridge 
# Structural Database, then it will include bibliographic, chemical, 
# crystal, experimental, refinement or atomic coordinate data resulting 
# from the CCDC's data processing and validation procedures.
#
#######################################################################

data_XIDDOE
_chemical_formula_moiety         'C52 H60 N8,H2 O1,0.5(C4 H10 O1)'
_chemical_name_systematic        
'16,16:35,35-bis(2,2,4,4-Tetramethylpentan-1,5-diyl)-3,10,22,29,39,40,41,42-octaazaheptacyclo[34.2.1.1^12,15^.1^17,20^.1^31,34^.0^4,9^.0^23,28^]dotetraconta-1(38),2,4,6,8,10,12,14,17,19,21,23,25,27,29,31,33,36-octadecaene diethyl ether solvate monohydrate'
_symmetry_cell_setting           monoclinic
_symmetry_space_group_name_H-M   'C 2/c'
_symmetry_Int_Tables_number      15
_space_group_name_Hall           '-C 2yn'
loop_
_symmetry_equiv_pos_site_id
_symmetry_equiv_pos_as_xyz
1 x,y,z
2 1/2+x,1/2+y,z
3 -x,y,1/2-z
4 1/2-x,1/2+y,1/2-z
5 -x,-y,-z
6 1/2-x,1/2-y,-z
7 x,-y,1/2+z
8 1/2+x,1/2-y,1/2+z
_cell_length_a                   13.747(2)
_cell_length_b                   27.268(3)
_cell_length_c                   14.872(2)
_cell_angle_alpha                90
_cell_angle_beta                 115.742(2)
_cell_angle_gamma                90
_cell_volume                     5021.57
_exptl_crystal_colour            colorless
_exptl_crystal_description       needle
_cell_formula_units_Z            4
loop_
_atom_site_label
_atom_site_type_symbol
_atom_site_fract_x
_atom_site_fract_y
_atom_site_fract_z
O1 O 1.0000 0.05819(9) 0.7500
H31 H 0.9447(15) 0.0403(8) 0.736(2)
H31B H 1.0553(15) 0.0403(8) 0.764(2)
N1 N 1.16821(15) 0.00490(7) 0.69486(16)
N2 N 1.05464(14) 0.08433(6) 0.57357(14)
H1 H 1.0583 0.0862 0.6340
N3 N 0.82533(14) 0.10530(6) 0.54718(14)
H2 H 0.8780 0.0856 0.5849
N4 N 0.75474(15) 0.02333(7) 0.60939(15)
C1 C 1.15835(18) 0.00808(8) 0.6048(2)
H3 H 1.1921 -0.0157 0.5811
C2 C 1.09728(18) 0.04691(8) 0.53989(19)
C3 C 1.07290(19) 0.05688(9) 0.44203(19)
H4 H 1.0921 0.0374 0.3993
C4 C 1.01476(18) 0.10089(8) 0.41619(18)
H5 H 0.9865 0.1162 0.3525
C5 C 1.00568(16) 0.11826(8) 0.49957(16)
C6 C 0.95101(17) 0.16312(7) 0.51660(16)
C7 C 1.01289(17) 0.18458(8) 0.62305(16)
H6 H 0.9640 0.2074 0.6355
H7 H 1.0298 0.1574 0.6716
C8 C 1.11807(19) 0.21192(8) 0.64435(17)
C9 C 1.21086(18) 0.17761(9) 0.65439(18)
H8 H 1.2755 0.1971 0.6672
H9 H 1.1901 0.1590 0.5924
H10 H 1.2262 0.1549 0.7099
C10 C 1.1551(2) 0.23825(9) 0.74465(18)
H11 H 1.2223 0.2560 0.7595
H12 H 1.1674 0.2141 0.7973
H13 H 1.0993 0.2615 0.7414
C11 C 1.09262(18) 0.25152(8) 0.56328(18)
H14 H 1.0489 0.2773 0.5753
H15 H 1.1617 0.2668 0.5728
C12 C 1.03330(18) 0.23576(8) 0.45391(17)
C13 C 0.9898(2) 0.28217(9) 0.3906(2)
H16 H 0.9518 0.2731 0.3200
H17 H 1.0501 0.3041 0.4002
H18 H 0.9398 0.2990 0.4112
C14 C 1.10871(19) 0.21080(9) 0.41516(19)
H19 H 1.1386 0.1807 0.4532
H20 H 1.1678 0.2332 0.4233
H21 H 1.0676 0.2027 0.3443
C15 C 0.93489(17) 0.20413(8) 0.44001(17)
H22 H 0.9069 0.1888 0.3731
H23 H 0.8779 0.2264 0.4399
C16 C 0.83885(17) 0.14745(7) 0.50433(16)
C17 C 0.73803(18) 0.16769(8) 0.45256(18)
H24 H 0.7222 0.1974 0.4154
C18 C 0.66247(19) 0.13670(8) 0.46437(19)
H25 H 0.5866 0.1416 0.4366
C19 C 0.71863(18) 0.09797(8) 0.52343(17)
C20 C 0.68503(19) 0.05421(8) 0.55658(18)
H26 H 0.6107 0.0487 0.5387
C21 C 0.72486(18) -0.02142(8) 0.63829(19)
C22 C 0.6615(2) -0.05567(9) 0.5683(2)
H27 H 0.6308 -0.0478 0.4992
C23 C 0.6429(2) -0.10129(9) 0.5987(2)
H28 H 0.6004 -0.1249 0.5506
C24 C 0.6865(2) -0.11242(9) 0.6996(2)
H29 H 0.6738 -0.1437 0.7205
C25 C 0.7483(2) -0.07834(8) 0.7702(2)
H30 H 0.7773 -0.0862 0.8392
C26 C 1.23181(18) -0.03234(8) 0.75993(19)
N1B N 0.83179(15) 0.00490(7) 0.80514(16)
N2B N 0.94536(14) 0.08433(6) 0.92643(14)
H1B H 0.9417 0.0862 0.8660
N3B N 1.17467(14) 0.10530(6) 0.95282(14)
H2B H 1.1220 0.0856 0.9151
N4B N 1.24526(15) 0.02333(7) 0.89061(15)
C1B C 0.84165(18) 0.00808(8) 0.8952(2)
H3B H 0.8079 -0.0157 0.9189
C2B C 0.90272(18) 0.04691(8) 0.96011(19)
C3B C 0.92710(19) 0.05688(9) 1.05797(19)
H4B H 0.9079 0.0374 1.1007
C4B C 0.98524(18) 0.10089(8) 1.08381(18)
H5B H 1.0135 0.1162 1.1475
C5B C 0.99432(16) 0.11826(8) 1.00043(16)
C6B C 1.04899(17) 0.16312(7) 0.98340(16)
C7B C 0.98711(17) 0.18458(8) 0.87695(16)
H6B H 1.0360 0.2074 0.8645
H7B H 0.9702 0.1574 0.8284
C8B C 0.88193(19) 0.21192(8) 0.85565(17)
C9B C 0.78914(18) 0.17761(9) 0.84561(18)
H8B H 0.7245 0.1971 0.8328
H9B H 0.8099 0.1590 0.9076
H10B H 0.7738 0.1549 0.7901
C10B C 0.8449(2) 0.23825(9) 0.75535(18)
H11B H 0.7777 0.2560 0.7405
H12B H 0.8326 0.2141 0.7027
H13B H 0.9007 0.2615 0.7586
C11B C 0.90738(18) 0.25152(8) 0.93672(18)
H14B H 0.9511 0.2773 0.9247
H15B H 0.8383 0.2668 0.9272
C12B C 0.96670(18) 0.23576(8) 1.04609(17)
C13B C 1.0102(2) 0.28217(9) 1.1094(2)
H16B H 1.0482 0.2731 1.1800
H17B H 0.9499 0.3041 1.0998
H18B H 1.0602 0.2990 1.0888
C14B C 0.89129(19) 0.21080(9) 1.08484(19)
H19B H 0.8614 0.1807 1.0468
H20B H 0.8322 0.2332 1.0767
H21B H 0.9324 0.2027 1.1557
C15B C 1.06511(17) 0.20413(8) 1.05999(17)
H22B H 1.0931 0.1888 1.1269
H23B H 1.1221 0.2264 1.0601
C16B C 1.16115(17) 0.14745(7) 0.99567(16)
C17B C 1.26197(18) 0.16769(8) 1.04744(18)
H24B H 1.2778 0.1974 1.0846
C18B C 1.33753(19) 0.13670(8) 1.03563(19)
H25B H 1.4134 0.1416 1.0634
C19B C 1.28137(18) 0.09797(8) 0.97657(17)
C20B C 1.31497(19) 0.05421(8) 0.94342(18)
H26B H 1.3893 0.0487 0.9613
C21B C 1.27514(18) -0.02142(8) 0.86171(19)
C22B C 1.3385(2) -0.05567(9) 0.9317(2)
H27B H 1.3692 -0.0478 1.0008
C23B C 1.3571(2) -0.10129(9) 0.9013(2)
H28B H 1.3996 -0.1249 0.9494
C24B C 1.3135(2) -0.11242(9) 0.8004(2)
H29B H 1.3262 -0.1437 0.7795
C25B C 1.2517(2) -0.07834(8) 0.7298(2)
H30B H 1.2227 -0.0862 0.6608
C26B C 0.76819(18) -0.03234(8) 0.74007(19)
loop_
_geom_bond_atom_site_label_1
_geom_bond_atom_site_label_2
_geom_bond_site_symmetry_1
_geom_bond_site_symmetry_2
N1 C1 1_555 1_555
N2 H1 1_555 1_555
N3 H2 1_555 1_555
N4 C20 1_555 1_555
C1 H3 1_555 1_555
C2 N2 1_555 1_555
C3 C2 1_555 1_555
H4 C3 1_555 1_555
C4 C3 1_555 1_555
H5 C4 1_555 1_555
C5 N2 1_555 1_555
C6 C5 1_555 1_555
C7 C6 1_555 1_555
H6 C7 1_555 1_555
H7 C7 1_555 1_555
C8 C7 1_555 1_555
C9 C8 1_555 1_555
H8 C9 1_555 1_555
H9 C9 1_555 1_555
H10 C9 1_555 1_555
C10 C8 1_555 1_555
H11 C10 1_555 1_555
H12 C10 1_555 1_555
H13 C10 1_555 1_555
C11 C8 1_555 1_555
H14 C11 1_555 1_555
H15 C11 1_555 1_555
C12 C11 1_555 1_555
C13 C12 1_555 1_555
H16 C13 1_555 1_555
H17 C13 1_555 1_555
H18 C13 1_555 1_555
C14 C12 1_555 1_555
H19 C14 1_555 1_555
H20 C14 1_555 1_555
H21 C14 1_555 1_555
C15 C6 1_555 1_555
H22 C15 1_555 1_555
H23 C15 1_555 1_555
C16 N3 1_555 1_555
C17 C16 1_555 1_555
H24 C17 1_555 1_555
C18 C17 1_555 1_555
H25 C18 1_555 1_555
C19 N3 1_555 1_555
C20 C19 1_555 1_555
H26 C20 1_555 1_555
C21 N4 1_555 1_555
C22 C21 1_555 1_555
H27 C22 1_555 1_555
C23 C22 1_555 1_555
H28 C23 1_555 1_555
C24 C23 1_555 1_555
H29 C24 1_555 1_555
C25 C24 1_555 1_555
H30 C25 1_555 1_555
C26 N1 1_555 1_555
O1 H31 1_555 1_555
N1B C1B 1_555 1_555
N2B H1B 1_555 1_555
N3B H2B 1_555 1_555
N4B C20B 1_555 1_555
C1B H3B 1_555 1_555
C2B N2B 1_555 1_555
C3B C2B 1_555 1_555
H4B C3B 1_555 1_555
C4B C3B 1_555 1_555
H5B C4B 1_555 1_555
C5B N2B 1_555 1_555
C6B C5B 1_555 1_555
C7B C6B 1_555 1_555
H6B C7B 1_555 1_555
H7B C7B 1_555 1_555
C8B C7B 1_555 1_555
C9B C8B 1_555 1_555
H8B C9B 1_555 1_555
H9B C9B 1_555 1_555
H10B C9B 1_555 1_555
C10B C8B 1_555 1_555
H11B C10B 1_555 1_555
H12B C10B 1_555 1_555
H13B C10B 1_555 1_555
C11B C8B 1_555 1_555
H14B C11B 1_555 1_555
H15B C11B 1_555 1_555
C12B C11B 1_555 1_555
C13B C12B 1_555 1_555
H16B C13B 1_555 1_555
H17B C13B 1_555 1_555
H18B C13B 1_555 1_555
C14B C12B 1_555 1_555
H19B C14B 1_555 1_555
H20B C14B 1_555 1_555
H21B C14B 1_555 1_555
C15B C6B 1_555 1_555
H22B C15B 1_555 1_555
H23B C15B 1_555 1_555
C16B N3B 1_555 1_555
C17B C16B 1_555 1_555
H24B C17B 1_555 1_555
C18B C17B 1_555 1_555
H25B C18B 1_555 1_555
C19B N3B 1_555 1_555
C20B C19B 1_555 1_555
H26B C20B 1_555 1_555
C21B C26 1_555 1_555
C22B C21B 1_555 1_555
H27B C22B 1_555 1_555
C23B C22B 1_555 1_555
H28B C23B 1_555 1_555
C24B C23B 1_555 1_555
H29B C24B 1_555 1_555
C25B C26 1_555 1_555
H30B C25B 1_555 1_555
C26B C21 1_555 1_555
H31B O1 1_555 1_555
C1 C2 1_555 1_555
C4 C5 1_555 1_555
C6 C16 1_555 1_555
C12 C15 1_555 1_555
C18 C19 1_555 1_555
C25 C26B 1_555 1_555
N1B C26B 1_555 1_555
N4B C21B 1_555 1_555
C1B C2B 1_555 1_555
C4B C5B 1_555 1_555
C6B C16B 1_555 1_555
C12B C15B 1_555 1_555
C18B C19B 1_555 1_555
C24B C25B 1_555 1_555

#END
