
#######################################################################
#
#                 Cambridge Crystallographic Data Centre
#                                CCDC 
#
#######################################################################
#
# If this CIF has been generated from an entry in the Cambridge 
# Structural Database, then it will include bibliographic, chemical, 
# crystal, experimental, refinement or atomic coordinate data resulting 
# from the CCDC's data processing and validation procedures.
#
#######################################################################

data_XIDRIM
_chemical_formula_moiety         'C33 H30 N2'
_chemical_name_systematic        
N,N'-bis(anthracen-9-ylmethyl)propane-1,3-diamine
_symmetry_cell_setting           orthorhombic
_symmetry_space_group_name_H-M   'P c c n'
_symmetry_Int_Tables_number      56
_space_group_name_Hall           '-P 2ab 2ac'
loop_
_symmetry_equiv_pos_site_id
_symmetry_equiv_pos_as_xyz
1 x,y,z
2 1/2-x,1/2-y,z
3 -x,1/2+y,1/2-z
4 1/2+x,-y,1/2-z
5 -x,-y,-z
6 1/2+x,1/2+y,-z
7 x,1/2-y,1/2+z
8 1/2-x,y,1/2+z
_cell_length_a                   23.126(5)
_cell_length_b                   25.447(5)
_cell_length_c                   8.3713(17)
_cell_angle_alpha                90
_cell_angle_beta                 90
_cell_angle_gamma                90
_cell_volume                     4926.4
_exptl_crystal_colour            yellow
_exptl_crystal_description       block
_chemical_melting_point          109-111deg.C
_cell_formula_units_Z            8
_exptl_crystal_recrystallization_method toluene/ether
loop_
_atom_site_label
_atom_site_type_symbol
_atom_site_fract_x
_atom_site_fract_y
_atom_site_fract_z
N1 N -0.00097(7) 0.42370(6) 0.35830(18)
H1 H -0.0119 0.4392 0.4445
N2 N -0.08361(7) 0.51742(6) 0.40123(19)
H2 H -0.0621 0.5082 0.4802
C1 C -0.00728(8) 0.32736(7) 0.0654(2)
C2 C 0.05271(9) 0.33410(8) 0.0295(3)
H3 H 0.0769 0.3490 0.1059
C3 C 0.07521(10) 0.31935(9) -0.1125(3)
H4 H 0.1146 0.3237 -0.1310
C4 C 0.04031(12) 0.29747(9) -0.2332(3)
H5 H 0.0564 0.2880 -0.3308
C5 C -0.01638(10) 0.29036(8) -0.2063(3)
H6 H -0.0394 0.2763 -0.2868
C6 C -0.04208(9) 0.30387(7) -0.0574(2)
C7 C -0.10021(9) 0.29456(7) -0.0278(2)
H7 H -0.1225 0.2784 -0.1062
C8 C -0.12598(8) 0.30865(7) 0.1152(2)
C9 C -0.18588(9) 0.29911(8) 0.1433(3)
H8 H -0.2077 0.2819 0.0661
C10 C -0.21115(9) 0.31473(8) 0.2797(3)
H9 H -0.2504 0.3087 0.2953
C11 C -0.17895(10) 0.34005(9) 0.3986(3)
H10 H -0.1971 0.3510 0.4921
C12 C -0.12145(9) 0.34876(8) 0.3787(3)
H11 H -0.1007 0.3649 0.4602
C13 C -0.09221(8) 0.33379(7) 0.2360(2)
C14 C -0.03225(8) 0.34209(7) 0.2121(2)
C15 C 0.00318(8) 0.36667(7) 0.3445(2)
H12 H -0.0088 0.3512 0.4452
H13 H 0.0434 0.3575 0.3279
C16 C 0.01503(9) 0.45229(8) 0.2140(2)
H14 H -0.0060 0.4379 0.1238
H15 H 0.0560 0.4475 0.1939
C17 C 0.00206(10) 0.51030(7) 0.2278(2)
H16 H 0.0182 0.5281 0.1356
H17 H 0.0213 0.5239 0.3220
C18 C -0.06202(10) 0.52347(9) 0.2387(2)
H18 H -0.0681 0.5594 0.2038
H19 H -0.0836 0.5005 0.1679
C19 C -0.14532(9) 0.52843(9) 0.4173(3)
H20 H -0.1671 0.4970 0.3909
H21 H -0.1561 0.5556 0.3417
C20 C -0.16136(8) 0.54604(8) 0.5838(2)
C21 C -0.16889(8) 0.59981(8) 0.6174(3)
C22 C -0.15611(9) 0.64061(9) 0.5059(3)
H22 H -0.1418 0.6317 0.4057
C23 C -0.16426(11) 0.69182(10) 0.5417(4)
H23 H -0.1546 0.7174 0.4671
C24 C -0.18681(11) 0.70668(10) 0.6883(4)
H24 H -0.1937 0.7420 0.7093
C25 C -0.19895(10) 0.67040(10) 0.8011(4)
H25 H -0.2138 0.6810 0.8991
C26 C -0.18927(9) 0.61569(8) 0.7712(3)
C27 C -0.19875(9) 0.57811(9) 0.8876(3)
H26 H -0.2125 0.5886 0.9869
C28 C -0.18833(8) 0.52494(9) 0.8604(3)
C29 C -0.19627(10) 0.48638(10) 0.9814(3)
H27 H -0.2097 0.4965 1.0815
C30 C -0.18446(13) 0.43515(11) 0.9525(4)
H28 H -0.1894 0.4104 1.0332
C31 C -0.16485(12) 0.41922(10) 0.8023(4)
H29 H -0.1562 0.3840 0.7848
C32 C -0.15829(10) 0.45421(9) 0.6820(3)
H30 H -0.1463 0.4424 0.5822
C33 C -0.16947(8) 0.50871(8) 0.7052(3)
loop_
_geom_bond_atom_site_label_1
_geom_bond_atom_site_label_2
_geom_bond_site_symmetry_1
_geom_bond_site_symmetry_2
N1 H1 1_555 1_555
N2 H2 1_555 1_555
C1 C2 1_555 1_555
C2 H3 1_555 1_555
C3 C2 1_555 1_555
H4 C3 1_555 1_555
C4 C3 1_555 1_555
H5 C4 1_555 1_555
C5 C4 1_555 1_555
H6 C5 1_555 1_555
C6 C1 1_555 1_555
C7 C6 1_555 1_555
H7 C7 1_555 1_555
C8 C7 1_555 1_555
C9 C8 1_555 1_555
H8 C9 1_555 1_555
C10 C9 1_555 1_555
H9 C10 1_555 1_555
C11 C10 1_555 1_555
H10 C11 1_555 1_555
C12 C11 1_555 1_555
H11 C12 1_555 1_555
C13 C8 1_555 1_555
C14 C1 1_555 1_555
C15 N1 1_555 1_555
H12 C15 1_555 1_555
H13 C15 1_555 1_555
C16 N1 1_555 1_555
H14 C16 1_555 1_555
H15 C16 1_555 1_555
C17 C16 1_555 1_555
H16 C17 1_555 1_555
H17 C17 1_555 1_555
C18 N2 1_555 1_555
H18 C18 1_555 1_555
H19 C18 1_555 1_555
C19 N2 1_555 1_555
H20 C19 1_555 1_555
H21 C19 1_555 1_555
C20 C19 1_555 1_555
C21 C20 1_555 1_555
C22 C21 1_555 1_555
H22 C22 1_555 1_555
C23 C22 1_555 1_555
H23 C23 1_555 1_555
C24 C23 1_555 1_555
H24 C24 1_555 1_555
C25 C24 1_555 1_555
H25 C25 1_555 1_555
C26 C21 1_555 1_555
C27 C26 1_555 1_555
H26 C27 1_555 1_555
C28 C27 1_555 1_555
C29 C28 1_555 1_555
H27 C29 1_555 1_555
C30 C29 1_555 1_555
H28 C30 1_555 1_555
C31 C30 1_555 1_555
H29 C31 1_555 1_555
C32 C31 1_555 1_555
H30 C32 1_555 1_555
C33 C20 1_555 1_555
C5 C6 1_555 1_555
C12 C13 1_555 1_555
C13 C14 1_555 1_555
C14 C15 1_555 1_555
C17 C18 1_555 1_555
C25 C26 1_555 1_555
C28 C33 1_555 1_555
C32 C33 1_555 1_555

#END
