
#######################################################################
#
#                 Cambridge Crystallographic Data Centre
#                                CCDC 
#
#######################################################################
#
# If this CIF has been generated from an entry in the Cambridge 
# Structural Database, then it will include bibliographic, chemical, 
# crystal, experimental, refinement or atomic coordinate data resulting 
# from the CCDC's data processing and validation procedures.
#
#######################################################################

data_XIDSUB
_chemical_formula_moiety         'C26 H27 N7 O1 S1,0.44(H2 O1)'
_chemical_name_systematic        
'1-(1-((R)-(1-((1 S)-1-phenylethyl)-1H-1,2,3,4-tetrazol-5-yl)(thiophen-3-yl)methyl)piperidin-4-yl)-2,3-dihydro-1H-1,3-benzodiazol-2-one hydrate'
_symmetry_cell_setting           triclinic
_symmetry_space_group_name_H-M   'P 1'
_symmetry_Int_Tables_number      1
_space_group_name_Hall           'P 1'
loop_
_symmetry_equiv_pos_site_id
_symmetry_equiv_pos_as_xyz
1 x,y,z
_cell_length_a                   9.6239(4)
_cell_length_b                   12.2457(6)
_cell_length_c                   22.6301(10)
_cell_angle_alpha                98.561(2)
_cell_angle_beta                 97.314(2)
_cell_angle_gamma                106.951(2)
_cell_volume                     2481.27
_exptl_crystal_colour            'yellowish colorless'
_exptl_crystal_description       plate
_cell_formula_units_Z            4
loop_
_atom_site_label
_atom_site_type_symbol
_atom_site_fract_x
_atom_site_fract_y
_atom_site_fract_z
C1 C -0.3176(7) 0.1063(5) 0.8799(3)
H1 H -0.3498 0.1502 0.8530
C2 C -0.3409(7) 0.1214(6) 0.9386(4)
H2 H -0.3889 0.1758 0.9517
C3 C -0.2962(7) 0.0592(6) 0.9790(3)
H3 H -0.3140 0.0695 1.0195
C4 C -0.2251(7) -0.0184(5) 0.9594(3)
H4 H -0.1926 -0.0614 0.9868
C5 C -0.2005(6) -0.0341(5) 0.9000(2)
H5 H -0.1510 -0.0877 0.8872
C6 C -0.2471(5) 0.0272(4) 0.8591(2)
C7 C -0.2329(5) 0.0087(4) 0.7927(2)
H6 H -0.2038 0.0865 0.7808
C8 C -0.3796(6) -0.0667(5) 0.7517(2)
H7 H -0.4146 -0.1410 0.7650
H8 H -0.3647 -0.0812 0.7096
H9 H -0.4531 -0.0260 0.7545
N1 N -0.1177(4) -0.0451(3) 0.78273(17)
N2 N -0.1464(5) -0.1613(3) 0.78043(18)
N3 N -0.0227(5) -0.1818(3) 0.7776(2)
N4 N 0.0888(5) -0.0813(3) 0.77908(19)
C9 C 0.0270(5) 0.0020(4) 0.78166(19)
C10 C 0.1057(5) 0.1292(4) 0.7802(2)
H10 H 0.0272 0.1673 0.7757
C11 C 0.2085(7) 0.1927(6) 0.8390(3)
C12 C 0.2984(7) 0.3099(6) 0.8483(3)
H11 H 0.3013 0.3573 0.8185
C13 C 0.3902(7) 0.3504(6) 0.9122(3)
H12 H 0.4637 0.4239 0.9274
S1 S 0.34208(18) 0.24901(14) 0.94884(7)
C14 C 0.2198(7) 0.1491(6) 0.8906(3)
H13 H 0.1661 0.0724 0.8938
N5 N 0.1804(4) 0.1442(3) 0.72795(17)
C15 C 0.3051(5) 0.0973(4) 0.7277(2)
H14 H 0.2684 0.0118 0.7242
H15 H 0.3761 0.1310 0.7664
C16 C 0.3833(5) 0.1265(4) 0.6743(2)
H16 H 0.4224 0.2119 0.6779
H17 H 0.4669 0.0947 0.6742
C17 C 0.2702(5) 0.0720(4) 0.6159(2)
H18 H 0.2278 -0.0128 0.6162
C18 C 0.1441(5) 0.1233(4) 0.6163(2)
H19 H 0.0702 0.0881 0.5784
H20 H 0.1823 0.2084 0.6182
C19 C 0.0718(5) 0.0992(4) 0.6711(2)
H21 H -0.0067 0.1363 0.6726
H22 H 0.0252 0.0142 0.6669
N6 N 0.3337(4) 0.0809(3) 0.56032(16)
C20 C 0.4188(5) 0.1827(4) 0.5461(2)
N7 N 0.4458(4) 0.1538(3) 0.48892(17)
H23 H 0.4998 0.2030 0.4697
C21 C 0.3769(5) 0.0371(4) 0.4655(2)
C22 C 0.3710(5) -0.0307(4) 0.4104(2)
H24 H 0.4185 0.0020 0.3798
C23 C 0.2921(5) -0.1499(4) 0.4009(2)
H25 H 0.2853 -0.1991 0.3633
C24 C 0.2240(5) -0.1964(4) 0.4463(2)
H26 H 0.1720 -0.2774 0.4390
C25 C 0.2296(5) -0.1283(4) 0.5017(2)
H27 H 0.1833 -0.1612 0.5324
C26 C 0.3055(5) -0.0102(4) 0.5106(2)
O1 O 0.4616(4) 0.2810(3) 0.57906(14)
C27 C -0.0751(6) 0.6804(4) 0.9111(3)
H28 H -0.0277 0.7383 0.8902
C28 C -0.0440(6) 0.7007(5) 0.9739(3)
H29 H 0.0232 0.7730 0.9958
C29 C -0.1104(7) 0.6161(5) 1.0050(3)
H30 H -0.0901 0.6303 1.0482
C30 C -0.2063(7) 0.5109(5) 0.9725(3)
H31 H -0.2504 0.4519 0.9935
C31 C -0.2391(6) 0.4903(5) 0.9098(3)
H32 H -0.3053 0.4174 0.8881
C32 C -0.1760(5) 0.5752(4) 0.8783(2)
C33 C -0.2118(5) 0.5548(4) 0.8094(2)
H33 H -0.1549 0.6269 0.7966
C34 C -0.3758(6) 0.5321(6) 0.7856(3)
H34 H -0.4347 0.4637 0.7992
H35 H -0.3937 0.5180 0.7411
H36 H -0.4039 0.6000 0.8014
N8 N -0.1638(4) 0.4588(3) 0.78216(18)
N9 N -0.2411(4) 0.3458(3) 0.7816(2)
N10 N -0.1637(5) 0.2843(3) 0.75980(19)
N11 N -0.0374(4) 0.3532(3) 0.74572(18)
C35 C -0.0392(5) 0.4612(4) 0.75969(19)
C36 C 0.0734(5) 0.5717(4) 0.7514(2)
H37 H 0.0194 0.6296 0.7476
C37 C 0.1922(5) 0.6233(4) 0.8067(2)
C38 C 0.2939(6) 0.7386(4) 0.8155(2)
H38 H 0.2919 0.7895 0.7878
C39 C 0.3945(6) 0.7673(5) 0.8685(3)
H39 H 0.4708 0.8399 0.8817
S2 S 0.36588(17) 0.65678(15) 0.90763(7)
C40 C 0.2185(6) 0.5702(5) 0.8535(2)
H40 H 0.1617 0.4937 0.8559
N12 N 0.1358(4) 0.5584(3) 0.69579(17)
C41 C 0.2350(5) 0.4864(4) 0.6951(2)
H41 H 0.1771 0.4038 0.6920
H42 H 0.3085 0.5117 0.7333
C42 C 0.3139(5) 0.4993(4) 0.6409(2)
H43 H 0.3793 0.4501 0.6397
H44 H 0.3757 0.5813 0.6450
C43 C 0.1997(5) 0.4624(4) 0.58212(19)
H45 H 0.1447 0.3780 0.5786
C44 C 0.0862(5) 0.5271(4) 0.5843(2)
H46 H 0.1343 0.6099 0.5832
H47 H 0.0067 0.4933 0.5482
C45 C 0.0201(5) 0.5191(4) 0.6415(2)
H48 H -0.0460 0.5676 0.6438
H49 H -0.0398 0.4374 0.6399
N13 N 0.2678(4) 0.4726(3) 0.52795(16)
C46 C 0.3554(5) 0.5754(4) 0.5157(2)
N14 N 0.3874(4) 0.5480(3) 0.45942(17)
H50 H 0.4418 0.5983 0.4409
C47 C 0.3221(5) 0.4299(4) 0.4355(2)
C48 C 0.3217(5) 0.3616(4) 0.3810(2)
H51 H 0.3744 0.3939 0.3516
C49 C 0.2407(5) 0.2429(4) 0.3707(2)
H52 H 0.2386 0.1937 0.3337
C50 C 0.1635(5) 0.1966(4) 0.4136(2)
H53 H 0.1087 0.1160 0.4054
C51 C 0.1647(5) 0.2657(4) 0.4690(2)
H54 H 0.1122 0.2336 0.4984
C52 C 0.2446(5) 0.3818(4) 0.47892(19)
O2 O 0.3955(3) 0.6728(3) 0.54890(14)
C53 C 1.1703(5) 1.0157(4) 0.0869(2)
H55 H 1.1081 1.0536 0.1046
C54 C 1.1862(6) 1.0191(4) 0.0267(2)
H56 H 1.1361 1.0597 0.0038
C55 C 1.2749(6) 0.9630(5) 0.0010(2)
H57 H 1.2851 0.9641 -0.0402
C56 C 1.3497(6) 0.9048(4) 0.0344(2)
H58 H 1.4113 0.8668 0.0163
C57 C 1.3346(5) 0.9020(4) 0.0945(2)
H59 H 1.3858 0.8620 0.1173
C58 C 1.2442(5) 0.9578(4) 0.1213(2)
C59 C 1.2335(5) 0.9648(4) 0.1880(2)
H60 H 1.1654 1.0107 0.1968
C60 C 1.3798(5) 1.0271(4) 0.2306(2)
H61 H 1.4506 0.9856 0.2226
H62 H 1.3652 1.0290 0.2728
H63 H 1.4182 1.1068 0.2240
N15 N 1.1663(4) 0.8473(3) 0.20074(16)
N16 N 1.2479(4) 0.7748(3) 0.20671(19)
N17 N 1.1581(5) 0.6793(3) 0.2164(2)
N18 N 1.0201(4) 0.6866(3) 0.21668(19)
C61 C 1.0283(5) 0.7929(4) 0.20725(19)
C62 C 0.9030(5) 0.8438(4) 0.2053(2)
H64 H 0.9431 0.9284 0.2043
C63 C 0.7884(6) 0.7840(5) 0.1486(3)
C64 C 0.6967(6) 0.6667(5) 0.1389(3)
H65 H 0.7003 0.6161 0.1667
C65 C 0.5994(6) 0.6350(6) 0.0826(3)
H66 H 0.5298 0.5598 0.0674
S3 S 0.62122(16) 0.74472(13) 0.04639(6)
C66 C 0.7599(6) 0.8364(6) 0.1023(3)
H67 H 0.8108 0.9149 0.1010
N19 N 0.8371(4) 0.8319(3) 0.26032(16)
C67 C 0.7197(5) 0.8865(4) 0.2603(2)
H68 H 0.6451 0.8513 0.2227
H69 H 0.7625 0.9706 0.2606
C68 C 0.6451(5) 0.8708(4) 0.3155(2)
H70 H 0.5672 0.9087 0.3147
H71 H 0.5984 0.7868 0.3145
C69 C 0.7604(5) 0.9251(4) 0.37309(19)
H72 H 0.8029 1.0098 0.3728
C70 C 0.8861(5) 0.8731(4) 0.3722(2)
H73 H 0.9639 0.9125 0.4085
H74 H 0.8487 0.7893 0.3737
C71 C 0.9511(5) 0.8874(4) 0.31512(19)
H75 H 0.9944 0.9713 0.3150
H76 H 1.0311 0.8517 0.3147
N20 N 0.6990(4) 0.9161(3) 0.42877(17)
C72 C 0.6157(5) 0.8156(4) 0.4434(2)
N21 N 0.5882(4) 0.8437(3) 0.50099(17)
H77 H 0.5346 0.7946 0.5203
C73 C 0.6582(5) 0.9616(4) 0.5239(2)
C74 C 0.6651(5) 1.0304(4) 0.5794(2)
H78 H 0.6182 0.9985 0.6103
C75 C 0.7441(5) 1.1485(4) 0.5879(2)
H79 H 0.7532 1.1979 0.6258
C76 C 0.8104(5) 1.1958(4) 0.5418(2)
H80 H 0.8619 1.2768 0.5486
C77 C 0.8019(5) 1.1257(4) 0.4861(2)
H81 H 0.8460 1.1575 0.4546
C78 C 0.7269(5) 1.0083(4) 0.47839(19)
O3 O 0.5727(3) 0.7162(3) 0.41065(14)
C79 C 1.2244(6) 0.5141(5) 0.0964(3)
H82 H 1.2863 0.5840 0.1227
C80 C 1.1863(7) 0.5130(6) 0.0349(3)
H83 H 1.2227 0.5817 0.0193
C81 C 1.0948(7) 0.4113(6) -0.0037(3)
H84 H 1.0684 0.4098 -0.0458
C82 C 1.0425(7) 0.3123(6) 0.0199(3)
H85 H 0.9785 0.2428 -0.0062
C83 C 1.0824(6) 0.3134(5) 0.0809(2)
H86 H 1.0470 0.2441 0.0961
C84 C 1.1731(5) 0.4137(4) 0.1202(2)
C85 C 1.2230(5) 0.4216(4) 0.1871(2)
H87 H 1.2116 0.4946 0.2093
C86 C 1.3843(5) 0.4294(5) 0.2029(3)
H88 H 1.4003 0.3610 0.1799
H89 H 1.4100 0.4321 0.2465
H90 H 1.4465 0.5001 0.1923
N22 N 1.1294(4) 0.3227(3) 0.20948(17)
N23 N 1.1629(5) 0.2233(3) 0.20905(18)
N24 N 1.0570(5) 0.1528(3) 0.22763(19)
N25 N 0.9521(4) 0.2034(3) 0.24046(18)
C87 C 0.9994(5) 0.3088(4) 0.22832(19)
C88 C 0.9153(5) 0.3950(4) 0.23028(19)
H91 H 0.9809 0.4722 0.2258
C89 C 0.7865(5) 0.3483(4) 0.1773(2)
C90 C 0.6688(5) 0.2416(4) 0.1709(2)
H92 H 0.6612 0.1917 0.1995
C91 C 0.5687(5) 0.2203(4) 0.1186(2)
H93 H 0.4830 0.1538 0.1065
S4 S 0.61640(14) 0.32769(11) 0.07783(6)
C92 C 0.7724(5) 0.4021(4) 0.1302(2)
H94 H 0.8412 0.4731 0.1264
N26 N 0.8631(4) 0.4070(3) 0.28896(16)
C93 C 0.7731(5) 0.4864(4) 0.2905(2)
H95 H 0.6928 0.4599 0.2545
H96 H 0.8355 0.5659 0.2893
C94 C 0.7076(5) 0.4881(4) 0.34801(19)
H97 H 0.6480 0.5418 0.3491
H98 H 0.6414 0.4092 0.3480
C95 C 0.8281(5) 0.5270(4) 0.40387(19)
H99 H 0.8839 0.6106 0.4057
C96 C 0.9379(5) 0.4589(4) 0.4001(2)
H100 H 1.0239 0.4956 0.4335
H101 H 0.8903 0.3783 0.4051
C97 C 0.9908(5) 0.4559(4) 0.3392(2)
H102 H 1.0469 0.5357 0.3357
H103 H 1.0572 0.4076 0.3368
N27 N 0.7671(4) 0.5200(3) 0.45986(16)
C98 C 0.6786(5) 0.4191(4) 0.4733(2)
N28 N 0.6468(4) 0.4482(3) 0.53000(16)
H104 H 0.5924 0.3993 0.5492
C99 C 0.7137(4) 0.5665(4) 0.5523(2)
C100 C 0.7154(5) 0.6370(4) 0.6065(2)
H105 H 0.6625 0.6065 0.6362
C101 C 0.7973(5) 0.7539(4) 0.6157(2)
H106 H 0.8009 0.8042 0.6525
C102 C 0.8745(5) 0.7991(4) 0.5719(2)
H107 H 0.9305 0.8793 0.5796
C103 C 0.8707(5) 0.7287(4) 0.5175(2)
H108 H 0.9221 0.7595 0.4874
C104 C 0.7897(5) 0.6121(4) 0.5083(2)
O4 O 0.6384(3) 0.3209(3) 0.44059(14)
O5 O 0.6881(5) 0.1705(3) 0.33524(18)
H109 H 0.7458 0.2086 0.3134
H110 H 0.6751 0.2194 0.3645
O6 O 0.3141(6) 0.8036(4) 0.6521(3)
H111 H 0.2808 0.7497 0.6725
H112 H 0.3486 0.7751 0.6218
loop_
_geom_bond_atom_site_label_1
_geom_bond_atom_site_label_2
_geom_bond_site_symmetry_1
_geom_bond_site_symmetry_2
C1 H1 1_555 1_555
C2 C1 1_555 1_555
H2 C2 1_555 1_555
C3 C2 1_555 1_555
H3 C3 1_555 1_555
C4 C3 1_555 1_555
H4 C4 1_555 1_555
C5 C4 1_555 1_555
H5 C5 1_555 1_555
C6 C1 1_555 1_555
C7 C6 1_555 1_555
H6 C7 1_555 1_555
C8 C7 1_555 1_555
H7 C8 1_555 1_555
H8 C8 1_555 1_555
H9 C8 1_555 1_555
N1 C7 1_555 1_555
N2 N1 1_555 1_555
N3 N2 1_555 1_555
N4 N3 1_555 1_555
C9 N1 1_555 1_555
C10 C9 1_555 1_555
H10 C10 1_555 1_555
C11 C10 1_555 1_555
C12 C11 1_555 1_555
H11 C12 1_555 1_555
C13 C12 1_555 1_555
H12 C13 1_555 1_555
S1 C13 1_555 1_555
C14 C11 1_555 1_555
H13 C14 1_555 1_555
N5 C10 1_555 1_555
C15 N5 1_555 1_555
H14 C15 1_555 1_555
H15 C15 1_555 1_555
C16 C15 1_555 1_555
H16 C16 1_555 1_555
H17 C16 1_555 1_555
C17 C16 1_555 1_555
H18 C17 1_555 1_555
C18 C17 1_555 1_555
H19 C18 1_555 1_555
H20 C18 1_555 1_555
C19 N5 1_555 1_555
H21 C19 1_555 1_555
H22 C19 1_555 1_555
N6 C17 1_555 1_555
C20 N6 1_555 1_555
N7 C20 1_555 1_555
H23 N7 1_555 1_555
C21 N7 1_555 1_555
C22 C21 1_555 1_555
H24 C22 1_555 1_555
C23 C22 1_555 1_555
H25 C23 1_555 1_555
C24 C23 1_555 1_555
H26 C24 1_555 1_555
C25 C24 1_555 1_555
H27 C25 1_555 1_555
C26 N6 1_555 1_555
O1 C20 1_555 1_555
C27 H28 1_555 1_555
C28 C27 1_555 1_555
H29 C28 1_555 1_555
C29 C28 1_555 1_555
H30 C29 1_555 1_555
C30 C29 1_555 1_555
H31 C30 1_555 1_555
C31 C30 1_555 1_555
H32 C31 1_555 1_555
C32 C27 1_555 1_555
C33 C32 1_555 1_555
H33 C33 1_555 1_555
C34 C33 1_555 1_555
H34 C34 1_555 1_555
H35 C34 1_555 1_555
H36 C34 1_555 1_555
N8 C33 1_555 1_555
N9 N8 1_555 1_555
N10 N9 1_555 1_555
N11 N10 1_555 1_555
C35 N8 1_555 1_555
C36 C35 1_555 1_555
H37 C36 1_555 1_555
C37 C36 1_555 1_555
C38 C37 1_555 1_555
H38 C38 1_555 1_555
C39 C38 1_555 1_555
H39 C39 1_555 1_555
S2 C39 1_555 1_555
C40 C37 1_555 1_555
H40 C40 1_555 1_555
N12 C36 1_555 1_555
C41 N12 1_555 1_555
H41 C41 1_555 1_555
H42 C41 1_555 1_555
C42 C41 1_555 1_555
H43 C42 1_555 1_555
H44 C42 1_555 1_555
C43 C42 1_555 1_555
H45 C43 1_555 1_555
C44 C43 1_555 1_555
H46 C44 1_555 1_555
H47 C44 1_555 1_555
C45 N12 1_555 1_555
H48 C45 1_555 1_555
H49 C45 1_555 1_555
N13 C43 1_555 1_555
C46 N13 1_555 1_555
N14 C46 1_555 1_555
H50 N14 1_555 1_555
C47 N14 1_555 1_555
C48 C47 1_555 1_555
H51 C48 1_555 1_555
C49 C48 1_555 1_555
H52 C49 1_555 1_555
C50 C49 1_555 1_555
H53 C50 1_555 1_555
C51 C50 1_555 1_555
H54 C51 1_555 1_555
C52 N13 1_555 1_555
O2 C46 1_555 1_555
C53 H55 1_555 1_555
C54 C53 1_555 1_555
H56 C54 1_555 1_555
C55 C54 1_555 1_555
H57 C55 1_555 1_555
C56 C55 1_555 1_555
H58 C56 1_555 1_555
C57 C56 1_555 1_555
H59 C57 1_555 1_555
C58 C53 1_555 1_555
C59 C58 1_555 1_555
H60 C59 1_555 1_555
C60 C59 1_555 1_555
H61 C60 1_555 1_555
H62 C60 1_555 1_555
H63 C60 1_555 1_555
N15 C59 1_555 1_555
N16 N15 1_555 1_555
N17 N16 1_555 1_555
N18 N17 1_555 1_555
C61 N15 1_555 1_555
C62 C61 1_555 1_555
H64 C62 1_555 1_555
C63 C62 1_555 1_555
C64 C63 1_555 1_555
H65 C64 1_555 1_555
C65 C64 1_555 1_555
H66 C65 1_555 1_555
S3 C65 1_555 1_555
C66 C63 1_555 1_555
H67 C66 1_555 1_555
N19 C62 1_555 1_555
C67 N19 1_555 1_555
H68 C67 1_555 1_555
H69 C67 1_555 1_555
C68 C67 1_555 1_555
H70 C68 1_555 1_555
H71 C68 1_555 1_555
C69 C68 1_555 1_555
H72 C69 1_555 1_555
C70 C69 1_555 1_555
H73 C70 1_555 1_555
H74 C70 1_555 1_555
C71 N19 1_555 1_555
H75 C71 1_555 1_555
H76 C71 1_555 1_555
N20 C69 1_555 1_555
C72 N20 1_555 1_555
N21 C72 1_555 1_555
H77 N21 1_555 1_555
C73 N21 1_555 1_555
C74 C73 1_555 1_555
H78 C74 1_555 1_555
C75 C74 1_555 1_555
H79 C75 1_555 1_555
C76 C75 1_555 1_555
H80 C76 1_555 1_555
C77 C76 1_555 1_555
H81 C77 1_555 1_555
C78 N20 1_555 1_555
O3 C72 1_555 1_555
C79 H82 1_555 1_555
C80 C79 1_555 1_555
H83 C80 1_555 1_555
C81 C80 1_555 1_555
H84 C81 1_555 1_555
C82 C81 1_555 1_555
H85 C82 1_555 1_555
C83 C82 1_555 1_555
H86 C83 1_555 1_555
C84 C79 1_555 1_555
C85 C84 1_555 1_555
H87 C85 1_555 1_555
C86 C85 1_555 1_555
H88 C86 1_555 1_555
H89 C86 1_555 1_555
H90 C86 1_555 1_555
N22 C85 1_555 1_555
N23 N22 1_555 1_555
N24 N23 1_555 1_555
N25 N24 1_555 1_555
C87 N22 1_555 1_555
C88 C87 1_555 1_555
H91 C88 1_555 1_555
C89 C88 1_555 1_555
C90 C89 1_555 1_555
H92 C90 1_555 1_555
C91 C90 1_555 1_555
H93 C91 1_555 1_555
S4 C91 1_555 1_555
C92 C89 1_555 1_555
H94 C92 1_555 1_555
N26 C88 1_555 1_555
C93 N26 1_555 1_555
H95 C93 1_555 1_555
H96 C93 1_555 1_555
C94 C93 1_555 1_555
H97 C94 1_555 1_555
H98 C94 1_555 1_555
C95 C94 1_555 1_555
H99 C95 1_555 1_555
C96 C95 1_555 1_555
H100 C96 1_555 1_555
H101 C96 1_555 1_555
C97 N26 1_555 1_555
H102 C97 1_555 1_555
H103 C97 1_555 1_555
N27 C95 1_555 1_555
C98 N27 1_555 1_555
N28 C98 1_555 1_555
H104 N28 1_555 1_555
C99 N28 1_555 1_555
C100 C99 1_555 1_555
H105 C100 1_555 1_555
C101 C100 1_555 1_555
H106 C101 1_555 1_555
C102 C101 1_555 1_555
H107 C102 1_555 1_555
C103 C102 1_555 1_555
H108 C103 1_555 1_555
C104 N27 1_555 1_555
O4 C98 1_555 1_555
O5 H109 1_555 1_555
H110 O5 1_555 1_555
O6 H111 1_555 1_555
H112 O6 1_555 1_555
C5 C6 1_555 1_555
N4 C9 1_555 1_555
S1 C14 1_555 1_555
C18 C19 1_555 1_555
C21 C26 1_555 1_555
C25 C26 1_555 1_555
C31 C32 1_555 1_555
N11 C35 1_555 1_555
S2 C40 1_555 1_555
C44 C45 1_555 1_555
C47 C52 1_555 1_555
C51 C52 1_555 1_555
C57 C58 1_555 1_555
N18 C61 1_555 1_555
S3 C66 1_555 1_555
C70 C71 1_555 1_555
C73 C78 1_555 1_555
C77 C78 1_555 1_555
C83 C84 1_555 1_555
N25 C87 1_555 1_555
S4 C92 1_555 1_555
C96 C97 1_555 1_555
C99 C104 1_555 1_555
C103 C104 1_555 1_555

#END
