
#######################################################################
#
#                 Cambridge Crystallographic Data Centre
#                                CCDC 
#
#######################################################################
#
# If this CIF has been generated from an entry in the Cambridge 
# Structural Database, then it will include bibliographic, chemical, 
# crystal, experimental, refinement or atomic coordinate data resulting 
# from the CCDC's data processing and validation procedures.
#
#######################################################################

data_XIDXUG
_chemical_formula_moiety         'C17 H14 N2 O1'
_chemical_name_systematic        3-methyl-2-phenylquinoline-4-carboxamide
_symmetry_cell_setting           monoclinic
_symmetry_space_group_name_H-M   'P 21/c'
_symmetry_Int_Tables_number      14
_space_group_name_Hall           '-P 2ybc'
loop_
_symmetry_equiv_pos_site_id
_symmetry_equiv_pos_as_xyz
1 x,y,z
2 -x,1/2+y,1/2-z
3 -x,-y,-z
4 x,1/2-y,1/2+z
_cell_length_a                   8.0149(19)
_cell_length_b                   19.705(5)
_cell_length_c                   8.942(2)
_cell_angle_alpha                90
_cell_angle_beta                 106.191(4)
_cell_angle_gamma                90
_cell_volume                     1356.23
_exptl_crystal_colour            colorless
_exptl_crystal_description       Block
_cell_formula_units_Z            4
loop_
_atom_site_label
_atom_site_type_symbol
_atom_site_fract_x
_atom_site_fract_y
_atom_site_fract_z
C1 C 0.1552(3) 0.09145(9) 0.0811(2)
H1 H 0.0537 0.0999 0.0026
C2 C 0.2487(3) 0.03299(10) 0.0765(3)
H2 H 0.2106 0.0026 -0.0055
C3 C 0.3984(3) 0.01967(10) 0.1932(3)
H3 H 0.4611 -0.0198 0.1904
C4 C 0.4540(2) 0.06445(10) 0.3125(3)
H4 H 0.5546 0.0553 0.3916
C5 C 0.3625(2) 0.12352(9) 0.3173(2)
H5 H 0.4027 0.1540 0.3988
C6 C 0.21110(19) 0.13756(8) 0.2014(2)
C7 C 0.11486(19) 0.20215(8) 0.20350(19)
C8 C -0.05675(19) 0.20244(8) 0.2209(2)
C9 C -0.13887(19) 0.26392(7) 0.21522(19)
C10 C -0.05287(19) 0.32467(8) 0.19425(18)
C11 C 0.1193(2) 0.31914(8) 0.1841(2)
C12 C 0.2111(2) 0.37855(8) 0.1679(2)
H6 H 0.3253 0.3754 0.1631
C13 C 0.1336(2) 0.44046(9) 0.1592(2)
H7 H 0.1951 0.4793 0.1486
C14 C -0.0383(3) 0.44602(9) 0.1662(2)
H8 H -0.0906 0.4885 0.1587
C15 C -0.1290(2) 0.38988(8) 0.1838(2)
H9 H -0.2428 0.3943 0.1891
C16 C -0.1415(2) 0.13746(9) 0.2490(3)
H10 H -0.2262 0.1471 0.3038
H11 H -0.0549 0.1073 0.3101
H12 H -0.1977 0.1165 0.1510
C17 C -0.3169(2) 0.26960(8) 0.2402(2)
H13 H -0.431(3) 0.2295(10) 0.038(3)
H14 H -0.552(3) 0.2490(9) 0.141(2)
N1 N 0.20013(17) 0.25780(7) 0.18728(18)
N2 N -0.44867(18) 0.24805(8) 0.12538(19)
O1 O -0.33209(17) 0.29504(8) 0.36108(16)
loop_
_geom_bond_atom_site_label_1
_geom_bond_atom_site_label_2
_geom_bond_site_symmetry_1
_geom_bond_site_symmetry_2
C1 H1 1_555 1_555
C2 C1 1_555 1_555
H2 C2 1_555 1_555
C3 C2 1_555 1_555
H3 C3 1_555 1_555
C4 C3 1_555 1_555
H4 C4 1_555 1_555
C5 C4 1_555 1_555
H5 C5 1_555 1_555
C6 C1 1_555 1_555
C7 C6 1_555 1_555
C8 C7 1_555 1_555
C9 C8 1_555 1_555
C10 C9 1_555 1_555
C11 C10 1_555 1_555
C12 C11 1_555 1_555
H6 C12 1_555 1_555
C13 C12 1_555 1_555
H7 C13 1_555 1_555
C14 C13 1_555 1_555
H8 C14 1_555 1_555
C15 C10 1_555 1_555
H9 C15 1_555 1_555
C16 C8 1_555 1_555
H10 C16 1_555 1_555
H11 C16 1_555 1_555
H12 C16 1_555 1_555
C17 C9 1_555 1_555
H13 N2 1_555 1_555
H14 N2 1_555 1_555
N1 C7 1_555 1_555
N2 C17 1_555 1_555
O1 C17 1_555 1_555
C5 C6 1_555 1_555
C11 N1 1_555 1_555
C14 C15 1_555 1_555

#END
