
#######################################################################
#
#                 Cambridge Crystallographic Data Centre
#                                CCDC 
#
#######################################################################
#
# If this CIF has been generated from an entry in the Cambridge 
# Structural Database, then it will include bibliographic, chemical, 
# crystal, experimental, refinement or atomic coordinate data resulting 
# from the CCDC's data processing and validation procedures.
#
#######################################################################

data_XIDYER
_chemical_compound_source        
'liquid cultures of endophytic fungus Aspergillus sp. TJ23'
_chemical_name_common            'andiconin C'
_chemical_formula_moiety         'C25 H30 O5'
_chemical_name_systematic        
1,1,4b,6,12b-pentamethyl-1,3,3a,4a,4b,11,12,12a,12b,12c-decahydro-10H-6,10b-methanobenzo[cd]furo[3',4':7,7a]indeno[1,2,3-hi][2]benzofuran-2,5,8(6H)-trione
_symmetry_cell_setting           orthorhombic
_symmetry_space_group_name_H-M   'P 21 21 21'
_symmetry_Int_Tables_number      19
_space_group_name_Hall           'P 2ac 2ab'
loop_
_symmetry_equiv_pos_site_id
_symmetry_equiv_pos_as_xyz
1 x,y,z
2 1/2-x,-y,1/2+z
3 -x,1/2+y,1/2-z
4 1/2+x,1/2-y,-z
_cell_length_a                   9.22259(8)
_cell_length_b                   14.56007(14)
_cell_length_c                   15.09953(13)
_cell_angle_alpha                90
_cell_angle_beta                 90
_cell_angle_gamma                90
_cell_volume                     2027.59
_exptl_crystal_colour            colorless
_exptl_crystal_description       block
_cell_formula_units_Z            4
loop_
_atom_site_label
_atom_site_type_symbol
_atom_site_fract_x
_atom_site_fract_y
_atom_site_fract_z
O1 O 0.42508(13) 0.45048(8) 0.68424(8)
O2 O 0.10248(13) 0.67452(9) 0.67341(8)
O3 O 0.30950(15) 0.47563(9) 0.95680(8)
O4 O -0.02765(16) 0.75642(11) 0.77067(10)
O5 O 0.76882(19) 0.46068(11) 0.45788(10)
C1 C 0.44148(19) 0.48271(11) 0.77350(11)
H1 H 0.472082 0.433249 0.813348
C2 C 0.31716(18) 0.53980(12) 0.90604(11)
C3 C 0.19891(19) 0.68370(12) 0.81275(12)
C4 C 0.55541(17) 0.55996(11) 0.76907(10)
H2 H 0.623654 0.552538 0.818297
C5 C 0.30510(19) 0.62509(11) 0.76319(11)
C6 C 0.46926(17) 0.65199(11) 0.78204(11)
C7 C 0.0789(2) 0.71193(13) 0.75443(12)
C8 C 0.63721(18) 0.54287(11) 0.68018(11)
C9 C 0.6778(2) 0.49803(13) 0.50348(11)
C10 C 0.60268(18) 0.61815(11) 0.61143(10)
H3 H 0.498011 0.614199 0.600912
C11 C 0.47306(19) 0.67699(12) 0.88267(11)
H4 H 0.561604 0.652740 0.908273
H5 H 0.475874 0.743303 0.888560
C12 C 0.56772(19) 0.45215(12) 0.64748(11)
H6 H 0.623335 0.399996 0.670493
C13 C 0.24627(18) 0.63302(13) 0.66749(11)
H7 H 0.309948 0.671111 0.631922
H8 H 0.240150 0.572766 0.640351
C14 C 0.30067(18) 0.52691(11) 0.80459(11)
C15 C 0.6287(2) 0.71341(12) 0.65011(11)
H9 H 0.613405 0.759049 0.604246
H10 H 0.728737 0.717954 0.669431
C16 C 0.16590(19) 0.46970(14) 0.78542(12)
H11 H 0.157901 0.459634 0.722773
H12 H 0.081524 0.501765 0.806155
H13 H 0.173391 0.411665 0.815240
C17 C 0.21126(19) 0.69000(12) 0.90036(12)
H14 H 0.146266 0.722123 0.935831
C18 C 0.5280(2) 0.73458(12) 0.72895(12)
H15 H 0.445792 0.769204 0.706838
H16 H 0.580195 0.774210 0.769596
C19 C 0.3618(2) 0.64798(14) 1.03593(11)
H17 H 0.279338 0.622063 1.065586
H18 H 0.371003 0.711585 1.051708
H19 H 0.447833 0.615558 1.053407
C20 C 0.5760(2) 0.64112(14) 0.44702(11)
H20 H 0.616920 0.628424 0.389861
H21 H 0.567480 0.706333 0.454850
H22 H 0.481730 0.613448 0.451118
C21 C 0.34169(19) 0.63962(13) 0.93617(11)
C22 C 0.5566(2) 0.44446(13) 0.54657(12)
H23 H 0.562609 0.380454 0.529118
H24 H 0.463787 0.468328 0.526958
C23 C 0.6754(2) 0.60116(13) 0.51977(11)
C24 C 0.79917(19) 0.52866(14) 0.69740(12)
H25 H 0.842219 0.585858 0.714965
H26 H 0.845108 0.506979 0.644319
H27 H 0.811785 0.484216 0.743732
C25 C 0.8266(2) 0.64302(15) 0.50847(13)
H28 H 0.889211 0.620821 0.554505
H29 H 0.820024 0.708724 0.511977
H30 H 0.865222 0.625763 0.451832
loop_
_geom_bond_atom_site_label_1
_geom_bond_atom_site_label_2
_geom_bond_site_symmetry_1
_geom_bond_site_symmetry_2
O1 C1 1_555 1_555
O2 C7 1_555 1_555
O3 C2 1_555 1_555
O4 C7 1_555 1_555
O5 C9 1_555 1_555
C1 H1 1_555 1_555
C2 C14 1_555 1_555
C3 C5 1_555 1_555
C4 C1 1_555 1_555
H2 C4 1_555 1_555
C5 C6 1_555 1_555
C6 C4 1_555 1_555
C7 C3 1_555 1_555
C8 C4 1_555 1_555
C9 C22 1_555 1_555
C10 C8 1_555 1_555
H3 C10 1_555 1_555
C11 C6 1_555 1_555
H4 C11 1_555 1_555
H5 C11 1_555 1_555
C12 O1 1_555 1_555
H6 C12 1_555 1_555
C13 O2 1_555 1_555
H7 C13 1_555 1_555
H8 C13 1_555 1_555
C14 C1 1_555 1_555
C15 C10 1_555 1_555
H9 C15 1_555 1_555
H10 C15 1_555 1_555
C16 C14 1_555 1_555
H11 C16 1_555 1_555
H12 C16 1_555 1_555
H13 C16 1_555 1_555
C17 C3 1_555 1_555
H14 C17 1_555 1_555
C18 C6 1_555 1_555
H15 C18 1_555 1_555
H16 C18 1_555 1_555
C19 H17 1_555 1_555
H18 C19 1_555 1_555
H19 C19 1_555 1_555
C20 H20 1_555 1_555
H21 C20 1_555 1_555
H22 C20 1_555 1_555
C21 C2 1_555 1_555
C22 C12 1_555 1_555
H23 C22 1_555 1_555
H24 C22 1_555 1_555
C23 C9 1_555 1_555
C24 C8 1_555 1_555
H25 C24 1_555 1_555
H26 C24 1_555 1_555
H27 C24 1_555 1_555
C25 C23 1_555 1_555
H28 C25 1_555 1_555
H29 C25 1_555 1_555
H30 C25 1_555 1_555
C5 C13 1_555 1_555
C5 C14 1_555 1_555
C8 C12 1_555 1_555
C10 C23 1_555 1_555
C11 C21 1_555 1_555
C15 C18 1_555 1_555
C17 C21 1_555 1_555
C19 C21 1_555 1_555
C20 C23 1_555 1_555

#END
