
#######################################################################
#
#                 Cambridge Crystallographic Data Centre
#                                CCDC 
#
#######################################################################
#
# If this CIF has been generated from an entry in the Cambridge 
# Structural Database, then it will include bibliographic, chemical, 
# crystal, experimental, refinement or atomic coordinate data resulting 
# from the CCDC's data processing and validation procedures.
#
#######################################################################

data_XIDZAO
_chemical_name_common            '(+-)-neolaxiflorin L'
_chemical_formula_moiety         'C20 H26 O5'
_chemical_name_systematic        
(+-)-6,7-dihydroxy-7,20-epoxykaur-16-ene-1,15-dione
_symmetry_cell_setting           orthorhombic
_symmetry_space_group_name_H-M   'P b c a'
_symmetry_Int_Tables_number      61
_space_group_name_Hall           '-P 2ac 2ab'
loop_
_symmetry_equiv_pos_site_id
_symmetry_equiv_pos_as_xyz
1 x,y,z
2 1/2-x,-y,1/2+z
3 -x,1/2+y,1/2-z
4 1/2+x,1/2-y,-z
5 -x,-y,-z
6 1/2+x,y,1/2-z
7 x,1/2-y,1/2+z
8 1/2-x,1/2+y,z
_cell_length_a                   14.0951(8)
_cell_length_b                   12.5021(7)
_cell_length_c                   19.9208(11)
_cell_angle_alpha                90
_cell_angle_beta                 90
_cell_angle_gamma                90
_cell_volume                     3510.41
_exptl_crystal_colour            colorless
_exptl_crystal_description       Plate
_cell_formula_units_Z            8
loop_
_atom_site_label
_atom_site_type_symbol
_atom_site_fract_x
_atom_site_fract_y
_atom_site_fract_z
O1 O 0.04846(9) 0.46670(14) 0.37626(9)
C1 C 0.10676(12) 0.41837(15) 0.40892(11)
C2 C 0.08263(14) 0.32926(17) 0.45574(13)
H1 H 0.1066 0.2628 0.4372
H2 H 0.0141 0.3233 0.4587
C3 C 0.12305(18) 0.3437(2) 0.52672(14)
H3 H 0.1438 0.2744 0.5431
H4 H 0.0724 0.3680 0.5559
C4 C 0.20667(14) 0.42267(18) 0.53265(10)
C5 C 0.16851(18) 0.5363(2) 0.54264(13)
H5 H 0.1232 0.5524 0.5081
H6 H 0.2200 0.5864 0.5404
H7 H 0.1383 0.5415 0.5857
C6 C 0.2663(2) 0.3930(3) 0.59402(11)
H8 H 0.2949 0.3242 0.5871
H9 H 0.2264 0.3904 0.6330
H10 H 0.3150 0.4456 0.6005
C7 C 0.26596(11) 0.41043(12) 0.46804(7)
H11 H 0.2776 0.3335 0.4635
C8 C 0.36448(11) 0.46283(12) 0.46721(7)
H12 H 0.3605 0.5280 0.4944
O2 O 0.43531(9) 0.39678(10) 0.49635(6)
H13 H 0.4498(15) 0.3503(17) 0.4687(11)
O3 O 0.47919(8) 0.53118(10) 0.38668(6)
H14 H 0.5002(15) 0.5564(17) 0.4233(10)
C9 C 0.38673(11) 0.49711(12) 0.39484(7)
O4 O 0.32614(8) 0.58752(8) 0.38178(6)
C10 C 0.22722(12) 0.56195(13) 0.38638(9)
H15 H 0.1965 0.5781 0.3440
H16 H 0.1980 0.6058 0.4208
C11 C 0.21241(11) 0.44348(12) 0.40331(8)
C12 C 0.25658(11) 0.37709(12) 0.34561(8)
H17 H 0.2562 0.3021 0.3599
C13 C 0.20653(14) 0.3824(2) 0.27761(10)
H18 H 0.1982 0.4566 0.2647
H19 H 0.1442 0.3500 0.2813
C14 C 0.26385(16) 0.3242(2) 0.22365(10)
H20 H 0.2411 0.3456 0.1797
H21 H 0.2539 0.2477 0.2281
C15 C 0.37093(15) 0.34829(16) 0.22869(8)
H22 H 0.4000 0.3531 0.1841
C16 C 0.38646(14) 0.45165(14) 0.26893(8)
H23 H 0.3432 0.5077 0.2548
H24 H 0.4513 0.4770 0.2650
C17 C 0.36441(10) 0.41322(12) 0.34051(7)
C18 C 0.42018(11) 0.30984(13) 0.34201(8)
O5 O 0.45383(10) 0.26508(11) 0.39052(7)
C19 C 0.42223(15) 0.26889(16) 0.27205(9)
C20 C 0.4659(3) 0.1791(2) 0.25615(15)
H25 H 0.476(2) 0.157(3) 0.2109(16)
H26 H 0.504(2) 0.139(3) 0.2933(16)
loop_
_geom_bond_atom_site_label_1
_geom_bond_atom_site_label_2
_geom_bond_site_symmetry_1
_geom_bond_site_symmetry_2
O1 C1 1_555 1_555
C1 C2 1_555 1_555
C2 H1 1_555 1_555
H2 C2 1_555 1_555
C3 C2 1_555 1_555
H3 C3 1_555 1_555
H4 C3 1_555 1_555
C4 C3 1_555 1_555
C5 C4 1_555 1_555
H5 C5 1_555 1_555
H6 C5 1_555 1_555
H7 C5 1_555 1_555
C6 C4 1_555 1_555
H8 C6 1_555 1_555
H9 C6 1_555 1_555
H10 C6 1_555 1_555
C7 C4 1_555 1_555
H11 C7 1_555 1_555
C8 C7 1_555 1_555
H12 C8 1_555 1_555
O2 C8 1_555 1_555
H13 O2 1_555 1_555
O3 H14 1_555 1_555
C9 C8 1_555 1_555
O4 C9 1_555 1_555
C10 O4 1_555 1_555
H15 C10 1_555 1_555
H16 C10 1_555 1_555
C11 C1 1_555 1_555
C12 C11 1_555 1_555
H17 C12 1_555 1_555
C13 C12 1_555 1_555
H18 C13 1_555 1_555
H19 C13 1_555 1_555
C14 C13 1_555 1_555
H20 C14 1_555 1_555
H21 C14 1_555 1_555
C15 C14 1_555 1_555
H22 C15 1_555 1_555
C16 C15 1_555 1_555
H23 C16 1_555 1_555
H24 C16 1_555 1_555
C17 C9 1_555 1_555
C18 C17 1_555 1_555
O5 C18 1_555 1_555
C19 C15 1_555 1_555
C20 C19 1_555 1_555
H25 C20 1_555 1_555
H26 C20 1_555 1_555
C7 C11 1_555 1_555
O3 C9 1_555 1_555
C10 C11 1_555 1_555
C12 C17 1_555 1_555
C16 C17 1_555 1_555
C18 C19 1_555 1_555

#END
