
#######################################################################
#
#                 Cambridge Crystallographic Data Centre
#                                CCDC 
#
#######################################################################
#
# If this CIF has been generated from an entry in the Cambridge 
# Structural Database, then it will include bibliographic, chemical, 
# crystal, experimental, refinement or atomic coordinate data resulting 
# from the CCDC's data processing and validation procedures.
#
#######################################################################

data_XIDZES
_chemical_formula_moiety         'C20 H28 O5'
_chemical_name_systematic        
(+-)-1,7,15-trihydroxy-7,20-epoxykaur-16-en-6-one
_symmetry_cell_setting           orthorhombic
_symmetry_space_group_name_H-M   'P n a 21'
_symmetry_Int_Tables_number      33
_space_group_name_Hall           'P 2c -2n'
loop_
_symmetry_equiv_pos_site_id
_symmetry_equiv_pos_as_xyz
1 x,y,z
2 -x,-y,1/2+z
3 1/2+x,1/2-y,z
4 1/2-x,1/2+y,1/2+z
_cell_length_a                   11.0416(7)
_cell_length_b                   8.0665(5)
_cell_length_c                   38.609(3)
_cell_angle_alpha                90
_cell_angle_beta                 90
_cell_angle_gamma                90
_cell_volume                     3438.79
_exptl_crystal_colour            colorless
_exptl_crystal_description       Block
_cell_formula_units_Z            8
loop_
_atom_site_label
_atom_site_type_symbol
_atom_site_fract_x
_atom_site_fract_y
_atom_site_fract_z
O1 O 0.56091(12) 0.08982(17) 0.62069(4)
H1 H 0.5557 -0.0119 0.6251
O2 O 0.55765(14) 0.74264(18) 0.63538(4)
O3 O 0.33782(11) 0.57871(16) 0.58739(4)
O4 O 0.44257(14) 0.80412(16) 0.57397(4)
H2 H 0.506(3) 0.832(3) 0.5656(8)
O5 O 0.65884(13) 0.78232(16) 0.54780(4)
H3 H 0.721(3) 0.826(3) 0.5573(7)
C1 C 0.3301(2) 0.5245(3) 0.67427(6)
H4 H 0.2730 0.4786 0.6574
H5 H 0.3415 0.6430 0.6698
H6 H 0.2978 0.5091 0.6977
C2 C 0.5399(2) 0.5092(3) 0.69791(6)
H7 H 0.6185 0.4534 0.6963
H8 H 0.5066 0.4939 0.7212
H9 H 0.5502 0.6278 0.6933
C3 C 0.45245(19) 0.4345(3) 0.67108(6)
C4 C 0.4391(2) 0.2491(3) 0.67988(6)
H10 H 0.5207 0.2015 0.6837
H11 H 0.3934 0.2384 0.7018
C5 C 0.3747(2) 0.1483(3) 0.65180(6)
H12 H 0.3694 0.0310 0.6592
H13 H 0.2911 0.1906 0.6488
C6 C 0.44161(17) 0.1586(2) 0.61723(6)
H14 H 0.3957 0.0942 0.5994
C7 C 0.45617(16) 0.3378(2) 0.60484(5)
C8 C 0.50895(17) 0.4490(2) 0.63420(5)
H15 H 0.5952 0.4133 0.6369
C9 C 0.51460(16) 0.6249(2) 0.62009(6)
C10 C 0.33243(17) 0.4023(2) 0.59290(6)
H16 H 0.3087 0.3463 0.5711
H17 H 0.2705 0.3768 0.6107
C11 C 0.45918(17) 0.6411(2) 0.58380(5)
C12 C 0.54278(17) 0.3535(2) 0.57304(5)
H18 H 0.6275 0.3382 0.5816
C13 C 0.53224(17) 0.5352(2) 0.55817(5)
C14 C 0.66192(17) 0.6035(2) 0.55147(5)
H19 H 0.7192 0.5689 0.5702
C15 C 0.69520(18) 0.5248(2) 0.51712(6)
C16 C 0.8032(2) 0.5314(3) 0.50258(6)
H20 H 0.8673 0.5889 0.5138
H21 H 0.8169 0.4787 0.4809
C17 C 0.48077(18) 0.5322(3) 0.52110(6)
H22 H 0.4040 0.4691 0.5199
H23 H 0.4677 0.6455 0.5120
C18 C 0.58322(18) 0.4432(3) 0.50183(6)
H24 H 0.5779 0.4625 0.4763
C19 C 0.5802(2) 0.2558(3) 0.51046(6)
H25 H 0.5358 0.1963 0.4920
H26 H 0.6640 0.2125 0.5110
C20 C 0.51918(19) 0.2211(2) 0.54531(6)
H27 H 0.5481 0.1128 0.5541
H28 H 0.4307 0.2119 0.5416
O6 O 0.83423(13) 0.86355(17) 0.88174(5)
H29 H 0.8308 0.9674 0.8804
O7 O 0.84572(14) 0.21226(17) 0.87872(4)
O8 O 0.61804(12) 0.39067(17) 0.83609(4)
O9 O 0.72682(14) 0.17906(18) 0.81700(4)
H30 H 0.794(3) 0.166(3) 0.8081(8)
O10 O 0.94343(14) 0.22497(18) 0.79150(4)
H31 H 0.999(2) 0.195(3) 0.8044(8)
C21 C 0.8276(2) 0.4046(3) 0.94658(6)
H32 H 0.8415 0.2907 0.9387
H33 H 0.7958 0.4029 0.9703
H34 H 0.9041 0.4661 0.9461
C22 C 0.6165(2) 0.3898(3) 0.92413(7)
H35 H 0.5563 0.4416 0.9090
H36 H 0.5861 0.3888 0.9480
H37 H 0.6313 0.2758 0.9165
C23 C 0.7358(2) 0.4893(3) 0.92254(6)
C24 C 0.7167(2) 0.6674(3) 0.93586(6)
H38 H 0.6707 0.6625 0.9579
H39 H 0.7968 0.7167 0.9410
C25 C 0.64937(19) 0.7820(3) 0.91072(6)
H40 H 0.5668 0.7384 0.9067
H41 H 0.6418 0.8936 0.9211
C26 C 0.71590(17) 0.7953(2) 0.87625(6)
H42 H 0.6692 0.8691 0.8603
C27 C 0.73169(17) 0.6247(2) 0.85939(5)
C28 C 0.79054(17) 0.5003(2) 0.88519(5)
H43 H 0.8761 0.5382 0.8883
C29 C 0.79808(17) 0.3348(2) 0.86683(5)
C30 C 0.60943(18) 0.5618(2) 0.84685(6)
H44 H 0.5492 0.5719 0.8657
H45 H 0.5815 0.6305 0.8272
C31 C 0.74049(17) 0.3367(2) 0.83078(6)
C32 C 0.81615(18) 0.6310(2) 0.82684(6)
H46 H 0.9012 0.6451 0.8353
C33 C 0.80899(17) 0.4591(2) 0.80755(5)
C34 C 0.93939(18) 0.4010(2) 0.79828(5)
H47 H 0.9977 0.4317 0.8170
C35 C 0.96640(19) 0.4969(3) 0.76527(6)
C36 C 1.0717(2) 0.4971(3) 0.74897(6)
H48 H 1.0806 0.5560 0.7278
H49 H 1.1386 0.4384 0.7584
C37 C 0.7533(2) 0.4805(3) 0.77111(6)
H50 H 0.7417 0.3725 0.7594
H51 H 0.6752 0.5405 0.7720
C38 C 0.85249(19) 0.5843(3) 0.75345(6)
H52 H 0.8443 0.5813 0.7277
C39 C 0.8494(2) 0.7643(3) 0.76729(7)
H53 H 0.9333 0.8065 0.7692
H54 H 0.8056 0.8352 0.7505
C40 C 0.7878(2) 0.7773(3) 0.80270(6)
H55 H 0.6990 0.7837 0.7993
H56 H 0.8140 0.8814 0.8140
loop_
_geom_bond_atom_site_label_1
_geom_bond_atom_site_label_2
_geom_bond_site_symmetry_1
_geom_bond_site_symmetry_2
O1 H1 1_555 1_555
O2 C9 1_555 1_555
O3 C10 1_555 1_555
O4 H2 1_555 1_555
O5 H3 1_555 1_555
C1 H4 1_555 1_555
H5 C1 1_555 1_555
H6 C1 1_555 1_555
C2 H7 1_555 1_555
H8 C2 1_555 1_555
H9 C2 1_555 1_555
C3 C1 1_555 1_555
C4 C3 1_555 1_555
H10 C4 1_555 1_555
H11 C4 1_555 1_555
C5 C4 1_555 1_555
H12 C5 1_555 1_555
H13 C5 1_555 1_555
C6 O1 1_555 1_555
H14 C6 1_555 1_555
C7 C6 1_555 1_555
C8 C3 1_555 1_555
H15 C8 1_555 1_555
C9 C8 1_555 1_555
C10 C7 1_555 1_555
H16 C10 1_555 1_555
H17 C10 1_555 1_555
C11 O3 1_555 1_555
C12 C7 1_555 1_555
H18 C12 1_555 1_555
C13 C11 1_555 1_555
C14 O5 1_555 1_555
H19 C14 1_555 1_555
C15 C14 1_555 1_555
C16 C15 1_555 1_555
H20 C16 1_555 1_555
H21 C16 1_555 1_555
C17 C13 1_555 1_555
H22 C17 1_555 1_555
H23 C17 1_555 1_555
C18 C15 1_555 1_555
H24 C18 1_555 1_555
C19 C18 1_555 1_555
H25 C19 1_555 1_555
H26 C19 1_555 1_555
C20 C12 1_555 1_555
H27 C20 1_555 1_555
H28 C20 1_555 1_555
O6 H29 1_555 1_555
O7 C29 1_555 1_555
O8 C30 1_555 1_555
O9 H30 1_555 1_555
O10 H31 1_555 1_555
C21 H32 1_555 1_555
H33 C21 1_555 1_555
H34 C21 1_555 1_555
C22 H35 1_555 1_555
H36 C22 1_555 1_555
H37 C22 1_555 1_555
C23 C21 1_555 1_555
C24 C23 1_555 1_555
H38 C24 1_555 1_555
H39 C24 1_555 1_555
C25 C24 1_555 1_555
H40 C25 1_555 1_555
H41 C25 1_555 1_555
C26 O6 1_555 1_555
H42 C26 1_555 1_555
C27 C26 1_555 1_555
C28 C23 1_555 1_555
H43 C28 1_555 1_555
C29 C28 1_555 1_555
C30 C27 1_555 1_555
H44 C30 1_555 1_555
H45 C30 1_555 1_555
C31 O8 1_555 1_555
C32 C27 1_555 1_555
H46 C32 1_555 1_555
C33 C31 1_555 1_555
C34 O10 1_555 1_555
H47 C34 1_555 1_555
C35 C34 1_555 1_555
C36 C35 1_555 1_555
H48 C36 1_555 1_555
H49 C36 1_555 1_555
C37 C33 1_555 1_555
H50 C37 1_555 1_555
H51 C37 1_555 1_555
C38 C35 1_555 1_555
H52 C38 1_555 1_555
C39 C38 1_555 1_555
H53 C39 1_555 1_555
H54 C39 1_555 1_555
C40 C32 1_555 1_555
H55 C40 1_555 1_555
H56 C40 1_555 1_555
O4 C11 1_555 1_555
C2 C3 1_555 1_555
C5 C6 1_555 1_555
C7 C8 1_555 1_555
C9 C11 1_555 1_555
C12 C13 1_555 1_555
C13 C14 1_555 1_555
C17 C18 1_555 1_555
C19 C20 1_555 1_555
O9 C31 1_555 1_555
C22 C23 1_555 1_555
C25 C26 1_555 1_555
C27 C28 1_555 1_555
C29 C31 1_555 1_555
C32 C33 1_555 1_555
C33 C34 1_555 1_555
C37 C38 1_555 1_555
C39 C40 1_555 1_555

#END
