
#######################################################################
#
#                 Cambridge Crystallographic Data Centre
#                                CCDC 
#
#######################################################################
#
# If this CIF has been generated from an entry in the Cambridge 
# Structural Database, then it will include bibliographic, chemical, 
# crystal, experimental, refinement or atomic coordinate data resulting 
# from the CCDC's data processing and validation procedures.
#
#######################################################################

data_XIFCAR
_chemical_formula_moiety         '4(C34 H21 B1 N6 O7),3(C1 H1 Cl3)'
_chemical_name_systematic        
'Methoxy(5,10,15-tris(4-nitrophenyl)subporphyrinato)boron(iii) chloroform solvate'
_symmetry_cell_setting           triclinic
_symmetry_space_group_name_H-M   'P 1'
_symmetry_Int_Tables_number      1
_space_group_name_Hall           'P 1'
loop_
_symmetry_equiv_pos_site_id
_symmetry_equiv_pos_as_xyz
1 x,y,z
_cell_length_a                   14.2905(11)
_cell_length_b                   14.3984(12)
_cell_length_c                   16.4038(13)
_cell_angle_alpha                79.206(1)
_cell_angle_beta                 81.292(1)
_cell_angle_gamma                73.630(2)
_cell_volume                     3163.66
_exptl_crystal_colour            orange
_exptl_crystal_description       prism
_cell_formula_units_Z            1
_exptl_crystal_recrystallization_method methanol/chloroform
_exptl_crystal_preparation       fluorescent
loop_
_atom_site_label
_atom_site_type_symbol
_atom_site_fract_x
_atom_site_fract_y
_atom_site_fract_z
B1 B 0.1330(5) 0.3541(5) 0.1182(4)
C1 C 0.2817(4) 0.4142(5) 0.1237(3)
C2 C 0.3732(4) 0.3718(5) 0.1615(4)
H1 H 0.4222 0.4044 0.1625
C3 C 0.3764(4) 0.2773(5) 0.1951(3)
H2 H 0.4275 0.2325 0.2242
C4 C 0.2888(4) 0.2573(4) 0.1786(3)
C5 C 0.2629(4) 0.1677(4) 0.1779(3)
C6 C 0.1884(4) 0.1693(4) 0.1321(3)
C7 C 0.1564(4) 0.0967(4) 0.1013(3)
H3 H 0.1755 0.0278 0.1184
C8 C 0.0927(4) 0.1465(5) 0.0421(3)
H4 H 0.0601 0.1171 0.0119
C9 C 0.0840(4) 0.2481(5) 0.0339(3)
C10 C 0.0459(4) 0.3328(5) -0.0236(4)
C11 C 0.0729(4) 0.4203(5) -0.0232(4)
C12 C 0.0766(4) 0.5054(5) -0.0846(4)
H5 H 0.0430 0.5253 -0.1332
C13 C 0.1362(4) 0.5528(4) -0.0612(4)
H6 H 0.1504 0.6118 -0.0898
C14 C 0.1736(4) 0.4969(5) 0.0150(4)
C15 C 0.2495(4) 0.4962(5) 0.0616(4)
C16 C 0.3269(4) 0.0746(5) 0.2149(3)
C17 C 0.3496(4) 0.0647(5) 0.2975(4)
H7 H 0.3207 0.1168 0.3288
C18 C 0.4125(5) -0.0187(5) 0.3334(4)
H8 H 0.4271 -0.0251 0.3891
C19 C 0.4546(4) -0.0941(4) 0.2856(4)
C20 C 0.4333(5) -0.0871(5) 0.2050(4)
H9 H 0.4612 -0.1399 0.1742
C21 C 0.3701(4) -0.0013(5) 0.1697(4)
H10 H 0.3565 0.0052 0.1137
C22 C -0.0098(4) 0.3268(5) -0.0909(4)
C23 C 0.0159(4) 0.2472(5) -0.1325(4)
H11 H 0.0703 0.1940 -0.1173
C24 C -0.0353(4) 0.2428(5) -0.1957(4)
H12 H -0.0182 0.1870 -0.2232
C25 C -0.1133(4) 0.3233(5) -0.2180(3)
C26 C -0.1401(5) 0.4041(5) -0.1809(4)
H13 H -0.1929 0.4579 -0.1982
C27 C -0.0877(4) 0.4063(5) -0.1161(4)
H14 H -0.1052 0.4623 -0.0889
C28 C 0.3066(4) 0.5712(4) 0.0419(4)
C29 C 0.3374(4) 0.6038(5) -0.0415(4)
H15 H 0.3182 0.5811 -0.0855
C30 C 0.3951(4) 0.6685(5) -0.0595(4)
H16 H 0.4164 0.6905 -0.1157
C31 C 0.4217(4) 0.7009(5) 0.0060(4)
C32 C 0.3903(5) 0.6724(5) 0.0893(4)
H17 H 0.4079 0.6967 0.1332
C33 C 0.3317(5) 0.6064(5) 0.1053(4)
H18 H 0.3088 0.5855 0.1613
C34 C 0.0378(5) 0.4708(5) 0.2071(4)
H19 H 0.1004 0.4807 0.2161
H20 H -0.0061 0.4731 0.2591
H21 H 0.0076 0.5225 0.1637
N1 N 0.2330(3) 0.3424(4) 0.1416(3)
N2 N 0.1357(3) 0.2597(4) 0.0935(3)
N3 N 0.1271(3) 0.4240(3) 0.0374(3)
N4 N 0.5222(4) -0.1825(4) 0.3239(4)
N5 N -0.1668(4) 0.3175(4) -0.2865(3)
N6 N 0.4879(4) 0.7665(4) -0.0124(3)
O1 O 0.5328(4) -0.1917(4) 0.3970(3)
O2 O 0.5650(5) -0.2453(4) 0.2793(4)
O3 O -0.1426(4) 0.2452(4) -0.3204(3)
O4 O -0.2372(4) 0.3898(4) -0.3056(3)
O5 O 0.5232(3) 0.7817(3) -0.0851(3)
O6 O 0.5067(4) 0.7992(4) 0.0445(3)
O7 O 0.0545(3) 0.3792(3) 0.1816(2)
B2 B 0.6512(5) 0.2522(4) 0.1727(4)
C35 C 0.7642(4) 0.0793(4) 0.1841(4)
C36 C 0.7547(5) -0.0129(4) 0.1669(4)
H22 H 0.7970 -0.0759 0.1821
C37 C 0.6748(5) 0.0071(5) 0.1252(4)
H23 H 0.6505 -0.0402 0.1077
C38 C 0.6324(4) 0.1111(5) 0.1116(4)
C39 C 0.5652(4) 0.1779(4) 0.0576(3)
C40 C 0.5623(4) 0.2800(4) 0.0455(4)
C41 C 0.5299(4) 0.3596(4) -0.0197(3)
H24 H 0.4911 0.3605 -0.0622
C42 C 0.5672(4) 0.4357(4) -0.0076(3)
H25 H 0.5571 0.4987 -0.0406
C43 C 0.6219(4) 0.4034(4) 0.0613(4)
C44 C 0.6929(4) 0.4344(4) 0.0932(4)
C45 C 0.7587(4) 0.3687(4) 0.1454(3)
C46 C 0.8575(4) 0.3645(4) 0.1593(3)
H26 H 0.8881 0.4169 0.1472
C47 C 0.8989(4) 0.2680(4) 0.1943(3)
H27 H 0.9631 0.2430 0.2112
C48 C 0.8287(4) 0.2136(4) 0.2003(3)
C49 C 0.8355(4) 0.1116(4) 0.2120(3)
C50 C 0.5036(4) 0.1441(5) 0.0103(4)
C51 C 0.5367(4) 0.0563(5) -0.0216(4)
H28 H 0.6018 0.0175 -0.0153
C52 C 0.4776(5) 0.0251(5) -0.0616(4)
H29 H 0.5004 -0.0360 -0.0817
C53 C 0.3822(5) 0.0841(5) -0.0732(4)
C54 C 0.3474(4) 0.1740(5) -0.0444(3)
H30 H 0.2838 0.2146 -0.0541
C55 C 0.4077(4) 0.2023(5) -0.0015(3)
H31 H 0.3844 0.2622 0.0206
C56 C 0.7108(4) 0.5335(4) 0.0609(4)
C57 C 0.7168(4) 0.5710(5) -0.0214(4)
H32 H 0.7043 0.5358 -0.0603
C58 C 0.7406(4) 0.6588(5) -0.0504(4)
H33 H 0.7453 0.6836 -0.1083
C59 C 0.7570(5) 0.7091(5) 0.0064(4)
C60 C 0.7479(5) 0.6768(5) 0.0917(5)
H34 H 0.7578 0.7142 0.1301
C61 C 0.7242(5) 0.5892(5) 0.1192(4)
H35 H 0.7168 0.5658 0.1773
C62 C 0.9276(4) 0.0436(5) 0.2440(4)
C63 C 0.9629(4) 0.0633(5) 0.3107(4)
H36 H 0.9262 0.1167 0.3382
C64 C 1.0529(5) 0.0052(5) 0.3389(4)
H37 H 1.0791 0.0201 0.3833
C65 C 1.1014(4) -0.0744(5) 0.2990(4)
C66 C 1.0685(5) -0.0972(5) 0.2329(4)
H38 H 1.1042 -0.1518 0.2062
C67 C 0.9801(5) -0.0367(5) 0.2065(4)
H39 H 0.9551 -0.0510 0.1612
C68 C 0.5956(5) 0.2039(5) 0.3175(4)
H40 H 0.5923 0.1387 0.3108
H41 H 0.5456 0.2282 0.3619
H42 H 0.6607 0.1999 0.3323
N7 N 0.6834(4) 0.1478(4) 0.1546(3)
N8 N 0.6127(3) 0.3112(4) 0.0929(3)
N9 N 0.7450(4) 0.2766(4) 0.1759(3)
N10 N 0.3186(4) 0.0489(5) -0.1138(3)
N11 N 0.7846(5) 0.8021(4) -0.0246(4)
N12 N 1.1972(4) -0.1329(5) 0.3269(4)
O8 O 0.3420(4) -0.0360(5) -0.1237(4)
O9 O 0.2421(3) 0.1082(4) -0.1361(3)
O10 O 0.7845(5) 0.8313(4) -0.0991(4)
O11 O 0.8125(4) 0.8397(4) 0.0263(4)
O12 O 1.2174(4) -0.1220(4) 0.3934(3)
O13 O 1.2503(4) -0.1889(5) 0.2809(4)
O14 O 0.5784(3) 0.2691(3) 0.2412(2)
B3 B 1.0228(4) 0.2002(5) 0.5029(4)
C69 C 0.8462(4) 0.2393(5) 0.4715(3)
C70 C 0.7753(4) 0.1816(5) 0.4804(4)
H43 H 0.7101 0.2052 0.4656
C71 C 0.8179(4) 0.0895(5) 0.5132(4)
H44 H 0.7880 0.0366 0.5246
C72 C 0.9154(4) 0.0834(5) 0.5283(4)
C73 C 0.9815(4) 0.0131(5) 0.5809(3)
C74 C 1.0513(4) 0.0491(4) 0.6113(3)
C75 C 1.1094(4) 0.0156(5) 0.6832(4)
H45 H 1.1203 -0.0469 0.7171
C76 C 1.1435(4) 0.0902(5) 0.6915(4)
H46 H 1.1832 0.0888 0.7334
C77 C 1.1120(4) 0.1728(5) 0.6286(3)
C78 C 1.1100(4) 0.2723(5) 0.6156(4)
C79 C 1.0423(4) 0.3393(5) 0.5632(4)
C80 C 1.0001(4) 0.4432(5) 0.5505(4)
H47 H 1.0224 0.4907 0.5697
C81 C 0.9209(5) 0.4615(5) 0.5050(4)
H48 H 0.8795 0.5242 0.4871
C82 C 0.9121(4) 0.3712(4) 0.4899(3)
C83 C 0.8366(4) 0.3404(5) 0.4609(4)
C84 C 0.9657(4) -0.0829(5) 0.6095(3)
C85 C 0.9497(5) -0.1363(5) 0.5551(4)
H49 H 0.9553 -0.1124 0.4970
C86 C 0.9251(5) -0.2252(5) 0.5825(4)
H50 H 0.9133 -0.2613 0.5440
C87 C 0.9184(5) -0.2590(5) 0.6667(4)
C88 C 0.9343(5) -0.2079(5) 0.7250(4)
H51 H 0.9290 -0.2329 0.7829
C89 C 0.9578(4) -0.1197(5) 0.6969(3)
H52 H 0.9688 -0.0835 0.7356
C90 C 1.1709(4) 0.3042(4) 0.6635(3)
C91 C 1.2657(4) 0.2462(5) 0.6762(3)
H53 H 1.2885 0.1852 0.6561
C92 C 1.3267(4) 0.2767(5) 0.7176(3)
H54 H 1.3909 0.2370 0.7267
C93 C 1.2924(4) 0.3651(5) 0.7450(4)
C94 C 1.1995(4) 0.4240(5) 0.7372(4)
H55 H 1.1781 0.4848 0.7577
C95 C 1.1377(4) 0.3911(5) 0.6977(4)
H56 H 1.0717 0.4285 0.6940
C96 C 0.7472(5) 0.4074(4) 0.4313(4)
C97 C 0.6932(4) 0.4883(5) 0.4698(4)
H57 H 0.7164 0.5032 0.5158
C98 C 0.6070(4) 0.5458(5) 0.4409(4)
H58 H 0.5715 0.6018 0.4656
C99 C 0.5717(5) 0.5215(5) 0.3752(4)
C100 C 0.6231(4) 0.4447(5) 0.3357(4)
H59 H 0.5993 0.4310 0.2894
C101 C 0.7093(4) 0.3876(4) 0.3634(4)
H60 H 0.7447 0.3332 0.3365
C102 C 1.0796(4) 0.2449(5) 0.3567(4)
H61 H 1.0093 0.2651 0.3502
H62 H 1.1157 0.2116 0.3101
H63 H 1.1025 0.3029 0.3574
N13 N 0.9305(3) 0.1713(4) 0.4974(3)
N14 N 1.0618(3) 0.1394(4) 0.5798(3)
N15 N 0.9896(3) 0.3012(4) 0.5202(3)
N16 N 0.8896(4) -0.3494(4) 0.6976(4)
N17 N 1.3577(4) 0.3992(5) 0.7876(4)
N18 N 0.4780(4) 0.5841(4) 0.3473(4)
O15 O 0.8672(5) -0.3913(4) 0.6487(3)
O16 O 0.8919(4) -0.3829(4) 0.7724(3)
O17 O 1.4312(3) 0.3405(4) 0.8108(3)
O18 O 1.3333(4) 0.4872(4) 0.7961(4)
O19 O 0.4258(4) 0.6413(4) 0.3920(4)
O20 O 0.4555(4) 0.5737(4) 0.2809(4)
O21 O 1.0958(3) 0.1808(3) 0.4321(2)
B4 B 0.5417(5) 0.0959(5) 0.5570(4)
C103 C 0.5022(4) -0.0476(4) 0.6566(4)
C104 C 0.5374(4) -0.1018(5) 0.7337(4)
H64 H 0.5214 -0.1598 0.7629
C105 C 0.5977(4) -0.0559(5) 0.7578(4)
H65 H 0.6320 -0.0772 0.8061
C106 C 0.6008(4) 0.0303(5) 0.6979(4)
C107 C 0.6292(4) 0.1170(4) 0.6973(3)
C108 C 0.5925(4) 0.2003(4) 0.6386(3)
C109 C 0.5829(4) 0.3049(4) 0.6304(4)
H66 H 0.6155 0.3354 0.6597
C110 C 0.5186(5) 0.3509(5) 0.5729(4)
H67 H 0.4977 0.4196 0.5558
C111 C 0.4882(4) 0.2792(4) 0.5430(3)
C112 C 0.4102(4) 0.2815(5) 0.4947(3)
C113 C 0.3869(4) 0.1947(4) 0.4939(3)
C114 C 0.2982(4) 0.1734(4) 0.4798(4)
H68 H 0.2461 0.2181 0.4518
C115 C 0.3019(4) 0.0774(4) 0.5138(3)
H69 H 0.2536 0.0440 0.5123
C116 C 0.3913(4) 0.0371(4) 0.5514(3)
C117 C 0.4243(4) -0.0466(4) 0.6102(3)
C118 C 0.6838(4) 0.1224(5) 0.7655(3)
C119 C 0.7628(4) 0.0449(4) 0.7894(4)
H70 H 0.7820 -0.0099 0.7606
C120 C 0.8138(4) 0.0458(4) 0.8536(4)
H71 H 0.8660 -0.0088 0.8705
C121 C 0.7873(5) 0.1291(5) 0.8938(4)
C122 C 0.7120(4) 0.2073(5) 0.8702(4)
H72 H 0.6960 0.2637 0.8970
C123 C 0.6588(4) 0.2046(4) 0.8068(3)
H73 H 0.6053 0.2586 0.7914
C124 C 0.3465(4) 0.3750(4) 0.4569(4)
C125 C 0.3038(5) 0.4523(5) 0.5025(4)
H74 H 0.3189 0.4464 0.5580
C126 C 0.2402(5) 0.5368(5) 0.4681(4)
H75 H 0.2101 0.5890 0.4991
C127 C 0.2219(5) 0.5427(5) 0.3867(4)
C128 C 0.2618(5) 0.4699(5) 0.3410(4)
H76 H 0.2468 0.4766 0.2854
C129 C 0.3251(5) 0.3852(5) 0.3763(4)
H77 H 0.3541 0.3335 0.3445
C130 C 0.3696(4) -0.1218(4) 0.6323(3)
C131 C 0.3410(5) -0.1579(5) 0.5675(4)
H78 H 0.3626 -0.1375 0.5110
C132 C 0.2829(5) -0.2217(5) 0.5854(4)
H79 H 0.2643 -0.2455 0.5417
C133 C 0.2518(4) -0.2509(5) 0.6673(4)
C134 C 0.2785(4) -0.2189(4) 0.7321(4)
H80 H 0.2575 -0.2412 0.7883
C135 C 0.3363(4) -0.1538(4) 0.7140(4)
H81 H 0.3537 -0.1303 0.7585
C136 C 0.6389(5) -0.0207(5) 0.4645(4)
H82 H 0.6473 -0.0730 0.5127
H83 H 0.6989 -0.0305 0.4258
H84 H 0.5838 -0.0221 0.4361
N19 N 0.5471(4) 0.0264(4) 0.6363(3)
N20 N 0.5380(3) 0.1925(4) 0.5795(3)
N21 N 0.4409(3) 0.1074(4) 0.5322(3)
N22 N 0.8428(4) 0.1308(4) 0.9608(3)
N23 N 0.1528(5) 0.6328(5) 0.3505(4)
N24 N 0.1866(4) -0.3158(4) 0.6872(3)
O22 O 0.9107(4) 0.0625(4) 0.9796(3)
O23 O 0.8176(3) 0.2053(4) 0.9941(3)
O24 O 0.1084(5) 0.6924(5) 0.3956(4)
O25 O 0.1415(4) 0.6415(4) 0.2758(3)
O26 O 0.1699(4) -0.3511(4) 0.6300(3)
O27 O 0.1501(3) -0.3326(3) 0.7588(3)
O28 O 0.6198(3) 0.0704(3) 0.4918(3)
C137 C 0.6223(6) 0.6028(5) 0.6814(4)
H85 H 0.6816 0.5496 0.6673
Cl10 Cl 0.63692(17) 0.63791(15) 0.77431(12)
Cl11 Cl 0.5209(2) 0.5559(3) 0.6934(3)
Cl12 Cl 0.6119(3) 0.6992(2) 0.60061(19)
C138 C 0.0525(5) 0.8533(5) 0.9890(4)
H86 H -0.0058 0.9088 1.0001
Cl1 Cl 0.1522(2) 0.8876(2) 0.99368(18)
Cl2 Cl 0.0381(2) 0.8108(2) 0.89894(17)
Cl3 Cl 0.0500(2) 0.7453(2) 1.07861(17)
C140 C 0.8872(8) 0.7093(8) 0.3298(6)
H88 H 0.9446 0.6630 0.3565
Cl13 Cl 0.9100(3) 0.7303(3) 0.2240(3)
Cl14 Cl 0.7856(3) 0.6591(4) 0.3460(4)
Cl15 Cl 0.8592(3) 0.8204(4) 0.3637(3)
C139? C 0.7899(10) 0.7369(8) 0.3534(6)
H87? H 0.8537 0.7539 0.3501
Cl4? Cl 0.7576(3) 0.7158(3) 0.4592(2)
Cl5? Cl 0.8259(5) 0.6292(5) 0.3092(4)
Cl6? Cl 0.719(5) 0.839(3) 0.295(4)
Cl7? Cl 0.1429(5) 0.9261(5) 0.9305(4)
Cl8? Cl 0.1057(6) 0.7693(5) 1.0576(3)
Cl9? Cl 0.0390(8) 0.8129(7) 0.9026(6)
loop_
_geom_bond_atom_site_label_1
_geom_bond_atom_site_label_2
_geom_bond_site_symmetry_1
_geom_bond_site_symmetry_2
B1 N1 1_555 1_555
B2 N7 1_555 1_555
B3 N13 1_555 1_555
B4 N19 1_555 1_555
C1 C2 1_555 1_555
C2 H1 1_555 1_555
C3 C2 1_555 1_555
H2 C3 1_555 1_555
C4 C3 1_555 1_555
C5 C4 1_555 1_555
C6 C5 1_555 1_555
C7 C6 1_555 1_555
H3 C7 1_555 1_555
C8 C7 1_555 1_555
H4 C8 1_555 1_555
C9 C8 1_555 1_555
C10 C9 1_555 1_555
C11 C10 1_555 1_555
C12 C11 1_555 1_555
H5 C12 1_555 1_555
C13 C12 1_555 1_555
H6 C13 1_555 1_555
C14 C13 1_555 1_555
C15 C1 1_555 1_555
C16 C5 1_555 1_555
C17 C16 1_555 1_555
H7 C17 1_555 1_555
C18 C17 1_555 1_555
H8 C18 1_555 1_555
C19 C18 1_555 1_555
C20 C19 1_555 1_555
H9 C20 1_555 1_555
C21 C16 1_555 1_555
H10 C21 1_555 1_555
C22 C10 1_555 1_555
C23 C22 1_555 1_555
H11 C23 1_555 1_555
C24 C23 1_555 1_555
H12 C24 1_555 1_555
C25 C24 1_555 1_555
C26 C25 1_555 1_555
H13 C26 1_555 1_555
C27 C22 1_555 1_555
H14 C27 1_555 1_555
C28 C15 1_555 1_555
C29 C28 1_555 1_555
H15 C29 1_555 1_555
C30 C29 1_555 1_555
H16 C30 1_555 1_555
C31 C30 1_555 1_555
C32 C31 1_555 1_555
H17 C32 1_555 1_555
C33 C28 1_555 1_555
H18 C33 1_555 1_555
C34 H19 1_555 1_555
H20 C34 1_555 1_555
H21 C34 1_555 1_555
C35 C36 1_555 1_555
C36 H22 1_555 1_555
C37 C36 1_555 1_555
H23 C37 1_555 1_555
C38 C37 1_555 1_555
C39 C38 1_555 1_555
C40 C39 1_555 1_555
C41 C40 1_555 1_555
H24 C41 1_555 1_555
C42 C41 1_555 1_555
H25 C42 1_555 1_555
C43 C42 1_555 1_555
C44 C43 1_555 1_555
C45 C44 1_555 1_555
C46 C45 1_555 1_555
H26 C46 1_555 1_555
C47 C46 1_555 1_555
H27 C47 1_555 1_555
C48 C47 1_555 1_555
C49 C35 1_555 1_555
C50 C39 1_555 1_555
C51 C50 1_555 1_555
H28 C51 1_555 1_555
C52 C51 1_555 1_555
H29 C52 1_555 1_555
C53 C52 1_555 1_555
C54 C53 1_555 1_555
H30 C54 1_555 1_555
C55 C50 1_555 1_555
H31 C55 1_555 1_555
C56 C44 1_555 1_555
C57 C56 1_555 1_555
H32 C57 1_555 1_555
C58 C57 1_555 1_555
H33 C58 1_555 1_555
C59 C58 1_555 1_555
C60 C59 1_555 1_555
H34 C60 1_555 1_555
C61 C56 1_555 1_555
H35 C61 1_555 1_555
C62 C49 1_555 1_555
C63 C62 1_555 1_555
H36 C63 1_555 1_555
C64 C63 1_555 1_555
H37 C64 1_555 1_555
C65 C64 1_555 1_555
C66 C65 1_555 1_555
H38 C66 1_555 1_555
C67 C62 1_555 1_555
H39 C67 1_555 1_555
C68 H40 1_555 1_555
H41 C68 1_555 1_555
H42 C68 1_555 1_555
C69 C70 1_555 1_555
C70 H43 1_555 1_555
C71 C70 1_555 1_555
H44 C71 1_555 1_555
C72 C71 1_555 1_555
C73 C72 1_555 1_555
C74 C73 1_555 1_555
C75 C74 1_555 1_555
H45 C75 1_555 1_555
C76 C75 1_555 1_555
H46 C76 1_555 1_555
C77 C76 1_555 1_555
C78 C77 1_555 1_555
C79 C78 1_555 1_555
C80 C79 1_555 1_555
H47 C80 1_555 1_555
C81 C80 1_555 1_555
H48 C81 1_555 1_555
C82 C81 1_555 1_555
C83 C69 1_555 1_555
C84 C73 1_555 1_555
C85 C84 1_555 1_555
H49 C85 1_555 1_555
C86 C85 1_555 1_555
H50 C86 1_555 1_555
C87 C86 1_555 1_555
C88 C87 1_555 1_555
H51 C88 1_555 1_555
C89 C84 1_555 1_555
H52 C89 1_555 1_555
C90 C78 1_555 1_555
C91 C90 1_555 1_555
H53 C91 1_555 1_555
C92 C91 1_555 1_555
H54 C92 1_555 1_555
C93 C92 1_555 1_555
C94 C93 1_555 1_555
H55 C94 1_555 1_555
C95 C90 1_555 1_555
H56 C95 1_555 1_555
C96 C83 1_555 1_555
C97 C96 1_555 1_555
H57 C97 1_555 1_555
C98 C97 1_555 1_555
H58 C98 1_555 1_555
C99 C98 1_555 1_555
C100 C99 1_555 1_555
H59 C100 1_555 1_555
C101 C96 1_555 1_555
H60 C101 1_555 1_555
C102 H61 1_555 1_555
H62 C102 1_555 1_555
H63 C102 1_555 1_555
C103 C104 1_555 1_555
C104 H64 1_555 1_555
C105 C104 1_555 1_555
H65 C105 1_555 1_555
C106 C105 1_555 1_555
C107 C106 1_555 1_555
C108 C107 1_555 1_555
C109 C108 1_555 1_555
H66 C109 1_555 1_555
C110 C109 1_555 1_555
H67 C110 1_555 1_555
C111 C110 1_555 1_555
C112 C111 1_555 1_555
C113 C112 1_555 1_555
C114 C113 1_555 1_555
H68 C114 1_555 1_555
C115 C114 1_555 1_555
H69 C115 1_555 1_555
C116 C115 1_555 1_555
C117 C103 1_555 1_555
C118 C107 1_555 1_555
C119 C118 1_555 1_555
H70 C119 1_555 1_555
C120 C119 1_555 1_555
H71 C120 1_555 1_555
C121 C120 1_555 1_555
C122 C121 1_555 1_555
H72 C122 1_555 1_555
C123 C118 1_555 1_555
H73 C123 1_555 1_555
C124 C112 1_555 1_555
C125 C124 1_555 1_555
H74 C125 1_555 1_555
C126 C125 1_555 1_555
H75 C126 1_555 1_555
C127 C126 1_555 1_555
C128 C127 1_555 1_555
H76 C128 1_555 1_555
C129 C124 1_555 1_555
H77 C129 1_555 1_555
C130 C117 1_555 1_555
C131 C130 1_555 1_555
H78 C131 1_555 1_555
C132 C131 1_555 1_555
H79 C132 1_555 1_555
C133 C132 1_555 1_555
C134 C133 1_555 1_555
H80 C134 1_555 1_555
C135 C130 1_555 1_555
H81 C135 1_555 1_555
C136 H82 1_555 1_555
H83 C136 1_555 1_555
H84 C136 1_555 1_555
C137 H85 1_555 1_555
C138 H86 1_555 1_555
C140 H88 1_555 1_555
Cl1 C138 1_555 1_555
Cl2 C138 1_555 1_555
Cl3 C138 1_555 1_555
Cl10 C137 1_555 1_555
Cl11 C137 1_555 1_555
Cl12 C137 1_555 1_555
Cl13 C140 1_555 1_555
Cl14 C140 1_555 1_555
Cl15 C140 1_555 1_555
N1 C1 1_555 1_555
N2 B1 1_555 1_555
N3 B1 1_555 1_555
N4 C19 1_555 1_555
N5 C25 1_555 1_555
N6 C31 1_555 1_555
N7 C35 1_555 1_555
N8 B2 1_555 1_555
N9 B2 1_555 1_555
N10 C53 1_555 1_555
N11 C59 1_555 1_555
N12 C65 1_555 1_555
N13 C69 1_555 1_555
N14 B3 1_555 1_555
N15 B3 1_555 1_555
N16 C87 1_555 1_555
N17 C93 1_555 1_555
N18 C99 1_555 1_555
N19 C103 1_555 1_555
N20 B4 1_555 1_555
N21 B4 1_555 1_555
N22 C121 1_555 1_555
N23 C127 1_555 1_555
N24 C133 1_555 1_555
O1 N4 1_555 1_555
O2 N4 1_555 1_555
O3 N5 1_555 1_555
O4 N5 1_555 1_555
O5 N6 1_555 1_555
O6 N6 1_555 1_555
O7 B1 1_555 1_555
O8 N10 1_555 1_555
O9 N10 1_555 1_555
O10 N11 1_555 1_555
O11 N11 1_555 1_555
O12 N12 1_555 1_555
O13 N12 1_555 1_555
O14 B2 1_555 1_555
O15 N16 1_555 1_555
O16 N16 1_555 1_555
O17 N17 1_555 1_555
O18 N17 1_555 1_555
O19 N18 1_555 1_555
O20 N18 1_555 1_555
O21 B3 1_555 1_555
O22 N22 1_555 1_555
O23 N22 1_555 1_555
O24 N23 1_555 1_555
O25 N23 1_555 1_555
O26 N24 1_555 1_555
O27 N24 1_555 1_555
O28 B4 1_555 1_555
C4 N1 1_555 1_555
C6 N2 1_555 1_555
C9 N2 1_555 1_555
C11 N3 1_555 1_555
C14 C15 1_555 1_555
C14 N3 1_555 1_555
C20 C21 1_555 1_555
C26 C27 1_555 1_555
C32 C33 1_555 1_555
C34 O7 1_555 1_555
C38 N7 1_555 1_555
C40 N8 1_555 1_555
C43 N8 1_555 1_555
C45 N9 1_555 1_555
C48 C49 1_555 1_555
C48 N9 1_555 1_555
C54 C55 1_555 1_555
C60 C61 1_555 1_555
C66 C67 1_555 1_555
C68 O14 1_555 1_555
C72 N13 1_555 1_555
C74 N14 1_555 1_555
C77 N14 1_555 1_555
C79 N15 1_555 1_555
C82 C83 1_555 1_555
C82 N15 1_555 1_555
C88 C89 1_555 1_555
C94 C95 1_555 1_555
C100 C101 1_555 1_555
C102 O21 1_555 1_555
C106 N19 1_555 1_555
C108 N20 1_555 1_555
C111 N20 1_555 1_555
C113 N21 1_555 1_555
C116 C117 1_555 1_555
C116 N21 1_555 1_555
C122 C123 1_555 1_555
C128 C129 1_555 1_555
C134 C135 1_555 1_555
C136 O28 1_555 1_555

#END
