
#######################################################################
#
#                 Cambridge Crystallographic Data Centre
#                                CCDC 
#
#######################################################################
#
# If this CIF has been generated from an entry in the Cambridge 
# Structural Database, then it will include bibliographic, chemical, 
# crystal, experimental, refinement or atomic coordinate data resulting 
# from the CCDC's data processing and validation procedures.
#
#######################################################################

data_XIFFAW
_chemical_formula_moiety         'C18 H15 Br1 F3 N1 O3'
_chemical_name_systematic        
'1-(2-((4-bromophenyl)carbamoyl)-4-(trifluoromethyl)phenyl)ethyl acetate'
_symmetry_cell_setting           monoclinic
_symmetry_space_group_name_H-M   'P 21'
_symmetry_Int_Tables_number      4
_space_group_name_Hall           'P 2yb'
loop_
_symmetry_equiv_pos_site_id
_symmetry_equiv_pos_as_xyz
1 x,y,z
2 -x,1/2+y,-z
_cell_length_a                   8.3942(8)
_cell_length_b                   15.6617(16)
_cell_length_c                   27.270(3)
_cell_angle_alpha                90
_cell_angle_beta                 98.797(3)
_cell_angle_gamma                90
_cell_volume                     3542.94
_exptl_crystal_colour            colorless
_exptl_crystal_description       Needle
_cell_formula_units_Z            8
loop_
_atom_site_label
_atom_site_type_symbol
_atom_site_fract_x
_atom_site_fract_y
_atom_site_fract_z
Br1 Br -0.1977(3) 0.3033(2) 0.8035(2)
F1 F -0.2331(14) 1.0748(6) 0.9064(4)
F2 F -0.3276(12) 0.9807(6) 0.8537(4)
F3 F -0.0904(12) 1.0267(8) 0.8551(5)
O1 O -0.2518(12) 0.6587(7) 0.9593(4)
O2 O 0.1951(11) 0.7462(5) 1.0428(3)
O3 O 0.2461(11) 0.6887(7) 0.9700(3)
N1 N -0.1406(11) 0.6636(6) 0.8858(4)
H1 H -0.101924 0.700480 0.866347
C1 C -0.1767(14) 0.6957(9) 0.9301(4)
C2 C -0.1242(15) 0.7854(8) 0.9411(5)
C3 C -0.1706(19) 0.8486(9) 0.9069(5)
H2 H -0.226375 0.834279 0.874997
C4 C -0.1351(16) 0.9348(8) 0.9193(5)
C5 C -0.0431(16) 0.9542(9) 0.9647(6)
H3 H -0.018693 1.011990 0.973480
C6 C 0.0135(15) 0.8885(8) 0.9975(5)
H4 H 0.082790 0.901612 1.027496
C7 C -0.0296(15) 0.8057(9) 0.9870(5)
C8 C 0.0208(16) 0.7354(9) 1.0242(5)
H5 H -0.000805 0.677987 1.008535
C9 C -0.0589(18) 0.7435(10) 1.0694(5)
H6 H -0.025777 0.797195 1.086439
H7 H -0.026930 0.695448 1.091774
H8 H -0.176197 0.743199 1.059646
C10 C -0.1976(16) 1.0014(10) 0.8850(5)
C11 C 0.2967(16) 0.7142(9) 1.0128(5)
C12 C 0.4679(16) 0.7157(9) 1.0370(5)
H9 H 0.484565 0.672504 1.063269
H10 H 0.493947 0.772297 1.051423
H11 H 0.538070 0.703430 1.012275
C13 C -0.1583(15) 0.5776(9) 0.8679(5)
C14 C -0.2308(15) 0.5150(8) 0.8924(5)
H12 H -0.276323 0.528396 0.921340
C15 C -0.2359(16) 0.4334(9) 0.8744(5)
H13 H -0.278750 0.389226 0.892452
C16 C -0.1813(15) 0.4139(8) 0.8314(4)
C17 C -0.1102(15) 0.4780(9) 0.8055(5)
H14 H -0.070487 0.465527 0.775448
C18 C -0.1004(16) 0.5599(8) 0.8252(5)
H15 H -0.052471 0.604166 0.808625
Br3 Br 0.3288(8) 0.2852(3) 0.8235(4)
F4 F 0.485(2) 1.0324(7) 0.9883(5)
F5 F 0.6193(14) 0.9160(8) 0.9992(4)
F6 F 0.3881(13) 0.9170(7) 1.0156(3)
O4 O 0.5006(11) 0.7260(8) 0.8159(4)
O5 O 0.0627(9) 0.8707(5) 0.7665(3)
O6 O -0.0022(11) 0.7709(6) 0.8189(3)
N2 N 0.3590(12) 0.6653(7) 0.8739(4)
H16 H 0.318612 0.678959 0.900801
C19 C 0.4204(17) 0.7299(8) 0.8493(5)
C20 C 0.3785(16) 0.8179(8) 0.8669(5)
C21 C 0.4296(19) 0.8440(9) 0.9158(5)
H17 H 0.483701 0.804886 0.939324
C22 C 0.4021(18) 0.9249(9) 0.9297(6)
C23 C 0.3149(17) 0.9823(10) 0.8970(6)
H18 H 0.300435 1.039291 0.907439
C24 C 0.249(2) 0.9575(10) 0.8498(6)
H19 H 0.178751 0.993735 0.828591
C25 C 0.2929(16) 0.8739(9) 0.8341(5)
C26 C 0.2337(15) 0.8451(9) 0.7810(5)
H20 H 0.244571 0.781784 0.778266
C27 C 0.3237(16) 0.8893(9) 0.7439(5)
H21 H 0.288812 0.865730 0.710760
H22 H 0.439832 0.880152 0.753434
H23 H 0.300642 0.950689 0.743723
C28 C 0.4636(17) 0.9511(9) 0.9807(5)
C29 C -0.0447(18) 0.8258(8) 0.7870(5)
C30 C -0.2161(16) 0.8499(10) 0.7660(6)
H24 H -0.290336 0.807035 0.775745
H25 H -0.227581 0.852478 0.729725
H26 H -0.241545 0.905883 0.778920
C31 C 0.3540(16) 0.5768(9) 0.8600(5)
C32 C 0.4027(16) 0.5499(9) 0.8163(5)
H27 H 0.442369 0.589438 0.794681
C33 C 0.3916(16) 0.4622(9) 0.8049(5)
H28 H 0.424996 0.442196 0.775151
C34 C 0.3326(15) 0.4048(8) 0.8363(5)
C35 C 0.2909(16) 0.4328(8) 0.8806(5)
H29 H 0.258038 0.392917 0.903351
C36 C 0.2968(15) 0.5197(9) 0.8921(5)
H30 H 0.261827 0.539558 0.921561
Br5 Br -0.0052(5) 0.6950(3) 0.6944(5)
F10 F -0.1443(14) -0.0771(6) 0.5945(4)
F11 F -0.1577(14) 0.0148(6) 0.6518(4)
F12 F 0.0655(12) -0.0369(8) 0.6438(5)
O7 O -0.2086(12) 0.3345(7) 0.5420(4)
O8 O 0.1564(11) 0.2489(6) 0.4577(3)
O9 O 0.2815(11) 0.3086(7) 0.5306(4)
N3 N -0.0173(12) 0.3324(7) 0.6153(4)
H31 H 0.044707 0.296743 0.634542
C37 C -0.1028(16) 0.2991(8) 0.5717(5)
C38 C -0.0558(14) 0.2080(10) 0.5614(5)
C39 C -0.0722(18) 0.1438(9) 0.5943(5)
H32 H -0.100194 0.157370 0.625850
C40 C -0.0489(15) 0.0607(9) 0.5825(6)
C41 C -0.0007(16) 0.0417(9) 0.5357(6)
H33 H 0.015948 -0.015916 0.526912
C42 C 0.021(2) 0.1039(9) 0.5046(6)
H34 H 0.058575 0.090439 0.474449
C43 C -0.0115(14) 0.1903(8) 0.5153(5)
C44 C 0.0000(15) 0.2591(8) 0.4765(5)
H35 H -0.005183 0.316898 0.491846
C45 C -0.1264(15) 0.2518(11) 0.4319(6)
H36 H -0.108753 0.295706 0.407706
H37 H -0.233023 0.259730 0.441706
H38 H -0.120580 0.195173 0.417012
C46 C -0.0752(16) -0.0045(10) 0.6167(6)
C47 C 0.2898(14) 0.2784(8) 0.4870(5)
C48 C 0.4300(18) 0.2763(10) 0.4603(6)
H39 H 0.410122 0.235090 0.433009
H40 H 0.526282 0.259336 0.483215
H41 H 0.446671 0.333154 0.446908
C49 C -0.0202(14) 0.4169(8) 0.6315(4)
C50 C -0.1176(15) 0.4790(8) 0.6075(5)
H42 H -0.188069 0.464531 0.578022
C51 C -0.1164(16) 0.5625(9) 0.6249(5)
H43 H -0.185372 0.604838 0.608195
C52 C -0.0102(16) 0.5815(9) 0.6679(5)
C53 C 0.0865(15) 0.5214(8) 0.6936(4)
H44 H 0.156602 0.536420 0.723030
C54 C 0.0812(16) 0.4396(8) 0.6765(5)
H45 H 0.145859 0.397131 0.694741
Br7 Br 0.4836(6) 0.7069(4) 0.6795(4)
F13 F 0.511(2) -0.0371(7) 0.5091(5)
F14 F 0.6229(15) 0.0820(9) 0.4985(5)
F15 F 0.3676(18) 0.0727(12) 0.4830(8)
O10 O 0.7031(10) 0.2723(6) 0.6808(3)
O11 O 0.3171(10) 0.1256(6) 0.7330(3)
O12 O 0.2004(11) 0.2332(8) 0.6842(3)
N4 N 0.4932(12) 0.3317(6) 0.6254(4)
H46 H 0.423221 0.318462 0.599041
C55 C 0.5841(16) 0.2662(8) 0.6481(5)
C56 C 0.5232(14) 0.1794(7) 0.6301(4)
C57 C 0.5262(16) 0.1548(8) 0.5819(5)
H47 H 0.559481 0.193686 0.558716
C58 C 0.4786(19) 0.0698(9) 0.5671(5)
C59 C 0.4264(17) 0.0137(10) 0.6007(6)
H48 H 0.392666 -0.042426 0.590920
C60 C 0.4244(17) 0.0416(8) 0.6495(5)
H49 H 0.388540 0.003855 0.672808
C61 C 0.4737(14) 0.1230(8) 0.6643(5)
C62 C 0.4720(17) 0.1480(8) 0.7195(5)
H50 H 0.486870 0.211214 0.722922
C63 C 0.5985(17) 0.1051(9) 0.7549(5)
H51 H 0.581584 0.043212 0.753245
H52 H 0.592697 0.125146 0.788671
H53 H 0.704808 0.118653 0.746336
C64 C 0.4909(16) 0.0449(8) 0.5160(5)
C65 C 0.1896(17) 0.1718(8) 0.7144(5)
C66 C 0.0386(18) 0.1495(9) 0.7338(6)
H54 H 0.027321 0.186353 0.762148
H55 H 0.043068 0.089706 0.744450
H56 H -0.053960 0.157921 0.707666
C67 C 0.5004(16) 0.4167(8) 0.6396(5)
C68 C 0.5883(15) 0.4465(8) 0.6839(4)
H57 H 0.650436 0.408166 0.706123
C69 C 0.5835(16) 0.5326(8) 0.6950(5)
H58 H 0.643306 0.553306 0.725039
C70 C 0.4949(15) 0.5876(8) 0.6637(5)
C71 C 0.4037(16) 0.5606(9) 0.6200(5)
H59 H 0.338944 0.600117 0.599378
C72 C 0.4069(16) 0.4756(8) 0.6065(5)
H60 H 0.348325 0.456467 0.575940
Br2? Br -0.186(2) 0.2890(13) 0.8206(10)
Br4? Br 0.306(3) 0.2978(15) 0.8103(10)
F7? F 0.366(5) 1.0247(19) 0.9911(15)
F8? F 0.592(4) 1.002(3) 0.9838(14)
F9? F 0.513(4) 0.8779(17) 0.9994(10)
Br6? Br 0.000(2) 0.6999(14) 0.6805(12)
Br8? Br 0.500(3) 0.6935(15) 0.6929(12)
F16? F 0.399(4) -0.0326(16) 0.5043(13)
F17? F 0.633(3) 0.032(2) 0.5075(11)
F18? F 0.405(5) 0.095(3) 0.482(2)
loop_
_geom_bond_atom_site_label_1
_geom_bond_atom_site_label_2
_geom_bond_site_symmetry_1
_geom_bond_site_symmetry_2
Br1 C16 1_555 1_555
F1 C10 1_555 1_555
F2 C10 1_555 1_555
F3 C10 1_555 1_555
O1 C1 1_555 1_555
O2 C8 1_555 1_555
O3 C11 1_555 1_555
N1 H1 1_555 1_555
C1 N1 1_555 1_555
C2 C1 1_555 1_555
C3 C2 1_555 1_555
H2 C3 1_555 1_555
C4 C3 1_555 1_555
C5 C4 1_555 1_555
H3 C5 1_555 1_555
C6 C5 1_555 1_555
H4 C6 1_555 1_555
C7 C2 1_555 1_555
C8 C7 1_555 1_555
H5 C8 1_555 1_555
C9 C8 1_555 1_555
H6 C9 1_555 1_555
H7 C9 1_555 1_555
H8 C9 1_555 1_555
C10 C4 1_555 1_555
C11 O2 1_555 1_555
C12 C11 1_555 1_555
H9 C12 1_555 1_555
H10 C12 1_555 1_555
H11 C12 1_555 1_555
C13 N1 1_555 1_555
C14 C13 1_555 1_555
H12 C14 1_555 1_555
C15 C14 1_555 1_555
H13 C15 1_555 1_555
C16 C15 1_555 1_555
C17 C16 1_555 1_555
H14 C17 1_555 1_555
C18 C13 1_555 1_555
H15 C18 1_555 1_555
Br3 C34 1_555 1_555
F4 C28 1_555 1_555
F5 C28 1_555 1_555
F6 C28 1_555 1_555
O4 C19 1_555 1_555
O5 C26 1_555 1_555
O6 C29 1_555 1_555
N2 H16 1_555 1_555
C19 N2 1_555 1_555
C20 C19 1_555 1_555
C21 C20 1_555 1_555
H17 C21 1_555 1_555
C22 C21 1_555 1_555
C23 C22 1_555 1_555
H18 C23 1_555 1_555
C24 C23 1_555 1_555
H19 C24 1_555 1_555
C25 C20 1_555 1_555
C26 C25 1_555 1_555
H20 C26 1_555 1_555
C27 C26 1_555 1_555
H21 C27 1_555 1_555
H22 C27 1_555 1_555
H23 C27 1_555 1_555
C28 C22 1_555 1_555
C29 O5 1_555 1_555
C30 C29 1_555 1_555
H24 C30 1_555 1_555
H25 C30 1_555 1_555
H26 C30 1_555 1_555
C31 N2 1_555 1_555
C32 C31 1_555 1_555
H27 C32 1_555 1_555
C33 C32 1_555 1_555
H28 C33 1_555 1_555
C34 C33 1_555 1_555
C35 C34 1_555 1_555
H29 C35 1_555 1_555
C36 C31 1_555 1_555
H30 C36 1_555 1_555
Br5 C52 1_555 1_555
F10 C46 1_555 1_555
F11 C46 1_555 1_555
F12 C46 1_555 1_555
O7 C37 1_555 1_555
O8 C44 1_555 1_555
O9 C47 1_555 1_555
N3 H31 1_555 1_555
C37 N3 1_555 1_555
C38 C37 1_555 1_555
C39 C38 1_555 1_555
H32 C39 1_555 1_555
C40 C39 1_555 1_555
C41 C40 1_555 1_555
H33 C41 1_555 1_555
C42 C41 1_555 1_555
H34 C42 1_555 1_555
C43 C38 1_555 1_555
C44 C43 1_555 1_555
H35 C44 1_555 1_555
C45 C44 1_555 1_555
H36 C45 1_555 1_555
H37 C45 1_555 1_555
H38 C45 1_555 1_555
C46 C40 1_555 1_555
C47 O8 1_555 1_555
C48 C47 1_555 1_555
H39 C48 1_555 1_555
H40 C48 1_555 1_555
H41 C48 1_555 1_555
C49 N3 1_555 1_555
C50 C49 1_555 1_555
H42 C50 1_555 1_555
C51 C50 1_555 1_555
H43 C51 1_555 1_555
C52 C51 1_555 1_555
C53 C52 1_555 1_555
H44 C53 1_555 1_555
C54 C49 1_555 1_555
H45 C54 1_555 1_555
Br7 C70 1_555 1_555
F13 C64 1_555 1_555
F14 C64 1_555 1_555
F15 C64 1_555 1_555
O10 C55 1_555 1_555
O11 C62 1_555 1_555
O12 C65 1_555 1_555
N4 H46 1_555 1_555
C55 N4 1_555 1_555
C56 C55 1_555 1_555
C57 C56 1_555 1_555
H47 C57 1_555 1_555
C58 C57 1_555 1_555
C59 C58 1_555 1_555
H48 C59 1_555 1_555
C60 C59 1_555 1_555
H49 C60 1_555 1_555
C61 C56 1_555 1_555
C62 C61 1_555 1_555
H50 C62 1_555 1_555
C63 C62 1_555 1_555
H51 C63 1_555 1_555
H52 C63 1_555 1_555
H53 C63 1_555 1_555
C64 C58 1_555 1_555
C65 O11 1_555 1_555
C66 C65 1_555 1_555
H54 C66 1_555 1_555
H55 C66 1_555 1_555
H56 C66 1_555 1_555
C67 N4 1_555 1_555
C68 C67 1_555 1_555
H57 C68 1_555 1_555
C69 C68 1_555 1_555
H58 C69 1_555 1_555
C70 C69 1_555 1_555
C71 C70 1_555 1_555
H59 C71 1_555 1_555
C72 C67 1_555 1_555
H60 C72 1_555 1_555
C6 C7 1_555 1_555
C17 C18 1_555 1_555
C24 C25 1_555 1_555
C35 C36 1_555 1_555
C42 C43 1_555 1_555
C53 C54 1_555 1_555
C60 C61 1_555 1_555
C71 C72 1_555 1_555

#END
