
#######################################################################
#
#                 Cambridge Crystallographic Data Centre
#                                CCDC 
#
#######################################################################
#
# If this CIF has been generated from an entry in the Cambridge 
# Structural Database, then it will include bibliographic, chemical, 
# crystal, experimental, refinement or atomic coordinate data resulting 
# from the CCDC's data processing and validation procedures.
#
#######################################################################

data_XIFLAA
_chemical_formula_moiety         'C11 H11 N3 O2 S1,C6 H7 N1'
_chemical_name_systematic        
'4-Amino-N-(pyridin-2(1H)-ylidene)benzenesulfonamide 4-methylpyridine solvate'
_symmetry_cell_setting           monoclinic
_symmetry_space_group_name_H-M   'P 21/c'
_symmetry_Int_Tables_number      14
_space_group_name_Hall           '-P 2ybc'
loop_
_symmetry_equiv_pos_site_id
_symmetry_equiv_pos_as_xyz
1 x,y,z
2 -x,1/2+y,1/2-z
3 -x,-y,-z
4 x,1/2-y,1/2+z
_cell_length_a                   8.252(2)
_cell_length_b                   10.535(2)
_cell_length_c                   19.923(4)
_cell_angle_alpha                90
_cell_angle_beta                 99.17(3)
_cell_angle_gamma                90
_cell_volume                     1709.87
_exptl_crystal_colour            colorless
_exptl_crystal_description       block
_cell_formula_units_Z            4
loop_
_atom_site_label
_atom_site_type_symbol
_atom_site_fract_x
_atom_site_fract_y
_atom_site_fract_z
S1 S 0.22563(4) 0.29431(3) 0.143864(17)
C1 C 0.15334(16) 0.20802(12) 0.02194(7)
C2 C -0.09750(15) 0.30374(12) 0.16249(7)
N1 N 0.24895(14) 0.20170(11) 0.08365(6)
O1 O 0.36520(12) 0.27381(11) 0.19689(5)
N2 N 0.17345(15) 0.10743(12) -0.01874(6)
C3 C 0.05162(15) 0.23999(12) 0.17600(6)
C4 C 0.06238(16) 0.12805(13) 0.21374(7)
O2 O 0.19649(13) 0.42598(9) 0.12428(6)
C5 C -0.22477(16) 0.14452(13) 0.22490(7)
C6 C 0.0949(2) 0.09484(16) -0.08325(8)
N3 N -0.35959(17) 0.09662(15) 0.24775(8)
C7 C 0.04021(19) 0.30210(14) -0.00649(8)
C8 C -0.23435(15) 0.25722(13) 0.18680(7)
C9 C -0.07275(17) 0.08133(14) 0.23827(7)
C10 C -0.0410(2) 0.28938(16) -0.07194(9)
C11 C -0.0133(2) 0.18481(17) -0.11180(9)
H1 H -0.448(3) 0.138(2) 0.2377(12)
H2 H -0.354(3) 0.036(2) 0.2730(12)
H3 H -0.338(2) 0.3055(15) 0.1779(9)
H4 H 0.161(2) 0.0826(17) 0.2242(9)
H5 H -0.105(2) 0.3816(17) 0.1371(9)
H6 H 0.019(2) 0.3723(18) 0.0197(9)
H7 H -0.068(2) 0.0081(19) 0.2621(10)
H8 H 0.246(2) 0.0455(19) -0.0006(10)
H9 H -0.115(3) 0.355(2) -0.0895(11)
H10 H 0.117(2) 0.0184(19) -0.1064(10)
H11 H -0.061(3) 0.175(2) -0.1577(12)
C12 C 0.45535(19) 0.30188(14) -0.09090(8)
N4 N 0.62825(16) 0.09044(12) -0.03280(6)
C13 C 0.4783(2) 0.19536(15) -0.12955(8)
C14 C 0.5189(2) 0.29774(14) -0.02220(8)
C15 C 0.5647(2) 0.09302(15) -0.09884(8)
C16 C 0.6031(2) 0.19211(15) 0.00446(8)
C17 C 0.3650(3) 0.41661(19) -0.12193(12)
H12 H 0.648(3) 0.1846(18) 0.0522(11)
H13 H 0.495(3) 0.3674(18) 0.0066(11)
H14 H 0.584(2) 0.0187(17) -0.1238(9)
H15 H 0.431(3) 0.190(2) -0.1748(14)
H16 H 0.446(4) 0.480(3) -0.1315(16)
H17 H 0.317(3) 0.468(2) -0.0892(13)
H18 H 0.272(4) 0.394(3) -0.1545(16)
loop_
_geom_bond_atom_site_label_1
_geom_bond_atom_site_label_2
_geom_bond_site_symmetry_1
_geom_bond_site_symmetry_2
S1 N1 1_555 1_555
C1 N1 1_555 1_555
C2 C3 1_555 1_555
O1 S1 1_555 1_555
N2 C1 1_555 1_555
C3 S1 1_555 1_555
C4 C3 1_555 1_555
O2 S1 1_555 1_555
C5 N3 1_555 1_555
C6 N2 1_555 1_555
N3 H1 1_555 1_555
C7 C1 1_555 1_555
C8 C2 1_555 1_555
C9 C4 1_555 1_555
C10 C7 1_555 1_555
C11 C6 1_555 1_555
H2 N3 1_555 1_555
H3 C8 1_555 1_555
H4 C4 1_555 1_555
H5 C2 1_555 1_555
H6 C7 1_555 1_555
H7 C9 1_555 1_555
H8 N2 1_555 1_555
H9 C10 1_555 1_555
H10 C6 1_555 1_555
H11 C11 1_555 1_555
C12 C13 1_555 1_555
N4 C15 1_555 1_555
C13 C15 1_555 1_555
C14 C12 1_555 1_555
C15 H14 1_555 1_555
C16 N4 1_555 1_555
C17 C12 1_555 1_555
H12 C16 1_555 1_555
H13 C14 1_555 1_555
H15 C13 1_555 1_555
H16 C17 1_555 1_555
H17 C17 1_555 1_555
H18 C17 1_555 1_555
C5 C8 1_555 1_555
C5 C9 1_555 1_555
C10 C11 1_555 1_555
C14 C16 1_555 1_555

#END
