
#######################################################################
#
#                 Cambridge Crystallographic Data Centre
#                                CCDC 
#
#######################################################################
#
# If this CIF has been generated from an entry in the Cambridge 
# Structural Database, then it will include bibliographic, chemical, 
# crystal, experimental, refinement or atomic coordinate data resulting 
# from the CCDC's data processing and validation procedures.
#
#######################################################################

data_XIFLII04
_chemical_formula_moiety         'C12 H12 N4 O3 S1'
_chemical_name_systematic        N-(4-(pyrazin-2-ylsulfamoyl)phenyl)acetamide
_symmetry_cell_setting           triclinic
_symmetry_space_group_name_H-M   'P -1'
_symmetry_Int_Tables_number      2
_space_group_name_Hall           '-P 1'
loop_
_symmetry_equiv_pos_site_id
_symmetry_equiv_pos_as_xyz
1 x,y,z
2 -x,-y,-z
_cell_length_a                   8.453(2)
_cell_length_b                   11.809(2)
_cell_length_c                   14.541(3)
_cell_angle_alpha                104.79(3)
_cell_angle_beta                 104.05(3)
_cell_angle_gamma                98.40(3)
_cell_volume                     1327.51
_exptl_crystal_colour            colorless
_exptl_crystal_description       block
_cell_formula_units_Z            4
loop_
_atom_site_label
_atom_site_type_symbol
_atom_site_fract_x
_atom_site_fract_y
_atom_site_fract_z
S1 S -0.00770(9) -0.00736(6) 0.73780(6)
O1 O -0.1283(2) 0.05408(16) 0.69826(16)
O2 O -0.0627(2) -0.12106(15) 0.75065(16)
O3 O 0.4188(3) 0.50049(18) 1.10215(18)
N1 N 0.4483(3) 0.3191(2) 1.1200(2)
N2 N 0.1034(3) -0.0251(2) 0.66012(19)
N3 N 0.3396(3) -0.0466(2) 0.6130(2)
N4 N 0.4191(4) -0.1937(2) 0.7311(2)
C1 C 0.6117(6) 0.4966(4) 1.2500(3)
C2 C 0.4837(4) 0.4409(3) 1.1512(2)
C3 C 0.3384(4) 0.2437(2) 1.0292(2)
C4 C 0.2608(5) 0.1295(3) 1.0240(3)
C5 C 0.1577(4) 0.0517(3) 0.9356(2)
C6 C 0.1278(3) 0.0881(2) 0.8513(2)
C7 C 0.2055(4) 0.2015(2) 0.8557(3)
C8 C 0.3108(4) 0.2784(3) 0.9430(2)
C9 C 0.2432(4) -0.0749(2) 0.6677(2)
C10 C 0.4730(5) -0.0954(4) 0.6182(3)
C11 C 0.5140(5) -0.1647(3) 0.6762(3)
C12 C 0.2830(5) -0.1484(3) 0.7265(3)
H1 H 0.495(4) 0.286(3) 1.168(2)
H2 H 0.592(8) 0.468(5) 1.308(5)
H3 H 0.606(6) 0.564(4) 1.269(4)
H4 H 0.708(6) 0.476(4) 1.246(3)
H5 H 0.109(4) 0.030(3) 0.636(3)
H6 H 0.281(4) 0.105(3) 1.078(3)
H7 H 0.113(4) -0.028(3) 0.932(2)
H8 H 0.185(3) 0.225(2) 0.799(2)
H9 H 0.362(3) 0.355(3) 0.945(2)
H10 H 0.611(4) -0.199(2) 0.683(2)
H11 H 0.537(4) -0.070(3) 0.585(3)
H12 H 0.222(4) -0.162(3) 0.769(3)
S2 S 0.26061(9) -0.40968(7) 0.37819(6)
O4 O 0.3334(2) -0.29229(17) 0.37960(16)
O5 O 0.3640(2) -0.48782(19) 0.40588(17)
O6 O -0.2139(5) -0.8553(2) -0.0425(2)
N5 N -0.2232(3) -0.6610(2) -0.0178(2)
N6 N 0.1494(3) -0.3955(2) 0.45761(19)
N7 N -0.1010(3) -0.37541(19) 0.48963(18)
N8 N -0.1055(3) -0.17525(19) 0.42263(18)
C13 C -0.3876(6) -0.8104(4) -0.1743(3)
C14 C -0.2691(4) -0.7800(3) -0.0726(3)
C15 C -0.1081(4) -0.6061(2) 0.0755(2)
C16 C -0.0622(4) -0.4812(3) 0.1078(2)
C17 C 0.0507(4) -0.4209(3) 0.1989(2)
C18 C 0.1203(3) -0.4839(2) 0.2607(2)
C19 C 0.0750(5) -0.6084(3) 0.2278(3)
C20 C -0.0360(4) -0.6690(3) 0.1375(3)
C21 C 0.0211(3) -0.3326(2) 0.4562(2)
C22 C -0.2245(4) -0.3152(3) 0.4902(2)
C23 C -0.2277(4) -0.2189(3) 0.4555(2)
C24 C 0.0195(4) -0.2314(3) 0.4240(2)
H13 H -0.273(4) -0.614(3) -0.047(2)
H14 H -0.491(6) -0.879(4) -0.181(3)
H15 H -0.426(4) -0.745(3) -0.188(3)
H16 H -0.336(8) -0.848(5) -0.221(5)
H17 H 0.131(4) -0.454(3) 0.479(2)
H18 H -0.106(3) -0.436(2) 0.065(2)
H19 H 0.082(3) -0.340(2) 0.221(2)
H20 H 0.125(4) -0.643(3) 0.271(3)
H21 H -0.053(4) -0.754(3) 0.119(2)
H22 H -0.298(4) -0.347(2) 0.514(2)
H23 H -0.315(4) -0.185(2) 0.451(2)
H24 H 0.104(3) -0.200(2) 0.404(2)
loop_
_geom_bond_atom_site_label_1
_geom_bond_atom_site_label_2
_geom_bond_site_symmetry_1
_geom_bond_site_symmetry_2
S1 O1 1_555 1_555
O2 S1 1_555 1_555
O3 C2 1_555 1_555
N1 C2 1_555 1_555
N2 S1 1_555 1_555
N3 C9 1_555 1_555
N4 C11 1_555 1_555
C1 C2 1_555 1_555
C3 N1 1_555 1_555
C4 C3 1_555 1_555
C5 C4 1_555 1_555
C6 S1 1_555 1_555
C7 C6 1_555 1_555
C8 C3 1_555 1_555
C9 N2 1_555 1_555
C10 N3 1_555 1_555
C11 C10 1_555 1_555
C12 N4 1_555 1_555
H1 N1 1_555 1_555
H2 C1 1_555 1_555
H3 C1 1_555 1_555
H4 C1 1_555 1_555
H5 N2 1_555 1_555
H6 C4 1_555 1_555
H7 C5 1_555 1_555
H8 C7 1_555 1_555
H9 C8 1_555 1_555
H10 C11 1_555 1_555
H11 C10 1_555 1_555
H12 C12 1_555 1_555
S2 O4 1_555 1_555
O5 S2 1_555 1_555
O6 C14 1_555 1_555
N5 C14 1_555 1_555
N6 S2 1_555 1_555
N7 C21 1_555 1_555
N8 C23 1_555 1_555
C13 C14 1_555 1_555
C15 N5 1_555 1_555
C16 C15 1_555 1_555
C17 C16 1_555 1_555
C18 S2 1_555 1_555
C19 C18 1_555 1_555
C20 C15 1_555 1_555
C21 N6 1_555 1_555
C22 N7 1_555 1_555
C23 C22 1_555 1_555
C24 N8 1_555 1_555
H13 N5 1_555 1_555
H14 C13 1_555 1_555
H15 C13 1_555 1_555
H16 C13 1_555 1_555
H17 N6 1_555 1_555
H18 C16 1_555 1_555
H19 C17 1_555 1_555
H20 C19 1_555 1_555
H21 C20 1_555 1_555
H22 C22 1_555 1_555
H23 C23 1_555 1_555
H24 C24 1_555 1_555
C5 C6 1_555 1_555
C7 C8 1_555 1_555
C9 C12 1_555 1_555
C17 C18 1_555 1_555
C19 C20 1_555 1_555
C21 C24 1_555 1_555

#END
