
#######################################################################
#
#                 Cambridge Crystallographic Data Centre
#                                CCDC 
#
#######################################################################
#
# If this CIF has been generated from an entry in the Cambridge 
# Structural Database, then it will include bibliographic, chemical, 
# crystal, experimental, refinement or atomic coordinate data resulting 
# from the CCDC's data processing and validation procedures.
#
#######################################################################

data_XIFLEE01
_chemical_name_common            2-benzenesulfonamido-5-chloropyridine
_chemical_formula_moiety         'C11 H9 Cl1 N2 O2 S1'
_chemical_name_systematic        N-(5-Chloropyridin-2-yl)benzenesulfonamide
_symmetry_cell_setting           triclinic
_symmetry_space_group_name_H-M   'P -1'
_symmetry_Int_Tables_number      2
_space_group_name_Hall           '-P 1'
loop_
_symmetry_equiv_pos_site_id
_symmetry_equiv_pos_as_xyz
1 x,y,z
2 -x,-y,-z
_cell_length_a                   9.643(2)
_cell_length_b                   11.069(2)
_cell_length_c                   11.162(2)
_cell_angle_alpha                93.35(3)
_cell_angle_beta                 102.12(3)
_cell_angle_gamma                98.20(3)
_cell_volume                     1148.13
_exptl_crystal_colour            colorless
_exptl_crystal_description       Needles
_cell_formula_units_Z            4
loop_
_atom_site_label
_atom_site_type_symbol
_atom_site_fract_x
_atom_site_fract_y
_atom_site_fract_z
S1 S -0.00353(5) 0.69594(5) 0.02569(4)
Cl1 Cl 0.60256(6) 1.15994(6) 0.17130(5)
O1 O -0.15557(15) 0.67660(14) 0.01661(13)
O2 O 0.08785(16) 0.63835(14) 0.11473(13)
N1 N 0.04330(19) 0.84421(17) 0.05353(16)
N2 N 0.18850(18) 1.02850(16) 0.06011(16)
C1 C 0.0741(3) 0.5896(2) -0.3479(2)
C2 C -0.0521(3) 0.6324(2) -0.3390(2)
C3 C -0.0760(2) 0.6664(2) -0.2248(2)
C4 C 0.0274(2) 0.65578(19) -0.12043(18)
C5 C 0.1531(2) 0.6119(2) -0.1286(2)
C6 C 0.1755(2) 0.5791(2) -0.2441(2)
C7 C 0.1832(2) 0.9113(2) 0.08309(18)
C8 C 0.3050(2) 0.8632(2) 0.1357(2)
C9 C 0.4353(2) 0.9395(2) 0.1633(2)
C10 C 0.4415(2) 1.0603(2) 0.13934(19)
C11 C 0.3159(2) 1.1018(2) 0.0883(2)
H1 H 0.090(2) 0.566(2) -0.423(2)
H2 H -0.021(3) 0.881(2) 0.020(2)
H3 H -0.124(3) 0.641(2) -0.413(2)
H4 H -0.155(3) 0.695(2) -0.217(2)
H5 H 0.221(2) 0.604(2) -0.055(2)
H6 H 0.261(3) 0.552(2) -0.247(2)
H7 H 0.300(2) 0.782(2) 0.154(2)
H8 H 0.523(3) 0.916(2) 0.202(2)
H9 H 0.318(3) 1.186(2) 0.075(2)
S2 S -0.48465(5) 0.30396(5) 0.47900(4)
Cl2 Cl 0.09712(6) 0.00155(6) 0.71300(6)
N3 N -0.4355(2) 0.16845(19) 0.48187(16)
N4 N -0.30680(18) 0.01955(17) 0.55500(15)
O3 O -0.62259(15) 0.28385(14) 0.39665(13)
O4 O -0.37060(16) 0.39114(15) 0.45619(13)
C12 C -0.5387(3) 0.3883(2) 0.8650(2)
C13 C -0.6408(2) 0.3035(2) 0.7845(2)
C14 C -0.6257(2) 0.2792(2) 0.6652(2)
C15 C -0.5074(2) 0.34051(19) 0.62878(18)
C16 C -0.4057(2) 0.4262(2) 0.7086(2)
C17 C -0.4221(2) 0.4497(2) 0.8281(2)
C18 C -0.3030(2) 0.1391(2) 0.54242(18)
C19 C -0.1797(2) 0.2238(2) 0.5852(2)
C20 C -0.0549(2) 0.1837(2) 0.6382(2)
C21 C -0.0569(2) 0.0595(2) 0.64784(19)
C22 C -0.1842(2) -0.0194(2) 0.6071(2)
H10 H -0.548(3) 0.401(2) 0.941(2)
H11 H -0.502(3) 0.116(2) 0.474(2)
H12 H -0.720(3) 0.259(2) 0.808(2)
H13 H -0.695(2) 0.222(2) 0.607(2)
H14 H -0.328(2) 0.467(2) 0.6834(18)
H15 H -0.349(3) 0.511(2) 0.882(2)
H16 H -0.181(3) 0.302(3) 0.585(2)
H17 H 0.031(3) 0.239(2) 0.6678(19)
H18 H -0.190(2) -0.104(2) 0.6184(19)
loop_
_geom_bond_atom_site_label_1
_geom_bond_atom_site_label_2
_geom_bond_site_symmetry_1
_geom_bond_site_symmetry_2
S1 O1 1_555 1_555
Cl1 C10 1_555 1_555
O2 S1 1_555 1_555
N1 S1 1_555 1_555
N2 C7 1_555 1_555
C1 C2 1_555 1_555
C2 C3 1_555 1_555
C3 C4 1_555 1_555
C4 S1 1_555 1_555
C5 C4 1_555 1_555
C6 C1 1_555 1_555
C7 N1 1_555 1_555
C8 C7 1_555 1_555
C9 C8 1_555 1_555
C10 C9 1_555 1_555
C11 N2 1_555 1_555
H1 C1 1_555 1_555
H2 N1 1_555 1_555
H3 C2 1_555 1_555
H4 C3 1_555 1_555
H5 C5 1_555 1_555
H6 C6 1_555 1_555
H7 C8 1_555 1_555
H8 C9 1_555 1_555
H9 C11 1_555 1_555
S2 N3 1_555 1_555
Cl2 C21 1_555 1_555
N3 C18 1_555 1_555
N4 C18 1_555 1_555
O3 S2 1_555 1_555
O4 S2 1_555 1_555
C12 C13 1_555 1_555
C13 C14 1_555 1_555
C14 C15 1_555 1_555
C15 S2 1_555 1_555
C16 C15 1_555 1_555
C17 C12 1_555 1_555
C18 C19 1_555 1_555
C19 C20 1_555 1_555
C20 C21 1_555 1_555
C21 C22 1_555 1_555
C22 N4 1_555 1_555
H10 C12 1_555 1_555
H11 N3 1_555 1_555
H12 C13 1_555 1_555
H13 C14 1_555 1_555
H14 C16 1_555 1_555
H15 C17 1_555 1_555
H16 C19 1_555 1_555
H17 C20 1_555 1_555
H18 C22 1_555 1_555
C5 C6 1_555 1_555
C10 C11 1_555 1_555
C16 C17 1_555 1_555

#END
