
#######################################################################
#
#                 Cambridge Crystallographic Data Centre
#                                CCDC 
#
#######################################################################
#
# If this CIF has been generated from an entry in the Cambridge 
# Structural Database, then it will include bibliographic, chemical, 
# crystal, experimental, refinement or atomic coordinate data resulting 
# from the CCDC's data processing and validation procedures.
#
#######################################################################

data_XIFLUU01
_chemical_formula_moiety         'C12 H11 Cl1 N2 O2 S1'
_chemical_name_systematic        
N-(5-chloropyridin-2-yl)-4-methylbenzenesulfonamide
_symmetry_cell_setting           triclinic
_symmetry_space_group_name_H-M   'P -1'
_symmetry_Int_Tables_number      2
_space_group_name_Hall           '-P 1'
loop_
_symmetry_equiv_pos_site_id
_symmetry_equiv_pos_as_xyz
1 x,y,z
2 -x,-y,-z
_cell_length_a                   9.748(2)
_cell_length_b                   10.889(2)
_cell_length_c                   12.473(2)
_cell_angle_alpha                80.32(3)
_cell_angle_beta                 79.02(3)
_cell_angle_gamma                74.54(3)
_cell_volume                     1243.02
_exptl_crystal_colour            colorless
_exptl_crystal_description       blocks
_cell_formula_units_Z            4
loop_
_atom_site_label
_atom_site_type_symbol
_atom_site_fract_x
_atom_site_fract_y
_atom_site_fract_z
S1 S 0.01704(5) 0.88049(5) 0.76492(4)
Cl1 Cl 0.61115(5) 0.87936(6) 0.34152(5)
O1 O -0.13125(15) 0.87632(15) 0.78174(13)
O2 O 0.12110(15) 0.77406(14) 0.80880(12)
N1 N 0.06034(18) 0.90152(17) 0.63149(14)
N2 N 0.19648(17) 0.94928(17) 0.46645(15)
C1 C 0.0296(3) 1.3523(3) 0.9546(2)
C2 C 0.0318(2) 1.2370(2) 0.90210(17)
C3 C -0.0744(2) 1.2385(2) 0.8415(2)
C4 C -0.0785(2) 1.1316(2) 0.7985(2)
C5 C 0.0268(2) 1.0191(2) 0.81496(17)
C6 C 0.1357(2) 1.0146(2) 0.87384(19)
C7 C 0.1372(2) 1.1238(2) 0.9160(2)
C8 C 0.1988(2) 0.89336(19) 0.56984(17)
C9 C 0.3223(2) 0.9437(2) 0.39901(19)
C10 C 0.4528(2) 0.8827(2) 0.43339(18)
C11 C 0.4550(2) 0.8245(2) 0.54003(19)
C12 C 0.3263(2) 0.8287(2) 0.6104(2)
H1 H -0.013(2) 0.950(2) 0.5987(19)
H2 H 0.125(3) 1.362(3) 0.960(2)
H3 H -0.024(3) 1.351(3) 1.026(2)
H4 H -0.027(3) 1.429(3) 0.917(3)
H5 H -0.146(3) 1.314(3) 0.831(2)
H6 H -0.156(3) 1.134(2) 0.758(2)
H7 H 0.204(2) 0.935(2) 0.8863(18)
H8 H 0.209(3) 1.123(2) 0.958(2)
H9 H 0.313(2) 0.986(2) 0.323(2)
H10 H 0.547(2) 0.781(2) 0.5643(18)
H11 H 0.327(2) 0.791(2) 0.683(2)
S2 S 0.48313(5) 0.38798(5) 0.76739(4)
Cl2 Cl -0.10910(5) 0.71473(6) 0.50016(5)
O3 O 0.62631(15) 0.30896(14) 0.74750(12)
O4 O 0.37337(15) 0.33863(15) 0.84029(12)
N3 N 0.43644(18) 0.42960(17) 0.64462(15)
N4 N 0.30313(17) 0.55312(17) 0.51452(14)
C13 C 0.5267(3) 0.8683(3) 0.9281(2)
C14 C 0.5159(2) 0.7486(2) 0.88856(18)
C15 C 0.6149(2) 0.6965(2) 0.8021(2)
C16 C 0.6048(2) 0.5872(2) 0.76464(19)
C17 C 0.4934(2) 0.5289(2) 0.81364(17)
C18 C 0.3939(2) 0.5796(2) 0.89944(18)
C19 C 0.4059(2) 0.6885(2) 0.93663(19)
C20 C 0.3006(2) 0.4968(2) 0.61767(17)
C21 C 0.1780(2) 0.6173(2) 0.48087(19)
C22 C 0.0474(2) 0.6275(2) 0.54972(18)
C23 C 0.0457(2) 0.5695(3) 0.6558(2)
C24 C 0.1732(2) 0.5021(3) 0.6912(2)
H12 H 0.506(3) 0.439(2) 0.598(2)
H13 H 0.471(3) 0.948(3) 0.890(3)
H14 H 0.488(3) 0.871(3) 1.004(3)
H15 H 0.621(4) 0.880(3) 0.920(3)
H16 H 0.690(3) 0.740(2) 0.765(2)
H17 H 0.670(3) 0.549(2) 0.708(2)
H18 H 0.320(2) 0.536(2) 0.9347(19)
H19 H 0.335(3) 0.727(2) 0.997(2)
H20 H 0.186(2) 0.655(2) 0.4057(19)
H21 H -0.044(3) 0.578(3) 0.701(2)
H22 H 0.180(3) 0.460(3) 0.761(2)
loop_
_geom_bond_atom_site_label_1
_geom_bond_atom_site_label_2
_geom_bond_site_symmetry_1
_geom_bond_site_symmetry_2
S1 O1 1_555 1_555
Cl1 C10 1_555 1_555
O2 S1 1_555 1_555
N1 S1 1_555 1_555
N2 C8 1_555 1_555
C1 C2 1_555 1_555
C2 C3 1_555 1_555
C3 C4 1_555 1_555
C4 C5 1_555 1_555
C5 S1 1_555 1_555
C6 C5 1_555 1_555
C7 C2 1_555 1_555
C8 N1 1_555 1_555
C9 N2 1_555 1_555
C10 C9 1_555 1_555
C11 C10 1_555 1_555
C12 C8 1_555 1_555
H1 N1 1_555 1_555
H2 C1 1_555 1_555
H3 C1 1_555 1_555
H4 C1 1_555 1_555
H5 C3 1_555 1_555
H6 C4 1_555 1_555
H7 C6 1_555 1_555
H8 C7 1_555 1_555
H9 C9 1_555 1_555
H10 C11 1_555 1_555
H11 C12 1_555 1_555
S2 O3 1_555 1_555
Cl2 C22 1_555 1_555
O4 S2 1_555 1_555
N3 S2 1_555 1_555
N4 C20 1_555 1_555
C13 C14 1_555 1_555
C14 C15 1_555 1_555
C15 C16 1_555 1_555
C16 C17 1_555 1_555
C17 S2 1_555 1_555
C18 C17 1_555 1_555
C19 C14 1_555 1_555
C20 N3 1_555 1_555
C21 N4 1_555 1_555
C22 C21 1_555 1_555
C23 C22 1_555 1_555
C24 C20 1_555 1_555
H12 N3 1_555 1_555
H13 C13 1_555 1_555
H14 C13 1_555 1_555
H15 C13 1_555 1_555
H16 C15 1_555 1_555
H17 C16 1_555 1_555
H18 C18 1_555 1_555
H19 C19 1_555 1_555
H20 C21 1_555 1_555
H21 C23 1_555 1_555
H22 C24 1_555 1_555
C6 C7 1_555 1_555
C11 C12 1_555 1_555
C18 C19 1_555 1_555
C23 C24 1_555 1_555

#END
