
#######################################################################
#
#                 Cambridge Crystallographic Data Centre
#                                CCDC 
#
#######################################################################
#
# If this CIF has been generated from an entry in the Cambridge 
# Structural Database, then it will include bibliographic, chemical, 
# crystal, experimental, refinement or atomic coordinate data resulting 
# from the CCDC's data processing and validation procedures.
#
#######################################################################

data_XIFMOP01
_chemical_formula_moiety         'C11 H10 Br1 N3 O2 S1'
_chemical_name_systematic        2-(p-aminobenzenesulfonamido)-5-bromopyridine
_symmetry_cell_setting           triclinic
_symmetry_space_group_name_H-M   'P -1'
_symmetry_Int_Tables_number      2
_space_group_name_Hall           '-P 1'
loop_
_symmetry_equiv_pos_site_id
_symmetry_equiv_pos_as_xyz
1 x,y,z
2 -x,-y,-z
_cell_length_a                   9.933(2)
_cell_length_b                   11.528(2)
_cell_length_c                   12.703(3)
_cell_angle_alpha                115.74(3)
_cell_angle_beta                 100.11(3)
_cell_angle_gamma                95.54(3)
_cell_volume                     1265.19
_exptl_crystal_colour            colorless
_exptl_crystal_description       Rods
_cell_formula_units_Z            4
loop_
_atom_site_label
_atom_site_type_symbol
_atom_site_fract_x
_atom_site_fract_y
_atom_site_fract_z
Br1 Br 0.59401(4) 0.22560(5) 0.10565(4)
S1 S -0.06856(10) -0.11714(11) -0.30521(10)
O1 O -0.2030(3) -0.1838(3) -0.3113(3)
O2 O -0.0660(3) -0.0252(3) -0.3529(3)
N1 N 0.2800(4) -0.4917(4) -0.5351(4)
N2 N 0.0052(4) -0.0455(4) -0.1621(4)
N3 N 0.1783(3) 0.0613(3) 0.0113(3)
C1 C 0.1942(4) -0.4107(4) -0.4864(4)
C2 C 0.1523(4) -0.4032(4) -0.3833(4)
C3 C 0.0720(4) -0.3156(4) -0.3290(4)
C4 C 0.0313(4) -0.2303(4) -0.3743(4)
C5 C 0.0689(4) -0.2378(4) -0.4774(4)
C6 C 0.1470(4) -0.3277(4) -0.5330(4)
C7 C 0.1425(4) 0.0232(4) -0.1058(4)
C8 C 0.2335(4) 0.0479(4) -0.1680(4)
C9 C 0.3683(4) 0.1096(4) -0.1067(4)
C10 C 0.4087(4) 0.1457(4) 0.0153(4)
C11 C 0.3108(4) 0.1232(4) 0.0719(4)
H1 H 0.307(5) -0.551(5) -0.508(4)
H2 H 0.289(5) -0.504(5) -0.610(5)
H3 H -0.032(5) -0.054(4) -0.129(4)
H4 H 0.186(4) -0.453(4) -0.351(4)
H5 H 0.044(4) -0.314(4) -0.263(3)
H6 H 0.044(4) -0.184(4) -0.509(3)
H7 H 0.177(4) -0.336(4) -0.604(4)
H8 H 0.208(4) 0.019(4) -0.251(4)
H9 H 0.436(5) 0.134(5) -0.144(5)
H10 H 0.333(4) 0.148(4) 0.161(4)
Br2 Br 0.92850(4) 0.29196(5) -0.00636(4)
S2 S 1.46049(11) 0.37314(10) -0.29748(9)
O3 O 1.5946(3) 0.4483(3) -0.2782(3)
O4 O 1.3457(3) 0.3660(3) -0.3874(3)
N4 N 1.5086(5) -0.1632(4) -0.3799(4)
N5 N 1.4225(4) 0.4419(4) -0.1667(3)
N6 N 1.3179(3) 0.4324(3) -0.0213(3)
C12 C 1.5000(4) -0.0390(4) -0.3635(4)
C13 C 1.6108(4) 0.0658(4) -0.2912(4)
C14 C 1.5990(4) 0.1911(4) -0.2721(4)
C15 C 1.4765(4) 0.2140(4) -0.3265(3)
C16 C 1.3667(4) 0.1099(4) -0.4012(4)
C17 C 1.3776(4) -0.0153(4) -0.4190(4)
C18 C 1.3017(4) 0.4012(4) -0.1382(4)
C19 C 1.1746(4) 0.3352(4) -0.2233(4)
C20 C 1.0629(5) 0.3016(4) -0.1849(4)
C21 C 1.0796(4) 0.3345(4) -0.0645(4)
C22 C 1.2073(4) 0.4007(4) 0.0150(4)
H11 H 1.589(5) -0.182(4) -0.366(4)
H12 H 1.443(5) -0.225(5) -0.423(4)
H13 H 1.486(4) 0.479(4) -0.113(4)
H14 H 1.697(4) 0.058(4) -0.250(3)
H15 H 1.669(4) 0.259(4) -0.227(3)
H16 H 1.279(4) 0.122(4) -0.444(4)
H17 H 1.306(4) -0.087(4) -0.472(4)
H18 H 1.178(5) 0.324(5) -0.299(5)
H19 H 0.975(5) 0.250(4) -0.241(4)
H20 H 1.232(4) 0.431(4) 0.113(4)
loop_
_geom_bond_atom_site_label_1
_geom_bond_atom_site_label_2
_geom_bond_site_symmetry_1
_geom_bond_site_symmetry_2
Br1 C10 1_555 1_555
S1 O1 1_555 1_555
O2 S1 1_555 1_555
N1 C1 1_555 1_555
N2 S1 1_555 1_555
N3 C7 1_555 1_555
C1 C2 1_555 1_555
C2 C3 1_555 1_555
C3 C4 1_555 1_555
C4 S1 1_555 1_555
C5 C4 1_555 1_555
C6 C1 1_555 1_555
C7 N2 1_555 1_555
C8 C7 1_555 1_555
C9 C8 1_555 1_555
C10 C9 1_555 1_555
C11 N3 1_555 1_555
H1 N1 1_555 1_555
H2 N1 1_555 1_555
H3 N2 1_555 1_555
H4 C2 1_555 1_555
H5 C3 1_555 1_555
H6 C5 1_555 1_555
H7 C6 1_555 1_555
H8 C8 1_555 1_555
H9 C9 1_555 1_555
H10 C11 1_555 1_555
Br2 C21 1_555 1_555
S2 O3 1_555 1_555
O4 S2 1_555 1_555
N4 C12 1_555 1_555
N5 S2 1_555 1_555
N6 C18 1_555 1_555
C12 C13 1_555 1_555
C13 C14 1_555 1_555
C14 C15 1_555 1_555
C15 S2 1_555 1_555
C16 C15 1_555 1_555
C17 C12 1_555 1_555
C18 N5 1_555 1_555
C19 C18 1_555 1_555
C20 C19 1_555 1_555
C21 C20 1_555 1_555
C22 N6 1_555 1_555
H11 N4 1_555 1_555
H12 N4 1_555 1_555
H13 N5 1_555 1_555
H14 C13 1_555 1_555
H15 C14 1_555 1_555
H16 C16 1_555 1_555
H17 C17 1_555 1_555
H18 C19 1_555 1_555
H19 C20 1_555 1_555
H20 C22 1_555 1_555
C5 C6 1_555 1_555
C10 C11 1_555 1_555
C16 C17 1_555 1_555
C21 C22 1_555 1_555

#END
