
#######################################################################
#
#                 Cambridge Crystallographic Data Centre
#                                CCDC 
#
#######################################################################
#
# If this CIF has been generated from an entry in the Cambridge 
# Structural Database, then it will include bibliographic, chemical, 
# crystal, experimental, refinement or atomic coordinate data resulting 
# from the CCDC's data processing and validation procedures.
#
#######################################################################

data_XIFPUY
_chemical_formula_moiety         'C12 H22 N2 O6'
_chemical_name_systematic        
'Methyl 3-carboxy-7-(t-butoxycarbonyl)-4,7-diazaheptanoate'
_symmetry_cell_setting           orthorhombic
_symmetry_space_group_name_H-M   'P c a 21'
_symmetry_Int_Tables_number      29
_space_group_name_Hall           'P 2c -2ac'
loop_
_symmetry_equiv_pos_site_id
_symmetry_equiv_pos_as_xyz
1 x,y,z
2 -x,-y,1/2+z
3 1/2+x,-y,z
4 1/2-x,y,1/2+z
_cell_length_a                   10.824(2)
_cell_length_b                   15.204(3)
_cell_length_c                   8.9300(18)
_cell_angle_alpha                90
_cell_angle_beta                 90
_cell_angle_gamma                90
_cell_volume                     1469.59
_exptl_crystal_colour            colorless
_exptl_crystal_description       block
_chemical_melting_point          '454 K'
_cell_formula_units_Z            4
_exptl_crystal_recrystallization_method methanol
loop_
_atom_site_label
_atom_site_type_symbol
_atom_site_fract_x
_atom_site_fract_y
_atom_site_fract_z
O1 O 0.9191(4) 0.8093(3) 0.6834(6)
O2 O 0.9209(5) 0.8738(3) 0.4545(6)
O3 O 1.1376(4) 0.4304(3) 0.1506(6)
H1 H 1.2097 0.4253 0.1777
O4 O 1.1218(3) 0.5130(3) 0.3553(5)
O5 O 0.8910(4) 0.3791(3) 0.4610(6)
O6 O 0.7747(4) 0.2899(3) 0.3195(6)
N1 N 0.8734(5) 0.7303(4) 0.4871(7)
H2 H 0.8748 0.6869 0.5487
N2 N 0.8842(4) 0.5550(3) 0.3022(6)
H3 H 0.8391 0.5417 0.3782
C1 C 0.8483(4) 0.9585(4) 0.7424(5)
H4 H 0.8520 0.9787 0.6407
H5 H 0.8605 1.0072 0.8091
H6 H 0.7690 0.9325 0.7610
C2 C 0.9464(4) 0.8585(4) 0.9272(5)
H7 H 1.0113 0.8162 0.9403
H8 H 0.8682 0.8314 0.9484
H9 H 0.9591 0.9070 0.9944
C3 C 1.0736(4) 0.9238(4) 0.7211(4)
H10 H 1.0700 0.9451 0.6200
H11 H 1.1318 0.8763 0.7272
H12 H 1.0991 0.9706 0.7864
C4 C 0.9472(4) 0.8915(4) 0.7681(5)
C5 C 0.9062(4) 0.8111(4) 0.5360(5)
C6 C 0.8359(4) 0.7149(4) 0.3337(4)
H13 H 0.8419 0.7698 0.2786
H14 H 0.7499 0.6969 0.3328
C7 C 0.9117(4) 0.6461(4) 0.2543(4)
H15 H 0.8972 0.6509 0.1474
H16 H 0.9986 0.6579 0.2720
C8 C 0.9439(4) 0.4897(4) 0.2033(4)
H17 H 0.9422 0.5149 0.1023
C9 C 1.0804(4) 0.4764(4) 0.2425(5)
C10 C 0.8706(4) 0.4040(4) 0.1954(4)
H18 H 0.7907 0.4162 0.1507
H19 H 0.9209 0.3647 0.1354
C11 C 0.8504(4) 0.3591(4) 0.3417(4)
C12 C 0.7384(4) 0.2387(4) 0.4468(5)
H20 H 0.8051 0.2366 0.5175
H21 H 0.7182 0.1801 0.4152
H22 H 0.6674 0.2652 0.4931
loop_
_geom_bond_atom_site_label_1
_geom_bond_atom_site_label_2
_geom_bond_site_symmetry_1
_geom_bond_site_symmetry_2
O1 C4 1_555 1_555
O2 C5 1_555 1_555
O3 H1 1_555 1_555
O4 C9 1_555 1_555
O5 C11 1_555 1_555
O6 C11 1_555 1_555
N1 H2 1_555 1_555
N2 H3 1_555 1_555
C1 H4 1_555 1_555
H5 C1 1_555 1_555
H6 C1 1_555 1_555
C2 H7 1_555 1_555
H8 C2 1_555 1_555
H9 C2 1_555 1_555
C3 H10 1_555 1_555
H11 C3 1_555 1_555
H12 C3 1_555 1_555
C4 C1 1_555 1_555
C5 O1 1_555 1_555
C6 N1 1_555 1_555
H13 C6 1_555 1_555
H14 C6 1_555 1_555
C7 N2 1_555 1_555
H15 C7 1_555 1_555
H16 C7 1_555 1_555
C8 N2 1_555 1_555
H17 C8 1_555 1_555
C9 O3 1_555 1_555
C10 C8 1_555 1_555
H18 C10 1_555 1_555
H19 C10 1_555 1_555
C11 C10 1_555 1_555
C12 O6 1_555 1_555
H20 C12 1_555 1_555
H21 C12 1_555 1_555
H22 C12 1_555 1_555
N1 C5 1_555 1_555
C2 C4 1_555 1_555
C3 C4 1_555 1_555
C6 C7 1_555 1_555
C8 C9 1_555 1_555

#END
