
#######################################################################
#
#                 Cambridge Crystallographic Data Centre
#                                CCDC 
#
#######################################################################
#
# If this CIF has been generated from an entry in the Cambridge 
# Structural Database, then it will include bibliographic, chemical, 
# crystal, experimental, refinement or atomic coordinate data resulting 
# from the CCDC's data processing and validation procedures.
#
#######################################################################

data_XIFPOS
_chemical_formula_moiety         'C14 H8 Cl2 F3 N5 O1 S1'
_chemical_name_systematic        
N-Acetyl-N'-(3-cyano-1-(2,6-dichloro-4-(trifluoromethyl)phenyl)pyrazol-5-yl)thiourea
_symmetry_cell_setting           monoclinic
_symmetry_space_group_name_H-M   'P 21/n'
_symmetry_Int_Tables_number      14
_space_group_name_Hall           '-P 2yn'
loop_
_symmetry_equiv_pos_site_id
_symmetry_equiv_pos_as_xyz
1 x,y,z
2 1/2-x,1/2+y,1/2-z
3 -x,-y,-z
4 1/2+x,1/2-y,1/2+z
_cell_length_a                   9.0015(8)
_cell_length_b                   14.3443(13)
_cell_length_c                   13.3019(12)
_cell_angle_alpha                90
_cell_angle_beta                 90.803(2)
_cell_angle_gamma                90
_cell_volume                     1717.38
_exptl_crystal_colour            colorless
_exptl_crystal_description       Block
_chemical_melting_point          '473 K'
_cell_formula_units_Z            4
_exptl_crystal_recrystallization_method acetone
loop_
_atom_site_label
_atom_site_type_symbol
_atom_site_fract_x
_atom_site_fract_y
_atom_site_fract_z
Cl1 Cl 0.19256(12) 0.07962(8) -0.07071(9)
Cl2 Cl -0.15095(15) 0.25247(10) 0.19982(9)
S1 S 0.49154(13) 0.38450(9) 0.11126(9)
F1 F -0.3483(3) 0.1067(3) -0.2227(2)
F2 F -0.4383(4) 0.0369(3) -0.0978(3)
O1 O 0.1254(4) 0.3302(2) -0.1182(2)
F3 F -0.4768(4) 0.1812(3) -0.1170(3)
N1 N 0.1295(4) 0.1653(2) 0.1297(2)
N2 N 0.1306(4) 0.1098(2) 0.2123(3)
N3 N 0.3220(6) 0.0631(4) 0.4320(4)
N4 N 0.2570(4) 0.2851(2) 0.0481(2)
H1 H 0.1922 0.2771 0.0008
N5 N 0.3241(4) 0.4064(2) -0.0514(2)
H2 H 0.3856 0.4508 -0.0632
C1 C -0.3749(6) 0.1154(4) -0.1262(4)
C2 C -0.2382(5) 0.1359(3) -0.0640(3)
C3 C -0.1013(5) 0.1057(3) -0.0955(3)
H3 H -0.0910 0.0777 -0.1581
C4 C 0.0206(4) 0.1179(3) -0.0325(3)
C5 C 0.0069(4) 0.1597(3) 0.0609(3)
C6 C -0.1312(5) 0.1933(3) 0.0876(3)
C7 C -0.2547(5) 0.1810(3) 0.0264(3)
H4 H -0.3472 0.2027 0.0459
C8 C 0.2489(4) 0.2236(3) 0.1272(3)
C9 C 0.3325(5) 0.2050(3) 0.2112(3)
H5 H 0.4219 0.2324 0.2309
C10 C 0.2538(5) 0.1357(3) 0.2605(3)
C11 C 0.3520(4) 0.3560(3) 0.0346(3)
C12 C 0.2119(5) 0.3956(3) -0.1205(3)
C13 C 0.2015(7) 0.4701(4) -0.1981(4)
H6 H 0.1269 0.4537 -0.2472
H7 H 0.2957 0.4766 -0.2304
H8 H 0.1754 0.5280 -0.1668
C14 C 0.2918(6) 0.0928(4) 0.3560(4)
loop_
_geom_bond_atom_site_label_1
_geom_bond_atom_site_label_2
_geom_bond_site_symmetry_1
_geom_bond_site_symmetry_2
Cl1 C4 1_555 1_555
Cl2 C6 1_555 1_555
S1 C11 1_555 1_555
F1 C1 1_555 1_555
F2 C1 1_555 1_555
O1 C12 1_555 1_555
F3 C1 1_555 1_555
N1 N2 1_555 1_555
N2 C10 1_555 1_555
N3 C14 1_555 1_555
N4 H1 1_555 1_555
N5 H2 1_555 1_555
C1 C2 1_555 1_555
C2 C3 1_555 1_555
C3 H3 1_555 1_555
C4 C3 1_555 1_555
C5 N1 1_555 1_555
C6 C5 1_555 1_555
C7 C2 1_555 1_555
H4 C7 1_555 1_555
C8 N1 1_555 1_555
C9 C8 1_555 1_555
H5 C9 1_555 1_555
C10 C9 1_555 1_555
C11 N4 1_555 1_555
C12 N5 1_555 1_555
C13 C12 1_555 1_555
H6 C13 1_555 1_555
H7 C13 1_555 1_555
H8 C13 1_555 1_555
C14 C10 1_555 1_555
N4 C8 1_555 1_555
N5 C11 1_555 1_555
C4 C5 1_555 1_555
C6 C7 1_555 1_555

#END
