
#######################################################################
#
#                 Cambridge Crystallographic Data Centre
#                                CCDC 
#
#######################################################################
#
# If this CIF has been generated from an entry in the Cambridge 
# Structural Database, then it will include bibliographic, chemical, 
# crystal, experimental, refinement or atomic coordinate data resulting 
# from the CCDC's data processing and validation procedures.
#
#######################################################################

data_XIFRUC
_chemical_formula_moiety         'C26 H21 N3 O2'
_chemical_name_systematic        
1-{2-methyl-5-[1-phenyl-2-(pyrimidin-2-yl)-1,1a,2,6b-tetrahydrocyclopropa[b]indol-1-yl]furan-3-yl}ethan-1-one
_symmetry_cell_setting           monoclinic
_symmetry_space_group_name_H-M   'P 21/n'
_symmetry_Int_Tables_number      14
_space_group_name_Hall           '-P 2yn'
loop_
_symmetry_equiv_pos_site_id
_symmetry_equiv_pos_as_xyz
1 x,y,z
2 1/2-x,1/2+y,1/2-z
3 -x,-y,-z
4 1/2+x,1/2-y,1/2+z
_cell_length_a                   7.6842(9)
_cell_length_b                   19.978(2)
_cell_length_c                   13.7517(18)
_cell_angle_alpha                90
_cell_angle_beta                 98.473(12)
_cell_angle_gamma                90
_cell_volume                     2088.05
_exptl_crystal_colour            'light colorless'
_exptl_crystal_description       block
_cell_formula_units_Z            4
loop_
_atom_site_label
_atom_site_type_symbol
_atom_site_fract_x
_atom_site_fract_y
_atom_site_fract_z
O1 O 0.7068(3) 0.06815(11) 0.82617(16)
O2 O 0.4782(3) 0.26113(13) 0.7851(2)
N1 N 1.0142(3) 0.03531(14) 0.7108(2)
N2 N 1.1451(4) 0.12464(15) 0.8032(2)
N3 N 1.1114(3) 0.01677(16) 0.8756(2)
C1 C 0.7995(4) -0.02766(19) 0.6100(3)
H1 H 0.7828 -0.0696 0.5727
C2 C 0.8402(4) 0.03439(18) 0.5596(2)
C3 C 0.7744(5) 0.0591(2) 0.4677(3)
H2 H 0.6937 0.0342 0.4254
C4 C 0.8295(5) 0.12128(19) 0.4388(3)
H3 H 0.7841 0.1386 0.3775
C5 C 0.9521(5) 0.15715(19) 0.5017(3)
H4 H 0.9890 0.1986 0.4817
C6 C 1.0218(4) 0.13309(19) 0.5940(3)
H5 H 1.1041 0.1577 0.6358
C7 C 0.9649(4) 0.07134(18) 0.6218(2)
C8 C 0.9165(4) -0.02681(17) 0.7079(2)
H6 H 0.9762 -0.0680 0.7331
C9 C 0.7167(4) -0.01975(17) 0.7068(2)
C10 C 0.6208(4) -0.07866(17) 0.7398(2)
C11 C 0.4726(4) -0.06867(18) 0.7857(2)
H7 H 0.4349 -0.0254 0.7961
C12 C 0.3815(4) -0.12264(19) 0.8157(3)
H8 H 0.2823 -0.1154 0.8456
C13 C 0.4365(5) -0.1875(2) 0.8015(3)
H9 H 0.3749 -0.2237 0.8219
C14 C 0.5837(5) -0.1979(2) 0.7569(3)
H10 H 0.6221 -0.2413 0.7476
C15 C 0.6743(5) -0.14408(18) 0.7261(3)
H11 H 0.7727 -0.1517 0.6955
C16 C 0.6555(4) 0.04744(17) 0.7288(2)
C17 C 0.5716(4) 0.09736(17) 0.6779(2)
H12 H 0.5240 0.0964 0.6117
C18 C 0.5679(4) 0.15287(17) 0.7436(2)
C19 C 0.6511(4) 0.13276(18) 0.8328(3)
C20 C 0.7027(5) 0.1660(2) 0.9289(3)
H13 H 0.6221 0.1536 0.9729
H14 H 0.7002 0.2137 0.9200
H15 H 0.8195 0.1523 0.9562
C21 C 0.5039(4) 0.22141(19) 0.7208(3)
C22 C 0.4756(5) 0.24086(19) 0.6138(3)
H16 H 0.3820 0.2145 0.5791
H17 H 0.5817 0.2331 0.5864
H18 H 0.4452 0.2874 0.6077
C23 C 1.0942(4) 0.06054(19) 0.8000(3)
C24 C 1.2165(5) 0.1469(2) 0.8922(3)
H19 H 1.2540 0.1912 0.8984
C25 C 1.2367(5) 0.1071(2) 0.9750(3)
H20 H 1.2842 0.1236 1.0364
C26 C 1.1833(5) 0.0419(2) 0.9622(3)
H21 H 1.1978 0.0137 1.0166
loop_
_geom_bond_atom_site_label_1
_geom_bond_atom_site_label_2
_geom_bond_site_symmetry_1
_geom_bond_site_symmetry_2
O1 C16 1_555 1_555
O2 C21 1_555 1_555
N1 C7 1_555 1_555
N2 C23 1_555 1_555
N3 C23 1_555 1_555
C1 H1 1_555 1_555
C2 C1 1_555 1_555
C3 C2 1_555 1_555
H2 C3 1_555 1_555
C4 C3 1_555 1_555
H3 C4 1_555 1_555
C5 C4 1_555 1_555
H4 C5 1_555 1_555
C6 C5 1_555 1_555
H5 C6 1_555 1_555
C7 C2 1_555 1_555
C8 N1 1_555 1_555
H6 C8 1_555 1_555
C9 C1 1_555 1_555
C10 C9 1_555 1_555
C11 C10 1_555 1_555
H7 C11 1_555 1_555
C12 C11 1_555 1_555
H8 C12 1_555 1_555
C13 C12 1_555 1_555
H9 C13 1_555 1_555
C14 C13 1_555 1_555
H10 C14 1_555 1_555
C15 C10 1_555 1_555
H11 C15 1_555 1_555
C16 C9 1_555 1_555
C17 C16 1_555 1_555
H12 C17 1_555 1_555
C18 C17 1_555 1_555
C19 O1 1_555 1_555
C20 C19 1_555 1_555
H13 C20 1_555 1_555
H14 C20 1_555 1_555
H15 C20 1_555 1_555
C21 C18 1_555 1_555
C22 C21 1_555 1_555
H16 C22 1_555 1_555
H17 C22 1_555 1_555
H18 C22 1_555 1_555
C23 N1 1_555 1_555
C24 N2 1_555 1_555
H19 C24 1_555 1_555
C25 C24 1_555 1_555
H20 C25 1_555 1_555
C26 N3 1_555 1_555
H21 C26 1_555 1_555
C1 C8 1_555 1_555
C6 C7 1_555 1_555
C8 C9 1_555 1_555
C14 C15 1_555 1_555
C18 C19 1_555 1_555
C25 C26 1_555 1_555

#END
