
#######################################################################
#
#                 Cambridge Crystallographic Data Centre
#                                CCDC 
#
#######################################################################
#
# If this CIF has been generated from an entry in the Cambridge 
# Structural Database, then it will include bibliographic, chemical, 
# crystal, experimental, refinement or atomic coordinate data resulting 
# from the CCDC's data processing and validation procedures.
#
#######################################################################

data_XIFROU
_chemical_formula_moiety         'C23 H27 N1 O4'
_chemical_name_systematic        
(3S,4S)-1-Benzhydryl-4-((R)-2,2-dimethyl-1,3-dioxolan-4-yl)-3-((S)-1-hydroxyethyl)-2-azetidinone
_symmetry_cell_setting           monoclinic
_symmetry_space_group_name_H-M   'P 21'
_symmetry_Int_Tables_number      4
_space_group_name_Hall           'P 2yb'
loop_
_symmetry_equiv_pos_site_id
_symmetry_equiv_pos_as_xyz
1 x,y,z
2 -x,1/2+y,-z
_cell_length_a                   10.720(4)
_cell_length_b                   9.192(4)
_cell_length_c                   10.819(4)
_cell_angle_alpha                90
_cell_angle_beta                 90.890(5)
_cell_angle_gamma                90
_cell_volume                     1065.96
_exptl_crystal_colour            colorless
_exptl_crystal_description       block
_chemical_melting_point          '142.5-142.7 deg.C'
_cell_formula_units_Z            2
loop_
_atom_site_label
_atom_site_type_symbol
_atom_site_fract_x
_atom_site_fract_y
_atom_site_fract_z
O1 O 0.2959(2) 0.5939(3) 0.5357(2)
O2 O 0.5052(3) 0.1621(3) 0.6167(2)
H1 H 0.566(3) 0.135(6) 0.580(4)
O3 O 0.4631(3) 0.2094(4) 1.0163(3)
O4 O 0.3240(2) 0.3847(4) 0.98493(18)
N1 N 0.25812(18) 0.4805(3) 0.72615(19)
C1 C 0.3178(2) 0.5096(3) 0.6201(3)
C2 C 0.4185(2) 0.3955(3) 0.6467(2)
H2 H 0.4985 0.4420 0.6668
C3 C 0.3440(2) 0.3646(3) 0.7658(2)
H3 H 0.3043 0.2685 0.7643
C4 C 0.4357(3) 0.2721(4) 0.5551(3)
H4 H 0.4845 0.3082 0.4857
C5 C 0.3138(4) 0.2112(6) 0.5050(4)
H5 H 0.3305 0.1295 0.4525
H6 H 0.2707 0.2849 0.4583
H7 H 0.2629 0.1805 0.5725
C6 C 0.4106(3) 0.3944(4) 0.8868(2)
H8 H 0.4479 0.4917 0.8853
C7 C 0.5090(3) 0.2823(5) 0.9209(3)
H9 H 0.5238 0.2174 0.8520
H10 H 0.5869 0.3295 0.9440
C8 C 0.3664(3) 0.2851(4) 1.0748(3)
C9 C 0.2653(6) 0.1807(9) 1.1042(6)
H11 H 0.1959 0.2325 1.1380
H12 H 0.2957 0.1110 1.1635
H13 H 0.2389 0.1312 1.0302
C10 C 0.4124(6) 0.3664(8) 1.1846(4)
H14 H 0.4768 0.4328 1.1604
H15 H 0.4455 0.2993 1.2447
H16 H 0.3448 0.4200 1.2199
C11 C 0.1470(2) 0.5359(3) 0.7899(2)
H17 H 0.1652 0.5270 0.8786
C12 C 0.1287(3) 0.6983(3) 0.7648(3)
C13 C 0.0195(3) 0.7568(4) 0.7190(3)
H18 H -0.0455 0.6958 0.6947
C14 C 0.0056(3) 0.9070(4) 0.7088(4)
H19 H -0.0689 0.9453 0.6779
C15 C 0.0989(4) 0.9976(4) 0.7433(4)
H20 H 0.0888 1.0979 0.7371
C16 C 0.2092(4) 0.9395(4) 0.7879(5)
H21 H 0.2743 1.0009 0.8113
C17 C 0.2237(3) 0.7912(4) 0.7980(4)
H22 H 0.2988 0.7535 0.8277
C18 C 0.0345(2) 0.4398(3) 0.7639(2)
C19 C -0.0062(3) 0.4086(4) 0.6451(3)
H23 H 0.0368 0.4464 0.5784
C20 C -0.1091(3) 0.3227(5) 0.6239(4)
H24 H -0.1352 0.3028 0.5433
C21 C -0.1727(3) 0.2669(5) 0.7205(4)
H25 H -0.2433 0.2106 0.7053
C22 C -0.1347(3) 0.2920(5) 0.8398(4)
H26 H -0.1772 0.2504 0.9053
C23 C -0.0301(3) 0.3819(4) 0.8620(3)
H27 H -0.0045 0.4023 0.9427
loop_
_geom_bond_atom_site_label_1
_geom_bond_atom_site_label_2
_geom_bond_site_symmetry_1
_geom_bond_site_symmetry_2
O1 C1 1_555 1_555
O2 H1 1_555 1_555
O3 C7 1_555 1_555
O4 C6 1_555 1_555
N1 C1 1_555 1_555
C1 C2 1_555 1_555
C2 H2 1_555 1_555
C3 N1 1_555 1_555
H3 C3 1_555 1_555
C4 O2 1_555 1_555
H4 C4 1_555 1_555
C5 C4 1_555 1_555
H5 C5 1_555 1_555
H6 C5 1_555 1_555
H7 C5 1_555 1_555
C6 C3 1_555 1_555
H8 C6 1_555 1_555
C7 C6 1_555 1_555
H9 C7 1_555 1_555
H10 C7 1_555 1_555
C8 O3 1_555 1_555
C9 C8 1_555 1_555
H11 C9 1_555 1_555
H12 C9 1_555 1_555
H13 C9 1_555 1_555
C10 C8 1_555 1_555
H14 C10 1_555 1_555
H15 C10 1_555 1_555
H16 C10 1_555 1_555
C11 N1 1_555 1_555
H17 C11 1_555 1_555
C12 C11 1_555 1_555
C13 C12 1_555 1_555
H18 C13 1_555 1_555
C14 C13 1_555 1_555
H19 C14 1_555 1_555
C15 C14 1_555 1_555
H20 C15 1_555 1_555
C16 C15 1_555 1_555
H21 C16 1_555 1_555
C17 C12 1_555 1_555
H22 C17 1_555 1_555
C18 C11 1_555 1_555
C19 C18 1_555 1_555
H23 C19 1_555 1_555
C20 C19 1_555 1_555
H24 C20 1_555 1_555
C21 C20 1_555 1_555
H25 C21 1_555 1_555
C22 C21 1_555 1_555
H26 C22 1_555 1_555
C23 C18 1_555 1_555
H27 C23 1_555 1_555
O4 C8 1_555 1_555
C2 C3 1_555 1_555
C2 C4 1_555 1_555
C16 C17 1_555 1_555
C22 C23 1_555 1_555

#END
