
#######################################################################
#
#                 Cambridge Crystallographic Data Centre
#                                CCDC 
#
#######################################################################
#
# If this CIF has been generated from an entry in the Cambridge 
# Structural Database, then it will include bibliographic, chemical, 
# crystal, experimental, refinement or atomic coordinate data resulting 
# from the CCDC's data processing and validation procedures.
#
#######################################################################

data_XIFROV
_chemical_formula_moiety         'C100 H2 F48,0.8(C8 H10)'
_chemical_name_systematic        
'hexadecakis(Trifluoromethyl)-C84fullerene p-xylene solvate'
_symmetry_cell_setting           triclinic
_symmetry_space_group_name_H-M   'P -1'
_symmetry_Int_Tables_number      2
_space_group_name_Hall           '-P 1'
loop_
_symmetry_equiv_pos_site_id
_symmetry_equiv_pos_as_xyz
1 x,y,z
2 -x,-y,-z
_cell_length_a                   13.2431(8)
_cell_length_b                   13.2610(9)
_cell_length_c                   22.7910(10)
_cell_angle_alpha                80.832(5)
_cell_angle_beta                 74.733(9)
_cell_angle_gamma                80.562(7)
_cell_volume                     3780.49
_exptl_crystal_colour            yellow
_exptl_crystal_description       plate
_cell_formula_units_Z            2
loop_
_atom_site_label
_atom_site_type_symbol
_atom_site_fract_x
_atom_site_fract_y
_atom_site_fract_z
F1 F 0.3403(10) 0.7456(8) 0.2340(5)
F2 F 0.4512(8) 0.7690(7) 0.1458(6)
F3 F 0.3331(8) 0.6722(7) 0.1625(5)
F4 F 0.2349(9) 0.6376(9) 0.3461(5)
F5 F 0.2809(12) 0.6285(9) 0.4296(6)
F6 F 0.3347(9) 0.7447(7) 0.3545(7)
F7 F 0.7392(13) 0.7377(9) 0.0546(6)
F8 F 0.6471(9) 0.8173(8) 0.1272(5)
F9 F 0.8066(10) 0.7815(8) 0.1046(7)
F10 F 0.2722(7) 0.3203(8) 0.4970(4)
F11 F 0.2130(7) 0.4383(7) 0.4384(5)
F12 F 0.2160(7) 0.2810(8) 0.4265(5)
F13 F 0.9633(7) 0.7494(6) 0.1713(5)
F14 F 0.8196(8) 0.8221(6) 0.2198(6)
F15 F 0.9404(11) 0.7515(10) 0.2666(6)
F16 F 0.2094(6) 0.2261(6) 0.3179(5)
F17 F 0.2978(8) 0.0893(6) 0.2806(5)
F18 F 0.2733(7) 0.1036(6) 0.3766(4)
F19 F 1.1609(8) 0.4874(8) 0.2786(5)
F20 F 1.1024(9) 0.6094(8) 0.2216(7)
F21 F 1.1863(10) 0.4780(13) 0.1827(7)
F22 F 0.9113(10) 0.4354(8) -0.0100(4)
F23 F 1.0439(10) 0.3505(11) 0.0064(5)
F24 F 0.9410(13) 0.2743(10) -0.0179(5)
F25 F 0.5515(7) -0.1105(6) 0.2572(4)
F26 F 0.5767(7) -0.1343(6) 0.3464(4)
F27 F 0.4300(7) -0.0549(6) 0.3318(5)
F28 F 0.5734(8) 0.1995(8) 0.5537(4)
F29 F 0.6250(8) 0.0464(7) 0.5293(4)
F30 F 0.7301(8) 0.1245(8) 0.5548(4)
F31 F 0.8943(8) 0.2087(8) 0.5199(5)
F32 F 1.0078(11) 0.2819(10) 0.4528(6)
F33 F 1.0170(11) 0.1218(9) 0.4555(6)
F34 F 1.1844(7) 0.2354(7) 0.0812(5)
F35 F 1.1693(7) 0.3982(6) 0.0855(5)
F36 F 1.2341(8) 0.2877(9) 0.1507(5)
F37 F 0.7991(15) 0.0111(12) 0.0797(8)
F38 F 0.897(2) 0.1016(15) 0.0167(10)
F39 F 0.9547(19) -0.004(2) 0.0862(14)
F40 F 0.7566(8) -0.1646(6) 0.3853(4)
F41 F 0.6195(7) -0.0957(6) 0.4469(4)
F42 F 0.7714(7) -0.0956(6) 0.4603(5)
F43 F 0.9709(9) -0.1238(6) 0.3472(5)
F44 F 0.9936(10) -0.0399(7) 0.4128(6)
F45 F 1.0908(9) -0.0295(9) 0.3231(6)
F46 F 1.1892(8) 0.0689(8) 0.1812(5)
F47 F 1.1135(8) 0.0293(8) 0.1200(6)
F48 F 1.0925(9) -0.0503(8) 0.2102(6)
C1 C 0.5440(11) 0.6406(9) 0.2440(6)
C2 C 0.4791(10) 0.6112(9) 0.2080(6)
C3 C 0.4183(10) 0.5231(9) 0.2448(6)
C4 C 0.3931(10) 0.4984(9) 0.3040(6)
C5 C 0.4150(10) 0.5720(9) 0.3431(7)
C6 C 0.5133(10) 0.6258(9) 0.3062(7)
C7 C 0.5787(11) 0.6187(9) 0.3437(6)
C8 C 0.6822(10) 0.6390(9) 0.3195(7)
C9 C 0.7180(12) 0.6614(8) 0.2556(7)
C10 C 0.6545(13) 0.6611(9) 0.2172(7)
C11 C 0.7067(13) 0.6443(9) 0.1520(6)
C12 C 0.6535(11) 0.5746(9) 0.1260(6)
C13 C 0.5476(12) 0.5588(9) 0.1515(7)
C14 C 0.5177(11) 0.4619(8) 0.1514(7)
C15 C 0.4327(12) 0.4466(9) 0.2032(6)
C16 C 0.4123(12) 0.3478(9) 0.2278(7)
C17 C 0.3783(10) 0.3205(9) 0.2894(6)
C18 C 0.3742(10) 0.3936(10) 0.3314(7)
C19 C 0.3790(11) 0.3503(10) 0.3946(7)
C20 C 0.4448(10) 0.4124(10) 0.4174(6)
C21 C 0.4606(10) 0.5097(11) 0.3963(6)
C22 C 0.5556(11) 0.5436(10) 0.3960(6)
C23 C 0.6345(11) 0.4788(10) 0.4185(6)
C24 C 0.7412(11) 0.4976(10) 0.3932(6)
C25 C 0.7674(11) 0.5824(10) 0.3452(6)
C26 C 0.8553(11) 0.5832(9) 0.3005(6)
C27 C 0.8407(11) 0.6409(9) 0.2397(7)
C28 C 0.8796(11) 0.5691(10) 0.1903(7)
C29 C 0.8192(13) 0.5772(8) 0.1468(7)
C30 C 0.8261(11) 0.4970(10) 0.1130(7)
C31 C 0.7248(15) 0.4940(12) 0.1005(6)
C32 C 0.6942(13) 0.3999(9) 0.0970(7)
C33 C 0.5881(13) 0.3830(9) 0.1264(6)
C34 C 0.5632(13) 0.2767(10) 0.1502(6)
C35 C 0.4746(12) 0.2619(9) 0.1979(6)
C36 C 0.4676(11) 0.1776(11) 0.2431(6)
C37 C 0.3976(10) 0.2020(10) 0.3041(6)
C38 C 0.4591(11) 0.1749(10) 0.3555(7)
C39 C 0.4456(11) 0.2439(10) 0.3960(6)
C40 C 0.5205(11) 0.2442(10) 0.4288(6)
C41 C 0.5196(11) 0.3456(12) 0.4426(6)
C42 C 0.6150(11) 0.3763(11) 0.4449(6)
C43 C 0.6990(12) 0.3005(11) 0.4480(6)
C44 C 0.8058(11) 0.3173(9) 0.4263(6)
C45 C 0.8290(10) 0.4195(9) 0.3973(7)
C46 C 0.9213(11) 0.4233(10) 0.3494(7)
C47 C 0.9390(12) 0.4997(12) 0.3038(7)
C48 C 1.0117(12) 0.4640(10) 0.2450(7)
C49 C 0.9594(12) 0.4843(10) 0.1920(7)
C50 C 0.9711(11) 0.4084(10) 0.1531(7)
C51 C 0.9029(12) 0.4120(9) 0.1134(6)
C52 C 0.8915(12) 0.3217(9) 0.0834(7)
C53 C 0.7780(13) 0.3115(10) 0.0934(6)
C54 C 0.7518(13) 0.2153(10) 0.1135(6)
C55 C 0.6505(11) 0.1941(9) 0.1446(6)
C56 C 0.6402(10) 0.1054(9) 0.1887(6)
C57 C 0.5504(12) 0.0999(9) 0.2390(7)
C58 C 0.5813(13) 0.0366(8) 0.2936(6)
C59 C 0.5487(12) 0.0971(10) 0.3498(6)
C60 C 0.6205(11) 0.0931(10) 0.3866(6)
C61 C 0.6100(12) 0.1655(9) 0.4256(7)
C62 C 0.6929(10) 0.1820(10) 0.4554(6)
C63 C 0.8001(12) 0.1439(10) 0.4226(6)
C64 C 0.8778(13) 0.2219(12) 0.4167(7)
C65 C 0.9507(11) 0.2303(9) 0.3513(6)
C66 C 0.9777(10) 0.3286(9) 0.3278(7)
C67 C 1.0268(11) 0.3455(9) 0.2660(7)
C68 C 1.0409(10) 0.2757(9) 0.2262(7)
C69 C 1.0440(12) 0.3027(12) 0.1595(8)
C70 C 0.9955(11) 0.2130(10) 0.1498(7)
C71 C 0.9281(12) 0.2201(10) 0.1141(7)
C72 C 0.8517(13) 0.1421(11) 0.1220(7)
C73 C 0.8331(11) 0.0811(9) 0.1837(7)
C74 C 0.7277(13) 0.0559(9) 0.2100(7)
C75 C 0.6948(11) 0.0225(9) 0.2698(6)
C76 C 0.7658(12) 0.0122(9) 0.3094(7)
C77 C 0.7260(11) 0.0211(9) 0.3773(6)
C78 C 0.8178(11) 0.0719(11) 0.3844(7)
C79 C 0.9161(12) 0.0559(10) 0.3351(7)
C80 C 0.9692(11) 0.1542(9) 0.3128(6)
C81 C 1.0146(12) 0.1766(10) 0.2499(7)
C82 C 1.0051(11) 0.1208(10) 0.1997(7)
C83 C 0.8999(12) 0.0704(10) 0.2219(7)
C84 C 0.8691(11) 0.0353(9) 0.2828(7)
C85 C 0.4013(12) 0.7056(10) 0.1852(7)
C86 C 0.3131(12) 0.6462(10) 0.3694(7)
C87 C 0.7234(13) 0.7451(10) 0.1091(8)
C88 C 0.2674(11) 0.3458(11) 0.4390(7)
C89 C 0.8967(14) 0.7411(10) 0.2250(9)
C90 C 0.2945(10) 0.1532(9) 0.3192(7)
C91 C 1.1204(13) 0.5092(11) 0.2294(8)
C92 C 0.9460(14) 0.3454(11) 0.0127(8)
C93 C 0.5324(12) -0.0674(10) 0.3079(6)
C94 C 0.6542(11) 0.1397(12) 0.5246(7)
C95 C 0.9460(13) 0.2035(13) 0.4624(7)
C96 C 1.1550(14) 0.3101(11) 0.1182(9)
C97 C 0.8854(19) 0.0636(13) 0.0716(9)
C98 C 0.7184(13) -0.0824(10) 0.4178(7)
C99 C 0.9962(12) -0.0322(10) 0.3540(8)
C100 C 1.0977(12) 0.0412(11) 0.1762(8)
C101 C 0.471(4) 1.006(3) 0.0611(18)
C102 C 0.575(3) 1.005(2) 0.0252(19)
H1 H 0.6271 1.0101 0.0460
C103 C 0.606(3) 0.999(3) -0.0288(17)
H2 H 0.6787 0.9976 -0.0490
C104 C 0.439(3) 1.035(3) 0.1316(17)
H3 H 0.4951 1.0034 0.1521
H4 H 0.3728 1.0087 0.1538
H5 H 0.4305 1.1099 0.1310
C101A C 0.529(4) 0.994(3) -0.0611(18)
C102A C 0.425(3) 0.995(2) -0.0252(19)
H1A H 0.3729 0.9899 -0.0460
C103A C 0.394(3) 1.001(3) 0.0288(17)
H2A H 0.3213 1.0024 0.0490
C104A C 0.561(3) 0.965(3) -0.1316(17)
H3A H 0.5049 0.9966 -0.1521
H4A H 0.6272 0.9913 -0.1538
H5A H 0.5695 0.8901 -0.1310
F49? F 0.348(5) 0.723(4) 0.400(3)
F50? F 0.299(6) 0.719(5) 0.312(3)
F51? F 0.243(5) 0.626(4) 0.407(3)
F52? F 1.153(5) 0.556(5) 0.160(3)
F53? F 1.193(5) 0.444(5) 0.222(4)
F54? F 1.124(5) 0.568(6) 0.258(3)
F55? F 0.991(2) 0.075(3) 0.0347(13)
F56? F 0.896(3) -0.0251(19) 0.0932(13)
F57? F 0.834(3) 0.080(3) 0.026(2)
H6? H 0.6039 0.2151 0.0085
H7? H 0.4882 0.2786 0.0206
H8? H 0.5501 0.2566 -0.0475
C105? C 0.558(4) 0.272(4) -0.008(2)
C106? C 0.601(5) 0.363(5) -0.017(3)
H9? H 0.6540 0.4958 -0.0474
H10? H 0.5952 0.6401 -0.0316
C107? C 0.547(4) 0.591(4) -0.017(2)
C108? C 0.586(3) 0.486(3) -0.0222(15)
loop_
_geom_bond_atom_site_label_1
_geom_bond_atom_site_label_2
_geom_bond_site_symmetry_1
_geom_bond_site_symmetry_2
F1 C85 1_555 1_555
F2 C85 1_555 1_555
F3 C85 1_555 1_555
F4 C86 1_555 1_555
F5 C86 1_555 1_555
F6 C86 1_555 1_555
F7 C87 1_555 1_555
F8 C87 1_555 1_555
F9 C87 1_555 1_555
F10 C88 1_555 1_555
F11 C88 1_555 1_555
F12 C88 1_555 1_555
F13 C89 1_555 1_555
F14 C89 1_555 1_555
F15 C89 1_555 1_555
F16 C90 1_555 1_555
F17 C90 1_555 1_555
F18 C90 1_555 1_555
F19 C91 1_555 1_555
F20 C91 1_555 1_555
F21 C91 1_555 1_555
F22 C92 1_555 1_555
F23 C92 1_555 1_555
F24 C92 1_555 1_555
F25 C93 1_555 1_555
F26 C93 1_555 1_555
F27 C93 1_555 1_555
F28 C94 1_555 1_555
F29 C94 1_555 1_555
F30 C94 1_555 1_555
F31 C95 1_555 1_555
F32 C95 1_555 1_555
F33 C95 1_555 1_555
F34 C96 1_555 1_555
F35 C96 1_555 1_555
F36 C96 1_555 1_555
F37 C97 1_555 1_555
F38 C97 1_555 1_555
F39 C97 1_555 1_555
F40 C98 1_555 1_555
F41 C98 1_555 1_555
F42 C98 1_555 1_555
F43 C99 1_555 1_555
F44 C99 1_555 1_555
F45 C99 1_555 1_555
F46 C100 1_555 1_555
F47 C100 1_555 1_555
F48 C100 1_555 1_555
C1 C2 1_555 1_555
C2 C3 1_555 1_555
C3 C4 1_555 1_555
C4 C5 1_555 1_555
C5 C6 1_555 1_555
C6 C1 1_555 1_555
C7 C6 1_555 1_555
C8 C7 1_555 1_555
C9 C8 1_555 1_555
C10 C1 1_555 1_555
C11 C10 1_555 1_555
C12 C11 1_555 1_555
C13 C2 1_555 1_555
C14 C13 1_555 1_555
C15 C3 1_555 1_555
C16 C15 1_555 1_555
C17 C16 1_555 1_555
C18 C4 1_555 1_555
C19 C18 1_555 1_555
C20 C19 1_555 1_555
C21 C5 1_555 1_555
C22 C7 1_555 1_555
C23 C22 1_555 1_555
C24 C23 1_555 1_555
C25 C8 1_555 1_555
C26 C25 1_555 1_555
C27 C9 1_555 1_555
C28 C27 1_555 1_555
C29 C11 1_555 1_555
C30 C29 1_555 1_555
C31 C12 1_555 1_555
C32 C31 1_555 1_555
C33 C14 1_555 1_555
C34 C33 1_555 1_555
C35 C16 1_555 1_555
C36 C35 1_555 1_555
C37 C17 1_555 1_555
C38 C37 1_555 1_555
C39 C19 1_555 1_555
C40 C39 1_555 1_555
C41 C20 1_555 1_555
C42 C23 1_555 1_555
C43 C42 1_555 1_555
C44 C43 1_555 1_555
C45 C24 1_555 1_555
C46 C45 1_555 1_555
C47 C26 1_555 1_555
C48 C47 1_555 1_555
C49 C28 1_555 1_555
C50 C49 1_555 1_555
C51 C30 1_555 1_555
C52 C51 1_555 1_555
C53 C32 1_555 1_555
C54 C53 1_555 1_555
C55 C34 1_555 1_555
C56 C55 1_555 1_555
C57 C36 1_555 1_555
C58 C57 1_555 1_555
C59 C38 1_555 1_555
C60 C59 1_555 1_555
C61 C40 1_555 1_555
C62 C43 1_555 1_555
C63 C62 1_555 1_555
C64 C44 1_555 1_555
C65 C64 1_555 1_555
C66 C46 1_555 1_555
C67 C48 1_555 1_555
C68 C67 1_555 1_555
C69 C50 1_555 1_555
C70 C69 1_555 1_555
C71 C52 1_555 1_555
C72 C54 1_555 1_555
C73 C72 1_555 1_555
C74 C56 1_555 1_555
C75 C58 1_555 1_555
C76 C75 1_555 1_555
C77 C60 1_555 1_555
C78 C63 1_555 1_555
C79 C78 1_555 1_555
C80 C65 1_555 1_555
C81 C68 1_555 1_555
C82 C70 1_555 1_555
C83 C73 1_555 1_555
C84 C76 1_555 1_555
C85 C2 1_555 1_555
C86 C5 1_555 1_555
C87 C11 1_555 1_555
C88 C19 1_555 1_555
C89 C27 1_555 1_555
C90 C37 1_555 1_555
C91 C48 1_555 1_555
C92 C52 1_555 1_555
C93 C58 1_555 1_555
C94 C62 1_555 1_555
C95 C64 1_555 1_555
C96 C69 1_555 1_555
C97 C72 1_555 1_555
C98 C77 1_555 1_555
C99 C79 1_555 1_555
C100 C82 1_555 1_555
C101 C102 1_555 1_555
C102 H1 1_555 1_555
C103 C102 1_555 1_555
H2 C103 1_555 1_555
C104 C101 1_555 1_555
H3 C104 1_555 1_555
H4 C104 1_555 1_555
H5 C104 1_555 1_555
C101A C103 1_555 1_555
C102A C101A 1_555 1_555
H1A C102A 1_555 1_555
C103A C101 1_555 1_555
H2A C103A 1_555 1_555
C104A C101A 1_555 1_555
H3A C104A 1_555 1_555
H4A C104A 1_555 1_555
H5A C104A 1_555 1_555
C9 C10 1_555 1_555
C12 C13 1_555 1_555
C14 C15 1_555 1_555
C17 C18 1_555 1_555
C20 C21 1_555 1_555
C21 C22 1_555 1_555
C24 C25 1_555 1_555
C26 C27 1_555 1_555
C28 C29 1_555 1_555
C30 C31 1_555 1_555
C32 C33 1_555 1_555
C34 C35 1_555 1_555
C36 C37 1_555 1_555
C38 C39 1_555 1_555
C40 C41 1_555 1_555
C41 C42 1_555 1_555
C44 C45 1_555 1_555
C46 C47 1_555 1_555
C48 C49 1_555 1_555
C50 C51 1_555 1_555
C52 C53 1_555 1_555
C54 C55 1_555 1_555
C56 C57 1_555 1_555
C58 C59 1_555 1_555
C60 C61 1_555 1_555
C61 C62 1_555 1_555
C63 C64 1_555 1_555
C65 C66 1_555 1_555
C66 C67 1_555 1_555
C68 C69 1_555 1_555
C70 C71 1_555 1_555
C71 C72 1_555 1_555
C73 C74 1_555 1_555
C74 C75 1_555 1_555
C76 C77 1_555 1_555
C77 C78 1_555 1_555
C79 C80 1_555 1_555
C79 C84 1_555 1_555
C80 C81 1_555 1_555
C81 C82 1_555 1_555
C82 C83 1_555 1_555
C83 C84 1_555 1_555
C102A C103A 1_555 1_555

#END
