
#######################################################################
#
#                 Cambridge Crystallographic Data Centre
#                                CCDC 
#
#######################################################################
#
# If this CIF has been generated from an entry in the Cambridge 
# Structural Database, then it will include bibliographic, chemical, 
# crystal, experimental, refinement or atomic coordinate data resulting 
# from the CCDC's data processing and validation procedures.
#
#######################################################################

data_XIFRUB
_chemical_formula_moiety         'C100 F48,2(C8 H8 O1)'
_chemical_name_systematic        
'hexadecakis(Trifluoromethyl)-C84fullerene 4-methylbenzaldehyde solvate'
_symmetry_cell_setting           monoclinic
_symmetry_space_group_name_H-M   'C 2/c'
_symmetry_Int_Tables_number      15
_space_group_name_Hall           '-C 2yn'
loop_
_symmetry_equiv_pos_site_id
_symmetry_equiv_pos_as_xyz
1 x,y,z
2 -x,y,1/2-z
3 1/2+x,1/2+y,z
4 1/2-x,1/2+y,1/2-z
5 -x,-y,-z
6 x,-y,1/2+z
7 1/2-x,1/2-y,-z
8 1/2+x,1/2-y,1/2+z
_cell_length_a                   17.5142(6)
_cell_length_b                   23.8456(9)
_cell_length_c                   19.6284(6)
_cell_angle_alpha                90
_cell_angle_beta                 92.799(2)
_cell_angle_gamma                90
_cell_volume                     8187.76
_exptl_crystal_colour            yellow
_exptl_crystal_description       plate
_cell_formula_units_Z            4
loop_
_atom_site_label
_atom_site_type_symbol
_atom_site_fract_x
_atom_site_fract_y
_atom_site_fract_z
F1 F 0.5666(4) -0.4385(2) 0.3895(4)
F2 F 0.4441(4) -0.4397(2) 0.3842(4)
F3 F 0.5047(4) -0.46215(17) 0.2976(3)
F4 F 0.55412(15) -0.15474(9) 0.57188(10)
F5 F 0.61499(13) -0.08033(10) 0.54715(11)
F6 F 0.49456(13) -0.07651(9) 0.56036(10)
F7 F 0.68172(10) 0.07099(7) 0.26195(11)
F8 F 0.56931(11) 0.09401(7) 0.22528(11)
F9 F 0.59544(13) 0.08693(8) 0.33270(11)
F10 F 0.6985(7) -0.3084(6) 0.5019(6)
F11 F 0.7608(4) -0.3385(5) 0.4184(4)
F12 F 0.6626(5) -0.3827(2) 0.4467(7)
F13 F 0.74146(12) -0.04666(8) 0.45707(11)
F14 F 0.64562(12) 0.00783(9) 0.47005(11)
F15 F 0.72318(13) 0.02474(8) 0.39246(11)
F16 F 0.74428(12) -0.04074(9) 0.07993(10)
F17 F 0.81418(11) -0.03605(10) 0.17242(12)
F18 F 0.72847(12) 0.02639(8) 0.15002(12)
F19 F 0.84395(14) -0.30770(10) 0.29116(16)
F20 F 0.84137(16) -0.25704(14) 0.38136(14)
F21 F 0.87599(13) -0.22252(10) 0.28902(16)
F22 F 0.84710(12) -0.12711(9) 0.36669(11)
F23 F 0.87443(11) -0.10770(10) 0.26407(11)
F24 F 0.82837(11) -0.04439(8) 0.32763(12)
C1 C 0.5936(2) -0.24833(13) 0.08949(17)
C2 C 0.5767(2) -0.30228(13) 0.11579(17)
C3 C 0.6174(2) -0.32362(13) 0.17576(18)
C4 C 0.5678(2) -0.35367(12) 0.21619(18)
C5 C 0.5756(2) -0.34977(12) 0.28668(18)
C6 C 0.5066(2) -0.36579(13) 0.32677(18)
C7 C 0.4979(2) -0.32462(13) 0.38572(17)
C8 C 0.5575(2) -0.29369(13) 0.41432(17)
C9 C 0.5425(2) -0.24121(13) 0.44366(16)
C10 C 0.4685(2) -0.21853(13) 0.44442(16)
C11 C 0.46261(19) -0.15901(13) 0.45100(16)
C12 C 0.53315(19) -0.12027(12) 0.45994(15)
C13 C 0.50589(17) -0.07031(12) 0.41765(15)
C14 C 0.55232(17) -0.04060(11) 0.37690(15)
C15 C 0.52111(17) -0.01303(11) 0.31889(15)
C16 C 0.58377(17) 0.00157(11) 0.27040(16)
C17 C 0.55684(17) -0.01612(11) 0.19874(15)
C18 C 0.60457(17) -0.04754(11) 0.15773(15)
C19 C 0.57175(18) -0.07490(12) 0.10091(15)
C20 C 0.59845(19) -0.12992(13) 0.07847(15)
C21 C 0.65994(18) -0.15762(13) 0.11601(16)
C22 C 0.65796(19) -0.21736(13) 0.12018(17)
C23 C 0.70057(19) -0.24203(13) 0.17547(17)
C24 C 0.6779(2) -0.29419(13) 0.20501(18)
C25 C 0.6905(2) -0.29272(12) 0.27616(18)
C26 C 0.6393(2) -0.31789(13) 0.31715(18)
C27 C 0.6387(2) -0.29678(13) 0.39094(17)
C28 C 0.66007(19) -0.23382(12) 0.39296(16)
C29 C 0.60740(19) -0.20442(12) 0.43024(15)
C30 C 0.60282(18) -0.14618(12) 0.42745(15)
C31 C 0.65002(17) -0.11660(12) 0.38422(15)
C32 C 0.63742(17) -0.05284(11) 0.37284(15)
C33 C 0.64803(17) -0.03696(11) 0.29851(16)
C34 C 0.69382(17) -0.06500(12) 0.25946(16)
C35 C 0.68497(17) -0.06441(12) 0.18138(16)
C36 C 0.69965(17) -0.12665(13) 0.16718(16)
C37 C 0.73612(17) -0.15239(13) 0.22324(17)
C38 C 0.73769(18) -0.21020(13) 0.22691(17)
C39 C 0.74272(19) -0.24160(13) 0.29411(18)
C40 C 0.70486(18) -0.20571(12) 0.34793(16)
C41 C 0.69995(17) -0.14619(12) 0.34349(16)
C42 C 0.74119(18) -0.11518(12) 0.28631(16)
C43 C 0.5094(3) -0.42754(14) 0.3521(2)
C44 C 0.5500(2) -0.10774(14) 0.53578(17)
C45 C 0.60810(18) 0.06432(12) 0.27276(17)
C46 C 0.6898(2) -0.33268(14) 0.4399(2)
C47 C 0.68780(19) -0.01666(13) 0.42416(17)
C48 C 0.74381(19) -0.02782(14) 0.14588(18)
C49 C 0.8263(2) -0.25858(15) 0.3149(2)
C50 C 0.82420(19) -0.09847(14) 0.31113(18)
F1A F 0.4334(4) -0.4385(2) 0.1105(4)
F2A F 0.5559(4) -0.4397(2) 0.1158(4)
F3A F 0.4953(4) -0.46215(17) 0.2024(3)
F4A F 0.44588(15) -0.15474(9) -0.07188(10)
F5A F 0.38501(13) -0.08033(10) -0.04715(11)
F6A F 0.50544(13) -0.07651(9) -0.06036(10)
F7A F 0.31828(10) 0.07099(7) 0.23805(11)
F8A F 0.43069(11) 0.09401(7) 0.27472(11)
F9A F 0.40456(13) 0.08693(8) 0.16730(11)
F10A F 0.3015(7) -0.3084(6) -0.0019(6)
F11A F 0.2392(4) -0.3385(5) 0.0816(4)
F12A F 0.3374(5) -0.3827(2) 0.0533(7)
F13A F 0.25854(12) -0.04666(8) 0.04293(11)
F14A F 0.35438(12) 0.00783(9) 0.02995(11)
F15A F 0.27682(13) 0.02474(8) 0.10754(11)
F16A F 0.25572(12) -0.04074(9) 0.42007(10)
F17A F 0.18582(11) -0.03605(10) 0.32758(12)
F18A F 0.27153(12) 0.02639(8) 0.34998(12)
F19A F 0.15605(14) -0.30770(10) 0.20884(16)
F20A F 0.15863(16) -0.25704(14) 0.11864(14)
F21A F 0.12401(13) -0.22252(10) 0.21098(16)
F22A F 0.15290(12) -0.12711(9) 0.13331(11)
F23A F 0.12557(11) -0.10770(10) 0.23593(11)
F24A F 0.17163(11) -0.04439(8) 0.17237(12)
C1A C 0.4064(2) -0.24833(13) 0.41051(17)
C2A C 0.4233(2) -0.30228(13) 0.38421(17)
C3A C 0.3826(2) -0.32362(13) 0.32424(18)
C4A C 0.4322(2) -0.35367(12) 0.28381(18)
C5A C 0.4244(2) -0.34977(12) 0.21332(18)
C6A C 0.4934(2) -0.36579(13) 0.17323(18)
C7A C 0.5021(2) -0.32462(13) 0.11428(17)
C8A C 0.4425(2) -0.29369(13) 0.08568(17)
C9A C 0.4575(2) -0.24121(13) 0.05634(16)
C10A C 0.5315(2) -0.21853(13) 0.05558(16)
C11A C 0.53739(19) -0.15901(13) 0.04900(16)
C12A C 0.46685(19) -0.12027(12) 0.04006(15)
C13A C 0.49411(17) -0.07031(12) 0.08235(15)
C14A C 0.44768(17) -0.04060(11) 0.12310(15)
C15A C 0.47889(17) -0.01303(11) 0.18111(15)
C16A C 0.41623(17) 0.00157(11) 0.22960(16)
C17A C 0.44316(17) -0.01612(11) 0.30126(15)
C18A C 0.39543(17) -0.04754(11) 0.34227(15)
C19A C 0.42825(18) -0.07490(12) 0.39909(15)
C20A C 0.40155(19) -0.12992(13) 0.42153(15)
C21A C 0.34006(18) -0.15762(13) 0.38399(16)
C22A C 0.34204(19) -0.21736(13) 0.37982(17)
C23A C 0.29943(19) -0.24203(13) 0.32453(17)
C24A C 0.3221(2) -0.29419(13) 0.29499(18)
C25A C 0.3095(2) -0.29272(12) 0.22384(18)
C26A C 0.3607(2) -0.31789(13) 0.18285(18)
C27A C 0.3613(2) -0.29678(13) 0.10906(17)
C28A C 0.33993(19) -0.23382(12) 0.10704(16)
C29A C 0.39260(19) -0.20442(12) 0.06976(15)
C30A C 0.39718(18) -0.14618(12) 0.07255(15)
C31A C 0.34998(17) -0.11660(12) 0.11578(15)
C32A C 0.36258(17) -0.05284(11) 0.12716(15)
C33A C 0.35197(17) -0.03696(11) 0.20149(16)
C34A C 0.30618(17) -0.06500(12) 0.24054(16)
C35A C 0.31503(17) -0.06441(12) 0.31862(16)
C36A C 0.30035(17) -0.12665(13) 0.33282(16)
C37A C 0.26388(17) -0.15239(13) 0.27676(17)
C38A C 0.26231(18) -0.21020(13) 0.27309(17)
C39A C 0.25728(19) -0.24160(13) 0.20589(18)
C40A C 0.29514(18) -0.20571(12) 0.15207(16)
C41A C 0.30005(17) -0.14619(12) 0.15651(16)
C42A C 0.25881(18) -0.11518(12) 0.21369(16)
C43A C 0.4906(3) -0.42754(14) 0.1479(2)
C44A C 0.4500(2) -0.10774(14) -0.03578(17)
C45A C 0.39190(18) 0.06432(12) 0.22724(17)
C46A C 0.3102(2) -0.33268(14) 0.0601(2)
C47A C 0.31220(19) -0.01666(13) 0.07584(17)
C48A C 0.25619(19) -0.02782(14) 0.35412(18)
C49A C 0.1737(2) -0.25858(15) 0.1851(2)
C50A C 0.17580(19) -0.09847(14) 0.18887(18)
C51 C 0.3777(3) 0.2602(2) 0.0936(3)
C52 C 0.4422(3) 0.2759(3) 0.1319(3)
H1 H 0.4680 0.2498 0.1615
C53 C 0.4682(3) 0.3296(3) 0.1268(4)
H2 H 0.5121 0.3400 0.1542
C54 C 0.4352(3) 0.3694(2) 0.0848(4)
C55 C 0.3660(3) 0.3526(2) 0.0451(3)
H3 H 0.3401 0.3785 0.0154
C56 C 0.3395(3) 0.29973(18) 0.0513(2)
H4 H 0.2939 0.2891 0.0265
C57 C 0.3516(3) 0.2036(2) 0.0985(3)
H5 H 0.3798 0.1796 0.1290
C58 C 0.4647(4) 0.4270(3) 0.0790(5)
H6 H 0.4705 0.4439 0.1245
H7 H 0.4288 0.4493 0.0504
H8 H 0.5145 0.4261 0.0582
O1 O 0.2964(3) 0.18330(17) 0.0669(3)
F25? F 0.4508(4) -0.4553(2) 0.3378(4)
F26? F 0.5705(4) -0.45546(19) 0.3299(4)
F27? F 0.5214(6) -0.4290(2) 0.4223(3)
F28? F 0.732(2) -0.3669(15) 0.4110(9)
F29? F 0.6432(14) -0.3694(10) 0.4773(15)
F30? F 0.723(2) -0.3037(14) 0.4863(19)
O2? O 0.401(2) -0.1350(15) 0.4972(13)
loop_
_geom_bond_atom_site_label_1
_geom_bond_atom_site_label_2
_geom_bond_site_symmetry_1
_geom_bond_site_symmetry_2
F1 C43 1_555 1_555
F2 C43 1_555 1_555
F3 C43 1_555 1_555
F4 C44 1_555 1_555
F5 C44 1_555 1_555
F6 C44 1_555 1_555
F7 C45 1_555 1_555
F8 C45 1_555 1_555
F9 C45 1_555 1_555
F10 C46 1_555 1_555
F11 C46 1_555 1_555
F12 C46 1_555 1_555
F13 C47 1_555 1_555
F14 C47 1_555 1_555
F15 C47 1_555 1_555
F16 C48 1_555 1_555
F17 C48 1_555 1_555
F18 C48 1_555 1_555
F19 C49 1_555 1_555
F20 C49 1_555 1_555
F21 C49 1_555 1_555
F22 C50 1_555 1_555
F23 C50 1_555 1_555
F24 C50 1_555 1_555
C1 C2 1_555 1_555
C2 C3 1_555 1_555
C3 C4 1_555 1_555
C4 C5 1_555 1_555
C5 C6 1_555 1_555
C6 C7 1_555 1_555
C7 C8 1_555 1_555
C8 C9 1_555 1_555
C9 C10 1_555 1_555
C10 C11 1_555 1_555
C11 C12 1_555 1_555
C12 C13 1_555 1_555
C13 C14 1_555 1_555
C14 C15 1_555 1_555
C15 C16 1_555 1_555
C16 C17 1_555 1_555
C17 C18 1_555 1_555
C18 C19 1_555 1_555
C19 C20 1_555 1_555
C20 C21 1_555 1_555
C21 C22 1_555 1_555
C22 C1 1_555 1_555
C23 C22 1_555 1_555
C24 C3 1_555 1_555
C25 C24 1_555 1_555
C26 C5 1_555 1_555
C27 C8 1_555 1_555
C28 C27 1_555 1_555
C29 C9 1_555 1_555
C30 C12 1_555 1_555
C31 C30 1_555 1_555
C32 C14 1_555 1_555
C33 C16 1_555 1_555
C34 C33 1_555 1_555
C35 C18 1_555 1_555
C36 C21 1_555 1_555
C37 C36 1_555 1_555
C38 C23 1_555 1_555
C39 C25 1_555 1_555
C40 C28 1_555 1_555
C41 C31 1_555 1_555
C42 C34 1_555 1_555
C43 C6 1_555 1_555
C44 C12 1_555 1_555
C45 C16 1_555 1_555
C46 C27 1_555 1_555
C47 C32 1_555 1_555
C48 C35 1_555 1_555
C49 C39 1_555 1_555
C50 C42 1_555 1_555
C51 C52 1_555 1_555
C52 H1 1_555 1_555
C53 C52 1_555 1_555
H2 C53 1_555 1_555
C54 C53 1_555 1_555
C55 C54 1_555 1_555
H3 C55 1_555 1_555
C56 C51 1_555 1_555
H4 C56 1_555 1_555
C57 C51 1_555 1_555
H5 C57 1_555 1_555
C58 C54 1_555 1_555
H6 C58 1_555 1_555
H7 C58 1_555 1_555
H8 C58 1_555 1_555
O1 C57 1_555 1_555
F1A C43A 1_555 1_555
F2A C43A 1_555 1_555
F3A C43A 1_555 1_555
F4A C44A 1_555 1_555
F5A C44A 1_555 1_555
F6A C44A 1_555 1_555
F7A C45A 1_555 1_555
F8A C45A 1_555 1_555
F9A C45A 1_555 1_555
F10A C46A 1_555 1_555
F11A C46A 1_555 1_555
F12A C46A 1_555 1_555
F13A C47A 1_555 1_555
F14A C47A 1_555 1_555
F15A C47A 1_555 1_555
F16A C48A 1_555 1_555
F17A C48A 1_555 1_555
F18A C48A 1_555 1_555
F19A C49A 1_555 1_555
F20A C49A 1_555 1_555
F21A C49A 1_555 1_555
F22A C50A 1_555 1_555
F23A C50A 1_555 1_555
F24A C50A 1_555 1_555
C1A C10 1_555 1_555
C2A C7 1_555 1_555
C3A C2A 1_555 1_555
C4A C6 1_555 1_555
C5A C4A 1_555 1_555
C6A C4 1_555 1_555
C7A C2 1_555 1_555
C8A C7A 1_555 1_555
C9A C8A 1_555 1_555
C10A C1 1_555 1_555
C11A C20 1_555 1_555
C12A C11A 1_555 1_555
C13A C19 1_555 1_555
C14A C13A 1_555 1_555
C15A C17 1_555 1_555
C16A C15A 1_555 1_555
C17A C15 1_555 1_555
C18A C17A 1_555 1_555
C19A C13 1_555 1_555
C20A C11 1_555 1_555
C21A C20A 1_555 1_555
C22A C1A 1_555 1_555
C23A C22A 1_555 1_555
C24A C3A 1_555 1_555
C25A C24A 1_555 1_555
C26A C5A 1_555 1_555
C27A C8A 1_555 1_555
C28A C27A 1_555 1_555
C29A C9A 1_555 1_555
C30A C12A 1_555 1_555
C31A C30A 1_555 1_555
C32A C14A 1_555 1_555
C33A C16A 1_555 1_555
C34A C33A 1_555 1_555
C35A C18A 1_555 1_555
C36A C21A 1_555 1_555
C37A C36A 1_555 1_555
C38A C23A 1_555 1_555
C39A C25A 1_555 1_555
C40A C28A 1_555 1_555
C41A C31A 1_555 1_555
C42A C34A 1_555 1_555
C43A C6A 1_555 1_555
C44A C12A 1_555 1_555
C45A C16A 1_555 1_555
C46A C27A 1_555 1_555
C47A C32A 1_555 1_555
C48A C35A 1_555 1_555
C49A C39A 1_555 1_555
C50A C42A 1_555 1_555
C23 C24 1_555 1_555
C25 C26 1_555 1_555
C26 C27 1_555 1_555
C28 C29 1_555 1_555
C29 C30 1_555 1_555
C31 C32 1_555 1_555
C32 C33 1_555 1_555
C34 C35 1_555 1_555
C35 C36 1_555 1_555
C37 C38 1_555 1_555
C37 C42 1_555 1_555
C38 C39 1_555 1_555
C39 C40 1_555 1_555
C40 C41 1_555 1_555
C41 C42 1_555 1_555
C55 C56 1_555 1_555
C1A C2A 1_555 1_555
C3A C4A 1_555 1_555
C5A C6A 1_555 1_555
C6A C7A 1_555 1_555
C9A C10A 1_555 1_555
C10A C11A 1_555 1_555
C12A C13A 1_555 1_555
C14A C15A 1_555 1_555
C16A C17A 1_555 1_555
C18A C19A 1_555 1_555
C19A C20A 1_555 1_555
C21A C22A 1_555 1_555
C23A C24A 1_555 1_555
C25A C26A 1_555 1_555
C26A C27A 1_555 1_555
C28A C29A 1_555 1_555
C29A C30A 1_555 1_555
C31A C32A 1_555 1_555
C32A C33A 1_555 1_555
C34A C35A 1_555 1_555
C35A C36A 1_555 1_555
C37A C38A 1_555 1_555
C37A C42A 1_555 1_555
C38A C39A 1_555 1_555
C39A C40A 1_555 1_555
C40A C41A 1_555 1_555
C41A C42A 1_555 1_555

#END
