
#######################################################################
#
#                 Cambridge Crystallographic Data Centre
#                                CCDC 
#
#######################################################################
#
# If this CIF has been generated from an entry in the Cambridge 
# Structural Database, then it will include bibliographic, chemical, 
# crystal, experimental, refinement or atomic coordinate data resulting 
# from the CCDC's data processing and validation procedures.
#
#######################################################################

data_XIFTUE
_chemical_formula_moiety         'C18 H13 N1 O4'
_chemical_name_systematic        
'4-hydroxy-3-{[(2-hydroxynaphthalen-1-yl)methylidene]amino}benzoic acid'
_symmetry_cell_setting           monoclinic
_symmetry_space_group_name_H-M   'P 21/c'
_symmetry_Int_Tables_number      14
_space_group_name_Hall           '-P 2ybc'
loop_
_symmetry_equiv_pos_site_id
_symmetry_equiv_pos_as_xyz
1 x,y,z
2 -x,1/2+y,1/2-z
3 -x,-y,-z
4 x,1/2-y,1/2+z
_cell_length_a                   5.629(2)
_cell_length_b                   8.156(4)
_cell_length_c                   31.317(5)
_cell_angle_alpha                90
_cell_angle_beta                 92.62(2)
_cell_angle_gamma                90
_cell_volume                     1436.26
_exptl_crystal_colour            yellow
_exptl_crystal_description       block
_cell_formula_units_Z            4
loop_
_atom_site_label
_atom_site_type_symbol
_atom_site_fract_x
_atom_site_fract_y
_atom_site_fract_z
O1 O 0.8313(9) 0.5422(6) 0.28049(12)
H1 H 0.7296 0.6000 0.2909
O2 O 0.3557(9) 0.8420(7) 0.27521(12)
O3 O -0.1117(10) 1.0284(8) 0.44827(14)
H2 H -0.1305 1.0359 0.4740
O4 O 0.2183(10) 0.9059(7) 0.47330(14)
N1 N 0.6005(10) 0.6979(6) 0.33820(15)
C1 C 0.9717(12) 0.4865(8) 0.31038(18)
C2 C 1.1770(13) 0.3927(9) 0.2992(2)
H3 H 1.2055 0.3738 0.2706
C3 C 1.3282(13) 0.3321(10) 0.3300(2)
H4 H 1.4545 0.2673 0.3220
C4 C 1.3019(13) 0.3634(8) 0.3744(2)
C5 C 1.4592(14) 0.2957(9) 0.4057(2)
H5 H 1.5838 0.2303 0.3972
C6 C 1.4350(15) 0.3227(11) 0.4479(2)
H6 H 1.5434 0.2787 0.4681
C7 C 1.2454(16) 0.4174(11) 0.4607(2)
H7 H 1.2263 0.4362 0.4896
C8 C 1.0841(14) 0.4843(10) 0.4305(2)
H8 H 0.9600 0.5491 0.4395
C9 C 1.1062(11) 0.4552(8) 0.38709(19)
C10 C 0.9424(11) 0.5254(8) 0.35414(17)
C11 C 0.7540(12) 0.6244(8) 0.36539(18)
H9 H 0.7339 0.6405 0.3944
C12 C 0.4099(12) 0.7970(7) 0.34928(17)
C13 C 0.3514(12) 0.8266(8) 0.39055(17)
H10 H 0.4432 0.7824 0.4132
C14 C 0.1535(12) 0.9232(8) 0.39853(17)
C15 C 0.0136(13) 0.9916(8) 0.36437(18)
H11 H -0.1215 1.0529 0.3694
C16 C 0.0837(12) 0.9645(8) 0.32324(18)
H12 H -0.0049 1.0101 0.3004
C17 C 0.2821(12) 0.8714(8) 0.31506(17)
C18 C 0.0820(15) 0.9520(9) 0.44213(19)
loop_
_geom_bond_atom_site_label_1
_geom_bond_atom_site_label_2
_geom_bond_site_symmetry_1
_geom_bond_site_symmetry_2
O1 H1 1_555 1_555
O2 C17 1_555 1_555
O3 H2 1_555 1_555
O4 C18 1_555 1_555
N1 C11 1_555 1_555
C1 O1 1_555 1_555
C2 C1 1_555 1_555
H3 C2 1_555 1_555
C3 C2 1_555 1_555
H4 C3 1_555 1_555
C4 C3 1_555 1_555
C5 C4 1_555 1_555
H5 C5 1_555 1_555
C6 C5 1_555 1_555
H6 C6 1_555 1_555
C7 C6 1_555 1_555
H7 C7 1_555 1_555
C8 C7 1_555 1_555
H8 C8 1_555 1_555
C9 C4 1_555 1_555
C10 C1 1_555 1_555
C11 C10 1_555 1_555
H9 C11 1_555 1_555
C12 N1 1_555 1_555
C13 C12 1_555 1_555
H10 C13 1_555 1_555
C14 C13 1_555 1_555
C15 C14 1_555 1_555
H11 C15 1_555 1_555
C16 C15 1_555 1_555
H12 C16 1_555 1_555
C17 C12 1_555 1_555
C18 O3 1_555 1_555
C8 C9 1_555 1_555
C9 C10 1_555 1_555
C14 C18 1_555 1_555
C16 C17 1_555 1_555

#END
