
#######################################################################
#
#                 Cambridge Crystallographic Data Centre
#                                CCDC 
#
#######################################################################
#
# If this CIF has been generated from an entry in the Cambridge 
# Structural Database, then it will include bibliographic, chemical, 
# crystal, experimental, refinement or atomic coordinate data resulting 
# from the CCDC's data processing and validation procedures.
#
#######################################################################

data_XIFWIT
_chemical_name_common            'Eplerenone tetrahydrofuran solvate'
_chemical_formula_moiety         'C24 H30 O6,C4 H8 O1'
_chemical_name_systematic        
'9\a,11-Epoxy-7\a-(methoxycarbonyl)-3-oxo-17\a-pregn-4-ene-21,17-carbolactone tetrahydrofuran solvate'
_chemical_properties_biological  'aldosterone receptor antagonist'
_symmetry_cell_setting           orthorhombic
_symmetry_space_group_name_H-M   'P 21 21 21'
_symmetry_Int_Tables_number      19
_space_group_name_Hall           'P 2ac 2ab'
loop_
_symmetry_equiv_pos_site_id
_symmetry_equiv_pos_as_xyz
1 x,y,z
2 1/2-x,-y,1/2+z
3 1/2+x,1/2-y,-z
4 -x,1/2+y,1/2-z
_cell_length_a                   8.2974(7)
_cell_length_b                   13.1968(11)
_cell_length_c                   23.3855(15)
_cell_angle_alpha                90
_cell_angle_beta                 90
_cell_angle_gamma                90
_cell_volume                     2560.69
_exptl_crystal_colour            colorless
_exptl_crystal_description       block
_cell_formula_units_Z            4
loop_
_atom_site_label
_atom_site_type_symbol
_atom_site_fract_x
_atom_site_fract_y
_atom_site_fract_z
O1 O -0.0777(6) 0.5597(4) 0.10371(19)
O2 O 0.1430(3) 0.8187(2) 0.29267(12)
O3 O 0.4864(4) 0.8351(2) 0.49774(12)
O4 O 0.3796(5) 0.8940(3) 0.57841(14)
O5 O 0.4781(5) 0.9194(3) 0.22682(17)
O6 O 0.3069(4) 0.8341(3) 0.17287(14)
C1 C -0.0151(6) 0.5823(4) 0.1502(3)
C2 C 0.1545(6) 0.6066(4) 0.1537(2)
H1 H 0.2137 0.6067 0.1199
C3 C 0.2317(5) 0.6290(3) 0.2021(2)
C4 C 0.1439(5) 0.6361(3) 0.25949(19)
C5 C -0.0377(5) 0.6549(4) 0.2481(2)
H2 H -0.0964 0.6481 0.2838
H3 H -0.0520 0.7239 0.2346
C6 C -0.1086(6) 0.5822(4) 0.2044(3)
H4 H -0.1095 0.5143 0.2202
H5 H -0.2191 0.6015 0.1964
C7 C 0.4105(5) 0.6463(4) 0.20123(19)
H6 H 0.4448 0.6561 0.1620
H7 H 0.4640 0.5861 0.2156
C8 C 0.4650(5) 0.7382(3) 0.23689(18)
H8 H 0.5829 0.7359 0.2390
C9 C 0.3999(4) 0.7247(3) 0.29851(17)
H9 H 0.4371 0.6582 0.3117
C10 C 0.2174(5) 0.7203(3) 0.29697(19)
C11 C 0.1274(5) 0.7624(3) 0.34578(18)
H10 H 0.0212 0.7320 0.3523
C12 C 0.2053(5) 0.8070(4) 0.39790(19)
H11 H 0.1537 0.7794 0.4317
H12 H 0.1878 0.8797 0.3979
C13 C 0.3866(5) 0.7861(3) 0.40120(17)
C14 C 0.4611(5) 0.8016(3) 0.34114(18)
H13 H 0.4285 0.8688 0.3276
C15 C 0.6446(5) 0.8043(5) 0.3516(2)
H14 H 0.6968 0.8508 0.3254
H15 H 0.6914 0.7375 0.3468
C16 C 0.6632(6) 0.8413(5) 0.4143(2)
H16 H 0.7161 0.7901 0.4374
H17 H 0.7262 0.9031 0.4158
C17 C 0.4921(6) 0.8602(3) 0.43579(18)
C18 C 0.4397(6) 0.9725(3) 0.4349(2)
H18 H 0.5329 1.0169 0.4346
H19 H 0.3741 0.9868 0.4015
C19 C 0.3443(7) 0.9860(4) 0.4886(2)
H20 H 0.3635 1.0523 0.5050
H21 H 0.2300 0.9785 0.4811
C20 C 0.4026(6) 0.9045(4) 0.52768(19)
C21 C 0.1664(6) 0.5344(4) 0.2914(2)
H22 H 0.2780 0.5257 0.3010
H23 H 0.1322 0.4796 0.2672
H24 H 0.1030 0.5346 0.3257
C22 C 0.4124(7) 0.6769(4) 0.4232(2)
H25 H 0.3882 0.6741 0.4634
H26 H 0.5225 0.6573 0.4171
H27 H 0.3425 0.6315 0.4029
C23 C 0.4194(5) 0.8405(4) 0.21240(18)
C24 C 0.2483(9) 0.9285(4) 0.1484(3)
H28 H 0.2075 0.9711 0.1784
H29 H 0.1636 0.9142 0.1216
H30 H 0.3350 0.9624 0.1291
O7 O 0.306(3) 0.2823(18) 0.4922(11)
C25 C 0.192(3) 0.3585(19) 0.4992(9)
C26 C 0.184(3) 0.4072(17) 0.4393(8)
C27 C 0.282(3) 0.3332(18) 0.4006(9)
C28 C 0.400(3) 0.2800(19) 0.4427(9)
O8? O 0.302(3) 0.4143(19) 0.4767(10)
C29? C 0.159(3) 0.357(2) 0.4816(9)
C30? C 0.152(3) 0.3217(19) 0.4185(9)
C31? C 0.317(3) 0.2670(15) 0.4240(11)
C32? C 0.383(3) 0.3772(15) 0.4286(11)
loop_
_geom_bond_atom_site_label_1
_geom_bond_atom_site_label_2
_geom_bond_site_symmetry_1
_geom_bond_site_symmetry_2
O1 C1 1_555 1_555
O2 C10 1_555 1_555
O3 C17 1_555 1_555
O4 C20 1_555 1_555
O5 C23 1_555 1_555
O6 C23 1_555 1_555
C1 C2 1_555 1_555
C2 H1 1_555 1_555
C3 C2 1_555 1_555
C4 C3 1_555 1_555
C5 C4 1_555 1_555
H2 C5 1_555 1_555
H3 C5 1_555 1_555
C6 C1 1_555 1_555
H4 C6 1_555 1_555
H5 C6 1_555 1_555
C7 C3 1_555 1_555
H6 C7 1_555 1_555
H7 C7 1_555 1_555
C8 C7 1_555 1_555
H8 C8 1_555 1_555
C9 C8 1_555 1_555
H9 C9 1_555 1_555
C10 C4 1_555 1_555
C11 O2 1_555 1_555
H10 C11 1_555 1_555
C12 C11 1_555 1_555
H11 C12 1_555 1_555
H12 C12 1_555 1_555
C13 C12 1_555 1_555
C14 C9 1_555 1_555
H13 C14 1_555 1_555
C15 C14 1_555 1_555
H14 C15 1_555 1_555
H15 C15 1_555 1_555
C16 C15 1_555 1_555
H16 C16 1_555 1_555
H17 C16 1_555 1_555
C17 C13 1_555 1_555
C18 C17 1_555 1_555
H18 C18 1_555 1_555
H19 C18 1_555 1_555
C19 C18 1_555 1_555
H20 C19 1_555 1_555
H21 C19 1_555 1_555
C20 O3 1_555 1_555
C21 C4 1_555 1_555
H22 C21 1_555 1_555
H23 C21 1_555 1_555
H24 C21 1_555 1_555
C22 C13 1_555 1_555
H25 C22 1_555 1_555
H26 C22 1_555 1_555
H27 C22 1_555 1_555
C23 C8 1_555 1_555
C24 O6 1_555 1_555
H28 C24 1_555 1_555
H29 C24 1_555 1_555
H30 C24 1_555 1_555
O7 C25 1_555 1_555
C25 C26 1_555 1_555
C26 C27 1_555 1_555
C27 C28 1_555 1_555
C28 O7 1_555 1_555
C5 C6 1_555 1_555
C9 C10 1_555 1_555
C10 C11 1_555 1_555
C13 C14 1_555 1_555
C16 C17 1_555 1_555
C19 C20 1_555 1_555

#END
