
#######################################################################
#
#                 Cambridge Crystallographic Data Centre
#                                CCDC 
#
#######################################################################
#
# If this CIF has been generated from an entry in the Cambridge 
# Structural Database, then it will include bibliographic, chemical, 
# crystal, experimental, refinement or atomic coordinate data resulting 
# from the CCDC's data processing and validation procedures.
#
#######################################################################

data_XIGDAT
_chemical_formula_moiety         'C45 H68 O9 Si1'
_chemical_name_systematic        
'2-(6-(5-(8-(((t-Butyl(diphenyl)silyl)oxy)methyl)-9-methoxy-3-methyl-1,7-dioxaspiro(5.5)undec-4-en-2-yl)-2,4-dihydroxypentyl)tetrahydro-2H-pyran-2-yl)ethyl 2,2-dimethylpropanoate'
_symmetry_cell_setting           monoclinic
_symmetry_space_group_name_H-M   'P 21'
_symmetry_Int_Tables_number      4
_space_group_name_Hall           'P 2yb'
loop_
_symmetry_equiv_pos_site_id
_symmetry_equiv_pos_as_xyz
1 x,y,z
2 -x,1/2+y,-z
_cell_length_a                   13.2576(14)
_cell_length_b                   26.161(3)
_cell_length_c                   13.3645(14)
_cell_angle_alpha                90
_cell_angle_beta                 96.638(3)
_cell_angle_gamma                90
_cell_volume                     4604.16
_cell_formula_units_Z            4
loop_
_atom_site_label
_atom_site_type_symbol
_atom_site_fract_x
_atom_site_fract_y
_atom_site_fract_z
Si1 Si 1.05598(12) 0.42845(7) 0.22796(11)
O1 O 0.9953(3) 0.37351(15) 0.2321(3)
O2 O 0.7840(3) 0.36586(15) 0.1662(3)
O3 O 0.9138(3) 0.24872(16) 0.2582(3)
O4 O 0.6261(3) 0.32476(15) 0.1628(3)
O5 O 0.6500(3) 0.32250(15) 0.4181(3)
H1 H 0.6992 0.3041 0.4348
O6 O 0.6117(3) 0.18789(15) 0.4267(3)
H2 H 0.6667 0.2005 0.4180
O7 O 0.5833(3) 0.16039(16) 0.6692(3)
O8 O 0.8713(4) 0.1795(3) 0.8394(4)
O9 O 0.9917(4) 0.1756(2) 0.7359(4)
C1 C 0.9677(5) 0.4822(2) 0.2485(4)
C2 C 0.8687(5) 0.4811(3) 0.2000(5)
H3 H 0.8478 0.4536 0.1584
C3 C 0.8008(5) 0.5203(3) 0.2127(6)
H4 H 0.7350 0.5186 0.1804
C4 C 0.8297(6) 0.5616(3) 0.2724(6)
H5 H 0.7843 0.5881 0.2793
C5 C 0.9265(6) 0.5634(3) 0.3221(6)
H6 H 0.9460 0.5909 0.3639
C6 C 0.9947(5) 0.5248(3) 0.3104(5)
H7 H 1.0600 0.5269 0.3440
C7 C 1.1690(4) 0.4274(3) 0.3248(4)
C8 C 1.2342(5) 0.4694(3) 0.3489(5)
H8 H 1.2210 0.5006 0.3165
C9 C 1.3182(5) 0.4644(4) 0.4211(5)
H9 H 1.3603 0.4925 0.4363
C10 C 1.3402(5) 0.4196(4) 0.4697(6)
H10 H 1.3967 0.4173 0.5177
C11 C 1.2790(5) 0.3773(3) 0.4485(5)
H11 H 1.2935 0.3465 0.4816
C12 C 1.1952(5) 0.3822(3) 0.3765(5)
H12 H 1.1543 0.3537 0.3619
C13 C 1.0977(5) 0.4301(3) 0.0981(4)
C14 C 1.1506(7) 0.4804(3) 0.0802(6)
H13 H 1.2123 0.4828 0.1252
H14 H 1.1067 0.5083 0.0923
H15 H 1.1660 0.4817 0.0118
C15 C 1.1711(6) 0.3863(3) 0.0886(5)
H16 H 1.1957 0.3877 0.0239
H17 H 1.1368 0.3544 0.0955
H18 H 1.2273 0.3891 0.1406
C16 C 1.0048(5) 0.4231(4) 0.0173(5)
H19 H 1.0269 0.4239 -0.0486
H20 H 0.9571 0.4502 0.0232
H21 H 0.9729 0.3908 0.0274
C17 C 0.9205(5) 0.3594(2) 0.2952(4)
H22 H 0.8928 0.3899 0.3231
H23 H 0.9515 0.3388 0.3507
C18 C 0.8355(4) 0.3294(2) 0.2359(4)
H24 H 0.7881 0.3177 0.2822
C19 C 0.8711(5) 0.2841(2) 0.1811(4)
H25 H 0.9240 0.2948 0.1400
C20 C 0.7829(5) 0.2601(3) 0.1134(5)
H26 H 0.8080 0.2327 0.0742
H27 H 0.7343 0.2457 0.1546
C21 C 0.7313(5) 0.3003(3) 0.0432(5)
H28 H 0.7780 0.3121 -0.0026
H29 H 0.6728 0.2854 0.0034
C22 C 0.6977(5) 0.3450(3) 0.1034(4)
C23 C 0.9699(7) 0.2081(4) 0.2255(6)
H30 H 0.9247 0.1839 0.1896
H31 H 1.0068 0.1916 0.2826
H32 H 1.0168 0.2207 0.1818
C24 C 0.6569(6) 0.3899(3) 0.0424(5)
H33 H 0.6943 0.4030 -0.0065
C25 C 0.5697(6) 0.4114(3) 0.0559(5)
H34 H 0.5452 0.4376 0.0126
C26 C 0.5080(5) 0.3955(2) 0.1383(4)
H35 H 0.4505 0.3748 0.1088
C27 C 0.5739(4) 0.3631(2) 0.2159(4)
H36 H 0.6236 0.3849 0.2554
C28 C 0.4672(6) 0.4420(3) 0.1890(6)
H37 H 0.5229 0.4618 0.2206
H38 H 0.4254 0.4309 0.2390
H39 H 0.4275 0.4624 0.1395
C29 C 0.5135(4) 0.3328(2) 0.2865(4)
H40 H 0.4824 0.3568 0.3291
H41 H 0.4592 0.3148 0.2462
C30 C 0.5751(4) 0.2942(2) 0.3537(4)
H42 H 0.6094 0.2706 0.3117
C31 C 0.5056(4) 0.2643(2) 0.4144(4)
H43 H 0.4532 0.2484 0.3680
H44 H 0.4724 0.2881 0.4555
C32 C 0.5566(4) 0.2229(2) 0.4830(4)
H45 H 0.6028 0.2387 0.5368
C33 C 0.4752(4) 0.1918(2) 0.5289(4)
H46 H 0.4427 0.2139 0.5739
H47 H 0.4237 0.1817 0.4749
C34 C 0.5118(5) 0.1446(2) 0.5863(4)
H48 H 0.5464 0.1224 0.5420
C35 C 0.4265(5) 0.1151(3) 0.6245(5)
H49 H 0.3813 0.1024 0.5677
H50 H 0.3878 0.1379 0.6629
C36 C 0.4659(5) 0.0701(3) 0.6911(6)
H51 H 0.4105 0.0551 0.7223
H52 H 0.4934 0.0441 0.6501
C37 C 0.5473(6) 0.0882(3) 0.7713(5)
H53 H 0.5779 0.0590 0.8077
H54 H 0.5171 0.1098 0.8188
C38 C 0.6282(5) 0.1179(3) 0.7254(5)
H55 H 0.6596 0.0953 0.6794
C39 C 0.7101(6) 0.1384(3) 0.8027(5)
H56 H 0.7381 0.1107 0.8453
H57 H 0.6808 0.1632 0.8450
C40 C 0.7942(6) 0.1635(3) 0.7530(5)
H58 H 0.8238 0.1396 0.7092
H59 H 0.7689 0.1929 0.7136
C41 C 0.9599(9) 0.1809(3) 0.8191(6)
C42 C 1.0335(6) 0.1922(3) 0.9137(5)
C43 C 1.1404(7) 0.1827(4) 0.8893(7)
H60 H 1.1879 0.1923 0.9459
H61 H 1.1527 0.2026 0.8316
H62 H 1.1485 0.1470 0.8750
C44 C 1.0239(7) 0.2472(3) 0.9469(6)
H63 H 0.9537 0.2551 0.9506
H64 H 1.0504 0.2695 0.8992
H65 H 1.0617 0.2519 1.0121
C45 C 1.0106(7) 0.1552(4) 0.9964(5)
H66 H 0.9397 0.1568 1.0045
H67 H 1.0499 0.1645 1.0586
H68 H 1.0279 0.1211 0.9782
Si2 Si 0.29086(12) 0.06716(6) 0.28538(12)
O10 O 0.4064(3) 0.07010(16) 0.2531(3)
O11 O 0.6116(3) 0.04363(15) 0.2383(3)
O12 O 0.5329(3) 0.17303(17) 0.1694(3)
O13 O 0.7828(3) 0.06497(15) 0.2461(3)
O14 O 0.7605(3) 0.11217(16) 0.4945(3)
H69 H 0.7100 0.1304 0.4857
O15 O 0.7979(3) 0.23931(15) 0.4159(3)
H70 H 0.8317 0.2398 0.3683
O16 O 0.8146(3) 0.28820(15) 0.6478(3)
O17 O 0.5188(3) 0.3326(2) 0.7988(3)
O18 O 0.4359(4) 0.3281(2) 0.6434(4)
C46 C 0.2844(4) 0.0193(2) 0.3870(4)
C47 C 0.3667(5) -0.0135(2) 0.4141(5)
H71 H 0.4252 -0.0100 0.3824
C48 C 0.3630(5) -0.0509(3) 0.4870(5)
H72 H 0.4191 -0.0719 0.5032
C49 C 0.2789(5) -0.0577(3) 0.5353(5)
H73 H 0.2778 -0.0829 0.5842
C50 C 0.1952(5) -0.0265(3) 0.5107(5)
H74 H 0.1369 -0.0309 0.5425
C51 C 0.1989(5) 0.0115(3) 0.4379(4)
H75 H 0.1426 0.0325 0.4226
C52 C 0.2515(4) 0.1319(2) 0.3307(5)
C53 C 0.2090(5) 0.1394(3) 0.4209(5)
H76 H 0.1954 0.1108 0.4586
C54 C 0.1859(5) 0.1881(3) 0.4570(7)
H77 H 0.1598 0.1920 0.5182
C55 C 0.2033(6) 0.2293(3) 0.3986(8)
H78 H 0.1864 0.2617 0.4202
C56 C 0.2444(6) 0.2250(3) 0.3099(8)
H79 H 0.2554 0.2540 0.2723
C57 C 0.2704(5) 0.1752(3) 0.2753(6)
H80 H 0.2999 0.1719 0.2158
C58 C 0.2142(5) 0.0460(3) 0.1669(5)
C59 C 0.1024(5) 0.0444(3) 0.1767(5)
H81 H 0.0801 0.0778 0.1945
H82 H 0.0899 0.0204 0.2281
H83 H 0.0659 0.0342 0.1136
C60 C 0.2329(6) 0.0800(3) 0.0784(5)
H84 H 0.1945 0.0675 0.0181
H85 H 0.3039 0.0797 0.0703
H86 H 0.2122 0.1143 0.0912
C61 C 0.2510(7) -0.0087(3) 0.1421(6)
H87 H 0.2370 -0.0319 0.1945
H88 H 0.3227 -0.0080 0.1376
H89 H 0.2159 -0.0199 0.0790
C62 C 0.4899(4) 0.0949(2) 0.3108(4)
H90 H 0.5082 0.0766 0.3734
H91 H 0.4710 0.1295 0.3270
C63 C 0.5791(4) 0.0960(2) 0.2500(4)
H92 H 0.6347 0.1143 0.2895
C64 C 0.5603(5) 0.1213(2) 0.1486(5)
H93 H 0.5031 0.1045 0.1087
C65 C 0.6532(5) 0.1182(3) 0.0930(5)
H94 H 0.6373 0.1316 0.0253
H95 H 0.7074 0.1388 0.1274
C66 C 0.6877(6) 0.0632(3) 0.0883(5)
H96 H 0.6378 0.0441 0.0444
H97 H 0.7514 0.0621 0.0593
C67 C 0.7017(5) 0.0379(3) 0.1906(5)
C68 C 0.4909(6) 0.2011(3) 0.0817(6)
H98 H 0.5437 0.2088 0.0407
H99 H 0.4613 0.2323 0.1023
H100 H 0.4395 0.1808 0.0438
C69 C 0.7239(6) -0.0176(3) 0.1874(6)
H101 H 0.6817 -0.0383 0.1442
C70 C 0.8012(5) -0.0387(3) 0.2437(5)
H102 H 0.8137 -0.0734 0.2354
C71 C 0.8692(5) -0.0097(2) 0.3196(5)
H103 H 0.9323 -0.0021 0.2909
C72 C 0.8182(4) 0.0403(2) 0.3406(4)
H104 H 0.7597 0.0332 0.3770
C73 C 0.8961(5) -0.0406(3) 0.4175(5)
H105 H 0.8368 -0.0440 0.4519
H106 H 0.9482 -0.0230 0.4601
H107 H 0.9200 -0.0738 0.4013
C74 C 0.8869(5) 0.0789(2) 0.4006(5)
H108 H 0.9412 0.0886 0.3616
H109 H 0.9176 0.0628 0.4622
C75 C 0.8304(4) 0.1271(2) 0.4277(4)
H110 H 0.7936 0.1417 0.3665
C76 C 0.9053(4) 0.1665(2) 0.4776(5)
H111 H 0.9396 0.1519 0.5391
H112 H 0.9563 0.1734 0.4329
C77 C 0.8570(4) 0.2163(2) 0.5028(4)
H113 H 0.8105 0.2091 0.5530
C78 C 0.9366(5) 0.2539(2) 0.5495(5)
H114 H 0.9784 0.2368 0.6037
H115 H 0.9802 0.2632 0.4989
C79 C 0.8951(4) 0.3023(2) 0.5908(4)
H116 H 0.8671 0.3238 0.5341
C80 C 0.9757(5) 0.3323(3) 0.6547(5)
H117 H 1.0252 0.3448 0.6125
H118 H 1.0106 0.3099 0.7051
C81 C 0.9315(5) 0.3776(3) 0.7073(5)
H119 H 0.9835 0.3925 0.7557
H120 H 0.9088 0.4036 0.6580
C82 C 0.8434(5) 0.3600(3) 0.7605(5)
H121 H 0.8111 0.3892 0.7879
H122 H 0.8678 0.3375 0.8159
C83 C 0.7667(4) 0.3316(3) 0.6870(5)
H123 H 0.7435 0.3546 0.6311
C84 C 0.6747(5) 0.3118(3) 0.7327(5)
H124 H 0.6368 0.2887 0.6854
H125 H 0.6971 0.2926 0.7933
C85 C 0.6069(6) 0.3545(3) 0.7580(6)
H126 H 0.6434 0.3770 0.8073
H127 H 0.5850 0.3743 0.6980
C86 C 0.4384(5) 0.3199(3) 0.7323(5)
C87 C 0.3582(5) 0.2941(3) 0.7836(5)
C88 C 0.2641(6) 0.2871(4) 0.7047(7)
H128 H 0.2462 0.3194 0.6734
H129 H 0.2083 0.2746 0.7373
H130 H 0.2796 0.2631 0.6544
C89 C 0.4004(6) 0.2415(3) 0.8199(6)
H131 H 0.4188 0.2224 0.7634
H132 H 0.3496 0.2232 0.8509
H133 H 0.4593 0.2463 0.8680
C90 C 0.3311(7) 0.3247(4) 0.8733(7)
H134 H 0.3855 0.3224 0.9271
H135 H 0.2701 0.3112 0.8954
H136 H 0.3207 0.3598 0.8540
loop_
_geom_bond_atom_site_label_1
_geom_bond_atom_site_label_2
_geom_bond_site_symmetry_1
_geom_bond_site_symmetry_2
Si1 O1 1_555 1_555
O1 C17 1_555 1_555
O2 C18 1_555 1_555
O3 C19 1_555 1_555
O4 C22 1_555 1_555
O5 H1 1_555 1_555
O6 H2 1_555 1_555
O7 C34 1_555 1_555
O8 C40 1_555 1_555
O9 C41 1_555 1_555
C1 Si1 1_555 1_555
C2 C1 1_555 1_555
H3 C2 1_555 1_555
C3 C2 1_555 1_555
H4 C3 1_555 1_555
C4 C3 1_555 1_555
H5 C4 1_555 1_555
C5 C4 1_555 1_555
H6 C5 1_555 1_555
C6 C1 1_555 1_555
H7 C6 1_555 1_555
C7 Si1 1_555 1_555
C8 C7 1_555 1_555
H8 C8 1_555 1_555
C9 C8 1_555 1_555
H9 C9 1_555 1_555
C10 C9 1_555 1_555
H10 C10 1_555 1_555
C11 C10 1_555 1_555
H11 C11 1_555 1_555
C12 C7 1_555 1_555
H12 C12 1_555 1_555
C13 Si1 1_555 1_555
C14 C13 1_555 1_555
H13 C14 1_555 1_555
H14 C14 1_555 1_555
H15 C14 1_555 1_555
C15 C13 1_555 1_555
H16 C15 1_555 1_555
H17 C15 1_555 1_555
H18 C15 1_555 1_555
C16 C13 1_555 1_555
H19 C16 1_555 1_555
H20 C16 1_555 1_555
H21 C16 1_555 1_555
C17 H22 1_555 1_555
H23 C17 1_555 1_555
C18 C17 1_555 1_555
H24 C18 1_555 1_555
C19 C18 1_555 1_555
H25 C19 1_555 1_555
C20 C19 1_555 1_555
H26 C20 1_555 1_555
H27 C20 1_555 1_555
C21 C20 1_555 1_555
H28 C21 1_555 1_555
H29 C21 1_555 1_555
C22 O2 1_555 1_555
C23 O3 1_555 1_555
H30 C23 1_555 1_555
H31 C23 1_555 1_555
H32 C23 1_555 1_555
C24 C22 1_555 1_555
H33 C24 1_555 1_555
C25 C24 1_555 1_555
H34 C25 1_555 1_555
C26 C25 1_555 1_555
H35 C26 1_555 1_555
C27 O4 1_555 1_555
H36 C27 1_555 1_555
C28 C26 1_555 1_555
H37 C28 1_555 1_555
H38 C28 1_555 1_555
H39 C28 1_555 1_555
C29 C27 1_555 1_555
H40 C29 1_555 1_555
H41 C29 1_555 1_555
C30 O5 1_555 1_555
H42 C30 1_555 1_555
C31 C30 1_555 1_555
H43 C31 1_555 1_555
H44 C31 1_555 1_555
C32 O6 1_555 1_555
H45 C32 1_555 1_555
C33 C32 1_555 1_555
H46 C33 1_555 1_555
H47 C33 1_555 1_555
C34 C33 1_555 1_555
H48 C34 1_555 1_555
C35 C34 1_555 1_555
H49 C35 1_555 1_555
H50 C35 1_555 1_555
C36 C35 1_555 1_555
H51 C36 1_555 1_555
H52 C36 1_555 1_555
C37 C36 1_555 1_555
H53 C37 1_555 1_555
H54 C37 1_555 1_555
C38 O7 1_555 1_555
H55 C38 1_555 1_555
C39 C38 1_555 1_555
H56 C39 1_555 1_555
H57 C39 1_555 1_555
C40 C39 1_555 1_555
H58 C40 1_555 1_555
H59 C40 1_555 1_555
C41 O8 1_555 1_555
C42 C41 1_555 1_555
C43 C42 1_555 1_555
H60 C43 1_555 1_555
H61 C43 1_555 1_555
H62 C43 1_555 1_555
C44 C42 1_555 1_555
H63 C44 1_555 1_555
H64 C44 1_555 1_555
H65 C44 1_555 1_555
C45 C42 1_555 1_555
H66 C45 1_555 1_555
H67 C45 1_555 1_555
H68 C45 1_555 1_555
Si2 O10 1_555 1_555
O10 C62 1_555 1_555
O11 C63 1_555 1_555
O12 C64 1_555 1_555
O13 C67 1_555 1_555
O14 H69 1_555 1_555
O15 H70 1_555 1_555
O16 C79 1_555 1_555
O17 C85 1_555 1_555
O18 C86 1_555 1_555
C46 Si2 1_555 1_555
C47 C46 1_555 1_555
H71 C47 1_555 1_555
C48 C47 1_555 1_555
H72 C48 1_555 1_555
C49 C48 1_555 1_555
H73 C49 1_555 1_555
C50 C49 1_555 1_555
H74 C50 1_555 1_555
C51 C46 1_555 1_555
H75 C51 1_555 1_555
C52 Si2 1_555 1_555
C53 C52 1_555 1_555
H76 C53 1_555 1_555
C54 C53 1_555 1_555
H77 C54 1_555 1_555
C55 C54 1_555 1_555
H78 C55 1_555 1_555
C56 C55 1_555 1_555
H79 C56 1_555 1_555
C57 C52 1_555 1_555
H80 C57 1_555 1_555
C58 Si2 1_555 1_555
C59 C58 1_555 1_555
H81 C59 1_555 1_555
H82 C59 1_555 1_555
H83 C59 1_555 1_555
C60 C58 1_555 1_555
H84 C60 1_555 1_555
H85 C60 1_555 1_555
H86 C60 1_555 1_555
C61 C58 1_555 1_555
H87 C61 1_555 1_555
H88 C61 1_555 1_555
H89 C61 1_555 1_555
C62 H90 1_555 1_555
H91 C62 1_555 1_555
C63 C62 1_555 1_555
H92 C63 1_555 1_555
C64 C63 1_555 1_555
H93 C64 1_555 1_555
C65 C64 1_555 1_555
H94 C65 1_555 1_555
H95 C65 1_555 1_555
C66 C65 1_555 1_555
H96 C66 1_555 1_555
H97 C66 1_555 1_555
C67 O11 1_555 1_555
C68 O12 1_555 1_555
H98 C68 1_555 1_555
H99 C68 1_555 1_555
H100 C68 1_555 1_555
C69 C67 1_555 1_555
H101 C69 1_555 1_555
C70 C69 1_555 1_555
H102 C70 1_555 1_555
C71 C70 1_555 1_555
H103 C71 1_555 1_555
C72 O13 1_555 1_555
H104 C72 1_555 1_555
C73 C71 1_555 1_555
H105 C73 1_555 1_555
H106 C73 1_555 1_555
H107 C73 1_555 1_555
C74 C72 1_555 1_555
H108 C74 1_555 1_555
H109 C74 1_555 1_555
C75 O14 1_555 1_555
H110 C75 1_555 1_555
C76 C75 1_555 1_555
H111 C76 1_555 1_555
H112 C76 1_555 1_555
C77 O15 1_555 1_555
H113 C77 1_555 1_555
C78 C77 1_555 1_555
H114 C78 1_555 1_555
H115 C78 1_555 1_555
C79 C78 1_555 1_555
H116 C79 1_555 1_555
C80 C79 1_555 1_555
H117 C80 1_555 1_555
H118 C80 1_555 1_555
C81 C80 1_555 1_555
H119 C81 1_555 1_555
H120 C81 1_555 1_555
C82 C81 1_555 1_555
H121 C82 1_555 1_555
H122 C82 1_555 1_555
C83 O16 1_555 1_555
H123 C83 1_555 1_555
C84 C83 1_555 1_555
H124 C84 1_555 1_555
H125 C84 1_555 1_555
C85 C84 1_555 1_555
H126 C85 1_555 1_555
H127 C85 1_555 1_555
C86 O17 1_555 1_555
C87 C86 1_555 1_555
C88 C87 1_555 1_555
H128 C88 1_555 1_555
H129 C88 1_555 1_555
H130 C88 1_555 1_555
C89 C87 1_555 1_555
H131 C89 1_555 1_555
H132 C89 1_555 1_555
H133 C89 1_555 1_555
C90 C87 1_555 1_555
H134 C90 1_555 1_555
H135 C90 1_555 1_555
H136 C90 1_555 1_555
C5 C6 1_555 1_555
C11 C12 1_555 1_555
C21 C22 1_555 1_555
C26 C27 1_555 1_555
C29 C30 1_555 1_555
C31 C32 1_555 1_555
C37 C38 1_555 1_555
C50 C51 1_555 1_555
C56 C57 1_555 1_555
C66 C67 1_555 1_555
C71 C72 1_555 1_555
C74 C75 1_555 1_555
C76 C77 1_555 1_555
C82 C83 1_555 1_555

#END
