
#######################################################################
#
#                 Cambridge Crystallographic Data Centre
#                                CCDC 
#
#######################################################################
#
# If this CIF has been generated from an entry in the Cambridge 
# Structural Database, then it will include bibliographic, chemical, 
# crystal, experimental, refinement or atomic coordinate data resulting 
# from the CCDC's data processing and validation procedures.
#
#######################################################################

data_XIGKII
_chemical_formula_moiety         'C15 H20 O6'
_chemical_name_systematic        'Diethyl 2-(2,4-dimethoxyphenyl)malonate'
_symmetry_cell_setting           triclinic
_symmetry_space_group_name_H-M   'P -1'
_symmetry_Int_Tables_number      2
_space_group_name_Hall           '-P 1'
loop_
_symmetry_equiv_pos_site_id
_symmetry_equiv_pos_as_xyz
1 x,y,z
2 -x,-y,-z
_cell_length_a                   7.9220(9)
_cell_length_b                   8.5812(10)
_cell_length_c                   11.9716(14)
_cell_angle_alpha                101.847(2)
_cell_angle_beta                 96.372(2)
_cell_angle_gamma                97.702(2)
_cell_volume                     781.223
_cell_formula_units_Z            2
loop_
_atom_site_label
_atom_site_type_symbol
_atom_site_fract_x
_atom_site_fract_y
_atom_site_fract_z
O1 O 0.6267(2) 0.1252(2) 0.8490(1)
O2 O 0.4154(2) 0.2591(2) 0.8979(1)
O3 O 0.7901(2) 0.2803(2) 0.6414(1)
O4 O 0.8731(1) 0.4463(2) 0.8141(1)
O5 O 0.4421(2) 0.5899(1) 0.6838(1)
O6 O 0.0807(2) 0.2307(2) 0.3659(1)
C1 C 0.4401(2) 0.3131(2) 0.6605(1)
C2 C 0.3764(2) 0.4395(2) 0.6201(1)
C3 C 0.2565(2) 0.4073(2) 0.5221(1)
C4 C 0.1981(2) 0.2491(2) 0.4629(1)
C5 C 0.2588(2) 0.1219(2) 0.5001(2)
C6 C 0.3791(2) 0.1573(2) 0.5985(2)
C7 C 0.5765(2) 0.3508(2) 0.7649(1)
C8 C 0.5461(2) 0.2309(2) 0.8411(1)
C9 C 0.3665(3) 0.1462(3) 0.9696(2)
C10 C 0.2090(4) 0.1801(3) 1.0130(2)
C11 C 0.7568(2) 0.3516(2) 0.7309(1)
C12 C 1.0509(2) 0.4611(3) 0.7907(2)
C13 C 1.1571(3) 0.5820(3) 0.8857(2)
C14 C 0.3870(3) 0.7245(2) 0.6455(2)
C15 C 0.0286(3) 0.0732(3) 0.2972(2)
H1 H 0.2150 0.4916 0.4958
H2 H 0.2200 0.0158 0.4602
H3 H 0.4207 0.0726 0.6241
H4 H 0.5707 0.4585 0.8100
H5 H 0.3496 0.0363 0.9243
H6 H 0.4573 0.1574 1.0334
H7 H 0.1734 0.1031 1.0571
H8 H 0.1208 0.1729 0.9495
H9 H 0.2282 0.2869 1.0612
H10 H 1.0586 0.4943 0.7184
H11 H 1.0909 0.3581 0.7847
H12 H 1.2752 0.5917 0.8730
H13 H 1.1467 0.5493 0.9570
H14 H 1.1188 0.6843 0.8894
H15 H 0.4466 0.8229 0.6961
H16 H 0.2653 0.7193 0.6462
H17 H 0.4121 0.7217 0.5686
H18 H -0.0489 0.0766 0.2305
H19 H -0.0285 0.0059 0.3411
H20 H 0.1277 0.0299 0.2733
loop_
_geom_bond_atom_site_label_1
_geom_bond_atom_site_label_2
_geom_bond_site_symmetry_1
_geom_bond_site_symmetry_2
O1 C8 1_555 1_555
O2 C8 1_555 1_555
O3 C11 1_555 1_555
O4 C11 1_555 1_555
O5 C2 1_555 1_555
O6 C4 1_555 1_555
C1 C2 1_555 1_555
C2 C3 1_555 1_555
C3 C4 1_555 1_555
C4 C5 1_555 1_555
C5 C6 1_555 1_555
C6 C1 1_555 1_555
C7 C1 1_555 1_555
C8 C7 1_555 1_555
C9 O2 1_555 1_555
C10 C9 1_555 1_555
C11 C7 1_555 1_555
C12 O4 1_555 1_555
C13 C12 1_555 1_555
C14 O5 1_555 1_555
C15 O6 1_555 1_555
H1 C3 1_555 1_555
H2 C5 1_555 1_555
H3 C6 1_555 1_555
H4 C7 1_555 1_555
H5 C9 1_555 1_555
H6 C9 1_555 1_555
H7 C10 1_555 1_555
H8 C10 1_555 1_555
H9 C10 1_555 1_555
H10 C12 1_555 1_555
H11 C12 1_555 1_555
H12 C13 1_555 1_555
H13 C13 1_555 1_555
H14 C13 1_555 1_555
H15 C14 1_555 1_555
H16 C14 1_555 1_555
H17 C14 1_555 1_555
H18 C15 1_555 1_555
H19 C15 1_555 1_555
H20 C15 1_555 1_555

#END
