
#######################################################################
#
#                 Cambridge Crystallographic Data Centre
#                                CCDC 
#
#######################################################################
#
# If this CIF has been generated from an entry in the Cambridge 
# Structural Database, then it will include bibliographic, chemical, 
# crystal, experimental, refinement or atomic coordinate data resulting 
# from the CCDC's data processing and validation procedures.
#
#######################################################################

data_XIGLAB
_chemical_formula_moiety         'C12 H11 N5 O5 S1'
_chemical_name_systematic        
N-(4-Methylpyrimidin-2-yl)-N'-2-(nitrophenylsulfonyl)urea
_chemical_properties_biological  'in vitro activity against yeast AHAS'
_symmetry_cell_setting           triclinic
_symmetry_space_group_name_H-M   'P -1'
_symmetry_Int_Tables_number      2
_space_group_name_Hall           '-P 1'
loop_
_symmetry_equiv_pos_site_id
_symmetry_equiv_pos_as_xyz
1 x,y,z
2 -x,-y,-z
_cell_length_a                   5.4159(1)
_cell_length_b                   11.533(3)
_cell_length_c                   11.857(4)
_cell_angle_alpha                83.907(6)
_cell_angle_beta                 81.048(5)
_cell_angle_gamma                77.637(4)
_cell_volume                     712.582
_chemical_melting_point          191.0-191.5deg.C
_cell_formula_units_Z            2
loop_
_atom_site_label
_atom_site_type_symbol
_atom_site_fract_x
_atom_site_fract_y
_atom_site_fract_z
S1 S 0.8012(3) 0.2051(2) 0.2196(1)
O1 O 0.5618(6) -0.0074(3) 0.2792(3)
O2 O 0.8556(6) 0.3157(4) 0.2371(3)
O3 O 1.0060(6) 0.1079(4) 0.1976(3)
O4 O 0.3429(7) 0.4011(4) 0.2547(4)
O5 O 0.2482(9) 0.5142(4) 0.1050(4)
N1 N 0.6082(7) 0.1705(4) 0.3332(4)
N2 N 0.2853(7) 0.0750(4) 0.4256(3)
N3 N 0.2626(7) 0.2513(4) 0.5096(4)
N4 N -0.0381(8) 0.1260(4) 0.5688(4)
N5 N 0.3350(8) 0.4163(5) 0.1517(5)
C1 C 0.4929(10) 0.0743(5) 0.3396(5)
C2 C 0.1700(10) 0.1563(5) 0.5026(4)
C3 C 0.1447(10) 0.3255(5) 0.5931(5)
C4 C -0.0653(11) 0.3012(5) 0.6631(5)
C5 C -0.1494(10) 0.2018(6) 0.6464(5)
C6 C 0.2483(11) 0.4334(6) 0.6007(6)
C7 C 0.6190(8) 0.2206(5) 0.1036(4)
C8 C 0.4225(9) 0.3177(5) 0.0799(5)
C9 C 0.2989(10) 0.3182(6) -0.0128(5)
C10 C 0.3656(11) 0.2267(6) -0.0844(5)
C11 C 0.5594(12) 0.1337(6) -0.0616(5)
C12 C 0.6830(10) 0.1325(5) 0.0299(5)
loop_
_geom_bond_atom_site_label_1
_geom_bond_atom_site_label_2
_geom_bond_site_symmetry_1
_geom_bond_site_symmetry_2
S1 O2 1_555 1_555
O1 C1 1_555 1_555
O3 S1 1_555 1_555
O4 N5 1_555 1_555
O5 N5 1_555 1_555
N1 S1 1_555 1_555
N2 C1 1_555 1_555
N3 C2 1_555 1_555
N4 C2 1_555 1_555
N5 C8 1_555 1_555
C1 N1 1_555 1_555
C2 N2 1_555 1_555
C3 N3 1_555 1_555
C4 C3 1_555 1_555
C5 N4 1_555 1_555
C6 C3 1_555 1_555
C7 S1 1_555 1_555
C8 C7 1_555 1_555
C9 C8 1_555 1_555
C10 C9 1_555 1_555
C11 C10 1_555 1_555
C12 C7 1_555 1_555
C4 C5 1_555 1_555
C11 C12 1_555 1_555

#END
