
#######################################################################
#
#                 Cambridge Crystallographic Data Centre
#                                CCDC 
#
#######################################################################
#
# If this CIF has been generated from an entry in the Cambridge 
# Structural Database, then it will include bibliographic, chemical, 
# crystal, experimental, refinement or atomic coordinate data resulting 
# from the CCDC's data processing and validation procedures.
#
#######################################################################

data_XIGMOP
_chemical_formula_moiety         'C22 H24 N2 O2 Te2'
_chemical_name_systematic        
(R,R)-bis(2-(4-Ethyl-2-oxazolinyl)phenyl)-di-tellurium
_symmetry_cell_setting           orthorhombic
_symmetry_space_group_name_H-M   'P 21 21 21'
_symmetry_Int_Tables_number      19
_space_group_name_Hall           'P 2ac 2ab'
loop_
_symmetry_equiv_pos_site_id
_symmetry_equiv_pos_as_xyz
1 x,y,z
2 1/2-x,-y,1/2+z
3 -x,1/2+y,1/2-z
4 1/2+x,1/2-y,-z
_cell_length_a                   6.9679(4)
_cell_length_b                   16.0795(10)
_cell_length_c                   20.1229(12)
_cell_angle_alpha                90
_cell_angle_beta                 90
_cell_angle_gamma                90
_cell_volume                     2254.58
_exptl_crystal_colour            yellow
_exptl_crystal_description       rod
_chemical_melting_point          128-130deg.C
_cell_formula_units_Z            4
_exptl_crystal_recrystallization_method dichloromethane/hexane
loop_
_atom_site_label
_atom_site_type_symbol
_atom_site_fract_x
_atom_site_fract_y
_atom_site_fract_z
Te1 Te 0.56616(3) 0.996581(12) 0.883298(9)
Te2 Te 0.89537(3) 0.913360(12) 0.846712(10)
O1 O 0.2286(4) 1.15322(16) 1.03903(12)
O2 O 1.2405(3) 0.66808(15) 0.82986(13)
N1 N 0.2743(4) 1.09263(18) 0.93946(14)
N2 N 1.1861(4) 0.80465(17) 0.81392(14)
C1 C 0.6328(4) 1.01956(17) 0.98553(14)
C2 C 0.7956(4) 0.98480(19) 1.01498(15)
H1 H 0.8794 0.9524 0.9891
C3 C 0.8358(4) 0.9970(2) 1.08146(16)
H2 H 0.9458 0.9727 1.1002
C4 C 0.7157(5) 1.04489(19) 1.12080(17)
H3 H 0.7440 1.0535 1.1660
C5 C 0.5540(4) 1.07978(19) 1.09280(15)
H4 H 0.4718 1.1122 1.1193
C6 C 0.5101(4) 1.06784(17) 1.02569(15)
C7 C 0.3342(4) 1.10373(17) 0.99844(16)
C8 C 0.0692(5) 1.1825(2) 0.99954(18)
H5 H 0.0741 1.2431 0.9945
H6 H -0.0532 1.1672 1.0202
C9 C 0.0926(5) 1.13925(18) 0.93191(16)
H7 H -0.0145 1.0997 0.9250
C10 C 0.1044(6) 1.1983(2) 0.87336(19)
H8 H -0.0120 1.2325 0.8724
H9 H 0.2139 1.2357 0.8799
C11 C 0.1258(7) 1.1558(3) 0.8074(2)
H10 H 0.1294 1.1971 0.7723
H11 H 0.0178 1.1188 0.8003
H12 H 0.2440 1.1239 0.8069
C12 C 0.8309(4) 0.79418(17) 0.88931(14)
C13 C 0.6703(4) 0.78283(19) 0.92931(15)
H13 H 0.5848 0.8273 0.9361
C14 C 0.6346(5) 0.7068(2) 0.95925(17)
H14 H 0.5256 0.7004 0.9863
C15 C 0.7585(5) 0.6399(2) 0.94971(17)
H15 H 0.7345 0.5885 0.9705
C16 C 0.9164(5) 0.64997(18) 0.90941(15)
H16 H 0.9997 0.6048 0.9024
C17 C 0.9554(4) 0.72607(18) 0.87872(15)
C18 C 1.1304(4) 0.73659(18) 0.83944(15)
C19 C 1.3954(5) 0.6949(2) 0.78610(19)
H17 H 1.3833 0.6690 0.7422
H18 H 1.5207 0.6804 0.8049
C20 C 1.3721(5) 0.7895(2) 0.78131(16)
H19 H 1.4746 0.8163 0.8078
C21 C 1.3751(6) 0.8253(3) 0.71139(16)
H20 H 1.4988 0.8124 0.6906
H21 H 1.2743 0.7986 0.6850
C22 C 1.3449(5) 0.9182(3) 0.71039(18)
H22 H 1.3410 0.9375 0.6647
H23 H 1.4497 0.9453 0.7336
H24 H 1.2246 0.9315 0.7322
loop_
_geom_bond_atom_site_label_1
_geom_bond_atom_site_label_2
_geom_bond_site_symmetry_1
_geom_bond_site_symmetry_2
Te1 Te2 1_555 1_555
Te2 C12 1_555 1_555
O1 C7 1_555 1_555
O2 C18 1_555 1_555
N1 C7 1_555 1_555
N2 C18 1_555 1_555
C1 Te1 1_555 1_555
C2 C1 1_555 1_555
H1 C2 1_555 1_555
C3 C2 1_555 1_555
H2 C3 1_555 1_555
C4 C3 1_555 1_555
H3 C4 1_555 1_555
C5 C4 1_555 1_555
H4 C5 1_555 1_555
C6 C1 1_555 1_555
C7 C6 1_555 1_555
C8 O1 1_555 1_555
H5 C8 1_555 1_555
H6 C8 1_555 1_555
C9 N1 1_555 1_555
H7 C9 1_555 1_555
C10 C9 1_555 1_555
H8 C10 1_555 1_555
H9 C10 1_555 1_555
C11 C10 1_555 1_555
H10 C11 1_555 1_555
H11 C11 1_555 1_555
H12 C11 1_555 1_555
C12 C13 1_555 1_555
C13 H13 1_555 1_555
C14 C13 1_555 1_555
H14 C14 1_555 1_555
C15 C14 1_555 1_555
H15 C15 1_555 1_555
C16 C15 1_555 1_555
H16 C16 1_555 1_555
C17 C12 1_555 1_555
C18 C17 1_555 1_555
C19 O2 1_555 1_555
H17 C19 1_555 1_555
H18 C19 1_555 1_555
C20 N2 1_555 1_555
H19 C20 1_555 1_555
C21 C20 1_555 1_555
H20 C21 1_555 1_555
H21 C21 1_555 1_555
C22 C21 1_555 1_555
H22 C22 1_555 1_555
H23 C22 1_555 1_555
H24 C22 1_555 1_555
C5 C6 1_555 1_555
C8 C9 1_555 1_555
C16 C17 1_555 1_555
C19 C20 1_555 1_555

#END
