
#######################################################################
#
#                 Cambridge Crystallographic Data Centre
#                                CCDC 
#
#######################################################################
#
# If this CIF has been generated from an entry in the Cambridge 
# Structural Database, then it will include bibliographic, chemical, 
# crystal, experimental, refinement or atomic coordinate data resulting 
# from the CCDC's data processing and validation procedures.
#
#######################################################################

data_XIGMUY
_chemical_compound_source        'branches and leaves of Jatropha gosspiifolia'
_chemical_name_common            'jatrogossone A'
_chemical_formula_moiety         'C22 H30 O4'
_chemical_name_systematic        
'1,1,3,6,9-pentamethyl-4,10-dioxo-1a,4,4a,5,6,7,9,10,11,11a-decahydro-1H-cyclopenta[a]cyclopropa[f][11]annulen-7-yl acetate'
_symmetry_cell_setting           orthorhombic
_symmetry_space_group_name_H-M   'P 21 21 2'
_symmetry_Int_Tables_number      18
_space_group_name_Hall           'P 2 2ab'
loop_
_symmetry_equiv_pos_site_id
_symmetry_equiv_pos_as_xyz
1 x,y,z
2 -x,-y,z
3 1/2-x,1/2+y,-z
4 1/2+x,1/2-y,-z
_cell_length_a                   10.775(3)
_cell_length_b                   20.705(5)
_cell_length_c                   9.606(2)
_cell_angle_alpha                90
_cell_angle_beta                 90
_cell_angle_gamma                90
_cell_volume                     2143.06
_exptl_crystal_colour            colorless
_exptl_crystal_description       plate
_chemical_melting_point          '165-167 deg.C'
_cell_formula_units_Z            4
loop_
_atom_site_label
_atom_site_type_symbol
_atom_site_fract_x
_atom_site_fract_y
_atom_site_fract_z
O1 O 0.5573(4) 0.7388(2) 0.4300(6)
O2 O 0.8237(4) 0.7081(2) 0.9955(4)
O3 O 0.6336(3) 0.6004(2) 0.8935(4)
O4 O 0.4536(5) 0.5847(4) 0.7886(7)
C1 C 0.9139(5) 0.6066(3) 0.8387(7)
H1 H 0.991381 0.596254 0.792456
H2 H 0.931359 0.616680 0.935345
C2 C 0.8242(5) 0.5497(3) 0.8291(7)
H3 H 0.857084 0.520864 0.757153
C3 C 0.7024(5) 0.5771(3) 0.7723(6)
H4 H 0.655531 0.545411 0.717861
C4 C 0.7454(5) 0.6331(3) 0.6865(6)
C5 C 0.7067(5) 0.6437(3) 0.5581(6)
H5 H 0.639887 0.619024 0.527715
C6 C 0.7590(5) 0.6912(3) 0.4559(6)
H6 H 0.837013 0.708589 0.492753
C7 C 0.6696(7) 0.7468(3) 0.4287(7)
C8 C 0.7244(6) 0.8131(3) 0.4015(7)
H7 H 0.813498 0.811612 0.415451
H8 H 0.709048 0.825261 0.305451
C9 C 0.6692(6) 0.8629(3) 0.4961(7)
H9 H 0.588126 0.879241 0.466036
C10 C 0.6836(6) 0.8567(3) 0.6537(7)
H10 H 0.610637 0.869706 0.707782
C11 C 0.7529(5) 0.8007(3) 0.7115(7)
H11 H 0.823321 0.787417 0.663314
C12 C 0.7240(5) 0.7686(3) 0.8236(6)
C13 C 0.8011(5) 0.7133(3) 0.8721(6)
C14 C 0.8509(4) 0.6640(3) 0.7673(6)
H12 H 0.908929 0.684957 0.703028
C15 C 0.7844(7) 0.6588(4) 0.3144(7)
H13 H 0.850773 0.628191 0.324139
H14 H 0.807288 0.691066 0.247407
H15 H 0.710883 0.636873 0.283388
C16 C 0.8128(8) 0.5093(4) 0.9624(8)
H16 H 0.890927 0.489087 0.982269
H17 H 0.750343 0.476767 0.949695
H18 H 0.789814 0.536846 1.038596
C17 C 0.6190(8) 0.7872(4) 0.9191(10)
H19 H 0.541791 0.772815 0.880045
H20 H 0.617317 0.833300 0.929635
H21 H 0.631025 0.767376 1.008408
C18 C 0.7459(6) 0.9108(3) 0.5732(8)
C19 C 0.6856(10) 0.9767(4) 0.5962(10)
H22 H 0.703439 1.004226 0.518395
H23 H 0.718041 0.995724 0.679731
H24 H 0.597435 0.971424 0.604975
C20 C 0.8828(6) 0.9132(3) 0.5605(8)
H25 H 0.914764 0.870043 0.552739
H26 H 0.917345 0.933599 0.641384
H27 H 0.905060 0.937392 0.478975
C21 C 0.5120(6) 0.6007(3) 0.8902(8)
C22 C 0.4538(7) 0.6235(4) 1.0218(8)
H28 H 0.416914 0.587576 1.069498
H29 H 0.390987 0.654928 1.000852
H30 H 0.516011 0.642792 1.080110
loop_
_geom_bond_atom_site_label_1
_geom_bond_atom_site_label_2
_geom_bond_site_symmetry_1
_geom_bond_site_symmetry_2
O1 C7 1_555 1_555
O2 C13 1_555 1_555
O3 C3 1_555 1_555
O4 C21 1_555 1_555
C1 H1 1_555 1_555
H2 C1 1_555 1_555
C2 C1 1_555 1_555
H3 C2 1_555 1_555
C3 C2 1_555 1_555
H4 C3 1_555 1_555
C4 C3 1_555 1_555
C5 C4 1_555 1_555
H5 C5 1_555 1_555
C6 C5 1_555 1_555
H6 C6 1_555 1_555
C7 C6 1_555 1_555
C8 C7 1_555 1_555
H7 C8 1_555 1_555
H8 C8 1_555 1_555
C9 C8 1_555 1_555
H9 C9 1_555 1_555
C10 C9 1_555 1_555
H10 C10 1_555 1_555
C11 C10 1_555 1_555
H11 C11 1_555 1_555
C12 C11 1_555 1_555
C13 C12 1_555 1_555
C14 C1 1_555 1_555
H12 C14 1_555 1_555
C15 C6 1_555 1_555
H13 C15 1_555 1_555
H14 C15 1_555 1_555
H15 C15 1_555 1_555
C16 C2 1_555 1_555
H16 C16 1_555 1_555
H17 C16 1_555 1_555
H18 C16 1_555 1_555
C17 C12 1_555 1_555
H19 C17 1_555 1_555
H20 C17 1_555 1_555
H21 C17 1_555 1_555
C18 C9 1_555 1_555
C19 C18 1_555 1_555
H22 C19 1_555 1_555
H23 C19 1_555 1_555
H24 C19 1_555 1_555
C20 C18 1_555 1_555
H25 C20 1_555 1_555
H26 C20 1_555 1_555
H27 C20 1_555 1_555
C21 O3 1_555 1_555
C22 C21 1_555 1_555
H28 C22 1_555 1_555
H29 C22 1_555 1_555
H30 C22 1_555 1_555
C4 C14 1_555 1_555
C10 C18 1_555 1_555
C13 C14 1_555 1_555

#END
