
#######################################################################
#
#                 Cambridge Crystallographic Data Centre
#                                CCDC 
#
#######################################################################
#
# If this CIF has been generated from an entry in the Cambridge 
# Structural Database, then it will include bibliographic, chemical, 
# crystal, experimental, refinement or atomic coordinate data resulting 
# from the CCDC's data processing and validation procedures.
#
#######################################################################

data_XIGNUX01
_chemical_formula_moiety         'C20 H24 O6 Rb1 1+,I3 1-'
_chemical_name_systematic        '(Dibenzo-18-crown-6)-rubidium tri-iodide'
_symmetry_cell_setting           monoclinic
_symmetry_space_group_name_H-M   'P 21/n'
_symmetry_Int_Tables_number      14
_space_group_name_Hall           '-P 2yn'
loop_
_symmetry_equiv_pos_site_id
_symmetry_equiv_pos_as_xyz
1 x,y,z
2 1/2-x,1/2+y,1/2-z
3 -x,-y,-z
4 1/2+x,1/2-y,1/2+z
_cell_length_a                   14.0910(15)
_cell_length_b                   22.1213(17)
_cell_length_c                   16.2591(19)
_cell_angle_alpha                90
_cell_angle_beta                 101.009(9)
_cell_angle_gamma                90
_cell_volume                     4974.88
_exptl_crystal_colour            red
_exptl_crystal_description       polyhedron
_cell_formula_units_Z            8
loop_
_atom_site_label
_atom_site_type_symbol
_atom_site_fract_x
_atom_site_fract_y
_atom_site_fract_z
I1 I 0.57458(4) 0.26565(3) -0.15585(4)
I2 I 0.43603(5) 0.26403(3) -0.31582(5)
I3 I 0.72437(5) 0.27763(3) -0.00370(5)
I4 I 0.25318(5) 0.25572(3) 0.01026(4)
I5 I 0.42803(5) 0.23513(3) 0.13844(5)
I6 I 0.07400(5) 0.26316(4) -0.11381(5)
Rb1 Rb 0.20229(7) -0.01486(4) 0.23960(6)
O5 O 0.3678(4) -0.0779(3) 0.3446(4)
O6 O 0.1336(4) -0.0705(3) 0.0807(4)
O8 O 0.3736(4) 0.0404(3) 0.3506(4)
O10 O 0.1400(5) 0.0475(3) 0.0856(4)
O11 O 0.2561(4) 0.1077(3) 0.2222(4)
O12 O 0.2442(4) -0.1381(3) 0.2109(4)
C2 C 0.2679(7) -0.1622(5) 0.2936(7)
H2 H 0.2645 -0.2059 0.2916
H3 H 0.2219 -0.1478 0.3266
C5 C 0.4576(6) -0.0525(4) 0.3740(6)
C7 C 0.1524(7) -0.1592(5) 0.1670(7)
H5 H 0.1014 -0.1445 0.1943
H6 H 0.1510 -0.2030 0.1671
C8 C 0.4594(6) 0.0113(4) 0.3774(5)
C9 C 0.5407(7) -0.0855(4) 0.3990(6)
H7 H 0.5388 -0.1276 0.3972
C11 C 0.1227(6) 0.0217(4) 0.0066(6)
C13 C 0.1669(7) 0.1316(4) 0.1780(6)
H8 H 0.1685 0.1755 0.1804
H9 H 0.1141 0.1177 0.2037
C15 C 0.3792(7) 0.1052(4) 0.3453(7)
H11 H 0.4264 0.1165 0.3117
H12 H 0.3992 0.1223 0.4008
C18 C 0.5474(7) 0.0407(5) 0.4072(6)
H17 H 0.5496 0.0826 0.4105
C20 C 0.1021(7) -0.0716(5) -0.0721(7)
H19 H 0.1002 -0.1136 -0.0742
C21 C 0.1516(7) 0.1111(4) 0.0890(6)
H20 H 0.0946 0.1304 0.0569
H21 H 0.2068 0.1225 0.0647
C22 C 0.6279(7) -0.0554(4) 0.4272(7)
H22 H 0.6845 -0.0775 0.4430
C23 C 0.1374(7) -0.1359(4) 0.0781(6)
H23 H 0.1902 -0.1488 0.0518
H24 H 0.0775 -0.1517 0.0458
C24 C 0.1100(7) 0.0536(5) -0.0664(7)
H25 H 0.1136 0.0956 -0.0647
C26 C 0.1197(6) -0.0419(4) 0.0043(6)
C30 C 0.6313(7) 0.0069(4) 0.4317(6)
H33 H 0.6898 0.0263 0.4512
C31 C 0.0872(7) -0.0377(5) -0.1460(7)
H34 H 0.0742 -0.0573 -0.1975
C34 C 0.3684(7) -0.1425(4) 0.3339(7)
H38 H 0.3879 -0.1622 0.3878
H39 H 0.4139 -0.1537 0.2986
C36 C 0.0918(7) 0.0243(5) -0.1432(7)
H42 H 0.0827 0.0466 -0.1926
C37 C 0.2803(7) 0.1291(4) 0.3053(6)
H43 H 0.2325 0.1157 0.3370
H44 H 0.2811 0.1730 0.3055
Rb2 Rb 0.70211(7) -0.00615(4) 0.24244(6)
O1 O 0.7444(4) -0.1263(3) 0.2001(4)
O2 O 0.8701(4) -0.0727(3) 0.3384(4)
O3 O 0.6315(4) -0.0518(3) 0.0787(4)
O4 O 0.8731(4) 0.0451(3) 0.3575(4)
O7 O 0.7531(4) 0.1171(3) 0.2384(4)
O9 O 0.6424(5) 0.0651(3) 0.0946(4)
C1 C 0.5947(7) 0.0523(5) -0.1369(7)
H1 H 0.5844 0.0764 -0.1845
C3 C 0.6272(6) 0.0435(4) 0.0146(6)
C4 C 1.1300(7) -0.0493(5) 0.4233(6)
H4 H 1.1870 -0.0711 0.4384
C6 C 0.9595(6) 0.0156(4) 0.3799(6)
C10 C 0.9591(6) -0.0473(4) 0.3707(6)
C12 C 0.6179(6) -0.0201(4) 0.0054(6)
C14 C 0.5998(7) -0.0455(5) -0.0740(7)
H10 H 0.5952 -0.0873 -0.0799
C16 C 0.6543(7) 0.1292(4) 0.1041(7)
H13 H 0.5978 0.1498 0.0732
H14 H 0.7103 0.1422 0.0821
C17 C 0.6674(7) 0.1443(5) 0.1942(7)
H15 H 0.6713 0.1878 0.2014
H16 H 0.6123 0.1299 0.2164
C19 C 0.6166(7) 0.0795(5) -0.0569(6)
H18 H 0.6238 0.1212 -0.0519
C25 C 0.8764(7) 0.1106(4) 0.3591(7)
H26 H 0.9223 0.1250 0.3261
H27 H 0.8970 0.1247 0.4162
C27 C 1.0429(7) -0.0803(5) 0.3924(6)
H28 H 1.0423 -0.1222 0.3868
C28 C 0.6339(7) -0.1167(4) 0.0715(7)
H29 H 0.6851 -0.1285 0.0424
H30 H 0.5730 -0.1311 0.0393
C29 C 0.7714(7) -0.1553(5) 0.2796(7)
H31 H 0.7690 -0.1989 0.2723
H32 H 0.7266 -0.1442 0.3155
C32 C 1.1321(7) 0.0116(5) 0.4315(6)
H35 H 1.1904 0.0311 0.4511
C33 C 0.7781(7) 0.1343(5) 0.3239(6)
H36 H 0.7315 0.1178 0.3547
H37 H 0.7775 0.1780 0.3287
C35 C 0.6513(7) -0.1440(4) 0.1568(6)
H40 H 0.6024 -0.1304 0.1871
H41 H 0.6478 -0.1877 0.1525
C38 C 0.5884(7) -0.0090(5) -0.1449(7)
H45 H 0.5766 -0.0265 -0.1980
C39 C 1.0463(7) 0.0455(5) 0.4104(6)
H46 H 1.0475 0.0873 0.4168
C40 C 0.8714(7) -0.1364(4) 0.3192(7)
H47 H 0.8933 -0.1594 0.3701
H48 H 0.9154 -0.1440 0.2811
loop_
_geom_bond_atom_site_label_1
_geom_bond_atom_site_label_2
_geom_bond_site_symmetry_1
_geom_bond_site_symmetry_2
I1 I2 1_555 1_555
I3 I1 1_555 1_555
I4 I5 1_555 1_555
I6 I4 1_555 1_555
Rb1 O5 1_555 1_555
Rb2 O1 1_555 1_555
O1 C29 1_555 1_555
O2 Rb2 1_555 1_555
O3 Rb2 1_555 1_555
O4 Rb2 1_555 1_555
O5 C5 1_555 1_555
O6 Rb1 1_555 1_555
O7 Rb2 1_555 1_555
O8 Rb1 1_555 1_555
O9 Rb2 1_555 1_555
O10 Rb1 1_555 1_555
O11 Rb1 1_555 1_555
O12 Rb1 1_555 1_555
C1 H1 1_555 1_555
C2 O12 1_555 1_555
H2 C2 1_555 1_555
H3 C2 1_555 1_555
C3 O9 1_555 1_555
C4 H4 1_555 1_555
C5 C8 1_555 1_555
C6 O4 1_555 1_555
C7 O12 1_555 1_555
H5 C7 1_555 1_555
H6 C7 1_555 1_555
C8 O8 1_555 1_555
C9 C5 1_555 1_555
H7 C9 1_555 1_555
C10 O2 1_555 1_555
C11 O10 1_555 1_555
C12 O3 1_555 1_555
C13 O11 1_555 1_555
H8 C13 1_555 1_555
H9 C13 1_555 1_555
C14 C12 1_555 1_555
H10 C14 1_555 1_555
C15 O8 1_555 1_555
H11 C15 1_555 1_555
H12 C15 1_555 1_555
C16 O9 1_555 1_555
H13 C16 1_555 1_555
H14 C16 1_555 1_555
C17 O7 1_555 1_555
H15 C17 1_555 1_555
H16 C17 1_555 1_555
C18 C8 1_555 1_555
H17 C18 1_555 1_555
C19 C1 1_555 1_555
H18 C19 1_555 1_555
C20 H19 1_555 1_555
C21 O10 1_555 1_555
H20 C21 1_555 1_555
H21 C21 1_555 1_555
C22 C9 1_555 1_555
H22 C22 1_555 1_555
C23 O6 1_555 1_555
H23 C23 1_555 1_555
H24 C23 1_555 1_555
C24 C11 1_555 1_555
H25 C24 1_555 1_555
C25 O4 1_555 1_555
H26 C25 1_555 1_555
H27 C25 1_555 1_555
C26 O6 1_555 1_555
C27 C4 1_555 1_555
H28 C27 1_555 1_555
C28 O3 1_555 1_555
H29 C28 1_555 1_555
H30 C28 1_555 1_555
C29 H31 1_555 1_555
H32 C29 1_555 1_555
C30 C18 1_555 1_555
H33 C30 1_555 1_555
C31 C20 1_555 1_555
H34 C31 1_555 1_555
C32 C4 1_555 1_555
H35 C32 1_555 1_555
C33 O7 1_555 1_555
H36 C33 1_555 1_555
H37 C33 1_555 1_555
C34 O5 1_555 1_555
H38 C34 1_555 1_555
H39 C34 1_555 1_555
C35 O1 1_555 1_555
H40 C35 1_555 1_555
H41 C35 1_555 1_555
C36 C24 1_555 1_555
H42 C36 1_555 1_555
C37 O11 1_555 1_555
H43 C37 1_555 1_555
H44 C37 1_555 1_555
C38 C1 1_555 1_555
H45 C38 1_555 1_555
C39 C6 1_555 1_555
H46 C39 1_555 1_555
C40 O2 1_555 1_555
H47 C40 1_555 1_555
H48 C40 1_555 1_555
C2 C34 1_555 1_555
C3 C12 1_555 1_555
C3 C19 1_555 1_555
C6 C10 1_555 1_555
C7 C23 1_555 1_555
C10 C27 1_555 1_555
C11 C26 1_555 1_555
C13 C21 1_555 1_555
C14 C38 1_555 1_555
C15 C37 1_555 1_555
C16 C17 1_555 1_555
C20 C26 1_555 1_555
C22 C30 1_555 1_555
C25 C33 1_555 1_555
C28 C35 1_555 1_555
C29 C40 1_555 1_555
C31 C36 1_555 1_555
C32 C39 1_555 1_555

#END
