
#######################################################################
#
#                 Cambridge Crystallographic Data Centre
#                                CCDC 
#
#######################################################################
#
# If this CIF has been generated from an entry in the Cambridge 
# Structural Database, then it will include bibliographic, chemical, 
# crystal, experimental, refinement or atomic coordinate data resulting 
# from the CCDC's data processing and validation procedures.
#
#######################################################################

data_XIGNOS
_chemical_formula_moiety         'C16 H10 F2 N2'
_chemical_name_systematic        2,5-bis(2-Fluorophenyl)pyrazine
_symmetry_cell_setting           monoclinic
_symmetry_space_group_name_H-M   'P 21/c'
_symmetry_Int_Tables_number      14
_space_group_name_Hall           '-P 2ybc'
loop_
_symmetry_equiv_pos_site_id
_symmetry_equiv_pos_as_xyz
1 x,y,z
2 -x,1/2+y,1/2-z
3 -x,-y,-z
4 x,1/2-y,1/2+z
_cell_length_a                   3.8013(7)
_cell_length_b                   11.882(3)
_cell_length_c                   13.310(4)
_cell_angle_alpha                90
_cell_angle_beta                 90.41(3)
_cell_angle_gamma                90
_cell_volume                     601.158
_exptl_crystal_colour            colorless
_exptl_crystal_description       block
_cell_formula_units_Z            2
loop_
_atom_site_label
_atom_site_type_symbol
_atom_site_fract_x
_atom_site_fract_y
_atom_site_fract_z
F1 F 0.1607(7) 0.24638(18) 0.14787(16)
N1 N 0.3570(8) 0.5727(2) 0.0704(2)
C1 C 0.3235(9) 0.4298(3) 0.1959(2)
C2 C 0.2062(10) 0.3245(3) 0.2218(3)
C3 C 0.1234(10) 0.2924(3) 0.3176(3)
H1 H 0.0435 0.2200 0.3312
C4 C 0.1620(11) 0.3698(4) 0.3924(3)
H2 H 0.1096 0.3502 0.4582
C5 C 0.2778(10) 0.4764(4) 0.3711(3)
H3 H 0.3043 0.5287 0.4226
C6 C 0.3554(10) 0.5064(3) 0.2734(3)
H4 H 0.4301 0.5793 0.2596
C7 C 0.4118(9) 0.4646(3) 0.0926(2)
C8 C 0.4468(10) 0.6068(3) -0.0214(3)
H5 H 0.4257 0.6826 -0.0374
F1B F 0.8393(7) 0.75362(18) -0.14787(16)
N1B N 0.6430(8) 0.4273(2) -0.0704(2)
C1B C 0.6765(9) 0.5702(3) -0.1959(2)
C2B C 0.7938(10) 0.6755(3) -0.2218(3)
C3B C 0.8766(10) 0.7076(3) -0.3176(3)
H1B H 0.9565 0.7800 -0.3312
C4B C 0.8380(11) 0.6302(4) -0.3924(3)
H2B H 0.8904 0.6498 -0.4582
C5B C 0.7222(10) 0.5236(4) -0.3711(3)
H3B H 0.6957 0.4713 -0.4226
C6B C 0.6446(10) 0.4936(3) -0.2734(3)
H4B H 0.5699 0.4207 -0.2596
C7B C 0.5882(9) 0.5354(3) -0.0926(2)
C8B C 0.5532(10) 0.3932(3) 0.0214(3)
H5B H 0.5743 0.3174 0.0374
loop_
_geom_bond_atom_site_label_1
_geom_bond_atom_site_label_2
_geom_bond_site_symmetry_1
_geom_bond_site_symmetry_2
F1 C2 1_555 1_555
N1 C7 1_555 1_555
C1 C2 1_555 1_555
C2 C3 1_555 1_555
C3 H1 1_555 1_555
C4 C3 1_555 1_555
H2 C4 1_555 1_555
C5 C4 1_555 1_555
H3 C5 1_555 1_555
C6 C1 1_555 1_555
H4 C6 1_555 1_555
C7 C1 1_555 1_555
C8 N1 1_555 1_555
H5 C8 1_555 1_555
F1B C2B 1_555 1_555
N1B C7B 1_555 1_555
C1B C2B 1_555 1_555
C2B C3B 1_555 1_555
C3B H1B 1_555 1_555
C4B C3B 1_555 1_555
H2B C4B 1_555 1_555
C5B C4B 1_555 1_555
H3B C5B 1_555 1_555
C6B C1B 1_555 1_555
H4B C6B 1_555 1_555
C7B C8 1_555 1_555
C8B C7 1_555 1_555
H5B C8B 1_555 1_555
C5 C6 1_555 1_555
N1B C8B 1_555 1_555
C1B C7B 1_555 1_555
C5B C6B 1_555 1_555

#END
