
#######################################################################
#
#                 Cambridge Crystallographic Data Centre
#                                CCDC 
#
#######################################################################
#
# If this CIF has been generated from an entry in the Cambridge 
# Structural Database, then it will include bibliographic, chemical, 
# crystal, experimental, refinement or atomic coordinate data resulting 
# from the CCDC's data processing and validation procedures.
#
#######################################################################

data_XIGNIL
_chemical_formula_moiety         '2(C20 H24 O6),H4 N1 1+,I3 1-'
_chemical_name_systematic        'bis(Dibenzo-18-crown-6) ammonium tri-iodide'
_symmetry_cell_setting           monoclinic
_symmetry_space_group_name_H-M   'P n'
_symmetry_Int_Tables_number      7
_space_group_name_Hall           'P -2yac'
loop_
_symmetry_equiv_pos_site_id
_symmetry_equiv_pos_as_xyz
1 x,y,z
2 1/2+x,-y,1/2+z
_cell_length_a                   13.4526(14)
_cell_length_b                   7.7382(4)
_cell_length_c                   20.951(2)
_cell_angle_alpha                90
_cell_angle_beta                 94.439(8)
_cell_angle_gamma                90
_cell_volume                     2174.43
_exptl_crystal_colour            red
_exptl_crystal_description       plate
_cell_formula_units_Z            2
loop_
_atom_site_label
_atom_site_type_symbol
_atom_site_fract_x
_atom_site_fract_y
_atom_site_fract_z
I1 I 1.68894(3) 0.27096(4) 0.526046(19)
I2 I 1.86171(3) 0.31118(5) 0.452178(19)
I3 I 1.51563(2) 0.22331(5) 0.598706(17)
O1 O 1.3670(3) -0.2020(5) 0.42937(19)
O2 O 1.2794(3) -0.1763(5) 0.31739(17)
O3 O 1.5818(3) -0.2117(5) 0.4476(2)
C1 C 1.4436(4) -0.3034(6) 0.1668(3)
H1 H 1.4139 -0.3397 0.1253
H2 H 1.4609 -0.4060 0.1918
C2 C 1.2907(4) -0.3033(7) 0.2161(3)
H3 H 1.3149 -0.4045 0.2398
H4 H 1.2519 -0.3419 0.1778
O6 O 1.5866(3) -0.1771(5) 0.21970(17)
O7 O 1.6840(3) -0.1966(5) 0.32938(18)
C3 C 1.6805(4) -0.1068(6) 0.2227(2)
O8 O 1.3735(3) -0.2013(4) 0.19867(18)
C4 C 1.8289(4) -0.0461(7) 0.2918(3)
H5 H 1.8643 -0.0525 0.3316
C8 C 1.0937(4) 0.0462(8) 0.4090(3)
H6 H 1.0318 0.0999 0.4032
C9 C 1.2287(4) -0.1054(6) 0.3651(2)
C15 C 1.6679(5) -0.3078(7) 0.4332(3)
H12 H 1.6475 -0.4135 0.4111
H13 H 1.7062 -0.3389 0.4727
C16 C 1.2782(4) -0.1170(6) 0.4266(3)
C17 C 1.2353(5) -0.0436(8) 0.4784(3)
H14 H 1.2680 -0.0484 0.5191
C18 C 1.7330(4) -0.1160(6) 0.2827(2)
C26 C 1.1372(4) -0.0260(7) 0.3566(3)
H26 H 1.1041 -0.0204 0.3160
C27 C 1.7236(4) -0.0281(7) 0.1723(3)
H27 H 1.6888 -0.0207 0.1323
C28 C 1.4240(5) -0.2161(7) 0.4899(3)
H28 H 1.3852 -0.2744 0.5206
H29 H 1.4415 -0.1021 0.5063
C30 C 1.2270(4) -0.1981(6) 0.2560(2)
H32 H 1.2134 -0.0864 0.2362
H33 H 1.1640 -0.2563 0.2604
C32 C 1.7317(5) -0.2023(7) 0.3920(3)
H35 H 1.7398 -0.0863 0.4091
H36 H 1.7971 -0.2546 0.3912
C33 C 1.8196(4) 0.0403(7) 0.1820(3)
H37 H 1.8490 0.0917 0.1480
C34 C 1.5158(4) -0.3168(7) 0.4799(3)
H38 H 1.5475 -0.3530 0.5209
H39 H 1.4987 -0.4193 0.4548
C35 C 1.8709(4) 0.0327(7) 0.2408(3)
H40 H 1.9344 0.0806 0.2467
C36 C 1.1425(5) 0.0378(8) 0.4687(3)
H41 H 1.1136 0.0869 0.5033
C37 C 1.5358(4) -0.1991(7) 0.1584(2)
H42 H 1.5782 -0.2588 0.1302
H43 H 1.5180 -0.0875 0.1397
O4 O 1.1815(3) 0.2706(4) 0.21383(17)
O5 O 1.2793(3) 0.3120(4) 0.32463(16)
O9 O 1.5012(3) 0.2570(5) 0.11337(18)
C5 C 1.5883(4) 0.3510(6) 0.1145(2)
C6 C 1.6373(3) 0.3772(6) 0.1753(2)
C7 C 1.1322(4) 0.3648(6) 0.2575(2)
C10 C 1.3344(4) 0.3311(7) 0.3857(2)
H7 H 1.2962 0.2857 0.4194
H8 H 1.3480 0.4523 0.3944
C11 C 1.1858(3) 0.3868(6) 0.3181(2)
C12 C 1.0481(4) 0.5502(7) 0.3531(3)
H9 H 1.0201 0.6134 0.3850
O10 O 1.2903(3) 0.2420(5) 0.1020(2)
O11 O 1.4898(3) 0.3147(5) 0.33949(18)
C13 C 1.6284(4) 0.4183(7) 0.0609(3)
H10 H 1.5961 0.4012 0.0205
C14 C 1.1429(4) 0.4791(6) 0.3648(3)
H11 H 1.1776 0.4944 0.4046
C19 C 1.7252(4) 0.4697(7) 0.1814(3)
H15 H 1.7580 0.4869 0.2216
C20 C 0.9959(4) 0.5272(7) 0.2948(3)
H16 H 0.9322 0.5732 0.2873
C21 C 1.3511(4) 0.1428(7) 0.0629(2)
H17 H 1.3148 0.1184 0.0221
H18 H 1.3685 0.0338 0.0837
C22 C 1.6415(4) 0.3267(7) 0.2886(3)
H19 H 1.6451 0.4483 0.2999
H20 H 1.7089 0.2817 0.2894
C23 C 1.1347(4) 0.2655(6) 0.1492(3)
H21 H 1.1289 0.3815 0.1317
H22 H 1.0683 0.2163 0.1492
C24 C 1.4438(5) 0.2426(7) 0.0524(3)
H23 H 1.4823 0.1832 0.0219
H24 H 1.4267 0.3566 0.0357
C25 C 1.7174(5) 0.5118(8) 0.0674(3)
H25 H 1.7446 0.5569 0.0315
C29 C 1.1977(4) 0.1574(6) 0.1098(2)
H30 H 1.2101 0.0465 0.1305
H31 H 1.1630 0.1369 0.0682
C31 C 1.0387(4) 0.4344(7) 0.2466(3)
H34 H 1.0035 0.4199 0.2070
O12 O 1.5919(3) 0.3059(4) 0.22589(17)
C38 C 1.5836(4) 0.2303(8) 0.3352(3)
H44 H 1.5730 0.1120 0.3209
H45 H 1.6204 0.2282 0.3769
C39 C 1.4305(5) 0.2329(7) 0.3837(3)
H46 H 1.4658 0.2314 0.4259
H47 H 1.4169 0.1145 0.3706
C40 C 1.7647(4) 0.5371(7) 0.1273(3)
H48 H 1.8237 0.6000 0.1317
N1 N 1.3925(3) 0.1608(5) 0.22508(19)
loop_
_geom_bond_atom_site_label_1
_geom_bond_atom_site_label_2
_geom_bond_site_symmetry_1
_geom_bond_site_symmetry_2
I1 I2 1_555 1_555
I3 I1 1_555 1_555
O1 C16 1_555 1_555
O2 C9 1_555 1_555
O3 C15 1_555 1_555
C1 H1 1_555 1_555
H2 C1 1_555 1_555
O4 C7 1_555 1_555
O5 C10 1_555 1_555
C2 H3 1_555 1_555
H4 C2 1_555 1_555
O6 C3 1_555 1_555
O7 C18 1_555 1_555
C3 C18 1_555 1_555
O8 C1 1_555 1_555
C4 H5 1_555 1_555
O9 C5 1_555 1_555
C5 C6 1_555 1_555
C6 C19 1_555 1_555
C7 C11 1_555 1_555
C8 H6 1_555 1_555
C9 C16 1_555 1_555
C10 H7 1_555 1_555
H8 C10 1_555 1_555
C11 O5 1_555 1_555
C12 H9 1_555 1_555
O10 C21 1_555 1_555
O11 C38 1_555 1_555
C13 C5 1_555 1_555
H10 C13 1_555 1_555
C14 C11 1_555 1_555
H11 C14 1_555 1_555
C15 H12 1_555 1_555
H13 C15 1_555 1_555
C16 C17 1_555 1_555
C17 H14 1_555 1_555
C18 C4 1_555 1_555
C19 H15 1_555 1_555
C20 C12 1_555 1_555
H16 C20 1_555 1_555
C21 H17 1_555 1_555
H18 C21 1_555 1_555
C22 H19 1_555 1_555
H20 C22 1_555 1_555
C23 O4 1_555 1_555
H21 C23 1_555 1_555
H22 C23 1_555 1_555
C24 O9 1_555 1_555
H23 C24 1_555 1_555
H24 C24 1_555 1_555
C25 C13 1_555 1_555
H25 C25 1_555 1_555
C26 C8 1_555 1_555
H26 C26 1_555 1_555
C27 C3 1_555 1_555
H27 C27 1_555 1_555
C28 O1 1_555 1_555
H28 C28 1_555 1_555
H29 C28 1_555 1_555
C29 O10 1_555 1_555
H30 C29 1_555 1_555
H31 C29 1_555 1_555
C30 O2 1_555 1_555
H32 C30 1_555 1_555
H33 C30 1_555 1_555
C31 C7 1_555 1_555
H34 C31 1_555 1_555
C32 O7 1_555 1_555
H35 C32 1_555 1_555
H36 C32 1_555 1_555
C33 C27 1_555 1_555
H37 C33 1_555 1_555
C34 O3 1_555 1_555
H38 C34 1_555 1_555
H39 C34 1_555 1_555
C35 C4 1_555 1_555
H40 C35 1_555 1_555
C36 C8 1_555 1_555
H41 C36 1_555 1_555
C37 C1 1_555 1_555
H42 C37 1_555 1_555
H43 C37 1_555 1_555
O12 C6 1_555 1_555
C38 C22 1_555 1_555
H44 C38 1_555 1_555
H45 C38 1_555 1_555
C39 C10 1_555 1_555
H46 C39 1_555 1_555
H47 C39 1_555 1_555
C40 C19 1_555 1_555
H48 C40 1_555 1_555
C2 O8 1_555 1_555
C2 C30 1_555 1_555
O6 C37 1_555 1_555
C9 C26 1_555 1_555
C12 C14 1_555 1_555
O11 C39 1_555 1_555
C15 C32 1_555 1_555
C17 C36 1_555 1_555
C20 C31 1_555 1_555
C21 C24 1_555 1_555
C22 O12 1_555 1_555
C23 C29 1_555 1_555
C25 C40 1_555 1_555
C28 C34 1_555 1_555
C33 C35 1_555 1_555

#END
