
#######################################################################
#
#                 Cambridge Crystallographic Data Centre
#                                CCDC 
#
#######################################################################
#
# If this CIF has been generated from an entry in the Cambridge 
# Structural Database, then it will include bibliographic, chemical, 
# crystal, experimental, refinement or atomic coordinate data resulting 
# from the CCDC's data processing and validation procedures.
#
#######################################################################

data_XIGNEH
_chemical_formula_moiety         'C20 H24 O6,H4 N1 1+,I3 1-'
_chemical_name_systematic        '(Dibenzo-18-crown-6) ammonium tri-iodide'
_symmetry_cell_setting           monoclinic
_symmetry_space_group_name_H-M   'P 21/n'
_symmetry_Int_Tables_number      14
_space_group_name_Hall           '-P 2yn'
loop_
_symmetry_equiv_pos_site_id
_symmetry_equiv_pos_as_xyz
1 x,y,z
2 1/2-x,1/2+y,1/2-z
3 -x,-y,-z
4 1/2+x,1/2-y,1/2+z
_cell_length_a                   14.0967(8)
_cell_length_b                   22.1163(14)
_cell_length_c                   16.2716(10)
_cell_angle_alpha                90
_cell_angle_beta                 101.030(5)
_cell_angle_gamma                90
_cell_volume                     4979.23
_exptl_crystal_colour            red
_exptl_crystal_description       polyhedron
_chemical_melting_point          474K(dec.)
_cell_formula_units_Z            8
loop_
_atom_site_label
_atom_site_type_symbol
_atom_site_fract_x
_atom_site_fract_y
_atom_site_fract_z
I1 I 0.57526(2) 0.265533(11) -0.155369(18)
I2 I 0.43613(2) 0.264344(11) -0.314628(19)
I3 I 0.72512(2) 0.277242(13) -0.003534(19)
I4 I 0.25307(2) 0.254763(11) 0.009782(17)
I5 I 0.42749(2) 0.234582(13) 0.13805(2)
I6 I 0.07423(2) 0.262659(14) -0.11425(2)
N1 N 0.2016(3) -0.01520(14) 0.2404(2)
N2 N 0.7003(3) -0.00575(15) 0.2431(2)
O1 O 0.7450(2) -0.12565(12) 0.20113(18)
O2 O 0.8707(2) -0.07265(11) 0.33886(18)
O3 O 0.6297(2) -0.05131(11) 0.07906(17)
O4 O 0.8728(2) 0.04546(11) 0.35783(18)
O7 O 0.7528(2) 0.11660(12) 0.23989(18)
O9 O 0.6420(2) 0.06570(11) 0.09480(17)
C1 C 0.5983(3) 0.0539(2) -0.1360(3)
H1 H 0.5912 0.0782 -0.1834
C3 C 0.6263(3) 0.04443(16) 0.0141(2)
C4 C 1.1306(3) -0.0499(2) 0.4232(3)
H4 H 1.1875 -0.0720 0.4381
C6 C 0.9604(3) 0.01643(16) 0.3802(2)
C10 C 0.9589(3) -0.04717(17) 0.3703(2)
C12 C 0.6185(3) -0.01924(17) 0.0053(2)
C14 C 0.6013(3) -0.04475(19) -0.0735(3)
H10 H 0.5968 -0.0865 -0.0795
C16 C 0.6551(3) 0.12958(17) 0.1055(3)
H13 H 0.5996 0.1508 0.0741
H14 H 0.7121 0.1424 0.0848
C17 C 0.6665(3) 0.14404(17) 0.1962(3)
H15 H 0.6698 0.1875 0.2043
H16 H 0.6113 0.1289 0.2176
C19 C 0.6167(3) 0.08008(19) -0.0570(3)
H18 H 0.6226 0.1219 -0.0517
C25 C 0.8769(3) 0.11068(16) 0.3606(3)
H26 H 0.9231 0.1253 0.3280
H27 H 0.8974 0.1243 0.4180
C27 C 1.0439(3) -0.07964(18) 0.3922(3)
H28 H 1.0432 -0.1215 0.3862
C28 C 0.6331(3) -0.11598(16) 0.0722(3)
H29 H 0.6844 -0.1275 0.0432
H30 H 0.5724 -0.1308 0.0401
C29 C 0.7714(3) -0.15520(17) 0.2801(3)
H31 H 0.7685 -0.1987 0.2724
H32 H 0.7267 -0.1441 0.3161
C32 C 1.1322(3) 0.01219(19) 0.4321(3)
H35 H 1.1903 0.0319 0.4522
C33 C 0.7781(3) 0.13485(17) 0.3253(3)
H36 H 0.7315 0.1191 0.3566
H37 H 0.7780 0.1786 0.3291
C35 C 0.6510(3) -0.14325(18) 0.1576(3)
H40 H 0.6023 -0.1295 0.1881
H41 H 0.6471 -0.1870 0.1534
C38 C 0.5905(3) -0.0078(2) -0.1443(3)
H45 H 0.5779 -0.0250 -0.1974
C39 C 1.0473(3) 0.04540(18) 0.4110(2)
H46 H 1.0487 0.0872 0.4175
C40 C 0.8721(3) -0.13654(16) 0.3198(3)
H47 H 0.8940 -0.1595 0.3706
H48 H 0.9159 -0.1442 0.2817
O5 O 0.36841(19) -0.07827(11) 0.34508(18)
O6 O 0.1328(2) -0.07091(12) 0.08203(18)
O8 O 0.37421(19) 0.04066(11) 0.35078(17)
O10 O 0.1394(2) 0.04676(11) 0.08629(17)
O11 O 0.2558(2) 0.10669(12) 0.22338(18)
O12 O 0.2447(2) -0.13779(12) 0.21273(18)
C2 C 0.2683(3) -0.16258(17) 0.2949(3)
H2 H 0.2653 -0.2064 0.2921
H3 H 0.2224 -0.1487 0.3281
C5 C 0.4576(3) -0.05249(17) 0.3742(2)
C7 C 0.1528(3) -0.15837(18) 0.1689(3)
H5 H 0.1020 -0.1434 0.1962
H6 H 0.1507 -0.2022 0.1693
C8 C 0.4603(3) 0.01153(16) 0.3777(2)
C9 C 0.5422(3) -0.08513(18) 0.3990(3)
H7 H 0.5409 -0.1271 0.3964
C11 C 0.1234(3) 0.02131(17) 0.0079(2)
C13 C 0.1670(3) 0.13093(17) 0.1798(3)
H8 H 0.1687 0.1747 0.1829
H9 H 0.1142 0.1168 0.2053
C15 C 0.3794(3) 0.10552(16) 0.3457(3)
H11 H 0.4259 0.1171 0.3116
H12 H 0.4000 0.1225 0.4012
C18 C 0.5473(3) 0.04042(17) 0.4061(2)
H17 H 0.5495 0.0824 0.4085
C20 C 0.1033(3) -0.07206(19) -0.0710(3)
H19 H 0.1010 -0.1141 -0.0730
C21 C 0.1511(3) 0.11129(16) 0.0903(3)
H20 H 0.0938 0.1307 0.0588
H21 H 0.2059 0.1230 0.0658
C22 C 0.6290(3) -0.05534(19) 0.4278(3)
H22 H 0.6854 -0.0775 0.4449
C23 C 0.1371(3) -0.13598(17) 0.0809(3)
H23 H 0.1897 -0.1491 0.0544
H24 H 0.0772 -0.1522 0.0491
C24 C 0.1110(3) 0.05376(19) -0.0660(3)
H25 H 0.1141 0.0958 -0.0648
C26 C 0.1200(3) -0.04255(17) 0.0054(2)
C30 C 0.6320(3) 0.00694(18) 0.4311(3)
H33 H 0.6903 0.0267 0.4500
C31 C 0.0899(3) -0.0387(2) -0.1451(3)
H34 H 0.0783 -0.0586 -0.1964
C34 C 0.3683(3) -0.14285(16) 0.3346(3)
H38 H 0.3879 -0.1624 0.3886
H39 H 0.4137 -0.1542 0.2994
C36 C 0.0936(3) 0.0231(2) -0.1427(3)
H42 H 0.0845 0.0450 -0.1925
C37 C 0.2809(3) 0.12880(17) 0.3072(3)
H43 H 0.2339 0.1152 0.3395
H44 H 0.2811 0.1727 0.3071
loop_
_geom_bond_atom_site_label_1
_geom_bond_atom_site_label_2
_geom_bond_site_symmetry_1
_geom_bond_site_symmetry_2
I1 I2 1_555 1_555
I3 I1 1_555 1_555
I4 I5 1_555 1_555
I6 I4 1_555 1_555
O1 C29 1_555 1_555
O2 C10 1_555 1_555
O3 C12 1_555 1_555
O4 C6 1_555 1_555
O5 C5 1_555 1_555
O6 C23 1_555 1_555
O7 C17 1_555 1_555
O8 C8 1_555 1_555
O9 C3 1_555 1_555
O10 C11 1_555 1_555
O11 C13 1_555 1_555
O12 C2 1_555 1_555
C1 H1 1_555 1_555
C2 H2 1_555 1_555
H3 C2 1_555 1_555
C3 C12 1_555 1_555
C4 H4 1_555 1_555
C5 C8 1_555 1_555
C6 C10 1_555 1_555
C7 O12 1_555 1_555
H5 C7 1_555 1_555
H6 C7 1_555 1_555
C8 C18 1_555 1_555
C9 C5 1_555 1_555
H7 C9 1_555 1_555
C10 C27 1_555 1_555
C11 C24 1_555 1_555
C12 C14 1_555 1_555
C13 H8 1_555 1_555
H9 C13 1_555 1_555
C14 H10 1_555 1_555
C15 O8 1_555 1_555
H11 C15 1_555 1_555
H12 C15 1_555 1_555
C16 O9 1_555 1_555
H13 C16 1_555 1_555
H14 C16 1_555 1_555
C17 C16 1_555 1_555
H15 C17 1_555 1_555
H16 C17 1_555 1_555
C18 H17 1_555 1_555
C19 C1 1_555 1_555
H18 C19 1_555 1_555
C20 H19 1_555 1_555
C21 O10 1_555 1_555
H20 C21 1_555 1_555
H21 C21 1_555 1_555
C22 C9 1_555 1_555
H22 C22 1_555 1_555
C23 C7 1_555 1_555
H23 C23 1_555 1_555
H24 C23 1_555 1_555
C24 H25 1_555 1_555
C25 O4 1_555 1_555
H26 C25 1_555 1_555
H27 C25 1_555 1_555
C26 O6 1_555 1_555
C27 C4 1_555 1_555
H28 C27 1_555 1_555
C28 O3 1_555 1_555
H29 C28 1_555 1_555
H30 C28 1_555 1_555
C29 H31 1_555 1_555
H32 C29 1_555 1_555
C30 C18 1_555 1_555
H33 C30 1_555 1_555
C31 C20 1_555 1_555
H34 C31 1_555 1_555
C32 C4 1_555 1_555
H35 C32 1_555 1_555
C33 O7 1_555 1_555
H36 C33 1_555 1_555
H37 C33 1_555 1_555
C34 O5 1_555 1_555
H38 C34 1_555 1_555
H39 C34 1_555 1_555
C35 O1 1_555 1_555
H40 C35 1_555 1_555
H41 C35 1_555 1_555
C36 C24 1_555 1_555
H42 C36 1_555 1_555
C37 O11 1_555 1_555
H43 C37 1_555 1_555
H44 C37 1_555 1_555
C38 C1 1_555 1_555
H45 C38 1_555 1_555
C39 C6 1_555 1_555
H46 C39 1_555 1_555
C40 O2 1_555 1_555
H47 C40 1_555 1_555
H48 C40 1_555 1_555
C2 C34 1_555 1_555
C3 C19 1_555 1_555
C11 C26 1_555 1_555
C13 C21 1_555 1_555
C14 C38 1_555 1_555
C15 C37 1_555 1_555
C20 C26 1_555 1_555
C22 C30 1_555 1_555
C25 C33 1_555 1_555
C28 C35 1_555 1_555
C29 C40 1_555 1_555
C31 C36 1_555 1_555
C32 C39 1_555 1_555

#END
