
#######################################################################
#
#                 Cambridge Crystallographic Data Centre
#                                CCDC 
#
#######################################################################
#
# If this CIF has been generated from an entry in the Cambridge 
# Structural Database, then it will include bibliographic, chemical, 
# crystal, experimental, refinement or atomic coordinate data resulting 
# from the CCDC's data processing and validation procedures.
#
#######################################################################

data_XIGPIP
_chemical_formula_moiety         'C23 H14 O1 S1,C12 H4 N4'
_chemical_name_systematic        
"2,2'-(cyclohexa-2,5-diene-1,4-diylidene)dipropanedinitrile 3-(pyren-1-yl)-1-(thiophen-2-yl)prop-2-en-1-one"
_symmetry_cell_setting           triclinic
_symmetry_space_group_name_H-M   'P -1'
_symmetry_Int_Tables_number      2
_space_group_name_Hall           '-P 1'
loop_
_symmetry_equiv_pos_site_id
_symmetry_equiv_pos_as_xyz
1 x,y,z
2 -x,-y,-z
_cell_length_a                   8.9230(18)
_cell_length_b                   10.476(2)
_cell_length_c                   16.299(3)
_cell_angle_alpha                104.42(3)
_cell_angle_beta                 92.18(3)
_cell_angle_gamma                110.63(3)
_cell_volume                     1367.61
_exptl_crystal_colour            black
_exptl_crystal_description       block
_cell_formula_units_Z            2
loop_
_atom_site_label
_atom_site_type_symbol
_atom_site_fract_x
_atom_site_fract_y
_atom_site_fract_z
S1 S 0.16644(10) 0.17827(9) -0.40169(5)
O1 O 0.1298(3) 0.3124(2) -0.22595(12)
C1 C 0.1676(3) 0.1898(3) 0.00158(15)
C2 C 0.2214(3) 0.0811(3) 0.00593(18)
H1 H 0.2522 0.0339 -0.0427
C3 C 0.2302(3) 0.0421(3) 0.07979(18)
H2 H 0.2666 -0.0308 0.0800
C4 C 0.1860(3) 0.1088(3) 0.15381(17)
C5 C 0.1276(3) 0.2187(2) 0.15215(15)
C6 C 0.1191(3) 0.2596(2) 0.07572(15)
C7 C 0.1954(3) 0.0717(3) 0.2320(2)
H3 H 0.2347 0.0011 0.2339
C8 C 0.1492(4) 0.1355(3) 0.3022(2)
H4 H 0.1558 0.1072 0.3516
C9 C 0.0898(3) 0.2461(3) 0.30395(17)
C10 C 0.0810(3) 0.2879(3) 0.22733(15)
C11 C 0.0406(4) 0.3150(4) 0.37600(19)
H5 H 0.0479 0.2900 0.4265
C12 C -0.0186(4) 0.4191(4) 0.37447(19)
H6 H -0.0551 0.4607 0.4228
C13 C -0.0240(3) 0.4622(3) 0.30132(17)
H7 H -0.0595 0.5358 0.3016
C14 C 0.0229(3) 0.3969(3) 0.22725(15)
C15 C 0.0156(3) 0.4362(3) 0.14971(16)
H8 H -0.0201 0.5092 0.1487
C16 C 0.0588(3) 0.3710(3) 0.07875(16)
H9 H 0.0495 0.3985 0.0294
C17 C 0.1597(3) 0.2265(3) -0.07860(16)
H10 H 0.1264 0.3017 -0.0771
C18 C 0.1935(3) 0.1674(3) -0.15252(16)
H11 H 0.2312 0.0941 -0.1568
C19 C 0.1736(3) 0.2136(3) -0.22888(16)
C20 C 0.2088(3) 0.1383(3) -0.30954(16)
C21 C 0.2747(4) 0.0376(3) -0.32611(17)
H12 H 0.3051 0.0013 -0.2845
C22 C 0.2924(4) -0.0063(3) -0.41289(19)
H13 H 0.3367 -0.0736 -0.4351
C23 C 0.2378(4) 0.0606(4) -0.45943(19)
H14 H 0.2391 0.0438 -0.5181
N1 N 0.2705(4) 0.8514(3) 0.33925(18)
N2 N 0.3894(4) 0.6623(3) 0.52690(17)
N3 N 0.6194(4) 0.3376(3) -0.02489(18)
N4 N 0.6546(4) 0.1152(3) 0.16372(17)
C24 C 0.4274(3) 0.5809(3) 0.30954(16)
C25 C 0.4288(3) 0.5895(3) 0.22281(16)
H15 H 0.3922 0.6536 0.2065
C26 C 0.4823(3) 0.5061(2) 0.16538(15)
H16 H 0.4841 0.5144 0.1099
C27 C 0.5371(3) 0.4034(2) 0.18765(15)
C28 C 0.5330(3) 0.3947(3) 0.27426(16)
H17 H 0.5659 0.3283 0.2903
C29 C 0.4834(3) 0.4790(3) 0.33152(16)
H18 H 0.4847 0.4723 0.3874
C30 C 0.3762(3) 0.6675(3) 0.37020(16)
C31 C 0.3170(4) 0.7696(3) 0.35157(18)
C32 C 0.3831(4) 0.6640(3) 0.45748(19)
C33 C 0.5878(3) 0.3162(3) 0.12793(16)
C34 C 0.6271(3) 0.2051(3) 0.14779(17)
C35 C 0.6036(3) 0.3277(3) 0.04310(19)
loop_
_geom_bond_atom_site_label_1
_geom_bond_atom_site_label_2
_geom_bond_site_symmetry_1
_geom_bond_site_symmetry_2
S1 C20 1_555 1_555
O1 C19 1_555 1_555
C1 C2 1_555 1_555
C2 H1 1_555 1_555
C3 C2 1_555 1_555
H2 C3 1_555 1_555
C4 C3 1_555 1_555
C5 C4 1_555 1_555
C6 C1 1_555 1_555
C7 C4 1_555 1_555
H3 C7 1_555 1_555
C8 C7 1_555 1_555
H4 C8 1_555 1_555
C9 C8 1_555 1_555
C10 C5 1_555 1_555
C11 C9 1_555 1_555
H5 C11 1_555 1_555
C12 C11 1_555 1_555
H6 C12 1_555 1_555
C13 C12 1_555 1_555
H7 C13 1_555 1_555
C14 C10 1_555 1_555
C15 C14 1_555 1_555
H8 C15 1_555 1_555
C16 C6 1_555 1_555
H9 C16 1_555 1_555
C17 C1 1_555 1_555
H10 C17 1_555 1_555
C18 C17 1_555 1_555
H11 C18 1_555 1_555
C19 C18 1_555 1_555
C20 C19 1_555 1_555
C21 C20 1_555 1_555
H12 C21 1_555 1_555
C22 C21 1_555 1_555
H13 C22 1_555 1_555
C23 S1 1_555 1_555
H14 C23 1_555 1_555
N1 C31 1_555 1_555
N2 C32 1_555 1_555
N3 C35 1_555 1_555
N4 C34 1_555 1_555
C24 C25 1_555 1_555
C25 H15 1_555 1_555
C26 C25 1_555 1_555
H16 C26 1_555 1_555
C27 C26 1_555 1_555
C28 C27 1_555 1_555
H17 C28 1_555 1_555
C29 C24 1_555 1_555
H18 C29 1_555 1_555
C30 C24 1_555 1_555
C31 C30 1_555 1_555
C32 C30 1_555 1_555
C33 C27 1_555 1_555
C34 C33 1_555 1_555
C35 C33 1_555 1_555
C5 C6 1_555 1_555
C9 C10 1_555 1_555
C13 C14 1_555 1_555
C15 C16 1_555 1_555
C22 C23 1_555 1_555
C28 C29 1_555 1_555

#END
