
#######################################################################
#
#                 Cambridge Crystallographic Data Centre
#                                CCDC 
#
#######################################################################
#
# If this CIF has been generated from an entry in the Cambridge 
# Structural Database, then it will include bibliographic, chemical, 
# crystal, experimental, refinement or atomic coordinate data resulting 
# from the CCDC's data processing and validation procedures.
#
#######################################################################

data_XIGPOV
_chemical_formula_moiety         '2(C25 H15 N1),C12 H4 N4'
_chemical_name_systematic        
"2,2'-(cyclohexa-2,5-diene-1,4-diylidene)dipropanedinitrile bis(2-phenyl-3-(pyren-1-yl)prop-2-enenitrile)"
_symmetry_cell_setting           triclinic
_symmetry_space_group_name_H-M   'P -1'
_symmetry_Int_Tables_number      2
_space_group_name_Hall           '-P 1'
loop_
_symmetry_equiv_pos_site_id
_symmetry_equiv_pos_as_xyz
1 x,y,z
2 -x,-y,-z
_cell_length_a                   10.183(2)
_cell_length_b                   10.303(2)
_cell_length_c                   12.202(2)
_cell_angle_alpha                70.71(3)
_cell_angle_beta                 73.26(3)
_cell_angle_gamma                67.90(3)
_cell_volume                     1099.73
_exptl_crystal_colour            black
_exptl_crystal_description       block
_cell_formula_units_Z            1
loop_
_atom_site_label
_atom_site_type_symbol
_atom_site_fract_x
_atom_site_fract_y
_atom_site_fract_z
C1 C 0.8637(5) 0.4140(5) 0.9543(4)
N1 N 0.9639(6) 0.2596(5) 0.6046(4)
C2 C 0.7093(6) 0.4638(6) 1.0025(5)
H1 H 0.6442 0.5241 0.9529
C3 C 0.6625(6) 0.4206(5) 1.1206(4)
H2 H 0.5640 0.4498 1.1504
C4 C 0.7544(6) 0.3358(5) 1.1975(4)
C5 C 0.9079(5) 0.2875(5) 1.1566(4)
C6 C 0.9582(5) 0.3344(5) 1.0302(4)
C7 C 0.7153(7) 0.2770(7) 1.3205(5)
H3 H 0.6172 0.2925 1.3507
C8 C 0.8029(7) 0.2031(7) 1.3963(5)
H4 H 0.7653 0.1791 1.4767
C9 C 0.9516(7) 0.1605(6) 1.3567(5)
H5 H 1.0136 0.1050 1.4098
C10 C 1.0065(6) 0.2026(6) 1.2356(5)
C11 C 1.1564(6) 0.1611(5) 1.1865(5)
H6 H 1.2228 0.1029 1.2355
C12 C 1.2032(5) 0.2063(5) 1.0681(5)
H7 H 1.3021 0.1836 1.0394
C13 C 1.1094(5) 0.2852(5) 0.9876(4)
C14 C 1.1613(6) 0.3247(5) 0.8669(4)
H8 H 1.2599 0.2975 0.8369
C15 C 1.0632(6) 0.4052(5) 0.7922(4)
H9 H 1.0993 0.4282 0.7114
C16 C 0.9158(5) 0.4537(5) 0.8293(4)
C17 C 0.8232(6) 0.5362(6) 0.7448(4)
H10 H 0.7570 0.6226 0.7598
C18 C 0.8185(5) 0.5064(5) 0.6470(4)
C19 C 0.9013(6) 0.3693(6) 0.6250(4)
C20 C 0.7273(5) 0.6085(5) 0.5574(4)
C21 C 0.6749(5) 0.5483(5) 0.4979(4)
H11 H 0.6951 0.4487 0.5143
C22 C 0.5892(6) 0.6449(6) 0.4110(5)
H12 H 0.5514 0.6084 0.3710
C23 C 0.5638(6) 0.7873(6) 0.3878(5)
H13 H 0.5081 0.8504 0.3317
C24 C 0.6192(6) 0.8395(5) 0.4463(5)
H14 H 0.5986 0.9393 0.4291
C25 C 0.7023(6) 0.7563(6) 0.5277(5)
H15 H 0.7417 0.7970 0.5628
N2 N 0.6040(6) 0.2521(7) -0.1800(5)
N3 N 0.5125(6) 0.1219(6) 0.1991(5)
C26 C 0.7053(6) 0.1280(5) 0.0047(5)
C27 C 0.8467(5) 0.0666(4) 0.0053(4)
C28 C 0.9077(6) -0.0129(5) 0.1096(4)
H16 H 0.8454 -0.0246 0.1822
C29 C 1.0482(6) -0.0703(4) 0.1073(4)
H17 H 1.0816 -0.1140 0.1782
C30 C 0.6507(6) 0.1982(5) -0.0999(5)
C31 C 0.5997(7) 0.1225(6) 0.1159(5)
N2A N 1.3960(6) -0.2521(7) 0.1800(5)
N3A N 1.4875(6) -0.1219(6) -0.1991(5)
C26A C 1.2947(6) -0.1280(5) -0.0047(5)
C27A C 1.1533(5) -0.0666(4) -0.0053(4)
C28A C 1.0923(6) 0.0129(5) -0.1096(4)
H16A H 1.1546 0.0246 -0.1822
C29A C 0.9518(6) 0.0703(4) -0.1073(4)
H17A H 0.9184 0.1140 -0.1782
C30A C 1.3493(6) -0.1982(5) 0.0999(5)
C31A C 1.4003(7) -0.1225(6) -0.1159(5)
loop_
_geom_bond_atom_site_label_1
_geom_bond_atom_site_label_2
_geom_bond_site_symmetry_1
_geom_bond_site_symmetry_2
C1 C2 1_555 1_555
N1 C19 1_555 1_555
C2 H1 1_555 1_555
C3 C2 1_555 1_555
H2 C3 1_555 1_555
C4 C3 1_555 1_555
C5 C4 1_555 1_555
C6 C1 1_555 1_555
C7 C4 1_555 1_555
H3 C7 1_555 1_555
C8 C7 1_555 1_555
H4 C8 1_555 1_555
C9 C8 1_555 1_555
H5 C9 1_555 1_555
C10 C5 1_555 1_555
C11 C10 1_555 1_555
H6 C11 1_555 1_555
C12 C11 1_555 1_555
H7 C12 1_555 1_555
C13 C6 1_555 1_555
C14 C13 1_555 1_555
H8 C14 1_555 1_555
C15 C14 1_555 1_555
H9 C15 1_555 1_555
C16 C1 1_555 1_555
C17 C16 1_555 1_555
H10 C17 1_555 1_555
C18 C17 1_555 1_555
C19 C18 1_555 1_555
C20 C18 1_555 1_555
C21 C20 1_555 1_555
H11 C21 1_555 1_555
C22 C21 1_555 1_555
H12 C22 1_555 1_555
C23 C22 1_555 1_555
H13 C23 1_555 1_555
C24 C23 1_555 1_555
H14 C24 1_555 1_555
C25 C20 1_555 1_555
H15 C25 1_555 1_555
N2 C30 1_555 1_555
N3 C31 1_555 1_555
C26 C27 1_555 1_555
C27 C28 1_555 1_555
C28 H16 1_555 1_555
C29 C28 1_555 1_555
H17 C29 1_555 1_555
C30 C26 1_555 1_555
C31 C26 1_555 1_555
N2A C30A 1_555 1_555
N3A C31A 1_555 1_555
C26A C27A 1_555 1_555
C27A C29 1_555 1_555
C28A C27A 1_555 1_555
H16A C28A 1_555 1_555
C29A C27 1_555 1_555
H17A C29A 1_555 1_555
C30A C26A 1_555 1_555
C31A C26A 1_555 1_555
C5 C6 1_555 1_555
C9 C10 1_555 1_555
C12 C13 1_555 1_555
C15 C16 1_555 1_555
C24 C25 1_555 1_555
C28A C29A 1_555 1_555

#END
