
#######################################################################
#
#                 Cambridge Crystallographic Data Centre
#                                CCDC 
#
#######################################################################
#
# If this CIF has been generated from an entry in the Cambridge 
# Structural Database, then it will include bibliographic, chemical, 
# crystal, experimental, refinement or atomic coordinate data resulting 
# from the CCDC's data processing and validation procedures.
#
#######################################################################

data_XIGQAI
_chemical_compound_source        'Rhododendron nyingchiense'
_chemical_name_common            '(+)-Nyingchinoid E methanol solvate'
_chemical_formula_moiety         'C17 H22 O3,0.5(C1 H4 O1)'
_chemical_name_systematic        
'2,7-dimethyl-5-(prop-1-en-2-yl)-3,4,5,6-tetrahydro-2H-2,6-methano-1-benzoxocine-9,11-diol methanol solvate'
_symmetry_cell_setting           orthorhombic
_symmetry_space_group_name_H-M   'P 21 21 21'
_symmetry_Int_Tables_number      19
_space_group_name_Hall           'P 2ac 2ab'
loop_
_symmetry_equiv_pos_site_id
_symmetry_equiv_pos_as_xyz
1 x,y,z
2 1/2+x,1/2-y,-z
3 -x,1/2+y,1/2-z
4 1/2-x,-y,1/2+z
_cell_length_a                   10.2720(1)
_cell_length_b                   16.5830(2)
_cell_length_c                   18.9486(2)
_cell_angle_alpha                90
_cell_angle_beta                 90
_cell_angle_gamma                90
_cell_volume                     3227.72
_exptl_crystal_colour            colorless
_exptl_crystal_description       block
_cell_formula_units_Z            8
loop_
_atom_site_label
_atom_site_type_symbol
_atom_site_fract_x
_atom_site_fract_y
_atom_site_fract_z
O1 O 0.53325(13) 0.54039(6) 0.80875(6)
O2 O 0.71749(11) 0.34870(8) 0.80647(9)
H1 H 0.65840(11) 0.3179(7) 0.8174(15)
O3 O 0.39951(14) 0.71831(6) 0.63173(6)
H2 H 0.384(2) 0.7197(6) 0.5893(2)
C1 C 0.57771(18) 0.46290(9) 0.83636(9)
C2 C 0.66364(14) 0.42243(10) 0.78062(9)
H3 H 0.73609(14) 0.45902(10) 0.77028(9)
C3 C 0.58653(14) 0.41110(8) 0.71303(8)
H4 H 0.64214(14) 0.38515(8) 0.67767(8)
C4 C 0.54113(14) 0.51571(8) 0.61611(8)
C5 C 0.49279(15) 0.59130(8) 0.59714(8)
H5 H 0.48741(15) 0.60573(8) 0.54980(8)
C6 C 0.45283(15) 0.64480(8) 0.64894(8)
C7 C 0.46686(15) 0.62643(8) 0.71913(8)
H6 H 0.44317(15) 0.66350(8) 0.75364(8)
C8 C 0.45796(17) 0.41188(10) 0.85153(9)
H7 H 0.48495(17) 0.36183(10) 0.87362(9)
H8 H 0.40248(17) 0.44037(10) 0.88460(9)
C9 C 0.38058(15) 0.39273(10) 0.78569(9)
H9 H 0.31205(15) 0.35483(10) 0.79752(9)
H10 H 0.33976(15) 0.44172(10) 0.76859(9)
C10 C 0.46498(14) 0.35679(8) 0.72679(9)
H11 H 0.49800(14) 0.30522(8) 0.74460(9)
C11 C 0.39139(18) 0.33817(10) 0.66006(10)
C12 C 0.2856(2) 0.38145(14) 0.63901(13)
H12 H 0.2562(2) 0.42441(14) 0.66624(13)
H13 H 0.2427(2) 0.36803(14) 0.59741(13)
C13 C 0.4393(3) 0.27052(12) 0.61821(12)
H14 H 0.5308(5) 0.2771(6) 0.6098(9)
H15 H 0.4245(17) 0.22110(16) 0.6433(5)
H16 H 0.3940(13) 0.2689(7) 0.5739(4)
C14 C 0.6523(2) 0.48395(15) 0.90290(11)
H17 H 0.7277(10) 0.5152(10) 0.89079(14)
H18 H 0.5974(6) 0.5147(9) 0.9338(4)
H19 H 0.6790(15) 0.43528(15) 0.9262(5)
C15 C 0.5860(2) 0.46072(10) 0.55786(9)
H20 H 0.6694(7) 0.4385(7) 0.5698(4)
H21 H 0.5242(8) 0.4178(5) 0.5519(6)
H22 H 0.5930(15) 0.4908(2) 0.5147(2)
C16 C 0.54870(13) 0.49406(8) 0.68708(8)
C17 C 0.51696(14) 0.55164(8) 0.73788(8)
O4 O 0.53161(12) 0.47433(7) 0.20941(6)
O5 O 0.40458(13) 0.27480(9) 0.16365(7)
H23 H 0.3384(15) 0.2502(8) 0.1748(12)
O6 O 0.44451(15) 0.65704(7) 0.39463(7)
H24 H 0.490(2) 0.6857(5) 0.3694(8)
C18 C 0.40988(14) 0.42508(9) 0.31105(8)
C19 C 0.47570(14) 0.48555(9) 0.27442(8)
C20 C 0.53092(17) 0.39482(10) 0.17632(8)
C21 C 0.40729(16) 0.35122(11) 0.19925(9)
H25 H 0.33119(16) 0.38302(11) 0.18517(9)
C22 C 0.40792(15) 0.34136(10) 0.27938(9)
H26 H 0.32810(15) 0.31366(10) 0.29405(9)
C23 C 0.35008(15) 0.44634(10) 0.37546(9)
C24 C 0.36447(16) 0.52379(10) 0.40190(9)
H27 H 0.32663(16) 0.53715(10) 0.44493(9)
C25 C 0.43441(16) 0.58159(9) 0.36514(9)
C26 C 0.48856(15) 0.56326(9) 0.30066(9)
H28 H 0.53309(15) 0.60236(9) 0.27507(9)
C27 C 0.65197(15) 0.34956(10) 0.19930(10)
H29 H 0.65738(15) 0.29936(10) 0.17319(10)
H30 H 0.72810(15) 0.38147(10) 0.18758(10)
C28 C 0.65360(16) 0.33107(10) 0.27774(10)
H31 H 0.72736(16) 0.29662(10) 0.28835(10)
H32 H 0.66416(16) 0.38089(10) 0.30395(10)
C29 C 0.52844(16) 0.28938(9) 0.30126(9)
H33 H 0.52278(16) 0.23957(9) 0.27359(9)
C30 C 0.5248(2) 0.26403(10) 0.37720(10)
C31 C 0.5947(2) 0.29905(13) 0.42733(12)
H34 H 0.6497(2) 0.34176(13) 0.41619(12)
H35 H 0.5888(2) 0.28093(13) 0.47367(12)
C32 C 0.4386(3) 0.19339(13) 0.39362(14)
H36 H 0.3517(6) 0.2046(6) 0.3778(10)
H37 H 0.4710(13) 0.1463(3) 0.3699(10)
H38 H 0.4381(17) 0.1841(8) 0.44363(19)
C33 C 0.5304(2) 0.41320(14) 0.09772(10)
H39 H 0.4522(9) 0.4418(9) 0.08577(19)
H40 H 0.6046(10) 0.4458(9) 0.08616(19)
H41 H 0.5339(17) 0.36365(15) 0.07160(10)
C34 C 0.2661(2) 0.38803(12) 0.41554(11)
H42 H 0.1937(9) 0.3722(8) 0.3867(3)
H43 H 0.3163(5) 0.3413(5) 0.4278(8)
H44 H 0.2345(13) 0.4134(4) 0.4577(5)
O7 O 0.3240(2) 0.73462(13) 0.50154(8)
H45 H 0.3539(15) 0.709(2) 0.4682(8)
C35 C 0.1992(3) 0.7621(2) 0.48459(14)
H46 H 0.2029(4) 0.7936(12) 0.4421(7)
H47 H 0.1425(6) 0.7168(2) 0.4775(12)
H48 H 0.1665(9) 0.7947(11) 0.5225(6)
loop_
_geom_bond_atom_site_label_1
_geom_bond_atom_site_label_2
_geom_bond_site_symmetry_1
_geom_bond_site_symmetry_2
O1 C1 1_555 1_555
O2 H1 1_555 1_555
O3 H2 1_555 1_555
C1 C2 1_555 1_555
C2 O2 1_555 1_555
H3 C2 1_555 1_555
C3 C2 1_555 1_555
H4 C3 1_555 1_555
C4 C5 1_555 1_555
C5 H5 1_555 1_555
C6 O3 1_555 1_555
C7 C6 1_555 1_555
H6 C7 1_555 1_555
C8 C1 1_555 1_555
H7 C8 1_555 1_555
H8 C8 1_555 1_555
C9 C8 1_555 1_555
H9 C9 1_555 1_555
H10 C9 1_555 1_555
C10 C3 1_555 1_555
H11 C10 1_555 1_555
C11 C10 1_555 1_555
C12 C11 1_555 1_555
H12 C12 1_555 1_555
H13 C12 1_555 1_555
C13 C11 1_555 1_555
H14 C13 1_555 1_555
H15 C13 1_555 1_555
H16 C13 1_555 1_555
C14 C1 1_555 1_555
H17 C14 1_555 1_555
H18 C14 1_555 1_555
H19 C14 1_555 1_555
C15 C4 1_555 1_555
H20 C15 1_555 1_555
H21 C15 1_555 1_555
H22 C15 1_555 1_555
C16 C3 1_555 1_555
C17 O1 1_555 1_555
O4 C19 1_555 1_555
O5 H23 1_555 1_555
O6 H24 1_555 1_555
C18 C19 1_555 1_555
C19 C26 1_555 1_555
C20 O4 1_555 1_555
C21 O5 1_555 1_555
H25 C21 1_555 1_555
C22 C18 1_555 1_555
H26 C22 1_555 1_555
C23 C18 1_555 1_555
C24 C23 1_555 1_555
H27 C24 1_555 1_555
C25 O6 1_555 1_555
C26 C25 1_555 1_555
H28 C26 1_555 1_555
C27 C20 1_555 1_555
H29 C27 1_555 1_555
H30 C27 1_555 1_555
C28 C27 1_555 1_555
H31 C28 1_555 1_555
H32 C28 1_555 1_555
C29 C22 1_555 1_555
H33 C29 1_555 1_555
C30 C29 1_555 1_555
C31 C30 1_555 1_555
H34 C31 1_555 1_555
H35 C31 1_555 1_555
C32 C30 1_555 1_555
H36 C32 1_555 1_555
H37 C32 1_555 1_555
H38 C32 1_555 1_555
C33 C20 1_555 1_555
H39 C33 1_555 1_555
H40 C33 1_555 1_555
H41 C33 1_555 1_555
C34 C23 1_555 1_555
H42 C34 1_555 1_555
H43 C34 1_555 1_555
H44 C34 1_555 1_555
O7 H45 1_555 1_555
C35 O7 1_555 1_555
H46 C35 1_555 1_555
H47 C35 1_555 1_555
H48 C35 1_555 1_555
C4 C16 1_555 1_555
C5 C6 1_555 1_555
C7 C17 1_555 1_555
C9 C10 1_555 1_555
C16 C17 1_555 1_555
C20 C21 1_555 1_555
C21 C22 1_555 1_555
C24 C25 1_555 1_555
C28 C29 1_555 1_555

#END
