
#######################################################################
#
#                 Cambridge Crystallographic Data Centre
#                                CCDC 
#
#######################################################################
#
# If this CIF has been generated from an entry in the Cambridge 
# Structural Database, then it will include bibliographic, chemical, 
# crystal, experimental, refinement or atomic coordinate data resulting 
# from the CCDC's data processing and validation procedures.
#
#######################################################################

data_XIGRUC
_chemical_formula_moiety         'C15 H15 Br1 O2'
_chemical_name_systematic        
2-(6-Bromo-2-naphthyl)-4,4-dimethyl-1,3-dioxolane
_symmetry_cell_setting           orthorhombic
_symmetry_space_group_name_H-M   'P 21 21 21'
_symmetry_Int_Tables_number      19
_space_group_name_Hall           'P 2ac 2ab'
loop_
_symmetry_equiv_pos_site_id
_symmetry_equiv_pos_as_xyz
1 x,y,z
2 1/2-x,-y,1/2+z
3 1/2+x,1/2-y,-z
4 -x,1/2+y,1/2-z
_cell_length_a                   5.8173(4)
_cell_length_b                   9.3911(6)
_cell_length_c                   23.7120(16)
_cell_angle_alpha                90
_cell_angle_beta                 90
_cell_angle_gamma                90
_cell_volume                     1295.41
_exptl_crystal_colour            colorless
_exptl_crystal_description       plate
_cell_formula_units_Z            4
loop_
_atom_site_label
_atom_site_type_symbol
_atom_site_fract_x
_atom_site_fract_y
_atom_site_fract_z
Br1 Br 1.23145(3) 0.26193(2) 0.590580(7)
C1 C 0.8060(3) 0.83870(19) 0.34216(7)
H1 H 0.6796 0.8919 0.3615
C2 C 0.8509(4) 0.9881(2) 0.26967(8)
H2 H 0.9634 1.0181 0.2407
H3 H 0.7517 1.0703 0.2793
C3 C 0.7050(3) 0.86133(18) 0.24835(8)
C4 C 0.4568(3) 0.9042(2) 0.23837(9)
H4 H 0.3694 0.8215 0.2251
H5 H 0.4508 0.9797 0.2099
H6 H 0.3898 0.9390 0.2737
C5 C 0.8077(3) 0.7870(2) 0.19765(8)
H7 H 0.9707 0.7677 0.2046
H8 H 0.7923 0.8481 0.1644
H9 H 0.7265 0.6971 0.1911
C6 C 0.9192(3) 0.7381(2) 0.38284(7)
C7 C 1.1372(3) 0.6786(2) 0.37024(8)
H10 H 1.2150 0.7053 0.3367
C8 C 1.2355(3) 0.58299(18) 0.40617(7)
H11 H 1.3825 0.5448 0.3975
C9 C 1.1215(3) 0.5394(2) 0.45643(8)
C10 C 1.2179(3) 0.43704(19) 0.49345(7)
H12 H 1.3627 0.3951 0.4853
C11 C 1.1002(3) 0.3994(2) 0.54098(8)
C12 C 0.8860(3) 0.4590(2) 0.55510(8)
H13 H 0.8081 0.4307 0.5885
C13 C 0.7918(3) 0.5586(2) 0.51976(7)
H14 H 0.6480 0.6002 0.5291
C14 C 0.9049(3) 0.60058(19) 0.46953(8)
C15 C 0.8088(3) 0.70132(18) 0.43177(7)
H15 H 0.6653 0.7441 0.4406
O1 O 0.9659(2) 0.93543(14) 0.31881(6)
O2 O 0.7166(2) 0.76144(13) 0.29549(5)
loop_
_geom_bond_atom_site_label_1
_geom_bond_atom_site_label_2
_geom_bond_site_symmetry_1
_geom_bond_site_symmetry_2
Br1 C11 1_555 1_555
C1 H1 1_555 1_555
C2 H2 1_555 1_555
H3 C2 1_555 1_555
C3 C2 1_555 1_555
C4 C3 1_555 1_555
H4 C4 1_555 1_555
H5 C4 1_555 1_555
H6 C4 1_555 1_555
C5 C3 1_555 1_555
H7 C5 1_555 1_555
H8 C5 1_555 1_555
H9 C5 1_555 1_555
C6 C1 1_555 1_555
C7 C6 1_555 1_555
H10 C7 1_555 1_555
C8 C7 1_555 1_555
H11 C8 1_555 1_555
C9 C8 1_555 1_555
C10 C9 1_555 1_555
H12 C10 1_555 1_555
C11 C10 1_555 1_555
C12 C11 1_555 1_555
H13 C12 1_555 1_555
C13 C12 1_555 1_555
H14 C13 1_555 1_555
C14 C9 1_555 1_555
C15 C6 1_555 1_555
H15 C15 1_555 1_555
O1 C1 1_555 1_555
O2 C1 1_555 1_555
C2 O1 1_555 1_555
C3 O2 1_555 1_555
C13 C14 1_555 1_555
C14 C15 1_555 1_555

#END
