
#######################################################################
#
#                 Cambridge Crystallographic Data Centre
#                                CCDC 
#
#######################################################################
#
# If this CIF has been generated from an entry in the Cambridge 
# Structural Database, then it will include bibliographic, chemical, 
# crystal, experimental, refinement or atomic coordinate data resulting 
# from the CCDC's data processing and validation procedures.
#
#######################################################################

data_XIGROX
_chemical_compound_source        'Syringa pinnatifolia'
_chemical_name_common            (+)-2,9-humuladien-6-ol-8-one
_chemical_formula_moiety         'C15 H24 O2'
_chemical_name_systematic        
10-hydroxy-4,4,7,11-tetramethylcycloundeca-2,6-dien-1-one
_symmetry_cell_setting           orthorhombic
_symmetry_space_group_name_H-M   'P 21 21 21'
_symmetry_Int_Tables_number      19
_space_group_name_Hall           'P 2ac 2ab'
loop_
_symmetry_equiv_pos_site_id
_symmetry_equiv_pos_as_xyz
1 x,y,z
2 1/2-x,-y,1/2+z
3 1/2+x,1/2-y,-z
4 -x,1/2+y,1/2-z
_cell_length_a                   6.0342(4)
_cell_length_b                   12.8921(8)
_cell_length_c                   17.5406(10)
_cell_angle_alpha                90
_cell_angle_beta                 90
_cell_angle_gamma                90
_cell_volume                     1364.54
_exptl_crystal_colour            colorless
_exptl_crystal_description       block
_chemical_melting_point          '432.4-432.8 K'
_cell_formula_units_Z            4
_exptl_crystal_recrystallization_method 
'Re-crystallisation from solvent: CH2Cl2-MeOH, 50:1'
loop_
_atom_site_label
_atom_site_type_symbol
_atom_site_fract_x
_atom_site_fract_y
_atom_site_fract_z
O1 O 0.2050(3) 0.36141(12) 0.49237(8)
O2 O 0.8939(2) 0.51219(11) 0.43838(8)
H1 H 0.9854 0.4660 0.4450
C1 C 0.4013(4) 0.36130(14) 0.50998(11)
C2 C 0.4487(4) 0.61455(15) 0.61733(11)
C3 C 0.5479(3) 0.56493(15) 0.67491(11)
H2 H 0.7020 0.5656 0.6757
C4 C 0.7005(3) 0.49093(16) 0.48286(10)
H3 H 0.7464 0.4802 0.5359
C5 C 0.4772(4) 0.34157(15) 0.58892(11)
H4 H 0.6138 0.3101 0.5971
C6 C 0.5021(4) 0.39914(17) 0.37264(12)
H5 H 0.4375 0.3344 0.3572
H6 H 0.6242 0.4155 0.3397
H7 H 0.3928 0.4530 0.3695
C7 C 0.4325(3) 0.38699(15) 0.72831(11)
C8 C 0.3524(3) 0.36836(14) 0.64814(11)
H8 H 0.2014 0.3764 0.6393
C9 C 0.4331(3) 0.50826(16) 0.73838(10)
H9 H 0.2811 0.5324 0.7416
H10 H 0.5055 0.5253 0.7861
C10 C 0.6654(4) 0.34415(18) 0.74242(12)
H11 H 0.6656 0.2706 0.7340
H12 H 0.7086 0.3584 0.7940
H13 H 0.7680 0.3766 0.7081
C11 C 0.5534(4) 0.58784(15) 0.47953(11)
H14 H 0.3998 0.5666 0.4749
H15 H 0.5911 0.6276 0.4344
C12 C 0.5785(4) 0.65779(14) 0.55051(11)
H16 H 0.7339 0.6628 0.5642
H17 H 0.5256 0.7270 0.5387
C13 C 0.5846(4) 0.39037(15) 0.45441(11)
H18 H 0.6950 0.3346 0.4557
C14 C 0.2722(4) 0.34031(18) 0.78685(12)
H19 H 0.1265 0.3681 0.7789
H20 H 0.3215 0.3572 0.8374
H21 H 0.2683 0.2663 0.7809
C15 C 0.2003(4) 0.62744(17) 0.61067(12)
H22 H 0.1457 0.5843 0.5702
H23 H 0.1661 0.6986 0.5998
H24 H 0.1314 0.6076 0.6578
loop_
_geom_bond_atom_site_label_1
_geom_bond_atom_site_label_2
_geom_bond_site_symmetry_1
_geom_bond_site_symmetry_2
O1 C1 1_555 1_555
O2 H1 1_555 1_555
C1 C5 1_555 1_555
C2 C3 1_555 1_555
C3 H2 1_555 1_555
C4 O2 1_555 1_555
H3 C4 1_555 1_555
C5 H4 1_555 1_555
C6 H5 1_555 1_555
H6 C6 1_555 1_555
H7 C6 1_555 1_555
C7 C8 1_555 1_555
C8 C5 1_555 1_555
H8 C8 1_555 1_555
C9 C3 1_555 1_555
H9 C9 1_555 1_555
H10 C9 1_555 1_555
C10 C7 1_555 1_555
H11 C10 1_555 1_555
H12 C10 1_555 1_555
H13 C10 1_555 1_555
C11 C4 1_555 1_555
H14 C11 1_555 1_555
H15 C11 1_555 1_555
C12 C2 1_555 1_555
H16 C12 1_555 1_555
H17 C12 1_555 1_555
C13 C1 1_555 1_555
H18 C13 1_555 1_555
C14 C7 1_555 1_555
H19 C14 1_555 1_555
H20 C14 1_555 1_555
H21 C14 1_555 1_555
C15 C2 1_555 1_555
H22 C15 1_555 1_555
H23 C15 1_555 1_555
H24 C15 1_555 1_555
C4 C13 1_555 1_555
C6 C13 1_555 1_555
C7 C9 1_555 1_555
C11 C12 1_555 1_555

#END
