
#######################################################################
#
#                 Cambridge Crystallographic Data Centre
#                                CCDC 
#
#######################################################################
#
# If this CIF has been generated from an entry in the Cambridge 
# Structural Database, then it will include bibliographic, chemical, 
# crystal, experimental, refinement or atomic coordinate data resulting 
# from the CCDC's data processing and validation procedures.
#
#######################################################################

data_XIGREN
_chemical_compound_source        'Syringa pinnatifolia'
_chemical_name_common            'alashanoid B'
_chemical_formula_moiety         'C15 H26 O1'
_chemical_name_systematic        4,4,7,11-tetramethylcycloundeca-2,6-dien-1-ol
_symmetry_cell_setting           monoclinic
_symmetry_space_group_name_H-M   'P 21'
_symmetry_Int_Tables_number      4
_space_group_name_Hall           'P 2yb'
loop_
_symmetry_equiv_pos_site_id
_symmetry_equiv_pos_as_xyz
1 x,y,z
2 -x,1/2+y,-z
_cell_length_a                   6.0061(3)
_cell_length_b                   25.4056(9)
_cell_length_c                   13.9957(7)
_cell_angle_alpha                90
_cell_angle_beta                 92.894(4)
_cell_angle_gamma                90
_cell_volume                     2132.86
_exptl_crystal_colour            colorless
_exptl_crystal_description       block
_chemical_melting_point          '377.25-377.65 K'
_cell_formula_units_Z            6
_exptl_crystal_recrystallization_method 
'Re-crystallisation from solvent: CH2Cl2-MeOH, 50:1'
loop_
_atom_site_label
_atom_site_type_symbol
_atom_site_fract_x
_atom_site_fract_y
_atom_site_fract_z
O1 O 0.9866(2) 0.27757(5) 0.28657(9)
H1 H 0.9113 0.2758 0.3338
C1 C 0.9180(3) 0.32229(6) 0.22998(12)
H2 H 0.7547 0.3234 0.2259
C2 C 1.0026(3) 0.37261(7) 0.27566(12)
H3 H 1.1297 0.3711 0.3163
C3 C 1.0890(3) 0.49599(7) 0.19241(14)
H4 H 0.9626 0.5031 0.1484
H5 H 1.1621 0.5293 0.2072
C4 C 1.0021(3) 0.47214(7) 0.28669(12)
C5 C 0.9063(3) 0.41868(7) 0.26112(12)
H6 H 0.7637 0.4183 0.2319
C6 C 0.9090(3) 0.26564(7) 0.08087(14)
H7 H 0.9770 0.2357 0.1122
H8 H 0.9426 0.2655 0.0145
H9 H 0.7504 0.2641 0.0862
C7 C 1.1914(3) 0.46902(8) 0.36389(13)
H10 H 1.3081 0.4469 0.3420
H11 H 1.1357 0.4545 0.4213
H12 H 1.2491 0.5037 0.3768
C8 C 1.2493(3) 0.46059(7) 0.14401(13)
H13 H 1.3840 0.4542 0.1778
C9 C 1.2231(3) 0.43727(7) 0.05905(13)
C10 C 1.0253(3) 0.44573(8) -0.01019(14)
H14 H 0.9156 0.4667 0.0198
H15 H 0.9617 0.4123 -0.0283
H16 H 1.0729 0.4636 -0.0661
C11 C 0.8169(3) 0.50791(7) 0.32249(15)
H17 H 0.8766 0.5423 0.3362
H18 H 0.7602 0.4932 0.3796
H19 H 0.6984 0.5105 0.2741
C12 C 1.3961(3) 0.39912(8) 0.02551(13)
H20 H 1.5297 0.4026 0.0669
H21 H 1.4344 0.4092 -0.0385
C13 C 1.0000(3) 0.31622(7) 0.12813(12)
H22 H 0.9364 0.3456 0.0906
C14 C 1.3250(3) 0.34064(8) 0.02376(13)
H23 H 1.4482 0.3195 0.0031
H24 H 1.2017 0.3362 -0.0230
C15 C 1.2538(3) 0.31977(7) 0.12180(12)
H25 H 1.3180 0.2851 0.1328
H26 H 1.3134 0.3429 0.1720
O2 O 1.3431(2) 0.21930(5) 0.33068(10)
H27 H 1.2489 0.2410 0.3127
C16 C 1.3161(3) 0.11998(7) 0.14177(13)
H28 H 1.1762 0.1060 0.1521
C17 C 1.2801(3) 0.16831(7) 0.29471(13)
H29 H 1.1178 0.1675 0.2834
C18 C 1.3867(3) 0.15721(7) 0.20154(13)
H30 H 1.5079 0.1776 0.1855
C19 C 1.6198(3) 0.01972(7) 0.26489(14)
C20 C 1.5995(3) 0.12060(7) 0.38949(13)
H31 H 1.6493 0.1471 0.4356
H32 H 1.6738 0.1272 0.3307
C21 C 1.4233(4) -0.01573(8) 0.28137(17)
H33 H 1.3393 -0.0016 0.3320
H34 H 1.4759 -0.0503 0.2988
H35 H 1.3298 -0.0178 0.2238
C22 C 1.4344(3) 0.09730(8) 0.05880(13)
C23 C 1.6607(3) 0.04187(7) 0.18112(14)
H36 H 1.7949 0.0600 0.1791
C24 C 1.3467(3) 0.12608(7) 0.36980(13)
H37 H 1.2929 0.0923 0.3441
C25 C 1.5190(3) 0.04140(8) 0.08964(14)
H38 H 1.3915 0.0187 0.0975
H39 H 1.6049 0.0267 0.0391
C26 C 1.6693(3) 0.06582(7) 0.42808(14)
H40 H 1.5395 0.0485 0.4521
H41 H 1.7771 0.0703 0.4814
C27 C 1.2285(3) 0.13549(9) 0.46278(15)
H42 H 1.2746 0.1687 0.4897
H43 H 1.2667 0.1079 0.5074
H44 H 1.0701 0.1358 0.4495
C28 C 1.7715(3) 0.03001(7) 0.35255(15)
H45 H 1.9078 0.0461 0.3324
H46 H 1.8110 -0.0034 0.3822
C29 C 1.6313(3) 0.13157(9) 0.03080(14)
H47 H 1.5775 0.1656 0.0106
H48 H 1.7049 0.1151 -0.0206
H49 H 1.7347 0.1355 0.0849
C30 C 1.2691(4) 0.09117(9) -0.02779(14)
H50 H 1.1436 0.0707 -0.0098
H51 H 1.3413 0.0737 -0.0786
H52 H 1.2191 0.1253 -0.0491
O3 O 0.6702(2) 0.27611(5) 0.41409(8)
H53 H 0.5777 0.2577 0.3849
C31 C 0.5503(4) 0.14458(8) 0.75987(14)
H54 H 0.6170 0.1217 0.8078
H55 H 0.4889 0.1239 0.7075
H56 H 0.4339 0.1647 0.7869
C32 C 0.6133(3) 0.28056(7) 0.51165(12)
H57 H 0.4505 0.2799 0.5137
C33 C 0.7522(3) 0.33635(8) 0.82036(13)
H58 H 0.7791 0.3405 0.8881
H59 H 0.6220 0.3150 0.8081
H60 H 0.7293 0.3703 0.7913
C34 C 0.7282(3) 0.18197(7) 0.72362(13)
C35 C 0.8226(3) 0.21613(7) 0.80910(12)
H61 H 0.6996 0.2327 0.8399
H62 H 0.8993 0.1934 0.8557
C36 C 0.7059(3) 0.23532(7) 0.57066(12)
H63 H 0.8298 0.2177 0.5494
C37 C 0.6217(3) 0.21922(7) 0.65042(12)
H64 H 0.4815 0.2321 0.6633
C38 C 0.9149(3) 0.14924(7) 0.68307(14)
H65 H 0.9815 0.1274 0.7326
H66 H 1.0258 0.1723 0.6591
H67 H 0.8545 0.1275 0.6320
C39 C 1.0371(3) 0.37506(7) 0.64332(13)
H68 H 1.1582 0.3963 0.6209
H69 H 0.9171 0.3987 0.6583
C40 C 1.1191(3) 0.34627(8) 0.73591(14)
H70 H 1.2504 0.3259 0.7223
H71 H 1.1640 0.3725 0.7835
C41 C 0.9514(3) 0.30992(7) 0.77860(12)
C42 C 0.6976(3) 0.33338(7) 0.55311(12)
H72 H 0.6449 0.3359 0.6181
C43 C 0.9534(3) 0.33782(7) 0.56170(12)
H73 H 1.0063 0.3507 0.5016
H74 H 1.0165 0.3031 0.5730
C44 C 0.5947(3) 0.37946(8) 0.49647(14)
H75 H 0.6419 0.3783 0.4320
H76 H 0.6425 0.4120 0.5258
H77 H 0.4352 0.3771 0.4960
C45 C 0.9815(3) 0.25815(7) 0.77866(12)
H78 H 1.1169 0.2464 0.7573
loop_
_geom_bond_atom_site_label_1
_geom_bond_atom_site_label_2
_geom_bond_site_symmetry_1
_geom_bond_site_symmetry_2
O1 H1 1_555 1_555
C1 O1 1_555 1_555
H2 C1 1_555 1_555
C2 C1 1_555 1_555
H3 C2 1_555 1_555
C3 H4 1_555 1_555
H5 C3 1_555 1_555
C4 C3 1_555 1_555
C5 C2 1_555 1_555
H6 C5 1_555 1_555
C6 H7 1_555 1_555
H8 C6 1_555 1_555
H9 C6 1_555 1_555
C7 C4 1_555 1_555
H10 C7 1_555 1_555
H11 C7 1_555 1_555
H12 C7 1_555 1_555
C8 C3 1_555 1_555
H13 C8 1_555 1_555
C9 C8 1_555 1_555
C10 C9 1_555 1_555
H14 C10 1_555 1_555
H15 C10 1_555 1_555
H16 C10 1_555 1_555
C11 C4 1_555 1_555
H17 C11 1_555 1_555
H18 C11 1_555 1_555
H19 C11 1_555 1_555
C12 C9 1_555 1_555
H20 C12 1_555 1_555
H21 C12 1_555 1_555
C13 C1 1_555 1_555
H22 C13 1_555 1_555
C14 C12 1_555 1_555
H23 C14 1_555 1_555
H24 C14 1_555 1_555
C15 C13 1_555 1_555
H25 C15 1_555 1_555
H26 C15 1_555 1_555
O2 H27 1_555 1_555
C16 H28 1_555 1_555
C17 O2 1_555 1_555
H29 C17 1_555 1_555
C18 C16 1_555 1_555
H30 C18 1_555 1_555
C19 C21 1_555 1_555
C20 H31 1_555 1_555
H32 C20 1_555 1_555
C21 H33 1_555 1_555
H34 C21 1_555 1_555
H35 C21 1_555 1_555
C22 C16 1_555 1_555
C23 C19 1_555 1_555
H36 C23 1_555 1_555
C24 C17 1_555 1_555
H37 C24 1_555 1_555
C25 C22 1_555 1_555
H38 C25 1_555 1_555
H39 C25 1_555 1_555
C26 C20 1_555 1_555
H40 C26 1_555 1_555
H41 C26 1_555 1_555
C27 C24 1_555 1_555
H42 C27 1_555 1_555
H43 C27 1_555 1_555
H44 C27 1_555 1_555
C28 C19 1_555 1_555
H45 C28 1_555 1_555
H46 C28 1_555 1_555
C29 C22 1_555 1_555
H47 C29 1_555 1_555
H48 C29 1_555 1_555
H49 C29 1_555 1_555
C30 C22 1_555 1_555
H50 C30 1_555 1_555
H51 C30 1_555 1_555
H52 C30 1_555 1_555
O3 H53 1_555 1_555
C31 H54 1_555 1_555
H55 C31 1_555 1_555
H56 C31 1_555 1_555
C32 O3 1_555 1_555
H57 C32 1_555 1_555
C33 H58 1_555 1_555
H59 C33 1_555 1_555
H60 C33 1_555 1_555
C34 C31 1_555 1_555
C35 C34 1_555 1_555
H61 C35 1_555 1_555
H62 C35 1_555 1_555
C36 C32 1_555 1_555
H63 C36 1_555 1_555
C37 C34 1_555 1_555
H64 C37 1_555 1_555
C38 C34 1_555 1_555
H65 C38 1_555 1_555
H66 C38 1_555 1_555
H67 C38 1_555 1_555
C39 H68 1_555 1_555
H69 C39 1_555 1_555
C40 C39 1_555 1_555
H70 C40 1_555 1_555
H71 C40 1_555 1_555
C41 C33 1_555 1_555
C42 C32 1_555 1_555
H72 C42 1_555 1_555
C43 C39 1_555 1_555
H73 C43 1_555 1_555
H74 C43 1_555 1_555
C44 C42 1_555 1_555
H75 C44 1_555 1_555
H76 C44 1_555 1_555
H77 C44 1_555 1_555
C45 C35 1_555 1_555
H78 C45 1_555 1_555
C4 C5 1_555 1_555
C6 C13 1_555 1_555
C14 C15 1_555 1_555
C17 C18 1_555 1_555
C20 C24 1_555 1_555
C23 C25 1_555 1_555
C26 C28 1_555 1_555
C36 C37 1_555 1_555
C40 C41 1_555 1_555
C41 C45 1_555 1_555
C42 C43 1_555 1_555

#END
