
#######################################################################
#
#                 Cambridge Crystallographic Data Centre
#                                CCDC 
#
#######################################################################
#
# If this CIF has been generated from an entry in the Cambridge 
# Structural Database, then it will include bibliographic, chemical, 
# crystal, experimental, refinement or atomic coordinate data resulting 
# from the CCDC's data processing and validation procedures.
#
#######################################################################

data_XIGSAJ
_chemical_formula_moiety         'C20 H17 Cl1 O2'
_chemical_name_systematic        
6-Chloro-2-(2-(2-naphthyl)ethyl)-4H-1,3-benzodioxine
_symmetry_cell_setting           monoclinic
_symmetry_space_group_name_H-M   'C 2'
_symmetry_Int_Tables_number      5
_space_group_name_Hall           'C 2y'
loop_
_symmetry_equiv_pos_site_id
_symmetry_equiv_pos_as_xyz
1 x,y,z
2 -x,y,-z
3 1/2+x,1/2+y,z
4 1/2-x,1/2+y,-z
_cell_length_a                   21.464(2)
_cell_length_b                   6.2342(6)
_cell_length_c                   14.4025(14)
_cell_angle_alpha                90
_cell_angle_beta                 126.357(4)
_cell_angle_gamma                90
_cell_volume                     1552.06
_exptl_crystal_colour            colorless
_exptl_crystal_description       needle
_cell_formula_units_Z            4
loop_
_atom_site_label
_atom_site_type_symbol
_atom_site_fract_x
_atom_site_fract_y
_atom_site_fract_z
C1 C 0.53066(10) 0.1122(3) 0.69020(15)
H1 H 0.5335 0.1379 0.7612
C2 C 0.60722(10) -0.1869(3) 0.78650(16)
H2 H 0.6186 -0.3344 0.7751
H3 H 0.5972 -0.1922 0.8453
C3 C 0.67590(9) -0.0439(3) 0.82821(14)
C4 C 0.75134(10) -0.1117(3) 0.91149(14)
H4 H 0.7607 -0.2480 0.9471
C5 C 0.81255(10) 0.0199(3) 0.94221(14)
C6 C 0.80067(10) 0.2205(3) 0.89130(15)
H5 H 0.8434 0.3081 0.9122
C7 C 0.72548(10) 0.2899(3) 0.80967(14)
H6 H 0.7164 0.4268 0.7748
C8 C 0.66325(9) 0.1586(3) 0.77879(14)
C9 C 0.45257(10) 0.1799(3) 0.58548(15)
H7 H 0.4121 0.0973 0.5828
H8 H 0.4490 0.1436 0.5156
C10 C 0.43649(9) 0.4186(4) 0.58345(14)
H9 H 0.4463 0.4583 0.6576
H10 H 0.4731 0.5007 0.5768
C11 C 0.35464(10) 0.4835(3) 0.48576(15)
C12 C 0.29164(10) 0.3551(3) 0.44705(14)
H11 H 0.2992 0.2195 0.4824
C13 C 0.21559(9) 0.4195(3) 0.35586(13)
C14 C 0.15130(10) 0.2818(3) 0.31094(15)
H12 H 0.1586 0.1445 0.3446
C15 C 0.07837(10) 0.3440(3) 0.21911(16)
H13 H 0.0359 0.2488 0.1891
C16 C 0.06667(11) 0.5488(3) 0.16958(16)
H14 H 0.0163 0.5908 0.1061
C17 C 0.12740(10) 0.6873(3) 0.21227(15)
H15 H 0.1185 0.8259 0.1792
C18 C 0.20355(10) 0.6261(3) 0.30557(15)
C19 C 0.26924(10) 0.7581(3) 0.34817(15)
H16 H 0.2625 0.8974 0.3167
C20 C 0.34200(10) 0.6880(3) 0.43367(15)
H17 H 0.3851 0.7778 0.4589
Cl1 Cl 0.90717(2) -0.07110(8) 1.04303(3)
O1 O 0.59010(6) 0.23403(19) 0.69649(10)
O2 O 0.54023(6) -0.1074(2) 0.68038(10)
loop_
_geom_bond_atom_site_label_1
_geom_bond_atom_site_label_2
_geom_bond_site_symmetry_1
_geom_bond_site_symmetry_2
C1 H1 1_555 1_555
C2 H2 1_555 1_555
H3 C2 1_555 1_555
C3 C2 1_555 1_555
C4 C3 1_555 1_555
H4 C4 1_555 1_555
C5 C4 1_555 1_555
C6 C5 1_555 1_555
H5 C6 1_555 1_555
C7 C6 1_555 1_555
H6 C7 1_555 1_555
C8 C3 1_555 1_555
C9 C1 1_555 1_555
H7 C9 1_555 1_555
H8 C9 1_555 1_555
C10 C9 1_555 1_555
H9 C10 1_555 1_555
H10 C10 1_555 1_555
C11 C10 1_555 1_555
C12 C11 1_555 1_555
H11 C12 1_555 1_555
C13 C12 1_555 1_555
C14 C13 1_555 1_555
H12 C14 1_555 1_555
C15 C14 1_555 1_555
H13 C15 1_555 1_555
C16 C15 1_555 1_555
H14 C16 1_555 1_555
C17 C16 1_555 1_555
H15 C17 1_555 1_555
C18 C13 1_555 1_555
C19 C18 1_555 1_555
H16 C19 1_555 1_555
C20 C11 1_555 1_555
H17 C20 1_555 1_555
Cl1 C5 1_555 1_555
O1 C1 1_555 1_555
O2 C1 1_555 1_555
C2 O2 1_555 1_555
C7 C8 1_555 1_555
C8 O1 1_555 1_555
C17 C18 1_555 1_555
C19 C20 1_555 1_555

#END
