
#######################################################################
#
#                 Cambridge Crystallographic Data Centre
#                                CCDC 
#
#######################################################################
#
# If this CIF has been generated from an entry in the Cambridge 
# Structural Database, then it will include bibliographic, chemical, 
# crystal, experimental, refinement or atomic coordinate data resulting 
# from the CCDC's data processing and validation procedures.
#
#######################################################################

data_XIGTOZ
_chemical_compound_source        
'marine sponge-derived fungus Setosphaeria sp. SCSIO41009'
_chemical_name_common            'Setosphalide A'
_chemical_formula_moiety         'C16 H20 O7'
_chemical_name_systematic        
(1R,3'S,5'S)-3',4-dihydroxy-5,6-dimethoxy-5'-propyl-3H-spiro[2-benzofuran-1,2'-oxolan]-3-one
_symmetry_cell_setting           orthorhombic
_symmetry_space_group_name_H-M   'P 21 21 21'
_symmetry_Int_Tables_number      19
_space_group_name_Hall           'P 2ac 2ab'
loop_
_symmetry_equiv_pos_site_id
_symmetry_equiv_pos_as_xyz
1 x,y,z
2 1/2-x,-y,1/2+z
3 -x,1/2+y,1/2-z
4 1/2+x,1/2-y,-z
_cell_length_a                   7.73476(8)
_cell_length_b                   8.02415(8)
_cell_length_c                   25.5244(3)
_cell_angle_alpha                90
_cell_angle_beta                 90
_cell_angle_gamma                90
_cell_volume                     1584.17
_exptl_crystal_colour            colorless
_exptl_crystal_description       plate
_chemical_melting_point          '151.6-152.4 deg.C'
_cell_formula_units_Z            4
_exptl_crystal_recrystallization_method methanol
loop_
_atom_site_label
_atom_site_type_symbol
_atom_site_fract_x
_atom_site_fract_y
_atom_site_fract_z
O1 O 0.71588(17) 0.88486(17) 0.34795(5)
O2 O 0.41478(19) 1.05462(16) 0.39095(5)
H1 H 0.3310 1.0396 0.4100
O3 O 0.53398(18) 0.66184(16) 0.32855(5)
O4 O 0.5190(2) 0.38304(16) 0.33688(5)
O5 O 0.6383(2) 0.75668(19) 0.55826(5)
O6 O 0.63211(18) 0.42857(19) 0.54676(5)
O7 O 0.5691(2) 0.28606(17) 0.45222(5)
H2 H 0.5453 0.2578 0.4222
C1 C 1.0755(3) 0.9734(3) 0.21576(9)
H3 H 1.0351 0.8791 0.1961
H4 H 1.1971 0.9618 0.2223
H5 H 1.0550 1.0736 0.1962
C2 C 0.9788(3) 0.9824(3) 0.26780(8)
H6 H 1.0094 0.8866 0.2891
H7 H 1.0141 1.0819 0.2865
C3 C 0.7838(3) 0.9857(3) 0.25980(7)
H8 H 0.7565 1.0729 0.2348
H9 H 0.7487 0.8805 0.2445
C4 C 0.6780(2) 1.0148(2) 0.30900(7)
H10 H 0.7074 1.1240 0.3237
C5 C 0.4833(2) 1.0053(2) 0.30038(7)
H11 H 0.4345 1.1151 0.2945
H12 H 0.4554 0.9342 0.2708
C6 C 0.4178(2) 0.9307(2) 0.35137(7)
H13 H 0.3057 0.8754 0.3472
C7 C 0.5639(2) 0.8071(2) 0.36290(7)
C8 C 0.5383(2) 0.5181(2) 0.35667(7)
C9 C 0.5674(2) 0.5599(2) 0.41161(7)
C10 C 0.5793(2) 0.7309(2) 0.41671(7)
C11 C 0.6037(2) 0.8070(2) 0.46460(7)
H14 H 0.6110 0.9223 0.4677
C12 C 0.6169(2) 0.7023(3) 0.50818(7)
C13 C 0.6124(3) 0.9311(3) 0.56761(8)
H15 H 0.4995 0.9629 0.5556
H16 H 0.6985 0.9939 0.5491
H17 H 0.6217 0.9532 0.6045
C14 C 0.6085(2) 0.5279(3) 0.50324(7)
C15 C 0.4738(3) 0.3824(3) 0.57256(9)
H18 H 0.3999 0.3253 0.5482
H19 H 0.4165 0.4808 0.5851
H20 H 0.4992 0.3102 0.6016
C16 C 0.5811(2) 0.4530(2) 0.45461(7)
loop_
_geom_bond_atom_site_label_1
_geom_bond_atom_site_label_2
_geom_bond_site_symmetry_1
_geom_bond_site_symmetry_2
O1 C4 1_555 1_555
O2 H1 1_555 1_555
O3 C7 1_555 1_555
O4 C8 1_555 1_555
O5 C12 1_555 1_555
O6 C14 1_555 1_555
O7 H2 1_555 1_555
C1 H3 1_555 1_555
H4 C1 1_555 1_555
H5 C1 1_555 1_555
C2 C1 1_555 1_555
H6 C2 1_555 1_555
H7 C2 1_555 1_555
C3 C2 1_555 1_555
H8 C3 1_555 1_555
H9 C3 1_555 1_555
C4 C3 1_555 1_555
H10 C4 1_555 1_555
C5 C4 1_555 1_555
H11 C5 1_555 1_555
H12 C5 1_555 1_555
C6 O2 1_555 1_555
H13 C6 1_555 1_555
C7 O1 1_555 1_555
C8 O3 1_555 1_555
C9 C8 1_555 1_555
C10 C7 1_555 1_555
C11 C10 1_555 1_555
H14 C11 1_555 1_555
C12 C11 1_555 1_555
C13 O5 1_555 1_555
H15 C13 1_555 1_555
H16 C13 1_555 1_555
H17 C13 1_555 1_555
C14 C12 1_555 1_555
C15 O6 1_555 1_555
H18 C15 1_555 1_555
H19 C15 1_555 1_555
H20 C15 1_555 1_555
C16 O7 1_555 1_555
C5 C6 1_555 1_555
C6 C7 1_555 1_555
C9 C10 1_555 1_555
C9 C16 1_555 1_555
C14 C16 1_555 1_555

#END
