
#######################################################################
#
#                 Cambridge Crystallographic Data Centre
#                                CCDC 
#
#######################################################################
#
# If this CIF has been generated from an entry in the Cambridge 
# Structural Database, then it will include bibliographic, chemical, 
# crystal, experimental, refinement or atomic coordinate data resulting 
# from the CCDC's data processing and validation procedures.
#
#######################################################################

data_XIGWUI
_chemical_compound_source        'Streptomyces koyangensis SCSIO 5802'
_chemical_name_common            'neoabyssomicin A2'
_chemical_formula_moiety         'C19 H24 O7'
_chemical_name_systematic        
(1S,2S,3S,4aS,6aR,10S,12aR,12bS)-1-hydroxy-2,3,10-trimethyloctahydro-2,4a-(epoxymethano)benzo[b]cycloocta[d]pyran-6,7,11,13(2H,6aH,8H)-tetrone
_symmetry_cell_setting           orthorhombic
_symmetry_space_group_name_H-M   'P 21 21 21'
_symmetry_Int_Tables_number      19
_space_group_name_Hall           'P 2ac 2ab'
loop_
_symmetry_equiv_pos_site_id
_symmetry_equiv_pos_as_xyz
1 x,y,z
2 1/2-x,-y,1/2+z
3 -x,1/2+y,1/2-z
4 1/2+x,1/2-y,-z
_cell_length_a                   6.64140(10)
_cell_length_b                   14.90680(10)
_cell_length_c                   17.8924(2)
_cell_angle_alpha                90
_cell_angle_beta                 90
_cell_angle_gamma                90
_cell_volume                     1771.38
_exptl_crystal_colour            colorless
_exptl_crystal_description       square
_chemical_melting_point          '248-249 deg.C'
_cell_formula_units_Z            4
loop_
_atom_site_label
_atom_site_type_symbol
_atom_site_fract_x
_atom_site_fract_y
_atom_site_fract_z
C1 C 0.3544(3) 0.50502(12) 0.20603(10)
C2 C 0.2740(3) 0.41332(11) 0.18565(10)
H1 H 0.1375 0.4093 0.2062
C3 C 0.2546(3) 0.40675(12) 0.10046(10)
C4 C 0.0461(3) 0.39149(14) 0.06922(11)
H2 H 0.0575 0.3801 0.0160
H3 H -0.0314 0.4462 0.0754
C5 C -0.0709(3) 0.31394(13) 0.10497(11)
H4 H -0.2043 0.3119 0.0830
H5 H -0.0869 0.3265 0.1578
C6 C 0.0270(3) 0.22129(13) 0.09637(11)
H6 H 0.0349 0.2071 0.0430
C7 C 0.2382(3) 0.21879(11) 0.12850(10)
C8 C 0.2714(3) 0.24589(12) 0.20961(10)
H7 H 0.3421 0.1980 0.2353
H8 H 0.1418 0.2536 0.2337
C9 C 0.3934(3) 0.33345(11) 0.21735(10)
H9 H 0.5194 0.3273 0.1893
C10 C 0.4429(3) 0.35172(11) 0.29913(10)
H10 H 0.3168 0.3511 0.3276
C11 C 0.5849(3) 0.28017(11) 0.33256(10)
H11 H 0.6403 0.2440 0.2917
C12 C 0.7599(3) 0.32555(12) 0.37437(10)
C13 C 0.6811(3) 0.39168(13) 0.43347(10)
H12 H 0.5908 0.3587 0.4669
C14 C 0.5552(3) 0.46506(12) 0.39328(10)
H13 H 0.4208 0.4673 0.4144
H14 H 0.6177 0.5233 0.4003
C15 C 0.5430(3) 0.44334(11) 0.30994(10)
C16 C 0.7578(3) 0.43912(11) 0.28092(10)
C17 C -0.1030(3) 0.14967(13) 0.13453(12)
H15 H -0.0441 0.0916 0.1267
H16 H -0.2361 0.1508 0.1137
H17 H -0.1101 0.1618 0.1872
C18 C 0.9082(3) 0.25697(13) 0.40376(11)
H18 H 0.9401 0.2149 0.3649
H19 H 0.8496 0.2257 0.4453
H20 H 1.0289 0.2868 0.4197
C19 C 0.8478(3) 0.43304(14) 0.48106(12)
H21 H 0.9129 0.3868 0.5096
H22 H 0.7906 0.4766 0.5144
H23 H 0.9446 0.4617 0.4491
O1 O 0.4434(2) 0.51649(8) 0.27314(7)
O2 O 0.3227(2) 0.57030(9) 0.16817(8)
O3 O 0.4037(2) 0.41286(10) 0.06207(8)
O4 O 0.3807(2) 0.19449(9) 0.09110(8)
O5 O 0.4736(2) 0.22353(8) 0.38067(8)
H24 H 0.5125 0.1717 0.3758
O6 O 0.87023(19) 0.37708(8) 0.31654(7)
O7 O 0.8273(2) 0.48458(9) 0.23187(8)
loop_
_geom_bond_atom_site_label_1
_geom_bond_atom_site_label_2
_geom_bond_site_symmetry_1
_geom_bond_site_symmetry_2
C1 C2 1_555 1_555
C2 H1 1_555 1_555
C3 C2 1_555 1_555
C4 C3 1_555 1_555
H2 C4 1_555 1_555
H3 C4 1_555 1_555
C5 C4 1_555 1_555
H4 C5 1_555 1_555
H5 C5 1_555 1_555
C6 C5 1_555 1_555
H6 C6 1_555 1_555
C7 C6 1_555 1_555
C8 C7 1_555 1_555
H7 C8 1_555 1_555
H8 C8 1_555 1_555
C9 C2 1_555 1_555
H9 C9 1_555 1_555
C10 C9 1_555 1_555
H10 C10 1_555 1_555
C11 C10 1_555 1_555
H11 C11 1_555 1_555
C12 C11 1_555 1_555
C13 C12 1_555 1_555
H12 C13 1_555 1_555
C14 C13 1_555 1_555
H13 C14 1_555 1_555
H14 C14 1_555 1_555
C15 C10 1_555 1_555
C16 C15 1_555 1_555
C17 C6 1_555 1_555
H15 C17 1_555 1_555
H16 C17 1_555 1_555
H17 C17 1_555 1_555
C18 C12 1_555 1_555
H18 C18 1_555 1_555
H19 C18 1_555 1_555
H20 C18 1_555 1_555
C19 C13 1_555 1_555
H21 C19 1_555 1_555
H22 C19 1_555 1_555
H23 C19 1_555 1_555
O1 C1 1_555 1_555
O2 C1 1_555 1_555
O3 C3 1_555 1_555
O4 C7 1_555 1_555
O5 C11 1_555 1_555
H24 O5 1_555 1_555
O6 C12 1_555 1_555
O7 C16 1_555 1_555
C8 C9 1_555 1_555
C14 C15 1_555 1_555
C15 O1 1_555 1_555
C16 O6 1_555 1_555

#END
