
#######################################################################
#
#                 Cambridge Crystallographic Data Centre
#                                CCDC 
#
#######################################################################
#
# If this CIF has been generated from an entry in the Cambridge 
# Structural Database, then it will include bibliographic, chemical, 
# crystal, experimental, refinement or atomic coordinate data resulting 
# from the CCDC's data processing and validation procedures.
#
#######################################################################

data_XIGXAP
_chemical_compound_source        'Streptomyces koyangensis SCSIO 5802'
_chemical_name_common            'neobyssomicin D hemihydrate'
_chemical_formula_moiety         'C19 H22 O6,0.5(H2 O1)'
_chemical_name_systematic        
'(1S,4S,6S,11R,13S,14S,18S)-9,18-dihydroxy-6,13,14-trimethyl-12,16-dioxapentacyclo[8.5.2.1^4,13^.0^1,11^.0^4,11^]octadeca-2,9-diene-5,17-dione hemihydrate'
_chemical_properties_biological  'mild antiviral activity'
_symmetry_cell_setting           orthorhombic
_symmetry_space_group_name_H-M   'P 21 21 21'
_symmetry_Int_Tables_number      19
_space_group_name_Hall           'P 2ac 2ab'
loop_
_symmetry_equiv_pos_site_id
_symmetry_equiv_pos_as_xyz
1 x,y,z
2 1/2-x,-y,1/2+z
3 -x,1/2+y,1/2-z
4 1/2+x,1/2-y,-z
_cell_length_a                   8.32583(11)
_cell_length_b                   13.41861(19)
_cell_length_c                   29.8480(4)
_cell_angle_alpha                90
_cell_angle_beta                 90
_cell_angle_gamma                90
_cell_volume                     3334.65
_exptl_crystal_colour            colorless
_exptl_crystal_description       square
_cell_formula_units_Z            8
_exptl_crystal_recrystallization_method methanol
loop_
_atom_site_label
_atom_site_type_symbol
_atom_site_fract_x
_atom_site_fract_y
_atom_site_fract_z
C1 C -0.0848(3) 0.43082(18) 0.49498(8)
C2 C -0.0055(3) 0.52142(18) 0.47993(7)
C3 C -0.0475(3) 0.61013(18) 0.49847(7)
C4 C 0.0353(3) 0.70799(18) 0.49288(8)
H1 H 0.1504 0.6969 0.4939
H2 H 0.0074 0.7503 0.5181
C5 C -0.0050(3) 0.76381(18) 0.44931(8)
H3 H -0.1189 0.7569 0.4432
H4 H 0.0176 0.8342 0.4533
C6 C 0.0908(3) 0.72491(17) 0.40886(8)
H5 H 0.2027 0.7149 0.4180
C7 C 0.0226(3) 0.62589(18) 0.39292(7)
C8 C 0.1165(3) 0.53006(17) 0.39711(8)
C9 C 0.0350(3) 0.44477(18) 0.37339(8)
H6 H -0.0049 0.4491 0.3443
C10 C 0.0259(3) 0.36357(18) 0.39802(8)
H7 H -0.0206 0.3043 0.3884
C11 C 0.2996(3) 0.53755(17) 0.38530(8)
H8 H 0.3302 0.6080 0.3836
C12 C 0.3859(3) 0.48873(18) 0.42601(7)
C13 C 0.3891(3) 0.37137(18) 0.42205(8)
H9 H 0.3649 0.3543 0.3909
C14 C 0.2572(3) 0.32526(18) 0.45139(8)
H10 H 0.2462 0.2550 0.4444
H11 H 0.2865 0.3313 0.4827
C15 C 0.0992(3) 0.37770(17) 0.44322(8)
C16 C 0.1237(3) 0.49371(17) 0.44738(7)
C17 C 0.0866(4) 0.79894(19) 0.36988(9)
H12 H 0.1438 0.7716 0.3448
H13 H 0.1364 0.8603 0.3789
H14 H -0.0228 0.8114 0.3615
C18 C 0.5474(3) 0.53615(19) 0.43436(9)
H15 H 0.5346 0.6070 0.4372
H16 H 0.6178 0.5218 0.4097
H17 H 0.5925 0.5099 0.4615
C19 C 0.5500(3) 0.3229(2) 0.43390(9)
H18 H 0.5763 0.3375 0.4645
H19 H 0.6324 0.3488 0.4146
H20 H 0.5422 0.2521 0.4300
O1 O -0.0176(2) 0.34890(12) 0.47776(6)
O2 O -0.1968(2) 0.42539(14) 0.52192(6)
O3 O -0.1733(2) 0.61639(14) 0.52644(6)
H21 H -0.2086 0.5604 0.5313
O4 O -0.1140(2) 0.62325(13) 0.37767(6)
O5 O 0.3405(2) 0.49029(13) 0.34472(5)
H22 H 0.3572 0.5326 0.3254
O6 O 0.28088(19) 0.51801(12) 0.46269(5)
C20 C -0.1118(3) 0.61671(18) 0.15396(8)
C21 C 0.0558(3) 0.59317(17) 0.14378(8)
C22 C 0.0933(3) 0.55386(18) 0.10292(8)
C23 C 0.2539(3) 0.5286(2) 0.08344(8)
H23 H 0.2678 0.5689 0.0568
H24 H 0.2495 0.4597 0.0737
C24 C 0.4056(3) 0.54062(19) 0.11186(8)
H25 H 0.4001 0.6044 0.1271
H26 H 0.4975 0.5427 0.0919
C25 C 0.4354(3) 0.45914(18) 0.14717(8)
H27 H 0.5367 0.4768 0.1619
C26 C 0.3094(3) 0.45686(17) 0.18396(8)
C27 C 0.2625(3) 0.55026(17) 0.20981(7)
C28 C 0.1555(3) 0.52294(17) 0.24886(8)
H28 H 0.1762 0.4699 0.2681
C29 C 0.0296(3) 0.58216(18) 0.25285(8)
H29 H -0.0480 0.5759 0.2751
C30 C 0.4042(3) 0.61771(17) 0.22470(7)
H30 H 0.4999 0.5996 0.2074
C31 C 0.3521(3) 0.72584(18) 0.21154(7)
C32 C 0.2403(3) 0.77540(17) 0.24726(8)
H31 H 0.2540 0.7387 0.2754
C33 C 0.0632(3) 0.76524(19) 0.23317(9)
H32 H -0.0054 0.7814 0.2584
H33 H 0.0402 0.8121 0.2093
C34 C 0.0270(3) 0.66035(18) 0.21735(8)
C35 C 0.1568(3) 0.62667(17) 0.18250(7)
C36 C 0.4614(4) 0.3558(2) 0.12692(9)
H34 H 0.4985 0.3110 0.1497
H35 H 0.5400 0.3598 0.1035
H36 H 0.3619 0.3316 0.1148
C37 C 0.4975(3) 0.78718(19) 0.19785(8)
H37 H 0.5544 0.7534 0.1744
H38 H 0.5672 0.7956 0.2232
H39 H 0.4628 0.8513 0.1873
C38 C 0.2762(4) 0.88518(19) 0.25685(9)
H40 H 0.2626 0.9233 0.2299
H41 H 0.3848 0.8918 0.2673
H42 H 0.2038 0.9093 0.2794
O7 O -0.1282(2) 0.65954(13) 0.19425(6)
O8 O -0.2297(2) 0.60230(14) 0.13002(6)
O9 O -0.0218(2) 0.53523(14) 0.07268(6)
H43 H -0.1074 0.5580 0.0816
O10 O 0.2444(2) 0.37881(12) 0.19428(6)
O11 O 0.4365(2) 0.60322(13) 0.27068(5)
H44 H 0.5257 0.6255 0.2766
O12 O 0.25967(19) 0.70762(12) 0.17109(5)
O13 O 0.7088(2) 0.67427(14) 0.30268(6)
H45 H 0.7106 0.7375 0.3044
H46 H 0.7453 0.6495 0.3268
loop_
_geom_bond_atom_site_label_1
_geom_bond_atom_site_label_2
_geom_bond_site_symmetry_1
_geom_bond_site_symmetry_2
C1 C2 1_555 1_555
C2 C3 1_555 1_555
C3 C4 1_555 1_555
C4 H1 1_555 1_555
H2 C4 1_555 1_555
C5 C4 1_555 1_555
H3 C5 1_555 1_555
H4 C5 1_555 1_555
C6 C5 1_555 1_555
H5 C6 1_555 1_555
C7 C6 1_555 1_555
C8 C7 1_555 1_555
C9 C8 1_555 1_555
H6 C9 1_555 1_555
C10 C9 1_555 1_555
H7 C10 1_555 1_555
C11 C8 1_555 1_555
H8 C11 1_555 1_555
C12 C11 1_555 1_555
C13 C12 1_555 1_555
H9 C13 1_555 1_555
C14 C13 1_555 1_555
H10 C14 1_555 1_555
H11 C14 1_555 1_555
C15 C10 1_555 1_555
C16 C2 1_555 1_555
C17 C6 1_555 1_555
H12 C17 1_555 1_555
H13 C17 1_555 1_555
H14 C17 1_555 1_555
C18 C12 1_555 1_555
H15 C18 1_555 1_555
H16 C18 1_555 1_555
H17 C18 1_555 1_555
C19 C13 1_555 1_555
H18 C19 1_555 1_555
H19 C19 1_555 1_555
H20 C19 1_555 1_555
O1 C1 1_555 1_555
O2 C1 1_555 1_555
O3 C3 1_555 1_555
H21 O3 1_555 1_555
O4 C7 1_555 1_555
O5 C11 1_555 1_555
H22 O5 1_555 1_555
O6 C12 1_555 1_555
C20 C21 1_555 1_555
C21 C22 1_555 1_555
C22 C23 1_555 1_555
C23 H23 1_555 1_555
H24 C23 1_555 1_555
C24 C23 1_555 1_555
H25 C24 1_555 1_555
H26 C24 1_555 1_555
C25 C24 1_555 1_555
H27 C25 1_555 1_555
C26 C25 1_555 1_555
C27 C26 1_555 1_555
C28 C27 1_555 1_555
H28 C28 1_555 1_555
C29 C28 1_555 1_555
H29 C29 1_555 1_555
C30 C27 1_555 1_555
H30 C30 1_555 1_555
C31 C30 1_555 1_555
C32 C31 1_555 1_555
H31 C32 1_555 1_555
C33 C32 1_555 1_555
H32 C33 1_555 1_555
H33 C33 1_555 1_555
C34 C29 1_555 1_555
C35 C21 1_555 1_555
C36 C25 1_555 1_555
H34 C36 1_555 1_555
H35 C36 1_555 1_555
H36 C36 1_555 1_555
C37 C31 1_555 1_555
H37 C37 1_555 1_555
H38 C37 1_555 1_555
H39 C37 1_555 1_555
C38 C32 1_555 1_555
H40 C38 1_555 1_555
H41 C38 1_555 1_555
H42 C38 1_555 1_555
O7 C20 1_555 1_555
O8 C20 1_555 1_555
O9 C22 1_555 1_555
H43 O9 1_555 1_555
O10 C26 1_555 1_555
O11 C30 1_555 1_555
H44 O11 1_555 1_555
O12 C31 1_555 1_555
O13 H45 1_555 1_555
H46 O13 1_555 1_555
C8 C16 1_555 1_555
C14 C15 1_555 1_555
C15 C16 1_555 1_555
C15 O1 1_555 1_555
C16 O6 1_555 1_555
C27 C35 1_555 1_555
C33 C34 1_555 1_555
C34 C35 1_555 1_555
C34 O7 1_555 1_555
C35 O12 1_555 1_555

#END
