
#######################################################################
#
#                 Cambridge Crystallographic Data Centre
#                                CCDC 
#
#######################################################################
#
# If this CIF has been generated from an entry in the Cambridge 
# Structural Database, then it will include bibliographic, chemical, 
# crystal, experimental, refinement or atomic coordinate data resulting 
# from the CCDC's data processing and validation procedures.
#
#######################################################################

data_XIGZAR
_chemical_formula_moiety         'C26 H24 Cl1 N1 O1'
_chemical_name_systematic        
(S,E)-2-(2-(2-((E)-4-chlorophenyl)ethenyl)naphthalen-1-yl)-N-methoxy-3-methylcyclohex-2-en-1-imine
_symmetry_cell_setting           monoclinic
_symmetry_space_group_name_H-M   'P 21'
_symmetry_Int_Tables_number      4
_space_group_name_Hall           'P 2yb'
loop_
_symmetry_equiv_pos_site_id
_symmetry_equiv_pos_as_xyz
1 x,y,z
2 -x,1/2+y,-z
_cell_length_a                   10.441(3)
_cell_length_b                   8.545(2)
_cell_length_c                   13.063(3)
_cell_angle_alpha                90
_cell_angle_beta                 112.470(5)
_cell_angle_gamma                90
_cell_volume                     1076.98
_cell_formula_units_Z            2
loop_
_atom_site_label
_atom_site_type_symbol
_atom_site_fract_x
_atom_site_fract_y
_atom_site_fract_z
Cl1 Cl 0.05331(8) 0.32739(15) -0.04320(5)
O1 O 0.2408(2) -0.1397(2) 0.61845(17)
N1 N 0.2924(2) 0.0128(2) 0.65255(16)
C1 C 0.38545(18) 0.3114(2) 0.72577(14)
C2 C 0.43425(19) 0.3573(2) 0.64553(16)
C3 C 0.5729(2) 0.4158(3) 0.67982(19)
H1 H 0.6063 0.4473 0.6265
C4 C 0.6563(2) 0.4266(3) 0.7885(2)
H2 H 0.7454 0.4666 0.8083
C5 C 0.6112(2) 0.3785(3) 0.87212(17)
C6 C 0.6976(2) 0.3886(3) 0.9871(2)
H3 H 0.7866 0.4296 1.0087
C7 C 0.6512(3) 0.3395(4) 1.06523(18)
H4 H 0.7090 0.3467 1.1397
C8 C 0.5173(3) 0.2781(4) 1.03495(19)
H5 H 0.4876 0.2437 1.0897
C9 C 0.4303(3) 0.2679(3) 0.92546(18)
H6 H 0.3415 0.2275 0.9066
C10 C 0.4739(2) 0.3186(2) 0.84113(15)
C11 C 0.3460(2) 0.3439(2) 0.52697(15)
H7 H 0.2680 0.2805 0.5084
C12 C 0.3672(2) 0.4140(3) 0.44422(17)
H8 H 0.4414 0.4833 0.4633
C13 C 0.2854(2) 0.3926(2) 0.32558(16)
C14 C 0.1745(2) 0.2897(3) 0.28394(17)
H9 H 0.1481 0.2318 0.3329
C15 C 0.1020(2) 0.2720(3) 0.17071(19)
H10 H 0.0278 0.2029 0.1439
C16 C 0.1419(2) 0.3572(4) 0.09904(17)
C17 C 0.2494(3) 0.4606(4) 0.1357(2)
H11 H 0.2743 0.5182 0.0857
C18 C 0.3213(3) 0.4781(3) 0.2490(2)
H12 H 0.3952 0.5478 0.2747
C19 C 0.2357(2) 0.2643(2) 0.69380(15)
C20 C 0.1965(2) 0.1015(3) 0.65769(17)
C21 C 0.0471(3) 0.0542(5) 0.6279(4)
H13 H 0.0072 0.0303 0.5494
H14 H 0.0463 -0.0417 0.6674
C22 C -0.0357(4) 0.1588(5) 0.6546(9)
H15 H -0.0484 0.1202 0.7199
H16 H -0.1251 0.1501 0.5939
C23 C -0.0092(2) 0.3233(4) 0.66759(19)
H17 H -0.0396 0.3579 0.7254
H18 H -0.0637 0.3789 0.6003
C24 C 0.1410(2) 0.3666(3) 0.70012(15)
C25 C 0.1766(3) 0.5304(3) 0.7422(2)
H19 H 0.1597 0.5431 0.8090
H20 H 0.1201 0.6027 0.6872
H21 H 0.2726 0.5505 0.7573
C26 C 0.3495(4) -0.2320(4) 0.6106(3)
H22 H 0.3761 -0.1915 0.5531
H23 H 0.3184 -0.3381 0.5937
H24 H 0.4276 -0.2290 0.6800
loop_
_geom_bond_atom_site_label_1
_geom_bond_atom_site_label_2
_geom_bond_site_symmetry_1
_geom_bond_site_symmetry_2
Cl1 C16 1_555 1_555
O1 N1 1_555 1_555
N1 C20 1_555 1_555
C1 C2 1_555 1_555
C2 C3 1_555 1_555
C3 H1 1_555 1_555
C4 C3 1_555 1_555
H2 C4 1_555 1_555
C5 C4 1_555 1_555
C6 C5 1_555 1_555
H3 C6 1_555 1_555
C7 C6 1_555 1_555
H4 C7 1_555 1_555
C8 C7 1_555 1_555
H5 C8 1_555 1_555
C9 C8 1_555 1_555
H6 C9 1_555 1_555
C10 C1 1_555 1_555
C11 C2 1_555 1_555
H7 C11 1_555 1_555
C12 C11 1_555 1_555
H8 C12 1_555 1_555
C13 C12 1_555 1_555
C14 C13 1_555 1_555
H9 C14 1_555 1_555
C15 C14 1_555 1_555
H10 C15 1_555 1_555
C16 C15 1_555 1_555
C17 C16 1_555 1_555
H11 C17 1_555 1_555
C18 C13 1_555 1_555
H12 C18 1_555 1_555
C19 C1 1_555 1_555
C20 C19 1_555 1_555
C21 C20 1_555 1_555
H13 C21 1_555 1_555
H14 C21 1_555 1_555
C22 C21 1_555 1_555
H15 C22 1_555 1_555
H16 C22 1_555 1_555
C23 C22 1_555 1_555
H17 C23 1_555 1_555
H18 C23 1_555 1_555
C24 C19 1_555 1_555
C25 C24 1_555 1_555
H19 C25 1_555 1_555
H20 C25 1_555 1_555
H21 C25 1_555 1_555
C26 O1 1_555 1_555
H22 C26 1_555 1_555
H23 C26 1_555 1_555
H24 C26 1_555 1_555
C5 C10 1_555 1_555
C9 C10 1_555 1_555
C17 C18 1_555 1_555
C23 C24 1_555 1_555

#END
