
#######################################################################
#
#                 Cambridge Crystallographic Data Centre
#                                CCDC 
#
#######################################################################
#
# If this CIF has been generated from an entry in the Cambridge 
# Structural Database, then it will include bibliographic, chemical, 
# crystal, experimental, refinement or atomic coordinate data resulting 
# from the CCDC's data processing and validation procedures.
#
#######################################################################

data_XIGZEV
_chemical_compound_source        
'marine-derived Streptomyces koyangensis SCSIO 5802'
_chemical_name_common            'neoabyssomicin F dihydrate'
_chemical_formula_moiety         'C38 H46 O12 S1,2(H2 O1)'
_chemical_name_systematic        
"5,5'-sulfanediylbis(4,10-dihydroxy-2,3,7-trimethyl-2,3,4,4a,5,5a,8,9-octahydro-3,12b-epoxy-12-oxabenzo[g]cycloocta[cd]pentalene-6,11(1H,7H)-dione) dihydrate"
_chemical_properties_biological  'antibacterial activity'
_symmetry_cell_setting           hexagonal
_symmetry_space_group_name_H-M   'P 62'
_symmetry_Int_Tables_number      171
_space_group_name_Hall           'P 62'
loop_
_symmetry_equiv_pos_site_id
_symmetry_equiv_pos_as_xyz
1 x,y,z
2 -y,x-y,2/3+z
3 -x+y,-x,1/3+z
4 -x,-y,z
5 y,-x+y,2/3+z
6 x-y,x,1/3+z
_cell_length_a                   13.4030(8)
_cell_length_b                   13.4030(8)
_cell_length_c                   17.8604(10)
_cell_angle_alpha                90
_cell_angle_beta                 90
_cell_angle_gamma                120
_cell_volume                     2778.6
_exptl_crystal_colour            colorless
_exptl_crystal_description       diamond
_chemical_melting_point          '210-211 deg.C'
_cell_formula_units_Z            3
loop_
_atom_site_label
_atom_site_type_symbol
_atom_site_fract_x
_atom_site_fract_y
_atom_site_fract_z
C1 C 0.7837(4) 0.6148(3) 0.3973(2)
C2 C 0.8416(3) 0.5878(3) 0.4575(2)
C3 C 0.7817(3) 0.4878(3) 0.4959(2)
C4 C 0.8214(3) 0.4578(3) 0.5666(2)
H1 H 0.8772 0.4345 0.5539
H2 H 0.7561 0.3925 0.5900
C5 C 0.8759(3) 0.5571(3) 0.6228(2)
H3 H 0.9512 0.6143 0.6043
H4 H 0.8872 0.5278 0.6698
C6 C 0.8045(3) 0.6164(3) 0.6379(2)
C7 C 0.8124(3) 0.6990(3) 0.57596(19)
C8 C 0.9291(3) 0.7704(3) 0.53835(19)
C9 C 0.9460(3) 0.8789(3) 0.49681(19)
C10 C 1.0269(4) 0.8893(3) 0.43260(19)
C11 C 1.1436(3) 0.9081(3) 0.4629(2)
C12 C 1.1544(3) 0.7976(3) 0.45440(19)
C13 C 1.1516(4) 0.7714(3) 0.3703(2)
C14 C 1.0326(4) 0.7441(3) 0.3418(2)
H5 H 1.0417 0.7909 0.2982
H6 H 0.9891 0.6638 0.3270
C15 C 0.9665(3) 0.7675(3) 0.40212(19)
C16 C 0.9494(3) 0.6989(3) 0.47500(19)
C17 C 0.6793(4) 0.5324(3) 0.6587(2)
H7 H 0.6421 0.5749 0.6731
H8 H 0.6770 0.4850 0.6997
H9 H 0.6401 0.4846 0.6164
C18 C 1.2600(4) 0.8145(3) 0.4958(2)
H10 H 1.2517 0.8243 0.5482
H11 H 1.3269 0.8817 0.4768
H12 H 1.2687 0.7483 0.4886
C19 C 1.1737(4) 0.6717(4) 0.3535(2)
H13 H 1.1223 0.6056 0.3828
H14 H 1.2519 0.6944 0.3659
H15 H 1.1607 0.6526 0.3012
H16 H 0.839(3) 0.676(3) 0.679(2)
H17 H 0.985(3) 0.788(3) 0.574(2)
H18 H 0.869(4) 0.862(4) 0.476(3)
H19 H 1.038(3) 0.943(3) 0.397(3)
H20 H 1.149(3) 0.922(3) 0.516(3)
H21 H 1.209(4) 0.837(4) 0.346(3)
O1 O 0.8499(3) 0.7262(2) 0.37424(14)
O2 O 0.6885(3) 0.5523(2) 0.37152(16)
O3 O 0.6749(2) 0.4072(2) 0.47416(15)
H22 H 0.6564 0.4297 0.4368
O4 O 0.7302(2) 0.7097(2) 0.55939(17)
O5 O 1.0543(2) 0.6982(2) 0.48921(13)
O6 O 1.2350(3) 1.0010(2) 0.42382(15)
H23 H 1.2968 1.0113 0.4398
S1 S 1.0000 1.0000 0.56182(7)
C1C C 1.2163(4) 1.3852(3) 0.3973(2)
C2C C 1.1584(3) 1.4122(3) 0.4575(2)
C3C C 1.2183(3) 1.5122(3) 0.4959(2)
C4C C 1.1786(3) 1.5422(3) 0.5666(2)
H1C H 1.1228 1.5655 0.5539
H2C H 1.2439 1.6075 0.5900
C5C C 1.1241(3) 1.4429(3) 0.6228(2)
H3C H 1.0488 1.3857 0.6043
H4C H 1.1128 1.4722 0.6698
C6C C 1.1955(3) 1.3836(3) 0.6379(2)
C7C C 1.1876(3) 1.3010(3) 0.57596(19)
C8C C 1.0709(3) 1.2296(3) 0.53835(19)
C9C C 1.0540(3) 1.1211(3) 0.49681(19)
C10C C 0.9731(4) 1.1107(3) 0.43260(19)
C11C C 0.8564(3) 1.0919(3) 0.4629(2)
C12C C 0.8456(3) 1.2024(3) 0.45440(19)
C13C C 0.8484(4) 1.2286(3) 0.3703(2)
C14C C 0.9674(4) 1.2559(3) 0.3418(2)
H5C H 0.9583 1.2091 0.2982
H6C H 1.0109 1.3362 0.3270
C15C C 1.0335(3) 1.2325(3) 0.40212(19)
C16C C 1.0506(3) 1.3011(3) 0.47500(19)
C17C C 1.3207(4) 1.4676(3) 0.6587(2)
H7C H 1.3579 1.4251 0.6731
H8C H 1.3230 1.5150 0.6997
H9C H 1.3599 1.5154 0.6164
C18C C 0.7400(4) 1.1855(3) 0.4958(2)
H10C H 0.7483 1.1757 0.5482
H11C H 0.6731 1.1183 0.4768
H12C H 0.7313 1.2517 0.4886
C19C C 0.8263(4) 1.3283(4) 0.3535(2)
H13C H 0.8777 1.3944 0.3828
H14C H 0.7481 1.3056 0.3659
H15C H 0.8393 1.3474 0.3012
H16C H 1.161(3) 1.324(3) 0.679(2)
H17C H 1.015(3) 1.212(3) 0.574(2)
H18C H 1.131(4) 1.138(4) 0.476(3)
H19C H 0.962(3) 1.057(3) 0.397(3)
H20C H 0.851(3) 1.078(3) 0.516(3)
H21C H 0.791(4) 1.163(4) 0.346(3)
O1C O 1.1501(3) 1.2738(2) 0.37424(14)
O2C O 1.3115(3) 1.4477(2) 0.37152(16)
O3C O 1.3251(2) 1.5928(2) 0.47416(15)
H22C H 1.3436 1.5703 0.4368
O4C O 1.2698(2) 1.2903(2) 0.55939(17)
O5C O 0.9457(2) 1.3018(2) 0.48921(13)
O6C O 0.7650(3) 0.9990(2) 0.42382(15)
H23C H 0.7032 0.9887 0.4398
O7 O 0.6022(4) 0.8083(3) 0.5059(2)
H24 H 0.6568 0.8051 0.5277
H25 H 0.5394 0.7457 0.5130
loop_
_geom_bond_atom_site_label_1
_geom_bond_atom_site_label_2
_geom_bond_site_symmetry_1
_geom_bond_site_symmetry_2
C1 C2 1_555 1_555
C2 C3 1_555 1_555
C3 C4 1_555 1_555
C4 H1 1_555 1_555
H2 C4 1_555 1_555
C5 C4 1_555 1_555
H3 C5 1_555 1_555
H4 C5 1_555 1_555
C6 C5 1_555 1_555
C7 C6 1_555 1_555
C8 C7 1_555 1_555
C9 C8 1_555 1_555
C10 C9 1_555 1_555
C11 C10 1_555 1_555
C12 C11 1_555 1_555
C13 C12 1_555 1_555
C14 C13 1_555 1_555
H5 C14 1_555 1_555
H6 C14 1_555 1_555
C15 C10 1_555 1_555
C16 C2 1_555 1_555
C17 C6 1_555 1_555
H7 C17 1_555 1_555
H8 C17 1_555 1_555
H9 C17 1_555 1_555
C18 C12 1_555 1_555
H10 C18 1_555 1_555
H11 C18 1_555 1_555
H12 C18 1_555 1_555
C19 C13 1_555 1_555
H13 C19 1_555 1_555
H14 C19 1_555 1_555
H15 C19 1_555 1_555
H16 C6 1_555 1_555
H17 C8 1_555 1_555
H18 C9 1_555 1_555
H19 C10 1_555 1_555
H20 C11 1_555 1_555
H21 C13 1_555 1_555
O1 C1 1_555 1_555
O2 C1 1_555 1_555
O3 C3 1_555 1_555
H22 O3 1_555 1_555
O4 C7 1_555 1_555
O5 C12 1_555 1_555
O6 C11 1_555 1_555
H23 O6 1_555 1_555
S1 C9 1_555 1_555
O7 H24 1_555 1_555
H25 O7 1_555 1_555
C1C C2C 1_555 1_555
C2C C3C 1_555 1_555
C3C C4C 1_555 1_555
C4C H1C 1_555 1_555
H2C C4C 1_555 1_555
C5C C4C 1_555 1_555
H3C C5C 1_555 1_555
H4C C5C 1_555 1_555
C6C C5C 1_555 1_555
C7C C6C 1_555 1_555
C8C C7C 1_555 1_555
C9C S1 1_555 1_555
C10C C9C 1_555 1_555
C11C C10C 1_555 1_555
C12C C11C 1_555 1_555
C13C C12C 1_555 1_555
C14C C13C 1_555 1_555
H5C C14C 1_555 1_555
H6C C14C 1_555 1_555
C15C C10C 1_555 1_555
C16C C2C 1_555 1_555
C17C C6C 1_555 1_555
H7C C17C 1_555 1_555
H8C C17C 1_555 1_555
H9C C17C 1_555 1_555
C18C C12C 1_555 1_555
H10C C18C 1_555 1_555
H11C C18C 1_555 1_555
H12C C18C 1_555 1_555
C19C C13C 1_555 1_555
H13C C19C 1_555 1_555
H14C C19C 1_555 1_555
H15C C19C 1_555 1_555
H16C C6C 1_555 1_555
H17C C8C 1_555 1_555
H18C C9C 1_555 1_555
H19C C10C 1_555 1_555
H20C C11C 1_555 1_555
H21C C13C 1_555 1_555
O1C C1C 1_555 1_555
O2C C1C 1_555 1_555
O3C C3C 1_555 1_555
H22C O3C 1_555 1_555
O4C C7C 1_555 1_555
O5C C12C 1_555 1_555
O6C C11C 1_555 1_555
H23C O6C 1_555 1_555
C8 C16 1_555 1_555
C14 C15 1_555 1_555
C15 C16 1_555 1_555
C15 O1 1_555 1_555
C16 O5 1_555 1_555
C8C C9C 1_555 1_555
C8C C16C 1_555 1_555
C14C C15C 1_555 1_555
C15C C16C 1_555 1_555
C15C O1C 1_555 1_555
C16C O5C 1_555 1_555

#END
