
#######################################################################
#
#                 Cambridge Crystallographic Data Centre
#                                CCDC 
#
#######################################################################
#
# If this CIF has been generated from an entry in the Cambridge 
# Structural Database, then it will include bibliographic, chemical, 
# crystal, experimental, refinement or atomic coordinate data resulting 
# from the CCDC's data processing and validation procedures.
#
#######################################################################

data_XIHCAV
_chemical_compound_source        
'branches and leaves of Rhododendron latoucheae'
_chemical_name_common            
'(2R,3S)-2,3,24-Trihydroxy-28-norursane-12,17,19,21-tetraene methanol solvate'
_chemical_formula_moiety         'C29 H42 O3,0.25(C1 H4 O1)'
_chemical_name_systematic        
'4-(hydroxymethyl)-4,6a,6b,11,12,14b-hexamethyl-1,2,3,4,4a,5,6,6a,6b,7,8,14,14a,14b-tetradecahydropicene-2,3-diol methanol solvate'
_chemical_properties_biological  'antiviral activity'
_symmetry_cell_setting           monoclinic
_symmetry_space_group_name_H-M   'C 2'
_symmetry_Int_Tables_number      5
_space_group_name_Hall           'C 2y'
loop_
_symmetry_equiv_pos_site_id
_symmetry_equiv_pos_as_xyz
1 x,y,z
2 -x,y,-z
3 1/2+x,1/2+y,z
4 1/2-x,1/2+y,-z
_cell_length_a                   45.884(3)
_cell_length_b                   7.0425(7)
_cell_length_c                   15.7032(17)
_cell_angle_alpha                90
_cell_angle_beta                 103.902(9)
_cell_angle_gamma                90
_cell_volume                     4925.67
_chemical_melting_point          '245-246 deg.C'
_cell_formula_units_Z            8
_exptl_crystal_recrystallization_method methanol
loop_
_atom_site_label
_atom_site_type_symbol
_atom_site_fract_x
_atom_site_fract_y
_atom_site_fract_z
C30 C 0.71762(18) 0.8740(12) 1.3315(5)
C31 C 0.7488(2) 0.8831(12) 1.4800(6)
O4 O 0.52710(12) 0.6197(8) 1.0568(4)
H43 H 0.5234 0.6959 1.0940
C32 C 0.72005(19) 0.8711(13) 1.4217(5)
C33 C 0.77129(18) 0.9106(12) 1.3576(6)
H44 H 0.7888 0.9242 1.3361
C34 C 0.68927(18) 0.8546(12) 1.2623(5)
C35 C 0.74355(18) 0.9080(12) 1.2989(6)
C36 C 0.68200(19) 1.0135(11) 1.1945(5)
C37 C 0.6053(2) 0.7863(12) 1.0503(5)
C38 C 0.63270(17) 0.8377(11) 1.1297(5)
H45 H 0.6244 0.9304 1.1660
C39 C 0.64306(18) 0.6675(12) 1.1902(6)
H46 H 0.6269 0.6327 1.2191
H47 H 0.6463 0.5579 1.1542
C40 C 0.7529(2) 0.8830(13) 1.5784(6)
H48 H 0.7432 0.9953 1.5959
H49 H 0.7744 0.8853 1.6069
H50 H 0.7439 0.7681 1.5961
C41 C 0.67130(19) 0.7033(12) 1.2595(6)
H51 H 0.6769 0.6117 1.3049
C42 C 0.65933(18) 0.9403(12) 1.1065(5)
C43 C 0.57924(18) 0.7131(12) 1.0872(5)
H52 H 0.5766 0.7991 1.1348
H53 H 0.5845 0.5859 1.1132
C44 C 0.64734(19) 1.1128(14) 1.0458(6)
H54 H 0.6410 1.2138 1.0814
H55 H 0.6639 1.1641 1.0224
C45 C 0.77416(19) 0.8940(12) 1.4458(6)
H56 H 0.7936 0.8899 1.4843
C46 C 0.69279(18) 0.8683(14) 1.4604(5)
H57 H 0.6931 0.9800 1.4978
H58 H 0.6931 0.7528 1.4954
H59 H 0.6745 0.8701 1.4129
C47 C 0.5669(6) 0.952(3) 0.9259(16)
C48 C 0.6133(2) 0.6260(17) 0.9918(7)
H60 H 0.6199 0.6825 0.9425
H61 H 0.5955 0.5468 0.9692
H62 H 0.6295 0.5477 1.0266
O5 O 0.53135(14) 1.0196(9) 1.0319(5)
H63 H 0.5125 1.0215 1.0229
C49 C 0.5950(2) 0.9796(15) 1.0005(6)
H64 H 0.5898 1.0700 1.0437
C50 C 0.5689(4) 0.821(3) 0.8476(12)
H65 H 0.5853 0.8667 0.8218
H66 H 0.5741 0.6909 0.8700
C51 C 0.6769(2) 0.8061(15) 1.0573(6)
H67 H 0.6934 0.8767 1.0421
H68 H 0.6633 0.7587 1.0036
H69 H 0.6851 0.6989 1.0953
C52 C 0.6687(2) 1.1781(12) 1.2395(6)
H70 H 0.6474 1.1539 1.2354
H71 H 0.6709 1.2982 1.2101
H72 H 0.6795 1.1861 1.3013
O6 O 0.5419(3) 0.814(2) 0.7807(8)
H73 H 0.5323 0.7151 0.7865
C53 C 0.53991(19) 0.8913(15) 0.9725(5)
C54 C 0.73812(19) 0.9459(14) 1.2023(6)
H74 H 0.7328 0.8264 1.1689
H75 H 0.7565 0.9985 1.1885
C55 C 0.54932(18) 0.6999(11) 1.0176(5)
H76 H 0.5523 0.6092 0.9715
C56 C 0.6208(2) 1.0651(18) 0.9685(6)
H77 H 0.6139 1.1821 0.9347
H78 H 0.6275 0.9741 0.9290
C57 C 0.7120(2) 1.0898(14) 1.1771(6)
H79 H 0.7088 1.1215 1.1141
H80 H 0.7178 1.2080 1.2110
C58 C 0.5580(5) 1.154(3) 0.8910(14)
H81 H 0.5616 1.2439 0.9403
H82 H 0.5367 1.1564 0.8607
H83 H 0.5701 1.1913 0.8501
C1A C 0.65516(19) 0.2320(12) 1.5939(6)
H1A H 0.6749 0.1852 1.5981
C2A C 0.66906(17) 0.2423(13) 1.7561(5)
C3A C 0.6697(2) 0.3849(14) 1.8184(6)
C4A C 0.63580(19) 0.2595(14) 1.5048(6)
H2A H 0.6352 0.1390 1.4720
H3A H 0.6452 0.3564 1.4743
C5A C 0.69021(19) 0.3762(15) 1.8991(6)
H4A H 0.6902 0.4729 1.9412
O1A O 0.52024(15) 0.1315(12) 1.2917(5)
H5A H 0.5014 0.1309 1.2777
C6A C 0.68955(19) 0.0875(12) 1.7760(6)
C7A C 0.5523(2) 0.4309(14) 1.4123(5)
H6A H 0.5455 0.3090 1.4339
C8A C 0.5518(2) 0.5735(14) 1.4852(6)
H7A H 0.5307 0.5999 1.4863
H8A H 0.5609 0.6942 1.4725
C9A C 0.5294(2) 0.4684(15) 1.3247(6)
C10A C 0.64732(18) 0.2672(12) 1.6690(5)
C11A C 0.7103(2) 0.2313(15) 1.9187(6)
H9A H 0.7243 0.2283 1.9741
C12A C 0.71035(19) 0.0850(14) 1.8570(6)
C13A C 0.6899(2) -0.0741(12) 1.7141(6)
H10A H 0.6699 -0.0901 1.6754
H11A H 0.6958 -0.1910 1.7477
H12A H 0.7044 -0.0468 1.6787
C14A C 0.56868(19) 0.5009(14) 1.5754(6)
H13A H 0.5583 0.3867 1.5901
H14A H 0.5679 0.5993 1.6198
C15A C 0.5348(2) 0.6590(17) 1.2832(7)
H15A H 0.5359 0.7607 1.3274
H16A H 0.5545 0.6535 1.2677
C16A C 0.60189(18) 0.4502(11) 1.5811(5)
C17A C 0.61549(19) 0.3380(14) 1.6695(6)
C18A C 0.61640(19) 0.4605(13) 1.7516(6)
H17A H 0.6017 0.5651 1.7355
H18A H 0.6102 0.3815 1.7963
C19A C 0.6196(2) 0.6378(13) 1.5823(6)
H19A H 0.6084 0.7233 1.5368
H20A H 0.6393 0.6106 1.5711
H21A H 0.6223 0.6985 1.6399
O2A O 0.5635(2) 0.0884(13) 1.2044(4)
H22A H 0.5587 0.1142 1.1506
C20A C 0.59756(19) 0.1567(14) 1.6792(6)
H23A H 0.5941 0.0826 1.6249
H24A H 0.5782 0.1923 1.6909
H25A H 0.6090 0.0802 1.7280
O3A O 0.5124(2) 0.7079(18) 1.2070(5)
H26A H 0.4954 0.6779 1.2142
C21A C 0.5628(3) 0.2593(18) 1.2545(6)
H27A H 0.5702 0.3669 1.2239
C22A C 0.60322(17) 0.3215(12) 1.5013(5)
H28A H 0.5928 0.2018 1.5114
C23A C 0.7338(3) -0.0713(18) 1.8826(7)
H29A H 0.7238 -0.1921 1.8880
H30A H 0.7476 -0.0396 1.9388
H31A H 0.7452 -0.0828 1.8373
C24A C 0.5854(2) 0.3921(14) 1.4091(5)
C25A C 0.6010(3) 0.5651(16) 1.3765(7)
H32A H 0.5966 0.5638 1.3123
H33A H 0.6227 0.5573 1.4006
H34A H 0.5934 0.6831 1.3963
C26A C 0.5311(2) 0.3048(17) 1.2607(7)
H35A H 0.5185 0.3363 1.2011
C27A C 0.6476(2) 0.5459(13) 1.7923(6)
H36A H 0.6539 0.6291 1.7491
H37A H 0.6468 0.6231 1.8444
C28A C 0.4974(2) 0.4773(16) 1.3390(6)
H38A H 0.4948 0.3764 1.3795
H39A H 0.4828 0.4604 1.2827
H40A H 0.4942 0.6010 1.3639
C29A C 0.5849(2) 0.2286(15) 1.3427(5)
H41A H 0.6053 0.2134 1.3328
H42A H 0.5797 0.1090 1.3687
C30A C 0.28238(18) 0.8740(12) 0.6685(5)
C31A C 0.2512(2) 0.8831(12) 0.5200(6)
O4A O 0.47290(12) 0.6197(8) 0.9432(4)
H43A H 0.4766 0.6959 0.9060
C32A C 0.27995(19) 0.8711(13) 0.5783(5)
C33A C 0.22871(18) 0.9106(12) 0.6424(6)
H44A H 0.2112 0.9242 0.6639
C34A C 0.31073(18) 0.8546(12) 0.7377(5)
C35A C 0.25645(18) 0.9080(12) 0.7011(6)
C36A C 0.31800(19) 1.0135(11) 0.8055(5)
C37A C 0.3947(2) 0.7863(12) 0.9497(5)
C38A C 0.36730(17) 0.8377(11) 0.8703(5)
H45A H 0.3756 0.9304 0.8340
C39A C 0.35694(18) 0.6675(12) 0.8098(6)
H46A H 0.3731 0.6327 0.7809
H47A H 0.3537 0.5579 0.8458
C40A C 0.2471(2) 0.8830(13) 0.4216(6)
H48A H 0.2568 0.9953 0.4041
H49A H 0.2256 0.8853 0.3931
H50A H 0.2561 0.7681 0.4039
C41A C 0.32870(19) 0.7033(12) 0.7405(6)
H51A H 0.3231 0.6117 0.6951
C42A C 0.34067(18) 0.9403(12) 0.8935(5)
C43A C 0.42076(18) 0.7131(12) 0.9128(5)
H52A H 0.4234 0.7991 0.8652
H53A H 0.4155 0.5859 0.8868
C44A C 0.35266(19) 1.1128(14) 0.9542(6)
H54A H 0.3590 1.2138 0.9186
H55A H 0.3361 1.1641 0.9776
C45A C 0.22584(19) 0.8940(12) 0.5542(6)
H56A H 0.2064 0.8899 0.5157
C46A C 0.30721(18) 0.8683(14) 0.5396(5)
H57A H 0.3069 0.9800 0.5022
H58A H 0.3069 0.7528 0.5046
H59A H 0.3255 0.8701 0.5871
C47A C 0.4331(6) 0.952(3) 1.0741(16)
C48A C 0.3867(2) 0.6260(17) 1.0082(7)
H60A H 0.3801 0.6825 1.0575
H61A H 0.4045 0.5468 1.0308
H62A H 0.3705 0.5477 0.9734
O5A O 0.46865(14) 1.0196(9) 0.9681(5)
H63A H 0.4875 1.0215 0.9771
C49A C 0.4050(2) 0.9796(15) 0.9995(6)
H64A H 0.4102 1.0700 0.9563
C50A C 0.4311(4) 0.821(3) 1.1524(12)
H65A H 0.4147 0.8667 1.1782
H66A H 0.4259 0.6909 1.1300
C51A C 0.3231(2) 0.8061(15) 0.9427(6)
H67A H 0.3066 0.8767 0.9579
H68A H 0.3367 0.7587 0.9964
H69A H 0.3149 0.6989 0.9047
C52A C 0.3313(2) 1.1781(12) 0.7605(6)
H70A H 0.3526 1.1539 0.7646
H71A H 0.3291 1.2982 0.7899
H72A H 0.3205 1.1861 0.6987
O6A O 0.4581(3) 0.814(2) 1.2193(8)
H73A H 0.4677 0.7151 1.2135
C53A C 0.46009(19) 0.8913(15) 1.0275(5)
C54A C 0.26188(19) 0.9459(14) 0.7977(6)
H74A H 0.2672 0.8264 0.8311
H75A H 0.2435 0.9985 0.8115
C55A C 0.45068(18) 0.6999(11) 0.9824(5)
H76A H 0.4477 0.6092 1.0285
C56A C 0.3792(2) 1.0651(18) 1.0315(6)
H77A H 0.3861 1.1821 1.0653
H78A H 0.3725 0.9741 1.0710
C57A C 0.2880(2) 1.0898(14) 0.8229(6)
H79A H 0.2912 1.1215 0.8859
H80A H 0.2822 1.2080 0.7890
C58A C 0.4420(5) 1.154(3) 1.1090(14)
H81A H 0.4384 1.2439 1.0597
H82A H 0.4633 1.1564 1.1393
H83A H 0.4299 1.1913 1.1499
C1 C 0.34484(19) 0.2320(12) 0.4061(6)
H1 H 0.3251 0.1852 0.4019
C2 C 0.33094(17) 0.2423(13) 0.2439(5)
C3 C 0.3303(2) 0.3849(14) 0.1816(6)
C4 C 0.36420(19) 0.2595(14) 0.4952(6)
H2 H 0.3648 0.1390 0.5280
H3 H 0.3548 0.3564 0.5257
C5 C 0.30979(19) 0.3762(15) 0.1009(6)
H4 H 0.3098 0.4729 0.0588
O1 O 0.47976(15) 0.1315(12) 0.7083(5)
H5 H 0.4986 0.1309 0.7223
C6 C 0.31045(19) 0.0875(12) 0.2240(6)
C7 C 0.4477(2) 0.4309(14) 0.5877(5)
H6 H 0.4545 0.3090 0.5661
C8 C 0.4482(2) 0.5735(14) 0.5148(6)
H7 H 0.4693 0.5999 0.5137
H8 H 0.4391 0.6942 0.5275
C9 C 0.4706(2) 0.4684(15) 0.6753(6)
C10 C 0.35268(18) 0.2672(12) 0.3310(5)
C11 C 0.2897(2) 0.2313(15) 0.0813(6)
H9 H 0.2757 0.2283 0.0259
C12 C 0.28965(19) 0.0850(14) 0.1430(6)
C13 C 0.3101(2) -0.0741(12) 0.2859(6)
H10 H 0.3301 -0.0901 0.3246
H11 H 0.3042 -0.1910 0.2523
H12 H 0.2956 -0.0468 0.3213
C14 C 0.43132(19) 0.5009(14) 0.4246(6)
H13 H 0.4417 0.3867 0.4099
H14 H 0.4321 0.5993 0.3802
C15 C 0.4652(2) 0.6590(17) 0.7168(7)
H15 H 0.4641 0.7607 0.6726
H16 H 0.4455 0.6535 0.7323
C16 C 0.39811(18) 0.4502(11) 0.4189(5)
C17 C 0.38451(19) 0.3380(14) 0.3305(6)
C18 C 0.38360(19) 0.4605(13) 0.2484(6)
H17 H 0.3983 0.5651 0.2645
H18 H 0.3898 0.3815 0.2037
C19 C 0.3804(2) 0.6378(13) 0.4177(6)
H19 H 0.3916 0.7233 0.4632
H20 H 0.3607 0.6106 0.4289
H21 H 0.3777 0.6985 0.3601
O2 O 0.4365(2) 0.0884(13) 0.7956(4)
H22 H 0.4413 0.1142 0.8494
C20 C 0.40244(19) 0.1567(14) 0.3208(6)
H23 H 0.4059 0.0826 0.3751
H24 H 0.4218 0.1923 0.3091
H25 H 0.3910 0.0802 0.2720
O3 O 0.4876(2) 0.7079(18) 0.7930(5)
H26 H 0.5046 0.6779 0.7858
C21 C 0.4372(3) 0.2593(18) 0.7455(6)
H27 H 0.4298 0.3669 0.7761
C22 C 0.39678(17) 0.3215(12) 0.4987(5)
H28 H 0.4072 0.2018 0.4886
C23 C 0.2662(3) -0.0713(18) 0.1174(7)
H29 H 0.2762 -0.1921 0.1120
H30 H 0.2524 -0.0396 0.0612
H31 H 0.2548 -0.0828 0.1627
C24 C 0.4146(2) 0.3921(14) 0.5909(5)
C25 C 0.3990(3) 0.5651(16) 0.6235(7)
H32 H 0.4034 0.5638 0.6877
H33 H 0.3773 0.5573 0.5994
H34 H 0.4066 0.6831 0.6037
C26 C 0.4689(2) 0.3048(17) 0.7393(7)
H35 H 0.4815 0.3363 0.7989
C27 C 0.3524(2) 0.5459(13) 0.2077(6)
H36 H 0.3461 0.6291 0.2509
H37 H 0.3532 0.6231 0.1556
C28 C 0.5026(2) 0.4773(16) 0.6610(6)
H38 H 0.5052 0.3764 0.6205
H39 H 0.5172 0.4604 0.7173
H40 H 0.5058 0.6010 0.6361
C29 C 0.4151(2) 0.2286(15) 0.6573(5)
H41 H 0.3947 0.2134 0.6672
H42 H 0.4203 0.1090 0.6313
H84? H 0.4063 0.0666 0.9502
O7? O 0.4650(3) -0.074(2) 1.2181(8)
H85? H 0.4769 -0.1628 1.2151
C59? C 0.4378(4) -0.099(3) 1.1515(13)
H86? H 0.4208 -0.0471 1.1733
H87? H 0.4342 -0.2363 1.1410
C60? C 0.4479(5) 0.210(3) 1.0849(14)
H88? H 0.4463 0.2798 1.0299
H89? H 0.4687 0.2137 1.1197
H90? H 0.4348 0.2693 1.1182
C61? C 0.4380(6) -0.002(4) 1.0638(18)
O8? O 0.4782(4) 0.042(2) 1.3605(10)
H91? H 0.4747 -0.0636 1.3350
C62? C 0.4866(5) 0.014(3) 1.4504(14)
H92? H 0.4745 -0.0883 1.4666
H93? H 0.4833 0.1313 1.4804
H94? H 0.5079 -0.0206 1.4678
H95? H 0.5216 0.8672 0.9242
loop_
_geom_bond_atom_site_label_1
_geom_bond_atom_site_label_2
_geom_bond_site_symmetry_1
_geom_bond_site_symmetry_2
C1 H1 1_555 1_555
C2 C3 1_555 1_555
C3 C5 1_555 1_555
C4 C1 1_555 1_555
H2 C4 1_555 1_555
H3 C4 1_555 1_555
C5 H4 1_555 1_555
O1 H5 1_555 1_555
C6 C2 1_555 1_555
C7 H6 1_555 1_555
C8 C7 1_555 1_555
H7 C8 1_555 1_555
H8 C8 1_555 1_555
C9 C7 1_555 1_555
C10 C1 1_555 1_555
C11 C5 1_555 1_555
H9 C11 1_555 1_555
C12 C6 1_555 1_555
C13 C6 1_555 1_555
H10 C13 1_555 1_555
H11 C13 1_555 1_555
H12 C13 1_555 1_555
C14 C8 1_555 1_555
H13 C14 1_555 1_555
H14 C14 1_555 1_555
C15 C9 1_555 1_555
H15 C15 1_555 1_555
H16 C15 1_555 1_555
C16 C14 1_555 1_555
C17 C10 1_555 1_555
C18 C17 1_555 1_555
H17 C18 1_555 1_555
H18 C18 1_555 1_555
C19 C16 1_555 1_555
H19 C19 1_555 1_555
H20 C19 1_555 1_555
H21 C19 1_555 1_555
O2 H22 1_555 1_555
C20 C17 1_555 1_555
H23 C20 1_555 1_555
H24 C20 1_555 1_555
H25 C20 1_555 1_555
O3 C15 1_555 1_555
H26 O3 1_555 1_555
C21 O2 1_555 1_555
H27 C21 1_555 1_555
C22 C4 1_555 1_555
H28 C22 1_555 1_555
C23 C12 1_555 1_555
H29 C23 1_555 1_555
H30 C23 1_555 1_555
H31 C23 1_555 1_555
C24 C7 1_555 1_555
C25 C24 1_555 1_555
H32 C25 1_555 1_555
H33 C25 1_555 1_555
H34 C25 1_555 1_555
C26 O1 1_555 1_555
H35 C26 1_555 1_555
C27 C3 1_555 1_555
H36 C27 1_555 1_555
H37 C27 1_555 1_555
C28 C9 1_555 1_555
H38 C28 1_555 1_555
H39 C28 1_555 1_555
H40 C28 1_555 1_555
C29 C21 1_555 1_555
H41 C29 1_555 1_555
H42 C29 1_555 1_555
C30 C32 1_555 1_555
C31 C32 1_555 1_555
O4 H43 1_555 1_555
C32 C46 1_555 1_555
C33 H44 1_555 1_555
C34 C30 1_555 1_555
C35 C30 1_555 1_555
C36 C34 1_555 1_555
C37 C38 1_555 1_555
C38 H45 1_555 1_555
C39 C38 1_555 1_555
H46 C39 1_555 1_555
H47 C39 1_555 1_555
C40 C31 1_555 1_555
H48 C40 1_555 1_555
H49 C40 1_555 1_555
H50 C40 1_555 1_555
C41 C34 1_555 1_555
H51 C41 1_555 1_555
C42 C36 1_555 1_555
C43 C37 1_555 1_555
H52 C43 1_555 1_555
H53 C43 1_555 1_555
C44 C42 1_555 1_555
H54 C44 1_555 1_555
H55 C44 1_555 1_555
C45 C31 1_555 1_555
H56 C45 1_555 1_555
C46 H57 1_555 1_555
H58 C46 1_555 1_555
H59 C46 1_555 1_555
C47 C49 1_555 1_555
C48 C37 1_555 1_555
H60 C48 1_555 1_555
H61 C48 1_555 1_555
H62 C48 1_555 1_555
O5 H63 1_555 1_555
C49 C37 1_555 1_555
H64 C49 1_555 1_555
C50 C47 1_555 1_555
H65 C50 1_555 1_555
H66 C50 1_555 1_555
C51 C42 1_555 1_555
H67 C51 1_555 1_555
H68 C51 1_555 1_555
H69 C51 1_555 1_555
C52 C36 1_555 1_555
H70 C52 1_555 1_555
H71 C52 1_555 1_555
H72 C52 1_555 1_555
O6 C50 1_555 1_555
H73 O6 1_555 1_555
C53 C47 1_555 1_555
C54 C35 1_555 1_555
H74 C54 1_555 1_555
H75 C54 1_555 1_555
C55 O4 1_555 1_555
H76 C55 1_555 1_555
C56 C44 1_555 1_555
H77 C56 1_555 1_555
H78 C56 1_555 1_555
C57 C36 1_555 1_555
H79 C57 1_555 1_555
H80 C57 1_555 1_555
C58 C47 1_555 1_555
H81 C58 1_555 1_555
H82 C58 1_555 1_555
H83 C58 1_555 1_555
C1A H1A 1_555 1_555
C2A C3A 1_555 1_555
C3A C5A 1_555 1_555
C4A C1A 1_555 1_555
H2A C4A 1_555 1_555
H3A C4A 1_555 1_555
C5A H4A 1_555 1_555
O1A H5A 1_555 1_555
C6A C2A 1_555 1_555
C7A H6A 1_555 1_555
C8A C7A 1_555 1_555
H7A C8A 1_555 1_555
H8A C8A 1_555 1_555
C9A C7A 1_555 1_555
C10A C1A 1_555 1_555
C11A C5A 1_555 1_555
H9A C11A 1_555 1_555
C12A C6A 1_555 1_555
C13A C6A 1_555 1_555
H10A C13A 1_555 1_555
H11A C13A 1_555 1_555
H12A C13A 1_555 1_555
C14A C8A 1_555 1_555
H13A C14A 1_555 1_555
H14A C14A 1_555 1_555
C15A C9A 1_555 1_555
H15A C15A 1_555 1_555
H16A C15A 1_555 1_555
C16A C14A 1_555 1_555
C17A C10A 1_555 1_555
C18A C17A 1_555 1_555
H17A C18A 1_555 1_555
H18A C18A 1_555 1_555
C19A C16A 1_555 1_555
H19A C19A 1_555 1_555
H20A C19A 1_555 1_555
H21A C19A 1_555 1_555
O2A H22A 1_555 1_555
C20A C17A 1_555 1_555
H23A C20A 1_555 1_555
H24A C20A 1_555 1_555
H25A C20A 1_555 1_555
O3A C15A 1_555 1_555
H26A O3A 1_555 1_555
C21A O2A 1_555 1_555
H27A C21A 1_555 1_555
C22A C4A 1_555 1_555
H28A C22A 1_555 1_555
C23A C12A 1_555 1_555
H29A C23A 1_555 1_555
H30A C23A 1_555 1_555
H31A C23A 1_555 1_555
C24A C7A 1_555 1_555
C25A C24A 1_555 1_555
H32A C25A 1_555 1_555
H33A C25A 1_555 1_555
H34A C25A 1_555 1_555
C26A O1A 1_555 1_555
H35A C26A 1_555 1_555
C27A C3A 1_555 1_555
H36A C27A 1_555 1_555
H37A C27A 1_555 1_555
C28A C9A 1_555 1_555
H38A C28A 1_555 1_555
H39A C28A 1_555 1_555
H40A C28A 1_555 1_555
C29A C21A 1_555 1_555
H41A C29A 1_555 1_555
H42A C29A 1_555 1_555
C30A C32A 1_555 1_555
C31A C32A 1_555 1_555
O4A H43A 1_555 1_555
C32A C46A 1_555 1_555
C33A H44A 1_555 1_555
C34A C30A 1_555 1_555
C35A C30A 1_555 1_555
C36A C34A 1_555 1_555
C37A C38A 1_555 1_555
C38A H45A 1_555 1_555
C39A C38A 1_555 1_555
H46A C39A 1_555 1_555
H47A C39A 1_555 1_555
C40A C31A 1_555 1_555
H48A C40A 1_555 1_555
H49A C40A 1_555 1_555
H50A C40A 1_555 1_555
C41A C34A 1_555 1_555
H51A C41A 1_555 1_555
C42A C36A 1_555 1_555
C43A C37A 1_555 1_555
H52A C43A 1_555 1_555
H53A C43A 1_555 1_555
C44A C42A 1_555 1_555
H54A C44A 1_555 1_555
H55A C44A 1_555 1_555
C45A C31A 1_555 1_555
H56A C45A 1_555 1_555
C46A H57A 1_555 1_555
H58A C46A 1_555 1_555
H59A C46A 1_555 1_555
C47A C49A 1_555 1_555
C48A C37A 1_555 1_555
H60A C48A 1_555 1_555
H61A C48A 1_555 1_555
H62A C48A 1_555 1_555
O5A H63A 1_555 1_555
C49A C37A 1_555 1_555
H64A C49A 1_555 1_555
C50A C47A 1_555 1_555
H65A C50A 1_555 1_555
H66A C50A 1_555 1_555
C51A C42A 1_555 1_555
H67A C51A 1_555 1_555
H68A C51A 1_555 1_555
H69A C51A 1_555 1_555
C52A C36A 1_555 1_555
H70A C52A 1_555 1_555
H71A C52A 1_555 1_555
H72A C52A 1_555 1_555
O6A C50A 1_555 1_555
H73A O6A 1_555 1_555
C53A C47A 1_555 1_555
C54A C35A 1_555 1_555
H74A C54A 1_555 1_555
H75A C54A 1_555 1_555
C55A O4A 1_555 1_555
H76A C55A 1_555 1_555
C56A C44A 1_555 1_555
H77A C56A 1_555 1_555
H78A C56A 1_555 1_555
C57A C36A 1_555 1_555
H79A C57A 1_555 1_555
H80A C57A 1_555 1_555
C58A C47A 1_555 1_555
H81A C58A 1_555 1_555
H82A C58A 1_555 1_555
H83A C58A 1_555 1_555
C2 C10 1_555 1_555
C9 C26 1_555 1_555
C11 C12 1_555 1_555
C16 C17 1_555 1_555
C16 C22 1_555 1_555
C18 C27 1_555 1_555
C21 C26 1_555 1_555
C22 C24 1_555 1_555
C24 C29 1_555 1_555
C33 C35 1_555 1_555
C33 C45 1_555 1_555
C38 C42 1_555 1_555
C39 C41 1_555 1_555
C43 C55 1_555 1_555
O5 C53 1_555 1_555
C49 C56 1_555 1_555
C53 C55 1_555 1_555
C54 C57 1_555 1_555
C2A C10A 1_555 1_555
C9A C26A 1_555 1_555
C11A C12A 1_555 1_555
C16A C17A 1_555 1_555
C16A C22A 1_555 1_555
C18A C27A 1_555 1_555
C21A C26A 1_555 1_555
C22A C24A 1_555 1_555
C24A C29A 1_555 1_555
C33A C35A 1_555 1_555
C33A C45A 1_555 1_555
C38A C42A 1_555 1_555
C39A C41A 1_555 1_555
C43A C55A 1_555 1_555
O5A C53A 1_555 1_555
C49A C56A 1_555 1_555
C53A C55A 1_555 1_555
C54A C57A 1_555 1_555

#END
