
#######################################################################
#
#                 Cambridge Crystallographic Data Centre
#                                CCDC 
#
#######################################################################
#
# If this CIF has been generated from an entry in the Cambridge 
# Structural Database, then it will include bibliographic, chemical, 
# crystal, experimental, refinement or atomic coordinate data resulting 
# from the CCDC's data processing and validation procedures.
#
#######################################################################

data_XIHFEB
_chemical_formula_moiety         'C15 H25 N1 O3'
_chemical_name_systematic        
'Ethyl 10-hydroxyoctahydro-1H,5H-pyrido[3,2,1-ij]quinoline-7a(8H)-carboxylate'
_symmetry_cell_setting           monoclinic
_symmetry_space_group_name_H-M   'P 21/c'
_symmetry_Int_Tables_number      14
_space_group_name_Hall           '-P 2ybc'
loop_
_symmetry_equiv_pos_site_id
_symmetry_equiv_pos_as_xyz
1 x,y,z
2 -x,1/2+y,1/2-z
3 -x,-y,-z
4 x,1/2-y,1/2+z
_cell_length_a                   8.186(16)
_cell_length_b                   23.09(5)
_cell_length_c                   8.398(17)
_cell_angle_alpha                90
_cell_angle_beta                 118.853(18)
_cell_angle_gamma                90
_cell_volume                     1390.29
_exptl_crystal_colour            colorless
_exptl_crystal_description       block
_cell_formula_units_Z            4
loop_
_atom_site_label
_atom_site_type_symbol
_atom_site_fract_x
_atom_site_fract_y
_atom_site_fract_z
C1 C -0.1191(6) 0.85953(18) 1.0740(5)
H1 H -0.1654 0.8333 1.1332
H2 H -0.1837 0.8962 1.0558
C2 C 0.0839(6) 0.86861(19) 1.1931(6)
H3 H 0.1482 0.8318 1.2167
H4 H 0.1059 0.8847 1.3085
C3 C 0.1595(6) 0.90918(19) 1.1042(6)
H5 H 0.2941 0.9112 1.1775
H6 H 0.1099 0.9477 1.0992
C4 C 0.1091(5) 0.88981(15) 0.9118(5)
C5 C -0.0995(5) 0.87563(15) 0.8007(5)
H7 H -0.1687 0.9119 0.7820
C6 C -0.1458(5) 0.85211(16) 0.6152(5)
H8 H -0.1184 0.8828 0.5508
C7 C -0.3533(5) 0.83908(19) 0.5062(6)
H9 H -0.4229 0.8751 0.4760
H10 H -0.3793 0.8200 0.3935
C8 C -0.4157(5) 0.8011(2) 0.6112(6)
H11 H -0.5503 0.7969 0.5441
H12 H -0.3608 0.7630 0.6249
C9 C -0.3607(5) 0.82571(18) 0.7937(6)
H13 H -0.4258 0.8620 0.7797
H14 H -0.3979 0.7993 0.8601
C10 C -0.0277(5) 0.80016(16) 0.6264(5)
H15 H -0.0560 0.7680 0.6853
C11 C 0.1759(5) 0.81488(17) 0.7340(5)
H16 H 0.2493 0.7805 0.7472
H17 H 0.2067 0.8435 0.6682
C12 C 0.2259(5) 0.83794(17) 0.9181(5)
H18 H 0.3564 0.8490 0.9795
H19 H 0.2098 0.8075 0.9888
C13 C 0.1453(8) 0.9424(2) 0.8264(7)
C14 C 0.3611(11) 0.9918(3) 0.7661(10)
H20 H 0.2771 1.0233 0.7527
H21 H 0.4863 1.0040 0.8533
C15 C 0.3548(13) 0.9829(3) 0.6100(11)
H22 H 0.4114 0.9463 0.6125
H23 H 0.4210 1.0132 0.5871
H24 H 0.2272 0.9826 0.5153
N1 N -0.1593(4) 0.83576(13) 0.8985(4)
O1 O 0.0413(6) 0.98150(15) 0.7638(6)
O2 O 0.3120(6) 0.94207(15) 0.8382(6)
O3 O -0.0698(4) 0.78374(11) 0.4493(4)
H25 H -0.0928 0.7490 0.4358
loop_
_geom_bond_atom_site_label_1
_geom_bond_atom_site_label_2
_geom_bond_site_symmetry_1
_geom_bond_site_symmetry_2
C1 H1 1_555 1_555
H2 C1 1_555 1_555
C2 C1 1_555 1_555
H3 C2 1_555 1_555
H4 C2 1_555 1_555
C3 C2 1_555 1_555
H5 C3 1_555 1_555
H6 C3 1_555 1_555
C4 C3 1_555 1_555
C5 C4 1_555 1_555
H7 C5 1_555 1_555
C6 C5 1_555 1_555
H8 C6 1_555 1_555
C7 C6 1_555 1_555
H9 C7 1_555 1_555
H10 C7 1_555 1_555
C8 C7 1_555 1_555
H11 C8 1_555 1_555
H12 C8 1_555 1_555
C9 C8 1_555 1_555
H13 C9 1_555 1_555
H14 C9 1_555 1_555
C10 C6 1_555 1_555
H15 C10 1_555 1_555
C11 C10 1_555 1_555
H16 C11 1_555 1_555
H17 C11 1_555 1_555
C12 C4 1_555 1_555
H18 C12 1_555 1_555
H19 C12 1_555 1_555
C13 C4 1_555 1_555
C14 H20 1_555 1_555
H21 C14 1_555 1_555
C15 C14 1_555 1_555
H22 C15 1_555 1_555
H23 C15 1_555 1_555
H24 C15 1_555 1_555
N1 C1 1_555 1_555
O1 C13 1_555 1_555
O2 C13 1_555 1_555
O3 C10 1_555 1_555
H25 O3 1_555 1_555
C5 N1 1_555 1_555
C9 N1 1_555 1_555
C11 C12 1_555 1_555
C14 O2 1_555 1_555

#END
