
#######################################################################
#
#                 Cambridge Crystallographic Data Centre
#                                CCDC 
#
#######################################################################
#
# If this CIF has been generated from an entry in the Cambridge 
# Structural Database, then it will include bibliographic, chemical, 
# crystal, experimental, refinement or atomic coordinate data resulting 
# from the CCDC's data processing and validation procedures.
#
#######################################################################

data_XIHGUS
_chemical_formula_moiety         'C22 H20 O2'
_chemical_name_systematic        
Dispiro[cyclopropane-1,15'-pentacyclo[8.4.2.2^11,14^.0^1,10^.0^3,8^]octadecane-16',1''-cyclopropane]-3',5',7',12'-tetraene-2',9'-dione
_symmetry_cell_setting           triclinic
_symmetry_space_group_name_H-M   'P -1'
_symmetry_Int_Tables_number      2
_space_group_name_Hall           '-P 1'
loop_
_symmetry_equiv_pos_site_id
_symmetry_equiv_pos_as_xyz
1 x,y,z
2 -x,-y,-z
_cell_length_a                   7.3159(7)
_cell_length_b                   7.9854(7)
_cell_length_c                   14.9576(14)
_cell_angle_alpha                81.674(2)
_cell_angle_beta                 81.146(2)
_cell_angle_gamma                64.453(2)
_cell_volume                     775.981
_exptl_crystal_colour            colorless
_exptl_crystal_description       plate
_cell_formula_units_Z            2
loop_
_atom_site_label
_atom_site_type_symbol
_atom_site_fract_x
_atom_site_fract_y
_atom_site_fract_z
O1 O 0.12061(19) 0.61046(15) 0.18993(8)
O2 O 0.30892(18) -0.07390(15) 0.36208(8)
C1 C 0.1311(2) 0.4647(2) 0.23281(10)
C2 C 0.1872(2) 0.4199(2) 0.32773(10)
C3 C 0.1992(2) 0.5573(2) 0.37179(11)
H1 H 0.1720 0.6769 0.3409
C4 C 0.2505(2) 0.5201(2) 0.46011(11)
H2 H 0.2570 0.6146 0.4897
C5 C 0.2925(2) 0.3447(2) 0.50564(11)
H3 H 0.3269 0.3198 0.5663
C6 C 0.2840(2) 0.2063(2) 0.46217(10)
H4 H 0.3139 0.0864 0.4932
C7 C 0.2319(2) 0.2419(2) 0.37342(10)
C8 C 0.2340(2) 0.0865(2) 0.32768(10)
C9 C 0.1286(2) 0.13272(19) 0.24239(10)
C10 C 0.2500(2) -0.0139(2) 0.17294(10)
H5 H 0.2953 -0.1435 0.2032
C11 C 0.4303(2) 0.0277(2) 0.13301(10)
H6 H 0.5673 -0.0603 0.1376
C12 C 0.3807(2) 0.2001(2) 0.09029(10)
H7 H 0.4793 0.2440 0.0622
C13 C 0.1532(2) 0.3174(2) 0.09114(10)
H8 H 0.1237 0.4430 0.0580
C14 C 0.0721(2) 0.3336(2) 0.19304(10)
C15 C 0.0647(2) 0.2101(2) 0.04670(10)
H9 H -0.0855 0.2777 0.0507
H10 H 0.1174 0.2021 -0.0183
C16 C 0.1233(3) 0.0137(2) 0.09426(11)
H11 H 0.2036 -0.0796 0.0502
H12 H -0.0013 -0.0046 0.1182
C17 C -0.1562(2) 0.3799(2) 0.22223(10)
C18 C -0.3331(2) 0.5002(2) 0.16914(11)
H13 H -0.4402 0.4561 0.1685
H14 H -0.3062 0.5696 0.1120
C19 C -0.3141(2) 0.5593(2) 0.25739(11)
H15 H -0.2753 0.6647 0.2543
H16 H -0.4094 0.5512 0.3107
C20 C -0.1021(2) 0.1851(2) 0.26923(10)
C21 C -0.2107(2) 0.0615(2) 0.27540(11)
H17 H -0.1272 -0.0724 0.2678
H18 H -0.3447 0.1143 0.2511
C22 C -0.1962(3) 0.1360(2) 0.35987(11)
H19 H -0.3212 0.2345 0.3872
H20 H -0.1037 0.0478 0.4039
loop_
_geom_bond_atom_site_label_1
_geom_bond_atom_site_label_2
_geom_bond_site_symmetry_1
_geom_bond_site_symmetry_2
O1 C1 1_555 1_555
O2 C8 1_555 1_555
C1 C2 1_555 1_555
C2 C3 1_555 1_555
C3 H1 1_555 1_555
C4 C3 1_555 1_555
H2 C4 1_555 1_555
C5 C4 1_555 1_555
H3 C5 1_555 1_555
C6 C5 1_555 1_555
H4 C6 1_555 1_555
C7 C2 1_555 1_555
C8 C7 1_555 1_555
C9 C8 1_555 1_555
C10 C9 1_555 1_555
H5 C10 1_555 1_555
C11 C10 1_555 1_555
H6 C11 1_555 1_555
C12 C11 1_555 1_555
H7 C12 1_555 1_555
C13 C12 1_555 1_555
H8 C13 1_555 1_555
C14 C1 1_555 1_555
C15 C13 1_555 1_555
H9 C15 1_555 1_555
H10 C15 1_555 1_555
C16 C10 1_555 1_555
H11 C16 1_555 1_555
H12 C16 1_555 1_555
C17 C14 1_555 1_555
C18 C17 1_555 1_555
H13 C18 1_555 1_555
H14 C18 1_555 1_555
C19 C17 1_555 1_555
H15 C19 1_555 1_555
H16 C19 1_555 1_555
C20 C9 1_555 1_555
C21 C20 1_555 1_555
H17 C21 1_555 1_555
H18 C21 1_555 1_555
C22 C20 1_555 1_555
H19 C22 1_555 1_555
H20 C22 1_555 1_555
C6 C7 1_555 1_555
C9 C14 1_555 1_555
C13 C14 1_555 1_555
C15 C16 1_555 1_555
C17 C20 1_555 1_555
C18 C19 1_555 1_555
C21 C22 1_555 1_555

#END
