
#######################################################################
#
#                 Cambridge Crystallographic Data Centre
#                                CCDC 
#
#######################################################################
#
# If this CIF has been generated from an entry in the Cambridge 
# Structural Database, then it will include bibliographic, chemical, 
# crystal, experimental, refinement or atomic coordinate data resulting 
# from the CCDC's data processing and validation procedures.
#
#######################################################################

data_XIHGIG
_chemical_formula_moiety         'C12 H10 Cl2 O2'
_chemical_name_systematic        
9,11-Dichloro-13-oxatrispiro[2.0.2^4^.0.5^7^.1^3^]trideca-8,11-dien-10-one
_symmetry_cell_setting           monoclinic
_symmetry_space_group_name_H-M   'C 2/c'
_symmetry_Int_Tables_number      15
_space_group_name_Hall           '-C 2yn'
loop_
_symmetry_equiv_pos_site_id
_symmetry_equiv_pos_as_xyz
1 x,y,z
2 -x,y,1/2-z
3 1/2+x,1/2+y,z
4 1/2-x,1/2+y,1/2-z
5 -x,-y,-z
6 x,-y,1/2+z
7 1/2-x,1/2-y,-z
8 1/2+x,1/2-y,1/2+z
_cell_length_a                   19.9063(4)
_cell_length_b                   6.7658(2)
_cell_length_c                   17.8716(4)
_cell_angle_alpha                90
_cell_angle_beta                 101.3170(1)
_cell_angle_gamma                90
_cell_volume                     2360.18
_exptl_crystal_colour            yellow
_exptl_crystal_description       block
_cell_formula_units_Z            8
loop_
_atom_site_label
_atom_site_type_symbol
_atom_site_fract_x
_atom_site_fract_y
_atom_site_fract_z
Cl1 Cl 0.13972(4) 0.70757(12) 0.14691(4)
Cl2 Cl 0.30536(4) 0.68666(12) 0.42652(5)
O1 O 0.26469(11) 0.7583(3) 0.26225(13)
O2 O 0.05550(10) 0.5037(3) 0.38219(12)
C1 C 0.10383(14) 0.5325(4) 0.26752(17)
H1 H 0.0606 0.5110 0.2349
C2 C 0.15186(15) 0.6273(4) 0.24078(17)
C3 C 0.22009(14) 0.6756(4) 0.28770(17)
C4 C 0.22833(14) 0.6179(4) 0.36925(17)
C5 C 0.18001(14) 0.5247(4) 0.39693(17)
H2 H 0.1869 0.4997 0.4502
C6 C 0.11526(14) 0.4582(4) 0.34700(17)
C7 C 0.04656(15) 0.2952(5) 0.39752(18)
C8 C 0.03231(16) 0.2267(5) 0.47141(18)
H3 H 0.0251 0.3280 0.5090
H4 H 0.0552 0.1042 0.4937
C9 C -0.02147(16) 0.2087(5) 0.39808(18)
H5 H -0.0313 0.0753 0.3758
H6 H -0.0613 0.2991 0.3912
C10 C 0.10177(15) 0.2351(4) 0.35640(17)
C11 C 0.15315(17) 0.0732(5) 0.37352(19)
H7 H 0.1472 -0.0252 0.4127
H8 H 0.2013 0.1044 0.3714
C12 C 0.10150(16) 0.0745(5) 0.29987(18)
H9 H 0.1180 0.1062 0.2525
H10 H 0.0638 -0.0233 0.2938
loop_
_geom_bond_atom_site_label_1
_geom_bond_atom_site_label_2
_geom_bond_site_symmetry_1
_geom_bond_site_symmetry_2
Cl1 C2 1_555 1_555
Cl2 C4 1_555 1_555
O1 C3 1_555 1_555
O2 C6 1_555 1_555
C1 H1 1_555 1_555
C2 C1 1_555 1_555
C3 C2 1_555 1_555
C4 C3 1_555 1_555
C5 C4 1_555 1_555
H2 C5 1_555 1_555
C6 C1 1_555 1_555
C7 O2 1_555 1_555
C8 C7 1_555 1_555
H3 C8 1_555 1_555
H4 C8 1_555 1_555
C9 C7 1_555 1_555
H5 C9 1_555 1_555
H6 C9 1_555 1_555
C10 C6 1_555 1_555
C11 C10 1_555 1_555
H7 C11 1_555 1_555
H8 C11 1_555 1_555
C12 C10 1_555 1_555
H9 C12 1_555 1_555
H10 C12 1_555 1_555
C5 C6 1_555 1_555
C7 C10 1_555 1_555
C8 C9 1_555 1_555
C11 C12 1_555 1_555

#END
