
#######################################################################
#
#                 Cambridge Crystallographic Data Centre
#                                CCDC 
#
#######################################################################
#
# If this CIF has been generated from an entry in the Cambridge 
# Structural Database, then it will include bibliographic, chemical, 
# crystal, experimental, refinement or atomic coordinate data resulting 
# from the CCDC's data processing and validation procedures.
#
#######################################################################

data_XIHHON
_chemical_formula_moiety         'C31 H22 O4'
_chemical_name_systematic        
4''-Benzoyl-5''-phenyl-2'H-dispiro[cyclopropane-1,4'-cyclopenta[b]naphthalene-1',3''-furan]-2'',9'(3'H)-dione
_symmetry_cell_setting           triclinic
_symmetry_space_group_name_H-M   'P -1'
_symmetry_Int_Tables_number      2
_space_group_name_Hall           '-P 1'
loop_
_symmetry_equiv_pos_site_id
_symmetry_equiv_pos_as_xyz
1 x,y,z
2 -x,-y,-z
_cell_length_a                   9.6495(4)
_cell_length_b                   9.9895(4)
_cell_length_c                   12.5360(5)
_cell_angle_alpha                72.726(1)
_cell_angle_beta                 82.333(1)
_cell_angle_gamma                81.619(1)
_cell_volume                     1136.36
_exptl_crystal_colour            colorless
_exptl_crystal_description       block
_cell_formula_units_Z            2
loop_
_atom_site_label
_atom_site_type_symbol
_atom_site_fract_x
_atom_site_fract_y
_atom_site_fract_z
O1 O 0.44124(8) 0.68801(8) 0.35110(7)
O2 O 0.59208(8) 0.93219(9) 0.12814(7)
O3 O 0.45060(8) 0.80209(8) 0.08251(6)
O4 O 0.01950(9) 0.99281(8) 0.20477(7)
C1 C 0.27126(12) 1.02762(11) 0.47338(9)
C2 C 0.33151(12) 0.89361(12) 0.55073(9)
C3 C 0.33110(13) 0.87746(13) 0.66584(10)
H1 H 0.2914 0.9532 0.6956
C4 C 0.38772(13) 0.75286(14) 0.73652(10)
H2 H 0.3875 0.7444 0.8141
C5 C 0.44508(13) 0.63967(13) 0.69558(10)
H3 H 0.4831 0.5540 0.7448
C6 C 0.44623(12) 0.65300(12) 0.58267(9)
H4 H 0.4855 0.5762 0.5541
C7 C 0.39000(11) 0.77894(11) 0.50986(9)
C8 C 0.39516(11) 0.78810(11) 0.38920(9)
C9 C 0.34363(11) 0.92382(11) 0.31697(9)
C10 C 0.33913(11) 0.95266(11) 0.19182(9)
C11 C 0.30910(12) 1.11637(11) 0.15341(9)
H5 H 0.3974 1.1596 0.1235
H6 H 0.2434 1.1469 0.0942
C12 C 0.24280(12) 1.15974(12) 0.25901(9)
H7 H 0.2788 1.2462 0.2623
H8 H 0.1390 1.1763 0.2606
C13 C 0.28825(11) 1.03499(11) 0.35400(9)
C14 C 0.26646(12) 1.16591(12) 0.50416(10)
H9 H 0.3071 1.1614 0.5738
H10 H 0.2800 1.2527 0.4420
C15 C 0.13280(12) 1.10363(12) 0.51606(10)
H11 H 0.0638 1.1515 0.4611
H12 H 0.0909 1.0601 0.5930
C16 C 0.47693(11) 0.89879(11) 0.13475(9)
C17 C 0.30613(11) 0.79050(11) 0.10011(9)
C18 C 0.23671(11) 0.87027(11) 0.16317(9)
C19 C 0.25730(11) 0.70153(11) 0.04203(9)
C20 C 0.32975(12) 0.56990(12) 0.04237(9)
H13 H 0.4121 0.5369 0.0807
C21 C 0.28158(14) 0.48722(12) -0.01333(10)
H14 H 0.3306 0.3974 -0.0127
C22 C 0.16180(14) 0.53566(14) -0.06997(10)
H15 H 0.1284 0.4785 -0.1074
C23 C 0.09107(13) 0.66699(14) -0.07201(11)
H16 H 0.0099 0.7004 -0.1117
C24 C 0.13809(12) 0.75012(13) -0.01640(9)
H17 H 0.0891 0.8403 -0.0181
C25 C 0.08532(11) 0.87868(11) 0.20362(9)
C26 C 0.01691(11) 0.74610(11) 0.24945(9)
C27 C 0.09260(12) 0.62069(12) 0.30500(10)
H18 H 0.1912 0.6162 0.3076
C28 C 0.02296(14) 0.50202(13) 0.35665(11)
H19 H 0.0738 0.4168 0.3960
C29 C -0.12043(14) 0.50758(14) 0.35087(11)
H20 H -0.1672 0.4260 0.3860
C30 C -0.19570(12) 0.63158(14) 0.29411(11)
H21 H -0.2936 0.6346 0.2892
C31 C -0.12764(12) 0.75130(13) 0.24441(10)
H22 H -0.1795 0.8370 0.2069
loop_
_geom_bond_atom_site_label_1
_geom_bond_atom_site_label_2
_geom_bond_site_symmetry_1
_geom_bond_site_symmetry_2
O1 C8 1_555 1_555
O2 C16 1_555 1_555
O3 C16 1_555 1_555
O4 C25 1_555 1_555
C1 C2 1_555 1_555
C2 C3 1_555 1_555
C3 H1 1_555 1_555
C4 C3 1_555 1_555
H2 C4 1_555 1_555
C5 C4 1_555 1_555
H3 C5 1_555 1_555
C6 C5 1_555 1_555
H4 C6 1_555 1_555
C7 C2 1_555 1_555
C8 C7 1_555 1_555
C9 C8 1_555 1_555
C10 C9 1_555 1_555
C11 C10 1_555 1_555
H5 C11 1_555 1_555
H6 C11 1_555 1_555
C12 C11 1_555 1_555
H7 C12 1_555 1_555
H8 C12 1_555 1_555
C13 C1 1_555 1_555
C14 C1 1_555 1_555
H9 C14 1_555 1_555
H10 C14 1_555 1_555
C15 C1 1_555 1_555
H11 C15 1_555 1_555
H12 C15 1_555 1_555
C16 C10 1_555 1_555
C17 O3 1_555 1_555
C18 C10 1_555 1_555
C19 C17 1_555 1_555
C20 C19 1_555 1_555
H13 C20 1_555 1_555
C21 C20 1_555 1_555
H14 C21 1_555 1_555
C22 C21 1_555 1_555
H15 C22 1_555 1_555
C23 C22 1_555 1_555
H16 C23 1_555 1_555
C24 C19 1_555 1_555
H17 C24 1_555 1_555
C25 C18 1_555 1_555
C26 C25 1_555 1_555
C27 C26 1_555 1_555
H18 C27 1_555 1_555
C28 C27 1_555 1_555
H19 C28 1_555 1_555
C29 C28 1_555 1_555
H20 C29 1_555 1_555
C30 C29 1_555 1_555
H21 C30 1_555 1_555
C31 C26 1_555 1_555
H22 C31 1_555 1_555
C6 C7 1_555 1_555
C9 C13 1_555 1_555
C12 C13 1_555 1_555
C14 C15 1_555 1_555
C17 C18 1_555 1_555
C23 C24 1_555 1_555
C30 C31 1_555 1_555

#END
