
#######################################################################
#
#                 Cambridge Crystallographic Data Centre
#                                CCDC 
#
#######################################################################
#
# If this CIF has been generated from an entry in the Cambridge 
# Structural Database, then it will include bibliographic, chemical, 
# crystal, experimental, refinement or atomic coordinate data resulting 
# from the CCDC's data processing and validation procedures.
#
#######################################################################

data_XIHJAB
_chemical_formula_moiety         'C22 H20 S7 Si2'
_chemical_name_systematic        
bisthieno[3'',2'':4',5']thieno[2',3':4,5]thieno[2,3-b:3',2'-d]thiene-2,8-diylbis(trimethylsilane)
_symmetry_cell_setting           monoclinic
_symmetry_space_group_name_H-M   'P 21/c'
_symmetry_Int_Tables_number      14
_space_group_name_Hall           '-P 2ybc'
loop_
_symmetry_equiv_pos_site_id
_symmetry_equiv_pos_as_xyz
1 x,y,z
2 -x,1/2+y,1/2-z
3 -x,-y,-z
4 x,1/2-y,1/2+z
_cell_length_a                   19.431(5)
_cell_length_b                   11.786(3)
_cell_length_c                   11.530(3)
_cell_angle_alpha                90
_cell_angle_beta                 102.154(4)
_cell_angle_gamma                90
_cell_volume                     2581.34
_exptl_crystal_colour            yellow
_exptl_crystal_description       BLOCK
_cell_formula_units_Z            4
loop_
_atom_site_label
_atom_site_type_symbol
_atom_site_fract_x
_atom_site_fract_y
_atom_site_fract_z
S1 S 0.13112(4) 0.46118(7) 0.17726(7)
S2 S 0.02849(4) 0.72771(7) -0.03076(7)
S3 S 0.02063(4) 0.43086(7) 0.33695(7)
S4 S -0.15211(4) 0.74835(7) 0.06695(7)
S5 S -0.12609(4) 0.52610(7) 0.35627(7)
S6 S 0.14949(4) 0.76631(7) -0.17108(8)
Si1 Si -0.42321(4) 0.80648(8) 0.23723(8)
S7 S -0.30278(4) 0.83293(7) 0.09227(7)
Si2 Si 0.29965(4) 0.69557(9) -0.20159(9)
C1 C 0.01282(13) 0.5736(2) 0.1606(2)
C2 C -0.05098(13) 0.5887(2) 0.2030(2)
C3 C -0.22498(14) 0.6879(2) 0.2234(3)
C4 C 0.14617(13) 0.6145(2) -0.0130(2)
C5 C -0.11511(13) 0.6515(2) 0.1765(2)
C6 C 0.22156(14) 0.6753(3) -0.1333(3)
C7 C 0.10995(13) 0.5659(2) 0.0706(2)
C8 C 0.04665(13) 0.6180(2) 0.0713(2)
C9 C 0.05484(14) 0.4908(3) 0.2249(2)
C10 C -0.05236(14) 0.5176(3) 0.2972(3)
C11 C 0.10791(14) 0.7025(3) -0.0723(3)
C12 C -0.33500(15) 0.7723(3) 0.2068(3)
C13 C 0.21141(14) 0.5997(2) -0.0502(2)
H1 H 0.2438 0.5434 -0.0201
C14 C -0.22643(14) 0.7557(2) 0.1268(3)
C15 C -0.15944(14) 0.6270(2) 0.2513(2)
C16 C -0.28748(15) 0.6972(3) 0.2683(3)
H2 H -0.2952 0.6561 0.3332
C17 C 0.3186(2) 0.8486(4) -0.2046(4)
H3 H 0.2790 0.8870 -0.2523
H4 H 0.3594 0.8602 -0.2378
H5 H 0.3274 0.8781 -0.1253
C18 C -0.41129(19) 0.8958(3) 0.3713(3)
H6 H -0.3840 0.8553 0.4375
H7 H -0.4565 0.9143 0.3875
H8 H -0.3872 0.9644 0.3588
C19 C -0.4656(2) 0.6711(3) 0.2599(4)
H9 H -0.4379 0.6325 0.3271
H10 H -0.4694 0.6246 0.1905
H11 H -0.5118 0.6855 0.2741
C20 C 0.2848(2) 0.6401(4) -0.3548(3)
H12 H 0.2461 0.6797 -0.4035
H13 H 0.2743 0.5606 -0.3546
H14 H 0.3265 0.6514 -0.3858
C21 C 0.37410(18) 0.6185(4) -0.1083(4)
H15 H 0.4151 0.6264 -0.1417
H16 H 0.3623 0.5396 -0.1052
H17 H 0.3835 0.6495 -0.0296
C22 C -0.4755(2) 0.8837(4) 0.1083(4)
H18 H -0.4816 0.8364 0.0391
H19 H -0.4512 0.9519 0.0951
H20 H -0.5207 0.9027 0.1239
loop_
_geom_bond_atom_site_label_1
_geom_bond_atom_site_label_2
_geom_bond_site_symmetry_1
_geom_bond_site_symmetry_2
S1 C7 1_555 1_555
S2 C8 1_555 1_555
S3 C9 1_555 1_555
S4 C5 1_555 1_555
S5 C10 1_555 1_555
S6 C6 1_555 1_555
Si1 C12 1_555 1_555
S7 C12 1_555 1_555
Si2 C6 1_555 1_555
C1 C2 1_555 1_555
C2 C5 1_555 1_555
C3 C14 1_555 1_555
C4 C7 1_555 1_555
C5 C15 1_555 1_555
C6 C13 1_555 1_555
C7 C8 1_555 1_555
C8 C1 1_555 1_555
C9 S1 1_555 1_555
C10 S3 1_555 1_555
C11 S2 1_555 1_555
C12 C16 1_555 1_555
C13 C4 1_555 1_555
H1 C13 1_555 1_555
C14 S4 1_555 1_555
C15 S5 1_555 1_555
C16 C3 1_555 1_555
H2 C16 1_555 1_555
C17 Si2 1_555 1_555
H3 C17 1_555 1_555
H4 C17 1_555 1_555
H5 C17 1_555 1_555
C18 Si1 1_555 1_555
H6 C18 1_555 1_555
H7 C18 1_555 1_555
H8 C18 1_555 1_555
C19 Si1 1_555 1_555
H9 C19 1_555 1_555
H10 C19 1_555 1_555
H11 C19 1_555 1_555
C20 Si2 1_555 1_555
H12 C20 1_555 1_555
H13 C20 1_555 1_555
H14 C20 1_555 1_555
C21 Si2 1_555 1_555
H15 C21 1_555 1_555
H16 C21 1_555 1_555
H17 C21 1_555 1_555
C22 Si1 1_555 1_555
H18 C22 1_555 1_555
H19 C22 1_555 1_555
H20 C22 1_555 1_555
S6 C11 1_555 1_555
S7 C14 1_555 1_555
C1 C9 1_555 1_555
C2 C10 1_555 1_555
C3 C15 1_555 1_555
C4 C11 1_555 1_555

#END
