
#######################################################################
#
#                 Cambridge Crystallographic Data Centre
#                                CCDC 
#
#######################################################################
#
# If this CIF has been generated from an entry in the Cambridge 
# Structural Database, then it will include bibliographic, chemical, 
# crystal, experimental, refinement or atomic coordinate data resulting 
# from the CCDC's data processing and validation procedures.
#
#######################################################################

data_XIHKEG
_chemical_formula_moiety         'C20 H26 N2 O2 S1'
_chemical_name_systematic        
N\a-(t-Butylsulfinyl)-N\a-methyl-N-phenylphenylalaninamide
_symmetry_cell_setting           orthorhombic
_symmetry_space_group_name_H-M   'P 21 21 21'
_symmetry_Int_Tables_number      19
_space_group_name_Hall           'P 2ac 2ab'
loop_
_symmetry_equiv_pos_site_id
_symmetry_equiv_pos_as_xyz
1 x,y,z
2 1/2-x,-y,1/2+z
3 1/2+x,1/2-y,-z
4 -x,1/2+y,1/2-z
_cell_length_a                   10.0113(5)
_cell_length_b                   11.3161(6)
_cell_length_c                   17.9297(9)
_cell_angle_alpha                90
_cell_angle_beta                 90
_cell_angle_gamma                90
_cell_volume                     2031.24
_exptl_crystal_colour            colorless
_exptl_crystal_description       block
_cell_formula_units_Z            4
loop_
_atom_site_label
_atom_site_type_symbol
_atom_site_fract_x
_atom_site_fract_y
_atom_site_fract_z
S1 S -0.00209(8) 0.06533(7) 0.00659(5)
O1 O 0.0327(3) 0.0586(3) -0.07407(13)
O2 O 0.1037(3) 0.4564(2) 0.03303(15)
N1 N 0.1041(3) 0.3152(3) -0.05620(15)
H1 H 0.1050 0.2398 -0.0620
N2 N 0.1198(2) 0.1372(2) 0.05036(13)
C1 C 0.1059(4) 0.3830(4) -0.1231(2)
C2 C 0.0847(4) 0.5017(5) -0.1250(3)
H2 H 0.0694 0.5446 -0.0816
C3 C 0.0867(6) 0.5574(7) -0.1957(4)
H3 H 0.0751 0.6389 -0.1982
C4 C 0.1048(8) 0.4963(11) -0.2599(5)
H4 H 0.1020 0.5347 -0.3057
C5 C 0.1269(6) 0.3798(9) -0.2562(3)
H5 H 0.1414 0.3379 -0.3001
C6 C 0.1286(4) 0.3193(6) -0.1881(2)
H6 H 0.1447 0.2384 -0.1864
C7 C 0.1013(3) 0.3535(3) 0.0148(2)
C8 C 0.0872(3) 0.2562(3) 0.07455(16)
H7 H -0.0074 0.2548 0.0885
C9 C 0.1640(4) 0.2903(3) 0.14531(18)
H8 H 0.2584 0.2954 0.1335
H9 H 0.1348 0.3679 0.1615
C10 C 0.1455(4) 0.2045(3) 0.20833(18)
C11 C 0.0222(4) 0.1868(3) 0.24001(18)
H10 H -0.0515 0.2270 0.2211
C12 C 0.0057(5) 0.1104(4) 0.2995(2)
H11 H -0.0787 0.0994 0.3201
C13 C 0.1126(5) 0.0512(4) 0.3279(2)
H12 H 0.1022 -0.0006 0.3678
C14 C 0.2352(5) 0.0693(4) 0.2968(2)
H13 H 0.3090 0.0296 0.3159
C15 C 0.2514(4) 0.1452(4) 0.2379(2)
H14 H 0.3361 0.1564 0.2178
C16 C 0.2600(3) 0.1159(3) 0.0298(2)
H15 H 0.3068 0.0827 0.0715
H16 H 0.3012 0.1892 0.0157
H17 H 0.2636 0.0618 -0.0115
C17 C 0.0065(4) -0.0849(3) 0.0424(2)
C18 C -0.0233(7) -0.0741(4) 0.1255(3)
H18 H 0.0552 -0.0469 0.1511
H19 H -0.0491 -0.1498 0.1448
H20 H -0.0946 -0.0186 0.1329
C19 C 0.1339(6) -0.1463(4) 0.0267(4)
H21 H 0.1590 -0.1330 -0.0243
H22 H 0.1230 -0.2295 0.0351
H23 H 0.2022 -0.1162 0.0591
C20 C -0.1101(5) -0.1472(4) 0.0046(4)
H24 H -0.1897 -0.1010 0.0107
H25 H -0.1228 -0.2236 0.0269
H26 H -0.0913 -0.1564 -0.0476
loop_
_geom_bond_atom_site_label_1
_geom_bond_atom_site_label_2
_geom_bond_site_symmetry_1
_geom_bond_site_symmetry_2
S1 O1 1_555 1_555
O2 C7 1_555 1_555
N1 H1 1_555 1_555
N2 S1 1_555 1_555
C1 N1 1_555 1_555
C2 C1 1_555 1_555
H2 C2 1_555 1_555
C3 C2 1_555 1_555
H3 C3 1_555 1_555
C4 C3 1_555 1_555
H4 C4 1_555 1_555
C5 C4 1_555 1_555
H5 C5 1_555 1_555
C6 C1 1_555 1_555
H6 C6 1_555 1_555
C7 N1 1_555 1_555
C8 N2 1_555 1_555
H7 C8 1_555 1_555
C9 C8 1_555 1_555
H8 C9 1_555 1_555
H9 C9 1_555 1_555
C10 C9 1_555 1_555
C11 C10 1_555 1_555
H10 C11 1_555 1_555
C12 C11 1_555 1_555
H11 C12 1_555 1_555
C13 C12 1_555 1_555
H12 C13 1_555 1_555
C14 C13 1_555 1_555
H13 C14 1_555 1_555
C15 C10 1_555 1_555
H14 C15 1_555 1_555
C16 N2 1_555 1_555
H15 C16 1_555 1_555
H16 C16 1_555 1_555
H17 C16 1_555 1_555
C17 S1 1_555 1_555
C18 C17 1_555 1_555
H18 C18 1_555 1_555
H19 C18 1_555 1_555
H20 C18 1_555 1_555
C19 C17 1_555 1_555
H21 C19 1_555 1_555
H22 C19 1_555 1_555
H23 C19 1_555 1_555
C20 C17 1_555 1_555
H24 C20 1_555 1_555
H25 C20 1_555 1_555
H26 C20 1_555 1_555
C5 C6 1_555 1_555
C7 C8 1_555 1_555
C14 C15 1_555 1_555

#END
