
#######################################################################
#
#                 Cambridge Crystallographic Data Centre
#                                CCDC 
#
#######################################################################
#
# If this CIF has been generated from an entry in the Cambridge 
# Structural Database, then it will include bibliographic, chemical, 
# crystal, experimental, refinement or atomic coordinate data resulting 
# from the CCDC's data processing and validation procedures.
#
#######################################################################

data_XIHROX
_chemical_formula_moiety         'C33 H31 N2 O5 1+,H2 O1,Cl1 O4 1-'
_chemical_name_systematic        
"N-(10-(2-Carboxyphenyl)-9-oxo-2,3,6,7-tetrahydro-1H,5H,9H,13H-chromeno[2',3':4,5]pyrano[2,3-f]pyrido[3,2,1-ij]quinolin-13-ylidene)-N-ethylethanaminium perchlorate monohydrate"
_symmetry_cell_setting           monoclinic
_symmetry_space_group_name_H-M   'P 21/n'
_symmetry_Int_Tables_number      14
_space_group_name_Hall           '-P 2yn'
loop_
_symmetry_equiv_pos_site_id
_symmetry_equiv_pos_as_xyz
1 x,y,z
2 1/2-x,1/2+y,1/2-z
3 -x,-y,-z
4 1/2+x,1/2-y,1/2+z
_cell_length_a                   12.278(3)
_cell_length_b                   14.793(3)
_cell_length_c                   16.961(3)
_cell_angle_alpha                90
_cell_angle_beta                 101.51(3)
_cell_angle_gamma                90
_cell_volume                     3018.65
_exptl_crystal_colour            black
_exptl_crystal_description       block
_cell_formula_units_Z            4
loop_
_atom_site_label
_atom_site_type_symbol
_atom_site_fract_x
_atom_site_fract_y
_atom_site_fract_z
Cl1 Cl 0.20539(10) 0.25390(8) 0.05607(7)
O1 O 0.3120(3) 0.2135(3) 0.0838(2)
O2 O 0.1408(4) 0.1902(3) 0.0024(2)
O3 O 0.2153(3) 0.3357(2) 0.0135(2)
O4 O 0.1528(3) 0.2711(2) 0.1230(2)
O5 O 0.9226(3) 0.5164(2) 0.3385(2)
O6 O 0.8131(3) 0.5772(3) 0.4129(2)
H1 H 0.8295 0.5298 0.4399
O7 O 1.01182(19) 0.45350(17) 0.09624(15)
O8 O 0.6771(2) 0.56977(19) 0.15934(18)
O9 O 0.6720(2) 0.46213(17) 0.06970(15)
N1 N 1.3794(2) 0.5433(2) 0.2102(2)
N2 N 0.6302(3) 0.2100(2) -0.1067(2)
C1 C 1.4929(4) 0.5698(4) 0.3488(3)
H2 H 1.5311 0.5115 0.3504
H3 H 1.4259 0.5630 0.3715
H4 H 1.5426 0.6142 0.3805
C2 C 1.4610(3) 0.6017(3) 0.2631(3)
H5 H 1.4296 0.6634 0.2629
H6 H 1.5290 0.6057 0.2403
C3 C 1.4313(4) 0.3812(3) 0.2048(3)
H7 H 1.4591 0.3363 0.1713
H8 H 1.3566 0.3639 0.2115
H9 H 1.4812 0.3841 0.2576
C4 C 1.4265(3) 0.4727(3) 0.1647(3)
H10 H 1.5025 0.4908 0.1597
H11 H 1.3806 0.4683 0.1098
C5 C 1.0808(3) 0.5093(2) 0.1485(2)
C6 C 1.1919(3) 0.4964(3) 0.1526(2)
H12 H 1.2173 0.4509 0.1211
C7 C 1.2687(3) 0.5518(3) 0.2042(2)
C8 C 1.2253(3) 0.6174(3) 0.2519(2)
H13 H 1.2753 0.6541 0.2885
C9 C 1.1138(3) 0.6283(3) 0.2460(2)
H14 H 1.0880 0.6730 0.2780
C10 C 1.0353(3) 0.5751(3) 0.1936(2)
C11 C 0.9198(3) 0.5818(3) 0.1861(2)
C12 C 0.8681(3) 0.6591(3) 0.2234(2)
C13 C 0.8358(3) 0.6561(3) 0.2976(2)
C14 C 0.7767(3) 0.7286(3) 0.3214(3)
H15 H 0.7528 0.7259 0.3713
C15 C 0.7528(4) 0.8040(3) 0.2732(3)
H16 H 0.7114 0.8524 0.2894
C16 C 0.7895(4) 0.8089(3) 0.2005(3)
H17 H 0.7747 0.8613 0.1677
C17 C 0.8471(3) 0.7376(3) 0.1767(3)
H18 H 0.8731 0.7417 0.1277
C18 C 0.8609(4) 0.5758(3) 0.3497(3)
C19 C 0.8522(3) 0.5208(2) 0.1340(2)
C20 C 0.7311(3) 0.5220(2) 0.1243(2)
C21 C 0.7211(3) 0.3975(2) 0.0290(2)
C22 C 0.8376(3) 0.3945(3) 0.0378(2)
C23 C 0.9002(3) 0.4576(2) 0.0897(2)
C24 C 0.8823(3) 0.3254(3) -0.0045(2)
H19 H 0.9606 0.3212 0.0006
C25 C 0.8157(3) 0.2651(3) -0.0522(2)
C26 C 0.8660(3) 0.1922(3) -0.0959(3)
H20 H 0.9368 0.1717 -0.0619
H21 H 0.8826 0.2173 -0.1463
C27 C 0.7886(4) 0.1123(3) -0.1157(3)
H22 H 0.8184 0.0702 -0.1515
H23 H 0.7838 0.0795 -0.0656
C28 C 0.6747(4) 0.1434(3) -0.1564(3)
H24 H 0.6786 0.1708 -0.2090
H25 H 0.6241 0.0907 -0.1663
C29 C 0.5091(4) 0.2135(3) -0.1159(3)
H26 H 0.4785 0.1517 -0.1261
H27 H 0.4778 0.2512 -0.1632
C30 C 0.4740(4) 0.2513(3) -0.0433(3)
H28 H 0.4950 0.2085 0.0021
H29 H 0.3921 0.2579 -0.0545
C31 C 0.5267(3) 0.3418(3) -0.0197(3)
H30 H 0.5131 0.3593 0.0339
H31 H 0.4926 0.3881 -0.0590
C32 C 0.6507(3) 0.3380(3) -0.0169(2)
C33 C 0.6968(3) 0.2702(3) -0.0600(2)
O10 O 0.3790(4) 0.0423(3) 0.0262(2)
H32 H 0.3482 0.0904 0.0366
H33 H 0.4342 0.0351 0.0639
loop_
_geom_bond_atom_site_label_1
_geom_bond_atom_site_label_2
_geom_bond_site_symmetry_1
_geom_bond_site_symmetry_2
Cl1 O1 1_555 1_555
O2 Cl1 1_555 1_555
O3 Cl1 1_555 1_555
O4 Cl1 1_555 1_555
O5 C18 1_555 1_555
O6 H1 1_555 1_555
O7 C5 1_555 1_555
O8 C20 1_555 1_555
O9 C20 1_555 1_555
N1 C2 1_555 1_555
N2 C28 1_555 1_555
C1 H2 1_555 1_555
H3 C1 1_555 1_555
H4 C1 1_555 1_555
C2 C1 1_555 1_555
H5 C2 1_555 1_555
H6 C2 1_555 1_555
C3 H7 1_555 1_555
H8 C3 1_555 1_555
H9 C3 1_555 1_555
C4 N1 1_555 1_555
H10 C4 1_555 1_555
H11 C4 1_555 1_555
C5 C6 1_555 1_555
C6 H12 1_555 1_555
C7 N1 1_555 1_555
C8 C7 1_555 1_555
H13 C8 1_555 1_555
C9 C8 1_555 1_555
H14 C9 1_555 1_555
C10 C5 1_555 1_555
C11 C10 1_555 1_555
C12 C11 1_555 1_555
C13 C12 1_555 1_555
C14 C13 1_555 1_555
H15 C14 1_555 1_555
C15 C14 1_555 1_555
H16 C15 1_555 1_555
C16 C15 1_555 1_555
H17 C16 1_555 1_555
C17 C12 1_555 1_555
H18 C17 1_555 1_555
C18 O6 1_555 1_555
C19 C11 1_555 1_555
C20 C19 1_555 1_555
C21 O9 1_555 1_555
C22 C21 1_555 1_555
C23 O7 1_555 1_555
C24 C22 1_555 1_555
H19 C24 1_555 1_555
C25 C24 1_555 1_555
C26 C25 1_555 1_555
H20 C26 1_555 1_555
H21 C26 1_555 1_555
C27 C26 1_555 1_555
H22 C27 1_555 1_555
H23 C27 1_555 1_555
C28 C27 1_555 1_555
H24 C28 1_555 1_555
H25 C28 1_555 1_555
C29 N2 1_555 1_555
H26 C29 1_555 1_555
H27 C29 1_555 1_555
C30 C29 1_555 1_555
H28 C30 1_555 1_555
H29 C30 1_555 1_555
C31 C30 1_555 1_555
H30 C31 1_555 1_555
H31 C31 1_555 1_555
C32 C21 1_555 1_555
C33 N2 1_555 1_555
O10 H32 1_555 1_555
H33 O10 1_555 1_555
C3 C4 1_555 1_555
C6 C7 1_555 1_555
C9 C10 1_555 1_555
C13 C18 1_555 1_555
C16 C17 1_555 1_555
C19 C23 1_555 1_555
C22 C23 1_555 1_555
C25 C33 1_555 1_555
C31 C32 1_555 1_555
C32 C33 1_555 1_555

#END
