
#######################################################################
#
#                 Cambridge Crystallographic Data Centre
#                                CCDC 
#
#######################################################################
#
# If this CIF has been generated from an entry in the Cambridge 
# Structural Database, then it will include bibliographic, chemical, 
# crystal, experimental, refinement or atomic coordinate data resulting 
# from the CCDC's data processing and validation procedures.
#
#######################################################################

data_XIHRAJ
_chemical_formula_moiety         'C31 H30 N2 O4 S1'
_chemical_name_systematic        
"3',10'-bis(diethylamino)-3H,6'H-spiro[2-benzothiophene-1,7'-chromeno[4,3-b]chromene]-3,6'-dione unknown solvate"
_symmetry_cell_setting           triclinic
_symmetry_space_group_name_H-M   'P -1'
_symmetry_Int_Tables_number      2
_space_group_name_Hall           '-P 1'
loop_
_symmetry_equiv_pos_site_id
_symmetry_equiv_pos_as_xyz
1 x,y,z
2 -x,-y,-z
_cell_length_a                   11.2476(5)
_cell_length_b                   11.9832(6)
_cell_length_c                   12.3358(4)
_cell_angle_alpha                81.865(3)
_cell_angle_beta                 76.573(3)
_cell_angle_gamma                63.038(5)
_cell_volume                     1440.16
_cell_formula_units_Z            2
loop_
_atom_site_label
_atom_site_type_symbol
_atom_site_fract_x
_atom_site_fract_y
_atom_site_fract_z
C1 C 1.0080(2) 0.8044(2) 0.15020(17)
C2 C 1.0485(2) 0.87490(19) 0.21132(17)
C3 C 1.0726(2) 0.9780(2) 0.16567(18)
H1 H 1.0630 1.0070 0.0927
C4 C 1.1106(2) 1.0357(2) 0.2308(2)
H2 H 1.1287 1.1035 0.2014
C5 C 1.1221(2) 0.9932(2) 0.3403(2)
H3 H 1.1472 1.0333 0.3838
C6 C 1.0963(2) 0.89091(19) 0.38630(17)
H4 H 1.1042 0.8627 0.4597
C7 C 1.05868(19) 0.83254(18) 0.32070(16)
C8 C 1.0259(2) 0.72253(19) 0.36272(16)
C9 C 0.9077(2) 0.75640(18) 0.46049(16)
C10 C 0.7813(2) 0.86307(19) 0.44577(16)
C11 C 0.6831(2) 0.83106(19) 0.63633(16)
C12 C 0.5680(2) 0.87471(19) 0.71825(16)
H5 H 0.4905 0.9451 0.7039
C13 C 0.5685(2) 0.81195(19) 0.82372(17)
C14 C 0.3313(2) 0.9633(2) 0.89056(18)
H6 H 0.2534 0.9568 0.9395
H7 H 0.3190 0.9697 0.8143
C15 C 0.3376(2) 1.0796(2) 0.9151(2)
H8 H 0.3480 1.0743 0.9910
H9 H 0.2553 1.1516 0.9041
H10 H 0.4137 1.0871 0.8659
C16 C 0.4532(2) 0.7863(2) 1.01506(18)
H11 H 0.3868 0.8456 1.0699
H12 H 0.5416 0.7560 1.0348
C17 C 0.4192(3) 0.6778(3) 1.0192(3)
H13 H 0.3282 0.7082 1.0068
H14 H 0.4261 0.6349 1.0910
H15 H 0.4816 0.6209 0.9623
C18 C 0.6916(2) 0.70713(19) 0.84154(16)
H16 H 0.6951 0.6647 0.9108
C19 C 0.8043(2) 0.66768(19) 0.75893(17)
H17 H 0.8832 0.5991 0.7733
C20 C 0.8040(2) 0.72793(18) 0.65314(16)
C21 C 0.91583(19) 0.69134(18) 0.56053(16)
C22 C 1.1434(2) 0.54825(19) 0.49868(16)
C23 C 1.2532(2) 0.44309(18) 0.52978(17)
H18 H 1.2451 0.4067 0.6012
C24 C 1.3766(2) 0.39176(19) 0.45331(17)
C25 C 1.3820(2) 0.4534(2) 0.34742(18)
H19 H 1.4624 0.4235 0.2949
C26 C 1.2705(2) 0.5570(2) 0.32044(17)
H20 H 1.2775 0.5945 0.2494
C27 C 1.1471(2) 0.60821(19) 0.39521(17)
C28 C 1.4798(2) 0.22330(19) 0.59004(18)
H21 H 1.5461 0.1362 0.5842
H22 H 1.3907 0.2247 0.6147
C29 C 1.5062(2) 0.2807(2) 0.6780(2)
H23 H 1.5959 0.2761 0.6565
H24 H 1.4987 0.2356 0.7481
H25 H 1.4406 0.3668 0.6852
C30 C 1.6157(2) 0.2379(2) 0.4017(2)
H26 H 1.5993 0.2383 0.3277
H27 H 1.6707 0.1517 0.4234
C31 C 1.6943(3) 0.3127(2) 0.3964(2)
H28 H 1.6438 0.3966 0.3692
H29 H 1.7804 0.2744 0.3471
H30 H 1.7087 0.3148 0.4696
N1 N 1.48534(18) 0.28486(17) 0.47966(15)
N2 N 0.45479(17) 0.85013(17) 0.90604(14)
O1 O 0.99524(17) 0.82194(16) 0.05327(12)
O2 O 0.76083(14) 0.92794(13) 0.36116(11)
O3 O 0.67391(13) 0.89661(13) 0.53537(11)
O4 O 1.02765(13) 0.58905(13) 0.58297(11)
S1 S 0.98092(5) 0.68506(5) 0.23967(4)
loop_
_geom_bond_atom_site_label_1
_geom_bond_atom_site_label_2
_geom_bond_site_symmetry_1
_geom_bond_site_symmetry_2
C1 C2 1_555 1_555
C2 C3 1_555 1_555
C3 H1 1_555 1_555
C4 C3 1_555 1_555
H2 C4 1_555 1_555
C5 C4 1_555 1_555
H3 C5 1_555 1_555
C6 C5 1_555 1_555
H4 C6 1_555 1_555
C7 C2 1_555 1_555
C8 C7 1_555 1_555
C9 C8 1_555 1_555
C10 C9 1_555 1_555
C11 C12 1_555 1_555
C12 H5 1_555 1_555
C13 C12 1_555 1_555
C14 H6 1_555 1_555
H7 C14 1_555 1_555
C15 C14 1_555 1_555
H8 C15 1_555 1_555
H9 C15 1_555 1_555
H10 C15 1_555 1_555
C16 H11 1_555 1_555
H12 C16 1_555 1_555
C17 C16 1_555 1_555
H13 C17 1_555 1_555
H14 C17 1_555 1_555
H15 C17 1_555 1_555
C18 C13 1_555 1_555
H16 C18 1_555 1_555
C19 C18 1_555 1_555
H17 C19 1_555 1_555
C20 C11 1_555 1_555
C21 C9 1_555 1_555
C22 C23 1_555 1_555
C23 H18 1_555 1_555
C24 C23 1_555 1_555
C25 C24 1_555 1_555
H19 C25 1_555 1_555
C26 C25 1_555 1_555
H20 C26 1_555 1_555
C27 C8 1_555 1_555
C28 H21 1_555 1_555
H22 C28 1_555 1_555
C29 C28 1_555 1_555
H23 C29 1_555 1_555
H24 C29 1_555 1_555
H25 C29 1_555 1_555
C30 H26 1_555 1_555
H27 C30 1_555 1_555
C31 C30 1_555 1_555
H28 C31 1_555 1_555
H29 C31 1_555 1_555
H30 C31 1_555 1_555
N1 C24 1_555 1_555
N2 C13 1_555 1_555
O1 C1 1_555 1_555
O2 C10 1_555 1_555
O3 C10 1_555 1_555
O4 C21 1_555 1_555
S1 C1 1_555 1_555
C6 C7 1_555 1_555
C8 S1 1_555 1_555
C11 O3 1_555 1_555
C14 N2 1_555 1_555
C16 N2 1_555 1_555
C19 C20 1_555 1_555
C20 C21 1_555 1_555
C22 C27 1_555 1_555
C22 O4 1_555 1_555
C26 C27 1_555 1_555
C28 N1 1_555 1_555
C30 N1 1_555 1_555

#END
