
#######################################################################
#
#                 Cambridge Crystallographic Data Centre
#                                CCDC 
#
#######################################################################
#
# If this CIF has been generated from an entry in the Cambridge 
# Structural Database, then it will include bibliographic, chemical, 
# crystal, experimental, refinement or atomic coordinate data resulting 
# from the CCDC's data processing and validation procedures.
#
#######################################################################

data_XIHSIS
_chemical_formula_moiety         'C16 H23 N1 O2,0.38(C1 H1 Cl3)'
_chemical_name_systematic        
'1,3-Oxazol-2-yl(4a-vinyldecahydronaphthalen-1-yl)methanol chloroform solvate'
_symmetry_cell_setting           monoclinic
_symmetry_space_group_name_H-M   'P 21/n'
_symmetry_Int_Tables_number      14
_space_group_name_Hall           '-P 2yn'
loop_
_symmetry_equiv_pos_site_id
_symmetry_equiv_pos_as_xyz
1 x,y,z
2 1/2-x,1/2+y,1/2-z
3 -x,-y,-z
4 1/2+x,1/2-y,1/2+z
_cell_length_a                   14.8975(16)
_cell_length_b                   7.3862(4)
_cell_length_c                   30.776(3)
_cell_angle_alpha                90
_cell_angle_beta                 97.729(8)
_cell_angle_gamma                90
_cell_volume                     3355.7
_exptl_crystal_colour            colorless
_exptl_crystal_description       tabloid
_cell_formula_units_Z            8
loop_
_atom_site_label
_atom_site_type_symbol
_atom_site_fract_x
_atom_site_fract_y
_atom_site_fract_z
Cl1 Cl 0.79025(17) 0.2378(3) 0.18042(9)
Cl2 Cl 0.9010(2) -0.0637(4) 0.15982(10)
Cl3 Cl 0.8030(3) -0.0678(5) 0.23592(13)
C1 C 0.8525(7) 0.0460(11) 0.1996(3)
H1 H 0.9062 0.1002 0.2181
O1 O 0.1602(2) 0.0248(4) 0.14638(12)
O2 O 0.2027(2) -0.2654(4) 0.20876(13)
H2 H 0.2145 -0.2950 0.2353
N1 N 0.2235(3) 0.1854(5) 0.20325(14)
C2 C 0.2192(3) 0.0299(6) 0.18319(17)
C3 C 0.1609(4) 0.2924(7) 0.17633(19)
H3 H 0.1472 0.4151 0.1819
C4 C 0.1234(4) 0.1968(6) 0.14176(19)
H4 H 0.0800 0.2388 0.1185
C5 C 0.2693(3) -0.1407(6) 0.19798(17)
H5 H 0.3133 -0.1147 0.2247
C6 C 0.3205(4) -0.2255(6) 0.16208(19)
H6 H 0.2740 -0.2572 0.1367
C7 C 0.3654(4) -0.4040(6) 0.1795(2)
H7 H 0.3207 -0.4771 0.1929
H8 H 0.3834 -0.4739 0.1546
C8 C 0.4472(4) -0.3735(7) 0.2128(2)
H9 H 0.4752 -0.4915 0.2218
H10 H 0.4285 -0.3148 0.2391
C9 C 0.5157(4) -0.2561(7) 0.1945(2)
H11 H 0.5396 -0.3225 0.1706
H12 H 0.5670 -0.2334 0.2179
C10 C 0.4775(4) -0.0728(6) 0.1766(2)
C11 C 0.5489(4) 0.0185(8) 0.1516(2)
H13 H 0.6023 0.0512 0.1728
H14 H 0.5690 -0.0704 0.1308
C12 C 0.5150(4) 0.1876(8) 0.1262(2)
H15 H 0.5013 0.2829 0.1469
H16 H 0.5628 0.2340 0.1097
C13 C 0.4310(5) 0.1456(9) 0.0948(2)
H17 H 0.4467 0.0605 0.0721
H18 H 0.4081 0.2585 0.0799
C14 C 0.3566(4) 0.0624(7) 0.1180(2)
H19 H 0.3043 0.0294 0.0961
H20 H 0.3358 0.1524 0.1383
C15 C 0.3921(4) -0.1088(7) 0.1442(2)
H21 H 0.4143 -0.1878 0.1214
C16 C 0.4608(4) 0.0546(6) 0.2138(2)
H22 H 0.4163 0.1453 0.2061
C17 C 0.4990(5) 0.0571(8) 0.2546(2)
H23 H 0.5442 -0.0296 0.2646
H24 H 0.4815 0.1455 0.2743
O3 O 0.0053(2) 0.5221(4) 0.10570(12)
O4 O 0.0010(2) 0.2326(4) 0.04237(12)
H25 H 0.0289 0.2499 0.0208
N2 N -0.0198(3) 0.6865(5) 0.04491(15)
C18 C -0.0309(3) 0.5304(6) 0.06317(18)
C19 C 0.0279(4) 0.7899(6) 0.07876(19)
H26 H 0.0462 0.9121 0.0761
C20 C 0.0435(4) 0.6913(6) 0.11481(19)
H27 H 0.0753 0.7295 0.1421
C21 C -0.0709(3) 0.3612(6) 0.04151(18)
H28 H -0.0942 0.3894 0.0102
C22 C -0.1484(4) 0.2800(6) 0.06341(19)
H29 H -0.1239 0.2573 0.0948
C23 C -0.1765(4) 0.0948(6) 0.0429(2)
H30 H -0.1217 0.0206 0.0414
H31 H -0.2149 0.0306 0.0619
C24 C -0.2288(4) 0.1163(7) -0.0031(2)
H32 H -0.1888 0.1717 -0.0227
H33 H -0.2475 -0.0045 -0.0151
C25 C -0.3115(4) 0.2333(7) -0.0023(2)
H34 H -0.3539 0.1709 0.0149
H35 H -0.3424 0.2482 -0.0326
C26 C -0.2894(4) 0.4223(6) 0.0178(2)
C27 C -0.3809(4) 0.5149(8) 0.0239(2)
H36 H -0.4147 0.5419 -0.0053
H37 H -0.4177 0.4296 0.0389
C28 C -0.3684(4) 0.6903(8) 0.0505(2)
H38 H -0.3389 0.7819 0.0337
H39 H -0.4285 0.7378 0.0552
C29 C -0.3111(4) 0.6611(8) 0.0947(2)
H40 H -0.3442 0.5814 0.1130
H41 H -0.3010 0.7788 0.1099
C30 C -0.2198(4) 0.5756(7) 0.0895(2)
H42 H -0.1859 0.5512 0.1188
H43 H -0.1838 0.6612 0.0741
C31 C -0.2328(4) 0.3975(6) 0.06333(19)
H44 H -0.2729 0.3238 0.0800
C32 C -0.2414(4) 0.5422(7) -0.0120(2)
H45 H -0.2071 0.6400 0.0018
C33 C -0.2417(5) 0.5261(8) -0.0547(2)
H46 H -0.2748 0.4308 -0.0702
H47 H -0.2089 0.6097 -0.0699
Cl4? Cl 0.7901(8) -0.1533(15) 0.2118(4)
Cl5? Cl 0.9380(9) 0.004(2) 0.1740(5)
loop_
_geom_bond_atom_site_label_1
_geom_bond_atom_site_label_2
_geom_bond_site_symmetry_1
_geom_bond_site_symmetry_2
Cl1 C1 1_555 1_555
Cl2 C1 1_555 1_555
Cl3 C1 1_555 1_555
C1 H1 1_555 1_555
O1 C2 1_555 1_555
O2 H2 1_555 1_555
N1 C2 1_555 1_555
C2 C5 1_555 1_555
C3 N1 1_555 1_555
H3 C3 1_555 1_555
C4 O1 1_555 1_555
H4 C4 1_555 1_555
C5 O2 1_555 1_555
H5 C5 1_555 1_555
C6 C5 1_555 1_555
H6 C6 1_555 1_555
C7 C6 1_555 1_555
H7 C7 1_555 1_555
H8 C7 1_555 1_555
C8 C7 1_555 1_555
H9 C8 1_555 1_555
H10 C8 1_555 1_555
C9 C8 1_555 1_555
H11 C9 1_555 1_555
H12 C9 1_555 1_555
C10 C9 1_555 1_555
C11 C10 1_555 1_555
H13 C11 1_555 1_555
H14 C11 1_555 1_555
C12 C11 1_555 1_555
H15 C12 1_555 1_555
H16 C12 1_555 1_555
C13 C12 1_555 1_555
H17 C13 1_555 1_555
H18 C13 1_555 1_555
C14 C13 1_555 1_555
H19 C14 1_555 1_555
H20 C14 1_555 1_555
C15 C6 1_555 1_555
H21 C15 1_555 1_555
C16 C10 1_555 1_555
H22 C16 1_555 1_555
C17 C16 1_555 1_555
H23 C17 1_555 1_555
H24 C17 1_555 1_555
O3 C18 1_555 1_555
O4 H25 1_555 1_555
N2 C18 1_555 1_555
C18 C21 1_555 1_555
C19 N2 1_555 1_555
H26 C19 1_555 1_555
C20 O3 1_555 1_555
H27 C20 1_555 1_555
C21 O4 1_555 1_555
H28 C21 1_555 1_555
C22 C21 1_555 1_555
H29 C22 1_555 1_555
C23 C22 1_555 1_555
H30 C23 1_555 1_555
H31 C23 1_555 1_555
C24 C23 1_555 1_555
H32 C24 1_555 1_555
H33 C24 1_555 1_555
C25 C24 1_555 1_555
H34 C25 1_555 1_555
H35 C25 1_555 1_555
C26 C25 1_555 1_555
C27 C26 1_555 1_555
H36 C27 1_555 1_555
H37 C27 1_555 1_555
C28 C27 1_555 1_555
H38 C28 1_555 1_555
H39 C28 1_555 1_555
C29 C28 1_555 1_555
H40 C29 1_555 1_555
H41 C29 1_555 1_555
C30 C29 1_555 1_555
H42 C30 1_555 1_555
H43 C30 1_555 1_555
C31 C22 1_555 1_555
H44 C31 1_555 1_555
C32 C26 1_555 1_555
H45 C32 1_555 1_555
C33 C32 1_555 1_555
H46 C33 1_555 1_555
H47 C33 1_555 1_555
C3 C4 1_555 1_555
C10 C15 1_555 1_555
C14 C15 1_555 1_555
C19 C20 1_555 1_555
C26 C31 1_555 1_555
C30 C31 1_555 1_555

#END
