
#######################################################################
#
#                 Cambridge Crystallographic Data Centre
#                                CCDC 
#
#######################################################################
#
# If this CIF has been generated from an entry in the Cambridge 
# Structural Database, then it will include bibliographic, chemical, 
# crystal, experimental, refinement or atomic coordinate data resulting 
# from the CCDC's data processing and validation procedures.
#
#######################################################################

data_XIHSUE
_chemical_formula_moiety         'C16 H23 N1 O5'
_chemical_name_systematic        
'Ethyl 11-acetoxy-12-oxo-5-azatricyclo[6.3.1.0^1,5^]dodecane-8-carboxylate'
_symmetry_cell_setting           monoclinic
_symmetry_space_group_name_H-M   'P 21/c'
_symmetry_Int_Tables_number      14
_space_group_name_Hall           '-P 2ybc'
loop_
_symmetry_equiv_pos_site_id
_symmetry_equiv_pos_as_xyz
1 x,y,z
2 -x,1/2+y,1/2-z
3 -x,-y,-z
4 x,1/2-y,1/2+z
_cell_length_a                   15.235(16)
_cell_length_b                   7.700(8)
_cell_length_c                   14.339(15)
_cell_angle_alpha                90
_cell_angle_beta                 108.123(11)
_cell_angle_gamma                90
_cell_volume                     1598.65
_exptl_crystal_colour            colorless
_exptl_crystal_description       block
_cell_formula_units_Z            4
loop_
_atom_site_label
_atom_site_type_symbol
_atom_site_fract_x
_atom_site_fract_y
_atom_site_fract_z
C1 C 0.46392(17) 0.6734(4) 0.3677(2)
H1 H 0.4556 0.5862 0.4130
H2 H 0.5293 0.6992 0.3836
C2 C 0.42545(17) 0.6111(4) 0.2635(2)
H3 H 0.4372 0.4883 0.2582
H4 H 0.4511 0.6759 0.2200
C3 C 0.32393(16) 0.6468(3) 0.24149(19)
H5 H 0.2946 0.5584 0.2698
H6 H 0.2930 0.6524 0.1713
C4 C 0.32279(14) 0.8227(3) 0.28982(15)
C5 C 0.32220(15) 0.9737(3) 0.21990(16)
H7 H 0.3728 0.9607 0.1918
C6 C 0.32779(16) 1.1484(3) 0.26903(17)
H8 H 0.3231 1.2394 0.2210
H9 H 0.3872 1.1597 0.3193
C7 C 0.25149(16) 1.1705(3) 0.31499(17)
H10 H 0.1926 1.1771 0.2635
H11 H 0.2606 1.2790 0.3511
C8 C 0.24849(15) 1.0204(3) 0.38489(15)
C9 C 0.33958(16) 1.0106(3) 0.47194(17)
H12 H 0.3762 1.1136 0.4715
H13 H 0.3248 1.0099 0.5331
C10 C 0.39584(16) 0.8524(4) 0.46780(17)
H14 H 0.4551 0.8606 0.5187
H15 H 0.3644 0.7503 0.4810
C11 C 0.24204(14) 0.8508(3) 0.32803(15)
C12 C 0.2273(2) 1.0140(3) 0.05357(18)
C13 C 0.13174(19) 0.9948(4) -0.01325(19)
H16 H 0.0913 1.0696 0.0081
H17 H 0.1122 0.8765 -0.0125
H18 H 0.1298 1.0260 -0.0787
C14 C 0.16509(17) 1.0295(3) 0.42004(18)
C15 C 0.00410(16) 1.0933(4) 0.37154(19)
H19 H -0.0327 1.1919 0.3397
H20 H 0.0142 1.1029 0.4416
C16 C -0.04602(18) 0.9312(4) 0.3345(2)
H21 H -0.0543 0.9201 0.2656
H22 H -0.1052 0.9337 0.3450
H23 H -0.0111 0.8340 0.3689
N1 N 0.41112(12) 0.8320(2) 0.37271(14)
O1 O 0.23390(10) 0.9591(2) 0.14374(11)
O2 O 0.29109(15) 1.0703(3) 0.03208(14)
O3 O 0.17929(10) 0.7493(2) 0.31530(12)
O4 O 0.16259(13) 0.9784(3) 0.49798(13)
O5 O 0.09223(11) 1.0958(2) 0.35256(12)
loop_
_geom_bond_atom_site_label_1
_geom_bond_atom_site_label_2
_geom_bond_site_symmetry_1
_geom_bond_site_symmetry_2
C1 H1 1_555 1_555
H2 C1 1_555 1_555
C2 C1 1_555 1_555
H3 C2 1_555 1_555
H4 C2 1_555 1_555
C3 C2 1_555 1_555
H5 C3 1_555 1_555
H6 C3 1_555 1_555
C4 C3 1_555 1_555
C5 C4 1_555 1_555
H7 C5 1_555 1_555
C6 C5 1_555 1_555
H8 C6 1_555 1_555
H9 C6 1_555 1_555
C7 C6 1_555 1_555
H10 C7 1_555 1_555
H11 C7 1_555 1_555
C8 C7 1_555 1_555
C9 C8 1_555 1_555
H12 C9 1_555 1_555
H13 C9 1_555 1_555
C10 C9 1_555 1_555
H14 C10 1_555 1_555
H15 C10 1_555 1_555
C11 C4 1_555 1_555
C12 C13 1_555 1_555
C13 H16 1_555 1_555
H17 C13 1_555 1_555
H18 C13 1_555 1_555
C14 C8 1_555 1_555
C15 H19 1_555 1_555
H20 C15 1_555 1_555
C16 C15 1_555 1_555
H21 C16 1_555 1_555
H22 C16 1_555 1_555
H23 C16 1_555 1_555
N1 C1 1_555 1_555
O1 C5 1_555 1_555
O2 C12 1_555 1_555
O3 C11 1_555 1_555
O4 C14 1_555 1_555
O5 C14 1_555 1_555
C4 N1 1_555 1_555
C8 C11 1_555 1_555
C10 N1 1_555 1_555
C12 O1 1_555 1_555
C15 O5 1_555 1_555

#END
