
#######################################################################
#
#                 Cambridge Crystallographic Data Centre
#                                CCDC 
#
#######################################################################
#
# If this CIF has been generated from an entry in the Cambridge 
# Structural Database, then it will include bibliographic, chemical, 
# crystal, experimental, refinement or atomic coordinate data resulting 
# from the CCDC's data processing and validation procedures.
#
#######################################################################

data_XIHTAM
_chemical_formula_moiety         'F1 O3 P1 2-,2(H4 N1 1+)'
_chemical_name_systematic        'bis(ammonium) phosphorofluoridate'
_symmetry_cell_setting           orthorhombic
_symmetry_space_group_name_H-M   'P n a 21'
_symmetry_Int_Tables_number      33
_space_group_name_Hall           'P 2c -2n'
loop_
_symmetry_equiv_pos_site_id
_symmetry_equiv_pos_as_xyz
1 x,y,z
2 -x,-y,1/2+z
3 1/2+x,1/2-y,z
4 1/2-x,1/2+y,1/2+z
_cell_length_a                   7.9516(7)
_cell_length_b                   11.3364(10)
_cell_length_c                   6.0351(6)
_cell_angle_alpha                90
_cell_angle_beta                 90
_cell_angle_gamma                90
_cell_volume                     544.019
_exptl_crystal_colour            colorless
_exptl_crystal_description       block
_cell_formula_units_Z            4
loop_
_atom_site_label
_atom_site_type_symbol
_atom_site_fract_x
_atom_site_fract_y
_atom_site_fract_z
P1 P 0.68982(15) 0.37401(10) 0.3621(3)
F1 F 0.4996(4) 0.4172(3) 0.3684(10)
O1 O 0.6959(6) 0.2726(4) 0.5198(10)
O2 O 0.7863(5) 0.4831(4) 0.4335(9)
O3 O 0.7182(6) 0.3450(4) 0.1211(8)
N1 N 0.8589(5) 0.5398(4) 0.8751(11)
H1 H 0.8063 0.6074 0.8808
H2 H 0.8062 0.4976 0.7663
H3 H 0.8152 0.4916 0.9580
H4 H 0.9792 0.5345 0.8716
N2 N 0.9110(6) 0.1912(4) 0.8657(14)
H5 H 1.0026 0.1846 0.7811
H6 H 0.8554 0.2359 0.9735
H7 H 0.8388 0.2461 0.7699
H8 H 0.8351 0.1277 0.8717
loop_
_geom_bond_atom_site_label_1
_geom_bond_atom_site_label_2
_geom_bond_site_symmetry_1
_geom_bond_site_symmetry_2
P1 F1 1_555 1_555
O1 P1 1_555 1_555
O2 P1 1_555 1_555
O3 P1 1_555 1_555
N1 H1 1_555 1_555
H2 N1 1_555 1_555
H3 N1 1_555 1_555
H4 N1 1_555 1_555
N2 H5 1_555 1_555
H6 N2 1_555 1_555
H7 N2 1_555 1_555
H8 N2 1_555 1_555

#END
