
#######################################################################
#
#                 Cambridge Crystallographic Data Centre
#                                CCDC 
#
#######################################################################
#
# If this CIF has been generated from an entry in the Cambridge 
# Structural Database, then it will include bibliographic, chemical, 
# crystal, experimental, refinement or atomic coordinate data resulting 
# from the CCDC's data processing and validation procedures.
#
#######################################################################

data_XIHWER
_chemical_formula_moiety         'C24 H14 S4'
_chemical_name_systematic        
5,5'-bis(1-Benzothiophen-2-yl)-2,2'-bithiophene
_symmetry_cell_setting           triclinic
_symmetry_space_group_name_H-M   'P -1'
_symmetry_Int_Tables_number      2
_space_group_name_Hall           '-P 1'
loop_
_symmetry_equiv_pos_site_id
_symmetry_equiv_pos_as_xyz
1 x,y,z
2 -x,-y,-z
_cell_length_a                   5.8154(12)
_cell_length_b                   7.8650(17)
_cell_length_c                   21.083(5)
_cell_angle_alpha                92.403(4)
_cell_angle_beta                 95.412(4)
_cell_angle_gamma                92.123(4)
_cell_volume                     958.339
_exptl_crystal_colour            yellow
_chemical_melting_point          '336 deg.C'
_cell_formula_units_Z            2
_exptl_crystal_recrystallization_method sublimation
loop_
_atom_site_label
_atom_site_type_symbol
_atom_site_fract_x
_atom_site_fract_y
_atom_site_fract_z
S1 S 0.61057(18) 0.97637(15) 0.40363(5)
S2 S 0.2119(8) 0.6935(7) 0.2458(3)
C1 C 0.596(2) 0.8526(17) 0.2530(7)
C5 C 0.4534(7) 0.9628(5) 0.46902(19)
C6 C 0.2480(7) 0.8769(5) 0.4527(2)
H1 H 0.1394 0.8571 0.4815
C7 C 0.2154(7) 0.8209(5) 0.3885(2)
H2 H 0.0824 0.7616 0.3703
C8 C 0.3993(7) 0.8623(5) 0.3549(2)
C9 C 0.4258(6) 0.8183(5) 0.2890(2)
C10 C 0.3626(7) 0.6985(5) 0.1804(2)
C11 C 0.2794(8) 0.6174(6) 0.1219(2)
H3 H 0.1382 0.5566 0.1175
C12 C 0.4087(9) 0.6292(6) 0.0718(2)
H4 H 0.3541 0.5768 0.0326
C13 C 0.6212(9) 0.7184(6) 0.0780(2)
H5 H 0.7067 0.7245 0.0430
C14 C 0.7063(8) 0.7972(6) 0.1347(2)
H6 H 0.8487 0.8564 0.1386
C15 C 0.5768(7) 0.7873(5) 0.1865(2)
S1A S 0.38943(18) 1.02363(15) 0.59637(5)
S2A S 0.7881(8) 1.3065(7) 0.7542(3)
C1A C 0.404(2) 1.1474(17) 0.7470(7)
C5A C 0.5466(7) 1.0372(5) 0.53098(19)
C6A C 0.7520(7) 1.1231(5) 0.5473(2)
H1A H 0.8606 1.1429 0.5185
C7A C 0.7846(7) 1.1791(5) 0.6115(2)
H2A H 0.9176 1.2384 0.6297
C8A C 0.6007(7) 1.1377(5) 0.6451(2)
C9A C 0.5742(6) 1.1817(5) 0.7110(2)
C10A C 0.6374(7) 1.3015(5) 0.8196(2)
C11A C 0.7206(8) 1.3826(6) 0.8781(2)
H3A H 0.8618 1.4434 0.8825
C12A C 0.5913(9) 1.3708(6) 0.9282(2)
H4A H 0.6459 1.4232 0.9674
C13A C 0.3788(9) 1.2816(6) 0.9220(2)
H5A H 0.2933 1.2755 0.9570
C14A C 0.2937(8) 1.2028(6) 0.8653(2)
H6A H 0.1513 1.1436 0.8614
C15A C 0.4232(7) 1.2127(5) 0.8135(2)
S4 S 1.10617(18) 0.36919(15) 0.41451(5)
S5 S 0.7131(7) 0.3679(6) 0.2278(2)
C3 C 1.088(2) 0.2448(18) 0.2673(7)
C16 C 0.9509(7) 0.4835(5) 0.46707(19)
C17 C 0.7456(7) 0.5280(5) 0.4375(2)
H7 H 0.6376 0.5881 0.4581
C18 C 0.7118(7) 0.4745(5) 0.3728(2)
H8 H 0.5799 0.4962 0.3464
C19 C 0.8940(7) 0.3868(5) 0.3524(2)
C20 C 0.9211(6) 0.3230(5) 0.2883(2)
C21 C 0.8716(7) 0.2719(5) 0.1736(2)
C22 C 0.8045(8) 0.2608(6) 0.1076(2)
H9 H 0.6655 0.3045 0.0915
C23 C 0.9456(9) 0.1852(6) 0.0673(2)
H10 H 0.9008 0.1771 0.0237
C24 C 1.1537(8) 0.1208(6) 0.0904(2)
H11 H 1.2474 0.0707 0.0621
C25 C 1.2228(7) 0.1297(5) 0.1538(2)
H12 H 1.3634 0.0865 0.1688
C26 C 1.0813(7) 0.2043(5) 0.1965(2)
S4A S 0.89383(18) 0.63081(15) 0.58549(5)
S5A S 1.2869(7) 0.6321(6) 0.7722(2)
C3A C 0.912(2) 0.7552(18) 0.7327(7)
C16A C 1.0491(7) 0.5165(5) 0.53293(19)
C17A C 1.2544(7) 0.4720(5) 0.5625(2)
H7A H 1.3624 0.4119 0.5419
C18A C 1.2882(7) 0.5255(5) 0.6272(2)
H8A H 1.4201 0.5038 0.6536
C19A C 1.1060(7) 0.6132(5) 0.6476(2)
C20A C 1.0789(6) 0.6770(5) 0.7117(2)
C21A C 1.1284(7) 0.7281(5) 0.8264(2)
C22A C 1.1955(8) 0.7392(6) 0.8924(2)
H9A H 1.3345 0.6955 0.9085
C23A C 1.0544(9) 0.8148(6) 0.9327(2)
H10A H 1.0992 0.8229 0.9763
C24A C 0.8463(8) 0.8792(6) 0.9096(2)
H11A H 0.7526 0.9293 0.9379
C25A C 0.7772(7) 0.8703(5) 0.8462(2)
H12A H 0.6366 0.9135 0.8312
C26A C 0.9187(7) 0.7957(5) 0.8035(2)
S3? S 0.6717(6) 0.8846(4) 0.25690(17)
C2? C 0.252(4) 0.715(3) 0.2455(12)
S6? S 1.1649(6) 0.2167(4) 0.27492(18)
C4? C 0.755(3) 0.353(3) 0.2308(12)
loop_
_geom_bond_atom_site_label_1
_geom_bond_atom_site_label_2
_geom_bond_site_symmetry_1
_geom_bond_site_symmetry_2
S1 C5 1_555 1_555
S2 C9 1_555 1_555
C1 C9 1_555 1_555
S4 C16 1_555 1_555
S5 C20 1_555 1_555
C3 C20 1_555 1_555
C5 C6 1_555 1_555
C6 H1 1_555 1_555
C7 C6 1_555 1_555
H2 C7 1_555 1_555
C8 S1 1_555 1_555
C9 C8 1_555 1_555
C10 S2 1_555 1_555
C11 C10 1_555 1_555
H3 C11 1_555 1_555
C12 C11 1_555 1_555
H4 C12 1_555 1_555
C13 C12 1_555 1_555
H5 C13 1_555 1_555
C14 C13 1_555 1_555
H6 C14 1_555 1_555
C15 C1 1_555 1_555
C16 C17 1_555 1_555
C17 H7 1_555 1_555
C18 C17 1_555 1_555
H8 C18 1_555 1_555
C19 S4 1_555 1_555
C20 C19 1_555 1_555
C21 S5 1_555 1_555
C22 C21 1_555 1_555
H9 C22 1_555 1_555
C23 C22 1_555 1_555
H10 C23 1_555 1_555
C24 C23 1_555 1_555
H11 C24 1_555 1_555
C25 C24 1_555 1_555
H12 C25 1_555 1_555
C26 C3 1_555 1_555
S1A C5A 1_555 1_555
S2A C9A 1_555 1_555
C1A C9A 1_555 1_555
S4A C16A 1_555 1_555
S5A C20A 1_555 1_555
C3A C20A 1_555 1_555
C5A C5 1_555 1_555
C6A C5A 1_555 1_555
H1A C6A 1_555 1_555
C7A C6A 1_555 1_555
H2A C7A 1_555 1_555
C8A S1A 1_555 1_555
C9A C8A 1_555 1_555
C10A S2A 1_555 1_555
C11A C10A 1_555 1_555
H3A C11A 1_555 1_555
C12A C11A 1_555 1_555
H4A C12A 1_555 1_555
C13A C12A 1_555 1_555
H5A C13A 1_555 1_555
C14A C13A 1_555 1_555
H6A C14A 1_555 1_555
C15A C1A 1_555 1_555
C16A C16 1_555 1_555
C17A C16A 1_555 1_555
H7A C17A 1_555 1_555
C18A C17A 1_555 1_555
H8A C18A 1_555 1_555
C19A S4A 1_555 1_555
C20A C19A 1_555 1_555
C21A S5A 1_555 1_555
C22A C21A 1_555 1_555
H9A C22A 1_555 1_555
C23A C22A 1_555 1_555
H10A C23A 1_555 1_555
C24A C23A 1_555 1_555
H11A C24A 1_555 1_555
C25A C24A 1_555 1_555
H12A C25A 1_555 1_555
C26A C3A 1_555 1_555
C7 C8 1_555 1_555
C10 C15 1_555 1_555
C14 C15 1_555 1_555
C18 C19 1_555 1_555
C21 C26 1_555 1_555
C25 C26 1_555 1_555
C7A C8A 1_555 1_555
C10A C15A 1_555 1_555
C14A C15A 1_555 1_555
C18A C19A 1_555 1_555
C21A C26A 1_555 1_555
C25A C26A 1_555 1_555

#END
