
#######################################################################
#
#                 Cambridge Crystallographic Data Centre
#                                CCDC 
#
#######################################################################
#
# If this CIF has been generated from an entry in the Cambridge 
# Structural Database, then it will include bibliographic, chemical, 
# crystal, experimental, refinement or atomic coordinate data resulting 
# from the CCDC's data processing and validation procedures.
#
#######################################################################

data_XIHWAN
_chemical_formula_moiety         'C32 H20 S3'
_chemical_name_systematic        
5,5''-bis(Naphth-2-yl)-2,2':5',2''-terthiophene
_symmetry_cell_setting           monoclinic
_symmetry_space_group_name_H-M   'P 21/c'
_symmetry_Int_Tables_number      14
_space_group_name_Hall           '-P 2ybc'
loop_
_symmetry_equiv_pos_site_id
_symmetry_equiv_pos_as_xyz
1 x,y,z
2 -x,1/2+y,1/2-z
3 -x,-y,-z
4 x,1/2-y,1/2+z
_cell_length_a                   73.996(7)
_cell_length_b                   5.9169(5)
_cell_length_c                   7.8659(7)
_cell_angle_alpha                90
_cell_angle_beta                 92.564(2)
_cell_angle_gamma                90
_cell_volume                     3440.46
_exptl_crystal_colour            orange
_chemical_melting_point          '326 deg.C'
_cell_formula_units_Z            6
_exptl_crystal_recrystallization_method sublimation
loop_
_atom_site_label
_atom_site_type_symbol
_atom_site_fract_x
_atom_site_fract_y
_atom_site_fract_z
S1 S 0.21175(3) 0.6336(4) 0.5370(3)
S2 S 0.16573(3) 0.3336(4) 0.2505(3)
S3 S 0.11302(3) 0.6462(3) 0.1292(3)
C1 C 0.25008(12) 0.6992(16) 0.7119(11)
H1 H 0.2402 0.7991 0.7274
C2 C 0.26685(12) 0.7583(15) 0.7739(11)
H2 H 0.2685 0.8980 0.8321
C3 C 0.28179(12) 0.6144(15) 0.7528(10)
C4 C 0.30003(12) 0.6754(17) 0.8092(11)
H3 H 0.3022 0.8162 0.8644
C5 C 0.31420(12) 0.5324(19) 0.7837(13)
H4 H 0.3260 0.5727 0.8244
C6 C 0.31135(13) 0.3279(18) 0.6986(13)
H5 H 0.3213 0.2319 0.6793
C7 C 0.29417(12) 0.2633(17) 0.6419(12)
H6 H 0.2925 0.1228 0.5848
C8 C 0.27897(12) 0.4034(15) 0.6677(11)
C9 C 0.26120(11) 0.3482(15) 0.6038(10)
H7 H 0.2592 0.2089 0.5457
C10 C 0.24686(11) 0.4903(15) 0.6237(9)
C11 C 0.22911(10) 0.4352(14) 0.5495(10)
C12 C 0.22322(11) 0.2353(15) 0.4782(11)
H8 H 0.2305 0.1034 0.4757
C13 C 0.20534(11) 0.2437(15) 0.4091(11)
H9 H 0.1996 0.1193 0.3522
C14 C 0.19695(11) 0.4446(15) 0.4305(9)
C15 C 0.17921(10) 0.5152(15) 0.3720(10)
C16 C 0.16929(13) 0.7112(15) 0.4043(11)
H10 H 0.1741 0.8312 0.4727
C17 C 0.15221(11) 0.7169(15) 0.3303(10)
H11 H 0.1442 0.8415 0.3401
C18 C 0.14773(11) 0.5221(14) 0.2391(9)
C19 C 0.13113(9) 0.4605(13) 0.1485(9)
C20 C 0.12688(11) 0.2609(15) 0.0711(10)
H12 H 0.1350 0.1364 0.0684
C21 C 0.10897(11) 0.2570(15) -0.0061(10)
H13 H 0.1041 0.1304 -0.0664
C22 C 0.09990(10) 0.4488(13) 0.0152(9)
C23 C 0.08116(10) 0.5036(13) -0.0453(10)
C24 C 0.07157(9) 0.3556(14) -0.1433(9)
H14 H 0.0771 0.2185 -0.1768
C25 C 0.05292(10) 0.4021(13) -0.1986(9)
C26 C 0.04254(10) 0.2462(14) -0.2955(9)
H15 H 0.0475 0.1038 -0.3234
C27 C 0.02499(11) 0.2999(14) -0.3504(10)
H16 H 0.0182 0.1962 -0.4199
C28 C 0.01709(11) 0.5069(14) -0.3043(10)
H17 H 0.0050 0.5409 -0.3400
C29 C 0.02709(10) 0.6586(14) -0.2072(10)
H18 H 0.0218 0.7980 -0.1765
C30 C 0.04512(10) 0.6118(13) -0.1522(9)
C31 C 0.05570(10) 0.7655(13) -0.0546(9)
H19 H 0.0507 0.9077 -0.0257
C32 C 0.07318(10) 0.7131(14) -0.0003(9)
H20 H 0.0800 0.8180 0.0679
C33? C 0.39040(14) 0.7689(16) 0.6965(15)
H21? H 0.3852 0.9073 0.7319
C34? C 0.40851(14) 0.723(2) 0.7361(16)
H22? H 0.4157 0.8291 0.7986
C35? C 0.41604(11) 0.520(2) 0.6843(18)
C36? C 0.40546(12) 0.3640(19) 0.5929(16)
H23? H 0.4106 0.2257 0.5575
C37? C 0.38735(11) 0.4104(15) 0.5533(11)
C38? C 0.37981(11) 0.6129(14) 0.6051(12)
C39? C 0.36170(12) 0.6593(19) 0.5655(17)
H24? H 0.3565 0.7977 0.6009
C40? C 0.35112(12) 0.503(2) 0.4741(18)
H25? H 0.3387 0.5351 0.4470
C41? C 0.35865(15) 0.301(2) 0.4223(16)
H26? H 0.3514 0.1942 0.3598
C42? C 0.37676(15) 0.2544(17) 0.4619(14)
H27? H 0.3819 0.1161 0.4265
S4? S 0.44857(11) 0.6523(11) 0.8607(7)
C43? C 0.4448(3) 0.270(5) 0.710(3)
H28? H 0.4393 0.1449 0.6522
C44? C 0.4629(3) 0.283(5) 0.783(3)
H29? H 0.4715 0.1642 0.7780
C45? C 0.43554(16) 0.511(3) 0.7458(15)
C46? C 0.46653(17) 0.507(2) 0.8683(15)
C47? C 0.48418(14) 0.502(2) 0.9353(16)
S5? S 0.50183(10) 0.3431(10) 0.9560(8)
C48? C 0.4880(4) 0.715(5) 1.043(3)
C49? C 0.5064(3) 0.722(4) 1.115(3)
loop_
_geom_bond_atom_site_label_1
_geom_bond_atom_site_label_2
_geom_bond_site_symmetry_1
_geom_bond_site_symmetry_2
S1 C11 1_555 1_555
S2 C15 1_555 1_555
S3 C19 1_555 1_555
C1 H1 1_555 1_555
C2 C1 1_555 1_555
H2 C2 1_555 1_555
C3 C2 1_555 1_555
C4 C3 1_555 1_555
H3 C4 1_555 1_555
C5 C4 1_555 1_555
H4 C5 1_555 1_555
C6 C5 1_555 1_555
H5 C6 1_555 1_555
C7 C6 1_555 1_555
H6 C7 1_555 1_555
C8 C3 1_555 1_555
C9 C8 1_555 1_555
H7 C9 1_555 1_555
C10 C1 1_555 1_555
C11 C10 1_555 1_555
C12 C11 1_555 1_555
H8 C12 1_555 1_555
C13 C12 1_555 1_555
H9 C13 1_555 1_555
C14 S1 1_555 1_555
C15 C14 1_555 1_555
C16 C15 1_555 1_555
H10 C16 1_555 1_555
C17 C16 1_555 1_555
H11 C17 1_555 1_555
C18 S2 1_555 1_555
C19 C18 1_555 1_555
C20 C19 1_555 1_555
H12 C20 1_555 1_555
C21 C20 1_555 1_555
H13 C21 1_555 1_555
C22 S3 1_555 1_555
C23 C22 1_555 1_555
C24 C23 1_555 1_555
H14 C24 1_555 1_555
C25 C24 1_555 1_555
C26 C25 1_555 1_555
H15 C26 1_555 1_555
C27 C26 1_555 1_555
H16 C27 1_555 1_555
C28 C27 1_555 1_555
H17 C28 1_555 1_555
C29 C28 1_555 1_555
H18 C29 1_555 1_555
C30 C25 1_555 1_555
C31 C30 1_555 1_555
H19 C31 1_555 1_555
C32 C23 1_555 1_555
H20 C32 1_555 1_555
C7 C8 1_555 1_555
C9 C10 1_555 1_555
C13 C14 1_555 1_555
C17 C18 1_555 1_555
C21 C22 1_555 1_555
C29 C30 1_555 1_555
C31 C32 1_555 1_555

#END
