
#######################################################################
#
#                 Cambridge Crystallographic Data Centre
#                                CCDC 
#
#######################################################################
#
# If this CIF has been generated from an entry in the Cambridge 
# Structural Database, then it will include bibliographic, chemical, 
# crystal, experimental, refinement or atomic coordinate data resulting 
# from the CCDC's data processing and validation procedures.
#
#######################################################################

data_XIJFED
_chemical_formula_moiety         'C38 H36 N2'
_chemical_name_systematic        
5,11-Dibutyl-6,12-diphenyl-5,11-dihydroindolo[3,2-b]carbazole
_symmetry_cell_setting           monoclinic
_symmetry_space_group_name_H-M   'P 21/c'
_symmetry_Int_Tables_number      14
_space_group_name_Hall           '-P 2ybc'
loop_
_symmetry_equiv_pos_site_id
_symmetry_equiv_pos_as_xyz
1 x,y,z
2 -x,1/2+y,1/2-z
3 -x,-y,-z
4 x,1/2-y,1/2+z
_cell_length_a                   8.8613(18)
_cell_length_b                   15.781(3)
_cell_length_c                   10.632(2)
_cell_angle_alpha                90
_cell_angle_beta                 100.71(3)
_cell_angle_gamma                90
_cell_volume                     1460.88
_exptl_crystal_colour            colorless
_exptl_crystal_description       block
_cell_formula_units_Z            2
loop_
_atom_site_label
_atom_site_type_symbol
_atom_site_fract_x
_atom_site_fract_y
_atom_site_fract_z
N1 N 0.0539(2) 0.15515(10) 0.12234(16)
C1 C 0.1682(2) 0.18840(12) 0.0662(2)
C2 C 0.2397(3) 0.26734(14) 0.0871(2)
H1 H 0.2107 0.3059 0.1443
C3 C 0.3536(3) 0.28627(15) 0.0206(2)
H2 H 0.4031 0.3384 0.0337
C4 C 0.3971(3) 0.22971(14) -0.0655(2)
H3 H 0.4752 0.2444 -0.1090
C5 C 0.3264(2) 0.15212(12) -0.0876(2)
H4 H 0.3565 0.1145 -0.1456
C6 C 0.2097(2) 0.13059(11) -0.02248(19)
C7 C 0.1095(2) 0.05738(11) -0.02148(18)
C8 C 0.0145(2) 0.07482(11) 0.06919(19)
C9 C 0.0965(2) -0.01774(11) -0.09319(18)
C10 C 0.1994(2) -0.03092(11) -0.18777(19)
C11 C 0.3416(3) -0.06878(13) -0.1516(2)
H5 H 0.3729 -0.0875 -0.0679
C12 C 0.4376(3) -0.07892(16) -0.2392(3)
H6 H 0.5325 -0.1051 -0.2143
C13 C 0.3942(4) -0.05096(17) -0.3617(3)
H7 H 0.4595 -0.0579 -0.4199
C14 C 0.2539(3) -0.01242(16) -0.3994(2)
H8 H 0.2244 0.0069 -0.4830
C15 C 0.1566(3) -0.00238(14) -0.3126(2)
H9 H 0.0618 0.0237 -0.3382
C16 C -0.0073(3) 0.19916(13) 0.2228(2)
H10 H 0.0771 0.2261 0.2799
H11 H -0.0519 0.1576 0.2722
C17 C -0.1272(3) 0.26544(14) 0.1750(2)
H12 H -0.2111 0.2396 0.1158
H13 H -0.0824 0.3092 0.1294
C18 C -0.1888(3) 0.30511(16) 0.2865(3)
H14 H -0.2481 0.2628 0.3223
H15 H -0.1025 0.3207 0.3527
C19 C -0.2870(4) 0.38136(19) 0.2517(3)
H16 H -0.3207 0.4026 0.3265
H17 H -0.3746 0.3663 0.1882
H18 H -0.2287 0.4243 0.2181
N1B N -0.0539(2) -0.15515(10) -0.12234(16)
C1B C -0.1682(2) -0.18840(12) -0.0662(2)
C2B C -0.2397(3) -0.26734(14) -0.0871(2)
H1B H -0.2107 -0.3059 -0.1443
C3B C -0.3536(3) -0.28627(15) -0.0206(2)
H2B H -0.4031 -0.3384 -0.0337
C4B C -0.3971(3) -0.22971(14) 0.0655(2)
H3B H -0.4752 -0.2444 0.1090
C5B C -0.3264(2) -0.15212(12) 0.0876(2)
H4B H -0.3565 -0.1145 0.1456
C6B C -0.2097(2) -0.13059(11) 0.02248(19)
C7B C -0.1095(2) -0.05738(11) 0.02148(18)
C8B C -0.0145(2) -0.07482(11) -0.06919(19)
C9B C -0.0965(2) 0.01774(11) 0.09319(18)
C10B C -0.1994(2) 0.03092(11) 0.18777(19)
C11B C -0.3416(3) 0.06878(13) 0.1516(2)
H5B H -0.3729 0.0875 0.0679
C12B C -0.4376(3) 0.07892(16) 0.2392(3)
H6B H -0.5325 0.1051 0.2143
C13B C -0.3942(4) 0.05096(17) 0.3617(3)
H7B H -0.4595 0.0579 0.4199
C14B C -0.2539(3) 0.01242(16) 0.3994(2)
H8B H -0.2244 -0.0069 0.4830
C15B C -0.1566(3) 0.00238(14) 0.3126(2)
H9B H -0.0618 -0.0237 0.3382
C16B C 0.0073(3) -0.19916(13) -0.2228(2)
H10B H -0.0771 -0.2261 -0.2799
H11B H 0.0519 -0.1576 -0.2722
C17B C 0.1272(3) -0.26544(14) -0.1750(2)
H12B H 0.2111 -0.2396 -0.1158
H13B H 0.0824 -0.3092 -0.1294
C18B C 0.1888(3) -0.30511(16) -0.2865(3)
H14B H 0.2481 -0.2628 -0.3223
H15B H 0.1025 -0.3207 -0.3527
C19B C 0.2870(4) -0.38136(19) -0.2517(3)
H16B H 0.3207 -0.4026 -0.3265
H17B H 0.3746 -0.3663 -0.1882
H18B H 0.2287 -0.4243 -0.2181
loop_
_geom_bond_atom_site_label_1
_geom_bond_atom_site_label_2
_geom_bond_site_symmetry_1
_geom_bond_site_symmetry_2
N1 C1 1_555 1_555
C1 C2 1_555 1_555
C2 H1 1_555 1_555
C3 C2 1_555 1_555
H2 C3 1_555 1_555
C4 C3 1_555 1_555
H3 C4 1_555 1_555
C5 C4 1_555 1_555
H4 C5 1_555 1_555
C6 C1 1_555 1_555
C7 C6 1_555 1_555
C8 N1 1_555 1_555
C9 C7 1_555 1_555
C10 C9 1_555 1_555
C11 C10 1_555 1_555
H5 C11 1_555 1_555
C12 C11 1_555 1_555
H6 C12 1_555 1_555
C13 C12 1_555 1_555
H7 C13 1_555 1_555
C14 C13 1_555 1_555
H8 C14 1_555 1_555
C15 C10 1_555 1_555
H9 C15 1_555 1_555
C16 N1 1_555 1_555
H10 C16 1_555 1_555
H11 C16 1_555 1_555
C17 C16 1_555 1_555
H12 C17 1_555 1_555
H13 C17 1_555 1_555
C18 C17 1_555 1_555
H14 C18 1_555 1_555
H15 C18 1_555 1_555
C19 C18 1_555 1_555
H16 C19 1_555 1_555
H17 C19 1_555 1_555
H18 C19 1_555 1_555
N1B C1B 1_555 1_555
C1B C2B 1_555 1_555
C2B H1B 1_555 1_555
C3B C2B 1_555 1_555
H2B C3B 1_555 1_555
C4B C3B 1_555 1_555
H3B C4B 1_555 1_555
C5B C4B 1_555 1_555
H4B C5B 1_555 1_555
C6B C1B 1_555 1_555
C7B C6B 1_555 1_555
C8B C9 1_555 1_555
C9B C8 1_555 1_555
C10B C9B 1_555 1_555
C11B C10B 1_555 1_555
H5B C11B 1_555 1_555
C12B C11B 1_555 1_555
H6B C12B 1_555 1_555
C13B C12B 1_555 1_555
H7B C13B 1_555 1_555
C14B C13B 1_555 1_555
H8B C14B 1_555 1_555
C15B C10B 1_555 1_555
H9B C15B 1_555 1_555
C16B N1B 1_555 1_555
H10B C16B 1_555 1_555
H11B C16B 1_555 1_555
C17B C16B 1_555 1_555
H12B C17B 1_555 1_555
H13B C17B 1_555 1_555
C18B C17B 1_555 1_555
H14B C18B 1_555 1_555
H15B C18B 1_555 1_555
C19B C18B 1_555 1_555
H16B C19B 1_555 1_555
H17B C19B 1_555 1_555
H18B C19B 1_555 1_555
C5 C6 1_555 1_555
C7 C8 1_555 1_555
C14 C15 1_555 1_555
N1B C8B 1_555 1_555
C5B C6B 1_555 1_555
C7B C8B 1_555 1_555
C7B C9B 1_555 1_555
C14B C15B 1_555 1_555

#END
