
#######################################################################
#
#                 Cambridge Crystallographic Data Centre
#                                CCDC 
#
#######################################################################
#
# If this CIF has been generated from an entry in the Cambridge 
# Structural Database, then it will include bibliographic, chemical, 
# crystal, experimental, refinement or atomic coordinate data resulting 
# from the CCDC's data processing and validation procedures.
#
#######################################################################

data_XIJJOR
_chemical_formula_moiety         'C19 H19 Br1 O6'
_chemical_name_systematic        
'Dimethyl (8-(4-bromophenyl)-6-oxo-1-oxaspiro[4.4]non-3-en-2-yl)malonate'
_symmetry_cell_setting           triclinic
_symmetry_space_group_name_H-M   'P -1'
_symmetry_Int_Tables_number      2
_space_group_name_Hall           '-P 1'
loop_
_symmetry_equiv_pos_site_id
_symmetry_equiv_pos_as_xyz
1 x,y,z
2 -x,-y,-z
_cell_length_a                   9.6113(7)
_cell_length_b                   9.8739(6)
_cell_length_c                   12.3802(8)
_cell_angle_alpha                86.002(6)
_cell_angle_beta                 67.747(7)
_cell_angle_gamma                60.970(7)
_cell_volume                     941.286
_exptl_crystal_colour            colorless
_exptl_crystal_description       block
_cell_formula_units_Z            2
loop_
_atom_site_label
_atom_site_type_symbol
_atom_site_fract_x
_atom_site_fract_y
_atom_site_fract_z
Br1 Br 1.33713(4) -0.21749(4) 1.48857(3)
O1 O 1.2989(3) -0.2609(2) 0.7612(2)
O2 O 1.0766(2) 0.0680(2) 0.83531(16)
O3 O 1.0085(3) 0.2750(3) 0.53753(18)
O4 O 0.7774(3) 0.4881(2) 0.65899(19)
O5 O 0.8581(4) 0.4461(4) 0.9216(2)
O6 O 1.0469(3) 0.4537(2) 0.7511(2)
C1 C 1.3108(3) -0.1908(3) 0.8304(2)
C2 C 1.3875(4) -0.2586(3) 0.9198(2)
H1 H 1.5055 -0.3439 0.8819
H2 H 1.3197 -0.2977 0.9779
C3 C 1.3832(3) -0.1229(3) 0.9782(2)
H3 H 1.4902 -0.1209 0.9316
C4 C 1.2311(3) 0.0236(3) 0.9640(2)
H4 H 1.1216 0.0424 1.0251
H5 H 1.2430 0.1150 0.9681
C5 C 1.2412(3) -0.0126(2) 0.8428(2)
C6 C 1.3535(3) 0.0288(3) 0.7400(2)
H6 H 1.4664 0.0032 0.7254
C7 C 1.2692(3) 0.1062(3) 0.6742(2)
H7 H 1.3133 0.1440 0.6063
C8 C 1.0915(3) 0.1249(3) 0.7239(2)
H8 H 1.0869 0.0569 0.6729
C9 C 0.9366(3) 0.2893(3) 0.7467(2)
H9 H 0.8331 0.2821 0.7946
C10 C 0.9157(3) 0.3470(3) 0.6343(2)
C11 C 0.7352(5) 0.5585(4) 0.5607(3)
H10 H 0.8401 0.5339 0.4936
H11 H 0.6644 0.6699 0.5821
H12 H 0.6733 0.5180 0.5415
C12 C 0.9395(3) 0.4050(3) 0.8177(2)
C13 C 1.0590(6) 0.5658(4) 0.8113(5)
H13 H 1.1312 0.6008 0.7549
H14 H 1.1085 0.5172 0.8675
H15 H 0.9454 0.6537 0.8516
C14 C 1.3715(3) -0.1411(3) 1.1034(2)
C15 C 1.2459(3) -0.0235(3) 1.1983(2)
H16 H 1.1675 0.0715 1.1847
C16 C 1.2350(3) -0.0448(3) 1.3127(2)
H17 H 1.1511 0.0353 1.3750
C17 C 1.3502(3) -0.1861(3) 1.3326(2)
C18 C 1.4757(3) -0.3057(3) 1.2411(2)
H18 H 1.5520 -0.4012 1.2556
C19 C 1.4863(3) -0.2817(3) 1.1274(2)
H19 H 1.5724 -0.3615 1.0654
loop_
_geom_bond_atom_site_label_1
_geom_bond_atom_site_label_2
_geom_bond_site_symmetry_1
_geom_bond_site_symmetry_2
Br1 C17 1_555 1_555
O1 C1 1_555 1_555
O2 C5 1_555 1_555
O3 C10 1_555 1_555
O4 C10 1_555 1_555
O5 C12 1_555 1_555
O6 C12 1_555 1_555
C1 C2 1_555 1_555
C2 H1 1_555 1_555
H2 C2 1_555 1_555
C3 C2 1_555 1_555
H3 C3 1_555 1_555
C4 C3 1_555 1_555
H4 C4 1_555 1_555
H5 C4 1_555 1_555
C5 C1 1_555 1_555
C6 C5 1_555 1_555
H6 C6 1_555 1_555
C7 C6 1_555 1_555
H7 C7 1_555 1_555
C8 O2 1_555 1_555
H8 C8 1_555 1_555
C9 C8 1_555 1_555
H9 C9 1_555 1_555
C10 C9 1_555 1_555
C11 O4 1_555 1_555
H10 C11 1_555 1_555
H11 C11 1_555 1_555
H12 C11 1_555 1_555
C12 C9 1_555 1_555
C13 O6 1_555 1_555
H13 C13 1_555 1_555
H14 C13 1_555 1_555
H15 C13 1_555 1_555
C14 C3 1_555 1_555
C15 C14 1_555 1_555
H16 C15 1_555 1_555
C16 C15 1_555 1_555
H17 C16 1_555 1_555
C17 C16 1_555 1_555
C18 C17 1_555 1_555
H18 C18 1_555 1_555
C19 C14 1_555 1_555
H19 C19 1_555 1_555
C4 C5 1_555 1_555
C7 C8 1_555 1_555
C18 C19 1_555 1_555

#END
