
#######################################################################
#
#                 Cambridge Crystallographic Data Centre
#                                CCDC 
#
#######################################################################
#
# If this CIF has been generated from an entry in the Cambridge 
# Structural Database, then it will include bibliographic, chemical, 
# crystal, experimental, refinement or atomic coordinate data resulting 
# from the CCDC's data processing and validation procedures.
#
#######################################################################

data_XIJKOT
_chemical_formula_moiety         'C12 H12 O2'
_chemical_name_systematic        5-methyl-6-phenyl-5,6-dihydro-2H-pyran-2-one
_symmetry_cell_setting           orthorhombic
_symmetry_space_group_name_H-M   'P 21 21 21'
_symmetry_Int_Tables_number      19
_space_group_name_Hall           'P 2ac 2ab'
loop_
_symmetry_equiv_pos_site_id
_symmetry_equiv_pos_as_xyz
1 x,y,z
2 1/2-x,-y,1/2+z
3 -x,1/2+y,1/2-z
4 1/2+x,1/2-y,-z
_cell_length_a                   6.2869(4)
_cell_length_b                   10.2693(7)
_cell_length_c                   15.6666(11)
_cell_angle_alpha                90
_cell_angle_beta                 90
_cell_angle_gamma                90
_cell_volume                     1011.47
_exptl_crystal_colour            colorless
_exptl_crystal_description       needle
_cell_formula_units_Z            4
_exptl_crystal_recrystallization_method 
'Re-crystallisation from solvent: n-hexane'
loop_
_atom_site_label
_atom_site_type_symbol
_atom_site_fract_x
_atom_site_fract_y
_atom_site_fract_z
O1 O 0.8177(2) 0.74980(12) 0.39635(8)
O2 O 0.8761(2) 0.96005(14) 0.40637(10)
C1 C 0.7464(3) 0.87334(18) 0.40313(11)
C2 C 0.5155(3) 0.8941(2) 0.39989(12)
H1 H 0.4591 0.9771 0.4144
C3 C 0.3841(3) 0.7993(2) 0.37706(11)
H2 H 0.2371 0.8178 0.3702
C4 C 0.4629(3) 0.66393(19) 0.36194(11)
H3 H 0.3538 0.6024 0.3850
C5 C 0.6664(3) 0.64514(18) 0.41362(10)
H4 H 0.6282 0.6487 0.4755
C6 C 0.4866(3) 0.6366(2) 0.26655(11)
H5 H 0.5383 0.5474 0.2583
H6 H 0.3482 0.6466 0.2385
H7 H 0.5883 0.6981 0.2417
C7 C 0.7791(3) 0.51864(17) 0.39747(11)
C8 C 0.7119(3) 0.40809(18) 0.44162(12)
H8 H 0.5998 0.4147 0.4820
C9 C 0.8076(4) 0.28904(19) 0.42687(13)
H9 H 0.7600 0.2142 0.4569
C10 C 0.9720(4) 0.2780(2) 0.36875(12)
H10 H 1.0384 0.1962 0.3593
C11 C 1.0388(3) 0.3868(2) 0.32457(13)
H11 H 1.1514 0.3796 0.2844
C12 C 0.9430(3) 0.50674(19) 0.33841(12)
H12 H 0.9895 0.5810 0.3074
loop_
_geom_bond_atom_site_label_1
_geom_bond_atom_site_label_2
_geom_bond_site_symmetry_1
_geom_bond_site_symmetry_2
O1 C1 1_555 1_555
O2 C1 1_555 1_555
C1 C2 1_555 1_555
C2 H1 1_555 1_555
C3 C2 1_555 1_555
H2 C3 1_555 1_555
C4 C3 1_555 1_555
H3 C4 1_555 1_555
C5 O1 1_555 1_555
H4 C5 1_555 1_555
C6 C4 1_555 1_555
H5 C6 1_555 1_555
H6 C6 1_555 1_555
H7 C6 1_555 1_555
C7 C5 1_555 1_555
C8 C7 1_555 1_555
H8 C8 1_555 1_555
C9 C8 1_555 1_555
H9 C9 1_555 1_555
C10 C9 1_555 1_555
H10 C10 1_555 1_555
C11 C10 1_555 1_555
H11 C11 1_555 1_555
C12 C7 1_555 1_555
H12 C12 1_555 1_555
C4 C5 1_555 1_555
C11 C12 1_555 1_555

#END
