
#######################################################################
#
#                 Cambridge Crystallographic Data Centre
#                                CCDC 
#
#######################################################################
#
# If this CIF has been generated from an entry in the Cambridge 
# Structural Database, then it will include bibliographic, chemical, 
# crystal, experimental, refinement or atomic coordinate data resulting 
# from the CCDC's data processing and validation procedures.
#
#######################################################################

data_XIJKUZ
_chemical_formula_moiety         'C19 H20 O2'
_chemical_name_systematic        
5,6-dimethyl-6-[2-(naphthalen-2-yl)ethyl]-5,6-dihydro-2H-pyran-2-one
_symmetry_cell_setting           monoclinic
_symmetry_space_group_name_H-M   'P 21'
_symmetry_Int_Tables_number      4
_space_group_name_Hall           'P 2yb'
loop_
_symmetry_equiv_pos_site_id
_symmetry_equiv_pos_as_xyz
1 x,y,z
2 -x,1/2+y,-z
_cell_length_a                   6.7689(8)
_cell_length_b                   8.8057(11)
_cell_length_c                   13.1317(16)
_cell_angle_alpha                90
_cell_angle_beta                 104.738(4)
_cell_angle_gamma                90
_cell_volume                     756.962
_exptl_crystal_colour            colorless
_exptl_crystal_description       Plate
_cell_formula_units_Z            2
_exptl_crystal_recrystallization_method 
'Re-crystallisation from solvent: diethyl ether'
loop_
_atom_site_label
_atom_site_type_symbol
_atom_site_fract_x
_atom_site_fract_y
_atom_site_fract_z
O1 O 0.4347(2) 0.7250(2) 0.17334(11)
O2 O 0.1702(3) 0.8597(2) 0.08885(15)
C1 C 0.2385(4) 0.7350(3) 0.11567(17)
C2 C 0.1266(4) 0.5931(4) 0.08496(17)
H1 H -0.014287 0.597011 0.049402
C3 C 0.2171(4) 0.4598(3) 0.10554(19)
H2 H 0.139261 0.370367 0.083858
C4 C 0.4379(4) 0.4448(3) 0.1618(2)
H3 H 0.452402 0.353854 0.208807
C5 C 0.5073(3) 0.5846(3) 0.23191(16)
C6 C 0.5596(5) 0.4139(4) 0.0797(2)
H4 H 0.704966 0.403754 0.115306
H5 H 0.510717 0.319836 0.041786
H6 H 0.540727 0.498614 0.029719
C7 C 0.7375(4) 0.6049(3) 0.2638(2)
H7 H 0.801093 0.515948 0.303833
H8 H 0.788068 0.615870 0.200538
H9 H 0.772073 0.696056 0.307513
C8 C 0.4178(4) 0.5789(3) 0.32843(16)
H10 H 0.267239 0.572013 0.303525
H11 H 0.466664 0.485118 0.368575
C9 C 0.4719(5) 0.7145(4) 0.4029(2)
H12 H 0.617025 0.707037 0.442515
H13 H 0.454959 0.809291 0.361007
C10 C 0.3401(4) 0.7222(3) 0.47956(18)
C11 C 0.1619(4) 0.8127(3) 0.4575(2)
H14 H 0.130038 0.873328 0.395641
C12 C 0.0346(4) 0.8152(3) 0.5230(2)
H15 H -0.083022 0.878312 0.506488
C13 C 0.0752(4) 0.7251(3) 0.61497(18)
C14 C -0.0585(4) 0.7180(4) 0.6828(2)
H16 H -0.180039 0.776918 0.666952
C15 C -0.0151(5) 0.6282(3) 0.7697(2)
H17 H -0.107750 0.623201 0.813156
C16 C 0.1650(5) 0.5433(3) 0.7956(2)
H18 H 0.194251 0.481243 0.856772
C17 C 0.3002(4) 0.5484(3) 0.73360(18)
H19 H 0.423611 0.491902 0.753134
C18 C 0.2572(4) 0.6373(3) 0.64077(18)
C19 C 0.3873(4) 0.6389(3) 0.57110(19)
H20 H 0.509730 0.581057 0.588247
loop_
_geom_bond_atom_site_label_1
_geom_bond_atom_site_label_2
_geom_bond_site_symmetry_1
_geom_bond_site_symmetry_2
O1 C1 1_555 1_555
O2 C1 1_555 1_555
C1 C2 1_555 1_555
C2 H1 1_555 1_555
C3 C2 1_555 1_555
H2 C3 1_555 1_555
C4 C3 1_555 1_555
H3 C4 1_555 1_555
C5 O1 1_555 1_555
C6 C4 1_555 1_555
H4 C6 1_555 1_555
H5 C6 1_555 1_555
H6 C6 1_555 1_555
C7 C5 1_555 1_555
H7 C7 1_555 1_555
H8 C7 1_555 1_555
H9 C7 1_555 1_555
C8 C5 1_555 1_555
H10 C8 1_555 1_555
H11 C8 1_555 1_555
C9 C8 1_555 1_555
H12 C9 1_555 1_555
H13 C9 1_555 1_555
C10 C9 1_555 1_555
C11 C10 1_555 1_555
H14 C11 1_555 1_555
C12 C11 1_555 1_555
H15 C12 1_555 1_555
C13 C12 1_555 1_555
C14 C13 1_555 1_555
H16 C14 1_555 1_555
C15 C14 1_555 1_555
H17 C15 1_555 1_555
C16 C15 1_555 1_555
H18 C16 1_555 1_555
C17 C16 1_555 1_555
H19 C17 1_555 1_555
C18 C13 1_555 1_555
C19 C10 1_555 1_555
H20 C19 1_555 1_555
C4 C5 1_555 1_555
C17 C18 1_555 1_555
C18 C19 1_555 1_555

#END
