
#######################################################################
#
#                 Cambridge Crystallographic Data Centre
#                                CCDC 
#
#######################################################################
#
# If this CIF has been generated from an entry in the Cambridge 
# Structural Database, then it will include bibliographic, chemical, 
# crystal, experimental, refinement or atomic coordinate data resulting 
# from the CCDC's data processing and validation procedures.
#
#######################################################################

data_XIJLEJ
_chemical_formula_moiety         'C21 H32 O6'
_chemical_name_systematic        
'Dimethyl (6,6-diisobutyl-9-oxo-1-oxaspiro[4.4]non-3-en-2-yl)malonate'
_symmetry_cell_setting           orthorhombic
_symmetry_space_group_name_H-M   'P 21 21 21'
_symmetry_Int_Tables_number      19
_space_group_name_Hall           'P 2ac 2ab'
loop_
_symmetry_equiv_pos_site_id
_symmetry_equiv_pos_as_xyz
1 x,y,z
2 1/2-x,-y,1/2+z
3 1/2+x,1/2-y,-z
4 -x,1/2+y,1/2-z
_cell_length_a                   8.3138(7)
_cell_length_b                   11.6108(7)
_cell_length_c                   21.6486(14)
_cell_angle_alpha                90
_cell_angle_beta                 90
_cell_angle_gamma                90
_cell_volume                     2089.74
_exptl_crystal_colour            colorless
_exptl_crystal_description       plate
_cell_formula_units_Z            4
loop_
_atom_site_label
_atom_site_type_symbol
_atom_site_fract_x
_atom_site_fract_y
_atom_site_fract_z
O1 O 0.69797(14) 0.48331(9) 0.46221(5)
O2 O 0.6630(2) 0.28919(12) 0.53920(6)
O3 O 0.9138(2) 0.66909(15) 0.52136(7)
O4 O 0.90650(17) 0.58700(14) 0.61452(7)
O5 O 0.4380(2) 0.6532(2) 0.61656(10)
O6 O 0.62632(17) 0.77884(12) 0.58975(7)
C1 C 0.6194(2) 0.28519(14) 0.48630(8)
C2 C 0.5850(3) 0.17800(15) 0.44908(9)
H1 H 0.4959 0.1353 0.4667
H2 H 0.6788 0.1284 0.4475
C3 C 0.5425(2) 0.22272(14) 0.38504(9)
H3 H 0.4267 0.2287 0.3804
H4 H 0.5833 0.1710 0.3535
C4 C 0.62187(19) 0.34307(13) 0.37881(7)
C5 C 0.59235(18) 0.39204(13) 0.44486(7)
C6 C 0.42587(19) 0.43978(14) 0.45697(8)
H5 H 0.3301 0.4025 0.4474
C7 C 0.4368(2) 0.54218(15) 0.48304(8)
H6 H 0.3497 0.5871 0.4951
C8 C 0.6100(2) 0.57588(13) 0.49054(8)
H7 H 0.6310 0.6480 0.4685
C9 C 0.8069(2) 0.33672(15) 0.37025(8)
H8 H 0.8470 0.4151 0.3685
H9 H 0.8516 0.3019 0.4072
C10 C 0.8765(2) 0.27138(16) 0.31409(9)
H10 H 0.8012 0.2782 0.2794
C11 C 0.9058(3) 0.14387(18) 0.32732(12)
H11 H 0.9844 0.1363 0.3596
H12 H 0.9446 0.1067 0.2906
H13 H 0.8070 0.1084 0.3401
C12 C 1.0362(3) 0.3256(2) 0.29577(14)
H14 H 1.0195 0.4051 0.2853
H15 H 1.0795 0.2856 0.2607
H16 H 1.1102 0.3204 0.3297
C13 C 0.5365(2) 0.41006(15) 0.32736(8)
H17 H 0.4220 0.4072 0.3358
H18 H 0.5540 0.3686 0.2890
C14 C 0.5812(3) 0.53700(16) 0.31585(9)
H19 H 0.6312 0.5676 0.3534
C15 C 0.6984(4) 0.5510(3) 0.26288(14)
H20 H 0.7955 0.5094 0.2719
H21 H 0.7230 0.6312 0.2575
H22 H 0.6512 0.5213 0.2257
C16 C 0.4299(4) 0.6069(2) 0.30234(14)
H23 H 0.3715 0.5716 0.2691
H24 H 0.4596 0.6839 0.2909
H25 H 0.3634 0.6092 0.3386
C17 C 0.6651(2) 0.58675(14) 0.55837(8)
H26 H 0.6515 0.5118 0.5785
C18 C 0.8417(2) 0.61920(14) 0.56103(8)
C19 C 1.0742(3) 0.6153(2) 0.62266(13)
H27 H 1.1367 0.5774 0.5914
H28 H 1.1091 0.5901 0.6627
H29 H 1.0882 0.6971 0.6193
C20 C 0.5622(2) 0.67467(19) 0.59243(9)
C21 C 0.5313(3) 0.8713(2) 0.61598(13)
H30 H 0.4266 0.8718 0.5973
H31 H 0.5837 0.9436 0.6083
H32 H 0.5207 0.8598 0.6597
loop_
_geom_bond_atom_site_label_1
_geom_bond_atom_site_label_2
_geom_bond_site_symmetry_1
_geom_bond_site_symmetry_2
O1 C5 1_555 1_555
O2 C1 1_555 1_555
O3 C18 1_555 1_555
O4 C18 1_555 1_555
O5 C20 1_555 1_555
O6 C20 1_555 1_555
C1 C2 1_555 1_555
C2 H1 1_555 1_555
H2 C2 1_555 1_555
C3 C2 1_555 1_555
H3 C3 1_555 1_555
H4 C3 1_555 1_555
C4 C3 1_555 1_555
C5 C1 1_555 1_555
C6 C5 1_555 1_555
H5 C6 1_555 1_555
C7 C6 1_555 1_555
H6 C7 1_555 1_555
C8 O1 1_555 1_555
H7 C8 1_555 1_555
C9 C4 1_555 1_555
H8 C9 1_555 1_555
H9 C9 1_555 1_555
C10 C9 1_555 1_555
H10 C10 1_555 1_555
C11 C10 1_555 1_555
H11 C11 1_555 1_555
H12 C11 1_555 1_555
H13 C11 1_555 1_555
C12 C10 1_555 1_555
H14 C12 1_555 1_555
H15 C12 1_555 1_555
H16 C12 1_555 1_555
C13 C4 1_555 1_555
H17 C13 1_555 1_555
H18 C13 1_555 1_555
C14 C13 1_555 1_555
H19 C14 1_555 1_555
C15 C14 1_555 1_555
H20 C15 1_555 1_555
H21 C15 1_555 1_555
H22 C15 1_555 1_555
C16 C14 1_555 1_555
H23 C16 1_555 1_555
H24 C16 1_555 1_555
H25 C16 1_555 1_555
C17 C8 1_555 1_555
H26 C17 1_555 1_555
C18 C17 1_555 1_555
C19 O4 1_555 1_555
H27 C19 1_555 1_555
H28 C19 1_555 1_555
H29 C19 1_555 1_555
C20 C17 1_555 1_555
C21 O6 1_555 1_555
H30 C21 1_555 1_555
H31 C21 1_555 1_555
H32 C21 1_555 1_555
C4 C5 1_555 1_555
C7 C8 1_555 1_555

#END
