
#######################################################################
#
#                 Cambridge Crystallographic Data Centre
#                                CCDC 
#
#######################################################################
#
# If this CIF has been generated from an entry in the Cambridge 
# Structural Database, then it will include bibliographic, chemical, 
# crystal, experimental, refinement or atomic coordinate data resulting 
# from the CCDC's data processing and validation procedures.
#
#######################################################################

data_XIJLAF
_chemical_formula_moiety         'C25 H24 O6'
_chemical_name_systematic        
'Dimethyl (6-oxo-8,8-diphenyl-1-oxaspiro[4.4]non-3-en-2-yl)malonate'
_symmetry_cell_setting           triclinic
_symmetry_space_group_name_H-M   'P -1'
_symmetry_Int_Tables_number      2
_space_group_name_Hall           '-P 1'
loop_
_symmetry_equiv_pos_site_id
_symmetry_equiv_pos_as_xyz
1 x,y,z
2 -x,-y,-z
_cell_length_a                   9.5128(5)
_cell_length_b                   10.4645(4)
_cell_length_c                   12.5716(7)
_cell_angle_alpha                106.633(4)
_cell_angle_beta                 107.622(5)
_cell_angle_gamma                100.478(4)
_cell_volume                     1092.31
_exptl_crystal_colour            colorless
_exptl_crystal_description       plate
_cell_formula_units_Z            2
loop_
_atom_site_label
_atom_site_type_symbol
_atom_site_fract_x
_atom_site_fract_y
_atom_site_fract_z
O1 O -0.09308(13) 0.43734(11) 0.30354(9)
O2 O -0.23490(13) 0.13930(14) 0.23286(14)
O3 O -0.2824(2) 0.55828(14) 0.01719(11)
O4 O -0.16915(15) 0.78092(12) 0.13360(10)
O5 O 0.12806(14) 0.67286(15) 0.18803(11)
O6 O 0.13339(13) 0.74170(14) 0.37438(9)
C1 C -0.00934(16) 0.33617(14) 0.29292(12)
C2 C 0.13965(16) 0.38234(13) 0.40249(12)
H1 H 0.1291 0.4416 0.4729
H2 H 0.2250 0.4335 0.3898
C3 C 0.16714(14) 0.24583(12) 0.41819(11)
C4 C 0.00088(16) 0.16074(15) 0.39019(13)
H3 H -0.0110 0.0615 0.3607
H4 H -0.0239 0.1841 0.4614
C5 C -0.10151(16) 0.20020(15) 0.29589(13)
C6 C 0.00266(19) 0.31271(16) 0.17292(13)
H5 H 0.0591 0.2584 0.1429
C7 C -0.0771(2) 0.37909(16) 0.11628(13)
H6 H -0.0871 0.3771 0.0398
C8 C -0.14993(17) 0.45870(15) 0.19214(12)
H7 H -0.2623 0.4181 0.1550
C9 C 0.27470(15) 0.26721(14) 0.54395(12)
C10 C 0.37361(17) 0.39677(16) 0.62501(13)
H8 H 0.3729 0.4750 0.6039
C11 C 0.47359(19) 0.41135(19) 0.73713(15)
H9 H 0.5398 0.4988 0.7900
C12 C 0.4753(2) 0.2973(2) 0.77036(15)
H10 H 0.5423 0.3073 0.8455
C13 C 0.3767(2) 0.1678(2) 0.69141(15)
H11 H 0.3766 0.0903 0.7135
C14 C 0.27802(18) 0.15334(16) 0.57922(14)
H12 H 0.2126 0.0655 0.5265
C15 C 0.23764(15) 0.17670(13) 0.33025(11)
C16 C 0.37989(18) 0.25036(17) 0.33790(15)
H13 H 0.4274 0.3405 0.3943
C17 C 0.4529(2) 0.1942(2) 0.26465(17)
H14 H 0.5477 0.2467 0.2718
C18 C 0.3866(3) 0.0619(2) 0.18180(17)
H15 H 0.4363 0.0231 0.1331
C19 C 0.2455(3) -0.01336(19) 0.17108(17)
H16 H 0.1988 -0.1031 0.1139
C20 C 0.1709(2) 0.04327(15) 0.24512(15)
H17 H 0.0756 -0.0093 0.2370
C21 C -0.10869(16) 0.61646(14) 0.21896(11)
H18 H -0.1389 0.6606 0.2851
C22 C -0.19664(18) 0.64551(16) 0.11022(12)
C23 C -0.2523(3) 0.8209(2) 0.03752(19)
H19 H -0.2393 0.7723 -0.0346
H20 H -0.2128 0.9196 0.0585
H21 H -0.3599 0.7972 0.0248
C24 C 0.06294(17) 0.67960(15) 0.25594(12)
C25 C 0.2999(2) 0.7966(3) 0.41870(19)
H22 H 0.3269 0.8670 0.3875
H23 H 0.3428 0.7225 0.3934
H24 H 0.3404 0.8366 0.5047
loop_
_geom_bond_atom_site_label_1
_geom_bond_atom_site_label_2
_geom_bond_site_symmetry_1
_geom_bond_site_symmetry_2
O1 C1 1_555 1_555
O2 C5 1_555 1_555
O3 C22 1_555 1_555
O4 C22 1_555 1_555
O5 C24 1_555 1_555
O6 C24 1_555 1_555
C1 C2 1_555 1_555
C2 H1 1_555 1_555
H2 C2 1_555 1_555
C3 C2 1_555 1_555
C4 C3 1_555 1_555
H3 C4 1_555 1_555
H4 C4 1_555 1_555
C5 C1 1_555 1_555
C6 C1 1_555 1_555
H5 C6 1_555 1_555
C7 C6 1_555 1_555
H6 C7 1_555 1_555
C8 O1 1_555 1_555
H7 C8 1_555 1_555
C9 C3 1_555 1_555
C10 C9 1_555 1_555
H8 C10 1_555 1_555
C11 C10 1_555 1_555
H9 C11 1_555 1_555
C12 C11 1_555 1_555
H10 C12 1_555 1_555
C13 C12 1_555 1_555
H11 C13 1_555 1_555
C14 C9 1_555 1_555
H12 C14 1_555 1_555
C15 C3 1_555 1_555
C16 C15 1_555 1_555
H13 C16 1_555 1_555
C17 C16 1_555 1_555
H14 C17 1_555 1_555
C18 C17 1_555 1_555
H15 C18 1_555 1_555
C19 C18 1_555 1_555
H16 C19 1_555 1_555
C20 C15 1_555 1_555
H17 C20 1_555 1_555
C21 C8 1_555 1_555
H18 C21 1_555 1_555
C22 C21 1_555 1_555
C23 O4 1_555 1_555
H19 C23 1_555 1_555
H20 C23 1_555 1_555
H21 C23 1_555 1_555
C24 C21 1_555 1_555
C25 O6 1_555 1_555
H22 C25 1_555 1_555
H23 C25 1_555 1_555
H24 C25 1_555 1_555
C4 C5 1_555 1_555
C7 C8 1_555 1_555
C13 C14 1_555 1_555
C19 C20 1_555 1_555

#END
