
#######################################################################
#
#                 Cambridge Crystallographic Data Centre
#                                CCDC 
#
#######################################################################
#
# If this CIF has been generated from an entry in the Cambridge 
# Structural Database, then it will include bibliographic, chemical, 
# crystal, experimental, refinement or atomic coordinate data resulting 
# from the CCDC's data processing and validation procedures.
#
#######################################################################

data_XIJPEL
_chemical_formula_moiety         'C11 H14 O2'
_chemical_name_systematic        
pentacyclo(6.2.1.0^2,7^.0^4,10^.0^5,9^)undecane-endo-endo-3,6-diol
_symmetry_cell_setting           monoclinic
_symmetry_space_group_name_H-M   'C 2/c'
_symmetry_Int_Tables_number      15
_space_group_name_Hall           '-C 2yn'
loop_
_symmetry_equiv_pos_site_id
_symmetry_equiv_pos_as_xyz
1 x,y,z
2 1/2+x,1/2+y,z
3 x,-y,1/2+z
4 1/2+x,1/2-y,1/2+z
5 -x,-y,-z
6 1/2-x,1/2-y,-z
7 -x,y,1/2-z
8 1/2-x,1/2+y,1/2-z
_cell_length_a                   10.684(3)
_cell_length_b                   6.8169(16)
_cell_length_c                   24.090(6)
_cell_angle_alpha                90
_cell_angle_beta                 95.281(4)
_cell_angle_gamma                90
_cell_volume                     1747.07
_exptl_crystal_colour            colorless
_exptl_crystal_description       plate
_chemical_melting_point          273-275deg.C
_cell_formula_units_Z            8
_exptl_crystal_recrystallization_method water/acetone
loop_
_atom_site_label
_atom_site_type_symbol
_atom_site_fract_x
_atom_site_fract_y
_atom_site_fract_z
O1 O 0.15835(10) 0.05583(17) 0.71038(5)
H1 H 0.1774(18) 0.011(3) 0.7451(9)
O2 O 0.25485(12) 0.39489(17) 0.68890(5)
H2 H 0.214(2) 0.292(4) 0.7011(9)
C1 C 0.33528(17) -0.0370(3) 0.53552(7)
H3 H 0.2648 -0.0159 0.5078
H4 H 0.4034 -0.1016 0.5187
C2 C 0.37708(15) 0.1500(2) 0.56654(6)
H5 H 0.4085 0.2543 0.5435
C3 C 0.47065(13) 0.0762(2) 0.61476(7)
H6 H 0.5604 0.0822 0.6094
C4 C 0.41580(13) -0.1269(2) 0.62896(7)
H7 H 0.4736 -0.2387 0.6318
C5 C 0.29798(13) -0.1432(2) 0.58697(6)
H8 H 0.2653 -0.2764 0.5805
C6 C 0.20874(13) 0.0004(2) 0.61350(6)
H9 H 0.1209 -0.0153 0.5985
C7 C 0.26446(14) 0.2069(2) 0.59932(5)
H10 H 0.2032 0.2903 0.5776
C8 C 0.33161(15) 0.3137(2) 0.64926(6)
H11 H 0.3775 0.4232 0.6343
C9 C 0.42877(13) 0.1622(2) 0.66989(6)
H12 H 0.4968 0.2105 0.6964
C10 C 0.37324(13) -0.0424(2) 0.68412(6)
H13 H 0.4113 -0.1039 0.7184
C11 C 0.23083(12) -0.0572(2) 0.67468(6)
H14 H 0.2075 -0.1954 0.6781
loop_
_geom_bond_atom_site_label_1
_geom_bond_atom_site_label_2
_geom_bond_site_symmetry_1
_geom_bond_site_symmetry_2
O1 H1 1_555 1_555
O2 H2 1_555 1_555
C1 H3 1_555 1_555
H4 C1 1_555 1_555
C2 C1 1_555 1_555
H5 C2 1_555 1_555
C3 C2 1_555 1_555
H6 C3 1_555 1_555
C4 C3 1_555 1_555
H7 C4 1_555 1_555
C5 C1 1_555 1_555
H8 C5 1_555 1_555
C6 C5 1_555 1_555
H9 C6 1_555 1_555
C7 C2 1_555 1_555
H10 C7 1_555 1_555
C8 O2 1_555 1_555
H11 C8 1_555 1_555
C9 C3 1_555 1_555
H12 C9 1_555 1_555
C10 C4 1_555 1_555
H13 C10 1_555 1_555
C11 O1 1_555 1_555
H14 C11 1_555 1_555
C4 C5 1_555 1_555
C6 C11 1_555 1_555
C6 C7 1_555 1_555
C7 C8 1_555 1_555
C8 C9 1_555 1_555
C9 C10 1_555 1_555
C10 C11 1_555 1_555

#END
