
#######################################################################
#
#                 Cambridge Crystallographic Data Centre
#                                CCDC 
#
#######################################################################
#
# If this CIF has been generated from an entry in the Cambridge 
# Structural Database, then it will include bibliographic, chemical, 
# crystal, experimental, refinement or atomic coordinate data resulting 
# from the CCDC's data processing and validation procedures.
#
#######################################################################

data_XIJPUD
_chemical_name_common            "4'-Selenoadenosine hemihydrate"
_chemical_formula_moiety         'C10 H13 N5 O3 Se1,0.5(H2 O1)'
_chemical_name_systematic        
'2-(6-Amino-9H-purin-9-yl)-5-(hydroxymethyl)tetrahydroselenophene-3,4-diol hemihydrate'
_symmetry_cell_setting           orthorhombic
_symmetry_space_group_name_H-M   'P 21 21 21'
_symmetry_Int_Tables_number      19
_space_group_name_Hall           'P 2ac 2ab'
loop_
_symmetry_equiv_pos_site_id
_symmetry_equiv_pos_as_xyz
1 x,y,z
2 1/2-x,-y,1/2+z
3 -x,1/2+y,1/2-z
4 1/2+x,1/2-y,-z
_cell_length_a                   5.31720(16)
_cell_length_b                   16.4225(6)
_cell_length_c                   28.4575(10)
_cell_angle_alpha                90
_cell_angle_beta                 90
_cell_angle_gamma                90
_cell_volume                     2484.96
_exptl_crystal_colour            yellow
_exptl_crystal_description       block
_cell_formula_units_Z            8
loop_
_atom_site_label
_atom_site_type_symbol
_atom_site_fract_x
_atom_site_fract_y
_atom_site_fract_z
Se1 Se 0.67492(6) 0.142854(18) 0.913163(10)
O1 O 0.3106(5) 0.23832(14) 0.79905(7)
C1 C 0.3690(6) 0.21675(17) 0.84614(10)
O2 O 0.3103(6) 0.34042(15) 0.97367(9)
N1 N 0.4082(5) 0.06783(14) 0.83766(8)
N2 N 0.3689(5) -0.08556(15) 0.72766(8)
C2 C 0.5439(5) 0.14265(18) 0.84861(9)
N3 N 0.0936(5) -0.02310(15) 0.84193(9)
C3 C 0.3516(7) 0.2606(2) 0.95667(11)
C4 C 0.5629(6) 0.25739(17) 0.92108(10)
N4 N 0.5945(5) 0.02666(15) 0.76274(8)
C5 C 0.4953(6) 0.28740(18) 0.87170(10)
N5 N 0.0079(6) -0.14155(19) 0.75981(11)
O3 O 0.7199(4) 0.31431(14) 0.84930(8)
H1 H -0.010(11) -0.170(4) 0.7358(18)
H2 H 0.713(6) 0.2878(17) 0.9342(11)
H3 H 0.367(6) 0.3316(18) 0.8732(10)
H4 H 0.399(6) 0.2325(19) 0.9845(10)
H5 H -0.087(8) -0.146(2) 0.7811(14)
H6 H 0.672(7) -0.030(2) 0.7050(13)
H7 H 0.213(6) 0.2018(17) 0.8641(10)
H8 H 0.206(6) 0.2416(17) 0.9436(10)
H9 H 0.221(7) 0.363(2) 0.9537(14)
H10 H 0.231(8) 0.203(2) 0.7864(14)
H11 H 0.178(6) 0.0563(18) 0.8910(12)
H12 H 0.693(7) 0.339(2) 0.8270(13)
H13 H 0.676(6) 0.1437(18) 0.8273(10)
C6 C 0.5525(6) -0.0297(2) 0.72991(11)
C7 C 0.4248(6) 0.02066(17) 0.79768(10)
C8 C 0.2291(5) -0.03412(17) 0.80035(10)
C9 C 0.1971(6) -0.08821(17) 0.76280(10)
C10 C 0.2069(6) 0.03718(19) 0.86219(11)
Se2 Se -0.40398(5) -0.375274(18) 0.936591(12)
C11 C -0.1515(5) -0.35264(18) 0.88822(11)
N6 N 0.2466(5) -0.19522(15) 0.94274(9)
N7 N 0.0316(5) -0.29022(14) 0.90236(8)
O4 O 0.0431(5) -0.57077(14) 0.90717(10)
C12 C -0.2761(6) -0.48659(18) 0.94520(12)
C13 C -0.0252(6) -0.48884(19) 0.91883(12)
N8 N 0.5954(5) -0.18480(16) 0.82982(9)
N9 N 0.2544(5) -0.28195(16) 0.82750(9)
N10 N 0.6793(6) -0.10200(17) 0.89344(11)
C14 C -0.0313(6) -0.43454(19) 0.87576(11)
C15 C -0.2521(10) -0.5066(2) 0.99681(13)
O5 O -0.1803(6) -0.47461(16) 0.84199(9)
O6 O -0.0839(7) -0.45308(19) 1.02011(10)
H14 H -0.394(7) -0.521(2) 0.9279(11)
H15 H 0.509(6) -0.255(2) 0.7776(12)
H16 H -0.198(7) -0.562(2) 0.9983(12)
H17 H -0.447(7) -0.5118(19) 1.0142(11)
H18 H -0.048(9) -0.590(3) 0.8866(16)
H19 H -0.171(10) -0.445(3) 0.8191(15)
H20 H -0.159(12) -0.392(4) 1.022(2)
H21 H 0.110(6) -0.4676(19) 0.9379(11)
H22 H 0.652(8) -0.082(2) 0.9210(14)
H23 H -0.224(6) -0.329(2) 0.8608(12)
H24 H 0.138(6) -0.4254(17) 0.8633(10)
H25 H 0.800(9) -0.080(3) 0.8724(15)
H26 H -0.030(6) -0.263(2) 0.9721(12)
C16 C 0.4512(6) -0.2416(2) 0.80952(11)
C17 C 0.2100(6) -0.25919(17) 0.87218(10)
C18 C 0.3411(6) -0.20074(17) 0.89744(10)
C19 C 0.5410(5) -0.16132(18) 0.87425(11)
C20 C 0.0636(6) -0.24928(19) 0.94400(11)
O7 O 1.0229(5) 0.12786(19) 0.74067(10)
H27 H 0.941(11) 0.159(3) 0.7222(17)
H28 H 0.902(9) 0.109(3) 0.7490(17)
loop_
_geom_bond_atom_site_label_1
_geom_bond_atom_site_label_2
_geom_bond_site_symmetry_1
_geom_bond_site_symmetry_2
Se1 C2 1_555 1_555
O1 C1 1_555 1_555
C1 C2 1_555 1_555
O2 C3 1_555 1_555
N1 C2 1_555 1_555
N2 C6 1_555 1_555
C2 H13 1_555 1_555
N3 C8 1_555 1_555
C3 C4 1_555 1_555
C4 Se1 1_555 1_555
N4 C6 1_555 1_555
C5 C1 1_555 1_555
N5 H1 1_555 1_555
O3 C5 1_555 1_555
H2 C4 1_555 1_555
H3 C5 1_555 1_555
H4 C3 1_555 1_555
H5 N5 1_555 1_555
H6 C6 1_555 1_555
H7 C1 1_555 1_555
H8 C3 1_555 1_555
H9 O2 1_555 1_555
H10 O1 1_555 1_555
H11 C10 1_555 1_555
H12 O3 1_555 1_555
C7 N1 1_555 1_555
C8 C7 1_555 1_555
C9 N2 1_555 1_555
C10 N1 1_555 1_555
Se2 C11 1_555 1_555
C11 N7 1_555 1_555
N6 C18 1_555 1_555
N7 C17 1_555 1_555
O4 C13 1_555 1_555
C12 Se2 1_555 1_555
C13 C12 1_555 1_555
N8 C16 1_555 1_555
N9 C16 1_555 1_555
N10 H22 1_555 1_555
C14 C11 1_555 1_555
C15 C12 1_555 1_555
O5 C14 1_555 1_555
O6 C15 1_555 1_555
H14 C12 1_555 1_555
H15 C16 1_555 1_555
H16 C15 1_555 1_555
H17 C15 1_555 1_555
H18 O4 1_555 1_555
H19 O5 1_555 1_555
H20 O6 1_555 1_555
H21 C13 1_555 1_555
H23 C11 1_555 1_555
H24 C14 1_555 1_555
H25 N10 1_555 1_555
H26 C20 1_555 1_555
C17 N9 1_555 1_555
C18 C17 1_555 1_555
C19 N8 1_555 1_555
C20 N6 1_555 1_555
O7 H27 1_555 1_555
H28 O7 1_555 1_555
N3 C10 1_555 1_555
C4 C5 1_555 1_555
N4 C7 1_555 1_555
N5 C9 1_555 1_555
C8 C9 1_555 1_555
N7 C20 1_555 1_555
C13 C14 1_555 1_555
N10 C19 1_555 1_555
C18 C19 1_555 1_555

#END
