
#######################################################################
#
#                 Cambridge Crystallographic Data Centre
#                                CCDC 
#
#######################################################################
#
# If this CIF has been generated from an entry in the Cambridge 
# Structural Database, then it will include bibliographic, chemical, 
# crystal, experimental, refinement or atomic coordinate data resulting 
# from the CCDC's data processing and validation procedures.
#
#######################################################################

data_XIJPOV
_chemical_formula_moiety         
'C36 H38 N2 O4,C32 H28 N4 O4,2(C1 H1 Cl3),2(H2 O1)'
_chemical_name_systematic        
'(2)-(1,7,14,20-tetraaza-2,6,15,19-tetraoxo-3,5:9,12:16,18:22,25-tetrabenzocyclohexacosane)-(diphenylacetylglycyl-L-leucine 2,2-diphenylethyl ester) rotaxane chloroform solvate dihydrate'
_symmetry_cell_setting           monoclinic
_symmetry_space_group_name_H-M   'P 21'
_symmetry_Int_Tables_number      4
_space_group_name_Hall           'P 2yb'
loop_
_symmetry_equiv_pos_site_id
_symmetry_equiv_pos_as_xyz
1 x,y,z
2 -x,1/2+y,-z
_cell_length_a                   10.964(3)
_cell_length_b                   32.032(7)
_cell_length_c                   11.285(7)
_cell_angle_alpha                90
_cell_angle_beta                 117.72(4)
_cell_angle_gamma                90
_cell_volume                     3508.42
_exptl_crystal_colour            colorless
_exptl_crystal_description       prism
_chemical_melting_point          278-280deg.C
_cell_formula_units_Z            2
loop_
_atom_site_label
_atom_site_type_symbol
_atom_site_fract_x
_atom_site_fract_y
_atom_site_fract_z
Cl1 Cl 0.868(1) 0.0877(9) 0.431(1)
Cl2 Cl 0.600(1) 0.0801(7) 0.2470(9)
Cl3 Cl 0.783(1) 0.0828(7) 0.157(1)
C69 C 0.786(4) 0.108(1) 0.312(4)
H67 H 0.7670 0.1428 0.2808
Cl4 Cl 0.8681(9) 0.5224(7) 0.671(2)
Cl5 Cl 0.769(2) 0.5384(7) 0.838(1)
Cl6 Cl 0.6276(9) 0.4938(7) 0.622(1)
C70 C 0.799(3) 0.497(1) 0.759(3)
H68 H 0.8521 0.4721 0.8173
O1 O 1.5479(8) 0.3914(7) 0.7090(8)
O2 O 0.9709(8) 0.4200(7) 0.8231(9)
O3 O 0.3115(9) 0.3027(7) -0.2107(9)
O4 O 0.8873(9) 0.2706(7) -0.3187(9)
N1 N 1.345(1) 0.3734(7) 0.541(1)
N2 N 0.9295(9) 0.3944(7) 0.6182(9)
N3 N 0.517(1) 0.3231(7) -0.046(1)
N4 N 0.934(1) 0.2910(7) -0.115(1)
C1 C 1.410(2) 0.3484(8) 0.472(2)
C2 C 1.424(1) 0.3925(8) 0.659(1)
C3 C 1.351(2) 0.4144(8) 0.725(1)
C4 C 1.216(1) 0.4030(7) 0.698(1)
C5 C 1.150(1) 0.4234(8) 0.763(1)
C6 C 1.215(2) 0.4552(8) 0.845(1)
C7 C 1.356(2) 0.4701(8) 0.885(1)
C8 C 1.418(2) 0.4464(9) 0.824(2)
C9 C 1.007(1) 0.4124(8) 0.732(1)
C10 C 0.786(1) 0.3830(8) 0.579(1)
C11 C 0.710(1) 0.3725(8) 0.439(1)
C12 C 0.667(1) 0.4020(8) 0.346(1)
C13 C 0.584(1) 0.3925(8) 0.209(2)
C14 C 0.551(1) 0.3568(8) 0.165(1)
C15 C 0.585(1) 0.3269(8) 0.242(1)
C16 C 0.674(1) 0.3343(8) 0.393(1)
C17 C 0.456(1) 0.3472(8) 0.019(1)
C18 C 0.438(2) 0.3055(8) -0.163(2)
C19 C 0.511(1) 0.2773(8) -0.221(1)
C20 C 0.646(1) 0.2917(8) -0.201(1)
C21 C 0.706(2) 0.2647(8) -0.263(1)
C22 C 0.645(2) 0.2300(8) -0.333(1)
C23 C 0.515(2) 0.2161(9) -0.344(2)
C24 C 0.452(2) 0.2449(9) -0.295(2)
C25 C 0.858(2) 0.2730(8) -0.230(2)
C26 C 1.075(2) 0.3080(8) -0.078(1)
C27 C 1.157(1) 0.3198(8) 0.069(1)
C28 C 1.185(1) 0.3603(8) 0.088(1)
C29 C 1.261(1) 0.3707(8) 0.222(2)
C30 C 1.311(1) 0.3411(8) 0.326(1)
C31 C 1.279(1) 0.2993(8) 0.300(1)
C32 C 1.194(2) 0.2870(8) 0.160(2)
H1 H 1.4768 0.3646 0.4677
H2 H 1.4302 0.3234 0.5068
H3 H 1.2462 0.3753 0.5050
H4 H 1.1780 0.3790 0.6473
H5 H 1.1598 0.4729 0.8747
H6 H 1.3965 0.4952 0.9409
H7 H 1.5155 0.4457 0.8694
H8 H 0.9751 0.3856 0.5650
H9 H 0.7422 0.4086 0.5894
H10 H 0.7808 0.3622 0.6277
H11 H 0.6860 0.4313 0.3730
H12 H 0.5655 0.4177 0.1521
H13 H 0.5545 0.3019 0.2041
H14 H 0.6970 0.3124 0.4549
H15 H 0.3810 0.3336 0.0080
H16 H 0.4305 0.3739 -0.0331
H17 H 0.6176 0.3192 -0.0043
H18 H 0.7036 0.3149 -0.1411
H19 H 0.6986 0.2155 -0.3622
H20 H 0.4833 0.1905 -0.3781
H21 H 0.3493 0.2428 -0.3373
H22 H 0.8999 0.2955 -0.0487
H23 H 1.0669 0.3316 -0.1326
H24 H 1.1249 0.2868 -0.0910
H25 H 1.1575 0.3835 0.0181
H26 H 1.2834 0.4020 0.2512
H27 H 1.3169 0.2814 0.3730
H28 H 1.1729 0.2582 0.1312
O5 O 0.826(1) 0.2826(7) 0.0795(8)
O6 O 1.0179(9) 0.3927(7) 0.4033(9)
O7 O 0.693(1) 0.4842(7) 0.114(1)
O8 O 0.793(1) 0.5201(8) 0.305(1)
N5 N 0.925(1) 0.3179(8) 0.274(1)
N6 N 0.912(1) 0.4300(8) 0.207(1)
C33 C 0.886(1) 0.2447(8) 0.291(1)
C34 C 0.879(1) 0.2848(8) 0.208(1)
C35 C 0.920(1) 0.3549(9) 0.203(1)
C36 C 0.949(1) 0.3941(8) 0.280(2)
C37 C 0.934(1) 0.4680(9) 0.266(1)
C38 C 0.795(2) 0.4920(9) 0.227(2)
C39 C 0.660(2) 0.5384(9) 0.260(2)
C40 C 0.692(2) 0.5757(9) 0.321(2)
C41 C 1.016(2) 0.4982(9) 0.222(2)
C42 C 1.168(3) 0.477(1) 0.269(3)
C43 C 1.220(2) 0.504(1) 0.174(2)
C44 C 1.233(2) 0.485(1) 0.403(2)
C45 C 0.742(2) 0.2250(8) 0.243(2)
C46 C 0.644(2) 0.2205(8) 0.118(1)
C47 C 0.515(2) 0.2018(9) 0.090(1)
C48 C 0.494(2) 0.1957(8) 0.200(2)
C49 C 0.587(2) 0.2016(9) 0.324(2)
C50 C 0.716(2) 0.2160(8) 0.356(2)
C51 C 0.986(2) 0.2125(8) 0.270(2)
C52 C 0.948(2) 0.192(1) 0.160(2)
C53 C 1.039(2) 0.164(1) 0.135(2)
C54 C 1.155(2) 0.1548(8) 0.244(2)
C55 C 1.191(2) 0.1773(9) 0.350(2)
C56 C 1.112(2) 0.2074(9) 0.367(2)
C57 C 0.550(2) 0.602(1) 0.311(3)
C58 C 0.511(2) 0.5970(9) 0.417(2)
C59 C 0.374(3) 0.610(1) 0.388(2)
C60 C 0.293(2) 0.628(1) 0.274(3)
C61 C 0.312(3) 0.630(1) 0.160(2)
C62 C 0.444(3) 0.620(1) 0.186(3)
C63 C 0.761(2) 0.6127(9) 0.271(2)
C64 C 0.762(2) 0.6024(9) 0.152(2)
C65 C 0.821(2) 0.635(1) 0.092(2)
C66 C 0.887(2) 0.669(1) 0.175(3)
C67 C 0.888(2) 0.675(1) 0.277(2)
C68 C 0.827(2) 0.650(1) 0.342(2)
H29 H 0.9281 0.2538 0.3810
H30 H 0.9634 0.3222 0.3708
H31 H 0.9892 0.3546 0.1743
H32 H 0.8337 0.3595 0.1324
H33 H 0.8614 0.4275 0.1103
H34 H 0.9792 0.4621 0.3549
H35 H 0.6124 0.5437 0.1679
H36 H 0.6064 0.5239 0.2906
H37 H 0.7543 0.5730 0.4191
H38 H 0.9661 0.5077 0.1400
H39 H 1.0324 0.5225 0.2878
H40 H 1.1542 0.4496 0.2335
H41 H 1.1554 0.5048 0.0844
H42 H 1.2117 0.5360 0.2033
H43 H 1.3050 0.5002 0.1987
H44 H 1.3319 0.4776 0.4269
H45 H 1.2387 0.5157 0.4128
H46 H 1.2010 0.4719 0.4451
H47 H 0.6556 0.2331 0.0469
H48 H 0.4428 0.1987 0.0077
H49 H 0.4054 0.1851 0.1788
H50 H 0.5630 0.1954 0.3969
H51 H 0.7745 0.2256 0.4473
H52 H 0.8645 0.2031 0.0846
H53 H 1.0112 0.1555 0.0364
H54 H 1.1987 0.1287 0.2545
H55 H 1.2847 0.1772 0.4068
H56 H 1.1438 0.2274 0.4433
H57 H 0.5799 0.5853 0.4895
H58 H 0.3618 0.6135 0.4666
H59 H 0.2022 0.6298 0.2593
H60 H 0.2403 0.6473 0.0702
H61 H 0.4511 0.6266 0.1075
H62 H 0.7229 0.5797 0.1055
H63 H 0.8209 0.6321 0.0079
H64 H 0.9180 0.6957 0.1401
H65 H 0.9520 0.6979 0.3327
H66 H 0.8305 0.6560 0.4321
O9 O 0.7904(8) 0.4099(7) 0.9237(8)
O10 O 0.0522(9) 0.2983(7) 0.5662(7)
loop_
_geom_bond_atom_site_label_1
_geom_bond_atom_site_label_2
_geom_bond_site_symmetry_1
_geom_bond_site_symmetry_2
Cl1 C69 1_555 1_555
Cl2 C69 1_555 1_555
Cl3 C69 1_555 1_555
Cl4 C70 1_555 1_555
Cl5 C70 1_555 1_555
Cl6 C70 1_555 1_555
O1 C2 1_555 1_555
O2 C9 1_555 1_555
O3 C18 1_555 1_555
O4 C25 1_555 1_555
O5 C34 1_555 1_555
O6 C36 1_555 1_555
O7 C38 1_555 1_555
O8 C38 1_555 1_555
N1 C1 1_555 1_555
N2 C9 1_555 1_555
N3 C17 1_555 1_555
N4 C25 1_555 1_555
N5 C34 1_555 1_555
N6 C36 1_555 1_555
C1 C30 1_555 1_555
C2 N1 1_555 1_555
C3 C2 1_555 1_555
C4 C3 1_555 1_555
C5 C4 1_555 1_555
C6 C5 1_555 1_555
C7 C6 1_555 1_555
C8 C3 1_555 1_555
C9 C5 1_555 1_555
C10 N2 1_555 1_555
C11 C10 1_555 1_555
C12 C11 1_555 1_555
C13 C12 1_555 1_555
C14 C13 1_555 1_555
C15 C14 1_555 1_555
C16 C11 1_555 1_555
C17 C14 1_555 1_555
C18 N3 1_555 1_555
C19 C18 1_555 1_555
C20 C19 1_555 1_555
C21 C20 1_555 1_555
C22 C21 1_555 1_555
C23 C22 1_555 1_555
C24 C19 1_555 1_555
C25 C21 1_555 1_555
C26 N4 1_555 1_555
C27 C26 1_555 1_555
C28 C27 1_555 1_555
C29 C28 1_555 1_555
C30 C29 1_555 1_555
C31 C30 1_555 1_555
C32 C27 1_555 1_555
C33 C34 1_555 1_555
C35 N5 1_555 1_555
C36 C35 1_555 1_555
C37 N6 1_555 1_555
C38 C37 1_555 1_555
C39 O8 1_555 1_555
C40 C39 1_555 1_555
C41 C37 1_555 1_555
C42 C41 1_555 1_555
C43 C42 1_555 1_555
C44 C42 1_555 1_555
C45 C33 1_555 1_555
C46 C45 1_555 1_555
C47 C46 1_555 1_555
C48 C47 1_555 1_555
C49 C48 1_555 1_555
C50 C45 1_555 1_555
C51 C33 1_555 1_555
C52 C51 1_555 1_555
C53 C52 1_555 1_555
C54 C53 1_555 1_555
C55 C54 1_555 1_555
C56 C51 1_555 1_555
C57 C40 1_555 1_555
C58 C57 1_555 1_555
C59 C58 1_555 1_555
C60 C59 1_555 1_555
C61 C60 1_555 1_555
C62 C57 1_555 1_555
C63 C40 1_555 1_555
C64 C63 1_555 1_555
C65 C64 1_555 1_555
C66 C65 1_555 1_555
C67 C66 1_555 1_555
C68 C63 1_555 1_555
C69 H67 1_555 1_555
C70 H68 1_555 1_555
H1 C1 1_555 1_555
H2 C1 1_555 1_555
H3 N1 1_555 1_555
H4 C4 1_555 1_555
H5 C6 1_555 1_555
H6 C7 1_555 1_555
H7 C8 1_555 1_555
H8 N2 1_555 1_555
H9 C10 1_555 1_555
H10 C10 1_555 1_555
H11 C12 1_555 1_555
H12 C13 1_555 1_555
H13 C15 1_555 1_555
H14 C16 1_555 1_555
H15 C17 1_555 1_555
H16 C17 1_555 1_555
H17 N3 1_555 1_555
H18 C20 1_555 1_555
H19 C22 1_555 1_555
H20 C23 1_555 1_555
H21 C24 1_555 1_555
H22 N4 1_555 1_555
H23 C26 1_555 1_555
H24 C26 1_555 1_555
H25 C28 1_555 1_555
H26 C29 1_555 1_555
H27 C31 1_555 1_555
H28 C32 1_555 1_555
H29 C33 1_555 1_555
H30 N5 1_555 1_555
H31 C35 1_555 1_555
H32 C35 1_555 1_555
H33 N6 1_555 1_555
H34 C37 1_555 1_555
H35 C39 1_555 1_555
H36 C39 1_555 1_555
H37 C40 1_555 1_555
H38 C41 1_555 1_555
H39 C41 1_555 1_555
H40 C42 1_555 1_555
H41 C43 1_555 1_555
H42 C43 1_555 1_555
H43 C43 1_555 1_555
H44 C44 1_555 1_555
H45 C44 1_555 1_555
H46 C44 1_555 1_555
H47 C46 1_555 1_555
H48 C47 1_555 1_555
H49 C48 1_555 1_555
H50 C49 1_555 1_555
H51 C50 1_555 1_555
H52 C52 1_555 1_555
H53 C53 1_555 1_555
H54 C54 1_555 1_555
H55 C55 1_555 1_555
H56 C56 1_555 1_555
H57 C58 1_555 1_555
H58 C59 1_555 1_555
H59 C60 1_555 1_555
H60 C61 1_555 1_555
H61 C62 1_555 1_555
H62 C64 1_555 1_555
H63 C65 1_555 1_555
H64 C66 1_555 1_555
H65 C67 1_555 1_555
H66 C68 1_555 1_555
C7 C8 1_555 1_555
C15 C16 1_555 1_555
C23 C24 1_555 1_555
C31 C32 1_555 1_555
C49 C50 1_555 1_555
C55 C56 1_555 1_555
C61 C62 1_555 1_555
C67 C68 1_555 1_555

#END
