
#######################################################################
#
#                 Cambridge Crystallographic Data Centre
#                                CCDC 
#
#######################################################################
#
# If this CIF has been generated from an entry in the Cambridge 
# Structural Database, then it will include bibliographic, chemical, 
# crystal, experimental, refinement or atomic coordinate data resulting 
# from the CCDC's data processing and validation procedures.
#
#######################################################################

data_XIJQEO
_chemical_formula_moiety         'C10 H11 Cl1 N4 O3 Se1'
_chemical_name_systematic        
2-(6-Chloro-9H-purin-9-yl)-5-(hydroxymethyl)tetrahydroselenophene-3,4-diol
_symmetry_cell_setting           orthorhombic
_symmetry_space_group_name_H-M   'P 21 21 21'
_symmetry_Int_Tables_number      19
_space_group_name_Hall           'P 2ac 2ab'
loop_
_symmetry_equiv_pos_site_id
_symmetry_equiv_pos_as_xyz
1 x,y,z
2 1/2-x,-y,1/2+z
3 1/2+x,1/2-y,-z
4 -x,1/2+y,1/2-z
_cell_length_a                   5.63921(18)
_cell_length_b                   11.0395(5)
_cell_length_c                   19.8018(7)
_cell_angle_alpha                90
_cell_angle_beta                 90
_cell_angle_gamma                90
_cell_volume                     1232.74
_exptl_crystal_colour            colorless
_exptl_crystal_description       block
_chemical_melting_point          '196 deg.C (dec.)'
_cell_formula_units_Z            4
loop_
_atom_site_label
_atom_site_type_symbol
_atom_site_fract_x
_atom_site_fract_y
_atom_site_fract_z
Se1 Se 0.37541(3) 0.074072(18) 0.295665(9)
Cl1 Cl 1.09010(9) -0.46678(5) 0.35440(3)
C1 C 0.4663(3) 0.00610(18) 0.38433(9)
C2 C 0.5557(3) 0.11366(19) 0.42567(10)
C3 C 0.4023(4) 0.22309(19) 0.40917(10)
C4 C 0.6207(4) 0.3021(2) 0.30517(10)
C5 C 0.8350(3) -0.2635(2) 0.37257(9)
C6 C 0.8366(3) -0.0839(2) 0.33414(12)
C7 C 0.5393(4) -0.3690(2) 0.45848(12)
C8 C 0.6398(3) -0.20483(17) 0.40157(9)
C9 C 0.4024(3) 0.23873(17) 0.33312(10)
C10 C 0.8639(3) -0.38250(19) 0.39006(9)
N1 N 0.7199(3) -0.43633(17) 0.43371(10)
N2 N 0.4873(3) -0.25408(17) 0.44470(9)
N3 N 0.9573(3) -0.18560(18) 0.33022(10)
N4 N 0.6455(3) -0.08863(14) 0.37652(8)
O1 O 0.1698(3) 0.19942(17) 0.43448(9)
O2 O 0.6030(3) 0.30350(16) 0.23418(8)
O3 O 0.5667(3) 0.08646(16) 0.49573(8)
H1 H 0.774(4) 0.256(2) 0.3166(11)
H2 H 0.262(4) 0.275(2) 0.3175(11)
H3 H 0.443(4) -0.412(3) 0.4892(14)
H4 H 0.326(4) -0.034(2) 0.4040(10)
H5 H 0.871(4) -0.015(3) 0.3095(12)
H6 H 0.628(5) 0.383(3) 0.3274(14)
H7 H 0.731(4) 0.138(2) 0.4148(11)
H8 H 0.471(4) 0.292(2) 0.4316(13)
H9 H 0.145(5) 0.256(3) 0.4505(14)
H10 H 0.455(5) 0.063(3) 0.5057(18)
H11 H 0.722(5) 0.300(3) 0.2165(15)
loop_
_geom_bond_atom_site_label_1
_geom_bond_atom_site_label_2
_geom_bond_site_symmetry_1
_geom_bond_site_symmetry_2
Se1 C1 1_555 1_555
Cl1 C10 1_555 1_555
C1 C2 1_555 1_555
C2 C3 1_555 1_555
C3 C9 1_555 1_555
C4 C9 1_555 1_555
C5 C8 1_555 1_555
C6 N3 1_555 1_555
C7 N1 1_555 1_555
C8 N2 1_555 1_555
C9 Se1 1_555 1_555
C10 C5 1_555 1_555
N1 C10 1_555 1_555
N2 C7 1_555 1_555
N3 C5 1_555 1_555
N4 C1 1_555 1_555
O1 C3 1_555 1_555
O2 C4 1_555 1_555
O3 C2 1_555 1_555
H1 C4 1_555 1_555
H2 C9 1_555 1_555
H3 C7 1_555 1_555
H4 C1 1_555 1_555
H5 C6 1_555 1_555
H6 C4 1_555 1_555
H7 C2 1_555 1_555
H8 C3 1_555 1_555
H9 O1 1_555 1_555
H10 O3 1_555 1_555
H11 O2 1_555 1_555
C6 N4 1_555 1_555
C8 N4 1_555 1_555

#END
