
#######################################################################
#
#                 Cambridge Crystallographic Data Centre
#                                CCDC 
#
#######################################################################
#
# If this CIF has been generated from an entry in the Cambridge 
# Structural Database, then it will include bibliographic, chemical, 
# crystal, experimental, refinement or atomic coordinate data resulting 
# from the CCDC's data processing and validation procedures.
#
#######################################################################

data_XIJQAK
_chemical_formula_moiety         'C10 H11 Cl1 N4 O3 Se1,2(H2 O1)'
_chemical_name_systematic        
'2-(6-Chloro-7H-purin-7-yl)-5-(hydroxymethyl)tetrahydroselenophene-3,4-diol dihydrate'
_symmetry_cell_setting           orthorhombic
_symmetry_space_group_name_H-M   'P 21 21 21'
_symmetry_Int_Tables_number      19
_space_group_name_Hall           'P 2ac 2ab'
loop_
_symmetry_equiv_pos_site_id
_symmetry_equiv_pos_as_xyz
1 x,y,z
2 1/2-x,-y,1/2+z
3 -x,1/2+y,1/2-z
4 1/2+x,1/2-y,-z
_cell_length_a                   7.3099(3)
_cell_length_b                   11.4446(6)
_cell_length_c                   17.2432(8)
_cell_angle_alpha                90
_cell_angle_beta                 90
_cell_angle_gamma                90
_cell_volume                     1442.55
_exptl_crystal_colour            colorless
_exptl_crystal_description       block
_chemical_melting_point          '119-124 deg.C'
_cell_formula_units_Z            4
loop_
_atom_site_label
_atom_site_type_symbol
_atom_site_fract_x
_atom_site_fract_y
_atom_site_fract_z
Se1 Se 0.82480(4) 0.06815(3) 0.25092(2)
Cl1 Cl 1.08927(12) -0.08856(7) -0.00197(5)
O1 O 1.2031(3) -0.0777(2) 0.22897(12)
O2 O 1.3673(3) 0.1202(2) 0.30222(15)
C1 C 1.1943(4) 0.1226(3) 0.26498(17)
H1 H 1.1759 0.2012 0.2440
O3 O 0.8450(4) 0.1686(2) 0.42449(15)
N1 N 0.9818(4) 0.1466(2) 0.10635(15)
N2 N 1.0378(4) 0.0775(3) -0.10265(14)
C2 C 0.9978(5) 0.1952(4) 0.3765(2)
C3 C 1.1829(4) 0.0366(3) 0.19811(17)
C4 C 1.0361(5) 0.0963(3) 0.31989(18)
C5 C 0.9923(5) 0.0502(3) 0.16246(18)
N3 N 0.9826(4) 0.2812(3) -0.07696(17)
N4 N 0.9520(4) 0.3298(2) 0.05833(17)
H2 H 0.750(6) 0.196(4) 0.413(3)
H3 H 1.274(5) -0.105(4) 0.205(2)
H4 H 0.939(5) 0.286(3) 0.168(2)
H5 H 1.277(3) 0.053(2) 0.1588(14)
H6 H 1.007(4) 0.200(3) -0.180(2)
H7 H 1.056(4) 0.022(3) 0.3453(16)
H8 H 0.973(6) 0.277(4) 0.341(3)
H9 H 1.374(5) 0.069(3) 0.3194(19)
H10 H 0.960(4) -0.013(3) 0.1385(17)
H11 H 1.099(5) 0.205(3) 0.408(2)
C6 C 1.0093(5) 0.1897(4) -0.1228(2)
C7 C 0.9779(4) 0.2529(3) -0.0014(2)
C8 C 1.0002(4) 0.1386(3) 0.02633(17)
C9 C 1.0367(4) 0.0525(3) -0.02746(17)
C10 C 0.9537(5) 0.2624(3) 0.1209(2)
O4 O 0.5639(4) 0.3010(3) 0.36079(18)
H12 H 0.499(5) 0.351(3) 0.386(2)
H13 H 0.498(5) 0.250(4) 0.344(2)
O5 O 0.6304(4) -0.0365(3) 0.0594(2)
H14 H 0.595(9) 0.019(6) 0.057(4)
H15 H 0.623(6) -0.057(4) 0.012(3)
loop_
_geom_bond_atom_site_label_1
_geom_bond_atom_site_label_2
_geom_bond_site_symmetry_1
_geom_bond_site_symmetry_2
Se1 C4 1_555 1_555
Cl1 C9 1_555 1_555
O1 C3 1_555 1_555
O2 C1 1_555 1_555
C1 H1 1_555 1_555
O3 C2 1_555 1_555
N1 C5 1_555 1_555
N2 C6 1_555 1_555
C2 C4 1_555 1_555
C3 C1 1_555 1_555
C4 C1 1_555 1_555
C5 Se1 1_555 1_555
N3 C6 1_555 1_555
N4 C7 1_555 1_555
H2 O3 1_555 1_555
H3 O1 1_555 1_555
H4 C10 1_555 1_555
H5 C3 1_555 1_555
H6 C6 1_555 1_555
H7 C4 1_555 1_555
H8 C2 1_555 1_555
H9 O2 1_555 1_555
H10 C5 1_555 1_555
H11 C2 1_555 1_555
C7 N3 1_555 1_555
C8 N1 1_555 1_555
C9 N2 1_555 1_555
C10 N1 1_555 1_555
O4 H12 1_555 1_555
H13 O4 1_555 1_555
O5 H14 1_555 1_555
H15 O5 1_555 1_555
C3 C5 1_555 1_555
N4 C10 1_555 1_555
C7 C8 1_555 1_555
C8 C9 1_555 1_555

#END
