
#######################################################################
#
#                 Cambridge Crystallographic Data Centre
#                                CCDC 
#
#######################################################################
#
# If this CIF has been generated from an entry in the Cambridge 
# Structural Database, then it will include bibliographic, chemical, 
# crystal, experimental, refinement or atomic coordinate data resulting 
# from the CCDC's data processing and validation procedures.
#
#######################################################################

data_XIJWAR
_chemical_formula_moiety         'C34 H34 S2'
_chemical_name_systematic        
3-decyl-9-phenylnaphtho[2',3':4,5]thieno[3,2-b][1]benzothiophene
_symmetry_cell_setting           monoclinic
_symmetry_space_group_name_H-M   'P 21/a'
_symmetry_Int_Tables_number      14
_space_group_name_Hall           '-P 2yab'
loop_
_symmetry_equiv_pos_site_id
_symmetry_equiv_pos_as_xyz
1 x,y,z
2 1/2-x,1/2+y,-z
3 -x,-y,-z
4 1/2+x,1/2-y,z
_cell_length_a                   6.931(10)
_cell_length_b                   7.406(11)
_cell_length_c                   53.13(8)
_cell_angle_alpha                90
_cell_angle_beta                 91.153(8)
_cell_angle_gamma                90
_cell_volume                     2726.66
_cell_formula_units_Z            4
loop_
_atom_site_label
_atom_site_type_symbol
_atom_site_fract_x
_atom_site_fract_y
_atom_site_fract_z
S1 S -0.04665(17) 0.40092(17) 0.28282(2)
S2 S 0.51722(17) 0.59595(17) 0.27700(2)
C1 C 0.2914(7) 0.4811(6) 0.31362(9)
C2 C 0.6125(7) 0.5779(6) 0.32821(9)
C3 C 0.1763(7) 0.5164(6) 0.24650(9)
C4 C 0.5599(7) 0.5437(6) 0.35297(10)
C5 C 0.2417(7) 0.4447(6) 0.33783(9)
C6 C -0.1400(7) 0.4206(6) 0.23108(10)
C7 C 0.3691(7) 0.4768(6) 0.35833(9)
C8 C 0.2816(6) 0.5275(6) 0.26969(9)
C9 C 0.2269(7) 0.5592(6) 0.22230(9)
C10 C 0.1863(6) 0.4708(5) 0.29063(9)
C11 C -0.0106(7) 0.4459(6) 0.25127(10)
C12 C 0.4819(7) 0.5504(6) 0.30856(9)
C13 C 0.1001(8) 0.5328(7) 0.20232(10)
C14 C -0.0838(8) 0.4605(7) 0.20731(10)
C15 C 0.1555(8) 0.5765(8) 0.17578(10)
C16 C 0.4333(7) 0.4997(6) 0.40345(10)
C17 C 0.3160(7) 0.4571(6) 0.38344(9)
C18 C 0.6841(7) 0.5779(6) 0.37391(10)
C19 C 0.3700(7) 0.4981(6) 0.42977(10)
C20 C 0.4465(7) 0.6123(7) 0.44759(10)
C21 C 0.3849(8) 0.5369(8) 0.13997(10)
C22 C 0.6278(7) 0.5600(6) 0.39777(10)
C23 C 0.1642(8) 0.3804(7) 0.46186(11)
C24 C 0.3846(8) 0.6116(7) 0.47216(11)
C25 C 0.2248(8) 0.3803(7) 0.43731(11)
C26 C 0.5789(8) 0.4645(8) 0.13113(10)
C27 C 0.8716(9) 0.5286(8) 0.07033(11)
C28 C 0.2427(8) 0.4928(8) 0.47930(11)
C29 C 0.3355(8) 0.4841(7) 0.16658(10)
C30 C 0.8254(8) 0.4654(8) 0.09637(11)
C31 C 0.6280(8) 0.5294(8) 0.10509(10)
C32 C 1.0660(9) 0.4677(9) 0.06082(12)
C33 C 1.1093(10) 0.5307(11) 0.03476(12)
C34 C 1.3013(11) 0.4635(12) 0.02493(14)
H1 H 0.73603 0.61949 0.3249
H2 H 0.12006 0.3973 0.34087
H3 H -0.26354 0.37682 0.23386
H4 H 0.34865 0.60675 0.21939
H5 H -0.16927 0.43937 0.19391
H6 H 0.17377 0.70598 0.17448
H7 H 0.04871 0.54416 0.16459
H8 H 0.19361 0.41229 0.38666
H9 H 0.81011 0.61442 0.37099
H10 H 0.54287 0.69263 0.44304
H11 H 0.38637 0.66757 0.13881
H12 H 0.28395 0.49308 0.12863
H13 H 0.71403 0.58634 0.41089
H14 H 0.06712 0.30127 0.46654
H15 H 0.43863 0.69124 0.48386
H16 H 0.1687 0.30134 0.42569
H17 H 0.67973 0.50234 0.14291
H18 H 0.57531 0.33355 0.13117
H19 H 0.86756 0.65947 0.07006
H20 H 0.77182 0.48528 0.05877
H21 H 0.20166 0.49 0.49586
H22 H 0.31723 0.35441 0.16732
H23 H 0.44305 0.51467 0.17774
H24 H 0.92394 0.50933 0.10806
H25 H 0.82877 0.33452 0.09675
H26 H 0.62538 0.66039 0.10491
H27 H 0.52977 0.48706 0.09324
H28 H 1.16616 0.51179 0.07226
H29 H 1.07065 0.3368 0.06114
H30 H 1.1097 0.66165 0.03459
H31 H 1.00672 0.49049 0.02341
H32 H 1.3012 0.3339 0.02458
H33 H 1.40432 0.50521 0.03578
H34 H 1.31927 0.50903 0.00822
loop_
_geom_bond_atom_site_label_1
_geom_bond_atom_site_label_2
_geom_bond_site_symmetry_1
_geom_bond_site_symmetry_2
S1 C10 1_555 1_555
S2 C8 1_555 1_555
C1 C5 1_555 1_555
C2 C4 1_555 1_555
C3 C8 1_555 1_555
C4 C7 1_555 1_555
C5 C7 1_555 1_555
C6 C11 1_555 1_555
C7 C17 1_555 1_555
C8 C10 1_555 1_555
C9 C3 1_555 1_555
C10 C1 1_555 1_555
C11 S1 1_555 1_555
C12 S2 1_555 1_555
C13 C9 1_555 1_555
C14 C6 1_555 1_555
C15 C13 1_555 1_555
C16 C17 1_555 1_555
C17 H8 1_555 1_555
C18 C4 1_555 1_555
C19 C16 1_555 1_555
C20 C19 1_555 1_555
C21 C26 1_555 1_555
C22 C16 1_555 1_555
C23 C25 1_555 1_555
C24 C20 1_555 1_555
C25 C19 1_555 1_555
C26 C31 1_555 1_555
C27 C30 1_555 1_555
C28 C23 1_555 1_555
C29 C15 1_555 1_555
C30 C31 1_555 1_555
C31 H26 1_555 1_555
C32 C27 1_555 1_555
C33 C32 1_555 1_555
C34 C33 1_555 1_555
H1 C2 1_555 1_555
H2 C5 1_555 1_555
H3 C6 1_555 1_555
H4 C9 1_555 1_555
H5 C14 1_555 1_555
H6 C15 1_555 1_555
H7 C15 1_555 1_555
H9 C18 1_555 1_555
H10 C20 1_555 1_555
H11 C21 1_555 1_555
H12 C21 1_555 1_555
H13 C22 1_555 1_555
H14 C23 1_555 1_555
H15 C24 1_555 1_555
H16 C25 1_555 1_555
H17 C26 1_555 1_555
H18 C26 1_555 1_555
H19 C27 1_555 1_555
H20 C27 1_555 1_555
H21 C28 1_555 1_555
H22 C29 1_555 1_555
H23 C29 1_555 1_555
H24 C30 1_555 1_555
H25 C30 1_555 1_555
H27 C31 1_555 1_555
H28 C32 1_555 1_555
H29 C32 1_555 1_555
H30 C33 1_555 1_555
H31 C33 1_555 1_555
H32 C34 1_555 1_555
H33 C34 1_555 1_555
H34 C34 1_555 1_555
C1 C12 1_555 1_555
C2 C12 1_555 1_555
C3 C11 1_555 1_555
C13 C14 1_555 1_555
C18 C22 1_555 1_555
C21 C29 1_555 1_555
C24 C28 1_555 1_555

#END
