
#######################################################################
#
#                 Cambridge Crystallographic Data Centre
#                                CCDC 
#
#######################################################################
#
# If this CIF has been generated from an entry in the Cambridge 
# Structural Database, then it will include bibliographic, chemical, 
# crystal, experimental, refinement or atomic coordinate data resulting 
# from the CCDC's data processing and validation procedures.
#
#######################################################################

data_XIKNUA
_chemical_formula_moiety         'C20 H22 N6 O2'
_chemical_name_systematic        
N,N'-Di-o-tolyl-3,6-dimethyl-1,4-dihydro-S-tetrazine-1,4-dicarboxamide
_symmetry_cell_setting           monoclinic
_symmetry_space_group_name_H-M   'P 21/c'
_symmetry_Int_Tables_number      14
_space_group_name_Hall           '-P 2ybc'
loop_
_symmetry_equiv_pos_site_id
_symmetry_equiv_pos_as_xyz
1 x,y,z
2 -x,1/2+y,1/2-z
3 -x,-y,-z
4 x,1/2-y,1/2+z
_cell_length_a                   11.151(4)
_cell_length_b                   15.318(2)
_cell_length_c                   11.352(2)
_cell_angle_alpha                90
_cell_angle_beta                 103.85(2)
_cell_angle_gamma                90
_cell_volume                     1882.67
_chemical_melting_point          '185-187 deg.C'
_cell_formula_units_Z            4
loop_
_atom_site_label
_atom_site_type_symbol
_atom_site_fract_x
_atom_site_fract_y
_atom_site_fract_z
C1 C 0.7155(2) -0.0448(2) 0.2621(2)
C2 C 0.8098(2) -0.0880(2) 0.3505(2)
C3 C 0.9282(3) -0.0564(2) 0.3720(3)
C4 C 0.9524(3) 0.0164(2) 0.3101(3)
C5 C 0.8642(3) 0.0561(2) 0.2253(3)
C6 C 0.7411(2) 0.0248(2) 0.1980(2)
C7 C 0.6480(3) 0.0675(3) 0.1026(4)
N1 N 0.5945(2) -0.0814(1) 0.2391(2)
C8 C 0.4973(2) -0.0416(1) 0.2663(2)
O1 O 0.4966(1) 0.0325(1) 0.3050(1)
N2 N 0.3888(2) -0.0921(1) 0.2411(2)
N3 N 0.4001(2) -0.1774(1) 0.1947(2)
C9 C 0.2965(2) -0.2117(1) 0.1453(2)
N4 N 0.1875(2) -0.1687(1) 0.1498(2)
N5 N 0.1908(2) -0.1216(1) 0.2585(2)
C10 C 0.2926(2) -0.0810(1) 0.2990(2)
C11 C 0.2955(3) -0.3000(2) 0.0885(3)
C12 C 0.3059(2) -0.0274(2) 0.4108(2)
C13 C 0.0694(2) -0.1977(1) 0.0862(2)
O2 O 0.0558(2) -0.2331(1) -0.0117(2)
N6 N -0.0215(2) -0.1789(1) 0.1406(2)
C14 C -0.1477(2) -0.1987(1) 0.0879(2)
C15 C -0.2067(2) -0.2593(2) 0.1441(2)
C16 C -0.3298(2) -0.2784(2) 0.0977(3)
C17 C -0.3923(2) -0.2377(2) -0.0063(3)
C18 C -0.3344(2) -0.1768(2) -0.0612(2)
C19 C -0.2115(2) -0.1544(2) -0.0147(2)
C20 C -0.1531(3) -0.0831(2) -0.0721(3)
loop_
_geom_bond_atom_site_label_1
_geom_bond_atom_site_label_2
_geom_bond_site_symmetry_1
_geom_bond_site_symmetry_2
C1 C2 1_555 1_555
C2 C3 1_555 1_555
C3 C4 1_555 1_555
C4 C5 1_555 1_555
C5 C6 1_555 1_555
C6 C1 1_555 1_555
C7 C6 1_555 1_555
N1 C1 1_555 1_555
C8 N1 1_555 1_555
O1 C8 1_555 1_555
N2 C8 1_555 1_555
N3 N2 1_555 1_555
C9 N3 1_555 1_555
N4 C9 1_555 1_555
N5 N4 1_555 1_555
C10 N2 1_555 1_555
C11 C9 1_555 1_555
C12 C10 1_555 1_555
C13 N4 1_555 1_555
O2 C13 1_555 1_555
N6 C13 1_555 1_555
C14 N6 1_555 1_555
C15 C14 1_555 1_555
C16 C15 1_555 1_555
C17 C16 1_555 1_555
C18 C17 1_555 1_555
C19 C14 1_555 1_555
C20 C19 1_555 1_555
N5 C10 1_555 1_555
C18 C19 1_555 1_555

#END
