
#######################################################################
#
#                 Cambridge Crystallographic Data Centre
#                                CCDC 
#
#######################################################################
#
# If this CIF has been generated from an entry in the Cambridge 
# Structural Database, then it will include bibliographic, chemical, 
# crystal, experimental, refinement or atomic coordinate data resulting 
# from the CCDC's data processing and validation procedures.
#
#######################################################################

data_XIKNIO
_chemical_formula_moiety         'C23 H42 N2 O8 Si2'
_chemical_name_systematic        
2'-C-Ethoxy-3',5'-O-(tetraisopropyldisiloxane-1,3-diyl)uridine
_symmetry_cell_setting           monoclinic
_symmetry_space_group_name_H-M   'P 21'
_symmetry_Int_Tables_number      4
_space_group_name_Hall           'P 2yb'
loop_
_symmetry_equiv_pos_site_id
_symmetry_equiv_pos_as_xyz
1 x,y,z
2 -x,1/2+y,-z
_cell_length_a                   10.557(5)
_cell_length_b                   10.528(2)
_cell_length_c                   13.374(5)
_cell_angle_alpha                90
_cell_angle_beta                 100.63(3)
_cell_angle_gamma                90
_cell_volume                     1460.93
_exptl_crystal_colour            colorless
_chemical_melting_point          '146-148 deg.C'
_cell_formula_units_Z            2
_exptl_crystal_recrystallization_method 'hexane/diethyl ether'
loop_
_atom_site_label
_atom_site_type_symbol
_atom_site_fract_x
_atom_site_fract_y
_atom_site_fract_z
Si1 Si 0.8875(4) 0.213 0.6812(3)
Si2 Si 0.8152(4) 0.4958(4) 0.7308(3)
O1 O 0.534(1) 0.0501(9) 1.1202(6)
O2 O 0.150(1) 0.205(1) 0.9547(7)
O3 O 0.790(1) -0.0082(9) 0.9245(6)
O4 O 0.8650(9) 0.1440(8) 0.7901(6)
O5 O 0.7330(8) 0.2724(8) 0.9974(5)
O6 O 0.7985(8) 0.4681(8) 0.8518(5)
O7 O 0.599(1) 0.0527(9) 0.8163(6)
O8 O 0.858(1) 0.3662(9) 0.6839(6)
N1 N 0.5357(9) 0.1779(9) 0.9834(7)
N2 N 0.345(1) 0.128(1) 1.0369(7)
C1 C 0.465(1) 0.112(1) 1.0511(9)
C2 C 0.268(1) 0.201(1) 0.965(1)
C3 C 0.340(1) 0.277(2) 0.900(1)
C4 C 0.458(1) 0.257(1) 0.9093(9)
C5 C 0.664(1) 0.153(1) 0.9845(9)
C6 C 0.696(1) 0.090(1) 0.8864(9)
C7 C 0.766(1) 0.198(1) 0.8441(8)
C8 C 0.841(1) 0.265(1) 0.9431(8)
C9 C 0.892(1) 0.399(1) 0.924(1)
C10 C 1.051(2) 0.186(2) 0.682(1)
C11 C 1.130(3) 0.057(2) 0.708(2)
C12 C 1.109(2) 0.262(2) 0.596(1)
C13 C 0.760(2) 0.148(2) 0.573(1)
C14 C 0.771(2) 0.206(2) 0.471(1)
C15 C 0.750(3) 0.002(2) 0.571(2)
C16 C 0.948(2) 0.619(1) 0.733(1)
C17 C 1.084(2) 0.574(2) 0.778(1)
C18 C 0.914(2) 0.742(2) 0.788(1)
C19 C 0.658(2) 0.548(2) 0.666(1)
C20 C 0.661(3) 0.606(2) 0.558(1)
C21 C 0.545(2) 0.450(2) 0.656(1)
C22 C 0.524(2) -0.059(2) 0.840(1)
C23 C 0.462(2) -0.117(2) 0.748(2)
loop_
_geom_bond_atom_site_label_1
_geom_bond_atom_site_label_2
_geom_bond_site_symmetry_1
_geom_bond_site_symmetry_2
Si1 O4 1_555 1_555
Si2 O6 1_555 1_555
O1 C1 1_555 1_555
O2 C2 1_555 1_555
O3 C6 1_555 1_555
O4 C7 1_555 1_555
O5 C5 1_555 1_555
O6 C9 1_555 1_555
O7 C6 1_555 1_555
O8 Si1 1_555 1_555
N1 C1 1_555 1_555
N2 C1 1_555 1_555
C2 N2 1_555 1_555
C3 C2 1_555 1_555
C4 N1 1_555 1_555
C5 N1 1_555 1_555
C6 C5 1_555 1_555
C7 C6 1_555 1_555
C8 O5 1_555 1_555
C9 C8 1_555 1_555
C10 Si1 1_555 1_555
C11 C10 1_555 1_555
C12 C10 1_555 1_555
C13 Si1 1_555 1_555
C14 C13 1_555 1_555
C15 C13 1_555 1_555
C16 Si2 1_555 1_555
C17 C16 1_555 1_555
C18 C16 1_555 1_555
C19 Si2 1_555 1_555
C20 C19 1_555 1_555
C21 C19 1_555 1_555
C22 O7 1_555 1_555
C23 C22 1_555 1_555
Si2 O8 1_555 1_555
C3 C4 1_555 1_555
C7 C8 1_555 1_555

#END
