
#######################################################################
#
#                 Cambridge Crystallographic Data Centre
#                                CCDC 
#
#######################################################################
#
# If this CIF has been generated from an entry in the Cambridge 
# Structural Database, then it will include bibliographic, chemical, 
# crystal, experimental, refinement or atomic coordinate data resulting 
# from the CCDC's data processing and validation procedures.
#
#######################################################################

data_XIKNIR
_chemical_formula_moiety         'C36 H42 B1 N1'
_chemical_name_systematic        
pseudo-gem-12-[bis(2,4,6-trimethylphenyl)boranyl]-N,N-dimethyltricyclo[8.2.2.2^4,7^]hexadeca-1(12),4,6,10,13,15-hexaen-5-amine
_symmetry_cell_setting           monoclinic
_symmetry_space_group_name_H-M   'P 21/n'
_symmetry_Int_Tables_number      14
_space_group_name_Hall           '-P 2yn'
loop_
_symmetry_equiv_pos_site_id
_symmetry_equiv_pos_as_xyz
1 x,y,z
2 1/2-x,1/2+y,1/2-z
3 -x,-y,-z
4 1/2+x,1/2-y,1/2+z
_cell_length_a                   13.718(13)
_cell_length_b                   14.034(13)
_cell_length_c                   15.434(14)
_cell_angle_alpha                90
_cell_angle_beta                 90.022(11)
_cell_angle_gamma                90
_cell_volume                     2971.33
_exptl_crystal_colour            'light yellow'
_exptl_crystal_description       block
_cell_formula_units_Z            4
loop_
_atom_site_label
_atom_site_type_symbol
_atom_site_fract_x
_atom_site_fract_y
_atom_site_fract_z
C1 C 0.7738(2) 0.3452(2) 0.50290(18)
C2 C 0.7442(2) 0.1553(2) 0.5395(2)
C3 C 0.8409(2) 0.4110(2) 0.53925(19)
C4 C 0.8875(2) 0.2082(2) 0.42634(19)
C5 C 0.9231(2) 0.1143(2) 0.42759(19)
H1 H 0.8865 0.0684 0.4563
C6 C 0.9432(2) 0.2747(2) 0.3767(2)
C7 C 0.6813(2) 0.3812(2) 0.47995(19)
C8 C 0.7461(2) 0.1517(2) 0.6313(2)
N1 N 0.7431(2) 0.2043(2) 0.2044(2)
C9 C 0.6581(2) 0.4763(2) 0.4932(2)
H2 H 0.5971 0.4981 0.4759
C10 C 0.8431(2) 0.1819(2) 0.2033(2)
C11 C 0.8131(2) 0.5050(2) 0.5534(2)
H3 H 0.8577 0.5463 0.5789
C12 C 0.7977(3) 0.2259(3) 0.6847(2)
H4 H 0.8666 0.2221 0.6743
H5 H 0.7849 0.2149 0.7450
H6 H 0.7746 0.2880 0.6688
C13 C 0.9435(2) 0.3830(2) 0.5647(2)
H7 H 0.9489 0.3148 0.5653
H8 H 0.9578 0.4075 0.6214
H9 H 0.9889 0.4089 0.5236
C14 C 1.0099(3) 0.0856(3) 0.3885(2)
C15 C 0.7026(3) 0.0773(3) 0.6751(2)
H10 H 0.7071 0.0759 0.7352
C16 C 0.6928(2) 0.0816(2) 0.4971(2)
C17 C 0.8747(2) 0.0890(2) 0.2174(2)
H11 H 0.8283 0.0429 0.2305
C18 C 0.8978(3) 0.3585(2) 0.3296(2)
H12 H 0.9267 0.4171 0.3511
H13 H 0.8286 0.3605 0.3425
C19 C 0.9717(3) 0.0616(3) 0.2129(2)
C20 C 0.7222(3) 0.5400(2) 0.5312(2)
B1 B 0.8004(2) 0.2362(3) 0.4865(2)
C21 C 0.6060(2) 0.3171(3) 0.4370(3)
H14 H 0.6325 0.2915 0.3844
H15 H 0.5486 0.3536 0.4240
H16 H 0.5894 0.2660 0.4756
C22 C 1.0401(3) 0.2512(3) 0.3599(2)
H17 H 1.0835 0.2989 0.3440
C23 C 1.0354(3) 0.1262(3) 0.1776(2)
H18 H 1.0964 0.1063 0.1586
C24 C 0.9166(3) 0.2531(2) 0.1944(2)
C25 C 1.0091(3) 0.2192(3) 0.1706(2)
H19 H 1.0544 0.2624 0.1490
C26 C 1.0730(3) 0.1582(3) 0.3665(2)
H20 H 1.1382 0.1446 0.3560
C27 C 0.6750(3) 0.1263(4) 0.1892(3)
H21 H 0.6787 0.1069 0.1297
H22 H 0.6099 0.1473 0.2020
H23 H 0.6915 0.0736 0.2259
C28 C 1.0068(3) -0.0275(3) 0.2577(3)
H24 H 1.0665 -0.0485 0.2300
H25 H 0.9585 -0.0772 0.2497
C29 C 1.0262(3) -0.0149(3) 0.3569(2)
H26 H 0.9836 -0.0575 0.3888
H27 H 1.0929 -0.0332 0.3694
C30 C 0.6834(3) 0.0780(3) 0.4000(2)
H28 H 0.7146 0.1328 0.3751
H29 H 0.6157 0.0779 0.3843
H30 H 0.7139 0.0211 0.3786
C31 C 0.6528(3) 0.0049(3) 0.6340(3)
C32 C 0.6474(3) 0.0090(3) 0.5449(3)
H31 H 0.6126 -0.0378 0.5156
C33 C 0.6059(4) -0.0764(3) 0.6840(3)
H32 H 0.6507 -0.0994 0.7270
H33 H 0.5898 -0.1271 0.6447
H34 H 0.5477 -0.0539 0.7118
C34 C 0.9118(4) 0.3536(3) 0.2301(3)
H35 H 0.8582 0.3869 0.2024
H36 H 0.9715 0.3867 0.2150
C35 C 0.6939(3) 0.6428(3) 0.5467(3)
H37 H 0.6492 0.6630 0.5025
H38 H 0.7512 0.6820 0.5451
H39 H 0.6634 0.6484 0.6024
C36 C 0.7132(4) 0.2913(4) 0.1590(4)
H40 H 0.7073 0.3425 0.1999
H41 H 0.6515 0.2809 0.1312
H42 H 0.7612 0.3074 0.1163
loop_
_geom_bond_atom_site_label_1
_geom_bond_atom_site_label_2
_geom_bond_site_symmetry_1
_geom_bond_site_symmetry_2
C1 C3 1_555 1_555
C2 C8 1_555 1_555
C3 C11 1_555 1_555
C4 C5 1_555 1_555
C5 H1 1_555 1_555
C6 C4 1_555 1_555
C7 C1 1_555 1_555
C8 C12 1_555 1_555
N1 C10 1_555 1_555
C9 C7 1_555 1_555
H2 C9 1_555 1_555
C10 C17 1_555 1_555
C11 H3 1_555 1_555
C12 H4 1_555 1_555
H5 C12 1_555 1_555
H6 C12 1_555 1_555
C13 C3 1_555 1_555
H7 C13 1_555 1_555
H8 C13 1_555 1_555
H9 C13 1_555 1_555
C14 C5 1_555 1_555
C15 C8 1_555 1_555
H10 C15 1_555 1_555
C16 C2 1_555 1_555
C17 H11 1_555 1_555
C18 C6 1_555 1_555
H12 C18 1_555 1_555
H13 C18 1_555 1_555
C19 C17 1_555 1_555
C20 C9 1_555 1_555
B1 C1 1_555 1_555
C21 C7 1_555 1_555
H14 C21 1_555 1_555
H15 C21 1_555 1_555
H16 C21 1_555 1_555
C22 C6 1_555 1_555
H17 C22 1_555 1_555
C23 C19 1_555 1_555
H18 C23 1_555 1_555
C24 C10 1_555 1_555
C25 C23 1_555 1_555
H19 C25 1_555 1_555
C26 C14 1_555 1_555
H20 C26 1_555 1_555
C27 N1 1_555 1_555
H21 C27 1_555 1_555
H22 C27 1_555 1_555
H23 C27 1_555 1_555
C28 C19 1_555 1_555
H24 C28 1_555 1_555
H25 C28 1_555 1_555
C29 C14 1_555 1_555
H26 C29 1_555 1_555
H27 C29 1_555 1_555
C30 C16 1_555 1_555
H28 C30 1_555 1_555
H29 C30 1_555 1_555
H30 C30 1_555 1_555
C31 C15 1_555 1_555
C32 C16 1_555 1_555
H31 C32 1_555 1_555
C33 C31 1_555 1_555
H32 C33 1_555 1_555
H33 C33 1_555 1_555
H34 C33 1_555 1_555
C34 C18 1_555 1_555
H35 C34 1_555 1_555
H36 C34 1_555 1_555
C35 C20 1_555 1_555
H37 C35 1_555 1_555
H38 C35 1_555 1_555
H39 C35 1_555 1_555
C36 N1 1_555 1_555
H40 C36 1_555 1_555
H41 C36 1_555 1_555
H42 C36 1_555 1_555
C2 B1 1_555 1_555
C4 B1 1_555 1_555
C11 C20 1_555 1_555
C22 C26 1_555 1_555
C24 C25 1_555 1_555
C24 C34 1_555 1_555
C28 C29 1_555 1_555
C31 C32 1_555 1_555

#END
