
#######################################################################
#
#                 Cambridge Crystallographic Data Centre
#                                CCDC 
#
#######################################################################
#
# If this CIF has been generated from an entry in the Cambridge 
# Structural Database, then it will include bibliographic, chemical, 
# crystal, experimental, refinement or atomic coordinate data resulting 
# from the CCDC's data processing and validation procedures.
#
#######################################################################

data_XIKPAK
_chemical_formula_moiety         'C37 H26 O10,3(C2 H3 N1)'
_chemical_name_systematic        
'24,26-dimethoxyhexacyclo[21.2.2.2^3,6^.2^8,11^.2^13,16^.2^18,21^]pentatriaconta-1(25),3(35),5,8(33),10,13(31),15,18(29),20,23,26-undecaene-4,9,14,19,28,30,32,34-octone acetonitrile solvate'
_symmetry_cell_setting           monoclinic
_symmetry_space_group_name_H-M   'P 21/c'
_symmetry_Int_Tables_number      14
_space_group_name_Hall           '-P 2ybc'
loop_
_symmetry_equiv_pos_site_id
_symmetry_equiv_pos_as_xyz
1 x,y,z
2 -x,1/2+y,1/2-z
3 -x,-y,-z
4 x,1/2-y,1/2+z
_cell_length_a                   12.0359(3)
_cell_length_b                   21.1081(5)
_cell_length_c                   14.8313(4)
_cell_angle_alpha                90
_cell_angle_beta                 98.540(3)
_cell_angle_gamma                90
_cell_volume                     3726.19
_exptl_crystal_colour            red
_exptl_crystal_description       block
_cell_formula_units_Z            4
loop_
_atom_site_label
_atom_site_type_symbol
_atom_site_fract_x
_atom_site_fract_y
_atom_site_fract_z
O1 O 0.64085(15) 0.39634(8) 0.11756(11)
O2 O 0.52574(15) 0.29090(9) 0.43160(11)
O3 O 0.88523(16) 0.23830(9) 0.01686(13)
O4 O 1.01036(18) 0.31630(10) 0.35506(13)
O5 O 0.79795(19) 0.01647(11) -0.02644(15)
O6 O 1.09799(16) 0.08130(11) 0.25645(14)
O7 O 0.58180(16) -0.08003(9) 0.02371(12)
O8 O 0.58053(16) 0.03586(10) 0.33911(13)
O9 O 0.34583(16) 0.23803(8) 0.11638(12)
O10 O 0.33894(15) 0.08621(8) 0.39893(12)
C1 C 0.6093(2) 0.36945(10) 0.19454(15)
C2 C 0.5004(2) 0.35078(10) 0.20135(16)
H1 H 0.4431 0.3562 0.1505
C3 C 0.47377(19) 0.32444(10) 0.28090(16)
C4 C 0.5579(2) 0.31784(10) 0.35563(16)
C5 C 0.6674(2) 0.33669(10) 0.34882(16)
H2 H 0.7241 0.3324 0.4003
C6 C 0.69521(19) 0.36153(10) 0.26863(16)
C7 C 0.5540(3) 0.40681(15) 0.04231(18)
H3 H 0.5859 0.4272 -0.0074
H4 H 0.4962 0.4343 0.0615
H5 H 0.5205 0.3662 0.0212
C8 C 0.5973(2) 0.29893(16) 0.51597(18)
H6 H 0.6686 0.2770 0.5137
H7 H 0.5611 0.2811 0.5653
H8 H 0.6115 0.3442 0.5272
C9 C 0.8158(2) 0.37887(12) 0.26138(17)
H9 H 0.8165 0.4171 0.2229
H10 H 0.8558 0.3892 0.3229
C10 C 0.8777(2) 0.32589(12) 0.22091(17)
C11 C 0.9769(2) 0.29684(12) 0.27842(17)
C12 C 1.0359(2) 0.24441(13) 0.23966(19)
H11 H 1.0974 0.2250 0.2771
C13 C 1.00745(19) 0.22290(12) 0.15489(18)
C14 C 0.9108(2) 0.25337(12) 0.09645(17)
C15 C 0.8492(2) 0.30354(13) 0.13650(18)
H12 H 0.7850 0.3212 0.1001
C16 C 1.0683(2) 0.17020(12) 0.1128(2)
H13 H 1.0779 0.1823 0.0499
H14 H 1.1439 0.1645 0.1485
C17 C 1.00502(19) 0.10862(12) 0.11045(17)
C18 C 1.0253(2) 0.06737(13) 0.19235(18)
C19 C 0.9566(2) 0.00974(12) 0.19421(18)
H15 H 0.9684 -0.0165 0.2468
C20 C 0.8786(2) -0.00707(11) 0.12503(17)
C21 C 0.8651(2) 0.03207(13) 0.04064(18)
C22 C 0.9324(2) 0.08961(13) 0.03890(18)
H16 H 0.9239 0.1144 -0.0152
C23 C 0.8000(2) -0.06203(12) 0.1284(2)
H17 H 0.8357 -0.0941 0.1721
H18 H 0.7846 -0.0821 0.0675
C24 C 0.6903(2) -0.04012(10) 0.15726(16)
C25 C 0.6861(2) -0.01139(12) 0.23672(17)
H19 H 0.7543 -0.0046 0.2768
C26 C 0.5802(2) 0.01022(11) 0.26504(16)
C27 C 0.47404(19) 0.00063(10) 0.20230(16)
C28 C 0.4776(2) -0.02825(10) 0.12300(15)
H20 H 0.4094 -0.0341 0.0825
C29 C 0.5830(2) -0.05155(10) 0.09549(15)
C30 C 0.3672(2) 0.02351(11) 0.23361(17)
H21 H 0.3021 0.0097 0.1892
H22 H 0.3603 0.0037 0.2931
C31 C 0.36373(18) 0.09459(10) 0.24336(16)
C32 C 0.34997(18) 0.12070(11) 0.33452(16)
C33 C 0.35012(19) 0.19010(11) 0.34566(17)
H23 H 0.3481 0.2072 0.4047
C34 C 0.35301(17) 0.22984(10) 0.27626(16)
C35 C 0.35656(18) 0.20354(11) 0.18368(16)
C36 C 0.36832(19) 0.13456(11) 0.17419(16)
H24 H 0.3796 0.1178 0.1168
C37 C 0.3559(2) 0.30104(11) 0.28638(18)
H25 H 0.3339 0.3131 0.3458
H26 H 0.3021 0.3206 0.2373
N1 N 0.7603(4) 0.1469(2) 0.1952(3)
C38 C 0.7341(4) 0.15964(19) 0.2582(4)
C39 C 0.7074(5) 0.17227(18) 0.3495(3)
H27 H 0.6364 0.1956 0.3447
H28 H 0.7676 0.1976 0.3837
H29 H 0.7005 0.1321 0.3812
N2 N 0.9113(4) 0.0723(3) 0.4124(3)
C40 C 0.8750(3) 0.0444(2) 0.4684(3)
C41 C 0.8281(4) 0.0093(2) 0.5349(3)
H30 H 0.7772 -0.0230 0.5046
H31 H 0.7861 0.0379 0.5696
H32 H 0.8884 -0.0112 0.5763
N3 N 1.1088(3) 0.10987(18) 0.6374(2)
C42 C 1.1175(3) 0.13591(17) 0.5713(3)
C43 C 1.1271(4) 0.16976(19) 0.4884(3)
H33 H 1.1548 0.1410 0.4448
H34 H 1.1797 0.2051 0.5019
H35 H 1.0532 0.1862 0.4620
loop_
_geom_bond_atom_site_label_1
_geom_bond_atom_site_label_2
_geom_bond_site_symmetry_1
_geom_bond_site_symmetry_2
O1 C1 1_555 1_555
O2 C4 1_555 1_555
O3 C14 1_555 1_555
O4 C11 1_555 1_555
O5 C21 1_555 1_555
O6 C18 1_555 1_555
O7 C29 1_555 1_555
O8 C26 1_555 1_555
O9 C35 1_555 1_555
O10 C32 1_555 1_555
C1 C2 1_555 1_555
C2 H1 1_555 1_555
C3 C2 1_555 1_555
C4 C3 1_555 1_555
C5 C4 1_555 1_555
H2 C5 1_555 1_555
C6 C1 1_555 1_555
C7 O1 1_555 1_555
H3 C7 1_555 1_555
H4 C7 1_555 1_555
H5 C7 1_555 1_555
C8 O2 1_555 1_555
H6 C8 1_555 1_555
H7 C8 1_555 1_555
H8 C8 1_555 1_555
C9 C6 1_555 1_555
H9 C9 1_555 1_555
H10 C9 1_555 1_555
C10 C9 1_555 1_555
C11 C10 1_555 1_555
C12 C11 1_555 1_555
H11 C12 1_555 1_555
C13 C12 1_555 1_555
C14 C13 1_555 1_555
C15 C10 1_555 1_555
H12 C15 1_555 1_555
C16 C13 1_555 1_555
H13 C16 1_555 1_555
H14 C16 1_555 1_555
C17 C16 1_555 1_555
C18 C17 1_555 1_555
C19 C18 1_555 1_555
H15 C19 1_555 1_555
C20 C19 1_555 1_555
C21 C20 1_555 1_555
C22 C17 1_555 1_555
H16 C22 1_555 1_555
C23 C20 1_555 1_555
H17 C23 1_555 1_555
H18 C23 1_555 1_555
C24 C23 1_555 1_555
C25 C24 1_555 1_555
H19 C25 1_555 1_555
C26 C25 1_555 1_555
C27 C26 1_555 1_555
C28 C27 1_555 1_555
H20 C28 1_555 1_555
C29 C24 1_555 1_555
C30 C27 1_555 1_555
H21 C30 1_555 1_555
H22 C30 1_555 1_555
C31 C30 1_555 1_555
C32 C31 1_555 1_555
C33 C32 1_555 1_555
H23 C33 1_555 1_555
C34 C33 1_555 1_555
C35 C34 1_555 1_555
C36 C31 1_555 1_555
H24 C36 1_555 1_555
C37 C3 1_555 1_555
H25 C37 1_555 1_555
H26 C37 1_555 1_555
N1 C38 1_555 1_555
C38 C39 1_555 1_555
C39 H27 1_555 1_555
H28 C39 1_555 1_555
H29 C39 1_555 1_555
N2 C40 1_555 1_555
C40 C41 1_555 1_555
C41 H30 1_555 1_555
H31 C41 1_555 1_555
H32 C41 1_555 1_555
N3 C42 1_555 1_555
C42 C43 1_555 1_555
C43 H33 1_555 1_555
H34 C43 1_555 1_555
H35 C43 1_555 1_555
C5 C6 1_555 1_555
C14 C15 1_555 1_555
C21 C22 1_555 1_555
C28 C29 1_555 1_555
C34 C37 1_555 1_555
C35 C36 1_555 1_555

#END
