
#######################################################################
#
#                 Cambridge Crystallographic Data Centre
#                                CCDC 
#
#######################################################################
#
# If this CIF has been generated from an entry in the Cambridge 
# Structural Database, then it will include bibliographic, chemical, 
# crystal, experimental, refinement or atomic coordinate data resulting 
# from the CCDC's data processing and validation procedures.
#
#######################################################################

data_XIKQIT
_chemical_formula_moiety         'C19 H20 Cl3 N1 O4'
_chemical_name_systematic        
't-Butyl 2-oxo-5-(4,4,4-trichloro-3-oxo-1-phenylbutyl)-2,5-dihydro-1H-pyrrole-1-carboxylate'
_symmetry_cell_setting           trigonal
_symmetry_space_group_name_H-M   'P 32'
_symmetry_Int_Tables_number      145
_space_group_name_Hall           'P 32'
loop_
_symmetry_equiv_pos_site_id
_symmetry_equiv_pos_as_xyz
1 x,y,z
2 -y,x-y,2/3+z
3 -x+y,-x,1/3+z
_cell_length_a                   11.6604(10)
_cell_length_b                   11.6604(10)
_cell_length_c                   27.212(2)
_cell_angle_alpha                90
_cell_angle_beta                 90
_cell_angle_gamma                120
_cell_volume                     3204.19
_exptl_crystal_colour            'light colorless'
_exptl_crystal_description       block
_cell_formula_units_Z            6
loop_
_atom_site_label
_atom_site_type_symbol
_atom_site_fract_x
_atom_site_fract_y
_atom_site_fract_z
Cl1 Cl -1.0502(5) -1.0844(3) -0.30296(14)
Cl2 Cl -0.8608(3) -0.8139(4) -0.27710(8)
Cl3 Cl -1.1329(3) -0.9187(2) -0.25784(8)
O1 O -1.1325(6) -0.8787(7) -0.3606(2)
O2 O -0.5904(6) -0.5030(7) -0.4689(2)
O3 O -0.8187(7) -0.4826(6) -0.4790(2)
O4 O -0.9832(5) -0.6732(4) -0.50876(15)
N1 N -0.8072(6) -0.6728(6) -0.47684(18)
C1 C -1.0360(8) -1.1234(7) -0.4406(3)
H1 H -0.9529 -1.0954 -0.4271
C2 C -1.1188(9) -1.2559(7) -0.4507(3)
H2 H -1.0898 -1.3157 -0.4445
C3 C -1.2403(8) -1.3002(8) -0.4693(2)
H3 H -1.2960 -1.3901 -0.4751
C4 C -1.2814(7) -1.2123(8) -0.4797(3)
H4 H -1.3656 -1.2425 -0.4925
C5 C -1.1994(7) -1.0788(7) -0.4714(2)
H5 H -1.2274 -1.0193 -0.4798
C6 C -1.0752(6) -1.0326(6) -0.4504(2)
C7 C -0.9870(6) -0.8852(6) -0.4408(2)
H6 H -1.0427 -0.8446 -0.4440
C8 C -0.9311(6) -0.8574(6) -0.3876(2)
H7 H -0.8932 -0.9130 -0.3804
H8 H -0.8613 -0.7657 -0.3849
C9 C -1.0361(7) -0.8840(7) -0.3517(2)
C10 C -1.0194(9) -0.9207(8) -0.2989(3)
C11 C -0.8757(7) -0.8195(7) -0.4798(2)
H9 H -0.9142 -0.8477 -0.5126
C12 C -0.7632(8) -0.8436(9) -0.4744(2)
H10 H -0.7704 -0.9267 -0.4754
C13 C -0.6518(8) -0.7316(10) -0.4678(3)
H11 H -0.5703 -0.7256 -0.4622
C14 C -0.6714(8) -0.6205(10) -0.4706(2)
C15 C -0.8681(8) -0.5970(8) -0.4873(2)
C16 C -1.0705(7) -0.6210(7) -0.5236(3)
C17 C -1.0002(12) -0.5142(12) -0.5608(4)
H12 H -0.9499 -0.4307 -0.5443
H13 H -1.0638 -0.5106 -0.5822
H14 H -0.9417 -0.5324 -0.5797
C18 C -1.1022(17) -0.5692(17) -0.4777(5)
H15 H -1.1039 -0.6207 -0.4499
H16 H -1.1872 -0.5757 -0.4813
H17 H -1.0357 -0.4782 -0.4727
C19 C -1.1841(10) -0.7383(10) -0.5467(4)
H18 H -1.1541 -0.7643 -0.5752
H19 H -1.2501 -0.7163 -0.5562
H20 H -1.2216 -0.8100 -0.5235
Cl4 Cl -0.5850(3) -0.2315(3) -0.55160(7)
Cl5 Cl -0.7568(2) -0.1256(3) -0.56013(7)
Cl6 Cl -0.5032(3) 0.0321(3) -0.51607(12)
O5 O -0.7919(5) -0.1913(6) -0.45983(17)
O6 O -0.6365(6) -0.5782(6) -0.35884(19)
O7 O -0.8745(7) -0.5761(6) -0.3489(2)
O8 O -0.8282(4) -0.3864(4) -0.31243(14)
N2 N -0.6660(6) -0.3976(5) -0.34958(17)
C20 C -0.4325(7) 0.0513(7) -0.3787(3)
H21 H -0.3767 0.0197 -0.3882
C21 C -0.3788(9) 0.1870(8) -0.3697(3)
H22 H -0.2879 0.2443 -0.3719
C22 C -0.4623(10) 0.2348(9) -0.3573(3)
H23 H -0.4275 0.3249 -0.3517
C23 C -0.5943(8) 0.1511(8) -0.3533(3)
H24 H -0.6509 0.1832 -0.3458
C24 C -0.6436(7) 0.0171(7) -0.3605(2)
H25 H -0.7339 -0.0401 -0.3562
C25 C -0.5662(6) -0.0362(6) -0.37386(18)
C26 C -0.6266(6) -0.1827(6) -0.38409(19)
H26 H -0.7225 -0.2223 -0.3798
C27 C -0.6041(6) -0.2086(6) -0.43751(19)
H27 H -0.5113 -0.1532 -0.4460
H28 H -0.6272 -0.3004 -0.4413
C28 C -0.6879(7) -0.1785(7) -0.4712(2)
C29 C -0.6356(7) -0.1293(8) -0.5233(2)
C30 C -0.5808(6) -0.2527(6) -0.3470(2)
H29 H -0.5837 -0.2226 -0.3136
C31 C -0.4480(7) -0.2376(8) -0.3561(2)
H30 H -0.3693 -0.1568 -0.3570
C32 C -0.4565(9) -0.3538(9) -0.3626(3)
H31 H -0.3852 -0.3660 -0.3692
C33 C -0.5926(9) -0.4594(8) -0.3580(2)
C34 C -0.7987(8) -0.4655(7) -0.3377(2)
C35 C -0.9659(8) -0.4276(7) -0.2970(2)
C36 C -0.9476(11) -0.3082(10) -0.2704(4)
H32 H -0.8804 -0.2837 -0.2457
H33 H -1.0294 -0.3274 -0.2550
H34 H -0.9211 -0.2365 -0.2932
C37 C -1.0469(11) -0.4490(15) -0.3425(4)
H35 H -1.0054 -0.3707 -0.3626
H36 H -1.1341 -0.4674 -0.3335
H37 H -1.0532 -0.5225 -0.3607
C38 C -1.0194(11) -0.5437(10) -0.2639(4)
H38 H -1.0109 -0.6132 -0.2793
H39 H -1.1111 -0.5742 -0.2574
H40 H -0.9708 -0.5190 -0.2336
loop_
_geom_bond_atom_site_label_1
_geom_bond_atom_site_label_2
_geom_bond_site_symmetry_1
_geom_bond_site_symmetry_2
Cl1 C10 1_555 1_555
Cl2 C10 1_555 1_555
Cl3 C10 1_555 1_555
O1 C9 1_555 1_555
O2 C14 1_555 1_555
O3 C15 1_555 1_555
O4 C15 1_555 1_555
N1 C11 1_555 1_555
C1 H1 1_555 1_555
C2 C1 1_555 1_555
H2 C2 1_555 1_555
C3 C2 1_555 1_555
H3 C3 1_555 1_555
C4 C3 1_555 1_555
H4 C4 1_555 1_555
C5 C4 1_555 1_555
H5 C5 1_555 1_555
C6 C1 1_555 1_555
C7 C6 1_555 1_555
H6 C7 1_555 1_555
C8 C7 1_555 1_555
H7 C8 1_555 1_555
H8 C8 1_555 1_555
C9 C8 1_555 1_555
C10 C9 1_555 1_555
C11 C7 1_555 1_555
H9 C11 1_555 1_555
C12 C11 1_555 1_555
H10 C12 1_555 1_555
C13 C12 1_555 1_555
H11 C13 1_555 1_555
C14 N1 1_555 1_555
C15 N1 1_555 1_555
C16 O4 1_555 1_555
C17 C16 1_555 1_555
H12 C17 1_555 1_555
H13 C17 1_555 1_555
H14 C17 1_555 1_555
C18 C16 1_555 1_555
H15 C18 1_555 1_555
H16 C18 1_555 1_555
H17 C18 1_555 1_555
C19 C16 1_555 1_555
H18 C19 1_555 1_555
H19 C19 1_555 1_555
H20 C19 1_555 1_555
Cl4 C29 1_555 1_555
Cl5 C29 1_555 1_555
Cl6 C29 1_555 1_555
O5 C28 1_555 1_555
O6 C33 1_555 1_555
O7 C34 1_555 1_555
O8 C34 1_555 1_555
N2 C30 1_555 1_555
C20 H21 1_555 1_555
C21 C20 1_555 1_555
H22 C21 1_555 1_555
C22 C21 1_555 1_555
H23 C22 1_555 1_555
C23 C22 1_555 1_555
H24 C23 1_555 1_555
C24 C23 1_555 1_555
H25 C24 1_555 1_555
C25 C20 1_555 1_555
C26 C25 1_555 1_555
H26 C26 1_555 1_555
C27 C26 1_555 1_555
H27 C27 1_555 1_555
H28 C27 1_555 1_555
C28 C27 1_555 1_555
C29 C28 1_555 1_555
C30 C26 1_555 1_555
H29 C30 1_555 1_555
C31 C30 1_555 1_555
H30 C31 1_555 1_555
C32 C31 1_555 1_555
H31 C32 1_555 1_555
C33 N2 1_555 1_555
C34 N2 1_555 1_555
C35 O8 1_555 1_555
C36 C35 1_555 1_555
H32 C36 1_555 1_555
H33 C36 1_555 1_555
H34 C36 1_555 1_555
C37 C35 1_555 1_555
H35 C37 1_555 1_555
H36 C37 1_555 1_555
H37 C37 1_555 1_555
C38 C35 1_555 1_555
H38 C38 1_555 1_555
H39 C38 1_555 1_555
H40 C38 1_555 1_555
C5 C6 1_555 1_555
C13 C14 1_555 1_555
C24 C25 1_555 1_555
C32 C33 1_555 1_555

#END
