
#######################################################################
#
#                 Cambridge Crystallographic Data Centre
#                                CCDC 
#
#######################################################################
#
# If this CIF has been generated from an entry in the Cambridge 
# Structural Database, then it will include bibliographic, chemical, 
# crystal, experimental, refinement or atomic coordinate data resulting 
# from the CCDC's data processing and validation procedures.
#
#######################################################################

data_XIKSUG
_chemical_formula_moiety         'C38 H35 Si2 1+,C24 B1 F20 1-,3.5(C6 F6)'
_chemical_name_systematic        
"1,1-(1-(Di-p-tolylsilyl)-8-(p-tolylsilyl)naphthalene-Si,Si')-4-methylbenzenium tetrakis(pentafluorophenyl)borate hexafluorobenzene solvate"
_symmetry_cell_setting           triclinic
_symmetry_space_group_name_H-M   'P -1'
_symmetry_Int_Tables_number      2
_space_group_name_Hall           '-P 1'
loop_
_symmetry_equiv_pos_site_id
_symmetry_equiv_pos_as_xyz
1 x,y,z
2 -x,-y,-z
_cell_length_a                   13.1319(15)
_cell_length_b                   13.4079(15)
_cell_length_c                   22.577(3)
_cell_angle_alpha                91.468(10)
_cell_angle_beta                 98.749(10)
_cell_angle_gamma                90.850(9)
_cell_volume                     3926.91
_exptl_crystal_colour            colorless
_exptl_crystal_description       plate
_cell_formula_units_Z            2
loop_
_atom_site_label
_atom_site_type_symbol
_atom_site_fract_x
_atom_site_fract_y
_atom_site_fract_z
Si1 Si 0.58715(12) 0.52914(10) 0.40777(7)
H1 H 0.560(3) 0.437(3) 0.4325(18)
Si2 Si 0.46402(11) 0.45838(10) 0.29085(7)
C1 C 0.4899(4) 0.6311(4) 0.4012(3)
C2 C 0.5002(5) 0.6974(5) 0.4492(3)
H2 H 0.5527 0.6873 0.4822
C3 C 0.4351(5) 0.7805(5) 0.4511(4)
H3 H 0.4426 0.8245 0.4852
C4 C 0.3608(5) 0.7956(5) 0.4023(4)
H4 H 0.3184 0.8524 0.4026
C5 C 0.3455(4) 0.7299(4) 0.3520(3)
C6 C 0.4104(4) 0.6435(4) 0.3506(3)
C7 C 0.3935(4) 0.5780(4) 0.2993(3)
C8 C 0.3140(4) 0.5970(4) 0.2525(3)
H5 H 0.3017 0.5526 0.2186
C9 C 0.2510(5) 0.6828(5) 0.2553(3)
H6 H 0.1967 0.6942 0.2234
C10 C 0.2674(4) 0.7471(4) 0.3022(4)
H7 H 0.2266 0.8050 0.3023
C11 C 0.7144(4) 0.5686(4) 0.4504(2)
C12 C 0.7659(4) 0.6574(4) 0.4410(2)
H8 H 0.7358 0.6999 0.4104
C13 C 0.8588(4) 0.6853(4) 0.4746(3)
H9 H 0.8910 0.7466 0.4670
C14 C 0.9066(5) 0.6243(5) 0.5198(3)
C15 C 0.8581(6) 0.5363(5) 0.5282(3)
H10 H 0.8902 0.4933 0.5580
C16 C 0.7644(5) 0.5066(4) 0.4954(3)
H11 H 0.7335 0.4447 0.5031
C17 C 1.0059(6) 0.6582(7) 0.5601(4)
H12 H 0.9943 0.6609 0.6019
H13 H 1.0266 0.7246 0.5485
H14 H 1.0606 0.6109 0.5555
C18 C 0.6094(4) 0.4905(3) 0.3248(2)
C19 C 0.6511(4) 0.5765(3) 0.2990(2)
H15 H 0.6100 0.6341 0.2923
C20 C 0.7477(4) 0.5776(4) 0.2839(3)
H16 H 0.7739 0.6362 0.2682
C21 C 0.8093(4) 0.4913(4) 0.2914(3)
C22 C 0.7721(4) 0.4069(4) 0.3164(3)
H17 H 0.8143 0.3501 0.3229
C23 C 0.6747(4) 0.4050(4) 0.3317(2)
H18 H 0.6499 0.3458 0.3473
C24 C 0.9146(5) 0.4913(5) 0.2722(4)
H19 H 0.9669 0.4780 0.3068
H20 H 0.9288 0.5565 0.2563
H21 H 0.9164 0.4394 0.2411
C25 C 0.4591(4) 0.4206(4) 0.2105(3)
C26 C 0.5161(5) 0.4689(4) 0.1708(3)
H22 H 0.5645 0.5202 0.1859
C27 C 0.5022(5) 0.4423(5) 0.1099(3)
H23 H 0.5422 0.4757 0.0846
C28 C 0.4321(5) 0.3687(5) 0.0853(3)
C29 C 0.3765(5) 0.3195(5) 0.1243(3)
H24 H 0.3283 0.2682 0.1089
C30 C 0.3904(4) 0.3445(4) 0.1855(3)
H25 H 0.3521 0.3089 0.2109
C31 C 0.4188(6) 0.3418(6) 0.0189(3)
H26 H 0.3666 0.3844 -0.0029
H27 H 0.3966 0.2717 0.0125
H28 H 0.4845 0.3518 0.0041
C32 C 0.4179(4) 0.3547(4) 0.3347(2)
C33 C 0.3414(4) 0.3681(4) 0.3711(3)
H29 H 0.3115 0.4318 0.3738
C34 C 0.3086(5) 0.2909(4) 0.4032(3)
H30 H 0.2575 0.3036 0.4279
C35 C 0.3473(5) 0.1954(4) 0.4009(3)
C36 C 0.4231(4) 0.1798(4) 0.3634(3)
H31 H 0.4518 0.1156 0.3605
C37 C 0.4559(4) 0.2568(4) 0.3311(2)
H32 H 0.5057 0.2437 0.3055
C38 C 0.3102(6) 0.1121(5) 0.4363(3)
H33 H 0.3225 0.1309 0.4791
H34 H 0.3478 0.0513 0.4296
H35 H 0.2363 0.1001 0.4234
B1 B 0.0757(4) 0.0317(4) 0.7151(3)
C39 C 0.1159(4) 0.0906(3) 0.7798(2)
C40 C 0.0430(4) 0.1307(4) 0.8124(3)
C41 C 0.0670(6) 0.1730(5) 0.8709(4)
C42 C 0.1663(7) 0.1766(5) 0.8977(3)
C43 C 0.2421(5) 0.1359(5) 0.8691(3)
C44 C 0.2150(4) 0.0951(4) 0.8121(3)
F1 F -0.0579(2) 0.1305(2) 0.78693(17)
F2 F -0.0105(4) 0.2106(3) 0.8990(2)
F3 F 0.1905(4) 0.2180(4) 0.9545(2)
F4 F 0.3411(3) 0.1379(3) 0.89702(18)
F5 F 0.2959(2) 0.0564(2) 0.78770(14)
C45 C 0.0060(4) 0.1009(4) 0.6643(3)
C46 C -0.0034(4) 0.2058(4) 0.6692(3)
C47 C -0.0606(5) 0.2596(5) 0.6239(4)
C48 C -0.1065(5) 0.2131(6) 0.5733(4)
C49 C -0.0978(5) 0.1096(6) 0.5646(3)
C50 C -0.0410(4) 0.0578(4) 0.6119(3)
F6 F 0.0403(3) 0.2602(2) 0.71632(19)
F7 F -0.0698(3) 0.3591(3) 0.6299(2)
F8 F -0.1657(3) 0.2625(4) 0.5279(2)
F9 F -0.1429(3) 0.0608(4) 0.51486(19)
F10 F -0.0342(3) -0.0425(3) 0.60177(15)
C51 C 0.0101(4) -0.0645(4) 0.7359(2)
C52 C -0.0955(4) -0.0771(4) 0.7288(2)
C53 C -0.1468(4) -0.1546(4) 0.7522(3)
C54 C -0.0903(5) -0.2245(4) 0.7867(3)
C55 C 0.0147(5) -0.2141(4) 0.7969(3)
C56 C 0.0621(4) -0.1361(4) 0.7731(3)
F11 F -0.1598(2) -0.0128(2) 0.69563(15)
F12 F -0.2506(2) -0.1619(3) 0.74349(18)
F13 F -0.1388(3) -0.2998(3) 0.8111(2)
F14 F 0.0705(3) -0.2803(3) 0.83306(19)
F15 F 0.1665(2) -0.1287(2) 0.78668(14)
C57 C 0.1718(4) 0.0008(3) 0.6780(2)
C58 C 0.2356(4) 0.0750(3) 0.6607(2)
C59 C 0.3095(4) 0.0616(4) 0.6237(2)
C60 C 0.3222(4) -0.0329(4) 0.6011(2)
C61 C 0.2625(5) -0.1105(4) 0.6162(3)
C62 C 0.1900(4) -0.0926(3) 0.6534(2)
F16 F 0.2261(2) 0.17124(19) 0.68137(14)
F17 F 0.3668(2) 0.1392(2) 0.60890(15)
F18 F 0.3919(3) -0.0475(3) 0.56282(15)
F19 F 0.2739(3) -0.2041(2) 0.59340(17)
F20 F 0.1317(3) -0.1742(2) 0.66335(16)
C63 C -0.0244(9) 0.5917(6) 0.9427(5)
C64 C -0.0563(9) 0.5254(7) 0.8995(4)
C65 C 0.0088(10) 0.4668(7) 0.8778(4)
C66 C 0.1137(10) 0.4720(6) 0.9001(5)
C67 C 0.1479(9) 0.5370(7) 0.9468(5)
C68 C 0.0787(11) 0.5985(6) 0.9672(4)
F21 F -0.0905(6) 0.6519(5) 0.9654(3)
F22 F -0.1580(5) 0.5167(5) 0.8770(3)
F23 F -0.0205(7) 0.3960(5) 0.8333(3)
F24 F 0.1818(6) 0.4118(4) 0.8798(4)
F25 F 0.2475(5) 0.5418(4) 0.9715(3)
F26 F 0.1107(6) 0.6649(4) 1.0133(3)
C69 C 0.6931(6) 0.1000(6) 0.8311(4)
C70 C 0.6848(6) 0.1672(6) 0.8760(3)
C71 C 0.6032(6) 0.2292(5) 0.8726(3)
C72 C 0.5278(6) 0.2233(5) 0.8217(4)
C73 C 0.5386(6) 0.1575(6) 0.7763(3)
C74 C 0.6203(7) 0.0969(6) 0.7798(4)
F27 F 0.7737(4) 0.0369(4) 0.8361(3)
F28 F 0.7574(4) 0.1709(4) 0.9253(2)
F29 F 0.5943(5) 0.2951(3) 0.9174(2)
F30 F 0.4460(4) 0.2837(3) 0.8181(2)
F31 F 0.4668(4) 0.1556(4) 0.7267(2)
F32 F 0.6290(5) 0.0320(4) 0.7345(3)
C75 C 0.5883(7) 0.1336(6) 0.0700(3)
C76 C 0.6524(6) 0.2157(5) 0.0845(3)
C77 C 0.6704(4) 0.2526(4) 0.1418(3)
C78 C 0.6260(4) 0.2049(4) 0.1858(3)
C79 C 0.5624(5) 0.1238(4) 0.1711(3)
C80 C 0.5433(6) 0.0879(5) 0.1133(3)
F33 F 0.5694(5) 0.1007(4) 0.0123(2)
F34 F 0.6968(4) 0.2608(4) 0.0420(2)
F35 F 0.7306(3) 0.3339(3) 0.15710(19)
F36 F 0.6466(3) 0.2377(3) 0.24303(18)
F37 F 0.5194(4) 0.0790(3) 0.2139(2)
F38 F 0.4793(4) 0.0085(3) 0.0990(2)
C81 C 0.057(2) -0.0547(14) -0.0363(8)
C82 C 0.1043(15) 0.0115(13) 0.0069(8)
C83 C -0.047(2) -0.0677(10) -0.0420(6)
F39 F 0.1064(8) -0.1130(7) -0.0712(4)
F40 F 0.2081(9) 0.0182(7) 0.0107(4)
F41 F -0.1020(9) -0.1312(7) -0.0824(4)
C81A C -0.057(2) 0.0547(14) 0.0363(8)
C82A C -0.1043(15) -0.0115(13) -0.0069(8)
C83A C 0.047(2) 0.0677(10) 0.0420(6)
F39A F -0.1064(8) 0.1130(7) 0.0712(4)
F40A F -0.2081(9) -0.0182(7) -0.0107(4)
F41A F 0.1020(9) 0.1312(7) 0.0824(4)
loop_
_geom_bond_atom_site_label_1
_geom_bond_atom_site_label_2
_geom_bond_site_symmetry_1
_geom_bond_site_symmetry_2
Si1 H1 1_555 1_555
Si2 C7 1_555 1_555
C1 Si1 1_555 1_555
C2 C1 1_555 1_555
H2 C2 1_555 1_555
C3 C2 1_555 1_555
H3 C3 1_555 1_555
C4 C3 1_555 1_555
H4 C4 1_555 1_555
C5 C4 1_555 1_555
C6 C1 1_555 1_555
C7 C6 1_555 1_555
C8 C7 1_555 1_555
H5 C8 1_555 1_555
C9 C8 1_555 1_555
H6 C9 1_555 1_555
C10 C5 1_555 1_555
H7 C10 1_555 1_555
C11 Si1 1_555 1_555
C12 C11 1_555 1_555
H8 C12 1_555 1_555
C13 C12 1_555 1_555
H9 C13 1_555 1_555
C14 C13 1_555 1_555
C15 C14 1_555 1_555
H10 C15 1_555 1_555
C16 C11 1_555 1_555
H11 C16 1_555 1_555
C17 C14 1_555 1_555
H12 C17 1_555 1_555
H13 C17 1_555 1_555
H14 C17 1_555 1_555
C18 Si1 1_555 1_555
C19 C18 1_555 1_555
H15 C19 1_555 1_555
C20 C19 1_555 1_555
H16 C20 1_555 1_555
C21 C20 1_555 1_555
C22 C21 1_555 1_555
H17 C22 1_555 1_555
C23 C18 1_555 1_555
H18 C23 1_555 1_555
C24 C21 1_555 1_555
H19 C24 1_555 1_555
H20 C24 1_555 1_555
H21 C24 1_555 1_555
C25 Si2 1_555 1_555
C26 C25 1_555 1_555
H22 C26 1_555 1_555
C27 C26 1_555 1_555
H23 C27 1_555 1_555
C28 C27 1_555 1_555
C29 C28 1_555 1_555
H24 C29 1_555 1_555
C30 C25 1_555 1_555
H25 C30 1_555 1_555
C31 C28 1_555 1_555
H26 C31 1_555 1_555
H27 C31 1_555 1_555
H28 C31 1_555 1_555
C32 Si2 1_555 1_555
C33 C32 1_555 1_555
H29 C33 1_555 1_555
C34 C33 1_555 1_555
H30 C34 1_555 1_555
C35 C34 1_555 1_555
C36 C35 1_555 1_555
H31 C36 1_555 1_555
C37 C32 1_555 1_555
H32 C37 1_555 1_555
C38 C35 1_555 1_555
H33 C38 1_555 1_555
H34 C38 1_555 1_555
H35 C38 1_555 1_555
B1 C39 1_555 1_555
C39 C40 1_555 1_555
C40 C41 1_555 1_555
C41 C42 1_555 1_555
C42 C43 1_555 1_555
C43 C44 1_555 1_555
C44 C39 1_555 1_555
F1 C40 1_555 1_555
F2 C41 1_555 1_555
F3 C42 1_555 1_555
F4 C43 1_555 1_555
F5 C44 1_555 1_555
C45 B1 1_555 1_555
C46 C45 1_555 1_555
C47 C46 1_555 1_555
C48 C47 1_555 1_555
C49 C48 1_555 1_555
C50 C45 1_555 1_555
F6 C46 1_555 1_555
F7 C47 1_555 1_555
F8 C48 1_555 1_555
F9 C49 1_555 1_555
F10 C50 1_555 1_555
C51 B1 1_555 1_555
C52 C51 1_555 1_555
C53 C52 1_555 1_555
C54 C53 1_555 1_555
C55 C54 1_555 1_555
C56 C51 1_555 1_555
F11 C52 1_555 1_555
F12 C53 1_555 1_555
F13 C54 1_555 1_555
F14 C55 1_555 1_555
F15 C56 1_555 1_555
C57 B1 1_555 1_555
C58 C57 1_555 1_555
C59 C58 1_555 1_555
C60 C59 1_555 1_555
C61 C60 1_555 1_555
C62 C57 1_555 1_555
F16 C58 1_555 1_555
F17 C59 1_555 1_555
F18 C60 1_555 1_555
F19 C61 1_555 1_555
F20 C62 1_555 1_555
C63 C64 1_555 1_555
C64 C65 1_555 1_555
C65 C66 1_555 1_555
C66 C67 1_555 1_555
C67 C68 1_555 1_555
C68 C63 1_555 1_555
F21 C63 1_555 1_555
F22 C64 1_555 1_555
F23 C65 1_555 1_555
F24 C66 1_555 1_555
F25 C67 1_555 1_555
F26 C68 1_555 1_555
C69 C70 1_555 1_555
C70 C71 1_555 1_555
C71 C72 1_555 1_555
C72 C73 1_555 1_555
C73 C74 1_555 1_555
C74 C69 1_555 1_555
F27 C69 1_555 1_555
F28 C70 1_555 1_555
F29 C71 1_555 1_555
F30 C72 1_555 1_555
F31 C73 1_555 1_555
F32 C74 1_555 1_555
C75 C76 1_555 1_555
C76 C77 1_555 1_555
C77 C78 1_555 1_555
C78 C79 1_555 1_555
C79 C80 1_555 1_555
C80 C75 1_555 1_555
F33 C75 1_555 1_555
F34 C76 1_555 1_555
F35 C77 1_555 1_555
F36 C78 1_555 1_555
F37 C79 1_555 1_555
F38 C80 1_555 1_555
C81 C82 1_555 1_555
C82 F40 1_555 1_555
C83 C81 1_555 1_555
F39 C81 1_555 1_555
F41 C83 1_555 1_555
C81A C82A 1_555 1_555
C82A C83 1_555 1_555
C83A C82 1_555 1_555
F39A C81A 1_555 1_555
F40A C82A 1_555 1_555
F41A C83A 1_555 1_555
Si2 C18 1_555 1_555
C5 C6 1_555 1_555
C9 C10 1_555 1_555
C15 C16 1_555 1_555
C22 C23 1_555 1_555
C29 C30 1_555 1_555
C36 C37 1_555 1_555
C49 C50 1_555 1_555
C55 C56 1_555 1_555
C61 C62 1_555 1_555
C81A C83A 1_555 1_555

#END
