
#######################################################################
#
#                 Cambridge Crystallographic Data Centre
#                                CCDC 
#
#######################################################################
#
# If this CIF has been generated from an entry in the Cambridge 
# Structural Database, then it will include bibliographic, chemical, 
# crystal, experimental, refinement or atomic coordinate data resulting 
# from the CCDC's data processing and validation procedures.
#
#######################################################################

data_XIKWAS
_chemical_formula_moiety         'C25 H16 N4 S1'
_chemical_name_systematic        
7-[4-(diphenylamino)phenyl]-2,1,3-benzothiadiazole-4-carbonitrile
_symmetry_cell_setting           monoclinic
_symmetry_space_group_name_H-M   'P 21/c'
_symmetry_Int_Tables_number      14
_space_group_name_Hall           '-P 2ybc'
loop_
_symmetry_equiv_pos_site_id
_symmetry_equiv_pos_as_xyz
1 x,y,z
2 -x,1/2+y,1/2-z
3 -x,-y,-z
4 x,1/2-y,1/2+z
_cell_length_a                   15.987(3)
_cell_length_b                   11.2031(19)
_cell_length_c                   11.3627(17)
_cell_angle_alpha                90
_cell_angle_beta                 100.358(5)
_cell_angle_gamma                90
_cell_volume                     2001.94
_exptl_crystal_colour            red
_exptl_crystal_description       needle
_cell_formula_units_Z            4
loop_
_atom_site_label
_atom_site_type_symbol
_atom_site_fract_x
_atom_site_fract_y
_atom_site_fract_z
C1 C 0.94923(14) 0.71815(19) 0.38795(18)
C2 C 0.98309(14) 0.6293(2) 0.32051(18)
C3 C 0.95674(13) 0.5141(2) 0.32962(18)
H1 H 0.9779 0.4548 0.2857
C4 C 0.89830(14) 0.48261(19) 0.40388(18)
H2 H 0.8831 0.4027 0.4074
C5 C 0.86245(13) 0.56393(19) 0.47170(18)
C6 C 0.88899(13) 0.68592(18) 0.46174(18)
C7 C 0.80337(13) 0.52604(18) 0.54999(18)
C8 C 0.75362(15) 0.4223(2) 0.5255(2)
H3 H 0.7564 0.3793 0.4563
C9 C 0.70104(14) 0.3824(2) 0.6004(2)
H4 H 0.6691 0.3134 0.5812
C10 C 0.69506(13) 0.4442(2) 0.70497(19)
C11 C 0.74338(14) 0.5479(2) 0.72953(19)
H5 H 0.7402 0.5908 0.7986
C12 C 0.79555(14) 0.58821(19) 0.65417(19)
H6 H 0.8263 0.6583 0.6729
C13 C 0.50945(16) 0.4091(2) 0.6375(2)
H7 H 0.5306 0.4734 0.6001
C14 C 0.42876(16) 0.3666(2) 0.5926(2)
H8 H 0.3969 0.4013 0.5247
C15 C 0.39592(19) 0.2744(3) 0.6473(3)
H9 H 0.3417 0.2456 0.6173
C16 C 0.4440(2) 0.2241(3) 0.7477(3)
H10 H 0.4213 0.1626 0.7871
C17 C 0.52582(19) 0.2641(3) 0.7910(3)
H11 H 0.5584 0.2272 0.8571
C18 C 0.55914(14) 0.3582(2) 0.7363(2)
C19 C 0.66692(14) 0.4213(2) 0.90843(19)
C20 C 0.61051(18) 0.4688(3) 0.9753(2)
H12 H 0.5554 0.4886 0.9388
C21 C 0.6369(2) 0.4864(4) 1.0972(3)
H13 H 0.5988 0.5170 1.1425
C22 C 0.7181(2) 0.4595(3) 1.1517(2)
H14 H 0.7354 0.4729 1.2333
C23 C 0.77320(17) 0.4133(2) 1.0863(2)
H15 H 0.8284 0.3947 1.1233
C24 C 0.74816(15) 0.3934(2) 0.9648(2)
H16 H 0.7865 0.3610 0.9209
C25 C 1.04229(15) 0.6634(2) 0.2448(2)
N1 N 0.96713(12) 0.83599(16) 0.38857(16)
N2 N 0.86130(12) 0.78243(16) 0.51580(17)
N3 N 0.64160(12) 0.40346(17) 0.78298(16)
N4 N 1.08750(15) 0.6934(2) 0.1832(2)
S1 S 0.90993(4) 0.89687(5) 0.47467(5)
loop_
_geom_bond_atom_site_label_1
_geom_bond_atom_site_label_2
_geom_bond_site_symmetry_1
_geom_bond_site_symmetry_2
C1 C2 1_555 1_555
C2 C3 1_555 1_555
C3 H1 1_555 1_555
C4 C3 1_555 1_555
H2 C4 1_555 1_555
C5 C4 1_555 1_555
C6 C1 1_555 1_555
C7 C5 1_555 1_555
C8 C7 1_555 1_555
H3 C8 1_555 1_555
C9 C8 1_555 1_555
H4 C9 1_555 1_555
C10 C9 1_555 1_555
C11 C10 1_555 1_555
H5 C11 1_555 1_555
C12 C7 1_555 1_555
H6 C12 1_555 1_555
C13 H7 1_555 1_555
C14 C13 1_555 1_555
H8 C14 1_555 1_555
C15 C14 1_555 1_555
H9 C15 1_555 1_555
C16 C15 1_555 1_555
H10 C16 1_555 1_555
C17 C16 1_555 1_555
H11 C17 1_555 1_555
C18 C13 1_555 1_555
C19 C20 1_555 1_555
C20 H12 1_555 1_555
C21 C20 1_555 1_555
H13 C21 1_555 1_555
C22 C21 1_555 1_555
H14 C22 1_555 1_555
C23 C22 1_555 1_555
H15 C23 1_555 1_555
C24 C19 1_555 1_555
H16 C24 1_555 1_555
C25 C2 1_555 1_555
N1 C1 1_555 1_555
N2 C6 1_555 1_555
N3 C10 1_555 1_555
N4 C25 1_555 1_555
S1 N1 1_555 1_555
C5 C6 1_555 1_555
C11 C12 1_555 1_555
C17 C18 1_555 1_555
C18 N3 1_555 1_555
C19 N3 1_555 1_555
C23 C24 1_555 1_555
N2 S1 1_555 1_555

#END
