
#######################################################################
#
#                 Cambridge Crystallographic Data Centre
#                                CCDC 
#
#######################################################################
#
# If this CIF has been generated from an entry in the Cambridge 
# Structural Database, then it will include bibliographic, chemical, 
# crystal, experimental, refinement or atomic coordinate data resulting 
# from the CCDC's data processing and validation procedures.
#
#######################################################################

data_XIKXUN
_chemical_formula_moiety         'C29 H17 Br1 O2'
_chemical_name_systematic        
12-(4-bromophenyl)-7-phenyl-5H-benzo[d]naphtho[2,3-b]pyran-5-one
_symmetry_cell_setting           monoclinic
_symmetry_space_group_name_H-M   'P 21/n'
_symmetry_Int_Tables_number      14
_space_group_name_Hall           '-P 2yn'
loop_
_symmetry_equiv_pos_site_id
_symmetry_equiv_pos_as_xyz
1 x,y,z
2 1/2-x,1/2+y,1/2-z
3 -x,-y,-z
4 1/2+x,1/2-y,1/2+z
_cell_length_a                   11.1716(8)
_cell_length_b                   15.2901(10)
_cell_length_c                   12.3465(9)
_cell_angle_alpha                90
_cell_angle_beta                 100.997(7)
_cell_angle_gamma                90
_cell_volume                     2070.24
_exptl_crystal_colour            colorless
_exptl_crystal_description       block
_cell_formula_units_Z            4
loop_
_atom_site_label
_atom_site_type_symbol
_atom_site_fract_x
_atom_site_fract_y
_atom_site_fract_z
Br1 Br -0.02848(3) 0.31292(2) 0.82654(3)
O1 O 0.6596(2) 0.42169(17) 0.3427(2)
O2 O 0.46218(18) 0.41478(14) 0.28516(19)
C1 C 0.4166(3) 0.3537(2) 0.6088(3)
H1 H 0.340668 0.343539 0.626848
C2 C 0.5200(3) 0.3466(2) 0.6903(3)
H2 H 0.512511 0.331061 0.761497
C3 C 0.6346(3) 0.3624(2) 0.6669(3)
H3 H 0.703702 0.358178 0.722154
C4 C 0.6449(3) 0.3842(2) 0.5614(3)
H4 H 0.721428 0.394675 0.544897
C5 C 0.5409(3) 0.39071(19) 0.4783(3)
C6 C 0.4228(3) 0.37574(19) 0.5003(3)
C7 C 0.3172(3) 0.38213(19) 0.4072(3)
C8 C 0.3439(3) 0.40015(19) 0.3011(3)
C9 C 0.5613(3) 0.4102(2) 0.3678(3)
C10 C 0.1946(3) 0.36959(19) 0.4124(3)
C11 C 0.1027(3) 0.3731(2) 0.3150(3)
C12 C 0.1343(3) 0.3894(2) 0.2106(3)
C13 C 0.2594(3) 0.4022(2) 0.2044(3)
C14 C 0.0407(3) 0.3938(2) 0.1153(3)
H5 H 0.060956 0.405711 0.047085
C15 C -0.0780(3) 0.3810(2) 0.1221(3)
H6 H -0.137984 0.383451 0.058538
C16 C -0.1107(3) 0.3642(2) 0.2244(3)
H7 H -0.192112 0.355446 0.228255
C17 C -0.0237(3) 0.3607(2) 0.3180(3)
H8 H -0.046897 0.349954 0.385246
C18 C 0.1490(3) 0.3543(2) 0.5170(3)
C19 C 0.1187(3) 0.2718(2) 0.5479(3)
H9 H 0.133713 0.224106 0.505656
C20 C 0.0671(3) 0.2575(2) 0.6389(3)
H10 H 0.048345 0.201191 0.658555
C21 C 0.0436(3) 0.3292(2) 0.7008(3)
C22 C 0.0729(3) 0.4128(2) 0.6724(3)
H11 H 0.057565 0.460406 0.714607
C23 C 0.1249(3) 0.4251(2) 0.5808(3)
H12 H 0.144302 0.481380 0.561410
C24 C 0.2941(3) 0.4157(2) 0.0953(3)
C25 C 0.3299(3) 0.4964(2) 0.0624(3)
H13 H 0.337893 0.543175 0.111322
C26 C 0.3538(3) 0.5084(2) -0.0420(3)
H14 H 0.376531 0.563372 -0.063152
C27 C 0.3443(3) 0.4395(2) -0.1158(3)
H15 H 0.359992 0.447834 -0.186426
C28 C 0.3114(3) 0.3582(2) -0.0830(3)
H16 H 0.305572 0.311201 -0.131529
C29 C 0.2870(3) 0.3464(2) 0.0211(3)
H17 H 0.265489 0.291089 0.042311
loop_
_geom_bond_atom_site_label_1
_geom_bond_atom_site_label_2
_geom_bond_site_symmetry_1
_geom_bond_site_symmetry_2
Br1 C21 1_555 1_555
O1 C9 1_555 1_555
O2 C8 1_555 1_555
C1 H1 1_555 1_555
C2 C1 1_555 1_555
H2 C2 1_555 1_555
C3 C2 1_555 1_555
H3 C3 1_555 1_555
C4 C3 1_555 1_555
H4 C4 1_555 1_555
C5 C4 1_555 1_555
C6 C1 1_555 1_555
C7 C6 1_555 1_555
C8 C7 1_555 1_555
C9 O2 1_555 1_555
C10 C7 1_555 1_555
C11 C10 1_555 1_555
C12 C11 1_555 1_555
C13 C8 1_555 1_555
C14 C12 1_555 1_555
H5 C14 1_555 1_555
C15 C14 1_555 1_555
H6 C15 1_555 1_555
C16 C15 1_555 1_555
H7 C16 1_555 1_555
C17 C11 1_555 1_555
H8 C17 1_555 1_555
C18 C10 1_555 1_555
C19 C18 1_555 1_555
H9 C19 1_555 1_555
C20 C19 1_555 1_555
H10 C20 1_555 1_555
C21 C20 1_555 1_555
C22 C21 1_555 1_555
H11 C22 1_555 1_555
C23 C18 1_555 1_555
H12 C23 1_555 1_555
C24 C13 1_555 1_555
C25 C24 1_555 1_555
H13 C25 1_555 1_555
C26 C25 1_555 1_555
H14 C26 1_555 1_555
C27 C26 1_555 1_555
H15 C27 1_555 1_555
C28 C27 1_555 1_555
H16 C28 1_555 1_555
C29 C24 1_555 1_555
H17 C29 1_555 1_555
C5 C6 1_555 1_555
C5 C9 1_555 1_555
C12 C13 1_555 1_555
C16 C17 1_555 1_555
C22 C23 1_555 1_555
C28 C29 1_555 1_555

#END
