
#######################################################################
#
#                 Cambridge Crystallographic Data Centre
#                                CCDC 
#
#######################################################################
#
# If this CIF has been generated from an entry in the Cambridge 
# Structural Database, then it will include bibliographic, chemical, 
# crystal, experimental, refinement or atomic coordinate data resulting 
# from the CCDC's data processing and validation procedures.
#
#######################################################################

data_XIKYEY
_chemical_formula_moiety         'C22 H22 N2 O3 S1'
_chemical_name_systematic        
3-methyl-1-[(4-methylphenyl)sulfonyl]-2-phenyl-1,2,3,5-tetrahydro-4,1,3-benzoxadiazepine
_symmetry_cell_setting           orthorhombic
_symmetry_space_group_name_H-M   'P b c a'
_symmetry_Int_Tables_number      61
_space_group_name_Hall           '-P 2ac 2ab'
loop_
_symmetry_equiv_pos_site_id
_symmetry_equiv_pos_as_xyz
1 x,y,z
2 1/2-x,-y,1/2+z
3 -x,1/2+y,1/2-z
4 1/2+x,1/2-y,-z
5 -x,-y,-z
6 1/2+x,y,1/2-z
7 x,1/2-y,1/2+z
8 1/2-x,1/2+y,z
_cell_length_a                   14.4748(5)
_cell_length_b                   16.3892(4)
_cell_length_c                   16.9065(5)
_cell_angle_alpha                90
_cell_angle_beta                 90
_cell_angle_gamma                90
_cell_volume                     4010.74
_exptl_crystal_colour            colorless
_exptl_crystal_description       Block
_cell_formula_units_Z            8
loop_
_atom_site_label
_atom_site_type_symbol
_atom_site_fract_x
_atom_site_fract_y
_atom_site_fract_z
S1 S 0.61852(4) 0.32334(3) 0.62476(3)
O1 O 0.82343(9) 0.32630(8) 0.71766(8)
O2 O 0.53209(10) 0.28067(10) 0.62839(9)
O3 O 0.62589(12) 0.39762(9) 0.58069(9)
N1 N 0.64553(11) 0.34682(9) 0.71640(9)
N2 N 0.79177(11) 0.39189(9) 0.76812(10)
C1 C 0.71872(13) 0.23684(11) 0.79421(11)
C2 C 0.64016(13) 0.28203(10) 0.77412(11)
C3 C 0.70247(14) 0.41835(11) 0.73454(12)
H1 H 0.7138 0.4490 0.6857
C4 C 0.69997(14) 0.25327(12) 0.58669(11)
C5 C 0.55564(14) 0.26671(12) 0.80935(12)
H2 H 0.5046 0.2986 0.7967
C6 C 0.65268(13) 0.47282(11) 0.79293(12)
C7 C 0.77334(15) 0.28036(13) 0.54121(12)
H3 H 0.7814 0.3358 0.5319
C8 C 0.81398(14) 0.25236(12) 0.76114(14)
H4 H 0.8577 0.2531 0.8046
H5 H 0.8305 0.2072 0.7269
C9 C 0.75152(15) 0.11610(12) 0.57022(13)
H6 H 0.7441 0.0607 0.5803
C10 C 0.68905(15) 0.17077(12) 0.60183(13)
H7 H 0.6403 0.1524 0.6329
C11 C 0.83438(15) 0.22445(13) 0.50977(13)
H8 H 0.8829 0.2428 0.4784
C12 C 0.82499(14) 0.14151(13) 0.52388(12)
C13 C 0.54870(15) 0.58467(13) 0.81642(15)
H9 H 0.5126 0.6271 0.7970
C14 C 0.59789(14) 0.53622(11) 0.76473(13)
H10 H 0.5944 0.5460 0.7106
C15 C 0.70754(16) 0.17427(12) 0.84900(13)
H11 H 0.7584 0.1430 0.8634
C16 C 0.55269(16) 0.57059(14) 0.89631(16)
H12 H 0.5193 0.6033 0.9310
C17 C 0.65645(16) 0.45896(13) 0.87363(13)
H13 H 0.6927 0.4168 0.8934
C18 C 0.54740(17) 0.20378(14) 0.86338(13)
H14 H 0.4906 0.1928 0.8868
C19 C 0.60644(17) 0.50774(15) 0.92493(14)
H15 H 0.6091 0.4981 0.9791
C20 C 0.62312(19) 0.15761(14) 0.88228(13)
H16 H 0.6173 0.1147 0.9179
C21 C 0.86166(16) 0.45559(14) 0.76004(17)
H17 H 0.9187 0.4371 0.7828
H18 H 0.8414 0.5039 0.7870
H19 H 0.8708 0.4676 0.7050
C22 C 0.89108(17) 0.08121(15) 0.48831(16)
H20 H 0.9367 0.0663 0.5269
H21 H 0.9210 0.1053 0.4433
H22 H 0.8578 0.0334 0.4719
loop_
_geom_bond_atom_site_label_1
_geom_bond_atom_site_label_2
_geom_bond_site_symmetry_1
_geom_bond_site_symmetry_2
S1 O2 1_555 1_555
O1 N2 1_555 1_555
O3 S1 1_555 1_555
N1 S1 1_555 1_555
N2 C3 1_555 1_555
C1 C2 1_555 1_555
C2 N1 1_555 1_555
C3 N1 1_555 1_555
H1 C3 1_555 1_555
C4 S1 1_555 1_555
C5 C2 1_555 1_555
H2 C5 1_555 1_555
C6 C3 1_555 1_555
C7 C4 1_555 1_555
H3 C7 1_555 1_555
C8 O1 1_555 1_555
H4 C8 1_555 1_555
H5 C8 1_555 1_555
C9 H6 1_555 1_555
C10 C4 1_555 1_555
H7 C10 1_555 1_555
C11 C7 1_555 1_555
H8 C11 1_555 1_555
C12 C9 1_555 1_555
C13 H9 1_555 1_555
C14 C6 1_555 1_555
H10 C14 1_555 1_555
C15 C1 1_555 1_555
H11 C15 1_555 1_555
C16 C13 1_555 1_555
H12 C16 1_555 1_555
C17 C6 1_555 1_555
H13 C17 1_555 1_555
C18 C5 1_555 1_555
H14 C18 1_555 1_555
C19 C16 1_555 1_555
H15 C19 1_555 1_555
C20 C15 1_555 1_555
H16 C20 1_555 1_555
C21 N2 1_555 1_555
H17 C21 1_555 1_555
H18 C21 1_555 1_555
H19 C21 1_555 1_555
C22 C12 1_555 1_555
H20 C22 1_555 1_555
H21 C22 1_555 1_555
H22 C22 1_555 1_555
C1 C8 1_555 1_555
C9 C10 1_555 1_555
C11 C12 1_555 1_555
C13 C14 1_555 1_555
C17 C19 1_555 1_555
C18 C20 1_555 1_555

#END
