
#######################################################################
#
#                 Cambridge Crystallographic Data Centre
#                                CCDC 
#
#######################################################################
#
# If this CIF has been generated from an entry in the Cambridge 
# Structural Database, then it will include bibliographic, chemical, 
# crystal, experimental, refinement or atomic coordinate data resulting 
# from the CCDC's data processing and validation procedures.
#
#######################################################################

data_XIKZOJ
_chemical_formula_moiety         'C23 H27 N1 O5 S1'
_chemical_name_systematic        
'methyl 1-({[(4-methylphenyl)sulfonyl]amino}methyl)-2-propanoyl-1,2,3,4-tetrahydronaphthalene-2-carboxylate'
_symmetry_cell_setting           triclinic
_symmetry_space_group_name_H-M   'P -1'
_symmetry_Int_Tables_number      2
_space_group_name_Hall           '-P 1'
loop_
_symmetry_equiv_pos_site_id
_symmetry_equiv_pos_as_xyz
1 x,y,z
2 -x,-y,-z
_cell_length_a                   9.9413(5)
_cell_length_b                   10.2226(5)
_cell_length_c                   10.9939(5)
_cell_angle_alpha                89.928(4)
_cell_angle_beta                 81.047(4)
_cell_angle_gamma                83.729(4)
_cell_volume                     1096.91
_exptl_crystal_colour            colorless
_exptl_crystal_description       block
_cell_formula_units_Z            2
loop_
_atom_site_label
_atom_site_type_symbol
_atom_site_fract_x
_atom_site_fract_y
_atom_site_fract_z
S1 S 0.20553(6) 0.74951(6) 0.34208(5)
O1 O 0.08043(17) 0.52450(15) 0.79131(15)
O2 O -0.12895(17) 0.63260(15) 0.85136(14)
O3 O -0.13293(17) 0.88955(15) 0.63380(15)
O4 O 0.20596(18) 0.61682(16) 0.38398(15)
O5 O 0.12833(17) 0.79143(17) 0.24668(14)
N1 N 0.1437(2) 0.8467(2) 0.45900(17)
H1 H 0.123(3) 0.923(3) 0.431(2)
C1 C 0.0301(2) 0.7517(2) 0.7283(2)
C2 C 0.1808(2) 0.7372(2) 0.6607(2)
H2 H 0.1978 0.6530 0.6154
C3 C 0.2831(2) 0.7358(2) 0.7514(2)
C4 C 0.4204(3) 0.6929(2) 0.7086(2)
H3 H 0.4460 0.6626 0.6277
C5 C 0.5198(3) 0.6946(3) 0.7845(2)
H4 H 0.6111 0.6666 0.7544
C6 C 0.4818(3) 0.7383(3) 0.9050(2)
H5 H 0.5477 0.7399 0.9563
C7 C 0.3465(3) 0.7797(2) 0.9494(2)
H6 H 0.3219 0.8078 1.0310
C8 C 0.2449(3) 0.7802(2) 0.8736(2)
C9 C 0.0985(3) 0.8261(2) 0.9256(2)
H7 H 0.0962 0.9023 0.9786
H8 H 0.0602 0.7570 0.9759
C10 C 0.0094(2) 0.8620(2) 0.8271(2)
H9 H 0.0332 0.9437 0.7890
H10 H -0.0862 0.8750 0.8647
C11 C -0.0737(2) 0.7798(2) 0.6383(2)
C12 C -0.1002(2) 0.6677(2) 0.5608(2)
H11 H -0.1440 0.6040 0.6143
H12 H -0.0131 0.6246 0.5201
C13 C -0.1890(3) 0.7080(3) 0.4644(2)
H13 H -0.2020 0.6316 0.4188
H14 H -0.1452 0.7690 0.4094
H15 H -0.2764 0.7491 0.5039
C14 C 0.0010(2) 0.6217(2) 0.7921(2)
C15 C -0.1720(3) 0.5158(2) 0.9148(2)
H16 H -0.1398 0.4396 0.8632
H17 H -0.2702 0.5237 0.9330
H18 H -0.1345 0.5069 0.9901
C16 C 0.2132(2) 0.8472(2) 0.5681(2)
H19 H 0.1876 0.9316 0.6104
H20 H 0.3114 0.8392 0.5406
C17 C 0.3783(2) 0.7742(2) 0.2940(2)
C18 C 0.4146(3) 0.8997(2) 0.2678(2)
H21 H 0.3492 0.9727 0.2809
C19 C 0.5501(3) 0.9143(2) 0.2216(2)
H22 H 0.5751 0.9982 0.2043
C20 C 0.6489(2) 0.8070(2) 0.2007(2)
C21 C 0.6103(3) 0.6821(2) 0.2287(2)
H23 H 0.6755 0.6090 0.2156
C22 C 0.4759(3) 0.6659(2) 0.2759(2)
H24 H 0.4512 0.5824 0.2953
C23 C 0.7943(3) 0.8230(3) 0.1452(2)
H25 H 0.8554 0.7561 0.1758
H26 H 0.8160 0.9082 0.1671
H27 H 0.8042 0.8148 0.0571
loop_
_geom_bond_atom_site_label_1
_geom_bond_atom_site_label_2
_geom_bond_site_symmetry_1
_geom_bond_site_symmetry_2
S1 O4 1_555 1_555
O1 C14 1_555 1_555
O2 C14 1_555 1_555
O3 C11 1_555 1_555
O5 S1 1_555 1_555
N1 S1 1_555 1_555
H1 N1 1_555 1_555
C1 C2 1_555 1_555
C2 H2 1_555 1_555
C3 C2 1_555 1_555
C4 C3 1_555 1_555
H3 C4 1_555 1_555
C5 C4 1_555 1_555
H4 C5 1_555 1_555
C6 C5 1_555 1_555
H5 C6 1_555 1_555
C7 C6 1_555 1_555
H6 C7 1_555 1_555
C8 C3 1_555 1_555
C9 C8 1_555 1_555
H7 C9 1_555 1_555
H8 C9 1_555 1_555
C10 C1 1_555 1_555
H9 C10 1_555 1_555
H10 C10 1_555 1_555
C11 C1 1_555 1_555
C12 C11 1_555 1_555
H11 C12 1_555 1_555
H12 C12 1_555 1_555
C13 C12 1_555 1_555
H13 C13 1_555 1_555
H14 C13 1_555 1_555
H15 C13 1_555 1_555
C14 C1 1_555 1_555
C15 O2 1_555 1_555
H16 C15 1_555 1_555
H17 C15 1_555 1_555
H18 C15 1_555 1_555
C16 N1 1_555 1_555
H19 C16 1_555 1_555
H20 C16 1_555 1_555
C17 S1 1_555 1_555
C18 C17 1_555 1_555
H21 C18 1_555 1_555
C19 C18 1_555 1_555
H22 C19 1_555 1_555
C20 C19 1_555 1_555
C21 C20 1_555 1_555
H23 C21 1_555 1_555
C22 C17 1_555 1_555
H24 C22 1_555 1_555
C23 C20 1_555 1_555
H25 C23 1_555 1_555
H26 C23 1_555 1_555
H27 C23 1_555 1_555
C2 C16 1_555 1_555
C7 C8 1_555 1_555
C9 C10 1_555 1_555
C21 C22 1_555 1_555

#END
