
#######################################################################
#
#                 Cambridge Crystallographic Data Centre
#                                CCDC 
#
#######################################################################
#
# If this CIF has been generated from an entry in the Cambridge 
# Structural Database, then it will include bibliographic, chemical, 
# crystal, experimental, refinement or atomic coordinate data resulting 
# from the CCDC's data processing and validation procedures.
#
#######################################################################

data_XILCOK
_chemical_formula_moiety         'C62 H76 O4 Se2,C1 H2 Cl2'
_chemical_name_systematic        
'25,27-Dihydroxy-26,28-bis(3-(phenylseleno)propoxy)-5,11,17,23-tetra-t-butylcalix(4)arene dichloromethane clathrate'
_symmetry_cell_setting           monoclinic
_symmetry_space_group_name_H-M   'C 2/c'
_symmetry_Int_Tables_number      15
_space_group_name_Hall           '-C 2yn'
loop_
_symmetry_equiv_pos_site_id
_symmetry_equiv_pos_as_xyz
1 x,y,z
2 1/2+x,1/2+y,z
3 x,-y,1/2+z
4 1/2+x,1/2-y,1/2+z
5 -x,-y,-z
6 1/2-x,1/2-y,-z
7 -x,y,1/2-z
8 1/2-x,1/2+y,1/2-z
_cell_length_a                   21.4021(18)
_cell_length_b                   12.7375(11)
_cell_length_c                   21.3752(18)
_cell_angle_alpha                90
_cell_angle_beta                 90.207(2)
_cell_angle_gamma                90
_cell_volume                     5827.04
_chemical_melting_point          '133-134 deg.C'
_cell_formula_units_Z            4
_exptl_crystal_recrystallization_method dichloromethane/methanol
loop_
_atom_site_label
_atom_site_type_symbol
_atom_site_fract_x
_atom_site_fract_y
_atom_site_fract_z
Se1 Se 0.15653(2) 0.02317(5) 0.75218(3)
O1 O -0.05349(10) 0.28893(18) 0.69712(10)
H1 H -0.0174 0.2864 0.6845
O2 O 0.06894(9) 0.25855(16) 0.66774(9)
C1 C -0.16533(14) 0.3486(3) 0.75189(14)
H2 H -0.2104 0.3544 0.7546
H3 H -0.1545 0.2748 0.7540
C2 C -0.14339(13) 0.3940(2) 0.68975(14)
C3 C -0.17860(14) 0.4680(3) 0.65828(15)
H4 H -0.2172 0.4870 0.6746
C4 C -0.15868(15) 0.5153(3) 0.60319(15)
C5 C -0.10137(14) 0.4828(3) 0.57940(14)
H5 H -0.0873 0.5129 0.5424
C6 C -0.06428(13) 0.4076(2) 0.60842(13)
C7 C -0.00218(13) 0.3760(3) 0.57956(14)
H6 H -0.0015 0.3992 0.5363
H7 H 0.0009 0.3000 0.5796
C8 C 0.05477(13) 0.4212(3) 0.61346(13)
C9 C 0.07408(15) 0.5244(3) 0.60270(15)
H8 H 0.0525 0.5644 0.5733
C10 C 0.12401(15) 0.5695(3) 0.63403(15)
C11 C 0.15323(15) 0.5085(3) 0.67980(15)
H9 H 0.1863 0.5376 0.7022
C12 C 0.13535(13) 0.4064(2) 0.69342(13)
C13 C -0.08560(13) 0.3633(2) 0.66442(14)
C14 C 0.08738(13) 0.3623(2) 0.65752(13)
C15 C -0.19971(17) 0.5995(3) 0.57208(17)
C16 C -0.26279(19) 0.5512(4) 0.5540(2)
H10 H -0.2562 0.4945 0.5252
H11 H -0.2886 0.6037 0.5346
H12 H -0.2831 0.5251 0.5908
C17 C -0.2107(2) 0.6898(3) 0.6188(2)
H13 H -0.2296 0.6625 0.6561
H14 H -0.2380 0.7411 0.6002
H15 H -0.1715 0.7221 0.6292
C18 C -0.1693(2) 0.6444(5) 0.5130(2)
H16 H -0.1620 0.5887 0.4836
H17 H -0.1302 0.6768 0.5238
H18 H -0.1965 0.6957 0.4945
C19 C 0.14755(18) 0.6806(3) 0.61763(18)
C20 C 0.0929(3) 0.7544(4) 0.6055(3)
H19 H 0.0669 0.7261 0.5729
H20 H 0.1085 0.8218 0.5929
H21 H 0.0688 0.7619 0.6431
C21 C 0.1874(3) 0.6730(4) 0.5593(3)
H22 H 0.2215 0.6255 0.5667
H23 H 0.2035 0.7412 0.5490
H24 H 0.1624 0.6475 0.5251
C22 C 0.1875(3) 0.7284(4) 0.6697(3)
H25 H 0.2232 0.6844 0.6774
H26 H 0.1632 0.7339 0.7072
H27 H 0.2013 0.7970 0.6573
C23 C 0.10451(16) 0.1824(3) 0.63316(16)
H28 H 0.1481 0.1849 0.6458
H29 H 0.1019 0.1971 0.5887
C24 C 0.07743(19) 0.0755(3) 0.64698(19)
H30 H 0.0357 0.0724 0.6291
H31 H 0.1026 0.0233 0.6256
C25 C 0.0733(2) 0.0450(3) 0.7146(2)
C26 C 0.1265(2) 0.0162(4) 0.8373(2)
C27 C 0.0954(3) -0.0723(6) 0.8571(4)
C28 C 0.0726(4) -0.0783(7) 0.9174(6)
H32 H 0.0514 -0.1375 0.9313
C29 C 0.0829(4) 0.0109(11) 0.9580(4)
H33 H 0.0697 0.0087 0.9994
C30 C 0.1116(4) 0.0974(7) 0.9355(3)
H34 H 0.1169 0.1561 0.9608
C31 C 0.1326(3) 0.0984(5) 0.8760(3)
H35 H 0.1521 0.1587 0.8613
C12F C -0.13535(13) 0.4064(2) 0.80658(13)
C11F C -0.15323(15) 0.5085(3) 0.82020(15)
C10F C -0.12401(15) 0.5695(3) 0.86597(15)
C9F C -0.07408(15) 0.5244(3) 0.89730(15)
C8F C -0.05477(13) 0.4212(3) 0.88654(13)
C7F C 0.00218(13) 0.3760(3) 0.92044(14)
C6F C 0.06428(13) 0.4076(2) 0.89158(13)
C5F C 0.10137(14) 0.4828(3) 0.92060(14)
C4F C 0.15868(15) 0.5153(3) 0.89681(15)
C3F C 0.17860(14) 0.4680(3) 0.84172(15)
C2F C 0.14339(13) 0.3940(2) 0.81025(14)
C1F C 0.16533(14) 0.3486(3) 0.74811(14)
H2F H 0.2104 0.3544 0.7454
H3F H 0.1545 0.2748 0.7460
C13F C 0.08560(13) 0.3633(2) 0.83558(14)
O1F O 0.05349(10) 0.28893(18) 0.80288(10)
H1F H 0.0174 0.2864 0.8155
H4F H 0.2172 0.4870 0.8254
C15F C 0.19971(17) 0.5995(3) 0.92792(17)
C16F C 0.26279(19) 0.5512(4) 0.9460(2)
H10F H 0.2562 0.4945 0.9748
H11F H 0.2886 0.6037 0.9654
H12F H 0.2831 0.5251 0.9092
C17F C 0.2107(2) 0.6898(3) 0.8812(2)
H13F H 0.2296 0.6625 0.8439
H14F H 0.2380 0.7411 0.8998
H15F H 0.1715 0.7221 0.8708
C18F C 0.1693(2) 0.6444(5) 0.9870(2)
H16F H 0.1620 0.5887 1.0164
H17F H 0.1302 0.6768 0.9762
H18F H 0.1965 0.6957 1.0055
H5F H 0.0873 0.5129 0.9576
H6F H 0.0015 0.3992 0.9637
H7F H -0.0009 0.3000 0.9204
C14F C -0.08738(13) 0.3623(2) 0.84248(13)
O2F O -0.06894(9) 0.25855(16) 0.83226(9)
C23F C -0.10451(16) 0.1824(3) 0.86684(16)
H28F H -0.1481 0.1849 0.8542
H29F H -0.1019 0.1971 0.9113
C24F C -0.07743(19) 0.0755(3) 0.85302(19)
H30F H -0.0357 0.0724 0.8709
H31F H -0.1026 0.0233 0.8744
C25F C -0.0733(2) 0.0450(3) 0.7854(2)
Se1F Se -0.15653(2) 0.02317(5) 0.74782(3)
C26F C -0.1265(2) 0.0162(4) 0.6627(2)
C27F C -0.0954(3) -0.0723(6) 0.6429(4)
C28F C -0.0726(4) -0.0783(7) 0.5826(6)
H32F H -0.0514 -0.1375 0.5687
C29F C -0.0829(4) 0.0109(11) 0.5420(4)
H33F H -0.0697 0.0087 0.5006
C30F C -0.1116(4) 0.0974(7) 0.5645(3)
H34F H -0.1169 0.1561 0.5392
C31F C -0.1326(3) 0.0984(5) 0.6240(3)
H35F H -0.1521 0.1587 0.6387
H8F H -0.0525 0.5644 0.9267
C19F C -0.14755(18) 0.6806(3) 0.88237(18)
C20F C -0.0929(3) 0.7544(4) 0.8945(3)
H19F H -0.0669 0.7261 0.9271
H20F H -0.1085 0.8218 0.9071
H21F H -0.0688 0.7619 0.8569
C21F C -0.1874(3) 0.6730(4) 0.9407(3)
H22F H -0.2215 0.6255 0.9333
H23F H -0.2035 0.7412 0.9510
H24F H -0.1624 0.6475 0.9749
C22F C -0.1875(3) 0.7284(4) 0.8303(3)
H25F H -0.2232 0.6844 0.8226
H26F H -0.1632 0.7339 0.7928
H27F H -0.2013 0.7970 0.8427
H9F H -0.1863 0.5376 0.7978
C32 C 1.0000 0.5816(5) 0.7500
Cl1 Cl 0.95009(7) 0.65497(14) 0.70467(7)
Cl1F Cl 1.04991(7) 0.65497(14) 0.79533(7)
Se2? Se 0.1106(4) -0.0635(4) 0.7640(2)
loop_
_geom_bond_atom_site_label_1
_geom_bond_atom_site_label_2
_geom_bond_site_symmetry_1
_geom_bond_site_symmetry_2
Se1 C25 1_555 1_555
O1 H1 1_555 1_555
O2 C14 1_555 1_555
C1 H2 1_555 1_555
H3 C1 1_555 1_555
C2 C1 1_555 1_555
C3 C2 1_555 1_555
H4 C3 1_555 1_555
C4 C3 1_555 1_555
C5 C4 1_555 1_555
H5 C5 1_555 1_555
C6 C5 1_555 1_555
C7 C6 1_555 1_555
H6 C7 1_555 1_555
H7 C7 1_555 1_555
C8 C7 1_555 1_555
C9 C8 1_555 1_555
H8 C9 1_555 1_555
C10 C9 1_555 1_555
C11 C10 1_555 1_555
H9 C11 1_555 1_555
C12 C11 1_555 1_555
C13 O1 1_555 1_555
C14 C8 1_555 1_555
C15 C4 1_555 1_555
C16 C15 1_555 1_555
H10 C16 1_555 1_555
H11 C16 1_555 1_555
H12 C16 1_555 1_555
C17 C15 1_555 1_555
H13 C17 1_555 1_555
H14 C17 1_555 1_555
H15 C17 1_555 1_555
C18 C15 1_555 1_555
H16 C18 1_555 1_555
H17 C18 1_555 1_555
H18 C18 1_555 1_555
C19 C10 1_555 1_555
C20 C19 1_555 1_555
H19 C20 1_555 1_555
H20 C20 1_555 1_555
H21 C20 1_555 1_555
C21 C19 1_555 1_555
H22 C21 1_555 1_555
H23 C21 1_555 1_555
H24 C21 1_555 1_555
C22 C19 1_555 1_555
H25 C22 1_555 1_555
H26 C22 1_555 1_555
H27 C22 1_555 1_555
C23 O2 1_555 1_555
H28 C23 1_555 1_555
H29 C23 1_555 1_555
C24 C23 1_555 1_555
H30 C24 1_555 1_555
H31 C24 1_555 1_555
C25 C24 1_555 1_555
C26 Se1 1_555 1_555
C27 C26 1_555 1_555
C28 C27 1_555 1_555
H32 C28 1_555 1_555
C29 C28 1_555 1_555
H33 C29 1_555 1_555
C30 C29 1_555 1_555
H34 C30 1_555 1_555
C31 C26 1_555 1_555
H35 C31 1_555 1_555
C32 Cl1 1_555 1_555
C12F C1 1_555 1_555
C11F C12F 1_555 1_555
C10F C11F 1_555 1_555
C9F C10F 1_555 1_555
C8F C9F 1_555 1_555
C7F C8F 1_555 1_555
C6F C7F 1_555 1_555
C5F C6F 1_555 1_555
C4F C5F 1_555 1_555
C3F C4F 1_555 1_555
C2F C3F 1_555 1_555
C1F C12 1_555 1_555
H2F C1F 1_555 1_555
H3F C1F 1_555 1_555
C13F C6F 1_555 1_555
O1F C13F 1_555 1_555
H1F O1F 1_555 1_555
H4F C3F 1_555 1_555
C15F C4F 1_555 1_555
C16F C15F 1_555 1_555
H10F C16F 1_555 1_555
H11F C16F 1_555 1_555
H12F C16F 1_555 1_555
C17F C15F 1_555 1_555
H13F C17F 1_555 1_555
H14F C17F 1_555 1_555
H15F C17F 1_555 1_555
C18F C15F 1_555 1_555
H16F C18F 1_555 1_555
H17F C18F 1_555 1_555
H18F C18F 1_555 1_555
H5F C5F 1_555 1_555
H6F C7F 1_555 1_555
H7F C7F 1_555 1_555
C14F C12F 1_555 1_555
O2F C14F 1_555 1_555
C23F O2F 1_555 1_555
H28F C23F 1_555 1_555
H29F C23F 1_555 1_555
C24F C23F 1_555 1_555
H30F C24F 1_555 1_555
H31F C24F 1_555 1_555
C25F C24F 1_555 1_555
Se1F C25F 1_555 1_555
C26F Se1F 1_555 1_555
C27F C26F 1_555 1_555
C28F C27F 1_555 1_555
H32F C28F 1_555 1_555
C29F C28F 1_555 1_555
H33F C29F 1_555 1_555
C30F C29F 1_555 1_555
H34F C30F 1_555 1_555
C31F C26F 1_555 1_555
H35F C31F 1_555 1_555
H8F C9F 1_555 1_555
C19F C10F 1_555 1_555
C20F C19F 1_555 1_555
H19F C20F 1_555 1_555
H20F C20F 1_555 1_555
H21F C20F 1_555 1_555
C21F C19F 1_555 1_555
H22F C21F 1_555 1_555
H23F C21F 1_555 1_555
H24F C21F 1_555 1_555
C22F C19F 1_555 1_555
H25F C22F 1_555 1_555
H26F C22F 1_555 1_555
H27F C22F 1_555 1_555
H9F C11F 1_555 1_555
Cl1F C32 1_555 1_555
C2 C13 1_555 1_555
C6 C13 1_555 1_555
C12 C14 1_555 1_555
C30 C31 1_555 1_555
C8F C14F 1_555 1_555
C2F C1F 1_555 1_555
C2F C13F 1_555 1_555
C30F C31F 1_555 1_555

#END
