
#######################################################################
#
#                 Cambridge Crystallographic Data Centre
#                                CCDC 
#
#######################################################################
#
# If this CIF has been generated from an entry in the Cambridge 
# Structural Database, then it will include bibliographic, chemical, 
# crystal, experimental, refinement or atomic coordinate data resulting 
# from the CCDC's data processing and validation procedures.
#
#######################################################################

data_XILFOP
_chemical_formula_moiety         'C20 H24 B10'
_chemical_name_systematic        
1,2,3-Triphenyl-1,2-dicarba-closo-dodecaborane(9)
_symmetry_cell_setting           orthorhombic
_symmetry_space_group_name_H-M   'P 21 21 21'
_symmetry_Int_Tables_number      19
_space_group_name_Hall           'P 2ac 2ab'
loop_
_symmetry_equiv_pos_site_id
_symmetry_equiv_pos_as_xyz
1 x,y,z
2 1/2-x,-y,1/2+z
3 -x,1/2+y,1/2-z
4 1/2+x,1/2-y,-z
_cell_length_a                   8.2745(7)
_cell_length_b                   15.5626(13)
_cell_length_c                   16.2094(14)
_cell_angle_alpha                90
_cell_angle_beta                 90
_cell_angle_gamma                90
_cell_volume                     2087.33
_exptl_crystal_colour            colorless
_exptl_crystal_description       block
_cell_formula_units_Z            4
loop_
_atom_site_label
_atom_site_type_symbol
_atom_site_fract_x
_atom_site_fract_y
_atom_site_fract_z
B1 B 0.51497(17) 0.32724(9) 0.31467(8)
B2 B 0.70873(18) 0.28790(9) 0.34395(9)
H1 H 0.7348 0.2186 0.3457
B3 B 0.85605(18) 0.36441(10) 0.31210(10)
H2 H 0.9783 0.3452 0.2928
B4 B 0.75116(17) 0.45006(9) 0.26437(9)
H3 H 0.8041 0.4861 0.2126
B5 B 0.62728(19) 0.50113(9) 0.33890(9)
H4 H 0.6008 0.5704 0.3370
B6 B 0.48066(19) 0.42423(10) 0.37031(8)
H5 H 0.3581 0.4434 0.3891
B7 B 0.5827(2) 0.33761(10) 0.41790(9)
H6 H 0.5268 0.3005 0.4681
B8 B 0.7935(2) 0.36076(11) 0.41639(10)
H7 H 0.8752 0.3388 0.4656
B9 B 0.8210(2) 0.46176(10) 0.36690(10)
H8 H 0.9204 0.5055 0.3833
B10 B 0.6526(2) 0.44496(11) 0.43317(9)
H9 H 0.6427 0.4776 0.4932
C1 C 0.68597(15) 0.34434(7) 0.25361(8)
C2 C 0.54694(14) 0.42845(7) 0.26999(7)
C3 C 0.70840(15) 0.29804(8) 0.17194(8)
C4 C 0.67673(19) 0.20992(9) 0.16644(9)
H10 H 0.6299 0.1817 0.2110
C5 C 0.7138(2) 0.16409(12) 0.09593(11)
H11 H 0.6919 0.1055 0.0936
C6 C 0.7830(3) 0.20465(13) 0.02893(11)
H12 H 0.8072 0.1737 -0.0186
C7 C 0.8159(3) 0.29129(13) 0.03300(10)
H13 H 0.8628 0.3189 -0.0119
C8 C 0.7796(2) 0.33786(11) 0.10389(9)
H14 H 0.8030 0.3963 0.1059
C9 C 0.43678(15) 0.46120(8) 0.20230(8)
C10 C 0.26982(17) 0.45980(10) 0.21316(9)
H15 H 0.2263 0.4359 0.2608
C11 C 0.16802(18) 0.49368(12) 0.15360(11)
H16 H 0.0568 0.4922 0.1618
C12 C 0.2290(2) 0.52935(12) 0.08260(10)
H17 H 0.1598 0.5515 0.0427
C13 C 0.3937(2) 0.53180(14) 0.07138(11)
H18 H 0.4361 0.5560 0.0236
C14 C 0.49663(18) 0.49862(12) 0.13053(10)
H19 H 0.6077 0.5013 0.1222
C15 C 0.36804(16) 0.26974(8) 0.28858(8)
C16 C 0.28194(18) 0.22647(10) 0.35033(9)
H20 H 0.3160 0.2309 0.4048
C17 C 0.14706(19) 0.17722(10) 0.33194(9)
H21 H 0.0926 0.1488 0.3741
C18 C 0.09299(17) 0.16998(10) 0.25209(10)
H22 H 0.0020 0.1372 0.2401
C19 C 0.17551(19) 0.21200(10) 0.18982(9)
H23 H 0.1397 0.2074 0.1356
C20 C 0.31136(18) 0.26097(9) 0.20756(8)
H24 H 0.3658 0.2885 0.1649
loop_
_geom_bond_atom_site_label_1
_geom_bond_atom_site_label_2
_geom_bond_site_symmetry_1
_geom_bond_site_symmetry_2
B1 B2 1_555 1_555
B2 H1 1_555 1_555
B3 B2 1_555 1_555
H2 B3 1_555 1_555
B4 B3 1_555 1_555
H3 B4 1_555 1_555
B5 B4 1_555 1_555
H4 B5 1_555 1_555
B6 B1 1_555 1_555
H5 B6 1_555 1_555
B7 B1 1_555 1_555
H6 B7 1_555 1_555
B8 B2 1_555 1_555
H7 B8 1_555 1_555
B9 B3 1_555 1_555
H8 B9 1_555 1_555
B10 B5 1_555 1_555
H9 B10 1_555 1_555
C1 B1 1_555 1_555
C2 B1 1_555 1_555
C3 C1 1_555 1_555
C4 C3 1_555 1_555
H10 C4 1_555 1_555
C5 C4 1_555 1_555
H11 C5 1_555 1_555
C6 C5 1_555 1_555
H12 C6 1_555 1_555
C7 C6 1_555 1_555
H13 C7 1_555 1_555
C8 C3 1_555 1_555
H14 C8 1_555 1_555
C9 C2 1_555 1_555
C10 C9 1_555 1_555
H15 C10 1_555 1_555
C11 C10 1_555 1_555
H16 C11 1_555 1_555
C12 C11 1_555 1_555
H17 C12 1_555 1_555
C13 C12 1_555 1_555
H18 C13 1_555 1_555
C14 C9 1_555 1_555
H19 C14 1_555 1_555
C15 B1 1_555 1_555
C16 C15 1_555 1_555
H20 C16 1_555 1_555
C17 C16 1_555 1_555
H21 C17 1_555 1_555
C18 C17 1_555 1_555
H22 C18 1_555 1_555
C19 C18 1_555 1_555
H23 C19 1_555 1_555
C20 C15 1_555 1_555
H24 C20 1_555 1_555
B2 B7 1_555 1_555
B2 C1 1_555 1_555
B3 B8 1_555 1_555
B3 C1 1_555 1_555
B4 B9 1_555 1_555
B4 C1 1_555 1_555
B4 C2 1_555 1_555
B5 B6 1_555 1_555
B5 B9 1_555 1_555
B5 C2 1_555 1_555
B6 B7 1_555 1_555
B6 B10 1_555 1_555
B6 C2 1_555 1_555
B7 B8 1_555 1_555
B7 B10 1_555 1_555
B8 B9 1_555 1_555
B8 B10 1_555 1_555
B9 B10 1_555 1_555
C1 C2 1_555 1_555
C7 C8 1_555 1_555
C13 C14 1_555 1_555
C19 C20 1_555 1_555

#END
