
#######################################################################
#
#                 Cambridge Crystallographic Data Centre
#                                CCDC 
#
#######################################################################
#
# If this CIF has been generated from an entry in the Cambridge 
# Structural Database, then it will include bibliographic, chemical, 
# crystal, experimental, refinement or atomic coordinate data resulting 
# from the CCDC's data processing and validation procedures.
#
#######################################################################

data_XILKUA
_chemical_formula_moiety         'C8 H6 N16 O10,0.5(C4 H8 O2)'
_chemical_name_systematic        
'2,6,8,12-Tetranitro-2,4,6,8,10,12-hexa-azatetracyclo[5.5.0.0^3,11^.0^5,9^]dodecane-4,10-dicarbonyl diazide ethyl acetate solvate'
_symmetry_cell_setting           monoclinic
_symmetry_space_group_name_H-M   'P 21/n'
_symmetry_Int_Tables_number      14
_space_group_name_Hall           '-P 2yn'
loop_
_symmetry_equiv_pos_site_id
_symmetry_equiv_pos_as_xyz
1 x,y,z
2 1/2-x,1/2+y,1/2-z
3 -x,-y,-z
4 1/2+x,1/2-y,1/2+z
_cell_length_a                   13.161(2)
_cell_length_b                   13.007(2)
_cell_length_c                   23.346(4)
_cell_angle_alpha                90
_cell_angle_beta                 100.685(2)
_cell_angle_gamma                90
_cell_volume                     3927.19
_exptl_crystal_colour            colorless
_exptl_crystal_description       block
_cell_formula_units_Z            8
_exptl_crystal_recrystallization_method 'ethyl acetate/hexane'
loop_
_atom_site_label
_atom_site_type_symbol
_atom_site_fract_x
_atom_site_fract_y
_atom_site_fract_z
O1 O 0.49897(15) 0.88247(16) 0.63886(9)
O2 O 0.44548(14) 0.73273(15) 0.66260(8)
O3 O 0.57744(16) 0.90627(15) 0.46735(10)
O4 O 0.61236(15) 0.74590(16) 0.45041(9)
O5 O 0.15443(15) 0.97942(14) 0.45509(8)
O6 O 0.06558(13) 0.84074(14) 0.46376(8)
O7 O 0.3325(2) 0.97304(17) 0.37305(11)
O8 O 0.30962(19) 0.82697(19) 0.32648(9)
O9 O 0.25516(13) 0.56354(14) 0.59997(8)
O10 O 0.51557(15) 0.53336(15) 0.42701(8)
N1 N 0.39514(15) 0.78880(15) 0.57082(9)
N2 N 0.49902(16) 0.78104(16) 0.50562(9)
N3 N 0.23837(15) 0.83424(15) 0.49030(9)
N4 N 0.34819(17) 0.82674(16) 0.42351(9)
N5 N 0.28075(15) 0.66001(15) 0.52217(8)
N6 N 0.39787(15) 0.65267(16) 0.44528(9)
N7 N 0.45314(16) 0.80124(17) 0.62805(9)
N8 N 0.56649(16) 0.81256(17) 0.47240(10)
N9 N 0.14554(16) 0.88927(16) 0.46688(9)
N10 N 0.32675(19) 0.87970(19) 0.37036(11)
N11 N 0.11493(15) 0.61630(17) 0.52992(9)
N12 N 0.05853(15) 0.57069(16) 0.56047(9)
N13 N 0.00174(17) 0.53360(19) 0.58352(10)
N14 N 0.37407(18) 0.57650(18) 0.35493(9)
N15 N 0.41042(19) 0.51320(18) 0.32283(10)
N16 N 0.4347(2) 0.4602(2) 0.29023(11)
C1 C 0.42787(18) 0.85236(19) 0.52639(11)
H1 H 0.4644 0.9158 0.5436
C2 C 0.38641(18) 0.68126(18) 0.54879(10)
H2 H 0.4107 0.6318 0.5812
C3 C 0.45752(18) 0.67599(18) 0.50211(10)
H3 H 0.5142 0.6246 0.5135
C4 C 0.33261(19) 0.87951(19) 0.47663(11)
H4 H 0.3254 0.9554 0.4705
C5 C 0.23874(18) 0.72436(18) 0.47290(10)
H5 H 0.1672 0.7015 0.4553
C6 C 0.31124(19) 0.72005(18) 0.42594(11)
H6 H 0.2716 0.6979 0.3872
C7 C 0.21984(18) 0.60902(17) 0.55576(10)
C8 C 0.4377(2) 0.58293(19) 0.41038(11)
O11 O 0.16433(15) 0.93696(13) 0.79362(8)
O12 O 0.04707(14) 0.81775(15) 0.79418(10)
O13 O 0.38267(15) 0.86942(14) 0.96444(8)
O14 O 0.35494(16) 0.71336(15) 0.99055(7)
O15 O 0.30424(14) 0.89816(13) 0.69092(7)
O16 O 0.21383(14) 0.76394(14) 0.65618(7)
O17 O 0.56035(15) 0.81243(15) 0.85121(9)
O18 O 0.58127(14) 0.64642(15) 0.84303(8)
O19 O 0.09831(13) 0.54907(14) 0.70570(7)
O20 O 0.37806(15) 0.46640(14) 0.92443(8)
N17 N 0.20581(15) 0.79287(15) 0.84250(8)
N18 N 0.35721(15) 0.74620(15) 0.89592(8)
N19 N 0.28413(15) 0.76796(14) 0.74987(8)
N20 N 0.43514(15) 0.71839(15) 0.80087(8)
N21 N 0.18695(14) 0.63609(14) 0.78381(8)
N22 N 0.35764(15) 0.58258(15) 0.85012(8)
N23 N 0.13450(16) 0.85285(16) 0.80744(9)
N24 N 0.36309(16) 0.77917(16) 0.95499(8)
N25 N 0.26811(15) 0.81235(15) 0.69492(8)
N26 N 0.53148(15) 0.72581(16) 0.83439(9)
N27 N 0.02192(16) 0.57945(17) 0.78650(9)
N28 N -0.05461(17) 0.53168(19) 0.75853(10)
N29 N -0.1266(2) 0.4914(3) 0.73760(12)
N30 N 0.45388(17) 0.43664(16) 0.84323(10)
N31 N 0.48697(18) 0.35433(17) 0.86942(10)
N32 N 0.5195(2) 0.2797(2) 0.88800(13)
C9 C 0.31484(17) 0.82252(17) 0.85227(10)
H7 H 0.3257 0.8942 0.8677
C10 C 0.19483(18) 0.68014(17) 0.84159(10)
H8 H 0.1350 0.6586 0.8597
C11 C 0.29946(18) 0.64898(17) 0.88096(10)
H9 H 0.2865 0.6144 0.9172
C12 C 0.36444(17) 0.80594(17) 0.79595(10)
H10 H 0.3970 0.8702 0.7843
C13 C 0.27332(17) 0.65585(17) 0.75530(10)
H11 H 0.2635 0.6216 0.7163
C14 C 0.37751(17) 0.62068(17) 0.79516(10)
H12 H 0.4133 0.5676 0.7751
C15 C 0.10200(17) 0.58514(17) 0.75392(10)
C16 C 0.39547(19) 0.49248(18) 0.87771(11)
O21 O 0.7780(2) 0.6980(3) 0.65156(14)
O22 O 0.62068(17) 0.6727(2) 0.60344(10)
C17 C 0.7608(3) 0.5844(3) 0.57335(16)
H13 H 0.7906 0.5259 0.5971
H14 H 0.8156 0.6207 0.5583
H15 H 0.7089 0.5595 0.5406
C18 C 0.7113(2) 0.6554(2) 0.60952(13)
C19 C 0.7357(4) 0.7733(5) 0.6886(2)
H16 H 0.6757 0.8094 0.6654
H17 H 0.7124 0.7374 0.7213
C20 C 0.8117(4) 0.8424(5) 0.7098(3)
H18 H 0.8743 0.8055 0.7279
H19 H 0.7884 0.8864 0.7389
H20 H 0.8267 0.8850 0.6778
loop_
_geom_bond_atom_site_label_1
_geom_bond_atom_site_label_2
_geom_bond_site_symmetry_1
_geom_bond_site_symmetry_2
O1 N7 1_555 1_555
O2 N7 1_555 1_555
O3 N8 1_555 1_555
O4 N8 1_555 1_555
O5 N9 1_555 1_555
O6 N9 1_555 1_555
O7 N10 1_555 1_555
O8 N10 1_555 1_555
O9 C7 1_555 1_555
O10 C8 1_555 1_555
N1 N7 1_555 1_555
N2 N8 1_555 1_555
N3 N9 1_555 1_555
N4 N10 1_555 1_555
N5 C2 1_555 1_555
N6 C3 1_555 1_555
N11 N12 1_555 1_555
N12 N13 1_555 1_555
N14 N15 1_555 1_555
N15 N16 1_555 1_555
C1 N1 1_555 1_555
H1 C1 1_555 1_555
C2 N1 1_555 1_555
H2 C2 1_555 1_555
C3 N2 1_555 1_555
H3 C3 1_555 1_555
C4 N3 1_555 1_555
H4 C4 1_555 1_555
C5 N3 1_555 1_555
H5 C5 1_555 1_555
C6 N4 1_555 1_555
H6 C6 1_555 1_555
C7 N5 1_555 1_555
C8 N6 1_555 1_555
O11 N23 1_555 1_555
O12 N23 1_555 1_555
O13 N24 1_555 1_555
O14 N24 1_555 1_555
O15 N25 1_555 1_555
O16 N25 1_555 1_555
O17 N26 1_555 1_555
O18 N26 1_555 1_555
O19 C15 1_555 1_555
O20 C16 1_555 1_555
N17 N23 1_555 1_555
N18 N24 1_555 1_555
N19 N25 1_555 1_555
N20 N26 1_555 1_555
N21 C10 1_555 1_555
N22 C11 1_555 1_555
N27 N28 1_555 1_555
N28 N29 1_555 1_555
N30 N31 1_555 1_555
N31 N32 1_555 1_555
C9 N17 1_555 1_555
H7 C9 1_555 1_555
C10 N17 1_555 1_555
H8 C10 1_555 1_555
C11 N18 1_555 1_555
H9 C11 1_555 1_555
C12 N19 1_555 1_555
H10 C12 1_555 1_555
C13 N19 1_555 1_555
H11 C13 1_555 1_555
C14 N20 1_555 1_555
H12 C14 1_555 1_555
C15 N21 1_555 1_555
C16 N22 1_555 1_555
O21 C18 1_555 1_555
O22 C18 1_555 1_555
C17 H13 1_555 1_555
H14 C17 1_555 1_555
H15 C17 1_555 1_555
C18 C17 1_555 1_555
C19 O21 1_555 1_555
H16 C19 1_555 1_555
H17 C19 1_555 1_555
C20 C19 1_555 1_555
H18 C20 1_555 1_555
H19 C20 1_555 1_555
H20 C20 1_555 1_555
N2 C1 1_555 1_555
N4 C4 1_555 1_555
N5 C5 1_555 1_555
N6 C6 1_555 1_555
N11 C7 1_555 1_555
N14 C8 1_555 1_555
C1 C4 1_555 1_555
C2 C3 1_555 1_555
C5 C6 1_555 1_555
N18 C9 1_555 1_555
N20 C12 1_555 1_555
N21 C13 1_555 1_555
N22 C14 1_555 1_555
N27 C15 1_555 1_555
N30 C16 1_555 1_555
C9 C12 1_555 1_555
C10 C11 1_555 1_555
C13 C14 1_555 1_555

#END
