
#######################################################################
#
#                 Cambridge Crystallographic Data Centre
#                                CCDC 
#
#######################################################################
#
# If this CIF has been generated from an entry in the Cambridge 
# Structural Database, then it will include bibliographic, chemical, 
# crystal, experimental, refinement or atomic coordinate data resulting 
# from the CCDC's data processing and validation procedures.
#
#######################################################################

data_XILMIR
_chemical_formula_moiety         'C28 H25 N3 O2 S1'
_chemical_name_systematic        
'5-(4-methylphenyl)-1-[(4-methylphenyl)sulfonyl]-3-phenyl-2,3-dihydro-1H-1,3,4-benzotriazepine unknown solvate'
_symmetry_cell_setting           triclinic
_symmetry_space_group_name_H-M   'P -1'
_symmetry_Int_Tables_number      2
_space_group_name_Hall           '-P 1'
loop_
_symmetry_equiv_pos_site_id
_symmetry_equiv_pos_as_xyz
1 x,y,z
2 -x,-y,-z
_cell_length_a                   11.1019(9)
_cell_length_b                   11.1422(13)
_cell_length_c                   11.5503(10)
_cell_angle_alpha                114.960(10)
_cell_angle_beta                 91.317(7)
_cell_angle_gamma                97.991(8)
_cell_volume                     1277.43
_exptl_crystal_colour            colorless
_exptl_crystal_description       Block
_cell_formula_units_Z            2
loop_
_atom_site_label
_atom_site_type_symbol
_atom_site_fract_x
_atom_site_fract_y
_atom_site_fract_z
S1 S 0.58201(5) 0.00101(5) 0.32628(6)
N1 N 0.51844(14) 0.13123(16) 0.41122(16)
N2 N 0.67701(14) 0.37880(16) 0.44335(16)
O1 O 0.48649(15) -0.10161(15) 0.24367(17)
O2 O 0.65490(16) -0.02099(17) 0.41653(17)
N3 N 0.67492(15) 0.32395(17) 0.52850(16)
C1 C 0.62226(17) 0.44049(19) 0.28323(19)
C2 C 0.58882(17) 0.36356(18) 0.36027(18)
C3 C 0.42823(17) 0.1737(2) 0.35314(19)
C4 C 0.68064(18) 0.5724(2) 0.3422(2)
H1 H 0.7004 0.6131 0.4304
C5 C 0.67978(19) 0.0473(2) 0.2289(2)
C6 C 0.36887(19) 0.3366(2) 0.2902(2)
H2 H 0.3881 0.4132 0.2764
C7 C 0.78013(19) 0.3668(2) 0.6158(2)
C8 C 0.46168(17) 0.28910(19) 0.33401(19)
C9 C 0.57419(18) 0.2297(2) 0.53606(19)
H3 H 0.6039 0.1835 0.5829
H4 H 0.5126 0.2792 0.5838
C10 C 0.6843(2) 0.5869(2) 0.1392(2)
C11 C 0.30849(19) 0.1097(2) 0.3310(2)
H5 H 0.2880 0.0340 0.3459
C12 C 0.5964(2) 0.3830(2) 0.1514(2)
H6 H 0.5573 0.2944 0.1094
C13 C 0.7100(2) 0.6444(2) 0.2712(2)
H7 H 0.7478 0.7335 0.3131
C14 C 0.2497(2) 0.2727(2) 0.2671(2)
H8 H 0.1894 0.3063 0.2382
C15 C 0.7731(2) 0.3615(2) 0.7332(2)
H9 H 0.6990 0.3309 0.7555
C16 C 0.6276(2) 0.4550(2) 0.0811(2)
H10 H 0.6100 0.4134 -0.0075
C17 C 0.2195(2) 0.1586(3) 0.2866(2)
H11 H 0.1391 0.1147 0.2699
C18 C 0.8915(2) 0.4158(2) 0.5867(2)
H12 H 0.8971 0.4213 0.5088
C19 C 0.7956(2) 0.1170(2) 0.2789(2)
H13 H 0.8229 0.1377 0.3629
C20 C 0.6392(2) 0.0180(2) 0.1055(2)
H14 H 0.5609 -0.0284 0.0719
C21 C 0.8321(3) 0.1275(3) 0.0788(3)
C22 C 0.9936(2) 0.4563(3) 0.6721(3)
H15 H 1.0677 0.4888 0.6513
C23 C 0.8705(2) 0.1559(3) 0.2030(3)
H16 H 0.9488 0.2024 0.2366
C24 C 0.9874(3) 0.4493(3) 0.7876(3)
H17 H 1.0567 0.4763 0.8449
C25 C 0.8780(3) 0.4023(3) 0.8172(3)
H18 H 0.8735 0.3974 0.8954
C26 C 0.7158(3) 0.0581(3) 0.0317(3)
H19 H 0.6882 0.0378 -0.0522
C27 C 0.7173(3) 0.6672(3) 0.0632(3)
H20 H 0.6548 0.7198 0.0664
H21 H 0.7240 0.6071 -0.0243
H22 H 0.7939 0.7256 0.0994
C28 C 0.9171(3) 0.1701(3) -0.0028(3)
H23 H 0.9588 0.2600 0.0473
H24 H 0.8706 0.1668 -0.0754
H25 H 0.9758 0.1104 -0.0319
loop_
_geom_bond_atom_site_label_1
_geom_bond_atom_site_label_2
_geom_bond_site_symmetry_1
_geom_bond_site_symmetry_2
S1 N1 1_555 1_555
N1 C3 1_555 1_555
N2 N3 1_555 1_555
O1 S1 1_555 1_555
O2 S1 1_555 1_555
N3 C7 1_555 1_555
C1 C2 1_555 1_555
C2 N2 1_555 1_555
C3 C8 1_555 1_555
C4 C1 1_555 1_555
H1 C4 1_555 1_555
C5 S1 1_555 1_555
C6 H2 1_555 1_555
C7 C15 1_555 1_555
C8 C2 1_555 1_555
C9 N1 1_555 1_555
H3 C9 1_555 1_555
H4 C9 1_555 1_555
C10 C13 1_555 1_555
C11 C3 1_555 1_555
H5 C11 1_555 1_555
C12 C1 1_555 1_555
H6 C12 1_555 1_555
C13 C4 1_555 1_555
H7 C13 1_555 1_555
C14 C6 1_555 1_555
H8 C14 1_555 1_555
C15 H9 1_555 1_555
C16 C10 1_555 1_555
H10 C16 1_555 1_555
C17 C11 1_555 1_555
H11 C17 1_555 1_555
C18 C7 1_555 1_555
H12 C18 1_555 1_555
C19 C5 1_555 1_555
H13 C19 1_555 1_555
C20 C5 1_555 1_555
H14 C20 1_555 1_555
C21 C23 1_555 1_555
C22 C18 1_555 1_555
H15 C22 1_555 1_555
C23 C19 1_555 1_555
H16 C23 1_555 1_555
C24 C22 1_555 1_555
H17 C24 1_555 1_555
C25 C15 1_555 1_555
H18 C25 1_555 1_555
C26 C20 1_555 1_555
H19 C26 1_555 1_555
C27 C10 1_555 1_555
H20 C27 1_555 1_555
H21 C27 1_555 1_555
H22 C27 1_555 1_555
C28 C21 1_555 1_555
H23 C28 1_555 1_555
H24 C28 1_555 1_555
H25 C28 1_555 1_555
N3 C9 1_555 1_555
C6 C8 1_555 1_555
C12 C16 1_555 1_555
C14 C17 1_555 1_555
C21 C26 1_555 1_555
C24 C25 1_555 1_555

#END
