
#######################################################################
#
#                 Cambridge Crystallographic Data Centre
#                                CCDC 
#
#######################################################################
#
# If this CIF has been generated from an entry in the Cambridge 
# Structural Database, then it will include bibliographic, chemical, 
# crystal, experimental, refinement or atomic coordinate data resulting 
# from the CCDC's data processing and validation procedures.
#
#######################################################################

data_XILNEO
_chemical_formula_moiety         'C27 H22 I1 N3 O2 S1'
_chemical_name_systematic        
'5-(2-iodophenyl)-1-[(4-methylphenyl)sulfonyl]-3-phenyl-2,3-dihydro-1H-1,3,4-benzotriazepine unknown solvate'
_symmetry_cell_setting           monoclinic
_symmetry_space_group_name_H-M   'P 21/c'
_symmetry_Int_Tables_number      14
_space_group_name_Hall           '-P 2ybc'
loop_
_symmetry_equiv_pos_site_id
_symmetry_equiv_pos_as_xyz
1 x,y,z
2 -x,1/2+y,1/2-z
3 -x,-y,-z
4 x,1/2-y,1/2+z
_cell_length_a                   10.9526(6)
_cell_length_b                   8.6055(5)
_cell_length_c                   26.0262(15)
_cell_angle_alpha                90
_cell_angle_beta                 95.234(5)
_cell_angle_gamma                90
_cell_volume                     2442.81
_exptl_crystal_colour            colorless
_exptl_crystal_description       Block
_cell_formula_units_Z            4
loop_
_atom_site_label
_atom_site_type_symbol
_atom_site_fract_x
_atom_site_fract_y
_atom_site_fract_z
I1 I 0.54083(3) 0.86681(4) 0.37626(2)
S1 S 0.13599(9) 0.26518(13) 0.43049(4)
O1 O 0.2150(3) 0.1613(4) 0.46107(13)
O2 O 0.0077(3) 0.2667(4) 0.43540(13)
N1 N 0.3998(3) 0.4261(4) 0.42542(13)
N2 N 0.1876(3) 0.4399(4) 0.44538(13)
N3 N 0.3967(3) 0.5115(4) 0.38194(13)
C1 C 0.5123(4) 0.3448(5) 0.43837(16)
C2 C 0.3410(4) 0.6764(5) 0.31488(17)
C3 C 0.1548(4) 0.2350(5) 0.36465(17)
C4 C 0.5180(4) 0.2249(5) 0.47399(17)
H1 H 0.4483 0.1963 0.4896
C5 C 0.3168(4) 0.4596(5) 0.46427(16)
H2 H 0.3299 0.5658 0.4761
H3 H 0.3358 0.3915 0.4936
C6 C 0.1936(4) 0.6576(5) 0.38487(16)
C7 C 0.6166(4) 0.3858(5) 0.41471(16)
H4 H 0.6137 0.4663 0.3908
C8 C 0.2634(4) 0.1729(5) 0.35065(19)
H5 H 0.3274 0.1503 0.3755
C9 C 0.3114(4) 0.6072(5) 0.36562(17)
C10 C 0.2702(5) 0.6264(6) 0.26893(19)
H6 H 0.2026 0.5617 0.2707
C11 C 0.1309(4) 0.5748(5) 0.42076(16)
C12 C 0.1394(4) 0.7966(5) 0.36615(18)
H7 H 0.1782 0.8543 0.3422
C13 C 0.6275(4) 0.1474(5) 0.48640(18)
H8 H 0.6308 0.0685 0.5109
C14 C 0.4399(4) 0.7732(6) 0.31065(17)
C15 C 0.7250(4) 0.3051(6) 0.42721(18)
H9 H 0.7946 0.3318 0.4113
C16 C 0.2751(5) 0.1449(5) 0.2990(2)
H10 H 0.3482 0.1040 0.2893
C17 C 0.4720(5) 0.8216(6) 0.2625(2)
H11 H 0.5386 0.8875 0.2601
C18 C 0.7315(4) 0.1849(6) 0.46312(19)
H12 H 0.8044 0.1312 0.4712
C19 C 0.0206(4) 0.6273(6) 0.43627(18)
H13 H -0.0194 0.5698 0.4599
C20 C -0.0301(4) 0.7632(6) 0.4172(2)
H14 H -0.1046 0.7971 0.4275
C21 C 0.0301(4) 0.8507(6) 0.3822(2)
H15 H -0.0028 0.9445 0.3697
C22 C 0.4046(6) 0.7710(7) 0.2184(2)
H16 H 0.4271 0.8012 0.1863
C23 C 0.1805(5) 0.1763(6) 0.2614(2)
C24 C 0.0595(4) 0.2691(6) 0.3278(2)
H17 H -0.0131 0.3115 0.3374
C25 C 0.3048(6) 0.6768(7) 0.2214(2)
H18 H 0.2592 0.6458 0.1912
C26 C 0.0731(5) 0.2395(7) 0.2763(2)
H19 H 0.0092 0.2623 0.2515
C27 C 0.1939(7) 0.1401(8) 0.2047(2)
H20 H 0.2304 0.2274 0.1889
H21 H 0.1146 0.1199 0.1872
H22 H 0.2452 0.0504 0.2024
loop_
_geom_bond_atom_site_label_1
_geom_bond_atom_site_label_2
_geom_bond_site_symmetry_1
_geom_bond_site_symmetry_2
I1 C14 1_555 1_555
S1 O1 1_555 1_555
O2 S1 1_555 1_555
N1 N3 1_555 1_555
N2 S1 1_555 1_555
N3 C9 1_555 1_555
C1 N1 1_555 1_555
C2 C9 1_555 1_555
C3 S1 1_555 1_555
C4 C1 1_555 1_555
H1 C4 1_555 1_555
C5 N1 1_555 1_555
H2 C5 1_555 1_555
H3 C5 1_555 1_555
C6 C9 1_555 1_555
C7 C1 1_555 1_555
H4 C7 1_555 1_555
C8 C3 1_555 1_555
H5 C8 1_555 1_555
C10 C2 1_555 1_555
H6 C10 1_555 1_555
C11 N2 1_555 1_555
C12 C6 1_555 1_555
H7 C12 1_555 1_555
C13 C4 1_555 1_555
H8 C13 1_555 1_555
C14 C2 1_555 1_555
C15 C7 1_555 1_555
H9 C15 1_555 1_555
C16 C8 1_555 1_555
H10 C16 1_555 1_555
C17 C14 1_555 1_555
H11 C17 1_555 1_555
C18 C13 1_555 1_555
H12 C18 1_555 1_555
C19 C11 1_555 1_555
H13 C19 1_555 1_555
C20 C19 1_555 1_555
H14 C20 1_555 1_555
C21 C12 1_555 1_555
H15 C21 1_555 1_555
C22 C17 1_555 1_555
H16 C22 1_555 1_555
C23 C16 1_555 1_555
C24 C3 1_555 1_555
H17 C24 1_555 1_555
C25 C10 1_555 1_555
H18 C25 1_555 1_555
C26 C23 1_555 1_555
H19 C26 1_555 1_555
C27 C23 1_555 1_555
H20 C27 1_555 1_555
H21 C27 1_555 1_555
H22 C27 1_555 1_555
N2 C5 1_555 1_555
C6 C11 1_555 1_555
C15 C18 1_555 1_555
C20 C21 1_555 1_555
C22 C25 1_555 1_555
C24 C26 1_555 1_555

#END
