
#######################################################################
#
#                 Cambridge Crystallographic Data Centre
#                                CCDC 
#
#######################################################################
#
# If this CIF has been generated from an entry in the Cambridge 
# Structural Database, then it will include bibliographic, chemical, 
# crystal, experimental, refinement or atomic coordinate data resulting 
# from the CCDC's data processing and validation procedures.
#
#######################################################################

data_XILNAK
_chemical_formula_moiety         'C27 H22 Br1 N3 O2 S1'
_chemical_name_systematic        
5-(4-bromophenyl)-1-[(4-methylphenyl)sulfonyl]-3-phenyl-2,3-dihydro-1H-1,3,4-benzotriazepine
_symmetry_cell_setting           triclinic
_symmetry_space_group_name_H-M   'P -1'
_symmetry_Int_Tables_number      2
_space_group_name_Hall           '-P 1'
loop_
_symmetry_equiv_pos_site_id
_symmetry_equiv_pos_as_xyz
1 x,y,z
2 -x,-y,-z
_cell_length_a                   9.2551(4)
_cell_length_b                   9.3986(4)
_cell_length_c                   14.7116(6)
_cell_angle_alpha                85.268(3)
_cell_angle_beta                 71.933(4)
_cell_angle_gamma                74.403(4)
_cell_volume                     1171.79
_exptl_crystal_colour            colorless
_exptl_crystal_description       Block
_cell_formula_units_Z            2
loop_
_atom_site_label
_atom_site_type_symbol
_atom_site_fract_x
_atom_site_fract_y
_atom_site_fract_z
Br1 Br 0.03315(3) 0.26392(3) 0.63360(2)
S1 S 0.96927(6) 0.29403(7) 0.17307(5)
O1 O 1.10975(17) 0.1774(2) 0.15347(13)
N1 N 0.6106(2) 0.44391(19) 0.13220(13)
N2 N 0.8486(2) 0.2501(2) 0.12529(13)
N3 N 0.5174(2) 0.39424(19) 0.21111(13)
O2 O 0.9764(2) 0.44030(19) 0.14171(14)
C1 C 0.4099(2) 0.2525(2) 0.33552(16)
C2 C 0.5404(2) 0.5844(2) 0.10074(16)
C3 C 0.3379(3) 0.1802(3) 0.50118(18)
H1 H 0.3663 0.1303 0.5528
C4 C 0.8046(3) 0.1139(2) 0.15093(15)
C5 C 0.1843(3) 0.2570(2) 0.51166(16)
C6 C 0.6500(2) 0.1204(2) 0.20366(16)
C7 C 0.1410(3) 0.3293(3) 0.43534(17)
H2 H 0.0365 0.3788 0.4426
C8 C 0.2537(2) 0.3278(3) 0.34785(17)
H3 H 0.2248 0.3779 0.2964
C9 C 0.4492(3) 0.1782(2) 0.41317(18)
H4 H 0.5528 0.1257 0.4059
C10 C 0.5337(2) 0.2605(2) 0.24287(16)
C11 C 0.7600(2) 0.3553(2) 0.07187(16)
H5 H 0.7395 0.3022 0.0254
H6 H 0.8234 0.4208 0.0371
C12 C 0.6101(3) 0.6420(3) 0.01310(17)
H7 H 0.7046 0.5873 -0.0269
C13 C 0.8789(2) 0.2931(2) 0.29699(17)
C14 C 0.3962(3) 0.6673(3) 0.15743(17)
H8 H 0.3452 0.6290 0.2151
C15 C 0.3287(3) 0.8057(3) 0.12858(19)
H9 H 0.2339 0.8609 0.1680
C16 C 0.9115(3) -0.0196(3) 0.11844(17)
H10 H 1.0153 -0.0224 0.0843
C17 C 0.5396(3) 0.7805(3) -0.01477(18)
H11 H 0.5879 0.8184 -0.0733
C18 C 0.3992(3) 0.8634(3) 0.0425(2)
H12 H 0.3528 0.9567 0.0234
C19 C 0.9053(3) 0.1634(3) 0.34789(19)
H13 H 0.9737 0.0777 0.3169
C20 C 0.7794(3) 0.4217(3) 0.34422(19)
H14 H 0.7612 0.5097 0.3107
C21 C 0.6032(3) -0.0114(3) 0.21913(18)
H15 H 0.4995 -0.0096 0.2528
C22 C 0.7292(3) 0.2885(3) 0.49249(19)
C23 C 0.8626(3) -0.1486(3) 0.13717(19)
H16 H 0.9343 -0.2389 0.1171
C24 C 0.7085(3) -0.1435(3) 0.1852(2)
H17 H 0.6750 -0.2300 0.1950
C25 C 0.8300(3) 0.1614(3) 0.4447(2)
H18 H 0.8470 0.0735 0.4785
C26 C 0.7083(3) 0.4171(3) 0.4411(2)
H19 H 0.6440 0.5038 0.4728
C27 C 0.6430(4) 0.2847(4) 0.5977(2)
H20 H 0.5426 0.2663 0.6059
H21 H 0.6279 0.3780 0.6262
H22 H 0.7036 0.2076 0.6279
loop_
_geom_bond_atom_site_label_1
_geom_bond_atom_site_label_2
_geom_bond_site_symmetry_1
_geom_bond_site_symmetry_2
Br1 C5 1_555 1_555
S1 O1 1_555 1_555
N1 N3 1_555 1_555
N2 S1 1_555 1_555
N3 C10 1_555 1_555
O2 S1 1_555 1_555
C1 C8 1_555 1_555
C2 N1 1_555 1_555
C3 H1 1_555 1_555
C4 N2 1_555 1_555
C5 C3 1_555 1_555
C6 C4 1_555 1_555
C7 C5 1_555 1_555
H2 C7 1_555 1_555
C8 C7 1_555 1_555
H3 C8 1_555 1_555
C9 C1 1_555 1_555
H4 C9 1_555 1_555
C10 C1 1_555 1_555
C11 N1 1_555 1_555
H5 C11 1_555 1_555
H6 C11 1_555 1_555
C12 C2 1_555 1_555
H7 C12 1_555 1_555
C13 S1 1_555 1_555
C14 C2 1_555 1_555
H8 C14 1_555 1_555
C15 C14 1_555 1_555
H9 C15 1_555 1_555
C16 C4 1_555 1_555
H10 C16 1_555 1_555
C17 C12 1_555 1_555
H11 C17 1_555 1_555
C18 C15 1_555 1_555
H12 C18 1_555 1_555
C19 C13 1_555 1_555
H13 C19 1_555 1_555
C20 C13 1_555 1_555
H14 C20 1_555 1_555
C21 C6 1_555 1_555
H15 C21 1_555 1_555
C22 C25 1_555 1_555
C23 C16 1_555 1_555
H16 C23 1_555 1_555
C24 C21 1_555 1_555
H17 C24 1_555 1_555
C25 C19 1_555 1_555
H18 C25 1_555 1_555
C26 C20 1_555 1_555
H19 C26 1_555 1_555
C27 C22 1_555 1_555
H20 C27 1_555 1_555
H21 C27 1_555 1_555
H22 C27 1_555 1_555
N2 C11 1_555 1_555
C3 C9 1_555 1_555
C6 C10 1_555 1_555
C17 C18 1_555 1_555
C22 C26 1_555 1_555
C23 C24 1_555 1_555

#END
