
#######################################################################
#
#                 Cambridge Crystallographic Data Centre
#                                CCDC 
#
#######################################################################
#
# If this CIF has been generated from an entry in the Cambridge 
# Structural Database, then it will include bibliographic, chemical, 
# crystal, experimental, refinement or atomic coordinate data resulting 
# from the CCDC's data processing and validation procedures.
#
#######################################################################

data_XILQIU
_chemical_formula_moiety         'C32 H23 F3 N2 O1'
_chemical_name_systematic        
'(5-Methyl-2-phenyl-1-(4-(trifluoromethyl)phenyl)-2,5-dihydro-1H-pyrido[4,3-b]indol-4-yl)(phenyl)methanone unknown solvate'
_symmetry_cell_setting           monoclinic
_symmetry_space_group_name_H-M   'P 21/n'
_symmetry_Int_Tables_number      14
_space_group_name_Hall           '-P 2yn'
loop_
_symmetry_equiv_pos_site_id
_symmetry_equiv_pos_as_xyz
1 x,y,z
2 1/2-x,1/2+y,1/2-z
3 -x,-y,-z
4 1/2+x,1/2-y,1/2+z
_cell_length_a                   13.0947(18)
_cell_length_b                   16.094(2)
_cell_length_c                   14.573(2)
_cell_angle_alpha                90
_cell_angle_beta                 105.521(3)
_cell_angle_gamma                90
_cell_volume                     2959.2
_exptl_crystal_colour            yellow
_exptl_crystal_description       prismatic
_cell_formula_units_Z            4
loop_
_atom_site_label
_atom_site_type_symbol
_atom_site_fract_x
_atom_site_fract_y
_atom_site_fract_z
N1 N 0.78118(18) 0.12954(15) 0.87535(16)
N2 N 0.78305(18) 0.28870(14) 0.65623(15)
O1 O 0.93661(17) 0.26458(15) 0.98275(14)
F1 F 0.5454(8) 0.5609(6) 0.9156(7)
F2 F 0.3905(11) 0.5330(10) 0.8233(11)
F3 F 0.4894(9) 0.6148(6) 0.7795(5)
C1 C 0.6833(2) 0.09302(17) 0.8402(2)
C2 C 0.6375(2) 0.02709(19) 0.8771(2)
H1 H 0.6738 0.0001 0.9327
C3 C 0.5371(2) 0.00365(19) 0.8282(2)
H2 H 0.5056 -0.0408 0.8508
C4 C 0.4810(3) 0.0439(2) 0.7463(2)
H3 H 0.4132 0.0258 0.7149
C5 C 0.5239(2) 0.11046(19) 0.7105(2)
H4 H 0.4858 0.1378 0.6558
C6 C 0.6271(2) 0.13607(17) 0.75867(19)
C7 C 0.6954(2) 0.20018(17) 0.74411(19)
C8 C 0.7882(2) 0.19576(17) 0.81579(19)
C9 C 0.8757(2) 0.25144(17) 0.81725(19)
C10 C 0.8694(2) 0.29146(17) 0.73343(19)
H5 H 0.9276 0.3226 0.7285
C11 C 0.6796(2) 0.26952(17) 0.67357(19)
H6 H 0.6311 0.2507 0.6137
C12 C 0.6308(2) 0.34549(18) 0.70948(18)
C13 C 0.5255(3) 0.3427(2) 0.7115(3)
H7 H 0.4848 0.2963 0.6874
C14 C 0.4807(3) 0.4063(2) 0.7481(3)
H8 H 0.4099 0.4031 0.7485
C15 C 0.5390(3) 0.4756(2) 0.7845(2)
C16 C 0.6427(3) 0.4812(2) 0.7797(2)
H9 H 0.6823 0.5285 0.8022
C17 C 0.6876(2) 0.4166(2) 0.7416(2)
H10 H 0.7571 0.4212 0.7375
C18 C 0.9520(2) 0.27835(18) 0.9048(2)
C19 C 1.0490(2) 0.3263(2) 0.9027(2)
C20 C 1.0803(3) 0.3910(3) 0.9668(2)
H11 H 1.0376 0.4068 1.0055
C21 C 1.1745(4) 0.4320(3) 0.9735(3)
H12 H 1.1943 0.4760 1.0159
C22 C 1.2386(4) 0.4084(4) 0.9185(3)
H13 H 1.3024 0.4360 0.9240
C23 C 1.2096(3) 0.3440(4) 0.8550(3)
H14 H 1.2543 0.3277 0.8183
C24 C 1.1144(3) 0.3035(2) 0.8454(3)
H15 H 1.0939 0.2612 0.8009
C25 C 0.7854(2) 0.32136(17) 0.56664(19)
C26 C 0.6978(2) 0.35909(19) 0.50787(19)
H16 H 0.6347 0.3606 0.5257
C27 C 0.7019(3) 0.3946(2) 0.4233(2)
H17 H 0.6420 0.4199 0.3843
C28 C 0.7948(3) 0.3927(3) 0.3963(2)
H18 H 0.7987 0.4186 0.3403
C29 C 0.8818(3) 0.3525(2) 0.4524(2)
H19 H 0.9443 0.3502 0.4336
C30 C 0.8767(3) 0.3154(2) 0.5370(2)
H20 H 0.9349 0.2865 0.5737
C31 C 0.4930(3) 0.5436(2) 0.8296(3)
C32 C 0.8697(2) 0.0884(2) 0.9426(2)
H21 H 0.8729 0.1062 1.0062
H22 H 0.9347 0.1026 0.9278
H23 H 0.8597 0.0293 0.9381
F4? F 0.5047(9) 0.5277(5) 0.9197(6)
F5? F 0.3903(12) 0.5492(11) 0.7959(10)
F6? F 0.5264(9) 0.6170(7) 0.8202(7)
loop_
_geom_bond_atom_site_label_1
_geom_bond_atom_site_label_2
_geom_bond_site_symmetry_1
_geom_bond_site_symmetry_2
N1 C1 1_555 1_555
N2 C10 1_555 1_555
O1 C18 1_555 1_555
F1 C31 1_555 1_555
F2 C31 1_555 1_555
F3 C31 1_555 1_555
C1 C2 1_555 1_555
C2 H1 1_555 1_555
C3 C2 1_555 1_555
H2 C3 1_555 1_555
C4 C3 1_555 1_555
H3 C4 1_555 1_555
C5 C4 1_555 1_555
H4 C5 1_555 1_555
C6 C1 1_555 1_555
C7 C6 1_555 1_555
C8 N1 1_555 1_555
C9 C8 1_555 1_555
C10 C9 1_555 1_555
H5 C10 1_555 1_555
C11 N2 1_555 1_555
H6 C11 1_555 1_555
C12 C11 1_555 1_555
C13 C12 1_555 1_555
H7 C13 1_555 1_555
C14 C13 1_555 1_555
H8 C14 1_555 1_555
C15 C14 1_555 1_555
C16 C15 1_555 1_555
H9 C16 1_555 1_555
C17 C12 1_555 1_555
H10 C17 1_555 1_555
C18 C9 1_555 1_555
C19 C18 1_555 1_555
C20 C19 1_555 1_555
H11 C20 1_555 1_555
C21 C20 1_555 1_555
H12 C21 1_555 1_555
C22 C21 1_555 1_555
H13 C22 1_555 1_555
C23 C22 1_555 1_555
H14 C23 1_555 1_555
C24 C19 1_555 1_555
H15 C24 1_555 1_555
C25 N2 1_555 1_555
C26 C25 1_555 1_555
H16 C26 1_555 1_555
C27 C26 1_555 1_555
H17 C27 1_555 1_555
C28 C27 1_555 1_555
H18 C28 1_555 1_555
C29 C28 1_555 1_555
H19 C29 1_555 1_555
C30 C25 1_555 1_555
H20 C30 1_555 1_555
C31 C15 1_555 1_555
C32 N1 1_555 1_555
H21 C32 1_555 1_555
H22 C32 1_555 1_555
H23 C32 1_555 1_555
C5 C6 1_555 1_555
C7 C8 1_555 1_555
C7 C11 1_555 1_555
C16 C17 1_555 1_555
C23 C24 1_555 1_555
C29 C30 1_555 1_555

#END
