
#######################################################################
#
#                 Cambridge Crystallographic Data Centre
#                                CCDC 
#
#######################################################################
#
# If this CIF has been generated from an entry in the Cambridge 
# Structural Database, then it will include bibliographic, chemical, 
# crystal, experimental, refinement or atomic coordinate data resulting 
# from the CCDC's data processing and validation procedures.
#
#######################################################################

data_XILTET
_chemical_formula_moiety         'C19 H19 N1 O2'
_chemical_name_systematic        
4-Benzyl-3-(2-(4-methylphenyl)vinyl)-1,3-oxazolidin-2-one
_symmetry_cell_setting           orthorhombic
_symmetry_space_group_name_H-M   'P 21 21 21'
_symmetry_Int_Tables_number      19
_space_group_name_Hall           'P 2ac 2ab'
loop_
_symmetry_equiv_pos_site_id
_symmetry_equiv_pos_as_xyz
1 x,y,z
2 1/2-x,-y,1/2+z
3 -x,1/2+y,1/2-z
4 1/2+x,1/2-y,-z
_cell_length_a                   6.566(2)
_cell_length_b                   9.020(3)
_cell_length_c                   27.004(10)
_cell_angle_alpha                90
_cell_angle_beta                 90
_cell_angle_gamma                90
_cell_volume                     1599.32
_exptl_crystal_colour            colorless
_exptl_crystal_description       block
_cell_formula_units_Z            4
loop_
_atom_site_label
_atom_site_type_symbol
_atom_site_fract_x
_atom_site_fract_y
_atom_site_fract_z
C1 C 1.2492(4) -0.0313(3) 0.12303(9)
C2 C 0.9366(3) 0.0895(3) 0.12641(9)
H1 H 0.8700 0.1410 0.1540
C3 C 0.9117(4) -0.0766(3) 0.13291(9)
H2 H 0.8728 -0.1001 0.1667
H3 H 0.8083 -0.1146 0.1106
C4 C 1.2688(4) 0.2340(4) 0.12888(9)
H4 H 1.3954 0.2279 0.1136
C5 C 1.2145(4) 0.3670(3) 0.14560(10)
H5 H 1.3025 0.4444 0.1379
C6 C 1.0336(4) 0.4076(3) 0.17464(9)
C7 C 0.9113(5) 0.5252(3) 0.16100(10)
H6 H 0.9449 0.5806 0.1331
C8 C 0.7409(5) 0.5620(3) 0.18787(11)
H7 H 0.6608 0.6411 0.1774
C9 C 0.6850(4) 0.4847(3) 0.23008(10)
C10 C 0.8118(4) 0.3716(3) 0.24433(9)
H8 H 0.7821 0.3197 0.2732
C11 C 0.9816(4) 0.3321(3) 0.21737(10)
H9 H 1.0623 0.2537 0.2281
C12 C 0.4966(5) 0.5243(4) 0.25822(11)
H10 H 0.5192 0.6145 0.2763
H11 H 0.4640 0.4460 0.2809
H12 H 0.3857 0.5380 0.2355
C13 C 0.8589(3) 0.1529(3) 0.07730(9)
H13 H 0.7116 0.1600 0.0789
H14 H 0.9119 0.2527 0.0735
C14 C 0.9153(4) 0.0649(3) 0.03233(9)
C15 C 0.7785(4) -0.0349(3) 0.01237(10)
H15 H 0.6498 -0.0441 0.0264
C16 C 0.8293(6) -0.1215(4) -0.02808(12)
H16 H 0.7353 -0.1886 -0.0408
C17 C 1.0156(6) -0.1089(4) -0.04917(10)
H17 H 1.0502 -0.1678 -0.0762
C18 C 1.1519(5) -0.0099(4) -0.03072(12)
H18 H 1.2794 -0.0007 -0.0454
C19 C 1.1026(4) 0.0774(3) 0.00973(10)
H19 H 1.1970 0.1453 0.0218
N1 N 1.1568(3) 0.1021(2) 0.13173(7)
O1 O 1.1086(3) -0.13950(19) 0.12133(6)
O2 O 1.4297(3) -0.0538(2) 0.11779(7)
loop_
_geom_bond_atom_site_label_1
_geom_bond_atom_site_label_2
_geom_bond_site_symmetry_1
_geom_bond_site_symmetry_2
C1 N1 1_555 1_555
C2 H1 1_555 1_555
C3 C2 1_555 1_555
H2 C3 1_555 1_555
H3 C3 1_555 1_555
C4 H4 1_555 1_555
C5 C4 1_555 1_555
H5 C5 1_555 1_555
C6 C5 1_555 1_555
C7 C6 1_555 1_555
H6 C7 1_555 1_555
C8 C7 1_555 1_555
H7 C8 1_555 1_555
C9 C8 1_555 1_555
C10 C9 1_555 1_555
H8 C10 1_555 1_555
C11 C6 1_555 1_555
H9 C11 1_555 1_555
C12 C9 1_555 1_555
H10 C12 1_555 1_555
H11 C12 1_555 1_555
H12 C12 1_555 1_555
C13 C2 1_555 1_555
H13 C13 1_555 1_555
H14 C13 1_555 1_555
C14 C13 1_555 1_555
C15 C14 1_555 1_555
H15 C15 1_555 1_555
C16 C15 1_555 1_555
H16 C16 1_555 1_555
C17 C16 1_555 1_555
H17 C17 1_555 1_555
C18 C17 1_555 1_555
H18 C18 1_555 1_555
C19 C14 1_555 1_555
H19 C19 1_555 1_555
N1 C2 1_555 1_555
O1 C1 1_555 1_555
O2 C1 1_555 1_555
C3 O1 1_555 1_555
C4 N1 1_555 1_555
C10 C11 1_555 1_555
C18 C19 1_555 1_555

#END
