
#######################################################################
#
#                 Cambridge Crystallographic Data Centre
#                                CCDC 
#
#######################################################################
#
# If this CIF has been generated from an entry in the Cambridge 
# Structural Database, then it will include bibliographic, chemical, 
# crystal, experimental, refinement or atomic coordinate data resulting 
# from the CCDC's data processing and validation procedures.
#
#######################################################################

data_XILXUM
_chemical_formula_moiety         'C18 H18 O1 S2'
_chemical_name_systematic        
(2E,6E)-2,6-bis((5-Methylthiophen-2-yl)methylene)cyclohexanone
_symmetry_cell_setting           monoclinic
_symmetry_space_group_name_H-M   'P 21/n'
_symmetry_Int_Tables_number      14
_space_group_name_Hall           '-P 2yn'
loop_
_symmetry_equiv_pos_site_id
_symmetry_equiv_pos_as_xyz
1 x,y,z
2 1/2-x,1/2+y,1/2-z
3 -x,-y,-z
4 1/2+x,1/2-y,1/2+z
_cell_length_a                   15.0631(19)
_cell_length_b                   5.9790(8)
_cell_length_c                   17.689(2)
_cell_angle_alpha                90
_cell_angle_beta                 99.204(2)
_cell_angle_gamma                90
_cell_volume                     1572.6
_exptl_crystal_colour            yellow
_exptl_crystal_description       prismatic
_chemical_melting_point          '438-440 K'
_cell_formula_units_Z            4
_exptl_crystal_recrystallization_method dichloromethane-ethanol
loop_
_atom_site_label
_atom_site_type_symbol
_atom_site_fract_x
_atom_site_fract_y
_atom_site_fract_z
S1 S 0.66053(5) 0.60400(10) 1.02262(4)
S2 S 0.42563(4) 0.72792(11) 0.53701(4)
O1 O 0.46099(14) 0.1525(3) 0.78293(11)
C1 C 0.49669(17) 0.3352(4) 0.78007(14)
C2 C 0.48304(16) 0.4675(4) 0.70766(13)
C3 C 0.53608(18) 0.6800(5) 0.70181(15)
H1 H 0.4977 0.8077 0.7067
H2 H 0.5541 0.6869 0.6516
C4 C 0.61929(19) 0.6951(5) 0.76260(15)
H3 H 0.6625 0.5827 0.7528
H4 H 0.6469 0.8409 0.7603
C5 C 0.59505(19) 0.6594(5) 0.84138(14)
H5 H 0.6488 0.6735 0.8794
H6 H 0.5530 0.7743 0.8514
C6 C 0.55374(16) 0.4335(4) 0.84869(13)
C7 C 0.56103(16) 0.3136(4) 0.91373(14)
H7 H 0.5328 0.1750 0.9078
C8 C 0.60433(16) 0.3593(4) 0.99076(14)
C9 C 0.60517(18) 0.2174(4) 1.05115(15)
H8 H 0.5785 0.0767 1.0465
C10 C 0.64957(18) 0.3018(5) 1.12083(15)
H9 H 0.6549 0.2228 1.1666
C11 C 0.68413(17) 0.5092(5) 1.11535(14)
C12 C 0.7374(2) 0.6518(5) 1.17666(16)
H10 H 0.7129 0.6373 1.2233
H11 H 0.7343 0.8054 1.1606
H12 H 0.7990 0.6038 1.1852
C13 C 0.42223(17) 0.3906(4) 0.64973(14)
H13 H 0.3942 0.2582 0.6604
C14 C 0.39269(16) 0.4772(4) 0.57379(13)
C15 C 0.33238(17) 0.3723(4) 0.51864(15)
H14 H 0.3056 0.2361 0.5266
C16 C 0.31508(17) 0.4888(5) 0.44959(15)
H15 H 0.2764 0.4359 0.4071
C17 C 0.35950(16) 0.6853(4) 0.44977(14)
C18 C 0.3575(2) 0.8562(5) 0.38763(16)
H16 H 0.3248 0.7977 0.3407
H17 H 0.4179 0.8909 0.3807
H18 H 0.3285 0.9894 0.4016
loop_
_geom_bond_atom_site_label_1
_geom_bond_atom_site_label_2
_geom_bond_site_symmetry_1
_geom_bond_site_symmetry_2
S1 C8 1_555 1_555
S2 C14 1_555 1_555
O1 C1 1_555 1_555
C1 C2 1_555 1_555
C2 C3 1_555 1_555
C3 H1 1_555 1_555
H2 C3 1_555 1_555
C4 C3 1_555 1_555
H3 C4 1_555 1_555
H4 C4 1_555 1_555
C5 C4 1_555 1_555
H5 C5 1_555 1_555
H6 C5 1_555 1_555
C6 C1 1_555 1_555
C7 C6 1_555 1_555
H7 C7 1_555 1_555
C8 C7 1_555 1_555
C9 C8 1_555 1_555
H8 C9 1_555 1_555
C10 C9 1_555 1_555
H9 C10 1_555 1_555
C11 S1 1_555 1_555
C12 C11 1_555 1_555
H10 C12 1_555 1_555
H11 C12 1_555 1_555
H12 C12 1_555 1_555
C13 C2 1_555 1_555
H13 C13 1_555 1_555
C14 C13 1_555 1_555
C15 C14 1_555 1_555
H14 C15 1_555 1_555
C16 C15 1_555 1_555
H15 C16 1_555 1_555
C17 S2 1_555 1_555
C18 C17 1_555 1_555
H16 C18 1_555 1_555
H17 C18 1_555 1_555
H18 C18 1_555 1_555
C5 C6 1_555 1_555
C10 C11 1_555 1_555
C16 C17 1_555 1_555

#END
