
#######################################################################
#
#                 Cambridge Crystallographic Data Centre
#                                CCDC 
#
#######################################################################
#
# If this CIF has been generated from an entry in the Cambridge 
# Structural Database, then it will include bibliographic, chemical, 
# crystal, experimental, refinement or atomic coordinate data resulting 
# from the CCDC's data processing and validation procedures.
#
#######################################################################

data_XILYEX
_chemical_formula_moiety         'C20 H14 O3'
_chemical_name_systematic        
7,9-Dimethyl-3-phenylnaphtho(1,2-b)furan-4,5-dione
_symmetry_cell_setting           monoclinic
_symmetry_space_group_name_H-M   'P 21/c'
_symmetry_Int_Tables_number      14
_space_group_name_Hall           '-P 2ybc'
loop_
_symmetry_equiv_pos_site_id
_symmetry_equiv_pos_as_xyz
1 x,y,z
2 -x,1/2+y,1/2-z
3 -x,-y,-z
4 x,1/2-y,1/2+z
_cell_length_a                   7.792(2)
_cell_length_b                   7.602(2)
_cell_length_c                   24.746(7)
_cell_angle_alpha                90
_cell_angle_beta                 93.610(5)
_cell_angle_gamma                90
_cell_volume                     1462.92
_exptl_crystal_colour            red
_exptl_crystal_description       block
_cell_formula_units_Z            4
_exptl_crystal_recrystallization_method deuterochloroform
loop_
_atom_site_label
_atom_site_type_symbol
_atom_site_fract_x
_atom_site_fract_y
_atom_site_fract_z
C1 C 0.33460(19) 0.0790(2) 0.94412(6)
H1 H 0.4424 0.0311 0.9392
C2 C 0.21428(17) 0.10566(18) 0.90371(5)
C3 C 0.24088(19) 0.06386(18) 0.84666(5)
C4 C 0.4054(2) 0.0779(2) 0.82849(6)
H2 H 0.4939 0.1223 0.8515
C5 C 0.4389(2) 0.0267(3) 0.77658(7)
H3 H 0.5498 0.0361 0.7650
C6 C 0.3096(3) -0.0379(3) 0.74210(7)
H4 H 0.3328 -0.0736 0.7074
C7 C 0.1453(3) -0.0498(2) 0.75908(7)
H5 H 0.0574 -0.0931 0.7356
C8 C 0.1096(2) 0.0023(2) 0.81090(6)
H6 H -0.0023 -0.0040 0.8218
C9 C 0.06983(16) 0.17866(17) 0.93019(5)
C10 C -0.09938(18) 0.23874(19) 0.91119(6)
C11 C -0.21411(17) 0.30834(18) 0.95534(6)
C12 C -0.14654(17) 0.31760(17) 1.01237(5)
C13 C -0.25251(18) 0.38256(18) 1.05073(6)
H7 H -0.3638 0.4180 1.0401
C14 C -0.19467(19) 0.39517(18) 1.10448(6)
C15 C -0.02604(19) 0.34631(18) 1.11827(6)
H8 H 0.0150 0.3590 1.1542
C16 C 0.08540(17) 0.27926(17) 1.08151(5)
C17 C 0.02245(16) 0.26205(16) 1.02753(5)
C18 C 0.11923(16) 0.19215(17) 0.98400(5)
C19 C -0.3093(2) 0.4566(2) 1.14715(7)
H9 H -0.4067 0.5171 1.1303
H10 H -0.2465 0.5349 1.1715
H11 H -0.3480 0.3570 1.1669
C20 C 0.2641(2) 0.2282(2) 1.10205(6)
H12 H 0.2802 0.2562 1.1399
H13 H 0.3465 0.2916 1.0824
H14 H 0.2799 0.1041 1.0971
O1 O 0.28067(12) 0.13026(14) 0.99344(4)
O2 O -0.15827(15) 0.23743(19) 0.86475(4)
O3 O -0.35925(14) 0.35313(18) 0.94093(5)
loop_
_geom_bond_atom_site_label_1
_geom_bond_atom_site_label_2
_geom_bond_site_symmetry_1
_geom_bond_site_symmetry_2
C1 H1 1_555 1_555
C2 C1 1_555 1_555
C3 C2 1_555 1_555
C4 C3 1_555 1_555
H2 C4 1_555 1_555
C5 C4 1_555 1_555
H3 C5 1_555 1_555
C6 C5 1_555 1_555
H4 C6 1_555 1_555
C7 C6 1_555 1_555
H5 C7 1_555 1_555
C8 C3 1_555 1_555
H6 C8 1_555 1_555
C9 C2 1_555 1_555
C10 C9 1_555 1_555
C11 C10 1_555 1_555
C12 C11 1_555 1_555
C13 C12 1_555 1_555
H7 C13 1_555 1_555
C14 C13 1_555 1_555
C15 C14 1_555 1_555
H8 C15 1_555 1_555
C16 C15 1_555 1_555
C17 C12 1_555 1_555
C18 C9 1_555 1_555
C19 C14 1_555 1_555
H9 C19 1_555 1_555
H10 C19 1_555 1_555
H11 C19 1_555 1_555
C20 C16 1_555 1_555
H12 C20 1_555 1_555
H13 C20 1_555 1_555
H14 C20 1_555 1_555
O1 C1 1_555 1_555
O2 C10 1_555 1_555
O3 C11 1_555 1_555
C7 C8 1_555 1_555
C16 C17 1_555 1_555
C17 C18 1_555 1_555
C18 O1 1_555 1_555

#END
