
#######################################################################
#
#                 Cambridge Crystallographic Data Centre
#                                CCDC 
#
#######################################################################
#
# If this CIF has been generated from an entry in the Cambridge 
# Structural Database, then it will include bibliographic, chemical, 
# crystal, experimental, refinement or atomic coordinate data resulting 
# from the CCDC's data processing and validation procedures.
#
#######################################################################

data_XILZOI
_chemical_formula_moiety         'C34 H28 O3 S2'
_chemical_name_systematic        
2,4-Dibenzoyl-1-phenyl-3,5-bis(2-thienyl)cyclohexanol
_symmetry_cell_setting           orthorhombic
_symmetry_space_group_name_H-M   'P b c a'
_symmetry_Int_Tables_number      61
_space_group_name_Hall           '-P 2ac 2ab'
loop_
_symmetry_equiv_pos_site_id
_symmetry_equiv_pos_as_xyz
1 x,y,z
2 1/2-x,-y,1/2+z
3 -x,1/2+y,1/2-z
4 1/2+x,1/2-y,-z
5 -x,-y,-z
6 1/2+x,y,1/2-z
7 x,1/2-y,1/2+z
8 1/2-x,1/2+y,z
_cell_length_a                   19.477(3)
_cell_length_b                   12.1666(19)
_cell_length_c                   23.970(4)
_cell_angle_alpha                90
_cell_angle_beta                 90
_cell_angle_gamma                90
_cell_volume                     5680.14
_exptl_crystal_colour            colorless
_exptl_crystal_description       stick
_cell_formula_units_Z            8
_exptl_crystal_recrystallization_method ethanol
loop_
_atom_site_label
_atom_site_type_symbol
_atom_site_fract_x
_atom_site_fract_y
_atom_site_fract_z
O1 O 0.28423(19) 0.6427(3) 0.03495(16)
H1 H 0.2465 0.6726 0.0334
O2 O 0.15784(18) 0.6294(3) 0.07682(17)
O3 O 0.3657(2) 0.5494(3) 0.20752(16)
S1 S 0.20614(8) 0.29648(12) 0.17794(6)
S2 S 0.52146(10) 0.51469(18) 0.11031(9)
C1 C 0.2765(2) 0.5261(4) 0.02428(19)
C2 C 0.2313(2) 0.4741(4) 0.07074(19)
H2 H 0.2255 0.3958 0.0625
C3 C 0.2641(2) 0.4855(4) 0.12933(18)
H3 H 0.2678 0.5643 0.1373
C4 C 0.3367(2) 0.4390(4) 0.12956(18)
H4 H 0.3345 0.3598 0.1223
C5 C 0.3822(2) 0.4937(4) 0.0843(2)
H5 H 0.3842 0.5727 0.0920
C6 C 0.3487(2) 0.4774(4) 0.0277(2)
H6 H 0.3462 0.3993 0.0198
H7 H 0.3772 0.5111 -0.0007
C7 C 0.2462(3) 0.5062(4) -0.0332(2)
C8 C 0.2346(4) 0.3995(5) -0.0542(3)
H8 H 0.2420 0.3388 -0.0314
C9 C 0.2124(4) 0.3843(6) -0.1082(3)
H9 H 0.2057 0.3135 -0.1218
C10 C 0.2006(3) 0.4698(6) -0.1410(3)
H10 H 0.1858 0.4575 -0.1774
C11 C 0.2092(3) 0.5711(7) -0.1239(3)
H11 H 0.2008 0.6292 -0.1482
C12 C 0.2301(3) 0.5915(4) -0.0712(2)
H12 H 0.2341 0.6641 -0.0594
C13 C 0.1598(3) 0.5287(4) 0.0718(2)
C14 C 0.0959(3) 0.4646(4) 0.0683(2)
C15 C 0.0930(3) 0.3540(4) 0.0557(2)
H13 H 0.1334 0.3148 0.0499
C16 C 0.0307(3) 0.3015(5) 0.0517(3)
H14 H 0.0296 0.2270 0.0431
C17 C -0.0284(3) 0.3552(6) 0.0599(3)
H15 H -0.0701 0.3184 0.0569
C18 C -0.0271(3) 0.4650(7) 0.0727(3)
H16 H -0.0682 0.5019 0.0786
C19 C 0.0338(3) 0.5217(5) 0.0771(2)
H17 H 0.0339 0.5962 0.0857
C20 C 0.3696(2) 0.4576(4) 0.1866(2)
C21 C 0.4073(2) 0.3687(4) 0.2159(2)
C22 C 0.4086(3) 0.2613(5) 0.1975(3)
H18 H 0.3836 0.2411 0.1660
C23 C 0.4472(4) 0.1832(6) 0.2260(3)
H19 H 0.4461 0.1102 0.2145
C24 C 0.4863(4) 0.2127(7) 0.2703(3)
H20 H 0.5139 0.1608 0.2879
C25 C 0.4850(4) 0.3185(8) 0.2891(3)
H21 H 0.5108 0.3377 0.3203
C26 C 0.4461(3) 0.3978(6) 0.2624(2)
H22 H 0.4458 0.4698 0.2755
C27 C 0.2211(2) 0.4357(4) 0.17447(19)
C28 C 0.1907(3) 0.4878(5) 0.2192(2)
H23 H 0.1918 0.5633 0.2254
C29 C 0.1577(4) 0.4108(7) 0.2542(3)
H24 H 0.1347 0.4313 0.2865
C30 C 0.1620(3) 0.3066(6) 0.2374(3)
H25 H 0.1429 0.2473 0.2563
C31 C 0.4541(3) 0.4490(4) 0.0861(2)
C32 C 0.4758(2) 0.3415(4) 0.0676(2)
H26 H 0.4477 0.2907 0.0498
C33 C 0.5462(4) 0.3241(7) 0.0806(3)
H27 H 0.5686 0.2576 0.0746
C34 C 0.5765(3) 0.4104(8) 0.1017(3)
H28 H 0.6228 0.4136 0.1108
loop_
_geom_bond_atom_site_label_1
_geom_bond_atom_site_label_2
_geom_bond_site_symmetry_1
_geom_bond_site_symmetry_2
O1 H1 1_555 1_555
O2 C13 1_555 1_555
O3 C20 1_555 1_555
S1 C27 1_555 1_555
S2 C31 1_555 1_555
C1 O1 1_555 1_555
C2 C1 1_555 1_555
H2 C2 1_555 1_555
C3 C2 1_555 1_555
H3 C3 1_555 1_555
C4 C3 1_555 1_555
H4 C4 1_555 1_555
C5 C4 1_555 1_555
H5 C5 1_555 1_555
C6 C1 1_555 1_555
H6 C6 1_555 1_555
H7 C6 1_555 1_555
C7 C1 1_555 1_555
C8 C7 1_555 1_555
H8 C8 1_555 1_555
C9 C8 1_555 1_555
H9 C9 1_555 1_555
C10 C9 1_555 1_555
H10 C10 1_555 1_555
C11 C10 1_555 1_555
H11 C11 1_555 1_555
C12 C7 1_555 1_555
H12 C12 1_555 1_555
C13 C2 1_555 1_555
C14 C13 1_555 1_555
C15 C14 1_555 1_555
H13 C15 1_555 1_555
C16 C15 1_555 1_555
H14 C16 1_555 1_555
C17 C16 1_555 1_555
H15 C17 1_555 1_555
C18 C17 1_555 1_555
H16 C18 1_555 1_555
C19 C14 1_555 1_555
H17 C19 1_555 1_555
C20 C4 1_555 1_555
C21 C20 1_555 1_555
C22 C21 1_555 1_555
H18 C22 1_555 1_555
C23 C22 1_555 1_555
H19 C23 1_555 1_555
C24 C23 1_555 1_555
H20 C24 1_555 1_555
C25 C24 1_555 1_555
H21 C25 1_555 1_555
C26 C21 1_555 1_555
H22 C26 1_555 1_555
C27 C3 1_555 1_555
C28 C27 1_555 1_555
H23 C28 1_555 1_555
C29 C28 1_555 1_555
H24 C29 1_555 1_555
C30 S1 1_555 1_555
H25 C30 1_555 1_555
C31 C5 1_555 1_555
C32 C31 1_555 1_555
H26 C32 1_555 1_555
C33 C32 1_555 1_555
H27 C33 1_555 1_555
C34 S2 1_555 1_555
H28 C34 1_555 1_555
C5 C6 1_555 1_555
C11 C12 1_555 1_555
C18 C19 1_555 1_555
C25 C26 1_555 1_555
C29 C30 1_555 1_555
C33 C34 1_555 1_555

#END
