
#######################################################################
#
#                 Cambridge Crystallographic Data Centre
#                                CCDC 
#
#######################################################################
#
# If this CIF has been generated from an entry in the Cambridge 
# Structural Database, then it will include bibliographic, chemical, 
# crystal, experimental, refinement or atomic coordinate data resulting 
# from the CCDC's data processing and validation procedures.
#
#######################################################################

data_XIMCAY
_chemical_formula_moiety         'C17 H13 N3 O3,C3 H7 N1 O1'
_chemical_name_systematic        
"2-Amino-2',5-dioxo-5,6,7,8-tetrahydrospiro(chromene-4,3'-indoline)-3-carbonitrile N,N-dimethylformamide solvate"
_symmetry_cell_setting           triclinic
_symmetry_space_group_name_H-M   'P -1'
_symmetry_Int_Tables_number      2
_space_group_name_Hall           '-P 1'
loop_
_symmetry_equiv_pos_site_id
_symmetry_equiv_pos_as_xyz
1 x,y,z
2 -x,-y,-z
_cell_length_a                   7.1833(14)
_cell_length_b                   8.8173(18)
_cell_length_c                   15.351(3)
_cell_angle_alpha                77.907(13)
_cell_angle_beta                 77.691(13)
_cell_angle_gamma                81.392(14)
_cell_volume                     923.231
_exptl_crystal_colour            colorless
_exptl_crystal_description       block
_chemical_melting_point          '573-575 K'
_cell_formula_units_Z            2
loop_
_atom_site_label
_atom_site_type_symbol
_atom_site_fract_x
_atom_site_fract_y
_atom_site_fract_z
O1 O 0.75602(16) 0.52904(12) -0.00607(7)
O2 O 0.50301(19) 0.52756(14) 0.30435(8)
O3 O 0.98417(17) 0.42893(14) 0.22839(8)
N1 N 0.8164(2) 0.23025(16) 0.31563(9)
H1 H 0.8864 0.1995 0.3580
N2 N 0.9859(2) 0.00722(18) 0.10933(11)
N3 N 0.9162(2) 0.33299(16) -0.07013(9)
H2 H 0.9712 0.2370 -0.0710
H3 H 0.9163 0.4006 -0.1212
C1 C 0.6547(2) 0.59323(18) 0.06719(11)
C2 C 0.6263(2) 0.51357(18) 0.15212(11)
C3 C 0.7133(2) 0.34806(18) 0.17859(11)
C4 C 0.8191(2) 0.28850(18) 0.09332(11)
C5 C 0.8330(2) 0.37603(18) 0.00864(11)
C6 C 0.5133(2) 0.59234(19) 0.22550(11)
C7 C 0.4122(3) 0.7513(2) 0.19830(12)
H4 H 0.3859 0.8074 0.2499
H5 H 0.2877 0.7405 0.1836
C8 C 0.5300(3) 0.8459(2) 0.11697(13)
H6 H 0.6477 0.8673 0.1339
H7 H 0.4553 0.9471 0.0987
C9 C 0.5850(2) 0.75999(19) 0.03733(11)
H8 H 0.4723 0.7661 0.0087
H9 H 0.6868 0.8110 -0.0086
C10 C 0.8564(2) 0.34412(18) 0.24291(11)
C11 C 0.6486(2) 0.16690(19) 0.31519(11)
C12 C 0.5570(3) 0.0556(2) 0.38021(12)
H10 H 0.6091 0.0065 0.4324
C13 C 0.3851(3) 0.0174(2) 0.36679(12)
H11 H 0.3189 -0.0592 0.4105
C14 C 0.3093(2) 0.0893(2) 0.29071(12)
H12 H 0.1905 0.0632 0.2836
C15 C 0.4053(2) 0.19930(19) 0.22472(11)
H13 H 0.3544 0.2474 0.1721
C16 C 0.5758(2) 0.23715(18) 0.23728(11)
C17 C 0.9110(2) 0.1332(2) 0.10209(11)
O4 O -0.06193(19) 0.22731(16) 0.47536(9)
N4 N 0.1442(2) 0.31623(18) 0.54114(10)
C18 C 0.0839(3) 0.2885(2) 0.47086(12)
H14 H 0.1590 0.3182 0.4124
C19 C 0.0350(3) 0.2783(3) 0.63242(14)
H15 H -0.0873 0.2444 0.6299
H16 H 0.0106 0.3708 0.6609
H17 H 0.1079 0.1942 0.6681
C20 C 0.3197(3) 0.3875(3) 0.52988(16)
H18 H 0.3779 0.4090 0.4654
H19 H 0.4093 0.3162 0.5634
H20 H 0.2900 0.4853 0.5532
loop_
_geom_bond_atom_site_label_1
_geom_bond_atom_site_label_2
_geom_bond_site_symmetry_1
_geom_bond_site_symmetry_2
O1 C1 1_555 1_555
O2 C6 1_555 1_555
O3 C10 1_555 1_555
O4 C18 1_555 1_555
N1 H1 1_555 1_555
N2 C17 1_555 1_555
N3 H2 1_555 1_555
H3 N3 1_555 1_555
N4 C18 1_555 1_555
C1 C2 1_555 1_555
C2 C3 1_555 1_555
C3 C4 1_555 1_555
C4 C5 1_555 1_555
C5 O1 1_555 1_555
C6 C2 1_555 1_555
C7 C6 1_555 1_555
H4 C7 1_555 1_555
H5 C7 1_555 1_555
C8 C7 1_555 1_555
H6 C8 1_555 1_555
H7 C8 1_555 1_555
C9 C1 1_555 1_555
H8 C9 1_555 1_555
H9 C9 1_555 1_555
C10 N1 1_555 1_555
C11 N1 1_555 1_555
C12 C11 1_555 1_555
H10 C12 1_555 1_555
C13 C12 1_555 1_555
H11 C13 1_555 1_555
C14 C13 1_555 1_555
H12 C14 1_555 1_555
C15 C14 1_555 1_555
H13 C15 1_555 1_555
C16 C3 1_555 1_555
C17 C4 1_555 1_555
C18 H14 1_555 1_555
C19 N4 1_555 1_555
H15 C19 1_555 1_555
H16 C19 1_555 1_555
H17 C19 1_555 1_555
C20 N4 1_555 1_555
H18 C20 1_555 1_555
H19 C20 1_555 1_555
H20 C20 1_555 1_555
N3 C5 1_555 1_555
C3 C10 1_555 1_555
C8 C9 1_555 1_555
C11 C16 1_555 1_555
C15 C16 1_555 1_555

#END
