
#######################################################################
#
#                 Cambridge Crystallographic Data Centre
#                                CCDC 
#
#######################################################################
#
# If this CIF has been generated from an entry in the Cambridge 
# Structural Database, then it will include bibliographic, chemical, 
# crystal, experimental, refinement or atomic coordinate data resulting 
# from the CCDC's data processing and validation procedures.
#
#######################################################################

data_XIMCIH
_chemical_formula_moiety         'C16 H20 O5'
_chemical_name_systematic        
6,8-Dihydroxy-3-((6-methyltetrahydro-2H-pyran-2-yl)methyl)-3,4-dihydro-1H-isochromen-1-one
_symmetry_cell_setting           orthorhombic
_symmetry_space_group_name_H-M   'P 21 21 21'
_symmetry_Int_Tables_number      19
_space_group_name_Hall           'P 2ac 2ab'
loop_
_symmetry_equiv_pos_site_id
_symmetry_equiv_pos_as_xyz
1 x,y,z
2 1/2-x,-y,1/2+z
3 -x,1/2+y,1/2-z
4 1/2+x,1/2-y,-z
_cell_length_a                   7.646(12)
_cell_length_b                   8.221(13)
_cell_length_c                   24.74(4)
_cell_angle_alpha                90
_cell_angle_beta                 90
_cell_angle_gamma                90
_cell_volume                     1555.1
_exptl_crystal_colour            colorless
_exptl_crystal_description       block
_cell_formula_units_Z            4
loop_
_atom_site_label
_atom_site_type_symbol
_atom_site_fract_x
_atom_site_fract_y
_atom_site_fract_z
C1 C -0.0279(5) 0.1191(6) 0.71464(16)
C2 C 0.0282(5) 0.0961(6) 0.66262(16)
H1 H -0.0519 0.0863 0.6345
C3 C 0.2072(5) 0.0877(4) 0.65247(13)
C4 C 0.3275(5) 0.1016(4) 0.69381(13)
H2 H 0.4466 0.0943 0.6864
C5 C 0.2702(5) 0.1265(4) 0.74654(13)
C6 C 0.0899(4) 0.1374(5) 0.75733(14)
C7 C 0.0277(5) 0.1558(6) 0.81262(15)
C8 C 0.3196(4) 0.2418(4) 0.83821(13)
H3 H 0.3112 0.3544 0.8254
C9 C 0.3943(5) 0.1366(5) 0.79357(13)
H4 H 0.5048 0.1818 0.7815
H5 H 0.4163 0.0281 0.8074
C10 C 0.4253(5) 0.2377(4) 0.89005(12)
H6 H 0.5452 0.2676 0.8819
H7 H 0.4262 0.1273 0.9039
C11 C 0.3556(5) 0.3508(4) 0.93383(11)
H8 H 0.2290 0.3352 0.9372
C12 C 0.3194(5) 0.6373(4) 0.95124(14)
H9 H 0.1928 0.6212 0.9546
C13 C 0.4027(6) 0.6202(5) 1.00659(15)
H10 H 0.5269 0.6429 1.0039
H11 H 0.3516 0.6994 1.0310
C14 C 0.3770(6) 0.4515(5) 1.02949(13)
H12 H 0.2542 0.4341 1.0375
H13 H 0.4426 0.4403 1.0628
C15 C 0.4394(5) 0.3247(4) 0.98849(12)
H14 H 0.5655 0.3315 0.9849
H15 H 0.4106 0.2168 1.0015
C16 C 0.3533(7) 0.8010(4) 0.92473(19)
H16 H 0.4769 0.8159 0.9200
H17 H 0.3079 0.8862 0.9473
H18 H 0.2965 0.8044 0.8901
O1 O 0.2563(4) 0.0617(4) 0.60011(8)
H19 H 0.3614 0.0424 0.5989
O2 O -0.2049(4) 0.1255(7) 0.72392(12)
H20 H -0.2232 0.1257 0.7566
O3 O -0.1278(4) 0.1441(5) 0.82574(11)
O4 O 0.1424(3) 0.1822(3) 0.85271(9)
O5 O 0.3895(3) 0.5153(2) 0.91521(8)
loop_
_geom_bond_atom_site_label_1
_geom_bond_atom_site_label_2
_geom_bond_site_symmetry_1
_geom_bond_site_symmetry_2
C1 C2 1_555 1_555
C2 H1 1_555 1_555
C3 C2 1_555 1_555
C4 C3 1_555 1_555
H2 C4 1_555 1_555
C5 C4 1_555 1_555
C6 C1 1_555 1_555
C7 C6 1_555 1_555
C8 H3 1_555 1_555
C9 C5 1_555 1_555
H4 C9 1_555 1_555
H5 C9 1_555 1_555
C10 C8 1_555 1_555
H6 C10 1_555 1_555
H7 C10 1_555 1_555
C11 C10 1_555 1_555
H8 C11 1_555 1_555
C12 H9 1_555 1_555
C13 C12 1_555 1_555
H10 C13 1_555 1_555
H11 C13 1_555 1_555
C14 C13 1_555 1_555
H12 C14 1_555 1_555
H13 C14 1_555 1_555
C15 C11 1_555 1_555
H14 C15 1_555 1_555
H15 C15 1_555 1_555
C16 C12 1_555 1_555
H16 C16 1_555 1_555
H17 C16 1_555 1_555
H18 C16 1_555 1_555
O1 C3 1_555 1_555
H19 O1 1_555 1_555
O2 C1 1_555 1_555
H20 O2 1_555 1_555
O3 C7 1_555 1_555
O4 C7 1_555 1_555
O5 C11 1_555 1_555
C5 C6 1_555 1_555
C8 C9 1_555 1_555
C8 O4 1_555 1_555
C12 O5 1_555 1_555
C14 C15 1_555 1_555

#END
