
#######################################################################
#
#                 Cambridge Crystallographic Data Centre
#                                CCDC 
#
#######################################################################
#
# If this CIF has been generated from an entry in the Cambridge 
# Structural Database, then it will include bibliographic, chemical, 
# crystal, experimental, refinement or atomic coordinate data resulting 
# from the CCDC's data processing and validation procedures.
#
#######################################################################

data_XIMDAA
_chemical_formula_moiety         'C38 H50 N6 O2'
_chemical_name_systematic        
4,10-Dihexyl-1,7-dipentyl-4,10-dihydrophthalazino[6,7,8,1-lmna]pyridazino[5,4,3-gh][3,8]phenanthroline-5,11-dione
_symmetry_cell_setting           triclinic
_symmetry_space_group_name_H-M   'P -1'
_symmetry_Int_Tables_number      2
_space_group_name_Hall           '-P 1'
loop_
_symmetry_equiv_pos_site_id
_symmetry_equiv_pos_as_xyz
1 x,y,z
2 -x,-y,-z
_cell_length_a                   4.8953(10)
_cell_length_b                   12.709(3)
_cell_length_c                   14.175(3)
_cell_angle_alpha                88.727(4)
_cell_angle_beta                 83.038(4)
_cell_angle_gamma                79.127(4)
_cell_volume                     859.671
_exptl_crystal_colour            yellow
_exptl_crystal_description       prism
_cell_formula_units_Z            1
loop_
_atom_site_label
_atom_site_type_symbol
_atom_site_fract_x
_atom_site_fract_y
_atom_site_fract_z
N1 N 0.0868(3) 0.80268(11) 0.04226(11)
N2 N -0.1172(3) 0.88461(13) 0.18525(11)
N3 N -0.1452(4) 0.96395(13) 0.25136(11)
O1 O 0.2796(3) 0.72205(11) -0.09783(10)
C1 C 0.4187(4) 0.96033(13) 0.00762(12)
C2 C 0.4415(4) 0.87813(14) -0.06079(12)
C3 C 0.2668(4) 0.79445(15) -0.04197(14)
C4 C 0.0644(4) 0.88449(14) 0.10898(13)
C5 C 0.2332(4) 0.96336(14) 0.09141(12)
C6 C 0.2058(4) 1.04428(14) 0.15917(12)
C7 C 0.3748(4) 1.12445(14) 0.14194(13)
H1 H 0.3596 1.1800 0.1871
C8 C 0.0070(4) 1.03951(15) 0.24060(13)
C9 C -0.0718(4) 0.71532(14) 0.06442(14)
H2 H -0.1104 0.6856 0.0045
H3 H -0.2536 0.7444 0.1018
C10 C 0.0899(5) 0.62685(16) 0.12022(16)
H4 H 0.1411 0.6580 0.1775
H5 H 0.2655 0.5946 0.0808
C11 C -0.0766(5) 0.53971(16) 0.15034(17)
H6 H -0.2514 0.5724 0.1899
H7 H -0.1298 0.5097 0.0929
C12 C 0.0786(6) 0.44946(19) 0.20537(19)
H8 H 0.2627 0.4219 0.1688
H9 H -0.0285 0.3904 0.2117
C13 C 0.1252(10) 0.4815(3) 0.3034(2)
H10 H 0.2361 0.5394 0.2962
H11 H -0.0594 0.5119 0.3384
C14 C 0.2654(10) 0.3979(3) 0.3614(2)
H12 H 0.2828 0.4277 0.4231
H13 H 0.4523 0.3687 0.3292
H14 H 0.1559 0.3406 0.3710
C15 C -0.0400(5) 1.12242(17) 0.31815(14)
H15 H 0.1449 1.1289 0.3366
H16 H -0.1214 1.1923 0.2914
C16 C -0.2252(5) 1.10288(19) 0.40656(15)
H17 H -0.1558 1.0303 0.4308
H18 H -0.4170 1.1047 0.3902
C17 C -0.2381(5) 1.18331(18) 0.48423(15)
H19 H -0.0450 1.1822 0.4990
H20 H -0.3088 1.2555 0.4596
C18 C -0.4153(6) 1.1669(2) 0.57415(17)
H21 H -0.3486 1.0938 0.5978
H22 H -0.6099 1.1705 0.5598
C19 C -0.4195(8) 1.2451(3) 0.65194(19)
H23 H -0.5368 1.2266 0.7086
H24 H -0.4961 1.3176 0.6310
H25 H -0.2283 1.2425 0.6671
N1A N 0.9132(3) 1.19732(11) -0.04226(11)
N2A N 1.1172(3) 1.11539(13) -0.18525(11)
N3A N 1.1452(4) 1.03605(13) -0.25136(11)
O1A O 0.7204(3) 1.27795(11) 0.09783(10)
C1A C 0.5813(4) 1.03967(13) -0.00762(12)
C2A C 0.5585(4) 1.12187(14) 0.06079(12)
C3A C 0.7332(4) 1.20555(15) 0.04197(14)
C4A C 0.9356(4) 1.11551(14) -0.10898(13)
C5A C 0.7668(4) 1.03664(14) -0.09141(12)
C6A C 0.7942(4) 0.95572(14) -0.15917(12)
C7A C 0.6252(4) 0.87555(14) -0.14194(13)
H1A H 0.6404 0.8200 -0.1871
C8A C 0.9930(4) 0.96049(15) -0.24060(13)
C9A C 1.0718(4) 1.28468(14) -0.06442(14)
H2A H 1.1104 1.3144 -0.0045
H3A H 1.2536 1.2556 -0.1018
C10A C 0.9101(5) 1.37315(16) -0.12022(16)
H4A H 0.8589 1.3420 -0.1775
H5A H 0.7345 1.4054 -0.0808
C11A C 1.0766(5) 1.46029(16) -0.15034(17)
H6A H 1.2514 1.4276 -0.1899
H7A H 1.1298 1.4903 -0.0929
C12A C 0.9214(6) 1.55054(19) -0.20537(19)
H8A H 0.7373 1.5781 -0.1688
H9A H 1.0285 1.6096 -0.2117
C13A C 0.8748(10) 1.5185(3) -0.3034(2)
H10A H 0.7639 1.4606 -0.2962
H11A H 1.0594 1.4881 -0.3384
C14A C 0.7346(10) 1.6021(3) -0.3614(2)
H12A H 0.7172 1.5723 -0.4231
H13A H 0.5477 1.6313 -0.3292
H14A H 0.8441 1.6594 -0.3710
C15A C 1.0400(5) 0.87758(17) -0.31815(14)
H15A H 0.8551 0.8711 -0.3366
H16A H 1.1214 0.8077 -0.2914
C16A C 1.2252(5) 0.89712(19) -0.40656(15)
H17A H 1.1558 0.9697 -0.4308
H18A H 1.4170 0.8953 -0.3902
C17A C 1.2381(5) 0.81669(18) -0.48423(15)
H19A H 1.0450 0.8178 -0.4990
H20A H 1.3088 0.7445 -0.4596
C18A C 1.4153(6) 0.8331(2) -0.57415(17)
H21A H 1.3486 0.9062 -0.5978
H22A H 1.6099 0.8295 -0.5598
C19A C 1.4195(8) 0.7549(3) -0.65194(19)
H23A H 1.5368 0.7734 -0.7086
H24A H 1.4961 0.6824 -0.6310
H25A H 1.2283 0.7575 -0.6671
C20? C 0.177(7) 0.477(2) 0.275(2)
H26? H 0.2165 0.5496 0.2609
H27? H 0.3614 0.4290 0.2766
C21? C 0.039(6) 0.4806(19) 0.3698(19)
H28? H -0.0393 0.5553 0.3877
H29? H 0.1735 0.4496 0.4134
H30? H -0.1125 0.4396 0.3734
loop_
_geom_bond_atom_site_label_1
_geom_bond_atom_site_label_2
_geom_bond_site_symmetry_1
_geom_bond_site_symmetry_2
N1 C3 1_555 1_555
N2 N3 1_555 1_555
N3 C8 1_555 1_555
O1 C3 1_555 1_555
C1 C2 1_555 1_555
C2 C3 1_555 1_555
C4 N1 1_555 1_555
C5 C1 1_555 1_555
C6 C5 1_555 1_555
C7 C6 1_555 1_555
H1 C7 1_555 1_555
C8 C6 1_555 1_555
C9 N1 1_555 1_555
H2 C9 1_555 1_555
H3 C9 1_555 1_555
C10 C9 1_555 1_555
H4 C10 1_555 1_555
H5 C10 1_555 1_555
C11 C10 1_555 1_555
H6 C11 1_555 1_555
H7 C11 1_555 1_555
C12 C11 1_555 1_555
H8 C12 1_555 1_555
H9 C12 1_555 1_555
C13 C12 1_555 1_555
H10 C13 1_555 1_555
H11 C13 1_555 1_555
C14 C13 1_555 1_555
H12 C14 1_555 1_555
H13 C14 1_555 1_555
H14 C14 1_555 1_555
C15 C8 1_555 1_555
H15 C15 1_555 1_555
H16 C15 1_555 1_555
C16 C15 1_555 1_555
H17 C16 1_555 1_555
H18 C16 1_555 1_555
C17 C16 1_555 1_555
H19 C17 1_555 1_555
H20 C17 1_555 1_555
C18 C17 1_555 1_555
H21 C18 1_555 1_555
H22 C18 1_555 1_555
C19 C18 1_555 1_555
H23 C19 1_555 1_555
H24 C19 1_555 1_555
H25 C19 1_555 1_555
N1A C3A 1_555 1_555
N2A N3A 1_555 1_555
N3A C8A 1_555 1_555
O1A C3A 1_555 1_555
C1A C1 1_555 1_555
C2A C7 1_555 1_555
C3A C2A 1_555 1_555
C4A N1A 1_555 1_555
C5A C1A 1_555 1_555
C6A C5A 1_555 1_555
C7A C2 1_555 1_555
H1A C7A 1_555 1_555
C8A C6A 1_555 1_555
C9A N1A 1_555 1_555
H2A C9A 1_555 1_555
H3A C9A 1_555 1_555
C10A C9A 1_555 1_555
H4A C10A 1_555 1_555
H5A C10A 1_555 1_555
C11A C10A 1_555 1_555
H6A C11A 1_555 1_555
H7A C11A 1_555 1_555
C12A C11A 1_555 1_555
H8A C12A 1_555 1_555
H9A C12A 1_555 1_555
C13A C12A 1_555 1_555
H10A C13A 1_555 1_555
H11A C13A 1_555 1_555
C14A C13A 1_555 1_555
H12A C14A 1_555 1_555
H13A C14A 1_555 1_555
H14A C14A 1_555 1_555
C15A C8A 1_555 1_555
H15A C15A 1_555 1_555
H16A C15A 1_555 1_555
C16A C15A 1_555 1_555
H17A C16A 1_555 1_555
H18A C16A 1_555 1_555
C17A C16A 1_555 1_555
H19A C17A 1_555 1_555
H20A C17A 1_555 1_555
C18A C17A 1_555 1_555
H21A C18A 1_555 1_555
H22A C18A 1_555 1_555
C19A C18A 1_555 1_555
H23A C19A 1_555 1_555
H24A C19A 1_555 1_555
H25A C19A 1_555 1_555
N2 C4 1_555 1_555
C4 C5 1_555 1_555
N2A C4A 1_555 1_555
C1A C2A 1_555 1_555
C4A C5A 1_555 1_555
C6A C7A 1_555 1_555

#END
