
#######################################################################
#
#                 Cambridge Crystallographic Data Centre
#                                CCDC 
#
#######################################################################
#
# If this CIF has been generated from an entry in the Cambridge 
# Structural Database, then it will include bibliographic, chemical, 
# crystal, experimental, refinement or atomic coordinate data resulting 
# from the CCDC's data processing and validation procedures.
#
#######################################################################

data_XIMDIG
_chemical_formula_moiety         'C21 H27 N1 O2'
_chemical_name_systematic        
(all-cis)-1-Benzhydryl-2-(methoxymethyl)-4-(n-propyl)azetidin-3-ol
_symmetry_cell_setting           monoclinic
_symmetry_space_group_name_H-M   'P 21/n'
_symmetry_Int_Tables_number      14
_space_group_name_Hall           '-P 2yn'
loop_
_symmetry_equiv_pos_site_id
_symmetry_equiv_pos_as_xyz
1 x,y,z
2 1/2+x,1/2-y,1/2+z
3 -x,-y,-z
4 1/2-x,1/2+y,1/2-z
_cell_length_a                   11.834(4)
_cell_length_b                   7.785(3)
_cell_length_c                   20.433(6)
_cell_angle_alpha                90
_cell_angle_beta                 93.76(3)
_cell_angle_gamma                90
_cell_volume                     1878.39
_exptl_crystal_colour            colorless
_exptl_crystal_description       prism
_cell_formula_units_Z            4
_exptl_crystal_recrystallization_method dichloromethane/hexane
loop_
_atom_site_label
_atom_site_type_symbol
_atom_site_fract_x
_atom_site_fract_y
_atom_site_fract_z
N1 N 0.92641(16) 0.6670(2) 0.22013(10)
C1 C 0.9336(2) 0.8014(3) 0.27275(12)
H1 H 1.0081 0.8566 0.2747
C2 C 0.8467(2) 0.9117(3) 0.23141(13)
H2 H 0.8684 1.0326 0.2274
C3 C 0.8764(2) 0.7983(3) 0.17287(12)
H3 H 0.9361 0.8525 0.1490
C4 C 1.0382(2) 0.5974(3) 0.20314(13)
H4 H 1.0834 0.6957 0.1902
C5 C 1.0285(2) 0.4762(3) 0.14478(12)
C6 C 0.9461(2) 0.3514(3) 0.13544(15)
H5 H 0.8909 0.3410 0.1655
C7 C 0.9442(3) 0.2418(4) 0.08234(15)
H6 H 0.8877 0.1591 0.0767
C8 C 1.0261(3) 0.2549(5) 0.03780(15)
H7 H 1.0247 0.1815 0.0018
C9 C 1.1090(3) 0.3754(5) 0.04641(17)
H8 H 1.1648 0.3837 0.0166
C10 C 1.1104(3) 0.4860(4) 0.09975(15)
H9 H 1.1673 0.5680 0.1052
C11 C 1.1000(2) 0.5200(3) 0.26273(13)
C12 C 1.0623(2) 0.3743(4) 0.29299(15)
H10 H 0.9983 0.3173 0.2753
C13 C 1.1191(4) 0.3124(5) 0.34958(18)
H11 H 1.0923 0.2149 0.3699
C14 C 1.2146(4) 0.3937(6) 0.37595(19)
H12 H 1.2519 0.3530 0.4143
C15 C 1.2543(3) 0.5363(6) 0.3448(2)
H13 H 1.3195 0.5915 0.3618
C16 C 1.1983(3) 0.5965(5) 0.28905(18)
H14 H 1.2270 0.6916 0.2681
C17 C 0.9057(2) 0.7430(3) 0.34042(12)
H15 H 0.8265 0.7105 0.3397
H16 H 0.9509 0.6428 0.3529
C18 C 0.9282(3) 0.8795(4) 0.38894(14)
H17 H 0.8914 0.9842 0.3730
H18 H 1.0091 0.9011 0.3934
C19 C 0.8879(3) 0.8372(5) 0.45485(16)
H19 H 0.8078 0.8166 0.4509
H20 H 0.9040 0.9316 0.4842
H21 H 0.9262 0.7362 0.4717
O1 O 0.73463(15) 0.8867(2) 0.24843(10)
H22 H 0.7060 0.9798 0.2562
C20 C 0.7818(2) 0.7392(3) 0.12603(13)
H23 H 0.8045 0.6375 0.1028
H24 H 0.7158 0.7111 0.1497
O2 O 0.7555(2) 0.8765(3) 0.08030(11)
C21 C 0.6517(3) 0.8424(5) 0.04018(19)
H25 H 0.6589 0.7357 0.0173
H26 H 0.6385 0.9338 0.0091
H27 H 0.5893 0.8353 0.0678
loop_
_geom_bond_atom_site_label_1
_geom_bond_atom_site_label_2
_geom_bond_site_symmetry_1
_geom_bond_site_symmetry_2
N1 C1 1_555 1_555
C1 H1 1_555 1_555
C2 C1 1_555 1_555
H2 C2 1_555 1_555
C3 N1 1_555 1_555
H3 C3 1_555 1_555
C4 N1 1_555 1_555
H4 C4 1_555 1_555
C5 C4 1_555 1_555
C6 C5 1_555 1_555
H5 C6 1_555 1_555
C7 C6 1_555 1_555
H6 C7 1_555 1_555
C8 C7 1_555 1_555
H7 C8 1_555 1_555
C9 C8 1_555 1_555
H8 C9 1_555 1_555
C10 C5 1_555 1_555
H9 C10 1_555 1_555
C11 C4 1_555 1_555
C12 C11 1_555 1_555
H10 C12 1_555 1_555
C13 C12 1_555 1_555
H11 C13 1_555 1_555
C14 C13 1_555 1_555
H12 C14 1_555 1_555
C15 C14 1_555 1_555
H13 C15 1_555 1_555
C16 C11 1_555 1_555
H14 C16 1_555 1_555
C17 C1 1_555 1_555
H15 C17 1_555 1_555
H16 C17 1_555 1_555
C18 C17 1_555 1_555
H17 C18 1_555 1_555
H18 C18 1_555 1_555
C19 C18 1_555 1_555
H19 C19 1_555 1_555
H20 C19 1_555 1_555
H21 C19 1_555 1_555
O1 C2 1_555 1_555
H22 O1 1_555 1_555
C20 C3 1_555 1_555
H23 C20 1_555 1_555
H24 C20 1_555 1_555
O2 C20 1_555 1_555
C21 O2 1_555 1_555
H25 C21 1_555 1_555
H26 C21 1_555 1_555
H27 C21 1_555 1_555
C2 C3 1_555 1_555
C9 C10 1_555 1_555
C15 C16 1_555 1_555

#END
