
#######################################################################
#
#                 Cambridge Crystallographic Data Centre
#                                CCDC 
#
#######################################################################
#
# If this CIF has been generated from an entry in the Cambridge 
# Structural Database, then it will include bibliographic, chemical, 
# crystal, experimental, refinement or atomic coordinate data resulting 
# from the CCDC's data processing and validation procedures.
#
#######################################################################

data_XIMFII
_chemical_formula_moiety         'C46 H50 N2 O6 P2,C18 H14 O8'
_chemical_name_systematic        
"(-)-2,2',6,6'-Tetramethoxy-4,4'-bis(bis(3,5-dimethylphenyl)phosphine oxide)-3,3'-bipyridine (+)-dibenzoyl-D-tartaric acid"
_symmetry_cell_setting           orthorhombic
_symmetry_space_group_name_H-M   'P 21 21 21'
_symmetry_Int_Tables_number      19
_space_group_name_Hall           'P 2ac 2ab'
loop_
_symmetry_equiv_pos_site_id
_symmetry_equiv_pos_as_xyz
1 x,y,z
2 1/2-x,-y,1/2+z
3 -x,1/2+y,1/2-z
4 1/2+x,1/2-y,-z
_cell_length_a                   14.097(2)
_cell_length_b                   18.698(3)
_cell_length_c                   23.371(3)
_cell_angle_alpha                90
_cell_angle_beta                 90
_cell_angle_gamma                90
_cell_volume                     6160.26
_exptl_crystal_colour            colorless
_exptl_crystal_description       plate
_cell_formula_units_Z            4
loop_
_atom_site_label
_atom_site_type_symbol
_atom_site_fract_x
_atom_site_fract_y
_atom_site_fract_z
P1 P 0.54734(6) 0.62010(5) 0.41075(4)
P2 P 0.71483(6) 0.43804(5) 0.31966(4)
O1 O 0.48576(13) 0.57214(11) 0.37525(8)
O2 O 0.78795(15) 0.47468(12) 0.35569(9)
O3 O 0.83233(18) 0.61334(13) 0.54225(11)
O4 O 0.73955(17) 0.39600(12) 0.47085(10)
O5 O 0.47565(17) 0.45506(14) 0.48656(10)
O6 O 0.40619(16) 0.30172(13) 0.33936(10)
N1 N 0.7871(2) 0.50449(15) 0.50619(11)
N2 N 0.44101(19) 0.37869(14) 0.41330(11)
C1 C 0.6386(2) 0.56989(17) 0.44816(12)
C2 C 0.7014(2) 0.61059(18) 0.48129(14)
H1 H 0.6955 0.6735 0.4877
C3 C 0.7725(3) 0.57424(19) 0.50965(15)
C4 C 0.7270(2) 0.46667(19) 0.47458(14)
C5 C 0.6494(2) 0.49647(17) 0.44450(13)
C6 C 0.5866(2) 0.44613(17) 0.41210(13)
C7 C 0.5000(2) 0.42575(19) 0.43568(15)
C8 C 0.4637(2) 0.35081(17) 0.36411(15)
C9 C 0.5485(2) 0.36628(17) 0.33548(13)
H2 H 0.5472 0.3443 0.2943
C10 C 0.6084(2) 0.41619(16) 0.35996(13)
C11 C 0.9094(3) 0.5753(3) 0.57042(19)
H3 H 0.9538 0.6044 0.5875
H4 H 0.9400 0.5477 0.5411
H5 H 0.8851 0.5425 0.5985
C12 C 0.8279(3) 0.3676(2) 0.49259(18)
H6 H 0.8319 0.3215 0.4844
H7 H 0.8775 0.3938 0.4684
H8 H 0.8364 0.3764 0.5327
C13 C 0.3823(3) 0.4361(3) 0.50811(17)
H9 H 0.3345 0.4197 0.4750
H10 H 0.3560 0.4770 0.5271
H11 H 0.3870 0.3983 0.5357
C14 C 0.3155(2) 0.2912(2) 0.36665(17)
H12 H 0.2775 0.3367 0.3631
H13 H 0.2826 0.2662 0.3338
H14 H 0.3150 0.2676 0.4031
C15 C 0.4819(2) 0.66672(17) 0.46492(13)
C16 C 0.3949(2) 0.63758(19) 0.48182(14)
H15 H 0.3590 0.5925 0.4578
C17 C 0.3423(3) 0.6681(2) 0.52598(16)
C18 C 0.3779(3) 0.7312(2) 0.55013(16)
H16 H 0.3415 0.7538 0.5780
C19 C 0.4633(3) 0.76192(19) 0.53532(15)
C20 C 0.5132(3) 0.72991(18) 0.49122(15)
H17 H 0.5692 0.7509 0.4786
C21 C 0.2522(3) 0.6352(3) 0.5459(2)
H18 H 0.2402 0.5923 0.5245
H19 H 0.2009 0.6682 0.5403
H20 H 0.2573 0.6237 0.5859
C22 C 0.4985(3) 0.8287(2) 0.56472(18)
H21 H 0.4998 0.8246 0.6072
H22 H 0.4593 0.8686 0.5543
H23 H 0.5616 0.8384 0.5513
C23 C 0.6097(2) 0.68432(18) 0.36829(13)
C24 C 0.5710(2) 0.75132(18) 0.35604(13)
H24 H 0.5132 0.7639 0.3723
C25 C 0.6159(3) 0.79903(19) 0.32069(14)
C26 C 0.7040(3) 0.78011(19) 0.29671(14)
H25 H 0.7360 0.8128 0.2737
C27 C 0.7435(2) 0.71405(19) 0.30683(14)
C28 C 0.6975(2) 0.66643(18) 0.34332(14)
H26 H 0.7239 0.6147 0.3598
C29 C 0.5750(3) 0.87217(19) 0.31022(16)
H27 H 0.4977 0.8758 0.3154
H28 H 0.5913 0.8867 0.2721
H29 H 0.6045 0.9052 0.3362
C30 C 0.8376(3) 0.6938(2) 0.28014(17)
H30 H 0.8499 0.6997 0.2398
H31 H 0.8490 0.6444 0.2889
H32 H 0.8852 0.7208 0.3000
C31 C 0.7560(2) 0.35424(18) 0.29212(16)
C32 C 0.8164(3) 0.3144(2) 0.32552(17)
H33 H 0.8382 0.3363 0.3724
C33 C 0.8423(4) 0.2471(2) 0.3093(2)
C34 C 0.8078(3) 0.2200(2) 0.2586(2)
H34 H 0.8256 0.1742 0.2476
C35 C 0.7480(3) 0.2582(2) 0.22361(19)
C36 C 0.7237(3) 0.32771(19) 0.24022(16)
H35 H 0.6862 0.3560 0.2166
C37 C 0.9096(4) 0.2030(3) 0.3456(2)
H36 H 0.9399 0.1641 0.3296
H37 H 0.8743 0.1862 0.3781
H38 H 0.9575 0.2348 0.3599
C38 C 0.7128(4) 0.2296(3) 0.1660(2)
H39 H 0.7557 0.1874 0.1541
H40 H 0.7162 0.2669 0.1378
H41 H 0.6481 0.2139 0.1687
C39 C 0.6796(2) 0.49215(17) 0.26105(14)
C40 C 0.7481(3) 0.51341(18) 0.22224(15)
H42 H 0.8089 0.4944 0.2249
C41 C 0.7277(3) 0.5629(2) 0.17916(16)
C42 C 0.6391(3) 0.5887(2) 0.17538(17)
H43 H 0.6253 0.6207 0.1460
C43 C 0.5672(3) 0.5703(2) 0.21270(16)
C44 C 0.5893(3) 0.52061(19) 0.25516(14)
H44 H 0.5419 0.5061 0.2803
C45 C 0.8080(3) 0.5852(3) 0.13702(17)
H45 H 0.7910 0.6383 0.1269
H46 H 0.8081 0.5556 0.1034
H47 H 0.8689 0.5821 0.1553
C46 C 0.4699(3) 0.6027(3) 0.2087(2)
H48 H 0.4462 0.6386 0.1770
H49 H 0.4592 0.6262 0.2447
H50 H 0.4272 0.5628 0.2076
O7 O 0.31217(15) 0.54756(13) 0.36458(10)
O8 O 0.33233(17) 0.46012(14) 0.30079(11)
O9 O -0.01089(17) 0.56080(15) 0.31926(12)
O10 O -0.04018(16) 0.47176(14) 0.37911(11)
O11 O 0.1685(2) 0.53503(16) 0.20418(11)
O12 O 0.14102(16) 0.45931(12) 0.27687(9)
O13 O 0.1118(2) 0.50588(14) 0.48095(11)
O14 O 0.13634(14) 0.44615(11) 0.40011(9)
C47 C 0.2830(3) 0.50162(19) 0.32552(16)
C48 C 0.1773(2) 0.51144(17) 0.31522(15)
H51 H 0.1692 0.5705 0.2968
C49 C 0.1196(2) 0.51141(17) 0.36908(14)
H52 H 0.1274 0.5613 0.3988
C50 C 0.0135(3) 0.5158(2) 0.35352(16)
C51 C 0.1306(3) 0.4813(2) 0.22219(17)
C52 C 0.0646(3) 0.4375(2) 0.19008(14)
C53 C 0.0379(3) 0.4625(3) 0.13749(16)
H53 H 0.0646 0.5042 0.1231
C54 C -0.0284(4) 0.4256(3) 0.1058(2)
H54 H -0.0481 0.4436 0.0707
C55 C -0.0649(3) 0.3641(3) 0.1253(2)
H55 H -0.1082 0.3389 0.1031
C56 C -0.0384(3) 0.3375(3) 0.1789(2)
H56 H -0.0644 0.2951 0.1926
C57 C 0.0269(3) 0.3749(2) 0.21126(16)
H57 H 0.0492 0.3488 0.2505
C58 C 0.1240(2) 0.4497(2) 0.45725(17)
C59 C 0.1259(3) 0.3793(2) 0.48478(17)
C60 C 0.1112(3) 0.3172(2) 0.4565(2)
H58 H 0.0999 0.3183 0.4173
C61 C 0.1124(4) 0.2525(3) 0.4844(3)
H59 H 0.1016 0.2101 0.4645
C62 C 0.1301(4) 0.2515(3) 0.5431(3)
H60 H 0.1333 0.2080 0.5622
C63 C 0.1426(4) 0.3121(3) 0.5724(2)
H61 H 0.1521 0.3104 0.6117
C64 C 0.1415(4) 0.3789(3) 0.54401(19)
H62 H 0.1509 0.4212 0.5640
loop_
_geom_bond_atom_site_label_1
_geom_bond_atom_site_label_2
_geom_bond_site_symmetry_1
_geom_bond_site_symmetry_2
P1 O1 1_555 1_555
P2 O2 1_555 1_555
O3 C3 1_555 1_555
O4 C4 1_555 1_555
O5 C7 1_555 1_555
O6 C8 1_555 1_555
N1 C3 1_555 1_555
N2 C7 1_555 1_555
C1 P1 1_555 1_555
C2 C1 1_555 1_555
H1 C2 1_555 1_555
C3 C2 1_555 1_555
C4 N1 1_555 1_555
C5 C1 1_555 1_555
C6 C5 1_555 1_555
C7 C6 1_555 1_555
C8 N2 1_555 1_555
C9 C8 1_555 1_555
H2 C9 1_555 1_555
C10 P2 1_555 1_555
C11 O3 1_555 1_555
H3 C11 1_555 1_555
H4 C11 1_555 1_555
H5 C11 1_555 1_555
C12 O4 1_555 1_555
H6 C12 1_555 1_555
H7 C12 1_555 1_555
H8 C12 1_555 1_555
C13 O5 1_555 1_555
H9 C13 1_555 1_555
H10 C13 1_555 1_555
H11 C13 1_555 1_555
C14 O6 1_555 1_555
H12 C14 1_555 1_555
H13 C14 1_555 1_555
H14 C14 1_555 1_555
C15 P1 1_555 1_555
C16 C15 1_555 1_555
H15 C16 1_555 1_555
C17 C16 1_555 1_555
C18 C17 1_555 1_555
H16 C18 1_555 1_555
C19 C18 1_555 1_555
C20 C15 1_555 1_555
H17 C20 1_555 1_555
C21 C17 1_555 1_555
H18 C21 1_555 1_555
H19 C21 1_555 1_555
H20 C21 1_555 1_555
C22 C19 1_555 1_555
H21 C22 1_555 1_555
H22 C22 1_555 1_555
H23 C22 1_555 1_555
C23 P1 1_555 1_555
C24 C23 1_555 1_555
H24 C24 1_555 1_555
C25 C24 1_555 1_555
C26 C25 1_555 1_555
H25 C26 1_555 1_555
C27 C26 1_555 1_555
C28 C23 1_555 1_555
H26 C28 1_555 1_555
C29 C25 1_555 1_555
H27 C29 1_555 1_555
H28 C29 1_555 1_555
H29 C29 1_555 1_555
C30 C27 1_555 1_555
H30 C30 1_555 1_555
H31 C30 1_555 1_555
H32 C30 1_555 1_555
C31 P2 1_555 1_555
C32 C31 1_555 1_555
H33 C32 1_555 1_555
C33 C32 1_555 1_555
C34 C33 1_555 1_555
H34 C34 1_555 1_555
C35 C34 1_555 1_555
C36 C31 1_555 1_555
H35 C36 1_555 1_555
C37 C33 1_555 1_555
H36 C37 1_555 1_555
H37 C37 1_555 1_555
H38 C37 1_555 1_555
C38 C35 1_555 1_555
H39 C38 1_555 1_555
H40 C38 1_555 1_555
H41 C38 1_555 1_555
C39 P2 1_555 1_555
C40 C39 1_555 1_555
H42 C40 1_555 1_555
C41 C40 1_555 1_555
C42 C41 1_555 1_555
H43 C42 1_555 1_555
C43 C42 1_555 1_555
C44 C39 1_555 1_555
H44 C44 1_555 1_555
C45 C41 1_555 1_555
H45 C45 1_555 1_555
H46 C45 1_555 1_555
H47 C45 1_555 1_555
C46 C43 1_555 1_555
H48 C46 1_555 1_555
H49 C46 1_555 1_555
H50 C46 1_555 1_555
O7 C47 1_555 1_555
O8 C47 1_555 1_555
O9 C50 1_555 1_555
O10 C50 1_555 1_555
O11 C51 1_555 1_555
O12 C48 1_555 1_555
O13 C58 1_555 1_555
O14 C49 1_555 1_555
C47 C48 1_555 1_555
C48 H51 1_555 1_555
C49 C48 1_555 1_555
H52 C49 1_555 1_555
C50 C49 1_555 1_555
C51 O12 1_555 1_555
C52 C51 1_555 1_555
C53 C52 1_555 1_555
H53 C53 1_555 1_555
C54 C53 1_555 1_555
H54 C54 1_555 1_555
C55 C54 1_555 1_555
H55 C55 1_555 1_555
C56 C55 1_555 1_555
H56 C56 1_555 1_555
C57 C52 1_555 1_555
H57 C57 1_555 1_555
C58 O14 1_555 1_555
C59 C58 1_555 1_555
C60 C59 1_555 1_555
H58 C60 1_555 1_555
C61 C60 1_555 1_555
H59 C61 1_555 1_555
C62 C61 1_555 1_555
H60 C62 1_555 1_555
C63 C62 1_555 1_555
H61 C63 1_555 1_555
C64 C59 1_555 1_555
H62 C64 1_555 1_555
C4 C5 1_555 1_555
C6 C10 1_555 1_555
C9 C10 1_555 1_555
C19 C20 1_555 1_555
C27 C28 1_555 1_555
C35 C36 1_555 1_555
C43 C44 1_555 1_555
C56 C57 1_555 1_555
C63 C64 1_555 1_555

#END
