
#######################################################################
#
#                 Cambridge Crystallographic Data Centre
#                                CCDC 
#
#######################################################################
#
# If this CIF has been generated from an entry in the Cambridge 
# Structural Database, then it will include bibliographic, chemical, 
# crystal, experimental, refinement or atomic coordinate data resulting 
# from the CCDC's data processing and validation procedures.
#
#######################################################################

data_XIMHIM
_chemical_formula_moiety         'C24 H40 O6'
_chemical_name_systematic        
"Diisopropyl 2,2'-ethene-1,2-diylbis(1-hydroxy-5,5-dimethylcyclopentanecarboxylate)"
_symmetry_cell_setting           triclinic
_symmetry_space_group_name_H-M   'P -1'
_symmetry_Int_Tables_number      2
_space_group_name_Hall           '-P 1'
loop_
_symmetry_equiv_pos_site_id
_symmetry_equiv_pos_as_xyz
1 x,y,z
2 -x,-y,-z
_cell_length_a                   7.2223(6)
_cell_length_b                   8.8729(7)
_cell_length_c                   10.2165(8)
_cell_angle_alpha                97.124(7)
_cell_angle_beta                 97.815(7)
_cell_angle_gamma                106.878(8)
_cell_volume                     611.382
_exptl_crystal_colour            colorless
_exptl_crystal_description       block
_cell_formula_units_Z            1
loop_
_atom_site_label
_atom_site_type_symbol
_atom_site_fract_x
_atom_site_fract_y
_atom_site_fract_z
C1 C 0.2847(2) 0.93230(18) 0.36090(15)
H1 H 0.1596 0.9059 0.2986
H2 H 0.3317 1.0473 0.3962
H3 H 0.2653 0.8728 0.4352
C2 C 0.4333(2) 0.88800(15) 0.28879(12)
H4 H 0.5604 0.9122 0.3525
C3 C 0.4676(2) 0.97122(18) 0.17063(14)
H5 H 0.5654 0.9377 0.1270
H6 H 0.5160 1.0872 0.2013
H7 H 0.3439 0.9430 0.1066
C4 C 0.38635(17) 0.61496(15) 0.31092(11)
C5 C 0.30005(16) 0.44192(14) 0.24161(11)
C6 C 0.27844(16) 0.41701(14) 0.08823(11)
H8 H 0.2107 0.4919 0.0545
C7 C 0.46686(17) 0.44461(15) 0.03596(11)
H9 H 0.5444 0.3775 0.0560
C8 C 0.13565(18) 0.24562(16) 0.04526(12)
H10 H 0.0520 0.2347 -0.0428
H11 H 0.2094 0.1677 0.0380
C9 C 0.0107(2) 0.21681(18) 0.15286(14)
H12 H 0.0220 0.1216 0.1906
H13 H -0.1291 0.1975 0.1141
C10 C 0.08417(17) 0.36615(15) 0.26416(12)
C11 C -0.03848(19) 0.47762(19) 0.24327(14)
H14 H -0.1749 0.4232 0.2501
H15 H -0.0343 0.5073 0.1542
H16 H 0.0149 0.5741 0.3120
C12 C 0.0772(2) 0.32308(18) 0.40323(13)
H17 H 0.1386 0.4198 0.4710
H18 H 0.1487 0.2460 0.4160
H19 H -0.0600 0.2758 0.4123
O1 O 0.42341(12) 0.35550(10) 0.29007(8)
H20 H 0.4471 0.3749 0.3743
O2 O 0.46954(13) 0.65376(11) 0.42670(8)
O3 O 0.35950(12) 0.71737(10) 0.23233(8)
C1A C 0.7153(2) 0.06770(18) -0.36090(15)
H1A H 0.8404 0.0941 -0.2986
H2A H 0.6683 -0.0473 -0.3962
H3A H 0.7347 0.1272 -0.4352
C2A C 0.5667(2) 0.11200(15) -0.28879(12)
H4A H 0.4396 0.0878 -0.3525
C3A C 0.5324(2) 0.02878(18) -0.17063(14)
H5A H 0.4346 0.0623 -0.1270
H6A H 0.4840 -0.0872 -0.2013
H7A H 0.6561 0.0570 -0.1066
C4A C 0.61365(17) 0.38504(15) -0.31092(11)
C5A C 0.69995(16) 0.55808(14) -0.24161(11)
C6A C 0.72156(16) 0.58299(14) -0.08823(11)
H8A H 0.7893 0.5081 -0.0545
C7A C 0.53314(17) 0.55539(15) -0.03596(11)
H9A H 0.4556 0.6225 -0.0560
C8A C 0.86435(18) 0.75438(16) -0.04526(12)
H10A H 0.9480 0.7653 0.0428
H11A H 0.7906 0.8323 -0.0380
C9A C 0.9893(2) 0.78319(18) -0.15286(14)
H12A H 0.9780 0.8784 -0.1906
H13A H 1.1291 0.8025 -0.1141
C10A C 0.91583(17) 0.63385(15) -0.26416(12)
C11A C 1.03848(19) 0.52238(19) -0.24327(14)
H14A H 1.1749 0.5768 -0.2501
H15A H 1.0343 0.4927 -0.1542
H16A H 0.9851 0.4259 -0.3120
C12A C 0.9228(2) 0.67692(18) -0.40323(13)
H17A H 0.8614 0.5802 -0.4710
H18A H 0.8513 0.7540 -0.4160
H19A H 1.0600 0.7242 -0.4123
O1A O 0.57659(12) 0.64450(10) -0.29007(8)
H20A H 0.5529 0.6251 -0.3743
O2A O 0.53046(13) 0.34624(11) -0.42670(8)
O3A O 0.64050(12) 0.28263(10) -0.23233(8)
loop_
_geom_bond_atom_site_label_1
_geom_bond_atom_site_label_2
_geom_bond_site_symmetry_1
_geom_bond_site_symmetry_2
C1 H1 1_555 1_555
H2 C1 1_555 1_555
H3 C1 1_555 1_555
C2 C1 1_555 1_555
H4 C2 1_555 1_555
C3 C2 1_555 1_555
H5 C3 1_555 1_555
H6 C3 1_555 1_555
H7 C3 1_555 1_555
C4 C5 1_555 1_555
C5 C6 1_555 1_555
C6 H8 1_555 1_555
C7 C6 1_555 1_555
H9 C7 1_555 1_555
C8 C6 1_555 1_555
H10 C8 1_555 1_555
H11 C8 1_555 1_555
C9 C8 1_555 1_555
H12 C9 1_555 1_555
H13 C9 1_555 1_555
C10 C5 1_555 1_555
C11 C10 1_555 1_555
H14 C11 1_555 1_555
H15 C11 1_555 1_555
H16 C11 1_555 1_555
C12 C10 1_555 1_555
H17 C12 1_555 1_555
H18 C12 1_555 1_555
H19 C12 1_555 1_555
O1 C5 1_555 1_555
H20 O1 1_555 1_555
O2 C4 1_555 1_555
O3 C2 1_555 1_555
C1A H1A 1_555 1_555
H2A C1A 1_555 1_555
H3A C1A 1_555 1_555
C2A C1A 1_555 1_555
H4A C2A 1_555 1_555
C3A C2A 1_555 1_555
H5A C3A 1_555 1_555
H6A C3A 1_555 1_555
H7A C3A 1_555 1_555
C4A C5A 1_555 1_555
C5A C6A 1_555 1_555
C6A H8A 1_555 1_555
C7A C7 1_555 1_555
H9A C7A 1_555 1_555
C8A C6A 1_555 1_555
H10A C8A 1_555 1_555
H11A C8A 1_555 1_555
C9A C8A 1_555 1_555
H12A C9A 1_555 1_555
H13A C9A 1_555 1_555
C10A C5A 1_555 1_555
C11A C10A 1_555 1_555
H14A C11A 1_555 1_555
H15A C11A 1_555 1_555
H16A C11A 1_555 1_555
C12A C10A 1_555 1_555
H17A C12A 1_555 1_555
H18A C12A 1_555 1_555
H19A C12A 1_555 1_555
O1A C5A 1_555 1_555
H20A O1A 1_555 1_555
O2A C4A 1_555 1_555
O3A C2A 1_555 1_555
C4 O3 1_555 1_555
C9 C10 1_555 1_555
C4A O3A 1_555 1_555
C6A C7A 1_555 1_555
C9A C10A 1_555 1_555

#END
