
#######################################################################
#
#                 Cambridge Crystallographic Data Centre
#                                CCDC 
#
#######################################################################
#
# If this CIF has been generated from an entry in the Cambridge 
# Structural Database, then it will include bibliographic, chemical, 
# crystal, experimental, refinement or atomic coordinate data resulting 
# from the CCDC's data processing and validation procedures.
#
#######################################################################

data_XIMHIL
_chemical_formula_moiety         'C7 H9 N1 O2'
_chemical_name_systematic        3-Acetyl-2-methyl-2-pyrrolin-5-one
_symmetry_cell_setting           monoclinic
_symmetry_space_group_name_H-M   'P 21/c'
_symmetry_Int_Tables_number      14
_space_group_name_Hall           '-P 2ybc'
loop_
_symmetry_equiv_pos_site_id
_symmetry_equiv_pos_as_xyz
1 x,y,z
2 -x,1/2+y,1/2-z
3 -x,-y,-z
4 x,1/2-y,1/2+z
_cell_length_a                   12.1211(18)
_cell_length_b                   7.5078(11)
_cell_length_c                   7.9542(12)
_cell_angle_alpha                90
_cell_angle_beta                 106.740(2)
_cell_angle_gamma                90
_cell_volume                     693.179
_exptl_crystal_colour            red
_exptl_crystal_description       block
_cell_formula_units_Z            4
_exptl_crystal_recrystallization_method 'ethyl acetate'
loop_
_atom_site_label
_atom_site_type_symbol
_atom_site_fract_x
_atom_site_fract_y
_atom_site_fract_z
O1 O -0.02438(10) 0.26227(16) 0.71716(18)
O2 O 0.35189(12) 0.50023(17) 0.5789(2)
N1 N 0.11219(10) 0.07418(16) 0.67140(17)
H1 H 0.0802 -0.0242 0.6873
C1 C 0.21757(12) 0.08393(19) 0.63349(18)
C2 C 0.24331(12) 0.25712(18) 0.61258(18)
C3 C 0.14733(13) 0.3716(2) 0.63916(19)
H2 H 0.1099 0.4384 0.5337
H3 H 0.1759 0.4541 0.7358
C4 C 0.06589(13) 0.2374(2) 0.6804(2)
C5 C 0.27636(16) -0.0892(2) 0.6268(3)
H4 H 0.3499 -0.0675 0.6079
H5 H 0.2299 -0.1601 0.5323
H6 H 0.2871 -0.1513 0.7358
C6 C 0.34462(13) 0.3380(2) 0.57991(19)
C7 C 0.44042(14) 0.2258(3) 0.5512(2)
H7 H 0.4945 0.3008 0.5175
H8 H 0.4091 0.1405 0.4600
H9 H 0.4788 0.1643 0.6579
loop_
_geom_bond_atom_site_label_1
_geom_bond_atom_site_label_2
_geom_bond_site_symmetry_1
_geom_bond_site_symmetry_2
O1 C4 1_555 1_555
O2 C6 1_555 1_555
N1 H1 1_555 1_555
C1 N1 1_555 1_555
C2 C1 1_555 1_555
C3 C2 1_555 1_555
H2 C3 1_555 1_555
H3 C3 1_555 1_555
C4 N1 1_555 1_555
C5 C1 1_555 1_555
H4 C5 1_555 1_555
H5 C5 1_555 1_555
H6 C5 1_555 1_555
C6 C2 1_555 1_555
C7 C6 1_555 1_555
H7 C7 1_555 1_555
H8 C7 1_555 1_555
H9 C7 1_555 1_555
C3 C4 1_555 1_555

#END
