
#######################################################################
#
#                 Cambridge Crystallographic Data Centre
#                                CCDC 
#
#######################################################################
#
# If this CIF has been generated from an entry in the Cambridge 
# Structural Database, then it will include bibliographic, chemical, 
# crystal, experimental, refinement or atomic coordinate data resulting 
# from the CCDC's data processing and validation procedures.
#
#######################################################################

data_XIMHOR
_chemical_formula_moiety         'C16 H16 O2'
_chemical_name_systematic        6-Methoxy-3,3-dimethyl-3H-benzo(f)chromene
_symmetry_cell_setting           orthorhombic
_symmetry_space_group_name_H-M   'P b c a'
_symmetry_Int_Tables_number      61
_space_group_name_Hall           '-P 2ac 2ab'
loop_
_symmetry_equiv_pos_site_id
_symmetry_equiv_pos_as_xyz
1 x,y,z
2 1/2-x,-y,1/2+z
3 1/2+x,1/2-y,-z
4 -x,1/2+y,1/2-z
5 -x,-y,-z
6 1/2+x,y,1/2-z
7 1/2-x,1/2+y,z
8 x,1/2-y,1/2+z
_cell_length_a                   6.3357(9)
_cell_length_b                   15.5230(2)
_cell_length_c                   25.3654(6)
_cell_angle_alpha                90
_cell_angle_beta                 90
_cell_angle_gamma                90
_cell_volume                     2494.66
_exptl_crystal_colour            colorless
_exptl_crystal_description       lath
_cell_formula_units_Z            8
_exptl_crystal_recrystallization_method ethanol
loop_
_atom_site_label
_atom_site_type_symbol
_atom_site_fract_x
_atom_site_fract_y
_atom_site_fract_z
O1 O 0.70117(12) 0.37579(5) 0.68605(3)
C1 C 0.82434(18) 0.30916(8) 0.65864(4)
C2 C 0.6699(2) 0.25065(8) 0.62982(5)
C3 C 0.9400(2) 0.26182(8) 0.70243(5)
C4 C 0.97423(19) 0.35210(8) 0.62097(5)
C5 C 0.91824(18) 0.42430(8) 0.59660(4)
C6 C 0.71668(18) 0.46481(7) 0.60879(4)
C7 C 0.62045(17) 0.53175(7) 0.57814(4)
C8 C 0.7091(2) 0.56243(8) 0.53040(5)
C9 C 0.6118(2) 0.62464(8) 0.50125(5)
C10 C 0.4195(2) 0.66049(8) 0.51780(5)
C11 C 0.32983(19) 0.63325(8) 0.56408(5)
C12 C 0.42748(18) 0.56946(7) 0.59527(4)
C13 C 0.33652(17) 0.54048(7) 0.64358(4)
O2 O 0.15338(12) 0.58134(5) 0.65701(3)
C14 C 0.05003(19) 0.55380(8) 0.70402(5)
C15 C 0.42760(17) 0.47598(7) 0.67253(4)
C16 C 0.61566(17) 0.43818(7) 0.65416(4)
H1 H 0.5952 0.2838 0.6027
H2 H 0.5676 0.2272 0.6550
H3 H 0.7473 0.2033 0.6131
H4 H 0.8371 0.2357 0.7264
H5 H 1.0285 0.3026 0.7220
H6 H 1.0290 0.2167 0.6871
H7 H 1.1092 0.3276 0.6146
H8 H 1.0096 0.4495 0.5712
H9 H 0.8393 0.5391 0.5184
H10 H 0.6748 0.6439 0.4694
H11 H 0.3519 0.7034 0.4971
H12 H 0.2000 0.6577 0.5753
H13 H 0.1426 0.5639 0.7343
H14 H 0.0177 0.4922 0.7015
H15 H -0.0813 0.5863 0.7085
H16 H 0.3649 0.4570 0.7045
loop_
_geom_bond_atom_site_label_1
_geom_bond_atom_site_label_2
_geom_bond_site_symmetry_1
_geom_bond_site_symmetry_2
O1 C1 1_555 1_555
C1 C2 1_555 1_555
C2 H1 1_555 1_555
C3 C1 1_555 1_555
C4 C1 1_555 1_555
C5 C4 1_555 1_555
C6 C5 1_555 1_555
C7 C6 1_555 1_555
C8 C7 1_555 1_555
C9 C8 1_555 1_555
C10 C9 1_555 1_555
C11 C10 1_555 1_555
C12 C7 1_555 1_555
C13 C12 1_555 1_555
O2 C13 1_555 1_555
C14 O2 1_555 1_555
C15 C13 1_555 1_555
C16 O1 1_555 1_555
H2 C2 1_555 1_555
H3 C2 1_555 1_555
H4 C3 1_555 1_555
H5 C3 1_555 1_555
H6 C3 1_555 1_555
H7 C4 1_555 1_555
H8 C5 1_555 1_555
H9 C8 1_555 1_555
H10 C9 1_555 1_555
H11 C10 1_555 1_555
H12 C11 1_555 1_555
H13 C14 1_555 1_555
H14 C14 1_555 1_555
H15 C14 1_555 1_555
H16 C15 1_555 1_555
C6 C16 1_555 1_555
C11 C12 1_555 1_555
C15 C16 1_555 1_555

#END
