
#######################################################################
#
#                 Cambridge Crystallographic Data Centre
#                                CCDC 
#
#######################################################################
#
# If this CIF has been generated from an entry in the Cambridge 
# Structural Database, then it will include bibliographic, chemical, 
# crystal, experimental, refinement or atomic coordinate data resulting 
# from the CCDC's data processing and validation procedures.
#
#######################################################################

data_XIMHEI
_chemical_formula_moiety         'C22 H36 O6'
_chemical_name_systematic        
"Diisopropyl 2,2'-ethene-1,2-diylbis(1-hydroxy-5-methylcyclopentanecarboxylate)"
_symmetry_cell_setting           triclinic
_symmetry_space_group_name_H-M   'P -1'
_symmetry_Int_Tables_number      2
_space_group_name_Hall           '-P 1'
loop_
_symmetry_equiv_pos_site_id
_symmetry_equiv_pos_as_xyz
1 x,y,z
2 -x,-y,-z
_cell_length_a                   9.0823(9)
_cell_length_b                   11.2934(7)
_cell_length_c                   11.7674(16)
_cell_angle_alpha                87.965(7)
_cell_angle_beta                 72.478(10)
_cell_angle_gamma                77.756(7)
_cell_volume                     1124.28
_exptl_crystal_colour            colorless
_cell_formula_units_Z            2
loop_
_atom_site_label
_atom_site_type_symbol
_atom_site_fract_x
_atom_site_fract_y
_atom_site_fract_z
O1 O -0.0149(3) 1.0092(2) 0.2032(2)
H1 H -0.0009 0.9391 0.2301
O2 O 0.3420(3) 1.0791(2) 0.2172(2)
O3 O 0.2780(3) 0.8983(2) 0.2176(3)
C1 C 0.0736(4) 1.0786(3) 0.2426(3)
C2 C -0.0051(5) 1.1184(3) 0.3768(3)
H2 H 0.0652 1.1623 0.4019
C3 C -0.1541(5) 1.2117(3) 0.3706(4)
H3 H -0.2452 1.1721 0.3852
H4 H -0.1810 1.2778 0.4312
C4 C -0.1137(5) 1.2619(3) 0.2447(4)
H5 H -0.1848 1.2431 0.2018
H6 H -0.1251 1.3509 0.2486
C5 C 0.0564(5) 1.2009(3) 0.1818(4)
H7 H 0.1267 1.2479 0.2028
C6 C -0.0336(5) 1.0163(3) 0.4584(3)
H8 H -0.1066 0.9711 0.4491
C7 C 0.1006(6) 1.1913(4) 0.0465(4)
H9 H 0.0413 1.1380 0.0238
H10 H 0.2141 1.1577 0.0136
H11 H 0.0749 1.2720 0.0150
C8 C 0.2404(4) 1.0071(3) 0.2237(3)
C9 C 0.5050(4) 1.0235(3) 0.2113(4)
H12 H 0.5331 0.9397 0.1754
C10 C 0.6050(5) 1.1010(4) 0.1308(5)
H13 H 0.5912 1.1002 0.0514
H14 H 0.7163 1.0692 0.1249
H15 H 0.5729 1.1843 0.1636
C11 C 0.5182(6) 1.0174(4) 0.3353(4)
H16 H 0.4882 1.0993 0.3712
H17 H 0.6274 0.9814 0.3326
H18 H 0.4477 0.9674 0.3833
O1A O 0.0149(3) 0.9908(2) 0.7968(2)
H1A H 0.0009 1.0609 0.7699
O2A O -0.3420(3) 0.9209(2) 0.7828(2)
O3A O -0.2780(3) 1.1017(2) 0.7824(3)
C1A C -0.0736(4) 0.9214(3) 0.7574(3)
C2A C 0.0051(5) 0.8816(3) 0.6232(3)
H2A H -0.0652 0.8377 0.5981
C3A C 0.1541(5) 0.7883(3) 0.6294(4)
H3A H 0.2452 0.8279 0.6148
H4A H 0.1810 0.7222 0.5688
C4A C 0.1137(5) 0.7381(3) 0.7553(4)
H5A H 0.1848 0.7569 0.7982
H6A H 0.1251 0.6491 0.7514
C5A C -0.0564(5) 0.7991(3) 0.8182(4)
H7A H -0.1267 0.7521 0.7972
C6A C 0.0336(5) 0.9837(3) 0.5416(3)
H8A H 0.1066 1.0289 0.5509
C7A C -0.1006(6) 0.8087(4) 0.9535(4)
H9A H -0.0413 0.8620 0.9762
H10A H -0.2141 0.8423 0.9864
H11A H -0.0749 0.7280 0.9850
C8A C -0.2404(4) 0.9929(3) 0.7763(3)
C9A C -0.5050(4) 0.9765(3) 0.7887(4)
H12A H -0.5331 1.0603 0.8246
C10A C -0.6050(5) 0.8990(4) 0.8692(5)
H13A H -0.5912 0.8998 0.9486
H14A H -0.7163 0.9308 0.8751
H15A H -0.5729 0.8157 0.8364
C11A C -0.5182(6) 0.9826(4) 0.6647(4)
H16A H -0.4882 0.9007 0.6288
H17A H -0.6274 1.0186 0.6674
H18A H -0.4477 1.0326 0.6167
O4 O 0.2058(3) 0.6736(2) 0.3034(2)
H19 H 0.2040 0.7406 0.2700
O5 O -0.1486(3) 0.6151(2) 0.2677(2)
O6 O -0.0867(3) 0.7907(2) 0.2995(3)
C12 C 0.1150(4) 0.6075(3) 0.2627(3)
C13 C 0.1178(4) 0.4890(3) 0.3315(3)
H20 H 0.0448 0.4442 0.3111
C14 C 0.2872(4) 0.4195(3) 0.2755(3)
H21 H 0.2947 0.3311 0.2844
H22 H 0.3600 0.4450 0.3130
C15 C 0.3266(5) 0.4522(3) 0.1435(4)
H23 H 0.3291 0.3823 0.0938
H24 H 0.4310 0.4746 0.1161
C16 C 0.1955(4) 0.5607(3) 0.1333(3)
H25 H 0.1175 0.5293 0.1046
C17 C 0.0664(4) 0.5099(3) 0.4636(3)
H26 H 0.1349 0.5397 0.4972
C18 C 0.2542(5) 0.6577(3) 0.0491(3)
H27 H 0.1661 0.7264 0.0533
H28 H 0.2978 0.6239 -0.0326
H29 H 0.3366 0.6852 0.0725
C19 C -0.0499(4) 0.6821(3) 0.2796(3)
C20 C -0.3133(4) 0.6758(3) 0.2818(4)
H30 H -0.3166 0.7611 0.2549
C21 C -0.3693(5) 0.6086(4) 0.2024(5)
H31 H -0.3042 0.6124 0.1197
H32 H -0.4798 0.6454 0.2097
H33 H -0.3608 0.5238 0.2256
C22 C -0.4042(6) 0.6775(5) 0.4097(5)
H34 H -0.4051 0.5941 0.4357
H35 H -0.5129 0.7222 0.4214
H36 H -0.3548 0.7171 0.4567
O4A O -0.2058(3) 0.3264(2) 0.6966(2)
H19A H -0.2040 0.2594 0.7300
O5A O 0.1486(3) 0.3849(2) 0.7323(2)
O6A O 0.0867(3) 0.2093(2) 0.7005(3)
C12A C -0.1150(4) 0.3925(3) 0.7373(3)
C13A C -0.1178(4) 0.5110(3) 0.6685(3)
H20A H -0.0448 0.5558 0.6889
C14A C -0.2872(4) 0.5805(3) 0.7245(3)
H21A H -0.2947 0.6689 0.7156
H22A H -0.3600 0.5550 0.6870
C15A C -0.3266(5) 0.5478(3) 0.8565(4)
H23A H -0.3291 0.6177 0.9062
H24A H -0.4310 0.5254 0.8839
C16A C -0.1955(4) 0.4393(3) 0.8667(3)
H25A H -0.1175 0.4707 0.8954
C17A C -0.0664(4) 0.4901(3) 0.5364(3)
H26A H -0.1349 0.4603 0.5028
C18A C -0.2542(5) 0.3423(3) 0.9509(3)
H27A H -0.1661 0.2736 0.9467
H28A H -0.2978 0.3761 1.0326
H29A H -0.3366 0.3148 0.9275
C19A C 0.0499(4) 0.3179(3) 0.7204(3)
C20A C 0.3133(4) 0.3242(3) 0.7182(4)
H30A H 0.3166 0.2389 0.7451
C21A C 0.3693(5) 0.3914(4) 0.7976(5)
H31A H 0.3042 0.3876 0.8803
H32A H 0.4798 0.3546 0.7903
H33A H 0.3608 0.4762 0.7744
C22A C 0.4042(6) 0.3225(5) 0.5903(5)
H34A H 0.4051 0.4059 0.5643
H35A H 0.5129 0.2778 0.5786
H36A H 0.3548 0.2829 0.5433
loop_
_geom_bond_atom_site_label_1
_geom_bond_atom_site_label_2
_geom_bond_site_symmetry_1
_geom_bond_site_symmetry_2
O1 H1 1_555 1_555
O2 C8 1_555 1_555
O3 C8 1_555 1_555
C1 O1 1_555 1_555
C2 C1 1_555 1_555
H2 C2 1_555 1_555
C3 C2 1_555 1_555
H3 C3 1_555 1_555
H4 C3 1_555 1_555
C4 C3 1_555 1_555
H5 C4 1_555 1_555
H6 C4 1_555 1_555
C5 C1 1_555 1_555
H7 C5 1_555 1_555
C6 C2 1_555 1_555
H8 C6 1_555 1_555
C7 C5 1_555 1_555
H9 C7 1_555 1_555
H10 C7 1_555 1_555
H11 C7 1_555 1_555
C8 C1 1_555 1_555
C9 O2 1_555 1_555
H12 C9 1_555 1_555
C10 C9 1_555 1_555
H13 C10 1_555 1_555
H14 C10 1_555 1_555
H15 C10 1_555 1_555
C11 C9 1_555 1_555
H16 C11 1_555 1_555
H17 C11 1_555 1_555
H18 C11 1_555 1_555
O4 H19 1_555 1_555
O5 C19 1_555 1_555
O6 C19 1_555 1_555
C12 O4 1_555 1_555
C13 C12 1_555 1_555
H20 C13 1_555 1_555
C14 C13 1_555 1_555
H21 C14 1_555 1_555
H22 C14 1_555 1_555
C15 C14 1_555 1_555
H23 C15 1_555 1_555
H24 C15 1_555 1_555
C16 C12 1_555 1_555
H25 C16 1_555 1_555
C17 C13 1_555 1_555
H26 C17 1_555 1_555
C18 C16 1_555 1_555
H27 C18 1_555 1_555
H28 C18 1_555 1_555
H29 C18 1_555 1_555
C19 C12 1_555 1_555
C20 O5 1_555 1_555
H30 C20 1_555 1_555
C21 C20 1_555 1_555
H31 C21 1_555 1_555
H32 C21 1_555 1_555
H33 C21 1_555 1_555
C22 C20 1_555 1_555
H34 C22 1_555 1_555
H35 C22 1_555 1_555
H36 C22 1_555 1_555
O1A H1A 1_555 1_555
O2A C8A 1_555 1_555
O3A C8A 1_555 1_555
C1A O1A 1_555 1_555
C2A C1A 1_555 1_555
H2A C2A 1_555 1_555
C3A C2A 1_555 1_555
H3A C3A 1_555 1_555
H4A C3A 1_555 1_555
C4A C3A 1_555 1_555
H5A C4A 1_555 1_555
H6A C4A 1_555 1_555
C5A C1A 1_555 1_555
H7A C5A 1_555 1_555
C6A C6 1_555 1_555
H8A C6A 1_555 1_555
C7A C5A 1_555 1_555
H9A C7A 1_555 1_555
H10A C7A 1_555 1_555
H11A C7A 1_555 1_555
C8A C1A 1_555 1_555
C9A O2A 1_555 1_555
H12A C9A 1_555 1_555
C10A C9A 1_555 1_555
H13A C10A 1_555 1_555
H14A C10A 1_555 1_555
H15A C10A 1_555 1_555
C11A C9A 1_555 1_555
H16A C11A 1_555 1_555
H17A C11A 1_555 1_555
H18A C11A 1_555 1_555
O4A H19A 1_555 1_555
O5A C19A 1_555 1_555
O6A C19A 1_555 1_555
C12A O4A 1_555 1_555
C13A C12A 1_555 1_555
H20A C13A 1_555 1_555
C14A C13A 1_555 1_555
H21A C14A 1_555 1_555
H22A C14A 1_555 1_555
C15A C14A 1_555 1_555
H23A C15A 1_555 1_555
H24A C15A 1_555 1_555
C16A C12A 1_555 1_555
H25A C16A 1_555 1_555
C17A C17 1_555 1_555
H26A C17A 1_555 1_555
C18A C16A 1_555 1_555
H27A C18A 1_555 1_555
H28A C18A 1_555 1_555
H29A C18A 1_555 1_555
C19A C12A 1_555 1_555
C20A O5A 1_555 1_555
H30A C20A 1_555 1_555
C21A C20A 1_555 1_555
H31A C21A 1_555 1_555
H32A C21A 1_555 1_555
H33A C21A 1_555 1_555
C22A C20A 1_555 1_555
H34A C22A 1_555 1_555
H35A C22A 1_555 1_555
H36A C22A 1_555 1_555
C4 C5 1_555 1_555
C15 C16 1_555 1_555
C2A C6A 1_555 1_555
C4A C5A 1_555 1_555
C13A C17A 1_555 1_555
C15A C16A 1_555 1_555

#END
