
#######################################################################
#
#                 Cambridge Crystallographic Data Centre
#                                CCDC 
#
#######################################################################
#
# If this CIF has been generated from an entry in the Cambridge 
# Structural Database, then it will include bibliographic, chemical, 
# crystal, experimental, refinement or atomic coordinate data resulting 
# from the CCDC's data processing and validation procedures.
#
#######################################################################

data_XIMHEH
_chemical_formula_moiety         'C7 H9 N1 O3'
_chemical_name_systematic        
'Methyl 2-methyl-5-oxo-2-pyrroline-3-carboxylate'
_symmetry_cell_setting           monoclinic
_symmetry_space_group_name_H-M   'P 21/c'
_symmetry_Int_Tables_number      14
_space_group_name_Hall           '-P 2ybc'
loop_
_symmetry_equiv_pos_site_id
_symmetry_equiv_pos_as_xyz
1 x,y,z
2 -x,1/2+y,1/2-z
3 -x,-y,-z
4 x,1/2-y,1/2+z
_cell_length_a                   12.377(3)
_cell_length_b                   7.562(2)
_cell_length_c                   7.880(2)
_cell_angle_alpha                90
_cell_angle_beta                 91.509(3)
_cell_angle_gamma                90
_cell_volume                     737.272
_exptl_crystal_colour            red
_exptl_crystal_description       block
_cell_formula_units_Z            4
_exptl_crystal_recrystallization_method 'ethyl acetate'
loop_
_atom_site_label
_atom_site_type_symbol
_atom_site_fract_x
_atom_site_fract_y
_atom_site_fract_z
O1 O 1.02268(11) 0.25843(17) 1.23592(18)
O2 O 0.66840(11) 0.49951(17) 0.90559(17)
O3 O 0.60684(10) 0.22581(17) 0.85190(16)
N1 N 0.89483(11) 0.07468(18) 1.11840(17)
H1 H 0.9244 -0.0239 1.1481
C1 C 0.79683(14) 0.0866(2) 1.0285(2)
C2 C 0.77377(13) 0.2592(2) 0.99831(19)
C3 C 0.86311(14) 0.3709(2) 1.0741(2)
H2 H 0.8359 0.4515 1.1587
H3 H 0.8989 0.4385 0.9873
C4 C 0.93881(14) 0.2356(2) 1.1542(2)
C5 C 0.68033(14) 0.3413(2) 0.9159(2)
C6 C 0.51227(16) 0.3048(3) 0.7723(3)
H4 H 0.4730 0.3694 0.8556
H5 H 0.4669 0.2137 0.7243
H6 H 0.5339 0.3839 0.6842
C7 C 0.73973(16) -0.0812(2) 0.9848(2)
H7 H 0.6764 -0.0556 0.9163
H8 H 0.7190 -0.1396 1.0871
H9 H 0.7870 -0.1568 0.9228
loop_
_geom_bond_atom_site_label_1
_geom_bond_atom_site_label_2
_geom_bond_site_symmetry_1
_geom_bond_site_symmetry_2
O1 C4 1_555 1_555
O2 C5 1_555 1_555
O3 C5 1_555 1_555
N1 H1 1_555 1_555
C1 N1 1_555 1_555
C2 C1 1_555 1_555
C3 C2 1_555 1_555
H2 C3 1_555 1_555
H3 C3 1_555 1_555
C4 N1 1_555 1_555
C5 C2 1_555 1_555
C6 O3 1_555 1_555
H4 C6 1_555 1_555
H5 C6 1_555 1_555
H6 C6 1_555 1_555
C7 C1 1_555 1_555
H7 C7 1_555 1_555
H8 C7 1_555 1_555
H9 C7 1_555 1_555
C3 C4 1_555 1_555

#END
