
#######################################################################
#
#                 Cambridge Crystallographic Data Centre
#                                CCDC 
#
#######################################################################
#
# If this CIF has been generated from an entry in the Cambridge 
# Structural Database, then it will include bibliographic, chemical, 
# crystal, experimental, refinement or atomic coordinate data resulting 
# from the CCDC's data processing and validation procedures.
#
#######################################################################

data_XIMMOV
_chemical_formula_moiety         'C29 H27 N7'
_chemical_name_systematic        
N^2^,N^6^-bis(6'-(Benzylamino)pyrid-2'-yl)pyridine-2,6-diamine
_symmetry_cell_setting           monoclinic
_symmetry_space_group_name_H-M   'C 2/c'
_symmetry_Int_Tables_number      15
_space_group_name_Hall           '-C 2yn'
loop_
_symmetry_equiv_pos_site_id
_symmetry_equiv_pos_as_xyz
1 x,y,z
2 1/2+x,1/2+y,z
3 x,-y,1/2+z
4 1/2+x,1/2-y,1/2+z
5 -x,-y,-z
6 1/2-x,1/2-y,-z
7 -x,y,1/2-z
8 1/2-x,1/2+y,1/2-z
_cell_length_a                   18.7395(17)
_cell_length_b                   12.1337(15)
_cell_length_c                   21.760(4)
_cell_angle_alpha                90
_cell_angle_beta                 98.389(11)
_cell_angle_gamma                90
_cell_volume                     4894.84
_exptl_crystal_colour            'light yellow'
_chemical_melting_point          188deg.C
_cell_formula_units_Z            8
_exptl_crystal_recrystallization_method 'hexanes/ethyl acetate'
loop_
_atom_site_label
_atom_site_type_symbol
_atom_site_fract_x
_atom_site_fract_y
_atom_site_fract_z
N1 N 0.04607(15) 0.13719(24) 0.99712(12)
N2 N 0.06439(13) 0.12900(22) 1.10264(12)
N3 N 0.07445(13) 0.13089(24) 1.20911(12)
N4 N 0.08423(13) 0.18614(21) 1.31034(11)
N5 N 0.08341(13) 0.24492(24) 1.40996(12)
N6 N 0.05393(14) 0.32837(22) 1.49620(12)
N7 N 0.01120(15) 0.4090(3) 1.57862(13)
C1 C 0.05648(18) 0.1076(3) 0.93426(14)
C2 C 0.12640(18) 0.1462(3) 0.91488(14)
C3 C 0.15486(19) 0.0902(3) 0.86927(16)
C4 C 0.21921(22) 0.1226(3) 0.85070(17)
C5 C 0.25490(20) 0.2124(4) 0.87668(19)
C6 C 0.22670(22) 0.2697(3) 0.92136(18)
C7 C 0.16306(21) 0.2372(3) 0.94061(16)
C8 C 0.07940(17) 0.0857(3) 1.04867(16)
C9 C 0.12514(19) -0.0050(3) 1.04729(16)
C10 C 0.15286(19) -0.0527(3) 1.10242(18)
C11 C 0.13809(19) -0.0099(3) 1.15802(15)
C12 C 0.09420(16) 0.0818(3) 1.15561(15)
C13 C 0.11889(17) 0.1519(3) 1.26385(14)
C14 C 0.19345(18) 0.1445(3) 1.27035(15)
C15 C 0.23244(17) 0.1667(3) 1.32754(16)
C16 C 0.19812(17) 0.1993(3) 1.37610(15)
C17 C 0.12419(17) 0.2108(3) 1.36500(14)
C18 C 0.10287(17) 0.3210(3) 1.45737(14)
C19 C 0.16331(18) 0.3878(3) 1.46206(15)
C20 C 0.17358(18) 0.4619(3) 1.51082(16)
C21 C 0.12515(19) 0.4711(3) 1.55153(15)
C22 C 0.06489(18) 0.4038(3) 1.54187(15)
C23 C 0.00950(20) 0.4937(3) 1.62561(16)
C24 C 0.06134(19) 0.4739(3) 1.68383(15)
C25 C 0.07287(22) 0.3703(4) 1.70964(20)
C26 C 0.11787(25) 0.3572(4) 1.76562(22)
C27 C 0.15220(22) 0.4474(5) 1.79475(18)
C28 C 0.14239(24) 0.5487(4) 1.76934(20)
C29 C 0.09644(23) 0.5617(3) 1.71468(18)
H1 H 0.016 0.199 1.002
H2 H 0.028 0.165 1.202
H3 H 0.035 0.221 1.406
H4 H -0.033 0.369 1.568
H5 H 0.053 0.030 0.931
H6 H 0.017 0.136 0.906
H7 H 0.130 0.028 0.850
H8 H 0.238 0.082 0.819
H9 H 0.300 0.234 0.865
H10 H 0.251 0.333 0.940
H11 H 0.144 0.279 0.971
H12 H 0.136 -0.032 1.009
H13 H 0.183 -0.116 1.102
H14 H 0.157 -0.043 1.197
H15 H 0.216 0.125 1.236
H16 H 0.283 0.159 1.333
H17 H 0.224 0.213 1.416
H18 H 0.197 0.380 1.434
H19 H 0.215 0.509 1.516
H20 H 0.132 0.521 1.586
H21 H 0.020 0.562 1.608
H22 H -0.038 0.502 1.635
H23 H 0.050 0.308 1.689
H24 H 0.125 0.287 1.785
H25 H 0.183 0.439 1.833
H26 H 0.168 0.610 1.789
H27 H 0.088 0.633 1.697
loop_
_geom_bond_atom_site_label_1
_geom_bond_atom_site_label_2
_geom_bond_site_symmetry_1
_geom_bond_site_symmetry_2
N1 C1 1_555 1_555
N2 C8 1_555 1_555
N3 C12 1_555 1_555
N4 C13 1_555 1_555
N5 C17 1_555 1_555
N6 C18 1_555 1_555
N7 C22 1_555 1_555
C1 C2 1_555 1_555
C2 C3 1_555 1_555
C3 C4 1_555 1_555
C4 C5 1_555 1_555
C5 C6 1_555 1_555
C6 C7 1_555 1_555
C7 C2 1_555 1_555
C8 N1 1_555 1_555
C9 C8 1_555 1_555
C10 C9 1_555 1_555
C11 C10 1_555 1_555
C12 N2 1_555 1_555
C13 N3 1_555 1_555
C14 C13 1_555 1_555
C15 C14 1_555 1_555
C16 C15 1_555 1_555
C17 N4 1_555 1_555
C18 N5 1_555 1_555
C19 C18 1_555 1_555
C20 C19 1_555 1_555
C21 C20 1_555 1_555
C22 N6 1_555 1_555
C23 N7 1_555 1_555
C24 C23 1_555 1_555
C25 C24 1_555 1_555
C26 C25 1_555 1_555
C27 C26 1_555 1_555
C28 C27 1_555 1_555
C29 C24 1_555 1_555
H1 N1 1_555 1_555
H2 N3 1_555 1_555
H3 N5 1_555 1_555
H4 N7 1_555 1_555
H5 C1 1_555 1_555
H6 C1 1_555 1_555
H7 C3 1_555 1_555
H8 C4 1_555 1_555
H9 C5 1_555 1_555
H10 C6 1_555 1_555
H11 C7 1_555 1_555
H12 C9 1_555 1_555
H13 C10 1_555 1_555
H14 C11 1_555 1_555
H15 C14 1_555 1_555
H16 C15 1_555 1_555
H17 C16 1_555 1_555
H18 C19 1_555 1_555
H19 C20 1_555 1_555
H20 C21 1_555 1_555
H21 C23 1_555 1_555
H22 C23 1_555 1_555
H23 C25 1_555 1_555
H24 C26 1_555 1_555
H25 C27 1_555 1_555
H26 C28 1_555 1_555
H27 C29 1_555 1_555
C11 C12 1_555 1_555
C16 C17 1_555 1_555
C21 C22 1_555 1_555
C28 C29 1_555 1_555

#END
