
#######################################################################
#
#                 Cambridge Crystallographic Data Centre
#                                CCDC 
#
#######################################################################
#
# If this CIF has been generated from an entry in the Cambridge 
# Structural Database, then it will include bibliographic, chemical, 
# crystal, experimental, refinement or atomic coordinate data resulting 
# from the CCDC's data processing and validation procedures.
#
#######################################################################

data_XIMMEL
_chemical_formula_moiety         'C19 H19 N3'
_chemical_name_systematic        2,6-bis(Benzylamino)pyridine
_symmetry_cell_setting           monoclinic
_symmetry_space_group_name_H-M   'P 21'
_symmetry_Int_Tables_number      4
_space_group_name_Hall           'P 2yb'
loop_
_symmetry_equiv_pos_site_id
_symmetry_equiv_pos_as_xyz
1 x,y,z
2 -x,1/2+y,-z
_cell_length_a                   12.9834(5)
_cell_length_b                   5.6602(2)
_cell_length_c                   21.9238(7)
_cell_angle_alpha                90
_cell_angle_beta                 100.692(1)
_cell_angle_gamma                90
_cell_volume                     1583.18
_exptl_crystal_colour            'light yellow'
_exptl_crystal_description       plate
_cell_formula_units_Z            4
loop_
_atom_site_label
_atom_site_type_symbol
_atom_site_fract_x
_atom_site_fract_y
_atom_site_fract_z
N1 N -0.3863(2) -0.0708(7) -0.0135(2)
H1 H -0.4381(22) -0.0624(58) -0.0017(13)
N2 N -0.4648(2) -0.3705(6) -0.07600(13)
N3 N -0.5524(3) -0.6620(8) -0.1364(2)
H2 H -0.5920(23) -0.6589(64) -0.1132(13)
C1 C -0.3849(3) -0.2169(7) -0.0630(2)
C2 C -0.3033(3) -0.2087(8) -0.0966(2)
H5 H -0.2484(3) -0.1014(8) -0.0867(2)
C3 C -0.3073(3) -0.3650(9) -0.1447(2)
H6 H -0.2541(3) -0.3637(9) -0.1679(2)
C4 C -0.3879(3) -0.5230(8) -0.1595(2)
H7 H -0.3901(3) -0.6295(8) -0.1921(2)
C5 C -0.4668(3) -0.5184(8) -0.1240(2)
C6 C -0.3190(3) 0.1350(8) -0.0008(2)
H8 H -0.3494(3) 0.2416(8) 0.0256(2)
H9 H -0.3182(3) 0.2164(8) -0.0396(2)
C7 C -0.2069(3) 0.0834(7) 0.0300(2)
C8 C -0.1784(3) -0.1209(8) 0.0632(2)
H10 H -0.2287(3) -0.2350(8) 0.0662(2)
C9 C -0.0749(3) -0.1574(9) 0.0921(2)
H11 H -0.0565(3) -0.2951(9) 0.1146(2)
C10 C -0.0003(3) 0.0088(9) 0.0875(2)
H12 H 0.0688(3) -0.0152(9) 0.1073(2)
C11 C -0.0275(3) 0.2109(9) 0.0538(2)
H13 H 0.0232(3) 0.3235(9) 0.0503(2)
C12 C -0.1299(3) 0.2465(7) 0.0252(2)
H14 H -0.1475(3) 0.3833(7) 0.0021(2)
C13 C -0.5697(3) -0.8395(8) -0.1847(2)
H15 H -0.5271(3) -0.9773(8) -0.1712(2)
H16 H -0.5484(3) -0.7779(8) -0.2217(2)
C14 C -0.6833(3) -0.9101(7) -0.1996(2)
C15 C -0.7551(3) -0.7674(8) -0.2371(2)
H17 H -0.7324(3) -0.6302(8) -0.2539(2)
C16 C -0.8606(3) -0.8266(9) -0.2501(2)
H18 H -0.9084(3) -0.7292(9) -0.2752(2)
C17 C -0.8940(3) -1.0294(10) -0.2256(2)
H19 H -0.9646(3) -1.0702(10) -0.2343(2)
C18 C -0.8241(4) -1.1715(9) -0.1886(2)
H20 H -0.8470(4) -1.3088(9) -0.1720(2)
C19 C -0.7187(3) -1.1116(8) -0.1755(2)
H21 H -0.6714(3) -1.2092(8) -0.1501(2)
N4 N 0.4589(2) -0.1403(7) 0.42682(14)
H3 H 0.4739(23) -0.1682(64) 0.4707(14)
N5 N 0.5802(2) 0.1579(6) 0.44451(12)
N6 N 0.7044(3) 0.4478(8) 0.4698(2)
H4 H 0.6836(31) 0.4515(93) 0.5048(20)
C20 C 0.5225(3) 0.0169(7) 0.4029(2)
C21 C 0.5246(3) 0.0281(8) 0.3394(2)
H22 H 0.4831(3) -0.0711(8) 0.3111(2)
C22 C 0.5902(3) 0.1911(9) 0.3205(2)
H23 H 0.5933(3) 0.2021(9) 0.2785(2)
C23 C 0.6509(3) 0.3376(8) 0.3616(2)
H24 H 0.6948(3) 0.4484(8) 0.3483(2)
C24 C 0.6452(3) 0.3157(8) 0.4248(2)
C25 C 0.4091(3) -0.3381(8) 0.3907(2)
H25 H 0.3868(3) -0.4510(8) 0.4189(2)
H26 H 0.4610(3) -0.4156(8) 0.3710(2)
C26 C 0.3160(3) -0.2762(7) 0.3413(2)
C27 C 0.2862(3) -0.4252(8) 0.2915(2)
H27 H 0.3250(3) -0.5611(8) 0.2881(2)
C28 C 0.1994(4) -0.3748(10) 0.2464(2)
H28 H 0.1800(4) -0.4773(10) 0.2131(2)
C29 C 0.1424(3) -0.1771(11) 0.2506(2)
H29 H 0.0837(3) -0.1447(11) 0.2204(2)
C30 C 0.1711(3) -0.0255(9) 0.2990(2)
H30 H 0.1327(3) 0.1115(9) 0.3017(2)
C31 C 0.2579(3) -0.0763(8) 0.3445(2)
H31 H 0.2769(3) 0.0273(8) 0.3776(2)
C32 C 0.7728(3) 0.6404(9) 0.4584(2)
H32 H 0.7312(3) 0.7808(9) 0.4462(2)
H33 H 0.8081(3) 0.5979(9) 0.4247(2)
C33 C 0.8533(3) 0.6916(8) 0.5163(2)
C34 C 0.8511(3) 0.8959(8) 0.5500(2)
H34 H 0.7974(3) 1.0049(8) 0.5385(2)
C35 C 0.9290(4) 0.9387(10) 0.6012(2)
H35 H 0.9262(4) 1.0751(10) 0.6245(2)
C36 C 1.0097(4) 0.7832(11) 0.6179(2)
H36 H 1.0628(4) 0.8153(11) 0.6516(2)
C37 C 1.0117(3) 0.5811(9) 0.5847(2)
H37 H 1.0661(3) 0.4738(9) 0.5962(2)
C38 C 0.9342(3) 0.5337(8) 0.5344(2)
H38 H 0.9363(3) 0.3939(8) 0.5123(2)
loop_
_geom_bond_atom_site_label_1
_geom_bond_atom_site_label_2
_geom_bond_site_symmetry_1
_geom_bond_site_symmetry_2
N1 H1 1_555 1_555
N2 C1 1_555 1_555
N3 H2 1_555 1_555
N4 H3 1_555 1_555
N5 C20 1_555 1_555
N6 H4 1_555 1_555
C1 N1 1_555 1_555
C2 C1 1_555 1_555
H5 C2 1_555 1_555
C3 C2 1_555 1_555
H6 C3 1_555 1_555
C4 C3 1_555 1_555
H7 C4 1_555 1_555
C5 N2 1_555 1_555
C6 N1 1_555 1_555
H8 C6 1_555 1_555
H9 C6 1_555 1_555
C7 C6 1_555 1_555
C8 C7 1_555 1_555
H10 C8 1_555 1_555
C9 C8 1_555 1_555
H11 C9 1_555 1_555
C10 C9 1_555 1_555
H12 C10 1_555 1_555
C11 C10 1_555 1_555
H13 C11 1_555 1_555
C12 C7 1_555 1_555
H14 C12 1_555 1_555
C13 N3 1_555 1_555
H15 C13 1_555 1_555
H16 C13 1_555 1_555
C14 C13 1_555 1_555
C15 C14 1_555 1_555
H17 C15 1_555 1_555
C16 C15 1_555 1_555
H18 C16 1_555 1_555
C17 C16 1_555 1_555
H19 C17 1_555 1_555
C18 C17 1_555 1_555
H20 C18 1_555 1_555
C19 C14 1_555 1_555
H21 C19 1_555 1_555
C20 N4 1_555 1_555
C21 C20 1_555 1_555
H22 C21 1_555 1_555
C22 C21 1_555 1_555
H23 C22 1_555 1_555
C23 C22 1_555 1_555
H24 C23 1_555 1_555
C24 N5 1_555 1_555
C25 N4 1_555 1_555
H25 C25 1_555 1_555
H26 C25 1_555 1_555
C26 C25 1_555 1_555
C27 C26 1_555 1_555
H27 C27 1_555 1_555
C28 C27 1_555 1_555
H28 C28 1_555 1_555
C29 C28 1_555 1_555
H29 C29 1_555 1_555
C30 C29 1_555 1_555
H30 C30 1_555 1_555
C31 C26 1_555 1_555
H31 C31 1_555 1_555
C32 N6 1_555 1_555
H32 C32 1_555 1_555
H33 C32 1_555 1_555
C33 C32 1_555 1_555
C34 C33 1_555 1_555
H34 C34 1_555 1_555
C35 C34 1_555 1_555
H35 C35 1_555 1_555
C36 C35 1_555 1_555
H36 C36 1_555 1_555
C37 C36 1_555 1_555
H37 C37 1_555 1_555
C38 C33 1_555 1_555
H38 C38 1_555 1_555
N3 C5 1_555 1_555
N6 C24 1_555 1_555
C4 C5 1_555 1_555
C11 C12 1_555 1_555
C18 C19 1_555 1_555
C23 C24 1_555 1_555
C30 C31 1_555 1_555
C37 C38 1_555 1_555

#END
