
#######################################################################
#
#                 Cambridge Crystallographic Data Centre
#                                CCDC 
#
#######################################################################
#
# If this CIF has been generated from an entry in the Cambridge 
# Structural Database, then it will include bibliographic, chemical, 
# crystal, experimental, refinement or atomic coordinate data resulting 
# from the CCDC's data processing and validation procedures.
#
#######################################################################

data_XIMRET
_chemical_formula_moiety         'C18 H13 Br1 Cl1 N3 O4'
_chemical_name_systematic        
7-bromo-5-chloro-5'-methyl-3-(nitromethyl)-2'-phenyl-3H-spiro[1-benzofuran-2,4'-pyrazol]-3'(2'H)-one
_symmetry_cell_setting           orthorhombic
_symmetry_space_group_name_H-M   'P 21 21 21'
_symmetry_Int_Tables_number      19
_space_group_name_Hall           'P 2ac 2ab'
loop_
_symmetry_equiv_pos_site_id
_symmetry_equiv_pos_as_xyz
1 x,y,z
2 1/2-x,-y,1/2+z
3 -x,1/2+y,1/2-z
4 1/2+x,1/2-y,-z
_cell_length_a                   5.7178(5)
_cell_length_b                   10.9271(9)
_cell_length_c                   29.658(3)
_cell_angle_alpha                90
_cell_angle_beta                 90
_cell_angle_gamma                90
_cell_volume                     1853
_exptl_crystal_colour            yellow
_exptl_crystal_description       prismatic
_cell_formula_units_Z            4
loop_
_atom_site_label
_atom_site_type_symbol
_atom_site_fract_x
_atom_site_fract_y
_atom_site_fract_z
Br1 Br 0.61294(13) 0.33848(6) 0.74923(2)
Cl1 Cl -0.0710(4) 0.64674(13) 0.81669(6)
N1 N 0.2400(8) -0.0849(4) 0.86273(15)
N2 N 0.4366(8) -0.0669(4) 0.89121(15)
N3 N 0.2273(8) 0.1697(4) 0.97394(14)
O1 O 0.4388(7) 0.1869(3) 0.83264(11)
O2 O 0.6513(7) 0.0988(3) 0.91694(14)
O3 O 0.1507(8) 0.0697(4) 0.96354(13)
O4 O 0.2845(7) 0.1988(4) 1.01246(12)
C1 C 0.3347(10) 0.2986(5) 0.82714(17)
C2 C 0.3882(11) 0.3781(5) 0.79281(17)
C3 C 0.2668(11) 0.4893(5) 0.79133(18)
H1 H 0.3033 0.5470 0.7694
C4 C 0.0941(12) 0.5132(5) 0.82218(19)
C5 C 0.0411(10) 0.4327(5) 0.85698(19)
H2 H -0.0739 0.4508 0.8781
C6 C 0.1667(9) 0.3245(5) 0.85891(16)
C7 C 0.1597(10) 0.2205(5) 0.89299(16)
H3 H -0.0009 0.1909 0.8969
C8 C 0.3103(9) 0.1228(4) 0.86817(16)
C9 C 0.1722(10) 0.0181(5) 0.84844(17)
C10 C -0.0226(11) 0.0332(6) 0.81555(19)
H4 H -0.0829 -0.0457 0.8074
H5 H 0.0345 0.0740 0.7891
H6 H -0.1448 0.0812 0.8290
C11 C 0.4903(10) 0.0543(5) 0.89597(18)
C12 C 0.2581(10) 0.2653(5) 0.93799(17)
H7 H 0.4231 0.2839 0.9346
H8 H 0.1783 0.3398 0.9469
C13 C 0.5428(9) -0.1713(5) 0.91128(17)
C14 C 0.4404(13) -0.2842(5) 0.9062(2)
H9 H 0.3029 -0.2925 0.8897
C15 C 0.5442(15) -0.3853(6) 0.9258(3)
H10 H 0.4756 -0.4619 0.9223
C16 C 0.7464(15) -0.3747(6) 0.9503(2)
H11 H 0.8142 -0.4431 0.9635
C17 C 0.8456(14) -0.2629(7) 0.9549(2)
H12 H 0.9831 -0.2554 0.9714
C18 C 0.7475(11) -0.1598(6) 0.93563(19)
H13 H 0.8183 -0.0838 0.9390
loop_
_geom_bond_atom_site_label_1
_geom_bond_atom_site_label_2
_geom_bond_site_symmetry_1
_geom_bond_site_symmetry_2
Br1 C2 1_555 1_555
Cl1 C4 1_555 1_555
N1 N2 1_555 1_555
N2 C11 1_555 1_555
N3 O3 1_555 1_555
O1 C1 1_555 1_555
O2 C11 1_555 1_555
O4 N3 1_555 1_555
C1 C2 1_555 1_555
C2 C3 1_555 1_555
C3 H1 1_555 1_555
C4 C3 1_555 1_555
C5 C4 1_555 1_555
H2 C5 1_555 1_555
C6 C1 1_555 1_555
C7 C6 1_555 1_555
H3 C7 1_555 1_555
C8 O1 1_555 1_555
C9 N1 1_555 1_555
C10 C9 1_555 1_555
H4 C10 1_555 1_555
H5 C10 1_555 1_555
H6 C10 1_555 1_555
C11 C8 1_555 1_555
C12 N3 1_555 1_555
H7 C12 1_555 1_555
H8 C12 1_555 1_555
C13 N2 1_555 1_555
C14 C13 1_555 1_555
H9 C14 1_555 1_555
C15 C14 1_555 1_555
H10 C15 1_555 1_555
C16 C15 1_555 1_555
H11 C16 1_555 1_555
C17 C16 1_555 1_555
H12 C17 1_555 1_555
C18 C13 1_555 1_555
H13 C18 1_555 1_555
C5 C6 1_555 1_555
C7 C8 1_555 1_555
C7 C12 1_555 1_555
C8 C9 1_555 1_555
C17 C18 1_555 1_555

#END
