
#######################################################################
#
#                 Cambridge Crystallographic Data Centre
#                                CCDC 
#
#######################################################################
#
# If this CIF has been generated from an entry in the Cambridge 
# Structural Database, then it will include bibliographic, chemical, 
# crystal, experimental, refinement or atomic coordinate data resulting 
# from the CCDC's data processing and validation procedures.
#
#######################################################################

data_XIMRIX
_chemical_formula_moiety         'C21 H20 N2 O6'
_chemical_name_systematic        
"t-butyl 3-(nitromethyl)-2'-oxo-3H-spiro[1-benzofuran-2,3'-indole]-1'(2'H)-carboxylate"
_symmetry_cell_setting           monoclinic
_symmetry_space_group_name_H-M   'P 21'
_symmetry_Int_Tables_number      4
_space_group_name_Hall           'P 2yb'
loop_
_symmetry_equiv_pos_site_id
_symmetry_equiv_pos_as_xyz
1 x,y,z
2 -x,1/2+y,-z
_cell_length_a                   10.1833(9)
_cell_length_b                   9.4729(9)
_cell_length_c                   11.2556(10)
_cell_angle_alpha                90
_cell_angle_beta                 114.506(5)
_cell_angle_gamma                90
_cell_volume                     987.967
_exptl_crystal_colour            colorless
_exptl_crystal_description       block
_cell_formula_units_Z            2
loop_
_atom_site_label
_atom_site_type_symbol
_atom_site_fract_x
_atom_site_fract_y
_atom_site_fract_z
O1 O 0.1179(2) 0.5217(2) 0.8583(2)
O2 O 0.3456(3) 0.3351(3) 0.8605(2)
O3 O 0.3777(4) 0.2412(3) 0.6498(2)
O4 O 0.2848(3) 0.3825(2) 0.4742(2)
O5 O 0.5597(3) 0.6001(3) 0.8831(3)
O6 O 0.7082(3) 0.5148(3) 1.0659(3)
N1 N 0.2728(3) 0.4510(3) 0.6600(2)
N2 N 0.5906(3) 0.5611(3) 0.9945(3)
C1 C 0.2394(3) 0.5683(3) 0.8316(3)
C2 C 0.3450(3) 0.6464(3) 0.9579(3)
H1 H 0.373893 0.736403 0.933074
C3 C 0.2460(3) 0.6750(3) 1.0242(3)
C4 C 0.2631(4) 0.7605(4) 1.1285(3)
H2 H 0.347544 0.811913 1.171070
C5 C 0.1524(4) 0.7682(4) 1.1687(4)
H3 H 0.162370 0.825940 1.238822
C6 C 0.0272(4) 0.6917(4) 1.1065(4)
H4 H -0.045995 0.698687 1.135213
C7 C 0.0085(4) 0.6045(4) 1.0020(4)
H5 H -0.075213 0.551863 0.960171
C8 C 0.1201(3) 0.5996(3) 0.9628(3)
C9 C 0.2954(4) 0.4356(3) 0.7919(3)
C10 C 0.1887(3) 0.6567(3) 0.7118(3)
C11 C 0.2075(3) 0.5861(3) 0.6118(3)
C12 C 0.1648(3) 0.6465(4) 0.4900(3)
H6 H 0.175801 0.599011 0.422429
C13 C 0.1048(4) 0.7807(4) 0.4717(3)
H7 H 0.073658 0.822628 0.389857
C14 C 0.0902(4) 0.8534(4) 0.5714(3)
H8 H 0.052375 0.944298 0.557029
C15 C 0.1315(3) 0.7915(4) 0.6928(3)
H9 H 0.121095 0.839608 0.760370
C16 C 0.3184(4) 0.3458(4) 0.5961(3)
C17 C 0.3274(4) 0.2917(4) 0.3872(3)
C18 C 0.4891(5) 0.2808(8) 0.4428(5)
H10 H 0.530010 0.373671 0.452541
H11 H 0.516763 0.226456 0.384889
H12 H 0.523814 0.235337 0.526493
C19 C 0.2628(7) 0.3694(6) 0.2600(4)
H13 H 0.161534 0.383246 0.235687
H14 H 0.276244 0.315470 0.193720
H15 H 0.309306 0.459472 0.269135
C20 C 0.2567(5) 0.1498(5) 0.3717(4)
H16 H 0.297283 0.100137 0.453366
H17 H 0.272795 0.096623 0.306395
H18 H 0.154922 0.161970 0.345575
C21 C 0.4787(3) 0.5680(3) 1.0484(3)
H19 H 0.519086 0.615059 1.132535
H20 H 0.452274 0.472866 1.061851
loop_
_geom_bond_atom_site_label_1
_geom_bond_atom_site_label_2
_geom_bond_site_symmetry_1
_geom_bond_site_symmetry_2
O1 C1 1_555 1_555
O2 C9 1_555 1_555
O3 C16 1_555 1_555
O4 C16 1_555 1_555
O5 N2 1_555 1_555
O6 N2 1_555 1_555
N1 C9 1_555 1_555
N2 C21 1_555 1_555
C1 C2 1_555 1_555
C2 H1 1_555 1_555
C3 C2 1_555 1_555
C4 C3 1_555 1_555
H2 C4 1_555 1_555
C5 C4 1_555 1_555
H3 C5 1_555 1_555
C6 C5 1_555 1_555
H4 C6 1_555 1_555
C7 C6 1_555 1_555
H5 C7 1_555 1_555
C8 O1 1_555 1_555
C9 C1 1_555 1_555
C10 C1 1_555 1_555
C11 N1 1_555 1_555
C12 C11 1_555 1_555
H6 C12 1_555 1_555
C13 C12 1_555 1_555
H7 C13 1_555 1_555
C14 C13 1_555 1_555
H8 C14 1_555 1_555
C15 C10 1_555 1_555
H9 C15 1_555 1_555
C16 N1 1_555 1_555
C17 O4 1_555 1_555
C18 C17 1_555 1_555
H10 C18 1_555 1_555
H11 C18 1_555 1_555
H12 C18 1_555 1_555
C19 C17 1_555 1_555
H13 C19 1_555 1_555
H14 C19 1_555 1_555
H15 C19 1_555 1_555
C20 C17 1_555 1_555
H16 C20 1_555 1_555
H17 C20 1_555 1_555
H18 C20 1_555 1_555
C21 C2 1_555 1_555
H19 C21 1_555 1_555
H20 C21 1_555 1_555
C3 C8 1_555 1_555
C7 C8 1_555 1_555
C10 C11 1_555 1_555
C14 C15 1_555 1_555

#END
