
#######################################################################
#
#                 Cambridge Crystallographic Data Centre
#                                CCDC 
#
#######################################################################
#
# If this CIF has been generated from an entry in the Cambridge 
# Structural Database, then it will include bibliographic, chemical, 
# crystal, experimental, refinement or atomic coordinate data resulting 
# from the CCDC's data processing and validation procedures.
#
#######################################################################

data_XIMTOE
_chemical_formula_moiety         'C28 H22 Cl3 N3 O2'
_chemical_name_systematic        
7-(3-Chlorophenyl)-8-(2,5-dichlorobenzoyl)-5-methyl-N-phenyl-1,2,3,7-tetrahydroimidazo[1,2-a]pyridine-6-carboxamide
_symmetry_cell_setting           monoclinic
_symmetry_space_group_name_H-M   'P 21/n'
_symmetry_Int_Tables_number      14
_space_group_name_Hall           '-P 2yn'
loop_
_symmetry_equiv_pos_site_id
_symmetry_equiv_pos_as_xyz
1 x,y,z
2 1/2-x,1/2+y,1/2-z
3 -x,-y,-z
4 1/2+x,1/2-y,1/2+z
_cell_length_a                   12.495(4)
_cell_length_b                   11.278(3)
_cell_length_c                   18.337(5)
_cell_angle_alpha                90
_cell_angle_beta                 99.091(6)
_cell_angle_gamma                90
_cell_volume                     2551.57
_exptl_crystal_colour            colorless
_exptl_crystal_description       plate
_cell_formula_units_Z            4
loop_
_atom_site_label
_atom_site_type_symbol
_atom_site_fract_x
_atom_site_fract_y
_atom_site_fract_z
Cl1 Cl 0.69509(12) 0.28497(13) 0.15562(7)
Cl2 Cl 0.38186(13) 0.68346(15) 0.22443(10)
Cl3 Cl 0.36577(12) 0.33534(16) 0.33890(11)
O1 O 0.8131(3) 0.5915(3) 0.19081(18)
O2 O 0.8451(3) 0.3048(4) 0.53794(19)
N1 N 1.0004(3) 0.5515(4) 0.2711(2)
H1 H 0.9730 0.5901 0.2307
N2 N 1.0080(3) 0.4364(4) 0.3675(2)
N3 N 0.7556(3) 0.1821(4) 0.4519(2)
H2 H 0.7448 0.1624 0.4049
C1 C 0.7801(4) 0.3780(4) 0.3443(3)
H3 H 0.7594 0.3047 0.3148
C2 C 0.8304(4) 0.4646(4) 0.2950(3)
C3 C 0.9419(4) 0.4840(5) 0.3093(3)
C4 C 0.9678(4) 0.3661(5) 0.4197(3)
C5 C 0.8631(4) 0.3417(5) 0.4121(3)
C6 C 1.1152(4) 0.5547(6) 0.3033(3)
H4 H 1.1375 0.6354 0.3208
H5 H 1.1615 0.5285 0.2672
C7 C 1.1212(4) 0.4682(5) 0.3674(3)
H6 H 1.1649 0.3976 0.3592
H7 H 1.1530 0.5063 0.4145
C8 C 0.6780(4) 0.4270(5) 0.3684(3)
C9 C 0.5804(4) 0.3661(5) 0.3498(3)
H8 H 0.5793 0.2919 0.3251
C10 C 0.4857(5) 0.4127(5) 0.3669(3)
C11 C 0.4848(5) 0.5181(6) 0.4036(3)
H9 H 0.4188 0.5496 0.4149
C12 C 0.5822(5) 0.5790(5) 0.4241(3)
H10 H 0.5831 0.6517 0.4503
C13 C 0.6772(5) 0.5332(5) 0.4064(3)
H11 H 0.7432 0.5752 0.4205
C14 C 0.7721(4) 0.5196(4) 0.2323(3)
C15 C 0.6517(4) 0.5000(5) 0.2104(2)
C16 C 0.6086(4) 0.3993(5) 0.1739(3)
C17 C 0.4976(5) 0.3849(6) 0.1514(3)
H12 H 0.4702 0.3149 0.1264
C18 C 0.4283(5) 0.4734(6) 0.1661(3)
H13 H 0.3523 0.4653 0.1512
C19 C 0.4704(4) 0.5736(5) 0.2024(3)
C20 C 0.5806(4) 0.5892(5) 0.2235(3)
H14 H 0.6075 0.6607 0.2469
C21 C 1.0536(5) 0.3264(6) 0.4825(3)
H15 H 1.0784 0.3946 0.5137
H16 H 1.1150 0.2923 0.4625
H17 H 1.0230 0.2665 0.5120
C22 C 0.8205(4) 0.2757(5) 0.4724(3)
C23 C 0.7033(4) 0.1131(5) 0.5006(3)
C24 C 0.6972(5) -0.0083(6) 0.4903(3)
H18 H 0.7295 -0.0437 0.4521
C25 C 0.6445(6) -0.0781(6) 0.5350(3)
H19 H 0.6406 -0.1614 0.5273
C26 C 0.5978(6) -0.0286(7) 0.5907(3)
H20 H 0.5610 -0.0770 0.6211
C27 C 0.6048(6) 0.0918(7) 0.6018(3)
H21 H 0.5734 0.1269 0.6405
C28 C 0.6566(5) 0.1610(6) 0.5575(3)
H22 H 0.6609 0.2442 0.5659
loop_
_geom_bond_atom_site_label_1
_geom_bond_atom_site_label_2
_geom_bond_site_symmetry_1
_geom_bond_site_symmetry_2
Cl1 C16 1_555 1_555
Cl2 C19 1_555 1_555
Cl3 C10 1_555 1_555
O1 C14 1_555 1_555
O2 C22 1_555 1_555
N1 H1 1_555 1_555
N2 C3 1_555 1_555
N3 H2 1_555 1_555
C1 H3 1_555 1_555
C2 C1 1_555 1_555
C3 N1 1_555 1_555
C4 N2 1_555 1_555
C5 C1 1_555 1_555
C6 N1 1_555 1_555
H4 C6 1_555 1_555
H5 C6 1_555 1_555
C7 N2 1_555 1_555
H6 C7 1_555 1_555
H7 C7 1_555 1_555
C8 C1 1_555 1_555
C9 C8 1_555 1_555
H8 C9 1_555 1_555
C10 C9 1_555 1_555
C11 C10 1_555 1_555
H9 C11 1_555 1_555
C12 C11 1_555 1_555
H10 C12 1_555 1_555
C13 C8 1_555 1_555
H11 C13 1_555 1_555
C14 C2 1_555 1_555
C15 C14 1_555 1_555
C16 C15 1_555 1_555
C17 C16 1_555 1_555
H12 C17 1_555 1_555
C18 C17 1_555 1_555
H13 C18 1_555 1_555
C19 C18 1_555 1_555
C20 C15 1_555 1_555
H14 C20 1_555 1_555
C21 C4 1_555 1_555
H15 C21 1_555 1_555
H16 C21 1_555 1_555
H17 C21 1_555 1_555
C22 N3 1_555 1_555
C23 N3 1_555 1_555
C24 C23 1_555 1_555
H18 C24 1_555 1_555
C25 C24 1_555 1_555
H19 C25 1_555 1_555
C26 C25 1_555 1_555
H20 C26 1_555 1_555
C27 C26 1_555 1_555
H21 C27 1_555 1_555
C28 C23 1_555 1_555
H22 C28 1_555 1_555
C2 C3 1_555 1_555
C4 C5 1_555 1_555
C5 C22 1_555 1_555
C6 C7 1_555 1_555
C12 C13 1_555 1_555
C19 C20 1_555 1_555
C27 C28 1_555 1_555

#END
