
#######################################################################
#
#                 Cambridge Crystallographic Data Centre
#                                CCDC 
#
#######################################################################
#
# If this CIF has been generated from an entry in the Cambridge 
# Structural Database, then it will include bibliographic, chemical, 
# crystal, experimental, refinement or atomic coordinate data resulting 
# from the CCDC's data processing and validation procedures.
#
#######################################################################

data_XIMVOH
_chemical_formula_moiety         'C26 H23 Br1 O4'
_chemical_name_systematic        
't-butyl (5-bromo-2-oxo-3-phenyl-2,3-dihydro-1-benzofuran-3-yl)(phenyl)acetate'
_symmetry_cell_setting           orthorhombic
_symmetry_space_group_name_H-M   'P 21 21 21'
_symmetry_Int_Tables_number      19
_space_group_name_Hall           'P 2ac 2ab'
loop_
_symmetry_equiv_pos_site_id
_symmetry_equiv_pos_as_xyz
1 x,y,z
2 1/2-x,-y,1/2+z
3 -x,1/2+y,1/2-z
4 1/2+x,1/2-y,-z
_cell_length_a                   8.88319(13)
_cell_length_b                   14.0665(2)
_cell_length_c                   17.5360(2)
_cell_angle_alpha                90
_cell_angle_beta                 90
_cell_angle_gamma                90
_cell_volume                     2191.22
_exptl_crystal_description       block
_cell_formula_units_Z            4
loop_
_atom_site_label
_atom_site_type_symbol
_atom_site_fract_x
_atom_site_fract_y
_atom_site_fract_z
Br1 Br 0.92457(4) 0.25075(3) 0.01393(2)
O1 O 0.4845(3) 0.0914(2) 0.23826(15)
O2 O 0.4211(3) 0.1399(2) 0.35552(18)
O3 O 0.8050(3) 0.3988(2) 0.26803(16)
O4 O 0.7116(3) 0.42771(19) 0.38544(14)
C1 C 0.7869(4) 0.1965(3) 0.08445(19)
C2 C 0.6998(5) 0.1191(3) 0.0617(2)
H1 H 0.7107 0.0937 0.0131
C3 C 0.5967(4) 0.0802(3) 0.1122(2)
H2 H 0.5363 0.0290 0.0986
C4 C 0.5877(4) 0.1209(3) 0.1834(2)
C5 C 0.6765(4) 0.1959(2) 0.2080(2)
C6 C 0.7788(4) 0.2350(3) 0.1576(2)
H3 H 0.8403 0.2853 0.1721
C7 C 0.5034(4) 0.1469(3) 0.3015(2)
C8 C 0.6379(4) 0.2161(3) 0.2907(2)
C9 C 0.7619(4) 0.1874(3) 0.3475(2)
C10 C 0.7283(5) 0.1856(3) 0.4252(2)
H4 H 0.6313 0.1998 0.4415
C11 C 0.8387(6) 0.1628(4) 0.4783(3)
H5 H 0.8148 0.1614 0.5299
C12 C 0.9837(5) 0.1424(4) 0.4549(3)
H6 H 1.0576 0.1277 0.4906
C13 C 1.0179(5) 0.1439(4) 0.3777(3)
H7 H 1.1152 0.1303 0.3616
C14 C 0.9070(4) 0.1660(3) 0.3242(2)
H8 H 0.9307 0.1662 0.2726
C15 C 0.5782(4) 0.3182(3) 0.3096(2)
H9 H 0.5311 0.3147 0.3601
C16 C 0.4578(4) 0.3531(3) 0.2545(2)
C17 C 0.4919(5) 0.3985(3) 0.1858(2)
H10 H 0.5917 0.4074 0.1716
C18 C 0.3772(5) 0.4303(3) 0.1386(2)
H11 H 0.4011 0.4616 0.0935
C19 C 0.2276(5) 0.4162(4) 0.1576(2)
H12 H 0.1514 0.4383 0.1258
C20 C 0.1925(5) 0.3685(4) 0.2249(3)
H13 H 0.0925 0.3568 0.2376
C21 C 0.3075(5) 0.3382(3) 0.2730(2)
H14 H 0.2833 0.3075 0.3183
C22 C 0.7111(4) 0.3862(3) 0.3167(2)
C23 C 0.8382(4) 0.4914(3) 0.4086(2)
C24 C 0.8402(6) 0.5784(4) 0.3583(3)
H15 H 0.9217 0.6192 0.3733
H16 H 0.8537 0.5594 0.3061
H17 H 0.7467 0.6119 0.3634
C25 C 0.9847(5) 0.4348(4) 0.4075(3)
H18 H 1.0666 0.4753 0.4223
H19 H 0.9773 0.3825 0.4424
H20 H 1.0023 0.4110 0.3569
C26 C 0.7978(5) 0.5168(3) 0.4903(2)
H21 H 0.8733 0.5583 0.5109
H22 H 0.7019 0.5483 0.4911
H23 H 0.7926 0.4599 0.5203
loop_
_geom_bond_atom_site_label_1
_geom_bond_atom_site_label_2
_geom_bond_site_symmetry_1
_geom_bond_site_symmetry_2
Br1 C1 1_555 1_555
O1 C4 1_555 1_555
O2 C7 1_555 1_555
O3 C22 1_555 1_555
O4 C22 1_555 1_555
C1 C2 1_555 1_555
C2 H1 1_555 1_555
C3 C2 1_555 1_555
H2 C3 1_555 1_555
C4 C3 1_555 1_555
C5 C4 1_555 1_555
C6 C1 1_555 1_555
H3 C6 1_555 1_555
C7 O1 1_555 1_555
C8 C5 1_555 1_555
C9 C8 1_555 1_555
C10 C9 1_555 1_555
H4 C10 1_555 1_555
C11 C10 1_555 1_555
H5 C11 1_555 1_555
C12 C11 1_555 1_555
H6 C12 1_555 1_555
C13 C12 1_555 1_555
H7 C13 1_555 1_555
C14 C9 1_555 1_555
H8 C14 1_555 1_555
C15 C8 1_555 1_555
H9 C15 1_555 1_555
C16 C15 1_555 1_555
C17 C16 1_555 1_555
H10 C17 1_555 1_555
C18 C17 1_555 1_555
H11 C18 1_555 1_555
C19 C18 1_555 1_555
H12 C19 1_555 1_555
C20 C19 1_555 1_555
H13 C20 1_555 1_555
C21 C16 1_555 1_555
H14 C21 1_555 1_555
C22 C15 1_555 1_555
C23 O4 1_555 1_555
C24 C23 1_555 1_555
H15 C24 1_555 1_555
H16 C24 1_555 1_555
H17 C24 1_555 1_555
C25 C23 1_555 1_555
H18 C25 1_555 1_555
H19 C25 1_555 1_555
H20 C25 1_555 1_555
C26 C23 1_555 1_555
H21 C26 1_555 1_555
H22 C26 1_555 1_555
H23 C26 1_555 1_555
C5 C6 1_555 1_555
C7 C8 1_555 1_555
C13 C14 1_555 1_555
C20 C21 1_555 1_555

#END
