
#######################################################################
#
#                 Cambridge Crystallographic Data Centre
#                                CCDC 
#
#######################################################################
#
# If this CIF has been generated from an entry in the Cambridge 
# Structural Database, then it will include bibliographic, chemical, 
# crystal, experimental, refinement or atomic coordinate data resulting 
# from the CCDC's data processing and validation procedures.
#
#######################################################################

data_XIMVAT
_chemical_compound_source        'roots of Kadsura longipedunculata'
_chemical_name_common            'Longipedlignan A hemihydrate'
_chemical_formula_moiety         'C27 H30 O9,0.5(H2 O1)'
_chemical_name_systematic        
"4-hydroxy-2,3-dimethoxy-6,6a-dimethyl-1-oxo-1,4,5,6,6a,7-hexahydro-10H,13H-cyclobuta[8a,9]furo[2',3',4':4,4b]phenanthro[2,3-d][1,3]dioxol-7-yl 2-methylbut-2-enoate hemihydrate"
_symmetry_cell_setting           triclinic
_symmetry_space_group_name_H-M   'P 1'
_symmetry_Int_Tables_number      1
_space_group_name_Hall           'P 1'
loop_
_symmetry_equiv_pos_site_id
_symmetry_equiv_pos_as_xyz
1 x,y,z
_cell_length_a                   16.3042(8)
_cell_length_b                   16.6225(8)
_cell_length_c                   19.3286(9)
_cell_angle_alpha                90.689(4)
_cell_angle_beta                 102.564(2)
_cell_angle_gamma                107.519(2)
_cell_volume                     4858.85
_exptl_crystal_colour            colorless
_exptl_crystal_description       needle
_cell_formula_units_Z            8
_exptl_crystal_recrystallization_method 
'Re-crystallisation from solvent: methanol/water'
loop_
_atom_site_label
_atom_site_type_symbol
_atom_site_fract_x
_atom_site_fract_y
_atom_site_fract_z
O1 O 0.39202(16) 0.89694(15) 0.17584(13)
O2 O 0.45543(16) 1.00140(16) 0.07739(13)
O3 O 0.43216(17) 1.15268(16) 0.07269(14)
O4 O 0.41196(16) 1.17508(15) 0.22650(13)
H1 H 0.4091 1.2244 0.2309
O5 O 0.08754(18) 0.72722(15) 0.31671(14)
O6 O 0.22485(18) 0.79262(16) 0.39142(13)
O7 O 0.35898(16) 0.94418(15) 0.34016(13)
O8 O 0.19698(15) 0.89330(14) 0.07062(12)
O9 O 0.08131(18) 0.77617(17) 0.03258(15)
C1 C 0.3759(2) 0.9640(2) 0.17070(18)
C2 C 0.4086(2) 1.0241(2) 0.12116(18)
C3 C 0.3942(2) 1.0999(2) 0.11729(18)
C4 C 0.3461(2) 1.1292(2) 0.16585(18)
H2 H 0.3151 1.1679 0.1409
C5 C 0.2790(2) 1.0555(2) 0.18977(18)
C6 C 0.2302(2) 1.0873(2) 0.23926(18)
H3 H 0.2365 1.0640 0.2863
H4 H 0.2457 1.1498 0.2447
C7 C 0.1397(2) 1.0441(2) 0.18796(18)
H5 H 0.1060 0.9937 0.2092
C8 C 0.1866(2) 1.0149(2) 0.13416(18)
C9 C 0.1526(2) 0.9174(2) 0.12155(18)
H6 H 0.0873 0.8985 0.1009
C10 C 0.1716(2) 0.8767(2) 0.19028(18)
C11 C 0.1096(2) 0.8109(2) 0.21378(18)
H7 H 0.0520 0.7839 0.1852
C12 C 0.1376(2) 0.7880(2) 0.28081(19)
C13 C 0.2199(3) 0.8262(2) 0.32619(19)
C14 C 0.2789(2) 0.8923(2) 0.30294(19)
C15 C 0.2534(2) 0.9136(2) 0.23425(18)
C16 C 0.3240(2) 0.9893(2) 0.22037(18)
C17 C 0.0816(3) 1.0996(2) 0.1635(2)
H8 H 0.0580 1.1134 0.2030
H9 H 0.0326 1.0693 0.1239
H10 H 0.1168 1.1520 0.1478
C18 C 0.1751(2) 1.0532(2) 0.06242(18)
H11 H 0.2165 1.0424 0.0364
H12 H 0.1870 1.1144 0.0703
H13 H 0.1144 1.0274 0.0346
C19 C 0.3865(2) 1.0145(2) 0.29601(18)
H14 H 0.4487 1.0242 0.2933
H15 H 0.3817 1.0672 0.3168
C20 C 0.1500(3) 0.7170(2) 0.3777(2)
H16 H 0.1687 0.6672 0.3686
H17 H 0.1230 0.7080 0.4193
C21 C 0.5485(2) 1.0272(3) 0.1069(2)
H18 H 0.5703 1.0886 0.1184
H19 H 0.5783 1.0119 0.0723
H20 H 0.5607 0.9987 0.1503
C22 C 0.4097(3) 1.2295(3) 0.0601(2)
H21 H 0.3458 1.2157 0.0416
H22 H 0.4406 1.2598 0.0254
H23 H 0.4277 1.2654 0.1048
C23 C 0.1532(2) 0.8208(2) 0.02823(18)
C24 C 0.2068(2) 0.8075(2) -0.02186(18)
C25 C 0.1764(2) 0.7431(2) -0.07283(19)
H24 H 0.2173 0.7405 -0.1004
C26 C 0.0903(2) 0.6756(2) -0.09354(19)
H25 H 0.0523 0.6819 -0.0622
H26 H 0.0997 0.6202 -0.0892
H27 H 0.0617 0.6799 -0.1429
C27 C 0.2982(2) 0.8696(2) -0.01298(19)
H28 H 0.3262 0.8547 -0.0491
H29 H 0.3338 0.8676 0.0345
H30 H 0.2939 0.9268 -0.0185
O10 O 0.39819(16) 0.14097(15) 0.68315(13)
O11 O 0.46237(16) 0.23811(16) 0.58303(13)
O12 O 0.43110(17) 0.38777(17) 0.56601(14)
O13 O 0.41906(16) 0.42044(15) 0.72291(13)
H31 H 0.4145 0.4691 0.7274
O14 O 0.08927(17) -0.02126(15) 0.82103(13)
O15 O 0.22526(17) 0.04504(15) 0.89694(12)
O16 O 0.36202(16) 0.19472(15) 0.84535(12)
O17 O 0.20163(15) 0.13607(14) 0.57301(12)
O18 O 0.08635(18) 0.01667(16) 0.54169(14)
C28 C 0.3822(2) 0.2085(2) 0.67560(17)
C29 C 0.4154(2) 0.2654(2) 0.62438(18)
C30 C 0.3979(2) 0.3397(2) 0.61571(18)
C31 C 0.3522(2) 0.3726(2) 0.66398(19)
H32 H 0.3209 0.4105 0.6379
C32 C 0.2858(2) 0.3011(2) 0.69020(17)
C33 C 0.2368(2) 0.3356(2) 0.73829(18)
H33 H 0.2429 0.3142 0.7861
H34 H 0.2525 0.3981 0.7420
C34 C 0.1460(2) 0.2911(2) 0.68733(18)
H35 H 0.1124 0.2417 0.7096
C35 C 0.1926(2) 0.2598(2) 0.63454(17)
C36 C 0.1587(2) 0.1624(2) 0.62394(17)
H36 H 0.0934 0.1437 0.6036
C37 C 0.1771(2) 0.1238(2) 0.69352(17)
C38 C 0.1144(2) 0.0587(2) 0.71715(18)
H37 H 0.0574 0.0310 0.6879
C39 C 0.1406(2) 0.0377(2) 0.78516(19)
C40 C 0.2221(2) 0.0769(2) 0.83088(18)
C41 C 0.2824(2) 0.1421(2) 0.80784(18)
C42 C 0.2585(2) 0.1613(2) 0.73822(18)
C43 C 0.3295(2) 0.2360(2) 0.72331(17)
C44 C 0.0881(3) 0.3460(2) 0.6613(2)
H38 H 0.0658 0.3624 0.7006
H39 H 0.0383 0.3142 0.6229
H40 H 0.1230 0.3970 0.6435
C45 C 0.1820(2) 0.2956(2) 0.56208(18)
H41 H 0.2261 0.2865 0.5382
H42 H 0.1905 0.3564 0.5684
H43 H 0.1225 0.2669 0.5331
C46 C 0.3917(2) 0.2629(2) 0.79949(18)
H44 H 0.4538 0.2707 0.7976
H45 H 0.3880 0.3170 0.8185
C47 C 0.1506(3) -0.0314(2) 0.8831(2)
H46 H 0.1699 -0.0810 0.8749
H47 H 0.1226 -0.0401 0.9242
C48 C 0.5558(2) 0.2815(3) 0.6012(2)
H48 H 0.5664 0.3415 0.5932
H49 H 0.5849 0.2565 0.5714
H50 H 0.5798 0.2761 0.6514
C49 C 0.4052(3) 0.4616(3) 0.5480(2)
H51 H 0.3409 0.4451 0.5304
H52 H 0.4339 0.4887 0.5110
H53 H 0.4232 0.5015 0.5904
C50 C 0.1564(2) 0.0619(2) 0.53319(18)
C51 C 0.2061(2) 0.0466(2) 0.48086(18)
C52 C 0.1741(3) -0.0175(2) 0.4305(2)
H54 H 0.2133 -0.0206 0.4014
C53 C 0.0872(3) -0.0848(2) 0.4124(2)
H55 H 0.0497 -0.0749 0.4428
H56 H 0.0959 -0.1401 0.4201
H57 H 0.0585 -0.0839 0.3624
C54 C 0.2978(2) 0.1077(2) 0.4879(2)
H58 H 0.3257 0.0896 0.4531
H59 H 0.3334 0.1087 0.5360
H60 H 0.2939 0.1645 0.4791
O19 O 0.39151(16) 0.71710(15) 0.66835(13)
O20 O 0.42909(16) 0.83071(16) 0.56963(13)
O21 O 0.36326(16) 0.97406(15) 0.57822(14)
O22 O 0.33537(18) 0.96956(15) 0.72385(13)
H61 H 0.3524 1.0195 0.7126
O23 O 0.14030(17) 0.48584(16) 0.82401(14)
O24 O 0.27109(18) 0.57577(15) 0.89277(13)
O25 O 0.36483(16) 0.74727(15) 0.83558(13)
O26 O 0.18979(15) 0.65940(14) 0.57250(12)
O27 O 0.09233(19) 0.52841(17) 0.54594(15)
C55 C 0.3604(2) 0.7759(2) 0.66614(18)
C56 C 0.3805(2) 0.8412(2) 0.61728(18)
C57 C 0.3474(2) 0.9068(2) 0.61630(18)
C58 C 0.2858(2) 0.9146(2) 0.66190(18)
H62 H 0.2413 0.9396 0.6344
C59 C 0.2373(2) 0.8299(2) 0.68592(18)
C60 C 0.1750(2) 0.8403(2) 0.73364(18)
H63 H 0.1840 0.8137 0.7791
H64 H 0.1769 0.8997 0.7422
C61 C 0.0925(2) 0.7877(2) 0.67768(19)
H65 H 0.0622 0.7338 0.6966
C62 C 0.1527(2) 0.7719(2) 0.62927(17)
C63 C 0.1407(2) 0.6760(2) 0.62340(17)
H66 H 0.0765 0.6441 0.6055
C64 C 0.1747(2) 0.6456(2) 0.69346(18)
C65 C 0.1315(2) 0.5693(2) 0.71944(19)
H67 H 0.0773 0.5311 0.6931
C66 C 0.1733(2) 0.5538(2) 0.78567(19)
C67 C 0.2515(2) 0.6070(2) 0.82740(19)
C68 C 0.2920(2) 0.6820(2) 0.80230(18)
C69 C 0.2530(2) 0.6977(2) 0.73487(18)
C70 C 0.3034(2) 0.7837(2) 0.71777(17)
C71 C 0.0269(2) 0.8346(2) 0.6484(2)
H68 H -0.0041 0.8424 0.6849
H69 H -0.0161 0.8016 0.6065
H70 H 0.0587 0.8900 0.6351
C72 C 0.1353(2) 0.8012(2) 0.55429(18)
H71 H 0.1834 0.7998 0.5319
H72 H 0.1324 0.8592 0.5571
H73 H 0.0791 0.7636 0.5259
C73 C 0.3648(2) 0.8199(2) 0.79260(18)
H74 H 0.4255 0.8504 0.7881
H75 H 0.3421 0.8599 0.8153
C74 C 0.2127(3) 0.4898(2) 0.8819(2)
H76 H 0.2443 0.4507 0.8709
H77 H 0.1912 0.4733 0.9254
C75 C 0.5187(2) 0.8315(2) 0.5996(2)
H78 H 0.5467 0.8772 0.6378
H79 H 0.5522 0.8408 0.5624
H80 H 0.5179 0.7771 0.6189
C76 C 0.4388(3) 0.9970(3) 0.5472(2)
H81 H 0.4895 0.9880 0.5803
H82 H 0.4531 1.0568 0.5376
H83 H 0.4255 0.9620 0.5026
C77 C 0.1586(2) 0.5807(2) 0.53784(19)
C78 C 0.2167(2) 0.5699(2) 0.49094(19)
C79 C 0.1910(2) 0.5046(2) 0.44185(19)
H84 H 0.2337 0.5030 0.4158
C80 C 0.1062(3) 0.4339(2) 0.4213(2)
H85 H 0.0648 0.4423 0.4486
H86 H 0.1174 0.3801 0.4315
H87 H 0.0805 0.4329 0.3704
C81 C 0.3065(3) 0.6359(3) 0.5009(2)
H88 H 0.3388 0.6204 0.4684
H89 H 0.3399 0.6388 0.5501
H90 H 0.2989 0.6912 0.4907
O28 O 0.61348(15) 0.41624(14) 0.81711(13)
O29 O 0.52847(16) 0.48076(15) 0.89722(13)
O30 O 0.57535(18) 0.65259(16) 0.92050(15)
O31 O 0.60342(16) 0.68986(15) 0.76653(13)
H91 H 0.6135 0.7420 0.7625
O32 O 0.93377(16) 0.42521(16) 0.69545(13)
O33 O 0.80432(16) 0.41470(16) 0.61215(13)
O34 O 0.66412(15) 0.48744(15) 0.65331(12)
O35 O 0.79563(15) 0.52706(14) 0.92906(12)
O36 O 0.89689(17) 0.45988(16) 0.96139(13)
C82 C 0.6273(2) 0.4931(2) 0.82018(17)
C83 C 0.5861(2) 0.5340(2) 0.86330(18)
C84 C 0.6086(2) 0.6194(2) 0.87295(19)
C85 C 0.6631(2) 0.6769(2) 0.82911(18)
H92 H 0.6952 0.7326 0.8573
C86 C 0.7305(2) 0.6407(2) 0.80788(17)
C87 C 0.7859(2) 0.7003(2) 0.76217(18)
H93 H 0.7829 0.6726 0.7157
H94 H 0.7720 0.7542 0.7558
C88 C 0.8730(2) 0.7098(2) 0.81750(18)
H95 H 0.9081 0.6781 0.7988
C89 C 0.8192(2) 0.6544(2) 0.86806(17)
C90 C 0.8487(2) 0.5752(2) 0.88225(18)
H96 H 0.9126 0.5930 0.9073
C91 C 0.8354(2) 0.5231(2) 0.81430(17)
C92 C 0.9013(2) 0.4947(2) 0.79492(18)
H97 H 0.9562 0.5004 0.8271
C93 C 0.8809(2) 0.4584(2) 0.72652(18)
C94 C 0.8030(2) 0.4508(2) 0.67608(18)
C95 C 0.7404(2) 0.4806(2) 0.69534(18)
C96 C 0.7577(2) 0.51301(19) 0.76503(17)
C97 C 0.6862(2) 0.5485(2) 0.77523(18)
C98 C 0.9312(3) 0.7999(2) 0.8442(2)
H98 H 0.9594 0.8264 0.8068
H99 H 0.9767 0.7986 0.8863
H100 H 0.8947 0.8326 0.8567
C99 C 0.8260(2) 0.7004(2) 0.93865(18)
H101 H 0.7798 0.6672 0.9612
H102 H 0.8183 0.7561 0.9302
H103 H 0.8842 0.7078 0.9700
C100 C 0.6300(2) 0.5369(2) 0.69700(18)
H104 H 0.5671 0.5070 0.6955
H105 H 0.6343 0.5929 0.6783
C101 C 0.8875(3) 0.3987(3) 0.6247(2)
H106 H 0.8777 0.3375 0.6153
H107 H 0.9227 0.4297 0.5920
C102 C 0.4454(2) 0.4957(2) 0.8935(2)
H108 H 0.4481 0.5274 0.9375
H109 H 0.3982 0.4414 0.8875
H110 H 0.4331 0.5286 0.8529
C103 C 0.5896(3) 0.7418(2) 0.9275(3)
H111 H 0.6528 0.7715 0.9450
H112 H 0.5571 0.7544 0.9611
H113 H 0.5685 0.7607 0.8810
C104 C 0.8295(2) 0.4720(2) 0.96766(18)
C105 C 0.7726(2) 0.4316(2) 1.01685(18)
C106 C 0.8009(2) 0.3893(2) 1.06993(19)
H114 H 0.7593 0.3654 1.0975
C107 C 0.8885(2) 0.3732(2) 1.0933(2)
H115 H 0.8806 0.3131 1.0830
H116 H 0.9114 0.3885 1.1445
H117 H 0.9304 0.4075 1.0675
C108 C 0.6810(2) 0.4412(2) 1.0033(2)
H118 H 0.6530 0.4186 1.0420
H119 H 0.6452 0.4100 0.9581
H120 H 0.6857 0.5012 1.0012
O37 O 0.39697(16) 0.47055(15) 0.17461(13)
O38 O 0.43552(16) 0.57539(15) 0.07108(13)
O39 O 0.36618(17) 0.71893(16) 0.06724(14)
O40 O 0.34303(17) 0.72420(15) 0.21652(13)
H121 H 0.3562 0.7744 0.2054
O41 O 0.13119(18) 0.24182(16) 0.31868(14)
O42 O 0.26002(18) 0.33071(15) 0.39054(13)
O43 O 0.35838(16) 0.50239(15) 0.33524(13)
O44 O 0.19303(15) 0.41238(14) 0.06927(12)
O45 O 0.09708(17) 0.28020(15) 0.04752(13)
C109 C 0.3647(2) 0.5287(2) 0.16790(18)
C110 C 0.3857(2) 0.5900(2) 0.11557(18)
C111 C 0.3520(2) 0.6553(2) 0.10996(18)
C112 C 0.2917(2) 0.6686(2) 0.15507(19)
H122 H 0.2489 0.6949 0.1267
C113 C 0.2401(2) 0.5857(2) 0.18014(18)
C114 C 0.1770(2) 0.5997(2) 0.22523(19)
H123 H 0.1841 0.5748 0.2716
H124 H 0.1797 0.6597 0.2317
C115 C 0.0953(2) 0.5465(2) 0.16921(19)
H125 H 0.0647 0.4933 0.1890
C116 C 0.1562(2) 0.5280(2) 0.12218(17)
C117 C 0.1430(2) 0.4318(2) 0.11799(18)
H126 H 0.0787 0.4008 0.0989
C118 C 0.1730(2) 0.4015(2) 0.18966(18)
C119 C 0.1271(2) 0.3257(2) 0.21443(19)
H127 H 0.0733 0.2882 0.1868
C120 C 0.1652(2) 0.3097(2) 0.28127(18)
C121 C 0.2430(3) 0.3627(2) 0.32470(19)
C122 C 0.2860(2) 0.4379(2) 0.30058(18)
C123 C 0.2503(2) 0.4534(2) 0.23201(18)
C124 C 0.3038(2) 0.5384(2) 0.21542(18)
C125 C 0.0294(2) 0.5919(2) 0.1374(2)
H128 H -0.0008 0.6027 0.1734
H129 H -0.0142 0.5564 0.0968
H130 H 0.0607 0.6458 0.1213
C126 C 0.1417(2) 0.5564(2) 0.04718(18)
H131 H 0.1916 0.5560 0.0268
H132 H 0.1372 0.6138 0.0488
H133 H 0.0870 0.5177 0.0177
C127 C 0.3620(2) 0.5749(2) 0.29115(18)
H134 H 0.4238 0.6043 0.2886
H135 H 0.3389 0.6159 0.3118
C128 C 0.2028(3) 0.2444(2) 0.3771(2)
H136 H 0.2355 0.2067 0.3654
H137 H 0.1803 0.2255 0.4197
C129 C 0.5257(2) 0.5816(3) 0.1041(2)
H138 H 0.5496 0.6281 0.1417
H139 H 0.5612 0.5927 0.0683
H140 H 0.5275 0.5284 0.1246
C130 C 0.4348(3) 0.7329(3) 0.0280(2)
H141 H 0.4905 0.7338 0.0603
H142 H 0.4423 0.7871 0.0068
H143 H 0.4180 0.6870 -0.0097
C131 C 0.1631(2) 0.3316(2) 0.03852(18)
C132 C 0.2238(2) 0.3179(2) -0.00526(18)
C133 C 0.1971(2) 0.2534(2) -0.05583(19)
H144 H 0.2408 0.2497 -0.0801
C134 C 0.1101(3) 0.1868(2) -0.0799(2)
H145 H 0.0680 0.1973 -0.0544
H146 H 0.1170 0.1312 -0.0702
H147 H 0.0878 0.1880 -0.1311
C135 C 0.3163(2) 0.3785(2) 0.0113(2)
H148 H 0.3514 0.3599 -0.0170
H149 H 0.3433 0.3797 0.0620
H150 H 0.3146 0.4353 -0.0002
O46 O 0.62192(16) 0.16763(15) 0.32020(13)
O47 O 0.55078(18) 0.22731(17) 0.41494(14)
O48 O 0.59463(19) 0.39682(17) 0.44185(15)
O49 O 0.60535(16) 0.43912(15) 0.28365(14)
H151 H 0.6176 0.4907 0.2765
O50 O 0.92251(17) 0.17295(16) 0.18179(14)
O51 O 0.78559(17) 0.15852(16) 0.10769(13)
O52 O 0.65539(16) 0.23659(15) 0.16020(13)
O53 O 0.81674(15) 0.28034(14) 0.42957(12)
O54 O 0.9319(2) 0.2322(2) 0.46732(16)
C136 C 0.6376(2) 0.2448(2) 0.32782(18)
C137 C 0.6017(2) 0.2828(2) 0.37752(19)
C138 C 0.6225(2) 0.3674(2) 0.38867(19)
C139 C 0.6706(2) 0.4275(2) 0.34233(18)
H152 H 0.7030 0.4832 0.3704
C140 C 0.7366(2) 0.3946(2) 0.31481(17)
C141 C 0.7853(2) 0.4567(2) 0.26674(19)
H153 H 0.7774 0.4309 0.2183
H154 H 0.7710 0.5105 0.2645
C142 C 0.8763(2) 0.4648(2) 0.31575(19)
H155 H 0.9077 0.4333 0.2922
C143 C 0.8299(2) 0.4081(2) 0.36928(17)
C144 C 0.8619(2) 0.3299(2) 0.37936(17)
H156 H 0.9271 0.3488 0.4000
C145 C 0.8421(2) 0.2778(2) 0.31021(18)
C146 C 0.9027(2) 0.2460(2) 0.28587(18)
H157 H 0.9599 0.2520 0.3144
C147 C 0.8739(2) 0.2057(2) 0.21816(19)
C148 C 0.7922(2) 0.1967(2) 0.17329(19)
C149 C 0.7346(2) 0.2308(2) 0.19659(18)
C150 C 0.7608(2) 0.2677(2) 0.26566(18)
C151 C 0.6916(2) 0.3026(2) 0.28116(17)
C152 C 0.9373(3) 0.5540(2) 0.3416(2)
H158 H 0.9552 0.5834 0.3011
H159 H 0.9899 0.5511 0.3762
H160 H 0.9062 0.5849 0.3642
C153 C 0.8429(2) 0.4538(2) 0.44179(18)
H161 H 0.8010 0.4193 0.4675
H162 H 0.8327 0.5086 0.4352
H163 H 0.9035 0.4627 0.4693
C154 C 0.6291(2) 0.2913(2) 0.20550(18)
H164 H 0.5668 0.2650 0.2080
H165 H 0.6349 0.3470 0.1859
C155 C 0.8604(3) 0.1273(2) 0.1194(2)
H166 H 0.8415 0.0660 0.1259
H167 H 0.8878 0.1359 0.0780
C156 C 0.4639(2) 0.2336(3) 0.4098(2)
H168 H 0.4673 0.2807 0.4423
H169 H 0.4259 0.1808 0.4225
H170 H 0.4391 0.2435 0.3609
C157 C 0.5861(4) 0.4785(3) 0.4432(3)
H171 H 0.6407 0.5196 0.4368
H172 H 0.5751 0.4924 0.4891
H173 H 0.5365 0.4803 0.4048
C158 C 0.8610(3) 0.2359(2) 0.4729(2)
C159 C 0.8090(2) 0.1954(2) 0.5248(2)
C160 C 0.8386(2) 0.1496(2) 0.57434(19)
H174 H 0.7997 0.1269 0.6044
C161 C 0.9225(2) 0.1277(2) 0.59069(19)
H175 H 0.9573 0.1506 0.5559
H176 H 0.9090 0.0661 0.5884
H177 H 0.9566 0.1522 0.6385
C162 C 0.7207(3) 0.2096(3) 0.5194(2)
H178 H 0.6926 0.1798 0.5558
H179 H 0.6826 0.1879 0.4722
H180 H 0.7295 0.2703 0.5269
O55 O 0.59884(16) -0.01605(15) 0.81094(13)
O56 O 0.55999(15) 0.06035(15) 0.91845(13)
O57 O 0.63511(17) 0.24553(15) 0.93501(13)
O58 O 0.65009(17) 0.26606(15) 0.78093(13)
H181 H 0.6452 0.3138 0.7896
O59 O 0.86946(17) -0.08545(16) 0.67199(13)
O60 O 0.74341(17) -0.07053(15) 0.59930(13)
O61 O 0.64532(16) 0.04406(14) 0.65522(12)
O62 O 0.80562(15) 0.05030(14) 0.92291(12)
O63 O 0.90493(19) -0.02065(19) 0.94672(16)
C163 C 0.6332(2) 0.0612(2) 0.82278(17)
C164 C 0.6129(2) 0.1080(2) 0.87730(18)
C165 C 0.6471(2) 0.1936(2) 0.88751(18)
C166 C 0.7044(2) 0.2443(2) 0.84198(18)
H182 H 0.7457 0.2974 0.8702
C167 C 0.7581(2) 0.1948(2) 0.81474(17)
C168 C 0.8207(2) 0.2489(2) 0.77137(18)
H183 H 0.8190 0.3079 0.7693
H184 H 0.8122 0.2226 0.7230
C169 C 0.9035(2) 0.2405(2) 0.82476(18)
H185 H 0.9311 0.2042 0.8022
C170 C 0.8427(2) 0.1872(2) 0.87193(17)
C171 C 0.8562(2) 0.0995(2) 0.87482(17)
H186 H 0.9204 0.1070 0.8941
C172 C 0.8271(2) 0.0509(2) 0.80296(17)
C173 C 0.8721(2) 0.0009(2) 0.77734(18)
H187 H 0.9248 -0.0060 0.8053
C174 C 0.8353(2) -0.0371(2) 0.70963(19)
C175 C 0.7590(2) -0.0285(2) 0.66508(18)
C176 C 0.7167(2) 0.0218(2) 0.69020(18)
C177 C 0.7507(2) 0.0579(2) 0.75961(18)
C178 C 0.6956(2) 0.1092(2) 0.77730(17)
C179 C 0.9729(2) 0.3234(2) 0.8582(2)
H188 H 1.0018 0.3524 0.8219
H189 H 1.0172 0.3116 0.8964
H190 H 0.9445 0.3596 0.8779
C180 C 0.8575(2) 0.2258(2) 0.94697(18)
H191 H 0.8099 0.1938 0.9686
H192 H 0.8579 0.2848 0.9453
H193 H 0.9144 0.2237 0.9754
C181 C 0.6386(2) 0.1120(2) 0.70188(18)
H194 H 0.5762 0.1025 0.7038
H195 H 0.6609 0.1678 0.6835
C182 C 0.7987(3) -0.1244(2) 0.6121(2)
H196 H 0.7644 -0.1813 0.6222
H197 H 0.8222 -0.1304 0.5699
C183 C 0.4673(2) 0.0356(2) 0.8856(2)
H198 H 0.4486 0.0863 0.8781
H199 H 0.4340 0.0000 0.9165
H200 H 0.4561 0.0038 0.8397
C184 C 0.5900(3) 0.2131(3) 0.9901(2)
H201 H 0.5268 0.1867 0.9690
H202 H 0.5978 0.2597 1.0250
H203 H 0.6146 0.1709 1.0138
C185 C 0.8385(2) -0.0089(2) 0.95566(19)
C186 C 0.8094(2) -0.1025(2) 1.05179(19)
H204 H 0.7672 -0.1310 1.0774
C187 C 0.8973(3) -0.1172(2) 1.0735(2)
H205 H 0.9365 -0.0861 1.0443
H206 H 0.8893 -0.1779 1.0667
H207 H 0.9235 -0.0974 1.1237
C188 C 0.6903(2) -0.0458(2) 0.9918(2)
H208 H 0.6568 -0.0839 1.0213
H209 H 0.6592 -0.0600 0.9417
H210 H 0.6958 0.0128 1.0057
C189 C 0.7809(2) -0.0556(2) 1.00218(19)
O64 O 0.59158(19) 0.7396(2) 0.31077(16)
O65 O 0.86830(17) 0.66212(17) 0.17774(13)
O66 O 0.74624(17) 0.67912(15) 0.10083(12)
O67 O 0.64495(16) 0.79385(15) 0.15209(12)
O68 O 0.78929(16) 0.79958(14) 0.42335(12)
O69 O 0.87467(19) 0.71460(17) 0.44291(14)
C190 C 0.6270(3) 0.8165(3) 0.3199(2)
O70 O 0.5600(2) 0.8366(2) 0.41643(17)
O71 O 0.6412(2) 1.0198(2) 0.41964(17)
O72 O 0.6678(2) 1.0291(2) 0.27136(17)
H211 H 0.6478 1.0671 0.2828
C191 C 0.6122(3) 0.8748(4) 0.3721(3)
C192 C 0.6511(3) 0.9603(3) 0.3776(3)
C193 C 0.7150(3) 1.0037(3) 0.3337(3)
H212 H 0.7595 1.0550 0.3622
C194 C 0.7629(3) 0.9462(3) 0.3108(3)
C195 C 0.8302(3) 0.9922(3) 0.2675(3)
H213 H 0.8244 0.9605 0.2221
H214 H 0.8318 1.0514 0.2601
C196 C 0.4685(3) 0.7953(3) 0.3828(3)
H215 H 0.4460 0.8333 0.3511
H216 H 0.4342 0.7812 0.4193
H217 H 0.4629 0.7434 0.3552
C197 C 0.5692(3) 1.0007(3) 0.4551(3)
H218 H 0.5148 0.9662 0.4222
H219 H 0.5612 1.0536 0.4707
H220 H 0.5828 0.9695 0.4965
C198 C 0.9019(3) 0.9844(2) 0.3250(2)
H221 H 0.9311 0.9457 0.3076
C199 C 0.8367(3) 0.9348(2) 0.37086(19)
C200 C 0.8449(3) 0.8447(2) 0.37686(18)
H222 H 0.9079 0.8494 0.3987
C201 C 0.8179(2) 0.7961(2) 0.30530(18)
C202 C 0.8652(2) 0.7468(2) 0.28201(19)
H223 H 0.9167 0.7395 0.3117
C203 C 0.8317(2) 0.7102(2) 0.21364(19)
C204 C 0.7578(2) 0.7197(2) 0.16614(18)
C205 C 0.7137(2) 0.7700(2) 0.18925(18)
C206 C 0.7441(2) 0.8046(2) 0.25936(18)
C207 C 0.6906(3) 0.8593(2) 0.27436(19)
C208 C 0.9718(3) 1.0671(2) 0.3582(2)
H224 H 1.0016 1.0951 0.3220
H225 H 1.0153 1.0553 0.3971
H226 H 0.9435 1.1042 0.3768
C209 C 0.8506(3) 0.9753(2) 0.4457(2)
H227 H 0.8001 0.9469 0.4657
H228 H 0.8558 1.0354 0.4433
H229 H 0.9049 0.9695 0.4759
C210 C 0.6365(3) 0.8617(2) 0.19764(18)
H230 H 0.5736 0.8523 0.1977
H231 H 0.6599 0.9175 0.1796
C211 C 0.8000(3) 0.6242(2) 0.1160(2)
H232 H 0.7640 0.5674 0.1249
H233 H 0.8260 0.6180 0.0752
C212 C 0.8133(3) 0.7342(2) 0.45384(18)
C213 C 0.7539(2) 0.6929(2) 0.50098(19)
C214 C 0.7801(3) 0.6467(2) 0.55223(19)
H234 H 0.7376 0.6227 0.5791
C215 C 0.8646(3) 0.6263(2) 0.5745(2)
H235 H 0.9068 0.6578 0.5477
H236 H 0.8533 0.5655 0.5649
H237 H 0.8892 0.6423 0.6254
C216 C 0.6645(3) 0.7057(3) 0.4887(2)
H238 H 0.6324 0.6755 0.5228
H239 H 0.6309 0.6837 0.4402
H240 H 0.6718 0.7662 0.4951
O76 O 0.42429(19) 0.33723(17) 0.24978(17)
H251 H 0.400(2) 0.369(2) 0.226(2)
H252 H 0.4774(10) 0.367(2) 0.263(2)
O77 O 0.4269(2) 0.58225(17) 0.7296(2)
H253 H 0.4788(11) 0.615(2) 0.734(3)
H254 H 0.394(2) 0.610(3) 0.711(3)
O78 O 0.6648(2) 0.60983(17) 0.30433(18)
H255 H 0.636(2) 0.644(2) 0.302(3)
H256 H 0.7162(12) 0.635(2) 0.300(3)
O79 O 0.6708(2) 0.85890(16) 0.79378(17)
H257 H 0.643(2) 0.894(2) 0.795(3)
H258 H 0.7201(14) 0.885(2) 0.786(3)
O73? O 0.5245(6) 0.7799(6) 0.4028(5)
O74? O 0.5826(6) 0.9479(5) 0.4358(5)
O75? O 0.6133(6) 1.0000(6) 0.2822(5)
H241? H 0.6449 1.0340 0.2596
C217? C 0.5796(9) 0.8324(8) 0.3663(7)
C218? C 0.6112(9) 0.9172(8) 0.3824(7)
C219? C 0.6695(9) 0.9775(8) 0.3433(7)
H242? H 0.7063 1.0295 0.3753
C220? C 0.7292(9) 0.9369(8) 0.3141(7)
C221? C 0.7932(9) 0.9959(8) 0.2756(7)
H243? H 0.7925 1.0550 0.2807
H244? H 0.7797 0.9770 0.2245
C222? C 0.4350(8) 0.7869(9) 0.3909(7)
H245? H 0.4009 0.7472 0.4191
H246? H 0.4384 0.8448 0.4053
H247? H 0.4057 0.7735 0.3403
C223? C 0.6160(9) 1.0377(8) 0.4584(7)
H248? H 0.5893 1.0492 0.4967
H249? H 0.6804 1.0547 0.4756
H250? H 0.6008 1.0698 0.4180
loop_
_geom_bond_atom_site_label_1
_geom_bond_atom_site_label_2
_geom_bond_site_symmetry_1
_geom_bond_site_symmetry_2
O1 C1 1_555 1_555
O2 C2 1_555 1_555
O3 C3 1_555 1_555
O4 H1 1_555 1_555
O5 C12 1_555 1_555
O6 C13 1_555 1_555
O7 C14 1_555 1_555
O8 C9 1_555 1_555
O9 C23 1_555 1_555
C1 C2 1_555 1_555
C2 C3 1_555 1_555
C3 C4 1_555 1_555
C4 O4 1_555 1_555
H2 C4 1_555 1_555
C5 C4 1_555 1_555
C6 C5 1_555 1_555
H3 C6 1_555 1_555
H4 C6 1_555 1_555
C7 C6 1_555 1_555
H5 C7 1_555 1_555
C8 C5 1_555 1_555
C9 C8 1_555 1_555
H6 C9 1_555 1_555
C10 C9 1_555 1_555
C11 C10 1_555 1_555
H7 C11 1_555 1_555
C12 C11 1_555 1_555
C13 C12 1_555 1_555
C14 C13 1_555 1_555
C15 C10 1_555 1_555
C16 C1 1_555 1_555
C17 C7 1_555 1_555
H8 C17 1_555 1_555
H9 C17 1_555 1_555
H10 C17 1_555 1_555
C18 C8 1_555 1_555
H11 C18 1_555 1_555
H12 C18 1_555 1_555
H13 C18 1_555 1_555
C19 O7 1_555 1_555
H14 C19 1_555 1_555
H15 C19 1_555 1_555
C20 O5 1_555 1_555
H16 C20 1_555 1_555
H17 C20 1_555 1_555
C21 O2 1_555 1_555
H18 C21 1_555 1_555
H19 C21 1_555 1_555
H20 C21 1_555 1_555
C22 O3 1_555 1_555
H21 C22 1_555 1_555
H22 C22 1_555 1_555
H23 C22 1_555 1_555
C23 O8 1_555 1_555
C24 C23 1_555 1_555
C25 C24 1_555 1_555
H24 C25 1_555 1_555
C26 C25 1_555 1_555
H25 C26 1_555 1_555
H26 C26 1_555 1_555
H27 C26 1_555 1_555
C27 C24 1_555 1_555
H28 C27 1_555 1_555
H29 C27 1_555 1_555
H30 C27 1_555 1_555
O10 C28 1_555 1_555
O11 C29 1_555 1_555
O12 C30 1_555 1_555
O13 H31 1_555 1_555
O14 C39 1_555 1_555
O15 C40 1_555 1_555
O16 C41 1_555 1_555
O17 C36 1_555 1_555
O18 C50 1_555 1_555
C28 C29 1_555 1_555
C29 C30 1_555 1_555
C30 C31 1_555 1_555
C31 O13 1_555 1_555
H32 C31 1_555 1_555
C32 C31 1_555 1_555
C33 C32 1_555 1_555
H33 C33 1_555 1_555
H34 C33 1_555 1_555
C34 C33 1_555 1_555
H35 C34 1_555 1_555
C35 C32 1_555 1_555
C36 C35 1_555 1_555
H36 C36 1_555 1_555
C37 C36 1_555 1_555
C38 C37 1_555 1_555
H37 C38 1_555 1_555
C39 C38 1_555 1_555
C40 C39 1_555 1_555
C41 C40 1_555 1_555
C42 C37 1_555 1_555
C43 C28 1_555 1_555
C44 C34 1_555 1_555
H38 C44 1_555 1_555
H39 C44 1_555 1_555
H40 C44 1_555 1_555
C45 C35 1_555 1_555
H41 C45 1_555 1_555
H42 C45 1_555 1_555
H43 C45 1_555 1_555
C46 O16 1_555 1_555
H44 C46 1_555 1_555
H45 C46 1_555 1_555
C47 O14 1_555 1_555
H46 C47 1_555 1_555
H47 C47 1_555 1_555
C48 O11 1_555 1_555
H48 C48 1_555 1_555
H49 C48 1_555 1_555
H50 C48 1_555 1_555
C49 O12 1_555 1_555
H51 C49 1_555 1_555
H52 C49 1_555 1_555
H53 C49 1_555 1_555
C50 O17 1_555 1_555
C51 C50 1_555 1_555
C52 C51 1_555 1_555
H54 C52 1_555 1_555
C53 C52 1_555 1_555
H55 C53 1_555 1_555
H56 C53 1_555 1_555
H57 C53 1_555 1_555
C54 C51 1_555 1_555
H58 C54 1_555 1_555
H59 C54 1_555 1_555
H60 C54 1_555 1_555
O19 C55 1_555 1_555
O20 C56 1_555 1_555
O21 C57 1_555 1_555
O22 H61 1_555 1_555
O23 C66 1_555 1_555
O24 C67 1_555 1_555
O25 C68 1_555 1_555
O26 C63 1_555 1_555
O27 C77 1_555 1_555
C55 C56 1_555 1_555
C56 C57 1_555 1_555
C57 C58 1_555 1_555
C58 O22 1_555 1_555
H62 C58 1_555 1_555
C59 C58 1_555 1_555
C60 C59 1_555 1_555
H63 C60 1_555 1_555
H64 C60 1_555 1_555
C61 C60 1_555 1_555
H65 C61 1_555 1_555
C62 C59 1_555 1_555
C63 C62 1_555 1_555
H66 C63 1_555 1_555
C64 C63 1_555 1_555
C65 C64 1_555 1_555
H67 C65 1_555 1_555
C66 C65 1_555 1_555
C67 C66 1_555 1_555
C68 C67 1_555 1_555
C69 C64 1_555 1_555
C70 C55 1_555 1_555
C71 C61 1_555 1_555
H68 C71 1_555 1_555
H69 C71 1_555 1_555
H70 C71 1_555 1_555
C72 C62 1_555 1_555
H71 C72 1_555 1_555
H72 C72 1_555 1_555
H73 C72 1_555 1_555
C73 O25 1_555 1_555
H74 C73 1_555 1_555
H75 C73 1_555 1_555
C74 O23 1_555 1_555
H76 C74 1_555 1_555
H77 C74 1_555 1_555
C75 O20 1_555 1_555
H78 C75 1_555 1_555
H79 C75 1_555 1_555
H80 C75 1_555 1_555
C76 O21 1_555 1_555
H81 C76 1_555 1_555
H82 C76 1_555 1_555
H83 C76 1_555 1_555
C77 O26 1_555 1_555
C78 C77 1_555 1_555
C79 C78 1_555 1_555
H84 C79 1_555 1_555
C80 C79 1_555 1_555
H85 C80 1_555 1_555
H86 C80 1_555 1_555
H87 C80 1_555 1_555
C81 C78 1_555 1_555
H88 C81 1_555 1_555
H89 C81 1_555 1_555
H90 C81 1_555 1_555
O28 C82 1_555 1_555
O29 C83 1_555 1_555
O30 C84 1_555 1_555
O31 H91 1_555 1_555
O32 C93 1_555 1_555
O33 C94 1_555 1_555
O34 C95 1_555 1_555
O35 C90 1_555 1_555
O36 C104 1_555 1_555
C82 C83 1_555 1_555
C83 C84 1_555 1_555
C84 C85 1_555 1_555
C85 O31 1_555 1_555
H92 C85 1_555 1_555
C86 C85 1_555 1_555
C87 C86 1_555 1_555
H93 C87 1_555 1_555
H94 C87 1_555 1_555
C88 C87 1_555 1_555
H95 C88 1_555 1_555
C89 C86 1_555 1_555
C90 C89 1_555 1_555
H96 C90 1_555 1_555
C91 C90 1_555 1_555
C92 C91 1_555 1_555
H97 C92 1_555 1_555
C93 C92 1_555 1_555
C94 C93 1_555 1_555
C95 C94 1_555 1_555
C96 C91 1_555 1_555
C97 C82 1_555 1_555
C98 C88 1_555 1_555
H98 C98 1_555 1_555
H99 C98 1_555 1_555
H100 C98 1_555 1_555
C99 C89 1_555 1_555
H101 C99 1_555 1_555
H102 C99 1_555 1_555
H103 C99 1_555 1_555
C100 O34 1_555 1_555
H104 C100 1_555 1_555
H105 C100 1_555 1_555
C101 O32 1_555 1_555
H106 C101 1_555 1_555
H107 C101 1_555 1_555
C102 O29 1_555 1_555
H108 C102 1_555 1_555
H109 C102 1_555 1_555
H110 C102 1_555 1_555
C103 O30 1_555 1_555
H111 C103 1_555 1_555
H112 C103 1_555 1_555
H113 C103 1_555 1_555
C104 O35 1_555 1_555
C105 C104 1_555 1_555
C106 C105 1_555 1_555
H114 C106 1_555 1_555
C107 C106 1_555 1_555
H115 C107 1_555 1_555
H116 C107 1_555 1_555
H117 C107 1_555 1_555
C108 C105 1_555 1_555
H118 C108 1_555 1_555
H119 C108 1_555 1_555
H120 C108 1_555 1_555
O37 C109 1_555 1_555
O38 C110 1_555 1_555
O39 C111 1_555 1_555
O40 H121 1_555 1_555
O41 C120 1_555 1_555
O42 C121 1_555 1_555
O43 C122 1_555 1_555
O44 C117 1_555 1_555
O45 C131 1_555 1_555
C109 C110 1_555 1_555
C110 C111 1_555 1_555
C111 C112 1_555 1_555
C112 O40 1_555 1_555
H122 C112 1_555 1_555
C113 C112 1_555 1_555
C114 C113 1_555 1_555
H123 C114 1_555 1_555
H124 C114 1_555 1_555
C115 C114 1_555 1_555
H125 C115 1_555 1_555
C116 C113 1_555 1_555
C117 C116 1_555 1_555
H126 C117 1_555 1_555
C118 C117 1_555 1_555
C119 C118 1_555 1_555
H127 C119 1_555 1_555
C120 C119 1_555 1_555
C121 C120 1_555 1_555
C122 C121 1_555 1_555
C123 C118 1_555 1_555
C124 C109 1_555 1_555
C125 C115 1_555 1_555
H128 C125 1_555 1_555
H129 C125 1_555 1_555
H130 C125 1_555 1_555
C126 C116 1_555 1_555
H131 C126 1_555 1_555
H132 C126 1_555 1_555
H133 C126 1_555 1_555
C127 O43 1_555 1_555
H134 C127 1_555 1_555
H135 C127 1_555 1_555
C128 O41 1_555 1_555
H136 C128 1_555 1_555
H137 C128 1_555 1_555
C129 O38 1_555 1_555
H138 C129 1_555 1_555
H139 C129 1_555 1_555
H140 C129 1_555 1_555
C130 O39 1_555 1_555
H141 C130 1_555 1_555
H142 C130 1_555 1_555
H143 C130 1_555 1_555
C131 O44 1_555 1_555
C132 C131 1_555 1_555
C133 C132 1_555 1_555
H144 C133 1_555 1_555
C134 C133 1_555 1_555
H145 C134 1_555 1_555
H146 C134 1_555 1_555
H147 C134 1_555 1_555
C135 C132 1_555 1_555
H148 C135 1_555 1_555
H149 C135 1_555 1_555
H150 C135 1_555 1_555
O46 C136 1_555 1_555
O47 C137 1_555 1_555
O48 C138 1_555 1_555
O49 H151 1_555 1_555
O50 C147 1_555 1_555
O51 C148 1_555 1_555
O52 C149 1_555 1_555
O53 C144 1_555 1_555
O54 C158 1_555 1_555
C136 C137 1_555 1_555
C137 C138 1_555 1_555
C138 C139 1_555 1_555
C139 O49 1_555 1_555
H152 C139 1_555 1_555
C140 C139 1_555 1_555
C141 C140 1_555 1_555
H153 C141 1_555 1_555
H154 C141 1_555 1_555
C142 C141 1_555 1_555
H155 C142 1_555 1_555
C143 C140 1_555 1_555
C144 C143 1_555 1_555
H156 C144 1_555 1_555
C145 C144 1_555 1_555
C146 C145 1_555 1_555
H157 C146 1_555 1_555
C147 C146 1_555 1_555
C148 C147 1_555 1_555
C149 C148 1_555 1_555
C150 C145 1_555 1_555
C151 C136 1_555 1_555
C152 C142 1_555 1_555
H158 C152 1_555 1_555
H159 C152 1_555 1_555
H160 C152 1_555 1_555
C153 C143 1_555 1_555
H161 C153 1_555 1_555
H162 C153 1_555 1_555
H163 C153 1_555 1_555
C154 O52 1_555 1_555
H164 C154 1_555 1_555
H165 C154 1_555 1_555
C155 O50 1_555 1_555
H166 C155 1_555 1_555
H167 C155 1_555 1_555
C156 O47 1_555 1_555
H168 C156 1_555 1_555
H169 C156 1_555 1_555
H170 C156 1_555 1_555
C157 O48 1_555 1_555
H171 C157 1_555 1_555
H172 C157 1_555 1_555
H173 C157 1_555 1_555
C158 O53 1_555 1_555
C159 C158 1_555 1_555
C160 C159 1_555 1_555
H174 C160 1_555 1_555
C161 C160 1_555 1_555
H175 C161 1_555 1_555
H176 C161 1_555 1_555
H177 C161 1_555 1_555
C162 C159 1_555 1_555
H178 C162 1_555 1_555
H179 C162 1_555 1_555
H180 C162 1_555 1_555
O55 C163 1_555 1_555
O56 C164 1_555 1_555
O57 C165 1_555 1_555
O58 H181 1_555 1_555
O59 C174 1_555 1_555
O60 C175 1_555 1_555
O61 C176 1_555 1_555
O62 C171 1_555 1_555
O63 C185 1_555 1_555
C163 C164 1_555 1_555
C164 C165 1_555 1_555
C165 C166 1_555 1_555
C166 O58 1_555 1_555
H182 C166 1_555 1_555
C167 C166 1_555 1_555
C168 C167 1_555 1_555
H183 C168 1_555 1_555
H184 C168 1_555 1_555
C169 C168 1_555 1_555
H185 C169 1_555 1_555
C170 C167 1_555 1_555
C171 C170 1_555 1_555
H186 C171 1_555 1_555
C172 C171 1_555 1_555
C173 C172 1_555 1_555
H187 C173 1_555 1_555
C174 C173 1_555 1_555
C175 C174 1_555 1_555
C176 C175 1_555 1_555
C177 C172 1_555 1_555
C178 C163 1_555 1_555
C179 C169 1_555 1_555
H188 C179 1_555 1_555
H189 C179 1_555 1_555
H190 C179 1_555 1_555
C180 C170 1_555 1_555
H191 C180 1_555 1_555
H192 C180 1_555 1_555
H193 C180 1_555 1_555
C181 O61 1_555 1_555
H194 C181 1_555 1_555
H195 C181 1_555 1_555
C182 O59 1_555 1_555
H196 C182 1_555 1_555
H197 C182 1_555 1_555
C183 O56 1_555 1_555
H198 C183 1_555 1_555
H199 C183 1_555 1_555
H200 C183 1_555 1_555
C184 O57 1_555 1_555
H201 C184 1_555 1_555
H202 C184 1_555 1_555
H203 C184 1_555 1_555
C185 O62 1_555 1_555
C186 H204 1_555 1_555
C187 C186 1_555 1_555
H205 C187 1_555 1_555
H206 C187 1_555 1_555
H207 C187 1_555 1_555
C188 H208 1_555 1_555
H209 C188 1_555 1_555
H210 C188 1_555 1_555
C189 C185 1_555 1_555
O64 C190 1_555 1_555
O65 C203 1_555 1_555
O66 C204 1_555 1_555
O67 C205 1_555 1_555
O68 C200 1_555 1_555
O69 C212 1_555 1_555
C190 C191 1_555 1_555
O70 C191 1_555 1_555
O71 C192 1_555 1_555
O72 H211 1_555 1_555
C191 C192 1_555 1_555
C192 C193 1_555 1_555
C193 O72 1_555 1_555
H212 C193 1_555 1_555
C194 C193 1_555 1_555
C195 C194 1_555 1_555
H213 C195 1_555 1_555
H214 C195 1_555 1_555
C196 O70 1_555 1_555
H215 C196 1_555 1_555
H216 C196 1_555 1_555
H217 C196 1_555 1_555
C197 O71 1_555 1_555
H218 C197 1_555 1_555
H219 C197 1_555 1_555
H220 C197 1_555 1_555
C198 C195 1_555 1_555
H221 C198 1_555 1_555
C199 C194 1_555 1_555
C200 C199 1_555 1_555
H222 C200 1_555 1_555
C201 C200 1_555 1_555
C202 C201 1_555 1_555
H223 C202 1_555 1_555
C203 C202 1_555 1_555
C204 C203 1_555 1_555
C205 C204 1_555 1_555
C206 C201 1_555 1_555
C207 C190 1_555 1_555
C208 C198 1_555 1_555
H224 C208 1_555 1_555
H225 C208 1_555 1_555
H226 C208 1_555 1_555
C209 C199 1_555 1_555
H227 C209 1_555 1_555
H228 C209 1_555 1_555
H229 C209 1_555 1_555
C210 O67 1_555 1_555
H230 C210 1_555 1_555
H231 C210 1_555 1_555
C211 O65 1_555 1_555
H232 C211 1_555 1_555
H233 C211 1_555 1_555
C212 O68 1_555 1_555
C213 C212 1_555 1_555
C214 C213 1_555 1_555
H234 C214 1_555 1_555
C215 C214 1_555 1_555
H235 C215 1_555 1_555
H236 C215 1_555 1_555
H237 C215 1_555 1_555
C216 C213 1_555 1_555
H238 C216 1_555 1_555
H239 C216 1_555 1_555
H240 C216 1_555 1_555
O76 H251 1_555 1_555
H252 O76 1_555 1_555
O77 H253 1_555 1_555
H254 O77 1_555 1_555
O78 H255 1_555 1_555
H256 O78 1_555 1_555
O79 H257 1_555 1_555
H258 O79 1_555 1_555
O6 C20 1_555 1_555
C5 C16 1_555 1_555
C7 C8 1_555 1_555
C14 C15 1_555 1_555
C15 C16 1_555 1_555
C16 C19 1_555 1_555
O15 C47 1_555 1_555
C32 C43 1_555 1_555
C34 C35 1_555 1_555
C41 C42 1_555 1_555
C42 C43 1_555 1_555
C43 C46 1_555 1_555
O24 C74 1_555 1_555
C59 C70 1_555 1_555
C61 C62 1_555 1_555
C68 C69 1_555 1_555
C69 C70 1_555 1_555
C70 C73 1_555 1_555
O33 C101 1_555 1_555
C86 C97 1_555 1_555
C88 C89 1_555 1_555
C95 C96 1_555 1_555
C96 C97 1_555 1_555
C97 C100 1_555 1_555
O42 C128 1_555 1_555
C113 C124 1_555 1_555
C115 C116 1_555 1_555
C122 C123 1_555 1_555
C123 C124 1_555 1_555
C124 C127 1_555 1_555
O51 C155 1_555 1_555
C140 C151 1_555 1_555
C142 C143 1_555 1_555
C149 C150 1_555 1_555
C150 C151 1_555 1_555
C151 C154 1_555 1_555
O60 C182 1_555 1_555
C167 C178 1_555 1_555
C169 C170 1_555 1_555
C176 C177 1_555 1_555
C177 C178 1_555 1_555
C178 C181 1_555 1_555
C186 C189 1_555 1_555
C188 C189 1_555 1_555
O66 C211 1_555 1_555
C194 C207 1_555 1_555
C198 C199 1_555 1_555
C205 C206 1_555 1_555
C206 C207 1_555 1_555
C207 C210 1_555 1_555

#END
