
#######################################################################
#
#                 Cambridge Crystallographic Data Centre
#                                CCDC 
#
#######################################################################
#
# If this CIF has been generated from an entry in the Cambridge 
# Structural Database, then it will include bibliographic, chemical, 
# crystal, experimental, refinement or atomic coordinate data resulting 
# from the CCDC's data processing and validation procedures.
#
#######################################################################

data_XIMVIB
_chemical_formula_moiety         'C22 H16 O3'
_chemical_name_systematic        
3,3a-diphenyl-3a,8a-dihydrofuro[2,3-b][1]benzofuran-2(3H)-one
_symmetry_cell_setting           orthorhombic
_symmetry_space_group_name_H-M   'P 21 21 21'
_symmetry_Int_Tables_number      19
_space_group_name_Hall           'P 2ac 2ab'
loop_
_symmetry_equiv_pos_site_id
_symmetry_equiv_pos_as_xyz
1 x,y,z
2 1/2-x,-y,1/2+z
3 -x,1/2+y,1/2-z
4 1/2+x,1/2-y,-z
_cell_length_a                   9.1407(2)
_cell_length_b                   9.4310(2)
_cell_length_c                   18.3374(5)
_cell_angle_alpha                90
_cell_angle_beta                 90
_cell_angle_gamma                90
_cell_volume                     1580.79
_exptl_crystal_description       block
_cell_formula_units_Z            4
loop_
_atom_site_label
_atom_site_type_symbol
_atom_site_fract_x
_atom_site_fract_y
_atom_site_fract_z
C1 C 0.8965(3) 0.7260(3) 0.15877(14)
C2 C 0.8243(3) 0.6019(3) 0.13993(15)
C3 C 0.8427(3) 0.5553(3) 0.06844(17)
C4 C 0.9252(3) 0.6312(3) 0.01868(15)
C5 C 0.9948(3) 0.7569(3) 0.03879(14)
C6 C 0.9791(3) 0.8040(2) 0.10999(13)
C7 C 0.9724(3) 0.9121(3) 0.22571(13)
C8 C 1.0472(3) 0.9288(2) 0.14941(13)
C9 C 1.2144(3) 0.9138(3) 0.15704(12)
C10 C 1.3041(3) 1.0287(3) 0.17320(15)
C11 C 1.4545(3) 1.0102(3) 0.18547(15)
C12 C 1.5148(3) 0.8756(3) 0.18294(14)
C13 C 1.4268(3) 0.7611(3) 0.16667(15)
C14 C 1.2777(3) 0.7800(3) 0.15399(14)
C15 C 0.8704(3) 1.1147(3) 0.17597(15)
C16 C 0.9911(3) 1.0761(3) 0.12287(14)
C17 C 0.9427(3) 1.0897(2) 0.04453(13)
C18 C 0.8048(3) 1.0431(3) 0.02136(14)
C19 C 0.7657(3) 1.0521(3) -0.05133(16)
C20 C 0.8631(4) 1.1074(3) -0.10241(16)
C21 C 0.9991(4) 1.1549(3) -0.07980(16)
C22 C 1.0372(3) 1.1478(3) -0.00652(16)
O1 O 0.89910(19) 0.78101(19) 0.22879(10)
O2 O 0.8653(2) 1.02231(19) 0.23297(10)
O3 O 0.7885(2) 1.2135(2) 0.17286(12)
H1 H 1.039(4) 0.918(3) 0.2693(17)
H2 H 0.941(4) 0.591(3) -0.0287(17)
H3 H 1.056(4) 1.148(4) 0.1287(18)
H4 H 1.265(4) 1.131(3) 0.1748(15)
H5 H 0.768(4) 0.550(3) 0.1774(17)
H6 H 0.664(4) 1.021(4) -0.070(2)
H7 H 0.733(4) 1.006(3) 0.0577(17)
H8 H 1.464(4) 0.664(4) 0.163(2)
H9 H 1.073(4) 1.200(4) -0.1192(19)
H10 H 0.796(4) 0.470(4) 0.0562(19)
H11 H 0.841(4) 1.115(4) -0.151(2)
H12 H 1.125(4) 1.186(4) 0.0106(19)
H13 H 1.049(4) 0.811(3) 0.0017(18)
H14 H 1.517(4) 1.097(4) 0.1954(18)
H15 H 1.214(4) 0.693(3) 0.1436(17)
loop_
_geom_bond_atom_site_label_1
_geom_bond_atom_site_label_2
_geom_bond_site_symmetry_1
_geom_bond_site_symmetry_2
C1 C2 1_555 1_555
C2 C3 1_555 1_555
C3 C4 1_555 1_555
C4 C5 1_555 1_555
C5 C6 1_555 1_555
C6 C1 1_555 1_555
C7 C8 1_555 1_555
C8 C6 1_555 1_555
C9 C8 1_555 1_555
C10 C9 1_555 1_555
C11 C10 1_555 1_555
C12 C11 1_555 1_555
C13 C12 1_555 1_555
C14 C9 1_555 1_555
C15 C16 1_555 1_555
C16 C8 1_555 1_555
C17 C16 1_555 1_555
C18 C17 1_555 1_555
C19 C18 1_555 1_555
C20 C19 1_555 1_555
C21 C20 1_555 1_555
C22 C17 1_555 1_555
O1 C1 1_555 1_555
O2 C7 1_555 1_555
O3 C15 1_555 1_555
H1 C7 1_555 1_555
H2 C4 1_555 1_555
H3 C16 1_555 1_555
H4 C10 1_555 1_555
H5 C2 1_555 1_555
H6 C19 1_555 1_555
H7 C18 1_555 1_555
H8 C13 1_555 1_555
H9 C21 1_555 1_555
H10 C3 1_555 1_555
H11 C20 1_555 1_555
H12 C22 1_555 1_555
H13 C5 1_555 1_555
H14 C11 1_555 1_555
H15 C14 1_555 1_555
C7 O1 1_555 1_555
C13 C14 1_555 1_555
C15 O2 1_555 1_555
C21 C22 1_555 1_555

#END
