
#######################################################################
#
#                 Cambridge Crystallographic Data Centre
#                                CCDC 
#
#######################################################################
#
# If this CIF has been generated from an entry in the Cambridge 
# Structural Database, then it will include bibliographic, chemical, 
# crystal, experimental, refinement or atomic coordinate data resulting 
# from the CCDC's data processing and validation procedures.
#
#######################################################################

data_XIMWEY
_chemical_formula_moiety         'C23 H19 N1 O2'
_chemical_name_systematic        
1-methyl-3,3a-diphenyl-1,3,3a,8a-tetrahydro-2H-[1]benzofuro[2,3-b]pyrrol-2-one
_symmetry_cell_setting           monoclinic
_symmetry_space_group_name_H-M   'P 21'
_symmetry_Int_Tables_number      4
_space_group_name_Hall           'P 2yb'
loop_
_symmetry_equiv_pos_site_id
_symmetry_equiv_pos_as_xyz
1 x,y,z
2 -x,1/2+y,-z
_cell_length_a                   9.0037(3)
_cell_length_b                   10.1606(3)
_cell_length_c                   9.5238(3)
_cell_angle_alpha                90
_cell_angle_beta                 91.637(3)
_cell_angle_gamma                90
_cell_volume                     870.91
_exptl_crystal_description       block
_cell_formula_units_Z            2
loop_
_atom_site_label
_atom_site_type_symbol
_atom_site_fract_x
_atom_site_fract_y
_atom_site_fract_z
O1 O -0.17016(19) -0.84210(19) -0.96500(17)
O2 O -0.3166(2) -0.61354(17) -1.34548(18)
C1 C -0.6100(2) -0.8069(2) -1.2735(2)
C2 C -0.3555(2) -0.8354(2) -1.3828(2)
C3 C -0.8536(3) -0.7757(3) -1.1785(3)
H1 H -0.9123 -0.7521 -1.1038
C4 C -0.3390(3) -0.9509(3) -1.4591(2)
H2 H -0.3836 -1.0286 -1.4304
N1 N -0.2653(2) -0.6836(2) -1.1121(2)
C5 C -0.3875(3) -0.8858(2) -1.1190(2)
H3 H -0.4679 -0.8822 -1.0518
C6 C -0.7005(3) -0.7696(3) -1.1639(3)
H4 H -0.6573 -0.7403 -1.0798
C7 C -0.2597(3) -0.8064(2) -1.0562(2)
C8 C -0.1900(3) -0.8324(3) -1.6235(3)
H5 H -0.1345 -0.8324 -1.7043
C9 C -0.3587(3) -1.0291(2) -1.1478(2)
C10 C -0.2153(3) -1.0782(3) -1.1633(3)
H6 H -0.1337 -1.0239 -1.1459
C11 C -0.3144(3) -1.2884(3) -1.2320(3)
H7 H -0.2994 -1.3743 -1.2621
C12 C -0.4571(3) -1.2422(3) -1.2148(3)
H8 H -0.5381 -1.2970 -1.2323
C13 C -0.2545(3) -0.9485(3) -1.5795(3)
H9 H -0.2413 -1.0254 -1.6306
C14 C -0.9197(3) -0.8166(3) -1.3039(3)
H10 H -1.0226 -0.8210 -1.3137
C15 C -0.1941(3) -1.2073(3) -1.2045(3)
H11 H -0.0982 -1.2395 -1.2137
C16 C -0.8316(3) -0.8508(3) -1.4141(3)
H12 H -0.8754 -0.8767 -1.4994
C17 C -0.4787(3) -1.1133(3) -1.1712(2)
H13 H -0.5747 -1.0829 -1.1575
C18 C -0.4408(2) -0.8048(2) -1.2509(2)
C19 C -0.3798(3) -0.6640(2) -1.2190(2)
H14 H -0.4583 -0.6060 -1.1857
C20 C -0.6773(3) -0.8468(3) -1.3985(3)
H15 H -0.6190 -0.8713 -1.4732
C21 C -0.2066(3) -0.7163(3) -1.5494(3)
H16 H -0.1635 -0.6382 -1.5789
C22 C -0.2899(3) -0.7213(2) -1.4295(3)
C23 C -0.1728(3) -0.5758(3) -1.0594(3)
H17 H -0.1166 -0.6045 -0.9779
H18 H -0.2347 -0.5030 -1.0348
H19 H -0.1061 -0.5489 -1.1309
loop_
_geom_bond_atom_site_label_1
_geom_bond_atom_site_label_2
_geom_bond_site_symmetry_1
_geom_bond_site_symmetry_2
O1 C7 1_555 1_555
O2 C19 1_555 1_555
C1 C6 1_555 1_555
C2 C4 1_555 1_555
C3 H1 1_555 1_555
C4 H2 1_555 1_555
N1 C7 1_555 1_555
C5 H3 1_555 1_555
C6 C3 1_555 1_555
H4 C6 1_555 1_555
C7 C5 1_555 1_555
C8 H5 1_555 1_555
C9 C5 1_555 1_555
C10 C9 1_555 1_555
H6 C10 1_555 1_555
C11 H7 1_555 1_555
C12 C11 1_555 1_555
H8 C12 1_555 1_555
C13 C4 1_555 1_555
H9 C13 1_555 1_555
C14 C3 1_555 1_555
H10 C14 1_555 1_555
C15 C10 1_555 1_555
H11 C15 1_555 1_555
C16 C14 1_555 1_555
H12 C16 1_555 1_555
C17 C9 1_555 1_555
H13 C17 1_555 1_555
C18 C1 1_555 1_555
C19 N1 1_555 1_555
H14 C19 1_555 1_555
C20 C1 1_555 1_555
H15 C20 1_555 1_555
C21 C8 1_555 1_555
H16 C21 1_555 1_555
C22 O2 1_555 1_555
C23 N1 1_555 1_555
H17 C23 1_555 1_555
H18 C23 1_555 1_555
H19 C23 1_555 1_555
C2 C18 1_555 1_555
C2 C22 1_555 1_555
C5 C18 1_555 1_555
C8 C13 1_555 1_555
C11 C15 1_555 1_555
C12 C17 1_555 1_555
C16 C20 1_555 1_555
C18 C19 1_555 1_555
C21 C22 1_555 1_555

#END
