
#######################################################################
#
#                 Cambridge Crystallographic Data Centre
#                                CCDC 
#
#######################################################################
#
# If this CIF has been generated from an entry in the Cambridge 
# Structural Database, then it will include bibliographic, chemical, 
# crystal, experimental, refinement or atomic coordinate data resulting 
# from the CCDC's data processing and validation procedures.
#
#######################################################################

data_XINBED
_chemical_formula_moiety         'C26 H33 N3 O1 S1 Si1'
_chemical_name_systematic        
2-(1,3-Benzothiazol-2-yl)-3-(2-((t-butyl(dimethyl)silyl)oxy)-4-(diethylamino)phenyl)acrylonitrile
_symmetry_cell_setting           orthorhombic
_symmetry_space_group_name_H-M   'P 21 21 21'
_symmetry_Int_Tables_number      19
_space_group_name_Hall           'P 2ac 2ab'
loop_
_symmetry_equiv_pos_site_id
_symmetry_equiv_pos_as_xyz
1 x,y,z
2 1/2+x,1/2-y,-z
3 -x,1/2+y,1/2-z
4 1/2-x,-y,1/2+z
_cell_length_a                   8.073(7)
_cell_length_b                   17.079(14)
_cell_length_c                   18.725(15)
_cell_angle_alpha                90
_cell_angle_beta                 90
_cell_angle_gamma                90
_cell_volume                     2581.78
_exptl_crystal_colour            yellow
_exptl_crystal_description       needle
_cell_formula_units_Z            4
loop_
_atom_site_label
_atom_site_type_symbol
_atom_site_fract_x
_atom_site_fract_y
_atom_site_fract_z
Si1 Si 0.52164(15) 1.05864(6) 0.94910(6)
S1 S 1.04692(19) 1.00368(7) 0.76243(7)
O1 O 0.5718(4) 0.98836(17) 0.89211(18)
N1 N 0.1623(8) 0.7894(3) 0.9305(4)
N2 N 0.8086(8) 0.7378(3) 0.6863(3)
N3 N 1.1211(5) 0.8752(2) 0.6937(2)
C1 C -0.0134(13) 0.7056(7) 0.8652(5)
H1 H -0.1013 0.7418 0.8753
H2 H -0.0583 0.6538 0.8604
H3 H 0.0407 0.7203 0.8216
C2 C 0.1057(10) 0.7068(4) 0.9235(4)
H4 H 0.1987 0.6727 0.9128
H5 H 0.0544 0.6892 0.9674
C3 C -0.0186(14) 0.8842(6) 0.9648(6)
H6 H 0.0411 0.9266 0.9430
H7 H -0.0949 0.9048 0.9994
H8 H -0.0785 0.8559 0.9288
C4 C 0.0935(11) 0.8336(4) 0.9988(5)
H9 H 0.0383 0.7983 1.0316
H10 H 0.1800 0.8620 1.0238
C5 C 0.2972(7) 0.8176(3) 0.8948(3)
C6 C 0.3640(7) 0.8904(3) 0.9090(3)
H11 H 0.3107 0.9226 0.9418
C7 C 0.5057(6) 0.9173(2) 0.8767(2)
C8 C 0.5885(6) 0.8716(2) 0.8258(2)
C9 C 0.5139(7) 0.7997(2) 0.8094(3)
H12 H 0.5636 0.7684 0.7748
C10 C 0.3750(7) 0.7733(3) 0.8406(3)
H13 H 0.3297 0.7257 0.8264
C11 C 0.3051(7) 1.0909(3) 0.9358(3)
H14 H 0.2705 1.0783 0.8881
H15 H 0.2980 1.1465 0.9429
H16 H 0.2346 1.0648 0.9695
C12 C 0.5487(9) 1.0204(4) 1.0405(3)
H17 H 0.4687 0.9799 1.0493
H18 H 0.5333 1.0620 1.0743
H19 H 0.6583 0.9993 1.0456
C13 C 0.6588(9) 1.1610(3) 0.8482(3)
H20 H 0.5499 1.1814 0.8395
H21 H 0.6768 1.1157 0.8188
H22 H 0.7399 1.2002 0.8371
C14 C 0.8528(7) 1.1099(3) 0.9398(3)
H23 H 0.8723 1.0627 0.9132
H24 H 0.8682 1.0998 0.9898
H25 H 0.9291 1.1496 0.9245
C15 C 0.6742(6) 1.1380(2) 0.9266(3)
C16 C 0.6388(10) 1.2100(3) 0.9734(4)
H26 H 0.7135 1.2515 0.9607
H27 H 0.6540 1.1965 1.0227
H28 H 0.5268 1.2269 0.9658
C17 C 0.7404(6) 0.8998(2) 0.7971(2)
H29 H 0.7708 0.9488 0.8145
C18 C 0.8499(6) 0.8695(2) 0.7493(2)
C19 C 0.8283(7) 0.7960(3) 0.7144(3)
C20 C 1.0053(6) 0.9084(2) 0.73209(19)
C21 C 1.2355(6) 0.9986(3) 0.7201(2)
C22 C 1.3623(8) 1.0559(3) 0.7185(3)
H30 H 1.3510 1.1042 0.7408
C23 C 1.5031(8) 1.0355(4) 0.6818(3)
H31 H 1.5894 1.0714 0.6796
C24 C 1.5225(8) 0.9654(4) 0.6487(3)
H32 H 1.6208 0.9550 0.6246
C25 C 1.4007(7) 0.9098(3) 0.6500(3)
H33 H 1.4142 0.8620 0.6269
C26 C 1.2541(6) 0.9276(3) 0.6875(2)
loop_
_geom_bond_atom_site_label_1
_geom_bond_atom_site_label_2
_geom_bond_site_symmetry_1
_geom_bond_site_symmetry_2
Si1 O1 1_555 1_555
S1 C20 1_555 1_555
O1 C7 1_555 1_555
N1 C2 1_555 1_555
N2 C19 1_555 1_555
N3 C20 1_555 1_555
C1 H1 1_555 1_555
H2 C1 1_555 1_555
H3 C1 1_555 1_555
C2 C1 1_555 1_555
H4 C2 1_555 1_555
H5 C2 1_555 1_555
C3 H6 1_555 1_555
H7 C3 1_555 1_555
H8 C3 1_555 1_555
C4 N1 1_555 1_555
H9 C4 1_555 1_555
H10 C4 1_555 1_555
C5 N1 1_555 1_555
C6 C5 1_555 1_555
H11 C6 1_555 1_555
C7 C6 1_555 1_555
C8 C7 1_555 1_555
C9 C8 1_555 1_555
H12 C9 1_555 1_555
C10 C5 1_555 1_555
H13 C10 1_555 1_555
C11 Si1 1_555 1_555
H14 C11 1_555 1_555
H15 C11 1_555 1_555
H16 C11 1_555 1_555
C12 Si1 1_555 1_555
H17 C12 1_555 1_555
H18 C12 1_555 1_555
H19 C12 1_555 1_555
C13 H20 1_555 1_555
H21 C13 1_555 1_555
H22 C13 1_555 1_555
C14 H23 1_555 1_555
H24 C14 1_555 1_555
H25 C14 1_555 1_555
C15 Si1 1_555 1_555
C16 C15 1_555 1_555
H26 C16 1_555 1_555
H27 C16 1_555 1_555
H28 C16 1_555 1_555
C17 C8 1_555 1_555
H29 C17 1_555 1_555
C18 C17 1_555 1_555
C19 C18 1_555 1_555
C20 C18 1_555 1_555
C21 S1 1_555 1_555
C22 C21 1_555 1_555
H30 C22 1_555 1_555
C23 C22 1_555 1_555
H31 C23 1_555 1_555
C24 C23 1_555 1_555
H32 C24 1_555 1_555
C25 C24 1_555 1_555
H33 C25 1_555 1_555
C26 N3 1_555 1_555
C3 C4 1_555 1_555
C9 C10 1_555 1_555
C13 C15 1_555 1_555
C14 C15 1_555 1_555
C21 C26 1_555 1_555
C25 C26 1_555 1_555

#END
