
#######################################################################
#
#                 Cambridge Crystallographic Data Centre
#                                CCDC 
#
#######################################################################
#
# If this CIF has been generated from an entry in the Cambridge 
# Structural Database, then it will include bibliographic, chemical, 
# crystal, experimental, refinement or atomic coordinate data resulting 
# from the CCDC's data processing and validation procedures.
#
#######################################################################

data_XINCIJ
_chemical_compound_source        
'isolated from a neomycin-resistant mutant of the marine-derived fungus Penicillium purpurogenum G59'
_chemical_name_common            'penicimutanolone A penicimutanolone B'
_chemical_formula_moiety         'C26 H41 N1 O7'
_chemical_name_systematic        
N-[5',6-dihydroxy-6-(2-oxopropyl)spiro[4,8-dioxatricyclo[5.1.0.0^3,5^]octane-2,2'-oxolan]-4'-yl]-4,6-dimethyldodec-2-enamide
_chemical_properties_biological  'antitumour activity'
_symmetry_cell_setting           monoclinic
_symmetry_space_group_name_H-M   'P 21'
_symmetry_Int_Tables_number      4
_space_group_name_Hall           'P 2yb'
loop_
_symmetry_equiv_pos_site_id
_symmetry_equiv_pos_as_xyz
1 x,y,z
2 -x,1/2+y,-z
_cell_length_a                   11.3056(3)
_cell_length_b                   9.7245(2)
_cell_length_c                   23.7156(7)
_cell_angle_alpha                90
_cell_angle_beta                 94.305(3)
_cell_angle_gamma                90
_cell_volume                     2599.97
_cell_formula_units_Z            4
_exptl_crystal_recrystallization_method 
'Re-crystallisation from solvent: chloroform/methanol'
loop_
_atom_site_label
_atom_site_type_symbol
_atom_site_fract_x
_atom_site_fract_y
_atom_site_fract_z
O1 O 0.20784(14) 1.05318(18) 0.18846(7)
O2 O 0.29302(13) 1.26707(16) 0.11804(6)
H1 H 0.2602 1.3052 0.0892
O3 O 0.54378(13) 1.10726(17) 0.05007(6)
O4 O 0.33412(13) 0.94401(16) 0.03792(6)
O5 O 0.43054(13) 1.05910(16) -0.07036(6)
O6 O 0.49785(13) 1.22714(17) -0.13122(6)
H2 H 0.5605 1.1897 -0.1404
O7 O 0.10355(14) 1.22127(19) -0.20520(7)
N1 N 0.27349(17) 1.3082(2) -0.16203(8)
H3 H 0.3250 1.3760 -0.1621
C1 C 0.3587(2) 0.9221(3) 0.23865(10)
H4 H 0.3009 0.9137 0.2673
H5 H 0.4336 0.9578 0.2563
H6 H 0.3721 0.8316 0.2221
C2 C 0.3112(2) 1.0203(2) 0.19254(9)
C3 C 0.40348(18) 1.0716(2) 0.15455(9)
H7 H 0.4490 0.9912 0.1425
H8 H 0.4594 1.1313 0.1774
C4 C 0.35955(18) 1.1513(2) 0.10148(9)
C5 C 0.46774(18) 1.2061(2) 0.07377(9)
H9 H 0.5093 1.2850 0.0938
C6 C 0.47729(17) 1.2015(2) 0.01246(9)
H10 H 0.5244 1.2773 -0.0034
C7 C 0.27929(17) 1.0628(2) 0.06233(9)
H11 H 0.1974 1.0479 0.0744
C8 C 0.29123(17) 1.0555(2) 0.00127(9)
H12 H 0.2160 1.0358 -0.0222
C9 C 0.37950(18) 1.1423(2) -0.02724(9)
C10 C 0.31078(18) 1.2578(2) -0.05936(9)
H13 H 0.2334 1.2744 -0.0436
H14 H 0.3569 1.3445 -0.0580
C11 C 0.29413(18) 1.2015(2) -0.11991(9)
H15 H 0.2273 1.1339 -0.1229
C12 C 0.41256(18) 1.1263(2) -0.12364(9)
H16 H 0.4080 1.0586 -0.1554
C13 C 0.18008(19) 1.3107(2) -0.20140(9)
C14 C 0.1790(2) 1.4354(2) -0.23778(9)
H17 H 0.2458 1.4949 -0.2346
C15 C 0.0891(2) 1.4668(3) -0.27437(9)
H18 H 0.0256 1.4029 -0.2793
C16 C 0.0805(2) 1.5972(3) -0.30875(9)
H19 H 0.1547 1.6516 -0.3001
C17 C -0.0250(2) 1.6830(3) -0.29210(10)
H20 H -0.0984 1.6301 -0.2994
H21 H -0.0300 1.7678 -0.3144
H22 H -0.0143 1.7059 -0.2518
C18 C 0.0677(2) 1.5675(3) -0.37278(9)
H23 H -0.0090 1.5204 -0.3818
H24 H 0.0646 1.6564 -0.3932
C19 C 0.1661(2) 1.4799(3) -0.39557(10)
H25 H 0.1701 1.3915 -0.3739
C20 C 0.2868(2) 1.5486(3) -0.38693(12)
H26 H 0.2874 1.6321 -0.4100
H27 H 0.3481 1.4852 -0.3982
H28 H 0.3027 1.5727 -0.3470
C21 C 0.1329(2) 1.4451(3) -0.45793(10)
H29 H 0.0560 1.3959 -0.4606
H30 H 0.1214 1.5322 -0.4793
C22 C 0.2235(2) 1.3575(3) -0.48647(10)
H31 H 0.2590 1.2900 -0.4588
H32 H 0.2880 1.4175 -0.4982
C23 C 0.1681(2) 1.2803(3) -0.53843(11)
H33 H 0.1059 1.2177 -0.5261
H34 H 0.1291 1.3479 -0.5649
C24 C 0.2561(2) 1.1964(3) -0.57004(11)
H35 H 0.3052 1.1404 -0.5424
H36 H 0.2113 1.1323 -0.5961
C25 C 0.3379(3) 1.2831(3) -0.60385(12)
H37 H 0.3899 1.3394 -0.5775
H38 H 0.2895 1.3465 -0.6288
C26 C 0.4148(3) 1.1944(4) -0.63987(16)
H39 H 0.3638 1.1435 -0.6679
H40 H 0.4609 1.1294 -0.6155
H41 H 0.4689 1.2536 -0.6594
O8 O 0.35601(14) 0.55033(18) 0.18458(7)
O9 O 0.24554(13) 0.76811(16) 0.11851(6)
H42 H 0.2700 0.8057 0.0897
O10 O 0.17594(13) 0.44650(16) 0.03769(6)
O11 O -0.02886(13) 0.61090(18) 0.05184(6)
O12 O 0.04015(13) 0.56382(16) -0.06897(6)
O13 O -0.04258(13) 0.72826(17) -0.13311(6)
H43 H -0.1082 0.6908 -0.1423
O14 O 0.34450(13) 0.71196(19) -0.19379(7)
N2 N 0.17604(16) 0.8009(2) -0.16327(8)
H44 H 0.1225 0.8665 -0.1677
C27 C 0.2262(2) 0.4228(3) 0.23821(10)
H45 H 0.2083 0.3313 0.2225
H46 H 0.1574 0.4573 0.2566
H47 H 0.2947 0.4169 0.2660
C28 C 0.2543(2) 0.5194(2) 0.19130(9)
C29 C 0.14770(18) 0.5717(2) 0.15504(9)
H48 H 0.1006 0.6310 0.1789
H49 H 0.0976 0.4918 0.1432
C30 C 0.17293(18) 0.6531(2) 0.10180(9)
C31 C 0.23931(17) 0.5647(2) 0.06187(9)
H50 H 0.3253 0.5497 0.0732
C32 C 0.20585(17) 0.5582(2) 0.00106(9)
H51 H 0.2727 0.5387 -0.0231
C33 C 0.05592(18) 0.7094(2) 0.07524(9)
H52 H 0.0219 0.7882 0.0957
C34 C 0.02492(18) 0.7052(2) 0.01420(9)
H53 H -0.0275 0.7814 -0.0011
C35 C 0.10778(18) 0.6465(2) -0.02644(9)
C36 C 0.16558(18) 0.7612(2) -0.05964(9)
H54 H 0.1186 0.8471 -0.0596
H55 H 0.2475 0.7802 -0.0438
C37 C 0.16483(18) 0.7003(2) -0.11913(9)
H56 H 0.2297 0.6307 -0.1203
C38 C 0.04418(18) 0.6271(2) -0.12316(9)
H57 H 0.0395 0.5568 -0.1540
C39 C 0.26545(19) 0.7986(2) -0.19812(9)
C40 C 0.2601(2) 0.9095(2) -0.24178(9)
H58 H 0.1936 0.9693 -0.2458
C41 C 0.3486(2) 0.9238(3) -0.27479(10)
H59 H 0.4110 0.8586 -0.2697
C42 C 0.3620(2) 1.0320(3) -0.31971(10)
H60 H 0.4003 0.9877 -0.3517
C43 C 0.4459(2) 1.1447(3) -0.29492(12)
H61 H 0.4084 1.1931 -0.2647
H62 H 0.4627 1.2100 -0.3248
H63 H 0.5202 1.1026 -0.2795
C44 C 0.2456(2) 1.0968(3) -0.34356(10)
H64 H 0.2653 1.1753 -0.3677
H65 H 0.2047 1.1347 -0.3115
C45 C 0.1575(2) 1.0041(3) -0.37819(10)
H66 H 0.1368 0.9247 -0.3540
C46 C 0.2101(3) 0.9483(3) -0.43083(12)
H67 H 0.2299 1.0249 -0.4552
H68 H 0.1522 0.8881 -0.4514
H69 H 0.2822 0.8958 -0.4197
C47 C 0.0427(3) 1.0864(3) -0.39493(13)
H70 H 0.0652 1.1769 -0.4100
H71 H -0.0032 1.0367 -0.4257
C48 C -0.0369(3) 1.1100(4) -0.34710(16)
H72 H 0.0137 1.1397 -0.3134
H73 H -0.0724 1.0206 -0.3378
C49 C -0.1379(3) 1.2150(4) -0.35704(15)
H74 H -0.1759 1.2283 -0.3212
H75 H -0.1036 1.3043 -0.3674
C50 C -0.2322(3) 1.1741(4) -0.40263(16)
H76 H -0.2699 1.0874 -0.3916
H77 H -0.1944 1.1572 -0.4383
C51 C -0.3280(3) 1.2857(4) -0.41266(17)
H78 H -0.3630 1.3075 -0.3767
H79 H -0.2923 1.3707 -0.4269
C52 C -0.4232(4) 1.2338(6) -0.4554(2)
H80 H -0.3869 1.2045 -0.4897
H81 H -0.4804 1.3075 -0.4648
H82 H -0.4640 1.1556 -0.4394
H83? H -0.0080 1.1803 -0.3192
H84? H -0.0634 1.0253 -0.3286
C53? C -0.1342(11) 1.1715(15) -0.4022(6)
H85? H -0.0976 1.2440 -0.4245
H86? H -0.1649 1.0969 -0.4277
C54? C -0.2291(13) 1.2287(17) -0.3667(6)
H87? H -0.1970 1.3035 -0.3417
H88? H -0.2618 1.1557 -0.3433
H89? H -0.3730 1.3499 -0.3899
H90? H -0.2808 1.3458 -0.4361
loop_
_geom_bond_atom_site_label_1
_geom_bond_atom_site_label_2
_geom_bond_site_symmetry_1
_geom_bond_site_symmetry_2
O1 C2 1_555 1_555
O2 H1 1_555 1_555
O3 C5 1_555 1_555
O4 C7 1_555 1_555
O5 C9 1_555 1_555
O6 H2 1_555 1_555
O7 C13 1_555 1_555
N1 H3 1_555 1_555
C1 H4 1_555 1_555
H5 C1 1_555 1_555
H6 C1 1_555 1_555
C2 C1 1_555 1_555
C3 C2 1_555 1_555
H7 C3 1_555 1_555
H8 C3 1_555 1_555
C4 O2 1_555 1_555
C5 C4 1_555 1_555
H9 C5 1_555 1_555
C6 O3 1_555 1_555
H10 C6 1_555 1_555
C7 C4 1_555 1_555
H11 C7 1_555 1_555
C8 O4 1_555 1_555
H12 C8 1_555 1_555
C9 C6 1_555 1_555
C10 C9 1_555 1_555
H13 C10 1_555 1_555
H14 C10 1_555 1_555
C11 N1 1_555 1_555
H15 C11 1_555 1_555
C12 O5 1_555 1_555
H16 C12 1_555 1_555
C13 N1 1_555 1_555
C14 C13 1_555 1_555
H17 C14 1_555 1_555
C15 C14 1_555 1_555
H18 C15 1_555 1_555
C16 C15 1_555 1_555
H19 C16 1_555 1_555
C17 C16 1_555 1_555
H20 C17 1_555 1_555
H21 C17 1_555 1_555
H22 C17 1_555 1_555
C18 C16 1_555 1_555
H23 C18 1_555 1_555
H24 C18 1_555 1_555
C19 C18 1_555 1_555
H25 C19 1_555 1_555
C20 C19 1_555 1_555
H26 C20 1_555 1_555
H27 C20 1_555 1_555
H28 C20 1_555 1_555
C21 C19 1_555 1_555
H29 C21 1_555 1_555
H30 C21 1_555 1_555
C22 C21 1_555 1_555
H31 C22 1_555 1_555
H32 C22 1_555 1_555
C23 C22 1_555 1_555
H33 C23 1_555 1_555
H34 C23 1_555 1_555
C24 C23 1_555 1_555
H35 C24 1_555 1_555
H36 C24 1_555 1_555
C25 C24 1_555 1_555
H37 C25 1_555 1_555
H38 C25 1_555 1_555
C26 C25 1_555 1_555
H39 C26 1_555 1_555
H40 C26 1_555 1_555
H41 C26 1_555 1_555
O8 C28 1_555 1_555
O9 H42 1_555 1_555
O10 C31 1_555 1_555
O11 C33 1_555 1_555
O12 C35 1_555 1_555
O13 H43 1_555 1_555
O14 C39 1_555 1_555
N2 H44 1_555 1_555
C27 H45 1_555 1_555
H46 C27 1_555 1_555
H47 C27 1_555 1_555
C28 C27 1_555 1_555
C29 C28 1_555 1_555
H48 C29 1_555 1_555
H49 C29 1_555 1_555
C30 O9 1_555 1_555
C31 C30 1_555 1_555
H50 C31 1_555 1_555
C32 O10 1_555 1_555
H51 C32 1_555 1_555
C33 C30 1_555 1_555
H52 C33 1_555 1_555
C34 O11 1_555 1_555
H53 C34 1_555 1_555
C35 C32 1_555 1_555
C36 C35 1_555 1_555
H54 C36 1_555 1_555
H55 C36 1_555 1_555
C37 N2 1_555 1_555
H56 C37 1_555 1_555
C38 O12 1_555 1_555
H57 C38 1_555 1_555
C39 N2 1_555 1_555
C40 C39 1_555 1_555
H58 C40 1_555 1_555
C41 C40 1_555 1_555
H59 C41 1_555 1_555
C42 C41 1_555 1_555
H60 C42 1_555 1_555
C43 C42 1_555 1_555
H61 C43 1_555 1_555
H62 C43 1_555 1_555
H63 C43 1_555 1_555
C44 C42 1_555 1_555
H64 C44 1_555 1_555
H65 C44 1_555 1_555
C45 C44 1_555 1_555
H66 C45 1_555 1_555
C46 C45 1_555 1_555
H67 C46 1_555 1_555
H68 C46 1_555 1_555
H69 C46 1_555 1_555
C47 C45 1_555 1_555
H70 C47 1_555 1_555
H71 C47 1_555 1_555
C48 C47 1_555 1_555
H72 C48 1_555 1_555
H73 C48 1_555 1_555
C49 C48 1_555 1_555
H74 C49 1_555 1_555
H75 C49 1_555 1_555
C50 C49 1_555 1_555
H76 C50 1_555 1_555
H77 C50 1_555 1_555
C51 C50 1_555 1_555
H78 C51 1_555 1_555
H79 C51 1_555 1_555
C52 C51 1_555 1_555
H80 C52 1_555 1_555
H81 C52 1_555 1_555
H82 C52 1_555 1_555
O6 C12 1_555 1_555
C3 C4 1_555 1_555
C5 C6 1_555 1_555
C7 C8 1_555 1_555
C8 C9 1_555 1_555
C10 C11 1_555 1_555
C11 C12 1_555 1_555
O13 C38 1_555 1_555
C29 C30 1_555 1_555
C31 C32 1_555 1_555
C33 C34 1_555 1_555
C34 C35 1_555 1_555
C36 C37 1_555 1_555
C37 C38 1_555 1_555

#END
