
#######################################################################
#
#                 Cambridge Crystallographic Data Centre
#                                CCDC 
#
#######################################################################
#
# If this CIF has been generated from an entry in the Cambridge 
# Structural Database, then it will include bibliographic, chemical, 
# crystal, experimental, refinement or atomic coordinate data resulting 
# from the CCDC's data processing and validation procedures.
#
#######################################################################

data_XINKIQ
_chemical_formula_moiety         'C24 H18 F1 N1'
_chemical_name_systematic        
3-Fluoro-6,11-dimethyl-5-phenyl-11H-benzo[a]carbazole
_symmetry_cell_setting           monoclinic
_symmetry_space_group_name_H-M   'C 2/c'
_symmetry_Int_Tables_number      15
_space_group_name_Hall           '-C 2yn'
loop_
_symmetry_equiv_pos_site_id
_symmetry_equiv_pos_as_xyz
1 x,y,z
2 -x,y,1/2-z
3 1/2+x,1/2+y,z
4 1/2-x,1/2+y,1/2-z
5 -x,-y,-z
6 x,-y,1/2+z
7 1/2-x,1/2-y,-z
8 1/2+x,1/2-y,1/2+z
_cell_length_a                   16.843(8)
_cell_length_b                   18.307(9)
_cell_length_c                   11.541(6)
_cell_angle_alpha                90
_cell_angle_beta                 105.894(5)
_cell_angle_gamma                90
_cell_volume                     3422.56
_exptl_crystal_colour            colorless
_exptl_crystal_description       block
_cell_formula_units_Z            8
loop_
_atom_site_label
_atom_site_type_symbol
_atom_site_fract_x
_atom_site_fract_y
_atom_site_fract_z
C1 C 0.23172(13) 0.31268(11) 0.83725(16)
C2 C 0.30207(14) 0.28511(12) 0.80924(19)
H1 H 0.3086 0.2348 0.8062
C3 C 0.36109(15) 0.32922(14) 0.7864(2)
H2 H 0.4070 0.3096 0.7675
C4 C 0.35103(15) 0.40360(13) 0.7919(2)
C5 C 0.28640(14) 0.43434(12) 0.82132(18)
H3 H 0.2829 0.4849 0.8258
C6 C 0.22432(13) 0.39044(11) 0.84532(16)
C7 C 0.15561(13) 0.42246(10) 0.87755(16)
C8 C 0.09488(13) 0.37999(11) 0.90071(16)
C9 C 0.10067(12) 0.30263(11) 0.89196(16)
C10 C 0.16703(13) 0.27040(10) 0.86088(16)
C11 C 0.04806(13) 0.24482(11) 0.91132(17)
C12 C -0.02535(15) 0.24097(13) 0.94537(19)
H4 H -0.0517 0.2835 0.9589
C13 C -0.05816(16) 0.17396(14) 0.9587(2)
H5 H -0.1066 0.1713 0.9824
C14 C -0.01998(17) 0.10983(14) 0.9371(2)
H6 H -0.0434 0.0650 0.9466
C15 C 0.05096(16) 0.11149(12) 0.90230(19)
H7 H 0.0759 0.0686 0.8872
C16 C 0.08498(14) 0.17932(11) 0.89010(17)
C17 C 0.02228(14) 0.41192(12) 0.9338(2)
H8 H 0.0265 0.4642 0.9356
H9 H 0.0214 0.3944 1.0119
H10 H -0.0277 0.3976 0.8753
C18 C 0.20726(15) 0.13954(12) 0.8253(2)
H11 H 0.1810 0.0928 0.8233
H12 H 0.2604 0.1384 0.8833
H13 H 0.2139 0.1504 0.7471
C19 C 0.15368(13) 0.50418(11) 0.88727(17)
C20 C 0.19202(17) 0.53941(12) 0.9927(2)
H14 H 0.2187 0.5120 1.0600
C21 C 0.19187(17) 0.61428(13) 1.0009(2)
H15 H 0.2186 0.6369 1.0733
C22 C 0.15294(14) 0.65561(12) 0.9041(2)
H16 H 0.1532 0.7063 0.9097
C23 C 0.11363(14) 0.62186(12) 0.7992(2)
H17 H 0.0862 0.6496 0.7327
C24 C 0.11418(14) 0.54690(11) 0.7907(2)
H18 H 0.0873 0.5247 0.7181
N1 N 0.15667(11) 0.19526(9) 0.85883(14)
F1 F 0.40918(9) 0.44763(8) 0.76734(14)
loop_
_geom_bond_atom_site_label_1
_geom_bond_atom_site_label_2
_geom_bond_site_symmetry_1
_geom_bond_site_symmetry_2
C1 C2 1_555 1_555
C2 H1 1_555 1_555
C3 C2 1_555 1_555
H2 C3 1_555 1_555
C4 C3 1_555 1_555
C5 C4 1_555 1_555
H3 C5 1_555 1_555
C6 C1 1_555 1_555
C7 C6 1_555 1_555
C8 C7 1_555 1_555
C9 C8 1_555 1_555
C10 C1 1_555 1_555
C11 C9 1_555 1_555
C12 C11 1_555 1_555
H4 C12 1_555 1_555
C13 C12 1_555 1_555
H5 C13 1_555 1_555
C14 C13 1_555 1_555
H6 C14 1_555 1_555
C15 C14 1_555 1_555
H7 C15 1_555 1_555
C16 C11 1_555 1_555
C17 C8 1_555 1_555
H8 C17 1_555 1_555
H9 C17 1_555 1_555
H10 C17 1_555 1_555
C18 H11 1_555 1_555
H12 C18 1_555 1_555
H13 C18 1_555 1_555
C19 C7 1_555 1_555
C20 C19 1_555 1_555
H14 C20 1_555 1_555
C21 C20 1_555 1_555
H15 C21 1_555 1_555
C22 C21 1_555 1_555
H16 C22 1_555 1_555
C23 C22 1_555 1_555
H17 C23 1_555 1_555
C24 C19 1_555 1_555
H18 C24 1_555 1_555
N1 C10 1_555 1_555
F1 C4 1_555 1_555
C5 C6 1_555 1_555
C9 C10 1_555 1_555
C15 C16 1_555 1_555
C16 N1 1_555 1_555
C18 N1 1_555 1_555
C23 C24 1_555 1_555

#END
