
#######################################################################
#
#                 Cambridge Crystallographic Data Centre
#                                CCDC 
#
#######################################################################
#
# If this CIF has been generated from an entry in the Cambridge 
# Structural Database, then it will include bibliographic, chemical, 
# crystal, experimental, refinement or atomic coordinate data resulting 
# from the CCDC's data processing and validation procedures.
#
#######################################################################

data_XINKOW
_chemical_formula_moiety         'C29 H21 N1'
_chemical_name_systematic        11-Methyl-5,6-diphenyl-11H-benzo[a]carbazole
_symmetry_cell_setting           triclinic
_symmetry_space_group_name_H-M   'P -1'
_symmetry_Int_Tables_number      2
_space_group_name_Hall           '-P 1'
loop_
_symmetry_equiv_pos_site_id
_symmetry_equiv_pos_as_xyz
1 x,y,z
2 -x,-y,-z
_cell_length_a                   9.689(6)
_cell_length_b                   10.771(7)
_cell_length_c                   10.909(7)
_cell_angle_alpha                83.523(6)
_cell_angle_beta                 72.003(6)
_cell_angle_gamma                72.640(6)
_cell_volume                     1033.18
_exptl_crystal_colour            colorless
_exptl_crystal_description       block
_cell_formula_units_Z            2
loop_
_atom_site_label
_atom_site_type_symbol
_atom_site_fract_x
_atom_site_fract_y
_atom_site_fract_z
C1 C 0.1356(2) 0.81867(18) 0.6737(2)
C2 C 0.0862(2) 0.8930(2) 0.7835(2)
H1 H 0.0731 0.9823 0.7772
C3 C 0.0573(3) 0.8302(2) 0.9011(2)
H2 H 0.0253 0.8778 0.9757
C4 C 0.0749(3) 0.6969(2) 0.9114(2)
H3 H 0.0533 0.6571 0.9925
C5 C 0.1238(2) 0.6230(2) 0.8032(2)
H4 H 0.1358 0.5338 0.8108
C6 C 0.1553(2) 0.68356(18) 0.68175(19)
C7 C 0.2073(2) 0.64022(17) 0.55022(19)
C8 C 0.2499(2) 0.51461(17) 0.49800(19)
C9 C 0.2953(2) 0.50153(17) 0.36656(19)
C10 C 0.2980(2) 0.61503(17) 0.28239(19)
C11 C 0.2536(2) 0.74215(17) 0.33342(19)
C12 C 0.2135(2) 0.75027(17) 0.46975(19)
C13 C 0.3461(2) 0.6035(2) 0.1470(2)
H5 H 0.3794 0.5211 0.1124
C14 C 0.3454(3) 0.7093(2) 0.0654(2)
H6 H 0.3792 0.6987 -0.0233
C15 C 0.2937(3) 0.8335(2) 0.1163(2)
H7 H 0.2895 0.9060 0.0610
C16 C 0.2495(2) 0.84967(19) 0.2455(2)
H8 H 0.2157 0.9334 0.2772
C17 C 0.1983(3) 0.98619(19) 0.5047(2)
H9 H 0.1200 1.0386 0.4692
H10 H 0.2945 0.9748 0.4405
H11 H 0.1979 1.0286 0.5777
C18 C 0.2446(2) 0.40185(16) 0.59079(18)
C19 C 0.1202(2) 0.35338(17) 0.63078(19)
H12 H 0.0424 0.3848 0.5927
C20 C 0.1110(3) 0.25852(18) 0.7269(2)
H13 H 0.0258 0.2282 0.7548
C21 C 0.2265(3) 0.2087(2) 0.7817(2)
H14 H 0.2200 0.1444 0.8460
C22 C 0.3521(3) 0.2544(2) 0.7410(2)
H15 H 0.4312 0.2206 0.7773
C23 C 0.3604(2) 0.3507(2) 0.6461(2)
H16 H 0.4454 0.3815 0.6192
C24 C 0.3385(2) 0.37029(18) 0.31000(19)
C25 C 0.2466(3) 0.3365(2) 0.2523(2)
H17 H 0.1563 0.3967 0.2487
C26 C 0.2854(3) 0.2162(2) 0.2002(2)
H18 H 0.2222 0.1961 0.1611
C27 C 0.4174(3) 0.1255(2) 0.2059(2)
H19 H 0.4440 0.0439 0.1708
C28 C 0.5094(3) 0.1561(2) 0.2636(2)
H20 H 0.5986 0.0947 0.2681
C29 C 0.4716(2) 0.27689(19) 0.3153(2)
H21 H 0.5356 0.2962 0.3540
N1 N 0.17175(18) 0.85911(14) 0.54537(16)
loop_
_geom_bond_atom_site_label_1
_geom_bond_atom_site_label_2
_geom_bond_site_symmetry_1
_geom_bond_site_symmetry_2
C1 C2 1_555 1_555
C2 H1 1_555 1_555
C3 C2 1_555 1_555
H2 C3 1_555 1_555
C4 C3 1_555 1_555
H3 C4 1_555 1_555
C5 C4 1_555 1_555
H4 C5 1_555 1_555
C6 C1 1_555 1_555
C7 C6 1_555 1_555
C8 C7 1_555 1_555
C9 C8 1_555 1_555
C10 C9 1_555 1_555
C11 C10 1_555 1_555
C12 C7 1_555 1_555
C13 C10 1_555 1_555
H5 C13 1_555 1_555
C14 C13 1_555 1_555
H6 C14 1_555 1_555
C15 C14 1_555 1_555
H7 C15 1_555 1_555
C16 C11 1_555 1_555
H8 C16 1_555 1_555
C17 H9 1_555 1_555
H10 C17 1_555 1_555
H11 C17 1_555 1_555
C18 C8 1_555 1_555
C19 C18 1_555 1_555
H12 C19 1_555 1_555
C20 C19 1_555 1_555
H13 C20 1_555 1_555
C21 C20 1_555 1_555
H14 C21 1_555 1_555
C22 C21 1_555 1_555
H15 C22 1_555 1_555
C23 C18 1_555 1_555
H16 C23 1_555 1_555
C24 C9 1_555 1_555
C25 C24 1_555 1_555
H17 C25 1_555 1_555
C26 C25 1_555 1_555
H18 C26 1_555 1_555
C27 C26 1_555 1_555
H19 C27 1_555 1_555
C28 C27 1_555 1_555
H20 C28 1_555 1_555
C29 C24 1_555 1_555
H21 C29 1_555 1_555
N1 C1 1_555 1_555
C5 C6 1_555 1_555
C11 C12 1_555 1_555
C12 N1 1_555 1_555
C15 C16 1_555 1_555
C17 N1 1_555 1_555
C22 C23 1_555 1_555
C28 C29 1_555 1_555

#END
