
#######################################################################
#
#                 Cambridge Crystallographic Data Centre
#                                CCDC 
#
#######################################################################
#
# If this CIF has been generated from an entry in the Cambridge 
# Structural Database, then it will include bibliographic, chemical, 
# crystal, experimental, refinement or atomic coordinate data resulting 
# from the CCDC's data processing and validation procedures.
#
#######################################################################

data_XINQUI
_chemical_formula_moiety         '4(C50 H54 O11),8(C1 H1 Cl3)'
_chemical_name_systematic        
'6-((9,14,19,24,26,28,30,32,34-Nonamethoxyhexacyclo[21.2.2.2^3,6^.2^8,11^.2^13,16^.2^18,21^]pentatriaconta-1(25),3,5,8,10,13,15,18,20,23,26,28,30,32,34-pentadecaen-4-yl)oxy)hexa-1,3,5-trien-1-ol chloroform solvate'
_symmetry_cell_setting           triclinic
_symmetry_space_group_name_H-M   'P -1'
_symmetry_Int_Tables_number      2
_space_group_name_Hall           '-P 1'
loop_
_symmetry_equiv_pos_site_id
_symmetry_equiv_pos_as_xyz
1 x,y,z
2 -x,-y,-z
_cell_length_a                   22.2814(5)
_cell_length_b                   22.3082(5)
_cell_length_c                   23.4074(5)
_cell_angle_alpha                89.896(2)
_cell_angle_beta                 74.785(2)
_cell_angle_gamma                88.907(2)
_cell_volume                     11224.9
_cell_formula_units_Z            2
loop_
_atom_site_label
_atom_site_type_symbol
_atom_site_fract_x
_atom_site_fract_y
_atom_site_fract_z
C1 C 0.1193(3) 0.1371(3) 0.1350(3)
H1 H 0.0951 0.1241 0.1714
C2 C 0.1717(3) 0.1678(3) 0.1328(3)
C3 C 0.2080(3) 0.1869(3) 0.0776(3)
C4 C 0.1881(3) 0.1758(3) 0.0274(3)
H2 H 0.2117 0.1899 -0.0088
C5 C 0.1356(3) 0.1450(3) 0.0288(3)
C6 C 0.1005(3) 0.1245(3) 0.0833(3)
C7 C 0.1184(3) 0.1300(3) -0.0277(3)
H3 H 0.1311 0.1622 -0.0560
H4 H 0.0737 0.1265 -0.0195
C8 C 0.1499(3) 0.0712(3) -0.0545(3)
C9 C 0.2093(3) 0.0696(3) -0.0932(3)
C10 C 0.2098(3) -0.0386(3) -0.0944(3)
C11 C 0.1518(3) -0.0375(3) -0.0541(3)
C12 C 0.1215(3) 0.0179(3) -0.0359(3)
H5 H 0.0815 0.0183 -0.0108
C13 C 0.2382(3) 0.0156(3) -0.1134(2)
H6 H 0.2773 0.0155 -0.1402
C14 C 0.2432(3) -0.0976(3) -0.1178(3)
H7 H 0.2122 -0.1274 -0.1182
H8 H 0.2672 -0.0917 -0.1583
C15 C 0.2865(3) -0.1219(3) -0.0821(2)
C16 C 0.2649(3) -0.1629(3) -0.0361(3)
H9 H 0.2240 -0.1756 -0.0277
C17 C 0.3039(3) -0.1848(2) -0.0029(2)
C18 C 0.3643(3) -0.1654(2) -0.0135(3)
C19 C 0.3862(3) -0.1248(2) -0.0591(2)
H10 H 0.4269 -0.1117 -0.0669
C20 C 0.3474(3) -0.1037(3) -0.0934(2)
C21 C 0.4062(3) -0.1840(3) 0.0259(3)
H11 H 0.3953 -0.2237 0.0417
H12 H 0.4492 -0.1855 0.0026
C22 C 0.3991(3) -0.1396(2) 0.0765(3)
C23 C 0.4411(3) -0.0933(3) 0.0737(3)
C24 C 0.4299(3) -0.0513(3) 0.1205(3)
H13 H 0.4575 -0.0201 0.1183
C25 C 0.3798(3) -0.0547(2) 0.1693(2)
C26 C 0.3385(3) -0.1026(3) 0.1721(3)
C27 C 0.3487(3) -0.1439(2) 0.1260(3)
H14 H 0.3211 -0.1752 0.1284
C28 C 0.3689(3) -0.0084(3) 0.2184(2)
H15 H 0.4084 0.0089 0.2187
H16 H 0.3528 -0.0282 0.2561
C29 C 0.3238(3) 0.0417(2) 0.2120(2)
C30 C 0.3443(3) 0.0958(3) 0.1855(2)
C31 C 0.3020(3) 0.1406(2) 0.1792(3)
H17 H 0.3168 0.1767 0.1616
C32 C 0.2384(3) 0.1323(3) 0.1987(2)
C33 C 0.2171(3) 0.0769(3) 0.2264(2)
C34 C 0.1920(3) 0.1786(3) 0.1894(3)
H18 H 0.2101 0.2179 0.1876
H19 H 0.1556 0.1782 0.2230
C35 C 0.1320(4) 0.0177(4) 0.2740(5)
H20 H 0.0874 0.0192 0.2853
H21 H 0.1469 0.0126 0.3087
H22 H 0.1463 -0.0153 0.2475
C36 C 0.4304(4) 0.1588(3) 0.1438(4)
H23 H 0.4751 0.1574 0.1324
H24 H 0.4160 0.1891 0.1735
H25 H 0.4155 0.1681 0.1098
C37 C 0.2464(5) -0.1502(4) 0.2238(3)
H26 H 0.2143 -0.1468 0.2602
H27 H 0.2672 -0.1886 0.2223
H28 H 0.2284 -0.1467 0.1910
C38 C 0.5424(4) -0.0579(4) 0.0330(3)
C39 C 0.5969(3) -0.0664(4) -0.0172(3)
H29 H 0.5861 -0.0546 -0.0533
C40 C 0.6508(4) -0.0309(4) -0.0111(3)
H30 H 0.6491 -0.0104 0.0239
C41 C 0.7060(4) -0.0286(5) -0.0607(4)
H31 H 0.7079 -0.0488 -0.0958
C42 C 0.7590(6) 0.0068(7) -0.0537(5)
H32 H 0.7627 0.0123 -0.0154
C43 C 0.8017(10) 0.0315(8) -0.0970(7)
H33 H 0.8059 0.0176 -0.1354
C44 C 0.2238(5) -0.2435(4) 0.0569(4)
H34 H 0.2174 -0.2719 0.0887
H35 H 0.2147 -0.2618 0.0231
H36 H 0.1968 -0.2092 0.0692
C45 C 0.4306(3) -0.0481(4) -0.1551(3)
H37 H 0.4379 -0.0200 -0.1871
H38 H 0.4556 -0.0836 -0.1674
H39 H 0.4414 -0.0304 -0.1219
C46 C 0.3029(4) 0.2292(4) 0.0233(4)
H40 H 0.3382 0.2495 0.0296
H41 H 0.2820 0.2545 0.0011
H42 H 0.3165 0.1927 0.0018
C47 C 0.0167(4) 0.0650(5) 0.1363(4)
H43 H -0.0186 0.0444 0.1301
H44 H 0.0029 0.0944 0.1670
H45 H 0.0443 0.0366 0.1477
C48 C 0.0654(4) -0.0906(4) 0.0018(4)
H46 H 0.0535 -0.1307 0.0141
H47 H 0.0385 -0.0749 -0.0209
H48 H 0.0618 -0.0658 0.0361
C49 C 0.2991(3) 0.1249(3) -0.1427(3)
H49 H 0.3121 0.1655 -0.1511
H50 H 0.3029 0.1038 -0.1793
H51 H 0.3248 0.1055 -0.1208
C50 C 0.2607(3) 0.0332(3) 0.2322(2)
H52 H 0.2466 -0.0029 0.2502
O1 O 0.2899(2) -0.1042(2) 0.22095(19)
O2 O 0.4081(2) 0.10290(19) 0.16646(18)
O3 O 0.4911(2) -0.0907(2) 0.0249(2)
O4 O 0.3671(2) -0.0631(2) -0.13867(19)
O5 O 0.2847(3) -0.2258(2) 0.0422(2)
O6 O 0.1269(2) -0.0911(2) -0.0329(3)
O7 O 0.2357(2) 0.1249(2) -0.1086(2)
O8 O 0.2621(2) 0.2159(2) 0.0777(2)
O9 O 0.0485(2) 0.0937(3) 0.0830(2)
O10 O 0.1545(2) 0.0712(2) 0.2459(2)
O11 O 0.8389(6) 0.0746(5) -0.0895(4)
H53 H 0.5524 -0.0712 0.0690
C51 C 0.3655(3) 0.9898(2) 0.7201(2)
H54 H 0.3503 0.9701 0.7580
H55 H 0.4038 1.0096 0.7205
C52 C 0.3180(3) 1.0363(2) 0.7127(2)
C53 C 0.3354(3) 1.0916(2) 0.6862(2)
C54 C 0.2903(3) 1.1336(2) 0.6786(2)
H56 H 0.3028 1.1706 0.6617
C55 C 0.2274(3) 1.1204(3) 0.6960(2)
C56 C 0.2097(3) 1.0651(3) 0.7239(2)
C57 C 0.2558(3) 1.0247(3) 0.7317(2)
H57 H 0.2436 0.9885 0.7505
C58 C 0.1784(3) 1.1637(3) 0.6854(3)
H58 H 0.1936 1.2043 0.6836
H59 H 0.1412 1.1617 0.7181
C59 C 0.1622(3) 1.1487(3) 0.6275(3)
C60 C 0.1132(3) 1.1107(3) 0.6268(3)
H60 H 0.0897 1.0950 0.6623
C61 C 0.0987(3) 1.0957(3) 0.5743(3)
C62 C 0.1328(2) 1.1207(3) 0.5207(3)
C63 C 0.1812(3) 1.1577(3) 0.5212(3)
H61 H 0.2044 1.1734 0.4855
C64 C 0.1969(3) 1.1724(3) 0.5735(3)
C65 C 0.1175(3) 1.1048(3) 0.4629(3)
H62 H 0.0732 1.0984 0.4702
H63 H 0.1286 1.1376 0.4352
C66 C 0.1531(3) 1.0486(3) 0.4367(3)
C67 C 0.1276(3) 0.9924(3) 0.4486(3)
H64 H 0.0865 0.9894 0.4709
C68 C 0.1619(3) 0.9395(3) 0.4279(3)
C69 C 0.2224(3) 0.9431(3) 0.3930(3)
C70 C 0.2485(3) 0.9997(3) 0.3811(2)
H65 H 0.2895 1.0025 0.3587
C71 C 0.2151(3) 1.0520(3) 0.4017(3)
C72 C 0.2606(3) 0.8871(3) 0.3708(3)
H66 H 0.2873 0.8946 0.3316
H67 H 0.2329 0.8550 0.3675
C73 C 0.3004(3) 0.8674(3) 0.4115(2)
C74 C 0.2769(3) 0.8293(3) 0.4586(3)
H68 H 0.2364 0.8158 0.4655
C75 C 0.3139(3) 0.8108(2) 0.4959(3)
C76 C 0.3739(3) 0.8308(2) 0.4857(2)
C77 C 0.3969(3) 0.8700(2) 0.4385(2)
H69 H 0.4371 0.8843 0.4320
C78 C 0.3608(3) 0.8875(3) 0.4016(2)
C79 C 0.4034(2) 0.8576(2) 0.5785(2)
C80 C 0.3539(3) 0.8519(2) 0.6282(2)
H70 H 0.3281 0.8191 0.6308
C81 C 0.3414(2) 0.8933(2) 0.6743(2)
C82 C 0.3794(2) 0.9429(2) 0.6715(2)
C83 C 0.4296(2) 0.9486(2) 0.6216(2)
H71 H 0.4553 0.9814 0.6191
C84 C 0.4425(2) 0.9071(3) 0.5756(2)
C85 C 0.2522(4) 0.8396(4) 0.7267(3)
H72 H 0.2207 0.8411 0.7636
H73 H 0.2750 0.8022 0.7236
H74 H 0.2331 0.8429 0.6945
C86 C 0.1276(3) 0.9994(4) 0.7724(5)
H75 H 0.0831 0.9972 0.7822
H76 H 0.1412 0.9983 0.8080
H77 H 0.1457 0.9661 0.7476
C87 C 0.4162(4) 1.1609(3) 0.6481(4)
H78 H 0.4607 1.1628 0.6369
H79 H 0.3994 1.1892 0.6793
H80 H 0.4006 1.1704 0.6145
C88 C 0.2807(4) 1.2321(4) 0.5213(4)
H81 H 0.3133 1.2563 0.5282
H82 H 0.2537 1.2563 0.5044
H83 H 0.2985 1.2001 0.4945
C89 C 0.0197(5) 1.0277(6) 0.6217(4)
H84 H -0.0112 1.0030 0.6121
H85 H -0.0002 1.0562 0.6516
H86 H 0.0482 1.0029 0.6361
C90 C 0.0758(5) 0.8777(5) 0.4695(8)
H87 H 0.0655 0.8363 0.4767
H88 H 0.0519 0.8947 0.4446
H89 H 0.0665 0.8991 0.5064
C91 C 0.3016(3) 1.1145(3) 0.3597(3)
H90 H 0.3117 1.1562 0.3555
H91 H 0.3081 1.0967 0.3212
H92 H 0.3278 1.0945 0.3807
C92 C 0.2303(4) 0.7598(4) 0.5597(3)
H93 H 0.2222 0.7332 0.5930
H94 H 0.2193 0.7407 0.5272
H95 H 0.2059 0.7960 0.5702
C93 C 0.4406(3) 0.9499(4) 0.3447(3)
H96 H 0.4487 0.9752 0.3104
H97 H 0.4712 0.9179 0.3384
H98 H 0.4428 0.9730 0.3786
C94 C 0.5456(3) 0.9407(5) 0.5340(4)
H99 H 0.5462 0.9601 0.5690
C95 C 0.5977(4) 0.9366(6) 0.4853(3)
H100 H 0.5976 0.9155 0.4511
C96 C 0.6528(4) 0.9682(6) 0.4925(4)
H101 H 0.6568 0.9744 0.5306
C97 C 0.6993(4) 0.9892(5) 0.4449(4)
H102 H 0.6937 0.9868 0.4069
C98 C 0.7568(4) 1.0150(4) 0.4529(4)
H103 H 0.7668 1.0096 0.4888
C99 C 0.7972(7) 1.0477(6) 0.4076(6)
H104 H 0.7885 1.0520 0.3711
C100 C 0.4146(3) 0.8142(3) 0.5271(2)
H105 H 0.4052 0.7739 0.5421
H106 H 0.4581 0.8148 0.5053
O12 O 0.1468(2) 1.0547(2) 0.7414(2)
O13 O 0.39791(19) 1.10202(18) 0.66810(19)
O14 O 0.2935(2) 0.88783(18) 0.72416(18)
O15 O 0.0520(2) 1.0580(3) 0.5711(2)
O16 O 0.2460(2) 1.2079(2) 0.5756(2)
O17 O 0.2385(2) 1.1087(2) 0.3916(2)
O18 O 0.1388(3) 0.8820(3) 0.4415(3)
O19 O 0.3815(2) 0.9259(2) 0.3544(2)
O20 O 0.2935(2) 0.77350(19) 0.54302(19)
O21 O 0.49184(19) 0.9129(2) 0.52595(19)
O22 O 0.8491(5) 1.0731(5) 0.4171(4)
C101 C 0.8125(3) 0.3245(3) 0.6216(3)
H107 H 0.7886 0.3095 0.5979
C102 C 0.7950(3) 0.3138(3) 0.6822(3)
C103 C 0.8304(3) 0.3333(3) 0.7188(3)
C104 C 0.8837(3) 0.3660(3) 0.6928(3)
H108 H 0.9083 0.3801 0.7162
C105 C 0.8999(3) 0.3776(3) 0.6326(3)
C106 C 0.8652(3) 0.3570(3) 0.5961(3)
C107 C 0.8116(3) 0.3240(3) 0.7851(3)
H109 H 0.7949 0.2842 0.7935
H110 H 0.8484 0.3262 0.7999
C108 C 0.7004(3) 0.3591(2) 0.8306(3)
H111 H 0.6867 0.3220 0.8216
C109 C 0.7639(3) 0.3695(3) 0.8175(3)
C110 C 0.7829(3) 0.4253(3) 0.8340(2)
C111 C 0.7389(3) 0.4684(3) 0.8613(2)
H112 H 0.7522 0.5049 0.8721
C112 C 0.6756(3) 0.4584(2) 0.8727(2)
C113 C 0.6568(3) 0.4038(2) 0.8570(2)
C114 C 0.6295(3) 0.5074(2) 0.9018(2)
H113 H 0.5903 0.4893 0.9215
H114 H 0.6450 0.5273 0.9317
C115 C 0.6181(3) 0.5538(2) 0.8584(2)
C116 C 0.6578(3) 0.6030(3) 0.8420(2)
C117 C 0.6468(3) 0.6444(2) 0.8014(2)
H115 H 0.6738 0.6761 0.7904
C118 C 0.5973(3) 0.6403(2) 0.7769(2)
C119 C 0.5558(3) 0.5928(3) 0.7941(2)
C120 C 0.5673(2) 0.5501(2) 0.8346(2)
H116 H 0.5402 0.5185 0.8456
C121 C 0.6317(3) 0.6668(2) 0.6698(2)
C122 C 0.6924(3) 0.6859(2) 0.6504(2)
C123 C 0.7315(3) 0.6643(3) 0.5973(2)
H117 H 0.7722 0.6777 0.5850
C124 C 0.7110(3) 0.6235(3) 0.5627(2)
C125 C 0.6494(3) 0.6052(2) 0.5815(2)
C126 C 0.6105(3) 0.6260(2) 0.6348(2)
H118 H 0.5699 0.6124 0.6472
C127 C 0.7542(3) 0.5998(3) 0.5058(3)
H119 H 0.7853 0.6297 0.4902
H120 H 0.7304 0.5943 0.4770
C128 C 0.7871(3) 0.5409(3) 0.5125(2)
C129 C 0.8470(3) 0.5390(3) 0.5226(3)
C130 C 0.8770(3) 0.4848(3) 0.5259(3)
H121 H 0.9169 0.4845 0.5313
C131 C 0.7590(3) 0.4862(3) 0.5081(2)
H122 H 0.7197 0.4862 0.5014
C132 C 0.7887(3) 0.4319(3) 0.5134(3)
C133 C 0.8487(3) 0.4313(3) 0.5213(3)
C134 C 0.9334(4) 0.5937(4) 0.5367(5)
H123 H 0.9446 0.6339 0.5433
H124 H 0.9607 0.5784 0.5007
H125 H 0.9369 0.5688 0.5692
C135 C 0.6986(3) 0.3773(3) 0.5098(3)
H126 H 0.6852 0.3368 0.5088
H127 H 0.6945 0.3982 0.4751
H128 H 0.6735 0.3972 0.5444
C136 C 0.7724(4) 0.7452(4) 0.6702(4)
H129 H 0.7792 0.7737 0.6984
H130 H 0.7818 0.7630 0.6316
H131 H 0.7989 0.7106 0.6695
C137 C 0.5673(3) 0.5496(4) 0.5610(3)
H132 H 0.5598 0.5217 0.5326
H133 H 0.5423 0.5852 0.5615
H134 H 0.5568 0.5317 0.5996
C138 C 0.9841(4) 0.4394(5) 0.6419(4)
H135 H 1.0191 0.4602 0.6178
H136 H 0.9984 0.4101 0.6657
H137 H 0.9565 0.4676 0.6672
C139 C 0.6985(4) 0.2718(4) 0.6767(4)
H138 H 0.6637 0.2510 0.7010
H139 H 0.7185 0.2474 0.6432
H140 H 0.6842 0.3088 0.6633
C140 C 0.8673(4) 0.4888(4) 0.8367(4)
H141 H 0.9120 0.4888 0.8258
H142 H 0.8520 0.4954 0.8785
H143 H 0.8521 0.5203 0.8158
C141 C 0.5742(4) 0.3374(3) 0.8580(4)
H144 H 0.5296 0.3364 0.8681
H145 H 0.5895 0.3085 0.8815
H146 H 0.5906 0.3279 0.8168
C142 C 0.7487(5) 0.6517(4) 0.8489(4)
H147 H 0.7804 0.6483 0.8698
H148 H 0.7275 0.6898 0.8577
H149 H 0.7675 0.6487 0.8071
C143 C 0.4514(4) 0.5637(6) 0.8039(3)
H150 H 0.4496 0.5488 0.8415
C144 C 0.4019(4) 0.5614(6) 0.7824(4)
H151 H 0.4033 0.5767 0.7451
C145 C 0.3446(4) 0.5342(6) 0.8189(4)
H152 H 0.3387 0.5318 0.8597
C146 C 0.2982(4) 0.5117(4) 0.7934(3)
H153 H 0.3036 0.5133 0.7526
C147 C 0.2419(4) 0.4858(4) 0.8317(4)
H154 H 0.2323 0.4908 0.8726
C148 C 0.2026(6) 0.4532(7) 0.8053(4)
H155 H 0.2111 0.4499 0.7643
C149 C 0.8811(3) 0.3720(3) 0.5308(3)
H156 H 0.8677 0.3401 0.5092
H157 H 0.9258 0.3756 0.5157
C150 C 0.5887(3) 0.6845(3) 0.7297(2)
H158 H 0.5981 0.7247 0.7402
H159 H 0.5458 0.6845 0.7276
O23 O 0.7411(2) 0.2841(2) 0.7102(2)
O24 O 0.9521(2) 0.4103(3) 0.6048(2)
O25 O 0.8704(2) 0.5935(2) 0.5321(3)
O26 O 0.7627(2) 0.3770(2) 0.5116(2)
O27 O 0.6303(2) 0.5646(2) 0.54551(18)
O28 O 0.7099(2) 0.7279(2) 0.6865(2)
O29 O 0.5066(2) 0.5887(2) 0.7695(2)
O30 O 0.7061(2) 0.60550(19) 0.86665(19)
O31 O 0.8465(2) 0.4327(2) 0.8216(2)
O32 O 0.5931(2) 0.39509(19) 0.86940(19)
O33 O 0.1498(4) 0.4257(5) 0.8425(4)
C151 C 0.3943(3) 0.3706(3) 0.8632(2)
H160 H 0.4347 0.3844 0.8503
C152 C 0.3569(3) 0.3883(3) 0.9185(2)
C153 C 0.2976(3) 0.3683(3) 0.9393(3)
C154 C 0.2745(3) 0.3300(3) 0.9030(3)
H161 H 0.2342 0.3160 0.9164
C155 C 0.3101(3) 0.3129(2) 0.8481(2)
C156 C 0.2572(3) 0.3874(3) 0.9993(3)
H162 H 0.2834 0.3936 1.0258
H163 H 0.2290 0.3552 1.0154
C157 C 0.2199(3) 0.4434(3) 0.9972(3)
C158 C 0.1586(3) 0.4405(3) 0.9911(3)
C159 C 0.1258(3) 0.4920(3) 0.9878(3)
H164 H 0.0848 0.4891 0.9858
C160 C 0.1510(3) 0.5490(3) 0.9871(3)
C161 C 0.2120(3) 0.5524(3) 0.9927(3)
C162 C 0.2454(3) 0.5006(3) 0.9972(2)
H165 H 0.2860 0.5036 1.0004
C163 C 0.0988(3) 0.5965(3) 0.8753(3)
C164 C 0.1315(3) 0.6200(3) 0.9124(3)
C165 C 0.1816(3) 0.6582(3) 0.8883(3)
H166 H 0.2038 0.6746 0.9129
C166 C 0.1983(3) 0.6718(3) 0.8279(3)
C167 C 0.1637(3) 0.6501(3) 0.7910(3)
C168 C 0.1135(3) 0.6119(3) 0.8158(3)
H167 H 0.0899 0.5969 0.7918
C169 C 0.2284(3) 0.6218(3) 0.6895(3)
C170 C 0.2915(3) 0.6337(2) 0.6757(2)
H168 H 0.3044 0.6703 0.6868
C171 C 0.3362(2) 0.5919(2) 0.6453(2)
C172 C 0.3179(3) 0.5378(2) 0.6267(2)
C173 C 0.2551(3) 0.5264(3) 0.6388(2)
H169 H 0.2423 0.4907 0.6258
C174 C 0.2105(3) 0.5672(3) 0.6701(3)
C175 C 0.3642(2) 0.4901(2) 0.5957(2)
H170 H 0.3480 0.4703 0.5661
H171 H 0.4027 0.5091 0.5753
C176 C 0.4008(3) 0.3591(2) 0.7202(2)
C177 C 0.3513(3) 0.3531(2) 0.6951(2)
H172 H 0.3253 0.3205 0.7059
C178 C 0.3392(2) 0.3939(2) 0.6546(2)
C179 C 0.3778(3) 0.4437(2) 0.6379(2)
C180 C 0.4284(2) 0.4490(2) 0.6620(2)
H173 H 0.4548 0.4812 0.6509
C181 C 0.4405(2) 0.4073(3) 0.7026(2)
C182 C 0.4113(3) 0.3150(3) 0.7661(2)
H174 H 0.4549 0.3145 0.7660
H175 H 0.4007 0.2751 0.7562
C183 C 0.0183(5) 0.5326(6) 0.8645(4)
H176 H -0.0134 0.5075 0.8878
H177 H 0.0466 0.5088 0.8347
H178 H -0.0006 0.5633 0.8458
C184 C 0.2820(4) 0.7313(4) 0.8393(4)
H179 H 0.3151 0.7550 0.8161
H180 H 0.2992 0.6993 0.8579
H181 H 0.2551 0.7561 0.8690
C185 C 0.0762(5) 0.3756(6) 0.9931(7)
H182 H 0.0680 0.3337 0.9905
H183 H 0.0651 0.3968 0.9615
H184 H 0.0521 0.3912 1.0304
C186 C 0.2988(3) 0.6148(3) 0.9920(3)
H185 H 0.3087 0.6565 0.9920
H186 H 0.3247 0.5958 0.9572
H187 H 0.3058 0.5959 1.0266
C187 C 0.2258(4) 0.2618(4) 0.8252(4)
H188 H 0.2175 0.2354 0.7960
H189 H 0.2021 0.2984 0.8265
H190 H 0.2144 0.2429 0.8633
C188 C 0.4379(4) 0.4500(4) 0.9355(4)
H191 H 0.4462 0.4753 0.9656
H192 H 0.4405 0.4731 0.9003
H193 H 0.4680 0.4177 0.9269
C189 C 0.1265(4) 0.5032(4) 0.6621(5)
H194 H 0.0819 0.5020 0.6739
H195 H 0.1435 0.4698 0.6789
H196 H 0.1408 0.5012 0.6197
C190 C 0.4186(4) 0.6591(3) 0.6438(4)
H197 H 0.4632 0.6606 0.6327
H198 H 0.4032 0.6677 0.6853
H199 H 0.4021 0.6883 0.6215
C191 C 0.1798(3) 0.6658(3) 0.7257(3)
H200 H 0.1958 0.7061 0.7202
H201 H 0.1425 0.6648 0.7117
C192 C 0.1158(3) 0.6041(3) 0.9785(3)
H202 H 0.1266 0.6371 1.0007
H203 H 0.0715 0.5975 0.9932
C193 C 0.5423(3) 0.4448(4) 0.6935(3)
H204 H 0.5320 0.4873 0.6952
C194 C 0.5964(3) 0.4343(3) 0.7169(3)
H205 H 0.6085 0.3922 0.7124
C195 C 0.6507(3) 0.4718(4) 0.6852(3)
H206 H 0.6486 0.4966 0.6538
C196 C 0.7066(4) 0.4673(5) 0.7065(3)
H207 H 0.7076 0.4437 0.7391
C197 C 0.7619(5) 0.5012(7) 0.6747(4)
H208 H 0.7759 0.4951 0.6340
C198 C 0.7919(11) 0.5377(9) 0.6974(6)
H209 H 0.7857 0.5335 0.7381
C199 C 0.3714(3) 0.3326(2) 0.8275(2)
C200 C 0.2491(4) 0.3417(4) 0.6483(4)
H210 H 0.2176 0.3430 0.6270
H211 H 0.2299 0.3461 0.6899
H212 H 0.2712 0.3040 0.6410
O34 O 0.48968(19) 0.4123(2) 0.72692(19)
O35 O 0.1368(3) 0.3826(3) 0.9887(3)
O36 O 0.2347(2) 0.6091(2) 0.9921(2)
O37 O 0.2900(2) 0.2748(2) 0.81032(19)
O38 O 0.3784(2) 0.4268(2) 0.9555(2)
O39 O 0.2912(2) 0.38914(19) 0.62886(19)
O40 O 0.3997(2) 0.60090(18) 0.63186(19)
O41 O 0.1469(2) 0.5592(2) 0.6829(2)
O42 O 0.0506(2) 0.5590(3) 0.9008(2)
O43 O 0.2477(2) 0.7069(2) 0.8020(2)
O44 O 0.8306(5) 0.5807(5) 0.6736(5)
C201 C 0.5060(3) 0.1662(3) 0.8134(3)
H213 H 0.5349 0.1424 0.8299
Cl1 Cl 0.46331(12) 0.21501(9) 0.86881(10)
Cl2 Cl 0.45628(11) 0.11754(13) 0.79144(11)
Cl3 Cl 0.54912(11) 0.20636(11) 0.75334(13)
C202 C 0.0529(5) 0.2490(4) 0.5821(6)
H214 H 0.0779 0.2126 0.5832
Cl4 Cl -0.01021(17) 0.24633(17) 0.6405(2)
Cl5 Cl 0.10005(14) 0.31079(13) 0.58679(15)
Cl6 Cl 0.0351(2) 0.24982(14) 0.5134(2)
C203 C 0.5092(3) 0.1707(3) 0.3123(3)
H215 H 0.5368 0.1451 0.3287
Cl7 Cl 0.46798(11) 0.21902(9) 0.36834(9)
Cl8 Cl 0.45904(10) 0.12493(11) 0.28739(9)
Cl9 Cl 0.55540(10) 0.21182(10) 0.25355(11)
C204 C 0.4962(3) 0.3327(3) 0.0679(3)
H216 H 0.4673 0.3561 0.0990
Cl10 Cl 0.53936(12) 0.28395(9) 0.10120(10)
Cl11 Cl 0.54418(11) 0.38170(12) 0.02037(11)
Cl12 Cl 0.45292(11) 0.29171(11) 0.02940(14)
C205 C 0.4892(3) 0.3306(3) 0.5664(3)
H217 H 0.4619 0.3568 0.5961
Cl13 Cl 0.54173(9) 0.37526(11) 0.51602(10)
Cl14 Cl 0.44332(10) 0.29036(11) 0.53006(12)
Cl15 Cl 0.52974(11) 0.28187(9) 0.60229(9)
C206 C 0.0555(5) 0.7509(4) 0.8909(5)
H218 H 0.0810 0.7148 0.8773
Cl16 Cl -0.00791(16) 0.74715(16) 0.8638(3)
Cl17 Cl 0.10089(13) 0.81220(14) 0.86264(14)
Cl18 Cl 0.0371(2) 0.75119(14) 0.96904(16)
C207 C 1.0507(6) 0.3381(6) 0.8238(6)
H219 H 1.0773 0.3702 0.8307
Cl19 Cl 1.0769(3) 0.3150(3) 0.7526(2)
Cl20 Cl 1.0582(2) 0.2756(3) 0.8699(3)
Cl21 Cl 0.97489(18) 0.3633(2) 0.8438(3)
C208 C 1.0526(6) 0.8357(6) 0.6484(6)
H220 H 1.0792 0.8680 0.6282
Cl22 Cl 1.0774(3) 0.8136(3) 0.7094(2)
Cl23 Cl 1.0640(2) 0.7713(3) 0.5999(3)
Cl24 Cl 0.9779(2) 0.8600(2) 0.6657(4)
H221? H 0.5312 -0.0156 0.0374
H222? H 0.6087 -0.1086 -0.0206
H223? H 0.5523 0.4323 0.6524
H224? H 0.5854 0.4439 0.7588
loop_
_geom_bond_atom_site_label_1
_geom_bond_atom_site_label_2
_geom_bond_site_symmetry_1
_geom_bond_site_symmetry_2
C1 H1 1_555 1_555
C2 C1 1_555 1_555
C3 C2 1_555 1_555
C4 C3 1_555 1_555
H2 C4 1_555 1_555
C5 C4 1_555 1_555
C6 C1 1_555 1_555
C7 C5 1_555 1_555
H3 C7 1_555 1_555
H4 C7 1_555 1_555
C8 C7 1_555 1_555
C9 C8 1_555 1_555
C10 C11 1_555 1_555
C11 C12 1_555 1_555
C12 C8 1_555 1_555
H5 C12 1_555 1_555
C13 C9 1_555 1_555
H6 C13 1_555 1_555
C14 C10 1_555 1_555
H7 C14 1_555 1_555
H8 C14 1_555 1_555
C15 C14 1_555 1_555
C16 C15 1_555 1_555
H9 C16 1_555 1_555
C17 C16 1_555 1_555
C18 C17 1_555 1_555
C19 C18 1_555 1_555
H10 C19 1_555 1_555
C20 C15 1_555 1_555
C21 C18 1_555 1_555
H11 C21 1_555 1_555
H12 C21 1_555 1_555
C22 C21 1_555 1_555
C23 C22 1_555 1_555
C24 C23 1_555 1_555
H13 C24 1_555 1_555
C25 C24 1_555 1_555
C26 C25 1_555 1_555
C27 C22 1_555 1_555
H14 C27 1_555 1_555
C28 C25 1_555 1_555
H15 C28 1_555 1_555
H16 C28 1_555 1_555
C29 C28 1_555 1_555
C30 C29 1_555 1_555
C31 C30 1_555 1_555
H17 C31 1_555 1_555
C32 C31 1_555 1_555
C33 C32 1_555 1_555
C34 C2 1_555 1_555
H18 C34 1_555 1_555
H19 C34 1_555 1_555
C35 H20 1_555 1_555
H21 C35 1_555 1_555
H22 C35 1_555 1_555
C36 H23 1_555 1_555
H24 C36 1_555 1_555
H25 C36 1_555 1_555
C37 H26 1_555 1_555
H27 C37 1_555 1_555
H28 C37 1_555 1_555
C38 C39 1_555 1_555
C39 H29 1_555 1_555
C40 C39 1_555 1_555
H30 C40 1_555 1_555
C41 C40 1_555 1_555
H31 C41 1_555 1_555
C42 C41 1_555 1_555
H32 C42 1_555 1_555
C43 C42 1_555 1_555
H33 C43 1_555 1_555
C44 H34 1_555 1_555
H35 C44 1_555 1_555
H36 C44 1_555 1_555
C45 H37 1_555 1_555
H38 C45 1_555 1_555
H39 C45 1_555 1_555
C46 H40 1_555 1_555
H41 C46 1_555 1_555
H42 C46 1_555 1_555
C47 H43 1_555 1_555
H44 C47 1_555 1_555
H45 C47 1_555 1_555
C48 H46 1_555 1_555
H47 C48 1_555 1_555
H48 C48 1_555 1_555
C49 H49 1_555 1_555
H50 C49 1_555 1_555
H51 C49 1_555 1_555
C50 C29 1_555 1_555
H52 C50 1_555 1_555
O1 C26 1_555 1_555
O2 C30 1_555 1_555
O3 C23 1_555 1_555
O4 C20 1_555 1_555
O5 C17 1_555 1_555
O6 C11 1_555 1_555
O7 C9 1_555 1_555
O8 C3 1_555 1_555
O9 C6 1_555 1_555
O10 C33 1_555 1_555
O11 C43 1_555 1_555
H53 C38 1_555 1_555
C51 H54 1_555 1_555
H55 C51 1_555 1_555
C52 C51 1_555 1_555
C53 C52 1_555 1_555
C54 C53 1_555 1_555
H56 C54 1_555 1_555
C55 C54 1_555 1_555
C56 C55 1_555 1_555
C57 C52 1_555 1_555
H57 C57 1_555 1_555
C58 C55 1_555 1_555
H58 C58 1_555 1_555
H59 C58 1_555 1_555
C59 C58 1_555 1_555
C60 C59 1_555 1_555
H60 C60 1_555 1_555
C61 C60 1_555 1_555
C62 C61 1_555 1_555
C63 C62 1_555 1_555
H61 C63 1_555 1_555
C64 C59 1_555 1_555
C65 C62 1_555 1_555
H62 C65 1_555 1_555
H63 C65 1_555 1_555
C66 C65 1_555 1_555
C67 C66 1_555 1_555
H64 C67 1_555 1_555
C68 C67 1_555 1_555
C69 C68 1_555 1_555
C70 C69 1_555 1_555
H65 C70 1_555 1_555
C71 C66 1_555 1_555
C72 C69 1_555 1_555
H66 C72 1_555 1_555
H67 C72 1_555 1_555
C73 C72 1_555 1_555
C74 C73 1_555 1_555
H68 C74 1_555 1_555
C75 C74 1_555 1_555
C76 C75 1_555 1_555
C77 C76 1_555 1_555
H69 C77 1_555 1_555
C78 C73 1_555 1_555
C79 C80 1_555 1_555
C80 H70 1_555 1_555
C81 C80 1_555 1_555
C82 C51 1_555 1_555
C83 C82 1_555 1_555
H71 C83 1_555 1_555
C84 C79 1_555 1_555
C85 H72 1_555 1_555
H73 C85 1_555 1_555
H74 C85 1_555 1_555
C86 H75 1_555 1_555
H76 C86 1_555 1_555
H77 C86 1_555 1_555
C87 H78 1_555 1_555
H79 C87 1_555 1_555
H80 C87 1_555 1_555
C88 H81 1_555 1_555
H82 C88 1_555 1_555
H83 C88 1_555 1_555
C89 H84 1_555 1_555
H85 C89 1_555 1_555
H86 C89 1_555 1_555
C90 H87 1_555 1_555
H88 C90 1_555 1_555
H89 C90 1_555 1_555
C91 H90 1_555 1_555
H91 C91 1_555 1_555
H92 C91 1_555 1_555
C92 H93 1_555 1_555
H94 C92 1_555 1_555
H95 C92 1_555 1_555
C93 H96 1_555 1_555
H97 C93 1_555 1_555
H98 C93 1_555 1_555
C94 H99 1_555 1_555
C95 C94 1_555 1_555
H100 C95 1_555 1_555
C96 C95 1_555 1_555
H101 C96 1_555 1_555
C97 C96 1_555 1_555
H102 C97 1_555 1_555
C98 C97 1_555 1_555
H103 C98 1_555 1_555
C99 C98 1_555 1_555
H104 C99 1_555 1_555
C100 C76 1_555 1_555
H105 C100 1_555 1_555
H106 C100 1_555 1_555
O12 C56 1_555 1_555
O13 C53 1_555 1_555
O14 C81 1_555 1_555
O15 C61 1_555 1_555
O16 C64 1_555 1_555
O17 C71 1_555 1_555
O18 C68 1_555 1_555
O19 C78 1_555 1_555
O20 C75 1_555 1_555
O21 C84 1_555 1_555
O22 C99 1_555 1_555
C101 H107 1_555 1_555
C102 C101 1_555 1_555
C103 C102 1_555 1_555
C104 C103 1_555 1_555
H108 C104 1_555 1_555
C105 C104 1_555 1_555
C106 C101 1_555 1_555
C107 C103 1_555 1_555
H109 C107 1_555 1_555
H110 C107 1_555 1_555
C108 H111 1_555 1_555
C109 C107 1_555 1_555
C110 C109 1_555 1_555
C111 C110 1_555 1_555
H112 C111 1_555 1_555
C112 C111 1_555 1_555
C113 C108 1_555 1_555
C114 C112 1_555 1_555
H113 C114 1_555 1_555
H114 C114 1_555 1_555
C115 C114 1_555 1_555
C116 C115 1_555 1_555
C117 C116 1_555 1_555
H115 C117 1_555 1_555
C118 C117 1_555 1_555
C119 C118 1_555 1_555
C120 C115 1_555 1_555
H116 C120 1_555 1_555
C121 C122 1_555 1_555
C122 C123 1_555 1_555
C123 H117 1_555 1_555
C124 C123 1_555 1_555
C125 C124 1_555 1_555
C126 C121 1_555 1_555
H118 C126 1_555 1_555
C127 C124 1_555 1_555
H119 C127 1_555 1_555
H120 C127 1_555 1_555
C128 C127 1_555 1_555
C129 C128 1_555 1_555
C130 C129 1_555 1_555
H121 C130 1_555 1_555
C131 C128 1_555 1_555
H122 C131 1_555 1_555
C132 C131 1_555 1_555
C133 C130 1_555 1_555
C134 H123 1_555 1_555
H124 C134 1_555 1_555
H125 C134 1_555 1_555
C135 H126 1_555 1_555
H127 C135 1_555 1_555
H128 C135 1_555 1_555
C136 H129 1_555 1_555
H130 C136 1_555 1_555
H131 C136 1_555 1_555
C137 H132 1_555 1_555
H133 C137 1_555 1_555
H134 C137 1_555 1_555
C138 H135 1_555 1_555
H136 C138 1_555 1_555
H137 C138 1_555 1_555
C139 H138 1_555 1_555
H139 C139 1_555 1_555
H140 C139 1_555 1_555
C140 H141 1_555 1_555
H142 C140 1_555 1_555
H143 C140 1_555 1_555
C141 H144 1_555 1_555
H145 C141 1_555 1_555
H146 C141 1_555 1_555
C142 H147 1_555 1_555
H148 C142 1_555 1_555
H149 C142 1_555 1_555
C143 H150 1_555 1_555
C144 C143 1_555 1_555
H151 C144 1_555 1_555
C145 C144 1_555 1_555
H152 C145 1_555 1_555
C146 C145 1_555 1_555
H153 C146 1_555 1_555
C147 C146 1_555 1_555
H154 C147 1_555 1_555
C148 C147 1_555 1_555
H155 C148 1_555 1_555
C149 C106 1_555 1_555
H156 C149 1_555 1_555
H157 C149 1_555 1_555
C150 C118 1_555 1_555
H158 C150 1_555 1_555
H159 C150 1_555 1_555
O23 C102 1_555 1_555
O24 C105 1_555 1_555
O25 C129 1_555 1_555
O26 C132 1_555 1_555
O27 C125 1_555 1_555
O28 C122 1_555 1_555
O29 C119 1_555 1_555
O30 C116 1_555 1_555
O31 C110 1_555 1_555
O32 C113 1_555 1_555
O33 C148 1_555 1_555
C151 H160 1_555 1_555
C152 C151 1_555 1_555
C153 C152 1_555 1_555
C154 C153 1_555 1_555
H161 C154 1_555 1_555
C155 C154 1_555 1_555
C156 C153 1_555 1_555
H162 C156 1_555 1_555
H163 C156 1_555 1_555
C157 C156 1_555 1_555
C158 C157 1_555 1_555
C159 C158 1_555 1_555
H164 C159 1_555 1_555
C160 C159 1_555 1_555
C161 C160 1_555 1_555
C162 C157 1_555 1_555
H165 C162 1_555 1_555
C163 C164 1_555 1_555
C164 C165 1_555 1_555
C165 H166 1_555 1_555
C166 C165 1_555 1_555
C167 C166 1_555 1_555
C168 C163 1_555 1_555
H167 C168 1_555 1_555
C169 C170 1_555 1_555
C170 H168 1_555 1_555
C171 C170 1_555 1_555
C172 C171 1_555 1_555
C173 C172 1_555 1_555
H169 C173 1_555 1_555
C174 C169 1_555 1_555
C175 C172 1_555 1_555
H170 C175 1_555 1_555
H171 C175 1_555 1_555
C176 C177 1_555 1_555
C177 H172 1_555 1_555
C178 C177 1_555 1_555
C179 C175 1_555 1_555
C180 C179 1_555 1_555
H173 C180 1_555 1_555
C181 C176 1_555 1_555
C182 C176 1_555 1_555
H174 C182 1_555 1_555
H175 C182 1_555 1_555
C183 H176 1_555 1_555
H177 C183 1_555 1_555
H178 C183 1_555 1_555
C184 H179 1_555 1_555
H180 C184 1_555 1_555
H181 C184 1_555 1_555
C185 H182 1_555 1_555
H183 C185 1_555 1_555
H184 C185 1_555 1_555
C186 H185 1_555 1_555
H186 C186 1_555 1_555
H187 C186 1_555 1_555
C187 H188 1_555 1_555
H189 C187 1_555 1_555
H190 C187 1_555 1_555
C188 H191 1_555 1_555
H192 C188 1_555 1_555
H193 C188 1_555 1_555
C189 H194 1_555 1_555
H195 C189 1_555 1_555
H196 C189 1_555 1_555
C190 H197 1_555 1_555
H198 C190 1_555 1_555
H199 C190 1_555 1_555
C191 C167 1_555 1_555
H200 C191 1_555 1_555
H201 C191 1_555 1_555
C192 C160 1_555 1_555
H202 C192 1_555 1_555
H203 C192 1_555 1_555
C193 H204 1_555 1_555
C194 C193 1_555 1_555
H205 C194 1_555 1_555
C195 C194 1_555 1_555
H206 C195 1_555 1_555
C196 C195 1_555 1_555
H207 C196 1_555 1_555
C197 C196 1_555 1_555
H208 C197 1_555 1_555
C198 C197 1_555 1_555
H209 C198 1_555 1_555
C199 C151 1_555 1_555
C200 H210 1_555 1_555
H211 C200 1_555 1_555
H212 C200 1_555 1_555
O34 C181 1_555 1_555
O35 C158 1_555 1_555
O36 C161 1_555 1_555
O37 C155 1_555 1_555
O38 C152 1_555 1_555
O39 C178 1_555 1_555
O40 C171 1_555 1_555
O41 C174 1_555 1_555
O42 C163 1_555 1_555
O43 C166 1_555 1_555
O44 C198 1_555 1_555
C201 H213 1_555 1_555
Cl1 C201 1_555 1_555
Cl2 C201 1_555 1_555
Cl3 C201 1_555 1_555
C202 H214 1_555 1_555
Cl4 C202 1_555 1_555
Cl5 C202 1_555 1_555
Cl6 C202 1_555 1_555
C203 H215 1_555 1_555
Cl7 C203 1_555 1_555
Cl8 C203 1_555 1_555
Cl9 C203 1_555 1_555
C204 H216 1_555 1_555
Cl10 C204 1_555 1_555
Cl11 C204 1_555 1_555
Cl12 C204 1_555 1_555
C205 H217 1_555 1_555
Cl13 C205 1_555 1_555
Cl14 C205 1_555 1_555
Cl15 C205 1_555 1_555
C206 H218 1_555 1_555
Cl16 C206 1_555 1_555
Cl17 C206 1_555 1_555
Cl18 C206 1_555 1_555
C207 H219 1_555 1_555
Cl19 C207 1_555 1_555
Cl20 C207 1_555 1_555
Cl21 C207 1_555 1_555
C208 H220 1_555 1_555
Cl22 C208 1_555 1_555
Cl23 C208 1_555 1_555
Cl24 C208 1_555 1_555
C5 C6 1_555 1_555
C10 C13 1_555 1_555
C19 C20 1_555 1_555
C26 C27 1_555 1_555
C32 C34 1_555 1_555
C33 C50 1_555 1_555
C35 O10 1_555 1_555
C36 O2 1_555 1_555
C37 O1 1_555 1_555
C38 O3 1_555 1_555
C44 O5 1_555 1_555
C45 O4 1_555 1_555
C46 O8 1_555 1_555
C47 O9 1_555 1_555
C48 O6 1_555 1_555
C49 O7 1_555 1_555
C56 C57 1_555 1_555
C63 C64 1_555 1_555
C70 C71 1_555 1_555
C77 C78 1_555 1_555
C79 C100 1_555 1_555
C81 C82 1_555 1_555
C83 C84 1_555 1_555
C85 O14 1_555 1_555
C86 O12 1_555 1_555
C87 O13 1_555 1_555
C88 O16 1_555 1_555
C89 O15 1_555 1_555
C90 O18 1_555 1_555
C91 O17 1_555 1_555
C92 O20 1_555 1_555
C93 O19 1_555 1_555
C94 O21 1_555 1_555
C105 C106 1_555 1_555
C108 C109 1_555 1_555
C112 C113 1_555 1_555
C119 C120 1_555 1_555
C121 C150 1_555 1_555
C125 C126 1_555 1_555
C132 C133 1_555 1_555
C133 C149 1_555 1_555
C134 O25 1_555 1_555
C135 O26 1_555 1_555
C136 O28 1_555 1_555
C137 O27 1_555 1_555
C138 O24 1_555 1_555
C139 O23 1_555 1_555
C140 O31 1_555 1_555
C141 O32 1_555 1_555
C142 O30 1_555 1_555
C143 O29 1_555 1_555
C155 C199 1_555 1_555
C161 C162 1_555 1_555
C164 C192 1_555 1_555
C167 C168 1_555 1_555
C169 C191 1_555 1_555
C173 C174 1_555 1_555
C178 C179 1_555 1_555
C180 C181 1_555 1_555
C182 C199 1_555 1_555
C183 O42 1_555 1_555
C184 O43 1_555 1_555
C185 O35 1_555 1_555
C186 O36 1_555 1_555
C187 O37 1_555 1_555
C188 O38 1_555 1_555
C189 O41 1_555 1_555
C190 O40 1_555 1_555
C193 O34 1_555 1_555
C200 O39 1_555 1_555

#END
