
#######################################################################
#
#                 Cambridge Crystallographic Data Centre
#                                CCDC 
#
#######################################################################
#
# If this CIF has been generated from an entry in the Cambridge 
# Structural Database, then it will include bibliographic, chemical, 
# crystal, experimental, refinement or atomic coordinate data resulting 
# from the CCDC's data processing and validation procedures.
#
#######################################################################

data_XINRIV01
_chemical_formula_moiety         'C15 H16 N2 O1'
_chemical_name_systematic        1,3-Dibenzylurea
_symmetry_cell_setting           monoclinic
_symmetry_space_group_name_H-M   'C c'
_symmetry_Int_Tables_number      9
_space_group_name_Hall           'C -2yc'
loop_
_symmetry_equiv_pos_site_id
_symmetry_equiv_pos_as_xyz
1 x,y,z
2 x,-y,1/2+z
3 1/2+x,1/2+y,z
4 1/2+x,1/2-y,1/2+z
_cell_length_a                   30.481(6)
_cell_length_b                   4.6315(9)
_cell_length_c                   23.122(5)
_cell_angle_alpha                90
_cell_angle_beta                 128.64(3)
_cell_angle_gamma                90
_cell_volume                     2549.61
_exptl_crystal_colour            colorless
_exptl_crystal_description       block
_chemical_melting_point          '167.8-168.3 deg.C'
_cell_formula_units_Z            8
loop_
_atom_site_label
_atom_site_type_symbol
_atom_site_fract_x
_atom_site_fract_y
_atom_site_fract_z
O1 O 0.31598(18) 0.9323(5) 0.0470(2)
N1 N 0.29864(18) 0.5144(9) -0.0144(2)
H1 H 0.2976 0.3269 -0.0134
N2 N 0.33481(18) 0.5077(8) 0.1072(2)
H2 H 0.3358 0.3204 0.1054
C1 C 0.3161(2) 0.6626(8) 0.0463(4)
C2 C 0.2813(2) 0.6555(11) -0.0817(3)
H5 H 0.3144 0.7289 -0.0748
H6 H 0.2570 0.8201 -0.0924
C3 C 0.2500(2) 0.4489(11) -0.1461(3)
C4 C 0.2734(2) 0.3547(14) -0.1786(3)
H7 H 0.3094 0.4180 -0.1599
C5 C 0.2438(3) 0.1671(15) -0.2387(4)
H8 H 0.2593 0.1055 -0.2613
C6 C 0.1921(3) 0.0737(14) -0.2646(3)
H9 H 0.1719 -0.0517 -0.3055
C7 C 0.1687(2) 0.1585(14) -0.2322(3)
H10 H 0.1332 0.0893 -0.2499
C8 C 0.1978(2) 0.3445(13) -0.1740(3)
H11 H 0.1818 0.4043 -0.1521
C9 C 0.3532(3) 0.6425(13) 0.1754(3)
H12 H 0.3205 0.7142 0.1698
H13 H 0.3774 0.8076 0.1862
C10 C 0.3851(2) 0.4294(12) 0.2387(3)
C11 C 0.4378(2) 0.3303(13) 0.2644(3)
H14 H 0.4533 0.3958 0.2421
C12 C 0.4671(2) 0.1363(14) 0.3224(3)
H15 H 0.5025 0.0692 0.3393
C13 C 0.4450(3) 0.0412(12) 0.3554(3)
H16 H 0.4654 -0.0890 0.3952
C14 C 0.3932(3) 0.1347(15) 0.3306(3)
H17 H 0.3781 0.0672 0.3532
C15 C 0.3630(2) 0.3296(13) 0.2721(3)
H18 H 0.3275 0.3934 0.2552
O2 O 0.57752(15) -0.5725(6) 0.3055(2)
N3 N 0.53850(18) -0.1405(9) 0.2493(2)
H3 H 0.5389 0.0450 0.2555
N4 N 0.60986(17) -0.1604(9) 0.3733(2)
H4 H 0.6021 0.0168 0.3765
C16 C 0.5755(2) -0.3065(9) 0.3087(3)
C17 C 0.4982(3) -0.2575(12) 0.1754(3)
H19 H 0.4622 -0.2911 0.1655
H20 H 0.5117 -0.4426 0.1716
C18 C 0.4899(2) -0.0456(11) 0.1189(3)
C19 C 0.5340(2) 0.0282(12) 0.1191(3)
H21 H 0.5695 -0.0560 0.1539
C20 C 0.5262(3) 0.2252(13) 0.0683(4)
H22 H 0.5566 0.2756 0.0696
C21 C 0.4742(3) 0.3487(15) 0.0158(3)
H23 H 0.4687 0.4808 -0.0190
C22 C 0.4306(3) 0.2734(15) 0.0159(4)
H24 H 0.3951 0.3570 -0.0191
C23 C 0.4380(2) 0.0777(13) 0.0661(3)
H25 H 0.4074 0.0273 0.0644
C24 C 0.6599(2) -0.3000(12) 0.4376(3)
H26 H 0.6872 -0.1489 0.4696
H27 H 0.6764 -0.4174 0.4203
C25 C 0.6528(2) -0.4916(11) 0.4847(3)
C26 C 0.6997(2) -0.6277(13) 0.5451(3)
H28 H 0.7350 -0.5971 0.5570
C27 C 0.6946(3) -0.8105(14) 0.5884(3)
H29 H 0.7267 -0.9020 0.6299
C28 C 0.6435(3) -0.8578(13) 0.5712(3)
H30 H 0.6402 -0.9833 0.6002
C29 C 0.5973(3) -0.7231(14) 0.5118(3)
H31 H 0.5621 -0.7552 0.5000
C30 C 0.6017(2) -0.5395(12) 0.4687(3)
H32 H 0.5695 -0.4463 0.4279
loop_
_geom_bond_atom_site_label_1
_geom_bond_atom_site_label_2
_geom_bond_site_symmetry_1
_geom_bond_site_symmetry_2
O1 C1 1_555 1_555
O2 C16 1_555 1_555
N1 H1 1_555 1_555
N2 H2 1_555 1_555
N3 H3 1_555 1_555
N4 H4 1_555 1_555
C1 N1 1_555 1_555
C2 N1 1_555 1_555
H5 C2 1_555 1_555
H6 C2 1_555 1_555
C3 C2 1_555 1_555
C4 C3 1_555 1_555
H7 C4 1_555 1_555
C5 C4 1_555 1_555
H8 C5 1_555 1_555
C6 C5 1_555 1_555
H9 C6 1_555 1_555
C7 C6 1_555 1_555
H10 C7 1_555 1_555
C8 C3 1_555 1_555
H11 C8 1_555 1_555
C9 N2 1_555 1_555
H12 C9 1_555 1_555
H13 C9 1_555 1_555
C10 C9 1_555 1_555
C11 C10 1_555 1_555
H14 C11 1_555 1_555
C12 C11 1_555 1_555
H15 C12 1_555 1_555
C13 C12 1_555 1_555
H16 C13 1_555 1_555
C14 C13 1_555 1_555
H17 C14 1_555 1_555
C15 C10 1_555 1_555
H18 C15 1_555 1_555
C16 N3 1_555 1_555
C17 N3 1_555 1_555
H19 C17 1_555 1_555
H20 C17 1_555 1_555
C18 C17 1_555 1_555
C19 C18 1_555 1_555
H21 C19 1_555 1_555
C20 C19 1_555 1_555
H22 C20 1_555 1_555
C21 C20 1_555 1_555
H23 C21 1_555 1_555
C22 C21 1_555 1_555
H24 C22 1_555 1_555
C23 C18 1_555 1_555
H25 C23 1_555 1_555
C24 N4 1_555 1_555
H26 C24 1_555 1_555
H27 C24 1_555 1_555
C25 C24 1_555 1_555
C26 C25 1_555 1_555
H28 C26 1_555 1_555
C27 C26 1_555 1_555
H29 C27 1_555 1_555
C28 C27 1_555 1_555
H30 C28 1_555 1_555
C29 C28 1_555 1_555
H31 C29 1_555 1_555
C30 C25 1_555 1_555
H32 C30 1_555 1_555
N2 C1 1_555 1_555
N4 C16 1_555 1_555
C7 C8 1_555 1_555
C14 C15 1_555 1_555
C22 C23 1_555 1_555
C29 C30 1_555 1_555

#END
