
#######################################################################
#
#                 Cambridge Crystallographic Data Centre
#                                CCDC 
#
#######################################################################
#
# If this CIF has been generated from an entry in the Cambridge 
# Structural Database, then it will include bibliographic, chemical, 
# crystal, experimental, refinement or atomic coordinate data resulting 
# from the CCDC's data processing and validation procedures.
#
#######################################################################

data_XINVOG
_chemical_formula_moiety         'C13 H9 N1 O1 S1'
_chemical_name_systematic        
(Z)-3-(3-Thienylmethylene)-2,3-dihydroindol-2-one
_symmetry_cell_setting           orthorhombic
_symmetry_space_group_name_H-M   'P b c n'
_symmetry_Int_Tables_number      60
_space_group_name_Hall           '-P 2n 2ab'
loop_
_symmetry_equiv_pos_site_id
_symmetry_equiv_pos_as_xyz
1 x,y,z
2 1/2+x,1/2-y,-z
3 -x,y,1/2-z
4 1/2-x,1/2-y,1/2+z
5 -x,-y,-z
6 1/2-x,1/2+y,z
7 x,-y,1/2+z
8 1/2+x,1/2+y,1/2-z
_cell_length_a                   11.765(7)
_cell_length_b                   10.729(6)
_cell_length_c                   17.031(9)
_cell_angle_alpha                90
_cell_angle_beta                 90
_cell_angle_gamma                90
_cell_volume                     2149.77
_exptl_crystal_colour            orange-yellow
_exptl_crystal_description       block
_cell_formula_units_Z            8
loop_
_atom_site_label
_atom_site_type_symbol
_atom_site_fract_x
_atom_site_fract_y
_atom_site_fract_z
S1 S 0.3458(2) 0.0472(2) 0.71741(11)
O1 O 0.0736(3) 0.3631(4) 0.5440(2)
N1 N 0.1382(4) 0.5064(4) 0.4542(3)
C1 C 0.1519(5) 0.4093(5) 0.5060(3)
C2 C 0.2748(4) 0.3744(5) 0.5014(3)
C3 C 0.3246(5) 0.4570(5) 0.4425(3)
C4 C 0.4350(5) 0.4692(5) 0.4124(3)
C5 C 0.4556(5) 0.5624(5) 0.3581(3)
C6 C 0.3705(5) 0.6434(6) 0.3344(3)
C7 C 0.2608(5) 0.6325(5) 0.3633(3)
C8 C 0.2394(5) 0.5383(5) 0.4172(3)
C9 C 0.3346(5) 0.2913(5) 0.5449(3)
C10 C 0.3075(5) 0.2104(5) 0.6104(3)
C11 C 0.3908(5) 0.1342(5) 0.6412(3)
C12 C 0.2112(4) 0.1061(4) 0.7152(3)
C13 C 0.2041(5) 0.1950(6) 0.6538(4)
H1 H 0.0699(4) 0.5451(4) 0.4513(3)
H2 H 0.4940(5) 0.4148(5) 0.4290(3)
H3 H 0.5296(5) 0.5708(5) 0.3365(3)
H4 H 0.3875(5) 0.7077(6) 0.2979(3)
H5 H 0.2021(5) 0.6874(5) 0.3468(3)
H6 H 0.4115(5) 0.2841(5) 0.5284(3)
H7 H 0.4661(5) 0.1309(5) 0.6212(3)
H8 H 0.1516(4) 0.0837(4) 0.7500(3)
H9 H 0.1359(5) 0.2391(6) 0.6424(4)
loop_
_geom_bond_atom_site_label_1
_geom_bond_atom_site_label_2
_geom_bond_site_symmetry_1
_geom_bond_site_symmetry_2
S1 C11 1_555 1_555
O1 C1 1_555 1_555
N1 C1 1_555 1_555
C1 C2 1_555 1_555
C2 C3 1_555 1_555
C3 C4 1_555 1_555
C4 C5 1_555 1_555
C5 C6 1_555 1_555
C6 C7 1_555 1_555
C7 C8 1_555 1_555
C8 N1 1_555 1_555
C9 C2 1_555 1_555
C10 C9 1_555 1_555
C11 C10 1_555 1_555
C12 S1 1_555 1_555
C13 C10 1_555 1_555
H1 N1 1_555 1_555
H2 C4 1_555 1_555
H3 C5 1_555 1_555
H4 C6 1_555 1_555
H5 C7 1_555 1_555
H6 C9 1_555 1_555
H7 C11 1_555 1_555
H8 C12 1_555 1_555
H9 C13 1_555 1_555
C3 C8 1_555 1_555
C12 C13 1_555 1_555

#END
