
#######################################################################
#
#                 Cambridge Crystallographic Data Centre
#                                CCDC 
#
#######################################################################
#
# If this CIF has been generated from an entry in the Cambridge 
# Structural Database, then it will include bibliographic, chemical, 
# crystal, experimental, refinement or atomic coordinate data resulting 
# from the CCDC's data processing and validation procedures.
#
#######################################################################

data_XINXUQ
_chemical_formula_moiety         'C39 H33 N2 1+,C1 H4 O1,Br1 1-'
_chemical_name_systematic        
'1-ethyl-2-{2-[4-(triphenylethenyl)phenyl]ethenyl}quinolin-4(1H)-iminium bromide methanol solvate'
_symmetry_cell_setting           triclinic
_symmetry_space_group_name_H-M   'P -1'
_symmetry_Int_Tables_number      2
_space_group_name_Hall           '-P 1'
loop_
_symmetry_equiv_pos_site_id
_symmetry_equiv_pos_as_xyz
1 x,y,z
2 -x,-y,-z
_cell_length_a                   10.084(7)
_cell_length_b                   10.180(7)
_cell_length_c                   16.675(12)
_cell_angle_alpha                86.968(7)
_cell_angle_beta                 86.182(7)
_cell_angle_gamma                85.565(7)
_cell_volume                     1700.9
_exptl_crystal_colour            yellow
_cell_formula_units_Z            2
loop_
_atom_site_label
_atom_site_type_symbol
_atom_site_fract_x
_atom_site_fract_y
_atom_site_fract_z
Br1 Br 0.89833(6) 0.40654(7) 0.31412(5)
C1 C 0.4428(5) 0.5642(5) 0.3613(3)
C2 C 0.5320(6) 0.5020(6) 0.3038(3)
H1 H 0.6234 0.5068 0.3064
C3 C 0.4848(7) 0.4349(6) 0.2444(4)
H2 H 0.5447 0.3957 0.2064
C4 C 0.3487(7) 0.4237(7) 0.2396(4)
H3 H 0.3181 0.3765 0.1992
C5 C 0.2604(6) 0.4830(7) 0.2949(4)
H4 H 0.1695 0.4756 0.2918
C6 C 0.3050(5) 0.5550(6) 0.3566(3)
C7 C 0.2130(5) 0.6210(6) 0.4148(3)
C8 C 0.2671(5) 0.6994(6) 0.4685(3)
H5 H 0.2096 0.7503 0.5024
C9 C 0.4027(5) 0.7043(5) 0.4731(3)
C10 C 0.4555(5) 0.7865(5) 0.5316(3)
H6 H 0.5370 0.8217 0.5184
C11 C 0.3937(5) 0.8134(5) 0.6023(3)
H7 H 0.3135 0.7756 0.6154
C12 C 0.4414(5) 0.8981(5) 0.6617(3)
C13 C 0.5413(6) 0.9843(6) 0.6426(4)
H8 H 0.5765 0.9930 0.5897
C14 C 0.5884(7) 1.0560(6) 0.7001(4)
H9 H 0.6550 1.1126 0.6857
C15 C 0.5382(9) 1.0457(6) 0.7803(5)
C16 C 0.4375(8) 0.9642(6) 0.7990(4)
H10 H 0.4016 0.9573 0.8517
C17 C 0.3877(5) 0.8915(6) 0.7408(3)
H11 H 0.3182 0.8381 0.7549
C18 C 0.6514(11) 1.1116(9) 0.8369(8)
C19 C 0.7869(5) 1.0918(6) 0.8160(3)
C20 C 0.8369(10) 0.9669(8) 0.7990(4)
H12 H 0.7831 0.8973 0.8108
C21 C 0.9636(13) 0.9403(14) 0.7652(5)
H13 H 0.9966 0.8550 0.7538
C22 C 1.0389(10) 1.0466(18) 0.7490(5)
H14 H 1.1249 1.0308 0.7261
C23 C 0.9954(9) 1.1754(15) 0.7644(5)
H15 H 1.0493 1.2449 0.7527
C24 C 0.8676(8) 1.1946(10) 0.7981(4)
H16 H 0.8342 1.2799 0.8093
C25 C 0.6859(9) 1.2157(7) 0.9519(5)
C26 C 0.7811(9) 1.1432(9) 0.9945(4)
H17 H 0.8077 1.0572 0.9811
C27 C 0.8368(9) 1.1978(15) 1.0565(5)
H18 H 0.9002 1.1482 1.0855
C28 C 0.7992(15) 1.3251(19) 1.0758(6)
H19 H 0.8375 1.3615 1.1179
C29 C 0.7069(12) 1.3982(12) 1.0341(9)
H20 H 0.6826 1.4849 1.0470
C30 C 0.6498(10) 1.3447(9) 0.9734(7)
H21 H 0.5852 1.3950 0.9456
C31 C 0.5677(10) 1.1602(10) 0.8888(7)
C32 C 0.4360(5) 1.1935(5) 0.9098(3)
C33 C 0.3908(11) 1.1725(7) 0.9882(4)
H22 H 0.4482 1.1295 1.0241
C34 C 0.2625(14) 1.2131(9) 1.0161(8)
H23 H 0.2325 1.1986 1.0695
C35 C 0.1817(11) 1.2761(10) 0.9604(10)
H24 H 0.0951 1.3041 0.9778
C36 C 0.2204(10) 1.3004(8) 0.8808(9)
H25 H 0.1629 1.3429 0.8448
C37 C 0.3495(9) 1.2580(7) 0.8578(6)
H26 H 0.3798 1.2736 0.8045
C38 C 0.6355(5) 0.6278(6) 0.4329(3)
H27 H 0.6749 0.5417 0.4183
H28 H 0.6493 0.6374 0.4892
C39 C 0.7070(6) 0.7340(7) 0.3823(4)
H29 H 0.6970 0.7229 0.3263
H30 H 0.7999 0.7262 0.3924
H31 H 0.6689 0.8197 0.3965
N1 N 0.4905(4) 0.6340(4) 0.4222(2)
N2 N 0.0827(5) 0.6106(6) 0.4164(3)
H32 H 0.0304 0.6525 0.4508
H33 H 0.0503 0.5620 0.3830
C40 C 0.8684(17) 0.8628(17) 0.5612(10)
H34 H 0.8405 0.8628 0.6173
H35 H 0.7915 0.8720 0.5298
H36 H 0.9229 0.9350 0.5476
O1 O 0.9382(9) 0.7500(9) 0.5456(4)
H37 H 0.9740 0.7205 0.5862
loop_
_geom_bond_atom_site_label_1
_geom_bond_atom_site_label_2
_geom_bond_site_symmetry_1
_geom_bond_site_symmetry_2
C1 C2 1_555 1_555
C2 H1 1_555 1_555
C3 C2 1_555 1_555
H2 C3 1_555 1_555
C4 C3 1_555 1_555
H3 C4 1_555 1_555
C5 C4 1_555 1_555
H4 C5 1_555 1_555
C6 C1 1_555 1_555
C7 C6 1_555 1_555
C8 C7 1_555 1_555
H5 C8 1_555 1_555
C9 C8 1_555 1_555
C10 C9 1_555 1_555
H6 C10 1_555 1_555
C11 C10 1_555 1_555
H7 C11 1_555 1_555
C12 C11 1_555 1_555
C13 C12 1_555 1_555
H8 C13 1_555 1_555
C14 C13 1_555 1_555
H9 C14 1_555 1_555
C15 C14 1_555 1_555
C16 C15 1_555 1_555
H10 C16 1_555 1_555
C17 C12 1_555 1_555
H11 C17 1_555 1_555
C18 C15 1_555 1_555
C19 C18 1_555 1_555
C20 C19 1_555 1_555
H12 C20 1_555 1_555
C21 C20 1_555 1_555
H13 C21 1_555 1_555
C22 C21 1_555 1_555
H14 C22 1_555 1_555
C23 C22 1_555 1_555
H15 C23 1_555 1_555
C24 C19 1_555 1_555
H16 C24 1_555 1_555
C25 C26 1_555 1_555
C26 H17 1_555 1_555
C27 C26 1_555 1_555
H18 C27 1_555 1_555
C28 C27 1_555 1_555
H19 C28 1_555 1_555
C29 C28 1_555 1_555
H20 C29 1_555 1_555
C30 C25 1_555 1_555
H21 C30 1_555 1_555
C31 C18 1_555 1_555
C32 C31 1_555 1_555
C33 C32 1_555 1_555
H22 C33 1_555 1_555
C34 C33 1_555 1_555
H23 C34 1_555 1_555
C35 C34 1_555 1_555
H24 C35 1_555 1_555
C36 C35 1_555 1_555
H25 C36 1_555 1_555
C37 C32 1_555 1_555
H26 C37 1_555 1_555
C38 H27 1_555 1_555
H28 C38 1_555 1_555
C39 C38 1_555 1_555
H29 C39 1_555 1_555
H30 C39 1_555 1_555
H31 C39 1_555 1_555
N1 C1 1_555 1_555
N2 C7 1_555 1_555
H32 N2 1_555 1_555
H33 N2 1_555 1_555
C40 H34 1_555 1_555
H35 C40 1_555 1_555
H36 C40 1_555 1_555
O1 C40 1_555 1_555
H37 O1 1_555 1_555
C5 C6 1_555 1_555
C9 N1 1_555 1_555
C16 C17 1_555 1_555
C23 C24 1_555 1_555
C25 C31 1_555 1_555
C29 C30 1_555 1_555
C36 C37 1_555 1_555
C38 N1 1_555 1_555

#END
