
#######################################################################
#
#                 Cambridge Crystallographic Data Centre
#                                CCDC 
#
#######################################################################
#
# If this CIF has been generated from an entry in the Cambridge 
# Structural Database, then it will include bibliographic, chemical, 
# crystal, experimental, refinement or atomic coordinate data resulting 
# from the CCDC's data processing and validation procedures.
#
#######################################################################

data_XIPBON
_chemical_formula_moiety         'C10 H15 N1 O4'
_chemical_name_systematic        
3,7-Dihydroxy-2-methoxycarbonyl-8-methyl-8-azabicyclo[3.2.1]oct-2-ene
_symmetry_cell_setting           orthorhombic
_symmetry_space_group_name_H-M   'P b c a'
_symmetry_Int_Tables_number      61
_space_group_name_Hall           '-P 2ac 2ab'
loop_
_symmetry_equiv_pos_site_id
_symmetry_equiv_pos_as_xyz
1 x,y,z
2 1/2+x,y,1/2-z
3 x,1/2-y,1/2+z
4 1/2-x,1/2+y,z
5 -x,-y,-z
6 1/2-x,-y,1/2+z
7 -x,1/2+y,1/2-z
8 1/2+x,1/2-y,-z
_cell_length_a                   11.9860(9)
_cell_length_b                   10.0775(11)
_cell_length_c                   17.011(2)
_cell_angle_alpha                90
_cell_angle_beta                 90
_cell_angle_gamma                90
_cell_volume                     2054.74
_cell_formula_units_Z            8
loop_
_atom_site_label
_atom_site_type_symbol
_atom_site_fract_x
_atom_site_fract_y
_atom_site_fract_z
C1 C 0.99427(14) -0.11251(18) 0.19872(10)
H1 H 1.0585 -0.0660 0.2213
C2 C 1.01941(16) -0.16238(19) 0.11637(11)
C3 C 1.10339(17) -0.1023(2) 0.06692(11)
C4 C 1.2465(2) 0.0602(3) 0.05653(14)
H2 H 1.2802 0.1287 0.0877
H3 H 1.2150 0.0985 0.0099
H4 H 1.3021 -0.0040 0.0422
O1 O 1.12461(14) -0.13786(18) -0.00075(8)
O2 O 1.15925(12) -0.00421(14) 0.10151(8)
C5 C 0.95916(17) -0.2656(2) 0.08788(11)
O3 O 0.97195(17) -0.31748(18) 0.01608(9)
H5 H 1.031(2) -0.274(3) -0.0034(18)
C6 C 0.87202(18) -0.3328(2) 0.13573(12)
H6 H 0.8951 -0.4233 0.1465
H7 H 0.8029 -0.3361 0.1061
C7 C 0.85205(17) -0.2606(2) 0.21304(13)
H8 H 0.8087 -0.3158 0.2493
C8 C 0.79499(17) -0.1245(2) 0.20046(14)
H9 H 0.7524 -0.1244 0.1520
H10 H 0.7451 -0.1045 0.2438
C9 C 0.89001(16) -0.02265(19) 0.19649(12)
H11 H 0.8869 0.0275 0.1472
O4 O 0.88105(12) 0.06374(14) 0.26212(9)
H12 H 0.935(2) 0.124(2) 0.2583(14)
N1 N 0.96290(13) -0.22922(16) 0.24653(9)
C10 C 0.95812(19) -0.2013(2) 0.33181(11)
H13 H 1.0317 -0.1816 0.3508
H14 H 0.9294 -0.2775 0.3590
H15 H 0.9101 -0.1266 0.3411
loop_
_geom_bond_atom_site_label_1
_geom_bond_atom_site_label_2
_geom_bond_site_symmetry_1
_geom_bond_site_symmetry_2
C1 H1 1_555 1_555
C2 C1 1_555 1_555
C3 C2 1_555 1_555
C4 H2 1_555 1_555
H3 C4 1_555 1_555
H4 C4 1_555 1_555
O1 C3 1_555 1_555
O2 C3 1_555 1_555
C5 C2 1_555 1_555
O3 C5 1_555 1_555
H5 O3 1_555 1_555
C6 C5 1_555 1_555
H6 C6 1_555 1_555
H7 C6 1_555 1_555
C7 C6 1_555 1_555
H8 C7 1_555 1_555
C8 C7 1_555 1_555
H9 C8 1_555 1_555
H10 C8 1_555 1_555
C9 C1 1_555 1_555
H11 C9 1_555 1_555
O4 C9 1_555 1_555
H12 O4 1_555 1_555
N1 C1 1_555 1_555
C10 N1 1_555 1_555
H13 C10 1_555 1_555
H14 C10 1_555 1_555
H15 C10 1_555 1_555
C4 O2 1_555 1_555
C7 N1 1_555 1_555
C8 C9 1_555 1_555

#END
