
#######################################################################
#
#                 Cambridge Crystallographic Data Centre
#                                CCDC 
#
#######################################################################
#
# If this CIF has been generated from an entry in the Cambridge 
# Structural Database, then it will include bibliographic, chemical, 
# crystal, experimental, refinement or atomic coordinate data resulting 
# from the CCDC's data processing and validation procedures.
#
#######################################################################

data_XIPFEI
_chemical_compound_source        'leaves of Isatis indigotica'
_chemical_formula_moiety         'C25 H22 N2 O6,H2 O1'
_chemical_name_systematic        
'(2R*,9S*,10R*,12S*,13S*)-9\a,13\a-dihydroxylisopropylidenylisatisine A monohydrate'
_chemical_properties_biological  
'cytotoxicity against C8166; anti-HIV-1 activity'
_symmetry_cell_setting           orthorhombic
_symmetry_space_group_name_H-M   'P 21 21 21'
_symmetry_Int_Tables_number      19
_space_group_name_Hall           'P 2ac 2ab'
loop_
_symmetry_equiv_pos_site_id
_symmetry_equiv_pos_as_xyz
1 x,y,z
2 1/2-x,-y,1/2+z
3 1/2+x,1/2-y,-z
4 -x,1/2+y,1/2-z
_cell_length_a                   9.8873(16)
_cell_length_b                   11.8185(19)
_cell_length_c                   20.189(3)
_cell_angle_alpha                90
_cell_angle_beta                 90
_cell_angle_gamma                90
_cell_volume                     2359.15
_exptl_crystal_colour            colorless
_exptl_crystal_description       block
_cell_formula_units_Z            4
_exptl_crystal_recrystallization_method methanol/ethanol
loop_
_atom_site_label
_atom_site_type_symbol
_atom_site_fract_x
_atom_site_fract_y
_atom_site_fract_z
O1 O 0.4372(3) 0.1608(2) 0.15437(15)
O2 O -0.0163(3) -0.1206(2) 0.10872(16)
O3 O 0.1177(2) 0.19516(17) 0.15627(12)
O4 O -0.0465(2) -0.01840(19) 0.24921(12)
O5 O -0.1969(2) 0.1155(2) 0.21587(13)
O6 O -0.0394(3) 0.2403(2) 0.03990(14)
H1 H 0.0400 0.2450 0.0285
N1 N 0.3821(3) -0.1613(3) 0.3132(2)
H4 H 0.3977 -0.2273 0.3294
N2 N 0.1940(3) -0.0539(2) 0.13807(15)
C1 C 0.2542(3) 0.0304(3) 0.18343(17)
C2 C 0.3727(4) 0.0783(3) 0.14171(19)
C3 C 0.4897(5) -0.0074(4) 0.0378(2)
H5 H 0.5631 0.0418 0.0382
C4 C 0.4748(6) -0.0899(5) -0.0112(2)
H6 H 0.5400 -0.0960 -0.0441
C5 C 0.3654(6) -0.1627(5) -0.0118(2)
H7 H 0.3585 -0.2158 -0.0457
C6 C 0.2670(4) -0.1590(4) 0.0357(2)
H8 H 0.1941 -0.2087 0.0352
C7 C 0.0553(4) -0.0587(3) 0.1413(2)
C8 C 0.0099(3) 0.0305(3) 0.19184(18)
C9 C 0.1355(3) 0.1049(3) 0.20266(18)
H9 H 0.1424 0.1323 0.2483
C10 C -0.0240(3) 0.2260(3) 0.15976(19)
H10 H -0.0399 0.2700 0.2002
C11 C -0.0969(3) 0.1130(3) 0.16520(19)
H11 H -0.1341 0.0882 0.1226
C12 C -0.0576(4) 0.2981(3) 0.1002(2)
H12 H -0.1509 0.3229 0.1034
H13 H -0.0006 0.3649 0.1005
C13 C -0.1866(4) 0.0172(3) 0.2559(2)
C14 C -0.2779(4) -0.0755(4) 0.2307(2)
H14 H -0.2567 -0.0914 0.1853
H15 H -0.3705 -0.0517 0.2341
H16 H -0.2647 -0.1426 0.2568
C15 C -0.2113(5) 0.0495(4) 0.3264(2)
H17 H -0.1507 0.1093 0.3387
H18 H -0.1961 -0.0149 0.3544
H19 H -0.3030 0.0748 0.3313
C16 C 0.3257(3) -0.1408(3) 0.2527(2)
H20 H 0.2987 -0.1960 0.2226
C17 C 0.3149(3) -0.0272(3) 0.24308(18)
C18 C 0.3922(4) 0.1389(3) 0.32127(19)
H21 H 0.3686 0.1989 0.2938
C19 C 0.4481(4) 0.1586(4) 0.3824(2)
H22 H 0.4626 0.2328 0.3961
C20 C 0.4838(5) 0.0699(6) 0.4242(2)
H23 H 0.5199 0.0864 0.4656
C21 C 0.4675(4) -0.0404(5) 0.4063(2)
H24 H 0.4933 -0.0993 0.4342
C22 C 0.3892(4) -0.0025(3) 0.08598(19)
C23 C 0.2810(4) -0.0776(3) 0.08489(19)
C24 C 0.3709(4) 0.0263(3) 0.30078(18)
C25 C 0.4102(4) -0.0608(4) 0.3445(2)
O7 O 0.2317(3) 0.2888(3) 0.03489(16)
H2 H 0.2650 0.3449 0.0556
H3 H 0.2054 0.2964 -0.0049
loop_
_geom_bond_atom_site_label_1
_geom_bond_atom_site_label_2
_geom_bond_site_symmetry_1
_geom_bond_site_symmetry_2
O1 C2 1_555 1_555
O2 C7 1_555 1_555
O3 C9 1_555 1_555
O4 C8 1_555 1_555
O5 C11 1_555 1_555
O6 H1 1_555 1_555
O7 H2 1_555 1_555
H3 O7 1_555 1_555
N1 H4 1_555 1_555
N2 C1 1_555 1_555
C1 C2 1_555 1_555
C2 C22 1_555 1_555
C3 H5 1_555 1_555
C4 C3 1_555 1_555
H6 C4 1_555 1_555
C5 C4 1_555 1_555
H7 C5 1_555 1_555
C6 C5 1_555 1_555
H8 C6 1_555 1_555
C7 N2 1_555 1_555
C8 C7 1_555 1_555
C9 C1 1_555 1_555
H9 C9 1_555 1_555
C10 O3 1_555 1_555
H10 C10 1_555 1_555
C11 C8 1_555 1_555
H11 C11 1_555 1_555
C12 O6 1_555 1_555
H12 C12 1_555 1_555
H13 C12 1_555 1_555
C13 O4 1_555 1_555
C14 C13 1_555 1_555
H14 C14 1_555 1_555
H15 C14 1_555 1_555
H16 C14 1_555 1_555
C15 C13 1_555 1_555
H17 C15 1_555 1_555
H18 C15 1_555 1_555
H19 C15 1_555 1_555
C16 N1 1_555 1_555
H20 C16 1_555 1_555
C17 C1 1_555 1_555
C18 H21 1_555 1_555
C19 C18 1_555 1_555
H22 C19 1_555 1_555
C20 C19 1_555 1_555
H23 C20 1_555 1_555
C21 C20 1_555 1_555
H24 C21 1_555 1_555
C22 C3 1_555 1_555
C23 N2 1_555 1_555
C24 C17 1_555 1_555
C25 N1 1_555 1_555
O5 C13 1_555 1_555
C6 C23 1_555 1_555
C8 C9 1_555 1_555
C10 C11 1_555 1_555
C10 C12 1_555 1_555
C16 C17 1_555 1_555
C18 C24 1_555 1_555
C21 C25 1_555 1_555
C22 C23 1_555 1_555
C24 C25 1_555 1_555

#END
