
#######################################################################
#
#                 Cambridge Crystallographic Data Centre
#                                CCDC 
#
#######################################################################
#
# If this CIF has been generated from an entry in the Cambridge 
# Structural Database, then it will include bibliographic, chemical, 
# crystal, experimental, refinement or atomic coordinate data resulting 
# from the CCDC's data processing and validation procedures.
#
#######################################################################

data_XIPKOX
_chemical_name_common            '3-n-Butylbenz(e)indolizinyl acetate'
_chemical_formula_moiety         'C18 H19 N1 O2'
_chemical_name_systematic        '1-n-Butylpyrrolo(1,2-a)quinolin-3-yl acetate'
_symmetry_cell_setting           triclinic
_symmetry_space_group_name_H-M   'P -1'
_symmetry_Int_Tables_number      2
_space_group_name_Hall           '-P 1'
loop_
_symmetry_equiv_pos_site_id
_symmetry_equiv_pos_as_xyz
1 x,y,z
2 -x,-y,-z
_cell_length_a                   7.670(3)
_cell_length_b                   9.846(4)
_cell_length_c                   11.078(5)
_cell_angle_alpha                103.439(7)
_cell_angle_beta                 91.449(9)
_cell_angle_gamma                111.541(8)
_cell_volume                     751.178
_exptl_crystal_colour            yellow
_exptl_crystal_description       prismatic
_chemical_melting_point          '87-88 deg.C'
_cell_formula_units_Z            2
loop_
_atom_site_label
_atom_site_type_symbol
_atom_site_fract_x
_atom_site_fract_y
_atom_site_fract_z
O1 O 0.3398(5) 0.7604(4) 0.2648(3)
O2 O 0.334(2) 0.9409(10) 0.4191(9)
N1 N 0.1389(4) 0.4061(3) 0.3386(3)
C1 C 0.0302(5) 0.2481(4) 0.2961(4)
C2 C -0.0220(6) 0.1538(5) 0.3745(4)
H1 H 0.0137 0.1938 0.4602
C3 C -0.1261(7) 0.0014(5) 0.3281(5)
H2 H -0.1589 -0.0605 0.3826
C4 C -0.1816(7) -0.0597(5) 0.2027(5)
H3 H -0.2506 -0.1631 0.1722
C5 C -0.1365(6) 0.0299(5) 0.1224(4)
H4 H -0.1759 -0.0128 0.0373
C6 C -0.0303(5) 0.1874(5) 0.1662(4)
C7 C 0.0115(6) 0.2832(5) 0.0828(4)
H5 H -0.0279 0.2410 -0.0024
C8 C 0.1060(5) 0.4316(5) 0.1252(4)
H6 H 0.1290 0.4927 0.0701
C9 C 0.1717(5) 0.4967(4) 0.2540(4)
C10 C 0.2747(6) 0.6416(5) 0.3218(4)
C11 C 0.3092(6) 0.6418(4) 0.4449(4)
H7 H 0.3783 0.7265 0.5093
C12 C 0.2261(5) 0.4984(4) 0.4568(4)
C13 C 0.2303(5) 0.4465(4) 0.5732(3)
H8 H 0.2822 0.3687 0.5582
H9 H 0.1020 0.4016 0.5919
C14 C 0.3465(5) 0.5733(4) 0.6860(4)
H10 H 0.4745 0.6184 0.6668
H11 H 0.2941 0.6508 0.7009
C15 C 0.3529(6) 0.5228(5) 0.8037(4)
H12 H 0.4141 0.4510 0.7914
H13 H 0.2249 0.4715 0.8203
C16 C 0.4585(6) 0.6543(5) 0.9164(4)
H14 H 0.5862 0.7040 0.9012
H15 H 0.4587 0.6170 0.9891
H16 H 0.3971 0.7248 0.9299
C17 C 0.3099(12) 0.8832(10) 0.3031(7)
C18 C 0.3751(7) 0.9939(6) 0.2321(5)
H17 H 0.4953 1.0697 0.2716
H18 H 0.2856 1.0405 0.2284
H19 H 0.3877 0.9454 0.1488
O3? O 0.1347(17) 0.8238(16) 0.3226(19)
loop_
_geom_bond_atom_site_label_1
_geom_bond_atom_site_label_2
_geom_bond_site_symmetry_1
_geom_bond_site_symmetry_2
O1 C10 1_555 1_555
O2 C17 1_555 1_555
N1 C1 1_555 1_555
C1 C2 1_555 1_555
C2 H1 1_555 1_555
C3 C2 1_555 1_555
H2 C3 1_555 1_555
C4 C3 1_555 1_555
H3 C4 1_555 1_555
C5 C4 1_555 1_555
H4 C5 1_555 1_555
C6 C1 1_555 1_555
C7 C6 1_555 1_555
H5 C7 1_555 1_555
C8 C7 1_555 1_555
H6 C8 1_555 1_555
C9 N1 1_555 1_555
C10 C9 1_555 1_555
C11 C10 1_555 1_555
H7 C11 1_555 1_555
C12 N1 1_555 1_555
C13 C12 1_555 1_555
H8 C13 1_555 1_555
H9 C13 1_555 1_555
C14 C13 1_555 1_555
H10 C14 1_555 1_555
H11 C14 1_555 1_555
C15 C14 1_555 1_555
H12 C15 1_555 1_555
H13 C15 1_555 1_555
C16 C15 1_555 1_555
H14 C16 1_555 1_555
H15 C16 1_555 1_555
H16 C16 1_555 1_555
C17 O1 1_555 1_555
C18 C17 1_555 1_555
H17 C18 1_555 1_555
H18 C18 1_555 1_555
H19 C18 1_555 1_555
C5 C6 1_555 1_555
C8 C9 1_555 1_555
C11 C12 1_555 1_555

#END
