
#######################################################################
#
#                 Cambridge Crystallographic Data Centre
#                                CCDC 
#
#######################################################################
#
# If this CIF has been generated from an entry in the Cambridge 
# Structural Database, then it will include bibliographic, chemical, 
# crystal, experimental, refinement or atomic coordinate data resulting 
# from the CCDC's data processing and validation procedures.
#
#######################################################################

data_XIPMIU
_chemical_formula_moiety         'C23 H22 Br2 N2 O6'
_chemical_name_systematic        
N-(5-Bromo-2-methoxybenzyl)-2-(bromomethyl)-7,8-dimethoxy-5-oxo-1,2-dihydro-5H-[1,3]oxazolo[3,2-a]quinoline-4-carboxamide
_symmetry_cell_setting           monoclinic
_symmetry_space_group_name_H-M   'P 21/c'
_symmetry_Int_Tables_number      14
_space_group_name_Hall           '-P 2ybc'
loop_
_symmetry_equiv_pos_site_id
_symmetry_equiv_pos_as_xyz
1 x,y,z
2 -x,1/2+y,1/2-z
3 -x,-y,-z
4 x,1/2-y,1/2+z
_cell_length_a                   8.990(3)
_cell_length_b                   14.848(5)
_cell_length_c                   17.068(4)
_cell_angle_alpha                90
_cell_angle_beta                 105.119(17)
_cell_angle_gamma                90
_cell_volume                     2199.44
_exptl_crystal_colour            colorless
_exptl_crystal_description       plate
_cell_formula_units_Z            4
loop_
_atom_site_label
_atom_site_type_symbol
_atom_site_fract_x
_atom_site_fract_y
_atom_site_fract_z
Br1 Br 0.15918(10) 0.07553(5) 0.47114(5)
Br2 Br 1.01366(9) 0.07609(4) 0.72349(4)
N1 N 0.4767(7) 0.3280(3) 0.3992(3)
N2 N 0.6867(7) 0.3881(4) 0.6853(3)
H1 H 0.7452 0.4284 0.6701
O1 O 0.3989(6) 0.2425(3) 0.4873(3)
O2 O 0.7454(6) 0.4907(3) 0.5703(3)
O3 O 0.5044(6) 0.2811(3) 0.6468(3)
O4 O 0.7588(6) 0.3305(3) 0.9315(3)
O5 O 0.6107(6) 0.5018(3) 0.1877(2)
O6 O 0.7674(6) 0.6126(3) 0.2933(3)
C1 C 0.5527(8) 0.3995(4) 0.3741(4)
C2 C 0.5393(10) 0.4116(5) 0.2898(4)
H2 H 0.486(8) 0.378(4) 0.250(4)
C3 C 0.6135(9) 0.4834(4) 0.2664(4)
C4 C 0.7020(9) 0.5435(4) 0.3246(4)
C5 C 0.7141(8) 0.5286(4) 0.4061(4)
H3 H 0.7743 0.5685 0.4453
C6 C 0.6398(9) 0.4562(4) 0.4319(4)
C7 C 0.6585(9) 0.4403(4) 0.5203(4)
C8 C 0.5738(8) 0.3649(4) 0.5416(4)
C9 C 0.4855(9) 0.3138(4) 0.4792(4)
C10 C 0.3647(12) 0.1920(6) 0.4090(4)
H4 H 0.4409 0.1426 0.4105
C11 C 0.2004(12) 0.1557(7) 0.3904(5)
H5 H 0.1781 0.1233 0.3378
H6 H 0.1286 0.2073 0.3838
C12 C 0.3729(10) 0.2630(4) 0.3455(4)
H7 H 0.4186 0.2388 0.3030
H8 H 0.2707 0.2895 0.3200
C13 C 0.5825(9) 0.3404(4) 0.6278(4)
C14 C 0.7025(9) 0.3735(4) 0.7705(4)
H9 H 0.5984 0.3685 0.7796
H10 H 0.7533 0.4268 0.8009
C15 C 0.7950(8) 0.2894(4) 0.8048(4)
C16 C 0.8199(9) 0.2704(4) 0.8890(4)
C17 C 0.9049(9) 0.1951(4) 0.9223(4)
H11 H 0.9228 0.1833 0.9787
C18 C 0.9650(9) 0.1359(5) 0.8734(4)
H12 H 1.0227 0.0842 0.8962
C19 C 0.9381(8) 0.1548(4) 0.7933(4)
C20 C 0.8528(9) 0.2303(4) 0.7570(4)
H13 H 0.8351 0.2407 0.7004
C21 C 0.8075(10) 0.3248(5) 1.0193(4)
H14 H 0.7545 0.3712 1.0427
H15 H 0.9191 0.3342 1.0379
H16 H 0.7818 0.2652 1.0366
C22 C 0.5170(11) 0.4446(5) 0.1260(4)
H17 H 0.5250 0.4644 0.0725
H18 H 0.4094 0.4482 0.1282
H19 H 0.5530 0.3822 0.1352
C23 C 0.8594(10) 0.6748(5) 0.3508(4)
H20 H 0.8960 0.7233 0.3216
H21 H 0.9478 0.6430 0.3855
H22 H 0.7968 0.7005 0.3845
C24? C 0.2870(18) 0.2308(17) 0.4089(6)
H23? H 0.1852 0.2605 0.4043
C25? C 0.282(3) 0.1276(17) 0.4061(15)
H24? H 0.3884 0.1041 0.4250
H25? H 0.2403 0.1081 0.3491
H26? H 0.4301 0.2136 0.3274
H27? H 0.3030 0.2925 0.2980
loop_
_geom_bond_atom_site_label_1
_geom_bond_atom_site_label_2
_geom_bond_site_symmetry_1
_geom_bond_site_symmetry_2
Br1 C11 1_555 1_555
Br2 C19 1_555 1_555
N1 C1 1_555 1_555
N2 H1 1_555 1_555
O1 C9 1_555 1_555
O2 C7 1_555 1_555
O3 C13 1_555 1_555
O4 C16 1_555 1_555
O5 C3 1_555 1_555
O6 C4 1_555 1_555
C1 C2 1_555 1_555
C2 H2 1_555 1_555
C3 C2 1_555 1_555
C4 C3 1_555 1_555
C5 C4 1_555 1_555
H3 C5 1_555 1_555
C6 C1 1_555 1_555
C7 C6 1_555 1_555
C8 C7 1_555 1_555
C9 N1 1_555 1_555
C10 O1 1_555 1_555
H4 C10 1_555 1_555
C11 C10 1_555 1_555
H5 C11 1_555 1_555
H6 C11 1_555 1_555
C12 N1 1_555 1_555
H7 C12 1_555 1_555
H8 C12 1_555 1_555
C13 N2 1_555 1_555
C14 N2 1_555 1_555
H9 C14 1_555 1_555
H10 C14 1_555 1_555
C15 C14 1_555 1_555
C16 C15 1_555 1_555
C17 C16 1_555 1_555
H11 C17 1_555 1_555
C18 C17 1_555 1_555
H12 C18 1_555 1_555
C19 C18 1_555 1_555
C20 C15 1_555 1_555
H13 C20 1_555 1_555
C21 O4 1_555 1_555
H14 C21 1_555 1_555
H15 C21 1_555 1_555
H16 C21 1_555 1_555
C22 O5 1_555 1_555
H17 C22 1_555 1_555
H18 C22 1_555 1_555
H19 C22 1_555 1_555
C23 O6 1_555 1_555
H20 C23 1_555 1_555
H21 C23 1_555 1_555
H22 C23 1_555 1_555
C5 C6 1_555 1_555
C8 C9 1_555 1_555
C8 C13 1_555 1_555
C10 C12 1_555 1_555
C19 C20 1_555 1_555

#END
