
#######################################################################
#
#                 Cambridge Crystallographic Data Centre
#                                CCDC 
#
#######################################################################
#
# If this CIF has been generated from an entry in the Cambridge 
# Structural Database, then it will include bibliographic, chemical, 
# crystal, experimental, refinement or atomic coordinate data resulting 
# from the CCDC's data processing and validation procedures.
#
#######################################################################

data_XIPTIC
_chemical_formula_moiety         'C21 H16 N2 O4 S1'
_chemical_name_systematic        
1-[(4-methylphenyl)sulfonyl]-6-nitro-2-phenyl-1H-indole
_symmetry_cell_setting           triclinic
_symmetry_space_group_name_H-M   'P -1'
_symmetry_Int_Tables_number      2
_space_group_name_Hall           '-P 1'
loop_
_symmetry_equiv_pos_site_id
_symmetry_equiv_pos_as_xyz
1 x,y,z
2 -x,-y,-z
_cell_length_a                   7.9083(4)
_cell_length_b                   8.2522(4)
_cell_length_c                   14.4571(8)
_cell_angle_alpha                74.449(4)
_cell_angle_beta                 86.659(4)
_cell_angle_gamma                88.117(4)
_cell_volume                     907.254
_exptl_crystal_colour            colorless
_exptl_crystal_description       block
_cell_formula_units_Z            2
loop_
_atom_site_label
_atom_site_type_symbol
_atom_site_fract_x
_atom_site_fract_y
_atom_site_fract_z
C1 C 0.41103(18) 0.82069(19) 0.19666(10)
C2 C 0.52213(19) 0.94528(19) 0.15687(11)
H1 H 0.6370 0.9419 0.1679
C3 C 0.43359(19) 1.08260(19) 0.09520(11)
C4 C 0.4868(2) 1.23628(19) 0.03395(11)
H2 H 0.5995 1.2672 0.0301
C5 C 0.3693(2) 1.34112(19) -0.02064(11)
H3 H 0.4019 1.4438 -0.0619
C6 C 0.2010(2) 1.29153(19) -0.01338(10)
C7 C 0.14214(19) 1.14012(19) 0.04587(11)
H4 H 0.0292 1.1102 0.0493
C8 C 0.26262(19) 1.03689(18) 0.09946(10)
C9 C 0.45470(19) 0.64794(19) 0.25084(10)
C10 C 0.39063(19) 0.50845(19) 0.22787(10)
H5 H 0.3053 0.5227 0.1846
C11 C 0.4547(2) 0.3486(2) 0.26975(11)
H6 H 0.4137 0.2561 0.2535
C12 C 0.5798(2) 0.3260(2) 0.33581(12)
H7 H 0.6228 0.2187 0.3633
C13 C 0.6405(2) 0.4634(2) 0.36072(12)
H8 H 0.7226 0.4480 0.4060
C14 C 0.5788(2) 0.6241(2) 0.31814(11)
H9 H 0.6205 0.7161 0.3346
C15 C 0.09381(18) 0.97176(18) 0.31100(10)
C16 C 0.01707(19) 1.13060(19) 0.28568(11)
H10 H -0.0502 1.1619 0.2329
C17 C 0.0425(2) 1.24123(19) 0.34033(11)
H11 H -0.0076 1.3480 0.3236
C18 C 0.1415(2) 1.1955(2) 0.41980(11)
C19 C 0.2161(2) 1.0350(2) 0.44392(11)
H12 H 0.2821 1.0030 0.4972
C20 C 0.1939(2) 0.9224(2) 0.39007(11)
H13 H 0.2448 0.8161 0.4064
C21 C 0.1721(2) 1.3183(2) 0.47714(12)
H14 H 0.2896 1.3471 0.4700
H15 H 0.1420 1.2680 0.5438
H16 H 0.1041 1.4180 0.4543
N1 N 0.24625(15) 0.87186(15) 0.16259(9)
N2 N 0.07958(18) 1.40393(16) -0.07350(9)
O1 O -0.06829(13) 0.88536(14) 0.18018(8)
O2 O 0.08800(13) 0.66437(13) 0.29658(8)
O3 O 0.13481(17) 1.52521(15) -0.13612(9)
O4 O -0.07211(15) 1.37199(14) -0.05821(8)
S1 S 0.07310(4) 0.83352(4) 0.23896(2)
loop_
_geom_bond_atom_site_label_1
_geom_bond_atom_site_label_2
_geom_bond_site_symmetry_1
_geom_bond_site_symmetry_2
C1 C2 1_555 1_555
C2 H1 1_555 1_555
C3 C2 1_555 1_555
C4 C3 1_555 1_555
H2 C4 1_555 1_555
C5 C4 1_555 1_555
H3 C5 1_555 1_555
C6 C5 1_555 1_555
C7 C6 1_555 1_555
H4 C7 1_555 1_555
C8 C3 1_555 1_555
C9 C1 1_555 1_555
C10 C9 1_555 1_555
H5 C10 1_555 1_555
C11 C10 1_555 1_555
H6 C11 1_555 1_555
C12 C11 1_555 1_555
H7 C12 1_555 1_555
C13 C12 1_555 1_555
H8 C13 1_555 1_555
C14 C9 1_555 1_555
H9 C14 1_555 1_555
C15 C16 1_555 1_555
C16 H10 1_555 1_555
C17 C16 1_555 1_555
H11 C17 1_555 1_555
C18 C17 1_555 1_555
C19 C18 1_555 1_555
H12 C19 1_555 1_555
C20 C15 1_555 1_555
H13 C20 1_555 1_555
C21 C18 1_555 1_555
H14 C21 1_555 1_555
H15 C21 1_555 1_555
H16 C21 1_555 1_555
N1 C1 1_555 1_555
N2 C6 1_555 1_555
O1 S1 1_555 1_555
O2 S1 1_555 1_555
O3 N2 1_555 1_555
O4 N2 1_555 1_555
S1 C15 1_555 1_555
C7 C8 1_555 1_555
C8 N1 1_555 1_555
C13 C14 1_555 1_555
C19 C20 1_555 1_555
N1 S1 1_555 1_555

#END
