
#######################################################################
#
#                 Cambridge Crystallographic Data Centre
#                                CCDC 
#
#######################################################################
#
# If this CIF has been generated from an entry in the Cambridge 
# Structural Database, then it will include bibliographic, chemical, 
# crystal, experimental, refinement or atomic coordinate data resulting 
# from the CCDC's data processing and validation procedures.
#
#######################################################################

data_XIPTEY
_chemical_formula_moiety         'C21 H17 N1 O2 S1'
_chemical_name_systematic        
1-[(4-methylphenyl)sulfonyl]-2-phenyl-1H-indole
_symmetry_cell_setting           monoclinic
_symmetry_space_group_name_H-M   'P 21/n'
_symmetry_Int_Tables_number      14
_space_group_name_Hall           '-P 2yn'
loop_
_symmetry_equiv_pos_site_id
_symmetry_equiv_pos_as_xyz
1 x,y,z
2 1/2-x,1/2+y,1/2-z
3 -x,-y,-z
4 1/2+x,1/2-y,1/2+z
_cell_length_a                   6.3342(3)
_cell_length_b                   15.6498(7)
_cell_length_c                   16.8590(8)
_cell_angle_alpha                90
_cell_angle_beta                 93.733(5)
_cell_angle_gamma                90
_cell_volume                     1667.67
_exptl_crystal_colour            colorless
_exptl_crystal_description       block
_cell_formula_units_Z            4
loop_
_atom_site_label
_atom_site_type_symbol
_atom_site_fract_x
_atom_site_fract_y
_atom_site_fract_z
S1 S 0.52964(8) 0.27370(3) 0.40812(3)
O1 O 0.4905(2) 0.32535(9) 0.33890(8)
O2 O 0.7412(2) 0.24900(9) 0.43216(9)
N1 N 0.4401(3) 0.32774(10) 0.48550(9)
C1 C 0.2418(3) 0.37277(12) 0.47617(11)
C2 C 0.3715(3) 0.18139(12) 0.39904(11)
C3 C 0.1255(3) 0.35524(12) 0.53829(11)
H1 H -0.0085 0.3769 0.5457
C4 C 0.1643(3) 0.18876(13) 0.36781(12)
H2 H 0.1097 0.2417 0.3519
C5 C -0.0475(4) 0.49954(13) 0.31405(12)
H3 H -0.1824 0.5022 0.2888
C6 C 0.1984(3) 0.43553(12) 0.41202(11)
C7 C 0.0398(3) 0.11594(13) 0.36067(12)
H4 H -0.0998 0.1206 0.3405
C8 C 0.2422(3) 0.29746(12) 0.59136(12)
C9 C 0.1087(4) 0.55518(13) 0.29198(12)
H5 H 0.0796 0.5942 0.2512
C10 C -0.0027(3) 0.43978(13) 0.37399(12)
H6 H -0.1078 0.4026 0.3886
C11 C 0.3540(3) 0.49328(13) 0.39053(12)
H7 H 0.4882 0.4918 0.4164
C12 C 0.4358(3) 0.28117(12) 0.55871(11)
C13 C 0.3081(4) 0.55247(13) 0.33085(12)
H8 H 0.4118 0.5907 0.3168
C14 C 0.4557(3) 0.10256(13) 0.42257(11)
H9 H 0.5946 0.0983 0.4437
C15 C 0.3295(3) 0.03047(13) 0.41399(12)
H10 H 0.3854 -0.0225 0.4290
C16 C 0.5480(3) 0.19487(13) 0.66900(12)
H11 H 0.6490 0.1607 0.6960
C17 C 0.1200(3) 0.03583(13) 0.38321(12)
C18 C 0.3542(3) 0.20965(13) 0.70233(12)
H12 H 0.3281 0.1845 0.7507
C19 C -0.0144(4) -0.04316(14) 0.37244(15)
H13 H -0.1610 -0.0279 0.3733
H14 H 0.0218 -0.0826 0.4148
H15 H 0.0104 -0.0694 0.3224
C20 C 0.2015(3) 0.26097(13) 0.66454(12)
H16 H 0.0740 0.2711 0.6873
C21 C 0.5920(3) 0.23032(13) 0.59644(12)
H17 H 0.7201 0.2205 0.5740
loop_
_geom_bond_atom_site_label_1
_geom_bond_atom_site_label_2
_geom_bond_site_symmetry_1
_geom_bond_site_symmetry_2
S1 O1 1_555 1_555
O2 S1 1_555 1_555
N1 S1 1_555 1_555
C1 N1 1_555 1_555
C2 S1 1_555 1_555
C3 C1 1_555 1_555
H1 C3 1_555 1_555
C4 C2 1_555 1_555
H2 C4 1_555 1_555
C5 H3 1_555 1_555
C6 C1 1_555 1_555
C7 C4 1_555 1_555
H4 C7 1_555 1_555
C8 C3 1_555 1_555
C9 C5 1_555 1_555
H5 C9 1_555 1_555
C10 C5 1_555 1_555
H6 C10 1_555 1_555
C11 C6 1_555 1_555
H7 C11 1_555 1_555
C12 N1 1_555 1_555
C13 C9 1_555 1_555
H8 C13 1_555 1_555
C14 C2 1_555 1_555
H9 C14 1_555 1_555
C15 C14 1_555 1_555
H10 C15 1_555 1_555
C16 H11 1_555 1_555
C17 C7 1_555 1_555
C18 C16 1_555 1_555
H12 C18 1_555 1_555
C19 C17 1_555 1_555
H13 C19 1_555 1_555
H14 C19 1_555 1_555
H15 C19 1_555 1_555
C20 C8 1_555 1_555
H16 C20 1_555 1_555
C21 C12 1_555 1_555
H17 C21 1_555 1_555
C6 C10 1_555 1_555
C8 C12 1_555 1_555
C11 C13 1_555 1_555
C15 C17 1_555 1_555
C16 C21 1_555 1_555
C18 C20 1_555 1_555

#END
