
#######################################################################
#
#                 Cambridge Crystallographic Data Centre
#                                CCDC 
#
#######################################################################
#
# If this CIF has been generated from an entry in the Cambridge 
# Structural Database, then it will include bibliographic, chemical, 
# crystal, experimental, refinement or atomic coordinate data resulting 
# from the CCDC's data processing and validation procedures.
#
#######################################################################

data_XIPWIF
_chemical_formula_moiety         'C17 H15 N3'
_chemical_name_systematic        5,5''-dimethyl-2,2':6',2''-terpyridine
_symmetry_cell_setting           monoclinic
_symmetry_space_group_name_H-M   'I 2/a'
_symmetry_Int_Tables_number      15
_space_group_name_Hall           '-I 2ya'
loop_
_symmetry_equiv_pos_site_id
_symmetry_equiv_pos_as_xyz
1 x,y,z
2 1/2-x,y,-z
3 1/2+x,1/2+y,1/2+z
4 -x,1/2+y,1/2-z
5 -x,-y,-z
6 1/2+x,-y,z
7 1/2-x,1/2-y,1/2-z
8 x,1/2-y,1/2+z
_cell_length_a                   17.0585(5)
_cell_length_b                   6.47731(18)
_cell_length_c                   24.6079(7)
_cell_angle_alpha                90
_cell_angle_beta                 90.616(3)
_cell_angle_gamma                90
_cell_volume                     2718.85
_exptl_crystal_colour            colorless
_exptl_crystal_description       plate
_cell_formula_units_Z            8
loop_
_atom_site_label
_atom_site_type_symbol
_atom_site_fract_x
_atom_site_fract_y
_atom_site_fract_z
N1 N 0.71701(7) 0.6092(2) 0.82047(5)
N2 N 0.58848(6) 0.68564(17) 0.70506(4)
N3 N 0.49882(7) 0.61019(19) 0.57324(5)
C1 C 0.74458(9) 0.7146(3) 0.86324(6)
H1 H 0.7832 0.6494 0.8854
C2 C 0.72118(9) 0.9116(3) 0.87776(6)
C3 C 0.75465(11) 1.0189(3) 0.92692(7)
H2 H 0.7165 1.0144 0.9564
H3 H 0.7662 1.1629 0.9179
H4 H 0.8030 0.9492 0.9385
C4 C 0.66446(9) 1.0035(2) 0.84504(6)
H5 H 0.6463 1.1386 0.8532
C5 C 0.63434(8) 0.8985(2) 0.80058(6)
H6 H 0.5951 0.9599 0.7781
C6 C 0.66241(8) 0.7014(2) 0.78918(5)
C7 C 0.63365(7) 0.5837(2) 0.74113(5)
C8 C 0.65451(9) 0.3773(2) 0.73422(6)
H7 H 0.6865 0.3092 0.7605
C9 C 0.62803(9) 0.2733(2) 0.68864(7)
H8 H 0.6411 0.1323 0.6833
C10 C 0.58217(9) 0.3774(2) 0.65090(6)
H9 H 0.5635 0.3096 0.6191
C11 C 0.56382(7) 0.5842(2) 0.66058(5)
C12 C 0.51534(8) 0.7030(2) 0.62076(5)
C13 C 0.48758(8) 0.9000(2) 0.63300(6)
H10 H 0.5000 0.9628 0.6669
C14 C 0.44157(8) 1.0027(2) 0.59498(6)
H11 H 0.4228 1.1376 0.6025
C15 C 0.42297(8) 0.9084(2) 0.54591(6)
C16 C 0.37247(10) 1.0117(3) 0.50323(7)
H12 H 0.3173 1.0021 0.5136
H13 H 0.3798 0.9428 0.4682
H14 H 0.3875 1.1572 0.5001
C17 C 0.45404(9) 0.7122(2) 0.53744(6)
H15 H 0.4425 0.6464 0.5038
loop_
_geom_bond_atom_site_label_1
_geom_bond_atom_site_label_2
_geom_bond_site_symmetry_1
_geom_bond_site_symmetry_2
N1 C1 1_555 1_555
N2 C7 1_555 1_555
N3 C12 1_555 1_555
C1 H1 1_555 1_555
C2 C1 1_555 1_555
C3 C2 1_555 1_555
H2 C3 1_555 1_555
H3 C3 1_555 1_555
H4 C3 1_555 1_555
C4 C2 1_555 1_555
H5 C4 1_555 1_555
C5 C4 1_555 1_555
H6 C5 1_555 1_555
C6 N1 1_555 1_555
C7 C6 1_555 1_555
C8 C7 1_555 1_555
H7 C8 1_555 1_555
C9 C8 1_555 1_555
H8 C9 1_555 1_555
C10 C9 1_555 1_555
H9 C10 1_555 1_555
C11 N2 1_555 1_555
C12 C11 1_555 1_555
C13 C12 1_555 1_555
H10 C13 1_555 1_555
C14 C13 1_555 1_555
H11 C14 1_555 1_555
C15 C14 1_555 1_555
C16 C15 1_555 1_555
H12 C16 1_555 1_555
H13 C16 1_555 1_555
H14 C16 1_555 1_555
C17 N3 1_555 1_555
H15 C17 1_555 1_555
C5 C6 1_555 1_555
C10 C11 1_555 1_555
C15 C17 1_555 1_555

#END
