
#######################################################################
#
#                 Cambridge Crystallographic Data Centre
#                                CCDC 
#
#######################################################################
#
# If this CIF has been generated from an entry in the Cambridge 
# Structural Database, then it will include bibliographic, chemical, 
# crystal, experimental, refinement or atomic coordinate data resulting 
# from the CCDC's data processing and validation procedures.
#
#######################################################################

data_XIPXOL
_chemical_formula_moiety         'C8 H13 N2 O3 1+,I1 1-'
_chemical_name_systematic        
'1-(2-Hydroxyethyl)-3-(2-methoxy-2-oxoethyl)-1H-imidazol-3-ium iodide'
_symmetry_cell_setting           monoclinic
_symmetry_space_group_name_H-M   'P 21/n'
_symmetry_Int_Tables_number      14
_space_group_name_Hall           '-P 2yn'
loop_
_symmetry_equiv_pos_site_id
_symmetry_equiv_pos_as_xyz
1 x,y,z
2 1/2-x,1/2+y,1/2-z
3 -x,-y,-z
4 1/2+x,1/2-y,1/2+z
_cell_length_a                   8.7155(17)
_cell_length_b                   13.900(3)
_cell_length_c                   10.253(2)
_cell_angle_alpha                90
_cell_angle_beta                 111.210(2)
_cell_angle_gamma                90
_cell_volume                     1157.96
_cell_formula_units_Z            4
loop_
_atom_site_label
_atom_site_type_symbol
_atom_site_fract_x
_atom_site_fract_y
_atom_site_fract_z
I1 I 0.63726(2) 0.689313(14) 0.50984(2)
N1 N 0.6530(3) 0.82677(17) 0.0440(2)
N2 N 0.6173(3) 0.91421(16) 0.2035(2)
O1 O 0.7092(3) 0.97502(16) 0.5639(2)
O2 O 0.8699(2) 0.91549(18) 0.4556(2)
O3 O 0.5060(4) 0.83169(16) -0.2658(2)
H1 H 0.5393 0.8132 -0.3268
C1 C 0.5949(3) 0.8277(2) 0.1465(3)
H2 H 0.5462 0.7758 0.1741
C2 C 0.6927(4) 0.9711(2) 0.1345(3)
H3 H 0.7229 1.0353 0.1536
C3 C 0.7146(3) 0.9167(2) 0.0344(3)
H4 H 0.7622 0.9360 -0.0292
C4 C 0.5825(3) 0.9422(2) 0.3270(3)
H5 H 0.5039 0.8977 0.3408
H6 H 0.5343 1.0060 0.3136
C5 C 0.7385(3) 0.9416(2) 0.4537(3)
C6 C 0.8473(4) 0.9743(3) 0.6951(3)
H7 H 0.8715 0.9092 0.7275
H8 H 0.8207 1.0113 0.7631
H9 H 0.9416 1.0018 0.6819
C7 C 0.6440(4) 0.7449(2) -0.0501(3)
H10 H 0.6386 0.6853 -0.0027
H11 H 0.7427 0.7434 -0.0728
C8 C 0.4953(4) 0.7526(2) -0.1829(3)
H12 H 0.4845 0.6939 -0.2365
H13 H 0.3975 0.7594 -0.1595
loop_
_geom_bond_atom_site_label_1
_geom_bond_atom_site_label_2
_geom_bond_site_symmetry_1
_geom_bond_site_symmetry_2
N1 C1 1_555 1_555
N2 C1 1_555 1_555
O1 C5 1_555 1_555
O2 C5 1_555 1_555
O3 H1 1_555 1_555
C1 H2 1_555 1_555
C2 N2 1_555 1_555
H3 C2 1_555 1_555
C3 N1 1_555 1_555
H4 C3 1_555 1_555
C4 N2 1_555 1_555
H5 C4 1_555 1_555
H6 C4 1_555 1_555
C5 C4 1_555 1_555
C6 O1 1_555 1_555
H7 C6 1_555 1_555
H8 C6 1_555 1_555
H9 C6 1_555 1_555
C7 N1 1_555 1_555
H10 C7 1_555 1_555
H11 C7 1_555 1_555
C8 O3 1_555 1_555
H12 C8 1_555 1_555
H13 C8 1_555 1_555
C2 C3 1_555 1_555
C7 C8 1_555 1_555

#END
