
#######################################################################
#
#                 Cambridge Crystallographic Data Centre
#                                CCDC 
#
#######################################################################
#
# If this CIF has been generated from an entry in the Cambridge 
# Structural Database, then it will include bibliographic, chemical, 
# crystal, experimental, refinement or atomic coordinate data resulting 
# from the CCDC's data processing and validation procedures.
#
#######################################################################

data_XIQCOR
_chemical_formula_moiety         'C26 H21 N1 O3 S1'
_chemical_name_systematic        
3-((4-Methylphenyl)sulfonyl)-6-phenyl-3,4-dihydrobenzo[f]isoquinolin-1(2H)-one
_symmetry_cell_setting           monoclinic
_symmetry_space_group_name_H-M   'I 2/c'
_symmetry_Int_Tables_number      15
_space_group_name_Hall           '-I 2yc'
loop_
_symmetry_equiv_pos_site_id
_symmetry_equiv_pos_as_xyz
1 x,y,z
2 -x,y,1/2-z
3 1/2+x,1/2+y,1/2+z
4 1/2-x,1/2+y,-z
5 -x,-y,-z
6 x,-y,1/2+z
7 1/2-x,1/2-y,1/2-z
8 1/2+x,1/2-y,z
_cell_length_a                   15.8526(15)
_cell_length_b                   18.0503(9)
_cell_length_c                   15.8545(11)
_cell_angle_alpha                90
_cell_angle_beta                 109.029(10)
_cell_angle_gamma                90
_cell_volume                     4288.76
_exptl_crystal_colour            'light colorless'
_exptl_crystal_description       block
_cell_formula_units_Z            8
loop_
_atom_site_label
_atom_site_type_symbol
_atom_site_fract_x
_atom_site_fract_y
_atom_site_fract_z
S1 S 0.14003(7) 0.59798(6) 0.17933(7)
O1 O 0.13042(19) 0.66713(17) 0.21916(17)
O2 O 0.08649(19) 0.53559(18) 0.1848(2)
O3 O 0.3716(2) 0.40803(15) 0.2781(2)
N1 N 0.2444(2) 0.57271(16) 0.22871(19)
C1 C 0.2714(3) 0.5005(2) 0.2049(2)
H1 H 0.2768 0.5033 0.1458
H2 H 0.2256 0.4644 0.2031
C2 C 0.3594(3) 0.4748(2) 0.2705(2)
C3 C 0.4245(2) 0.53185(18) 0.3196(2)
C4 C 0.5091(2) 0.51516(18) 0.3857(2)
C5 C 0.5648(2) 0.57394(19) 0.4321(2)
C6 C 0.5367(2) 0.64894(19) 0.4102(2)
C7 C 0.4575(2) 0.66248(19) 0.3450(2)
H3 H 0.4405 0.7113 0.3297
C8 C 0.4004(2) 0.60477(19) 0.3000(2)
C9 C 0.3132(2) 0.6280(2) 0.2337(2)
H4 H 0.2953 0.6754 0.2512
H5 H 0.3200 0.6338 0.1754
C10 C 0.5399(3) 0.4410(2) 0.4087(3)
H6 H 0.5052 0.4014 0.3792
C11 C 0.6195(3) 0.4279(2) 0.4734(3)
H7 H 0.6376 0.3793 0.4883
C12 C 0.6742(3) 0.4854(2) 0.5176(3)
H8 H 0.7284 0.4752 0.5613
C13 C 0.6480(3) 0.5571(2) 0.4964(2)
H9 H 0.6856 0.5954 0.5249
C14 C 0.5888(2) 0.7141(2) 0.4567(2)
C15 C 0.6044(3) 0.7721(2) 0.4060(3)
H10 H 0.5855 0.7678 0.3442
C16 C 0.6470(3) 0.8351(2) 0.4453(3)
H11 H 0.6573 0.8731 0.4102
C17 C 0.6746(3) 0.8426(3) 0.5362(3)
H12 H 0.7030 0.8858 0.5627
C18 C 0.6604(3) 0.7861(3) 0.5884(3)
H13 H 0.6798 0.7910 0.6501
C19 C 0.6173(3) 0.7221(2) 0.5489(2)
H14 H 0.6073 0.6843 0.5843
C20 C 0.1279(2) 0.6140(2) 0.0671(3)
C21 C 0.1492(3) 0.6829(2) 0.0415(3)
H15 H 0.1649 0.7216 0.0824
C22 C 0.1467(3) 0.6934(3) -0.0456(3)
H16 H 0.1623 0.7394 -0.0625
C23 C 0.1217(3) 0.6372(3) -0.1084(3)
C24 C 0.0988(3) 0.5704(3) -0.0824(3)
H17 H 0.0808 0.5326 -0.1243
C25 C 0.1014(3) 0.5571(2) 0.0047(3)
H18 H 0.0858 0.5109 0.0211
C26 C 0.1237(4) 0.6491(4) -0.2019(3)
H19 H 0.0970 0.6961 -0.2237
H20 H 0.0908 0.6103 -0.2399
H21 H 0.1844 0.6486 -0.2014
loop_
_geom_bond_atom_site_label_1
_geom_bond_atom_site_label_2
_geom_bond_site_symmetry_1
_geom_bond_site_symmetry_2
S1 O1 1_555 1_555
O2 S1 1_555 1_555
O3 C2 1_555 1_555
N1 S1 1_555 1_555
C1 N1 1_555 1_555
H1 C1 1_555 1_555
H2 C1 1_555 1_555
C2 C1 1_555 1_555
C3 C2 1_555 1_555
C4 C3 1_555 1_555
C5 C4 1_555 1_555
C6 C5 1_555 1_555
C7 C6 1_555 1_555
H3 C7 1_555 1_555
C8 C3 1_555 1_555
C9 N1 1_555 1_555
H4 C9 1_555 1_555
H5 C9 1_555 1_555
C10 C4 1_555 1_555
H6 C10 1_555 1_555
C11 C10 1_555 1_555
H7 C11 1_555 1_555
C12 C11 1_555 1_555
H8 C12 1_555 1_555
C13 C5 1_555 1_555
H9 C13 1_555 1_555
C14 C6 1_555 1_555
C15 C14 1_555 1_555
H10 C15 1_555 1_555
C16 C15 1_555 1_555
H11 C16 1_555 1_555
C17 C16 1_555 1_555
H12 C17 1_555 1_555
C18 C17 1_555 1_555
H13 C18 1_555 1_555
C19 C14 1_555 1_555
H14 C19 1_555 1_555
C20 S1 1_555 1_555
C21 C20 1_555 1_555
H15 C21 1_555 1_555
C22 C21 1_555 1_555
H16 C22 1_555 1_555
C23 C22 1_555 1_555
C24 C23 1_555 1_555
H17 C24 1_555 1_555
C25 C20 1_555 1_555
H18 C25 1_555 1_555
C26 C23 1_555 1_555
H19 C26 1_555 1_555
H20 C26 1_555 1_555
H21 C26 1_555 1_555
C7 C8 1_555 1_555
C8 C9 1_555 1_555
C12 C13 1_555 1_555
C18 C19 1_555 1_555
C24 C25 1_555 1_555

#END
