
#######################################################################
#
#                 Cambridge Crystallographic Data Centre
#                                CCDC 
#
#######################################################################
#
# If this CIF has been generated from an entry in the Cambridge 
# Structural Database, then it will include bibliographic, chemical, 
# crystal, experimental, refinement or atomic coordinate data resulting 
# from the CCDC's data processing and validation procedures.
#
#######################################################################

data_XIQFUY
_chemical_formula_moiety         'C16 H27 N4 P1'
_chemical_name_systematic        
1-benzylidene-2,8,9-trimethyl-1-phospha-2,5,8,9-tetraazabicyclo[3.3.3]undecane
_symmetry_cell_setting           monoclinic
_symmetry_space_group_name_H-M   'P 21/c'
_symmetry_Int_Tables_number      14
_space_group_name_Hall           '-P 2ybc'
loop_
_symmetry_equiv_pos_site_id
_symmetry_equiv_pos_as_xyz
1 x,y,z
2 -x,1/2+y,1/2-z
3 -x,-y,-z
4 x,1/2-y,1/2+z
_cell_length_a                   8.1910(4)
_cell_length_b                   12.0195(6)
_cell_length_c                   16.6204(8)
_cell_angle_alpha                90
_cell_angle_beta                 98.669(1)
_cell_angle_gamma                90
_cell_volume                     1617.61
_cell_formula_units_Z            4
_exptl_crystal_recrystallization_method 'by sublimation'
loop_
_atom_site_label
_atom_site_type_symbol
_atom_site_fract_x
_atom_site_fract_y
_atom_site_fract_z
P1 P 0.3329(1) 0.7712(1) 0.1701(1)
N1 N 0.2844(1) 0.6855(1) 0.0919(1)
N2 N 0.4268(1) 0.8761(1) 0.1314(1)
N3 N 0.4639(1) 0.7045(1) 0.2383(1)
N4 N 0.6581(2) 0.6944(1) 0.1007(1)
C1 C 0.1580(2) 0.6011(1) 0.0953(1)
C2 C 0.3729(2) 0.6834(1) 0.0213(1)
C3 C 0.5493(2) 0.6381(1) 0.0377(1)
C4 C 0.3347(2) 0.9484(1) 0.0702(1)
C5 C 0.6067(2) 0.8878(1) 0.1457(1)
C6 C 0.6959(2) 0.8108(1) 0.0930(1)
C7 C 0.5122(2) 0.7517(1) 0.3197(1)
C8 C 0.5595(2) 0.6073(1) 0.2194(1)
C9 C 0.7069(2) 0.6373(1) 0.1772(1)
C10 C 0.1746(2) 0.8198(1) 0.2146(1)
C11 C 0.1048(2) 0.7706(1) 0.2805(1)
C12 C 0.1264(2) 0.6583(1) 0.3059(1)
C13 C 0.0619(2) 0.6174(1) 0.3723(1)
C14 C -0.0277(2) 0.6847(1) 0.4174(1)
C15 C -0.0537(2) 0.7948(1) 0.3932(1)
C16 C 0.0094(2) 0.8364(1) 0.3267(1)
loop_
_geom_bond_atom_site_label_1
_geom_bond_atom_site_label_2
_geom_bond_site_symmetry_1
_geom_bond_site_symmetry_2
P1 N1 1_555 1_555
N1 C1 1_555 1_555
N2 P1 1_555 1_555
N3 P1 1_555 1_555
N4 C3 1_555 1_555
C2 N1 1_555 1_555
C3 C2 1_555 1_555
C4 N2 1_555 1_555
C5 N2 1_555 1_555
C6 N4 1_555 1_555
C7 N3 1_555 1_555
C8 N3 1_555 1_555
C9 N4 1_555 1_555
C10 P1 1_555 1_555
C11 C10 1_555 1_555
C12 C11 1_555 1_555
C13 C12 1_555 1_555
C14 C13 1_555 1_555
C15 C14 1_555 1_555
C16 C11 1_555 1_555
C5 C6 1_555 1_555
C8 C9 1_555 1_555
C15 C16 1_555 1_555

#END
