
#######################################################################
#
#                 Cambridge Crystallographic Data Centre
#                                CCDC 
#
#######################################################################
#
# If this CIF has been generated from an entry in the Cambridge 
# Structural Database, then it will include bibliographic, chemical, 
# crystal, experimental, refinement or atomic coordinate data resulting 
# from the CCDC's data processing and validation procedures.
#
#######################################################################

data_XIQHIR
_chemical_formula_moiety         'C13 H17 B1 N6'
_chemical_name_systematic        
7,7-diethyl-8-methyl-7,8-dihydro-imidazo[2',1':3,4][1,4,2]diazaborinino[1,6,5-gh]purinium-7-ide
_symmetry_cell_setting           triclinic
_symmetry_space_group_name_H-M   'P -1'
_symmetry_Int_Tables_number      2
_space_group_name_Hall           '-P 1'
loop_
_symmetry_equiv_pos_site_id
_symmetry_equiv_pos_as_xyz
1 x,y,z
2 -x,-y,-z
_cell_length_a                   7.2834(4)
_cell_length_b                   7.5733(4)
_cell_length_c                   12.2004(7)
_cell_angle_alpha                92.486(2)
_cell_angle_beta                 94.926(2)
_cell_angle_gamma                96.678(2)
_cell_volume                     664.963
_exptl_crystal_colour            colorless
_exptl_crystal_description       blocks
_cell_formula_units_Z            2
loop_
_atom_site_label
_atom_site_type_symbol
_atom_site_fract_x
_atom_site_fract_y
_atom_site_fract_z
B1 B 0.43903(17) 0.25097(16) 0.19830(10)
N1 N 0.55445(13) 0.42879(12) 0.25545(8)
C1 C 0.71154(16) 0.53629(15) 0.23904(10)
H1 H 0.7950 0.5031 0.1883
N2 N 0.74180(14) 0.69091(13) 0.29816(9)
C2 C 0.59046(15) 0.68670(15) 0.35762(9)
N3 N 0.54566(14) 0.80978(13) 0.43120(8)
C3 C 0.38587(17) 0.76212(15) 0.47360(10)
H2 H 0.3491 0.8471 0.5243
N4 N 0.26764(13) 0.60845(12) 0.45449(8)
C4 C 0.31827(15) 0.49111(14) 0.38276(9)
C5 C 0.47740(15) 0.52700(14) 0.33127(9)
N5 N 0.21549(12) 0.32283(12) 0.35725(7)
C6 C 0.06374(15) 0.24610(15) 0.40688(9)
H3 H 0.0001 0.2999 0.4618
C7 C 0.02542(16) 0.07994(15) 0.36119(9)
H4 H -0.0718 -0.0069 0.3777
N6 N 0.15404(13) 0.05816(12) 0.28522(8)
C8 C 0.15222(17) -0.10826(15) 0.21876(10)
H5 H 0.1577 -0.0819 0.1411
H6 H 0.0379 -0.1866 0.2272
H7 H 0.2598 -0.1675 0.2436
C9 C 0.27300(15) 0.20635(14) 0.28213(9)
C10 C 0.56730(16) 0.09056(15) 0.18867(10)
H8 H 0.6095 0.0600 0.2640
H9 H 0.4893 -0.0155 0.1528
C11 C 0.73799(17) 0.12895(17) 0.12473(11)
H10 H 0.8058 0.0245 0.1236
H11 H 0.6985 0.1556 0.0490
H12 H 0.8190 0.2313 0.1606
C12 C 0.33808(17) 0.29943(16) 0.08068(9)
H13 H 0.4340 0.3198 0.0283
H14 H 0.2507 0.1949 0.0512
C13 C 0.23171(18) 0.46173(19) 0.08433(11)
H15 H 0.1764 0.4798 0.0102
H16 H 0.1334 0.4421 0.1340
H17 H 0.3171 0.5673 0.1111
loop_
_geom_bond_atom_site_label_1
_geom_bond_atom_site_label_2
_geom_bond_site_symmetry_1
_geom_bond_site_symmetry_2
B1 N1 1_555 1_555
N1 C1 1_555 1_555
C1 H1 1_555 1_555
N2 C1 1_555 1_555
C2 N2 1_555 1_555
N3 C2 1_555 1_555
C3 N3 1_555 1_555
H2 C3 1_555 1_555
N4 C3 1_555 1_555
C4 N4 1_555 1_555
C5 N1 1_555 1_555
N5 C4 1_555 1_555
C6 N5 1_555 1_555
H3 C6 1_555 1_555
C7 C6 1_555 1_555
H4 C7 1_555 1_555
N6 C7 1_555 1_555
C8 N6 1_555 1_555
H5 C8 1_555 1_555
H6 C8 1_555 1_555
H7 C8 1_555 1_555
C9 B1 1_555 1_555
C10 B1 1_555 1_555
H8 C10 1_555 1_555
H9 C10 1_555 1_555
C11 C10 1_555 1_555
H10 C11 1_555 1_555
H11 C11 1_555 1_555
H12 C11 1_555 1_555
C12 B1 1_555 1_555
H13 C12 1_555 1_555
H14 C12 1_555 1_555
C13 C12 1_555 1_555
H15 C13 1_555 1_555
H16 C13 1_555 1_555
H17 C13 1_555 1_555
C2 C5 1_555 1_555
C4 C5 1_555 1_555
N5 C9 1_555 1_555
N6 C9 1_555 1_555

#END
