
#######################################################################
#
#                 Cambridge Crystallographic Data Centre
#                                CCDC 
#
#######################################################################
#
# If this CIF has been generated from an entry in the Cambridge 
# Structural Database, then it will include bibliographic, chemical, 
# crystal, experimental, refinement or atomic coordinate data resulting 
# from the CCDC's data processing and validation procedures.
#
#######################################################################

data_XIQKAM
_chemical_formula_moiety         'C26 H36 N2 O7'
_chemical_name_systematic        
1'-hydroxy-1-methoxy-8'-{[5-methyl-2-isopropylcyclohexyl]oxy}-4'-nitrospiro[indole-3,2'-[7]oxabicyclo[3.3.1]nonan]-2(1H)-one
_symmetry_cell_setting           orthorhombic
_symmetry_space_group_name_H-M   'P 21 21 21'
_symmetry_Int_Tables_number      19
_space_group_name_Hall           'P 2ac 2ab'
loop_
_symmetry_equiv_pos_site_id
_symmetry_equiv_pos_as_xyz
1 x,y,z
2 1/2+x,1/2-y,-z
3 -x,1/2+y,1/2-z
4 1/2-x,-y,1/2+z
_cell_length_a                   9.6495(9)
_cell_length_b                   11.9317(11)
_cell_length_c                   22.482(2)
_cell_angle_alpha                90
_cell_angle_beta                 90
_cell_angle_gamma                90
_cell_volume                     2588.46
_exptl_crystal_colour            colorless
_exptl_crystal_description       block
_cell_formula_units_Z            4
loop_
_atom_site_label
_atom_site_type_symbol
_atom_site_fract_x
_atom_site_fract_y
_atom_site_fract_z
O1 O 1.0596(2) 0.54553(15) 0.20124(9)
O2 O 1.09838(17) 0.79784(13) 0.13981(9)
H1 H 1.1214 0.8630 0.1460
O3 O 0.93086(17) 0.97572(11) 0.15009(7)
O4 O 0.73047(17) 0.86396(13) 0.15108(8)
O5 O 0.5250(3) 0.6311(4) 0.21733(16)
O6 O 0.6169(4) 0.5665(3) 0.29418(16)
O7 O 1.1989(2) 0.47109(17) 0.09907(12)
N1 N 1.0975(2) 0.55186(17) 0.10118(12)
N2 N 0.6246(4) 0.6110(3) 0.24738(14)
C1 C 1.0317(3) 0.5899(2) 0.04982(12)
C2 C 1.0612(4) 0.5659(3) -0.00861(15)
H2 H 1.1364 0.5212 -0.0191
C3 C 0.9743(4) 0.6111(3) -0.05093(14)
H3 H 0.9926 0.5979 -0.0909
C4 C 0.8623(4) 0.6746(3) -0.03587(13)
H4 H 0.8046 0.7031 -0.0654
C5 C 0.8342(3) 0.6969(2) 0.02377(12)
H5 H 0.7570 0.7392 0.0343
C6 C 0.9211(3) 0.65621(18) 0.06686(11)
C7 C 0.9164(3) 0.66358(17) 0.13427(10)
C8 C 1.0313(3) 0.58036(19) 0.15243(13)
C9 C 1.3283(4) 0.5210(4) 0.1157(2)
H6 H 1.3512 0.5795 0.0880
H7 H 1.3997 0.4650 0.1152
H8 H 1.3207 0.5521 0.1549
C10 C 0.7766(3) 0.6255(2) 0.15904(11)
H9 H 0.7030 0.6661 0.1390
H10 H 0.7642 0.5464 0.1509
C11 C 0.7655(3) 0.6452(2) 0.22549(12)
H11 H 0.8338 0.5969 0.2450
C12 C 0.7978(3) 0.7669(2) 0.24329(11)
H12 H 0.7895 0.7739 0.2866
C13 C 0.9487(3) 0.78606(19) 0.22577(10)
H13 H 0.9797 0.8585 0.2402
H14 H 1.0069 0.7287 0.2434
C14 C 0.9602(2) 0.78178(17) 0.15868(10)
C15 C 0.8688(3) 0.87467(17) 0.13274(10)
H15 H 0.8720 0.8696 0.0893
C16 C 0.7108(3) 0.8574(2) 0.21422(12)
H16 H 0.6138 0.8429 0.2224
H17 H 0.7342 0.9292 0.2318
C17 C 0.8854(3) 1.07398(17) 0.11768(10)
H18 H 0.8456 1.0498 0.0797
C18 C 1.0104(3) 1.14715(18) 0.10516(11)
H19 H 1.0480 1.1697 0.1439
C19 C 0.9611(3) 1.25458(19) 0.07420(13)
H20 H 1.0399 1.3035 0.0677
H21 H 0.9224 1.2356 0.0357
C20 C 0.8531(3) 1.31621(19) 0.11045(14)
H22 H 0.8942 1.3409 0.1476
H23 H 0.8231 1.3822 0.0888
C21 C 0.7287(3) 1.2432(2) 0.12373(15)
H24 H 0.6840 1.2246 0.0859
C22 C 0.7748(3) 1.13439(19) 0.15282(13)
H25 H 0.8101 1.1506 0.1923
H26 H 0.6951 1.0855 0.1572
C23 C 0.6244(4) 1.3044(3) 0.1617(2)
H27 H 0.5441 1.2580 0.1673
H28 H 0.5978 1.3728 0.1424
H29 H 0.6649 1.3212 0.1997
C24 C 1.1280(3) 1.0882(2) 0.07168(13)
H30 H 1.1535 1.0225 0.0955
C25 C 1.2564(4) 1.1606(3) 0.06758(18)
H31 H 1.3295 1.1191 0.0488
H32 H 1.2850 1.1823 0.1068
H33 H 1.2362 1.2264 0.0446
C26 C 1.0868(5) 1.0447(3) 0.01058(15)
H34 H 1.0562 1.1061 -0.0137
H35 H 1.0130 0.9913 0.0147
H36 H 1.1651 1.0092 -0.0078
loop_
_geom_bond_atom_site_label_1
_geom_bond_atom_site_label_2
_geom_bond_site_symmetry_1
_geom_bond_site_symmetry_2
O1 C8 1_555 1_555
O2 H1 1_555 1_555
O3 C15 1_555 1_555
O4 C15 1_555 1_555
O5 N2 1_555 1_555
O6 N2 1_555 1_555
O7 N1 1_555 1_555
N1 C1 1_555 1_555
N2 C11 1_555 1_555
C1 C2 1_555 1_555
C2 H2 1_555 1_555
C3 C2 1_555 1_555
H3 C3 1_555 1_555
C4 C3 1_555 1_555
H4 C4 1_555 1_555
C5 C4 1_555 1_555
H5 C5 1_555 1_555
C6 C1 1_555 1_555
C7 C6 1_555 1_555
C8 N1 1_555 1_555
C9 O7 1_555 1_555
H6 C9 1_555 1_555
H7 C9 1_555 1_555
H8 C9 1_555 1_555
C10 C7 1_555 1_555
H9 C10 1_555 1_555
H10 C10 1_555 1_555
C11 C10 1_555 1_555
H11 C11 1_555 1_555
C12 C11 1_555 1_555
H12 C12 1_555 1_555
C13 C12 1_555 1_555
H13 C13 1_555 1_555
H14 C13 1_555 1_555
C14 O2 1_555 1_555
C15 C14 1_555 1_555
H15 C15 1_555 1_555
C16 O4 1_555 1_555
H16 C16 1_555 1_555
H17 C16 1_555 1_555
C17 O3 1_555 1_555
H18 C17 1_555 1_555
C18 C17 1_555 1_555
H19 C18 1_555 1_555
C19 C18 1_555 1_555
H20 C19 1_555 1_555
H21 C19 1_555 1_555
C20 C19 1_555 1_555
H22 C20 1_555 1_555
H23 C20 1_555 1_555
C21 C20 1_555 1_555
H24 C21 1_555 1_555
C22 C17 1_555 1_555
H25 C22 1_555 1_555
H26 C22 1_555 1_555
C23 C21 1_555 1_555
H27 C23 1_555 1_555
H28 C23 1_555 1_555
H29 C23 1_555 1_555
C24 C18 1_555 1_555
H30 C24 1_555 1_555
C25 C24 1_555 1_555
H31 C25 1_555 1_555
H32 C25 1_555 1_555
H33 C25 1_555 1_555
C26 C24 1_555 1_555
H34 C26 1_555 1_555
H35 C26 1_555 1_555
H36 C26 1_555 1_555
C5 C6 1_555 1_555
C7 C8 1_555 1_555
C7 C14 1_555 1_555
C12 C16 1_555 1_555
C13 C14 1_555 1_555
C21 C22 1_555 1_555

#END
