
#######################################################################
#
#                 Cambridge Crystallographic Data Centre
#                                CCDC 
#
#######################################################################
#
# If this CIF has been generated from an entry in the Cambridge 
# Structural Database, then it will include bibliographic, chemical, 
# crystal, experimental, refinement or atomic coordinate data resulting 
# from the CCDC's data processing and validation procedures.
#
#######################################################################

data_XIQKEQ
_chemical_formula_moiety         'C16 H16 N2 O6'
_chemical_name_systematic        
1-methoxy-4'-nitro-8'H-spiro[indole-3,2'-[7]oxabicyclo[3.2.2]nonane]-2,8'(1H)-dione
_symmetry_cell_setting           monoclinic
_symmetry_space_group_name_H-M   'P 21'
_symmetry_Int_Tables_number      4
_space_group_name_Hall           'P 2yb'
loop_
_symmetry_equiv_pos_site_id
_symmetry_equiv_pos_as_xyz
1 x,y,z
2 -x,1/2+y,-z
_cell_length_a                   7.2309(7)
_cell_length_b                   7.2718(7)
_cell_length_c                   14.0359(14)
_cell_angle_alpha                90
_cell_angle_beta                 94.061(2)
_cell_angle_gamma                90
_cell_volume                     736.178
_exptl_crystal_colour            colorless
_exptl_crystal_description       block
_cell_formula_units_Z            2
loop_
_atom_site_label
_atom_site_type_symbol
_atom_site_fract_x
_atom_site_fract_y
_atom_site_fract_z
O1 O -0.1341(3) -0.3750(3) 0.21135(15)
O2 O -0.0593(3) -0.1155(3) 0.35892(14)
O3 O 0.1998(3) 0.3644(3) 0.22879(14)
O4 O -0.2512(3) 0.2343(3) 0.26344(15)
O5 O 0.3992(4) 0.1532(6) 0.57410(19)
O6 O 0.5688(4) 0.2043(8) 0.4662(2)
N1 N -0.0243(3) -0.2207(3) 0.20686(17)
N2 N 0.4225(3) 0.1648(4) 0.49162(18)
C1 C 0.0117(3) -0.1066(4) 0.28322(18)
C2 C 0.1573(3) 0.0320(4) 0.25340(18)
C3 C 0.2176(4) -0.0520(4) 0.16203(19)
C4 C 0.3524(4) 0.0021(4) 0.1030(2)
H1 H 0.4312 0.1037 0.1190
C5 C 0.3693(4) -0.0977(5) 0.0186(2)
H2 H 0.4614 -0.0637 -0.0231
C6 C 0.2544(4) -0.2442(5) -0.0048(2)
H3 H 0.2697 -0.3093 -0.0624
C7 C 0.1158(4) -0.3005(5) 0.0536(2)
H4 H 0.0364 -0.4015 0.0375
C8 C 0.1021(4) -0.1993(4) 0.13609(19)
C9 C -0.3260(4) -0.3242(5) 0.1962(2)
H5 H -0.3498 -0.2767 0.1311
H6 H -0.3549 -0.2288 0.2422
H7 H -0.4040 -0.4322 0.2049
C10 C 0.0652(3) 0.2231(4) 0.22834(18)
H8 H 0.0088 0.2137 0.1614
C11 C -0.0922(4) 0.2660(4) 0.29141(19)
C12 C -0.0327(4) 0.3473(5) 0.38682(19)
H9 H -0.0878 0.2759 0.4378
H10 H -0.0784 0.4754 0.3898
C13 C 0.1792(4) 0.3456(4) 0.4036(2)
H11 H 0.2130 0.4195 0.4623
C14 C 0.2557(3) 0.1498(4) 0.42054(19)
H12 H 0.1589 0.0743 0.4498
C15 C 0.3154(4) 0.0494(4) 0.33212(19)
H13 H 0.3599 -0.0751 0.3508
H14 H 0.4200 0.1166 0.3064
C16 C 0.2632(4) 0.4401(4) 0.3200(2)
H15 H 0.2317 0.5726 0.3209
H16 H 0.3999 0.4293 0.3281
loop_
_geom_bond_atom_site_label_1
_geom_bond_atom_site_label_2
_geom_bond_site_symmetry_1
_geom_bond_site_symmetry_2
O1 N1 1_555 1_555
O2 C1 1_555 1_555
O3 C10 1_555 1_555
O4 C11 1_555 1_555
O5 N2 1_555 1_555
O6 N2 1_555 1_555
N1 C1 1_555 1_555
N2 C14 1_555 1_555
C1 C2 1_555 1_555
C2 C3 1_555 1_555
C3 C4 1_555 1_555
C4 H1 1_555 1_555
C5 C4 1_555 1_555
H2 C5 1_555 1_555
C6 C5 1_555 1_555
H3 C6 1_555 1_555
C7 C6 1_555 1_555
H4 C7 1_555 1_555
C8 N1 1_555 1_555
C9 O1 1_555 1_555
H5 C9 1_555 1_555
H6 C9 1_555 1_555
H7 C9 1_555 1_555
C10 C2 1_555 1_555
H8 C10 1_555 1_555
C11 C10 1_555 1_555
C12 C11 1_555 1_555
H9 C12 1_555 1_555
H10 C12 1_555 1_555
C13 C12 1_555 1_555
H11 C13 1_555 1_555
C14 C13 1_555 1_555
H12 C14 1_555 1_555
C15 C2 1_555 1_555
H13 C15 1_555 1_555
H14 C15 1_555 1_555
C16 O3 1_555 1_555
H15 C16 1_555 1_555
H16 C16 1_555 1_555
C3 C8 1_555 1_555
C7 C8 1_555 1_555
C13 C16 1_555 1_555
C14 C15 1_555 1_555

#END
