
#######################################################################
#
#                 Cambridge Crystallographic Data Centre
#                                CCDC 
#
#######################################################################
#
# If this CIF has been generated from an entry in the Cambridge 
# Structural Database, then it will include bibliographic, chemical, 
# crystal, experimental, refinement or atomic coordinate data resulting 
# from the CCDC's data processing and validation procedures.
#
#######################################################################

data_XIQLUH
_chemical_formula_moiety         'C17 H17 N1 O2'
_chemical_name_systematic        3-benzyl-1-(4-methoxyphenyl)azetidin-2-one
_symmetry_cell_setting           monoclinic
_symmetry_space_group_name_H-M   'P 21'
_symmetry_Int_Tables_number      4
_space_group_name_Hall           'P 2yb'
loop_
_symmetry_equiv_pos_site_id
_symmetry_equiv_pos_as_xyz
1 x,y,z
2 -x,1/2+y,-z
_cell_length_a                   5.7559(4)
_cell_length_b                   8.2337(6)
_cell_length_c                   29.857(2)
_cell_angle_alpha                90
_cell_angle_beta                 95.53
_cell_angle_gamma                90
_cell_volume                     1408.41
_exptl_crystal_colour            colorless
_exptl_crystal_description       block
_cell_formula_units_Z            4
loop_
_atom_site_label
_atom_site_type_symbol
_atom_site_fract_x
_atom_site_fract_y
_atom_site_fract_z
O1 O 0.0078(4) 0.4336(4) 0.50224(8)
C1 C 0.2394(5) 0.3542(3) 0.62212(9)
N1 N 0.3250(4) 0.2913(3) 0.47690(7)
O2 O 0.4398(4) 0.4265(3) 0.29776(7)
C2 C 0.2930(6) 0.3020(4) 0.66644(10)
H1 H 0.4263 0.2355 0.6736
C3 C 0.1556(7) 0.3453(5) 0.70003(11)
H2 H 0.1963 0.3087 0.7299
C4 C -0.0401(6) 0.4410(4) 0.69068(10)
H3 H -0.1329 0.4717 0.7139
C5 C 0.3994(5) 0.3124(4) 0.58652(9)
H4 H 0.5236 0.2395 0.6001
H5 H 0.4757 0.4135 0.5776
C6 C 0.0398(5) 0.4482(4) 0.61284(9)
H6 H -0.0031 0.4836 0.5829
C7 C -0.0983(5) 0.4912(4) 0.64692(10)
H7 H -0.2338 0.5557 0.6399
C8 C 0.1703(5) 0.3392(3) 0.50657(9)
C9 C 0.2846(5) 0.2312(3) 0.54410(8)
H8 H 0.1807 0.1393 0.5513
C10 C 0.4536(5) 0.1817(4) 0.50887(9)
H9 H 0.6177 0.2143 0.5171
H10 H 0.4429 0.0659 0.5000
C11 C 0.3586(5) 0.3282(3) 0.43218(8)
C12 C 0.1945(5) 0.4196(3) 0.40535(9)
H11 H 0.0592 0.4597 0.4175
C13 C 0.4255(5) 0.3928(3) 0.34219(9)
C14 C 0.5912(5) 0.3032(3) 0.36908(9)
H12 H 0.7267 0.2631 0.3570
C15 C 0.5562(5) 0.2734(3) 0.41359(9)
H13 H 0.6705 0.2139 0.4319
C16 C 0.6319(7) 0.3609(5) 0.27712(11)
H14 H 0.6206 0.3932 0.2454
H15 H 0.6294 0.2422 0.2793
H16 H 0.7781 0.4022 0.2925
C17 C 0.2299(5) 0.4515(4) 0.36092(9)
H17 H 0.1186 0.5147 0.3429
N2 N 0.6222(4) 0.7076(3) 0.01801(7)
O3 O 0.9571(4) 0.5685(3) -0.00133(7)
O4 O 0.5130(4) 0.6638(3) 0.20096(6)
C18 C 0.8537(5) 0.7417(3) -0.12104(9)
C19 C 1.0300(5) 0.6279(4) -0.11189(10)
H18 H 1.0665 0.5915 -0.0818
C20 C 1.1541(6) 0.5661(4) -0.14585(10)
H19 H 1.2761 0.4901 -0.1387
C21 C 1.1008(6) 0.6148(4) -0.18999(11)
H20 H 1.1854 0.5727 -0.2132
C22 C 0.9233(6) 0.7251(4) -0.19985(10)
H21 H 0.8852 0.7591 -0.2301
C23 C 0.7997(6) 0.7871(4) -0.16599(10)
H22 H 0.6761 0.8617 -0.1735
C24 C 0.7237(6) 0.8173(4) -0.08448(10)
H23 H 0.5930 0.8827 -0.0990
H24 H 0.8308 0.8926 -0.0668
C25 C 0.6260(5) 0.6975(3) -0.05219(9)
H25 H 0.5530 0.6017 -0.0686
C26 C 0.7773(5) 0.6449(3) -0.00957(9)
C27 C 0.4609(5) 0.7704(4) -0.01898(9)
H26 H 0.4500 0.8904 -0.0199
H27 H 0.3040 0.7201 -0.0211
C28 C 0.5946(5) 0.7002(3) 0.06422(8)
C29 C 0.7629(5) 0.6253(4) 0.09415(9)
H28 H 0.9006 0.5821 0.0836
C30 C 0.7279(5) 0.6143(4) 0.13934(10)
H29 H 0.8411 0.5616 0.1596
C31 C 0.5286(5) 0.6797(3) 0.15555(9)
C32 C 0.3619(5) 0.7551(3) 0.12596(9)
H30 H 0.2263 0.8008 0.1367
C33 C 0.3944(5) 0.7632(3) 0.08053(9)
H31 H 0.2782 0.8126 0.0602
C34 C 0.3166(6) 0.7336(5) 0.21909(10)
H32 H 0.3123 0.8505 0.2130
H33 H 0.3287 0.7154 0.2517
H34 H 0.1735 0.6829 0.2051
loop_
_geom_bond_atom_site_label_1
_geom_bond_atom_site_label_2
_geom_bond_site_symmetry_1
_geom_bond_site_symmetry_2
O1 C8 1_555 1_555
C1 C2 1_555 1_555
N1 C8 1_555 1_555
O2 C13 1_555 1_555
C2 H1 1_555 1_555
C3 C2 1_555 1_555
H2 C3 1_555 1_555
C4 C3 1_555 1_555
H3 C4 1_555 1_555
C5 C1 1_555 1_555
H4 C5 1_555 1_555
H5 C5 1_555 1_555
C6 C1 1_555 1_555
H6 C6 1_555 1_555
C7 C4 1_555 1_555
H7 C7 1_555 1_555
C8 C9 1_555 1_555
C9 C5 1_555 1_555
H8 C9 1_555 1_555
C10 N1 1_555 1_555
H9 C10 1_555 1_555
H10 C10 1_555 1_555
C11 N1 1_555 1_555
C12 C11 1_555 1_555
H11 C12 1_555 1_555
C13 C14 1_555 1_555
C14 H12 1_555 1_555
C15 C11 1_555 1_555
H13 C15 1_555 1_555
C16 O2 1_555 1_555
H14 C16 1_555 1_555
H15 C16 1_555 1_555
H16 C16 1_555 1_555
C17 C12 1_555 1_555
H17 C17 1_555 1_555
N2 C26 1_555 1_555
O3 C26 1_555 1_555
O4 C31 1_555 1_555
C18 C19 1_555 1_555
C19 H18 1_555 1_555
C20 C19 1_555 1_555
H19 C20 1_555 1_555
C21 C20 1_555 1_555
H20 C21 1_555 1_555
C22 C21 1_555 1_555
H21 C22 1_555 1_555
C23 C18 1_555 1_555
H22 C23 1_555 1_555
C24 C18 1_555 1_555
H23 C24 1_555 1_555
H24 C24 1_555 1_555
C25 C24 1_555 1_555
H25 C25 1_555 1_555
C26 C25 1_555 1_555
C27 N2 1_555 1_555
H26 C27 1_555 1_555
H27 C27 1_555 1_555
C28 N2 1_555 1_555
C29 C28 1_555 1_555
H28 C29 1_555 1_555
C30 C29 1_555 1_555
H29 C30 1_555 1_555
C31 C30 1_555 1_555
C32 C31 1_555 1_555
H30 C32 1_555 1_555
C33 C28 1_555 1_555
H31 C33 1_555 1_555
C34 O4 1_555 1_555
H32 C34 1_555 1_555
H33 C34 1_555 1_555
H34 C34 1_555 1_555
C6 C7 1_555 1_555
C9 C10 1_555 1_555
C13 C17 1_555 1_555
C14 C15 1_555 1_555
C22 C23 1_555 1_555
C25 C27 1_555 1_555
C32 C33 1_555 1_555

#END
