
#######################################################################
#
#                 Cambridge Crystallographic Data Centre
#                                CCDC 
#
#######################################################################
#
# If this CIF has been generated from an entry in the Cambridge 
# Structural Database, then it will include bibliographic, chemical, 
# crystal, experimental, refinement or atomic coordinate data resulting 
# from the CCDC's data processing and validation procedures.
#
#######################################################################

data_XIQMIW
_chemical_formula_moiety         'C24 H25 Br1 F3 N1 O4'
_chemical_name_systematic        
'diethyl 5-(2-bromophenyl)-2-methyl-3-phenyl-4-(trifluoromethyl)pyrrolidine-2,4-dicarboxylate'
_symmetry_cell_setting           tetragonal
_symmetry_space_group_name_H-M   'P 43'
_symmetry_Int_Tables_number      78
_space_group_name_Hall           'P 4cw'
loop_
_symmetry_equiv_pos_site_id
_symmetry_equiv_pos_as_xyz
1 x,y,z
2 -x,-y,1/2+z
3 -y,x,3/4+z
4 y,-x,1/4+z
_cell_length_a                   9.1472(2)
_cell_length_b                   9.1472(2)
_cell_length_c                   29.3537(10)
_cell_angle_alpha                90
_cell_angle_beta                 90
_cell_angle_gamma                90
_cell_volume                     2456.06
_exptl_crystal_colour            colorless
_exptl_crystal_description       block
_cell_formula_units_Z            4
loop_
_atom_site_label
_atom_site_type_symbol
_atom_site_fract_x
_atom_site_fract_y
_atom_site_fract_z
Br1 Br 0.64825(13) 0.95796(9) 0.04372(5)
F1 F 1.0854(4) 0.5877(5) 0.07981(17)
F2 F 1.0223(5) 0.6857(4) 0.01727(16)
F3 F 0.9338(4) 0.7669(4) 0.07827(15)
O1 O 0.6241(5) 0.2393(6) -0.0363(2)
O2 O 0.8408(5) 0.2355(6) -0.06943(17)
O3 O 0.7856(6) 0.3487(6) 0.10891(15)
O4 O 0.8183(5) 0.5762(5) 0.13327(15)
N1 N 0.6610(5) 0.5178(6) -0.00563(17)
H1 H 0.5725 0.5073 -0.0150
C1 C 1.0238(6) 0.3303(6) 0.0172(2)
C2 C 1.0369(7) 0.1916(7) 0.0338(2)
H2 H 0.9563 0.1466 0.0471
C3 C 1.1681(10) 0.1167(10) 0.0311(3)
H3 H 1.1757 0.0231 0.0432
C4 C 1.2885(9) 0.1812(13) 0.0103(3)
H4 H 1.3768 0.1312 0.0084
C5 C 1.2757(7) 0.3158(11) -0.0070(3)
H5 H 1.3560 0.3594 -0.0209
C6 C 1.1452(6) 0.3909(8) -0.0046(3)
H6 H 1.1379 0.4833 -0.0176
C7 C 0.5882(6) 0.6534(8) 0.0626(2)
C8 C 0.5546(7) 0.8100(9) 0.0717(2)
C9 C 0.4368(11) 0.8304(14) 0.1016(4)
H7 H 0.4088 0.9254 0.1088
C10 C 0.3619(10) 0.718(2) 0.1205(3)
H8 H 0.2847 0.7395 0.1399
C11 C 0.3924(9) 0.5803(18) 0.1128(4)
H9 H 0.3398 0.5066 0.1273
C12 C 0.5045(7) 0.5462(9) 0.0828(2)
H10 H 0.5236 0.4487 0.0762
C13 C 0.7903(6) 0.4425(6) -0.02396(19)
C14 C 0.8754(5) 0.4029(6) 0.02031(18)
H11 H 0.8147 0.3254 0.0335
C15 C 0.8492(5) 0.5332(6) 0.05409(18)
C16 C 0.7091(6) 0.6138(6) 0.03131(19)
H12 H 0.7443 0.7045 0.0174
C17 C 0.8614(8) 0.5341(8) -0.0599(2)
H13 H 0.7949 0.5474 -0.0849
H14 H 0.9482 0.4860 -0.0706
H15 H 0.8868 0.6276 -0.0474
C18 C 0.7381(6) 0.2954(8) -0.0440(2)
C19 C 0.8138(10) 0.0863(11) -0.0862(3)
H16 H 0.7533 0.0336 -0.0646
H17 H 0.7623 0.0904 -0.1151
C20 C 0.9517(14) 0.0109(15) -0.0921(5)
H18 H 0.9338 -0.0875 -0.1019
H19 H 1.0035 0.0095 -0.0636
H20 H 1.0093 0.0609 -0.1145
C21 C 0.8157(6) 0.4725(7) 0.10201(19)
C22 C 0.7800(11) 0.5331(9) 0.1794(2)
H21 H 0.8571 0.4739 0.1926
H22 H 0.6902 0.4767 0.1794
C23 C 0.7610(12) 0.6684(10) 0.2056(3)
H23 H 0.7341 0.6449 0.2364
H24 H 0.6854 0.7265 0.1919
H25 H 0.8509 0.7225 0.2057
C24 C 0.9725(8) 0.6446(7) 0.0578(2)
loop_
_geom_bond_atom_site_label_1
_geom_bond_atom_site_label_2
_geom_bond_site_symmetry_1
_geom_bond_site_symmetry_2
Br1 C8 1_555 1_555
F1 C24 1_555 1_555
F2 C24 1_555 1_555
F3 C24 1_555 1_555
O1 C18 1_555 1_555
O2 C18 1_555 1_555
O3 C21 1_555 1_555
O4 C21 1_555 1_555
N1 H1 1_555 1_555
C1 C2 1_555 1_555
C2 H2 1_555 1_555
C3 C2 1_555 1_555
H3 C3 1_555 1_555
C4 C3 1_555 1_555
H4 C4 1_555 1_555
C5 C4 1_555 1_555
H5 C5 1_555 1_555
C6 C1 1_555 1_555
H6 C6 1_555 1_555
C7 C8 1_555 1_555
C8 C9 1_555 1_555
C9 H7 1_555 1_555
C10 C9 1_555 1_555
H8 C10 1_555 1_555
C11 C10 1_555 1_555
H9 C11 1_555 1_555
C12 C7 1_555 1_555
H10 C12 1_555 1_555
C13 N1 1_555 1_555
C14 C1 1_555 1_555
H11 C14 1_555 1_555
C15 C14 1_555 1_555
C16 N1 1_555 1_555
H12 C16 1_555 1_555
C17 C13 1_555 1_555
H13 C17 1_555 1_555
H14 C17 1_555 1_555
H15 C17 1_555 1_555
C18 C13 1_555 1_555
C19 O2 1_555 1_555
H16 C19 1_555 1_555
H17 C19 1_555 1_555
C20 C19 1_555 1_555
H18 C20 1_555 1_555
H19 C20 1_555 1_555
H20 C20 1_555 1_555
C21 C15 1_555 1_555
C22 O4 1_555 1_555
H21 C22 1_555 1_555
H22 C22 1_555 1_555
C23 C22 1_555 1_555
H23 C23 1_555 1_555
H24 C23 1_555 1_555
H25 C23 1_555 1_555
C24 C15 1_555 1_555
C5 C6 1_555 1_555
C7 C16 1_555 1_555
C11 C12 1_555 1_555
C13 C14 1_555 1_555
C15 C16 1_555 1_555

#END
