
#######################################################################
#
#                 Cambridge Crystallographic Data Centre
#                                CCDC 
#
#######################################################################
#
# If this CIF has been generated from an entry in the Cambridge 
# Structural Database, then it will include bibliographic, chemical, 
# crystal, experimental, refinement or atomic coordinate data resulting 
# from the CCDC's data processing and validation procedures.
#
#######################################################################

data_XIQNAP
_chemical_formula_moiety         'C19 H18 N2 O4,0.125(C2 H6 O1)'
_chemical_name_systematic        
'3-phenyl-6,7,8,9-tetrahydro-4H-5,10,1,2-benzodioxadiazacyclotridecine-4,11(1H)-dione ethanol solvate'
_symmetry_cell_setting           orthorhombic
_symmetry_space_group_name_H-M   'I b a 2'
_symmetry_Int_Tables_number      45
_space_group_name_Hall           'I 2 -2c'
loop_
_symmetry_equiv_pos_site_id
_symmetry_equiv_pos_as_xyz
1 x,y,z
2 -x,-y,z
3 1/2+x,1/2-y,z
4 1/2-x,1/2+y,z
5 1/2+x,1/2+y,1/2+z
6 1/2-x,1/2-y,1/2+z
7 x,-y,1/2+z
8 -x,y,1/2+z
_cell_length_a                   21.8904(4)
_cell_length_b                   22.9870(4)
_cell_length_c                   6.91370(10)
_cell_angle_alpha                90
_cell_angle_beta                 90
_cell_angle_gamma                90
_cell_volume                     3478.94
_exptl_crystal_colour            yellow
_exptl_crystal_description       needle
_cell_formula_units_Z            8
_chemical_properties_physical    
Heat-sensitive,Light-sensitive,Photo-sensitive
_exptl_crystal_recrystallization_method 'used as received'
loop_
_atom_site_label
_atom_site_type_symbol
_atom_site_fract_x
_atom_site_fract_y
_atom_site_fract_z
O1 O 0.80853(13) 0.65839(11) 0.5476(5)
N1 N 0.70410(15) 0.58725(14) 0.4911(5)
C1 C 0.70384(19) 0.64318(16) 0.4813(6)
O2 O 0.75673(15) 0.73113(13) 0.4069(6)
N2 N 0.75546(15) 0.55573(13) 0.4991(6)
H1 H 0.7914 0.5728 0.5047
C2 C 0.75809(18) 0.68266(17) 0.4735(6)
O3 O 0.87532(13) 0.53664(12) 0.5130(5)
C3 C 0.8610(2) 0.69733(19) 0.5707(7)
H2 H 0.8527 0.7265 0.6729
H3 H 0.8694 0.7181 0.4482
O4 O 0.91091(14) 0.44561(13) 0.5264(6)
C4 C 0.9149(2) 0.65966(19) 0.6266(7)
H4 H 0.9030 0.6346 0.7368
H5 H 0.9487 0.6851 0.6707
C5 C 0.9385(2) 0.62060(19) 0.4602(7)
H6 H 0.9128 0.6275 0.3446
H7 H 0.9807 0.6327 0.4275
C6 C 0.93872(18) 0.55645(19) 0.5030(8)
H8 H 0.9608 0.5352 0.3999
H9 H 0.9596 0.5490 0.6276
C7 C 0.86771(19) 0.47902(16) 0.5192(6)
C8 C 0.80325(19) 0.45952(16) 0.5119(6)
C9 C 0.75074(19) 0.49573(17) 0.4983(6)
C10 C 0.6935(2) 0.46953(18) 0.4801(8)
H10 H 0.6581 0.4932 0.4682
C11 C 0.6874(2) 0.40964(19) 0.4791(7)
H11 H 0.6480 0.3929 0.4655
C12 C 0.7380(2) 0.37357(18) 0.4977(8)
H12 H 0.7334 0.3325 0.4992
C13 C 0.7945(2) 0.39846(17) 0.5137(6)
H13 H 0.8292 0.3739 0.5266
C14 C 0.64266(19) 0.67071(18) 0.4708(6)
C15 C 0.6314(2) 0.72583(18) 0.5519(7)
H14 H 0.6635 0.7467 0.6130
C16 C 0.5729(2) 0.7497(2) 0.5422(8)
H15 H 0.5653 0.7866 0.5987
C17 C 0.5264(2) 0.7205(2) 0.4522(8)
H16 H 0.4869 0.7375 0.4449
C18 C 0.5368(2) 0.6662(2) 0.3718(8)
H17 H 0.5044 0.6459 0.3103
C19 C 0.5944(2) 0.6412(2) 0.3806(7)
H18 H 0.6012 0.6039 0.3254
O5? O 0.5000 0.5000 -0.004(7)
H19? H 0.5084 0.5284 -0.1002
C20? C 0.522(2) 0.496(2) 0.196(6)
H20? H 0.5490 0.4634 0.1906
H21? H 0.5479 0.5298 0.1906
C21? C 0.5000 0.5000 0.405(7)
H22? H 0.5341 0.5005 0.4921
H23? H 0.4750 0.5337 0.4266
H24? H 0.4762 0.4655 0.4266
loop_
_geom_bond_atom_site_label_1
_geom_bond_atom_site_label_2
_geom_bond_site_symmetry_1
_geom_bond_site_symmetry_2
O1 C2 1_555 1_555
N1 C1 1_555 1_555
C1 C2 1_555 1_555
O2 C2 1_555 1_555
N2 N1 1_555 1_555
H1 N2 1_555 1_555
O3 C6 1_555 1_555
C3 O1 1_555 1_555
H2 C3 1_555 1_555
H3 C3 1_555 1_555
O4 C7 1_555 1_555
C4 C3 1_555 1_555
H4 C4 1_555 1_555
H5 C4 1_555 1_555
C5 C4 1_555 1_555
H6 C5 1_555 1_555
H7 C5 1_555 1_555
C6 C5 1_555 1_555
H8 C6 1_555 1_555
H9 C6 1_555 1_555
C7 O3 1_555 1_555
C8 C7 1_555 1_555
C9 N2 1_555 1_555
C10 C9 1_555 1_555
H10 C10 1_555 1_555
C11 C10 1_555 1_555
H11 C11 1_555 1_555
C12 C11 1_555 1_555
H12 C12 1_555 1_555
C13 C8 1_555 1_555
H13 C13 1_555 1_555
C14 C1 1_555 1_555
C15 C14 1_555 1_555
H14 C15 1_555 1_555
C16 C15 1_555 1_555
H15 C16 1_555 1_555
C17 C16 1_555 1_555
H16 C17 1_555 1_555
C18 C17 1_555 1_555
H17 C18 1_555 1_555
C19 C14 1_555 1_555
H18 C19 1_555 1_555
C8 C9 1_555 1_555
C12 C13 1_555 1_555
C18 C19 1_555 1_555

#END
