
#######################################################################
#
#                 Cambridge Crystallographic Data Centre
#                                CCDC 
#
#######################################################################
#
# If this CIF has been generated from an entry in the Cambridge 
# Structural Database, then it will include bibliographic, chemical, 
# crystal, experimental, refinement or atomic coordinate data resulting 
# from the CCDC's data processing and validation procedures.
#
#######################################################################

data_XIQPAP
_chemical_formula_moiety         'C22 H26 N4 O2 S2'
_chemical_name_systematic        N,N'-(1,6-Hexamethylene)bis(benzoylthiourea)
_symmetry_cell_setting           triclinic
_symmetry_space_group_name_H-M   'P -1'
_symmetry_Int_Tables_number      2
_space_group_name_Hall           '-P 1'
loop_
_symmetry_equiv_pos_site_id
_symmetry_equiv_pos_as_xyz
1 x,y,z
2 -x,-y,-z
_cell_length_a                   4.912(2)
_cell_length_b                   10.048(2)
_cell_length_c                   11.302(3)
_cell_angle_alpha                96.251(3)
_cell_angle_beta                 98.113(3)
_cell_angle_gamma                90.118(2)
_cell_volume                     548.867
_exptl_crystal_colour            colorless
_exptl_crystal_description       needle
_chemical_melting_point          '449-451 K'
_cell_formula_units_Z            1
_exptl_crystal_recrystallization_method dimethylformamide
loop_
_atom_site_label
_atom_site_type_symbol
_atom_site_fract_x
_atom_site_fract_y
_atom_site_fract_z
N1 N 0.4530(9) 0.4653(4) 0.2016(4)
H1 H 0.3688 0.4588 0.1291
N2 N 0.7458(9) 0.5920(4) 0.3451(4)
H2 H 0.6864 0.5430 0.3941
O1 O 0.4644(10) 0.3804(4) 0.3797(4)
S1 S 0.7434(3) 0.65004(14) 0.12295(13)
C1 C 0.3801(11) 0.3720(5) 0.2719(4)
C2 C 0.1942(11) 0.2621(5) 0.2105(4)
C3 C 0.2350(12) 0.1345(5) 0.2476(5)
H3 H 0.3802 0.1201 0.3068
C4 C 0.0632(12) 0.0320(6) 0.1972(5)
H4 H 0.0925 -0.0530 0.2215
C5 C -0.1540(13) 0.0520(6) 0.1106(6)
H5 H -0.2709 -0.0191 0.0763
C6 C -0.1971(12) 0.1750(6) 0.0753(6)
H6 H -0.3476 0.1884 0.0183
C7 C -0.0220(11) 0.2818(5) 0.1221(5)
H7 H -0.0494 0.3653 0.0946
C8 C 0.6457(11) 0.5688(5) 0.2329(5)
C9 C 0.9519(11) 0.6951(5) 0.3950(5)
H8 H 1.0789 0.7026 0.3376
H9 H 1.0558 0.6670 0.4673
C10 C 0.8372(10) 0.8283(5) 0.4249(5)
H10 H 0.6991 0.8199 0.4772
H11 H 0.7472 0.8603 0.3515
C11 C 1.0550(11) 0.9310(5) 0.4866(5)
H12 H 1.1398 0.9003 0.5613
H13 H 1.1970 0.9362 0.4356
N1A N 1.5470(9) 1.5347(4) 0.7984(4)
H1A H 1.6312 1.5412 0.8709
N2A N 1.2542(9) 1.4080(4) 0.6549(4)
H2A H 1.3136 1.4570 0.6059
O1A O 1.5356(10) 1.6196(4) 0.6203(4)
S1A S 1.2566(3) 1.34996(14) 0.87705(13)
C1A C 1.6199(11) 1.6280(5) 0.7281(4)
C2A C 1.8058(11) 1.7379(5) 0.7895(4)
C3A C 1.7650(12) 1.8655(5) 0.7524(5)
H3A H 1.6198 1.8799 0.6932
C4A C 1.9368(12) 1.9680(6) 0.8028(5)
H4A H 1.9075 2.0530 0.7785
C5A C 2.1540(13) 1.9480(6) 0.8894(6)
H5A H 2.2709 2.0191 0.9237
C6A C 2.1971(12) 1.8250(6) 0.9247(6)
H6A H 2.3476 1.8116 0.9817
C7A C 2.0220(11) 1.7182(5) 0.8779(5)
H7A H 2.0494 1.6347 0.9054
C8A C 1.3543(11) 1.4312(5) 0.7671(5)
C9A C 1.0481(11) 1.3049(5) 0.6050(5)
H8A H 0.9211 1.2974 0.6624
H9A H 0.9442 1.3330 0.5327
C10A C 1.1628(10) 1.1717(5) 0.5751(5)
H10A H 1.3009 1.1801 0.5228
H11A H 1.2528 1.1397 0.6485
C11A C 0.9450(11) 1.0690(5) 0.5134(5)
H12A H 0.8602 1.0997 0.4387
H13A H 0.8030 1.0638 0.5644
loop_
_geom_bond_atom_site_label_1
_geom_bond_atom_site_label_2
_geom_bond_site_symmetry_1
_geom_bond_site_symmetry_2
N1 H1 1_555 1_555
N2 H2 1_555 1_555
O1 C1 1_555 1_555
S1 C8 1_555 1_555
C1 N1 1_555 1_555
C2 C1 1_555 1_555
C3 C2 1_555 1_555
H3 C3 1_555 1_555
C4 C3 1_555 1_555
H4 C4 1_555 1_555
C5 C4 1_555 1_555
H5 C5 1_555 1_555
C6 C5 1_555 1_555
H6 C6 1_555 1_555
C7 C2 1_555 1_555
H7 C7 1_555 1_555
C8 N1 1_555 1_555
C9 N2 1_555 1_555
H8 C9 1_555 1_555
H9 C9 1_555 1_555
C10 C9 1_555 1_555
H10 C10 1_555 1_555
H11 C10 1_555 1_555
C11 C10 1_555 1_555
H12 C11 1_555 1_555
H13 C11 1_555 1_555
N1A H1A 1_555 1_555
N2A H2A 1_555 1_555
O1A C1A 1_555 1_555
S1A C8A 1_555 1_555
C1A N1A 1_555 1_555
C2A C1A 1_555 1_555
C3A C2A 1_555 1_555
H3A C3A 1_555 1_555
C4A C3A 1_555 1_555
H4A C4A 1_555 1_555
C5A C4A 1_555 1_555
H5A C5A 1_555 1_555
C6A C5A 1_555 1_555
H6A C6A 1_555 1_555
C7A C2A 1_555 1_555
H7A C7A 1_555 1_555
C8A N1A 1_555 1_555
C9A N2A 1_555 1_555
H8A C9A 1_555 1_555
H9A C9A 1_555 1_555
C10A C9A 1_555 1_555
H10A C10A 1_555 1_555
H11A C10A 1_555 1_555
C11A C11 1_555 1_555
H12A C11A 1_555 1_555
H13A C11A 1_555 1_555
N2 C8 1_555 1_555
C6 C7 1_555 1_555
N2A C8A 1_555 1_555
C6A C7A 1_555 1_555
C10A C11A 1_555 1_555

#END
