
#######################################################################
#
#                 Cambridge Crystallographic Data Centre
#                                CCDC 
#
#######################################################################
#
# If this CIF has been generated from an entry in the Cambridge 
# Structural Database, then it will include bibliographic, chemical, 
# crystal, experimental, refinement or atomic coordinate data resulting 
# from the CCDC's data processing and validation procedures.
#
#######################################################################

data_XIQPAR
_chemical_formula_moiety         'C20 H20 N2 O4'
_chemical_name_systematic        
3-phenyl-7,8,9,10-tetrahydro-4H,6H-5,11,1,2-benzodioxadiazacyclotetradecine-4,12(1H)-dione
_symmetry_cell_setting           orthorhombic
_symmetry_space_group_name_H-M   'P b c a'
_symmetry_Int_Tables_number      61
_space_group_name_Hall           '-P 2ac 2ab'
loop_
_symmetry_equiv_pos_site_id
_symmetry_equiv_pos_as_xyz
1 x,y,z
2 1/2-x,-y,1/2+z
3 -x,1/2+y,1/2-z
4 1/2+x,1/2-y,-z
5 -x,-y,-z
6 1/2+x,y,1/2-z
7 x,1/2-y,1/2+z
8 1/2-x,1/2+y,z
_cell_length_a                   18.041(3)
_cell_length_b                   8.9247(17)
_cell_length_c                   21.595(4)
_cell_angle_alpha                90
_cell_angle_beta                 90
_cell_angle_gamma                90
_cell_volume                     3477.02
_exptl_crystal_colour            colorless
_exptl_crystal_description       needle
_cell_formula_units_Z            8
_chemical_properties_physical    
Heat-sensitive,Light-sensitive,Photo-sensitive
_exptl_crystal_recrystallization_method 'used as received'
loop_
_atom_site_label
_atom_site_type_symbol
_atom_site_fract_x
_atom_site_fract_y
_atom_site_fract_z
O1 O 0.63926(11) 0.3344(2) 0.73519(9)
O2 O 0.5346(12) 0.429(2) 0.7627(10)
O3 O 0.5724(11) 0.651(6) 0.6070(14)
O4 O 0.65151(12) 0.6222(3) 0.53238(9)
N1 N 0.67426(12) 0.6324(3) 0.69138(11)
N2 N 0.72392(14) 0.6412(3) 0.73724(11)
C1 C 0.63961(13) 0.5273(3) 0.81172(12)
C2 C 0.69924(14) 0.6221(3) 0.79769(12)
C3 C 0.69793(15) 0.6416(3) 0.63441(12)
C4 C 0.77590(15) 0.6445(3) 0.61315(12)
C5 C 0.63967(17) 0.6370(3) 0.58628(14)
C6 C 0.60559(15) 0.4250(3) 0.76566(13)
C7 C 0.73401(15) 0.7005(4) 0.84477(13)
H1 H 0.7748 0.7636 0.8353
C8 C 0.82546(17) 0.5376(3) 0.63480(14)
H2 H 0.8096 0.4655 0.6644
C9 C 0.80041(16) 0.7488(3) 0.56976(13)
H3 H 0.7672 0.8230 0.5547
C10 C 0.61631(16) 0.5190(3) 0.87301(13)
H4 H 0.5751 0.4575 0.8833
C11 C 0.65158(17) 0.5978(4) 0.91899(14)
H5 H 0.6352 0.5895 0.9607
C12 C 0.87189(17) 0.7453(4) 0.54867(14)
H6 H 0.8880 0.8166 0.5189
C13 C 0.71057(16) 0.6884(4) 0.90463(14)
H7 H 0.7351 0.7428 0.9364
C14 C 0.89703(19) 0.5354(4) 0.61374(15)
H8 H 0.9306 0.4623 0.6290
C15 C 0.92068(18) 0.6384(4) 0.57057(15)
H9 H 0.9703 0.6360 0.5559
C16 C 0.5118(6) 0.6413(8) 0.5682(6)
H10 H 0.5273 0.6143 0.5257
H11 H 0.4849 0.7380 0.5668
C17 C 0.4637(3) 0.5210(6) 0.5955(2)
H12 H 0.4207 0.5036 0.5679
H13 H 0.4924 0.4265 0.5980
C18 C 0.4209(2) 0.4336(6) 0.7015(2)
H14 H 0.3842 0.3657 0.6822
H15 H 0.3987 0.4737 0.7401
C19 C 0.4366(7) 0.5611(15) 0.6582(4)
H16 H 0.3906 0.6203 0.6534
H17 H 0.4739 0.6270 0.6779
C20 C 0.4935(4) 0.3404(11) 0.7185(2)
H18 H 0.4798 0.2424 0.7368
H19 H 0.5236 0.3224 0.6810
H20 H 0.770(2) 0.680(4) 0.7293(15)
C21? C 0.4381(16) 0.533(3) 0.6753(11)
H21? H 0.3881 0.5189 0.6935
H22? H 0.4667 0.6005 0.7026
C22? C 0.4813(8) 0.332(2) 0.7386(5)
H23? H 0.4308 0.3265 0.7565
H24? H 0.5054 0.2325 0.7433
C23? C 0.4782(5) 0.3782(12) 0.6699(5)
H25? H 0.4492 0.3061 0.6448
H26? H 0.5285 0.3889 0.6520
C24? C 0.4315(5) 0.6015(12) 0.6099(5)
H27? H 0.4131 0.7056 0.6140
H28? H 0.3938 0.5443 0.5864
C25? C 0.5050(12) 0.6045(19) 0.5711(13)
H29? H 0.5002 0.6749 0.5359
H30? H 0.5160 0.5034 0.5545
O5? O 0.570(2) 0.658(12) 0.617(3)
O6? O 0.527(3) 0.454(5) 0.770(2)
loop_
_geom_bond_atom_site_label_1
_geom_bond_atom_site_label_2
_geom_bond_site_symmetry_1
_geom_bond_site_symmetry_2
O1 C6 1_555 1_555
O2 C6 1_555 1_555
O3 C5 1_555 1_555
O4 C5 1_555 1_555
N1 N2 1_555 1_555
N2 C2 1_555 1_555
C1 C2 1_555 1_555
C2 C7 1_555 1_555
C3 N1 1_555 1_555
C4 C3 1_555 1_555
C5 C3 1_555 1_555
C6 C1 1_555 1_555
C7 H1 1_555 1_555
C8 C4 1_555 1_555
H2 C8 1_555 1_555
C9 C4 1_555 1_555
H3 C9 1_555 1_555
C10 C1 1_555 1_555
H4 C10 1_555 1_555
C11 C10 1_555 1_555
H5 C11 1_555 1_555
C12 C9 1_555 1_555
H6 C12 1_555 1_555
C13 C7 1_555 1_555
H7 C13 1_555 1_555
C14 C8 1_555 1_555
H8 C14 1_555 1_555
C15 C12 1_555 1_555
H9 C15 1_555 1_555
C16 O3 1_555 1_555
H10 C16 1_555 1_555
H11 C16 1_555 1_555
C17 C16 1_555 1_555
H12 C17 1_555 1_555
H13 C17 1_555 1_555
C18 H14 1_555 1_555
H15 C18 1_555 1_555
C19 C17 1_555 1_555
H16 C19 1_555 1_555
H17 C19 1_555 1_555
C20 O2 1_555 1_555
H18 C20 1_555 1_555
H19 C20 1_555 1_555
H20 N2 1_555 1_555
C11 C13 1_555 1_555
C14 C15 1_555 1_555
C18 C19 1_555 1_555
C18 C20 1_555 1_555

#END
