
#######################################################################
#
#                 Cambridge Crystallographic Data Centre
#                                CCDC 
#
#######################################################################
#
# If this CIF has been generated from an entry in the Cambridge 
# Structural Database, then it will include bibliographic, chemical, 
# crystal, experimental, refinement or atomic coordinate data resulting 
# from the CCDC's data processing and validation procedures.
#
#######################################################################

data_XIQPIZ
_chemical_formula_moiety         'C21 H22 N2 O4'
_chemical_name_systematic        
3-phenyl-6,7,8,9,10,11-hexahydro-4H-5,12,1,2-benzodioxadiazacyclopentadecine-4,13(1H)-dione
_symmetry_cell_setting           orthorhombic
_symmetry_space_group_name_H-M   'P b c a'
_symmetry_Int_Tables_number      61
_space_group_name_Hall           '-P 2ac 2ab'
loop_
_symmetry_equiv_pos_site_id
_symmetry_equiv_pos_as_xyz
1 x,y,z
2 1/2-x,-y,1/2+z
3 -x,1/2+y,1/2-z
4 1/2+x,1/2-y,-z
5 -x,-y,-z
6 1/2+x,y,1/2-z
7 x,1/2-y,1/2+z
8 1/2-x,1/2+y,z
_cell_length_a                   10.6043(3)
_cell_length_b                   21.8901(7)
_cell_length_c                   32.5434(8)
_cell_angle_alpha                90
_cell_angle_beta                 90
_cell_angle_gamma                90
_cell_volume                     7554.27
_exptl_crystal_colour            colorless
_exptl_crystal_description       needle
_cell_formula_units_Z            16
_chemical_properties_physical    
Heat-sensitive,Light-sensitive,Photo-sensitive
_exptl_crystal_recrystallization_method 'used as received'
loop_
_atom_site_label
_atom_site_type_symbol
_atom_site_fract_x
_atom_site_fract_y
_atom_site_fract_z
O1 O 0.1712(2) 0.51910(12) 0.72738(7)
O2 O 0.1164(3) 0.55128(12) 0.66418(7)
O3 O 0.3130(3) 0.70567(13) 0.72318(7)
O4 O 0.2428(3) 0.77471(13) 0.67762(9)
N1 N 0.3825(3) 0.58505(14) 0.63536(9)
H1 H 0.428(4) 0.5997(17) 0.6132(11)
N2 N 0.3398(3) 0.62552(14) 0.66371(8)
C1 C 0.0546(4) 0.5436(2) 0.74425(13)
H2 H 0.0304 0.5200 0.7690
H3 H -0.0138 0.5394 0.7237
C2 C 0.0697(4) 0.61045(19) 0.75566(12)
H4 H 0.0928 0.6338 0.7307
H5 H -0.0124 0.6262 0.7655
C3 C 0.1683(4) 0.6218(2) 0.78839(12)
H6 H 0.2529 0.6162 0.7761
H7 H 0.1583 0.5909 0.8103
C4 C 0.1610(4) 0.6852(2) 0.80755(12)
H8 H 0.0775 0.6895 0.8209
H9 H 0.2255 0.6878 0.8295
C5 C 0.1794(6) 0.7389(2) 0.77892(16)
H10 H 0.1106 0.7371 0.7584
H11 H 0.1653 0.7763 0.7954
C6 C 0.2914(5) 0.7477(2) 0.75710(14)
H12 H 0.3628 0.7442 0.7765
H13 H 0.2917 0.7899 0.7461
C7 C 0.1896(4) 0.52608(17) 0.68724(11)
C8 C 0.3088(4) 0.49612(17) 0.67391(10)
C9 C 0.3959(4) 0.52393(17) 0.64749(10)
C10 C 0.4977(3) 0.49090(18) 0.63317(11)
H14 H 0.5561 0.5097 0.6150
C11 C 0.5157(4) 0.43103(18) 0.64491(11)
H15 H 0.5861 0.4088 0.6347
C12 C 0.4319(4) 0.40345(17) 0.67137(11)
H16 H 0.4447 0.3623 0.6796
C13 C 0.3295(4) 0.43552(17) 0.68580(10)
H17 H 0.2721 0.4163 0.7041
C14 C 0.2879(4) 0.72557(18) 0.68527(12)
C15 C 0.3274(3) 0.68212(17) 0.65254(10)
C16 C 0.3461(4) 0.70713(17) 0.61037(11)
C17 C 0.2626(4) 0.69203(18) 0.57909(11)
H18 H 0.1975 0.6631 0.5839
C18 C 0.2742(4) 0.7193(2) 0.54074(12)
H19 H 0.2163 0.7094 0.5195
C19 C 0.3697(4) 0.76098(19) 0.53333(12)
H20 H 0.3772 0.7797 0.5071
C20 C 0.4535(4) 0.77522(18) 0.56392(11)
H21 H 0.5200 0.8033 0.5587
C21 C 0.4416(4) 0.74885(18) 0.60243(11)
H22 H 0.4993 0.7594 0.6236
O5 O 0.6656(3) 0.64846(12) 0.52482(8)
O6 O 0.6087(3) 0.60359(13) 0.58377(9)
O7 O 0.8694(3) 0.46966(13) 0.51865(8)
O8 O 0.8077(3) 0.38918(13) 0.55611(8)
N3 N 0.8830(3) 0.57738(15) 0.61493(10)
H23 H 0.935(4) 0.561(2) 0.6363(13)
N4 N 0.8553(3) 0.54006(14) 0.58338(9)
C22 C 0.5545(4) 0.6228(2) 0.50480(13)
H24 H 0.4790 0.6475 0.5114
H25 H 0.5399 0.5805 0.5145
C23 C 0.5778(5) 0.6232(2) 0.45886(14)
H26 H 0.5877 0.6660 0.4496
H27 H 0.5029 0.6060 0.4448
C24 C 0.6933(4) 0.5871(2) 0.44582(12)
H28 H 0.6982 0.5871 0.4154
H29 H 0.7695 0.6080 0.4564
C25 C 0.6939(4) 0.5221(2) 0.46074(12)
H30 H 0.6205 0.5004 0.4489
H31 H 0.6842 0.5219 0.4910
C26 C 0.8138(4) 0.4874(2) 0.44948(11)
H32 H 0.8034 0.4688 0.4220
H33 H 0.8852 0.5165 0.4481
C27 C 0.8438(5) 0.4382(2) 0.48018(11)
H34 H 0.7715 0.4100 0.4833
H35 H 0.9184 0.4144 0.4713
C28 C 0.6807(4) 0.63564(18) 0.56458(12)
C29 C 0.7894(4) 0.66833(18) 0.58278(10)
C30 C 0.8794(4) 0.64061(17) 0.60852(11)
C31 C 0.9645(4) 0.67666(19) 0.62951(12)
H36 H 1.0243 0.6580 0.6472
C32 C 0.9641(4) 0.7392(2) 0.62519(12)
H37 H 1.0232 0.7633 0.6399
C33 C 0.8774(4) 0.76706(19) 0.59932(12)
H38 H 0.8774 0.8102 0.5963
C34 C 0.7914(4) 0.73210(18) 0.57809(11)
H39 H 0.7329 0.7513 0.5601
C35 C 0.8413(4) 0.44162(19) 0.55354(11)
C36 C 0.8649(4) 0.48115(17) 0.59013(11)
C37 C 0.8944(4) 0.45090(17) 0.62968(11)
C38 C 0.8260(4) 0.46447(19) 0.66449(11)
H40 H 0.7599 0.4937 0.6630
C39 C 0.8517(4) 0.4367(2) 0.70119(13)
H41 H 0.8025 0.4460 0.7248
C40 C 0.9491(5) 0.3950(2) 0.70393(13)
H42 H 0.9677 0.3761 0.7295
C41 C 1.0194(4) 0.38098(19) 0.66953(13)
H43 H 1.0870 0.3527 0.6714
C42 C 0.9911(4) 0.40824(18) 0.63244(12)
H44 H 1.0380 0.3978 0.6086
loop_
_geom_bond_atom_site_label_1
_geom_bond_atom_site_label_2
_geom_bond_site_symmetry_1
_geom_bond_site_symmetry_2
O1 C1 1_555 1_555
O2 C7 1_555 1_555
O3 C6 1_555 1_555
O4 C14 1_555 1_555
N1 H1 1_555 1_555
N2 N1 1_555 1_555
C1 H2 1_555 1_555
H3 C1 1_555 1_555
C2 C1 1_555 1_555
H4 C2 1_555 1_555
H5 C2 1_555 1_555
C3 C2 1_555 1_555
H6 C3 1_555 1_555
H7 C3 1_555 1_555
C4 C3 1_555 1_555
H8 C4 1_555 1_555
H9 C4 1_555 1_555
C5 C4 1_555 1_555
H10 C5 1_555 1_555
H11 C5 1_555 1_555
C6 C5 1_555 1_555
H12 C6 1_555 1_555
H13 C6 1_555 1_555
C7 O1 1_555 1_555
C8 C7 1_555 1_555
C9 N1 1_555 1_555
C10 C9 1_555 1_555
H14 C10 1_555 1_555
C11 C10 1_555 1_555
H15 C11 1_555 1_555
C12 C11 1_555 1_555
H16 C12 1_555 1_555
C13 C8 1_555 1_555
H17 C13 1_555 1_555
C14 O3 1_555 1_555
C15 N2 1_555 1_555
C16 C15 1_555 1_555
C17 C16 1_555 1_555
H18 C17 1_555 1_555
C18 C17 1_555 1_555
H19 C18 1_555 1_555
C19 C18 1_555 1_555
H20 C19 1_555 1_555
C20 C19 1_555 1_555
H21 C20 1_555 1_555
C21 C16 1_555 1_555
H22 C21 1_555 1_555
O5 C22 1_555 1_555
O6 C28 1_555 1_555
O7 C27 1_555 1_555
O8 C35 1_555 1_555
N3 H23 1_555 1_555
N4 N3 1_555 1_555
C22 H24 1_555 1_555
H25 C22 1_555 1_555
C23 C22 1_555 1_555
H26 C23 1_555 1_555
H27 C23 1_555 1_555
C24 C23 1_555 1_555
H28 C24 1_555 1_555
H29 C24 1_555 1_555
C25 C24 1_555 1_555
H30 C25 1_555 1_555
H31 C25 1_555 1_555
C26 C25 1_555 1_555
H32 C26 1_555 1_555
H33 C26 1_555 1_555
C27 C26 1_555 1_555
H34 C27 1_555 1_555
H35 C27 1_555 1_555
C28 O5 1_555 1_555
C29 C28 1_555 1_555
C30 N3 1_555 1_555
C31 C30 1_555 1_555
H36 C31 1_555 1_555
C32 C31 1_555 1_555
H37 C32 1_555 1_555
C33 C32 1_555 1_555
H38 C33 1_555 1_555
C34 C29 1_555 1_555
H39 C34 1_555 1_555
C35 O7 1_555 1_555
C36 N4 1_555 1_555
C37 C36 1_555 1_555
C38 C37 1_555 1_555
H40 C38 1_555 1_555
C39 C38 1_555 1_555
H41 C39 1_555 1_555
C40 C39 1_555 1_555
H42 C40 1_555 1_555
C41 C40 1_555 1_555
H43 C41 1_555 1_555
C42 C37 1_555 1_555
H44 C42 1_555 1_555
C8 C9 1_555 1_555
C12 C13 1_555 1_555
C14 C15 1_555 1_555
C20 C21 1_555 1_555
C29 C30 1_555 1_555
C33 C34 1_555 1_555
C35 C36 1_555 1_555
C41 C42 1_555 1_555

#END
