
#######################################################################
#
#                 Cambridge Crystallographic Data Centre
#                                CCDC 
#
#######################################################################
#
# If this CIF has been generated from an entry in the Cambridge 
# Structural Database, then it will include bibliographic, chemical, 
# crystal, experimental, refinement or atomic coordinate data resulting 
# from the CCDC's data processing and validation procedures.
#
#######################################################################

data_XIQXOL
_chemical_name_common            3'-Nitrodaidzein
_chemical_formula_moiety         'C15 H9 N1 O6'
_chemical_name_systematic        3'-Nitro-4',7-dihydroxyisoflavone
_chemical_properties_biological  'potential biological activity'
_symmetry_cell_setting           triclinic
_symmetry_space_group_name_H-M   'P -1'
_symmetry_Int_Tables_number      2
_space_group_name_Hall           '-P 1'
loop_
_symmetry_equiv_pos_site_id
_symmetry_equiv_pos_as_xyz
1 x,y,z
2 -x,-y,-z
_cell_length_a                   7.886(3)
_cell_length_b                   8.046(3)
_cell_length_c                   11.116(4)
_cell_angle_alpha                87.853(6)
_cell_angle_beta                 69.680(6)
_cell_angle_gamma                71.245(6)
_cell_volume                     624.115
_exptl_crystal_colour            yellow
_exptl_crystal_description       needle
_chemical_melting_point          '418 K'
_cell_formula_units_Z            2
_exptl_crystal_recrystallization_method ethanol
loop_
_atom_site_label
_atom_site_type_symbol
_atom_site_fract_x
_atom_site_fract_y
_atom_site_fract_z
N1 N 0.5454(4) 1.2213(4) 0.1189(3)
O1 O 0.6549(5) 1.1603(4) 0.1758(3)
O2 O 0.5612(4) 1.3427(4) 0.0480(3)
O3 O 0.2608(4) 1.3595(4) -0.0025(3)
H1 H 0.3483 1.3955 -0.0058
O4 O 0.2491(4) 0.9197(3) 0.4906(2)
O5 O 0.2160(3) 0.5017(3) 0.31532(19)
O6 O 0.2644(4) 0.1524(3) 0.6603(2)
H2 H 0.2797 0.0748 0.6080
C1 C 0.3920(5) 1.1543(4) 0.1341(3)
C2 C 0.2615(5) 1.2251(4) 0.0732(3)
C3 C 0.1178(5) 1.1532(5) 0.0927(3)
H3 H 0.0282 1.1968 0.0529
C4 C 0.1067(5) 1.0175(5) 0.1705(3)
H4 H 0.0085 0.9714 0.1824
C5 C 0.2370(5) 0.9465(4) 0.2321(3)
C6 C 0.3809(5) 1.0164(4) 0.2123(3)
H5 H 0.4714 0.9714 0.2513
C7 C 0.2301(5) 0.7946(4) 0.3100(3)
C8 C 0.2157(5) 0.6523(4) 0.2596(3)
H6 H 0.2046 0.6592 0.1788
C9 C 0.2344(4) 0.4880(4) 0.4340(3)
C10 C 0.2425(4) 0.6283(4) 0.4976(3)
C11 C 0.2425(5) 0.7911(4) 0.4378(3)
C12 C 0.2407(5) 0.3285(4) 0.4837(3)
H7 H 0.2341 0.2380 0.4377
C13 C 0.2571(5) 0.3050(4) 0.6030(3)
C14 C 0.2616(5) 0.4438(5) 0.6721(3)
H8 H 0.2684 0.4293 0.7539
C15 C 0.2560(5) 0.6010(4) 0.6200(3)
H9 H 0.2613 0.6918 0.6664
loop_
_geom_bond_atom_site_label_1
_geom_bond_atom_site_label_2
_geom_bond_site_symmetry_1
_geom_bond_site_symmetry_2
N1 O1 1_555 1_555
O2 N1 1_555 1_555
O3 H1 1_555 1_555
O4 C11 1_555 1_555
O5 C8 1_555 1_555
O6 H2 1_555 1_555
C1 N1 1_555 1_555
C2 O3 1_555 1_555
C3 C2 1_555 1_555
H3 C3 1_555 1_555
C4 C3 1_555 1_555
H4 C4 1_555 1_555
C5 C4 1_555 1_555
C6 C1 1_555 1_555
H5 C6 1_555 1_555
C7 C5 1_555 1_555
C8 C7 1_555 1_555
H6 C8 1_555 1_555
C9 O5 1_555 1_555
C10 C9 1_555 1_555
C11 C7 1_555 1_555
C12 C9 1_555 1_555
H7 C12 1_555 1_555
C13 O6 1_555 1_555
C14 C13 1_555 1_555
H8 C14 1_555 1_555
C15 C10 1_555 1_555
H9 C15 1_555 1_555
C1 C2 1_555 1_555
C5 C6 1_555 1_555
C10 C11 1_555 1_555
C12 C13 1_555 1_555
C14 C15 1_555 1_555

#END
