
#######################################################################
#
#                 Cambridge Crystallographic Data Centre
#                                CCDC 
#
#######################################################################
#
# If this CIF has been generated from an entry in the Cambridge 
# Structural Database, then it will include bibliographic, chemical, 
# crystal, experimental, refinement or atomic coordinate data resulting 
# from the CCDC's data processing and validation procedures.
#
#######################################################################

data_XIQXUR
_chemical_name_common            5',6,8-Tribromo-2,3-dimethoxyformononetin
_chemical_formula_moiety         'C18 H15 Br3 O6'
_chemical_name_systematic        
5',6,8-Tribromo-2,3,4'-trimethoxy-7-hydroxyisoflavanone
_chemical_properties_biological  'potential biological activity'
_symmetry_cell_setting           monoclinic
_symmetry_space_group_name_H-M   'P 21/n'
_symmetry_Int_Tables_number      14
_space_group_name_Hall           '-P 2yn'
loop_
_symmetry_equiv_pos_site_id
_symmetry_equiv_pos_as_xyz
1 x,y,z
2 1/2-x,1/2+y,1/2-z
3 -x,-y,-z
4 1/2+x,1/2-y,1/2+z
_cell_length_a                   10.6419(13)
_cell_length_b                   8.8592(11)
_cell_length_c                   20.660(3)
_cell_angle_alpha                90
_cell_angle_beta                 90.386(2)
_cell_angle_gamma                90
_cell_volume                     1947.75
_exptl_crystal_colour            colorless
_exptl_crystal_description       block
_chemical_melting_point          '509-510 K'
_cell_formula_units_Z            4
_exptl_crystal_recrystallization_method methanol
loop_
_atom_site_label
_atom_site_type_symbol
_atom_site_fract_x
_atom_site_fract_y
_atom_site_fract_z
Br1 Br 0.18493(4) 1.08649(4) 0.442015(17)
Br2 Br 0.84371(4) 0.27830(4) 0.38762(2)
C1 C 0.8440(3) 0.4919(3) 0.39320(15)
Br3 Br 0.08257(4) 0.80958(6) 0.20073(2)
O1 O 0.6420(2) 0.9692(2) 0.34875(10)
C2 C 0.9531(3) 0.7218(4) 0.41380(17)
H1 H 1.0253 0.7739 0.4260
O2 O 1.0579(2) 0.4771(3) 0.42098(14)
C3 C 0.9554(3) 0.5652(4) 0.40947(16)
O3 O 0.0436(2) 1.0098(3) 0.32305(10)
H2 H 0.0193 1.0294 0.2863
C4 C 0.3581(3) 0.9045(3) 0.37250(14)
O4 O 0.43407(19) 0.9364(2) 0.42406(9)
C5 C 0.1572(3) 0.9440(3) 0.32042(15)
C6 C 0.5239(3) 0.7504(3) 0.32001(14)
C7 C 0.8439(3) 0.8002(4) 0.40005(15)
H3 H 0.8443 0.9050 0.4027
C8 C 0.7337(3) 0.7269(3) 0.38237(14)
C9 C 0.1965(3) 0.8528(4) 0.26906(16)
C10 C 0.7361(3) 0.5697(3) 0.38011(15)
H4 H 0.6631 0.5171 0.3695
C11 C 0.2388(3) 0.9664(3) 0.37209(14)
C12 C 0.6150(3) 0.8189(3) 0.36962(14)
C13 C 0.3972(3) 0.8149(3) 0.32077(15)
C14 C 0.3146(3) 0.7910(4) 0.26934(16)
H5 H 0.3399 0.7321 0.2345
O5 O 0.5077(2) 0.7008(2) 0.45534(10)
C15 C 0.5435(3) 0.8425(3) 0.43293(14)
H6 H 0.5997 0.8896 0.4648
O6 O 0.5577(2) 0.6571(3) 0.28058(10)
C16 C 0.6901(4) 0.9829(4) 0.28465(17)
H7 H 0.7571 0.9117 0.2787
H8 H 0.7213 1.0834 0.2782
H9 H 0.6242 0.9627 0.2539
C17 C 1.1755(4) 0.5483(5) 0.4292(2)
H10 H 1.1973 0.6007 0.3902
H11 H 1.2384 0.4736 0.4387
H12 H 1.1710 0.6189 0.4644
C18 C 0.4656(4) 0.7012(4) 0.52074(18)
H13 H 0.5309 0.7401 0.5484
H14 H 0.4452 0.6001 0.5336
H15 H 0.3923 0.7638 0.5242
loop_
_geom_bond_atom_site_label_1
_geom_bond_atom_site_label_2
_geom_bond_site_symmetry_1
_geom_bond_site_symmetry_2
Br1 C11 1_555 1_555
Br2 C1 1_555 1_555
C1 C3 1_555 1_555
Br3 C9 1_555 1_555
O1 C12 1_555 1_555
C2 H1 1_555 1_555
O2 C3 1_555 1_555
C3 C2 1_555 1_555
O3 H2 1_555 1_555
C4 O4 1_555 1_555
O4 C15 1_555 1_555
C5 O3 1_555 1_555
C6 C12 1_555 1_555
C7 C2 1_555 1_555
H3 C7 1_555 1_555
C8 C7 1_555 1_555
C9 C5 1_555 1_555
C10 C1 1_555 1_555
H4 C10 1_555 1_555
C11 C4 1_555 1_555
C12 C8 1_555 1_555
C13 C4 1_555 1_555
C14 C9 1_555 1_555
H5 C14 1_555 1_555
O5 C15 1_555 1_555
C15 C12 1_555 1_555
H6 C15 1_555 1_555
O6 C6 1_555 1_555
C16 O1 1_555 1_555
H7 C16 1_555 1_555
H8 C16 1_555 1_555
H9 C16 1_555 1_555
C17 O2 1_555 1_555
H10 C17 1_555 1_555
H11 C17 1_555 1_555
H12 C17 1_555 1_555
C18 O5 1_555 1_555
H13 C18 1_555 1_555
H14 C18 1_555 1_555
H15 C18 1_555 1_555
C5 C11 1_555 1_555
C6 C13 1_555 1_555
C8 C10 1_555 1_555
C13 C14 1_555 1_555

#END
