
#######################################################################
#
#                 Cambridge Crystallographic Data Centre
#                                CCDC 
#
#######################################################################
#
# If this CIF has been generated from an entry in the Cambridge 
# Structural Database, then it will include bibliographic, chemical, 
# crystal, experimental, refinement or atomic coordinate data resulting 
# from the CCDC's data processing and validation procedures.
#
#######################################################################

data_XIQYAY
_chemical_formula_moiety         'C17 H11 N3 O3'
_chemical_name_systematic        
3-Amino-5-(furan-2-yl)-2-nitrobiphenyl-4-carbonitrile
_symmetry_cell_setting           rhombohedral
_symmetry_space_group_name_H-M   'R -3'
_symmetry_Int_Tables_number      148
_space_group_name_Hall           '-R 3'
loop_
_symmetry_equiv_pos_site_id
_symmetry_equiv_pos_as_xyz
1 x,y,z
2 -y,x-y,z
3 -x+y,-x,z
4 2/3+x,1/3+y,1/3+z
5 2/3-y,1/3+x-y,1/3+z
6 2/3-x+y,1/3-x,1/3+z
7 1/3+x,2/3+y,2/3+z
8 1/3-y,2/3+x-y,2/3+z
9 1/3-x+y,2/3-x,2/3+z
10 -x,-y,-z
11 y,-x+y,-z
12 x-y,x,-z
13 1/3-x,2/3-y,2/3-z
14 1/3+y,2/3-x+y,2/3-z
15 1/3+x-y,2/3+x,2/3-z
16 2/3-x,1/3-y,1/3-z
17 2/3+y,1/3-x+y,1/3-z
18 2/3+x-y,1/3+x,1/3-z
_cell_length_a                   36.6123(16)
_cell_length_b                   36.6123(16)
_cell_length_c                   5.5797(3)
_cell_angle_alpha                90
_cell_angle_beta                 90
_cell_angle_gamma                120
_cell_volume                     6477.32
_exptl_crystal_colour            yellow
_exptl_crystal_description       needle
_chemical_melting_point          '435 K'
_cell_formula_units_Z            18
_exptl_crystal_recrystallization_method hexane
loop_
_atom_site_label
_atom_site_type_symbol
_atom_site_fract_x
_atom_site_fract_y
_atom_site_fract_z
C1 C 0.30307(7) 0.19711(7) -0.1338(4)
N1 N 0.28665(7) 0.12224(7) 0.0589(4)
N2 N 0.22808(5) 0.08323(6) 0.4411(4)
O1 O 0.27713(6) 0.25575(6) -0.1539(3)
O2 O 0.23102(6) 0.05680(5) 0.3212(3)
O3 O 0.22089(6) 0.07901(6) 0.6565(3)
C2 C 0.27922(8) 0.29408(7) -0.1796(5)
H1 H 0.2902 0.3115 -0.3128
C3 C 0.26365(7) 0.30260(7) 0.0098(5)
H2 H 0.2618 0.3267 0.0352
C4 C 0.25016(7) 0.26810(7) 0.1681(4)
H3 H 0.2377 0.2652 0.3173
C5 C 0.25874(5) 0.24044(5) 0.0627(3)
C6 C 0.25150(6) 0.19968(6) 0.1459(3)
C7 C 0.22045(6) 0.17907(6) 0.3214(3)
H4 H 0.2061 0.1921 0.3808
C8 C 0.21069(6) 0.13992(6) 0.4083(3)
C9 C 0.23387(6) 0.12134(6) 0.3256(3)
C10 C 0.26415(6) 0.13967(6) 0.1425(3)
C11 C 0.27240(6) 0.17950(6) 0.0550(3)
C12 C 0.17325(6) 0.11774(6) 0.5687(3)
C13 C 0.16806(7) 0.13845(7) 0.7613(3)
H5 H 0.1885 0.1662 0.7942
C14 C 0.13270(8) 0.11827(8) 0.9055(4)
H6 H 0.1297 0.1323 1.0361
C15 C 0.10229(8) 0.07787(8) 0.8564(4)
H7 H 0.0786 0.0644 0.9537
C16 C 0.10655(7) 0.05698(7) 0.6639(4)
H8 H 0.0856 0.0295 0.6307
C17 C 0.14186(7) 0.07668(7) 0.5189(4)
H9 H 0.1446 0.0624 0.3883
N3 N 0.32697(8) 0.20786(7) -0.2847(4)
H10 H 0.3020(7) 0.1329(7) -0.072(4)
H11 H 0.2772(8) 0.0951(9) 0.092(4)
loop_
_geom_bond_atom_site_label_1
_geom_bond_atom_site_label_2
_geom_bond_site_symmetry_1
_geom_bond_site_symmetry_2
C1 C11 1_555 1_555
N1 C10 1_555 1_555
N2 O2 1_555 1_555
O1 C2 1_555 1_555
O3 N2 1_555 1_555
C2 H1 1_555 1_555
C3 C2 1_555 1_555
H2 C3 1_555 1_555
C4 C3 1_555 1_555
H3 C4 1_555 1_555
C5 O1 1_555 1_555
C6 C5 1_555 1_555
C7 C6 1_555 1_555
H4 C7 1_555 1_555
C8 C7 1_555 1_555
C9 N2 1_555 1_555
C10 C9 1_555 1_555
C11 C6 1_555 1_555
C12 C8 1_555 1_555
C13 C12 1_555 1_555
H5 C13 1_555 1_555
C14 C13 1_555 1_555
H6 C14 1_555 1_555
C15 C14 1_555 1_555
H7 C15 1_555 1_555
C16 C15 1_555 1_555
H8 C16 1_555 1_555
C17 C12 1_555 1_555
H9 C17 1_555 1_555
N3 C1 1_555 1_555
H10 N1 1_555 1_555
H11 N1 1_555 1_555
C4 C5 1_555 1_555
C8 C9 1_555 1_555
C10 C11 1_555 1_555
C16 C17 1_555 1_555

#END
