
#######################################################################
#
#                 Cambridge Crystallographic Data Centre
#                                CCDC 
#
#######################################################################
#
# If this CIF has been generated from an entry in the Cambridge 
# Structural Database, then it will include bibliographic, chemical, 
# crystal, experimental, refinement or atomic coordinate data resulting 
# from the CCDC's data processing and validation procedures.
#
#######################################################################

data_XIRHOV01
_chemical_formula_moiety         'C60 H92 P2'
_chemical_name_systematic        
tetrakis(2,4,6-Tri-isopropylphenyl)diphosphane
_symmetry_cell_setting           orthorhombic
_symmetry_space_group_name_H-M   'P 21 21 2'
_symmetry_Int_Tables_number      18
_space_group_name_Hall           'P 2 2ab'
loop_
_symmetry_equiv_pos_site_id
_symmetry_equiv_pos_as_xyz
1 x,y,z
2 -x,-y,z
3 1/2-x,1/2+y,-z
4 1/2+x,1/2-y,-z
_cell_length_a                   19.0707(12)
_cell_length_b                   23.7279(15)
_cell_length_c                   12.4450(13)
_cell_angle_alpha                90
_cell_angle_beta                 90
_cell_angle_gamma                90
_cell_volume                     5631.46
_exptl_crystal_colour            yellow
_exptl_crystal_description       block
_chemical_melting_point          '78-80 deg.C'
_cell_formula_units_Z            4
loop_
_atom_site_label
_atom_site_type_symbol
_atom_site_fract_x
_atom_site_fract_y
_atom_site_fract_z
C1 C 0.52098(14) 0.82913(11) 0.7112(2)
C2 C 0.47904(14) 0.87269(11) 0.6708(2)
C3 C 0.50618(15) 0.91017(11) 0.5966(2)
H1 H 0.4772 0.9400 0.5718
C4 C 0.57395(15) 0.90614(12) 0.5568(2)
C5 C 0.61421(14) 0.86161(11) 0.5921(2)
H2 H 0.6604 0.8574 0.5646
C6 C 0.58956(15) 0.82242(11) 0.6669(2)
C7 C 0.66241(15) 0.74146(12) 0.5946(2)
H3 H 0.6213 0.7248 0.5597
H4 H 0.6949 0.7115 0.6161
H5 H 0.6860 0.7670 0.5443
C8 C 0.63875(14) 0.77504(11) 0.6959(2)
H6 H 0.6129 0.7485 0.7441
C9 C 0.70349(14) 0.79587(12) 0.7564(2)
H7 H 0.7267 0.8254 0.7144
H8 H 0.7360 0.7644 0.7673
H9 H 0.6893 0.8111 0.8263
C10 C 0.59930(15) 0.94728(12) 0.4729(2)
H10 H 0.5708 0.9825 0.4800
C11 C 0.58544(16) 0.92278(13) 0.3611(2)
H11 H 0.6166 0.8906 0.3489
H12 H 0.5943 0.9517 0.3066
H13 H 0.5365 0.9104 0.3564
C12 C 0.67676(16) 0.96348(12) 0.4871(2)
H14 H 0.6834 0.9808 0.5578
H15 H 0.6903 0.9903 0.4309
H16 H 0.7060 0.9296 0.4815
C13 C 0.40198(14) 0.88127(11) 0.7027(2)
H17 H 0.3880 0.8500 0.7521
C14 C 0.35399(15) 0.87930(12) 0.6027(2)
H18 H 0.3049 0.8828 0.6252
H19 H 0.3606 0.8434 0.5652
H20 H 0.3660 0.9104 0.5544
C15 C 0.39305(15) 0.93637(11) 0.7616(2)
H21 H 0.4227 0.9365 0.8259
H22 H 0.3439 0.9409 0.7827
H23 H 0.4068 0.9675 0.7144
C16 C 0.45101(14) 0.83182(10) 0.9281(2)
C17 C 0.49514(15) 0.87054(11) 0.9839(2)
C18 C 0.46814(15) 0.90380(12) 1.0645(2)
H24 H 0.4987 0.9294 1.1000
C19 C 0.39937(15) 0.90180(11) 1.0962(2)
C20 C 0.35529(15) 0.86501(11) 1.0420(2)
H25 H 0.3074 0.8634 1.0627
C21 C 0.37801(15) 0.83009(11) 0.9584(2)
C22 C 0.32148(14) 0.79436(11) 0.9075(2)
H26 H 0.3431 0.7723 0.8475
C23 C 0.26204(14) 0.83192(12) 0.8595(2)
H27 H 0.2474 0.8598 0.9131
H28 H 0.2219 0.8082 0.8401
H29 H 0.2795 0.8513 0.7953
C24 C 0.28754(15) 0.75281(12) 0.9859(2)
H30 H 0.3228 0.7257 1.0106
H31 H 0.2494 0.7327 0.9496
H32 H 0.2687 0.7735 1.0477
C25 C 0.37236(15) 0.93563(12) 1.1891(2)
H33 H 0.4116 0.9601 1.2149
C26 C 0.31201(15) 0.97439(12) 1.1560(2)
H34 H 0.3274 0.9990 1.0973
H35 H 0.2977 0.9974 1.2176
H36 H 0.2722 0.9516 1.1318
C27 C 0.34903(17) 0.89908(13) 1.2835(2)
H37 H 0.3052 0.8798 1.2651
H38 H 0.3415 0.9229 1.3468
H39 H 0.3854 0.8711 1.2993
C28 C 0.57240(15) 0.87936(12) 0.9558(2)
H40 H 0.5845 0.8519 0.8976
C29 C 0.58522(16) 0.93855(12) 0.9112(2)
H41 H 0.5598 0.9430 0.8432
H42 H 0.6355 0.9439 0.8988
H43 H 0.5685 0.9666 0.9629
C30 C 0.62044(15) 0.86701(12) 1.0509(2)
H44 H 0.6082 0.8918 1.1110
H45 H 0.6693 0.8736 1.0300
H46 H 0.6147 0.8276 1.0729
C31 C 0.49438(14) 0.67996(11) 0.6728(2)
C32 C 0.54440(14) 0.63695(12) 0.6992(2)
C33 C 0.57254(15) 0.60505(11) 0.6155(2)
H47 H 0.6051 0.5762 0.6335
C34 C 0.55645(16) 0.61243(12) 0.5090(2)
C35 C 0.50774(15) 0.65549(11) 0.4843(2)
H48 H 0.4945 0.6610 0.4114
C36 C 0.47871(14) 0.68980(11) 0.5616(2)
C37 C 0.43098(16) 0.73664(12) 0.5228(2)
H49 H 0.4159 0.7589 0.5869
C38 C 0.36527(14) 0.71345(13) 0.4689(2)
H50 H 0.3784 0.6933 0.4032
H51 H 0.3337 0.7446 0.4508
H52 H 0.3415 0.6875 0.5181
C39 C 0.46906(15) 0.77645(12) 0.4466(2)
H53 H 0.5110 0.7913 0.4820
H54 H 0.4379 0.8077 0.4272
H55 H 0.4827 0.7560 0.3815
C40 C 0.56933(15) 0.62549(11) 0.8128(2)
H56 H 0.5482 0.6542 0.8619
C41 C 0.54469(15) 0.56709(11) 0.8477(2)
H57 H 0.4935 0.5651 0.8426
H58 H 0.5591 0.5602 0.9221
H59 H 0.5656 0.5385 0.8007
C42 C 0.64957(14) 0.62913(12) 0.8212(2)
H60 H 0.6709 0.6033 0.7692
H61 H 0.6643 0.6187 0.8940
H62 H 0.6647 0.6678 0.8058
C43 C 0.58927(16) 0.58005(12) 0.4169(2)
H63 H 0.5536 0.5701 0.3612
C44 C 0.64854(17) 0.61464(14) 0.3693(3)
H64 H 0.6727 0.6351 0.4268
H65 H 0.6294 0.6416 0.3173
H66 H 0.6818 0.5896 0.3329
C45 C 0.62851(19) 0.53067(14) 0.4510(3)
H67 H 0.6489 0.5121 0.3880
H68 H 0.5970 0.5044 0.4879
H69 H 0.6661 0.5422 0.5001
C46 C 0.41595(15) 0.66399(11) 0.8808(2)
C47 C 0.43922(15) 0.66092(11) 0.9904(2)
C48 C 0.41155(16) 0.61967(11) 1.0562(2)
H70 H 0.4278 0.6175 1.1282
C49 C 0.36097(17) 0.58112(12) 1.0225(2)
C50 C 0.34101(16) 0.58388(12) 0.9187(2)
H71 H 0.3081 0.5569 0.8934
C51 C 0.36573(15) 0.62404(11) 0.8461(2)
C52 C 0.33764(15) 0.62246(12) 0.7306(2)
H72 H 0.3639 0.6515 0.6885
C53 C 0.25997(14) 0.63889(13) 0.7287(2)
H73 H 0.2448 0.6443 0.6542
H74 H 0.2533 0.6740 0.7688
H75 H 0.2321 0.6089 0.7618
C54 C 0.34807(16) 0.56616(11) 0.6747(2)
H76 H 0.3225 0.5368 0.7138
H77 H 0.3981 0.5569 0.6734
H78 H 0.3303 0.5685 0.6010
C55 C 0.49251(15) 0.69940(11) 1.0448(2)
H79 H 0.5110 0.7260 0.9893
C56 C 0.55534(15) 0.66534(13) 1.0900(2)
H80 H 0.5411 0.6462 1.1563
H81 H 0.5943 0.6910 1.1054
H82 H 0.5702 0.6373 1.0369
C57 C 0.46125(16) 0.73427(12) 1.1351(2)
H83 H 0.4188 0.7533 1.1093
H84 H 0.4955 0.7625 1.1587
H85 H 0.4493 0.7096 1.1955
C58 C 0.33178(19) 0.53635(13) 1.0961(3)
H86 H 0.2959 0.5149 1.0541
C59 C 0.29584(16) 0.55921(13) 1.1934(2)
H87 H 0.2829 0.5281 1.2411
H88 H 0.2535 0.5797 1.1716
H89 H 0.3275 0.5849 1.2313
C60 C 0.3867(2) 0.49450(14) 1.1315(3)
H90 H 0.4183 0.5124 1.1833
H91 H 0.4136 0.4819 1.0689
H92 H 0.3638 0.4620 1.1652
P1 P 0.50356(4) 0.78520(3) 0.83505(5)
P2 P 0.43518(4) 0.71691(3) 0.77207(5)
loop_
_geom_bond_atom_site_label_1
_geom_bond_atom_site_label_2
_geom_bond_site_symmetry_1
_geom_bond_site_symmetry_2
C1 C2 1_555 1_555
C2 C3 1_555 1_555
C3 H1 1_555 1_555
C4 C3 1_555 1_555
C5 C4 1_555 1_555
H2 C5 1_555 1_555
C6 C1 1_555 1_555
C7 H3 1_555 1_555
H4 C7 1_555 1_555
H5 C7 1_555 1_555
C8 C6 1_555 1_555
H6 C8 1_555 1_555
C9 C8 1_555 1_555
H7 C9 1_555 1_555
H8 C9 1_555 1_555
H9 C9 1_555 1_555
C10 C4 1_555 1_555
H10 C10 1_555 1_555
C11 C10 1_555 1_555
H11 C11 1_555 1_555
H12 C11 1_555 1_555
H13 C11 1_555 1_555
C12 C10 1_555 1_555
H14 C12 1_555 1_555
H15 C12 1_555 1_555
H16 C12 1_555 1_555
C13 C2 1_555 1_555
H17 C13 1_555 1_555
C14 C13 1_555 1_555
H18 C14 1_555 1_555
H19 C14 1_555 1_555
H20 C14 1_555 1_555
C15 C13 1_555 1_555
H21 C15 1_555 1_555
H22 C15 1_555 1_555
H23 C15 1_555 1_555
C16 C17 1_555 1_555
C17 C18 1_555 1_555
C18 H24 1_555 1_555
C19 C18 1_555 1_555
C20 C19 1_555 1_555
H25 C20 1_555 1_555
C21 C16 1_555 1_555
C22 C21 1_555 1_555
H26 C22 1_555 1_555
C23 C22 1_555 1_555
H27 C23 1_555 1_555
H28 C23 1_555 1_555
H29 C23 1_555 1_555
C24 C22 1_555 1_555
H30 C24 1_555 1_555
H31 C24 1_555 1_555
H32 C24 1_555 1_555
C25 C19 1_555 1_555
H33 C25 1_555 1_555
C26 C25 1_555 1_555
H34 C26 1_555 1_555
H35 C26 1_555 1_555
H36 C26 1_555 1_555
C27 C25 1_555 1_555
H37 C27 1_555 1_555
H38 C27 1_555 1_555
H39 C27 1_555 1_555
C28 C17 1_555 1_555
H40 C28 1_555 1_555
C29 C28 1_555 1_555
H41 C29 1_555 1_555
H42 C29 1_555 1_555
H43 C29 1_555 1_555
C30 C28 1_555 1_555
H44 C30 1_555 1_555
H45 C30 1_555 1_555
H46 C30 1_555 1_555
C31 C32 1_555 1_555
C32 C33 1_555 1_555
C33 H47 1_555 1_555
C34 C33 1_555 1_555
C35 C34 1_555 1_555
H48 C35 1_555 1_555
C36 C31 1_555 1_555
C37 C36 1_555 1_555
H49 C37 1_555 1_555
C38 C37 1_555 1_555
H50 C38 1_555 1_555
H51 C38 1_555 1_555
H52 C38 1_555 1_555
C39 C37 1_555 1_555
H53 C39 1_555 1_555
H54 C39 1_555 1_555
H55 C39 1_555 1_555
C40 C32 1_555 1_555
H56 C40 1_555 1_555
C41 C40 1_555 1_555
H57 C41 1_555 1_555
H58 C41 1_555 1_555
H59 C41 1_555 1_555
C42 C40 1_555 1_555
H60 C42 1_555 1_555
H61 C42 1_555 1_555
H62 C42 1_555 1_555
C43 C34 1_555 1_555
H63 C43 1_555 1_555
C44 C43 1_555 1_555
H64 C44 1_555 1_555
H65 C44 1_555 1_555
H66 C44 1_555 1_555
C45 C43 1_555 1_555
H67 C45 1_555 1_555
H68 C45 1_555 1_555
H69 C45 1_555 1_555
C46 C47 1_555 1_555
C47 C48 1_555 1_555
C48 H70 1_555 1_555
C49 C48 1_555 1_555
C50 C49 1_555 1_555
H71 C50 1_555 1_555
C51 C46 1_555 1_555
C52 C51 1_555 1_555
H72 C52 1_555 1_555
C53 C52 1_555 1_555
H73 C53 1_555 1_555
H74 C53 1_555 1_555
H75 C53 1_555 1_555
C54 C52 1_555 1_555
H76 C54 1_555 1_555
H77 C54 1_555 1_555
H78 C54 1_555 1_555
C55 C47 1_555 1_555
H79 C55 1_555 1_555
C56 C55 1_555 1_555
H80 C56 1_555 1_555
H81 C56 1_555 1_555
H82 C56 1_555 1_555
C57 C55 1_555 1_555
H83 C57 1_555 1_555
H84 C57 1_555 1_555
H85 C57 1_555 1_555
C58 C49 1_555 1_555
H86 C58 1_555 1_555
C59 C58 1_555 1_555
H87 C59 1_555 1_555
H88 C59 1_555 1_555
H89 C59 1_555 1_555
C60 C58 1_555 1_555
H90 C60 1_555 1_555
H91 C60 1_555 1_555
H92 C60 1_555 1_555
P1 C1 1_555 1_555
P2 C31 1_555 1_555
C5 C6 1_555 1_555
C7 C8 1_555 1_555
C16 P1 1_555 1_555
C20 C21 1_555 1_555
C35 C36 1_555 1_555
C46 P2 1_555 1_555
C50 C51 1_555 1_555
P1 P2 1_555 1_555

#END
