
#######################################################################
#
#                 Cambridge Crystallographic Data Centre
#                                CCDC 
#
#######################################################################
#
# If this CIF has been generated from an entry in the Cambridge 
# Structural Database, then it will include bibliographic, chemical, 
# crystal, experimental, refinement or atomic coordinate data resulting 
# from the CCDC's data processing and validation procedures.
#
#######################################################################

data_XIRJEP
_chemical_formula_moiety         'C27 H19 N3 O2'
_chemical_name_systematic        
3-(4-(diphenylamino)phenyl)-2-(4-nitrophenyl)acrylonitrile
_symmetry_cell_setting           monoclinic
_symmetry_space_group_name_H-M   'P 21/c'
_symmetry_Int_Tables_number      14
_space_group_name_Hall           '-P 2ybc'
loop_
_symmetry_equiv_pos_site_id
_symmetry_equiv_pos_as_xyz
1 x,y,z
2 -x,1/2+y,1/2-z
3 -x,-y,-z
4 x,1/2-y,1/2+z
_cell_length_a                   11.154(2)
_cell_length_b                   7.5463(15)
_cell_length_c                   25.707(5)
_cell_angle_alpha                90
_cell_angle_beta                 96.42(3)
_cell_angle_gamma                90
_cell_volume                     2150.23
_exptl_crystal_colour            red
_exptl_crystal_description       block
_cell_formula_units_Z            4
loop_
_atom_site_label
_atom_site_type_symbol
_atom_site_fract_x
_atom_site_fract_y
_atom_site_fract_z
N1 N 0.28772(13) -0.31451(18) 0.17385(6)
C1 C 0.18492(16) -0.4059(2) 0.18840(7)
C2 C 0.17213(18) 0.1159(2) 0.12112(7)
H1 H 0.1139 0.1985 0.1278
C3 C 0.24141(17) 0.1465(2) 0.07990(7)
C4 C 0.22061(18) 0.3103(2) 0.05056(7)
H2 H 0.1601 0.3807 0.0618
C5 C 0.27189(18) 0.3794(2) 0.01048(7)
C6 C 0.18742(17) -0.0323(2) 0.15202(7)
H3 H 0.1402 -0.0476 0.1793
C7 C 0.27260(16) -0.1598(2) 0.14308(7)
C8 C 0.34198(18) -0.1311(2) 0.10234(7)
H4 H 0.3996 -0.2147 0.0957
C9 C 0.07690(16) -0.4076(2) 0.15596(7)
H5 H 0.0699 -0.3446 0.1247
C10 C 0.32766(18) 0.0175(2) 0.07156(8)
H6 H 0.3760 0.0330 0.0447
C11 C 0.40222(16) -0.4005(2) 0.18057(7)
C12 C 0.2373(2) 0.5518(2) -0.01488(7)
C13 C -0.0109(2) -0.5978(3) 0.21567(9)
H7 H -0.0759 -0.6643 0.2244
C14 C 0.0954(2) -0.5940(3) 0.24817(9)
H8 H 0.1019 -0.6573 0.2794
C15 C 0.41198(18) -0.5795(2) 0.17168(8)
H9 H 0.3431 -0.6454 0.1611
C16 C 0.50596(19) -0.3064(3) 0.19627(9)
H10 H 0.5016 -0.1856 0.2030
C17 C -0.01981(18) -0.5018(3) 0.16988(9)
H11 H -0.0922 -0.5008 0.1481
C18 C 0.19263(18) -0.4980(2) 0.23517(8)
H12 H 0.2636 -0.4950 0.2579
C19 C 0.1786(3) 0.8747(3) -0.06142(9)
C20 C 0.5230(2) -0.6620(3) 0.17829(9)
H13 H 0.5283 -0.7831 0.1723
C21 C 0.1390(2) 0.6479(3) -0.00242(9)
H14 H 0.0915 0.6024 0.0219
C22 C 0.6246(2) -0.5674(3) 0.19357(10)
H15 H 0.6993 -0.6233 0.1982
C23 C 0.6160(2) -0.3910(3) 0.20194(11)
H16 H 0.6857 -0.3259 0.2117
C24 C 0.1097(2) 0.8097(3) -0.02530(9)
H17 H 0.0438 0.8736 -0.0162
N2 N 0.1487(3) 1.0481(3) -0.08568(11)
C25 C 0.3658(3) 0.2877(3) -0.01159(10)
C26 C 0.2743(3) 0.7847(4) -0.07526(10)
H18 H 0.3201 0.8308 -0.1001
O1 O 0.0762(2) 1.1416(3) -0.06569(9)
C27 C 0.3036(3) 0.6228(3) -0.05204(9)
H19 H 0.3695 0.5603 -0.0617
O2 O 0.1978(3) 1.0924(3) -0.12339(10)
N3 N 0.4403(3) 0.2189(3) -0.03063(11)
loop_
_geom_bond_atom_site_label_1
_geom_bond_atom_site_label_2
_geom_bond_site_symmetry_1
_geom_bond_site_symmetry_2
N1 C1 1_555 1_555
C1 C9 1_555 1_555
C2 H1 1_555 1_555
C3 C2 1_555 1_555
C4 C3 1_555 1_555
H2 C4 1_555 1_555
C5 C4 1_555 1_555
C6 C2 1_555 1_555
H3 C6 1_555 1_555
C7 N1 1_555 1_555
C8 C7 1_555 1_555
H4 C8 1_555 1_555
C9 H5 1_555 1_555
C10 C3 1_555 1_555
H6 C10 1_555 1_555
C11 N1 1_555 1_555
C12 C5 1_555 1_555
C13 H7 1_555 1_555
C14 C13 1_555 1_555
H8 C14 1_555 1_555
C15 C11 1_555 1_555
H9 C15 1_555 1_555
C16 C11 1_555 1_555
H10 C16 1_555 1_555
C17 C9 1_555 1_555
H11 C17 1_555 1_555
C18 C1 1_555 1_555
H12 C18 1_555 1_555
C19 C24 1_555 1_555
C20 C15 1_555 1_555
H13 C20 1_555 1_555
C21 C12 1_555 1_555
H14 C21 1_555 1_555
C22 C20 1_555 1_555
H15 C22 1_555 1_555
C23 C16 1_555 1_555
H16 C23 1_555 1_555
C24 C21 1_555 1_555
H17 C24 1_555 1_555
N2 C19 1_555 1_555
C25 C5 1_555 1_555
C26 C19 1_555 1_555
H18 C26 1_555 1_555
O1 N2 1_555 1_555
C27 C12 1_555 1_555
H19 C27 1_555 1_555
O2 N2 1_555 1_555
N3 C25 1_555 1_555
C6 C7 1_555 1_555
C8 C10 1_555 1_555
C13 C17 1_555 1_555
C14 C18 1_555 1_555
C22 C23 1_555 1_555
C26 C27 1_555 1_555

#END
