
#######################################################################
#
#                 Cambridge Crystallographic Data Centre
#                                CCDC 
#
#######################################################################
#
# If this CIF has been generated from an entry in the Cambridge 
# Structural Database, then it will include bibliographic, chemical, 
# crystal, experimental, refinement or atomic coordinate data resulting 
# from the CCDC's data processing and validation procedures.
#
#######################################################################

data_XIRRIC
_chemical_formula_moiety         'C17 H15 N3 O2,H2 O1'
_chemical_name_systematic        
'methyl 4-methyl-2,5-di(pyridin-4-yl)-1H-pyrrole-3-carboxylate monohydrate'
_symmetry_cell_setting           triclinic
_symmetry_space_group_name_H-M   'P -1'
_symmetry_Int_Tables_number      2
_space_group_name_Hall           '-P 1'
loop_
_symmetry_equiv_pos_site_id
_symmetry_equiv_pos_as_xyz
1 x,y,z
2 -x,-y,-z
_cell_length_a                   5.7965(14)
_cell_length_b                   11.625(3)
_cell_length_c                   12.315(3)
_cell_angle_alpha                76.216(18)
_cell_angle_beta                 76.674(18)
_cell_angle_gamma                79.158(18)
_cell_volume                     776.412
_exptl_crystal_colour            colorless
_exptl_crystal_description       Prism
_cell_formula_units_Z            2
_exptl_crystal_preparation       Fiber
loop_
_atom_site_label
_atom_site_type_symbol
_atom_site_fract_x
_atom_site_fract_y
_atom_site_fract_z
O1 O -0.0866(2) 1.07768(12) 0.82708(12)
O2 O 0.2923(2) 0.99654(11) 0.83887(11)
N1 N 0.1894(3) 0.72267(14) 0.70521(12)
H1 H 0.231(3) 0.6438(19) 0.7116(17)
N2 N -0.1148(3) 0.66086(15) 0.36759(14)
N3 N 0.6373(3) 0.62073(14) 1.03685(13)
C1 C 0.0237(3) 0.78930(16) 0.64202(14)
C2 C -0.0505(3) 0.89829(16) 0.67558(14)
C3 C 0.0779(3) 0.89540(16) 0.76268(14)
C4 C 0.2208(3) 0.78458(16) 0.78058(14)
C5 C -0.0293(3) 0.74416(16) 0.55028(14)
C6 C -0.2405(4) 0.78407(18) 0.50829(16)
H2 H -0.3608 0.8402 0.5413
C7 C -0.2732(4) 0.74104(18) 0.41794(17)
H3 H -0.4174 0.7704 0.3900
C8 C 0.0867(4) 0.62217(17) 0.40831(16)
H4 H 0.2027 0.5655 0.3737
C9 C 0.1366(4) 0.65969(16) 0.49784(15)
H5 H 0.2825 0.6284 0.5237
C10 C -0.2220(3) 1.00125(16) 0.62887(15)
H6 H -0.2037 1.0071 0.5467
H7 H -0.1884 1.0755 0.6427
H8 H -0.3863 0.9886 0.6666
C11 C 0.0796(3) 0.99849(16) 0.81314(14)
C12 C 0.3167(4) 1.09294(18) 0.88923(17)
H9 H 0.2404 1.1688 0.8495
H10 H 0.4869 1.0970 0.8824
H11 H 0.2393 1.0784 0.9699
C13 C 0.3679(3) 0.72844(15) 0.86668(14)
C14 C 0.2891(4) 0.74566(16) 0.97874(15)
H12 H 0.1421 0.7948 0.9993
C15 C 0.4272(4) 0.69055(17) 1.05874(16)
H13 H 0.3699 0.7028 1.1345
C16 C 0.7119(4) 0.60386(17) 0.92938(16)
H14 H 0.8602 0.5547 0.9114
C17 C 0.5840(3) 0.65444(16) 0.84344(15)
H15 H 0.6433 0.6387 0.7690
O3 O 0.7014(3) 0.52105(13) 0.25996(13)
H16 H 0.765(5) 0.572(2) 0.286(2)
H17 H 0.703(5) 0.553(2) 0.187(3)
loop_
_geom_bond_atom_site_label_1
_geom_bond_atom_site_label_2
_geom_bond_site_symmetry_1
_geom_bond_site_symmetry_2
O1 C11 1_555 1_555
O2 C11 1_555 1_555
N1 H1 1_555 1_555
N2 C7 1_555 1_555
N3 C15 1_555 1_555
C1 N1 1_555 1_555
C2 C1 1_555 1_555
C3 C2 1_555 1_555
C4 N1 1_555 1_555
C5 C1 1_555 1_555
C6 C5 1_555 1_555
H2 C6 1_555 1_555
C7 C6 1_555 1_555
H3 C7 1_555 1_555
C8 N2 1_555 1_555
H4 C8 1_555 1_555
C9 C5 1_555 1_555
H5 C9 1_555 1_555
C10 C2 1_555 1_555
H6 C10 1_555 1_555
H7 C10 1_555 1_555
H8 C10 1_555 1_555
C11 C3 1_555 1_555
C12 O2 1_555 1_555
H9 C12 1_555 1_555
H10 C12 1_555 1_555
H11 C12 1_555 1_555
C13 C4 1_555 1_555
C14 C13 1_555 1_555
H12 C14 1_555 1_555
C15 C14 1_555 1_555
H13 C15 1_555 1_555
C16 N3 1_555 1_555
H14 C16 1_555 1_555
C17 C13 1_555 1_555
H15 C17 1_555 1_555
O3 H16 1_555 1_555
H17 O3 1_555 1_555
C3 C4 1_555 1_555
C8 C9 1_555 1_555
C16 C17 1_555 1_555

#END
