
#######################################################################
#
#                 Cambridge Crystallographic Data Centre
#                                CCDC 
#
#######################################################################
#
# If this CIF has been generated from an entry in the Cambridge 
# Structural Database, then it will include bibliographic, chemical, 
# crystal, experimental, refinement or atomic coordinate data resulting 
# from the CCDC's data processing and validation procedures.
#
#######################################################################

data_XIRREY
_chemical_formula_moiety         'C14 H19 N2 O4'
_chemical_name_systematic        
'2-[4-hydroxy-3-methoxyphenyl]-4,4,5,5-tetramethylimidazoline-3-oxide-1-oxyl radical'
_symmetry_cell_setting           orthorhombic
_symmetry_space_group_name_H-M   'P 21 21 21'
_symmetry_Int_Tables_number      19
_space_group_name_Hall           'P 2ac 2ab'
loop_
_symmetry_equiv_pos_site_id
_symmetry_equiv_pos_as_xyz
1 x,y,z
2 1/2-x,-y,1/2+z
3 -x,1/2+y,1/2-z
4 1/2+x,1/2-y,-z
_cell_length_a                   9.263(10)
_cell_length_b                   9.847(11)
_cell_length_c                   15.431(16)
_cell_angle_alpha                90
_cell_angle_beta                 90
_cell_angle_gamma                90
_cell_volume                     1407.5
_exptl_crystal_colour            blue
_exptl_crystal_description       block
_cell_formula_units_Z            4
loop_
_atom_site_label
_atom_site_type_symbol
_atom_site_fract_x
_atom_site_fract_y
_atom_site_fract_z
C1 C 0.2595(3) 0.3343(3) 0.38307(19)
C2 C 0.3255(4) 0.5248(3) 0.4680(2)
C3 C 0.2938(3) 0.4030(3) 0.52915(19)
C4 C 0.2404(5) 0.6533(3) 0.4901(2)
H1 H 0.2619 0.7227 0.4484
H2 H 0.2671 0.6842 0.5469
H3 H 0.1389 0.6337 0.4889
C5 C 0.4854(4) 0.5560(3) 0.4551(3)
H4 H 0.5358 0.4740 0.4404
H5 H 0.5247 0.5927 0.5077
H6 H 0.4964 0.6209 0.4092
C6 C 0.4094(4) 0.3713(3) 0.5950(2)
H7 H 0.3825 0.2918 0.6272
H8 H 0.4199 0.4468 0.6340
H9 H 0.4993 0.3552 0.5658
C7 C 0.1455(4) 0.4067(4) 0.5733(2)
H10 H 0.0723 0.4241 0.5307
H11 H 0.1443 0.4775 0.6161
H12 H 0.1272 0.3210 0.6007
C8 C 0.2193(3) 0.2509(3) 0.30823(19)
C9 C 0.2801(4) 0.1224(3) 0.29620(19)
H13 H 0.3479 0.0896 0.3355
C10 C 0.2396(3) 0.0438(3) 0.2261(2)
C11 C 0.1347(4) 0.0921(3) 0.16850(19)
C12 C 0.0714(4) 0.2164(3) 0.1828(2)
H14 H -0.0011 0.2467 0.1458
C13 C 0.1142(3) 0.2970(3) 0.25154(19)
H15 H 0.0725 0.3820 0.2597
C14 C 0.4001(5) -0.1376(4) 0.2635(2)
H16 H 0.4871 -0.0854 0.2576
H17 H 0.4188 -0.2303 0.2478
H18 H 0.3674 -0.1338 0.3225
N1 N 0.2726(3) 0.4701(2) 0.38260(17)
N2 N 0.2835(3) 0.2890(2) 0.46404(16)
O1 O 0.2622(3) 0.5465(2) 0.31572(16)
O2 O 0.2776(3) 0.16378(19) 0.48889(14)
O3 O 0.2913(3) -0.0830(2) 0.20781(14)
O4 O 0.0938(3) 0.0177(2) 0.09778(15)
H19 H 0.0167 -0.0201 0.1078
loop_
_geom_bond_atom_site_label_1
_geom_bond_atom_site_label_2
_geom_bond_site_symmetry_1
_geom_bond_site_symmetry_2
C1 C8 1_555 1_555
C2 C3 1_555 1_555
C3 C6 1_555 1_555
C4 C2 1_555 1_555
H1 C4 1_555 1_555
H2 C4 1_555 1_555
H3 C4 1_555 1_555
C5 C2 1_555 1_555
H4 C5 1_555 1_555
H5 C5 1_555 1_555
H6 C5 1_555 1_555
C6 H7 1_555 1_555
H8 C6 1_555 1_555
H9 C6 1_555 1_555
C7 C3 1_555 1_555
H10 C7 1_555 1_555
H11 C7 1_555 1_555
H12 C7 1_555 1_555
C8 C9 1_555 1_555
C9 H13 1_555 1_555
C10 C9 1_555 1_555
C11 C10 1_555 1_555
C12 C11 1_555 1_555
H14 C12 1_555 1_555
C13 C8 1_555 1_555
H15 C13 1_555 1_555
C14 H16 1_555 1_555
H17 C14 1_555 1_555
H18 C14 1_555 1_555
N1 C1 1_555 1_555
N2 C1 1_555 1_555
O1 N1 1_555 1_555
O2 N2 1_555 1_555
O3 C10 1_555 1_555
O4 C11 1_555 1_555
H19 O4 1_555 1_555
C2 N1 1_555 1_555
C3 N2 1_555 1_555
C12 C13 1_555 1_555
C14 O3 1_555 1_555

#END
