
#######################################################################
#
#                 Cambridge Crystallographic Data Centre
#                                CCDC 
#
#######################################################################
#
# If this CIF has been generated from an entry in the Cambridge 
# Structural Database, then it will include bibliographic, chemical, 
# crystal, experimental, refinement or atomic coordinate data resulting 
# from the CCDC's data processing and validation procedures.
#
#######################################################################

data_XIRSID
_chemical_formula_moiety         'C32 H31 N5 O2'
_chemical_name_systematic        
(E)-3',6'-bis(ethylamino)-2',7'-dimethyl-2-{[(pyridin-2-yl)methylidene]amino}spiro[isoindole-1,9'-xanthen]-3(2H)-one
_symmetry_cell_setting           triclinic
_symmetry_space_group_name_H-M   'P -1'
_symmetry_Int_Tables_number      2
_space_group_name_Hall           '-P 1'
loop_
_symmetry_equiv_pos_site_id
_symmetry_equiv_pos_as_xyz
1 x,y,z
2 -x,-y,-z
_cell_length_a                   9.9226(4)
_cell_length_b                   11.1446(7)
_cell_length_c                   12.6719(6)
_cell_angle_alpha                90.693(4)
_cell_angle_beta                 109.858(4)
_cell_angle_gamma                95.382(4)
_cell_volume                     1310.72
_exptl_crystal_colour            purple
_exptl_crystal_description       block
_cell_formula_units_Z            2
loop_
_atom_site_label
_atom_site_type_symbol
_atom_site_fract_x
_atom_site_fract_y
_atom_site_fract_z
O1 O 0.62952(11) 0.42340(9) 0.52425(8)
O2 O 0.64105(13) 0.19506(11) 0.99411(9)
N1 N 0.66350(12) 0.26114(10) 0.82731(9)
N2 N 0.78010(12) 0.19989(11) 0.84103(10)
N3 N 0.30616(14) 0.09943(13) 0.30566(11)
H1 H 0.2468 0.0372 0.3031
N4 N 1.00517(15) 0.72836(13) 0.71075(12)
H2 H 1.0648 0.7613 0.7728
N5 N 1.03909(15) 0.16870(14) 0.71182(12)
C1 C 0.53032(13) 0.27276(12) 0.62230(11)
C2 C 0.71318(14) 0.47944(12) 0.62597(11)
C3 C 0.70087(14) 0.44633(12) 0.72746(11)
C4 C 0.47804(14) 0.38260(12) 0.77614(11)
C5 C 0.44520(14) 0.16212(12) 0.60991(11)
H3 H 0.4372 0.1275 0.6742
C6 C 0.54415(14) 0.31894(12) 0.52489(11)
C7 C 0.59497(14) 0.34197(12) 0.73478(11)
C8 C 0.47296(15) 0.26201(13) 0.41981(11)
H4 H 0.4846 0.2958 0.3563
C9 C 0.38425(14) 0.15456(13) 0.40892(12)
C10 C 0.81302(15) 0.57225(13) 0.61875(12)
H5 H 0.8182 0.5919 0.5490
C11 C 0.37278(14) 0.10188(13) 0.50770(12)
C12 C 0.79453(15) 0.51148(13) 0.82389(11)
H6 H 0.7879 0.4916 0.8932
C13 C 0.60180(15) 0.25416(13) 0.91108(11)
C14 C 0.89611(15) 0.60368(13) 0.82101(12)
C15 C 0.90547(15) 0.63610(13) 0.71564(12)
C16 C 0.97640(15) 0.14832(13) 0.78891(12)
C17 C 0.48382(15) 0.33203(13) 0.87663(11)
C18 C 0.84644(15) 0.21117(13) 0.77075(11)
H7 H 0.8134 0.2583 0.7089
C19 C 0.37338(16) 0.45832(14) 0.72485(12)
H8 H 0.3688 0.4927 0.6574
C20 C 1.02854(17) 0.07489(15) 0.87850(13)
H9 H 0.9813 0.0628 0.9301
C21 C 0.28226(16) -0.01633(14) 0.49949(13)
H10 H 0.2895 -0.0405 0.5735
H11 H 0.3159 -0.0767 0.4628
H12 H 0.1836 -0.0072 0.4569
C22 C 0.31836(17) 0.14032(14) 0.20117(12)
H13 H 0.3209 0.2275 0.2017
H14 H 0.2332 0.1076 0.1398
C23 C 0.27577(18) 0.48093(16) 0.77781(14)
H15 H 0.2046 0.5311 0.7449
C24 C 1.15248(18) 0.01975(16) 0.88987(15)
H16 H 1.1895 -0.0304 0.9487
C25 C 0.38677(18) 0.35506(16) 0.93018(13)
H17 H 0.3921 0.3212 0.9980
C26 C 0.99480(18) 0.67037(16) 0.92720(14)
H18 H 0.9757 0.7533 0.9257
H19 H 1.0931 0.6659 0.9328
H20 H 0.9785 0.6344 0.9908
C27 C 0.28229(19) 0.42992(17) 0.87916(15)
H21 H 0.2156 0.4465 0.9127
C28 C 1.01471(18) 0.77284(14) 0.60603(15)
H22 H 1.0584 0.8557 0.6191
H23 H 0.9181 0.7726 0.5520
C29 C 0.4508(2) 0.10433(16) 0.17964(14)
H24 H 0.4540 0.1365 0.1105
H25 H 0.4465 0.0180 0.1746
H26 H 0.5358 0.1358 0.2403
C30 C 1.21884(18) 0.04142(19) 0.81171(17)
H27 H 1.3024 0.0068 0.8169
C31 C 1.1013(2) 0.69960(18) 0.55593(16)
H28 H 1.0965 0.7294 0.4841
H29 H 1.0623 0.6164 0.5468
H30 H 1.1998 0.7066 0.6052
C32 C 1.1587(2) 0.1158(2) 0.72517(17)
H31 H 1.2046 0.1299 0.6729
loop_
_geom_bond_atom_site_label_1
_geom_bond_atom_site_label_2
_geom_bond_site_symmetry_1
_geom_bond_site_symmetry_2
O1 C2 1_555 1_555
O2 C13 1_555 1_555
N1 N2 1_555 1_555
N2 C18 1_555 1_555
N3 H1 1_555 1_555
N4 H2 1_555 1_555
N5 C16 1_555 1_555
C1 C5 1_555 1_555
C2 C3 1_555 1_555
C3 C7 1_555 1_555
C4 C7 1_555 1_555
C5 H3 1_555 1_555
C6 O1 1_555 1_555
C7 N1 1_555 1_555
C8 C6 1_555 1_555
H4 C8 1_555 1_555
C9 N3 1_555 1_555
C10 C2 1_555 1_555
H5 C10 1_555 1_555
C11 C5 1_555 1_555
C12 C3 1_555 1_555
H6 C12 1_555 1_555
C13 N1 1_555 1_555
C14 C12 1_555 1_555
C15 N4 1_555 1_555
C16 C18 1_555 1_555
C17 C4 1_555 1_555
C18 H7 1_555 1_555
C19 C4 1_555 1_555
H8 C19 1_555 1_555
C20 C16 1_555 1_555
H9 C20 1_555 1_555
C21 C11 1_555 1_555
H10 C21 1_555 1_555
H11 C21 1_555 1_555
H12 C21 1_555 1_555
C22 N3 1_555 1_555
H13 C22 1_555 1_555
H14 C22 1_555 1_555
C23 C19 1_555 1_555
H15 C23 1_555 1_555
C24 C20 1_555 1_555
H16 C24 1_555 1_555
C25 C17 1_555 1_555
H17 C25 1_555 1_555
C26 C14 1_555 1_555
H18 C26 1_555 1_555
H19 C26 1_555 1_555
H20 C26 1_555 1_555
C27 C23 1_555 1_555
H21 C27 1_555 1_555
C28 N4 1_555 1_555
H22 C28 1_555 1_555
H23 C28 1_555 1_555
C29 C22 1_555 1_555
H24 C29 1_555 1_555
H25 C29 1_555 1_555
H26 C29 1_555 1_555
C30 C24 1_555 1_555
H27 C30 1_555 1_555
C31 C28 1_555 1_555
H28 C31 1_555 1_555
H29 C31 1_555 1_555
H30 C31 1_555 1_555
C32 N5 1_555 1_555
H31 C32 1_555 1_555
C1 C6 1_555 1_555
C1 C7 1_555 1_555
C8 C9 1_555 1_555
C9 C11 1_555 1_555
C10 C15 1_555 1_555
C13 C17 1_555 1_555
C14 C15 1_555 1_555
C25 C27 1_555 1_555
C30 C32 1_555 1_555

#END
