
#######################################################################
#
#                 Cambridge Crystallographic Data Centre
#                                CCDC 
#
#######################################################################
#
# If this CIF has been generated from an entry in the Cambridge 
# Structural Database, then it will include bibliographic, chemical, 
# crystal, experimental, refinement or atomic coordinate data resulting 
# from the CCDC's data processing and validation procedures.
#
#######################################################################

data_XIRTEA
_chemical_formula_moiety         'C19 H21 Br2 N1 O5'
_chemical_name_systematic        
'diethyl 4-(3,5-dibromo-4-hydroxyphenyl)-2,6-dimethyl-1,4-dihydropyridine-3,5-dicarboxylate'
_symmetry_cell_setting           monoclinic
_symmetry_space_group_name_H-M   'P 21/c'
_symmetry_Int_Tables_number      14
_space_group_name_Hall           '-P 2ybc'
loop_
_symmetry_equiv_pos_site_id
_symmetry_equiv_pos_as_xyz
1 x,y,z
2 -x,1/2+y,1/2-z
3 -x,-y,-z
4 x,1/2-y,1/2+z
_cell_length_a                   8.657(5)
_cell_length_b                   17.150(5)
_cell_length_c                   13.889(4)
_cell_angle_alpha                90
_cell_angle_beta                 104.807(15)
_cell_angle_gamma                90
_cell_volume                     1993.59
_exptl_crystal_colour            yellow
_exptl_crystal_description       block
_cell_formula_units_Z            4
loop_
_atom_site_label
_atom_site_type_symbol
_atom_site_fract_x
_atom_site_fract_y
_atom_site_fract_z
N1 N 0.5943(7) 0.1264(4) -0.0028(4)
H1 H 0.627845 0.147614 -0.049849
Br1 Br 0.90836(9) 0.31691(5) 0.33162(5)
Br2 Br 0.66838(11) 0.10642(6) 0.57107(5)
O1 O 0.2408(6) 0.1233(3) 0.1981(4)
O2 O 0.1676(6) 0.2006(4) 0.0669(4)
O3 O 0.6523(7) -0.0576(3) 0.2504(4)
O4 O 0.8539(8) -0.0548(4) 0.1784(5)
O5 O 0.8605(7) 0.2383(4) 0.5244(3)
C1 C 0.3741(9) 0.2150(5) -0.0589(5)
H2 H 0.430926 0.221301 -0.109435
H3 H 0.267859 0.196796 -0.088842
H4 H 0.368901 0.264237 -0.026945
C2 C 0.4600(8) 0.1566(4) 0.0171(5)
C3 C 0.6813(8) 0.0636(5) 0.0477(5)
C4 C 0.8041(9) 0.0325(5) 0.0010(5)
H5 H 0.803914 0.062268 -0.057546
H6 H 0.907272 0.036017 0.047293
H7 H 0.780798 -0.021103 -0.017091
C5 C 0.6429(8) 0.0386(4) 0.1307(4)
C6 C 0.5229(8) 0.0802(4) 0.1749(5)
H8 H 0.455516 0.040699 0.194952
C7 C 0.4154(8) 0.1331(4) 0.0985(5)
C8 C 0.2649(8) 0.1573(5) 0.1158(5)
C9 C 0.0961(10) 0.1397(6) 0.2267(6)
H9 H 0.004214 0.124090 0.174119
H10 H 0.088070 0.195094 0.238435
C10 C 0.1000(11) 0.0955(6) 0.3187(7)
H11 H 0.004123 0.105673 0.339242
H12 H 0.107496 0.040776 0.306331
H13 H 0.191034 0.111511 0.370403
C11 C 0.7313(10) -0.0275(5) 0.1851(6)
C12 C 0.7312(13) -0.1189(6) 0.3162(7)
H14 H 0.799024 -0.148569 0.283817
H15 H 0.651585 -0.154122 0.329795
C13 C 0.8276(14) -0.0875(7) 0.4097(7)
H16 H 0.878323 -0.129507 0.451781
H17 H 0.907697 -0.053356 0.396585
H18 H 0.760408 -0.058904 0.442516
C14 C 0.6093(8) 0.1249(4) 0.2676(5)
C15 C 0.6997(8) 0.1911(4) 0.2609(5)
H19 H 0.703836 0.209201 0.198509
C16 C 0.7829(8) 0.2301(4) 0.3449(5)
C17 C 0.7811(8) 0.2041(4) 0.4390(5)
C18 C 0.6849(8) 0.1409(5) 0.4454(5)
C19 C 0.6004(8) 0.1025(4) 0.3608(5)
H20 H 0.535879 0.060471 0.367297
H21 H 0.944(5) 0.261(4) 0.526(5)
loop_
_geom_bond_atom_site_label_1
_geom_bond_atom_site_label_2
_geom_bond_site_symmetry_1
_geom_bond_site_symmetry_2
N1 H1 1_555 1_555
Br1 C16 1_555 1_555
Br2 C18 1_555 1_555
O1 C8 1_555 1_555
O2 C8 1_555 1_555
O3 C11 1_555 1_555
O4 C11 1_555 1_555
O5 C17 1_555 1_555
C1 H2 1_555 1_555
H3 C1 1_555 1_555
H4 C1 1_555 1_555
C2 N1 1_555 1_555
C3 N1 1_555 1_555
C4 C3 1_555 1_555
H5 C4 1_555 1_555
H6 C4 1_555 1_555
H7 C4 1_555 1_555
C5 C3 1_555 1_555
C6 C5 1_555 1_555
H8 C6 1_555 1_555
C7 C2 1_555 1_555
C8 C7 1_555 1_555
C9 O1 1_555 1_555
H9 C9 1_555 1_555
H10 C9 1_555 1_555
C10 C9 1_555 1_555
H11 C10 1_555 1_555
H12 C10 1_555 1_555
H13 C10 1_555 1_555
C11 C5 1_555 1_555
C12 O3 1_555 1_555
H14 C12 1_555 1_555
H15 C12 1_555 1_555
C13 C12 1_555 1_555
H16 C13 1_555 1_555
H17 C13 1_555 1_555
H18 C13 1_555 1_555
C14 C6 1_555 1_555
C15 C14 1_555 1_555
H19 C15 1_555 1_555
C16 C15 1_555 1_555
C17 C16 1_555 1_555
C18 C17 1_555 1_555
C19 C14 1_555 1_555
H20 C19 1_555 1_555
H21 O5 1_555 1_555
C1 C2 1_555 1_555
C6 C7 1_555 1_555
C18 C19 1_555 1_555

#END
