
#######################################################################
#
#                 Cambridge Crystallographic Data Centre
#                                CCDC 
#
#######################################################################
#
# If this CIF has been generated from an entry in the Cambridge 
# Structural Database, then it will include bibliographic, chemical, 
# crystal, experimental, refinement or atomic coordinate data resulting 
# from the CCDC's data processing and validation procedures.
#
#######################################################################

data_XIRTAW
_chemical_formula_moiety         'C14 H15 N1 O4'
_chemical_name_systematic        
'(2E,4Z)-dimethyl 4-((phenylamino)methylene)pent-2-enedioate'
_symmetry_cell_setting           triclinic
_symmetry_space_group_name_H-M   'P -1'
_symmetry_Int_Tables_number      2
_space_group_name_Hall           '-P 1'
loop_
_symmetry_equiv_pos_site_id
_symmetry_equiv_pos_as_xyz
1 x,y,z
2 -x,-y,-z
_cell_length_a                   8.2018(4)
_cell_length_b                   11.5512(5)
_cell_length_c                   14.4121(7)
_cell_angle_alpha                79.242(2)
_cell_angle_beta                 78.647(3)
_cell_angle_gamma                85.496(3)
_cell_volume                     1313.93
_exptl_crystal_colour            colorless
_exptl_crystal_description       block
_cell_formula_units_Z            4
loop_
_atom_site_label
_atom_site_type_symbol
_atom_site_fract_x
_atom_site_fract_y
_atom_site_fract_z
O1 O 0.82537(15) 0.62219(10) 0.75870(8)
O2 O 0.80262(16) 0.91956(10) 0.50978(8)
O3 O 0.64784(17) 1.08640(10) 0.51680(8)
O4 O 0.71188(16) 0.61463(11) 0.91433(9)
N1 N 0.49905(17) 0.79047(11) 0.95934(9)
H1 H 0.546581 0.723685 0.978604
C1 C 0.69641(19) 0.84022(12) 0.70105(10)
H2 H 0.775211 0.799546 0.661877
C2 C 0.54497(19) 0.83624(13) 0.86660(10)
H3 H 0.498156 0.909819 0.844825
C3 C 0.65539(19) 0.78393(13) 0.80070(11)
C4 C 0.7313(2) 0.66769(13) 0.83123(11)
C5 C 0.6924(2) 0.99066(13) 0.55655(11)
C6 C 0.3829(2) 0.83753(13) 1.02953(11)
C7 C 0.6367(2) 0.94246(13) 0.65769(11)
H4 H 0.555412 0.985021 0.693859
C8 C 0.2854(2) 0.93922(15) 1.00824(12)
H5 H 0.294166 0.979222 0.945284
C9 C 0.3650(3) 0.77924(16) 1.12374(13)
H6 H 0.428938 0.710530 1.138385
C10 C 0.1756(3) 0.98000(16) 1.08157(13)
H7 H 0.110535 1.048271 1.067512
C11 C 0.8677(3) 0.96535(17) 0.41106(12)
H8 H 0.777904 0.983005 0.376127
H9 H 0.943798 0.907734 0.383888
H10 H 0.925005 1.035972 0.407032
C12 C 0.9084(3) 0.50944(16) 0.78300(15)
H11 H 0.970825 0.485415 0.725528
H12 H 0.827358 0.452171 0.814081
H13 H 0.982579 0.515446 0.825626
C13 C 0.1600(3) 0.92208(17) 1.17525(13)
H14 H 0.085824 0.951311 1.223952
C14 C 0.2547(3) 0.82105(18) 1.19600(12)
H15 H 0.244244 0.780778 1.258943
O5 O 0.83969(15) 0.43118(10) 0.46707(9)
O6 O 0.71137(16) 0.42066(10) 0.61983(9)
O7 O 0.77740(18) 0.70625(10) 0.20914(8)
O8 O 0.68179(19) 0.89080(10) 0.21902(9)
N2 N 0.49067(16) 0.59313(10) 0.66189(9)
H16 H 0.539924 0.527202 0.681547
C15 C 0.53875(19) 0.63916(12) 0.56918(11)
H17 H 0.490213 0.711800 0.546611
C16 C 0.73413(19) 0.47397(13) 0.53767(11)
C17 C 0.65401(19) 0.58790(12) 0.50454(11)
C18 C 0.3710(2) 0.63771(13) 0.73128(11)
C19 C 0.69484(19) 0.64128(12) 0.40386(11)
H18 H 0.763220 0.595024 0.364360
C20 C 0.7012(2) 0.79044(14) 0.25783(11)
C21 C 0.3468(2) 0.57444(15) 0.82455(12)
H19 H 0.407962 0.504172 0.838282
C22 C 0.2781(2) 0.74213(15) 0.71127(12)
H20 H 0.291918 0.785525 0.649245
C23 C 0.6484(2) 0.74683(14) 0.36010(11)
H21 H 0.578455 0.795488 0.396742
C24 C 0.2339(3) 0.61424(16) 0.89659(12)
H22 H 0.219312 0.571263 0.958773
C25 C 0.1650(3) 0.78041(17) 0.78491(13)
H23 H 0.102876 0.850376 0.771701
C26 C 0.1417(3) 0.71829(18) 0.87677(13)
H24 H 0.064800 0.745704 0.925300
C27 C 0.9226(2) 0.31916(15) 0.49457(15)
H25 H 0.995494 0.297071 0.439310
H26 H 0.841264 0.260447 0.520203
H27 H 0.986218 0.325230 0.542548
C28 C 0.8426(3) 0.74309(18) 0.10951(12)
H28 H 0.875329 0.675029 0.079748
H29 H 0.937647 0.789687 0.102514
H30 H 0.758878 0.789366 0.079223
loop_
_geom_bond_atom_site_label_1
_geom_bond_atom_site_label_2
_geom_bond_site_symmetry_1
_geom_bond_site_symmetry_2
O1 C4 1_555 1_555
O2 C5 1_555 1_555
O3 C5 1_555 1_555
O4 C4 1_555 1_555
N1 H1 1_555 1_555
C1 H2 1_555 1_555
C2 N1 1_555 1_555
H3 C2 1_555 1_555
C3 C1 1_555 1_555
C4 C3 1_555 1_555
C5 C7 1_555 1_555
C6 N1 1_555 1_555
C7 C1 1_555 1_555
H4 C7 1_555 1_555
C8 C6 1_555 1_555
H5 C8 1_555 1_555
C9 C6 1_555 1_555
H6 C9 1_555 1_555
C10 C8 1_555 1_555
H7 C10 1_555 1_555
C11 O2 1_555 1_555
H8 C11 1_555 1_555
H9 C11 1_555 1_555
H10 C11 1_555 1_555
C12 O1 1_555 1_555
H11 C12 1_555 1_555
H12 C12 1_555 1_555
H13 C12 1_555 1_555
C13 C10 1_555 1_555
H14 C13 1_555 1_555
C14 C9 1_555 1_555
H15 C14 1_555 1_555
O5 C16 1_555 1_555
O6 C16 1_555 1_555
O7 C20 1_555 1_555
O8 C20 1_555 1_555
N2 H16 1_555 1_555
C15 N2 1_555 1_555
H17 C15 1_555 1_555
C16 C17 1_555 1_555
C17 C15 1_555 1_555
C18 N2 1_555 1_555
C19 C17 1_555 1_555
H18 C19 1_555 1_555
C20 C23 1_555 1_555
C21 C18 1_555 1_555
H19 C21 1_555 1_555
C22 C18 1_555 1_555
H20 C22 1_555 1_555
C23 C19 1_555 1_555
H21 C23 1_555 1_555
C24 C21 1_555 1_555
H22 C24 1_555 1_555
C25 C22 1_555 1_555
H23 C25 1_555 1_555
C26 C24 1_555 1_555
H24 C26 1_555 1_555
C27 O5 1_555 1_555
H25 C27 1_555 1_555
H26 C27 1_555 1_555
H27 C27 1_555 1_555
C28 O7 1_555 1_555
H28 C28 1_555 1_555
H29 C28 1_555 1_555
H30 C28 1_555 1_555
C2 C3 1_555 1_555
C13 C14 1_555 1_555
C25 C26 1_555 1_555

#END
