
#######################################################################
#
#                 Cambridge Crystallographic Data Centre
#                                CCDC 
#
#######################################################################
#
# If this CIF has been generated from an entry in the Cambridge 
# Structural Database, then it will include bibliographic, chemical, 
# crystal, experimental, refinement or atomic coordinate data resulting 
# from the CCDC's data processing and validation procedures.
#
#######################################################################

data_XIRTIE
_chemical_formula_moiety         'C16 H12 F3 N3 O1'
_chemical_name_systematic        
3-amino-1-([1,1'-biphenyl]-4-yl)-2-diazonio-4,4,4-trifluorobut-1-en-1-olate
_symmetry_cell_setting           orthorhombic
_symmetry_space_group_name_H-M   'P 21 21 2'
_symmetry_Int_Tables_number      18
_space_group_name_Hall           'P 2 2ab'
loop_
_symmetry_equiv_pos_site_id
_symmetry_equiv_pos_as_xyz
1 x,y,z
2 -x,-y,z
3 1/2-x,1/2+y,-z
4 1/2+x,1/2-y,-z
_cell_length_a                   27.9460(12)
_cell_length_b                   9.2138(4)
_cell_length_c                   5.8712(4)
_cell_angle_alpha                90
_cell_angle_beta                 90
_cell_angle_gamma                90
_cell_volume                     1511.77
_exptl_crystal_colour            'light colorless'
_exptl_crystal_description       block
_cell_formula_units_Z            4
loop_
_atom_site_label
_atom_site_type_symbol
_atom_site_fract_x
_atom_site_fract_y
_atom_site_fract_z
F1 F 0.45417(17) 0.3531(6) -0.1772(9)
F2 F 0.52272(12) 0.2536(5) -0.1703(7)
F3 F 0.46010(14) 0.1248(5) -0.1265(8)
O1 O 0.42834(12) 0.5312(4) 0.3040(10)
N1 N 0.41572(15) 0.1583(5) 0.3551(9)
N2 N 0.40301(18) 0.0496(5) 0.4229(11)
N3 N 0.5140(2) 0.1724(6) 0.2771(11)
C1 C 0.21669(19) 0.5023(7) 0.9855(11)
H1 H 0.238580 0.575262 1.019168
C2 C 0.1751(2) 0.4941(9) 1.1060(13)
H2 H 0.169462 0.561171 1.221219
C3 C 0.14178(19) 0.3907(8) 1.0624(13)
H3 H 0.113861 0.385245 1.148174
C4 C 0.15007(17) 0.2963(6) 0.8920(14)
H4 H 0.127213 0.226403 0.856866
C5 C 0.19197(16) 0.3018(5) 0.7690(10)
H5 H 0.196799 0.234919 0.652633
C6 C 0.22703(14) 0.4036(5) 0.8129(9)
C7 C 0.27283(14) 0.4060(5) 0.6857(10)
C8 C 0.28051(17) 0.3256(7) 0.4925(10)
H6 H 0.255715 0.268745 0.435950
C9 C 0.32383(18) 0.3262(7) 0.3790(11)
H7 H 0.327584 0.269804 0.248865
C10 C 0.36135(15) 0.4088(5) 0.4554(11)
C11 C 0.35377(16) 0.4938(5) 0.6440(12)
H8 H 0.378220 0.553811 0.695764
C12 C 0.31078(15) 0.4922(5) 0.7581(11)
H9 H 0.306987 0.550021 0.886644
C13 C 0.40884(16) 0.4146(5) 0.3404(11)
C14 C 0.43302(16) 0.2818(5) 0.2792(10)
C15 C 0.48201(16) 0.2776(5) 0.1746(10)
H10 H 0.496338 0.373499 0.197940
C16 C 0.4801(2) 0.2531(8) -0.0703(13)
H11 H 0.536(4) 0.211(10) 0.31(2)
H12 H 0.504(3) 0.095(7) 0.283(15)
loop_
_geom_bond_atom_site_label_1
_geom_bond_atom_site_label_2
_geom_bond_site_symmetry_1
_geom_bond_site_symmetry_2
F1 C16 1_555 1_555
F2 C16 1_555 1_555
F3 C16 1_555 1_555
O1 C13 1_555 1_555
N1 N2 1_555 1_555
N3 C15 1_555 1_555
C1 H1 1_555 1_555
C2 C1 1_555 1_555
H2 C2 1_555 1_555
C3 C2 1_555 1_555
H3 C3 1_555 1_555
C4 C3 1_555 1_555
H4 C4 1_555 1_555
C5 C4 1_555 1_555
H5 C5 1_555 1_555
C6 C1 1_555 1_555
C7 C6 1_555 1_555
C8 C7 1_555 1_555
H6 C8 1_555 1_555
C9 C8 1_555 1_555
H7 C9 1_555 1_555
C10 C9 1_555 1_555
C11 C10 1_555 1_555
H8 C11 1_555 1_555
C12 C7 1_555 1_555
H9 C12 1_555 1_555
C13 C10 1_555 1_555
C14 N1 1_555 1_555
C15 C14 1_555 1_555
H10 C15 1_555 1_555
C16 C15 1_555 1_555
H11 N3 1_555 1_555
H12 N3 1_555 1_555
C5 C6 1_555 1_555
C11 C12 1_555 1_555
C13 C14 1_555 1_555

#END
