
#######################################################################
#
#                 Cambridge Crystallographic Data Centre
#                                CCDC 
#
#######################################################################
#
# If this CIF has been generated from an entry in the Cambridge 
# Structural Database, then it will include bibliographic, chemical, 
# crystal, experimental, refinement or atomic coordinate data resulting 
# from the CCDC's data processing and validation procedures.
#
#######################################################################

data_XIRXUU
_chemical_formula_moiety         'C19 H16 Br1 N2 1+,I1 1-'
_chemical_name_systematic        
'2-(4-bromophenyl)-1,3-dimethyl-1H-perimidin-3-ium iodide'
_symmetry_cell_setting           monoclinic
_symmetry_space_group_name_H-M   'P 21/c'
_symmetry_Int_Tables_number      14
_space_group_name_Hall           '-P 2ybc'
loop_
_symmetry_equiv_pos_site_id
_symmetry_equiv_pos_as_xyz
1 x,y,z
2 -x,1/2+y,1/2-z
3 -x,-y,-z
4 x,1/2-y,1/2+z
_cell_length_a                   7.3409(17)
_cell_length_b                   18.494(4)
_cell_length_c                   12.905(3)
_cell_angle_alpha                90
_cell_angle_beta                 93.372(3)
_cell_angle_gamma                90
_cell_volume                     1748.98
_exptl_crystal_description       block
_cell_formula_units_Z            4
loop_
_atom_site_label
_atom_site_type_symbol
_atom_site_fract_x
_atom_site_fract_y
_atom_site_fract_z
I1 I 0.84550(2) 0.18172(2) 0.13134(2)
Br1 Br 0.22252(4) 0.48680(2) 0.41402(2)
N1 N 0.3063(2) 0.12110(10) 0.33821(13)
C1 C 0.2763(3) 0.00601(11) 0.42360(17)
N2 N 0.2413(2) 0.11962(9) 0.51234(13)
C2 C 0.3030(3) 0.04431(12) 0.33151(16)
C3 C 0.3262(4) 0.00870(15) 0.2400(2)
H1 H 0.341254 0.034414 0.179190
C4 C 0.3269(4) -0.06717(16) 0.2397(2)
H2 H 0.343311 -0.091385 0.177785
C5 C 0.3045(3) -0.10600(14) 0.3264(3)
H3 H 0.306707 -0.156236 0.323528
C6 C 0.2775(3) -0.07069(12) 0.4223(2)
C7 C 0.2479(3) -0.10779(14) 0.5153(2)
H4 H 0.245956 -0.158066 0.515796
C8 C 0.2222(4) -0.07086(15) 0.6040(2)
H5 H 0.204279 -0.096365 0.664623
C9 C 0.2222(3) 0.00526(14) 0.60629(19)
H6 H 0.205370 0.029781 0.667916
C10 C 0.2471(3) 0.04273(11) 0.51670(16)
C11 C 0.1932(3) 0.15803(13) 0.60708(18)
H7 H 0.292674 0.154709 0.658566
H8 H 0.086279 0.136439 0.633363
H9 H 0.169251 0.207932 0.590976
C12 C 0.2706(3) 0.15538(11) 0.42504(15)
C13 C 0.3585(4) 0.16118(14) 0.24536(19)
H10 H 0.261443 0.158328 0.192315
H11 H 0.467201 0.140338 0.220183
H12 H 0.380738 0.210909 0.263312
C14 C 0.2615(3) 0.23594(11) 0.42463(16)
C15 C 0.1098(3) 0.26924(13) 0.37634(18)
H13 H 0.015816 0.241578 0.345338
C16 C 0.0995(3) 0.34381(13) 0.37474(19)
H14 H -0.002394 0.366569 0.343402
C17 C 0.2400(3) 0.38436(12) 0.41947(17)
C18 C 0.3919(3) 0.35184(13) 0.46772(18)
H15 H 0.486208 0.379742 0.497796
C19 C 0.4014(3) 0.27727(13) 0.47059(18)
H16 H 0.502114 0.254705 0.503527
loop_
_geom_bond_atom_site_label_1
_geom_bond_atom_site_label_2
_geom_bond_site_symmetry_1
_geom_bond_site_symmetry_2
Br1 C17 1_555 1_555
N1 C2 1_555 1_555
C1 C2 1_555 1_555
N2 C10 1_555 1_555
C2 C3 1_555 1_555
C3 H1 1_555 1_555
C4 C3 1_555 1_555
H2 C4 1_555 1_555
C5 C4 1_555 1_555
H3 C5 1_555 1_555
C6 C1 1_555 1_555
C7 C6 1_555 1_555
H4 C7 1_555 1_555
C8 C7 1_555 1_555
H5 C8 1_555 1_555
C9 C8 1_555 1_555
H6 C9 1_555 1_555
C10 C1 1_555 1_555
C11 N2 1_555 1_555
H7 C11 1_555 1_555
H8 C11 1_555 1_555
H9 C11 1_555 1_555
C12 N1 1_555 1_555
C13 N1 1_555 1_555
H10 C13 1_555 1_555
H11 C13 1_555 1_555
H12 C13 1_555 1_555
C14 C12 1_555 1_555
C15 C14 1_555 1_555
H13 C15 1_555 1_555
C16 C15 1_555 1_555
H14 C16 1_555 1_555
C17 C16 1_555 1_555
C18 C17 1_555 1_555
H15 C18 1_555 1_555
C19 C14 1_555 1_555
H16 C19 1_555 1_555
N2 C12 1_555 1_555
C5 C6 1_555 1_555
C9 C10 1_555 1_555
C18 C19 1_555 1_555

#END
