
#######################################################################
#
#                 Cambridge Crystallographic Data Centre
#                                CCDC 
#
#######################################################################
#
# If this CIF has been generated from an entry in the Cambridge 
# Structural Database, then it will include bibliographic, chemical, 
# crystal, experimental, refinement or atomic coordinate data resulting 
# from the CCDC's data processing and validation procedures.
#
#######################################################################

data_XISFAI
_chemical_formula_moiety         'C22 H27 N4 1+,H2 O1,Cl1 1-'
_chemical_name_systematic        
'N-Methyl-2-(1-(1-methyl-2,3,8,8a-tetrahydropyrrolo[2,3-b]indol-3a(1H)-yl)-1H-indol-3-yl)ethanaminium chloride monohydrate'
_symmetry_cell_setting           monoclinic
_symmetry_space_group_name_H-M   'P 21'
_symmetry_Int_Tables_number      4
_space_group_name_Hall           'P 2yb'
loop_
_symmetry_equiv_pos_site_id
_symmetry_equiv_pos_as_xyz
1 x,y,z
2 -x,1/2+y,-z
_cell_length_a                   10.24260(10)
_cell_length_b                   9.16120(10)
_cell_length_c                   11.43910(10)
_cell_angle_alpha                90
_cell_angle_beta                 103.2820(10)
_cell_angle_gamma                90
_cell_volume                     1044.67
_cell_formula_units_Z            2
loop_
_atom_site_label
_atom_site_type_symbol
_atom_site_fract_x
_atom_site_fract_y
_atom_site_fract_z
N1 N 0.20413(12) 0.45791(16) 0.28079(11)
C1 C -0.02546(15) 0.49655(18) 0.30851(14)
N2 N 0.43034(13) 0.04970(19) 0.00423(12)
H1 H 0.5198 0.0498 0.0332
H2 H 0.3984 -0.0354 0.0255
N3 N 0.10622(13) 0.80871(16) 0.21297(12)
C2 C 0.03590(16) 0.58846(18) 0.12042(13)
H3 H 0.1062 0.5739 0.0774
H4 H -0.0404 0.5277 0.0846
N4 N 0.01188(14) 0.72922(17) 0.38204(13)
C3 C 0.34840(15) 0.28189(19) 0.25350(13)
C4 C 0.27493(15) 0.41656(19) 0.39423(13)
C5 C 0.42001(16) 0.1704(2) 0.19533(15)
H5 H 0.4059 0.0743 0.2259
H6 H 0.5156 0.1904 0.2163
C6 C 0.36814(14) 0.30860(19) 0.37994(13)
C7 C -0.06307(15) 0.60308(19) 0.38110(14)
C8 C 0.08688(14) 0.55426(19) 0.25573(12)
C9 C 0.11641(16) 0.70901(18) 0.31513(14)
H7 H 0.2060 0.7127 0.3687
C10 C -0.09061(17) 0.3639(2) 0.29037(15)
H8 H -0.0649 0.2932 0.2418
C11 C 0.26351(16) 0.4621(2) 0.50810(14)
H9 H 0.1989 0.5298 0.5173
C12 C -0.00422(17) 0.7484(2) 0.11964(15)
H10 H -0.0080 0.7932 0.0421
H11 H -0.0901 0.7604 0.1407
C13 C 0.24924(15) 0.37358(19) 0.19797(14)
H12 H 0.2161 0.3789 0.1153
C14 C 0.37118(18) 0.1710(2) 0.06025(15)
H13 H 0.2742 0.1625 0.0394
H14 H 0.3949 0.2632 0.0288
C15 C -0.23207(17) 0.4437(2) 0.41885(16)
H15 H -0.3025 0.4252 0.4556
C16 C -0.16619(17) 0.5769(2) 0.43840(15)
H16 H -0.1905 0.6466 0.4886
C17 C 0.0913(2) 0.9630(2) 0.24068(18)
H17 H 0.0848 1.0202 0.1693
H18 H 0.1679 0.9941 0.3008
H19 H 0.0116 0.9758 0.2702
C18 C 0.45651(16) 0.2502(2) 0.48168(15)
H20 H 0.5192 0.1797 0.4738
C19 C 0.35177(18) 0.4027(2) 0.60679(15)
H21 H 0.3467 0.4320 0.6835
C20 C -0.19586(17) 0.3380(2) 0.34631(16)
H22 H -0.2416 0.2496 0.3348
C21 C 0.44785(17) 0.3003(2) 0.59380(15)
H23 H 0.5074 0.2648 0.6618
C22 C 0.4018(2) 0.0579(3) -0.12814(16)
H24 H 0.4389 -0.0261 -0.1589
H25 H 0.4415 0.1448 -0.1517
H26 H 0.3065 0.0603 -0.1599
H27 H 0.029(2) 0.786(2) 0.4443(16)
O1 O 0.3099(2) 0.8110(2) 0.0784(2)
H28 H 0.276(2) 0.751(2) 0.0223(18)
H29 H 0.260(2) 0.805(3) 0.1255(19)
Cl1 Cl 0.26672(4) 0.54576(5) -0.09607(4)
loop_
_geom_bond_atom_site_label_1
_geom_bond_atom_site_label_2
_geom_bond_site_symmetry_1
_geom_bond_site_symmetry_2
N1 C4 1_555 1_555
C1 C7 1_555 1_555
N2 H1 1_555 1_555
H2 N2 1_555 1_555
N3 C9 1_555 1_555
C2 H3 1_555 1_555
H4 C2 1_555 1_555
N4 C7 1_555 1_555
C3 C5 1_555 1_555
C4 C6 1_555 1_555
C5 H5 1_555 1_555
H6 C5 1_555 1_555
C6 C3 1_555 1_555
C7 C16 1_555 1_555
C8 N1 1_555 1_555
C9 N4 1_555 1_555
H7 C9 1_555 1_555
C10 C1 1_555 1_555
H8 C10 1_555 1_555
C11 C4 1_555 1_555
H9 C11 1_555 1_555
C12 N3 1_555 1_555
H10 C12 1_555 1_555
H11 C12 1_555 1_555
C13 N1 1_555 1_555
H12 C13 1_555 1_555
C14 N2 1_555 1_555
H13 C14 1_555 1_555
H14 C14 1_555 1_555
C15 H15 1_555 1_555
C16 C15 1_555 1_555
H16 C16 1_555 1_555
C17 N3 1_555 1_555
H17 C17 1_555 1_555
H18 C17 1_555 1_555
H19 C17 1_555 1_555
C18 C6 1_555 1_555
H20 C18 1_555 1_555
C19 C11 1_555 1_555
H21 C19 1_555 1_555
C20 C10 1_555 1_555
H22 C20 1_555 1_555
C21 C18 1_555 1_555
H23 C21 1_555 1_555
C22 N2 1_555 1_555
H24 C22 1_555 1_555
H25 C22 1_555 1_555
H26 C22 1_555 1_555
H27 N4 1_555 1_555
O1 H28 1_555 1_555
H29 O1 1_555 1_555
C1 C8 1_555 1_555
C2 C8 1_555 1_555
C2 C12 1_555 1_555
C3 C13 1_555 1_555
C5 C14 1_555 1_555
C8 C9 1_555 1_555
C15 C20 1_555 1_555
C19 C21 1_555 1_555

#END
