
#######################################################################
#
#                 Cambridge Crystallographic Data Centre
#                                CCDC 
#
#######################################################################
#
# If this CIF has been generated from an entry in the Cambridge 
# Structural Database, then it will include bibliographic, chemical, 
# crystal, experimental, refinement or atomic coordinate data resulting 
# from the CCDC's data processing and validation procedures.
#
#######################################################################

data_XISGIR01
_chemical_formula_moiety         'C17 H15 Cl1 N4'
_chemical_name_systematic        
5-chloro-3-methyl-1-phenyl-4-(phenylcarbonohydrazonoyl)-1H-pyrazole
_symmetry_cell_setting           monoclinic
_symmetry_space_group_name_H-M   'P 21/n'
_symmetry_Int_Tables_number      14
_space_group_name_Hall           '-P 2yn'
loop_
_symmetry_equiv_pos_site_id
_symmetry_equiv_pos_as_xyz
1 x,y,z
2 1/2-x,1/2+y,1/2-z
3 -x,-y,-z
4 1/2+x,1/2-y,1/2+z
_cell_length_a                   11.9469(10)
_cell_length_b                   10.1199(8)
_cell_length_c                   13.8481(11)
_cell_angle_alpha                90
_cell_angle_beta                 114.2910(10)
_cell_angle_gamma                90
_cell_volume                     1526.03
_exptl_crystal_colour            colorless
_exptl_crystal_description       block
_cell_formula_units_Z            4
loop_
_atom_site_label
_atom_site_type_symbol
_atom_site_fract_x
_atom_site_fract_y
_atom_site_fract_z
Cl1 Cl 1.22458(4) 0.04647(5) 0.92306(4)
N1 N 0.98191(11) 0.02611(12) 0.80112(10)
N2 N 0.87007(11) 0.07604(13) 0.78884(10)
N3 N 1.02349(11) 0.33119(13) 1.05773(9)
N4 N 1.08664(12) 0.41605(13) 1.13820(10)
H1 H 1.1655 0.4195 1.1638
C1 C 1.05517(15) -0.18021(16) 0.75487(13)
H2 H 1.0974 -0.2001 0.8264
C2 C 1.05783(16) -0.26677(17) 0.67833(14)
H3 H 1.1033 -0.3444 0.6987
C3 C 0.99360(16) -0.23869(18) 0.57227(14)
H4 H 0.9949 -0.2978 0.5213
C4 C 0.92736(16) -0.12283(19) 0.54180(13)
H5 H 0.8841 -0.1041 0.4702
C5 C 0.92493(15) -0.03438(17) 0.61711(12)
H6 H 0.8808 0.0440 0.5964
C6 C 0.98892(13) -0.06372(14) 0.72371(12)
C7 C 0.79111(15) 0.23233(18) 0.88112(14)
H7 H 0.7147 0.2099 0.8235
H8 H 0.8051 0.3257 0.8803
H9 H 0.7878 0.2086 0.9470
C8 C 0.89330(14) 0.15900(15) 0.86947(12)
C9 C 1.02092(13) 0.16592(14) 0.93548(11)
C10 C 1.07259(13) 0.07966(15) 0.88835(11)
C11 C 1.08464(14) 0.25209(15) 1.02567(11)
H10 H 1.1699 0.2497 1.0600
C12 C 1.02161(14) 0.49715(15) 1.17833(11)
C13 C 1.08659(15) 0.56894(16) 1.27064(12)
H11 H 1.1717 0.5630 1.3037
C14 C 1.02432(17) 0.64889(17) 1.31296(13)
H12 H 1.0682 0.6965 1.3745
C15 C 0.89790(17) 0.65922(18) 1.26536(14)
H13 H 0.8566 0.7126 1.2947
C16 C 0.83354(16) 0.58869(18) 1.17313(14)
H14 H 0.7485 0.5956 1.1402
C17 C 0.89415(15) 0.50805(17) 1.12940(12)
H15 H 0.8499 0.4613 1.0675
loop_
_geom_bond_atom_site_label_1
_geom_bond_atom_site_label_2
_geom_bond_site_symmetry_1
_geom_bond_site_symmetry_2
Cl1 C10 1_555 1_555
N1 N2 1_555 1_555
N2 C8 1_555 1_555
N3 N4 1_555 1_555
N4 H1 1_555 1_555
C1 H2 1_555 1_555
C2 C1 1_555 1_555
H3 C2 1_555 1_555
C3 C2 1_555 1_555
H4 C3 1_555 1_555
C4 C3 1_555 1_555
H5 C4 1_555 1_555
C5 C4 1_555 1_555
H6 C5 1_555 1_555
C6 N1 1_555 1_555
C7 H7 1_555 1_555
H8 C7 1_555 1_555
H9 C7 1_555 1_555
C8 C7 1_555 1_555
C9 C8 1_555 1_555
C10 N1 1_555 1_555
C11 N3 1_555 1_555
H10 C11 1_555 1_555
C12 N4 1_555 1_555
C13 C12 1_555 1_555
H11 C13 1_555 1_555
C14 C13 1_555 1_555
H12 C14 1_555 1_555
C15 C14 1_555 1_555
H13 C15 1_555 1_555
C16 C15 1_555 1_555
H14 C16 1_555 1_555
C17 C12 1_555 1_555
H15 C17 1_555 1_555
C1 C6 1_555 1_555
C5 C6 1_555 1_555
C9 C10 1_555 1_555
C9 C11 1_555 1_555
C16 C17 1_555 1_555

#END
