
#######################################################################
#
#                 Cambridge Crystallographic Data Centre
#                                CCDC 
#
#######################################################################
#
# If this CIF has been generated from an entry in the Cambridge 
# Structural Database, then it will include bibliographic, chemical, 
# crystal, experimental, refinement or atomic coordinate data resulting 
# from the CCDC's data processing and validation procedures.
#
#######################################################################

data_XISGUC
_chemical_formula_moiety         'C17 H15 Br1 O3'
_chemical_name_systematic        
'(E)-Methyl 3-(3-((4-bromophenoxy)methyl)phenyl)acrylate'
_symmetry_cell_setting           orthorhombic
_symmetry_space_group_name_H-M   'P b c a'
_symmetry_Int_Tables_number      61
_space_group_name_Hall           '-P 2ac 2ab'
loop_
_symmetry_equiv_pos_site_id
_symmetry_equiv_pos_as_xyz
1 x,y,z
2 1/2-x,-y,1/2+z
3 -x,1/2+y,1/2-z
4 1/2+x,1/2-y,-z
5 -x,-y,-z
6 1/2+x,y,1/2-z
7 x,1/2-y,1/2+z
8 1/2-x,1/2+y,z
_cell_length_a                   15.5226(9)
_cell_length_b                   5.9390(3)
_cell_length_c                   34.775(2)
_cell_angle_alpha                90
_cell_angle_beta                 90
_cell_angle_gamma                90
_cell_volume                     3205.86
_exptl_crystal_colour            colorless
_exptl_crystal_description       block
_cell_formula_units_Z            8
_exptl_crystal_recrystallization_method methanol
loop_
_atom_site_label
_atom_site_type_symbol
_atom_site_fract_x
_atom_site_fract_y
_atom_site_fract_z
Br1 Br 0.40930(5) 0.23555(10) 0.518514(16)
O1 O 0.36979(14) 0.7793(4) 0.66326(7)
O2 O 0.3798(2) 0.5459(6) 0.87722(9)
O3 O 0.3379(2) 0.8260(5) 0.91548(8)
C1 C 0.3993(3) 0.4150(7) 0.56360(11)
C2 C 0.3295(3) 0.3823(7) 0.58702(11)
H1 H 0.2876 0.2765 0.5807
C3 C 0.3223(2) 0.5087(6) 0.62015(10)
H2 H 0.2749 0.4882 0.6362
C4 C 0.3841(2) 0.6647(6) 0.62979(10)
C5 C 0.4538(3) 0.6952(7) 0.60590(11)
H3 H 0.4959 0.8008 0.6120
C6 C 0.4606(3) 0.5678(8) 0.57284(12)
H4 H 0.5079 0.5872 0.5567
C7 C 0.4336(2) 0.9377(6) 0.67551(10)
H5 H 0.4406 1.0551 0.6564
H6 H 0.4886 0.8629 0.6790
C8 C 0.40363(19) 1.0367(5) 0.71267(10)
C9 C 0.41060(19) 0.9171(5) 0.74654(10)
H7 H 0.4367 0.7761 0.7462
C10 C 0.37953(19) 1.0021(5) 0.78124(10)
C11 C 0.3427(2) 1.2169(5) 0.78140(11)
H8 H 0.3227 1.2787 0.8043
C12 C 0.3361(2) 1.3359(6) 0.74792(11)
H9 H 0.3110 1.4781 0.7481
C13 C 0.3661(2) 1.2477(6) 0.71394(12)
H10 H 0.3612 1.3313 0.6914
C14 C 0.3823(2) 0.8606(6) 0.81570(10)
H11 H 0.4047 0.7168 0.8122
C15 C 0.3574(2) 0.9096(6) 0.85094(10)
H12 H 0.3378 1.0539 0.8566
C16 C 0.3602(2) 0.7391(8) 0.88138(12)
C17 C 0.3380(4) 0.6729(10) 0.94758(13)
H13 H 0.2947 0.5598 0.9437
H14 H 0.3259 0.7545 0.9708
H15 H 0.3935 0.6024 0.9496
loop_
_geom_bond_atom_site_label_1
_geom_bond_atom_site_label_2
_geom_bond_site_symmetry_1
_geom_bond_site_symmetry_2
Br1 C1 1_555 1_555
O1 C4 1_555 1_555
O2 C16 1_555 1_555
O3 C16 1_555 1_555
C1 C2 1_555 1_555
C2 H1 1_555 1_555
C3 C2 1_555 1_555
H2 C3 1_555 1_555
C4 C3 1_555 1_555
C5 C4 1_555 1_555
H3 C5 1_555 1_555
C6 C1 1_555 1_555
H4 C6 1_555 1_555
C7 O1 1_555 1_555
H5 C7 1_555 1_555
H6 C7 1_555 1_555
C8 C7 1_555 1_555
C9 C8 1_555 1_555
H7 C9 1_555 1_555
C10 C9 1_555 1_555
C11 C10 1_555 1_555
H8 C11 1_555 1_555
C12 C11 1_555 1_555
H9 C12 1_555 1_555
C13 C8 1_555 1_555
H10 C13 1_555 1_555
C14 C10 1_555 1_555
H11 C14 1_555 1_555
C15 C14 1_555 1_555
H12 C15 1_555 1_555
C16 C15 1_555 1_555
C17 O3 1_555 1_555
H13 C17 1_555 1_555
H14 C17 1_555 1_555
H15 C17 1_555 1_555
C5 C6 1_555 1_555
C12 C13 1_555 1_555

#END
