
#######################################################################
#
#                 Cambridge Crystallographic Data Centre
#                                CCDC 
#
#######################################################################
#
# If this CIF has been generated from an entry in the Cambridge 
# Structural Database, then it will include bibliographic, chemical, 
# crystal, experimental, refinement or atomic coordinate data resulting 
# from the CCDC's data processing and validation procedures.
#
#######################################################################

data_XISHAJ
_chemical_formula_moiety         'C18 H11 N2 O1 1+,Cl1 1-,H2 O1'
_chemical_name_systematic        
'6-Oxobenz(de)isoquinolino(2,1-a)benzimidazolium chloride monohydrate'
_symmetry_cell_setting           triclinic
_symmetry_space_group_name_H-M   'P -1'
_symmetry_Int_Tables_number      2
_space_group_name_Hall           '-P 1'
loop_
_symmetry_equiv_pos_site_id
_symmetry_equiv_pos_as_xyz
1 x,y,z
2 -x,-y,-z
_cell_length_a                   8.9000(18)
_cell_length_b                   8.9440(18)
_cell_length_c                   9.4480(19)
_cell_angle_alpha                81.50(3)
_cell_angle_beta                 88.76(3)
_cell_angle_gamma                77.61(3)
_cell_volume                     726.452
_exptl_crystal_colour            colorless
_exptl_crystal_description       block
_chemical_melting_point          '210 deg.C'
_cell_formula_units_Z            2
_exptl_crystal_recrystallization_method 'dimethylformamide/hydrochloric acid'
loop_
_atom_site_label
_atom_site_type_symbol
_atom_site_fract_x
_atom_site_fract_y
_atom_site_fract_z
O1 O 0.1171(2) 0.7662(2) 0.52217(19)
N1 N -0.0148(2) 0.6439(2) 0.69142(19)
N2 N -0.1494(2) 0.5542(2) 0.8640(2)
H1 H -0.1834 0.4913 0.9281
C1 C -0.2061(3) 0.7127(3) 0.8379(2)
C2 C -0.3250(3) 0.8054(3) 0.8995(3)
H2 H -0.3835 0.7655 0.9724
C3 C -0.3523(3) 0.9601(3) 0.8470(3)
H3 H -0.4322 1.0273 0.8850
C4 C -0.2649(3) 1.0189(3) 0.7400(3)
H4 H -0.2866 1.1249 0.7089
C5 C -0.1473(3) 0.9268(3) 0.6777(3)
H5 H -0.0893 0.9670 0.6044
C6 C -0.1196(2) 0.7714(3) 0.7295(2)
C7 C -0.0361(2) 0.5140(3) 0.7766(2)
C8 C 0.0551(3) 0.3648(3) 0.7634(2)
C9 C 0.0314(3) 0.2316(3) 0.8436(3)
H6 H -0.0465 0.2362 0.9112
C10 C 0.1232(3) 0.0895(3) 0.8245(3)
H7 H 0.1067 -0.0004 0.8799
C11 C 0.2356(3) 0.0807(3) 0.7269(3)
H8 H 0.2955 -0.0156 0.7155
C12 C 0.2643(3) 0.2142(3) 0.6415(3)
C13 C 0.3794(3) 0.2111(4) 0.5386(3)
H9 H 0.4432 0.1167 0.5273
C14 C 0.4013(3) 0.3414(4) 0.4543(3)
H10 H 0.4777 0.3354 0.3854
C15 C 0.3092(3) 0.4827(3) 0.4716(3)
H11 H 0.3238 0.5719 0.4136
C16 C 0.1967(3) 0.4934(3) 0.5731(2)
C17 C 0.1714(3) 0.3589(3) 0.6603(3)
C18 C 0.1035(3) 0.6455(3) 0.5888(2)
Cl1 Cl -0.26953(7) 0.34446(8) 1.10307(7)
O2 O -0.5321(2) 0.6341(3) 1.1799(2)
H12 H -0.4470 0.5687 1.1836
H13 H -0.5787 0.6295 1.1035
loop_
_geom_bond_atom_site_label_1
_geom_bond_atom_site_label_2
_geom_bond_site_symmetry_1
_geom_bond_site_symmetry_2
O1 C18 1_555 1_555
N1 C6 1_555 1_555
N2 H1 1_555 1_555
C1 N2 1_555 1_555
C2 C1 1_555 1_555
H2 C2 1_555 1_555
C3 C2 1_555 1_555
H3 C3 1_555 1_555
C4 C3 1_555 1_555
H4 C4 1_555 1_555
C5 C4 1_555 1_555
H5 C5 1_555 1_555
C6 C1 1_555 1_555
C7 N1 1_555 1_555
C8 C7 1_555 1_555
C9 C8 1_555 1_555
H6 C9 1_555 1_555
C10 C9 1_555 1_555
H7 C10 1_555 1_555
C11 C10 1_555 1_555
H8 C11 1_555 1_555
C12 C11 1_555 1_555
C13 C12 1_555 1_555
H9 C13 1_555 1_555
C14 C13 1_555 1_555
H10 C14 1_555 1_555
C15 C14 1_555 1_555
H11 C15 1_555 1_555
C16 C15 1_555 1_555
C17 C8 1_555 1_555
C18 N1 1_555 1_555
O2 H12 1_555 1_555
H13 O2 1_555 1_555
N2 C7 1_555 1_555
C5 C6 1_555 1_555
C12 C17 1_555 1_555
C16 C17 1_555 1_555
C16 C18 1_555 1_555

#END
