
#######################################################################
#
#                 Cambridge Crystallographic Data Centre
#                                CCDC 
#
#######################################################################
#
# If this CIF has been generated from an entry in the Cambridge 
# Structural Database, then it will include bibliographic, chemical, 
# crystal, experimental, refinement or atomic coordinate data resulting 
# from the CCDC's data processing and validation procedures.
#
#######################################################################

data_XISHOY
_chemical_formula_moiety         'C22 H6 F10 N2 O2'
_chemical_name_systematic        
1H,1'H-2,2'-Bipyrrole-5,5'-diylbis((pentafluorophenyl)methanone)
_symmetry_cell_setting           monoclinic
_symmetry_space_group_name_H-M   'P 21/c'
_symmetry_Int_Tables_number      14
_space_group_name_Hall           '-P 2ybc'
loop_
_symmetry_equiv_pos_site_id
_symmetry_equiv_pos_as_xyz
1 x,y,z
2 -x,1/2+y,1/2-z
3 -x,-y,-z
4 x,1/2-y,1/2+z
_cell_length_a                   11.9337(8)
_cell_length_b                   9.6006(6)
_cell_length_c                   17.6397(13)
_cell_angle_alpha                90
_cell_angle_beta                 94.1080(10)
_cell_angle_gamma                90
_cell_volume                     2015.8
_cell_formula_units_Z            4
loop_
_atom_site_label
_atom_site_type_symbol
_atom_site_fract_x
_atom_site_fract_y
_atom_site_fract_z
F1 F 0.29621(14) 0.56913(16) 0.15438(10)
F2 F 0.21177(16) 0.49118(19) 0.01598(11)
F3 F 0.04050(17) 0.6324(2) -0.05510(11)
F4 F -0.04544(16) 0.8598(2) 0.01149(12)
F5 F 0.04481(16) 0.94707(19) 0.14715(11)
F6 F 0.47719(15) 0.8091(2) 0.75625(11)
F7 F 0.60508(18) 0.7463(2) 0.88289(11)
F8 F 0.82965(18) 0.7209(2) 0.87804(12)
F9 F 0.92575(16) 0.7510(2) 0.74538(14)
F10 F 0.79770(16) 0.8074(2) 0.61717(12)
N1 N 0.29785(18) 0.7736(2) 0.35941(13)
H1 H 0.3334 0.8514 0.3639
N2 N 0.43032(18) 0.7882(2) 0.50805(13)
H2 H 0.4339 0.8662 0.4843
O1 O 0.2700(2) 0.9332(2) 0.22784(12)
O2 O 0.57788(17) 0.9735(2) 0.58944(12)
C1 C 0.2330(2) 0.7326(3) 0.29626(16)
C2 C 0.1876(2) 0.6051(3) 0.31233(18)
H3 H 0.1391 0.5529 0.2800
C3 C 0.2277(3) 0.5685(3) 0.38577(17)
H4 H 0.2102 0.4876 0.4114
C4 C 0.2979(2) 0.6738(3) 0.41384(16)
C5 C 0.3648(2) 0.6788(3) 0.48469(16)
C6 C 0.3815(3) 0.5750(3) 0.53895(17)
H5 H 0.3462 0.4886 0.5379
C7 C 0.4596(2) 0.6217(3) 0.59479(17)
H6 H 0.4867 0.5723 0.6376
C8 C 0.4904(2) 0.7560(3) 0.57541(15)
C9 C 0.2278(2) 0.8175(3) 0.22856(17)
C10 C 0.1720(2) 0.7596(3) 0.15623(16)
C11 C 0.2110(2) 0.6428(3) 0.12067(17)
C12 C 0.1679(3) 0.6011(3) 0.05003(18)
C13 C 0.0824(3) 0.6742(3) 0.01357(18)
C14 C 0.0404(3) 0.7897(3) 0.04679(19)
C15 C 0.0861(3) 0.8320(3) 0.11629(18)
C16 C 0.5647(2) 0.8532(3) 0.61261(16)
C17 C 0.6333(2) 0.8070(3) 0.68271(16)
C18 C 0.5881(2) 0.7898(3) 0.75126(18)
C19 C 0.6525(3) 0.7598(3) 0.81675(18)
C20 C 0.7658(3) 0.7470(3) 0.8143(2)
C21 C 0.8136(3) 0.7627(3) 0.7472(2)
C22 C 0.7477(3) 0.7922(3) 0.68269(19)
loop_
_geom_bond_atom_site_label_1
_geom_bond_atom_site_label_2
_geom_bond_site_symmetry_1
_geom_bond_site_symmetry_2
F1 C11 1_555 1_555
F2 C12 1_555 1_555
F3 C13 1_555 1_555
F4 C14 1_555 1_555
F5 C15 1_555 1_555
F6 C18 1_555 1_555
F7 C19 1_555 1_555
F8 C20 1_555 1_555
F9 C21 1_555 1_555
F10 C22 1_555 1_555
N1 H1 1_555 1_555
N2 H2 1_555 1_555
O1 C9 1_555 1_555
O2 C16 1_555 1_555
C1 N1 1_555 1_555
C2 C1 1_555 1_555
H3 C2 1_555 1_555
C3 C2 1_555 1_555
H4 C3 1_555 1_555
C4 N1 1_555 1_555
C5 N2 1_555 1_555
C6 C5 1_555 1_555
H5 C6 1_555 1_555
C7 C6 1_555 1_555
H6 C7 1_555 1_555
C8 N2 1_555 1_555
C9 C1 1_555 1_555
C10 C9 1_555 1_555
C11 C10 1_555 1_555
C12 C11 1_555 1_555
C13 C12 1_555 1_555
C14 C13 1_555 1_555
C15 C10 1_555 1_555
C16 C8 1_555 1_555
C17 C16 1_555 1_555
C18 C17 1_555 1_555
C19 C18 1_555 1_555
C20 C19 1_555 1_555
C21 C20 1_555 1_555
C22 C17 1_555 1_555
C3 C4 1_555 1_555
C4 C5 1_555 1_555
C7 C8 1_555 1_555
C14 C15 1_555 1_555
C21 C22 1_555 1_555

#END
