
#######################################################################
#
#                 Cambridge Crystallographic Data Centre
#                                CCDC 
#
#######################################################################
#
# If this CIF has been generated from an entry in the Cambridge 
# Structural Database, then it will include bibliographic, chemical, 
# crystal, experimental, refinement or atomic coordinate data resulting 
# from the CCDC's data processing and validation procedures.
#
#######################################################################

data_XISJEQ
_chemical_formula_moiety         'C21 H14 N2 O3'
_chemical_name_systematic        
12-Benzoyl-9,10-dihydro-6H-chromeno[4,3-d]imidazo[1,2-a]pyridin-6-one
_symmetry_cell_setting           triclinic
_symmetry_space_group_name_H-M   'P -1'
_symmetry_Int_Tables_number      2
_space_group_name_Hall           '-P 1'
loop_
_symmetry_equiv_pos_site_id
_symmetry_equiv_pos_as_xyz
1 x,y,z
2 -x,-y,-z
_cell_length_a                   5.5189(8)
_cell_length_b                   9.8023(15)
_cell_length_c                   15.110(2)
_cell_angle_alpha                93.688(2)
_cell_angle_beta                 92.037(2)
_cell_angle_gamma                90.788(2)
_cell_volume                     815.106
_exptl_crystal_colour            red
_exptl_crystal_description       block
_cell_formula_units_Z            2
loop_
_atom_site_label
_atom_site_type_symbol
_atom_site_fract_x
_atom_site_fract_y
_atom_site_fract_z
N1 N 0.7049(3) 0.24758(15) 0.08526(10)
N2 N 0.5287(3) 0.06924(15) 0.14931(11)
O1 O 0.5129(2) 0.71642(13) 0.13766(9)
O2 O 0.8027(3) 0.65694(13) 0.04792(10)
O3 O 0.0451(3) 0.18702(16) 0.23900(10)
C1 C 0.7378(3) 0.37881(18) 0.07235(12)
H1 H 0.8559 0.4050 0.0341
C2 C 0.5994(3) 0.47709(18) 0.11482(12)
C3 C 0.4203(3) 0.43782(18) 0.17612(11)
C4 C 0.3962(3) 0.30146(18) 0.19214(12)
C5 C 0.5361(3) 0.19913(19) 0.14415(12)
C6 C 0.7199(4) 0.0111(2) 0.09315(14)
H2 H 0.6512 -0.0579 0.0503
H3 H 0.8427 -0.0310 0.1294
C7 C 0.8320(4) 0.12874(18) 0.04540(14)
H4 H 1.0057 0.1364 0.0574
H5 H 0.7998 0.1176 -0.0182
C8 C 0.6510(3) 0.61722(19) 0.09642(13)
C9 C 0.3325(3) 0.68498(19) 0.19486(12)
C10 C 0.2062(4) 0.7980(2) 0.22753(13)
H6 H 0.2486 0.8854 0.2124
C11 C 0.0178(4) 0.7785(2) 0.28252(14)
H7 H -0.0697 0.8530 0.3044
C12 C -0.0420(4) 0.6480(2) 0.30547(15)
H8 H -0.1695 0.6351 0.3428
C13 C 0.0866(3) 0.5375(2) 0.27321(13)
H9 H 0.0443 0.4507 0.2896
C14 C 0.2793(3) 0.55164(19) 0.21645(12)
C15 C 0.2413(4) 0.23879(19) 0.26012(13)
C16 C 0.3424(4) 0.2353(2) 0.35272(13)
C17 C 0.5479(5) 0.3080(3) 0.38183(17)
H10 H 0.6315 0.3592 0.3427
C18 C 0.6308(6) 0.3051(4) 0.4696(2)
H11 H 0.7680 0.3560 0.4893
C19 C 0.5124(7) 0.2280(4) 0.5271(2)
H12 H 0.5694 0.2257 0.5856
C20 C 0.3111(8) 0.1550(4) 0.4984(2)
H13 H 0.2310 0.1016 0.5372
C21 C 0.2243(5) 0.1594(3) 0.41186(16)
H14 H 0.0841 0.1104 0.3933
loop_
_geom_bond_atom_site_label_1
_geom_bond_atom_site_label_2
_geom_bond_site_symmetry_1
_geom_bond_site_symmetry_2
N1 C1 1_555 1_555
N2 C5 1_555 1_555
O1 C8 1_555 1_555
O2 C8 1_555 1_555
O3 C15 1_555 1_555
C1 H1 1_555 1_555
C2 C1 1_555 1_555
C3 C2 1_555 1_555
C4 C3 1_555 1_555
C5 N1 1_555 1_555
C6 N2 1_555 1_555
H2 C6 1_555 1_555
H3 C6 1_555 1_555
C7 N1 1_555 1_555
H4 C7 1_555 1_555
H5 C7 1_555 1_555
C8 C2 1_555 1_555
C9 O1 1_555 1_555
C10 C9 1_555 1_555
H6 C10 1_555 1_555
C11 C10 1_555 1_555
H7 C11 1_555 1_555
C12 C11 1_555 1_555
H8 C12 1_555 1_555
C13 C12 1_555 1_555
H9 C13 1_555 1_555
C14 C3 1_555 1_555
C15 C4 1_555 1_555
C16 C15 1_555 1_555
C17 C16 1_555 1_555
H10 C17 1_555 1_555
C18 C17 1_555 1_555
H11 C18 1_555 1_555
C19 C18 1_555 1_555
H12 C19 1_555 1_555
C20 C19 1_555 1_555
H13 C20 1_555 1_555
C21 C16 1_555 1_555
H14 C21 1_555 1_555
C4 C5 1_555 1_555
C6 C7 1_555 1_555
C9 C14 1_555 1_555
C13 C14 1_555 1_555
C20 C21 1_555 1_555

#END
