
#######################################################################
#
#                 Cambridge Crystallographic Data Centre
#                                CCDC 
#
#######################################################################
#
# If this CIF has been generated from an entry in the Cambridge 
# Structural Database, then it will include bibliographic, chemical, 
# crystal, experimental, refinement or atomic coordinate data resulting 
# from the CCDC's data processing and validation procedures.
#
#######################################################################

data_XISJAM
_chemical_formula_moiety         'C26 H9 F10 N3 O1'
_chemical_name_systematic        
(Pentafluorophenyl)(5'-((pentafluorophenyl)(1H-pyrrol-2-yl)methylene)-1H,5'H-2,2'-bipyrrol-5-yl)methanone
_symmetry_cell_setting           monoclinic
_symmetry_space_group_name_H-M   'P 2/c'
_symmetry_Int_Tables_number      13
_space_group_name_Hall           '-P 2yc'
loop_
_symmetry_equiv_pos_site_id
_symmetry_equiv_pos_as_xyz
1 x,y,z
2 -x,y,1/2-z
3 -x,-y,-z
4 x,-y,1/2+z
_cell_length_a                   12.3922(11)
_cell_length_b                   9.0079(10)
_cell_length_c                   20.4967(15)
_cell_angle_alpha                90
_cell_angle_beta                 92.2440(10)
_cell_angle_gamma                90
_cell_volume                     2286.24
_cell_formula_units_Z            4
loop_
_atom_site_label
_atom_site_type_symbol
_atom_site_fract_x
_atom_site_fract_y
_atom_site_fract_z
F1 F 0.3131(2) 0.9543(3) 0.84849(10)
F2 F 0.1539(2) 1.0114(3) 0.93120(10)
F3 F -0.0153(2) 0.8268(3) 0.93688(10)
F4 F -0.02792(19) 0.5823(3) 0.85867(10)
F5 F 0.12906(18) 0.5273(3) 0.77487(10)
F6 F 0.86663(18) 0.7980(3) 0.45532(9)
F7 F 0.9505(2) 0.8729(3) 0.34208(10)
F8 F 0.8380(2) 0.8252(3) 0.22801(10)
F9 F 0.6405(2) 0.6986(3) 0.22896(9)
F10 F 0.55845(18) 0.6076(3) 0.34148(8)
N1 N 0.3923(2) 0.7255(3) 0.65812(12)
H1 H 0.4510 0.6775 0.6674
N2 N 0.5229(2) 0.6970(3) 0.54497(12)
N3 N 0.6902(3) 0.4997(3) 0.56448(12)
H2 H 0.6343 0.5302 0.5842
O1 O 0.3931(2) 0.6313(3) 0.79171(11)
C1 C 0.3119(3) 0.7519(4) 0.70087(15)
C2 C 0.2326(3) 0.8305(4) 0.66734(16)
H3 H 0.1679 0.8629 0.6840
C3 C 0.2656(3) 0.8531(4) 0.60441(17)
H4 H 0.2274 0.9042 0.5715
C4 C 0.3655(3) 0.7862(4) 0.59905(16)
C5 C 0.4337(3) 0.7769(4) 0.54392(15)
C6 C 0.4161(3) 0.8561(4) 0.48317(15)
H5 H 0.3579 0.9172 0.4717
C7 C 0.5002(3) 0.8240(4) 0.44678(15)
H6 H 0.5123 0.8600 0.4052
C8 C 0.5688(3) 0.7231(4) 0.48399(15)
C9 C 0.6629(3) 0.6563(4) 0.46680(14)
C10 C 0.7223(3) 0.5497(4) 0.50485(15)
C11 C 0.8152(3) 0.4710(4) 0.49156(17)
H7 H 0.8550 0.4806 0.4543
C12 C 0.8387(3) 0.3750(5) 0.54360(17)
H8 H 0.8968 0.3099 0.5477
C13 C 0.7600(3) 0.3951(5) 0.58733(17)
H9 H 0.7552 0.3447 0.6267
C14 C 0.3177(3) 0.7025(4) 0.76711(16)
C15 C 0.2240(3) 0.7390(4) 0.80898(15)
C16 C 0.2283(3) 0.8609(5) 0.84977(17)
C17 C 0.1483(4) 0.8911(5) 0.89256(17)
C18 C 0.0633(3) 0.7981(5) 0.89485(16)
C19 C 0.0558(3) 0.6752(5) 0.85592(17)
C20 C 0.1361(3) 0.6493(5) 0.81295(16)
C21 C 0.7101(3) 0.6974(4) 0.40327(15)
C22 C 0.8094(3) 0.7643(4) 0.39986(16)
C23 C 0.8538(3) 0.8054(4) 0.34237(18)
C24 C 0.7964(4) 0.7820(5) 0.28485(17)
C25 C 0.6973(3) 0.7171(5) 0.28554(16)
C26 C 0.6555(3) 0.6739(4) 0.34381(16)
loop_
_geom_bond_atom_site_label_1
_geom_bond_atom_site_label_2
_geom_bond_site_symmetry_1
_geom_bond_site_symmetry_2
F1 C16 1_555 1_555
F2 C17 1_555 1_555
F3 C18 1_555 1_555
F4 C19 1_555 1_555
F5 C20 1_555 1_555
F6 C22 1_555 1_555
F7 C23 1_555 1_555
F8 C24 1_555 1_555
F9 C25 1_555 1_555
F10 C26 1_555 1_555
N1 H1 1_555 1_555
N2 C5 1_555 1_555
N3 H2 1_555 1_555
O1 C14 1_555 1_555
C1 N1 1_555 1_555
C2 C1 1_555 1_555
H3 C2 1_555 1_555
C3 C2 1_555 1_555
H4 C3 1_555 1_555
C4 N1 1_555 1_555
C5 C4 1_555 1_555
C6 C5 1_555 1_555
H5 C6 1_555 1_555
C7 C6 1_555 1_555
H6 C7 1_555 1_555
C8 N2 1_555 1_555
C9 C8 1_555 1_555
C10 N3 1_555 1_555
C11 C10 1_555 1_555
H7 C11 1_555 1_555
C12 C11 1_555 1_555
H8 C12 1_555 1_555
C13 N3 1_555 1_555
H9 C13 1_555 1_555
C14 C1 1_555 1_555
C15 C14 1_555 1_555
C16 C15 1_555 1_555
C17 C16 1_555 1_555
C18 C17 1_555 1_555
C19 C18 1_555 1_555
C20 C15 1_555 1_555
C21 C9 1_555 1_555
C22 C21 1_555 1_555
C23 C22 1_555 1_555
C24 C23 1_555 1_555
C25 C24 1_555 1_555
C26 C21 1_555 1_555
C3 C4 1_555 1_555
C7 C8 1_555 1_555
C9 C10 1_555 1_555
C12 C13 1_555 1_555
C19 C20 1_555 1_555
C25 C26 1_555 1_555

#END
