
#######################################################################
#
#                 Cambridge Crystallographic Data Centre
#                                CCDC 
#
#######################################################################
#
# If this CIF has been generated from an entry in the Cambridge 
# Structural Database, then it will include bibliographic, chemical, 
# crystal, experimental, refinement or atomic coordinate data resulting 
# from the CCDC's data processing and validation procedures.
#
#######################################################################

data_XISJOZ
_chemical_formula_moiety         'C12 H12 O4'
_chemical_name_systematic        'Ethyl 3-benzoyl-2-hydroxyprop-2-enoate'
_symmetry_cell_setting           monoclinic
_symmetry_space_group_name_H-M   'P 21/c'
_symmetry_Int_Tables_number      14
_space_group_name_Hall           '-P 2ybc'
loop_
_symmetry_equiv_pos_site_id
_symmetry_equiv_pos_as_xyz
1 x,y,z
2 -x,1/2+y,1/2-z
3 -x,-y,-z
4 x,1/2-y,1/2+z
_cell_length_a                   9.872(4)
_cell_length_b                   13.498(5)
_cell_length_c                   8.843(3)
_cell_angle_alpha                90
_cell_angle_beta                 105.464(6)
_cell_angle_gamma                90
_cell_volume                     1135.69
_exptl_crystal_colour            yellow
_exptl_crystal_description       block
_cell_formula_units_Z            4
_exptl_crystal_recrystallization_method acetone
loop_
_atom_site_label
_atom_site_type_symbol
_atom_site_fract_x
_atom_site_fract_y
_atom_site_fract_z
O1 O 0.58450(15) 0.67082(13) 0.25001(17)
O2 O 0.43270(15) 0.65232(14) 0.43639(17)
H1 H 0.4506 0.6651 0.3531
O3 O 0.62879(18) 0.56869(16) 0.80268(18)
O4 O 0.40548(14) 0.61835(11) 0.71546(15)
C1 C 0.9543(2) 0.62744(16) 0.4355(3)
H2 H 0.9547 0.6290 0.5407
C2 C 1.0792(2) 0.6156(2) 0.3952(3)
H3 H 1.1633 0.6099 0.4732
C3 C 1.0797(3) 0.61223(19) 0.2404(3)
H4 H 1.1636 0.6025 0.2136
C4 C 0.9558(3) 0.6232(2) 0.1241(3)
H5 H 0.9566 0.6216 0.0192
C5 C 0.8304(2) 0.63658(17) 0.1634(3)
H6 H 0.7473 0.6453 0.0849
C6 C 0.8285(2) 0.63697(14) 0.3204(2)
C7 C 0.6913(2) 0.64484(15) 0.3590(2)
C8 C 0.6759(2) 0.62196(16) 0.5096(2)
H7 H 0.7552 0.6022 0.5926
C9 C 0.5473(2) 0.62671(15) 0.5400(2)
C10 C 0.5333(2) 0.60126(17) 0.7012(2)
C11 C 0.3828(2) 0.5971(2) 0.8685(2)
H8 H 0.4489 0.6341 0.9496
H9 H 0.3962 0.5270 0.8920
C12 C 0.2353(3) 0.6269(2) 0.8617(3)
H10 H 0.2239 0.6966 0.8405
H11 H 0.2164 0.6126 0.9604
H12 H 0.1710 0.5906 0.7799
loop_
_geom_bond_atom_site_label_1
_geom_bond_atom_site_label_2
_geom_bond_site_symmetry_1
_geom_bond_site_symmetry_2
O1 C7 1_555 1_555
O2 H1 1_555 1_555
O3 C10 1_555 1_555
O4 C10 1_555 1_555
C1 H2 1_555 1_555
C2 C1 1_555 1_555
H3 C2 1_555 1_555
C3 C2 1_555 1_555
H4 C3 1_555 1_555
C4 C3 1_555 1_555
H5 C4 1_555 1_555
C5 C4 1_555 1_555
H6 C5 1_555 1_555
C6 C1 1_555 1_555
C7 C6 1_555 1_555
C8 C7 1_555 1_555
H7 C8 1_555 1_555
C9 O2 1_555 1_555
C10 C9 1_555 1_555
C11 O4 1_555 1_555
H8 C11 1_555 1_555
H9 C11 1_555 1_555
C12 C11 1_555 1_555
H10 C12 1_555 1_555
H11 C12 1_555 1_555
H12 C12 1_555 1_555
C5 C6 1_555 1_555
C8 C9 1_555 1_555

#END
