
#######################################################################
#
#                 Cambridge Crystallographic Data Centre
#                                CCDC 
#
#######################################################################
#
# If this CIF has been generated from an entry in the Cambridge 
# Structural Database, then it will include bibliographic, chemical, 
# crystal, experimental, refinement or atomic coordinate data resulting 
# from the CCDC's data processing and validation procedures.
#
#######################################################################

data_XISKAN
_chemical_formula_moiety         'C16 H16 Br1 N3 O1'
_chemical_name_systematic        
3-(1H-benzotriazol-1-yl)-1-(4-bromophenyl)-2-methylpropan-1-ol
_symmetry_cell_setting           orthorhombic
_symmetry_space_group_name_H-M   'P 21 21 21'
_symmetry_Int_Tables_number      19
_space_group_name_Hall           'P 2ac 2ab'
loop_
_symmetry_equiv_pos_site_id
_symmetry_equiv_pos_as_xyz
1 x,y,z
2 1/2-x,-y,1/2+z
3 -x,1/2+y,1/2-z
4 1/2+x,1/2-y,-z
_cell_length_a                   9.466(6)
_cell_length_b                   12.4249(8)
_cell_length_c                   13.3396(11)
_cell_angle_alpha                90
_cell_angle_beta                 90
_cell_angle_gamma                90
_cell_volume                     1568.93
_exptl_crystal_colour            colorless
_exptl_crystal_description       block
_cell_formula_units_Z            4
loop_
_atom_site_label
_atom_site_type_symbol
_atom_site_fract_x
_atom_site_fract_y
_atom_site_fract_z
Br1 Br 0.58133(3) 0.791782(18) 0.192322(17)
O1 O 0.4811(2) 0.38396(13) 0.51602(13)
H1 H 0.4962 0.3227 0.5405
N1 N 0.4533(2) 0.57970(14) 0.76707(14)
N2 N 0.4730(2) 0.68231(14) 0.79767(15)
N3 N 0.4617(2) 0.68628(15) 0.89503(15)
C1 C 0.6019(3) 0.44975(16) 0.53001(16)
H2 H 0.6884 0.4051 0.5185
C2 C 0.6040(3) 0.49181(17) 0.63963(16)
H3 H 0.6053 0.4273 0.6844
C3 C 0.7341(3) 0.5583(2) 0.66515(18)
H4 H 0.7340 0.6244 0.6252
H5 H 0.8193 0.5165 0.6501
H6 H 0.7327 0.5767 0.7366
C4 C 0.4666(3) 0.55254(19) 0.66131(17)
H7 H 0.4643 0.6194 0.6210
H8 H 0.3853 0.5075 0.6409
C5 C 0.4315(2) 0.51442(16) 0.84741(15)
C6 C 0.4103(3) 0.40294(16) 0.85811(16)
H9 H 0.4071 0.3558 0.8021
C7 C 0.3946(3) 0.36661(18) 0.95452(19)
H10 H 0.3808 0.2918 0.9654
C8 C 0.3979(3) 0.43592(19) 1.03829(17)
H11 H 0.3857 0.4067 1.1035
C9 C 0.4185(3) 0.54502(17) 1.02743(16)
H12 H 0.4206 0.5919 1.0836
C10 C 0.4362(2) 0.58341(16) 0.92983(16)
C11 C 0.5968(3) 0.53811(16) 0.45113(15)
C12 C 0.7200(2) 0.58816(17) 0.41894(17)
H13 H 0.8077 0.5690 0.4487
C13 C 0.7169(2) 0.66600(18) 0.34370(17)
H14 H 0.8015 0.7001 0.3224
C14 C 0.5887(3) 0.69274(15) 0.30058(15)
C15 C 0.4645(3) 0.64549(19) 0.33237(18)
H15 H 0.3768 0.6656 0.3034
C16 C 0.4698(3) 0.56779(19) 0.40766(18)
H16 H 0.3848 0.5346 0.4295
loop_
_geom_bond_atom_site_label_1
_geom_bond_atom_site_label_2
_geom_bond_site_symmetry_1
_geom_bond_site_symmetry_2
Br1 C14 1_555 1_555
O1 H1 1_555 1_555
N1 N2 1_555 1_555
N2 N3 1_555 1_555
N3 C10 1_555 1_555
C1 O1 1_555 1_555
H2 C1 1_555 1_555
C2 C1 1_555 1_555
H3 C2 1_555 1_555
C3 C2 1_555 1_555
H4 C3 1_555 1_555
H5 C3 1_555 1_555
H6 C3 1_555 1_555
C4 N1 1_555 1_555
H7 C4 1_555 1_555
H8 C4 1_555 1_555
C5 N1 1_555 1_555
C6 C5 1_555 1_555
H9 C6 1_555 1_555
C7 C6 1_555 1_555
H10 C7 1_555 1_555
C8 C7 1_555 1_555
H11 C8 1_555 1_555
C9 C8 1_555 1_555
H12 C9 1_555 1_555
C10 C5 1_555 1_555
C11 C1 1_555 1_555
C12 C11 1_555 1_555
H13 C12 1_555 1_555
C13 C12 1_555 1_555
H14 C13 1_555 1_555
C14 C13 1_555 1_555
C15 C14 1_555 1_555
H15 C15 1_555 1_555
C16 C11 1_555 1_555
H16 C16 1_555 1_555
C2 C4 1_555 1_555
C9 C10 1_555 1_555
C15 C16 1_555 1_555

#END
