
#######################################################################
#
#                 Cambridge Crystallographic Data Centre
#                                CCDC 
#
#######################################################################
#
# If this CIF has been generated from an entry in the Cambridge 
# Structural Database, then it will include bibliographic, chemical, 
# crystal, experimental, refinement or atomic coordinate data resulting 
# from the CCDC's data processing and validation procedures.
#
#######################################################################

data_XISKOB
_chemical_formula_moiety         'C66 H54 N4'
_chemical_name_systematic        
2,2'-bis(4-((4-t-butylphenyl)ethynyl)phenyl)-4,4',5,5'-tetraphenyl-2H,2'H-2,2'-bi-imidazole
_symmetry_cell_setting           triclinic
_symmetry_space_group_name_H-M   'P -1'
_symmetry_Int_Tables_number      2
_space_group_name_Hall           '-P 1'
loop_
_symmetry_equiv_pos_site_id
_symmetry_equiv_pos_as_xyz
1 x,y,z
2 -x,-y,-z
_cell_length_a                   10.017(3)
_cell_length_b                   11.112(3)
_cell_length_c                   11.721(3)
_cell_angle_alpha                69.889(3)
_cell_angle_beta                 87.557(3)
_cell_angle_gamma                83.195(3)
_cell_volume                     1216.47
_exptl_crystal_colour            'dark green'
_exptl_crystal_description       needle
_cell_formula_units_Z            1
loop_
_atom_site_label
_atom_site_type_symbol
_atom_site_fract_x
_atom_site_fract_y
_atom_site_fract_z
N1 N 0.34065(14) 0.51228(14) 0.42016(12)
N2 N 0.52992(14) 0.35487(14) 0.45201(12)
C1 C 0.45268(17) 0.44638(17) 0.50121(14)
C2 C 0.47349(17) 0.36968(17) 0.35147(15)
C3 C 0.35387(17) 0.47067(17) 0.32999(14)
C4 C 0.40530(17) 0.37648(17) 0.62945(14)
C5 C 0.28442(19) 0.42003(19) 0.67242(16)
H1 H 0.2333 0.4964 0.6229
C6 C 0.2382(2) 0.3527(2) 0.78687(16)
H2 H 0.1549 0.3828 0.8149
C7 C 0.31198(19) 0.24176(19) 0.86150(16)
C8 C 0.4365(2) 0.20227(19) 0.82051(17)
H3 H 0.4906 0.1293 0.8720
C9 C 0.48201(19) 0.26871(18) 0.70521(16)
H4 H 0.5665 0.2402 0.6778
C10 C 0.2591(2) 0.1663(2) 0.97923(19)
C11 C 0.2110(2) 0.1043(2) 1.06868(18)
C12 C 0.1525(2) 0.0244(2) 1.17971(17)
C13 C 0.0190(2) -0.0004(2) 1.18498(19)
H5 H -0.0356 0.0367 1.1145
C14 C -0.0353(2) -0.0783(2) 1.2911(2)
H6 H -0.1265 -0.0941 1.2917
C15 C 0.0395(2) -0.1342(2) 1.39682(18)
C16 C 0.1737(2) -0.1100(2) 1.39012(19)
H7 H 0.2289 -0.1485 1.4601
C17 C 0.2285(2) -0.0314(2) 1.28412(19)
H8 H 0.3198 -0.0157 1.2832
C18 C -0.0210(2) -0.2238(2) 1.51219(19)
C19 C -0.1712(3) -0.1794(3) 1.5241(3)
H9 H -0.2205 -0.1810 1.4543
H10 H -0.1810 -0.0914 1.5264
H11 H -0.2074 -0.2374 1.5991
C20 C 0.0548(3) -0.2339(3) 1.6264(2)
H12 H 0.1492 -0.2662 1.6199
H13 H 0.0141 -0.2934 1.6980
H14 H 0.0497 -0.1486 1.6345
C21 C -0.0124(2) -0.3560(2) 1.5006(2)
H15 H -0.0662 -0.3515 1.4311
H16 H -0.0470 -0.4168 1.5750
H17 H 0.0815 -0.3853 1.4883
C22 C 0.52390(17) 0.29117(18) 0.27624(16)
C23 C 0.5463(2) 0.1581(2) 0.33009(18)
H18 H 0.5291 0.1189 0.4144
C24 C 0.5931(2) 0.0824(2) 0.2620(2)
H19 H 0.6075 -0.0086 0.2993
C25 C 0.6192(2) 0.1385(2) 0.1401(2)
H20 H 0.6517 0.0860 0.0935
C26 C 0.5984(2) 0.2701(2) 0.08553(19)
H21 H 0.6163 0.3085 0.0013
C27 C 0.5513(2) 0.3468(2) 0.15326(17)
H22 H 0.5376 0.4379 0.1155
C28 C 0.26194(17) 0.52354(18) 0.22489(15)
C29 C 0.2411(2) 0.4556(2) 0.14863(17)
H23 H 0.2836 0.3703 0.1648
C30 C 0.1575(2) 0.5136(3) 0.0485(2)
H24 H 0.1441 0.4681 -0.0047
C31 C 0.0936(2) 0.6367(3) 0.02515(19)
H25 H 0.0383 0.6761 -0.0446
C32 C 0.1103(2) 0.7018(2) 0.10311(17)
H26 H 0.0636 0.7851 0.0891
C33 C 0.19446(19) 0.6467(2) 0.20157(16)
H27 H 0.2068 0.6931 0.2543
N1A N 0.65935(14) 0.48772(14) 0.57984(12)
N2A N 0.47008(14) 0.64513(14) 0.54799(12)
C1A C 0.54732(17) 0.55362(17) 0.49879(14)
C2A C 0.52651(17) 0.63032(17) 0.64853(15)
C3A C 0.64613(17) 0.52933(17) 0.67001(14)
C4A C 0.59470(17) 0.62352(17) 0.37055(14)
C5A C 0.71558(19) 0.57997(19) 0.32758(16)
H1A H 0.7667 0.5036 0.3771
C6A C 0.7618(2) 0.6473(2) 0.21313(16)
H2A H 0.8451 0.6172 0.1851
C7A C 0.68802(19) 0.75824(19) 0.13850(16)
C8A C 0.5635(2) 0.79773(19) 0.17949(17)
H3A H 0.5094 0.8707 0.1280
C9A C 0.51799(19) 0.73129(18) 0.29479(16)
H4A H 0.4335 0.7598 0.3222
C10A C 0.7409(2) 0.8337(2) 0.02077(19)
C11A C 0.7890(2) 0.8957(2) -0.06868(18)
C12A C 0.8475(2) 0.9756(2) -0.17971(17)
C13A C 0.9810(2) 1.0004(2) -0.18498(19)
H5A H 1.0356 0.9633 -0.1145
C14A C 1.0353(2) 1.0783(2) -0.2911(2)
H6A H 1.1265 1.0941 -0.2917
C15A C 0.9605(2) 1.1342(2) -0.39682(18)
C16A C 0.8263(2) 1.1100(2) -0.39012(19)
H7A H 0.7711 1.1485 -0.4601
C17A C 0.7715(2) 1.0314(2) -0.28412(19)
H8A H 0.6802 1.0157 -0.2832
C18A C 1.0210(2) 1.2238(2) -0.51219(19)
C19A C 1.1712(3) 1.1794(3) -0.5241(3)
H9A H 1.2205 1.1810 -0.4543
H10A H 1.1810 1.0914 -0.5264
H11A H 1.2074 1.2374 -0.5991
C20A C 0.9452(3) 1.2339(3) -0.6264(2)
H12A H 0.8508 1.2662 -0.6199
H13A H 0.9859 1.2934 -0.6980
H14A H 0.9503 1.1486 -0.6345
C21A C 1.0124(2) 1.3560(2) -0.5006(2)
H15A H 1.0662 1.3515 -0.4311
H16A H 1.0470 1.4168 -0.5750
H17A H 0.9185 1.3853 -0.4883
C22A C 0.47610(17) 0.70883(18) 0.72376(16)
C23A C 0.4537(2) 0.8419(2) 0.66991(18)
H18A H 0.4709 0.8811 0.5856
C24A C 0.4069(2) 0.9176(2) 0.7380(2)
H19A H 0.3925 1.0086 0.7007
C25A C 0.3808(2) 0.8615(2) 0.8599(2)
H20A H 0.3483 0.9140 0.9065
C26A C 0.4016(2) 0.7299(2) 0.91447(19)
H21A H 0.3837 0.6915 0.9987
C27A C 0.4487(2) 0.6532(2) 0.84674(17)
H22A H 0.4624 0.5621 0.8845
C28A C 0.73806(17) 0.47646(18) 0.77511(15)
C29A C 0.7589(2) 0.5444(2) 0.85137(17)
H23A H 0.7164 0.6297 0.8352
C30A C 0.8425(2) 0.4864(3) 0.9515(2)
H24A H 0.8559 0.5319 1.0047
C31A C 0.9064(2) 0.3633(3) 0.97485(19)
H25A H 0.9617 0.3239 1.0446
C32A C 0.8897(2) 0.2982(2) 0.89689(17)
H26A H 0.9364 0.2149 0.9109
C33A C 0.80554(19) 0.3533(2) 0.79843(16)
H27A H 0.7932 0.3069 0.7457
loop_
_geom_bond_atom_site_label_1
_geom_bond_atom_site_label_2
_geom_bond_site_symmetry_1
_geom_bond_site_symmetry_2
N1 C1 1_555 1_555
N2 C1 1_555 1_555
C1 C4 1_555 1_555
C2 N2 1_555 1_555
C3 N1 1_555 1_555
C4 C5 1_555 1_555
C5 H1 1_555 1_555
C6 C5 1_555 1_555
H2 C6 1_555 1_555
C7 C6 1_555 1_555
C8 C7 1_555 1_555
H3 C8 1_555 1_555
C9 C4 1_555 1_555
H4 C9 1_555 1_555
C10 C7 1_555 1_555
C11 C10 1_555 1_555
C12 C11 1_555 1_555
C13 C12 1_555 1_555
H5 C13 1_555 1_555
C14 C13 1_555 1_555
H6 C14 1_555 1_555
C15 C14 1_555 1_555
C16 C15 1_555 1_555
H7 C16 1_555 1_555
C17 C12 1_555 1_555
H8 C17 1_555 1_555
C18 C15 1_555 1_555
C19 C18 1_555 1_555
H9 C19 1_555 1_555
H10 C19 1_555 1_555
H11 C19 1_555 1_555
C20 C18 1_555 1_555
H12 C20 1_555 1_555
H13 C20 1_555 1_555
H14 C20 1_555 1_555
C21 C18 1_555 1_555
H15 C21 1_555 1_555
H16 C21 1_555 1_555
H17 C21 1_555 1_555
C22 C2 1_555 1_555
C23 C22 1_555 1_555
H18 C23 1_555 1_555
C24 C23 1_555 1_555
H19 C24 1_555 1_555
C25 C24 1_555 1_555
H20 C25 1_555 1_555
C26 C25 1_555 1_555
H21 C26 1_555 1_555
C27 C22 1_555 1_555
H22 C27 1_555 1_555
C28 C3 1_555 1_555
C29 C28 1_555 1_555
H23 C29 1_555 1_555
C30 C29 1_555 1_555
H24 C30 1_555 1_555
C31 C30 1_555 1_555
H25 C31 1_555 1_555
C32 C31 1_555 1_555
H26 C32 1_555 1_555
C33 C28 1_555 1_555
H27 C33 1_555 1_555
N1A C1A 1_555 1_555
N2A C1A 1_555 1_555
C1A C1 1_555 1_555
C2A N2A 1_555 1_555
C3A N1A 1_555 1_555
C4A C1A 1_555 1_555
C5A C4A 1_555 1_555
H1A C5A 1_555 1_555
C6A C5A 1_555 1_555
H2A C6A 1_555 1_555
C7A C6A 1_555 1_555
C8A C7A 1_555 1_555
H3A C8A 1_555 1_555
C9A C4A 1_555 1_555
H4A C9A 1_555 1_555
C10A C7A 1_555 1_555
C11A C10A 1_555 1_555
C12A C11A 1_555 1_555
C13A C12A 1_555 1_555
H5A C13A 1_555 1_555
C14A C13A 1_555 1_555
H6A C14A 1_555 1_555
C15A C14A 1_555 1_555
C16A C15A 1_555 1_555
H7A C16A 1_555 1_555
C17A C12A 1_555 1_555
H8A C17A 1_555 1_555
C18A C15A 1_555 1_555
C19A C18A 1_555 1_555
H9A C19A 1_555 1_555
H10A C19A 1_555 1_555
H11A C19A 1_555 1_555
C20A C18A 1_555 1_555
H12A C20A 1_555 1_555
H13A C20A 1_555 1_555
H14A C20A 1_555 1_555
C21A C18A 1_555 1_555
H15A C21A 1_555 1_555
H16A C21A 1_555 1_555
H17A C21A 1_555 1_555
C22A C2A 1_555 1_555
C23A C22A 1_555 1_555
H18A C23A 1_555 1_555
C24A C23A 1_555 1_555
H19A C24A 1_555 1_555
C25A C24A 1_555 1_555
H20A C25A 1_555 1_555
C26A C25A 1_555 1_555
H21A C26A 1_555 1_555
C27A C22A 1_555 1_555
H22A C27A 1_555 1_555
C28A C3A 1_555 1_555
C29A C28A 1_555 1_555
H23A C29A 1_555 1_555
C30A C29A 1_555 1_555
H24A C30A 1_555 1_555
C31A C30A 1_555 1_555
H25A C31A 1_555 1_555
C32A C31A 1_555 1_555
H26A C32A 1_555 1_555
C33A C28A 1_555 1_555
H27A C33A 1_555 1_555
C2 C3 1_555 1_555
C8 C9 1_555 1_555
C16 C17 1_555 1_555
C26 C27 1_555 1_555
C32 C33 1_555 1_555
C2A C3A 1_555 1_555
C8A C9A 1_555 1_555
C16A C17A 1_555 1_555
C26A C27A 1_555 1_555
C32A C33A 1_555 1_555

#END
