
#######################################################################
#
#                 Cambridge Crystallographic Data Centre
#                                CCDC 
#
#######################################################################
#
# If this CIF has been generated from an entry in the Cambridge 
# Structural Database, then it will include bibliographic, chemical, 
# crystal, experimental, refinement or atomic coordinate data resulting 
# from the CCDC's data processing and validation procedures.
#
#######################################################################

data_XISMUI
_chemical_formula_moiety         'C16 H22 N4 O8'
_chemical_name_systematic        
'Dipropyl 4,8-dioxo-1H,5H-2,6-dioxa-3a,4a,7a,8a-tetraazacyclopenta(def)fluorene-8b,8c-dicarboxylate'
_symmetry_cell_setting           orthorhombic
_symmetry_space_group_name_H-M   'P 21 21 21'
_symmetry_Int_Tables_number      19
_space_group_name_Hall           'P 2ac 2ab'
loop_
_symmetry_equiv_pos_site_id
_symmetry_equiv_pos_as_xyz
1 x,y,z
2 1/2-x,-y,1/2+z
3 -x,1/2+y,1/2-z
4 1/2+x,1/2-y,-z
_cell_length_a                   8.6399(4)
_cell_length_b                   13.401(7)
_cell_length_c                   16.0445(8)
_cell_angle_alpha                90
_cell_angle_beta                 90
_cell_angle_gamma                90
_cell_volume                     1857.69
_exptl_crystal_colour            colorless
_exptl_crystal_description       block
_cell_formula_units_Z            4
_exptl_crystal_recrystallization_method dichloromethane
loop_
_atom_site_label
_atom_site_type_symbol
_atom_site_fract_x
_atom_site_fract_y
_atom_site_fract_z
C1 C 0.4167(4) 0.2297(2) 0.2432(2)
H1 H 0.3680 0.2906 0.2239
H2 H 0.3651 0.1739 0.2165
C2 C 0.4676(4) 0.1327(2) 0.3595(2)
H3 H 0.4169 0.0760 0.3338
H4 H 0.4532 0.1278 0.4193
C3 C 0.6597(3) 0.31946(18) 0.22249(17)
C4 C 0.7391(4) 0.1724(2) 0.3941(2)
C5 C 0.9211(4) 0.3717(2) 0.2653(3)
H5 H 1.0236 0.3599 0.2427
H6 H 0.8884 0.4380 0.2487
C6 C 0.9781(5) 0.2689(3) 0.3785(3)
H7 H 0.9851 0.2662 0.4388
H8 H 1.0804 0.2564 0.3559
C7 C 0.6721(3) 0.14966(18) 0.25409(16)
C8 C 0.6681(3) 0.05026(18) 0.20526(17)
C9 C 0.5560(5) -0.0444(2) 0.0969(2)
H9 H 0.5447 -0.1000 0.1352
H10 H 0.6490 -0.0549 0.0642
C10 C 0.4189(6) -0.0385(3) 0.0411(3)
H11 H 0.3995 -0.1045 0.0187
H12 H 0.3299 -0.0202 0.0746
C11 C 0.4299(8) 0.0317(5) -0.0287(4)
H13 H 0.4263 0.0988 -0.0080
H14 H 0.3448 0.0209 -0.0662
H15 H 0.5256 0.0212 -0.0578
C12 C 0.8373(3) 0.19597(19) 0.26092(18)
C13 C 0.9645(4) 0.1474(2) 0.2084(2)
C14 C 1.0282(6) 0.1060(3) 0.0683(3)
H16 H 1.0758 0.0455 0.0893
H17 H 1.1091 0.1541 0.0566
C15 C 0.9389(12) 0.0845(6) -0.0080(5)
H20 H 0.8691 0.0294 0.0033
H21 H 1.0101 0.0630 -0.0511
C16 C 0.844(2) 0.1729(11) -0.0413(12)
H22 H 0.7547 0.1828 -0.0065
H23 H 0.8109 0.1589 -0.0973
H24 H 0.9064 0.2320 -0.0410
N1 N 0.5792(3) 0.23013(15) 0.21957(15)
N2 N 0.6315(3) 0.13036(17) 0.34032(15)
N3 N 0.8136(3) 0.29806(16) 0.23239(16)
N4 N 0.8717(3) 0.1929(2) 0.34926(16)
O1 O 0.3994(3) 0.22198(15) 0.33015(16)
O2 O 0.9261(3) 0.36549(18) 0.35326(18)
O3 O 0.6044(3) 0.40152(14) 0.21303(15)
O4 O 0.7212(4) 0.1841(2) 0.46809(15)
O5 O 0.7493(3) -0.01743(15) 0.22604(17)
O6 O 0.5676(3) 0.05015(13) 0.14370(13)
O7 O 1.0852(3) 0.11865(18) 0.23472(19)
O8 O 0.9201(3) 0.14622(19) 0.12965(14)
H18? H 1.0186 0.0339 0.0664
H19? H 1.1337 0.1222 0.0838
C17? C 0.9949(14) 0.1470(8) -0.0134(5)
H25? H 1.0705 0.1237 -0.0537
H26? H 0.9984 0.2193 -0.0117
C18? C 0.833(2) 0.1113(16) -0.0377(16)
H27? H 0.8219 0.0418 -0.0245
H28? H 0.8173 0.1209 -0.0964
H29? H 0.7566 0.1490 -0.0074
loop_
_geom_bond_atom_site_label_1
_geom_bond_atom_site_label_2
_geom_bond_site_symmetry_1
_geom_bond_site_symmetry_2
C1 H1 1_555 1_555
H2 C1 1_555 1_555
C2 H3 1_555 1_555
H4 C2 1_555 1_555
C3 N1 1_555 1_555
C4 N2 1_555 1_555
C5 H5 1_555 1_555
H6 C5 1_555 1_555
C6 H7 1_555 1_555
H8 C6 1_555 1_555
C7 C8 1_555 1_555
C8 O5 1_555 1_555
C9 H9 1_555 1_555
H10 C9 1_555 1_555
C10 C9 1_555 1_555
H11 C10 1_555 1_555
H12 C10 1_555 1_555
C11 C10 1_555 1_555
H13 C11 1_555 1_555
H14 C11 1_555 1_555
H15 C11 1_555 1_555
C12 C7 1_555 1_555
C13 C12 1_555 1_555
C14 H16 1_555 1_555
H17 C14 1_555 1_555
C15 C14 1_555 1_555
H20 C15 1_555 1_555
H21 C15 1_555 1_555
C16 C15 1_555 1_555
H22 C16 1_555 1_555
H23 C16 1_555 1_555
H24 C16 1_555 1_555
N1 C1 1_555 1_555
N2 C2 1_555 1_555
N3 C3 1_555 1_555
N4 C4 1_555 1_555
O1 C1 1_555 1_555
O2 C5 1_555 1_555
O3 C3 1_555 1_555
O4 C4 1_555 1_555
O6 C8 1_555 1_555
O7 C13 1_555 1_555
O8 C13 1_555 1_555
C2 O1 1_555 1_555
C5 N3 1_555 1_555
C6 N4 1_555 1_555
C6 O2 1_555 1_555
C7 N1 1_555 1_555
C7 N2 1_555 1_555
C9 O6 1_555 1_555
C12 N3 1_555 1_555
C12 N4 1_555 1_555
C14 O8 1_555 1_555

#END
