
#######################################################################
#
#                 Cambridge Crystallographic Data Centre
#                                CCDC 
#
#######################################################################
#
# If this CIF has been generated from an entry in the Cambridge 
# Structural Database, then it will include bibliographic, chemical, 
# crystal, experimental, refinement or atomic coordinate data resulting 
# from the CCDC's data processing and validation procedures.
#
#######################################################################

data_XISSIC
_chemical_formula_moiety         'C19 H15 Cl2 N3 O1 S2'
_chemical_name_systematic        
2-(2,4-Dichlorophenyl)-3-(5-(3,5-dimethylphenyl)-1,3,4-thiadiazol-2-yl)thiazolidin-4-one
_symmetry_cell_setting           triclinic
_symmetry_space_group_name_H-M   'P -1'
_symmetry_Int_Tables_number      2
_space_group_name_Hall           '-P 1'
loop_
_symmetry_equiv_pos_site_id
_symmetry_equiv_pos_as_xyz
1 x,y,z
2 -x,-y,-z
_cell_length_a                   8.1760(16)
_cell_length_b                   9.1650(18)
_cell_length_c                   14.483(3)
_cell_angle_alpha                80.60(3)
_cell_angle_beta                 80.82(3)
_cell_angle_gamma                63.92(3)
_cell_volume                     956.942
_exptl_crystal_colour            'light yellow'
_exptl_crystal_description       block
_chemical_melting_point          '476-477 K'
_cell_formula_units_Z            2
_exptl_crystal_recrystallization_method acetone
loop_
_atom_site_label
_atom_site_type_symbol
_atom_site_fract_x
_atom_site_fract_y
_atom_site_fract_z
Cl1 Cl 0.6127(2) 0.7754(2) -0.14356(11)
Cl2 Cl 1.25961(17) 0.62298(16) -0.02409(9)
S1 S 1.13265(18) 0.90179(17) 0.12924(9)
S2 S 0.80372(16) 0.67126(13) 0.42066(7)
O1 O 0.7989(6) 0.9660(4) 0.3520(3)
N1 N 0.9137(5) 0.4033(4) 0.3485(2)
N2 N 0.9641(5) 0.5066(4) 0.2796(2)
N3 N 0.9527(5) 0.7697(4) 0.2528(2)
C1 C 0.7096(8) -0.0041(6) 0.5859(4)
H1 H 0.6622 -0.0377 0.6465
H2 H 0.8348 -0.0796 0.5727
H3 H 0.6386 -0.0023 0.5386
C2 C 0.6989(6) 0.1640(6) 0.5861(3)
C3 C 0.7698(6) 0.2378(5) 0.5073(3)
H4 H 0.8261 0.1815 0.4547
C4 C 0.7565(6) 0.3936(5) 0.5074(3)
C5 C 0.6693(6) 0.4783(6) 0.5844(3)
H5 H 0.6602 0.5831 0.5842
C6 C 0.5944(6) 0.4091(6) 0.6629(3)
C7 C 0.6134(6) 0.2527(6) 0.6616(3)
H6 H 0.5664 0.2048 0.7140
C8 C 0.4899(7) 0.5073(7) 0.7442(3)
H7 H 0.4485 0.4418 0.7920
H8 H 0.3863 0.6025 0.7226
H9 H 0.5683 0.5402 0.7698
C9 C 0.8307(5) 0.4717(5) 0.4236(3)
C10 C 0.9149(6) 0.6481(5) 0.3094(3)
C11 C 1.0540(6) 0.7385(5) 0.1604(3)
H10 H 1.1602 0.6323 0.1651
C12 C 0.9563(9) 1.0308(7) 0.2078(4)
H11 H 1.0026 1.0901 0.2380
H12 H 0.8546 1.1093 0.1738
C13 C 0.8942(7) 0.9217(6) 0.2809(3)
C14 C 0.9401(6) 0.7419(5) 0.0871(3)
C15 C 0.7515(6) 0.7987(5) 0.1026(3)
H13 H 0.6923 0.8314 0.1610
C16 C 0.6505(6) 0.8074(6) 0.0324(3)
H14 H 0.5239 0.8462 0.0431
C17 C 0.7404(7) 0.7576(5) -0.0542(3)
C18 C 0.9264(6) 0.6968(5) -0.0713(3)
H15 H 0.9855 0.6604 -0.1290
C19 C 1.0239(6) 0.6911(5) -0.0003(3)
loop_
_geom_bond_atom_site_label_1
_geom_bond_atom_site_label_2
_geom_bond_site_symmetry_1
_geom_bond_site_symmetry_2
Cl1 C17 1_555 1_555
Cl2 C19 1_555 1_555
S1 C11 1_555 1_555
S2 C9 1_555 1_555
O1 C13 1_555 1_555
N1 N2 1_555 1_555
N2 C10 1_555 1_555
N3 C10 1_555 1_555
C1 H1 1_555 1_555
H2 C1 1_555 1_555
H3 C1 1_555 1_555
C2 C1 1_555 1_555
C3 C2 1_555 1_555
H4 C3 1_555 1_555
C4 C3 1_555 1_555
C5 C4 1_555 1_555
H5 C5 1_555 1_555
C6 C5 1_555 1_555
C7 C2 1_555 1_555
H6 C7 1_555 1_555
C8 C6 1_555 1_555
H7 C8 1_555 1_555
H8 C8 1_555 1_555
H9 C8 1_555 1_555
C9 N1 1_555 1_555
C10 S2 1_555 1_555
C11 N3 1_555 1_555
H10 C11 1_555 1_555
C12 S1 1_555 1_555
H11 C12 1_555 1_555
H12 C12 1_555 1_555
C13 N3 1_555 1_555
C14 C11 1_555 1_555
C15 C14 1_555 1_555
H13 C15 1_555 1_555
C16 C15 1_555 1_555
H14 C16 1_555 1_555
C17 C16 1_555 1_555
C18 C17 1_555 1_555
H15 C18 1_555 1_555
C19 C14 1_555 1_555
C4 C9 1_555 1_555
C6 C7 1_555 1_555
C12 C13 1_555 1_555
C18 C19 1_555 1_555

#END
