
#######################################################################
#
#                 Cambridge Crystallographic Data Centre
#                                CCDC 
#
#######################################################################
#
# If this CIF has been generated from an entry in the Cambridge 
# Structural Database, then it will include bibliographic, chemical, 
# crystal, experimental, refinement or atomic coordinate data resulting 
# from the CCDC's data processing and validation procedures.
#
#######################################################################

data_XISTEZ
_chemical_formula_moiety         'C17 H23 N1 O2'
_chemical_name_systematic        
2-((1S,3S)-3-Acetyl-2,2-dimethylcyclobutyl)-N-m-tolylacetamide
_symmetry_cell_setting           orthorhombic
_symmetry_space_group_name_H-M   'P b c a'
_symmetry_Int_Tables_number      61
_space_group_name_Hall           '-P 2ac 2ab'
loop_
_symmetry_equiv_pos_site_id
_symmetry_equiv_pos_as_xyz
1 x,y,z
2 1/2-x,-y,1/2+z
3 -x,1/2+y,1/2-z
4 1/2+x,1/2-y,-z
5 -x,-y,-z
6 1/2+x,y,1/2-z
7 x,1/2-y,1/2+z
8 1/2-x,1/2+y,z
_cell_length_a                   12.513(3)
_cell_length_b                   9.5190(19)
_cell_length_c                   26.844(5)
_cell_angle_alpha                90
_cell_angle_beta                 90
_cell_angle_gamma                90
_cell_volume                     3197.42
_exptl_crystal_colour            colorless
_exptl_crystal_description       quadrate
_chemical_melting_point          '367 K'
_cell_formula_units_Z            8
_exptl_crystal_recrystallization_method ethanol
loop_
_atom_site_label
_atom_site_type_symbol
_atom_site_fract_x
_atom_site_fract_y
_atom_site_fract_z
N1 N 0.7095(2) 0.0658(3) 0.68825(10)
H1 H 0.7277 -0.0171 0.6977
O1 O 0.6178(2) -0.0407(3) 0.92753(10)
C1 C 0.4701(3) 0.1175(5) 0.93668(16)
H2 H 0.4414 0.0449 0.9576
H3 H 0.4227 0.1333 0.9091
H4 H 0.4774 0.2026 0.9556
O2 O 0.7021(2) 0.2940(2) 0.71316(9)
C2 C 0.5782(3) 0.0728(4) 0.91735(14)
C3 C 0.6333(3) 0.1758(3) 0.88408(12)
H5 H 0.6270 0.2708 0.8978
C4 C 0.5977(3) 0.1749(3) 0.82785(11)
C5 C 0.7192(2) 0.1983(3) 0.81526(11)
H6 H 0.7331 0.2993 0.8128
C6 C 0.7475(3) 0.1488(4) 0.86728(11)
H7 H 0.7682 0.0507 0.8688
H8 H 0.7999 0.2077 0.8838
C7 C 0.5230(3) 0.2938(4) 0.81276(14)
H9 H 0.4510 0.2698 0.8216
H10 H 0.5274 0.3081 0.7774
H11 H 0.5435 0.3784 0.8297
C8 C 0.5565(3) 0.0333(3) 0.81108(12)
H12 H 0.4824 0.0246 0.8197
H13 H 0.5966 -0.0397 0.8272
H14 H 0.5645 0.0249 0.7756
C9 C 0.7689(3) 0.1250(3) 0.77045(12)
H15 H 0.8452 0.1427 0.7705
H16 H 0.7584 0.0245 0.7738
C10 C 0.7236(3) 0.1716(3) 0.72154(12)
C11 C 0.6677(3) 0.0789(3) 0.63926(13)
C12 C 0.5888(3) 0.1753(3) 0.62739(16)
H17 H 0.5602 0.2353 0.6513
C13 C 0.5545(3) 0.1783(4) 0.57870(19)
H18 H 0.5033 0.2443 0.5698
C14 C 0.5914(3) 0.0904(4) 0.54333(16)
H19 H 0.5657 0.0978 0.5109
C15 C 0.6686(3) -0.0127(4) 0.55487(14)
C16 C 0.7049(3) -0.0140(3) 0.60417(13)
H20 H 0.7559 -0.0800 0.6135
C17 C 0.7134(3) -0.1128(5) 0.51691(14)
H21 H 0.6788 -0.0977 0.4854
H22 H 0.7011 -0.2077 0.5276
H23 H 0.7888 -0.0971 0.5134
loop_
_geom_bond_atom_site_label_1
_geom_bond_atom_site_label_2
_geom_bond_site_symmetry_1
_geom_bond_site_symmetry_2
N1 H1 1_555 1_555
O1 C2 1_555 1_555
C1 H2 1_555 1_555
H3 C1 1_555 1_555
H4 C1 1_555 1_555
O2 C10 1_555 1_555
C2 C1 1_555 1_555
C3 C2 1_555 1_555
H5 C3 1_555 1_555
C4 C3 1_555 1_555
C5 C4 1_555 1_555
H6 C5 1_555 1_555
C6 C3 1_555 1_555
H7 C6 1_555 1_555
H8 C6 1_555 1_555
C7 C4 1_555 1_555
H9 C7 1_555 1_555
H10 C7 1_555 1_555
H11 C7 1_555 1_555
C8 C4 1_555 1_555
H12 C8 1_555 1_555
H13 C8 1_555 1_555
H14 C8 1_555 1_555
C9 C5 1_555 1_555
H15 C9 1_555 1_555
H16 C9 1_555 1_555
C10 N1 1_555 1_555
C11 N1 1_555 1_555
C12 C11 1_555 1_555
H17 C12 1_555 1_555
C13 C12 1_555 1_555
H18 C13 1_555 1_555
C14 C13 1_555 1_555
H19 C14 1_555 1_555
C15 C14 1_555 1_555
C16 C11 1_555 1_555
H20 C16 1_555 1_555
C17 C15 1_555 1_555
H21 C17 1_555 1_555
H22 C17 1_555 1_555
H23 C17 1_555 1_555
C5 C6 1_555 1_555
C9 C10 1_555 1_555
C15 C16 1_555 1_555

#END
