
#######################################################################
#
#                 Cambridge Crystallographic Data Centre
#                                CCDC 
#
#######################################################################
#
# If this CIF has been generated from an entry in the Cambridge 
# Structural Database, then it will include bibliographic, chemical, 
# crystal, experimental, refinement or atomic coordinate data resulting 
# from the CCDC's data processing and validation procedures.
#
#######################################################################

data_XISXOP
_chemical_formula_moiety         'C18 H16 O5'
_chemical_name_systematic        
'methyl 4-(4-methoxyphenyl)-2-oxo-3,4-dihydro-2H-1-benzopyran-3-carboxylate'
_symmetry_cell_setting           orthorhombic
_symmetry_space_group_name_H-M   'P 21 21 21'
_symmetry_Int_Tables_number      19
_space_group_name_Hall           'P 2ac 2ab'
loop_
_symmetry_equiv_pos_site_id
_symmetry_equiv_pos_as_xyz
1 x,y,z
2 1/2-x,-y,1/2+z
3 -x,1/2+y,1/2-z
4 1/2+x,1/2-y,-z
_cell_length_a                   5.29910(10)
_cell_length_b                   13.1414(2)
_cell_length_c                   22.2113(4)
_cell_angle_alpha                90
_cell_angle_beta                 90
_cell_angle_gamma                90
_cell_volume                     1546.74
_exptl_crystal_colour            colorless
_exptl_crystal_description       prismatic
_cell_formula_units_Z            4
loop_
_atom_site_label
_atom_site_type_symbol
_atom_site_fract_x
_atom_site_fract_y
_atom_site_fract_z
O1 O 0.4839(5) 0.22696(14) 0.36485(9)
O2 O 0.2406(4) 0.29604(12) 0.29640(8)
O3 O 0.7843(3) 0.41808(17) 0.42719(11)
O4 O 0.4472(3) 0.37293(13) 0.48064(7)
O5 O 0.4227(4) 0.87913(12) 0.44519(8)
C1 C 0.2412(5) 0.47910(16) 0.28327(9)
C2 C 0.1502(6) 0.56000(19) 0.25005(10)
H1 H 0.2147 0.6248 0.2568
C3 C -0.0356(8) 0.5464(2) 0.20685(12)
H2 H -0.0930 0.6018 0.1847
C4 C -0.1348(7) 0.4518(3) 0.19657(12)
H3 H -0.2625 0.4433 0.1683
C5 C -0.0455(6) 0.3695(2) 0.22812(12)
H4 H -0.1114 0.3049 0.2213
C6 C 0.1435(5) 0.38394(17) 0.27004(10)
C7 C 0.3806(5) 0.30143(17) 0.34765(11)
C8 C 0.3799(4) 0.40372(15) 0.37878(9)
H5 H 0.2111 0.4147 0.3956
C9 C 0.4329(4) 0.48984(15) 0.33329(9)
H6 H 0.6010 0.4786 0.3161
C10 C 0.4312(4) 0.59430(15) 0.36322(9)
C11 C 0.2434(4) 0.62358(17) 0.40315(11)
H7 H 0.1134 0.5785 0.4122
C12 C 0.2466(5) 0.71834(17) 0.42963(11)
H8 H 0.1197 0.7362 0.4566
C13 C 0.4357(4) 0.78695(16) 0.41669(10)
C14 C 0.6195(5) 0.75962(19) 0.37630(13)
H9 H 0.7459 0.8056 0.3662
C15 C 0.6173(5) 0.66393(19) 0.35051(12)
H10 H 0.7452 0.6462 0.3238
C16 C 0.6296(6) 0.9462(2) 0.43845(16)
H11 H 0.7828 0.9115 0.4490
H12 H 0.6073 1.0039 0.4644
H13 H 0.6391 0.9687 0.3974
C17 C 0.5649(4) 0.39999(16) 0.43051(11)
C18 C 0.5996(7) 0.3604(3) 0.53437(13)
H14 H 0.7521 0.3248 0.5244
H15 H 0.5067 0.3221 0.5637
H16 H 0.6408 0.4261 0.5506
loop_
_geom_bond_atom_site_label_1
_geom_bond_atom_site_label_2
_geom_bond_site_symmetry_1
_geom_bond_site_symmetry_2
O1 C7 1_555 1_555
O2 C6 1_555 1_555
O3 C17 1_555 1_555
O4 C17 1_555 1_555
O5 C13 1_555 1_555
C1 C2 1_555 1_555
C2 H1 1_555 1_555
C3 C2 1_555 1_555
H2 C3 1_555 1_555
C4 C3 1_555 1_555
H3 C4 1_555 1_555
C5 C4 1_555 1_555
H4 C5 1_555 1_555
C6 C1 1_555 1_555
C7 O2 1_555 1_555
C8 C7 1_555 1_555
H5 C8 1_555 1_555
C9 C1 1_555 1_555
H6 C9 1_555 1_555
C10 C9 1_555 1_555
C11 C10 1_555 1_555
H7 C11 1_555 1_555
C12 C11 1_555 1_555
H8 C12 1_555 1_555
C13 C12 1_555 1_555
C14 C13 1_555 1_555
H9 C14 1_555 1_555
C15 C10 1_555 1_555
H10 C15 1_555 1_555
C16 O5 1_555 1_555
H11 C16 1_555 1_555
H12 C16 1_555 1_555
H13 C16 1_555 1_555
C17 C8 1_555 1_555
C18 O4 1_555 1_555
H14 C18 1_555 1_555
H15 C18 1_555 1_555
H16 C18 1_555 1_555
C5 C6 1_555 1_555
C8 C9 1_555 1_555
C14 C15 1_555 1_555

#END
