
#######################################################################
#
#                 Cambridge Crystallographic Data Centre
#                                CCDC 
#
#######################################################################
#
# If this CIF has been generated from an entry in the Cambridge 
# Structural Database, then it will include bibliographic, chemical, 
# crystal, experimental, refinement or atomic coordinate data resulting 
# from the CCDC's data processing and validation procedures.
#
#######################################################################

data_XISYAA
_chemical_compound_source        
'marine-mangrove endophytic fungus Guignardia sp. No. 4382'
_chemical_name_common            Vermistatin
_chemical_formula_moiety         'C18 H16 O6'
_chemical_name_systematic        
(3R)-4,6-Dimethoxy-3-(4-oxo-6-((1E)-prop-1-en-1-yl)-4H-pyran-3-yl)-2-benzofuran-1(3H)-one
_chemical_properties_biological  
'moderate cytotoxic activity; no antifungal activity'
_symmetry_cell_setting           triclinic
_symmetry_space_group_name_H-M   'P 1'
_symmetry_Int_Tables_number      1
_space_group_name_Hall           'P 1'
loop_
_symmetry_equiv_pos_site_id
_symmetry_equiv_pos_as_xyz
1 x,y,z
_cell_length_a                   4.8168(9)
_cell_length_b                   8.457(4)
_cell_length_c                   18.953(6)
_cell_angle_alpha                85.97(3)
_cell_angle_beta                 89.13(2)
_cell_angle_gamma                87.67(3)
_cell_volume                     769.459
_cell_formula_units_Z            2
_exptl_crystal_recrystallization_method 'petroleum ether/ethyl acetate'
loop_
_atom_site_label
_atom_site_type_symbol
_atom_site_fract_x
_atom_site_fract_y
_atom_site_fract_z
O1 O 0.6652(4) 0.0435(2) 0.70355(9)
O2 O 0.9595(4) -0.34846(19) 0.85591(9)
O3 O 1.2699(4) 0.1220(2) 0.87496(9)
O6 O 0.6778(5) 0.0940(2) 1.07849(9)
O9 O 1.3333(4) -0.2662(2) 0.70627(9)
O12 O 0.6773(5) -0.4584(2) 0.93916(10)
C2 C 0.7800(6) 0.0174(3) 1.02198(13)
C5 C 0.8353(6) -0.1902(3) 0.94638(13)
C6 C 0.7787(6) -0.0042(3) 0.64127(14)
C7 C 0.7741(6) -0.0207(3) 0.76515(13)
H2 H 0.6929 0.0098 0.8072
C8 C 0.8072(6) -0.3453(3) 0.91656(13)
C9 C 1.0934(6) -0.1970(3) 0.83989(13)
H3 H 1.2956 -0.2147 0.8378
C10 C 1.0138(6) -0.1046(3) 0.90238(12)
C14 C 0.4754(7) 0.0120(3) 1.12310(14)
H7 H 0.4181 0.0767 1.1608
H8 H 0.5568 -0.0867 1.1426
H9 H 0.3169 -0.0084 1.0955
C16 C 1.0850(6) 0.0461(3) 0.91966(12)
C17 C 1.1278(6) -0.1746(3) 0.70454(13)
C19 C 1.3540(7) 0.2753(3) 0.89303(14)
H11 H 1.4838 0.3162 0.8581
H12 H 1.4404 0.2654 0.9385
H13 H 1.1940 0.3465 0.8945
C20 C 0.9983(6) -0.1054(3) 0.64046(13)
H14 H 1.0711 -0.1327 0.5970
C21 C 0.9653(6) 0.1068(3) 0.97916(13)
H15 H 1.0077 0.2079 0.9910
C23 C 0.9896(6) -0.1243(3) 0.76943(12)
C24 C 0.7130(6) -0.1350(3) 1.00704(13)
H17 H 0.5942 -0.1958 1.0358
C28 C 0.6226(6) 0.0697(3) 0.58092(14)
H21 H 0.4913 0.1494 0.5905
C33 C 0.6502(7) 0.0344(3) 0.51457(14)
H25 H 0.7869 -0.0411 0.5036
C36 C 0.4754(8) 0.1083(4) 0.45614(16)
H30 H 0.5324 0.0653 0.4124
H31 H 0.4971 0.2210 0.4525
H32 H 0.2840 0.0864 0.4658
O4 O 0.3135(4) 0.4408(2) 0.33389(9)
O5 O 0.8672(4) 0.4555(2) 0.50636(9)
O7 O 0.7893(4) 0.8691(2) 0.31436(9)
O8 O 1.1752(4) 0.6136(2) 0.11688(9)
O10 O 0.3737(4) 0.2544(2) 0.25603(10)
O11 O 0.1937(4) 0.7539(2) 0.46442(10)
C1 C 0.7299(6) 0.5287(3) 0.55954(13)
C3 C 0.5098(6) 0.6289(3) 0.54698(13)
H1 H 0.4267 0.6781 0.5847
C4 C 0.4388(6) 0.3805(3) 0.27621(12)
C11 C 0.3975(6) 0.6631(3) 0.47737(13)
C12 C 0.9907(6) 0.6044(3) 0.17214(13)
C13 C 1.1947(8) 0.4800(4) 0.07417(15)
H4 H 1.3302 0.4987 0.0372
H5 H 1.0172 0.4654 0.0537
H6 H 1.2498 0.3865 0.1030
C15 C 0.5462(6) 0.5785(3) 0.42284(12)
C18 C 1.0460(7) 0.3873(3) 0.64535(15)
H10 H 1.1263 0.3333 0.6086
C22 C 0.7689(6) 0.4849(3) 0.43963(13)
H16 H 0.8632 0.4366 0.4032
C25 C 0.9724(7) 0.9975(3) 0.29849(16)
H18 H 0.9382 1.0775 0.3314
H19 H 0.9393 1.0425 0.2513
H20 H 1.1618 0.9582 0.3022
C26 C 0.6458(6) 0.4922(3) 0.24735(12)
C27 C 0.8125(6) 0.7457(3) 0.27195(12)
C29 C 0.6406(5) 0.6188(3) 0.28917(12)
C30 C 0.8203(6) 0.4794(3) 0.18794(13)
H22 H 0.8210 0.3919 0.1608
C31 C 0.8418(7) 0.4902(3) 0.62993(13)
H23 H 0.7616 0.5431 0.6670
C32 C 0.4349(6) 0.5921(3) 0.34861(13)
H24 H 0.2894 0.6766 0.3449
C34 C 0.9870(6) 0.7363(3) 0.21352(13)
H26 H 1.1041 0.8189 0.2014
C35 C 1.1596(8) 0.3504(4) 0.71835(15)
H27 H 1.3069 0.2707 0.7167
H28 H 1.0143 0.3120 0.7495
H29 H 1.2303 0.4448 0.7355
loop_
_geom_bond_atom_site_label_1
_geom_bond_atom_site_label_2
_geom_bond_site_symmetry_1
_geom_bond_site_symmetry_2
O1 C6 1_555 1_555
O2 C8 1_555 1_555
O3 C16 1_555 1_555
O4 C4 1_555 1_555
O5 C1 1_555 1_555
O6 C2 1_555 1_555
O7 C25 1_555 1_555
O8 C12 1_555 1_555
O9 C17 1_555 1_555
O10 C4 1_555 1_555
O11 C11 1_555 1_555
O12 C8 1_555 1_555
C1 C3 1_555 1_555
C2 C21 1_555 1_555
C3 H1 1_555 1_555
C4 C26 1_555 1_555
C5 C8 1_555 1_555
C6 C20 1_555 1_555
C7 O1 1_555 1_555
H2 C7 1_555 1_555
C9 O2 1_555 1_555
H3 C9 1_555 1_555
C10 C5 1_555 1_555
C11 C3 1_555 1_555
C12 C30 1_555 1_555
C13 O8 1_555 1_555
H4 C13 1_555 1_555
H5 C13 1_555 1_555
H6 C13 1_555 1_555
C14 O6 1_555 1_555
H7 C14 1_555 1_555
H8 C14 1_555 1_555
H9 C14 1_555 1_555
C15 C11 1_555 1_555
C16 C10 1_555 1_555
C17 C20 1_555 1_555
C18 H10 1_555 1_555
C19 O3 1_555 1_555
H11 C19 1_555 1_555
H12 C19 1_555 1_555
H13 C19 1_555 1_555
C20 H14 1_555 1_555
C21 C16 1_555 1_555
H15 C21 1_555 1_555
C22 O5 1_555 1_555
H16 C22 1_555 1_555
C23 C7 1_555 1_555
C24 C2 1_555 1_555
H17 C24 1_555 1_555
C25 H18 1_555 1_555
H19 C25 1_555 1_555
H20 C25 1_555 1_555
C26 C29 1_555 1_555
C27 O7 1_555 1_555
C28 C6 1_555 1_555
H21 C28 1_555 1_555
C29 C27 1_555 1_555
C30 C26 1_555 1_555
H22 C30 1_555 1_555
C31 C1 1_555 1_555
H23 C31 1_555 1_555
C32 O4 1_555 1_555
H24 C32 1_555 1_555
C33 C28 1_555 1_555
H25 C33 1_555 1_555
C34 C12 1_555 1_555
H26 C34 1_555 1_555
C35 C18 1_555 1_555
H27 C35 1_555 1_555
H28 C35 1_555 1_555
H29 C35 1_555 1_555
C36 C33 1_555 1_555
H30 C36 1_555 1_555
H31 C36 1_555 1_555
H32 C36 1_555 1_555
C5 C24 1_555 1_555
C9 C10 1_555 1_555
C9 C23 1_555 1_555
C15 C22 1_555 1_555
C15 C32 1_555 1_555
C17 C23 1_555 1_555
C18 C31 1_555 1_555
C27 C34 1_555 1_555
C29 C32 1_555 1_555

#END
