
#######################################################################
#
#                 Cambridge Crystallographic Data Centre
#                                CCDC 
#
#######################################################################
#
# If this CIF has been generated from an entry in the Cambridge 
# Structural Database, then it will include bibliographic, chemical, 
# crystal, experimental, refinement or atomic coordinate data resulting 
# from the CCDC's data processing and validation procedures.
#
#######################################################################

data_XISYED
_chemical_formula_moiety         'C20 H26 O2'
_chemical_name_systematic        
spiro[3-methoxy-estra-1,3,5(10)-triene-17,2'-oxirane]
_symmetry_cell_setting           monoclinic
_symmetry_space_group_name_H-M   'P 21'
_symmetry_Int_Tables_number      4
_space_group_name_Hall           'P 2yb'
loop_
_symmetry_equiv_pos_site_id
_symmetry_equiv_pos_as_xyz
1 x,y,z
2 -x,1/2+y,-z
_cell_length_a                   7.1565(13)
_cell_length_b                   8.6717(15)
_cell_length_c                   13.187(2)
_cell_angle_alpha                90.00
_cell_angle_beta                 92.700(4)
_cell_angle_gamma                90.00
_cell_volume                     817.464
_exptl_crystal_colour            colorless
_exptl_crystal_description       prism
_cell_formula_units_Z            2
loop_
_atom_site_label
_atom_site_type_symbol
_atom_site_fract_x
_atom_site_fract_y
_atom_site_fract_z
O1 O 0.4284(3) 0.4883(3) -0.15093(13)
O2 O -0.2471(3) 0.2803(3) 0.57037(14)
C1 C 0.3657(3) 0.3855(3) 0.11465(17)
H1 H 0.4217 0.3258 0.1662
C2 C 0.4461(4) 0.3898(4) 0.02150(19)
H2 H 0.5541 0.3338 0.0106
C3 C 0.3647(4) 0.4773(3) -0.05411(18)
C4 C 0.2034(4) 0.5585(3) -0.03841(18)
H3 H 0.1483 0.6165 -0.0911
C5 C 0.1208(4) 0.5550(3) 0.05591(18)
C6 C -0.0571(4) 0.6435(4) 0.06816(19)
H4 H -0.1581 0.5909 0.0308
H5 H -0.0441 0.7449 0.0382
C7 C -0.1096(4) 0.6625(4) 0.17654(19)
H6 H -0.2387 0.6960 0.1781
H7 H -0.0314 0.7412 0.2092
C8 C -0.0852(3) 0.5115(3) 0.23393(17)
H8 H -0.1554 0.4314 0.1961
C9 C -0.1541(3) 0.5164(3) 0.34179(18)
H9 H -0.0732 0.5899 0.3794
C10 C -0.1307(3) 0.3610(3) 0.39741(17)
C11 C 0.0763(3) 0.3213(4) 0.40487(17)
H10 H 0.0936 0.2220 0.4378
H11 H 0.1431 0.3981 0.4459
C12 C 0.1566(3) 0.3156(4) 0.29844(16)
H12 H 0.2901 0.2962 0.3053
H13 H 0.0993 0.2308 0.2604
C13 C 0.1223(3) 0.4661(3) 0.23933(16)
H14 H 0.1881 0.5471 0.2786
C14 C 0.2043(3) 0.4672(3) 0.13415(17)
C15 C -0.3568(4) 0.5649(4) 0.3605(2)
H15 H -0.4441 0.5184 0.3109
H16 H -0.3706 0.6761 0.3576
C16 C -0.3883(4) 0.5034(4) 0.4685(2)
H17 H -0.3954 0.5882 0.5161
H18 H -0.5039 0.4450 0.4691
C17 C -0.2225(3) 0.4007(3) 0.49701(19)
C18 C -0.2438(4) 0.2287(4) 0.3475(2)
H19 H -0.2225 0.1358 0.3859
H20 H -0.2052 0.2137 0.2794
H21 H -0.3746 0.2539 0.3459
C19 C -0.1218(4) 0.4056(4) 0.59575(18)
H22 H 0.0114 0.3846 0.5981
H23 H -0.1612 0.4810 0.6447
C20 C 0.5921(5) 0.4017(6) -0.1722(2)
H24 H 0.6230 0.4187 -0.2414
H25 H 0.5688 0.2940 -0.1619
H26 H 0.6945 0.4344 -0.1277
loop_
_geom_bond_atom_site_label_1
_geom_bond_atom_site_label_2
_geom_bond_site_symmetry_1
_geom_bond_site_symmetry_2
O1 C3 1_555 1_555
O2 C17 1_555 1_555
C1 H1 1_555 1_555
C2 C1 1_555 1_555
H2 C2 1_555 1_555
C3 C2 1_555 1_555
C4 C3 1_555 1_555
H3 C4 1_555 1_555
C5 C4 1_555 1_555
C6 C5 1_555 1_555
H4 C6 1_555 1_555
H5 C6 1_555 1_555
C7 C6 1_555 1_555
H6 C7 1_555 1_555
H7 C7 1_555 1_555
C8 C7 1_555 1_555
H8 C8 1_555 1_555
C9 C8 1_555 1_555
H9 C9 1_555 1_555
C10 C9 1_555 1_555
C11 C10 1_555 1_555
H10 C11 1_555 1_555
H11 C11 1_555 1_555
C12 C11 1_555 1_555
H12 C12 1_555 1_555
H13 C12 1_555 1_555
C13 C8 1_555 1_555
H14 C13 1_555 1_555
C14 C1 1_555 1_555
C15 C9 1_555 1_555
H15 C15 1_555 1_555
H16 C15 1_555 1_555
C16 C15 1_555 1_555
H17 C16 1_555 1_555
H18 C16 1_555 1_555
C17 C10 1_555 1_555
C18 C10 1_555 1_555
H19 C18 1_555 1_555
H20 C18 1_555 1_555
H21 C18 1_555 1_555
C19 O2 1_555 1_555
H22 C19 1_555 1_555
H23 C19 1_555 1_555
C20 O1 1_555 1_555
H24 C20 1_555 1_555
H25 C20 1_555 1_555
H26 C20 1_555 1_555
C5 C14 1_555 1_555
C12 C13 1_555 1_555
C13 C14 1_555 1_555
C16 C17 1_555 1_555
C17 C19 1_555 1_555

#END
