
#######################################################################
#
#                 Cambridge Crystallographic Data Centre
#                                CCDC 
#
#######################################################################
#
# If this CIF has been generated from an entry in the Cambridge 
# Structural Database, then it will include bibliographic, chemical, 
# crystal, experimental, refinement or atomic coordinate data resulting 
# from the CCDC's data processing and validation procedures.
#
#######################################################################

data_XISZIL
_chemical_formula_moiety         'C19 H14 N2 O3'
_chemical_name_systematic        
9-nitro-8-phenyl-7,8-dihydro-6H-azepino[1,2-a]indol-6-one
_symmetry_cell_setting           orthorhombic
_symmetry_space_group_name_H-M   'P 21 21 21'
_symmetry_Int_Tables_number      19
_space_group_name_Hall           'P 2ac 2ab'
loop_
_symmetry_equiv_pos_site_id
_symmetry_equiv_pos_as_xyz
1 x,y,z
2 1/2-x,-y,1/2+z
3 -x,1/2+y,1/2-z
4 1/2+x,1/2-y,-z
_cell_length_a                   7.2586(2)
_cell_length_b                   14.2573(3)
_cell_length_c                   15.1455(4)
_cell_angle_alpha                90
_cell_angle_beta                 90
_cell_angle_gamma                90
_cell_volume                     1567.38
_exptl_crystal_colour            yellow
_exptl_crystal_description       block
_cell_formula_units_Z            4
loop_
_atom_site_label
_atom_site_type_symbol
_atom_site_fract_x
_atom_site_fract_y
_atom_site_fract_z
C1 C 0.3471(3) 0.40882(13) 0.17938(12)
C2 C 0.3740(3) 0.49261(13) 0.23873(13)
H1 H 0.425821 0.470401 0.295466
H2 H 0.251607 0.520089 0.251431
C3 C 0.4998(3) 0.57098(13) 0.20277(12)
H3 H 0.47776 0.627641 0.240221
C4 C 0.6962(3) 0.54383(12) 0.21546(12)
C5 C 0.7714(3) 0.45812(13) 0.21020(12)
H4 H 0.897156 0.454068 0.227224
C6 C 0.6884(2) 0.37156(13) 0.18239(11)
C7 C 0.7891(3) 0.29359(13) 0.16172(13)
H5 H 0.917031 0.285402 0.172412
C8 C 0.6699(3) 0.22661(13) 0.12143(12)
C9 C 0.7013(4) 0.13696(14) 0.08554(13)
H6 H 0.821068 0.11006 0.086009
C10 C 0.5543(4) 0.08917(14) 0.04974(14)
H7 H 0.57291 0.0288 0.024717
C11 C 0.3781(4) 0.12864(15) 0.04987(14)
H8 H 0.278787 0.093453 0.025942
C12 C 0.3427(3) 0.21740(15) 0.08368(13)
H9 H 0.222575 0.243826 0.082921
C13 C 0.4929(3) 0.26565(12) 0.11877(11)
C14 C 0.4494(3) 0.59794(13) 0.10822(14)
C15 C 0.5504(4) 0.56661(16) 0.03680(15)
H10 H 0.65765 0.529789 0.04631
C16 C 0.4965(6) 0.58847(17) -0.04914(17)
H11 H 0.565737 0.565573 -0.097806
C17 C 0.3441(6) 0.64284(18) -0.0635(2)
H12 H 0.308022 0.657967 -0.122112
C18 C 0.2435(5) 0.67548(18) 0.0067(2)
H13 H 0.138178 0.713514 -0.003474
C19 C 0.2951(4) 0.65311(15) 0.09319(18)
H14 H 0.224562 0.675678 0.141559
N1 N 0.5017(2) 0.35585(10) 0.15753(10)
N2 N 0.8221(2) 0.62159(11) 0.23411(11)
O1 O 0.1959(2) 0.38680(11) 0.15339(10)
O2 O 0.7676(2) 0.70083(9) 0.21625(10)
O3 O 0.9731(2) 0.60513(11) 0.26775(13)
loop_
_geom_bond_atom_site_label_1
_geom_bond_atom_site_label_2
_geom_bond_site_symmetry_1
_geom_bond_site_symmetry_2
C1 C2 1_555 1_555
C2 H1 1_555 1_555
H2 C2 1_555 1_555
C3 C2 1_555 1_555
H3 C3 1_555 1_555
C4 C3 1_555 1_555
C5 C4 1_555 1_555
H4 C5 1_555 1_555
C6 C5 1_555 1_555
C7 C6 1_555 1_555
H5 C7 1_555 1_555
C8 C7 1_555 1_555
C9 C8 1_555 1_555
H6 C9 1_555 1_555
C10 C9 1_555 1_555
H7 C10 1_555 1_555
C11 C10 1_555 1_555
H8 C11 1_555 1_555
C12 C11 1_555 1_555
H9 C12 1_555 1_555
C13 C8 1_555 1_555
C14 C3 1_555 1_555
C15 C14 1_555 1_555
H10 C15 1_555 1_555
C16 C15 1_555 1_555
H11 C16 1_555 1_555
C17 C16 1_555 1_555
H12 C17 1_555 1_555
C18 C17 1_555 1_555
H13 C18 1_555 1_555
C19 C14 1_555 1_555
H14 C19 1_555 1_555
N1 C1 1_555 1_555
N2 C4 1_555 1_555
O1 C1 1_555 1_555
O2 N2 1_555 1_555
O3 N2 1_555 1_555
C6 N1 1_555 1_555
C12 C13 1_555 1_555
C13 N1 1_555 1_555
C18 C19 1_555 1_555

#END
