
#######################################################################
#
#                 Cambridge Crystallographic Data Centre
#                                CCDC 
#
#######################################################################
#
# If this CIF has been generated from an entry in the Cambridge 
# Structural Database, then it will include bibliographic, chemical, 
# crystal, experimental, refinement or atomic coordinate data resulting 
# from the CCDC's data processing and validation procedures.
#
#######################################################################

data_XISZOR
_chemical_formula_moiety         'C12 H13 N3 O1'
_chemical_name_systematic        N-[(4-methoxyphenyl)methyl]pyridazin-3-amine
_symmetry_cell_setting           triclinic
_symmetry_space_group_name_H-M   'P -1'
_symmetry_Int_Tables_number      2
_space_group_name_Hall           '-P 1'
loop_
_symmetry_equiv_pos_site_id
_symmetry_equiv_pos_as_xyz
1 x,y,z
2 -x,-y,-z
_cell_length_a                   10.2233(9)
_cell_length_b                   10.2902(9)
_cell_length_c                   24.2253(19)
_cell_angle_alpha                86.607(7)
_cell_angle_beta                 88.529(7)
_cell_angle_gamma                62.515(9)
_cell_volume                     2256.89
_cell_formula_units_Z            8
loop_
_atom_site_label
_atom_site_type_symbol
_atom_site_fract_x
_atom_site_fract_y
_atom_site_fract_z
C1 C 0.7370(2) 0.7842(2) 0.15269(8)
H1 H 0.7456 0.7306 0.1220
C2 C 0.6059(2) 0.9111(2) 0.16011(8)
H2 H 0.5282 0.9417 0.1352
C3 C 0.59494(19) 0.98814(19) 0.20446(7)
H3 H 0.5090 1.0729 0.2116
C4 C 0.71843(17) 0.93578(17) 0.23967(6)
C5 C 0.8386(2) 0.9739(2) 0.32022(7)
H4 H 0.8428 1.0628 0.3287
H5 H 0.9288 0.9128 0.3009
C6 C 0.83347(18) 0.89358(17) 0.37390(7)
C7 C 0.7051(2) 0.9008(2) 0.39523(7)
H6 H 0.6176 0.9566 0.3759
C8 C 0.7010(2) 0.8276(2) 0.44467(8)
H7 H 0.6122 0.8342 0.4580
C9 C 0.8294(2) 0.7454(2) 0.47374(8)
C10 C 0.9590(2) 0.7380(2) 0.45353(8)
H8 H 1.0461 0.6832 0.4732
C11 C 0.9608(2) 0.8113(2) 0.40423(8)
H9 H 1.0496 0.8052 0.3911
C12 C 0.7093(4) 0.6651(4) 0.54332(11)
H10 H 0.6735 0.6252 0.5161
H11 H 0.6351 0.7624 0.5506
H12 H 0.7319 0.6041 0.5768
N1 N 0.84907(17) 0.73637(16) 0.18670(7)
N2 N 0.84124(15) 0.81329(15) 0.23115(6)
N3 N 0.71485(16) 1.01291(15) 0.28347(6)
H13 H 0.6340 1.0900 0.2899
O1 O 0.8376(2) 0.67036(19) 0.52346(6)
C13 C 0.4090(2) 0.4192(2) 0.32310(8)
H14 H 0.4765 0.4134 0.3494
C14 C 0.2806(2) 0.5509(2) 0.31505(8)
H15 H 0.2620 0.6310 0.3357
C15 C 0.18461(19) 0.55917(19) 0.27681(8)
H16 H 0.0968 0.6445 0.2703
C16 C 0.22180(18) 0.43325(18) 0.24663(7)
C17 C 0.1490(2) 0.3073(2) 0.17973(8)
H17 H 0.0519 0.3168 0.1727
H18 H 0.1991 0.2228 0.2052
C18 C 0.23327(18) 0.27770(18) 0.12613(7)
C19 C 0.3470(2) 0.3127(2) 0.11518(7)
H19 H 0.3738 0.3567 0.1421
C20 C 0.4224(2) 0.2845(2) 0.06546(8)
H20 H 0.4988 0.3089 0.0594
C21 C 0.3835(2) 0.2203(2) 0.02514(8)
C22 C 0.2727(3) 0.1818(3) 0.03546(9)
H21 H 0.2467 0.1370 0.0086
C23 C 0.2001(2) 0.2095(2) 0.08547(9)
H22 H 0.1266 0.1812 0.0920
C24 C 0.5645(3) 0.2222(4) -0.03825(11)
H23 H 0.5989 0.1954 -0.0751
H24 H 0.6430 0.1666 -0.0124
H25 H 0.5332 0.3250 -0.0352
N4 N 0.43940(16) 0.30293(17) 0.29549(6)
N5 N 0.34526(15) 0.30897(15) 0.25608(6)
N6 N 0.13124(16) 0.43638(16) 0.20645(6)
H26 H 0.0591 0.5196 0.1962
O2 O 0.44547(19) 0.1924(2) -0.02649(6)
C25 C 0.9692(2) 0.3947(2) 0.33888(9)
H27 H 1.0373 0.3831 0.3659
C26 C 0.8502(3) 0.5327(2) 0.32878(9)
H28 H 0.8388 0.6121 0.3485
C27 C 0.7531(2) 0.54814(19) 0.29005(8)
H29 H 0.6725 0.6387 0.2817
C28 C 0.77627(18) 0.42281(18) 0.26213(7)
C29 C 0.6891(2) 0.3079(2) 0.19491(8)
H30 H 0.5910 0.3162 0.1926
H31 H 0.7490 0.2190 0.2170
C30 C 0.75293(18) 0.29266(19) 0.13758(7)
C31 C 0.7489(2) 0.4101(2) 0.10585(8)
H32 H 0.7084 0.5018 0.1208
C32 C 0.8031(2) 0.3958(2) 0.05241(8)
H33 H 0.7982 0.4771 0.0318
C33 C 0.8640(2) 0.2609(2) 0.02995(8)
C34 C 0.8686(2) 0.1416(2) 0.06093(8)
H34 H 0.9092 0.0499 0.0460
C35 C 0.81341(19) 0.15856(19) 0.11366(8)
H35 H 0.8167 0.0775 0.1339
C36 C 0.9327(3) 0.3494(3) -0.05330(10)
H36 H 0.9791 0.3152 -0.0881
H37 H 0.9896 0.3837 -0.0334
H38 H 0.8352 0.4283 -0.0596
N7 N 0.98913(17) 0.28034(17) 0.31190(7)
N8 N 0.89252(15) 0.29289(15) 0.27255(6)
N9 N 0.67961(17) 0.43192(18) 0.22318(7)
H39 H 0.6079 0.5169 0.2147
O3 O 0.92396(17) 0.23344(16) -0.02212(6)
C37 C 0.7108(2) 0.2755(2) 0.83158(9)
H40 H 0.6964 0.3409 0.8588
C38 C 0.8462(2) 0.1502(2) 0.82919(9)
H41 H 0.9211 0.1317 0.8542
C39 C 0.86532(19) 0.0564(2) 0.78953(8)
H42 H 0.9533 -0.0294 0.7866
C40 C 0.74780(17) 0.09255(17) 0.75271(7)
C41 C 0.6475(2) 0.0264(2) 0.67326(7)
H43 H 0.5522 0.0846 0.6899
H44 H 0.6534 -0.0676 0.6655
C42 C 0.65765(18) 0.10285(18) 0.61971(7)
C43 C 0.57760(19) 0.25285(19) 0.61066(7)
H45 H 0.5147 0.3079 0.6382
C44 C 0.5884(2) 0.32292(18) 0.56203(7)
H46 H 0.5332 0.4242 0.5570
C45 C 0.68056(19) 0.24388(18) 0.52064(7)
C46 C 0.7607(2) 0.0945(2) 0.52809(8)
H47 H 0.8225 0.0398 0.5003
C47 C 0.7486(2) 0.0261(2) 0.57739(8)
H48 H 0.8037 -0.0752 0.5823
C48 C 0.7717(3) 0.2490(3) 0.42918(9)
H49 H 0.8730 0.1972 0.4407
H50 H 0.7616 0.3184 0.3992
H51 H 0.7404 0.1804 0.4172
N10 N 0.60280(18) 0.30503(17) 0.79705(7)
N11 N 0.61978(15) 0.21435(16) 0.75654(6)
N12 N 0.76221(16) 0.00257(16) 0.71247(6)
H52 H 0.8454 -0.0747 0.7098
O4 O 0.68404(16) 0.32350(14) 0.47373(5)
loop_
_geom_bond_atom_site_label_1
_geom_bond_atom_site_label_2
_geom_bond_site_symmetry_1
_geom_bond_site_symmetry_2
C1 H1 1_555 1_555
C2 C1 1_555 1_555
H2 C2 1_555 1_555
C3 C2 1_555 1_555
H3 C3 1_555 1_555
C4 C3 1_555 1_555
C5 H4 1_555 1_555
H5 C5 1_555 1_555
C6 C5 1_555 1_555
C7 C6 1_555 1_555
H6 C7 1_555 1_555
C8 C7 1_555 1_555
H7 C8 1_555 1_555
C9 C8 1_555 1_555
C10 C9 1_555 1_555
H8 C10 1_555 1_555
C11 C6 1_555 1_555
H9 C11 1_555 1_555
C12 H10 1_555 1_555
H11 C12 1_555 1_555
H12 C12 1_555 1_555
N1 C1 1_555 1_555
N2 C4 1_555 1_555
N3 C4 1_555 1_555
H13 N3 1_555 1_555
O1 C9 1_555 1_555
C13 H14 1_555 1_555
C14 C13 1_555 1_555
H15 C14 1_555 1_555
C15 C14 1_555 1_555
H16 C15 1_555 1_555
C16 C15 1_555 1_555
C17 H17 1_555 1_555
H18 C17 1_555 1_555
C18 C17 1_555 1_555
C19 C18 1_555 1_555
H19 C19 1_555 1_555
C20 C19 1_555 1_555
H20 C20 1_555 1_555
C21 C20 1_555 1_555
C22 C21 1_555 1_555
H21 C22 1_555 1_555
C23 C18 1_555 1_555
H22 C23 1_555 1_555
C24 H23 1_555 1_555
H24 C24 1_555 1_555
H25 C24 1_555 1_555
N4 C13 1_555 1_555
N5 C16 1_555 1_555
N6 C16 1_555 1_555
H26 N6 1_555 1_555
O2 C21 1_555 1_555
C25 H27 1_555 1_555
C26 C25 1_555 1_555
H28 C26 1_555 1_555
C27 C26 1_555 1_555
H29 C27 1_555 1_555
C28 C27 1_555 1_555
C29 H30 1_555 1_555
H31 C29 1_555 1_555
C30 C29 1_555 1_555
C31 C30 1_555 1_555
H32 C31 1_555 1_555
C32 C31 1_555 1_555
H33 C32 1_555 1_555
C33 C32 1_555 1_555
C34 C33 1_555 1_555
H34 C34 1_555 1_555
C35 C30 1_555 1_555
H35 C35 1_555 1_555
C36 H36 1_555 1_555
H37 C36 1_555 1_555
H38 C36 1_555 1_555
N7 C25 1_555 1_555
N8 C28 1_555 1_555
N9 C28 1_555 1_555
H39 N9 1_555 1_555
O3 C33 1_555 1_555
C37 H40 1_555 1_555
C38 C37 1_555 1_555
H41 C38 1_555 1_555
C39 C38 1_555 1_555
H42 C39 1_555 1_555
C40 C39 1_555 1_555
C41 H43 1_555 1_555
H44 C41 1_555 1_555
C42 C41 1_555 1_555
C43 C42 1_555 1_555
H45 C43 1_555 1_555
C44 C43 1_555 1_555
H46 C44 1_555 1_555
C45 C44 1_555 1_555
C46 C45 1_555 1_555
H47 C46 1_555 1_555
C47 C42 1_555 1_555
H48 C47 1_555 1_555
C48 H49 1_555 1_555
H50 C48 1_555 1_555
H51 C48 1_555 1_555
N10 C37 1_555 1_555
N11 C40 1_555 1_555
N12 C40 1_555 1_555
H52 N12 1_555 1_555
O4 C45 1_555 1_555
C5 N3 1_555 1_555
C10 C11 1_555 1_555
C12 O1 1_555 1_555
N1 N2 1_555 1_555
C17 N6 1_555 1_555
C22 C23 1_555 1_555
C24 O2 1_555 1_555
N4 N5 1_555 1_555
C29 N9 1_555 1_555
C34 C35 1_555 1_555
C36 O3 1_555 1_555
N7 N8 1_555 1_555
C41 N12 1_555 1_555
C46 C47 1_555 1_555
C48 O4 1_555 1_555
N10 N11 1_555 1_555

#END
