
#######################################################################
#
#                 Cambridge Crystallographic Data Centre
#                                CCDC 
#
#######################################################################
#
# If this CIF has been generated from an entry in the Cambridge 
# Structural Database, then it will include bibliographic, chemical, 
# crystal, experimental, refinement or atomic coordinate data resulting 
# from the CCDC's data processing and validation procedures.
#
#######################################################################

data_XITCUB
_chemical_formula_moiety         'C18 H17 N3 O2'
_chemical_name_systematic        
6-methyl-5-phenyl-1,2,5,6-tetrahydro-3H,11H-pyrazolo[1,2-c][1,3,4]benzotriazepine-3,11-dione
_symmetry_cell_setting           triclinic
_symmetry_space_group_name_H-M   'P -1'
_symmetry_Int_Tables_number      2
_space_group_name_Hall           '-P 1'
loop_
_symmetry_equiv_pos_site_id
_symmetry_equiv_pos_as_xyz
1 x,y,z
2 -x,-y,-z
_cell_length_a                   8.285(5)
_cell_length_b                   9.935(6)
_cell_length_c                   10.241(6)
_cell_angle_alpha                67.925(6)
_cell_angle_beta                 75.188(7)
_cell_angle_gamma                78.165(7)
_cell_volume                     749.587
_exptl_crystal_colour            colorless
_exptl_crystal_description       block
_cell_formula_units_Z            2
loop_
_atom_site_label
_atom_site_type_symbol
_atom_site_fract_x
_atom_site_fract_y
_atom_site_fract_z
O1 O 0.03583(13) 0.63814(11) 0.05533(11)
O2 O 0.18633(15) 0.33347(12) 0.57826(11)
N1 N 0.18692(13) 0.46922(12) 0.21360(12)
N2 N 0.24696(12) 0.45461(11) 0.33656(11)
N3 N 0.47275(12) 0.58764(11) 0.18771(11)
C1 C 0.12980(15) 0.61201(14) 0.13757(13)
C2 C 0.19716(15) 0.73044(13) 0.15773(12)
C3 C 0.09052(17) 0.86158(15) 0.14377(14)
H1 H -0.0184 0.8674 0.1314
C4 C 0.14361(19) 0.98320(15) 0.14802(16)
H2 H 0.0712 1.0698 0.1391
C5 C 0.30553(19) 0.97360(15) 0.16574(16)
H3 H 0.3429 1.0550 0.1673
C6 C 0.41343(17) 0.84422(14) 0.18130(14)
H4 H 0.5221 0.8401 0.1934
C7 C 0.36117(15) 0.71962(13) 0.17909(12)
C8 C 0.42647(15) 0.46347(13) 0.31844(13)
H5 H 0.4423 0.4841 0.4004
C9 C 0.15498(17) 0.36774(14) 0.45983(15)
C10 C 0.01654(19) 0.32396(17) 0.41754(18)
H6 H -0.0895 0.3836 0.4351
H7 H 0.0022 0.2217 0.4700
C11 C 0.07922(18) 0.35130(15) 0.25798(18)
H8 H 0.1436 0.2642 0.2409
H9 H -0.0135 0.3829 0.2072
C12 C 0.65331(16) 0.60176(16) 0.15546(16)
H10 H 0.6780 0.6852 0.0706
H11 H 0.7175 0.5151 0.1399
H12 H 0.6823 0.6142 0.2348
C13 C 0.53179(15) 0.31973(13) 0.31633(13)
C14 C 0.59663(18) 0.22980(16) 0.43626(16)
H13 H 0.5812 0.2611 0.5140
C15 C 0.6843(2) 0.09357(17) 0.44207(18)
H14 H 0.7277 0.0344 0.5232
C16 C 0.70724(19) 0.04562(16) 0.32763(18)
H15 H 0.7645 -0.0464 0.3320
C17 C 0.64463(19) 0.13507(16) 0.20680(16)
H16 H 0.6610 0.1035 0.1291
C18 C 0.55744(17) 0.27184(15) 0.20023(14)
H17 H 0.5161 0.3316 0.1182
loop_
_geom_bond_atom_site_label_1
_geom_bond_atom_site_label_2
_geom_bond_site_symmetry_1
_geom_bond_site_symmetry_2
O1 C1 1_555 1_555
O2 C9 1_555 1_555
N1 N2 1_555 1_555
N2 C8 1_555 1_555
N3 C7 1_555 1_555
C1 N1 1_555 1_555
C2 C1 1_555 1_555
C3 C2 1_555 1_555
H1 C3 1_555 1_555
C4 C3 1_555 1_555
H2 C4 1_555 1_555
C5 C4 1_555 1_555
H3 C5 1_555 1_555
C6 C5 1_555 1_555
H4 C6 1_555 1_555
C7 C2 1_555 1_555
C8 N3 1_555 1_555
H5 C8 1_555 1_555
C9 N2 1_555 1_555
C10 C9 1_555 1_555
H6 C10 1_555 1_555
H7 C10 1_555 1_555
C11 N1 1_555 1_555
H8 C11 1_555 1_555
H9 C11 1_555 1_555
C12 N3 1_555 1_555
H10 C12 1_555 1_555
H11 C12 1_555 1_555
H12 C12 1_555 1_555
C13 C8 1_555 1_555
C14 C13 1_555 1_555
H13 C14 1_555 1_555
C15 C14 1_555 1_555
H14 C15 1_555 1_555
C16 C15 1_555 1_555
H15 C16 1_555 1_555
C17 C16 1_555 1_555
H16 C17 1_555 1_555
C18 C13 1_555 1_555
H17 C18 1_555 1_555
C6 C7 1_555 1_555
C10 C11 1_555 1_555
C17 C18 1_555 1_555

#END
