
#######################################################################
#
#                 Cambridge Crystallographic Data Centre
#                                CCDC 
#
#######################################################################
#
# If this CIF has been generated from an entry in the Cambridge 
# Structural Database, then it will include bibliographic, chemical, 
# crystal, experimental, refinement or atomic coordinate data resulting 
# from the CCDC's data processing and validation procedures.
#
#######################################################################

data_XITGEO
_chemical_formula_moiety         'C8 H12 O2'
_chemical_name_systematic        '3,5-Dimethylhexa-2,4-dienoic acid'
_symmetry_cell_setting           monoclinic
_symmetry_space_group_name_H-M   'P 21/c'
_symmetry_Int_Tables_number      14
_space_group_name_Hall           '-P 2ybc'
loop_
_symmetry_equiv_pos_site_id
_symmetry_equiv_pos_as_xyz
1 x,y,z
2 -x,1/2+y,1/2-z
3 -x,-y,-z
4 x,1/2-y,1/2+z
_cell_length_a                   7.3045(4)
_cell_length_b                   7.2696(4)
_cell_length_c                   15.0537(9)
_cell_angle_alpha                90
_cell_angle_beta                 94.071(3)
_cell_angle_gamma                90
_cell_volume                     797.346
_exptl_crystal_colour            colorless
_exptl_crystal_description       plate
_cell_formula_units_Z            4
loop_
_atom_site_label
_atom_site_type_symbol
_atom_site_fract_x
_atom_site_fract_y
_atom_site_fract_z
O1 O 0.38936(18) 0.04504(17) 0.40318(8)
O2 O 0.5172(2) 0.24548(17) 0.50113(8)
H1 H 0.5473 0.1477 0.5280
C1 C 0.1457(3) 0.0165(3) 0.11140(13)
H2 H 0.2048 0.0151 0.0550
H3 H 0.0152 -0.0131 0.1003
H4 H 0.2042 -0.0750 0.1519
C2 C 0.1654(2) 0.2037(3) 0.15270(12)
C3 C 0.2554(2) 0.2205(2) 0.23378(12)
H5 H 0.2985 0.1077 0.2595
C4 C 0.2977(2) 0.3822(2) 0.28846(12)
C5 C 0.3772(2) 0.3698(2) 0.37298(12)
H6 H 0.4045 0.4835 0.4021
C6 C 0.4256(2) 0.2055(2) 0.42436(12)
C7 C 0.0747(3) 0.3530(3) 0.09625(14)
H7 H -0.0110 0.4210 0.1312
H8 H 0.0076 0.2980 0.0441
H9 H 0.1684 0.4373 0.0766
C8 C 0.2610(3) 0.5727(3) 0.25288(13)
H10 H 0.3120 0.6633 0.2960
H11 H 0.1283 0.5916 0.2429
H12 H 0.3187 0.5875 0.1965
loop_
_geom_bond_atom_site_label_1
_geom_bond_atom_site_label_2
_geom_bond_site_symmetry_1
_geom_bond_site_symmetry_2
O1 C6 1_555 1_555
O2 H1 1_555 1_555
C1 H2 1_555 1_555
H3 C1 1_555 1_555
H4 C1 1_555 1_555
C2 C1 1_555 1_555
C3 C2 1_555 1_555
H5 C3 1_555 1_555
C4 C3 1_555 1_555
C5 C4 1_555 1_555
H6 C5 1_555 1_555
C6 O2 1_555 1_555
C7 C2 1_555 1_555
H7 C7 1_555 1_555
H8 C7 1_555 1_555
H9 C7 1_555 1_555
C8 C4 1_555 1_555
H10 C8 1_555 1_555
H11 C8 1_555 1_555
H12 C8 1_555 1_555
C5 C6 1_555 1_555

#END
