
#######################################################################
#
#                 Cambridge Crystallographic Data Centre
#                                CCDC 
#
#######################################################################
#
# If this CIF has been generated from an entry in the Cambridge 
# Structural Database, then it will include bibliographic, chemical, 
# crystal, experimental, refinement or atomic coordinate data resulting 
# from the CCDC's data processing and validation procedures.
#
#######################################################################

data_XITSIE
_chemical_formula_moiety         'C17 H12 N2'
_chemical_name_systematic        2,3-Diphenylcyclopropane-1,1-dicarbonitrile
_symmetry_cell_setting           triclinic
_symmetry_space_group_name_H-M   'P -1'
_symmetry_Int_Tables_number      2
_space_group_name_Hall           '-P 1'
loop_
_symmetry_equiv_pos_site_id
_symmetry_equiv_pos_as_xyz
1 x,y,z
2 -x,-y,-z
_cell_length_a                   7.8303(9)
_cell_length_b                   8.7435(10)
_cell_length_c                   10.6132(11)
_cell_angle_alpha                89.682(9)
_cell_angle_beta                 88.864(9)
_cell_angle_gamma                67.949(11)
_cell_volume                     673.338
_cell_formula_units_Z            2
loop_
_atom_site_label
_atom_site_type_symbol
_atom_site_fract_x
_atom_site_fract_y
_atom_site_fract_z
C1 C 0.5507(3) 0.4268(3) 0.7218(2)
H1 H 0.5831 0.4971 0.7729
C2 C 0.3911(3) 0.4876(3) 0.6549(2)
H2 H 0.3165 0.5989 0.6605
C3 C 0.3409(3) 0.3851(3) 0.5799(2)
H3 H 0.2326 0.4267 0.5346
C4 C 0.4509(3) 0.2211(3) 0.5718(2)
H4 H 0.4169 0.1511 0.5212
C5 C 0.6111(3) 0.1599(3) 0.6380(2)
H5 H 0.6851 0.0485 0.6318
C6 C 0.6638(2) 0.2617(2) 0.71375(19)
C7 C 0.8383(2) 0.1938(2) 0.7842(2)
H6 H 0.8379 0.1180 0.8525
C8 C 1.0235(2) 0.1446(2) 0.70951(19)
C9 C 1.0155(3) 0.1845(3) 0.5775(2)
C10 C 1.1735(3) -0.0047(3) 0.7425(2)
C11 C 0.9584(3) 0.2879(2) 0.80537(19)
H7 H 0.9147 0.3983 0.7678
C12 C 1.0628(3) 0.2716(2) 0.9240(2)
C13 C 1.2447(3) 0.2565(3) 0.9206(2)
H8 H 1.3033 0.2565 0.8435
C14 C 1.3399(3) 0.2414(3) 1.0304(2)
H9 H 1.4632 0.2291 1.0270
C15 C 1.2547(3) 0.2442(3) 1.1447(2)
H10 H 1.3194 0.2345 1.2187
C16 C 1.0743(3) 0.2614(3) 1.1494(2)
H11 H 1.0157 0.2639 1.2269
C17 C 0.9781(3) 0.2753(3) 1.0394(2)
H12 H 0.8550 0.2871 1.0434
N1 N 1.0101(3) 0.2156(3) 0.4728(2)
N2 N 1.2926(3) -0.1220(3) 0.7692(2)
loop_
_geom_bond_atom_site_label_1
_geom_bond_atom_site_label_2
_geom_bond_site_symmetry_1
_geom_bond_site_symmetry_2
C1 H1 1_555 1_555
C2 C1 1_555 1_555
H2 C2 1_555 1_555
C3 C2 1_555 1_555
H3 C3 1_555 1_555
C4 C3 1_555 1_555
H4 C4 1_555 1_555
C5 C4 1_555 1_555
H5 C5 1_555 1_555
C6 C1 1_555 1_555
C7 C6 1_555 1_555
H6 C7 1_555 1_555
C8 C7 1_555 1_555
C9 C8 1_555 1_555
C10 C8 1_555 1_555
C11 C7 1_555 1_555
H7 C11 1_555 1_555
C12 C11 1_555 1_555
C13 C12 1_555 1_555
H8 C13 1_555 1_555
C14 C13 1_555 1_555
H9 C14 1_555 1_555
C15 C14 1_555 1_555
H10 C15 1_555 1_555
C16 C15 1_555 1_555
H11 C16 1_555 1_555
C17 C12 1_555 1_555
H12 C17 1_555 1_555
N1 C9 1_555 1_555
N2 C10 1_555 1_555
C5 C6 1_555 1_555
C8 C11 1_555 1_555
C16 C17 1_555 1_555

#END
