
#######################################################################
#
#                 Cambridge Crystallographic Data Centre
#                                CCDC 
#
#######################################################################
#
# If this CIF has been generated from an entry in the Cambridge 
# Structural Database, then it will include bibliographic, chemical, 
# crystal, experimental, refinement or atomic coordinate data resulting 
# from the CCDC's data processing and validation procedures.
#
#######################################################################

data_XITTOM
_chemical_formula_moiety         'C17 H21 Cl1 N2 O3'
_chemical_name_systematic        
1-(4-chlorophenyl)-4,4-diethyl-N,N-dimethyl-3,5-dioxoprolinamide
_symmetry_cell_setting           orthorhombic
_symmetry_space_group_name_H-M   'P b c a'
_symmetry_Int_Tables_number      61
_space_group_name_Hall           '-P 2ac 2ab'
loop_
_symmetry_equiv_pos_site_id
_symmetry_equiv_pos_as_xyz
1 x,y,z
2 1/2-x,-y,1/2+z
3 1/2+x,1/2-y,-z
4 -x,1/2+y,1/2-z
5 -x,-y,-z
6 1/2+x,y,1/2-z
7 1/2-x,1/2+y,z
8 x,1/2-y,1/2+z
_cell_length_a                   15.199(2)
_cell_length_b                   8.9579(13)
_cell_length_c                   25.874(4)
_cell_angle_alpha                90
_cell_angle_beta                 90
_cell_angle_gamma                90
_cell_volume                     3522.77
_exptl_crystal_colour            colorless
_exptl_crystal_description       block
_cell_formula_units_Z            8
loop_
_atom_site_label
_atom_site_type_symbol
_atom_site_fract_x
_atom_site_fract_y
_atom_site_fract_z
Cl1 Cl 0.22313(6) 0.03650(10) 0.62558(3)
O1 O 0.18183(14) -0.0522(2) 0.37593(7)
O2 O -0.01537(14) 0.2854(2) 0.43273(8)
N1 N 0.02114(16) 0.5256(2) 0.41773(9)
C1 C 0.15762(19) 0.0763(3) 0.36909(11)
N2 N 0.14636(15) 0.1781(2) 0.40736(8)
C2 C 0.16399(17) 0.1467(3) 0.46035(10)
C3 C 0.03571(19) 0.3785(3) 0.41548(11)
C4 C 0.1994(2) 0.0799(3) 0.56166(11)
C5 C 0.23237(18) 0.2181(3) 0.48591(11)
H1 H 0.2661 0.2890 0.4687
C6 C 0.11331(18) 0.0419(3) 0.48637(10)
H2 H 0.0674 -0.0060 0.4694
O3 O 0.07623(16) 0.3943(2) 0.30366(8)
C7 C 0.13088(18) 0.0088(3) 0.53724(11)
H3 H 0.0968 -0.0608 0.5549
C8 C 0.12128(18) 0.3266(3) 0.38968(10)
H4 H 0.1688 0.3983 0.3960
C9 C 0.1081(2) 0.3027(3) 0.33188(11)
C10 C 0.1393(2) 0.1477(3) 0.31737(10)
C11 C 0.25027(19) 0.1840(3) 0.53659(11)
H5 H 0.2964 0.2309 0.5538
C12 C 0.0720(2) 0.0602(4) 0.28593(13)
H6 H 0.0597 0.1139 0.2542
H7 H 0.0969 -0.0359 0.2767
C13 C 0.2303(2) 0.1618(3) 0.28927(12)
H8 H 0.2686 0.2235 0.3103
H9 H 0.2566 0.0634 0.2872
C14 C -0.0606(2) 0.5786(3) 0.44054(14)
H10 H -0.1001 0.6093 0.4136
H11 H -0.0485 0.6617 0.4628
H12 H -0.0871 0.4996 0.4602
C15 C 0.0762(2) 0.6407(3) 0.39439(14)
H13 H 0.1326 0.5993 0.3860
H14 H 0.0836 0.7216 0.4183
H15 H 0.0485 0.6770 0.3635
C16 C -0.0135(2) 0.0356(4) 0.31504(14)
H16 H -0.0531 -0.0216 0.2940
H17 H -0.0397 0.1303 0.3230
H18 H -0.0018 -0.0175 0.3465
C17 C 0.2269(2) 0.2273(4) 0.23545(13)
H19 H 0.1915 0.1648 0.2137
H20 H 0.2855 0.2332 0.2216
H21 H 0.2018 0.3255 0.2369
loop_
_geom_bond_atom_site_label_1
_geom_bond_atom_site_label_2
_geom_bond_site_symmetry_1
_geom_bond_site_symmetry_2
Cl1 C4 1_555 1_555
O1 C1 1_555 1_555
O2 C3 1_555 1_555
N1 C3 1_555 1_555
C1 N2 1_555 1_555
N2 C2 1_555 1_555
C2 C5 1_555 1_555
C3 C8 1_555 1_555
C4 C7 1_555 1_555
C5 H1 1_555 1_555
C6 C2 1_555 1_555
H2 C6 1_555 1_555
O3 C9 1_555 1_555
C7 C6 1_555 1_555
H3 C7 1_555 1_555
C8 N2 1_555 1_555
H4 C8 1_555 1_555
C9 C8 1_555 1_555
C10 C1 1_555 1_555
C11 C4 1_555 1_555
H5 C11 1_555 1_555
C12 C10 1_555 1_555
H6 C12 1_555 1_555
H7 C12 1_555 1_555
C13 C10 1_555 1_555
H8 C13 1_555 1_555
H9 C13 1_555 1_555
C14 N1 1_555 1_555
H10 C14 1_555 1_555
H11 C14 1_555 1_555
H12 C14 1_555 1_555
C15 N1 1_555 1_555
H13 C15 1_555 1_555
H14 C15 1_555 1_555
H15 C15 1_555 1_555
C16 C12 1_555 1_555
H16 C16 1_555 1_555
H17 C16 1_555 1_555
H18 C16 1_555 1_555
C17 C13 1_555 1_555
H19 C17 1_555 1_555
H20 C17 1_555 1_555
H21 C17 1_555 1_555
C5 C11 1_555 1_555
C9 C10 1_555 1_555

#END
