
#######################################################################
#
#                 Cambridge Crystallographic Data Centre
#                                CCDC 
#
#######################################################################
#
# If this CIF has been generated from an entry in the Cambridge 
# Structural Database, then it will include bibliographic, chemical, 
# crystal, experimental, refinement or atomic coordinate data resulting 
# from the CCDC's data processing and validation procedures.
#
#######################################################################

data_XIVBUB
_chemical_formula_moiety         'C18 H15 N3 O3'
_chemical_name_systematic        
(4S)-3-Methyl-1',2',6,7,8,9-hexahydro-5H-spiro[[1,2]oxazolo[5,4-b]quinoline-4,3'-indole]-2',5-dione
_symmetry_cell_setting           monoclinic
_symmetry_space_group_name_H-M   'P 21/c'
_symmetry_Int_Tables_number      14
_space_group_name_Hall           '-P 2ybc'
loop_
_symmetry_equiv_pos_site_id
_symmetry_equiv_pos_as_xyz
1 x,y,z
2 -x,1/2+y,1/2-z
3 -x,-y,-z
4 x,1/2-y,1/2+z
_cell_length_a                   10.9160(3)
_cell_length_b                   11.9027(3)
_cell_length_c                   12.4848(4)
_cell_angle_alpha                90
_cell_angle_beta                 111.6020(10)
_cell_angle_gamma                90
_cell_volume                     1508.21
_exptl_crystal_colour            colorless
_exptl_crystal_description       block
_cell_formula_units_Z            4
_exptl_crystal_recrystallization_method ethanol
loop_
_atom_site_label
_atom_site_type_symbol
_atom_site_fract_x
_atom_site_fract_y
_atom_site_fract_z
C1 C 0.75216(16) 1.11349(13) 0.22069(13)
C2 C 0.78149(13) 1.02411(12) 0.30195(12)
C3 C 0.90595(14) 0.99600(13) 0.31647(13)
C4 C 0.91557(13) 0.84446(12) 0.43585(12)
C5 C 0.99809(15) 0.74920(14) 0.50327(15)
H1 H 1.0527 0.7208 0.4631
H2 H 1.0559 0.7765 0.5780
C6 C 0.9153(2) 0.65604(17) 0.5196(2)
H3 H 0.9715 0.6024 0.5742
H4 H 0.8730 0.6175 0.4468
C7 C 0.8122(2) 0.69692(18) 0.5624(2)
H5 H 0.8541 0.7163 0.6432
H6 H 0.7508 0.6362 0.5565
C8 C 0.73613(14) 0.79727(13) 0.49828(13)
C9 C 0.78951(13) 0.86471(11) 0.42928(12)
C10 C 0.70456(12) 0.96318(11) 0.36267(11)
C11 C 0.56686(13) 0.93371(12) 0.27954(12)
C12 C 0.52498(16) 0.86478(14) 0.18423(13)
H7 H 0.5849 0.8222 0.1644
C13 C 0.39008(18) 0.86039(15) 0.11791(15)
H8 H 0.3598 0.8141 0.0535
C14 C 0.30162(17) 0.92411(16) 0.14721(16)
H9 H 0.2125 0.9201 0.1017
C15 C 0.34238(15) 0.99406(15) 0.24296(15)
H10 H 0.2825 1.0366 0.2628
C16 C 0.47563(13) 0.99759(12) 0.30727(12)
C17 C 0.67211(13) 1.04533(11) 0.44623(12)
C18 C 0.62743(19) 1.17717(16) 0.16867(16)
H11 H 0.6439 1.2452 0.1349
H12 H 0.5932 1.1953 0.2272
H13 H 0.5644 1.1322 0.1102
N1 N 0.85270(15) 1.13783(13) 0.19114(13)
N2 N 0.97711(12) 0.91031(12) 0.38120(12)
H14 H 1.0571 0.8979 0.3876
N3 N 0.54091(11) 1.06336(10) 0.40459(10)
H15 H 0.5020 1.1098 0.4343
O1 O 0.95520(11) 1.05973(11) 0.25399(11)
O2 O 0.63136(11) 0.82301(10) 0.50785(11)
O3 O 0.75076(10) 1.08902(10) 0.53253(9)
loop_
_geom_bond_atom_site_label_1
_geom_bond_atom_site_label_2
_geom_bond_site_symmetry_1
_geom_bond_site_symmetry_2
C1 C2 1_555 1_555
C2 C3 1_555 1_555
C3 N2 1_555 1_555
C4 C5 1_555 1_555
C5 H1 1_555 1_555
H2 C5 1_555 1_555
C6 C5 1_555 1_555
H3 C6 1_555 1_555
H4 C6 1_555 1_555
C7 C6 1_555 1_555
H5 C7 1_555 1_555
H6 C7 1_555 1_555
C8 C7 1_555 1_555
C9 C4 1_555 1_555
C10 C2 1_555 1_555
C11 C10 1_555 1_555
C12 C11 1_555 1_555
H7 C12 1_555 1_555
C13 C12 1_555 1_555
H8 C13 1_555 1_555
C14 C13 1_555 1_555
H9 C14 1_555 1_555
C15 C14 1_555 1_555
H10 C15 1_555 1_555
C16 C11 1_555 1_555
C17 C10 1_555 1_555
C18 C1 1_555 1_555
H11 C18 1_555 1_555
H12 C18 1_555 1_555
H13 C18 1_555 1_555
N1 C1 1_555 1_555
N2 C4 1_555 1_555
H14 N2 1_555 1_555
N3 C16 1_555 1_555
H15 N3 1_555 1_555
O1 C3 1_555 1_555
O2 C8 1_555 1_555
O3 C17 1_555 1_555
C8 C9 1_555 1_555
C9 C10 1_555 1_555
C15 C16 1_555 1_555
C17 N3 1_555 1_555
N1 O1 1_555 1_555

#END
