
#######################################################################
#
#                 Cambridge Crystallographic Data Centre
#                                CCDC 
#
#######################################################################
#
# If this CIF has been generated from an entry in the Cambridge 
# Structural Database, then it will include bibliographic, chemical, 
# crystal, experimental, refinement or atomic coordinate data resulting 
# from the CCDC's data processing and validation procedures.
#
#######################################################################

data_XIVBOV
_chemical_formula_moiety         'C8 H5 O4 1-,C5 H6 N5 1+,C3 H7 N1 O1'
_chemical_name_systematic        
'Adenin-1-ium hydrogen isophthalate dimethylformamide solvate'
_symmetry_cell_setting           orthorhombic
_symmetry_space_group_name_H-M   'F d d 2'
_symmetry_Int_Tables_number      43
_space_group_name_Hall           'F 2 -2d'
loop_
_symmetry_equiv_pos_site_id
_symmetry_equiv_pos_as_xyz
1 x,y,z
2 -x,-y,z
3 1/4-x,1/4+y,1/4+z
4 3/4+x,3/4-y,1/4+z
5 x,1/2+y,1/2+z
6 -x,1/2-y,1/2+z
7 1/4-x,3/4+y,3/4+z
8 3/4+x,1/4-y,3/4+z
9 1/2+x,y,1/2+z
10 1/2-x,-y,1/2+z
11 3/4-x,1/4+y,3/4+z
12 1/4+x,3/4-y,3/4+z
13 1/2+x,1/2+y,z
14 1/2-x,1/2-y,z
15 3/4-x,3/4+y,1/4+z
16 1/4+x,1/4-y,1/4+z
_cell_length_a                   38.307(18)
_cell_length_b                   46.05(2)
_cell_length_c                   3.7832(18)
_cell_angle_alpha                90
_cell_angle_beta                 90
_cell_angle_gamma                90
_cell_volume                     6673.71
_exptl_crystal_colour            colorless
_exptl_crystal_description       plate
_cell_formula_units_Z            16
loop_
_atom_site_label
_atom_site_type_symbol
_atom_site_fract_x
_atom_site_fract_y
_atom_site_fract_z
C1 C 0.05925(14) 0.13091(12) 0.512(2)
C2 C 0.04322(13) 0.15984(12) 0.4520(16)
C3 C 0.06001(14) 0.18481(13) 0.566(2)
H1 H 0.0822 0.1834 0.6767
C4 C 0.04487(14) 0.21170(12) 0.5214(17)
H2 H 0.0564 0.2287 0.6040
C5 C 0.01246(13) 0.21387(12) 0.3538(18)
H3 H 0.0019 0.2323 0.3205
C6 C -0.00425(13) 0.18877(12) 0.2360(18)
C7 C 0.01070(13) 0.16197(12) 0.2957(19)
H4 H -0.0014 0.1448 0.2289
C8 C -0.03904(14) 0.19030(12) 0.0547(19)
O1 O 0.08756(10) 0.12818(9) 0.6562(15)
O2 O 0.04090(10) 0.10943(9) 0.3921(16)
H5 H 0.047(3) 0.0918(8) 0.40(4)
O3 O -0.05527(10) 0.16840(9) -0.0170(16)
O4 O -0.04896(10) 0.21663(9) -0.0238(14)
C9 C 0.12077(13) 0.05012(13) 0.7880(19)
C10 C 0.13647(13) 0.00114(14) 0.7890(18)
H6 H 0.1535 -0.0127 0.8607
C11 C 0.08680(14) 0.01200(13) 0.5326(19)
C12 C 0.04224(15) 0.03628(13) 0.335(2)
H7 H 0.0206 0.0404 0.2233
C13 C 0.09038(13) 0.04118(13) 0.604(2)
N1 N 0.14293(12) 0.02850(11) 0.8754(17)
H8 H 0.1621 0.0327 0.9926
N2 N 0.10912(11) -0.00944(11) 0.6145(17)
N3 N 0.05564(12) 0.00939(11) 0.3618(16)
H9 H 0.0461 -0.0068 0.2839
N4 N 0.06190(12) 0.05623(11) 0.4781(17)
N5 N 0.12746(11) 0.07718(11) 0.8667(17)
H10 H 0.1468 0.0817 0.9795
H11 H 0.1126 0.0909 0.8070
C14 C 0.18697(14) 0.19317(13) 0.289(2)
H13 H 0.1657 0.2008 0.3782
C15 C 0.21815(16) 0.15444(15) 0.010(2)
H14 H 0.2141 0.1338 -0.0415
H15 H 0.2368 0.1563 0.1853
H16 H 0.2250 0.1645 -0.2079
C16 C 0.15440(17) 0.15073(17) 0.128(3)
H17 H 0.1355 0.1615 0.2439
H18 H 0.1577 0.1321 0.2481
H19 H 0.1483 0.1473 -0.1198
N6 N 0.18633(12) 0.16733(11) 0.1475(19)
O5 O 0.21343(10) 0.20846(9) 0.3152(15)
H12? H 0.0579 0.0750 0.4911
loop_
_geom_bond_atom_site_label_1
_geom_bond_atom_site_label_2
_geom_bond_site_symmetry_1
_geom_bond_site_symmetry_2
C1 C2 1_555 1_555
C2 C3 1_555 1_555
C3 H1 1_555 1_555
C4 C3 1_555 1_555
H2 C4 1_555 1_555
C5 C4 1_555 1_555
H3 C5 1_555 1_555
C6 C5 1_555 1_555
C7 C2 1_555 1_555
H4 C7 1_555 1_555
C8 C6 1_555 1_555
O1 C1 1_555 1_555
O2 C1 1_555 1_555
H5 O2 1_555 1_555
O3 C8 1_555 1_555
O4 C8 1_555 1_555
C9 C13 1_555 1_555
C10 H6 1_555 1_555
C11 C13 1_555 1_555
C12 H7 1_555 1_555
C13 N4 1_555 1_555
N1 C9 1_555 1_555
H8 N1 1_555 1_555
N2 C10 1_555 1_555
N3 C11 1_555 1_555
H9 N3 1_555 1_555
N4 C12 1_555 1_555
N5 C9 1_555 1_555
H10 N5 1_555 1_555
H11 N5 1_555 1_555
C14 H13 1_555 1_555
C15 H14 1_555 1_555
H15 C15 1_555 1_555
H16 C15 1_555 1_555
C16 H17 1_555 1_555
H18 C16 1_555 1_555
H19 C16 1_555 1_555
N6 C14 1_555 1_555
O5 C14 1_555 1_555
C6 C7 1_555 1_555
C10 N1 1_555 1_555
C11 N2 1_555 1_555
C12 N3 1_555 1_555
C15 N6 1_555 1_555
C16 N6 1_555 1_555

#END
