
#######################################################################
#
#                 Cambridge Crystallographic Data Centre
#                                CCDC 
#
#######################################################################
#
# If this CIF has been generated from an entry in the Cambridge 
# Structural Database, then it will include bibliographic, chemical, 
# crystal, experimental, refinement or atomic coordinate data resulting 
# from the CCDC's data processing and validation procedures.
#
#######################################################################

data_XIVDOW
_chemical_formula_moiety         'C16 H16 O4'
_chemical_name_systematic        
(1S*,2R*)-6,6-Dimethyl-1-phenyl-2-vinyl-5,7-dioxaspiro[2.5]octane-4,8-dione
_symmetry_cell_setting           triclinic
_symmetry_space_group_name_H-M   'P -1'
_symmetry_Int_Tables_number      2
_space_group_name_Hall           '-P 1'
loop_
_symmetry_equiv_pos_site_id
_symmetry_equiv_pos_as_xyz
1 x,y,z
2 -x,-y,-z
_cell_length_a                   8.4625(4)
_cell_length_b                   9.1299(4)
_cell_length_c                   10.2463(4)
_cell_angle_alpha                79.825(1)
_cell_angle_beta                 66.563(1)
_cell_angle_gamma                76.482(1)
_cell_volume                     703.099
_exptl_crystal_colour            colorless
_exptl_crystal_description       polyhedron
_chemical_melting_point          '105-107 deg.C'
_cell_formula_units_Z            2
_exptl_crystal_recrystallization_method 'diethyl ether/hexanes'
loop_
_atom_site_label
_atom_site_type_symbol
_atom_site_fract_x
_atom_site_fract_y
_atom_site_fract_z
O1 O 0.32918(11) 0.52677(9) 0.41399(8)
C1 C 0.40642(14) 0.56770(12) 0.26204(11)
O2 O 0.51142(9) 0.43585(8) 0.19103(8)
C2 C 0.44468(13) 0.30757(12) 0.22151(10)
C3 C 0.29112(13) 0.29566(11) 0.35726(10)
C4 C 0.24271(14) 0.40898(13) 0.45977(11)
C5 C 0.53212(19) 0.66942(16) 0.24194(17)
H1 H 0.4682 0.7600 0.2921
H2 H 0.5893 0.6991 0.1398
H3 H 0.6209 0.6155 0.2808
C6 C 0.26624(15) 0.63757(13) 0.20399(12)
H4 H 0.1917 0.5639 0.2186
H5 H 0.3202 0.6677 0.1016
H6 H 0.1951 0.7269 0.2538
O3 O 0.51587(10) 0.20959(8) 0.14205(8)
O4 O 0.13766(11) 0.40101(10) 0.58041(8)
C7 C 0.13528(13) 0.23306(12) 0.35467(11)
H7 H 0.0209 0.2701 0.4308
C8 C 0.26050(14) 0.13152(12) 0.41282(11)
H8 H 0.3438 0.0550 0.3468
C9 C 0.11712(13) 0.21786(11) 0.21910(11)
C10 C -0.00328(14) 0.32640(12) 0.17706(11)
H9 H -0.0660 0.4098 0.2319
C11 C -0.03277(15) 0.31426(13) 0.05609(12)
H10 H -0.1154 0.3891 0.0283
C12 C 0.05807(16) 0.19329(13) -0.02408(13)
H11 H 0.0385 0.1851 -0.1074
C13 C 0.17754(16) 0.08416(13) 0.01694(14)
H12 H 0.2393 0.0006 -0.0379
C14 C 0.20733(15) 0.09623(12) 0.13724(13)
H13 H 0.2900 0.0210 0.1645
C15 C 0.20804(16) 0.07320(14) 0.56547(12)
H14 H 0.1163 0.1336 0.6339
C16 C 0.28138(17) -0.05703(15) 0.61093(14)
H15 H 0.3734 -0.1197 0.5447
H16 H 0.2427 -0.0891 0.7102
loop_
_geom_bond_atom_site_label_1
_geom_bond_atom_site_label_2
_geom_bond_site_symmetry_1
_geom_bond_site_symmetry_2
O1 C1 1_555 1_555
C1 O2 1_555 1_555
O2 C2 1_555 1_555
C2 C3 1_555 1_555
C3 C4 1_555 1_555
C4 O1 1_555 1_555
C5 C1 1_555 1_555
H1 C5 1_555 1_555
H2 C5 1_555 1_555
H3 C5 1_555 1_555
C6 C1 1_555 1_555
H4 C6 1_555 1_555
H5 C6 1_555 1_555
H6 C6 1_555 1_555
O3 C2 1_555 1_555
O4 C4 1_555 1_555
C7 C3 1_555 1_555
H7 C7 1_555 1_555
C8 C3 1_555 1_555
H8 C8 1_555 1_555
C9 C7 1_555 1_555
C10 C9 1_555 1_555
H9 C10 1_555 1_555
C11 C10 1_555 1_555
H10 C11 1_555 1_555
C12 C11 1_555 1_555
H11 C12 1_555 1_555
C13 C12 1_555 1_555
H12 C13 1_555 1_555
C14 C9 1_555 1_555
H13 C14 1_555 1_555
C15 C8 1_555 1_555
H14 C15 1_555 1_555
C16 C15 1_555 1_555
H15 C16 1_555 1_555
H16 C16 1_555 1_555
C7 C8 1_555 1_555
C13 C14 1_555 1_555

#END
