
#######################################################################
#
#                 Cambridge Crystallographic Data Centre
#                                CCDC 
#
#######################################################################
#
# If this CIF has been generated from an entry in the Cambridge 
# Structural Database, then it will include bibliographic, chemical, 
# crystal, experimental, refinement or atomic coordinate data resulting 
# from the CCDC's data processing and validation procedures.
#
#######################################################################

data_XIVMUM
_chemical_formula_moiety         'C17 H17 F3 N2 S1'
_chemical_name_systematic        
N'-(2-(propylsulfanyl)-5-(trifluoromethyl)phenyl)benzenecarboximidamide
_symmetry_cell_setting           orthorhombic
_symmetry_space_group_name_H-M   'P b c n'
_symmetry_Int_Tables_number      60
_space_group_name_Hall           '-P 2n 2ab'
loop_
_symmetry_equiv_pos_site_id
_symmetry_equiv_pos_as_xyz
1 x,y,z
2 1/2-x,1/2-y,1/2+z
3 -x,y,1/2-z
4 1/2+x,1/2-y,-z
5 -x,-y,-z
6 1/2+x,1/2+y,1/2-z
7 x,-y,1/2+z
8 1/2-x,1/2+y,z
_cell_length_a                   9.359(3)
_cell_length_b                   19.512(6)
_cell_length_c                   18.547(6)
_cell_angle_alpha                90
_cell_angle_beta                 90
_cell_angle_gamma                90
_cell_volume                     3386.92
_exptl_crystal_colour            yellow
_exptl_crystal_description       plate
_cell_formula_units_Z            8
loop_
_atom_site_label
_atom_site_type_symbol
_atom_site_fract_x
_atom_site_fract_y
_atom_site_fract_z
C1 C 0.5409(2) 0.25034(10) 0.01850(10)
S1 S 0.68909(6) 0.20739(3) 0.20115(3)
N1 N 0.42050(19) 0.28731(9) 0.01305(10)
H1 H 0.4079 0.3225 0.0403
H2 H 0.3560 0.2759 -0.0177
C2 C 0.7150(3) 0.20269(11) 0.29769(12)
H3 H 0.8021 0.2265 0.3110
H4 H 0.6356 0.2244 0.3223
N2 N 0.64674(17) 0.26117(8) 0.06184(9)
C3 C 0.7248(3) 0.12813(12) 0.31947(13)
H5 H 0.7993 0.1060 0.2915
H6 H 0.6351 0.1055 0.3086
C4 C 0.7574(3) 0.12013(14) 0.39907(14)
H7 H 0.7630 0.0723 0.4109
H8 H 0.6829 0.1412 0.4269
H9 H 0.8469 0.1418 0.4099
C5 C 0.6691(2) 0.29564(10) 0.18553(11)
C6 C 0.6795(2) 0.34638(11) 0.23826(11)
H10 H 0.6950 0.3341 0.2861
C7 C 0.6668(2) 0.41463(11) 0.21988(11)
H11 H 0.6749 0.4482 0.2552
C8 C 0.6420(2) 0.43315(10) 0.14904(11)
C9 C 0.6303(2) 0.38327(10) 0.09573(11)
H12 H 0.6136 0.3961 0.0482
C10 C 0.6434(2) 0.31451(10) 0.11321(10)
C11 C 0.6337(3) 0.50732(12) 0.13045(13)
F1 F 0.5483(2) 0.54244(8) 0.17327(10)
F2 F 0.5953(2) 0.51945(8) 0.06299(8)
F3 F 0.7612(2) 0.53861(8) 0.13775(12)
C12 C 0.5516(2) 0.18908(10) -0.02959(11)
C13 C 0.6154(3) 0.13009(11) -0.00310(13)
H13 H 0.6530 0.1298 0.0433
C14 C 0.6237(3) 0.07187(13) -0.04509(15)
H14 H 0.6656 0.0323 -0.0267
C15 C 0.5700(3) 0.07224(14) -0.11432(15)
H15 H 0.5762 0.0331 -0.1428
C16 C 0.5075(3) 0.13054(14) -0.14097(13)
H16 H 0.4718 0.1308 -0.1878
C17 C 0.4968(2) 0.18929(12) -0.09892(11)
H17 H 0.4533 0.2284 -0.1172
loop_
_geom_bond_atom_site_label_1
_geom_bond_atom_site_label_2
_geom_bond_site_symmetry_1
_geom_bond_site_symmetry_2
C1 N1 1_555 1_555
S1 C2 1_555 1_555
N1 H1 1_555 1_555
H2 N1 1_555 1_555
C2 H3 1_555 1_555
H4 C2 1_555 1_555
N2 C1 1_555 1_555
C3 C2 1_555 1_555
H5 C3 1_555 1_555
H6 C3 1_555 1_555
C4 C3 1_555 1_555
H7 C4 1_555 1_555
H8 C4 1_555 1_555
H9 C4 1_555 1_555
C5 S1 1_555 1_555
C6 C5 1_555 1_555
H10 C6 1_555 1_555
C7 C6 1_555 1_555
H11 C7 1_555 1_555
C8 C7 1_555 1_555
C9 C8 1_555 1_555
H12 C9 1_555 1_555
C10 N2 1_555 1_555
C11 C8 1_555 1_555
F1 C11 1_555 1_555
F2 C11 1_555 1_555
F3 C11 1_555 1_555
C12 C1 1_555 1_555
C13 C12 1_555 1_555
H13 C13 1_555 1_555
C14 C13 1_555 1_555
H14 C14 1_555 1_555
C15 C14 1_555 1_555
H15 C15 1_555 1_555
C16 C15 1_555 1_555
H16 C16 1_555 1_555
C17 C12 1_555 1_555
H17 C17 1_555 1_555
C5 C10 1_555 1_555
C9 C10 1_555 1_555
C16 C17 1_555 1_555

#END
