
#######################################################################
#
#                 Cambridge Crystallographic Data Centre
#                                CCDC 
#
#######################################################################
#
# If this CIF has been generated from an entry in the Cambridge 
# Structural Database, then it will include bibliographic, chemical, 
# crystal, experimental, refinement or atomic coordinate data resulting 
# from the CCDC's data processing and validation procedures.
#
#######################################################################

data_XIVPID
_chemical_formula_moiety         'C14 H12 N2 O1 S1'
_chemical_name_systematic        3-(4-methoxyphenyl)-4H-1,2,4-benzothiadiazine
_symmetry_cell_setting           monoclinic
_symmetry_space_group_name_H-M   'P 21/c'
_symmetry_Int_Tables_number      14
_space_group_name_Hall           '-P 2ybc'
loop_
_symmetry_equiv_pos_site_id
_symmetry_equiv_pos_as_xyz
1 x,y,z
2 -x,1/2+y,1/2-z
3 -x,-y,-z
4 x,1/2-y,1/2+z
_cell_length_a                   24.399(5)
_cell_length_b                   5.2540(11)
_cell_length_c                   9.3849(19)
_cell_angle_alpha                90
_cell_angle_beta                 95.68(3)
_cell_angle_gamma                90
_cell_volume                     1197.17
_exptl_crystal_colour            yellow
_exptl_crystal_description       plates
_cell_formula_units_Z            4
loop_
_atom_site_label
_atom_site_type_symbol
_atom_site_fract_x
_atom_site_fract_y
_atom_site_fract_z
O1 O 0.94638(8) 0.5331(4) 0.8324(2)
S1 S 0.69564(3) 0.20945(17) 0.24464(10)
N1 N 0.74720(10) 0.2216(5) 0.3832(3)
N2 N 0.71927(10) 0.6432(5) 0.4237(3)
H1 H 0.7324 0.7993 0.4251
C1 C 0.64406(12) 0.3937(6) 0.3142(3)
C2 C 0.66219(12) 0.6016(6) 0.3984(3)
C3 C 0.62423(13) 0.7535(7) 0.4575(4)
H2 H 0.6363 0.8917 0.5179
C4 C 0.56870(14) 0.7044(7) 0.4288(4)
H3 H 0.5426 0.8136 0.4663
C5 C 0.55064(13) 0.4971(7) 0.3457(4)
H4 H 0.5123 0.4634 0.3271
C6 C 0.58857(13) 0.3394(7) 0.2898(4)
H5 H 0.5765 0.1944 0.2349
C7 C 0.75482(11) 0.4384(6) 0.4466(3)
C8 C 0.80396(11) 0.4728(6) 0.5505(3)
C9 C 0.84708(12) 0.2962(6) 0.5528(3)
H6 H 0.8442 0.1575 0.4875
C10 C 0.89343(12) 0.3205(6) 0.6478(4)
H7 H 0.9222 0.1985 0.6482
C11 C 0.89828(11) 0.5229(6) 0.7433(3)
C12 C 0.85597(12) 0.6989(6) 0.7440(3)
H8 H 0.8590 0.8374 0.8094
C13 C 0.80910(12) 0.6716(6) 0.6484(3)
H9 H 0.7800 0.7913 0.6500
C14 C 0.95263(14) 0.7445(7) 0.9282(4)
H10 H 0.9525 0.9029 0.8730
H11 H 0.9876 0.7291 0.9887
H12 H 0.9221 0.7466 0.9886
loop_
_geom_bond_atom_site_label_1
_geom_bond_atom_site_label_2
_geom_bond_site_symmetry_1
_geom_bond_site_symmetry_2
O1 C11 1_555 1_555
S1 N1 1_555 1_555
N1 C7 1_555 1_555
N2 H1 1_555 1_555
C1 S1 1_555 1_555
C2 N2 1_555 1_555
C3 C2 1_555 1_555
H2 C3 1_555 1_555
C4 C3 1_555 1_555
H3 C4 1_555 1_555
C5 C4 1_555 1_555
H4 C5 1_555 1_555
C6 C1 1_555 1_555
H5 C6 1_555 1_555
C7 N2 1_555 1_555
C8 C7 1_555 1_555
C9 C8 1_555 1_555
H6 C9 1_555 1_555
C10 C9 1_555 1_555
H7 C10 1_555 1_555
C11 C10 1_555 1_555
C12 C11 1_555 1_555
H8 C12 1_555 1_555
C13 C8 1_555 1_555
H9 C13 1_555 1_555
C14 O1 1_555 1_555
H10 C14 1_555 1_555
H11 C14 1_555 1_555
H12 C14 1_555 1_555
C1 C2 1_555 1_555
C5 C6 1_555 1_555
C12 C13 1_555 1_555

#END
