
#######################################################################
#
#                 Cambridge Crystallographic Data Centre
#                                CCDC 
#
#######################################################################
#
# If this CIF has been generated from an entry in the Cambridge 
# Structural Database, then it will include bibliographic, chemical, 
# crystal, experimental, refinement or atomic coordinate data resulting 
# from the CCDC's data processing and validation procedures.
#
#######################################################################

data_XIVZOU
_chemical_formula_moiety         'C69 H96 O3,C1 H1 Cl3'
_chemical_name_systematic        
'8,22,33-tri-t-butyl-2,14,16,28,39,41-hexaethyl-38,40,42-trimethoxyheptacyclo[13.13.9.1^3,27^.1^6,10^.1^13,17^.1^20,24^.1^31,35^]dotetraconta-1,3(39),6(42),7,9,13(41),14,16,20(40),21,23,27,31(38),32,34-pentadecaene chloroform solvate'
_symmetry_cell_setting           monoclinic
_symmetry_space_group_name_H-M   'P 21/c'
_symmetry_Int_Tables_number      14
_space_group_name_Hall           '-P 2ybc'
loop_
_symmetry_equiv_pos_site_id
_symmetry_equiv_pos_as_xyz
1 x,y,z
2 -x,1/2+y,1/2-z
3 -x,-y,-z
4 x,1/2-y,1/2+z
_cell_length_a                   12.4459(4)
_cell_length_b                   13.5193(4)
_cell_length_c                   37.1516(13)
_cell_angle_alpha                90
_cell_angle_beta                 93.333(3)
_cell_angle_gamma                90
_cell_volume                     6240.55
_exptl_crystal_colour            colorless
_exptl_crystal_description       brick
_cell_formula_units_Z            4
loop_
_atom_site_label
_atom_site_type_symbol
_atom_site_fract_x
_atom_site_fract_y
_atom_site_fract_z
C1 C 0.3305(3) 0.0267(3) 0.40838(10)
C2 C 0.2576(3) 0.0539(3) 0.37977(10)
C3 C 0.2831(3) 0.0366(3) 0.34432(10)
C4 C 0.3807(3) -0.0095(3) 0.33698(9)
C5 C 0.4529(3) -0.0398(3) 0.36546(10)
C6 C 0.4275(3) -0.0209(3) 0.40131(10)
C7 C 0.3096(3) 0.0545(3) 0.44707(10)
H1 H 0.336549 0.001136 0.463473
H2 H 0.231136 0.060917 0.449497
C8 C 0.2086(3) 0.0704(3) 0.31234(10)
H3 H 0.136294 0.084109 0.320966
H4 H 0.201230 0.016038 0.294515
C9 C 0.5563(3) -0.0925(3) 0.35764(10)
H5 H 0.540209 -0.139936 0.337755
H6 H 0.579915 -0.131482 0.379226
C10 C 0.3309(3) 0.5554(3) 0.40611(10)
C11 C 0.2834(3) 0.5895(3) 0.37267(10)
C12 C 0.3384(3) 0.5775(3) 0.34097(10)
C13 C 0.4404(3) 0.5328(3) 0.34242(10)
C14 C 0.4851(3) 0.4961(3) 0.37530(10)
C15 C 0.4314(3) 0.5088(3) 0.40719(9)
C16 C 0.2680(3) 0.5657(3) 0.43982(10)
H7 H 0.235577 0.632586 0.439948
H8 H 0.319002 0.560720 0.461195
C17 C 0.2887(3) 0.6125(3) 0.30493(10)
H9 H 0.342433 0.654316 0.293469
H10 H 0.226714 0.655482 0.309700
C18 C 0.5809(3) 0.4269(3) 0.37583(10)
H11 H 0.624582 0.433511 0.398823
H12 H 0.626869 0.442482 0.355724
C19 C 0.2670(3) 0.3177(3) 0.45121(9)
C20 C 0.2459(3) 0.3227(3) 0.38607(10)
H13 H 0.254963 0.383138 0.371987
H14 H 0.170503 0.316573 0.392042
H15 H 0.266092 0.265210 0.371900
O1 O 0.3132(2) 0.3275(2) 0.41860(6)
C21 C 0.2931(3) 0.2334(3) 0.47189(9)
C22 C 0.2530(3) 0.2266(3) 0.50602(10)
H16 H 0.269545 0.169322 0.520102
C23 C 0.1901(3) 0.2995(3) 0.52032(10)
C24 C 0.1672(3) 0.3816(3) 0.49898(10)
H17 H 0.123748 0.432387 0.508191
C25 C 0.2051(3) 0.3935(3) 0.46451(10)
C26 C 0.3662(3) 0.1541(3) 0.45838(10)
H18 H 0.422744 0.139866 0.477516
H19 H 0.402264 0.180456 0.437351
C27 C 0.1456(3) 0.2883(3) 0.55790(10)
C28 C 0.2244(5) 0.2307(5) 0.58304(13)
H20 H 0.195755 0.226005 0.606997
H21 H 0.293854 0.265006 0.584871
H22 H 0.234139 0.164054 0.573357
C29 C 0.1289(4) 0.3873(3) 0.57591(11)
H23 H 0.102768 0.376627 0.599975
H24 H 0.075923 0.426077 0.561359
H25 H 0.197376 0.423307 0.578030
C30 C 0.0391(5) 0.2349(5) 0.55385(14)
H26 H 0.012108 0.222936 0.577726
H27 H 0.048750 0.171572 0.541616
H28 H -0.012842 0.275508 0.539558
C31 C 0.1771(3) 0.4881(3) 0.44361(10)
H29 H 0.117270 0.520929 0.455363
H30 H 0.149613 0.468958 0.419048
C32 C 0.3618(3) 0.3280(3) 0.24284(11)
H31 H 0.437922 0.330399 0.237418
H32 H 0.322019 0.379084 0.228903
H33 H 0.332236 0.262797 0.236394
O2 O 0.35213(19) 0.3452(2) 0.28046(7)
C33 C 0.2454(3) 0.3500(3) 0.28990(9)
C34 C 0.1933(3) 0.2619(3) 0.29838(9)
C35 C 0.0879(3) 0.2696(3) 0.30897(10)
H34 H 0.050413 0.210821 0.314519
C36 C 0.0351(3) 0.3603(3) 0.31176(9)
C37 C 0.0903(3) 0.4447(3) 0.30211(10)
H35 H 0.055022 0.506846 0.303163
C38 C 0.1955(3) 0.4418(3) 0.29092(9)
C39 C 0.2497(3) 0.1637(3) 0.29355(11)
H36 H 0.326154 0.172731 0.301735
H37 H 0.247877 0.149758 0.267362
C40 C -0.0787(3) 0.3679(3) 0.32520(11)
C41 C -0.1276(3) 0.2661(4) 0.33237(14)
H38 H -0.199361 0.274534 0.341443
H39 H -0.081355 0.230692 0.350336
H40 H -0.133158 0.227942 0.309902
C42 C -0.0730(4) 0.4251(4) 0.36068(13)
H41 H -0.145756 0.434117 0.368865
H42 H -0.039985 0.489879 0.357052
H43 H -0.029434 0.387980 0.378893
C43 C -0.1536(4) 0.4223(4) 0.29763(13)
H44 H -0.226544 0.424169 0.306248
H45 H -0.154739 0.387444 0.274477
H46 H -0.127518 0.489938 0.294541
C44 C 0.2494(3) 0.5330(3) 0.27731(10)
H47 H 0.198517 0.565143 0.259490
H48 H 0.312299 0.511342 0.264186
C45 C 0.5902(3) 0.1896(3) 0.29712(10)
H49 H 0.541683 0.181507 0.275595
H50 H 0.658199 0.155376 0.293570
H51 H 0.604306 0.260176 0.301256
O3 O 0.5419(2) 0.1490(2) 0.32734(6)
C46 C 0.6093(3) 0.1523(3) 0.35888(9)
C47 C 0.6669(3) 0.0670(3) 0.36887(10)
C48 C 0.7349(3) 0.0710(3) 0.40040(10)
H52 H 0.776628 0.014529 0.407233
C49 C 0.7430(3) 0.1553(3) 0.42188(10)
C50 C 0.6808(3) 0.2369(3) 0.41122(10)
H53 H 0.684730 0.294786 0.425737
C51 C 0.6128(3) 0.2368(3) 0.38002(10)
C52 C 0.6526(3) -0.0264(3) 0.34719(10)
H54 H 0.719639 -0.065774 0.350152
H55 H 0.642043 -0.008637 0.321378
C53 C 0.8179(3) 0.1619(3) 0.45654(10)
C54 C 0.7551(4) 0.2035(4) 0.48748(11)
H56 H 0.799988 0.199972 0.510020
H57 H 0.689560 0.164459 0.489852
H58 H 0.735781 0.272512 0.482356
C55 C 0.9123(3) 0.2305(4) 0.44927(12)
H59 H 0.962660 0.232172 0.470533
H60 H 0.885140 0.297324 0.444098
H61 H 0.949360 0.205720 0.428524
C56 C 0.8621(4) 0.0613(3) 0.46854(11)
H62 H 0.905469 0.068605 0.491266
H63 H 0.907106 0.034720 0.450028
H64 H 0.802260 0.015884 0.472049
C57 C 0.5361(3) 0.3217(3) 0.37179(10)
H65 H 0.475431 0.315398 0.387749
H66 H 0.506047 0.313835 0.346692
C58 C 0.1485(3) 0.0957(3) 0.38781(10)
H67 H 0.123733 0.141416 0.368233
H68 H 0.155096 0.133872 0.410570
C59 C 0.0649(3) 0.0132(3) 0.39124(12)
H69 H -0.006680 0.042601 0.392860
H70 H 0.083005 -0.025676 0.413007
H71 H 0.064895 -0.029893 0.370034
C60 C 0.4047(3) -0.0331(3) 0.29844(10)
H72 H 0.483610 -0.033234 0.296283
H73 H 0.373641 0.019256 0.282373
C61 C 0.3589(3) -0.1335(3) 0.28611(11)
H74 H 0.374878 -0.145045 0.260932
H75 H 0.280770 -0.133836 0.288225
H76 H 0.391724 -0.185960 0.301287
C62 C 0.5017(3) -0.0591(3) 0.43240(10)
H77 H 0.577211 -0.056593 0.425453
H78 H 0.495286 -0.016039 0.453713
C63 C 0.4731(3) -0.1651(3) 0.44213(11)
H79 H 0.521634 -0.187918 0.462139
H80 H 0.480605 -0.208026 0.421169
H81 H 0.398627 -0.167518 0.449348
C64 C 0.1766(3) 0.6435(3) 0.37197(10)
H82 H 0.134959 0.620028 0.392201
H83 H 0.134768 0.628029 0.349197
C65 C 0.1919(4) 0.7557(3) 0.37503(12)
H84 H 0.121477 0.788363 0.372922
H85 H 0.235890 0.778841 0.355673
H86 H 0.228021 0.771780 0.398438
C66 C 0.5069(3) 0.5279(3) 0.30919(10)
H87 H 0.459705 0.540247 0.287267
H88 H 0.538325 0.461019 0.307202
C67 C 0.5971(3) 0.6050(3) 0.31175(12)
H89 H 0.641424 0.598342 0.290918
H90 H 0.641953 0.594440 0.333981
H91 H 0.565757 0.671436 0.311976
C68 C 0.4840(3) 0.4722(3) 0.44259(10)
H92 H 0.522350 0.409467 0.438410
H93 H 0.427735 0.458728 0.459722
C69 C 0.5636(3) 0.5483(4) 0.45910(11)
H94 H 0.604741 0.518619 0.479644
H95 H 0.524027 0.605970 0.467280
H96 H 0.613012 0.569005 0.440925
C70 C 0.0662(7) 0.3188(8) 0.2127(3)
H97 H 0.100999 0.316012 0.237640
Cl1 Cl -0.0671(3) 0.2877(7) 0.21458(15)
Cl2 Cl 0.0811(4) 0.4380(3) 0.19571(11)
Cl3 Cl 0.1306(6) 0.2338(6) 0.1854(2)
C71? C 0.0612(16) 0.2955(11) 0.2162(7)
H98? H 0.109168 0.302661 0.238580
Cl4? Cl -0.0446(12) 0.2193(19) 0.2258(3)
Cl5? Cl 0.018(2) 0.4121(12) 0.2029(3)
Cl6? Cl 0.1344(5) 0.2367(4) 0.18357(15)
loop_
_geom_bond_atom_site_label_1
_geom_bond_atom_site_label_2
_geom_bond_site_symmetry_1
_geom_bond_site_symmetry_2
C1 C2 1_555 1_555
C2 C3 1_555 1_555
C3 C4 1_555 1_555
C4 C5 1_555 1_555
C5 C6 1_555 1_555
C6 C1 1_555 1_555
C7 C1 1_555 1_555
H1 C7 1_555 1_555
H2 C7 1_555 1_555
C8 C3 1_555 1_555
H3 C8 1_555 1_555
H4 C8 1_555 1_555
C9 C5 1_555 1_555
H5 C9 1_555 1_555
H6 C9 1_555 1_555
C10 C11 1_555 1_555
C11 C12 1_555 1_555
C12 C13 1_555 1_555
C13 C14 1_555 1_555
C14 C15 1_555 1_555
C15 C10 1_555 1_555
C16 C10 1_555 1_555
H7 C16 1_555 1_555
H8 C16 1_555 1_555
C17 C12 1_555 1_555
H9 C17 1_555 1_555
H10 C17 1_555 1_555
C18 C14 1_555 1_555
H11 C18 1_555 1_555
H12 C18 1_555 1_555
C19 O1 1_555 1_555
C20 H13 1_555 1_555
H14 C20 1_555 1_555
H15 C20 1_555 1_555
O1 C20 1_555 1_555
C21 C19 1_555 1_555
C22 C21 1_555 1_555
H16 C22 1_555 1_555
C23 C22 1_555 1_555
C24 C23 1_555 1_555
H17 C24 1_555 1_555
C25 C19 1_555 1_555
C26 C7 1_555 1_555
H18 C26 1_555 1_555
H19 C26 1_555 1_555
C27 C23 1_555 1_555
C28 C27 1_555 1_555
H20 C28 1_555 1_555
H21 C28 1_555 1_555
H22 C28 1_555 1_555
C29 C27 1_555 1_555
H23 C29 1_555 1_555
H24 C29 1_555 1_555
H25 C29 1_555 1_555
C30 C27 1_555 1_555
H26 C30 1_555 1_555
H27 C30 1_555 1_555
H28 C30 1_555 1_555
C31 C16 1_555 1_555
H29 C31 1_555 1_555
H30 C31 1_555 1_555
C32 H31 1_555 1_555
H32 C32 1_555 1_555
H33 C32 1_555 1_555
O2 C32 1_555 1_555
C33 O2 1_555 1_555
C34 C33 1_555 1_555
C35 C34 1_555 1_555
H34 C35 1_555 1_555
C36 C35 1_555 1_555
C37 C36 1_555 1_555
H35 C37 1_555 1_555
C38 C33 1_555 1_555
C39 C8 1_555 1_555
H36 C39 1_555 1_555
H37 C39 1_555 1_555
C40 C36 1_555 1_555
C41 C40 1_555 1_555
H38 C41 1_555 1_555
H39 C41 1_555 1_555
H40 C41 1_555 1_555
C42 C40 1_555 1_555
H41 C42 1_555 1_555
H42 C42 1_555 1_555
H43 C42 1_555 1_555
C43 C40 1_555 1_555
H44 C43 1_555 1_555
H45 C43 1_555 1_555
H46 C43 1_555 1_555
C44 C17 1_555 1_555
H47 C44 1_555 1_555
H48 C44 1_555 1_555
C45 H49 1_555 1_555
H50 C45 1_555 1_555
H51 C45 1_555 1_555
O3 C45 1_555 1_555
C46 O3 1_555 1_555
C47 C46 1_555 1_555
C48 C47 1_555 1_555
H52 C48 1_555 1_555
C49 C48 1_555 1_555
C50 C49 1_555 1_555
H53 C50 1_555 1_555
C51 C46 1_555 1_555
C52 C9 1_555 1_555
H54 C52 1_555 1_555
H55 C52 1_555 1_555
C53 C49 1_555 1_555
C54 C53 1_555 1_555
H56 C54 1_555 1_555
H57 C54 1_555 1_555
H58 C54 1_555 1_555
C55 C53 1_555 1_555
H59 C55 1_555 1_555
H60 C55 1_555 1_555
H61 C55 1_555 1_555
C56 C53 1_555 1_555
H62 C56 1_555 1_555
H63 C56 1_555 1_555
H64 C56 1_555 1_555
C57 C18 1_555 1_555
H65 C57 1_555 1_555
H66 C57 1_555 1_555
C58 C2 1_555 1_555
H67 C58 1_555 1_555
H68 C58 1_555 1_555
C59 C58 1_555 1_555
H69 C59 1_555 1_555
H70 C59 1_555 1_555
H71 C59 1_555 1_555
C60 C4 1_555 1_555
H72 C60 1_555 1_555
H73 C60 1_555 1_555
C61 C60 1_555 1_555
H74 C61 1_555 1_555
H75 C61 1_555 1_555
H76 C61 1_555 1_555
C62 C6 1_555 1_555
H77 C62 1_555 1_555
H78 C62 1_555 1_555
C63 C62 1_555 1_555
H79 C63 1_555 1_555
H80 C63 1_555 1_555
H81 C63 1_555 1_555
C64 C11 1_555 1_555
H82 C64 1_555 1_555
H83 C64 1_555 1_555
C65 C64 1_555 1_555
H84 C65 1_555 1_555
H85 C65 1_555 1_555
H86 C65 1_555 1_555
C66 C13 1_555 1_555
H87 C66 1_555 1_555
H88 C66 1_555 1_555
C67 C66 1_555 1_555
H89 C67 1_555 1_555
H90 C67 1_555 1_555
H91 C67 1_555 1_555
C68 C15 1_555 1_555
H92 C68 1_555 1_555
H93 C68 1_555 1_555
C69 C68 1_555 1_555
H94 C69 1_555 1_555
H95 C69 1_555 1_555
H96 C69 1_555 1_555
C70 H97 1_555 1_555
Cl1 C70 1_555 1_555
Cl2 C70 1_555 1_555
Cl3 C70 1_555 1_555
C21 C26 1_555 1_555
C24 C25 1_555 1_555
C25 C31 1_555 1_555
C34 C39 1_555 1_555
C37 C38 1_555 1_555
C38 C44 1_555 1_555
C47 C52 1_555 1_555
C50 C51 1_555 1_555
C51 C57 1_555 1_555

#END
