
#######################################################################
#
#                 Cambridge Crystallographic Data Centre
#                                CCDC 
#
#######################################################################
#
# If this CIF has been generated from an entry in the Cambridge 
# Structural Database, then it will include bibliographic, chemical, 
# crystal, experimental, refinement or atomic coordinate data resulting 
# from the CCDC's data processing and validation procedures.
#
#######################################################################

data_XIWBOX
_chemical_formula_moiety         'C108 H132'
_chemical_name_systematic        
2,13,15,26,28,39,41,52,63,66,77,80-dodecaethyltridecacyclo[25.25.8.8^14,40^.2^6,9^.2^19,22^.2^32,35^.2^45,48^.2^55,58^.2^69,72^.1^3,51^.1^12,16^.1^25,29^.1^38,42^]tetraoctaconta-1,3(63),6,8,12(80),13,15,19,21,25(77),26,28,32,34,38(66),39,41,45,47,51,55,57,61,64,69,71,75,78,81,83-triacontaene
_symmetry_cell_setting           monoclinic
_symmetry_space_group_name_H-M   'C 2/c'
_symmetry_Int_Tables_number      15
_space_group_name_Hall           '-C 2yn'
loop_
_symmetry_equiv_pos_site_id
_symmetry_equiv_pos_as_xyz
1 x,y,z
2 -x,y,1/2-z
3 1/2+x,1/2+y,z
4 1/2-x,1/2+y,1/2-z
5 -x,-y,-z
6 x,-y,1/2+z
7 1/2-x,1/2-y,-z
8 1/2+x,1/2-y,1/2+z
_cell_length_a                   20.1267(9)
_cell_length_b                   25.0475(8)
_cell_length_c                   17.8372(9)
_cell_angle_alpha                90
_cell_angle_beta                 97.788(4)
_cell_angle_gamma                90
_cell_volume                     8909.21
_exptl_crystal_colour            colorless
_exptl_crystal_description       brick
_cell_formula_units_Z            4
loop_
_atom_site_label
_atom_site_type_symbol
_atom_site_fract_x
_atom_site_fract_y
_atom_site_fract_z
C1 C 0.31721(10) 0.54952(10) 0.92901(11)
C2 C 0.25449(10) 0.57321(9) 0.91238(8)
C3 C 0.21577(9) 0.58279(9) 0.96985(11)
C4 C 0.23977(10) 0.56868(11) 1.04395(10)
C5 C 0.30249(11) 0.54499(12) 1.06058(9)
C6 C 0.34121(9) 0.53542(11) 1.00311(13)
C7 C 0.36120(19) 0.54177(15) 0.8661(2)
H1 H 0.332465 0.537031 0.816977
H2 H 0.388995 0.509300 0.876363
C8 C 0.14705(19) 0.60975(16) 0.9533(2)
H3 H 0.115798 0.593735 0.985308
H4 H 0.128391 0.604100 0.899616
C9 C 0.3321(2) 0.5346(3) 1.1436(2)
H5 H 0.296205 0.520144 1.170701
H6 H 0.367238 0.506866 1.144647
C10 C 0.32935(18) 0.79474(11) 0.62635(17)
C11 C 0.34519(17) 0.84793(10) 0.61532(17)
C12 C 0.38249(16) 0.86177(10) 0.55813(18)
C13 C 0.40395(15) 0.82243(13) 0.51196(15)
C14 C 0.38810(16) 0.76924(12) 0.52299(17)
C15 C 0.35080(19) 0.75540(9) 0.58018(19)
C16 C 0.2770(3) 0.7815(2) 0.6785(4)
H7 H 0.244831 0.811415 0.678833
H8 H 0.251710 0.749062 0.660361
C17 C 0.4041(3) 0.9195(2) 0.5489(3)
H9 H 0.374040 0.943295 0.573160
H10 H 0.398877 0.928313 0.494341
C18 C 0.4138(3) 0.7250(2) 0.4713(3)
H11 H 0.382888 0.694012 0.467894
H12 H 0.414118 0.739280 0.419608
C19 C 0.45409(17) 0.58840(14) 0.80395(19)
C20 C 0.4761(4) 0.5427(2) 0.7750(4)
H13 H 0.458454 0.509583 0.789078
C21 C 0.4770(3) 0.6344(2) 0.7752(4)
H14 H 0.460656 0.667592 0.790713
C22 C 0.40671(18) 0.59065(15) 0.8624(2)
H15 H 0.377909 0.622584 0.852277
H16 H 0.433506 0.595536 0.912718
C23 C 0.1952(2) 0.70173(15) 0.9173(2)
C24 C 0.2648(2) 0.70257(15) 0.93208(18)
H17 H 0.286900 0.687313 0.977475
C25 C 0.30195(17) 0.72573(15) 0.8805(2)
H18 H 0.349522 0.726310 0.890562
C26 C 0.2696(2) 0.74806(15) 0.8140(2)
C27 C 0.2000(2) 0.74722(16) 0.7992(2)
H19 H 0.177814 0.762474 0.753847
C28 C 0.16276(16) 0.72405(16) 0.8509(3)
H20 H 0.115191 0.723477 0.840759
C29 C 0.1544(6) 0.6711(5) 0.9700(6)
H21 H 0.109045 0.687002 0.966078
H22 H 0.176069 0.675899 1.022828
C30 C 0.3135(3) 0.7724(3) 0.7578(4)
H23 H 0.331669 0.806939 0.778228
H24 H 0.351981 0.748300 0.754392
C31 C 0.40794(17) 0.61534(18) 1.14309(19)
C32 C 0.37690(13) 0.65373(17) 1.0940(2)
H25 H 0.330016 0.659695 1.091290
C33 C 0.41445(18) 0.68339(13) 1.0490(2)
H26 H 0.393233 0.709629 1.015525
C34 C 0.48304(17) 0.67466(16) 1.05308(19)
C35 C 0.51409(13) 0.6363(2) 1.1021(2)
H27 H 0.560969 0.630305 1.104872
C36 C 0.47654(17) 0.6066(2) 1.14712(19)
H28 H 0.497754 0.580370 1.180637
C37 C 0.3626(3) 0.5838(4) 1.1867(3)
H29 H 0.325825 0.607178 1.198777
H30 H 0.388328 0.572002 1.235126
C38 C 0.5183(3) 0.7076(3) 0.9976(3)
H31 H 0.520987 0.685927 0.951679
H32 H 0.490771 0.739464 0.982245
C39 C 0.4892(3) 0.9314(3) 0.6705(3)
C40 C 0.4954(3) 0.8833(3) 0.7103(3)
H33 H 0.493488 0.850377 0.683558
C41 C 0.4930(3) 0.9803(3) 0.7066(4)
H34 H 0.487158 1.012680 0.678745
C42 C 0.4787(3) 0.9305(3) 0.5844(3)
H35 H 0.507795 0.902621 0.566805
H36 H 0.492860 0.965320 0.565575
C43 C 0.22794(19) 0.58896(14) 0.83081(18)
H37 H 0.199402 0.621103 0.831395
H38 H 0.266248 0.598175 0.803819
C44 C 0.1872(2) 0.54434(15) 0.7880(2)
H39 H 0.168842 0.557009 0.737410
H40 H 0.150421 0.533916 0.815672
H41 H 0.216308 0.513465 0.783329
C45 C 0.1948(2) 0.5754(2) 1.1062(2)
H42 H 0.223059 0.581654 1.155282
H43 H 0.165532 0.606966 1.094832
C46 C 0.1517(2) 0.5263(2) 1.1121(2)
H44 H 0.126550 0.530218 1.155061
H45 H 0.180495 0.494633 1.119542
H46 H 0.120348 0.522257 1.065363
C47 C 0.4092(2) 0.5066(2) 1.0211(3)
H47 H 0.438123 0.516183 0.982438
H48 H 0.431866 0.518779 1.070919
C48 C 0.4007(3) 0.4478(3) 1.0224(5)
H49 H 0.444336 0.430849 1.038006
H50 H 0.382413 0.435217 0.971797
H51 H 0.369878 0.438366 1.058388
C49 C 0.3155(3) 0.89144(19) 0.6634(3)
H52 H 0.308748 0.875923 0.712877
H53 H 0.348153 0.921025 0.673167
C50 C 0.2495(3) 0.9136(2) 0.6254(3)
H54 H 0.232098 0.939480 0.658981
H55 H 0.217271 0.884383 0.614420
H56 H 0.256478 0.931247 0.578015
C51 C 0.4406(3) 0.8376(3) 0.4452(3)
H57 H 0.470288 0.807865 0.434501
H58 H 0.468941 0.869348 0.458872
C52 C 0.3911(3) 0.8499(3) 0.3738(3)
H59 H 0.416161 0.859079 0.332126
H60 H 0.362440 0.879943 0.383780
H61 H 0.363221 0.818394 0.359845
C53 C 0.3392(4) 0.6959(3) 0.5978(4)
H62 H 0.377582 0.674594 0.584940
H63 H 0.337400 0.691723 0.652644
C54 C 0.2792(3) 0.6757(3) 0.5570(6)
H64 H 0.270103 0.640074 0.575908
H65 H 0.283982 0.673454 0.503120
H66 H 0.241905 0.699625 0.563665
C1A C 0.68279(10) 0.54952(10) 0.57099(11)
C2A C 0.74551(10) 0.57321(9) 0.58762(8)
C3A C 0.78423(9) 0.58279(9) 0.53015(11)
C4A C 0.76023(10) 0.56868(11) 0.45605(10)
C5A C 0.69751(11) 0.54499(12) 0.43942(9)
C6A C 0.65879(9) 0.53542(11) 0.49689(13)
C7A C 0.63880(19) 0.54177(15) 0.6339(2)
H1A H 0.667535 0.537031 0.683023
H2A H 0.611005 0.509300 0.623637
C8A C 0.85295(19) 0.60975(16) 0.5467(2)
H3A H 0.884202 0.593735 0.514692
H4A H 0.871609 0.604100 0.600384
C9A C 0.6679(2) 0.5346(3) 0.3564(2)
H5A H 0.703795 0.520144 0.329299
H6A H 0.632762 0.506866 0.355353
C10A C 0.67065(18) 0.79474(11) 0.87365(17)
C11A C 0.65481(17) 0.84793(10) 0.88468(17)
C12A C 0.61751(16) 0.86177(10) 0.94187(18)
C13A C 0.59605(15) 0.82243(13) 0.98804(15)
C14A C 0.61190(16) 0.76924(12) 0.97701(17)
C15A C 0.64920(19) 0.75540(9) 0.91982(19)
C16A C 0.7230(3) 0.7815(2) 0.8215(4)
H7A H 0.755169 0.811415 0.821167
H8A H 0.748290 0.749062 0.839639
C17A C 0.5959(3) 0.9195(2) 0.9511(3)
H9A H 0.625960 0.943295 0.926840
H10A H 0.601123 0.928313 1.005659
C18A C 0.5862(3) 0.7250(2) 1.0287(3)
H11A H 0.617112 0.694012 1.032106
H12A H 0.585882 0.739280 1.080392
C19A C 0.54591(17) 0.58840(14) 0.69605(19)
C20A C 0.5239(4) 0.5427(2) 0.7250(4)
H13A H 0.541546 0.509583 0.710922
C21A C 0.5230(3) 0.6344(2) 0.7248(4)
H14A H 0.539344 0.667592 0.709287
C22A C 0.59329(18) 0.59065(15) 0.6376(2)
H15A H 0.622091 0.622584 0.647723
H16A H 0.566494 0.595536 0.587282
C23A C 0.8048(2) 0.70173(15) 0.5827(2)
C24A C 0.7352(2) 0.70257(15) 0.56792(18)
H17A H 0.713100 0.687313 0.522525
C25A C 0.69805(17) 0.72573(15) 0.6195(2)
H18A H 0.650478 0.726310 0.609438
C26A C 0.7304(2) 0.74806(15) 0.6860(2)
C27A C 0.8000(2) 0.74722(16) 0.7008(2)
H19A H 0.822186 0.762474 0.746153
C28A C 0.83724(16) 0.72405(16) 0.6491(3)
H20A H 0.884809 0.723477 0.659241
C29A C 0.8456(6) 0.6711(5) 0.5300(6)
H21A H 0.890955 0.687002 0.533922
H22A H 0.823931 0.675899 0.477172
C30A C 0.6865(3) 0.7724(3) 0.7422(4)
H23A H 0.668331 0.806939 0.721772
H24A H 0.648019 0.748300 0.745608
C31A C 0.59206(17) 0.61534(18) 0.35691(19)
C32A C 0.62310(13) 0.65373(17) 0.4060(2)
H25A H 0.669984 0.659695 0.408710
C33A C 0.58555(18) 0.68339(13) 0.4510(2)
H26A H 0.606767 0.709629 0.484475
C34A C 0.51696(17) 0.67466(16) 0.44692(19)
C35A C 0.48591(13) 0.6363(2) 0.3979(2)
H27A H 0.439031 0.630305 0.395128
C36A C 0.52346(17) 0.6066(2) 0.35288(19)
H28A H 0.502246 0.580370 0.319363
C37A C 0.6374(3) 0.5838(4) 0.3133(3)
H29A H 0.674175 0.607178 0.301223
H30A H 0.611672 0.572002 0.264874
C38A C 0.4817(3) 0.7076(3) 0.5024(3)
H31A H 0.479013 0.685927 0.548321
H32A H 0.509229 0.739464 0.517755
C39A C 0.5108(3) 0.9314(3) 0.8295(3)
C40A C 0.5046(3) 0.8833(3) 0.7897(3)
H33A H 0.506512 0.850377 0.816442
C41A C 0.5070(3) 0.9803(3) 0.7934(4)
H34A H 0.512842 1.012680 0.821255
C42A C 0.5213(3) 0.9305(3) 0.9156(3)
H35A H 0.492205 0.902621 0.933195
H36A H 0.507140 0.965320 0.934425
C43A C 0.77206(19) 0.58896(14) 0.66919(18)
H37A H 0.800598 0.621103 0.668605
H38A H 0.733752 0.598175 0.696181
C44A C 0.8128(2) 0.54434(15) 0.7120(2)
H39A H 0.831158 0.557009 0.762590
H40A H 0.849579 0.533916 0.684328
H41A H 0.783692 0.513465 0.716671
C45A C 0.8052(2) 0.5754(2) 0.3938(2)
H42A H 0.776941 0.581654 0.344718
H43A H 0.834468 0.606966 0.405168
C46A C 0.8483(2) 0.5263(2) 0.3879(2)
H44A H 0.873450 0.530218 0.344939
H45A H 0.819505 0.494633 0.380458
H46A H 0.879652 0.522257 0.434637
C47A C 0.5908(2) 0.5066(2) 0.4789(3)
H47A H 0.561877 0.516183 0.517562
H48A H 0.568134 0.518779 0.429081
C48A C 0.5993(3) 0.4478(3) 0.4776(5)
H49A H 0.555664 0.430849 0.461994
H50A H 0.617587 0.435217 0.528203
H51A H 0.630122 0.438366 0.441612
C49A C 0.6845(3) 0.89144(19) 0.8366(3)
H52A H 0.691252 0.875923 0.787123
H53A H 0.651847 0.921025 0.826833
C50A C 0.7505(3) 0.9136(2) 0.8746(3)
H54A H 0.767902 0.939480 0.841019
H55A H 0.782729 0.884383 0.885580
H56A H 0.743522 0.931247 0.921985
C51A C 0.5594(3) 0.8376(3) 1.0548(3)
H57A H 0.529712 0.807865 1.065499
H58A H 0.531059 0.869348 1.041128
C52A C 0.6089(3) 0.8499(3) 1.1262(3)
H59A H 0.583839 0.859079 1.167874
H60A H 0.637560 0.879943 1.116220
H61A H 0.636779 0.818394 1.140155
C53A C 0.6608(4) 0.6959(3) 0.9022(4)
H62A H 0.622418 0.674594 0.915060
H63A H 0.662600 0.691723 0.847356
C54A C 0.7208(3) 0.6757(3) 0.9430(6)
H64A H 0.729897 0.640074 0.924092
H65A H 0.716018 0.673454 0.996880
H66A H 0.758095 0.699625 0.936335
H67? H 0.117644 0.592306 0.986206
H68? H 0.128849 0.600456 0.900542
C55? C 0.4311(11) 0.5951(9) 0.7284(7)
H69? H 0.384804 0.601060 0.712290
C56? C 0.5232(6) 0.5930(8) 0.8253(11)
H70? H 0.540170 0.594767 0.877583
C57? C 0.3212(8) 0.7745(9) 0.7123(12)
H71? H 0.336047 0.736995 0.720188
H72? H 0.347488 0.797285 0.750870
C58? C 0.1656(4) 0.7024(4) 0.8988(4)
C59? C 0.2334(4) 0.7152(4) 0.9072(4)
H73? H 0.261319 0.706953 0.953009
C60? C 0.2603(4) 0.7401(4) 0.8485(5)
H74? H 0.306678 0.748819 0.854199
C61? C 0.2195(5) 0.7521(4) 0.7814(4)
C62? C 0.1517(4) 0.7393(4) 0.7730(4)
H75? H 0.123767 0.747543 0.727174
C63? C 0.1247(4) 0.7144(4) 0.8317(5)
H76? H 0.078407 0.705677 0.825984
C64? C 0.1374(14) 0.6724(15) 0.9618(16)
H77? H 0.089031 0.680587 0.959779
H78? H 0.160501 0.684310 1.011465
C65? C 0.2479(7) 0.7797(6) 0.7158(7)
H79? H 0.223671 0.765656 0.667865
H80? H 0.237285 0.818263 0.717823
loop_
_geom_bond_atom_site_label_1
_geom_bond_atom_site_label_2
_geom_bond_site_symmetry_1
_geom_bond_site_symmetry_2
C1 C2 1_555 1_555
C2 C3 1_555 1_555
C3 C4 1_555 1_555
C4 C5 1_555 1_555
C5 C6 1_555 1_555
C6 C1 1_555 1_555
C7 C1 1_555 1_555
H1 C7 1_555 1_555
H2 C7 1_555 1_555
C8 C3 1_555 1_555
H3 C8 1_555 1_555
H4 C8 1_555 1_555
C9 C5 1_555 1_555
H5 C9 1_555 1_555
H6 C9 1_555 1_555
C10 C11 1_555 1_555
C11 C12 1_555 1_555
C12 C13 1_555 1_555
C13 C14 1_555 1_555
C14 C15 1_555 1_555
C15 C10 1_555 1_555
C16 C10 1_555 1_555
H7 C16 1_555 1_555
H8 C16 1_555 1_555
C17 C12 1_555 1_555
H9 C17 1_555 1_555
H10 C17 1_555 1_555
C18 C14 1_555 1_555
H11 C18 1_555 1_555
H12 C18 1_555 1_555
C19 C20 1_555 1_555
C20 H13 1_555 1_555
C21 C19 1_555 1_555
H14 C21 1_555 1_555
C22 C7 1_555 1_555
H15 C22 1_555 1_555
H16 C22 1_555 1_555
C23 C24 1_555 1_555
C24 H17 1_555 1_555
C25 C24 1_555 1_555
H18 C25 1_555 1_555
C26 C25 1_555 1_555
C27 C26 1_555 1_555
H19 C27 1_555 1_555
C28 C23 1_555 1_555
H20 C28 1_555 1_555
C29 C8 1_555 1_555
H21 C29 1_555 1_555
H22 C29 1_555 1_555
C30 C16 1_555 1_555
H23 C30 1_555 1_555
H24 C30 1_555 1_555
C31 C32 1_555 1_555
C32 H25 1_555 1_555
C33 C32 1_555 1_555
H26 C33 1_555 1_555
C34 C33 1_555 1_555
C35 C34 1_555 1_555
H27 C35 1_555 1_555
C36 C31 1_555 1_555
H28 C36 1_555 1_555
C37 C9 1_555 1_555
H29 C37 1_555 1_555
H30 C37 1_555 1_555
C38 C34 1_555 1_555
H31 C38 1_555 1_555
H32 C38 1_555 1_555
C39 C40 1_555 1_555
C40 H33 1_555 1_555
C41 C39 1_555 1_555
H34 C41 1_555 1_555
C42 C17 1_555 1_555
H35 C42 1_555 1_555
H36 C42 1_555 1_555
C43 C2 1_555 1_555
H37 C43 1_555 1_555
H38 C43 1_555 1_555
C44 C43 1_555 1_555
H39 C44 1_555 1_555
H40 C44 1_555 1_555
H41 C44 1_555 1_555
C45 C4 1_555 1_555
H42 C45 1_555 1_555
H43 C45 1_555 1_555
C46 C45 1_555 1_555
H44 C46 1_555 1_555
H45 C46 1_555 1_555
H46 C46 1_555 1_555
C47 C6 1_555 1_555
H47 C47 1_555 1_555
H48 C47 1_555 1_555
C48 C47 1_555 1_555
H49 C48 1_555 1_555
H50 C48 1_555 1_555
H51 C48 1_555 1_555
C49 C11 1_555 1_555
H52 C49 1_555 1_555
H53 C49 1_555 1_555
C50 C49 1_555 1_555
H54 C50 1_555 1_555
H55 C50 1_555 1_555
H56 C50 1_555 1_555
C51 C13 1_555 1_555
H57 C51 1_555 1_555
H58 C51 1_555 1_555
C52 C51 1_555 1_555
H59 C52 1_555 1_555
H60 C52 1_555 1_555
H61 C52 1_555 1_555
C53 C15 1_555 1_555
H62 C53 1_555 1_555
H63 C53 1_555 1_555
C54 C53 1_555 1_555
H64 C54 1_555 1_555
H65 C54 1_555 1_555
H66 C54 1_555 1_555
C1A C2A 1_555 1_555
C2A C3A 1_555 1_555
C3A C4A 1_555 1_555
C4A C5A 1_555 1_555
C5A C6A 1_555 1_555
C6A C1A 1_555 1_555
C7A C1A 1_555 1_555
H1A C7A 1_555 1_555
H2A C7A 1_555 1_555
C8A C3A 1_555 1_555
H3A C8A 1_555 1_555
H4A C8A 1_555 1_555
C9A C5A 1_555 1_555
H5A C9A 1_555 1_555
H6A C9A 1_555 1_555
C10A C11A 1_555 1_555
C11A C12A 1_555 1_555
C12A C13A 1_555 1_555
C13A C14A 1_555 1_555
C14A C15A 1_555 1_555
C15A C10A 1_555 1_555
C16A C10A 1_555 1_555
H7A C16A 1_555 1_555
H8A C16A 1_555 1_555
C17A C12A 1_555 1_555
H9A C17A 1_555 1_555
H10A C17A 1_555 1_555
C18A C38 1_555 1_555
H11A C18A 1_555 1_555
H12A C18A 1_555 1_555
C19A C20A 1_555 1_555
C20A C20 1_555 1_555
H13A C20A 1_555 1_555
C21A C21 1_555 1_555
H14A C21A 1_555 1_555
C22A C7A 1_555 1_555
H15A C22A 1_555 1_555
H16A C22A 1_555 1_555
C23A C24A 1_555 1_555
C24A H17A 1_555 1_555
C25A C24A 1_555 1_555
H18A C25A 1_555 1_555
C26A C25A 1_555 1_555
C27A C26A 1_555 1_555
H19A C27A 1_555 1_555
C28A C23A 1_555 1_555
H20A C28A 1_555 1_555
C29A C8A 1_555 1_555
H21A C29A 1_555 1_555
H22A C29A 1_555 1_555
C30A C16A 1_555 1_555
H23A C30A 1_555 1_555
H24A C30A 1_555 1_555
C31A C32A 1_555 1_555
C32A H25A 1_555 1_555
C33A C32A 1_555 1_555
H26A C33A 1_555 1_555
C34A C33A 1_555 1_555
C35A C34A 1_555 1_555
H27A C35A 1_555 1_555
C36A C31A 1_555 1_555
H28A C36A 1_555 1_555
C37A C9A 1_555 1_555
H29A C37A 1_555 1_555
H30A C37A 1_555 1_555
C38A C18 1_555 1_555
H31A C38A 1_555 1_555
H32A C38A 1_555 1_555
C39A C40A 1_555 1_555
C40A C40 1_555 1_555
H33A C40A 1_555 1_555
C41A C41 1_555 1_555
H34A C41A 1_555 1_555
C42A C17A 1_555 1_555
H35A C42A 1_555 1_555
H36A C42A 1_555 1_555
C43A C2A 1_555 1_555
H37A C43A 1_555 1_555
H38A C43A 1_555 1_555
C44A C43A 1_555 1_555
H39A C44A 1_555 1_555
H40A C44A 1_555 1_555
H41A C44A 1_555 1_555
C45A C4A 1_555 1_555
H42A C45A 1_555 1_555
H43A C45A 1_555 1_555
C46A C45A 1_555 1_555
H44A C46A 1_555 1_555
H45A C46A 1_555 1_555
H46A C46A 1_555 1_555
C47A C6A 1_555 1_555
H47A C47A 1_555 1_555
H48A C47A 1_555 1_555
C48A C47A 1_555 1_555
H49A C48A 1_555 1_555
H50A C48A 1_555 1_555
H51A C48A 1_555 1_555
C49A C11A 1_555 1_555
H52A C49A 1_555 1_555
H53A C49A 1_555 1_555
C50A C49A 1_555 1_555
H54A C50A 1_555 1_555
H55A C50A 1_555 1_555
H56A C50A 1_555 1_555
C51A C13A 1_555 1_555
H57A C51A 1_555 1_555
H58A C51A 1_555 1_555
C52A C51A 1_555 1_555
H59A C52A 1_555 1_555
H60A C52A 1_555 1_555
H61A C52A 1_555 1_555
C53A C15A 1_555 1_555
H62A C53A 1_555 1_555
H63A C53A 1_555 1_555
C54A C53A 1_555 1_555
H64A C54A 1_555 1_555
H65A C54A 1_555 1_555
H66A C54A 1_555 1_555
C19 C22 1_555 1_555
C23 C29 1_555 1_555
C26 C30 1_555 1_555
C27 C28 1_555 1_555
C31 C37 1_555 1_555
C35 C36 1_555 1_555
C39 C42 1_555 1_555
C14A C18A 1_555 1_555
C19A C21A 1_555 1_555
C19A C22A 1_555 1_555
C23A C29A 1_555 1_555
C26A C30A 1_555 1_555
C27A C28A 1_555 1_555
C31A C37A 1_555 1_555
C34A C38A 1_555 1_555
C35A C36A 1_555 1_555
C39A C41A 1_555 1_555
C39A C42A 1_555 1_555

#END
