
#######################################################################
#
#                 Cambridge Crystallographic Data Centre
#                                CCDC 
#
#######################################################################
#
# If this CIF has been generated from an entry in the Cambridge 
# Structural Database, then it will include bibliographic, chemical, 
# crystal, experimental, refinement or atomic coordinate data resulting 
# from the CCDC's data processing and validation procedures.
#
#######################################################################

data_XIWDEP
_chemical_formula_moiety         'C19 H16 O4,C3 H8 O1'
_chemical_name_systematic        
'5-hydroxy-1,7-bis(4-hydroxyphenyl)hepta-1,4,6-trien-3-one propan-2-ol solvate'
_symmetry_cell_setting           orthorhombic
_symmetry_space_group_name_H-M   'P n a 21'
_symmetry_Int_Tables_number      33
_space_group_name_Hall           'P 2c -2n'
loop_
_symmetry_equiv_pos_site_id
_symmetry_equiv_pos_as_xyz
1 x,y,z
2 -x,-y,1/2+z
3 1/2+x,1/2-y,z
4 1/2-x,1/2+y,1/2+z
_cell_length_a                   7.457(7)
_cell_length_b                   11.831(11)
_cell_length_c                   21.864(5)
_cell_angle_alpha                90
_cell_angle_beta                 90
_cell_angle_gamma                90
_cell_volume                     1928.92
_exptl_crystal_colour            yellow
_exptl_crystal_description       needle
_cell_formula_units_Z            4
loop_
_atom_site_label
_atom_site_type_symbol
_atom_site_fract_x
_atom_site_fract_y
_atom_site_fract_z
O1 O 0.28123(17) 0.10712(10) 0.34299(6)
H1 H 0.280(3) 0.067(2) 0.3814(10)
C1 C 0.4362(2) 0.22499(15) 0.41174(9)
H2 H 0.498913 0.291826 0.418287
O2 O 0.43806(18) 0.53412(12) 0.04019(7)
H3 H 0.350(3) 0.527(2) 0.0104(12)
C2 C 0.3706(2) 0.20186(15) 0.35414(9)
C3 C 0.3975(2) 0.27724(16) 0.30319(9)
H4 H 0.457781 0.344774 0.310332
O3 O 0.32185(18) 0.05793(11) 0.45389(6)
O4 O 0.68811(18) 0.16014(12) 0.81205(7)
H5 H 0.746(4) 0.2285(18) 0.8198(13)
C4 C 0.3409(2) 0.25600(15) 0.24609(9)
H6 H 0.277688 0.189209 0.239953
C5 C 0.3693(2) 0.32776(15) 0.19277(9)
C6 C 0.4672(2) 0.42855(15) 0.19541(9)
H7 H 0.516478 0.451334 0.232489
C7 C 0.4923(2) 0.49479(15) 0.14425(10)
H8 H 0.560715 0.560352 0.146773
C8 C 0.3206(3) 0.36272(15) 0.08451(9)
H9 H 0.272466 0.340024 0.047245
C9 C 0.4150(2) 0.46340(15) 0.08870(9)
C10 C 0.2983(2) 0.29603(15) 0.13609(9)
H10 H 0.234692 0.228665 0.132930
C11 C 0.4101(2) 0.14917(15) 0.46135(8)
C12 C 0.4864(2) 0.17813(16) 0.52064(9)
H11 H 0.532060 0.250371 0.526870
C13 C 0.4922(2) 0.10294(15) 0.56634(8)
H12 H 0.450464 0.030821 0.557186
C14 C 0.5556(2) 0.12014(15) 0.62857(9)
C15 C 0.6426(2) 0.21850(15) 0.64791(9)
H13 H 0.668664 0.274786 0.619592
C16 C 0.6906(2) 0.23355(16) 0.70874(9)
H14 H 0.748673 0.299308 0.721009
C17 C 0.6512(2) 0.14960(15) 0.75118(9)
C18 C 0.5677(3) 0.05039(16) 0.73265(9)
H15 H 0.542933 -0.006128 0.760984
C19 C 0.5217(2) 0.03606(15) 0.67205(9)
H16 H 0.466962 -0.030874 0.659832
O5 O 0.83523(19) 0.35091(14) 0.84956(8)
H17 H 0.958(3) 0.355(3) 0.8474(16)
C20 C 0.7661(3) 0.42228(16) 0.89664(10)
H18 H 0.815674 0.498413 0.891485
C21 C 0.8159(4) 0.3789(3) 0.95906(12)
H19 H 0.765156 0.427376 0.989745
H20 H 0.944063 0.378116 0.963145
H21 H 0.770175 0.303664 0.964124
C22 C 0.5670(3) 0.4269(2) 0.88764(13)
H22 H 0.516096 0.481047 0.915354
H23 H 0.516369 0.353739 0.895477
H24 H 0.541053 0.448927 0.846314
loop_
_geom_bond_atom_site_label_1
_geom_bond_atom_site_label_2
_geom_bond_site_symmetry_1
_geom_bond_site_symmetry_2
O1 H1 1_555 1_555
C1 H2 1_555 1_555
O2 H3 1_555 1_555
C2 O1 1_555 1_555
C3 C2 1_555 1_555
H4 C3 1_555 1_555
O3 C11 1_555 1_555
O4 H5 1_555 1_555
C4 C3 1_555 1_555
H6 C4 1_555 1_555
C5 C4 1_555 1_555
C6 C5 1_555 1_555
H7 C6 1_555 1_555
C7 C6 1_555 1_555
H8 C7 1_555 1_555
C8 H9 1_555 1_555
C9 O2 1_555 1_555
C10 C5 1_555 1_555
H10 C10 1_555 1_555
C11 C1 1_555 1_555
C12 C11 1_555 1_555
H11 C12 1_555 1_555
C13 C12 1_555 1_555
H12 C13 1_555 1_555
C14 C13 1_555 1_555
C15 C14 1_555 1_555
H13 C15 1_555 1_555
C16 C15 1_555 1_555
H14 C16 1_555 1_555
C17 O4 1_555 1_555
C18 C17 1_555 1_555
H15 C18 1_555 1_555
C19 C14 1_555 1_555
H16 C19 1_555 1_555
O5 H17 1_555 1_555
C20 O5 1_555 1_555
H18 C20 1_555 1_555
C21 C20 1_555 1_555
H19 C21 1_555 1_555
H20 C21 1_555 1_555
H21 C21 1_555 1_555
C22 C20 1_555 1_555
H22 C22 1_555 1_555
H23 C22 1_555 1_555
H24 C22 1_555 1_555
C1 C2 1_555 1_555
C7 C9 1_555 1_555
C8 C9 1_555 1_555
C8 C10 1_555 1_555
C16 C17 1_555 1_555
C18 C19 1_555 1_555

#END
