
#######################################################################
#
#                 Cambridge Crystallographic Data Centre
#                                CCDC 
#
#######################################################################
#
# If this CIF has been generated from an entry in the Cambridge 
# Structural Database, then it will include bibliographic, chemical, 
# crystal, experimental, refinement or atomic coordinate data resulting 
# from the CCDC's data processing and validation procedures.
#
#######################################################################

data_XIWDEO
_chemical_formula_moiety         'C17 H21 O2 P1'
_chemical_name_systematic        (t-Butyl(phenyl)phosphoryl)(phenyl)methanol
_symmetry_cell_setting           monoclinic
_symmetry_space_group_name_H-M   'C 2'
_symmetry_Int_Tables_number      5
_space_group_name_Hall           'C 2y'
loop_
_symmetry_equiv_pos_site_id
_symmetry_equiv_pos_as_xyz
1 x,y,z
2 -x,y,-z
3 1/2+x,1/2+y,z
4 1/2-x,1/2+y,-z
_cell_length_a                   21.4308(14)
_cell_length_b                   6.0890(4)
_cell_length_c                   13.0171(8)
_cell_angle_alpha                90
_cell_angle_beta                 116.360(2)
_cell_angle_gamma                90
_cell_volume                     1522.01
_exptl_crystal_colour            colorless
_exptl_crystal_description       needle
_cell_formula_units_Z            4
loop_
_atom_site_label
_atom_site_type_symbol
_atom_site_fract_x
_atom_site_fract_y
_atom_site_fract_z
P1 P 0.66365(2) 0.78981(7) 0.27051(4)
O1 O 0.68328(6) 0.5520(2) 0.29481(11)
O2 O 0.73670(7) 0.8915(2) 0.48374(11)
H1 H 0.7654 0.9700 0.5367
C1 C 0.73037(9) 0.9689(3) 0.37601(15)
H2 H 0.7137 1.1244 0.3639
C2 C 0.79830(9) 0.9520(3) 0.36629(15)
C3 C 0.82137(10) 1.1275(3) 0.32314(16)
H3 H 0.7941 1.2571 0.2979
C4 C 0.88431(10) 1.1122(3) 0.31718(17)
H4 H 0.9001 1.2324 0.2885
C5 C 0.92419(10) 0.9235(4) 0.35271(18)
H5 H 0.9671 0.9139 0.3481
C6 C 0.90125(10) 0.7483(3) 0.39512(17)
H6 H 0.9284 0.6182 0.4195
C7 C 0.83856(9) 0.7634(4) 0.40188(16)
H7 H 0.8231 0.6434 0.4312
C8 C 0.66052(9) 0.8756(3) 0.13508(16)
C9 C 0.67822(9) 0.7215(3) 0.07459(16)
H8 H 0.6901 0.5766 0.1039
C10 C 0.67882(9) 0.7761(4) -0.02884(15)
H9 H 0.6914 0.6693 -0.0695
C11 C 0.66095(10) 0.9871(3) -0.07220(17)
H10 H 0.6603 1.0241 -0.1436
C12 C 0.64402(11) 1.1441(3) -0.01159(17)
H11 H 0.6320 1.2887 -0.0413
C13 C 0.64453(10) 1.0904(3) 0.09252(17)
H12 H 0.6341 1.1992 0.1349
C14 C 0.57840(9) 0.8426(3) 0.26885(16)
C15 C 0.52405(10) 0.7158(4) 0.16645(18)
H13 H 0.5372 0.5605 0.1727
H14 H 0.5218 0.7764 0.0951
H15 H 0.4784 0.7296 0.1660
C16 C 0.55919(12) 1.0850(4) 0.2594(2)
H16 H 0.5160 1.1029 0.2670
H17 H 0.5526 1.1412 0.1847
H18 H 0.5967 1.1670 0.3206
C17 C 0.58071(9) 0.7492(4) 0.38001(17)
H19 H 0.6160 0.8279 0.4459
H20 H 0.5926 0.5928 0.3860
H21 H 0.5350 0.7673 0.3791
loop_
_geom_bond_atom_site_label_1
_geom_bond_atom_site_label_2
_geom_bond_site_symmetry_1
_geom_bond_site_symmetry_2
P1 O1 1_555 1_555
O2 H1 1_555 1_555
C1 P1 1_555 1_555
H2 C1 1_555 1_555
C2 C1 1_555 1_555
C3 C2 1_555 1_555
H3 C3 1_555 1_555
C4 C3 1_555 1_555
H4 C4 1_555 1_555
C5 C4 1_555 1_555
H5 C5 1_555 1_555
C6 C5 1_555 1_555
H6 C6 1_555 1_555
C7 C2 1_555 1_555
H7 C7 1_555 1_555
C8 P1 1_555 1_555
C9 C8 1_555 1_555
H8 C9 1_555 1_555
C10 C9 1_555 1_555
H9 C10 1_555 1_555
C11 C10 1_555 1_555
H10 C11 1_555 1_555
C12 C11 1_555 1_555
H11 C12 1_555 1_555
C13 C8 1_555 1_555
H12 C13 1_555 1_555
C14 P1 1_555 1_555
C15 C14 1_555 1_555
H13 C15 1_555 1_555
H14 C15 1_555 1_555
H15 C15 1_555 1_555
C16 C14 1_555 1_555
H16 C16 1_555 1_555
H17 C16 1_555 1_555
H18 C16 1_555 1_555
C17 C14 1_555 1_555
H19 C17 1_555 1_555
H20 C17 1_555 1_555
H21 C17 1_555 1_555
O2 C1 1_555 1_555
C6 C7 1_555 1_555
C12 C13 1_555 1_555

#END
