
#######################################################################
#
#                 Cambridge Crystallographic Data Centre
#                                CCDC 
#
#######################################################################
#
# If this CIF has been generated from an entry in the Cambridge 
# Structural Database, then it will include bibliographic, chemical, 
# crystal, experimental, refinement or atomic coordinate data resulting 
# from the CCDC's data processing and validation procedures.
#
#######################################################################

data_XIWDAL
_chemical_formula_moiety         'C19 H16 O4,C3 H6 O1'
_chemical_name_systematic        
'5-hydroxy-1,7-bis(4-hydroxyphenyl)hepta-1,4,6-trien-3-one acetone solvate'
_symmetry_cell_setting           orthorhombic
_symmetry_space_group_name_H-M   'P n a 21'
_symmetry_Int_Tables_number      33
_space_group_name_Hall           'P 2c -2n'
loop_
_symmetry_equiv_pos_site_id
_symmetry_equiv_pos_as_xyz
1 x,y,z
2 -x,-y,1/2+z
3 1/2+x,1/2-y,z
4 1/2-x,1/2+y,1/2+z
_cell_length_a                   7.4797(19)
_cell_length_b                   11.340(4)
_cell_length_c                   22.506(6)
_cell_angle_alpha                90
_cell_angle_beta                 90
_cell_angle_gamma                90
_cell_volume                     1908.95
_exptl_crystal_colour            orange
_exptl_crystal_description       block
_cell_formula_units_Z            4
loop_
_atom_site_label
_atom_site_type_symbol
_atom_site_fract_x
_atom_site_fract_y
_atom_site_fract_z
O1 O 0.6931(3) 0.0565(2) 0.36573(9)
H1 H 0.726(6) 0.055(4) 0.4069(12)
C1 C 0.5728(4) 0.2268(3) 0.40939(12)
H2 H 0.512708 0.297931 0.404384
C2 C 0.6009(4) 0.1559(3) 0.36090(12)
O2 O 0.7179(3) 0.09877(18) 0.47557(8)
O3 O 0.2937(4) 0.1251(2) 0.02322(9)
H3 H 0.315(7) 0.050(3) 0.005(2)
C3 C 0.5332(4) 0.1828(3) 0.30216(12)
H4 H 0.474588 0.253905 0.295576
O4 O 0.4794(4) 0.5139(2) 0.77674(10)
H5 H 0.498(6) 0.473(4) 0.8146(14)
C4 C 0.5536(4) 0.1066(3) 0.25719(12)
H6 H 0.616702 0.038123 0.265953
C5 C 0.4898(4) 0.1174(2) 0.19635(12)
C6 C 0.3881(4) 0.2120(2) 0.17533(12)
H7 H 0.361861 0.274137 0.200839
C7 C 0.3257(4) 0.2154(3) 0.11758(13)
H8 H 0.258210 0.279217 0.104480
C8 C 0.4723(4) 0.0305(3) 0.09795(12)
H9 H 0.504329 -0.029229 0.071713
C9 C 0.3649(4) 0.1223(3) 0.07894(12)
C10 C 0.5320(4) 0.0278(3) 0.15624(12)
H10 H 0.601796 -0.035269 0.168911
C11 C 0.6331(4) 0.1946(3) 0.46717(11)
C12 C 0.5932(4) 0.2738(3) 0.51658(12)
H11 H 0.526444 0.341408 0.509169
C13 C 0.6492(4) 0.2530(3) 0.57234(11)
H12 H 0.722027 0.187413 0.577893
C14 C 0.6073(4) 0.3226(3) 0.62507(12)
C15 C 0.5171(4) 0.4306(3) 0.62213(13)
H13 H 0.485624 0.461413 0.585300
C16 C 0.4741(4) 0.4919(3) 0.67315(13)
H14 H 0.412384 0.562882 0.670427
C17 C 0.5228(4) 0.4479(3) 0.72890(12)
C18 C 0.6130(4) 0.3410(3) 0.73278(12)
H15 H 0.645646 0.310870 0.769651
C19 C 0.6541(4) 0.2797(3) 0.68122(12)
H16 H 0.714332 0.208214 0.684072
O5 O 0.4878(4) 0.4223(3) 0.89036(12)
C20 C 0.3421(5) 0.4027(3) 0.91145(15)
C21 C 0.3114(9) 0.4032(5) 0.97640(19)
H17 H 0.424208 0.401399 0.996697
H18 H 0.242350 0.335238 0.987332
H19 H 0.247572 0.473436 0.987299
C22 C 0.1871(8) 0.3717(7) 0.8725(3)
H20 H 0.218020 0.386151 0.831727
H21 H 0.085793 0.419134 0.883152
H22 H 0.158002 0.289835 0.877539
loop_
_geom_bond_atom_site_label_1
_geom_bond_atom_site_label_2
_geom_bond_site_symmetry_1
_geom_bond_site_symmetry_2
O1 H1 1_555 1_555
C1 H2 1_555 1_555
C2 O1 1_555 1_555
O2 C11 1_555 1_555
O3 H3 1_555 1_555
C3 C2 1_555 1_555
H4 C3 1_555 1_555
O4 H5 1_555 1_555
C4 C3 1_555 1_555
H6 C4 1_555 1_555
C5 C4 1_555 1_555
C6 C5 1_555 1_555
H7 C6 1_555 1_555
C7 C6 1_555 1_555
H8 C7 1_555 1_555
C8 H9 1_555 1_555
C9 O3 1_555 1_555
C10 C5 1_555 1_555
H10 C10 1_555 1_555
C11 C1 1_555 1_555
C12 C11 1_555 1_555
H11 C12 1_555 1_555
C13 C12 1_555 1_555
H12 C13 1_555 1_555
C14 C13 1_555 1_555
C15 C14 1_555 1_555
H13 C15 1_555 1_555
C16 C15 1_555 1_555
H14 C16 1_555 1_555
C17 O4 1_555 1_555
C18 C17 1_555 1_555
H15 C18 1_555 1_555
C19 C14 1_555 1_555
H16 C19 1_555 1_555
O5 C20 1_555 1_555
C20 C21 1_555 1_555
C21 H17 1_555 1_555
H18 C21 1_555 1_555
H19 C21 1_555 1_555
C22 C20 1_555 1_555
H20 C22 1_555 1_555
H21 C22 1_555 1_555
H22 C22 1_555 1_555
C1 C2 1_555 1_555
C7 C9 1_555 1_555
C8 C9 1_555 1_555
C8 C10 1_555 1_555
C16 C17 1_555 1_555
C18 C19 1_555 1_555

#END
