
#######################################################################
#
#                 Cambridge Crystallographic Data Centre
#                                CCDC 
#
#######################################################################
#
# If this CIF has been generated from an entry in the Cambridge 
# Structural Database, then it will include bibliographic, chemical, 
# crystal, experimental, refinement or atomic coordinate data resulting 
# from the CCDC's data processing and validation procedures.
#
#######################################################################

data_XIWNUM
_chemical_formula_moiety         'C26 H26 O6'
_chemical_name_systematic        
2,2'-Diphenyl-3,3'-diisopropoxy-4,4'-dihydroxy-4,4'-bicyclobutenone
_symmetry_cell_setting           monoclinic
_symmetry_space_group_name_H-M   'P 21/c'
_symmetry_Int_Tables_number      14
_space_group_name_Hall           '-P 2ybc'
loop_
_symmetry_equiv_pos_site_id
_symmetry_equiv_pos_as_xyz
1 x,y,z
2 -x,1/2+y,1/2-z
3 -x,-y,-z
4 x,1/2-y,1/2+z
_cell_length_a                   11.806(3)
_cell_length_b                   19.14(2)
_cell_length_c                   11.832(4)
_cell_angle_alpha                90
_cell_angle_beta                 116.33(2)
_cell_angle_gamma                90
_cell_volume                     2396.26
_exptl_crystal_colour            colorless
_exptl_crystal_description       prismatic
_chemical_melting_point          '168-170 deg.C'
_cell_formula_units_Z            4
_exptl_crystal_recrystallization_method 'ethyl acetate'
loop_
_atom_site_label
_atom_site_type_symbol
_atom_site_fract_x
_atom_site_fract_y
_atom_site_fract_z
O1 O 0.8589(4) 0.2282(2) 0.6647(3)
O2 O 0.6251(4) 0.1116(2) 0.8209(4)
O3 O 0.8414(3) 0.2371(2) 0.9187(3)
O4 O 0.9812(3) 0.1281(2) 1.0476(3)
O5 O 0.8814(3) -0.0007(2) 0.8568(3)
O6 O 1.1430(4) 0.1809(2) 0.8965(4)
C1 C 0.5955(6) 0.1582(3) 0.4266(6)
C2 C 0.5044(8) 0.1400(4) 0.3090(6)
C3 C 0.4034(8) 0.0968(4) 0.2969(7)
C4 C 0.3944(6) 0.0742(4) 0.4011(7)
C5 C 0.4841(6) 0.0922(3) 0.5193(6)
C6 C 0.5866(5) 0.1347(3) 0.5345(5)
C7 C 0.6843(5) 0.1527(3) 0.6602(5)
C8 C 0.8019(6) 0.1919(3) 0.7086(5)
C9 C 0.8335(5) 0.1751(2) 0.8489(5)
C10 C 0.7029(5) 0.1411(3) 0.7819(5)
C11 C 1.1806(7) 0.0700(3) 0.7156(7)
C12 C 1.2358(9) 0.0374(5) 0.6471(9)
C13 C 1.202(1) -0.0300(5) 0.6052(8)
C14 C 1.1172(10) -0.0658(4) 0.6327(8)
C15 C 1.0604(7) -0.0328(3) 0.7007(6)
C16 C 1.0928(6) 0.0358(3) 0.7417(5)
C17 C 1.0358(5) 0.0709(3) 0.8167(5)
C18 C 0.9392(5) 0.0523(3) 0.8550(4)
C19 C 0.9481(5) 0.1266(2) 0.9161(4)
C20 C 1.0551(5) 0.1339(3) 0.8769(5)
C21 C 0.6488(8) 0.0280(5) 0.9784(7)
C22 C 0.6619(7) 0.1041(4) 0.9572(6)
C23 C 0.574(1) 0.1475(4) 0.9865(9)
C24 C 1.1494(9) 0.3043(4) 0.8733(8)
C25 C 1.1417(6) 0.2490(3) 0.9554(7)
C26 C 1.256(1) 0.2504(4) 1.0819(9)
H1 H 0.6668 0.1888 0.4364
H2 H 0.5114 0.1568 0.2325
H3 H 0.3394 0.0844 0.2097
H4 H 0.3218 0.0445 0.3887
H5 H 0.4769 0.0753 0.5961
H6 H 0.8345 0.2297 1.0073
H7 H 1.0291 0.0848 1.0819
H8 H 1.2069 0.1186 0.7490
H9 H 1.3011 0.0621 0.6316
H10 H 1.2391 -0.0523 0.5567
H11 H 1.0957 -0.1144 0.6052
H12 H 0.9992 -0.0580 0.7228
H13 H 0.7018 -0.0002 0.9528
H14 H 0.5633 0.0126 0.9291
H15 H 0.6720 0.0169 1.0649
H16 H 0.7486 0.1188 1.0091
H17 H 0.5765 0.1965 0.9646
H18 H 0.5894 0.1464 1.0729
H19 H 0.4865 0.1329 0.9365
H20 H 1.2252 0.2993 0.8618
H21 H 1.0789 0.3004 0.7890
H22 H 1.1479 0.3503 0.9025
H23 H 1.0672 0.2548 0.9700
H24 H 1.2604 0.2119 1.1362
H25 H 1.2664 0.2927 1.1294
H26 H 1.3350 0.2465 1.0711
loop_
_geom_bond_atom_site_label_1
_geom_bond_atom_site_label_2
_geom_bond_site_symmetry_1
_geom_bond_site_symmetry_2
O1 C8 1_555 1_555
O2 C10 1_555 1_555
O3 C9 1_555 1_555
O4 C19 1_555 1_555
O5 C18 1_555 1_555
O6 C20 1_555 1_555
C1 C2 1_555 1_555
C2 C3 1_555 1_555
C3 C4 1_555 1_555
C4 C5 1_555 1_555
C5 C6 1_555 1_555
C6 C1 1_555 1_555
C7 C6 1_555 1_555
C8 C7 1_555 1_555
C9 C8 1_555 1_555
C10 C7 1_555 1_555
C11 C12 1_555 1_555
C12 C13 1_555 1_555
C13 C14 1_555 1_555
C14 C15 1_555 1_555
C15 C16 1_555 1_555
C16 C11 1_555 1_555
C17 C16 1_555 1_555
C18 C17 1_555 1_555
C19 C9 1_555 1_555
C20 C17 1_555 1_555
C21 C22 1_555 1_555
C22 O2 1_555 1_555
C23 C22 1_555 1_555
C24 C25 1_555 1_555
C25 O6 1_555 1_555
C26 C25 1_555 1_555
H1 C1 1_555 1_555
H2 C2 1_555 1_555
H3 C3 1_555 1_555
H4 C4 1_555 1_555
H5 C5 1_555 1_555
H6 O3 1_555 1_555
H7 O4 1_555 1_555
H8 C11 1_555 1_555
H9 C12 1_555 1_555
H10 C13 1_555 1_555
H11 C14 1_555 1_555
H12 C15 1_555 1_555
H13 C21 1_555 1_555
H14 C21 1_555 1_555
H15 C21 1_555 1_555
H16 C22 1_555 1_555
H17 C23 1_555 1_555
H18 C23 1_555 1_555
H19 C23 1_555 1_555
H20 C24 1_555 1_555
H21 C24 1_555 1_555
H22 C24 1_555 1_555
H23 C25 1_555 1_555
H24 C26 1_555 1_555
H25 C26 1_555 1_555
H26 C26 1_555 1_555
C9 C10 1_555 1_555
C18 C19 1_555 1_555
C19 C20 1_555 1_555

#END
