
#######################################################################
#
#                 Cambridge Crystallographic Data Centre
#                                CCDC 
#
#######################################################################
#
# If this CIF has been generated from an entry in the Cambridge 
# Structural Database, then it will include bibliographic, chemical, 
# crystal, experimental, refinement or atomic coordinate data resulting 
# from the CCDC's data processing and validation procedures.
#
#######################################################################

data_XIWXUX
_chemical_formula_moiety         'C96 H108 S8,C1 H1 Cl3'
_chemical_name_systematic        
'4,10-bis(10-(4,5-bis(Decylsulfanyl)-1,3-dithiol-2-ylidene)anthracen-9(10H)-ylidene)-1,7(1,2)-dibenzenacyclodeodecaphane-2,5,8,11-tetrayne chloroform solvate'
_symmetry_cell_setting           triclinic
_symmetry_space_group_name_H-M   'P -1'
_symmetry_Int_Tables_number      2
_space_group_name_Hall           '-P 1'
loop_
_symmetry_equiv_pos_site_id
_symmetry_equiv_pos_as_xyz
1 x,y,z
2 -x,-y,-z
_cell_length_a                   14.7182(9)
_cell_length_b                   17.4492(10)
_cell_length_c                   19.7488(13)
_cell_angle_alpha                75.644(9)
_cell_angle_beta                 74.358(8)
_cell_angle_gamma                65.770(6)
_cell_volume                     4399.04
_exptl_crystal_colour            red
_exptl_crystal_description       prism
_cell_formula_units_Z            2
_exptl_crystal_recrystallization_method chloroform/methanol
loop_
_atom_site_label
_atom_site_type_symbol
_atom_site_fract_x
_atom_site_fract_y
_atom_site_fract_z
Cl1 Cl 0.0692(3) 0.1457(2) 0.95167(18)
Cl2 Cl 0.0207(3) 0.0486(3) 1.08020(18)
Cl3 Cl 0.1245(4) 0.1521(3) 1.0773(4)
C97 C 0.0976(9) 0.0991(8) 1.0319(5)
H109 H 0.1638 0.0514 1.0207
S1 S 0.31879(11) 0.88235(9) 1.03090(6)
S2 S 0.57223(11) 0.79522(8) 1.02980(6)
S3 S 0.36516(9) 1.01971(8) 0.92138(6)
S4 S 0.58308(9) 0.94286(7) 0.91573(6)
C1 C 0.3775(6) 0.4454(5) 0.5655(4)
H1 H 0.3919 0.4741 0.5168
H2 H 0.3401 0.4097 0.5665
H3 H 0.4415 0.4097 0.5818
C2 C 0.3144(5) 0.5110(4) 0.6140(3)
H4 H 0.2694 0.4878 0.6527
H5 H 0.2707 0.5622 0.5865
C3 C 0.3781(4) 0.5370(3) 0.6466(3)
H6 H 0.4233 0.4859 0.6730
H7 H 0.4212 0.5624 0.6082
C4 C 0.3119(4) 0.6007(3) 0.6968(2)
H8 H 0.2633 0.5774 0.7314
H9 H 0.2719 0.6536 0.6688
C5 C 0.3692(4) 0.6236(3) 0.7383(2)
H10 H 0.4078 0.5714 0.7677
H11 H 0.4183 0.6466 0.7042
C6 C 0.2974(4) 0.6889(3) 0.7863(2)
H12 H 0.2458 0.6670 0.8180
H13 H 0.2615 0.7419 0.7563
C7 C 0.3503(4) 0.7101(3) 0.8317(3)
H14 H 0.4026 0.7312 0.8001
H15 H 0.3851 0.6574 0.8624
C8 C 0.2777(4) 0.7768(3) 0.8787(2)
H16 H 0.2437 0.8299 0.8480
H17 H 0.2247 0.7561 0.9099
C9 C 0.3309(4) 0.7963(3) 0.9246(2)
H18 H 0.3600 0.7442 0.9581
H19 H 0.3877 0.8122 0.8938
C10 C 0.2613(4) 0.8671(3) 0.9667(2)
H20 H 0.1999 0.8548 0.9923
H21 H 0.2397 0.9208 0.9331
C11 C 0.6973(7) 0.3242(6) 0.5772(5)
H22 H 0.6816 0.2772 0.6102
H23 H 0.7411 0.3038 0.5332
H24 H 0.6343 0.3699 0.5662
C12 C 0.7507(6) 0.3572(5) 0.6107(4)
H25 H 0.7984 0.3783 0.5728
H26 H 0.7913 0.3095 0.6426
C13 C 0.6803(4) 0.4282(3) 0.6532(3)
H27 H 0.6272 0.4097 0.6870
H28 H 0.6462 0.4786 0.6202
C14 C 0.7338(4) 0.4541(3) 0.6947(3)
H29 H 0.7701 0.4033 0.7264
H30 H 0.7852 0.4747 0.6607
C15 C 0.6635(4) 0.5225(3) 0.7391(2)
H31 H 0.6113 0.5025 0.7724
H32 H 0.6284 0.5738 0.7073
C16 C 0.7167(4) 0.5471(3) 0.7817(2)
H33 H 0.7625 0.5742 0.7483
H34 H 0.7590 0.4948 0.8090
C17 C 0.6438(4) 0.6077(3) 0.8332(3)
H35 H 0.5988 0.5801 0.8669
H36 H 0.6006 0.6593 0.8059
C18 C 0.6952(4) 0.6345(3) 0.8757(2)
H37 H 0.7362 0.5835 0.9049
H38 H 0.7416 0.6610 0.8425
C19 C 0.6181(4) 0.6971(3) 0.9241(2)
H39 H 0.5769 0.7476 0.8946
H40 H 0.5717 0.6702 0.9570
C20 C 0.6653(4) 0.7261(3) 0.9675(3)
H41 H 0.7077 0.7568 0.9347
H42 H 0.7104 0.6755 0.9944
C21 C 0.4106(4) 0.9200(3) 0.9738(2)
C22 C 0.5112(4) 0.8847(3) 0.9726(2)
C23 C 0.4844(3) 1.0233(3) 0.8754(2)
C24 C 0.4979(3) 1.0779(3) 0.8145(2)
C25 C 0.4107(3) 1.1434(3) 0.7836(2)
C26 C 0.3197(3) 1.1891(3) 0.8240(2)
H43 H 0.3103 1.1770 0.8745
C27 C 0.2428(4) 1.2519(3) 0.7922(2)
H44 H 0.1800 1.2803 0.8208
C28 C 0.2566(4) 1.2737(3) 0.7189(2)
H45 H 0.2048 1.3190 0.6972
C29 C 0.3464(4) 1.2290(3) 0.6774(2)
H46 H 0.3560 1.2437 0.6270
C30 C 0.4237(3) 1.1621(3) 0.7087(2)
C31 C 0.5176(3) 1.1099(3) 0.6664(2)
C32 C 0.6091(3) 1.0859(3) 0.6965(2)
C33 C 0.7046(3) 1.0784(3) 0.6541(2)
H47 H 0.7121 1.0883 0.6037
C34 C 0.7877(4) 1.0571(3) 0.6839(3)
H48 H 0.8520 1.0517 0.6543
C35 C 0.7770(4) 1.0437(3) 0.7572(3)
H49 H 0.8342 1.0289 0.7781
C36 C 0.6826(4) 1.0518(3) 0.8004(2)
H50 H 0.6758 1.0432 0.8506
C37 C 0.5985(3) 1.0722(3) 0.7711(2)
C38 C 0.5170(3) 1.0791(3) 0.6090(2)
C39 C 0.4242(3) 1.0971(3) 0.5867(2)
C40 C 0.6046(3) 1.0208(3) 0.5707(2)
C41 C 0.6718(3) 0.9700(3) 0.5374(2)
C42 C 0.7586(3) 0.9084(3) 0.5007(2)
C43 C 0.8534(4) 0.8849(3) 0.5175(2)
H51 H 0.8598 0.9102 0.5526
C44 C 0.9385(4) 0.8254(3) 0.4839(3)
H52 H 1.0028 0.8094 0.4961
C45 C 0.9291(4) 0.7892(3) 0.4323(2)
H53 H 0.9873 0.7488 0.4086
C46 C 0.8356(3) 0.8116(3) 0.4150(2)
H54 H 0.8302 0.7861 0.3797
C47 C 0.7490(3) 0.8710(3) 0.4487(2)
C48 C 0.3475(3) 1.1081(3) 0.5687(2)
S1A S 0.68121(11) 1.11765(9) -0.03090(6)
S2A S 0.42777(11) 1.20478(8) -0.02980(6)
S3A S 0.63484(9) 0.98029(8) 0.07862(6)
S4A S 0.41692(9) 1.05714(7) 0.08427(6)
C1A C 0.6225(6) 1.5546(5) 0.4345(4)
H1A H 0.6081 1.5259 0.4832
H2A H 0.6599 1.5903 0.4335
H3A H 0.5585 1.5903 0.4182
C2A C 0.6856(5) 1.4890(4) 0.3860(3)
H4A H 0.7306 1.5122 0.3473
H5A H 0.7293 1.4378 0.4135
C3A C 0.6219(4) 1.4630(3) 0.3534(3)
H6A H 0.5767 1.5141 0.3270
H7A H 0.5788 1.4376 0.3918
C4A C 0.6881(4) 1.3993(3) 0.3032(2)
H8A H 0.7367 1.4226 0.2686
H9A H 0.7281 1.3464 0.3312
C5A C 0.6308(4) 1.3764(3) 0.2617(2)
H10A H 0.5922 1.4286 0.2323
H11A H 0.5817 1.3534 0.2958
C6A C 0.7026(4) 1.3111(3) 0.2137(2)
H12A H 0.7542 1.3330 0.1820
H13A H 0.7385 1.2581 0.2437
C7A C 0.6497(4) 1.2899(3) 0.1683(3)
H14A H 0.5974 1.2688 0.1999
H15A H 0.6149 1.3426 0.1376
C8A C 0.7223(4) 1.2232(3) 0.1213(2)
H16A H 0.7563 1.1701 0.1520
H17A H 0.7753 1.2439 0.0901
C9A C 0.6691(4) 1.2037(3) 0.0754(2)
H18A H 0.6400 1.2558 0.0419
H19A H 0.6123 1.1878 0.1062
C10A C 0.7387(4) 1.1329(3) 0.0333(2)
H20A H 0.8001 1.1452 0.0077
H21A H 0.7603 1.0792 0.0669
C11A C 0.3027(7) 1.6758(6) 0.4228(5)
H22A H 0.3184 1.7228 0.3898
H23A H 0.2589 1.6962 0.4668
H24A H 0.3657 1.6301 0.4338
C12A C 0.2493(6) 1.6428(5) 0.3893(4)
H25A H 0.2016 1.6217 0.4272
H26A H 0.2087 1.6905 0.3574
C13A C 0.3197(4) 1.5718(3) 0.3468(3)
H27A H 0.3728 1.5903 0.3130
H28A H 0.3538 1.5214 0.3798
C14A C 0.2662(4) 1.5459(3) 0.3053(3)
H29A H 0.2299 1.5967 0.2736
H30A H 0.2148 1.5253 0.3393
C15A C 0.3365(4) 1.4775(3) 0.2609(2)
H31A H 0.3887 1.4975 0.2276
H32A H 0.3716 1.4262 0.2927
C16A C 0.2833(4) 1.4529(3) 0.2183(2)
H33A H 0.2375 1.4258 0.2517
H34A H 0.2410 1.5052 0.1910
C17A C 0.3562(4) 1.3923(3) 0.1668(3)
H35A H 0.4012 1.4199 0.1331
H36A H 0.3994 1.3407 0.1941
C18A C 0.3048(4) 1.3655(3) 0.1243(2)
H37A H 0.2638 1.4165 0.0951
H38A H 0.2584 1.3390 0.1575
C19A C 0.3819(4) 1.3029(3) 0.0759(2)
H39A H 0.4231 1.2524 0.1054
H40A H 0.4283 1.3298 0.0430
C20A C 0.3347(4) 1.2739(3) 0.0325(3)
H41A H 0.2923 1.2432 0.0653
H42A H 0.2896 1.3245 0.0056
C21A C 0.5894(4) 1.0800(3) 0.0262(2)
C22A C 0.4888(4) 1.1153(3) 0.0274(2)
C23A C 0.5156(3) 0.9767(3) 0.1246(2)
C24A C 0.5021(3) 0.9221(3) 0.1855(2)
C25A C 0.5893(3) 0.8566(3) 0.2164(2)
C26A C 0.6803(3) 0.8109(3) 0.1760(2)
H43A H 0.6897 0.8230 0.1255
C27A C 0.7572(4) 0.7481(3) 0.2078(2)
H44A H 0.8200 0.7197 0.1792
C28A C 0.7434(4) 0.7263(3) 0.2811(2)
H45A H 0.7952 0.6810 0.3028
C29A C 0.6536(4) 0.7710(3) 0.3226(2)
H46A H 0.6440 0.7563 0.3730
C30A C 0.5763(3) 0.8379(3) 0.2913(2)
C31A C 0.4824(3) 0.8901(3) 0.3336(2)
C32A C 0.3909(3) 0.9141(3) 0.3035(2)
C33A C 0.2954(3) 0.9216(3) 0.3459(2)
H47A H 0.2879 0.9117 0.3963
C34A C 0.2123(4) 0.9429(3) 0.3161(3)
H48A H 0.1480 0.9483 0.3457
C35A C 0.2230(4) 0.9563(3) 0.2428(3)
H49A H 0.1658 0.9711 0.2219
C36A C 0.3174(4) 0.9482(3) 0.1996(2)
H50A H 0.3242 0.9568 0.1494
C37A C 0.4015(3) 0.9278(3) 0.2289(2)
C38A C 0.4830(3) 0.9209(3) 0.3910(2)
C39A C 0.5758(3) 0.9029(3) 0.4133(2)
C40A C 0.3954(3) 0.9792(3) 0.4293(2)
C41A C 0.3282(3) 1.0300(3) 0.4626(2)
C42A C 0.2414(3) 1.0916(3) 0.4993(2)
C43A C 0.1466(4) 1.1151(3) 0.4825(2)
H51A H 0.1402 1.0898 0.4474
C44A C 0.0615(4) 1.1746(3) 0.5161(3)
H52A H -0.0028 1.1906 0.5039
C45A C 0.0709(4) 1.2108(3) 0.5677(2)
H53A H 0.0127 1.2512 0.5914
C46A C 0.1644(3) 1.1884(3) 0.5850(2)
H54A H 0.1698 1.2139 0.6203
C47A C 0.2510(3) 1.1290(3) 0.5513(2)
C48A C 0.6525(3) 0.8919(3) 0.4313(2)
S5 S 1.00651(9) 0.45525(8) 0.68494(6)
S6 S 1.03882(10) 0.53000(8) 0.78905(7)
S7 S 1.02463(10) 0.59608(9) 0.56482(7)
S8 S 1.04646(11) 0.68775(9) 0.68971(8)
C49 C 0.0543(4) 0.9182(4) 0.5843(3)
H55 H 0.0242 0.8883 0.6275
H56 H 0.0081 0.9421 0.5504
H57 H 0.0657 0.9642 0.5966
C50 C 0.1545(4) 0.8563(4) 0.5511(3)
H58 H 0.1510 0.7990 0.5612
H59 H 0.1656 0.8739 0.4989
C51 C 0.2437(4) 0.8514(3) 0.5784(2)
H60 H 0.2312 0.8350 0.6308
H61 H 0.2469 0.9088 0.5679
C52 C 0.3456(4) 0.7896(3) 0.5478(2)
H62 H 0.3582 0.8052 0.4953
H63 H 0.3435 0.7318 0.5592
C53 C 0.4335(4) 0.7881(3) 0.5758(2)
H64 H 0.4385 0.8450 0.5616
H65 H 0.4187 0.7764 0.6285
C54 C 0.5347(4) 0.7223(3) 0.5489(2)
H66 H 0.5491 0.7336 0.4963
H67 H 0.5299 0.6653 0.5635
C55 C 0.6229(4) 0.7209(3) 0.5762(2)
H68 H 0.6262 0.7784 0.5631
H69 H 0.6096 0.7075 0.6288
C56 C 0.7253(4) 0.6569(3) 0.5472(2)
H70 H 0.7219 0.5994 0.5599
H71 H 0.7391 0.6706 0.4946
C57 C 0.8128(4) 0.6552(3) 0.5752(2)
H72 H 0.8004 0.6399 0.6277
H73 H 0.8159 0.7127 0.5633
C58 C 0.9138(4) 0.5919(3) 0.5438(2)
H74 H 0.9206 0.6022 0.4914
H75 H 0.9131 0.5338 0.5613
C59 C 0.0773(4) 1.0099(4) 0.7299(4)
H76 H 0.0606 1.0537 0.6884
H77 H 0.0177 1.0194 0.7685
H78 H 0.0975 0.9536 0.7170
C60 C 0.1646(4) 1.0143(4) 0.7545(3)
H79 H 0.1605 1.0740 0.7440
H80 H 0.1571 0.9965 0.8068
C61 C 0.2686(4) 0.9582(3) 0.7188(2)
H81 H 0.2704 0.8995 0.7260
H82 H 0.2780 0.9791 0.6670
C62 C 0.3552(4) 0.9565(3) 0.7466(2)
H83 H 0.3430 0.9399 0.7990
H84 H 0.3566 1.0145 0.7360
C63 C 0.4589(4) 0.8951(3) 0.7149(2)
H85 H 0.4557 0.8380 0.7220
H86 H 0.4734 0.9143 0.6629
C64 C 0.5458(4) 0.8877(3) 0.7468(2)
H87 H 0.5486 0.9449 0.7400
H88 H 0.5317 0.8679 0.7986
C65 C 0.6482(4) 0.8278(3) 0.7149(2)
H89 H 0.6470 0.7697 0.7250
H90 H 0.6599 0.8449 0.6626
C66 C 0.7358(4) 0.8253(3) 0.7423(2)
H91 H 0.7243 0.8088 0.7947
H92 H 0.7386 0.8829 0.7313
C67 C 0.8372(4) 0.7626(3) 0.7094(3)
H93 H 0.8318 0.7062 0.7174
H94 H 0.8499 0.7816 0.6574
C68 C 0.9267(4) 0.7528(3) 0.7384(3)
H95 H 0.9188 0.7264 0.7891
H96 H 0.9278 0.8097 0.7359
C69 C 1.0163(3) 0.5559(3) 0.6558(2)
C70 C 1.0290(4) 0.5908(3) 0.7040(3)
C71 C 1.0038(3) 0.4496(3) 0.7763(2)
C72 C 0.9769(3) 0.3934(3) 0.8297(2)
C73 C 0.9382(3) 0.3322(3) 0.8191(2)
C74 C 0.9799(4) 0.2856(3) 0.7632(2)
H97 H 1.0365 0.2926 0.7291
C75 C 0.9402(4) 0.2294(3) 0.7567(3)
H98 H 0.9694 0.1983 0.7179
C76 C 0.8580(4) 0.2177(3) 0.8060(3)
H99 H 0.8309 0.1788 0.8013
C77 C 0.8162(4) 0.2631(3) 0.8620(2)
H100 H 0.7597 0.2553 0.8957
C78 C 0.8546(3) 0.3201(3) 0.8704(2)
C79 C 0.8143(3) 0.3678(3) 0.9305(2)
C80 C 0.8921(3) 0.3796(3) 0.9564(2)
C81 C 0.8910(4) 0.3739(3) 1.0278(2)
H101 H 0.8361 0.3645 1.0624
C82 C 0.9670(4) 0.3816(3) 1.0497(3)
H102 H 0.9650 0.3770 1.0990
C83 C 1.0473(4) 0.3961(3) 0.9993(3)
H103 H 1.0994 0.4030 1.0141
C84 C 1.0511(4) 0.4004(3) 0.9279(3)
H104 H 1.1070 0.4088 0.8939
C85 C 0.9746(3) 0.3926(3) 0.9052(2)
C86 C 0.7121(4) 0.4037(3) 0.9576(2)
C87 C 0.6740(3) 0.4567(3) 1.0117(2)
C88 C 0.6362(4) 0.3974(3) 0.9294(2)
C89 C 0.5705(4) 0.3957(3) 0.9057(2)
C90 C 0.4963(4) 0.3917(3) 0.8741(2)
C91 C 0.5259(5) 0.3390(3) 0.8226(2)
H105 H 0.5954 0.3049 0.8092
C92 C 0.4528(6) 0.3369(4) 0.7912(3)
H106 H 0.4728 0.3006 0.7568
C93 C 0.3523(5) 0.3867(4) 0.8095(3)
H107 H 0.3034 0.3856 0.7870
C94 C 0.3225(4) 0.4379(4) 0.8599(2)
H108 H 0.2527 0.4716 0.8725
C95 C 0.3930(4) 0.4416(3) 0.8932(2)
C96 C 0.6409(4) 0.5036(3) 1.0546(2)
S5A S -0.00651(9) 0.54475(8) 1.31506(6)
S6A S -0.03882(10) 0.47000(8) 1.21095(7)
S7A S -0.02463(10) 0.40392(9) 1.43518(7)
S8A S -0.04646(11) 0.31225(9) 1.31029(8)
C49A C 0.9457(4) 0.0818(4) 1.4157(3)
H55A H 0.9758 0.1117 1.3725
H56A H 0.9919 0.0579 1.4496
H57A H 0.9343 0.0358 1.4034
C50A C 0.8455(4) 0.1437(4) 1.4489(3)
H58A H 0.8490 0.2010 1.4388
H59A H 0.8344 0.1261 1.5011
C51A C 0.7563(4) 0.1486(3) 1.4216(2)
H60A H 0.7688 0.1650 1.3692
H61A H 0.7531 0.0912 1.4321
C52A C 0.6544(4) 0.2104(3) 1.4522(2)
H62A H 0.6418 0.1948 1.5047
H63A H 0.6565 0.2682 1.4408
C53A C 0.5665(4) 0.2119(3) 1.4242(2)
H64A H 0.5615 0.1550 1.4384
H65A H 0.5813 0.2236 1.3715
C54A C 0.4653(4) 0.2777(3) 1.4511(2)
H66A H 0.4509 0.2664 1.5037
H67A H 0.4701 0.3347 1.4365
C55A C 0.3771(4) 0.2791(3) 1.4238(2)
H68A H 0.3738 0.2216 1.4369
H69A H 0.3904 0.2925 1.3712
C56A C 0.2747(4) 0.3431(3) 1.4528(2)
H70A H 0.2781 0.4006 1.4401
H71A H 0.2609 0.3294 1.5054
C57A C 0.1872(4) 0.3448(3) 1.4248(2)
H72A H 0.1996 0.3601 1.3723
H73A H 0.1841 0.2873 1.4367
C58A C 0.0862(4) 0.4081(3) 1.4562(2)
H74A H 0.0794 0.3978 1.5086
H75A H 0.0869 0.4662 1.4387
C59A C 0.9227(4) -0.0099(4) 1.2701(4)
H76A H 0.9394 -0.0537 1.3116
H77A H 0.9823 -0.0194 1.2315
H78A H 0.9025 0.0464 1.2830
C60A C 0.8354(4) -0.0143(4) 1.2455(3)
H79A H 0.8395 -0.0740 1.2560
H80A H 0.8429 0.0035 1.1932
C61A C 0.7314(4) 0.0418(3) 1.2812(2)
H81A H 0.7296 0.1005 1.2740
H82A H 0.7220 0.0209 1.3330
C62A C 0.6448(4) 0.0435(3) 1.2534(2)
H83A H 0.6570 0.0601 1.2010
H84A H 0.6434 -0.0145 1.2640
C63A C 0.5411(4) 0.1049(3) 1.2851(2)
H85A H 0.5443 0.1620 1.2780
H86A H 0.5266 0.0857 1.3371
C64A C 0.4542(4) 0.1123(3) 1.2532(2)
H87A H 0.4514 0.0551 1.2600
H88A H 0.4683 0.1321 1.2014
C65A C 0.3518(4) 0.1722(3) 1.2851(2)
H89A H 0.3530 0.2303 1.2750
H90A H 0.3401 0.1551 1.3374
C66A C 0.2642(4) 0.1747(3) 1.2577(2)
H91A H 0.2757 0.1912 1.2053
H92A H 0.2614 0.1171 1.2687
C67A C 0.1628(4) 0.2374(3) 1.2906(3)
H93A H 0.1682 0.2938 1.2826
H94A H 0.1501 0.2184 1.3426
C68A C 0.0733(4) 0.2472(3) 1.2616(3)
H95A H 0.0812 0.2736 1.2109
H96A H 0.0722 0.1903 1.2641
C69A C -0.0163(3) 0.4441(3) 1.3442(2)
C70A C -0.0290(4) 0.4092(3) 1.2960(3)
C71A C -0.0038(3) 0.5504(3) 1.2237(2)
C72A C 0.0231(3) 0.6066(3) 1.1703(2)
C73A C 0.0618(3) 0.6678(3) 1.1809(2)
C74A C 0.0201(4) 0.7144(3) 1.2368(2)
H97A H -0.0365 0.7074 1.2709
C75A C 0.0598(4) 0.7706(3) 1.2433(3)
H98A H 0.0306 0.8017 1.2821
C76A C 0.1420(4) 0.7823(3) 1.1940(3)
H99A H 0.1691 0.8212 1.1987
C77A C 0.1838(4) 0.7369(3) 1.1380(2)
H100A H 0.2403 0.7447 1.1043
C78A C 0.1454(3) 0.6799(3) 1.1296(2)
C79A C 0.1857(3) 0.6322(3) 1.0695(2)
C80A C 0.1079(3) 0.6204(3) 1.0436(2)
C81A C 0.1090(4) 0.6261(3) 0.9722(2)
H101A H 0.1639 0.6355 0.9376
C82A C 0.0330(4) 0.6184(3) 0.9503(3)
H102A H 0.0350 0.6230 0.9010
C83A C -0.0473(4) 0.6039(3) 1.0007(3)
H103A H -0.0994 0.5970 0.9859
C84A C -0.0511(4) 0.5996(3) 1.0721(3)
H104A H -0.1070 0.5912 1.1061
C85A C 0.0254(3) 0.6074(3) 1.0948(2)
C86A C 0.2879(4) 0.5963(3) 1.0424(2)
C87A C 0.3260(3) 0.5433(3) 0.9883(2)
C88A C 0.3638(4) 0.6026(3) 1.0706(2)
C89A C 0.4295(4) 0.6043(3) 1.0943(2)
C90A C 0.5037(4) 0.6083(3) 1.1259(2)
C91A C 0.4741(5) 0.6610(3) 1.1774(2)
H105A H 0.4046 0.6951 1.1908
C92A C 0.5472(6) 0.6631(4) 1.2088(3)
H106A H 0.5272 0.6994 1.2432
C93A C 0.6477(5) 0.6133(4) 1.1905(3)
H107A H 0.6966 0.6144 1.2130
C94A C 0.6775(4) 0.5621(4) 1.1401(2)
H108A H 0.7473 0.5284 1.1275
C95A C 0.6070(4) 0.5584(3) 1.1068(2)
C96A C 0.3591(4) 0.4964(3) 0.9454(2)
loop_
_geom_bond_atom_site_label_1
_geom_bond_atom_site_label_2
_geom_bond_site_symmetry_1
_geom_bond_site_symmetry_2
Cl1 C97 1_555 1_555
Cl2 C97 1_555 1_555
Cl3 C97 1_555 1_555
S1 C10 1_555 1_555
S2 C20 1_555 1_555
S3 C21 1_555 1_555
S4 C22 1_555 1_555
S5 C69 1_555 1_555
S6 C70 1_555 1_555
S7 C58 1_555 1_555
S8 C68 1_555 1_555
C1 H1 1_555 1_555
H2 C1 1_555 1_555
H3 C1 1_555 1_555
C2 C1 1_555 1_555
H4 C2 1_555 1_555
H5 C2 1_555 1_555
C3 C2 1_555 1_555
H6 C3 1_555 1_555
H7 C3 1_555 1_555
C4 C3 1_555 1_555
H8 C4 1_555 1_555
H9 C4 1_555 1_555
C5 C4 1_555 1_555
H10 C5 1_555 1_555
H11 C5 1_555 1_555
C6 C5 1_555 1_555
H12 C6 1_555 1_555
H13 C6 1_555 1_555
C7 C6 1_555 1_555
H14 C7 1_555 1_555
H15 C7 1_555 1_555
C8 C7 1_555 1_555
H16 C8 1_555 1_555
H17 C8 1_555 1_555
C9 C8 1_555 1_555
H18 C9 1_555 1_555
H19 C9 1_555 1_555
C10 C9 1_555 1_555
H20 C10 1_555 1_555
H21 C10 1_555 1_555
C11 H22 1_555 1_555
H23 C11 1_555 1_555
H24 C11 1_555 1_555
C12 C11 1_555 1_555
H25 C12 1_555 1_555
H26 C12 1_555 1_555
C13 C12 1_555 1_555
H27 C13 1_555 1_555
H28 C13 1_555 1_555
C14 C13 1_555 1_555
H29 C14 1_555 1_555
H30 C14 1_555 1_555
C15 C14 1_555 1_555
H31 C15 1_555 1_555
H32 C15 1_555 1_555
C16 C15 1_555 1_555
H33 C16 1_555 1_555
H34 C16 1_555 1_555
C17 C16 1_555 1_555
H35 C17 1_555 1_555
H36 C17 1_555 1_555
C18 C17 1_555 1_555
H37 C18 1_555 1_555
H38 C18 1_555 1_555
C19 C18 1_555 1_555
H39 C19 1_555 1_555
H40 C19 1_555 1_555
C20 C19 1_555 1_555
H41 C20 1_555 1_555
H42 C20 1_555 1_555
C21 S1 1_555 1_555
C22 S2 1_555 1_555
C23 S3 1_555 1_555
C24 C23 1_555 1_555
C25 C24 1_555 1_555
C26 C25 1_555 1_555
H43 C26 1_555 1_555
C27 C26 1_555 1_555
H44 C27 1_555 1_555
C28 C27 1_555 1_555
H45 C28 1_555 1_555
C29 C28 1_555 1_555
H46 C29 1_555 1_555
C30 C25 1_555 1_555
C31 C30 1_555 1_555
C32 C31 1_555 1_555
C33 C32 1_555 1_555
H47 C33 1_555 1_555
C34 C33 1_555 1_555
H48 C34 1_555 1_555
C35 C34 1_555 1_555
H49 C35 1_555 1_555
C36 C35 1_555 1_555
H50 C36 1_555 1_555
C37 C24 1_555 1_555
C38 C31 1_555 1_555
C39 C38 1_555 1_555
C40 C38 1_555 1_555
C41 C40 1_555 1_555
C42 C41 1_555 1_555
C43 C42 1_555 1_555
H51 C43 1_555 1_555
C44 C43 1_555 1_555
H52 C44 1_555 1_555
C45 C44 1_555 1_555
H53 C45 1_555 1_555
C46 C45 1_555 1_555
H54 C46 1_555 1_555
C47 C42 1_555 1_555
C48 C39 1_555 1_555
C49 H55 1_555 1_555
H56 C49 1_555 1_555
H57 C49 1_555 1_555
C50 C49 1_555 1_555
H58 C50 1_555 1_555
H59 C50 1_555 1_555
C51 C50 1_555 1_555
H60 C51 1_555 1_555
H61 C51 1_555 1_555
C52 C51 1_555 1_555
H62 C52 1_555 1_555
H63 C52 1_555 1_555
C53 C52 1_555 1_555
H64 C53 1_555 1_555
H65 C53 1_555 1_555
C54 C53 1_555 1_555
H66 C54 1_555 1_555
H67 C54 1_555 1_555
C55 C54 1_555 1_555
H68 C55 1_555 1_555
H69 C55 1_555 1_555
C56 C55 1_555 1_555
H70 C56 1_555 1_555
H71 C56 1_555 1_555
C57 C56 1_555 1_555
H72 C57 1_555 1_555
H73 C57 1_555 1_555
C58 C57 1_555 1_555
H74 C58 1_555 1_555
H75 C58 1_555 1_555
C59 H76 1_555 1_555
H77 C59 1_555 1_555
H78 C59 1_555 1_555
C60 C59 1_555 1_555
H79 C60 1_555 1_555
H80 C60 1_555 1_555
C61 C60 1_555 1_555
H81 C61 1_555 1_555
H82 C61 1_555 1_555
C62 C61 1_555 1_555
H83 C62 1_555 1_555
H84 C62 1_555 1_555
C63 C62 1_555 1_555
H85 C63 1_555 1_555
H86 C63 1_555 1_555
C64 C63 1_555 1_555
H87 C64 1_555 1_555
H88 C64 1_555 1_555
C65 C64 1_555 1_555
H89 C65 1_555 1_555
H90 C65 1_555 1_555
C66 C65 1_555 1_555
H91 C66 1_555 1_555
H92 C66 1_555 1_555
C67 C66 1_555 1_555
H93 C67 1_555 1_555
H94 C67 1_555 1_555
C68 C67 1_555 1_555
H95 C68 1_555 1_555
H96 C68 1_555 1_555
C69 S7 1_555 1_555
C70 S8 1_555 1_555
C71 S5 1_555 1_555
C72 C71 1_555 1_555
C73 C72 1_555 1_555
C74 C73 1_555 1_555
H97 C74 1_555 1_555
C75 C74 1_555 1_555
H98 C75 1_555 1_555
C76 C75 1_555 1_555
H99 C76 1_555 1_555
C77 C76 1_555 1_555
H100 C77 1_555 1_555
C78 C73 1_555 1_555
C79 C78 1_555 1_555
C80 C79 1_555 1_555
C81 C80 1_555 1_555
H101 C81 1_555 1_555
C82 C81 1_555 1_555
H102 C82 1_555 1_555
C83 C82 1_555 1_555
H103 C83 1_555 1_555
C84 C83 1_555 1_555
H104 C84 1_555 1_555
C85 C72 1_555 1_555
C86 C79 1_555 1_555
C87 C86 1_555 1_555
C88 C86 1_555 1_555
C89 C88 1_555 1_555
C90 C89 1_555 1_555
C91 C90 1_555 1_555
H105 C91 1_555 1_555
C92 C91 1_555 1_555
H106 C92 1_555 1_555
C93 C92 1_555 1_555
H107 C93 1_555 1_555
C94 C93 1_555 1_555
H108 C94 1_555 1_555
C95 C90 1_555 1_555
C96 C87 1_555 1_555
C97 H109 1_555 1_555
S1A C10A 1_555 1_555
S2A C20A 1_555 1_555
S3A C21A 1_555 1_555
S4A C22A 1_555 1_555
S5A C69A 1_555 1_555
S6A C70A 1_555 1_555
S7A C58A 1_555 1_555
S8A C68A 1_555 1_555
C1A H1A 1_555 1_555
H2A C1A 1_555 1_555
H3A C1A 1_555 1_555
C2A C1A 1_555 1_555
H4A C2A 1_555 1_555
H5A C2A 1_555 1_555
C3A C2A 1_555 1_555
H6A C3A 1_555 1_555
H7A C3A 1_555 1_555
C4A C3A 1_555 1_555
H8A C4A 1_555 1_555
H9A C4A 1_555 1_555
C5A C4A 1_555 1_555
H10A C5A 1_555 1_555
H11A C5A 1_555 1_555
C6A C5A 1_555 1_555
H12A C6A 1_555 1_555
H13A C6A 1_555 1_555
C7A C6A 1_555 1_555
H14A C7A 1_555 1_555
H15A C7A 1_555 1_555
C8A C7A 1_555 1_555
H16A C8A 1_555 1_555
H17A C8A 1_555 1_555
C9A C8A 1_555 1_555
H18A C9A 1_555 1_555
H19A C9A 1_555 1_555
C10A C9A 1_555 1_555
H20A C10A 1_555 1_555
H21A C10A 1_555 1_555
C11A H22A 1_555 1_555
H23A C11A 1_555 1_555
H24A C11A 1_555 1_555
C12A C11A 1_555 1_555
H25A C12A 1_555 1_555
H26A C12A 1_555 1_555
C13A C12A 1_555 1_555
H27A C13A 1_555 1_555
H28A C13A 1_555 1_555
C14A C13A 1_555 1_555
H29A C14A 1_555 1_555
H30A C14A 1_555 1_555
C15A C14A 1_555 1_555
H31A C15A 1_555 1_555
H32A C15A 1_555 1_555
C16A C15A 1_555 1_555
H33A C16A 1_555 1_555
H34A C16A 1_555 1_555
C17A C16A 1_555 1_555
H35A C17A 1_555 1_555
H36A C17A 1_555 1_555
C18A C17A 1_555 1_555
H37A C18A 1_555 1_555
H38A C18A 1_555 1_555
C19A C18A 1_555 1_555
H39A C19A 1_555 1_555
H40A C19A 1_555 1_555
C20A C19A 1_555 1_555
H41A C20A 1_555 1_555
H42A C20A 1_555 1_555
C21A S1A 1_555 1_555
C22A S2A 1_555 1_555
C23A S3A 1_555 1_555
C24A C23A 1_555 1_555
C25A C24A 1_555 1_555
C26A C25A 1_555 1_555
H43A C26A 1_555 1_555
C27A C26A 1_555 1_555
H44A C27A 1_555 1_555
C28A C27A 1_555 1_555
H45A C28A 1_555 1_555
C29A C28A 1_555 1_555
H46A C29A 1_555 1_555
C30A C25A 1_555 1_555
C31A C30A 1_555 1_555
C32A C31A 1_555 1_555
C33A C32A 1_555 1_555
H47A C33A 1_555 1_555
C34A C33A 1_555 1_555
H48A C34A 1_555 1_555
C35A C34A 1_555 1_555
H49A C35A 1_555 1_555
C36A C35A 1_555 1_555
H50A C36A 1_555 1_555
C37A C24A 1_555 1_555
C38A C31A 1_555 1_555
C39A C38A 1_555 1_555
C40A C38A 1_555 1_555
C41A C40A 1_555 1_555
C42A C41A 1_555 1_555
C43A C42A 1_555 1_555
H51A C43A 1_555 1_555
C44A C43A 1_555 1_555
H52A C44A 1_555 1_555
C45A C44A 1_555 1_555
H53A C45A 1_555 1_555
C46A C45A 1_555 1_555
H54A C46A 1_555 1_555
C47A C48 1_555 1_555
C48A C47 1_555 1_555
C49A H55A 1_555 1_555
H56A C49A 1_555 1_555
H57A C49A 1_555 1_555
C50A C49A 1_555 1_555
H58A C50A 1_555 1_555
H59A C50A 1_555 1_555
C51A C50A 1_555 1_555
H60A C51A 1_555 1_555
H61A C51A 1_555 1_555
C52A C51A 1_555 1_555
H62A C52A 1_555 1_555
H63A C52A 1_555 1_555
C53A C52A 1_555 1_555
H64A C53A 1_555 1_555
H65A C53A 1_555 1_555
C54A C53A 1_555 1_555
H66A C54A 1_555 1_555
H67A C54A 1_555 1_555
C55A C54A 1_555 1_555
H68A C55A 1_555 1_555
H69A C55A 1_555 1_555
C56A C55A 1_555 1_555
H70A C56A 1_555 1_555
H71A C56A 1_555 1_555
C57A C56A 1_555 1_555
H72A C57A 1_555 1_555
H73A C57A 1_555 1_555
C58A C57A 1_555 1_555
H74A C58A 1_555 1_555
H75A C58A 1_555 1_555
C59A H76A 1_555 1_555
H77A C59A 1_555 1_555
H78A C59A 1_555 1_555
C60A C59A 1_555 1_555
H79A C60A 1_555 1_555
H80A C60A 1_555 1_555
C61A C60A 1_555 1_555
H81A C61A 1_555 1_555
H82A C61A 1_555 1_555
C62A C61A 1_555 1_555
H83A C62A 1_555 1_555
H84A C62A 1_555 1_555
C63A C62A 1_555 1_555
H85A C63A 1_555 1_555
H86A C63A 1_555 1_555
C64A C63A 1_555 1_555
H87A C64A 1_555 1_555
H88A C64A 1_555 1_555
C65A C64A 1_555 1_555
H89A C65A 1_555 1_555
H90A C65A 1_555 1_555
C66A C65A 1_555 1_555
H91A C66A 1_555 1_555
H92A C66A 1_555 1_555
C67A C66A 1_555 1_555
H93A C67A 1_555 1_555
H94A C67A 1_555 1_555
C68A C67A 1_555 1_555
H95A C68A 1_555 1_555
H96A C68A 1_555 1_555
C69A S7A 1_555 1_555
C70A S8A 1_555 1_555
C71A S5A 1_555 1_555
C72A C71A 1_555 1_555
C73A C72A 1_555 1_555
C74A C73A 1_555 1_555
H97A C74A 1_555 1_555
C75A C74A 1_555 1_555
H98A C75A 1_555 1_555
C76A C75A 1_555 1_555
H99A C76A 1_555 1_555
C77A C76A 1_555 1_555
H100A C77A 1_555 1_555
C78A C73A 1_555 1_555
C79A C78A 1_555 1_555
C80A C79A 1_555 1_555
C81A C80A 1_555 1_555
H101A C81A 1_555 1_555
C82A C81A 1_555 1_555
H102A C82A 1_555 1_555
C83A C82A 1_555 1_555
H103A C83A 1_555 1_555
C84A C83A 1_555 1_555
H104A C84A 1_555 1_555
C85A C72A 1_555 1_555
C86A C79A 1_555 1_555
C87A C86A 1_555 1_555
C88A C86A 1_555 1_555
C89A C88A 1_555 1_555
C90A C89A 1_555 1_555
C91A C90A 1_555 1_555
H105A C91A 1_555 1_555
C92A C91A 1_555 1_555
H106A C92A 1_555 1_555
C93A C92A 1_555 1_555
H107A C93A 1_555 1_555
C94A C93A 1_555 1_555
H108A C94A 1_555 1_555
C95A C96 1_555 1_555
C96A C95 1_555 1_555
S4 C23 1_555 1_555
S6 C71 1_555 1_555
C21 C22 1_555 1_555
C29 C30 1_555 1_555
C32 C37 1_555 1_555
C36 C37 1_555 1_555
C46 C47 1_555 1_555
C69 C70 1_555 1_555
C77 C78 1_555 1_555
C80 C85 1_555 1_555
C84 C85 1_555 1_555
C94 C95 1_555 1_555
S4A C23A 1_555 1_555
S6A C71A 1_555 1_555
C21A C22A 1_555 1_555
C29A C30A 1_555 1_555
C32A C37A 1_555 1_555
C36A C37A 1_555 1_555
C39A C48A 1_555 1_555
C42A C47A 1_555 1_555
C46A C47A 1_555 1_555
C69A C70A 1_555 1_555
C77A C78A 1_555 1_555
C80A C85A 1_555 1_555
C84A C85A 1_555 1_555
C87A C96A 1_555 1_555
C90A C95A 1_555 1_555
C94A C95A 1_555 1_555

#END
