
#######################################################################
#
#                 Cambridge Crystallographic Data Centre
#                                CCDC 
#
#######################################################################
#
# If this CIF has been generated from an entry in the Cambridge 
# Structural Database, then it will include bibliographic, chemical, 
# crystal, experimental, refinement or atomic coordinate data resulting 
# from the CCDC's data processing and validation procedures.
#
#######################################################################

data_XIWYEI
_chemical_formula_moiety         'C17 H18 Br4'
_chemical_name_systematic        
5,15-bis(Dibromomethylene)cyclopentadeca-1,3-diyne
_symmetry_cell_setting           orthorhombic
_symmetry_space_group_name_H-M   'P b c a'
_symmetry_Int_Tables_number      61
_space_group_name_Hall           '-P 2ac 2ab'
loop_
_symmetry_equiv_pos_site_id
_symmetry_equiv_pos_as_xyz
1 x,y,z
2 1/2-x,-y,1/2+z
3 -x,1/2+y,1/2-z
4 1/2+x,1/2-y,-z
5 -x,-y,-z
6 1/2+x,y,1/2-z
7 x,1/2-y,1/2+z
8 1/2-x,1/2+y,z
_cell_length_a                   6.3174(7)
_cell_length_b                   23.129(3)
_cell_length_c                   24.546(3)
_cell_angle_alpha                90
_cell_angle_beta                 90
_cell_angle_gamma                90
_cell_volume                     3586.54
_exptl_crystal_colour            yellow
_exptl_crystal_description       rod
_chemical_melting_point          '136-139 deg.C'
_cell_formula_units_Z            8
_exptl_crystal_recrystallization_method deuterochloroform
loop_
_atom_site_label
_atom_site_type_symbol
_atom_site_fract_x
_atom_site_fract_y
_atom_site_fract_z
Br1 Br 0.95901(9) 0.53558(3) 0.19711(2)
Br2 Br 1.07874(9) 0.51748(3) 0.07313(2)
Br3 Br 0.57280(10) 0.37750(3) -0.16611(2)
Br4 Br 0.18558(11) 0.29520(3) -0.19063(2)
C1 C 0.5453(9) 0.4588(2) 0.1646(2)
H1 H 0.4174 0.4826 0.1586
H2 H 0.6038 0.4690 0.2007
C2 C 0.7068(9) 0.4735(2) 0.1215(2)
C3 C 0.8829(9) 0.5035(2) 0.1291(2)
C4 C 0.6527(9) 0.4531(2) 0.0682(2)
C5 C 0.5753(9) 0.4329(3) 0.0277(2)
C6 C 0.4746(9) 0.4058(3) -0.0155(2)
C7 C 0.3843(9) 0.3794(3) -0.0503(2)
C8 C 0.2652(9) 0.3449(2) -0.0874(2)
C9 C 0.3294(9) 0.3401(2) -0.1390(2)
C10 C 0.0625(9) 0.3162(3) -0.0669(2)
H3 H -0.0543 0.3269 -0.0919
H4 H 0.0808 0.2738 -0.0692
C11 C -0.0044(9) 0.3315(3) -0.0089(2)
H5 H 0.0163 0.3735 -0.0034
H6 H -0.1575 0.3234 -0.0050
C12 C 0.1138(10) 0.2993(3) 0.0353(2)
H7 H 0.2676 0.3017 0.0279
H8 H 0.0726 0.2581 0.0343
C13 C 0.0698(10) 0.3234(3) 0.0922(2)
H9 H 0.1015 0.3653 0.0925
H10 H -0.0824 0.3185 0.1007
C14 C 0.2006(9) 0.2937(2) 0.1362(2)
H11 H 0.1499 0.2534 0.1399
H12 H 0.3495 0.2920 0.1237
C15 C 0.1963(11) 0.3216(3) 0.1922(2)
H13 H 0.0497 0.3199 0.2064
H14 H 0.2867 0.2986 0.2170
C16 C 0.2703(9) 0.3841(2) 0.1939(2)
H15 H 0.2835 0.3961 0.2324
H16 H 0.1604 0.4086 0.1768
C17 C 0.4812(9) 0.3955(3) 0.1652(2)
H17 H 0.5934 0.3729 0.1837
H18 H 0.4713 0.3815 0.1272
loop_
_geom_bond_atom_site_label_1
_geom_bond_atom_site_label_2
_geom_bond_site_symmetry_1
_geom_bond_site_symmetry_2
Br1 C3 1_555 1_555
Br2 C3 1_555 1_555
Br3 C9 1_555 1_555
Br4 C9 1_555 1_555
C1 H1 1_555 1_555
H2 C1 1_555 1_555
C2 C1 1_555 1_555
C3 C2 1_555 1_555
C4 C2 1_555 1_555
C5 C4 1_555 1_555
C6 C5 1_555 1_555
C7 C6 1_555 1_555
C8 C7 1_555 1_555
C9 C8 1_555 1_555
C10 C8 1_555 1_555
H3 C10 1_555 1_555
H4 C10 1_555 1_555
C11 C10 1_555 1_555
H5 C11 1_555 1_555
H6 C11 1_555 1_555
C12 C11 1_555 1_555
H7 C12 1_555 1_555
H8 C12 1_555 1_555
C13 C12 1_555 1_555
H9 C13 1_555 1_555
H10 C13 1_555 1_555
C14 C13 1_555 1_555
H11 C14 1_555 1_555
H12 C14 1_555 1_555
C15 C14 1_555 1_555
H13 C15 1_555 1_555
H14 C15 1_555 1_555
C16 C15 1_555 1_555
H15 C16 1_555 1_555
H16 C16 1_555 1_555
C17 C1 1_555 1_555
H17 C17 1_555 1_555
H18 C17 1_555 1_555
C16 C17 1_555 1_555

#END
