
#######################################################################
#
#                 Cambridge Crystallographic Data Centre
#                                CCDC 
#
#######################################################################
#
# If this CIF has been generated from an entry in the Cambridge 
# Structural Database, then it will include bibliographic, chemical, 
# crystal, experimental, refinement or atomic coordinate data resulting 
# from the CCDC's data processing and validation procedures.
#
#######################################################################

data_XIXBAK
_chemical_name_common            ivacaftor
_chemical_formula_moiety         'C24 H28 N2 O3,C2 H6 O1,C1 H1 Cl3'
_chemical_name_systematic        
'N-(2,4-di-t-butyl-5-hydroxyphenyl)-4-oxo-1,4-dihydroquinoline-3-carboxamide chloroform ethanol solvate'
_chemical_properties_biological  'cystic fibrosis treatment'
_symmetry_cell_setting           triclinic
_symmetry_space_group_name_H-M   'P -1'
_symmetry_Int_Tables_number      2
_space_group_name_Hall           '-P 1'
loop_
_symmetry_equiv_pos_site_id
_symmetry_equiv_pos_as_xyz
1 x,y,z
2 -x,-y,-z
_cell_length_a                   9.9140(2)
_cell_length_b                   16.8232(4)
_cell_length_c                   17.1125(3)
_cell_angle_alpha                66.039(2)
_cell_angle_beta                 89.009(2)
_cell_angle_gamma                88.904(2)
_cell_volume                     2607.53
_exptl_crystal_colour            colorless
_exptl_crystal_description       plate
_cell_formula_units_Z            4
_exptl_crystal_recrystallization_method ethanol/methanol/chloroform
loop_
_atom_site_label
_atom_site_type_symbol
_atom_site_fract_x
_atom_site_fract_y
_atom_site_fract_z
O4 O 0.42461(11) 0.40026(8) 0.17068(7)
O5 O 0.52387(13) 0.16963(8) 0.43491(8)
H29 H 0.493411 0.152238 0.400524
O6 O 0.06016(13) 0.52634(10) 0.18558(8)
N3 N 0.26378(13) 0.42019(9) 0.25875(8)
H30 H 0.186130 0.443217 0.260294
N4 N 0.21752(13) 0.55058(9) -0.04514(8)
H31 H 0.249455 0.553765 -0.093354
C25 C 0.32848(14) 0.37313(9) 0.33862(9)
C26 C 0.27743(15) 0.49777(10) 0.02707(10)
H32 H 0.354084 0.466798 0.023152
C27 C 0.31361(14) 0.43176(9) 0.18104(9)
C28 C 0.31979(14) 0.40101(9) 0.40576(9)
C29 C 0.38526(15) 0.34761(10) 0.48125(9)
H33 H 0.381938 0.365231 0.526213
C30 C 0.45523(15) 0.27011(10) 0.49505(10)
C31 C 0.04932(15) 0.59118(10) 0.03454(10)
C32 C 0.10565(15) 0.60011(10) -0.04417(10)
C33 C 0.45919(15) 0.24501(10) 0.42632(10)
C34 C 0.11042(15) 0.53266(10) 0.11517(10)
C35 C 0.05162(17) 0.65960(11) -0.12125(10)
H34 H 0.089624 0.665163 -0.173255
C36 C 0.39643(15) 0.29622(10) 0.34967(9)
H35 H 0.400028 0.278557 0.304737
C37 C 0.23098(14) 0.48689(10) 0.10744(9)
C38 C 0.24251(16) 0.48296(10) 0.40106(10)
C39 C -0.06402(16) 0.64221(11) 0.03505(10)
H36 H -0.103516 0.636273 0.086788
C40 C -0.11707(18) 0.70102(12) -0.04059(11)
H37 H -0.191746 0.735004 -0.039799
C41 C 0.52473(17) 0.21606(10) 0.57968(10)
C42 C 0.08936(17) 0.46977(12) 0.39813(11)
H38 H 0.068629 0.461999 0.347104
H39 H 0.041502 0.519908 0.398153
H40 H 0.062666 0.419186 0.447309
C43 C 0.28994(19) 0.56390(11) 0.32325(11)
H41 H 0.386686 0.565847 0.322308
H42 H 0.253479 0.615362 0.327343
H43 H 0.259167 0.560867 0.271654
C44 C 0.4683(2) 0.12345(12) 0.61859(12)
H44 H 0.371949 0.126292 0.623683
H45 H 0.506262 0.092018 0.674161
H46 H 0.491535 0.094181 0.582251
C45 C 0.2658(2) 0.50235(12) 0.47996(11)
H47 H 0.229107 0.456337 0.529736
H48 H 0.222059 0.556376 0.472305
H49 H 0.360859 0.506465 0.487217
C46 C 0.67744(18) 0.21337(13) 0.56407(12)
H50 H 0.694766 0.187906 0.523770
H51 H 0.721194 0.179073 0.617022
H52 H 0.711803 0.271444 0.541657
C47 C -0.05859(18) 0.70978(12) -0.11901(11)
H53 H -0.094627 0.749845 -0.169886
C48 C 0.5023(2) 0.25514(13) 0.64579(12)
H54 H 0.529012 0.314932 0.621579
H55 H 0.555212 0.223284 0.695540
H56 H 0.408502 0.251680 0.661652
O7 O 0.68611(14) 0.09193(13) 0.28990(9)
H57 H 0.604039 0.095925 0.283874
C49 C 0.7502(2) 0.10996(16) 0.20920(13)
H58 H 0.847279 0.107129 0.216462
H59 H 0.726499 0.168687 0.169889
C50 C 0.7119(3) 0.0488(2) 0.17155(18)
H60 H 0.766148 0.059068 0.121446
H61 H 0.618429 0.057517 0.156189
H62 H 0.726262 -0.009808 0.212527
O8 O 0.6870(8) 0.4168(8) 0.2057(5)
H63 H 0.606878 0.429916 0.196917
C51 C 0.7370(5) 0.4513(4) 0.2605(3)
H64 H 0.681354 0.501308 0.254899
H65 H 0.827092 0.472374 0.240829
C52 C 0.7444(6) 0.3941(4) 0.3508(3)
H66 H 0.796936 0.343219 0.357827
H67 H 0.654982 0.377312 0.373199
H68 H 0.785977 0.424150 0.381106
O1 O 0.41979(11) 0.09832(8) 0.33483(7)
O2 O 0.53403(13) 0.32431(8) 0.07193(8)
H1 H 0.505858 0.341228 0.107947
O3 O 0.04872(12) -0.01067(9) 0.32004(8)
N1 N 0.25923(12) 0.08518(8) 0.24689(8)
H2 H 0.179662 0.066515 0.245143
N2 N 0.21189(13) -0.05486(9) 0.55073(8)
H3 H 0.241901 -0.059798 0.599372
C1 C 0.32795(14) 0.12866(9) 0.16771(9)
C2 C 0.46670(15) 0.25121(9) 0.08016(9)
C3 C 0.30844(14) 0.07069(9) 0.32476(9)
C4 C 0.27078(15) 0.00012(10) 0.47923(9)
H4 H 0.346847 0.029403 0.483780
C5 C 0.39946(15) 0.20294(9) 0.15667(9)
H5 H 0.402479 0.220812 0.201391
C6 C 0.04710(14) -0.09054(10) 0.46942(9)
C7 C 0.10325(15) -0.10424(10) 0.54832(9)
C8 C 0.22442(14) 0.01578(9) 0.39863(9)
C9 C 0.39085(15) 0.15107(10) 0.02556(9)
H6 H 0.387887 0.133503 -0.019365
C10 C 0.46525(15) 0.22498(10) 0.01236(9)
C11 C 0.10326(14) -0.02562(10) 0.38990(9)
C12 C 0.32016(14) 0.10093(9) 0.10054(9)
C13 C -0.05995(16) -0.14300(11) 0.46701(11)
H7 H -0.098127 -0.134361 0.414864
C14 C 0.08538(16) 0.04312(12) 0.10752(11)
H8 H 0.065161 0.052010 0.158476
H9 H 0.034210 -0.004839 0.107739
H10 H 0.062205 0.094734 0.058274
C15 C 0.23741(15) 0.02297(10) 0.10442(10)
C16 C 0.53814(16) 0.27672(10) -0.07247(10)
C17 C 0.05225(16) -0.16864(11) 0.62452(10)
H11 H 0.088516 -0.176961 0.677078
C18 C -0.05240(18) -0.21910(11) 0.61976(11)
H12 H -0.086360 -0.262078 0.669752
C19 C 0.26101(19) 0.00298(11) 0.02527(11)
H13 H 0.233575 0.052292 -0.024979
H14 H 0.209148 -0.046662 0.030775
H15 H 0.355075 -0.009184 0.020528
C20 C 0.68983(17) 0.27743(12) -0.05647(12)
H16 H 0.704469 0.304249 -0.017431
H17 H 0.735653 0.309697 -0.109583
H18 H 0.724277 0.218782 -0.032382
C21 C -0.10877(17) -0.20700(12) 0.54108(11)
H19 H -0.178799 -0.242073 0.539005
C22 C 0.48060(19) 0.37015(11) -0.11208(11)
H20 H 0.384684 0.368426 -0.117885
H21 H 0.521072 0.401008 -0.167370
H22 H 0.500154 0.399296 -0.075688
C23 C 0.27742(18) -0.06042(10) 0.18245(11)
H23 H 0.372931 -0.070313 0.180947
H24 H 0.230441 -0.109092 0.180830
H25 H 0.253758 -0.053707 0.234092
C24 C 0.5201(2) 0.23646(12) -0.13719(11)
H26 H 0.559761 0.179143 -0.115334
H27 H 0.563667 0.272008 -0.190161
H28 H 0.425716 0.232953 -0.146698
C53? C 0.7003(7) 0.4411(5) 0.3366(4)
H69? H 0.693921 0.501962 0.300278
H70? H 0.761284 0.432423 0.382426
H71? H 0.612782 0.420050 0.359804
C54? C 0.7504(4) 0.3936(4) 0.2870(3)
H72? H 0.846301 0.404051 0.276682
H73? H 0.739260 0.331868 0.320893
O9? O 0.6872(5) 0.4155(7) 0.2081(5)
H74? H 0.612205 0.393647 0.216115
loop_
_geom_bond_atom_site_label_1
_geom_bond_atom_site_label_2
_geom_bond_site_symmetry_1
_geom_bond_site_symmetry_2
O1 C3 1_555 1_555
O2 H1 1_555 1_555
O3 C11 1_555 1_555
N1 H2 1_555 1_555
N2 H3 1_555 1_555
C1 N1 1_555 1_555
C2 O2 1_555 1_555
C3 N1 1_555 1_555
C4 N2 1_555 1_555
H4 C4 1_555 1_555
C5 C1 1_555 1_555
H5 C5 1_555 1_555
C6 C7 1_555 1_555
C7 N2 1_555 1_555
C8 C3 1_555 1_555
C9 H6 1_555 1_555
C10 C2 1_555 1_555
C11 C6 1_555 1_555
C12 C1 1_555 1_555
C13 C6 1_555 1_555
H7 C13 1_555 1_555
C14 H8 1_555 1_555
H9 C14 1_555 1_555
H10 C14 1_555 1_555
C15 C12 1_555 1_555
C16 C10 1_555 1_555
C17 C7 1_555 1_555
H11 C17 1_555 1_555
C18 C17 1_555 1_555
H12 C18 1_555 1_555
C19 C15 1_555 1_555
H13 C19 1_555 1_555
H14 C19 1_555 1_555
H15 C19 1_555 1_555
C20 C16 1_555 1_555
H16 C20 1_555 1_555
H17 C20 1_555 1_555
H18 C20 1_555 1_555
C21 C13 1_555 1_555
H19 C21 1_555 1_555
C22 C16 1_555 1_555
H20 C22 1_555 1_555
H21 C22 1_555 1_555
H22 C22 1_555 1_555
C23 C15 1_555 1_555
H23 C23 1_555 1_555
H24 C23 1_555 1_555
H25 C23 1_555 1_555
C24 C16 1_555 1_555
H26 C24 1_555 1_555
H27 C24 1_555 1_555
H28 C24 1_555 1_555
O4 C27 1_555 1_555
O5 H29 1_555 1_555
O6 C34 1_555 1_555
N3 H30 1_555 1_555
N4 H31 1_555 1_555
C25 N3 1_555 1_555
C26 N4 1_555 1_555
H32 C26 1_555 1_555
C27 N3 1_555 1_555
C28 C25 1_555 1_555
C29 C28 1_555 1_555
H33 C29 1_555 1_555
C30 C29 1_555 1_555
C31 C32 1_555 1_555
C32 N4 1_555 1_555
C33 O5 1_555 1_555
C34 C31 1_555 1_555
C35 C32 1_555 1_555
H34 C35 1_555 1_555
C36 C25 1_555 1_555
H35 C36 1_555 1_555
C37 C26 1_555 1_555
C38 C28 1_555 1_555
C39 C31 1_555 1_555
H36 C39 1_555 1_555
C40 C39 1_555 1_555
H37 C40 1_555 1_555
C41 C30 1_555 1_555
C42 C38 1_555 1_555
H38 C42 1_555 1_555
H39 C42 1_555 1_555
H40 C42 1_555 1_555
C43 C38 1_555 1_555
H41 C43 1_555 1_555
H42 C43 1_555 1_555
H43 C43 1_555 1_555
C44 C41 1_555 1_555
H44 C44 1_555 1_555
H45 C44 1_555 1_555
H46 C44 1_555 1_555
C45 C38 1_555 1_555
H47 C45 1_555 1_555
H48 C45 1_555 1_555
H49 C45 1_555 1_555
C46 C41 1_555 1_555
H50 C46 1_555 1_555
H51 C46 1_555 1_555
H52 C46 1_555 1_555
C47 C35 1_555 1_555
H53 C47 1_555 1_555
C48 C41 1_555 1_555
H54 C48 1_555 1_555
H55 C48 1_555 1_555
H56 C48 1_555 1_555
O7 H57 1_555 1_555
C49 O7 1_555 1_555
H58 C49 1_555 1_555
H59 C49 1_555 1_555
C50 C49 1_555 1_555
H60 C50 1_555 1_555
H61 C50 1_555 1_555
H62 C50 1_555 1_555
O8 H63 1_555 1_555
C51 O8 1_555 1_555
H64 C51 1_555 1_555
H65 C51 1_555 1_555
C52 C51 1_555 1_555
H66 C52 1_555 1_555
H67 C52 1_555 1_555
H68 C52 1_555 1_555
C2 C5 1_555 1_555
C4 C8 1_555 1_555
C8 C11 1_555 1_555
C9 C10 1_555 1_555
C9 C12 1_555 1_555
C14 C15 1_555 1_555
C18 C21 1_555 1_555
C27 C37 1_555 1_555
C30 C33 1_555 1_555
C33 C36 1_555 1_555
C34 C37 1_555 1_555
C40 C47 1_555 1_555

#END
