
#######################################################################
#
#                 Cambridge Crystallographic Data Centre
#                                CCDC 
#
#######################################################################
#
# If this CIF has been generated from an entry in the Cambridge 
# Structural Database, then it will include bibliographic, chemical, 
# crystal, experimental, refinement or atomic coordinate data resulting 
# from the CCDC's data processing and validation procedures.
#
#######################################################################

data_XIXBAI
_chemical_formula_moiety         'C40 H10 F32 N2 O4'
_chemical_name_systematic        
"N,N'-bis(2,2,3,3,4,4,4-Heptafluorobutyl)-1,7-bis(perfluorobutyl)perylene-3,4:9,10-tetracarboxylic acid di-imide"
_symmetry_cell_setting           triclinic
_symmetry_space_group_name_H-M   'P -1'
_symmetry_Int_Tables_number      2
_space_group_name_Hall           '-P 1'
loop_
_symmetry_equiv_pos_site_id
_symmetry_equiv_pos_as_xyz
1 x,y,z
2 -x,-y,-z
_cell_length_a                   10.570(3)
_cell_length_b                   12.885(3)
_cell_length_c                   16.682(4)
_cell_angle_alpha                66.858(10)
_cell_angle_beta                 76.524(15)
_cell_angle_gamma                84.620(17)
_cell_volume                     2031.65
_exptl_crystal_colour            orange
_exptl_crystal_description       block
_cell_formula_units_Z            2
loop_
_atom_site_label
_atom_site_type_symbol
_atom_site_fract_x
_atom_site_fract_y
_atom_site_fract_z
N1 N 0.4868(2) 0.81949(18) 0.44211(14)
N2 N 1.0955(2) 0.08071(19) 0.77462(15)
O1 O 0.46713(19) 0.85946(16) 0.56582(13)
O2 O 0.5166(2) 0.78206(18) 0.31639(13)
O3 O 0.9513(2) 0.04094(18) 0.90825(13)
O4 O 1.24058(18) 0.12609(17) 0.64119(14)
C1 C 0.4422(2) 0.9337(2) 0.39418(18)
H1 H 0.4838 0.9578 0.3300
H2 H 0.4704 0.9861 0.4168
C2 C 0.2964(3) 0.9417(2) 0.4041(2)
C3 C 0.5026(2) 0.7932(2) 0.52941(17)
C4 C 0.5630(2) 0.6831(2) 0.57311(17)
C5 C 0.5743(2) 0.6490(2) 0.66022(17)
H3 H 0.5480 0.6981 0.6912
C6 C 0.6245(2) 0.5419(2) 0.70346(17)
H4 H 0.6260 0.5172 0.7649
C7 C 0.6723(2) 0.4710(2) 0.65811(16)
C8 C 0.6810(2) 0.5131(2) 0.56415(16)
C9 C 0.7602(2) 0.4579(2) 0.50970(17)
C10 C 0.7412(2) 0.4905(2) 0.42218(17)
C11 C 0.6609(2) 0.5838(2) 0.38705(17)
H5 H 0.6458 0.6026 0.3290
C12 C 0.6043(2) 0.6479(2) 0.43484(17)
C13 C 0.5332(3) 0.7530(2) 0.39165(18)
C14 C 0.6147(2) 0.6146(2) 0.52427(16)
C15 C 0.9757(3) 0.0944(2) 0.82848(19)
C16 C 0.8851(3) 0.1797(2) 0.78197(17)
C17 C 0.7667(2) 0.1972(2) 0.83070(17)
H6 H 0.7405 0.1488 0.8917
C18 C 0.6841(2) 0.2852(2) 0.79190(17)
C19 C 0.7230(2) 0.3573(2) 0.70182(17)
C20 C 0.8319(2) 0.3252(2) 0.64715(17)
C21 C 0.8584(2) 0.3788(2) 0.55198(17)
C22 C 0.9780(2) 0.3575(2) 0.50469(18)
H7 H 1.0001 0.3966 0.4418
C23 C 1.0664(2) 0.2801(2) 0.54719(18)
H8 H 1.1479 0.2688 0.5130
C24 C 1.0371(2) 0.2201(2) 0.63789(18)
C25 C 1.1329(3) 0.1397(2) 0.68160(19)
C26 C 0.9181(2) 0.2407(2) 0.68869(17)
C27 C 1.1921(3) 0.0084(2) 0.8208(2)
H9 H 1.1741 0.0053 0.8827
H10 H 1.2795 0.0418 0.7905
C28 C 1.1925(3) -0.1111(2) 0.82347(19)
C29 C 1.2888(3) -0.1879(3) 0.87685(19)
C30 C 1.3018(3) -0.3110(3) 0.8837(2)
C31 C 0.7974(2) 0.4333(2) 0.35746(17)
C32 C 0.9074(2) 0.5011(2) 0.27851(17)
C33 C 0.9969(3) 0.4321(2) 0.22990(18)
C34 C 1.0725(3) 0.5028(3) 0.1355(2)
C35 C 0.5534(2) 0.2958(2) 0.84993(17)
C36 C 0.4832(3) 0.1829(2) 0.91291(18)
C37 C 0.3343(3) 0.1874(2) 0.95101(19)
C38 C 0.2846(3) 0.2664(3) 1.0006(2)
F1 F 0.2417(3) 0.8500(2) 0.4139(3)
F2 F 0.2434(3) 0.9589(4) 0.4845(2)
F3 F 0.3274(8) 1.1346(5) 0.3124(5)
F4 F 0.2803(4) 1.0163(3) 0.2585(2)
F5 F 0.0871(4) 1.1535(4) 0.2688(3)
F6 F 0.0837(4) 1.1322(4) 0.4032(3)
F7 F 0.0336(6) 0.9924(5) 0.3765(5)
C39 C 0.2541(5) 1.0444(4) 0.3309(4)
C40 C 0.1112(7) 1.0806(7) 0.3451(5)
F15 F 1.07337(15) -0.15789(15) 0.86045(12)
F16 F 1.22438(19) -0.11244(15) 0.73982(11)
F17 F 1.25287(19) -0.19111(15) 0.96092(11)
F18 F 1.40755(16) -0.14083(16) 0.84077(14)
F19 F 1.18979(18) -0.36473(15) 0.92363(12)
F20 F 1.3888(2) -0.36433(17) 0.93142(15)
F21 F 1.33767(19) -0.31668(17) 0.80429(12)
F22 F 0.70103(14) 0.42218(14) 0.31928(10)
F23 F 0.84066(14) 0.32693(12) 0.39809(10)
F24 F 0.98344(15) 0.54979(13) 0.30890(10)
F25 F 0.85270(15) 0.58582(14) 0.21854(10)
F26 F 1.08522(15) 0.37734(14) 0.27927(11)
F27 F 0.92687(15) 0.35537(14) 0.22319(11)
F28 F 1.13204(18) 0.58902(16) 0.13613(12)
F29 F 1.16270(19) 0.43858(18) 0.10684(13)
F30 F 0.99480(18) 0.54196(17) 0.07852(11)
F31 F 0.56491(15) 0.35139(13) 0.90311(10)
F32 F 0.46744(14) 0.35714(13) 0.79911(9)
F33 F 0.53914(15) 0.13364(14) 0.98408(10)
F34 F 0.49844(15) 0.11240(13) 0.86909(10)
F35 F 0.30090(17) 0.08139(15) 1.00936(12)
F36 F 0.27065(16) 0.21276(15) 0.88447(12)
F37 F 0.3496(2) 0.2496(2) 1.06440(13)
F38 F 0.15986(18) 0.24653(18) 1.03840(14)
F39 F 0.29700(17) 0.37430(15) 0.94572(12)
F8? F 0.2710(6) 0.8966(7) 0.3409(6)
F9? F 0.2308(5) 0.8708(7) 0.4777(5)
F10? F 0.3098(13) 1.1247(11) 0.2991(7)
F11? F 0.2312(5) 1.0908(5) 0.4386(5)
F12? F 0.0976(7) 1.0566(9) 0.2796(5)
F13? F 0.0415(8) 1.1594(6) 0.3576(8)
F14? F 0.0200(10) 0.9785(9) 0.4232(6)
C41? C 0.2332(8) 1.0538(6) 0.3746(5)
C42? C 0.0956(9) 1.0615(9) 0.3591(7)
loop_
_geom_bond_atom_site_label_1
_geom_bond_atom_site_label_2
_geom_bond_site_symmetry_1
_geom_bond_site_symmetry_2
N1 C1 1_555 1_555
N2 C15 1_555 1_555
O1 C3 1_555 1_555
O2 C13 1_555 1_555
O3 C15 1_555 1_555
O4 C25 1_555 1_555
C1 H1 1_555 1_555
H2 C1 1_555 1_555
C2 C1 1_555 1_555
C3 N1 1_555 1_555
C4 C3 1_555 1_555
C5 C4 1_555 1_555
H3 C5 1_555 1_555
C6 C5 1_555 1_555
H4 C6 1_555 1_555
C7 C6 1_555 1_555
C8 C7 1_555 1_555
C9 C8 1_555 1_555
C10 C9 1_555 1_555
C11 C10 1_555 1_555
H5 C11 1_555 1_555
C12 C11 1_555 1_555
C13 N1 1_555 1_555
C14 C4 1_555 1_555
C15 C16 1_555 1_555
C16 C17 1_555 1_555
C17 H6 1_555 1_555
C18 C17 1_555 1_555
C19 C7 1_555 1_555
C20 C19 1_555 1_555
C21 C9 1_555 1_555
C22 C21 1_555 1_555
H7 C22 1_555 1_555
C23 C22 1_555 1_555
H8 C23 1_555 1_555
C24 C23 1_555 1_555
C25 N2 1_555 1_555
C26 C16 1_555 1_555
C27 N2 1_555 1_555
H9 C27 1_555 1_555
H10 C27 1_555 1_555
C28 C27 1_555 1_555
C29 C28 1_555 1_555
C30 C29 1_555 1_555
C31 C10 1_555 1_555
C32 C31 1_555 1_555
C33 C32 1_555 1_555
C34 C33 1_555 1_555
C35 C18 1_555 1_555
C36 C35 1_555 1_555
C37 C36 1_555 1_555
C38 C37 1_555 1_555
F1 C2 1_555 1_555
F2 C2 1_555 1_555
F3 C39 1_555 1_555
F4 C39 1_555 1_555
F5 C40 1_555 1_555
F6 C40 1_555 1_555
F7 C40 1_555 1_555
C39 C2 1_555 1_555
C40 C39 1_555 1_555
F15 C28 1_555 1_555
F16 C28 1_555 1_555
F17 C29 1_555 1_555
F18 C29 1_555 1_555
F19 C30 1_555 1_555
F20 C30 1_555 1_555
F21 C30 1_555 1_555
F22 C31 1_555 1_555
F23 C31 1_555 1_555
F24 C32 1_555 1_555
F25 C32 1_555 1_555
F26 C33 1_555 1_555
F27 C33 1_555 1_555
F28 C34 1_555 1_555
F29 C34 1_555 1_555
F30 C34 1_555 1_555
F31 C35 1_555 1_555
F32 C35 1_555 1_555
F33 C36 1_555 1_555
F34 C36 1_555 1_555
F35 C37 1_555 1_555
F36 C37 1_555 1_555
F37 C38 1_555 1_555
F38 C38 1_555 1_555
F39 C38 1_555 1_555
C8 C14 1_555 1_555
C12 C13 1_555 1_555
C12 C14 1_555 1_555
C18 C19 1_555 1_555
C20 C21 1_555 1_555
C20 C26 1_555 1_555
C24 C25 1_555 1_555
C24 C26 1_555 1_555

#END
