
#######################################################################
#
#                 Cambridge Crystallographic Data Centre
#                                CCDC 
#
#######################################################################
#
# If this CIF has been generated from an entry in the Cambridge 
# Structural Database, then it will include bibliographic, chemical, 
# crystal, experimental, refinement or atomic coordinate data resulting 
# from the CCDC's data processing and validation procedures.
#
#######################################################################

data_XIXBEO
_chemical_formula_moiety         'C25 H28 N4 O2,2(C1 H4 O1)'
_chemical_name_systematic        
'3-[1-(2,4-di-t-butyl-5-hydroxyphenyl)-1H-1,2,3-triazol-4-yl]quinolin-4(1H)-one methanol solvate'
_symmetry_cell_setting           triclinic
_symmetry_space_group_name_H-M   'P -1'
_symmetry_Int_Tables_number      2
_space_group_name_Hall           '-P 1'
loop_
_symmetry_equiv_pos_site_id
_symmetry_equiv_pos_as_xyz
1 x,y,z
2 -x,-y,-z
_cell_length_a                   7.98390(10)
_cell_length_b                   11.0482(2)
_cell_length_c                   15.8260(2)
_cell_angle_alpha                87.6230(10)
_cell_angle_beta                 86.4570(10)
_cell_angle_gamma                69.871(2)
_cell_volume                     1307.9
_exptl_crystal_colour            colorless
_exptl_crystal_description       needle
_cell_formula_units_Z            2
_exptl_crystal_recrystallization_method 'Vapour Diffusion'
loop_
_atom_site_label
_atom_site_type_symbol
_atom_site_fract_x
_atom_site_fract_y
_atom_site_fract_z
O1 O 0.29417(6) 0.20728(5) 0.36214(3)
H1 H 0.195843 0.262876 0.356904
O2 O 0.08049(7) 0.29912(5) 0.86022(3)
N1 N 0.22350(6) 0.42224(4) 0.62422(3)
N2 N 0.12644(7) 0.54531(5) 0.60590(3)
N3 N 0.01881(7) 0.59011(5) 0.67221(3)
N4 N -0.28947(7) 0.65507(6) 0.90411(3)
H2 H -0.3726(15) 0.7360(11) 0.9121(7)
C1 C 0.04545(7) 0.49522(5) 0.73367(3)
C2 C 0.53301(7) 0.30187(5) 0.56819(3)
C3 C 0.34746(7) 0.34405(5) 0.56158(3)
C4 C 0.26870(7) 0.31189(5) 0.49380(3)
H3 H 0.144965 0.342380 0.491569
C5 C 0.37281(7) 0.23473(5) 0.42943(3)
C6 C 0.17739(7) 0.38670(5) 0.70267(3)
H4 H 0.224332 0.306716 0.729710
C7 C -0.06024(7) 0.51403(5) 0.81388(3)
C8 C 0.56011(7) 0.18431(5) 0.43423(3)
C9 C 0.63138(7) 0.22008(5) 0.50352(3)
H5 H 0.754771 0.186802 0.507126
C10 C -0.18829(8) 0.63165(6) 0.83148(4)
H6 H -0.205666 0.698065 0.791265
C11 C 0.68116(8) 0.09953(5) 0.36486(4)
C12 C -0.27080(8) 0.56069(6) 0.96579(4)
C13 C -0.03274(8) 0.40863(6) 0.87426(4)
C14 C 0.54285(8) 0.48273(6) 0.66100(4)
H7 H 0.522591 0.535294 0.610237
H8 H 0.619918 0.507222 0.695678
H9 H 0.430900 0.494666 0.691612
C15 C -0.13034(10) 0.34135(7) 1.01635(4)
H10 H -0.047673 0.258902 1.008839
C16 C 0.64108(9) 0.25276(6) 0.71704(4)
H11 H 0.522696 0.267185 0.741206
H12 H 0.711471 0.272736 0.757753
H13 H 0.695093 0.164053 0.701667
C17 C -0.14532(8) 0.43709(6) 0.95259(4)
C18 C 0.63140(7) 0.33982(5) 0.63769(3)
C19 C 0.66350(9) 0.17781(6) 0.28115(4)
H14 H 0.540458 0.210634 0.267043
H15 H 0.733428 0.123237 0.236856
H16 H 0.705605 0.248404 0.287314
C20 C 0.82440(8) 0.32330(7) 0.60644(4)
H17 H 0.889990 0.233657 0.597295
H18 H 0.880497 0.354744 0.648239
H19 H 0.823022 0.371195 0.554315
C21 C -0.37900(9) 0.58918(8) 1.04131(4)
H20 H -0.460862 0.671621 1.049917
C22 C -0.36197(10) 0.49357(8) 1.10206(4)
H21 H -0.433618 0.511479 1.151784
C23 C -0.23762(11) 0.36930(8) 1.08980(4)
H22 H -0.227443 0.305482 1.131348
C24 C 0.87913(9) 0.05364(8) 0.38554(5)
H23 H 0.914880 0.127057 0.392369
H24 H 0.950301 0.002396 0.340139
H25 H 0.895880 0.002783 0.437042
C25 C 0.63080(11) -0.02106(6) 0.35398(5)
H26 H 0.643069 -0.069261 0.406501
H27 H 0.708505 -0.073741 0.310850
H28 H 0.509368 0.004507 0.337783
O3 O 0.47747(8) -0.09665(6) 0.91389(4)
H29 H 0.368585 -0.061866 0.915182
C26 C 0.55926(16) -0.00909(12) 0.87902(8)
H30 H 0.533004 0.007655 0.820416
H31 H 0.686202 -0.045851 0.883833
H32 H 0.513911 0.070167 0.909234
O4 O 0.13438(8) 0.05606(6) 0.90744(5)
H33 H 0.124848 0.130798 0.894838
C27 C -0.02331(12) 0.03417(9) 0.88829(6)
H34 H -0.039989 0.047075 0.828609
H35 H -0.123694 0.093262 0.918922
H36 H -0.013344 -0.052693 0.904350
loop_
_geom_bond_atom_site_label_1
_geom_bond_atom_site_label_2
_geom_bond_site_symmetry_1
_geom_bond_site_symmetry_2
O1 H1 1_555 1_555
O2 C13 1_555 1_555
N1 N2 1_555 1_555
N2 N3 1_555 1_555
N3 C1 1_555 1_555
N4 H2 1_555 1_555
C1 C6 1_555 1_555
C2 C3 1_555 1_555
C3 N1 1_555 1_555
C4 C3 1_555 1_555
H3 C4 1_555 1_555
C5 O1 1_555 1_555
C6 N1 1_555 1_555
H4 C6 1_555 1_555
C7 C1 1_555 1_555
C8 C5 1_555 1_555
C9 C2 1_555 1_555
H5 C9 1_555 1_555
C10 N4 1_555 1_555
H6 C10 1_555 1_555
C11 C8 1_555 1_555
C12 N4 1_555 1_555
C13 C7 1_555 1_555
C14 H7 1_555 1_555
H8 C14 1_555 1_555
H9 C14 1_555 1_555
C15 H10 1_555 1_555
C16 H11 1_555 1_555
H12 C16 1_555 1_555
H13 C16 1_555 1_555
C17 C12 1_555 1_555
C18 C2 1_555 1_555
C19 C11 1_555 1_555
H14 C19 1_555 1_555
H15 C19 1_555 1_555
H16 C19 1_555 1_555
C20 C18 1_555 1_555
H17 C20 1_555 1_555
H18 C20 1_555 1_555
H19 C20 1_555 1_555
C21 C12 1_555 1_555
H20 C21 1_555 1_555
C22 C21 1_555 1_555
H21 C22 1_555 1_555
C23 C15 1_555 1_555
H22 C23 1_555 1_555
C24 C11 1_555 1_555
H23 C24 1_555 1_555
H24 C24 1_555 1_555
H25 C24 1_555 1_555
C25 C11 1_555 1_555
H26 C25 1_555 1_555
H27 C25 1_555 1_555
H28 C25 1_555 1_555
O3 H29 1_555 1_555
C26 O3 1_555 1_555
H30 C26 1_555 1_555
H31 C26 1_555 1_555
H32 C26 1_555 1_555
O4 H33 1_555 1_555
C27 O4 1_555 1_555
H34 C27 1_555 1_555
H35 C27 1_555 1_555
H36 C27 1_555 1_555
C4 C5 1_555 1_555
C7 C10 1_555 1_555
C8 C9 1_555 1_555
C13 C17 1_555 1_555
C14 C18 1_555 1_555
C15 C17 1_555 1_555
C16 C18 1_555 1_555
C22 C23 1_555 1_555

#END
