
#######################################################################
#
#                 Cambridge Crystallographic Data Centre
#                                CCDC 
#
#######################################################################
#
# If this CIF has been generated from an entry in the Cambridge 
# Structural Database, then it will include bibliographic, chemical, 
# crystal, experimental, refinement or atomic coordinate data resulting 
# from the CCDC's data processing and validation procedures.
#
#######################################################################

data_XIXBEM
_chemical_formula_moiety         'C21 H25 N1 O5'
_chemical_name_systematic        
'(1R,5aS,8S,Z)-8-Methyl-7-oxo-2,3,4,5,5a,6,7,8,9,10-decahydro-1H-cyclohepta(8)annulen-1-yl 4-nitrobenozate'
_symmetry_cell_setting           monoclinic
_symmetry_space_group_name_H-M   'P 21/c'
_symmetry_Int_Tables_number      14
_space_group_name_Hall           '-P 2ybc'
loop_
_symmetry_equiv_pos_site_id
_symmetry_equiv_pos_as_xyz
1 x,y,z
2 -x,1/2+y,1/2-z
3 -x,-y,-z
4 x,1/2-y,1/2+z
_cell_length_a                   8.6159(12)
_cell_length_b                   14.929(2)
_cell_length_c                   15.652(2)
_cell_angle_alpha                90
_cell_angle_beta                 95.181(10)
_cell_angle_gamma                90
_cell_volume                     2005.04
_exptl_crystal_colour            colorless
_exptl_crystal_description       plate
_cell_formula_units_Z            4
loop_
_atom_site_label
_atom_site_type_symbol
_atom_site_fract_x
_atom_site_fract_y
_atom_site_fract_z
O1 O 0.2542(3) 0.72757(16) 0.57333(13)
O2 O 0.7292(2) 0.65128(14) 0.68442(13)
O3 O 0.5866(3) 0.52938(18) 0.66024(15)
O4 O 0.9105(4) 0.4904(2) 0.27348(16)
O5 O 1.0492(4) 0.6049(2) 0.30571(19)
N1 N 0.9536(4) 0.5500(3) 0.3215(2)
C1 C 0.4148(3) 0.7803(2) 0.78112(16)
H1 H 0.3996 0.8452 0.7850
C2 C 0.2762(3) 0.7420(2) 0.72434(17)
H2 H 0.2867 0.6774 0.7220
H3 H 0.1810 0.7553 0.7506
C3 C 0.2621(4) 0.7781(3) 0.6347(2)
C4 C 0.2549(4) 0.8786(3) 0.6221(2)
H4 H 0.2368 0.9072 0.6767
C5 C 0.4086(5) 0.9139(2) 0.59216(18)
H5 H 0.4355 0.8774 0.5444
H6 H 0.3915 0.9745 0.5710
C6 C 0.5482(4) 0.9147(2) 0.6604(2)
H7 H 0.6295 0.9517 0.6397
H8 H 0.5161 0.9427 0.7119
C7 C 0.6157(4) 0.8239(2) 0.68375(17)
H9 H 0.7038 0.8073 0.6574
C8 C 0.5631(4) 0.7646(2) 0.73802(17)
C9 C 0.6438(4) 0.6758(2) 0.75727(18)
H10 H 0.5660 0.6297 0.7664
C10 C 0.7639(4) 0.6804(2) 0.83540(18)
H11 H 0.8295 0.6275 0.8359
H12 H 0.8300 0.7322 0.8297
C11 C 0.6921(5) 0.6863(2) 0.92088(19)
H13 H 0.7753 0.6966 0.9658
H14 H 0.6457 0.6288 0.9321
C12 C 0.5686(4) 0.7587(2) 0.92749(17)
H15 H 0.5455 0.7635 0.9868
H16 H 0.6112 0.8157 0.9112
C13 C 0.4179(3) 0.7420(2) 0.87220(16)
H17 H 0.3327 0.7680 0.9002
H18 H 0.4003 0.6779 0.8683
C14 C 0.1199(5) 0.9028(3) 0.5546(2)
H19 H 0.0232 0.8827 0.5739
H20 H 0.1360 0.8744 0.5011
H21 H 0.1164 0.9666 0.5468
C15 C 0.6842(4) 0.5797(2) 0.6391(2)
C16 C 0.7644(3) 0.5708(2) 0.55984(17)
C17 C 0.7119(3) 0.5054(2) 0.50171(18)
H22 H 0.6345 0.4659 0.5154
C18 C 0.7734(4) 0.4981(2) 0.42331(19)
H23 H 0.7377 0.4547 0.3837
C19 C 0.8887(4) 0.5569(2) 0.40605(19)
C20 C 0.9464(4) 0.6209(2) 0.4632(2)
H24 H 1.0267 0.6588 0.4501
C21 C 0.8820(3) 0.6276(2) 0.54063(18)
H25 H 0.9184 0.6710 0.5801
loop_
_geom_bond_atom_site_label_1
_geom_bond_atom_site_label_2
_geom_bond_site_symmetry_1
_geom_bond_site_symmetry_2
O1 C3 1_555 1_555
O2 C9 1_555 1_555
O3 C15 1_555 1_555
O4 N1 1_555 1_555
O5 N1 1_555 1_555
N1 C19 1_555 1_555
C1 H1 1_555 1_555
C2 C1 1_555 1_555
H2 C2 1_555 1_555
H3 C2 1_555 1_555
C3 C2 1_555 1_555
C4 C3 1_555 1_555
H4 C4 1_555 1_555
C5 C4 1_555 1_555
H5 C5 1_555 1_555
H6 C5 1_555 1_555
C6 C5 1_555 1_555
H7 C6 1_555 1_555
H8 C6 1_555 1_555
C7 C6 1_555 1_555
H9 C7 1_555 1_555
C8 C1 1_555 1_555
C9 C8 1_555 1_555
H10 C9 1_555 1_555
C10 C9 1_555 1_555
H11 C10 1_555 1_555
H12 C10 1_555 1_555
C11 C10 1_555 1_555
H13 C11 1_555 1_555
H14 C11 1_555 1_555
C12 C11 1_555 1_555
H15 C12 1_555 1_555
H16 C12 1_555 1_555
C13 C1 1_555 1_555
H17 C13 1_555 1_555
H18 C13 1_555 1_555
C14 C4 1_555 1_555
H19 C14 1_555 1_555
H20 C14 1_555 1_555
H21 C14 1_555 1_555
C15 O2 1_555 1_555
C16 C15 1_555 1_555
C17 C16 1_555 1_555
H22 C17 1_555 1_555
C18 C17 1_555 1_555
H23 C18 1_555 1_555
C19 C18 1_555 1_555
C20 C19 1_555 1_555
H24 C20 1_555 1_555
C21 C16 1_555 1_555
H25 C21 1_555 1_555
C7 C8 1_555 1_555
C12 C13 1_555 1_555
C20 C21 1_555 1_555

#END
