
#######################################################################
#
#                 Cambridge Crystallographic Data Centre
#                                CCDC 
#
#######################################################################
#
# If this CIF has been generated from an entry in the Cambridge 
# Structural Database, then it will include bibliographic, chemical, 
# crystal, experimental, refinement or atomic coordinate data resulting 
# from the CCDC's data processing and validation procedures.
#
#######################################################################

data_XIXJUK
_chemical_formula_moiety         'C11 H5 F9 O2'
_chemical_name_systematic        
1,3-Dihydro-1,3,3-tris(trifluoromethyl)isobenzofuran-1-ol
_symmetry_cell_setting           tetragonal
_symmetry_space_group_name_H-M   'P 42/n'
_symmetry_Int_Tables_number      86
_space_group_name_Hall           '-P 4bc'
loop_
_symmetry_equiv_pos_site_id
_symmetry_equiv_pos_as_xyz
1 x,y,z
2 -y,1/2+x,1/2+z
3 1/2+y,-x,1/2+z
4 1/2-x,1/2-y,z
5 -x,-y,-z
6 y,1/2-x,1/2-z
7 1/2-y,x,1/2-z
8 1/2+x,1/2+y,-z
_cell_length_a                   17.3142(17)
_cell_length_b                   17.3142(17)
_cell_length_c                   8.5421(11)
_cell_angle_alpha                90
_cell_angle_beta                 90
_cell_angle_gamma                90
_cell_volume                     2560.76
_exptl_crystal_colour            colorless
_exptl_crystal_description       cuboid
_chemical_melting_point          69-70deg.C(dec)
_cell_formula_units_Z            8
loop_
_atom_site_label
_atom_site_type_symbol
_atom_site_fract_x
_atom_site_fract_y
_atom_site_fract_z
C1 C 0.12808(11) 0.03738(11) 0.2922(3)
C2 C 0.20935(12) 0.06489(11) 0.3173(3)
O1 O 0.22001(10) 0.13859(8) 0.2554(2)
C3 C 0.23590(16) 0.06410(17) 0.4881(3)
F1 F 0.31011(9) 0.08386(10) 0.49938(19)
F2 F 0.22794(11) -0.00434(11) 0.55321(19)
F3 F 0.19550(11) 0.11404(13) 0.5723(2)
O2 O 0.25637(7) 0.00957(7) 0.23829(16)
C4 C 0.21060(12) -0.04321(11) 0.1497(3)
C5 C 0.22564(15) -0.02752(16) -0.0239(3)
F4 F 0.18337(10) -0.07147(12) -0.1153(2)
F5 F 0.20802(10) 0.04493(10) -0.05826(19)
F6 F 0.29902(9) -0.03754(12) -0.0632(2)
C6 C 0.23570(17) -0.12464(14) 0.1977(4)
F7 F 0.22060(12) -0.13680(10) 0.3465(3)
F8 F 0.31003(10) -0.13660(9) 0.1765(3)
F9 F 0.19775(12) -0.17767(9) 0.1161(3)
C7 C 0.12827(12) -0.02577(12) 0.1946(3)
C8 C 0.06050(14) -0.06189(15) 0.1518(4)
C9 C -0.00765(15) -0.03230(18) 0.2092(4)
C10 C -0.00832(15) 0.03123(18) 0.3045(4)
C11 C 0.06003(14) 0.06754(15) 0.3488(3)
H1 H -0.0547(16) 0.0521(16) 0.346(3)
H2 H 0.0609(12) 0.1076(13) 0.420(3)
H3 H -0.0581(17) -0.0583(17) 0.182(3)
H4 H 0.0614(15) -0.1049(15) 0.080(3)
H5 H 0.2645(18) 0.1502(18) 0.266(4)
loop_
_geom_bond_atom_site_label_1
_geom_bond_atom_site_label_2
_geom_bond_site_symmetry_1
_geom_bond_site_symmetry_2
C1 C2 1_555 1_555
C2 O1 1_555 1_555
O1 H5 1_555 1_555
C3 C2 1_555 1_555
F1 C3 1_555 1_555
F2 C3 1_555 1_555
F3 C3 1_555 1_555
O2 C2 1_555 1_555
C4 O2 1_555 1_555
C5 C4 1_555 1_555
F4 C5 1_555 1_555
F5 C5 1_555 1_555
F6 C5 1_555 1_555
C6 C4 1_555 1_555
F7 C6 1_555 1_555
F8 C6 1_555 1_555
F9 C6 1_555 1_555
C7 C1 1_555 1_555
C8 C7 1_555 1_555
C9 C8 1_555 1_555
C10 C9 1_555 1_555
C11 C1 1_555 1_555
H1 C10 1_555 1_555
H2 C11 1_555 1_555
H3 C9 1_555 1_555
H4 C8 1_555 1_555
C4 C7 1_555 1_555
C10 C11 1_555 1_555

#END
