
#######################################################################
#
#                 Cambridge Crystallographic Data Centre
#                                CCDC 
#
#######################################################################
#
# If this CIF has been generated from an entry in the Cambridge 
# Structural Database, then it will include bibliographic, chemical, 
# crystal, experimental, refinement or atomic coordinate data resulting 
# from the CCDC's data processing and validation procedures.
#
#######################################################################

data_XIXJUM
_chemical_formula_moiety         'C29 H36 O6'
_chemical_name_systematic        
'4-(2-(6a,10b-dimethyl-8-methylidene-3-phenyldecahydro-1H,3H-naphtho[2,1-d][1,3]dioxin-7-yl)ethylidene)-5-oxooxolan-3-yl acetate'
_chemical_properties_biological  'insecticidal activity; acaricidal activity'
_symmetry_cell_setting           monoclinic
_symmetry_space_group_name_H-M   'P 21'
_symmetry_Int_Tables_number      4
_space_group_name_Hall           'P 2yb'
loop_
_symmetry_equiv_pos_site_id
_symmetry_equiv_pos_as_xyz
1 x,y,z
2 -x,1/2+y,-z
_cell_length_a                   13.0453(5)
_cell_length_b                   6.8502(4)
_cell_length_c                   14.7505(6)
_cell_angle_alpha                90
_cell_angle_beta                 90.848(4)
_cell_angle_gamma                90
_cell_volume                     1318
_exptl_crystal_colour            colorless
_exptl_crystal_description       block
_cell_formula_units_Z            2
loop_
_atom_site_label
_atom_site_type_symbol
_atom_site_fract_x
_atom_site_fract_y
_atom_site_fract_z
O1 O 0.2154(3) 0.1120(8) -0.1080(3)
O2 O 0.2783(2) -0.1831(7) -0.0798(2)
O3 O 0.0062(3) -0.6164(5) -0.21708(18)
O4 O 0.0873(2) -0.4556(5) -0.10420(15)
O5 O -0.45227(19) -0.0700(7) -0.58332(18)
O6 O -0.30530(16) -0.0219(5) -0.66638(15)
C1 C -0.1001(3) -0.1429(6) -0.4907(2)
H1 H -0.0586 -0.0281 -0.5018
H2 H -0.0543 -0.2535 -0.4837
C2 C -0.1711(3) -0.1779(7) -0.5726(2)
H3 H -0.1304 -0.2003 -0.6261
H4 H -0.2126 -0.2930 -0.5623
C3 C -0.2398(2) -0.0031(6) -0.5876(2)
H5 H -0.1938 0.1062 -0.6005
C4 C -0.3023(2) 0.0608(7) -0.5056(2)
C5 C -0.2348(2) 0.0593(6) -0.4179(2)
H6 H -0.1903 0.1738 -0.4238
C6 C -0.2971(3) 0.1003(9) -0.3327(3)
H7 H -0.3398 -0.0118 -0.3195
H8 H -0.3418 0.2114 -0.3436
C7 C -0.2264(3) 0.1429(9) -0.2511(3)
H9 H -0.1930 0.2680 -0.2596
H10 H -0.2669 0.1507 -0.1966
C8 C -0.1462(3) -0.0140(7) -0.2397(2)
C9 C -0.0850(2) -0.0455(6) -0.3247(2)
H11 H -0.0604 0.0838 -0.3426
C10 C -0.1593(2) -0.1138(5) -0.4026(2)
C11 C 0.0118(3) -0.1719(7) -0.3106(2)
H12 H -0.0081 -0.3003 -0.2893
H13 H 0.0459 -0.1880 -0.3681
C12 C 0.0845(3) -0.0814(6) -0.2435(2)
H14 H 0.0864 0.0543 -0.2424
C13 C 0.1466(3) -0.1726(7) -0.1853(2)
C14 C 0.2140(3) -0.0591(9) -0.1234(3)
C15 C 0.2665(4) -0.3788(10) -0.1138(3)
H15 H 0.2658 -0.4715 -0.0641
H16 H 0.3225 -0.4117 -0.1535
C16 C 0.1643(3) -0.3835(7) -0.1661(2)
H17 H 0.1679 -0.4617 -0.2216
C17 C 0.0140(4) -0.5743(6) -0.1385(3)
C18 C -0.0575(6) -0.6402(11) -0.0662(3)
H18 H -0.0220 -0.7273 -0.0256
H19 H -0.1148 -0.7067 -0.0936
H20 H -0.0814 -0.5289 -0.0332
C19 C -0.2089(4) -0.3070(8) -0.3753(3)
H21 H -0.2519 -0.2862 -0.3240
H22 H -0.1563 -0.3998 -0.3597
H23 H -0.2494 -0.3563 -0.4251
C20 C -0.3378(4) 0.2731(9) -0.5259(3)
H24 H -0.2789 0.3563 -0.5309
H25 H -0.3801 0.3186 -0.4775
H26 H -0.3764 0.2757 -0.5818
C21 C -0.1353(4) -0.1164(9) -0.1644(3)
H27 H -0.183(5) -0.093(10) -0.115(4)
H28 H -0.095(5) -0.231(10) -0.157(4)
C22 C -0.3958(3) -0.0691(10) -0.4994(2)
H29 H -0.3745 -0.2011 -0.4846
H30 H -0.4394 -0.0227 -0.4513
C23 C -0.3923(3) -0.1401(8) -0.6544(3)
H31 H -0.3714 -0.2751 -0.6422
C24 C -0.4557(3) -0.1309(11) -0.7396(3)
C25 C -0.4539(5) -0.2791(14) -0.8015(4)
H32 H -0.4145 -0.3901 -0.7906
C26 C -0.5142(7) -0.261(2) -0.8840(5)
H33 H -0.5160 -0.3598 -0.9271
C27 C -0.5675(6) -0.095(2) -0.8957(6)
H34 H -0.6049 -0.0800 -0.9495
C28 C -0.5705(6) 0.048(2) -0.8365(5)
H35 H -0.6101 0.1583 -0.8479
C29 C -0.5138(5) 0.0320(15) -0.7570(4)
H36 H -0.5151 0.1329 -0.7149
loop_
_geom_bond_atom_site_label_1
_geom_bond_atom_site_label_2
_geom_bond_site_symmetry_1
_geom_bond_site_symmetry_2
O1 C14 1_555 1_555
O2 C14 1_555 1_555
O3 C17 1_555 1_555
O4 C16 1_555 1_555
O5 C22 1_555 1_555
O6 C3 1_555 1_555
C1 H1 1_555 1_555
H2 C1 1_555 1_555
C2 C1 1_555 1_555
H3 C2 1_555 1_555
H4 C2 1_555 1_555
C3 C2 1_555 1_555
H5 C3 1_555 1_555
C4 C3 1_555 1_555
C5 C4 1_555 1_555
H6 C5 1_555 1_555
C6 C5 1_555 1_555
H7 C6 1_555 1_555
H8 C6 1_555 1_555
C7 C6 1_555 1_555
H9 C7 1_555 1_555
H10 C7 1_555 1_555
C8 C7 1_555 1_555
C9 C8 1_555 1_555
H11 C9 1_555 1_555
C10 C1 1_555 1_555
C11 C9 1_555 1_555
H12 C11 1_555 1_555
H13 C11 1_555 1_555
C12 C11 1_555 1_555
H14 C12 1_555 1_555
C13 C12 1_555 1_555
C14 C13 1_555 1_555
C15 O2 1_555 1_555
H15 C15 1_555 1_555
H16 C15 1_555 1_555
C16 C13 1_555 1_555
H17 C16 1_555 1_555
C17 O4 1_555 1_555
C18 C17 1_555 1_555
H18 C18 1_555 1_555
H19 C18 1_555 1_555
H20 C18 1_555 1_555
C19 C10 1_555 1_555
H21 C19 1_555 1_555
H22 C19 1_555 1_555
H23 C19 1_555 1_555
C20 C4 1_555 1_555
H24 C20 1_555 1_555
H25 C20 1_555 1_555
H26 C20 1_555 1_555
C21 C8 1_555 1_555
H27 C21 1_555 1_555
H28 C21 1_555 1_555
C22 C4 1_555 1_555
H29 C22 1_555 1_555
H30 C22 1_555 1_555
C23 O5 1_555 1_555
H31 C23 1_555 1_555
C24 C23 1_555 1_555
C25 C24 1_555 1_555
H32 C25 1_555 1_555
C26 C25 1_555 1_555
H33 C26 1_555 1_555
C27 C26 1_555 1_555
H34 C27 1_555 1_555
C28 C27 1_555 1_555
H35 C28 1_555 1_555
C29 C24 1_555 1_555
H36 C29 1_555 1_555
O6 C23 1_555 1_555
C5 C10 1_555 1_555
C9 C10 1_555 1_555
C15 C16 1_555 1_555
C28 C29 1_555 1_555

#END
