
#######################################################################
#
#                 Cambridge Crystallographic Data Centre
#                                CCDC 
#
#######################################################################
#
# If this CIF has been generated from an entry in the Cambridge 
# Structural Database, then it will include bibliographic, chemical, 
# crystal, experimental, refinement or atomic coordinate data resulting 
# from the CCDC's data processing and validation procedures.
#
#######################################################################

data_XIXLUN
_chemical_formula_moiety         'C20 H30 O6'
_chemical_name_systematic        
6-(6-(5,5-Dimethyl-4-oxo-4,5-dihydrofuran-2-yl)-1,2-dihydroxy-2-methylheptyl)-4-methyl-5,6-dihydro-2H-pyran-2-one
_symmetry_cell_setting           monoclinic
_symmetry_space_group_name_H-M   'P 21'
_symmetry_Int_Tables_number      4
_space_group_name_Hall           'P 2yb'
loop_
_symmetry_equiv_pos_site_id
_symmetry_equiv_pos_as_xyz
1 x,y,z
2 -x,1/2+y,-z
_cell_length_a                   5.84000(10)
_cell_length_b                   9.76940(10)
_cell_length_c                   17.7381(2)
_cell_angle_alpha                90
_cell_angle_beta                 90.3950(10)
_cell_angle_gamma                90
_cell_volume                     1011.99
_exptl_crystal_colour            colorless
_exptl_crystal_description       prism
_cell_formula_units_Z            2
loop_
_atom_site_label
_atom_site_type_symbol
_atom_site_fract_x
_atom_site_fract_y
_atom_site_fract_z
O1 O -0.1638(2) 0.49176(14) 0.54585(8)
O2 O 0.4466(2) 0.32363(13) 0.43820(7)
H1 H 0.5802 0.3402 0.4276
O3 O -0.0520(2) 0.30282(13) 0.42984(7)
H2 H -0.1904 0.3156 0.4330
C1 C 0.3004(3) 0.42514(18) 0.40475(10)
C2 C 0.0657(3) 0.42745(17) 0.44377(10)
H3 H -0.0241 0.5005 0.4199
O4 O -0.4045(3) 0.56289(16) 0.63145(10)
O5 O 0.8183(3) 0.2852(2) 0.02907(9)
C3 C 0.0729(3) 0.45790(17) 0.52848(10)
H4 H 0.1682 0.5390 0.5371
C4 C -0.2247(4) 0.50608(19) 0.61796(12)
C5 C 0.1596(4) 0.3429(2) 0.57817(11)
H5 H 0.0925 0.2571 0.5616
H6 H 0.3245 0.3356 0.5734
C6 C 0.6261(4) 0.2875(3) 0.06978(12)
C7 C 0.4440(4) 0.3258(3) 0.19593(12)
H7 H 0.3586 0.2408 0.1978
H8 H 0.3512 0.3924 0.1691
C8 C 0.1003(4) 0.3673(2) 0.65903(11)
C9 C 0.6638(4) 0.3024(3) 0.15289(12)
H9 H 0.7612 0.3829 0.1608
C10 C 0.2650(4) 0.3930(2) 0.32019(11)
H10 H 0.1769 0.3092 0.3156
H11 H 0.1757 0.4660 0.2975
C11 C 0.4219(4) 0.5614(2) 0.41572(13)
H12 H 0.4414 0.5790 0.4686
H13 H 0.3319 0.6332 0.3934
H14 H 0.5691 0.5582 0.3920
C12 C 0.4865(4) 0.3767(3) 0.27623(13)
H15 H 0.5856 0.3124 0.3024
H16 H 0.5649 0.4642 0.2743
C13 C 0.2428(6) 0.2973(4) 0.71769(13)
H17 H 0.1876 0.3211 0.7668
H18 H 0.3993 0.3259 0.7131
H19 H 0.2329 0.2000 0.7109
C14 C -0.0750(4) 0.4475(2) 0.67551(12)
H20 H -0.1039 0.4672 0.7259
C15 C 0.4995(6) 0.2612(9) -0.04847(16)
C16 C 0.7952(6) 0.1781(4) 0.18239(16)
H21 H 0.9341 0.1674 0.1544
H22 H 0.7025 0.0976 0.1766
H23 H 0.8316 0.1911 0.2348
C17 C 0.7548(5) 0.2697(4) -0.05016(13)
C18 C 0.8584(9) 0.1389(5) -0.0789(2)
H24 H 0.7969 0.0628 -0.0515
H25 H 1.0215 0.1418 -0.0722
H26 H 0.8227 0.1287 -0.1316
C19 C 0.4338(5) 0.2747(6) 0.02935(15)
H27 H 0.2852 0.2746 0.0479
C20 C 0.8395(11) 0.3928(5) -0.0921(3)
H28 H 1.0039 0.3928 -0.0921
H29 H 0.7852 0.4744 -0.0679
H30 H 0.7837 0.3899 -0.1431
O6 O 0.3856(5) 0.2457(11) -0.10391(14)
loop_
_geom_bond_atom_site_label_1
_geom_bond_atom_site_label_2
_geom_bond_site_symmetry_1
_geom_bond_site_symmetry_2
O1 C3 1_555 1_555
O2 H1 1_555 1_555
O3 H2 1_555 1_555
C1 O2 1_555 1_555
C2 O3 1_555 1_555
H3 C2 1_555 1_555
O4 C4 1_555 1_555
O5 C6 1_555 1_555
C3 C2 1_555 1_555
H4 C3 1_555 1_555
C4 O1 1_555 1_555
C5 C3 1_555 1_555
H5 C5 1_555 1_555
H6 C5 1_555 1_555
C6 C9 1_555 1_555
C7 H7 1_555 1_555
H8 C7 1_555 1_555
C8 C5 1_555 1_555
C9 C7 1_555 1_555
H9 C9 1_555 1_555
C10 C1 1_555 1_555
H10 C10 1_555 1_555
H11 C10 1_555 1_555
C11 C1 1_555 1_555
H12 C11 1_555 1_555
H13 C11 1_555 1_555
H14 C11 1_555 1_555
C12 C7 1_555 1_555
H15 C12 1_555 1_555
H16 C12 1_555 1_555
C13 C8 1_555 1_555
H17 C13 1_555 1_555
H18 C13 1_555 1_555
H19 C13 1_555 1_555
C14 C4 1_555 1_555
H20 C14 1_555 1_555
C15 C17 1_555 1_555
C16 C9 1_555 1_555
H21 C16 1_555 1_555
H22 C16 1_555 1_555
H23 C16 1_555 1_555
C17 O5 1_555 1_555
C18 C17 1_555 1_555
H24 C18 1_555 1_555
H25 C18 1_555 1_555
H26 C18 1_555 1_555
C19 C6 1_555 1_555
H27 C19 1_555 1_555
C20 C17 1_555 1_555
H28 C20 1_555 1_555
H29 C20 1_555 1_555
H30 C20 1_555 1_555
O6 C15 1_555 1_555
C1 C2 1_555 1_555
C8 C14 1_555 1_555
C10 C12 1_555 1_555
C15 C19 1_555 1_555

#END
