
#######################################################################
#
#                 Cambridge Crystallographic Data Centre
#                                CCDC 
#
#######################################################################
#
# If this CIF has been generated from an entry in the Cambridge 
# Structural Database, then it will include bibliographic, chemical, 
# crystal, experimental, refinement or atomic coordinate data resulting 
# from the CCDC's data processing and validation procedures.
#
#######################################################################

data_XIXQIF
_chemical_formula_moiety         'C21 H26 O3 S2'
_chemical_name_systematic        
2,6,12-Trioxa-9,15-dithia-1,7(1,2)-dibenzenacyclohexadecaphane
_symmetry_cell_setting           monoclinic
_symmetry_space_group_name_H-M   'C c'
_symmetry_Int_Tables_number      9
_space_group_name_Hall           'C -2yc'
loop_
_symmetry_equiv_pos_site_id
_symmetry_equiv_pos_as_xyz
1 x,y,z
2 x,-y,1/2+z
3 1/2+x,1/2+y,z
4 1/2+x,1/2-y,1/2+z
_cell_length_a                   11.8755(7)
_cell_length_b                   11.3829(6)
_cell_length_c                   15.7149(9)
_cell_angle_alpha                90
_cell_angle_beta                 108.7870(10)
_cell_angle_gamma                90
_cell_volume                     2011.13
_exptl_crystal_colour            colorless
_exptl_crystal_description       block
_chemical_melting_point          99-101deg.C
_cell_formula_units_Z            4
loop_
_atom_site_label
_atom_site_type_symbol
_atom_site_fract_x
_atom_site_fract_y
_atom_site_fract_z
S1 S -0.05956(10) 0.58227(8) 0.29722(7)
S2 S -0.25388(8) 0.08023(8) -0.06902(6)
O1 O 0.0579(2) 0.1791(2) -0.01847(18)
O2 O 0.0896(3) 0.4897(2) 0.12975(17)
O3 O -0.1349(3) 0.2912(2) 0.14488(18)
C1 C 0.1730(4) 0.2083(3) 0.0421(3)
H1 H 0.2233 0.2420 0.0087
H2 H 0.2128 0.1372 0.0744
C2 C 0.1541(4) 0.2976(3) 0.1080(3)
H3 H 0.1054 0.2618 0.1417
H4 H 0.2321 0.3192 0.1517
C3 C 0.0929(4) 0.4073(3) 0.0611(3)
H5 H 0.1374 0.4410 0.0233
H6 H 0.0112 0.3887 0.0221
C4 C 0.0417(4) 0.5980(3) 0.1020(3)
C5 C 0.0022(4) 0.6338(3) 0.0116(3)
H7 H 0.0028 0.5803 -0.0346
C6 C -0.0373(4) 0.7471(4) -0.0092(3)
H8 H -0.0640 0.7711 -0.0703
C7 C -0.0390(4) 0.8268(3) 0.0564(3)
H9 H -0.0645 0.9054 0.0413
C8 C -0.0024(4) 0.7890(3) 0.1455(3)
H10 H -0.0037 0.8432 0.1911
C9 C 0.0354(4) 0.6767(3) 0.1697(3)
C10 C 0.0670(4) 0.6375(3) 0.2662(3)
H11 H 0.1028 0.7046 0.3057
H12 H 0.1279 0.5749 0.2773
C11 C -0.0696(5) 0.4300(3) 0.2611(3)
H13 H 0.0109 0.4021 0.2651
H14 H -0.0974 0.3820 0.3030
C12 C -0.1523(4) 0.4098(3) 0.1663(3)
H15 H -0.2360 0.4229 0.1631
H16 H -0.1329 0.4642 0.1238
C13 C -0.2028(4) 0.2604(3) 0.0551(3)
H17 H -0.1801 0.3104 0.0117
H18 H -0.2888 0.2713 0.0455
C14 C -0.1764(3) 0.1327(3) 0.0425(2)
H19 H -0.1994 0.0843 0.0865
H20 H -0.0898 0.1231 0.0547
C15 C -0.1685(4) 0.1415(3) -0.1363(3)
H21 H -0.2227 0.1522 -0.1985
H22 H -0.1397 0.2202 -0.1123
C16 C -0.0630(4) 0.0700(3) -0.1398(3)
C17 C -0.0774(4) -0.0191(3) -0.2028(3)
H23 H -0.1549 -0.0378 -0.2414
C18 C 0.0194(4) -0.0812(3) -0.2102(3)
H24 H 0.0080 -0.1418 -0.2537
C19 C 0.1314(4) -0.0549(4) -0.1545(3)
H25 H 0.1977 -0.0971 -0.1601
C20 C 0.1494(4) 0.0334(3) -0.0895(3)
H26 H 0.2273 0.0523 -0.0516
C21 C 0.0506(4) 0.0932(3) -0.0813(3)
loop_
_geom_bond_atom_site_label_1
_geom_bond_atom_site_label_2
_geom_bond_site_symmetry_1
_geom_bond_site_symmetry_2
S1 C10 1_555 1_555
S2 C14 1_555 1_555
O1 C1 1_555 1_555
O2 C3 1_555 1_555
O3 C12 1_555 1_555
C1 H1 1_555 1_555
H2 C1 1_555 1_555
C2 C1 1_555 1_555
H3 C2 1_555 1_555
H4 C2 1_555 1_555
C3 C2 1_555 1_555
H5 C3 1_555 1_555
H6 C3 1_555 1_555
C4 O2 1_555 1_555
C5 C4 1_555 1_555
H7 C5 1_555 1_555
C6 C5 1_555 1_555
H8 C6 1_555 1_555
C7 C6 1_555 1_555
H9 C7 1_555 1_555
C8 C7 1_555 1_555
H10 C8 1_555 1_555
C9 C4 1_555 1_555
C10 C9 1_555 1_555
H11 C10 1_555 1_555
H12 C10 1_555 1_555
C11 S1 1_555 1_555
H13 C11 1_555 1_555
H14 C11 1_555 1_555
C12 C11 1_555 1_555
H15 C12 1_555 1_555
H16 C12 1_555 1_555
C13 O3 1_555 1_555
H17 C13 1_555 1_555
H18 C13 1_555 1_555
C14 C13 1_555 1_555
H19 C14 1_555 1_555
H20 C14 1_555 1_555
C15 S2 1_555 1_555
H21 C15 1_555 1_555
H22 C15 1_555 1_555
C16 C15 1_555 1_555
C17 C16 1_555 1_555
H23 C17 1_555 1_555
C18 C17 1_555 1_555
H24 C18 1_555 1_555
C19 C18 1_555 1_555
H25 C19 1_555 1_555
C20 C19 1_555 1_555
H26 C20 1_555 1_555
C21 O1 1_555 1_555
C8 C9 1_555 1_555
C16 C21 1_555 1_555
C20 C21 1_555 1_555

#END
