
#######################################################################
#
#                 Cambridge Crystallographic Data Centre
#                                CCDC 
#
#######################################################################
#
# If this CIF has been generated from an entry in the Cambridge 
# Structural Database, then it will include bibliographic, chemical, 
# crystal, experimental, refinement or atomic coordinate data resulting 
# from the CCDC's data processing and validation procedures.
#
#######################################################################

data_XIXQEB
_chemical_formula_moiety         'C21 H26 O2 S3'
_chemical_name_systematic        
2,6-Dioxa-9,12,15-trithia-1,7(1,2)-dibenzenacyclohexadecaphane
_symmetry_cell_setting           orthorhombic
_symmetry_space_group_name_H-M   'P c a 21'
_symmetry_Int_Tables_number      29
_space_group_name_Hall           'P 2c -2ac'
loop_
_symmetry_equiv_pos_site_id
_symmetry_equiv_pos_as_xyz
1 x,y,z
2 -x,-y,1/2+z
3 1/2+x,-y,z
4 1/2-x,y,1/2+z
_cell_length_a                   13.2221(9)
_cell_length_b                   12.4315(8)
_cell_length_c                   25.7337(19)
_cell_angle_alpha                90
_cell_angle_beta                 90
_cell_angle_gamma                90
_cell_volume                     4229.86
_exptl_crystal_colour            colorless
_exptl_crystal_description       block
_chemical_melting_point          110-112deg.C
_cell_formula_units_Z            8
loop_
_atom_site_label
_atom_site_type_symbol
_atom_site_fract_x
_atom_site_fract_y
_atom_site_fract_z
S1 S 0.96363(8) 1.28456(7) 0.89050(4)
S2 S 0.90326(9) 0.94057(8) 0.87599(5)
S3 S 0.63868(9) 0.83760(9) 0.78366(5)
O1 O 0.66953(18) 1.1535(2) 0.77558(11)
O2 O 0.71495(19) 1.3802(2) 0.89137(10)
C1 C 0.6917(3) 1.2596(3) 0.79248(16)
H1 H 0.6909 1.3088 0.7632
H2 H 0.7582 1.2621 0.8084
C2 C 0.6114(3) 1.2915(4) 0.83176(18)
H3 H 0.5460 1.2940 0.8147
H4 H 0.6080 1.2373 0.8588
C3 C 0.6326(3) 1.3967(4) 0.85539(18)
H5 H 0.6516 1.4484 0.8289
H6 H 0.5733 1.4233 0.8735
C4 C 0.7682(3) 1.4676(3) 0.90688(13)
C5 C 0.7408(4) 1.5759(4) 0.89724(16)
H7 H 0.6802 1.5941 0.8811
C6 C 0.8103(6) 1.6542(4) 0.9135(2)
H8 H 0.7962 1.7258 0.9059
C7 C 0.8952(6) 1.6321(6) 0.9392(3)
H9 H 0.9383 1.6868 0.9500
C8 C 0.9166(4) 1.5306(4) 0.94873(18)
H10 H 0.9761 1.5154 0.9666
C9 C 0.8561(3) 1.4452(3) 0.93391(13)
C10 C 0.8865(3) 1.3316(3) 0.94454(14)
H11 H 0.8269 1.2867 0.9481
H12 H 0.9248 1.3278 0.9766
C11 C 0.9611(3) 1.1418(3) 0.90186(17)
H13 H 1.0283 1.1127 0.8962
H14 H 0.9431 1.1286 0.9378
C12 C 0.8886(3) 1.0847(3) 0.86782(17)
H15 H 0.9008 1.1041 0.8319
H16 H 0.8200 1.1056 0.8767
C13 C 0.8269(3) 0.8926(3) 0.82256(17)
H17 H 0.8434 0.9335 0.7916
H18 H 0.8432 0.8178 0.8159
C14 C 0.7157(3) 0.9023(3) 0.83315(16)
H19 H 0.6977 0.9778 0.8350
H20 H 0.7009 0.8700 0.8666
C15 C 0.6075(3) 0.9519(4) 0.74266(16)
H21 H 0.5636 0.9275 0.7149
H22 H 0.5699 1.0037 0.7632
C16 C 0.6971(3) 1.0076(3) 0.71909(15)
C17 C 0.7511(3) 0.9594(3) 0.67965(16)
H23 H 0.7302 0.8926 0.6673
C18 C 0.8348(3) 1.0070(4) 0.65801(18)
H24 H 0.8702 0.9728 0.6315
C19 C 0.8655(3) 1.1055(4) 0.67595(16)
H25 H 0.9221 1.1384 0.6616
C20 C 0.8127(3) 1.1564(3) 0.71535(15)
H26 H 0.8342 1.2231 0.7274
C21 C 0.7281(3) 1.1083(3) 0.73697(14)
S4 S 0.77904(7) 0.78409(7) 0.55924(4)
S5 S 0.84053(10) 0.43717(9) 0.55193(6)
S6 S 1.08496(9) 0.32674(9) 0.65611(5)
O3 O 1.06269(18) 0.6443(2) 0.66314(10)
O4 O 1.01838(18) 0.8732(2) 0.54919(10)
C22 C 1.0453(3) 0.7509(3) 0.64621(14)
H27 H 1.0483 0.7998 0.6755
H28 H 0.9786 0.7564 0.6307
C23 C 1.1247(3) 0.7805(4) 0.60694(17)
H29 H 1.1901 0.7824 0.6240
H30 H 1.1272 0.7253 0.5803
C24 C 1.1055(3) 0.8865(4) 0.58190(17)
H31 H 1.0928 0.9410 0.6081
H32 H 1.1635 0.9083 0.5614
C25 C 0.9712(3) 0.9618(3) 0.53062(13)
C26 C 1.0096(4) 1.0670(4) 0.53478(17)
H33 H 1.0709 1.0805 0.5513
C27 C 0.9530(6) 1.1496(4) 0.5135(2)
H34 H 0.9781 1.2194 0.5155
C28 C 0.8632(5) 1.1333(5) 0.4901(2)
H35 H 0.8265 1.1906 0.4765
C29 C 0.8275(4) 1.0302(4) 0.48681(18)
H36 H 0.7655 1.0186 0.4707
C30 C 0.8791(3) 0.9430(3) 0.50632(13)
C31 C 0.8392(3) 0.8320(3) 0.50056(15)
H37 H 0.8943 0.7840 0.4915
H38 H 0.7906 0.8305 0.4723
C32 C 0.7725(3) 0.6393(3) 0.5493(2)
H39 H 0.7103 0.6130 0.5647
H40 H 0.7689 0.6255 0.5122
C33 C 0.8528(6) 0.5803(5) 0.5697(5)
H43 H 0.8536 0.5873 0.6072
H44 H 0.9162 0.6083 0.5563
C35 C 0.9059(3) 0.3842(4) 0.6082(2)
H47 H 0.8839 0.4230 0.6389
H48 H 0.8878 0.3092 0.6127
C36 C 1.0170(3) 0.3930(3) 0.60364(16)
H49 H 1.0356 0.4685 0.6031
H50 H 1.0380 0.3617 0.5708
C37 C 1.1192(3) 0.4401(3) 0.69598(17)
H51 H 1.1625 0.4150 0.7239
H52 H 1.1582 0.4900 0.6751
C38 C 1.0313(2) 0.4996(3) 0.71938(14)
C39 C 0.9754(3) 0.4535(3) 0.75909(15)
H53 H 0.9944 0.3863 0.7716
C40 C 0.8941(3) 0.5030(4) 0.78036(19)
H54 H 0.8578 0.4704 0.8070
C41 C 0.8665(3) 0.6018(4) 0.76194(16)
H55 H 0.8108 0.6363 0.7764
C42 C 0.9193(3) 0.6515(3) 0.72247(15)
H56 H 0.8986 0.7182 0.7100
C43 C 1.0033(3) 0.6013(3) 0.70155(13)
H41? H 0.7461 0.6068 0.5808
H42? H 0.7242 0.6253 0.5218
C34? C 0.8670(13) 0.585(2) 0.5361(9)
H45? H 0.9227 0.6124 0.5568
H46? H 0.8830 0.5941 0.4995
loop_
_geom_bond_atom_site_label_1
_geom_bond_atom_site_label_2
_geom_bond_site_symmetry_1
_geom_bond_site_symmetry_2
S1 C10 1_555 1_555
S2 C12 1_555 1_555
S3 C14 1_555 1_555
S4 C31 1_555 1_555
S5 C33 1_555 1_555
S6 C36 1_555 1_555
O1 C1 1_555 1_555
O2 C3 1_555 1_555
O3 C22 1_555 1_555
O4 C24 1_555 1_555
C1 H1 1_555 1_555
H2 C1 1_555 1_555
C2 C1 1_555 1_555
H3 C2 1_555 1_555
H4 C2 1_555 1_555
C3 C2 1_555 1_555
H5 C3 1_555 1_555
H6 C3 1_555 1_555
C4 O2 1_555 1_555
C5 C4 1_555 1_555
H7 C5 1_555 1_555
C6 C5 1_555 1_555
H8 C6 1_555 1_555
C7 C6 1_555 1_555
H9 C7 1_555 1_555
C8 C7 1_555 1_555
H10 C8 1_555 1_555
C9 C4 1_555 1_555
C10 C9 1_555 1_555
H11 C10 1_555 1_555
H12 C10 1_555 1_555
C11 S1 1_555 1_555
H13 C11 1_555 1_555
H14 C11 1_555 1_555
C12 C11 1_555 1_555
H15 C12 1_555 1_555
H16 C12 1_555 1_555
C13 S2 1_555 1_555
H17 C13 1_555 1_555
H18 C13 1_555 1_555
C14 C13 1_555 1_555
H19 C14 1_555 1_555
H20 C14 1_555 1_555
C15 S3 1_555 1_555
H21 C15 1_555 1_555
H22 C15 1_555 1_555
C16 C15 1_555 1_555
C17 C16 1_555 1_555
H23 C17 1_555 1_555
C18 C17 1_555 1_555
H24 C18 1_555 1_555
C19 C18 1_555 1_555
H25 C19 1_555 1_555
C20 C19 1_555 1_555
H26 C20 1_555 1_555
C21 O1 1_555 1_555
C22 H27 1_555 1_555
H28 C22 1_555 1_555
C23 C22 1_555 1_555
H29 C23 1_555 1_555
H30 C23 1_555 1_555
C24 C23 1_555 1_555
H31 C24 1_555 1_555
H32 C24 1_555 1_555
C25 O4 1_555 1_555
C26 C25 1_555 1_555
H33 C26 1_555 1_555
C27 C26 1_555 1_555
H34 C27 1_555 1_555
C28 C27 1_555 1_555
H35 C28 1_555 1_555
C29 C28 1_555 1_555
H36 C29 1_555 1_555
C30 C25 1_555 1_555
C31 C30 1_555 1_555
H37 C31 1_555 1_555
H38 C31 1_555 1_555
C32 S4 1_555 1_555
H39 C32 1_555 1_555
H40 C32 1_555 1_555
C33 C32 1_555 1_555
H43 C33 1_555 1_555
H44 C33 1_555 1_555
C35 S5 1_555 1_555
H47 C35 1_555 1_555
H48 C35 1_555 1_555
C36 C35 1_555 1_555
H49 C36 1_555 1_555
H50 C36 1_555 1_555
C37 S6 1_555 1_555
H51 C37 1_555 1_555
H52 C37 1_555 1_555
C38 C37 1_555 1_555
C39 C38 1_555 1_555
H53 C39 1_555 1_555
C40 C39 1_555 1_555
H54 C40 1_555 1_555
C41 C40 1_555 1_555
H55 C41 1_555 1_555
C42 C41 1_555 1_555
H56 C42 1_555 1_555
C43 O3 1_555 1_555
C8 C9 1_555 1_555
C16 C21 1_555 1_555
C20 C21 1_555 1_555
C29 C30 1_555 1_555
C38 C43 1_555 1_555
C42 C43 1_555 1_555

#END
