
#######################################################################
#
#                 Cambridge Crystallographic Data Centre
#                                CCDC 
#
#######################################################################
#
# If this CIF has been generated from an entry in the Cambridge 
# Structural Database, then it will include bibliographic, chemical, 
# crystal, experimental, refinement or atomic coordinate data resulting 
# from the CCDC's data processing and validation procedures.
#
#######################################################################

data_XIXREC
_chemical_formula_moiety         'C6 H5 Cl1 N6'
_chemical_name_systematic        2-Amino-4-chloro-6-pyrazolyl(1,3,5)triazine
_symmetry_cell_setting           monoclinic
_symmetry_space_group_name_H-M   'P c'
_symmetry_Int_Tables_number      7
_space_group_name_Hall           'P -2yc'
loop_
_symmetry_equiv_pos_site_id
_symmetry_equiv_pos_as_xyz
1 x,y,z
2 x,-y,1/2+z
_cell_length_a                   4.2896(5)
_cell_length_b                   5.4645(6)
_cell_length_c                   17.528(2)
_cell_angle_alpha                90
_cell_angle_beta                 91.449(2)
_cell_angle_gamma                90
_cell_volume                     410.734
_exptl_crystal_colour            colorless
_exptl_crystal_description       platelet
_chemical_melting_point          'above 200deg.C'
_cell_formula_units_Z            2
_exptl_crystal_recrystallization_method methanol
loop_
_atom_site_label
_atom_site_type_symbol
_atom_site_fract_x
_atom_site_fract_y
_atom_site_fract_z
Cl1 Cl -0.01395(7) 0.14477(8) -0.17510(2)
N1 N 0.0691(3) 0.2390(2) -0.03189(6)
N2 N -0.2755(3) 0.5004(2) -0.10208(7)
N3 N -0.1861(3) 0.5651(2) 0.03202(7)
C1 C -0.3247(4) 0.6211(2) -0.03580(10)
C2 C 0.0055(3) 0.3769(2) 0.02870(8)
C3 C -0.0838(3) 0.3157(3) -0.09385(8)
C4 C 0.1775(4) 0.4465(4) 0.16267(9)
H1 H 0.0746 0.5926 0.1723
C5 C 0.4663(5) 0.1181(4) 0.17118(12)
H2 H 0.6005 -0.0003 0.1914
C6 C 0.3684(5) 0.3218(4) 0.21159(11)
H3 H 0.4225 0.3636 0.2616
N4 N 0.1661(3) 0.3150(2) 0.09652(7)
N5 N -0.5233(3) 0.8058(3) -0.03783(9)
N6 N 0.3479(3) 0.1114(3) 0.10090(8)
H4 H -0.542(5) 0.886(3) 0.0032(11)
H5 H -0.592(6) 0.853(4) -0.0817(13)
loop_
_geom_bond_atom_site_label_1
_geom_bond_atom_site_label_2
_geom_bond_site_symmetry_1
_geom_bond_site_symmetry_2
Cl1 C3 1_555 1_555
N1 C2 1_555 1_555
N2 C1 1_555 1_555
N3 C1 1_555 1_555
C1 N5 1_555 1_555
C2 N3 1_555 1_555
C3 N1 1_555 1_555
C4 H1 1_555 1_555
C5 H2 1_555 1_555
C6 C4 1_555 1_555
H3 C6 1_555 1_555
N4 C2 1_555 1_555
N5 H4 1_555 1_555
N6 C5 1_555 1_555
H5 N5 1_555 1_555
N2 C3 1_555 1_555
C4 N4 1_555 1_555
C5 C6 1_555 1_555
N4 N6 1_555 1_555

#END
