
#######################################################################
#
#                 Cambridge Crystallographic Data Centre
#                                CCDC 
#
#######################################################################
#
# If this CIF has been generated from an entry in the Cambridge 
# Structural Database, then it will include bibliographic, chemical, 
# crystal, experimental, refinement or atomic coordinate data resulting 
# from the CCDC's data processing and validation procedures.
#
#######################################################################

data_XIXVAB
_chemical_formula_moiety         'C40 H49 N5 O1'
_chemical_name_systematic        
7-Amido-2,3,7,12,13,17,18,10^3^-octaethylbenzochlorin
_symmetry_cell_setting           monoclinic
_symmetry_space_group_name_H-M   'C 2/c'
_symmetry_Int_Tables_number      15
_space_group_name_Hall           '-C 2yn'
loop_
_symmetry_equiv_pos_site_id
_symmetry_equiv_pos_as_xyz
1 x,y,z
2 1/2+x,1/2+y,z
3 x,-y,1/2+z
4 1/2+x,1/2-y,1/2+z
5 -x,-y,-z
6 1/2-x,1/2-y,-z
7 -x,y,1/2-z
8 1/2-x,1/2+y,1/2-z
_cell_length_a                   19.084(4)
_cell_length_b                   27.306(6)
_cell_length_c                   15.113(3)
_cell_angle_alpha                90
_cell_angle_beta                 116.21(3)
_cell_angle_gamma                90
_cell_volume                     7065.75
_exptl_crystal_colour            'dark green'
_exptl_crystal_description       prism
_cell_formula_units_Z            8
_exptl_crystal_recrystallization_method dichloromethane/hexane
loop_
_atom_site_label
_atom_site_type_symbol
_atom_site_fract_x
_atom_site_fract_y
_atom_site_fract_z
N1 N 0.3438(2) 0.16098(14) 0.3671(3)
N2 N 0.3536(2) 0.21867(15) 0.5278(3)
H2 H 0.3555 0.2214 0.4723
N3 N 0.3541(2) 0.30741(17) 0.4029(3)
N4 N 0.3478(2) 0.24853(15) 0.2480(3)
H4 H 0.3465 0.2448 0.3038
N5 N 0.4734(4) 0.0625(2) 0.3532(4)
H5 H 0.484(3) 0.0754(18) 0.415(4)
H6 H 0.509(4) 0.048(2) 0.335(4)
O1 O 0.3951(2) 0.05146(14) 0.1924(3)
C1 C 0.3398(3) 0.13955(18) 0.2849(3)
C2 C 0.3337(3) 0.08473(18) 0.2875(3)
C3 C 0.2564(3) 0.06641(18) 0.2031(4)
H7 H 0.2552 0.0758 0.1406
H8 H 0.2555 0.0309 0.2052
C4 C 0.1827(3) 0.0860(2) 0.2070(4)
H9 H 0.1777 0.0716 0.2619
H10 H 0.1378 0.0778 0.1470
H11 H 0.1864 0.1210 0.2146
C5 C 0.4046(4) 0.06289(18) 0.2745(5)
C6 C 0.3419(3) 0.07701(18) 0.3907(3)
C7 C 0.3472(3) 0.03500(19) 0.4411(4)
C8 C 0.3462(4) -0.0147(2) 0.4026(4)
H12 H 0.3252 -0.0126 0.3314
H13 H 0.3999 -0.0258 0.4274
C9 C 0.3021(4) -0.0524(2) 0.4257(4)
H14 H 0.3238 -0.0566 0.4959
H15 H 0.3051 -0.0828 0.3957
H16 H 0.2485 -0.0425 0.4007
C10 C 0.3569(3) 0.0411(2) 0.5391(4)
H17 H 0.3622 0.0137 0.5781
C11 C 0.3586(3) 0.0861(2) 0.5763(4)
H18 H 0.3644 0.0879 0.6406
C12 C 0.3456(3) 0.12308(18) 0.4296(3)
C13 C 0.3525(3) 0.13010(19) 0.5279(3)
C14 C 0.3525(3) 0.1756(2) 0.5698(4)
C15 C 0.3515(3) 0.1882(2) 0.6632(3)
C16 C 0.3496(3) 0.1535(2) 0.7396(4)
H19 H 0.3180 0.1253 0.7065
H20 H 0.3248 0.1698 0.7754
C17 C 0.4311(3) 0.1358(2) 0.8136(4)
H21 H 0.4544 0.1173 0.7794
H22 H 0.4264 0.1155 0.8625
H23 H 0.4634 0.1636 0.8451
C18 C 0.3507(3) 0.2373(2) 0.6689(3)
C19 C 0.3491(3) 0.2670(2) 0.7508(4)
H24 H 0.3250 0.2481 0.7842
H25 H 0.3174 0.2960 0.7235
C20 C 0.4300(4) 0.2826(2) 0.8251(4)
H26 H 0.4625 0.2541 0.8497
H27 H 0.4266 0.2994 0.8788
H28 H 0.4523 0.3040 0.7938
C21 C 0.3512(3) 0.2576(2) 0.5825(4)
C22 C 0.3511(3) 0.3062(2) 0.5625(4)
H29 H 0.3491 0.3267 0.6104
C23 C 0.3535(3) 0.33027(19) 0.4836(4)
C24 C 0.3542(3) 0.38214(19) 0.4738(4)
C25 C 0.3541(4) 0.4193(2) 0.5470(4)
H30 H 0.3311 0.4495 0.5129
H31 H 0.3221 0.4074 0.5776
C26 C 0.4336(5) 0.4292(3) 0.6240(6)
H32 H 0.4530 0.4009 0.6654
H33 H 0.4323 0.4566 0.6631
H34 H 0.4672 0.4366 0.5937
C27 C 0.3554(3) 0.3913(2) 0.3850(4)
C28 C 0.3581(4) 0.4398(2) 0.3428(5)
H35 H 0.3404 0.4645 0.3746
H36 H 0.3220 0.4398 0.2732
C29 C 0.4384(5) 0.4541(2) 0.3543(6)
H37 H 0.4734 0.4575 0.4230
H38 H 0.4351 0.4846 0.3212
H39 H 0.4576 0.4291 0.3258
C30 C 0.3546(3) 0.3440(2) 0.3448(4)
C31 C 0.3526(3) 0.3366(2) 0.2498(4)
H40 H 0.3525 0.3643 0.2139
C32 C 0.3509(3) 0.2928(2) 0.2088(4)
C33 C 0.3529(3) 0.2822(2) 0.1151(3)
C34 C 0.3561(4) 0.3220(2) 0.0465(4)
H41 H 0.3345 0.3096 -0.0204
H42 H 0.3248 0.3497 0.0477
C35 C 0.4376(4) 0.3380(3) 0.0773(5)
H43 H 0.4592 0.3497 0.1440
H44 H 0.4385 0.3638 0.0347
H45 H 0.4680 0.3108 0.0733
C36 C 0.3527(3) 0.2336(2) 0.1053(3)
C37 C 0.3625(3) 0.20513(19) 0.0269(3)
H46 H 0.3451 0.2248 -0.0324
H47 H 0.3304 0.1759 0.0114
C38 C 0.4487(4) 0.1904(2) 0.0612(4)
H48 H 0.4804 0.2194 0.0754
H49 H 0.4536 0.1721 0.0099
H50 H 0.4658 0.1706 0.1195
C39 C 0.3469(3) 0.2114(2) 0.1894(3)
C40 C 0.3420(3) 0.16354(18) 0.2038(3)
H51 H 0.3397 0.1432 0.1532
H1? H 0.3451 0.1919 0.3787
H3? H 0.3542 0.2765 0.3923
loop_
_geom_bond_atom_site_label_1
_geom_bond_atom_site_label_2
_geom_bond_site_symmetry_1
_geom_bond_site_symmetry_2
N1 C1 1_555 1_555
N2 H2 1_555 1_555
N3 C23 1_555 1_555
N4 H4 1_555 1_555
N5 H5 1_555 1_555
H6 N5 1_555 1_555
O1 C5 1_555 1_555
C1 C2 1_555 1_555
C2 C3 1_555 1_555
C3 H7 1_555 1_555
H8 C3 1_555 1_555
C4 C3 1_555 1_555
H9 C4 1_555 1_555
H10 C4 1_555 1_555
H11 C4 1_555 1_555
C5 N5 1_555 1_555
C6 C2 1_555 1_555
C7 C6 1_555 1_555
C8 C7 1_555 1_555
H12 C8 1_555 1_555
H13 C8 1_555 1_555
C9 C8 1_555 1_555
H14 C9 1_555 1_555
H15 C9 1_555 1_555
H16 C9 1_555 1_555
C10 C7 1_555 1_555
H17 C10 1_555 1_555
C11 C10 1_555 1_555
H18 C11 1_555 1_555
C12 N1 1_555 1_555
C13 C11 1_555 1_555
C14 N2 1_555 1_555
C15 C14 1_555 1_555
C16 C15 1_555 1_555
H19 C16 1_555 1_555
H20 C16 1_555 1_555
C17 C16 1_555 1_555
H21 C17 1_555 1_555
H22 C17 1_555 1_555
H23 C17 1_555 1_555
C18 C15 1_555 1_555
C19 C18 1_555 1_555
H24 C19 1_555 1_555
H25 C19 1_555 1_555
C20 C19 1_555 1_555
H26 C20 1_555 1_555
H27 C20 1_555 1_555
H28 C20 1_555 1_555
C21 N2 1_555 1_555
C22 C21 1_555 1_555
H29 C22 1_555 1_555
C23 C22 1_555 1_555
C24 C23 1_555 1_555
C25 C24 1_555 1_555
H30 C25 1_555 1_555
H31 C25 1_555 1_555
C26 C25 1_555 1_555
H32 C26 1_555 1_555
H33 C26 1_555 1_555
H34 C26 1_555 1_555
C27 C24 1_555 1_555
C28 C27 1_555 1_555
H35 C28 1_555 1_555
H36 C28 1_555 1_555
C29 C28 1_555 1_555
H37 C29 1_555 1_555
H38 C29 1_555 1_555
H39 C29 1_555 1_555
C30 N3 1_555 1_555
C31 C30 1_555 1_555
H40 C31 1_555 1_555
C32 N4 1_555 1_555
C33 C32 1_555 1_555
C34 C33 1_555 1_555
H41 C34 1_555 1_555
H42 C34 1_555 1_555
C35 C34 1_555 1_555
H43 C35 1_555 1_555
H44 C35 1_555 1_555
H45 C35 1_555 1_555
C36 C33 1_555 1_555
C37 C36 1_555 1_555
H46 C37 1_555 1_555
H47 C37 1_555 1_555
C38 C37 1_555 1_555
H48 C38 1_555 1_555
H49 C38 1_555 1_555
H50 C38 1_555 1_555
C39 N4 1_555 1_555
C40 C1 1_555 1_555
H51 C40 1_555 1_555
C2 C5 1_555 1_555
C6 C12 1_555 1_555
C12 C13 1_555 1_555
C13 C14 1_555 1_555
C18 C21 1_555 1_555
C27 C30 1_555 1_555
C31 C32 1_555 1_555
C36 C39 1_555 1_555
C39 C40 1_555 1_555

#END
