
#######################################################################
#
#                 Cambridge Crystallographic Data Centre
#                                CCDC 
#
#######################################################################
#
# If this CIF has been generated from an entry in the Cambridge 
# Structural Database, then it will include bibliographic, chemical, 
# crystal, experimental, refinement or atomic coordinate data resulting 
# from the CCDC's data processing and validation procedures.
#
#######################################################################

data_XIYFET
_chemical_formula_moiety         'C21 H23 B1 F2 N2 S1'
_chemical_name_systematic        
5,5-difluoro-3-(propylsulfanyl)-10-(2,4,6-trimethylphenyl)-5H-dipyrrolo[1,2-c:2',1'-f][1,3,2]diazaborinine
_symmetry_cell_setting           monoclinic
_symmetry_space_group_name_H-M   'P 21/c'
_symmetry_Int_Tables_number      14
_space_group_name_Hall           '-P 2ybc'
loop_
_symmetry_equiv_pos_site_id
_symmetry_equiv_pos_as_xyz
1 x,y,z
2 -x,1/2+y,1/2-z
3 -x,-y,-z
4 x,1/2-y,1/2+z
_cell_length_a                   8.4332(3)
_cell_length_b                   21.5270(9)
_cell_length_c                   11.4689(4)
_cell_angle_alpha                90
_cell_angle_beta                 103.202(2)
_cell_angle_gamma                90
_cell_volume                     2027.05
_exptl_crystal_colour            colorless
_exptl_crystal_description       block
_cell_formula_units_Z            4
loop_
_atom_site_label
_atom_site_type_symbol
_atom_site_fract_x
_atom_site_fract_y
_atom_site_fract_z
S1 S 0.29351(8) 0.52055(3) 0.03221(5)
N1 N 0.23078(17) 0.63040(6) 0.12069(12)
N2 N 0.38511(16) 0.68802(7) 0.29787(12)
C1 C 0.1818(2) 0.58799(8) 0.03367(16)
C2 C 0.0344(2) 0.60792(9) -0.04324(16)
H1 H -0.024059 0.587099 -0.110463
C3 C -0.0054(2) 0.66332(8) -0.00021(16)
H2 H -0.096952 0.687054 -0.032752
C4 C 0.11625(19) 0.67847(7) 0.10223(14)
C5 C 0.13419(19) 0.72996(7) 0.17621(14)
C6 C 0.27040(19) 0.73513(8) 0.27278(14)
C7 C 0.3167(2) 0.78224(9) 0.35866(16)
H3 H 0.261920 0.819372 0.362864
C8 C 0.4590(2) 0.76293(10) 0.43565(17)
H4 H 0.518371 0.784719 0.501254
C9 C 0.4965(2) 0.70501(10) 0.39673(16)
H5 H 0.586005 0.681211 0.433620
C10 C 0.2016(3) 0.48612(9) -0.11044(19)
H6 H 0.233652 0.442801 -0.108966
H7 H 0.084189 0.487422 -0.121286
C11 C 0.2458(3) 0.51677(11) -0.2154(2)
H8 H 0.363397 0.519182 -0.202226
H9 H 0.203086 0.558786 -0.223369
C12 C 0.1778(5) 0.48104(14) -0.3304(2)
H10 H 0.203989 0.502624 -0.396767
H11 H 0.061668 0.477707 -0.342462
H12 H 0.224857 0.440226 -0.324388
C13 C 0.00614(19) 0.77905(7) 0.15929(14)
C14 C 0.0257(2) 0.83493(8) 0.10314(15)
C15 C -0.0940(2) 0.88045(8) 0.09528(17)
H13 H -0.081961 0.917841 0.057613
C16 C -0.2302(2) 0.87181(9) 0.14166(18)
C17 C -0.2472(2) 0.81566(10) 0.19527(17)
H14 H -0.339184 0.808987 0.225493
C18 C -0.1317(2) 0.76861(8) 0.20576(15)
C19 C 0.1722(3) 0.84669(10) 0.0515(2)
H15 H 0.265331 0.855021 0.115310
H16 H 0.151507 0.881809 -0.001355
H17 H 0.192981 0.810734 0.007811
C20 C -0.3568(3) 0.92246(13) 0.1330(3)
H18 H -0.421166 0.914853 0.190655
H19 H -0.426117 0.922680 0.053972
H20 H -0.303553 0.961982 0.149010
C21 C -0.1537(3) 0.70883(11) 0.2677(2)
H21 H -0.178717 0.676056 0.209599
H22 H -0.241329 0.713246 0.307721
H23 H -0.055082 0.698975 0.325228
B1 B 0.3818(3) 0.62703(10) 0.2276(2)
F1 F 0.5236(9) 0.6160(8) 0.1980(18)
F2 F 0.348(3) 0.5810(5) 0.3051(11)
F3? F 0.5154(10) 0.6282(5) 0.1692(10)
F4? F 0.3907(16) 0.5732(5) 0.2902(14)
loop_
_geom_bond_atom_site_label_1
_geom_bond_atom_site_label_2
_geom_bond_site_symmetry_1
_geom_bond_site_symmetry_2
S1 C1 1_555 1_555
N1 C1 1_555 1_555
N2 C6 1_555 1_555
C1 C2 1_555 1_555
C2 H1 1_555 1_555
C3 C2 1_555 1_555
H2 C3 1_555 1_555
C4 N1 1_555 1_555
C5 C4 1_555 1_555
C6 C5 1_555 1_555
C7 C6 1_555 1_555
H3 C7 1_555 1_555
C8 C7 1_555 1_555
H4 C8 1_555 1_555
C9 N2 1_555 1_555
H5 C9 1_555 1_555
C10 S1 1_555 1_555
H6 C10 1_555 1_555
H7 C10 1_555 1_555
C11 C10 1_555 1_555
H8 C11 1_555 1_555
H9 C11 1_555 1_555
C12 C11 1_555 1_555
H10 C12 1_555 1_555
H11 C12 1_555 1_555
H12 C12 1_555 1_555
C13 C5 1_555 1_555
C14 C13 1_555 1_555
C15 C14 1_555 1_555
H13 C15 1_555 1_555
C16 C15 1_555 1_555
C17 C16 1_555 1_555
H14 C17 1_555 1_555
C18 C13 1_555 1_555
C19 C14 1_555 1_555
H15 C19 1_555 1_555
H16 C19 1_555 1_555
H17 C19 1_555 1_555
C20 C16 1_555 1_555
H18 C20 1_555 1_555
H19 C20 1_555 1_555
H20 C20 1_555 1_555
C21 C18 1_555 1_555
H21 C21 1_555 1_555
H22 C21 1_555 1_555
H23 C21 1_555 1_555
B1 N1 1_555 1_555
F1 B1 1_555 1_555
F2 B1 1_555 1_555
N2 B1 1_555 1_555
C3 C4 1_555 1_555
C8 C9 1_555 1_555
C17 C18 1_555 1_555

#END
