
#######################################################################
#
#                 Cambridge Crystallographic Data Centre
#                                CCDC 
#
#######################################################################
#
# If this CIF has been generated from an entry in the Cambridge 
# Structural Database, then it will include bibliographic, chemical, 
# crystal, experimental, refinement or atomic coordinate data resulting 
# from the CCDC's data processing and validation procedures.
#
#######################################################################

data_XIYVAF
_chemical_formula_moiety         'C94 H78 Cl4 N4 O6 S4'
_chemical_name_systematic        
2,2'-({6,6,12,12-tetrakis[3-(hexyloxy)phenyl]-6,12-dihydrothieno[3,2-b]thieno[2'',3'':4',5']thieno[2',3':5,6]-s-indaceno[2,1-d]thiene-2,8-diyl}bis[methylylidene(5,6-dichloro-3-oxo-1H-indene-2,1(3H)-diylidene)])dipropanedinitrile
_symmetry_cell_setting           triclinic
_symmetry_space_group_name_H-M   'P -1'
_symmetry_Int_Tables_number      2
_space_group_name_Hall           '-P 1'
loop_
_symmetry_equiv_pos_site_id
_symmetry_equiv_pos_as_xyz
1 x,y,z
2 -x,-y,-z
_cell_length_a                   8.6222(8)
_cell_length_b                   14.4811(14)
_cell_length_c                   16.4786(15)
_cell_angle_alpha                80.322(7)
_cell_angle_beta                 75.391(6)
_cell_angle_gamma                85.563(7)
_cell_volume                     1961.33
_cell_formula_units_Z            1
loop_
_atom_site_label
_atom_site_type_symbol
_atom_site_fract_x
_atom_site_fract_y
_atom_site_fract_z
Cl1 Cl 1.2060(3) 0.16353(19) 0.34374(16)
Cl2 Cl 1.3341(3) 0.33045(18) 0.20051(15)
S1 S 0.2016(3) 0.66614(18) 0.76108(14)
S2 S 0.5201(3) 0.45624(18) 0.66181(14)
O1 O 0.4098(8) 0.1395(4) 0.7233(4)
O2 O 0.5101(8) 0.1904(5) 1.0690(4)
O3 O 0.7304(7) 0.3634(4) 0.5527(4)
N1 N 0.8373(10) 0.7837(7) 0.4195(5)
N2 N 1.2304(10) 0.6719(6) 0.2427(5)
C1 C 0.1773(11) 0.5649(6) 0.8358(5)
C2 C 0.0765(10) 0.5414(7) 0.9197(5)
C3 C 0.1157(10) 0.4473(7) 0.9493(6)
C4 C 0.2520(9) 0.4067(6) 0.8824(5)
C5 C 0.2747(10) 0.4912(7) 0.8110(6)
C6 C 0.3733(9) 0.5134(7) 0.7277(6)
C7 C 0.3490(9) 0.6069(7) 0.6937(6)
C8 C 0.4537(10) 0.6311(7) 0.6143(6)
H1 H 0.4552(10) 0.6924(7) 0.5826(6)
C9 C 0.5550(11) 0.5585(6) 0.5856(6)
C10 C 0.6708(10) 0.5779(7) 0.5072(5)
C11 C 0.7905(10) 0.5178(7) 0.4688(5)
C12 C 0.8104(10) 0.4151(8) 0.4910(6)
C13 C 0.9450(10) 0.3800(8) 0.4257(6)
C14 C 1.0010(10) 0.2901(7) 0.4211(5)
H2 H 0.9552(10) 0.2394(7) 0.4626(5)
C15 C 1.1313(11) 0.2755(7) 0.3512(6)
C16 C 1.1870(10) 0.3516(8) 0.2903(6)
C17 C 1.1320(11) 0.4437(7) 0.2947(6)
H3 H 1.1759(11) 0.4943(7) 0.2525(6)
C18 C 1.0045(11) 0.4576(7) 0.3673(5)
C19 C 0.9217(10) 0.5448(7) 0.3910(5)
C20 C 0.9653(11) 0.6322(7) 0.3606(5)
C21 C 0.8915(12) 0.7165(8) 0.3921(6)
C22 C 1.1157(12) 0.6533(7) 0.2934(6)
C23 C 0.0413(10) 0.4057(7) 1.0298(6)
H4 H 0.0689(10) 0.3430(7) 1.0507(6)
C24 C 0.2096(11) 0.3212(6) 0.8523(5)
C25 C 0.0534(10) 0.2914(7) 0.8703(5)
H5 H -0.0317(10) 0.3260(7) 0.9022(5)
C26 C 0.0208(11) 0.2122(8) 0.8424(6)
H6 H -0.0857(11) 0.1910(8) 0.8574(6)
C27 C 0.1420(13) 0.1635(7) 0.7928(6)
H7 H 0.1191(13) 0.1098(7) 0.7724(6)
C28 C 0.2990(12) 0.1941(7) 0.7731(6)
C29 C 0.3301(10) 0.2713(7) 0.8032(5)
H8 H 0.4373(10) 0.2912(7) 0.7901(5)
C30 C 0.5756(11) 0.1636(7) 0.7053(6)
H9 H 0.5889(11) 0.2303(7) 0.6798(6)
H10 H 0.6140(11) 0.1527(7) 0.7580(6)
C31 C 0.6679(11) 0.1007(7) 0.6438(6)
H11 H 0.7840(11) 0.1051(7) 0.6387(6)
H12 H 0.6389(11) 0.0350(7) 0.6668(6)
C32 C 0.6358(11) 0.1254(7) 0.5571(6)
H13 H 0.5201(11) 0.1192(7) 0.5623(6)
H14 H 0.6613(11) 0.1918(7) 0.5352(6)
C33 C 0.7315(12) 0.0649(7) 0.4930(6)
H15 H 0.8470(12) 0.0676(7) 0.4905(6)
H16 H 0.7004(12) -0.0010(7) 0.5127(6)
C34 C 0.7050(14) 0.0960(8) 0.4024(7)
H17 H 0.5888(14) 0.0964(8) 0.4056(7)
H18 H 0.7409(14) 0.1610(8) 0.3818(7)
C35 C 0.7906(15) 0.0355(8) 0.3407(7)
H19 H 0.758(7) 0.054(4) 0.2872(17)
H20 H 0.9065(15) 0.042(4) 0.331(4)
H21 H 0.764(8) -0.0299(10) 0.363(2)
C36 C 0.3967(10) 0.3834(7) 0.9233(6)
C37 C 0.5216(11) 0.4441(7) 0.9079(5)
H22 H 0.5231(11) 0.5010(7) 0.8695(5)
C38 C 0.6429(11) 0.4208(8) 0.9488(6)
H23 H 0.7261(11) 0.4636(8) 0.9396(6)
C39 C 0.6481(10) 0.3362(9) 1.0037(6)
H24 H 0.7333(10) 0.3204(9) 1.0311(6)
C40 C 0.5250(12) 0.2774(8) 1.0160(6)
C41 C 0.4037(10) 0.2984(7) 0.9751(6)
H25 H 0.3238(10) 0.2540(7) 0.9823(6)
C42 C 0.6351(14) 0.1514(9) 1.1094(8)
H26 H 0.7369(14) 0.1831(9) 1.0816(8)
H27 H 0.6057(14) 0.1590(9) 1.1701(8)
C43 C 0.6535(14) 0.0469(9) 1.1005(8)
H28 H 0.7184(14) 0.0128(9) 1.1385(8)
H29 H 0.5470(14) 0.0187(9) 1.1157(8)
C44 C 0.7398(18) 0.0404(12) 1.0049(9)
H30 H 0.6684(18) 0.0718(12) 0.9693(9)
H31 H 0.8381(18) 0.0770(12) 0.9898(9)
C45 C 0.7841(15) -0.0492(9) 0.9818(8)
H32 H 0.8605(15) -0.0802(9) 1.0146(8)
H33 H 0.6874(15) -0.0873(9) 0.9980(8)
C46 C 0.8609(16) -0.0485(9) 0.8870(9)
H34 H 0.7808(16) -0.0238(9) 0.8542(9)
H35 H 0.9515(16) -0.0056(9) 0.8692(9)
C47 C 0.9190(15) -0.1406(9) 0.8668(8)
H36 H 0.967(10) -0.1360(14) 0.8058(12)
H37 H 1.000(8) -0.165(3) 0.898(5)
H38 H 0.829(2) -0.183(2) 0.883(6)
Cl1A Cl -1.2060(3) 0.83647(19) 1.65626(16)
Cl2A Cl -1.3341(3) 0.66955(18) 1.79949(15)
S1A S -0.2016(3) 0.33386(18) 1.23892(14)
S2A S -0.5201(3) 0.54376(18) 1.33819(14)
O1A O -0.4098(8) 0.8605(4) 1.2767(4)
O2A O -0.5101(8) 0.8096(5) 0.9310(4)
O3A O -0.7304(7) 0.6366(4) 1.4473(4)
N1A N -0.8373(10) 0.2163(7) 1.5805(5)
N2A N -1.2304(10) 0.3281(6) 1.7573(5)
C1A C -0.1773(11) 0.4351(6) 1.1642(5)
C2A C -0.0765(10) 0.4586(7) 1.0803(5)
C3A C -0.1157(10) 0.5527(7) 1.0507(6)
C4A C -0.2520(9) 0.5933(6) 1.1176(5)
C5A C -0.2747(10) 0.5088(7) 1.1890(6)
C6A C -0.3733(9) 0.4866(7) 1.2723(6)
C7A C -0.3490(9) 0.3931(7) 1.3063(6)
C8A C -0.4537(10) 0.3689(7) 1.3857(6)
H1A H -0.4552(10) 0.3076(7) 1.4174(6)
C9A C -0.5550(11) 0.4415(6) 1.4144(6)
C10A C -0.6708(10) 0.4221(7) 1.4928(5)
C11A C -0.7905(10) 0.4822(7) 1.5312(5)
C12A C -0.8104(10) 0.5849(8) 1.5090(6)
C13A C -0.9450(10) 0.6200(8) 1.5743(6)
C14A C -1.0010(10) 0.7099(7) 1.5789(5)
H2A H -0.9552(10) 0.7606(7) 1.5374(5)
C15A C -1.1313(11) 0.7245(7) 1.6488(6)
C16A C -1.1870(10) 0.6484(8) 1.7097(6)
C17A C -1.1320(11) 0.5563(7) 1.7053(6)
H3A H -1.1759(11) 0.5057(7) 1.7475(6)
C18A C -1.0045(11) 0.5424(7) 1.6327(5)
C19A C -0.9217(10) 0.4552(7) 1.6090(5)
C20A C -0.9653(11) 0.3678(7) 1.6394(5)
C21A C -0.8915(12) 0.2835(8) 1.6079(6)
C22A C -1.1157(12) 0.3467(7) 1.7066(6)
C23A C -0.0413(10) 0.5943(7) 0.9702(6)
H4A H -0.0689(10) 0.6570(7) 0.9493(6)
C24A C -0.2096(11) 0.6788(6) 1.1477(5)
C25A C -0.0534(10) 0.7086(7) 1.1297(5)
H5A H 0.0317(10) 0.6740(7) 1.0978(5)
C26A C -0.0208(11) 0.7878(8) 1.1576(6)
H6A H 0.0857(11) 0.8090(8) 1.1426(6)
C27A C -0.1420(13) 0.8365(7) 1.2072(6)
H7A H -0.1191(13) 0.8902(7) 1.2276(6)
C28A C -0.2990(12) 0.8059(7) 1.2269(6)
C29A C -0.3301(10) 0.7287(7) 1.1968(5)
H8A H -0.4373(10) 0.7088(7) 1.2099(5)
C30A C -0.5756(11) 0.8364(7) 1.2947(6)
H9A H -0.5889(11) 0.7697(7) 1.3202(6)
H10A H -0.6140(11) 0.8473(7) 1.2420(6)
C31A C -0.6679(11) 0.8993(7) 1.3562(6)
H11A H -0.7840(11) 0.8949(7) 1.3613(6)
H12A H -0.6389(11) 0.9650(7) 1.3332(6)
C32A C -0.6358(11) 0.8746(7) 1.4429(6)
H13A H -0.5201(11) 0.8808(7) 1.4377(6)
H14A H -0.6613(11) 0.8082(7) 1.4648(6)
C33A C -0.7315(12) 0.9351(7) 1.5070(6)
H15A H -0.8470(12) 0.9324(7) 1.5095(6)
H16A H -0.7004(12) 1.0010(7) 1.4873(6)
C34A C -0.7050(14) 0.9040(8) 1.5976(7)
H17A H -0.5888(14) 0.9036(8) 1.5944(7)
H18A H -0.7409(14) 0.8390(8) 1.6182(7)
C35A C -0.7906(15) 0.9645(8) 1.6593(7)
H19A H -0.758(7) 0.946(4) 1.7128(17)
H20A H -0.9065(15) 0.958(4) 1.669(4)
H21A H -0.764(8) 1.0299(10) 1.637(2)
C36A C -0.3967(10) 0.6166(7) 1.0767(6)
C37A C -0.5216(11) 0.5559(7) 1.0921(5)
H22A H -0.5231(11) 0.4990(7) 1.1305(5)
C38A C -0.6429(11) 0.5792(8) 1.0512(6)
H23A H -0.7261(11) 0.5364(8) 1.0604(6)
C39A C -0.6481(10) 0.6638(9) 0.9963(6)
H24A H -0.7333(10) 0.6796(9) 0.9689(6)
C40A C -0.5250(12) 0.7226(8) 0.9840(6)
C41A C -0.4037(10) 0.7016(7) 1.0249(6)
H25A H -0.3238(10) 0.7460(7) 1.0177(6)
C42A C -0.6351(14) 0.8486(9) 0.8906(8)
H26A H -0.7369(14) 0.8169(9) 0.9184(8)
H27A H -0.6057(14) 0.8410(9) 0.8299(8)
C43A C -0.6535(14) 0.9531(9) 0.8995(8)
H28A H -0.7184(14) 0.9872(9) 0.8615(8)
H29A H -0.5470(14) 0.9813(9) 0.8843(8)
C44A C -0.7398(18) 0.9596(12) 0.9951(9)
H30A H -0.6684(18) 0.9282(12) 1.0307(9)
H31A H -0.8381(18) 0.9230(12) 1.0102(9)
C45A C -0.7841(15) 1.0492(9) 1.0182(8)
H32A H -0.8605(15) 1.0802(9) 0.9854(8)
H33A H -0.6874(15) 1.0873(9) 1.0020(8)
C46A C -0.8609(16) 1.0485(9) 1.1130(9)
H34A H -0.7808(16) 1.0238(9) 1.1458(9)
H35A H -0.9515(16) 1.0056(9) 1.1308(9)
C47A C -0.9190(15) 1.1406(9) 1.1332(8)
H36A H -0.967(10) 1.1360(14) 1.1942(12)
H37A H -1.000(8) 1.165(3) 1.102(5)
H38A H -0.829(2) 1.183(2) 1.117(6)
loop_
_geom_bond_atom_site_label_1
_geom_bond_atom_site_label_2
_geom_bond_site_symmetry_1
_geom_bond_site_symmetry_2
Cl1 C15 1_555 1_555
Cl2 C16 1_555 1_555
S1 C1 1_555 1_555
S2 C6 1_555 1_555
O1 C28 1_555 1_555
O2 C40 1_555 1_555
O3 C12 1_555 1_555
N1 C21 1_555 1_555
N2 C22 1_555 1_555
C1 C2 1_555 1_555
C2 C3 1_555 1_555
C3 C4 1_555 1_555
C4 C5 1_555 1_555
C5 C1 1_555 1_555
C6 C5 1_555 1_555
C7 S1 1_555 1_555
C8 C7 1_555 1_555
H1 C8 1_555 1_555
C9 S2 1_555 1_555
C10 C9 1_555 1_555
C11 C10 1_555 1_555
C12 C11 1_555 1_555
C13 C12 1_555 1_555
C14 C13 1_555 1_555
H2 C14 1_555 1_555
C15 C14 1_555 1_555
C16 C15 1_555 1_555
C17 C16 1_555 1_555
H3 C17 1_555 1_555
C18 C13 1_555 1_555
C19 C11 1_555 1_555
C20 C19 1_555 1_555
C21 C20 1_555 1_555
C22 C20 1_555 1_555
C23 C3 1_555 1_555
H4 C23 1_555 1_555
C24 C4 1_555 1_555
C25 C24 1_555 1_555
H5 C25 1_555 1_555
C26 C25 1_555 1_555
H6 C26 1_555 1_555
C27 C26 1_555 1_555
H7 C27 1_555 1_555
C28 C27 1_555 1_555
C29 C24 1_555 1_555
H8 C29 1_555 1_555
C30 O1 1_555 1_555
H9 C30 1_555 1_555
H10 C30 1_555 1_555
C31 C30 1_555 1_555
H11 C31 1_555 1_555
H12 C31 1_555 1_555
C32 C31 1_555 1_555
H13 C32 1_555 1_555
H14 C32 1_555 1_555
C33 C32 1_555 1_555
H15 C33 1_555 1_555
H16 C33 1_555 1_555
C34 C33 1_555 1_555
H17 C34 1_555 1_555
H18 C34 1_555 1_555
C35 C34 1_555 1_555
H19 C35 1_555 1_555
H20 C35 1_555 1_555
H21 C35 1_555 1_555
C36 C4 1_555 1_555
C37 C36 1_555 1_555
H22 C37 1_555 1_555
C38 C37 1_555 1_555
H23 C38 1_555 1_555
C39 C38 1_555 1_555
H24 C39 1_555 1_555
C40 C39 1_555 1_555
C41 C36 1_555 1_555
H25 C41 1_555 1_555
C42 O2 1_555 1_555
H26 C42 1_555 1_555
H27 C42 1_555 1_555
C43 C42 1_555 1_555
H28 C43 1_555 1_555
H29 C43 1_555 1_555
C44 C43 1_555 1_555
H30 C44 1_555 1_555
H31 C44 1_555 1_555
C45 C44 1_555 1_555
H32 C45 1_555 1_555
H33 C45 1_555 1_555
C46 C45 1_555 1_555
H34 C46 1_555 1_555
H35 C46 1_555 1_555
C47 C46 1_555 1_555
H36 C47 1_555 1_555
H37 C47 1_555 1_555
H38 C47 1_555 1_555
Cl1A C15A 1_555 1_555
Cl2A C16A 1_555 1_555
S1A C1A 1_555 1_555
S2A C6A 1_555 1_555
O1A C28A 1_555 1_555
O2A C40A 1_555 1_555
O3A C12A 1_555 1_555
N1A C21A 1_555 1_555
N2A C22A 1_555 1_555
C1A C2A 1_555 1_555
C2A C23 1_555 1_555
C3A C2A 1_555 1_555
C4A C3A 1_555 1_555
C5A C1A 1_555 1_555
C6A C5A 1_555 1_555
C7A S1A 1_555 1_555
C8A C7A 1_555 1_555
H1A C8A 1_555 1_555
C9A S2A 1_555 1_555
C10A C9A 1_555 1_555
C11A C10A 1_555 1_555
C12A C11A 1_555 1_555
C13A C12A 1_555 1_555
C14A C13A 1_555 1_555
H2A C14A 1_555 1_555
C15A C14A 1_555 1_555
C16A C15A 1_555 1_555
C17A C16A 1_555 1_555
H3A C17A 1_555 1_555
C18A C13A 1_555 1_555
C19A C11A 1_555 1_555
C20A C19A 1_555 1_555
C21A C20A 1_555 1_555
C22A C20A 1_555 1_555
C23A C2 1_555 1_555
H4A C23A 1_555 1_555
C24A C4A 1_555 1_555
C25A C24A 1_555 1_555
H5A C25A 1_555 1_555
C26A C25A 1_555 1_555
H6A C26A 1_555 1_555
C27A C26A 1_555 1_555
H7A C27A 1_555 1_555
C28A C27A 1_555 1_555
C29A C24A 1_555 1_555
H8A C29A 1_555 1_555
C30A O1A 1_555 1_555
H9A C30A 1_555 1_555
H10A C30A 1_555 1_555
C31A C30A 1_555 1_555
H11A C31A 1_555 1_555
H12A C31A 1_555 1_555
C32A C31A 1_555 1_555
H13A C32A 1_555 1_555
H14A C32A 1_555 1_555
C33A C32A 1_555 1_555
H15A C33A 1_555 1_555
H16A C33A 1_555 1_555
C34A C33A 1_555 1_555
H17A C34A 1_555 1_555
H18A C34A 1_555 1_555
C35A C34A 1_555 1_555
H19A C35A 1_555 1_555
H20A C35A 1_555 1_555
H21A C35A 1_555 1_555
C36A C4A 1_555 1_555
C37A C36A 1_555 1_555
H22A C37A 1_555 1_555
C38A C37A 1_555 1_555
H23A C38A 1_555 1_555
C39A C38A 1_555 1_555
H24A C39A 1_555 1_555
C40A C39A 1_555 1_555
C41A C36A 1_555 1_555
H25A C41A 1_555 1_555
C42A O2A 1_555 1_555
H26A C42A 1_555 1_555
H27A C42A 1_555 1_555
C43A C42A 1_555 1_555
H28A C43A 1_555 1_555
H29A C43A 1_555 1_555
C44A C43A 1_555 1_555
H30A C44A 1_555 1_555
H31A C44A 1_555 1_555
C45A C44A 1_555 1_555
H32A C45A 1_555 1_555
H33A C45A 1_555 1_555
C46A C45A 1_555 1_555
H34A C46A 1_555 1_555
H35A C46A 1_555 1_555
C47A C46A 1_555 1_555
H36A C47A 1_555 1_555
H37A C47A 1_555 1_555
H38A C47A 1_555 1_555
C6 C7 1_555 1_555
C8 C9 1_555 1_555
C17 C18 1_555 1_555
C18 C19 1_555 1_555
C28 C29 1_555 1_555
C40 C41 1_555 1_555
C3A C23A 1_555 1_555
C4A C5A 1_555 1_555
C6A C7A 1_555 1_555
C8A C9A 1_555 1_555
C17A C18A 1_555 1_555
C18A C19A 1_555 1_555
C28A C29A 1_555 1_555
C40A C41A 1_555 1_555

#END
