
#######################################################################
#
#                 Cambridge Crystallographic Data Centre
#                                CCDC 
#
#######################################################################
#
# If this CIF has been generated from an entry in the Cambridge 
# Structural Database, then it will include bibliographic, chemical, 
# crystal, experimental, refinement or atomic coordinate data resulting 
# from the CCDC's data processing and validation procedures.
#
#######################################################################

data_XIYXEI
_chemical_formula_moiety         'C29 H30 N1 O2 P1'
_chemical_name_systematic        
(aR)-(+)-2-(Diphenylphosphino)-8-hydroxy-(N,N-di-isopropyl)-naphthamide
_symmetry_cell_setting           monoclinic
_symmetry_space_group_name_H-M   'P 21'
_symmetry_Int_Tables_number      4
_space_group_name_Hall           'P 2yb'
loop_
_symmetry_equiv_pos_site_id
_symmetry_equiv_pos_as_xyz
1 x,y,z
2 -x,1/2+y,-z
_cell_length_a                   14.0092(8)
_cell_length_b                   11.9178(7)
_cell_length_c                   16.5822(10)
_cell_angle_alpha                90
_cell_angle_beta                 114.9210(10)
_cell_angle_gamma                90
_cell_volume                     2510.76
_exptl_crystal_colour            colorless
_exptl_crystal_description       block
_cell_formula_units_Z            4
loop_
_atom_site_label
_atom_site_type_symbol
_atom_site_fract_x
_atom_site_fract_y
_atom_site_fract_z
P1 P 0.55871(4) 0.50697(5) 0.24885(3)
O1 O 0.42209(11) 0.41959(14) 0.35396(10)
O2 O 0.34252(13) 0.17571(17) 0.32023(12)
H1 H 0.2979 0.1496 0.3348
N1 N 0.55105(13) 0.28975(17) 0.39243(12)
C1 C 0.43359(15) 0.3203(2) 0.23494(14)
C2 C 0.47091(16) 0.3909(2) 0.18826(14)
C3 C 0.4340(2) 0.3775(3) 0.09490(16)
H2 H 0.4587 0.4254 0.0636
C4 C 0.3645(2) 0.2974(3) 0.05090(16)
H3 H 0.3434 0.2894 -0.0100
C5 C 0.32212(19) 0.2241(2) 0.09545(17)
C6 C 0.2445(2) 0.1444(3) 0.0486(2)
H4 H 0.2227 0.1359 -0.0123
C7 C 0.2013(2) 0.0801(3) 0.0918(2)
H5 H 0.1492 0.0288 0.0595
C8 C 0.23267(19) 0.0887(2) 0.1830(2)
H6 H 0.2017 0.0435 0.2110
C9 C 0.31011(17) 0.1646(2) 0.23188(18)
C10 C 0.35691(16) 0.2351(2) 0.18908(15)
C11 C 0.46821(14) 0.34407(18) 0.33324(13)
C12 C 0.60074(18) 0.1944(2) 0.36751(17)
H7 H 0.5622 0.1837 0.3032
C13 C 0.7134(2) 0.2209(4) 0.3859(2)
H8 H 0.7158 0.2896 0.3566
H9 H 0.7418 0.1611 0.3640
H10 H 0.7542 0.2289 0.4488
C14 C 0.5915(3) 0.0861(3) 0.4119(3)
H11 H 0.5189 0.0721 0.3984
H12 H 0.6309 0.0926 0.4751
H13 H 0.6189 0.0251 0.3902
C15 C 0.59352(19) 0.3203(3) 0.48801(16)
H14 H 0.6543 0.2714 0.5192
C16 C 0.6340(3) 0.4391(3) 0.50499(19)
H15 H 0.6839 0.4501 0.4799
H16 H 0.6677 0.4525 0.5679
H17 H 0.5764 0.4903 0.4779
C17 C 0.5149(3) 0.2956(4) 0.5269(2)
H18 H 0.4918 0.2191 0.5146
H19 H 0.4554 0.3448 0.5005
H20 H 0.5478 0.3074 0.5900
C18 C 0.47637(18) 0.6271(2) 0.19025(16)
C19 C 0.4646(2) 0.6662(3) 0.10800(18)
H21 H 0.5008 0.6315 0.0791
C20 C 0.3989(3) 0.7570(3) 0.0680(2)
H22 H 0.3916 0.7830 0.0129
C21 C 0.3454(3) 0.8074(3) 0.1103(3)
H23 H 0.3008 0.8674 0.0835
C22 C 0.3566(3) 0.7708(4) 0.1907(4)
H24 H 0.3205 0.8067 0.2192
C23 C 0.4211(3) 0.6803(3) 0.2317(2)
H25 H 0.4273 0.6554 0.2868
C24 C 0.66070(16) 0.5109(2) 0.20658(13)
C25 C 0.72412(19) 0.6052(2) 0.22710(16)
H26 H 0.7069 0.6665 0.2530
C26 C 0.8126(2) 0.6105(3) 0.21000(17)
H27 H 0.8540 0.6748 0.2245
C27 C 0.83925(19) 0.5208(2) 0.17163(17)
H28 H 0.8985 0.5241 0.1599
C28 C 0.7776(2) 0.4266(3) 0.15085(18)
H29 H 0.7953 0.3657 0.1248
C29 C 0.6889(2) 0.4209(2) 0.16813(17)
H30 H 0.6481 0.3561 0.1538
P2 P -0.06013(4) 0.05760(5) 0.28022(4)
O3 O 0.18361(11) 0.14405(14) 0.37016(10)
O4 O 0.22216(12) 0.38800(15) 0.32167(10)
H31 H 0.2840 0.3767 0.3322
N2 N 0.09757(13) 0.28309(17) 0.40606(11)
C30 C 0.04981(15) 0.23503(18) 0.24901(12)
C31 C -0.03199(16) 0.15961(19) 0.20925(13)
C32 C -0.09005(18) 0.1617(2) 0.11527(14)
H32 H -0.1445 0.1107 0.0880
C33 C -0.06672(19) 0.2377(2) 0.06475(14)
H33 H -0.1065 0.2382 0.0035
C34 C 0.01559(18) 0.3150(2) 0.10271(14)
C35 C 0.0407(2) 0.3913(3) 0.04955(16)
H34 H -0.0003 0.3936 -0.0115
C36 C 0.1249(2) 0.4619(3) 0.08709(18)
H35 H 0.1411 0.5112 0.0512
C37 C 0.1867(2) 0.4609(2) 0.17810(17)
H36 H 0.2441 0.5090 0.2025
C38 C 0.16362(16) 0.38926(19) 0.23253(14)
C39 C 0.07658(16) 0.31378(18) 0.19680(13)
C40 C 0.11777(15) 0.22061(18) 0.34827(13)
C41 C 0.02514(18) 0.3795(2) 0.37786(16)
H37 H 0.0004 0.3866 0.3133
C42 C -0.0708(2) 0.3585(3) 0.3957(2)
H38 H -0.1027 0.2886 0.3691
H39 H -0.1204 0.4184 0.3706
H40 H -0.0501 0.3553 0.4587
C43 C 0.0792(3) 0.4883(3) 0.4184(2)
H41 H 0.1394 0.4985 0.4056
H42 H 0.1015 0.4859 0.4817
H43 H 0.0311 0.5495 0.3938
C44 C 0.1525(2) 0.2591(3) 0.50284(14)
H44 H 0.1260 0.3131 0.5330
C45 C 0.1258(3) 0.1426(3) 0.52508(18)
H45 H 0.0507 0.1343 0.5014
H46 H 0.1556 0.1332 0.5885
H47 H 0.1541 0.0869 0.4994
C46 C 0.2711(2) 0.2770(3) 0.53923(17)
H48 H 0.2851 0.3514 0.5247
H49 H 0.3007 0.2231 0.5132
H50 H 0.3022 0.2678 0.6026
C47 C -0.20350(17) 0.0353(2) 0.22164(15)
C48 C -0.2454(2) -0.0661(3) 0.2321(3)
H51 H -0.2007 -0.1252 0.2610
C49 C -0.3538(3) -0.0801(3) 0.1997(3)
H52 H -0.3810 -0.1487 0.2068
C50 C -0.4204(2) 0.0058(3) 0.1577(2)
H53 H -0.4928 -0.0046 0.1353
C51 C -0.3806(2) 0.1067(3) 0.1485(2)
H54 H -0.4255 0.1661 0.1206
C52 C -0.2722(2) 0.1199(3) 0.1814(2)
H55 H -0.2456 0.1895 0.1757
C53 C -0.00734(18) -0.0730(2) 0.25602(16)
C54 C -0.0449(3) -0.1269(3) 0.1741(2)
H56 H -0.1018 -0.0963 0.1263
C55 C -0.0002(3) -0.2244(3) 0.1618(3)
H57 H -0.0249 -0.2580 0.1060
C56 C 0.0821(3) -0.2718(4) 0.2336(4)
H58 H 0.1136 -0.3375 0.2265
C57 C 0.1162(4) -0.2227(4) 0.3129(4)
H59 H 0.1699 -0.2563 0.3615
C58 C 0.0740(3) -0.1239(3) 0.3246(3)
H60 H 0.1012 -0.0906 0.3805
loop_
_geom_bond_atom_site_label_1
_geom_bond_atom_site_label_2
_geom_bond_site_symmetry_1
_geom_bond_site_symmetry_2
P1 C2 1_555 1_555
O1 C11 1_555 1_555
O2 H1 1_555 1_555
N1 C11 1_555 1_555
C1 C2 1_555 1_555
C2 C3 1_555 1_555
C3 H2 1_555 1_555
C4 C3 1_555 1_555
H3 C4 1_555 1_555
C5 C4 1_555 1_555
C6 C5 1_555 1_555
H4 C6 1_555 1_555
C7 C6 1_555 1_555
H5 C7 1_555 1_555
C8 C7 1_555 1_555
H6 C8 1_555 1_555
C9 O2 1_555 1_555
C10 C1 1_555 1_555
C11 C1 1_555 1_555
C12 N1 1_555 1_555
H7 C12 1_555 1_555
C13 C12 1_555 1_555
H8 C13 1_555 1_555
H9 C13 1_555 1_555
H10 C13 1_555 1_555
C14 C12 1_555 1_555
H11 C14 1_555 1_555
H12 C14 1_555 1_555
H13 C14 1_555 1_555
C15 N1 1_555 1_555
H14 C15 1_555 1_555
C16 C15 1_555 1_555
H15 C16 1_555 1_555
H16 C16 1_555 1_555
H17 C16 1_555 1_555
C17 C15 1_555 1_555
H18 C17 1_555 1_555
H19 C17 1_555 1_555
H20 C17 1_555 1_555
C18 P1 1_555 1_555
C19 C18 1_555 1_555
H21 C19 1_555 1_555
C20 C19 1_555 1_555
H22 C20 1_555 1_555
C21 C20 1_555 1_555
H23 C21 1_555 1_555
C22 C21 1_555 1_555
H24 C22 1_555 1_555
C23 C18 1_555 1_555
H25 C23 1_555 1_555
C24 P1 1_555 1_555
C25 C24 1_555 1_555
H26 C25 1_555 1_555
C26 C25 1_555 1_555
H27 C26 1_555 1_555
C27 C26 1_555 1_555
H28 C27 1_555 1_555
C28 C27 1_555 1_555
H29 C28 1_555 1_555
C29 C24 1_555 1_555
H30 C29 1_555 1_555
P2 C31 1_555 1_555
O3 C40 1_555 1_555
O4 H31 1_555 1_555
N2 C40 1_555 1_555
C30 C31 1_555 1_555
C31 C32 1_555 1_555
C32 H32 1_555 1_555
C33 C32 1_555 1_555
H33 C33 1_555 1_555
C34 C33 1_555 1_555
C35 C34 1_555 1_555
H34 C35 1_555 1_555
C36 C35 1_555 1_555
H35 C36 1_555 1_555
C37 C36 1_555 1_555
H36 C37 1_555 1_555
C38 O4 1_555 1_555
C39 C30 1_555 1_555
C40 C30 1_555 1_555
C41 N2 1_555 1_555
H37 C41 1_555 1_555
C42 C41 1_555 1_555
H38 C42 1_555 1_555
H39 C42 1_555 1_555
H40 C42 1_555 1_555
C43 C41 1_555 1_555
H41 C43 1_555 1_555
H42 C43 1_555 1_555
H43 C43 1_555 1_555
C44 N2 1_555 1_555
H44 C44 1_555 1_555
C45 C44 1_555 1_555
H45 C45 1_555 1_555
H46 C45 1_555 1_555
H47 C45 1_555 1_555
C46 C44 1_555 1_555
H48 C46 1_555 1_555
H49 C46 1_555 1_555
H50 C46 1_555 1_555
C47 P2 1_555 1_555
C48 C47 1_555 1_555
H51 C48 1_555 1_555
C49 C48 1_555 1_555
H52 C49 1_555 1_555
C50 C49 1_555 1_555
H53 C50 1_555 1_555
C51 C50 1_555 1_555
H54 C51 1_555 1_555
C52 C47 1_555 1_555
H55 C52 1_555 1_555
C53 P2 1_555 1_555
C54 C53 1_555 1_555
H56 C54 1_555 1_555
C55 C54 1_555 1_555
H57 C55 1_555 1_555
C56 C55 1_555 1_555
H58 C56 1_555 1_555
C57 C56 1_555 1_555
H59 C57 1_555 1_555
C58 C53 1_555 1_555
H60 C58 1_555 1_555
C5 C10 1_555 1_555
C8 C9 1_555 1_555
C9 C10 1_555 1_555
C22 C23 1_555 1_555
C28 C29 1_555 1_555
C34 C39 1_555 1_555
C37 C38 1_555 1_555
C38 C39 1_555 1_555
C51 C52 1_555 1_555
C57 C58 1_555 1_555

#END
