
#######################################################################
#
#                 Cambridge Crystallographic Data Centre
#                                CCDC 
#
#######################################################################
#
# If this CIF has been generated from an entry in the Cambridge 
# Structural Database, then it will include bibliographic, chemical, 
# crystal, experimental, refinement or atomic coordinate data resulting 
# from the CCDC's data processing and validation procedures.
#
#######################################################################

data_XIZCAN
_chemical_formula_moiety         'C6 N12 O12 2-,H2 O1,2(K1 1+)'
_chemical_name_systematic        
"di-potassium 5,5'-bis(trinitromethyl)-3,3'-bi-1,2,4-triazol-2-ide monohydrate"
_symmetry_cell_setting           monoclinic
_symmetry_space_group_name_H-M   'C 2/c'
_symmetry_Int_Tables_number      15
_space_group_name_Hall           '-C 2yn'
loop_
_symmetry_equiv_pos_site_id
_symmetry_equiv_pos_as_xyz
1 x,y,z
2 -x,y,1/2-z
3 1/2+x,1/2+y,z
4 1/2-x,1/2+y,1/2-z
5 -x,-y,-z
6 x,-y,1/2+z
7 1/2-x,1/2-y,-z
8 1/2+x,1/2-y,1/2+z
_cell_length_a                   22.396(7)
_cell_length_b                   6.231(2)
_cell_length_c                   14.043(4)
_cell_angle_alpha                90
_cell_angle_beta                 114.097(8)
_cell_angle_gamma                90
_cell_volume                     1788.92
_exptl_crystal_colour            yellow
_exptl_crystal_description       Plate
_cell_formula_units_Z            4
loop_
_atom_site_label
_atom_site_type_symbol
_atom_site_fract_x
_atom_site_fract_y
_atom_site_fract_z
K1 K 0.59166(9) 0.9728(3) 0.77662(12)
N1 N 0.5686(3) 0.8143(9) 0.5725(4)
C1 C 0.5209(3) 0.9184(9) 0.4919(5)
N2 N 0.5148(4) 0.8524(11) 0.3979(5)
N3 N 0.5615(4) 0.6979(10) 0.4157(5)
C2 C 0.5921(4) 0.6859(11) 0.5207(5)
C3 C 0.6491(3) 0.5454(11) 0.5731(5)
N4 N 0.6496(3) 0.4608(12) 0.6696(4)
O1 O 0.6470(9) 0.2683(12) 0.6682(9)
O2 O 0.6522(9) 0.550(2) 0.7468(8)
N5 N 0.6493(4) 0.3615(12) 0.4983(7)
O3 O 0.6036(5) 0.2535(14) 0.4630(7)
O4 O 0.6889(2) 0.3585(14) 0.4686(7)
N6 N 0.7144(4) 0.6597(13) 0.6008(7)
O5 O 0.7621(4) 0.5535(18) 0.6533(10)
O6 O 0.7155(4) 0.8319(14) 0.5678(9)
N1D N 0.4314(3) 1.1857(9) 0.4275(4)
C1D C 0.4791(3) 1.0816(9) 0.5081(5)
N2D N 0.4852(4) 1.1476(11) 0.6021(5)
N3D N 0.4385(4) 1.3021(10) 0.5843(5)
C2D C 0.4079(4) 1.3141(11) 0.4793(5)
C3D C 0.3509(3) 1.4546(11) 0.4269(5)
N4D N 0.3504(3) 1.5392(12) 0.3304(4)
O1D O 0.3530(9) 1.7317(12) 0.3318(9)
O2D O 0.3478(9) 1.450(2) 0.2532(8)
N5D N 0.3507(4) 1.6385(12) 0.5017(7)
O3D O 0.3964(5) 1.7465(14) 0.5370(7)
O4D O 0.3111(2) 1.6415(14) 0.5314(7)
N6D N 0.2856(4) 1.3403(13) 0.3992(7)
O5D O 0.2379(4) 1.4465(18) 0.3467(10)
O6D O 0.2845(4) 1.1681(14) 0.4322(9)
O7 O 0.500000 0.6395(13) 0.750000
H1 H 0.509626 0.550015 0.812825
H1A H 0.490374 0.550015 0.687175
O8? O 0.6301(8) 0.3013(19) 0.6952(13)
O9? O 0.6770(10) 0.591(2) 0.7360(10)
H2? H 0.509626 0.550018 0.812826
loop_
_geom_bond_atom_site_label_1
_geom_bond_atom_site_label_2
_geom_bond_site_symmetry_1
_geom_bond_site_symmetry_2
N1 C1 1_555 1_555
C1 N2 1_555 1_555
N2 N3 1_555 1_555
N3 C2 1_555 1_555
C2 N1 1_555 1_555
C3 C2 1_555 1_555
N4 C3 1_555 1_555
O1 N4 1_555 1_555
O2 N4 1_555 1_555
N5 C3 1_555 1_555
O3 N5 1_555 1_555
O4 N5 1_555 1_555
N6 C3 1_555 1_555
O5 N6 1_555 1_555
O6 N6 1_555 1_555
O7 H1 1_555 1_555
N1D C1D 1_555 1_555
C1D C1 1_555 1_555
N2D C1D 1_555 1_555
N3D N2D 1_555 1_555
C2D N1D 1_555 1_555
C3D C2D 1_555 1_555
N4D C3D 1_555 1_555
O1D N4D 1_555 1_555
O2D N4D 1_555 1_555
N5D C3D 1_555 1_555
O3D N5D 1_555 1_555
O4D N5D 1_555 1_555
N6D C3D 1_555 1_555
O5D N6D 1_555 1_555
O6D N6D 1_555 1_555
H1A O7 1_555 1_555
N3D C2D 1_555 1_555

#END
