
#######################################################################
#
#                 Cambridge Crystallographic Data Centre
#                                CCDC 
#
#######################################################################
#
# If this CIF has been generated from an entry in the Cambridge 
# Structural Database, then it will include bibliographic, chemical, 
# crystal, experimental, refinement or atomic coordinate data resulting 
# from the CCDC's data processing and validation procedures.
#
#######################################################################

data_XIZCEP
_chemical_formula_moiety         'C14 H13 N1 O2'
_chemical_name_systematic        N-Benzyl-2-hydroxybenzamide
_symmetry_cell_setting           monoclinic
_symmetry_space_group_name_H-M   'P 21/n'
_symmetry_Int_Tables_number      14
_space_group_name_Hall           '-P 2yn'
loop_
_symmetry_equiv_pos_site_id
_symmetry_equiv_pos_as_xyz
1 x,y,z
2 1/2-x,1/2+y,1/2-z
3 -x,-y,-z
4 1/2+x,1/2-y,1/2+z
_cell_length_a                   12.478(3)
_cell_length_b                   8.3503(17)
_cell_length_c                   12.664(3)
_cell_angle_alpha                90
_cell_angle_beta                 118.02(3)
_cell_angle_gamma                90
_cell_volume                     1164.86
_exptl_crystal_colour            colorless
_exptl_crystal_description       block
_cell_formula_units_Z            4
loop_
_atom_site_label
_atom_site_type_symbol
_atom_site_fract_x
_atom_site_fract_y
_atom_site_fract_z
O1 O 0.29704(10) 0.74227(17) -0.23736(9)
O2 O 0.49480(9) 0.60089(14) -0.16419(9)
N1 N 0.64585(9) 0.63326(15) 0.02206(11)
C1 C 0.45255(11) 0.76116(16) -0.03318(11)
C2 C 0.48553(14) 0.82179(19) 0.07995(14)
C3 C 0.40715(15) 0.9140(2) 0.10230(16)
C4 C 0.29300(15) 0.9477(2) 0.01061(17)
C5 C 0.25762(14) 0.8909(2) -0.10172(16)
C6 C 0.33637(12) 0.79771(18) -0.12499(13)
C7 C 0.53270(11) 0.66022(17) -0.06264(12)
C8 C 0.73259(14) 0.5375(2) 0.00128(16)
C9 C 0.80422(12) 0.63678(17) -0.04347(14)
C10 C 0.92320(15) 0.6768(3) 0.03099(19)
C11 C 0.98716(18) 0.7699(3) -0.0108(2)
C12 C 0.9333(2) 0.8228(3) -0.1254(2)
C13 C 0.81540(19) 0.7850(3) -0.20000(19)
C14 C 0.75139(16) 0.6917(2) -0.15893(16)
H1 H 0.6728(14) 0.6819(19) 0.0917(16)
H2 H 0.5651(15) 0.7995(18) 0.1431(15)
H3 H 0.367(2) 0.681(3) -0.230(2)
H4 H 0.4331(15) 0.952(2) 0.1817(17)
H5 H 0.2386(15) 1.009(2) 0.0252(15)
H6 H 0.1770(17) 0.913(2) -0.1697(16)
H7 H 0.6833(14) 0.455(2) -0.0610(14)
H8 H 0.7896(14) 0.4913(19) 0.0805(15)
H9 H 0.9607(17) 0.633(2) 0.1088(19)
H10 H 1.070(2) 0.793(3) 0.042(2)
H11 H 0.9743(19) 0.887(3) -0.1597(18)
H12 H 0.7716(18) 0.825(3) -0.283(2)
H13 H 0.6696(16) 0.668(2) -0.2122(15)
loop_
_geom_bond_atom_site_label_1
_geom_bond_atom_site_label_2
_geom_bond_site_symmetry_1
_geom_bond_site_symmetry_2
O1 C6 1_555 1_555
O2 C7 1_555 1_555
N1 C7 1_555 1_555
C1 C2 1_555 1_555
C2 C3 1_555 1_555
C3 C4 1_555 1_555
C4 C5 1_555 1_555
C5 C6 1_555 1_555
C6 C1 1_555 1_555
C7 C1 1_555 1_555
C8 N1 1_555 1_555
C9 C8 1_555 1_555
C10 C9 1_555 1_555
C11 C10 1_555 1_555
C12 C11 1_555 1_555
C13 C12 1_555 1_555
C14 C9 1_555 1_555
H1 N1 1_555 1_555
H2 C2 1_555 1_555
H3 O1 1_555 1_555
H4 C3 1_555 1_555
H5 C4 1_555 1_555
H6 C5 1_555 1_555
H7 C8 1_555 1_555
H8 C8 1_555 1_555
H9 C10 1_555 1_555
H10 C11 1_555 1_555
H11 C12 1_555 1_555
H12 C13 1_555 1_555
H13 C14 1_555 1_555
C13 C14 1_555 1_555

#END
