
#######################################################################
#
#                 Cambridge Crystallographic Data Centre
#                                CCDC 
#
#######################################################################
#
# If this CIF has been generated from an entry in the Cambridge 
# Structural Database, then it will include bibliographic, chemical, 
# crystal, experimental, refinement or atomic coordinate data resulting 
# from the CCDC's data processing and validation procedures.
#
#######################################################################

data_XIZCIT
_chemical_formula_moiety         'C24 H46 N4 O8 2+,2(Cl1 1-),2(H2 O1)'
_chemical_name_systematic        
'1,4,8,11-tetrakis(Carboxymethyl)-5,5,7,12,12,14-hexamethyl-4,11-diaza-1,8-diazoniacyclotetradecane dichloride dihydrate'
_symmetry_cell_setting           monoclinic
_symmetry_space_group_name_H-M   'P 21/n'
_symmetry_Int_Tables_number      14
_space_group_name_Hall           '-P 2yn'
loop_
_symmetry_equiv_pos_site_id
_symmetry_equiv_pos_as_xyz
1 x,y,z
2 1/2-x,1/2+y,1/2-z
3 -x,-y,-z
4 1/2+x,1/2-y,1/2+z
_cell_length_a                   9.977(5)
_cell_length_b                   13.475(7)
_cell_length_c                   11.572(6)
_cell_angle_alpha                90
_cell_angle_beta                 104.220(9)
_cell_angle_gamma                90
_cell_volume                     1508.07
_exptl_crystal_colour            colorless
_exptl_crystal_description       block
_cell_formula_units_Z            2
loop_
_atom_site_label
_atom_site_type_symbol
_atom_site_fract_x
_atom_site_fract_y
_atom_site_fract_z
C1 C 0.5351(3) 0.98193(17) -0.1532(2)
H1 H 0.4667 0.9400 -0.1306
H2 H 0.5360 0.9664 -0.2348
C2 C 0.7189(3) 0.85672(17) -0.0818(2)
H3 H 0.8150 0.8530 -0.0349
C3 C 0.6370(3) 0.78525(17) -0.0239(2)
H4 H 0.6485 0.7189 -0.0525
H5 H 0.5398 0.8021 -0.0511
C4 C 0.6741(3) 0.78252(17) 0.1120(2)
C5 C 0.4966(2) 1.09057(16) -0.1443(2)
H6 H 0.5248 1.1274 -0.2064
H7 H 0.5484 1.1164 -0.0682
C6 C 0.7192(4) 0.8235(2) -0.2076(3)
H8 H 0.6257 0.8156 -0.2537
H9 H 0.7673 0.7614 -0.2041
H10 H 0.7649 0.8726 -0.2444
C7 C 0.8226(3) 0.7482(2) 0.1616(3)
H11 H 0.8371 0.6866 0.1248
H12 H 0.8394 0.7391 0.2462
H13 H 0.8850 0.7974 0.1450
C8 C 0.5799(3) 0.70891(19) 0.1556(3)
H14 H 0.6022 0.6425 0.1369
H15 H 0.4851 0.7228 0.1169
H16 H 0.5933 0.7154 0.2403
C9 C 0.2622(2) 1.08659(19) -0.2780(2)
H17 H 0.2578 1.1450 -0.3278
H18 H 0.3065 1.0340 -0.3121
C10 C 0.1172(3) 1.05491(17) -0.2765(2)
C11 C 0.7806(3) 1.03008(17) -0.0922(2)
H19 H 0.7562 1.0512 -0.1749
H20 H 0.8669 0.9937 -0.0793
C12 C 0.8052(3) 1.12186(18) -0.0142(2)
N1 N 0.6734(2) 0.96203(13) -0.07355(18)
H21 H 0.6660 0.9714 0.0025
N2 N 0.3460(2) 1.10926(14) -0.15548(17)
O1 O 0.74179(19) 1.14840(14) 0.05549(17)
O2 O 0.9133(2) 1.17039(15) -0.0337(2)
H22 H 0.9260 1.2212 0.0065
O3 O 0.0857(2) 1.02428(14) -0.19069(18)
O4 O 0.03561(19) 1.06288(15) -0.38441(16)
H23 H -0.0409 1.0404 -0.3849
C1B C 0.4649(3) 1.01807(17) 0.1532(2)
H1B H 0.5333 1.0600 0.1306
H2B H 0.4640 1.0336 0.2348
C2B C 0.2811(3) 1.14328(17) 0.0818(2)
H3B H 0.1850 1.1470 0.0349
C3B C 0.3630(3) 1.21475(17) 0.0239(2)
H4B H 0.3515 1.2811 0.0525
H5B H 0.4602 1.1979 0.0511
C4B C 0.3259(3) 1.21748(17) -0.1120(2)
C5B C 0.5034(2) 0.90943(16) 0.1443(2)
H6B H 0.4752 0.8726 0.2064
H7B H 0.4516 0.8836 0.0682
C6B C 0.2808(4) 1.1765(2) 0.2076(3)
H8B H 0.3743 1.1844 0.2537
H9B H 0.2327 1.2386 0.2041
H10B H 0.2351 1.1274 0.2444
C7B C 0.1774(3) 1.2518(2) -0.1616(3)
H11B H 0.1629 1.3134 -0.1248
H12B H 0.1606 1.2609 -0.2462
H13B H 0.1150 1.2026 -0.1450
C8B C 0.4201(3) 1.29109(19) -0.1556(3)
H14B H 0.3978 1.3575 -0.1369
H15B H 0.5149 1.2772 -0.1169
H16B H 0.4067 1.2846 -0.2403
C9B C 0.7378(2) 0.91341(19) 0.2780(2)
H17B H 0.7422 0.8550 0.3278
H18B H 0.6935 0.9660 0.3121
C10B C 0.8828(3) 0.94509(17) 0.2765(2)
C11B C 0.2194(3) 0.96992(17) 0.0922(2)
H19B H 0.2438 0.9488 0.1749
H20B H 0.1331 1.0063 0.0793
C12B C 0.1948(3) 0.87814(18) 0.0142(2)
N1B N 0.3266(2) 1.03797(13) 0.07355(18)
H21B H 0.3340 1.0286 -0.0025
N2B N 0.6540(2) 0.89074(14) 0.15548(17)
O1B O 0.25821(19) 0.85160(14) -0.05549(17)
O2B O 0.0867(2) 0.82961(15) 0.0337(2)
H22B H 0.0740 0.7788 -0.0065
O3B O 0.9143(2) 0.97572(14) 0.19069(18)
O4B O 0.96439(19) 0.93712(15) 0.38441(16)
H23B H 1.0409 0.9596 0.3849
Cl1 Cl 0.27157(7) 0.97170(5) 0.43440(7)
O5 O 0.5390(3) 0.84981(16) 0.4486(2)
H24 H 0.594(4) 0.887(2) 0.479(3)
H25 H 0.457(5) 0.877(3) 0.443(4)
loop_
_geom_bond_atom_site_label_1
_geom_bond_atom_site_label_2
_geom_bond_site_symmetry_1
_geom_bond_site_symmetry_2
C1 H1 1_555 1_555
H2 C1 1_555 1_555
C2 H3 1_555 1_555
C3 C2 1_555 1_555
H4 C3 1_555 1_555
H5 C3 1_555 1_555
C4 C3 1_555 1_555
C5 C1 1_555 1_555
H6 C5 1_555 1_555
H7 C5 1_555 1_555
C6 C2 1_555 1_555
H8 C6 1_555 1_555
H9 C6 1_555 1_555
H10 C6 1_555 1_555
C7 C4 1_555 1_555
H11 C7 1_555 1_555
H12 C7 1_555 1_555
H13 C7 1_555 1_555
C8 C4 1_555 1_555
H14 C8 1_555 1_555
H15 C8 1_555 1_555
H16 C8 1_555 1_555
C9 H17 1_555 1_555
H18 C9 1_555 1_555
C10 C9 1_555 1_555
C11 H19 1_555 1_555
H20 C11 1_555 1_555
C12 C11 1_555 1_555
N1 C1 1_555 1_555
H21 N1 1_555 1_555
N2 C5 1_555 1_555
O1 C12 1_555 1_555
O2 C12 1_555 1_555
H22 O2 1_555 1_555
O3 C10 1_555 1_555
O4 C10 1_555 1_555
H23 O4 1_555 1_555
O5 H24 1_555 1_555
H25 O5 1_555 1_555
C1B H1B 1_555 1_555
H2B C1B 1_555 1_555
C2B H3B 1_555 1_555
C3B C2B 1_555 1_555
H4B C3B 1_555 1_555
H5B C3B 1_555 1_555
C4B N2 1_555 1_555
C5B C1B 1_555 1_555
H6B C5B 1_555 1_555
H7B C5B 1_555 1_555
C6B C2B 1_555 1_555
H8B C6B 1_555 1_555
H9B C6B 1_555 1_555
H10B C6B 1_555 1_555
C7B C4B 1_555 1_555
H11B C7B 1_555 1_555
H12B C7B 1_555 1_555
H13B C7B 1_555 1_555
C8B C4B 1_555 1_555
H14B C8B 1_555 1_555
H15B C8B 1_555 1_555
H16B C8B 1_555 1_555
C9B H17B 1_555 1_555
H18B C9B 1_555 1_555
C10B C9B 1_555 1_555
C11B H19B 1_555 1_555
H20B C11B 1_555 1_555
C12B C11B 1_555 1_555
N1B C1B 1_555 1_555
H21B N1B 1_555 1_555
N2B C4 1_555 1_555
O1B C12B 1_555 1_555
O2B C12B 1_555 1_555
H22B O2B 1_555 1_555
O3B C10B 1_555 1_555
O4B C10B 1_555 1_555
H23B O4B 1_555 1_555
C2 N1 1_555 1_555
C9 N2 1_555 1_555
C11 N1 1_555 1_555
C2B N1B 1_555 1_555
C3B C4B 1_555 1_555
C5B N2B 1_555 1_555
C9B N2B 1_555 1_555
C11B N1B 1_555 1_555

#END
