
#######################################################################
#
#                 Cambridge Crystallographic Data Centre
#                                CCDC 
#
#######################################################################
#
# If this CIF has been generated from an entry in the Cambridge 
# Structural Database, then it will include bibliographic, chemical, 
# crystal, experimental, refinement or atomic coordinate data resulting 
# from the CCDC's data processing and validation procedures.
#
#######################################################################

data_XIZDUF
_chemical_formula_moiety         'C29 H29 N5 O2'
_chemical_name_systematic        
2,4-bis(2-(4-t-Butylphenyl)-1,3,4-oxadiazol-5-yl)pyridine
_symmetry_cell_setting           monoclinic
_symmetry_space_group_name_H-M   'P 21/c'
_symmetry_Int_Tables_number      14
_space_group_name_Hall           '-P 2ybc'
loop_
_symmetry_equiv_pos_site_id
_symmetry_equiv_pos_as_xyz
1 x,y,z
2 x,1/2-y,1/2+z
3 -x,-y,-z
4 -x,1/2+y,1/2-z
_cell_length_a                   18.7544(12)
_cell_length_b                   11.6181(7)
_cell_length_c                   11.4838(7)
_cell_angle_alpha                90
_cell_angle_beta                 90.221(4)
_cell_angle_gamma                90
_cell_volume                     2502.19
_exptl_crystal_colour            colorless
_chemical_melting_point          '489.3-490.6 K'
_cell_formula_units_Z            4
_exptl_crystal_recrystallization_method chloroform/ethanol
loop_
_atom_site_label
_atom_site_type_symbol
_atom_site_fract_x
_atom_site_fract_y
_atom_site_fract_z
N1 N 0.70873(7) 0.13061(12) 0.81720(12)
N2 N 0.75618(7) 0.12241(12) 0.91202(12)
N3 N 0.54624(7) 0.10577(12) 0.43169(12)
N4 N 0.50106(7) 0.08399(12) 0.33610(12)
O1 O 0.74469(6) 0.30614(9) 0.86354(9)
O2 O 0.50488(6) 0.27231(9) 0.36597(9)
C1 C 0.65688(8) 0.41073(13) 0.70138(13)
H1 H 0.6819 0.4545 0.7556
C2 C 0.66088(8) 0.29417(14) 0.70077(13)
C3 C 0.62533(8) 0.22683(14) 0.61860(13)
H2 H 0.6289 0.1470 0.6194
C4 C 0.58404(8) 0.28324(13) 0.53463(13)
N6 N 0.57756(8) 0.40113(13) 0.53491(13)
C6 C 0.61473(10) 0.46063(15) 0.61922(15)
H4 H 0.6106 0.5404 0.6199
C7 C 0.70394(8) 0.23868(14) 0.79210(13)
C8 C 0.77564(8) 0.22697(13) 0.93551(14)
C9 C 0.54622(8) 0.21595(13) 0.44572(13)
C10 C 0.47826(8) 0.18333(13) 0.30077(13)
C11 C 0.82595(8) 0.26802(13) 1.02390(13)
C12 C 0.85553(8) 0.37828(14) 1.01494(14)
H5 H 0.8422 0.4264 0.9539
C13 C 0.90445(8) 0.41598(13) 1.09701(14)
H6 H 0.9236 0.4895 1.0899
C14 C 0.92597(8) 0.34633(13) 1.19040(14)
C15 C 0.89560(8) 0.23657(14) 1.19824(14)
H7 H 0.9085 0.1887 1.2597
C16 C 0.84636(8) 0.19738(14) 1.11642(14)
H8 H 0.8272 0.1239 1.1234
C17 C 0.98056(9) 0.39254(14) 1.27890(14)
C18 C 1.00193(9) 0.30288(15) 1.37075(15)
H9 H 0.9606 0.2801 1.4141
H10 H 1.0366 0.3357 1.4227
H11 H 1.0220 0.2368 1.3329
C19 C 0.94806(10) 0.49795(15) 1.34135(15)
H12 H 0.9344 0.5545 1.2846
H13 H 0.9828 0.5304 1.3935
H14 H 0.9069 0.4745 1.3846
C20 C 1.04824(9) 0.42912(17) 1.21334(16)
H15 H 1.0677 0.3639 1.1731
H16 H 1.0828 0.4580 1.2679
H17 H 1.0365 0.4883 1.1581
C21 C 0.42836(8) 0.20933(13) 0.20637(13)
C22 C 0.42286(8) 0.31965(13) 0.15970(14)
H18 H 0.4538 0.3773 0.1843
C23 C 0.37096(8) 0.34379(13) 0.07657(14)
H19 H 0.3687 0.4172 0.0444
C24 C 0.32208(8) 0.26006(14) 0.03983(13)
C25 C 0.33001(8) 0.14879(13) 0.08523(13)
H20 H 0.2991 0.0910 0.0607
C26 C 0.38263(8) 0.12274(13) 0.16558(13)
H21 H 0.3877 0.0477 0.1925
C27 C 0.25877(9) 0.28863(15) -0.04050(14)
C28 C 0.19068(9) 0.28673(18) 0.03441(16)
H22 H 0.1842 0.2114 0.0670
H23 H 0.1503 0.3059 -0.0133
H24 H 0.1952 0.3420 0.0961
C29 C 0.26603(10) 0.40824(16) -0.09544(16)
H25 H 0.2665 0.4656 -0.0353
H26 H 0.2264 0.4217 -0.1468
H27 H 0.3096 0.4123 -0.1387
C30 C 0.25153(10) 0.19922(16) -0.13878(15)
H28 H 0.2941 0.1990 -0.1849
H29 H 0.2114 0.2186 -0.1871
H30 H 0.2445 0.1243 -0.1055
N5? N 0.65688(8) 0.41073(13) 0.70138(13)
C5? C 0.57756(8) 0.40113(13) 0.53491(13)
H3? H 0.5492 0.4391 0.4804
loop_
_geom_bond_atom_site_label_1
_geom_bond_atom_site_label_2
_geom_bond_site_symmetry_1
_geom_bond_site_symmetry_2
N1 N2 1_555 1_555
N2 C8 1_555 1_555
N3 N4 1_555 1_555
N4 C10 1_555 1_555
O1 C7 1_555 1_555
O2 C9 1_555 1_555
C1 H1 1_555 1_555
C2 C1 1_555 1_555
C3 C2 1_555 1_555
H2 C3 1_555 1_555
C4 C3 1_555 1_555
N6 C4 1_555 1_555
C6 C1 1_555 1_555
H4 C6 1_555 1_555
C7 N1 1_555 1_555
C8 O1 1_555 1_555
C9 N3 1_555 1_555
C10 O2 1_555 1_555
C11 C8 1_555 1_555
C12 C11 1_555 1_555
H5 C12 1_555 1_555
C13 C12 1_555 1_555
H6 C13 1_555 1_555
C14 C13 1_555 1_555
C15 C14 1_555 1_555
H7 C15 1_555 1_555
C16 C11 1_555 1_555
H8 C16 1_555 1_555
C17 C14 1_555 1_555
C18 C17 1_555 1_555
H9 C18 1_555 1_555
H10 C18 1_555 1_555
H11 C18 1_555 1_555
C19 C17 1_555 1_555
H12 C19 1_555 1_555
H13 C19 1_555 1_555
H14 C19 1_555 1_555
C20 C17 1_555 1_555
H15 C20 1_555 1_555
H16 C20 1_555 1_555
H17 C20 1_555 1_555
C21 C10 1_555 1_555
C22 C21 1_555 1_555
H18 C22 1_555 1_555
C23 C22 1_555 1_555
H19 C23 1_555 1_555
C24 C23 1_555 1_555
C25 C24 1_555 1_555
H20 C25 1_555 1_555
C26 C21 1_555 1_555
H21 C26 1_555 1_555
C27 C24 1_555 1_555
C28 C27 1_555 1_555
H22 C28 1_555 1_555
H23 C28 1_555 1_555
H24 C28 1_555 1_555
C29 C27 1_555 1_555
H25 C29 1_555 1_555
H26 C29 1_555 1_555
H27 C29 1_555 1_555
C30 C27 1_555 1_555
H28 C30 1_555 1_555
H29 C30 1_555 1_555
H30 C30 1_555 1_555
C2 C7 1_555 1_555
C4 C9 1_555 1_555
N6 C6 1_555 1_555
C15 C16 1_555 1_555
C25 C26 1_555 1_555

#END
