
#######################################################################
#
#                 Cambridge Crystallographic Data Centre
#                                CCDC 
#
#######################################################################
#
# If this CIF has been generated from an entry in the Cambridge 
# Structural Database, then it will include bibliographic, chemical, 
# crystal, experimental, refinement or atomic coordinate data resulting 
# from the CCDC's data processing and validation procedures.
#
#######################################################################

data_XIZFER
_chemical_formula_moiety         'C33 H24 N12'
_chemical_name_systematic        
2,4,6-tris(bis(2-Pyridyl)amino)-1,3,5-triazine
_symmetry_cell_setting           monoclinic
_symmetry_space_group_name_H-M   'P 21/c'
_symmetry_Int_Tables_number      14
_space_group_name_Hall           '-P 2ybc'
loop_
_symmetry_equiv_pos_site_id
_symmetry_equiv_pos_as_xyz
1 x,y,z
2 x,1/2-y,1/2+z
3 -x,-y,-z
4 -x,1/2+y,1/2-z
_cell_length_a                   12.890(4)
_cell_length_b                   19.438(6)
_cell_length_c                   12.707(4)
_cell_angle_alpha                90
_cell_angle_beta                 116.380(6)
_cell_angle_gamma                90
_cell_volume                     2852.27
_exptl_crystal_colour            colorless
_exptl_crystal_description       needle
_chemical_melting_point          299-300deg.C
_cell_formula_units_Z            4
_exptl_crystal_recrystallization_method dichloromethane/hexane
_exptl_crystal_preparation       'photoluminescent and electroluminescent'
loop_
_atom_site_label
_atom_site_type_symbol
_atom_site_fract_x
_atom_site_fract_y
_atom_site_fract_z
N1 N 0.0606(6) 0.7105(4) 0.3949(5)
C1 C 0.0471(7) 0.5967(4) 0.3403(7)
H1 H 0.0819 0.5539 0.3478
N2 N 0.2244(5) 0.6454(3) 0.4880(4)
C2 C -0.0663(8) 0.6057(6) 0.2638(8)
H2 H -0.1075 0.5682 0.2193
C3 C -0.1204(7) 0.6645(6) 0.2499(6)
H3 H -0.1984 0.6695 0.1983
N3 N 0.1816(4) 0.6289(3) 0.6460(4)
C4 C -0.0551(8) 0.7180(5) 0.3157(7)
H4 H -0.0894 0.7610 0.3072
N4 N 0.6897(5) 0.6161(3) 0.7909(6)
N5 N 0.6115(5) 0.6271(3) 0.5858(4)
C5 C 0.1076(7) 0.6497(5) 0.4041(6)
C6 C 0.3332(6) 0.7083(4) 0.6739(6)
H5 H 0.3756 0.7318 0.6423
N6 N 0.7953(6) 0.6550(3) 0.6103(4)
N7 N 0.4491(5) 0.6183(3) 0.1045(4)
C7 C 0.3519(6) 0.7191(4) 0.7891(6)
H6 H 0.4107 0.7484 0.8378
C8 C 0.2829(8) 0.6862(5) 0.8311(7)
H7 H 0.2933 0.6931 0.9076
N8 N 0.3373(4) 0.5903(3) 0.2022(4)
C9 C 0.1979(7) 0.6426(5) 0.7557(6)
H8 H 0.1493 0.6215 0.7824
N9 N 0.2013(6) 0.5410(4) 0.0332(6)
N10 N 0.2746(4) 0.6165(3) 0.3433(4)
C10 C 0.2494(7) 0.6615(4) 0.6090(6)
N11 N 0.4793(4) 0.6105(3) 0.3916(4)
C11 C 0.7084(6) 0.5543(4) 0.4985(6)
H9 H 0.6443 0.5254 0.4658
N12 N 0.4193(5) 0.6308(3) 0.5433(4)
C12 C 0.8045(8) 0.5409(4) 0.4836(6)
H10 H 0.8083 0.5024 0.4420
C13 C 0.8971(7) 0.5864(5) 0.5321(7)
H11 H 0.9640 0.5793 0.5231
C14 C 0.8875(7) 0.6413(5) 0.5926(6)
H12 H 0.9497 0.6715 0.6241
C15 C 0.7073(7) 0.6105(5) 0.5622(5)
C16 C 0.7164(6) 0.6469(5) 0.8975(6)
H13 H 0.7533 0.6205 0.9652
C17 C 0.6922(7) 0.7125(6) 0.9090(8)
H14 H 0.7096 0.7322 0.9816
C18 C 0.6384(6) 0.7494(4) 0.8029(8)
H15 H 0.6217 0.7954 0.8087
C19 C 0.6089(6) 0.7255(4) 0.6951(6)
C20 C 0.6374(5) 0.6602(5) 0.6956(5)
C21 C 0.1429(7) 0.6420(4) 0.0994(6)
H16 H 0.1619 0.6779 0.1533
C22 C 0.0356(6) 0.6374(5) 0.0076(6)
H17 H -0.0207 0.6695 0.0003
C23 C 0.0097(8) 0.5871(5) -0.0729(7)
H18 H -0.0629 0.5839 -0.1370
C24 C 0.0953(8) 0.5415(5) -0.0556(7)
H19 H 0.0781 0.5069 -0.1114
C25 C 0.2218(6) 0.5922(5) 0.1101(6)
C26 C 0.4926(7) 0.5149(4) 0.2127(6)
H20 H 0.4774 0.4855 0.2620
C27 C 0.5791(7) 0.4987(5) 0.1821(7)
H21 H 0.6213 0.4582 0.2075
C28 C 0.6013(7) 0.5450(5) 0.1123(7)
H22 H 0.6601 0.5371 0.0902
C29 C 0.5361(7) 0.6011(5) 0.0775(6)
H23 H 0.5517 0.6316 0.0301
C30 C 0.4298(6) 0.5720(5) 0.1729(6)
C31 C 0.3122(6) 0.6301(4) 0.4589(6)
C32 C 0.4976(7) 0.6207(3) 0.5039(5)
C33 C 0.3651(7) 0.6049(3) 0.3188(5)
loop_
_geom_bond_atom_site_label_1
_geom_bond_atom_site_label_2
_geom_bond_site_symmetry_1
_geom_bond_site_symmetry_2
N1 C4 1_555 1_555
C1 H1 1_555 1_555
N2 C5 1_555 1_555
C2 C1 1_555 1_555
H2 C2 1_555 1_555
C3 C2 1_555 1_555
H3 C3 1_555 1_555
N3 C9 1_555 1_555
C4 C3 1_555 1_555
H4 C4 1_555 1_555
N4 C16 1_555 1_555
N5 C15 1_555 1_555
C5 N1 1_555 1_555
C6 H5 1_555 1_555
N6 C14 1_555 1_555
N7 C29 1_555 1_555
C7 C6 1_555 1_555
H6 C7 1_555 1_555
C8 C7 1_555 1_555
H7 C8 1_555 1_555
N8 C25 1_555 1_555
C9 C8 1_555 1_555
H8 C9 1_555 1_555
N9 C24 1_555 1_555
N10 C31 1_555 1_555
C10 N2 1_555 1_555
N11 C32 1_555 1_555
C11 H9 1_555 1_555
N12 C31 1_555 1_555
C12 C11 1_555 1_555
H10 C12 1_555 1_555
C13 C12 1_555 1_555
H11 C13 1_555 1_555
C14 C13 1_555 1_555
H12 C14 1_555 1_555
C15 N6 1_555 1_555
C16 H13 1_555 1_555
C17 C16 1_555 1_555
H14 C17 1_555 1_555
C18 C17 1_555 1_555
H15 C18 1_555 1_555
C19 C18 1_555 1_555
C20 N4 1_555 1_555
C21 H16 1_555 1_555
C22 C21 1_555 1_555
H17 C22 1_555 1_555
C23 C22 1_555 1_555
H18 C23 1_555 1_555
C24 C23 1_555 1_555
H19 C24 1_555 1_555
C25 N9 1_555 1_555
C26 H20 1_555 1_555
C27 C26 1_555 1_555
H21 C27 1_555 1_555
C28 C27 1_555 1_555
H22 C28 1_555 1_555
C29 C28 1_555 1_555
H23 C29 1_555 1_555
C30 N7 1_555 1_555
C31 N2 1_555 1_555
C32 N5 1_555 1_555
C33 N8 1_555 1_555
C1 C5 1_555 1_555
N3 C10 1_555 1_555
N5 C20 1_555 1_555
C6 C10 1_555 1_555
N8 C30 1_555 1_555
N10 C33 1_555 1_555
N11 C33 1_555 1_555
C11 C15 1_555 1_555
N12 C32 1_555 1_555
C19 C20 1_555 1_555
C21 C25 1_555 1_555
C26 C30 1_555 1_555

#END
