
#######################################################################
#
#                 Cambridge Crystallographic Data Centre
#                                CCDC 
#
#######################################################################
#
# If this CIF has been generated from an entry in the Cambridge 
# Structural Database, then it will include bibliographic, chemical, 
# crystal, experimental, refinement or atomic coordinate data resulting 
# from the CCDC's data processing and validation procedures.
#
#######################################################################

data_XIZMAW
_chemical_formula_moiety         'C16 H10 Br1 N1 O2'
_chemical_name_systematic        
2-(2-Bromo-1-phenylvinyl)-1H-isoindole-1,3(2H)-dione
_symmetry_cell_setting           triclinic
_symmetry_space_group_name_H-M   'P 1'
_symmetry_Int_Tables_number      1
_space_group_name_Hall           'P 1'
loop_
_symmetry_equiv_pos_site_id
_symmetry_equiv_pos_as_xyz
1 x,y,z
_cell_length_a                   7.5646(10)
_cell_length_b                   8.0027(11)
_cell_length_c                   12.4858(16)
_cell_angle_alpha                107.363(2)
_cell_angle_beta                 94.428(2)
_cell_angle_gamma                103.078(2)
_cell_volume                     694.135
_exptl_crystal_colour            yellow
_exptl_crystal_description       block
_cell_formula_units_Z            2
loop_
_atom_site_label
_atom_site_type_symbol
_atom_site_fract_x
_atom_site_fract_y
_atom_site_fract_z
Br1 Br 0.81213(10) 0.97443(11) 0.21503(8)
C1 C 0.587(2) 0.825(2) 0.2219(14)
H1 H 0.5361 0.7194 0.1609
C2 C 0.4952(18) 0.8618(17) 0.3107(12)
C3 C 0.3220(9) 0.7320(10) 0.3158(7)
C4 C 0.3121(9) 0.5472(10) 0.2737(7)
H2 H 0.4157 0.5095 0.2527
C5 C 0.1466(9) 0.4188(9) 0.2630(7)
H3 H 0.1400 0.2957 0.2349
C6 C -0.0090(10) 0.4753(8) 0.2945(7)
H4 H -0.1192 0.3899 0.2873
C7 C 0.0009(11) 0.6602(8) 0.3366(7)
H5 H -0.1027 0.6978 0.3576
C8 C 0.1664(10) 0.7885(10) 0.3473(7)
H6 H 0.1730 0.9116 0.3753
C9 C 0.6400(18) 1.0419(14) 0.5107(10)
C10 C 0.563(2) 1.2021(19) 0.3958(12)
C11 C 0.6456(11) 1.3290(9) 0.5046(6)
C12 C 0.6926(11) 1.2367(9) 0.5752(6)
C13 C 0.7810(13) 1.3316(11) 0.6849(7)
H7 H 0.8127 1.2694 0.7324
C14 C 0.8224(15) 1.5188(12) 0.7240(8)
H8 H 0.8820 1.5827 0.7979
C15 C 0.7754(14) 1.6111(11) 0.6534(8)
H9 H 0.8033 1.7371 0.6797
C16 C 0.6870(12) 1.5162(10) 0.5437(7)
H10 H 0.6554 1.5783 0.4961
N1 N 0.5598(16) 1.0250(14) 0.4034(10)
O1 O 0.6890(9) 0.9190(10) 0.5323(7)
O2 O 0.5102(10) 1.2292(11) 0.3102(8)
Br2 Br 0.17900(11) 0.87118(11) 1.04482(8)
C17 C 0.4042(16) 1.0248(18) 1.0359(12)
H11 H 0.4536 1.1319 1.0960
C18 C 0.4926(19) 0.9901(18) 0.9519(12)
C19 C 0.6722(9) 1.1147(10) 0.9507(6)
C20 C 0.7086(9) 1.3002(10) 0.9982(6)
H12 H 0.6181 1.3522 1.0291
C21 C 0.8790(9) 1.4088(9) 0.9998(6)
H13 H 0.9036 1.5341 1.0318
C22 C 1.0130(10) 1.3318(8) 0.9540(7)
H14 H 1.1282 1.4051 0.9551
C23 C 0.9766(10) 1.1463(8) 0.9066(7)
H15 H 1.0671 1.0943 0.8756
C24 C 0.8062(9) 1.0377(9) 0.9049(7)
H16 H 0.7816 0.9124 0.8729
C25 C 0.3454(16) 0.8054(15) 0.7508(11)
C26 C 0.4350(16) 0.6511(14) 0.8673(8)
C27 C 0.3429(14) 0.5197(10) 0.7581(7)
C28 C 0.2945(12) 0.6128(10) 0.6879(7)
C29 C 0.2073(12) 0.5182(10) 0.5774(7)
H17 H 0.1748 0.5806 0.5303
C30 C 0.1685(15) 0.3305(11) 0.5372(8)
H18 H 0.1100 0.2670 0.4630
C31 C 0.2170(15) 0.2374(12) 0.6074(8)
H19 H 0.1910 0.1115 0.5804
C32 C 0.3041(14) 0.3320(11) 0.7179(7)
H20 H 0.3366 0.2696 0.7650
N2 N 0.4372(16) 0.8198(15) 0.8602(9)
O3 O 0.5131(10) 0.6317(11) 0.9509(8)
O4 O 0.3456(9) 0.9358(10) 0.7200(7)
loop_
_geom_bond_atom_site_label_1
_geom_bond_atom_site_label_2
_geom_bond_site_symmetry_1
_geom_bond_site_symmetry_2
Br1 C1 1_555 1_555
C1 H1 1_555 1_555
C2 C1 1_555 1_555
C3 C2 1_555 1_555
C4 C3 1_555 1_555
H2 C4 1_555 1_555
C5 C4 1_555 1_555
H3 C5 1_555 1_555
C6 C5 1_555 1_555
H4 C6 1_555 1_555
C7 C6 1_555 1_555
H5 C7 1_555 1_555
C8 C3 1_555 1_555
H6 C8 1_555 1_555
C9 C12 1_555 1_555
C10 C11 1_555 1_555
C11 C12 1_555 1_555
C12 C13 1_555 1_555
C13 H7 1_555 1_555
C14 C13 1_555 1_555
H8 C14 1_555 1_555
C15 C14 1_555 1_555
H9 C15 1_555 1_555
C16 C11 1_555 1_555
H10 C16 1_555 1_555
N1 C2 1_555 1_555
O1 C9 1_555 1_555
O2 C10 1_555 1_555
Br2 C17 1_555 1_555
C17 H11 1_555 1_555
C18 C17 1_555 1_555
C19 C18 1_555 1_555
C20 C19 1_555 1_555
H12 C20 1_555 1_555
C21 C20 1_555 1_555
H13 C21 1_555 1_555
C22 C21 1_555 1_555
H14 C22 1_555 1_555
C23 C22 1_555 1_555
H15 C23 1_555 1_555
C24 C19 1_555 1_555
H16 C24 1_555 1_555
C25 C28 1_555 1_555
C26 C27 1_555 1_555
C27 C28 1_555 1_555
C28 C29 1_555 1_555
C29 H17 1_555 1_555
C30 C29 1_555 1_555
H18 C30 1_555 1_555
C31 C30 1_555 1_555
H19 C31 1_555 1_555
C32 C27 1_555 1_555
H20 C32 1_555 1_555
N2 C18 1_555 1_555
O3 C26 1_555 1_555
O4 C25 1_555 1_555
C7 C8 1_555 1_555
C9 N1 1_555 1_555
C10 N1 1_555 1_555
C15 C16 1_555 1_555
C23 C24 1_555 1_555
C25 N2 1_555 1_555
C26 N2 1_555 1_555
C31 C32 1_555 1_555

#END
