
#######################################################################
#
#                 Cambridge Crystallographic Data Centre
#                                CCDC 
#
#######################################################################
#
# If this CIF has been generated from an entry in the Cambridge 
# Structural Database, then it will include bibliographic, chemical, 
# crystal, experimental, refinement or atomic coordinate data resulting 
# from the CCDC's data processing and validation procedures.
#
#######################################################################

data_XIZROQ
_chemical_formula_moiety         'C17 H15 Cl1 O5'
_chemical_name_systematic        
'methyl 4-(4-chlorophenyl)-8-oxo-2,9-dioxabicyclo[5.2.2]undeca-4,10-diene-10-carboxylate'
_symmetry_cell_setting           monoclinic
_symmetry_space_group_name_H-M   'P 21'
_symmetry_Int_Tables_number      4
_space_group_name_Hall           'P 2yb'
loop_
_symmetry_equiv_pos_site_id
_symmetry_equiv_pos_as_xyz
1 x,y,z
2 -x,1/2+y,-z
_cell_length_a                   6.1976(17)
_cell_length_b                   17.271(5)
_cell_length_c                   7.158(2)
_cell_angle_alpha                90
_cell_angle_beta                 103.688(3)
_cell_angle_gamma                90
_cell_volume                     744.423
_exptl_crystal_colour            colorless
_exptl_crystal_description       block
_cell_formula_units_Z            2
loop_
_atom_site_label
_atom_site_type_symbol
_atom_site_fract_x
_atom_site_fract_y
_atom_site_fract_z
Cl1 Cl 0.04193(10) 0.18000(3) -0.01000(8)
O1 O 0.4728(2) 0.55461(9) 0.2958(2)
C1 C 0.5346(4) 0.37299(13) 0.2121(3)
C2 C 0.6036(4) 0.29567(13) 0.2146(3)
H1 H 0.756074 0.283596 0.263593
O2 O 0.6017(3) 0.53542(9) 0.6290(2)
O3 O 0.8333(3) 0.46742(11) 0.8470(2)
C3 C 0.4545(4) 0.23625(13) 0.1472(3)
H2 H 0.504569 0.184210 0.148799
O4 O 0.8466(3) 0.77223(10) 0.4056(3)
C4 C 0.2314(4) 0.25385(13) 0.0774(3)
O5 O 0.4867(3) 0.73906(10) 0.3472(2)
C5 C 0.1570(4) 0.32928(14) 0.0720(3)
H3 H 0.003975 0.340703 0.023570
C6 C 0.3079(4) 0.38846(13) 0.1380(3)
H4 H 0.256668 0.440433 0.132897
C7 C 0.6940(4) 0.43696(13) 0.2821(3)
C8 C 0.8849(4) 0.42401(14) 0.4104(3)
H5 H 0.911902 0.372340 0.455406
C9 C 1.0625(4) 0.48286(15) 0.4916(4)
H6 H 1.097188 0.512233 0.383594
H7 H 1.198928 0.454924 0.557184
C10 C 1.0003(4) 0.54237(14) 0.6382(3)
H8 H 1.132075 0.546899 0.749541
C11 C 0.9525(4) 0.62129(14) 0.5535(3)
H9 H 1.072456 0.655577 0.553720
C12 C 0.7472(4) 0.64453(13) 0.4783(3)
C13 C 0.5544(3) 0.59121(13) 0.4725(3)
H10 H 0.430871 0.624435 0.495021
C14 C 0.6293(4) 0.51689(13) 0.2034(3)
H11 H 0.764564 0.549208 0.221000
H12 H 0.562545 0.513016 0.063638
C15 C 0.8098(4) 0.51213(13) 0.7151(3)
C16 C 0.7041(4) 0.72536(13) 0.4066(3)
C17 C 0.4243(5) 0.81799(14) 0.2919(4)
H13 H 0.483859 0.832445 0.181512
H14 H 0.484724 0.852722 0.399858
H15 H 0.262043 0.822287 0.256753
loop_
_geom_bond_atom_site_label_1
_geom_bond_atom_site_label_2
_geom_bond_site_symmetry_1
_geom_bond_site_symmetry_2
Cl1 C4 1_555 1_555
O1 C13 1_555 1_555
C1 C2 1_555 1_555
C2 H1 1_555 1_555
O2 C13 1_555 1_555
O3 C15 1_555 1_555
C3 C2 1_555 1_555
H2 C3 1_555 1_555
O4 C16 1_555 1_555
C4 C3 1_555 1_555
O5 C16 1_555 1_555
C5 C4 1_555 1_555
H3 C5 1_555 1_555
C6 C1 1_555 1_555
H4 C6 1_555 1_555
C7 C1 1_555 1_555
C8 C7 1_555 1_555
H5 C8 1_555 1_555
C9 C8 1_555 1_555
H6 C9 1_555 1_555
H7 C9 1_555 1_555
C10 C9 1_555 1_555
H8 C10 1_555 1_555
C11 C10 1_555 1_555
H9 C11 1_555 1_555
C12 C11 1_555 1_555
C13 C12 1_555 1_555
H10 C13 1_555 1_555
C14 O1 1_555 1_555
H11 C14 1_555 1_555
H12 C14 1_555 1_555
C15 O2 1_555 1_555
C16 C12 1_555 1_555
C17 O5 1_555 1_555
H13 C17 1_555 1_555
H14 C17 1_555 1_555
H15 C17 1_555 1_555
C5 C6 1_555 1_555
C7 C14 1_555 1_555
C10 C15 1_555 1_555

#END
