
#######################################################################
#
#                 Cambridge Crystallographic Data Centre
#                                CCDC 
#
#######################################################################
#
# If this CIF has been generated from an entry in the Cambridge 
# Structural Database, then it will include bibliographic, chemical, 
# crystal, experimental, refinement or atomic coordinate data resulting 
# from the CCDC's data processing and validation procedures.
#
#######################################################################

data_XIZVOT
_chemical_formula_moiety         'C52 H62 Ca1 O4 Si2'
_chemical_name_systematic        
tetrakis(tetrahydrofuran)-bis(triphenylsilyl)-calcium
_symmetry_cell_setting           monoclinic
_symmetry_space_group_name_H-M   'P 21/c'
_symmetry_Int_Tables_number      14
_space_group_name_Hall           '-P 2ybc'
loop_
_symmetry_equiv_pos_site_id
_symmetry_equiv_pos_as_xyz
1 x,y,z
2 -x,1/2+y,1/2-z
3 -x,-y,-z
4 x,1/2-y,1/2+z
_cell_length_a                   10.1370(10)
_cell_length_b                   11.833(2)
_cell_length_c                   20.015(2)
_cell_angle_alpha                90
_cell_angle_beta                 105.746(6)
_cell_angle_gamma                90
_cell_volume                     2310.73
_exptl_crystal_colour            yellow
_exptl_crystal_description       rod
_cell_formula_units_Z            2
_chemical_properties_physical    
'Air-sensitive, Moisture-sensitive, Hygroscropic'
loop_
_atom_site_label
_atom_site_type_symbol
_atom_site_fract_x
_atom_site_fract_y
_atom_site_fract_z
Ca1 Ca 1.0000 0.0000 0.0000
Si1 Si 0.82586(8) -0.15886(6) -0.11746(4)
O1 O 0.83651(18) -0.03212(16) 0.06766(9)
O2 O 1.1249(2) -0.16515(16) 0.04791(9)
C1 C 0.7015(3) -0.2441(2) -0.08056(13)
C2 C 0.5587(3) -0.2378(2) -0.10620(14)
H1 H 0.5203 -0.1956 -0.1472
C3 C 0.4720(3) -0.2913(2) -0.07349(14)
H2 H 0.3755 -0.2842 -0.0918
C4 C 0.5243(3) -0.3546(2) -0.01453(15)
H3 H 0.4644 -0.3916 0.0076
C5 C 0.6651(3) -0.3642(3) 0.01230(15)
H4 H 0.7024 -0.4083 0.0527
C6 C 0.7506(3) -0.3089(2) -0.02013(14)
H5 H 0.8469 -0.3150 -0.0007
C7 C 0.7037(3) -0.1003(2) -0.20040(13)
C8 C 0.6380(3) 0.0024(2) -0.19841(14)
H6 H 0.6602 0.0439 -0.1562
C9 C 0.5412(3) 0.0469(3) -0.25560(15)
H7 H 0.4988 0.1175 -0.2523
C10 C 0.5079(3) -0.0129(3) -0.31701(16)
H8 H 0.4418 0.0162 -0.3564
C11 C 0.5708(3) -0.1151(3) -0.32114(14)
H9 H 0.5479 -0.1564 -0.3635
C12 C 0.6675(3) -0.1579(2) -0.26375(14)
H10 H 0.7102 -0.2281 -0.2676
C13 C 0.9284(3) -0.2716(2) -0.15103(13)
C14 C 0.9388(3) -0.3851(2) -0.13110(16)
H11 H 0.8801 -0.4135 -0.1052
C15 C 1.0327(3) -0.4576(3) -0.14818(16)
H12 H 1.0374 -0.5342 -0.1335
C16 C 1.1185(3) -0.4201(3) -0.18596(15)
H13 H 1.1838 -0.4694 -0.1967
C17 C 1.1080(3) -0.3101(3) -0.20777(15)
H14 H 1.1655 -0.2831 -0.2347
C18 C 1.0143(3) -0.2376(2) -0.19115(14)
H15 H 1.0085 -0.1620 -0.2077
C19 C 0.6880(3) -0.0268(3) 0.03934(15)
H16 H 0.6563 -0.0859 0.0036
H17 H 0.6602 0.0479 0.0179
C20 C 0.6274(3) -0.0458(3) 0.09938(16)
H18 H 0.6033 -0.1263 0.1029
H19 H 0.5447 0.0012 0.0949
C21 C 0.7432(3) -0.0097(3) 0.16162(17)
H20 H 0.7463 0.0735 0.1673
H21 H 0.7345 -0.0453 0.2050
C22 C 0.8647(3) -0.0523(3) 0.14194(15)
H22 H 0.9482 -0.0114 0.1676
H23 H 0.8779 -0.1340 0.1523
C23 C 1.1130(3) -0.2128(3) 0.11306(15)
H24 H 1.0176 -0.2369 0.1088
H25 H 1.1401 -0.1565 0.1509
C24 C 1.2076(3) -0.3122(3) 0.12749(16)
H26 H 1.1771 -0.3696 0.1561
H27 H 1.3028 -0.2892 0.1510
C25 C 1.1948(3) -0.3555(2) 0.05404(16)
H28 H 1.2736 -0.4039 0.0525
H29 H 1.1086 -0.3982 0.0356
C26 C 1.1947(3) -0.2464(2) 0.01491(15)
H30 H 1.2896 -0.2214 0.0184
H31 H 1.1453 -0.2557 -0.0347
Si1B Si 1.17414(8) 0.15886(6) 0.11746(4)
O1B O 1.16349(18) 0.03212(16) -0.06766(9)
O2B O 0.8751(2) 0.16515(16) -0.04791(9)
C1B C 1.2985(3) 0.2441(2) 0.08056(13)
C2B C 1.4413(3) 0.2378(2) 0.10620(14)
H1B H 1.4797 0.1956 0.1472
C3B C 1.5280(3) 0.2913(2) 0.07349(14)
H2B H 1.6245 0.2842 0.0918
C4B C 1.4757(3) 0.3546(2) 0.01453(15)
H3B H 1.5356 0.3916 -0.0076
C5B C 1.3349(3) 0.3642(3) -0.01230(15)
H4B H 1.2976 0.4083 -0.0527
C6B C 1.2494(3) 0.3089(2) 0.02013(14)
H5B H 1.1531 0.3150 0.0007
C7B C 1.2963(3) 0.1003(2) 0.20040(13)
C8B C 1.3620(3) -0.0024(2) 0.19841(14)
H6B H 1.3398 -0.0439 0.1562
C9B C 1.4588(3) -0.0469(3) 0.25560(15)
H7B H 1.5012 -0.1175 0.2523
C10B C 1.4921(3) 0.0129(3) 0.31701(16)
H8B H 1.5582 -0.0162 0.3564
C11B C 1.4292(3) 0.1151(3) 0.32114(14)
H9B H 1.4521 0.1564 0.3635
C12B C 1.3325(3) 0.1579(2) 0.26375(14)
H10B H 1.2898 0.2281 0.2676
C13B C 1.0716(3) 0.2716(2) 0.15103(13)
C14B C 1.0612(3) 0.3851(2) 0.13110(16)
H11B H 1.1199 0.4135 0.1052
C15B C 0.9673(3) 0.4576(3) 0.14818(16)
H12B H 0.9626 0.5342 0.1335
C16B C 0.8815(3) 0.4201(3) 0.18596(15)
H13B H 0.8162 0.4694 0.1967
C17B C 0.8920(3) 0.3101(3) 0.20777(15)
H14B H 0.8345 0.2831 0.2347
C18B C 0.9857(3) 0.2376(2) 0.19115(14)
H15B H 0.9915 0.1620 0.2077
C19B C 1.3120(3) 0.0268(3) -0.03934(15)
H16B H 1.3437 0.0859 -0.0036
H17B H 1.3398 -0.0479 -0.0179
C20B C 1.3726(3) 0.0458(3) -0.09938(16)
H18B H 1.3967 0.1263 -0.1029
H19B H 1.4553 -0.0012 -0.0949
C21B C 1.2568(3) 0.0097(3) -0.16162(17)
H20B H 1.2537 -0.0735 -0.1673
H21B H 1.2655 0.0453 -0.2050
C22B C 1.1353(3) 0.0523(3) -0.14194(15)
H22B H 1.0518 0.0114 -0.1676
H23B H 1.1221 0.1340 -0.1523
C23B C 0.8870(3) 0.2128(3) -0.11306(15)
H24B H 0.9824 0.2369 -0.1088
H25B H 0.8599 0.1565 -0.1509
C24B C 0.7924(3) 0.3122(3) -0.12749(16)
H26B H 0.8229 0.3696 -0.1561
H27B H 0.6972 0.2892 -0.1510
C25B C 0.8052(3) 0.3555(2) -0.05404(16)
H28B H 0.7264 0.4039 -0.0525
H29B H 0.8914 0.3982 -0.0356
C26B C 0.8053(3) 0.2464(2) -0.01491(15)
H30B H 0.7104 0.2214 -0.0184
H31B H 0.8547 0.2557 0.0347
loop_
_geom_bond_atom_site_label_1
_geom_bond_atom_site_label_2
_geom_bond_site_symmetry_1
_geom_bond_site_symmetry_2
Ca1 Si1 1_555 1_555
Si1 C1 1_555 1_555
O1 Ca1 1_555 1_555
O2 Ca1 1_555 1_555
C1 C2 1_555 1_555
C2 H1 1_555 1_555
C3 C2 1_555 1_555
H2 C3 1_555 1_555
C4 C3 1_555 1_555
H3 C4 1_555 1_555
C5 C4 1_555 1_555
H4 C5 1_555 1_555
C6 C1 1_555 1_555
H5 C6 1_555 1_555
C7 Si1 1_555 1_555
C8 C7 1_555 1_555
H6 C8 1_555 1_555
C9 C8 1_555 1_555
H7 C9 1_555 1_555
C10 C9 1_555 1_555
H8 C10 1_555 1_555
C11 C10 1_555 1_555
H9 C11 1_555 1_555
C12 C7 1_555 1_555
H10 C12 1_555 1_555
C13 Si1 1_555 1_555
C14 C13 1_555 1_555
H11 C14 1_555 1_555
C15 C14 1_555 1_555
H12 C15 1_555 1_555
C16 C15 1_555 1_555
H13 C16 1_555 1_555
C17 C16 1_555 1_555
H14 C17 1_555 1_555
C18 C13 1_555 1_555
H15 C18 1_555 1_555
C19 O1 1_555 1_555
H16 C19 1_555 1_555
H17 C19 1_555 1_555
C20 C19 1_555 1_555
H18 C20 1_555 1_555
H19 C20 1_555 1_555
C21 C20 1_555 1_555
H20 C21 1_555 1_555
H21 C21 1_555 1_555
C22 O1 1_555 1_555
H22 C22 1_555 1_555
H23 C22 1_555 1_555
C23 O2 1_555 1_555
H24 C23 1_555 1_555
H25 C23 1_555 1_555
C24 C23 1_555 1_555
H26 C24 1_555 1_555
H27 C24 1_555 1_555
C25 C24 1_555 1_555
H28 C25 1_555 1_555
H29 C25 1_555 1_555
C26 O2 1_555 1_555
H30 C26 1_555 1_555
H31 C26 1_555 1_555
Si1B Ca1 1_555 1_555
O1B Ca1 1_555 1_555
O2B Ca1 1_555 1_555
C1B Si1B 1_555 1_555
C2B C1B 1_555 1_555
H1B C2B 1_555 1_555
C3B C2B 1_555 1_555
H2B C3B 1_555 1_555
C4B C3B 1_555 1_555
H3B C4B 1_555 1_555
C5B C4B 1_555 1_555
H4B C5B 1_555 1_555
C6B C1B 1_555 1_555
H5B C6B 1_555 1_555
C7B Si1B 1_555 1_555
C8B C7B 1_555 1_555
H6B C8B 1_555 1_555
C9B C8B 1_555 1_555
H7B C9B 1_555 1_555
C10B C9B 1_555 1_555
H8B C10B 1_555 1_555
C11B C10B 1_555 1_555
H9B C11B 1_555 1_555
C12B C7B 1_555 1_555
H10B C12B 1_555 1_555
C13B Si1B 1_555 1_555
C14B C13B 1_555 1_555
H11B C14B 1_555 1_555
C15B C14B 1_555 1_555
H12B C15B 1_555 1_555
C16B C15B 1_555 1_555
H13B C16B 1_555 1_555
C17B C16B 1_555 1_555
H14B C17B 1_555 1_555
C18B C13B 1_555 1_555
H15B C18B 1_555 1_555
C19B O1B 1_555 1_555
H16B C19B 1_555 1_555
H17B C19B 1_555 1_555
C20B C19B 1_555 1_555
H18B C20B 1_555 1_555
H19B C20B 1_555 1_555
C21B C20B 1_555 1_555
H20B C21B 1_555 1_555
H21B C21B 1_555 1_555
C22B O1B 1_555 1_555
H22B C22B 1_555 1_555
H23B C22B 1_555 1_555
C23B O2B 1_555 1_555
H24B C23B 1_555 1_555
H25B C23B 1_555 1_555
C24B C23B 1_555 1_555
H26B C24B 1_555 1_555
H27B C24B 1_555 1_555
C25B C24B 1_555 1_555
H28B C25B 1_555 1_555
H29B C25B 1_555 1_555
C26B O2B 1_555 1_555
H30B C26B 1_555 1_555
H31B C26B 1_555 1_555
C5 C6 1_555 1_555
C11 C12 1_555 1_555
C17 C18 1_555 1_555
C21 C22 1_555 1_555
C25 C26 1_555 1_555
C5B C6B 1_555 1_555
C11B C12B 1_555 1_555
C17B C18B 1_555 1_555
C21B C22B 1_555 1_555
C25B C26B 1_555 1_555

#END
