
#######################################################################
#
#                 Cambridge Crystallographic Data Centre
#                                CCDC 
#
#######################################################################
#
# If this CIF has been generated from an entry in the Cambridge 
# Structural Database, then it will include bibliographic, chemical, 
# crystal, experimental, refinement or atomic coordinate data resulting 
# from the CCDC's data processing and validation procedures.
#
#######################################################################

data_XIZWAG
_chemical_formula_moiety         'C48 H56 Ca1 O5 Si2'
_chemical_name_systematic        
(tetrahydrofuran)-(2,5,8,11-tetraoxadodecane)-bis(triphenylsilyl)-calcium
_symmetry_cell_setting           monoclinic
_symmetry_space_group_name_H-M   'P c'
_symmetry_Int_Tables_number      7
_space_group_name_Hall           'P -2yc'
loop_
_symmetry_equiv_pos_site_id
_symmetry_equiv_pos_as_xyz
1 x,y,z
2 x,-y,1/2+z
_cell_length_a                   9.408(3)
_cell_length_b                   15.948(5)
_cell_length_c                   14.884(3)
_cell_angle_alpha                90
_cell_angle_beta                 106.145(5)
_cell_angle_gamma                90
_cell_volume                     2145.1
_exptl_crystal_colour            colorless
_exptl_crystal_description       block
_cell_formula_units_Z            2
_chemical_properties_physical    
'Air-sensitive, Moisture-sensitive, Hygroscropic'
loop_
_atom_site_label
_atom_site_type_symbol
_atom_site_fract_x
_atom_site_fract_y
_atom_site_fract_z
Ca1 Ca 0.80822(16) 0.24686(10) 0.22923(11)
Si1 Si 0.8559(2) 0.31335(12) 0.03862(12)
Si2 Si 0.7703(2) 0.17988(13) 0.42691(13)
O1 O 0.8022(5) 0.3982(3) 0.2696(3)
O2 O 0.5570(5) 0.3078(3) 0.1882(3)
O3 O 0.6135(5) 0.1565(3) 0.1298(3)
O4 O 0.8872(6) 0.1027(3) 0.2084(3)
O5 O 1.0690(5) 0.2662(4) 0.2970(3)
C1 C 0.9175(9) 0.4437(5) 0.3351(5)
H1 H 0.9065 0.5038 0.3209
H2 H 1.0141 0.4245 0.3303
H3 H 0.9104 0.4339 0.3987
C2 C 0.6600(9) 0.4322(5) 0.2623(5)
H4 H 0.6634 0.4940 0.2574
H5 H 0.6296 0.4180 0.3190
C3 C 0.5521(9) 0.3981(5) 0.1793(5)
H6 H 0.4517 0.4190 0.1757
H7 H 0.5778 0.4153 0.1218
C4 C 0.4431(9) 0.2669(6) 0.1174(5)
H8 H 0.4490 0.2841 0.0546
H9 H 0.3446 0.2831 0.1235
C5 C 0.4639(9) 0.1733(5) 0.1290(6)
H10 H 0.4458 0.1548 0.1884
H11 H 0.3943 0.1435 0.0766
C6 C 0.6402(10) 0.0693(5) 0.1242(6)
H12 H 0.5751 0.0457 0.0656
H13 H 0.6209 0.0395 0.1779
C7 C 0.7986(10) 0.0603(5) 0.1257(5)
H14 H 0.8260 0.0003 0.1275
H15 H 0.8155 0.0858 0.0688
C8 C 1.0305(11) 0.0683(6) 0.2447(6)
H16 H 1.0222 0.0095 0.2618
H17 H 1.0841 0.1000 0.3002
H18 H 1.0844 0.0716 0.1971
C9 C 0.9789(8) 0.4108(5) 0.0527(5)
C10 C 1.1049(8) 0.4183(5) 0.0198(5)
H19 H 1.1281 0.3742 -0.0167
C11 C 1.1976(8) 0.4893(5) 0.0393(5)
H20 H 1.2820 0.4923 0.0162
C12 C 1.1659(9) 0.5546(5) 0.0920(5)
H21 H 1.2291 0.6021 0.1056
C13 C 1.0427(9) 0.5505(5) 0.1246(5)
H22 H 1.0199 0.5958 0.1597
C14 C 0.9516(8) 0.4802(5) 0.1062(4)
H23 H 0.8680 0.4783 0.1302
C15 C 0.6657(7) 0.3488(5) -0.0432(4)
C16 C 0.6190(8) 0.4314(5) -0.0588(5)
H24 H 0.6861 0.4757 -0.0343
C17 C 0.4745(9) 0.4499(6) -0.1101(6)
H25 H 0.4449 0.5069 -0.1184
C18 C 0.3738(9) 0.3892(6) -0.1488(5)
H26 H 0.2757 0.4031 -0.1835
C19 C 0.4197(9) 0.3075(6) -0.1358(5)
H27 H 0.3530 0.2636 -0.1623
C20 C 0.5633(8) 0.2883(5) -0.0839(5)
H28 H 0.5920 0.2311 -0.0763
C21 C 0.9324(8) 0.2499(4) -0.0473(5)
C22 C 0.8961(9) 0.2687(5) -0.1428(5)
H29 H 0.8260 0.3118 -0.1666
C23 C 0.9585(10) 0.2268(6) -0.2040(5)
H30 H 0.9312 0.2413 -0.2684
C24 C 1.0599(9) 0.1641(5) -0.1713(6)
H31 H 1.1036 0.1354 -0.2129
C25 C 1.0968(9) 0.1435(5) -0.0797(6)
H32 H 1.1679 0.1007 -0.0569
C26 C 1.0317(8) 0.1846(4) -0.0176(5)
H33 H 1.0562 0.1674 0.0460
C27 C 0.6489(8) 0.0808(5) 0.4020(5)
C28 C 0.5004(8) 0.0811(5) 0.4081(5)
H34 H 0.4621 0.1300 0.4294
C29 C 0.4108(9) 0.0108(6) 0.3831(6)
H35 H 0.3111 0.0134 0.3858
C30 C 0.4622(10) -0.0621(6) 0.3549(6)
H36 H 0.4019 -0.1108 0.3417
C31 C 0.6036(10) -0.0624(5) 0.3464(5)
H37 H 0.6401 -0.1117 0.3245
C32 C 0.6941(9) 0.0067(5) 0.3688(5)
H38 H 0.7910 0.0037 0.3613
C33 C 0.6909(8) 0.2408(5) 0.5140(5)
C34 C 0.6816(8) 0.3275(5) 0.5149(5)
H39 H 0.7125 0.3581 0.4689
C35 C 0.6298(9) 0.3720(5) 0.5793(5)
H40 H 0.6285 0.4315 0.5774
C36 C 0.5804(8) 0.3309(5) 0.6455(5)
H41 H 0.5393 0.3612 0.6873
C37 C 0.5913(10) 0.2457(5) 0.6504(6)
H42 H 0.5628 0.2166 0.6983
C38 C 0.6437(8) 0.2010(5) 0.5861(5)
H43 H 0.6481 0.1416 0.5905
C39 C 0.9561(8) 0.1449(5) 0.5125(5)
C40 C 1.0370(9) 0.2036(6) 0.5725(5)
H44 H 0.9911 0.2556 0.5780
C41 C 1.1854(10) 0.1911(6) 0.6269(5)
H45 H 1.2374 0.2340 0.6672
C42 C 1.2529(9) 0.1148(6) 0.6198(5)
H46 H 1.3540 0.1054 0.6520
C43 C 1.1728(9) 0.0557(6) 0.5671(6)
H47 H 1.2151 0.0016 0.5675
C44 C 1.0291(9) 0.0689(5) 0.5109(6)
H48 H 0.9799 0.0254 0.4706
C45 C 1.1810(10) 0.2763(8) 0.2515(6)
H49 H 1.2047 0.2213 0.2283
H50 H 1.1461 0.3143 0.1973
C46 C 1.3081(12) 0.3099(8) 0.3144(6)
H51 H 1.3272 0.3668 0.2939
H52 H 1.3948 0.2742 0.3156
C47 C 1.2862(8) 0.3139(5) 0.4093(5)
H53 H 1.2742 0.3725 0.4280
H54 H 1.3699 0.2877 0.4566
C48 C 1.1464(9) 0.2648(5) 0.3971(5)
H55 H 1.1693 0.2064 0.4189
H56 H 1.0843 0.2905 0.4336
loop_
_geom_bond_atom_site_label_1
_geom_bond_atom_site_label_2
_geom_bond_site_symmetry_1
_geom_bond_site_symmetry_2
Ca1 Si1 1_555 1_555
Si1 C9 1_555 1_555
Si2 Ca1 1_555 1_555
O1 Ca1 1_555 1_555
O2 Ca1 1_555 1_555
O3 Ca1 1_555 1_555
O4 Ca1 1_555 1_555
O5 Ca1 1_555 1_555
C1 O1 1_555 1_555
H1 C1 1_555 1_555
H2 C1 1_555 1_555
H3 C1 1_555 1_555
C2 O1 1_555 1_555
H4 C2 1_555 1_555
H5 C2 1_555 1_555
C3 O2 1_555 1_555
H6 C3 1_555 1_555
H7 C3 1_555 1_555
C4 O2 1_555 1_555
H8 C4 1_555 1_555
H9 C4 1_555 1_555
C5 O3 1_555 1_555
H10 C5 1_555 1_555
H11 C5 1_555 1_555
C6 O3 1_555 1_555
H12 C6 1_555 1_555
H13 C6 1_555 1_555
C7 O4 1_555 1_555
H14 C7 1_555 1_555
H15 C7 1_555 1_555
C8 O4 1_555 1_555
H16 C8 1_555 1_555
H17 C8 1_555 1_555
H18 C8 1_555 1_555
C9 C10 1_555 1_555
C10 H19 1_555 1_555
C11 C10 1_555 1_555
H20 C11 1_555 1_555
C12 C11 1_555 1_555
H21 C12 1_555 1_555
C13 C12 1_555 1_555
H22 C13 1_555 1_555
C14 C9 1_555 1_555
H23 C14 1_555 1_555
C15 Si1 1_555 1_555
C16 C15 1_555 1_555
H24 C16 1_555 1_555
C17 C16 1_555 1_555
H25 C17 1_555 1_555
C18 C17 1_555 1_555
H26 C18 1_555 1_555
C19 C18 1_555 1_555
H27 C19 1_555 1_555
C20 C15 1_555 1_555
H28 C20 1_555 1_555
C21 Si1 1_555 1_555
C22 C21 1_555 1_555
H29 C22 1_555 1_555
C23 C22 1_555 1_555
H30 C23 1_555 1_555
C24 C23 1_555 1_555
H31 C24 1_555 1_555
C25 C24 1_555 1_555
H32 C25 1_555 1_555
C26 C21 1_555 1_555
H33 C26 1_555 1_555
C27 Si2 1_555 1_555
C28 C27 1_555 1_555
H34 C28 1_555 1_555
C29 C28 1_555 1_555
H35 C29 1_555 1_555
C30 C29 1_555 1_555
H36 C30 1_555 1_555
C31 C30 1_555 1_555
H37 C31 1_555 1_555
C32 C27 1_555 1_555
H38 C32 1_555 1_555
C33 Si2 1_555 1_555
C34 C33 1_555 1_555
H39 C34 1_555 1_555
C35 C34 1_555 1_555
H40 C35 1_555 1_555
C36 C35 1_555 1_555
H41 C36 1_555 1_555
C37 C36 1_555 1_555
H42 C37 1_555 1_555
C38 C33 1_555 1_555
H43 C38 1_555 1_555
C39 Si2 1_555 1_555
C40 C39 1_555 1_555
H44 C40 1_555 1_555
C41 C40 1_555 1_555
H45 C41 1_555 1_555
C42 C41 1_555 1_555
H46 C42 1_555 1_555
C43 C42 1_555 1_555
H47 C43 1_555 1_555
C44 C39 1_555 1_555
H48 C44 1_555 1_555
C45 O5 1_555 1_555
H49 C45 1_555 1_555
H50 C45 1_555 1_555
C46 C45 1_555 1_555
H51 C46 1_555 1_555
H52 C46 1_555 1_555
C47 C46 1_555 1_555
H53 C47 1_555 1_555
H54 C47 1_555 1_555
C48 O5 1_555 1_555
H55 C48 1_555 1_555
H56 C48 1_555 1_555
C2 C3 1_555 1_555
C4 C5 1_555 1_555
C6 C7 1_555 1_555
C13 C14 1_555 1_555
C19 C20 1_555 1_555
C25 C26 1_555 1_555
C31 C32 1_555 1_555
C37 C38 1_555 1_555
C43 C44 1_555 1_555
C47 C48 1_555 1_555

#END
