
#######################################################################
#
#                 Cambridge Crystallographic Data Centre
#                                CCDC 
#
#######################################################################
#
# If this CIF has been generated from an entry in the Cambridge 
# Structural Database, then it will include bibliographic, chemical, 
# crystal, experimental, refinement or atomic coordinate data resulting 
# from the CCDC's data processing and validation procedures.
#
#######################################################################

data_XIZZEO
_chemical_formula_moiety         'C23 H16 F3 N1 O1'
_chemical_name_systematic        
4-[(9H-fluoren-9-yl)amino]-1,1,1-trifluoro-4-phenylbut-3-en-2-one
_symmetry_cell_setting           monoclinic
_symmetry_space_group_name_H-M   'P 21/n'
_symmetry_Int_Tables_number      14
_space_group_name_Hall           '-P 2yn'
loop_
_symmetry_equiv_pos_site_id
_symmetry_equiv_pos_as_xyz
1 x,y,z
2 1/2-x,1/2+y,1/2-z
3 -x,-y,-z
4 1/2+x,1/2-y,1/2+z
_cell_length_a                   9.2791(6)
_cell_length_b                   21.0315(14)
_cell_length_c                   19.2137(12)
_cell_angle_alpha                90
_cell_angle_beta                 92.2310(10)
_cell_angle_gamma                90
_cell_volume                     3746.78
_cell_formula_units_Z            8
loop_
_atom_site_label
_atom_site_type_symbol
_atom_site_fract_x
_atom_site_fract_y
_atom_site_fract_z
F1 F 0.3682(4) 0.34138(10) 0.62659(14)
F2 F 0.2769(3) 0.29903(13) 0.54187(16)
F3 F 0.4947(2) 0.31873(11) 0.54615(13)
O1 O 0.30776(16) 0.20812(8) 0.63924(9)
N1 N 0.49735(17) 0.11996(8) 0.68405(9)
H1 H 0.4164 0.1389 0.6895
C1 C 0.9545(3) 0.11479(15) 0.58088(16)
H2 H 0.9976 0.1152 0.5380
C2 C 1.0324(3) 0.09637(14) 0.63934(17)
H3 H 1.1284 0.0844 0.6362
C3 C 0.9695(2) 0.09562(14) 0.70171(15)
H4 H 1.0229 0.0834 0.7414
C4 C 0.8267(2) 0.11286(12) 0.70689(13)
H5 H 0.7843 0.1118 0.7499
C5 C 0.7469(2) 0.13159(10) 0.64850(11)
C6 C 0.8127(3) 0.13275(13) 0.58524(13)
H6 H 0.7607 0.1457 0.5454
C7 C 0.5954(2) 0.15368(10) 0.65152(11)
C8 C 0.5567(2) 0.21101(10) 0.62005(11)
H7 H 0.6286 0.2353 0.6007
C9 C 0.4163(2) 0.23379(10) 0.61608(11)
C10 C 0.3900(3) 0.29767(13) 0.58161(15)
C11 C 0.2697(3) -0.04362(14) 0.58576(19)
H8 H 0.2533 -0.0525 0.5387
C12 C 0.1863(3) -0.07228(13) 0.6345(2)
H9 H 0.1138 -0.1003 0.6197
C13 C 0.2079(3) -0.06044(11) 0.70425(18)
H10 H 0.1518 -0.0806 0.7367
C14 C 0.3150(2) -0.01795(10) 0.72561(14)
C15 C 0.3604(2) 0.00554(10) 0.79485(13)
C16 C 0.3142(3) -0.00941(13) 0.86064(15)
H11 H 0.2429 -0.0399 0.8662
C17 C 0.3759(3) 0.02166(14) 0.91792(16)
H12 H 0.3464 0.0116 0.9623
C18 C 0.4795(3) 0.06687(13) 0.90993(14)
H13 H 0.5184 0.0877 0.9490
C19 C 0.5276(2) 0.08227(11) 0.84491(13)
H14 H 0.5980 0.1132 0.8400
C20 C 0.4690(2) 0.05073(10) 0.78731(12)
C21 C 0.5072(2) 0.05542(9) 0.71180(11)
H15 H 0.6049 0.0389 0.7062
C22 C 0.3989(2) 0.01121(10) 0.67630(13)
C23 C 0.3785(3) -0.00138(12) 0.60668(14)
H16 H 0.4361 0.0178 0.5741
F4 F 0.9321(3) 0.02307(8) 0.88196(12)
F5 F 0.82675(18) 0.06647(9) 0.96407(12)
F6 F 1.05101(17) 0.05489(8) 0.96969(10)
O2 O 0.84330(15) 0.15748(7) 0.86776(8)
N2 N 1.01766(17) 0.25004(8) 0.82777(9)
H17 H 0.9400 0.2297 0.8162
C24 C 0.8239(4) 0.3847(2) 0.6229(2)
H18 H 0.7800 0.4017 0.5827
C25 C 0.9288(4) 0.3381(2) 0.61747(16)
H19 H 0.9539 0.3240 0.5737
C26 C 0.9968(3) 0.31224(15) 0.67675(14)
H20 H 1.0665 0.2807 0.6734
C27 C 0.9577(2) 0.33473(10) 0.74039(12)
C28 C 1.0179(2) 0.31762(9) 0.81206(11)
H21 H 1.1166 0.3338 0.8176
C29 C 0.9215(2) 0.35482(10) 0.85916(12)
C30 C 0.9172(3) 0.35324(13) 0.93080(14)
H22 H 0.9796 0.3270 0.9566
C31 C 0.8197(4) 0.39090(18) 0.96363(19)
H23 H 0.8149 0.3897 1.0119
C32 C 0.7303(4) 0.42999(16) 0.9257(3)
H24 H 0.6663 0.4557 0.9488
C33 C 0.7315(3) 0.43272(12) 0.8538(2)
H25 H 0.6699 0.4599 0.8286
C34 C 0.8288(2) 0.39316(10) 0.81996(14)
C35 C 0.8512(2) 0.38117(11) 0.74611(14)
C36 C 0.7844(3) 0.40597(16) 0.6865(2)
H26 H 0.7133 0.4369 0.6897
C37 C 1.4911(3) 0.25921(13) 0.92944(16)
H27 H 1.5404 0.2607 0.9725
C38 C 1.5609(3) 0.27454(12) 0.87013(18)
H28 H 1.6583 0.2850 0.8728
C39 C 1.4876(3) 0.27441(13) 0.80715(16)
H29 H 1.5349 0.2859 0.7672
C40 C 1.3435(2) 0.25738(11) 0.80217(13)
H30 H 1.2940 0.2573 0.7591
C41 C 1.27356(19) 0.24041(9) 0.86183(11)
C42 C 1.3475(2) 0.24157(12) 0.92521(13)
H31 H 1.3008 0.2304 0.9654
C43 C 0.9415(3) 0.06926(11) 0.92708(15)
C44 C 0.9567(2) 0.13276(9) 0.89059(11)
C45 C 1.0963(2) 0.15697(9) 0.88609(11)
H32 H 1.1738 0.1325 0.9027
C46 C 1.1231(2) 0.21591(9) 0.85786(10)
loop_
_geom_bond_atom_site_label_1
_geom_bond_atom_site_label_2
_geom_bond_site_symmetry_1
_geom_bond_site_symmetry_2
F1 C10 1_555 1_555
F2 C10 1_555 1_555
F3 C10 1_555 1_555
O1 C9 1_555 1_555
N1 H1 1_555 1_555
C1 H2 1_555 1_555
C2 C1 1_555 1_555
H3 C2 1_555 1_555
C3 C2 1_555 1_555
H4 C3 1_555 1_555
C4 C3 1_555 1_555
H5 C4 1_555 1_555
C5 C4 1_555 1_555
C6 C1 1_555 1_555
H6 C6 1_555 1_555
C7 N1 1_555 1_555
C8 C7 1_555 1_555
H7 C8 1_555 1_555
C9 C8 1_555 1_555
C10 C9 1_555 1_555
C11 H8 1_555 1_555
C12 C11 1_555 1_555
H9 C12 1_555 1_555
C13 C12 1_555 1_555
H10 C13 1_555 1_555
C14 C13 1_555 1_555
C15 C14 1_555 1_555
C16 C15 1_555 1_555
H11 C16 1_555 1_555
C17 C16 1_555 1_555
H12 C17 1_555 1_555
C18 C17 1_555 1_555
H13 C18 1_555 1_555
C19 C18 1_555 1_555
H14 C19 1_555 1_555
C20 C15 1_555 1_555
C21 N1 1_555 1_555
H15 C21 1_555 1_555
C22 C14 1_555 1_555
C23 C11 1_555 1_555
H16 C23 1_555 1_555
F4 C43 1_555 1_555
F5 C43 1_555 1_555
F6 C43 1_555 1_555
O2 C44 1_555 1_555
N2 H17 1_555 1_555
C24 H18 1_555 1_555
C25 C24 1_555 1_555
H19 C25 1_555 1_555
C26 C25 1_555 1_555
H20 C26 1_555 1_555
C27 C26 1_555 1_555
C28 N2 1_555 1_555
H21 C28 1_555 1_555
C29 C28 1_555 1_555
C30 C29 1_555 1_555
H22 C30 1_555 1_555
C31 C30 1_555 1_555
H23 C31 1_555 1_555
C32 C31 1_555 1_555
H24 C32 1_555 1_555
C33 C32 1_555 1_555
H25 C33 1_555 1_555
C34 C29 1_555 1_555
C35 C27 1_555 1_555
C36 C24 1_555 1_555
H26 C36 1_555 1_555
C37 H27 1_555 1_555
C38 C37 1_555 1_555
H28 C38 1_555 1_555
C39 C38 1_555 1_555
H29 C39 1_555 1_555
C40 C39 1_555 1_555
H30 C40 1_555 1_555
C41 C40 1_555 1_555
C42 C37 1_555 1_555
H31 C42 1_555 1_555
C43 C44 1_555 1_555
C44 C45 1_555 1_555
C45 H32 1_555 1_555
C46 N2 1_555 1_555
C5 C6 1_555 1_555
C5 C7 1_555 1_555
C19 C20 1_555 1_555
C20 C21 1_555 1_555
C21 C22 1_555 1_555
C22 C23 1_555 1_555
C27 C28 1_555 1_555
C33 C34 1_555 1_555
C34 C35 1_555 1_555
C35 C36 1_555 1_555
C41 C42 1_555 1_555
C41 C46 1_555 1_555
C45 C46 1_555 1_555

#END
