
#######################################################################
#
#                 Cambridge Crystallographic Data Centre
#                                CCDC 
#
#######################################################################
#
# If this CIF has been generated from an entry in the Cambridge 
# Structural Database, then it will include bibliographic, chemical, 
# crystal, experimental, refinement or atomic coordinate data resulting 
# from the CCDC's data processing and validation procedures.
#
#######################################################################

data_XNAPAC11
_chemical_formula_moiety         'C11 H8 O3'
_chemical_name_systematic        '1-hydroxy-2-naphthoic acid'
_symmetry_cell_setting           monoclinic
_symmetry_space_group_name_H-M   'P 21/n'
_symmetry_Int_Tables_number      14
_space_group_name_Hall           '-P 2yn'
loop_
_symmetry_equiv_pos_site_id
_symmetry_equiv_pos_as_xyz
1 x,y,z
2 1/2-x,1/2+y,1/2-z
3 -x,-y,-z
4 1/2+x,1/2-y,1/2+z
_cell_length_a                   6.9798(9)
_cell_length_b                   3.8107(6)
_cell_length_c                   32.790(5)
_cell_angle_alpha                90
_cell_angle_beta                 93.901(8)
_cell_angle_gamma                90
_cell_volume                     870.125
_exptl_crystal_colour            colorless
_exptl_crystal_description       columnar
_cell_formula_units_Z            4
loop_
_atom_site_label
_atom_site_type_symbol
_atom_site_fract_x
_atom_site_fract_y
_atom_site_fract_z
O1 O 0.25506(17) 0.8378(3) 0.99359(4)
H1 H 0.346(3) 0.937(5) 1.0124(7)
O2 O 0.48854(16) 0.8996(3) 0.95134(3)
O3 O 0.42771(17) 0.6877(3) 0.87621(4)
H2 H 0.493(3) 0.780(5) 0.8993(7)
C1 C 0.3227(2) 0.8048(4) 0.95749(5)
C2 C 0.1919(2) 0.6527(3) 0.92614(5)
C3 C 0.0036(2) 0.5550(4) 0.93476(5)
H3 H -0.0371 0.5907 0.9609
C4 C -0.1183(2) 0.4107(4) 0.90569(5)
H4 H -0.2414 0.3479 0.9121
C5 C -0.0614(2) 0.3540(3) 0.86576(5)
C6 C -0.1863(3) 0.2058(4) 0.83462(6)
H5 H -0.3104 0.1427 0.8403
C7 C -0.1271(3) 0.1547(4) 0.79662(6)
H6 H -0.2113 0.0571 0.7765
C8 C 0.1249(2) 0.4484(3) 0.85586(5)
C9 C 0.1826(3) 0.3905(4) 0.81634(5)
H7 H 0.3062 0.4504 0.8099
C10 C 0.0574(3) 0.2457(5) 0.78713(5)
H8 H 0.0958 0.2083 0.7609
C11 C 0.2516(2) 0.6003(3) 0.88710(5)
loop_
_geom_bond_atom_site_label_1
_geom_bond_atom_site_label_2
_geom_bond_site_symmetry_1
_geom_bond_site_symmetry_2
O1 H1 1_555 1_555
O2 C1 1_555 1_555
O3 H2 1_555 1_555
C1 O1 1_555 1_555
C2 C1 1_555 1_555
C3 C2 1_555 1_555
H3 C3 1_555 1_555
C4 C3 1_555 1_555
H4 C4 1_555 1_555
C5 C4 1_555 1_555
C6 C5 1_555 1_555
H5 C6 1_555 1_555
C7 C6 1_555 1_555
H6 C7 1_555 1_555
C8 C5 1_555 1_555
C9 C8 1_555 1_555
H7 C9 1_555 1_555
C10 C7 1_555 1_555
H8 C10 1_555 1_555
C11 O3 1_555 1_555
C2 C11 1_555 1_555
C8 C11 1_555 1_555
C9 C10 1_555 1_555

#END
