
#######################################################################
#
#                 Cambridge Crystallographic Data Centre
#                                CCDC 
#
#######################################################################
#
# If this CIF has been generated from an entry in the Cambridge 
# Structural Database, then it will include bibliographic, chemical, 
# crystal, experimental, refinement or atomic coordinate data resulting 
# from the CCDC's data processing and validation procedures.
#
#######################################################################

data_XOBCAT01
_chemical_name_common            'Caffeine salicylic acid'
_chemical_formula_moiety         'C8 H10 N4 O2,C7 H6 O3'
_chemical_name_systematic        
'2-Hydroxybenzoic acid 1,3,7-trimethyl-3,7-dihydro-1H-purine-2,6-dione'
_symmetry_cell_setting           monoclinic
_symmetry_space_group_name_H-M   'P 21/c'
_symmetry_Int_Tables_number      14
_space_group_name_Hall           '-P 2ybc'
loop_
_symmetry_equiv_pos_site_id
_symmetry_equiv_pos_as_xyz
1 x,y,z
2 -x,1/2+y,1/2-z
3 -x,-y,-z
4 x,1/2-y,1/2+z
_cell_length_a                   14.771(3)
_cell_length_b                   7.0212(14)
_cell_length_c                   16.209(3)
_cell_angle_alpha                90
_cell_angle_beta                 117.194(3)
_cell_angle_gamma                90
_cell_volume                     1495.22
_exptl_crystal_colour            colorless
_exptl_crystal_description       rod
_cell_formula_units_Z            4
_exptl_crystal_recrystallization_method acetonitrile
loop_
_atom_site_label
_atom_site_type_symbol
_atom_site_fract_x
_atom_site_fract_y
_atom_site_fract_z
O1 O 0.40525(9) 0.53252(18) 1.08893(9)
O2 O 0.18107(11) 0.4406(2) 0.78182(8)
N1 N 0.23065(10) 0.3925(2) 1.12969(9)
N2 N 0.08231(10) 0.3043(2) 1.01330(9)
N3 N 0.28972(10) 0.4926(2) 0.93498(9)
N4 N 0.12271(10) 0.3737(2) 0.88668(9)
C1 C 0.30876(14) 0.4334(3) 1.22391(11)
H1 H 0.2838 0.3999 1.2673
H2 H 0.3250 0.5666 1.2295
H3 H 0.3688 0.3604 1.2369
C2 C 0.13781(12) 0.3212(2) 1.10508(11)
H4 H 0.1144 0.2869 1.1474
C3 C 0.14511(12) 0.3682(2) 0.97860(11)
C4 C 0.23739(12) 0.4240(2) 1.04812(10)
C5 C 0.31967(12) 0.4882(2) 1.03130(11)
C6 C 0.36594(14) 0.5581(3) 0.90652(13)
H5 H 0.3958 0.4500 0.8919
H6 H 0.4181 0.6288 0.9562
H7 H 0.3337 0.6382 0.8528
C7 C 0.19607(13) 0.4357(2) 0.86229(11)
C8 C 0.02272(13) 0.3106(3) 0.81523(12)
H8 H 0.0092 0.1844 0.8296
H9 H 0.0225 0.3100 0.7559
H10 H -0.0289 0.3961 0.8135
O3 O -0.10755(9) 0.18804(19) 0.93555(8)
H11 H -0.041(2) 0.226(4) 0.9640(17)
O4 O -0.08234(9) 0.1703(2) 1.08227(8)
O5 O -0.22595(10) 0.0447(2) 1.11618(9)
H12 H -0.1686 0.0822 1.1283
C9 C -0.24296(12) 0.0752(2) 0.96096(11)
C10 C -0.28183(13) 0.0280(2) 1.02324(12)
C11 C -0.30473(13) 0.0535(2) 0.86544(12)
H13 H -0.2790 0.0835 0.8243
C12 C -0.38118(14) -0.0411(3) 0.98860(14)
H14 H -0.4073 -0.0741 1.0291
C13 C -0.40377(13) -0.0122(3) 0.83161(13)
H15 H -0.4451 -0.0240 0.7681
C14 C -0.13730(12) 0.1482(2) 0.99815(11)
C15 C -0.44048(14) -0.0603(3) 0.89416(14)
H16 H -0.5065 -0.1064 0.8717
loop_
_geom_bond_atom_site_label_1
_geom_bond_atom_site_label_2
_geom_bond_site_symmetry_1
_geom_bond_site_symmetry_2
O1 C5 1_555 1_555
O2 C7 1_555 1_555
N1 C1 1_555 1_555
N2 C2 1_555 1_555
N3 C5 1_555 1_555
N4 C3 1_555 1_555
C1 H1 1_555 1_555
H2 C1 1_555 1_555
H3 C1 1_555 1_555
C2 N1 1_555 1_555
H4 C2 1_555 1_555
C3 N2 1_555 1_555
C4 N1 1_555 1_555
C5 C4 1_555 1_555
C6 N3 1_555 1_555
H5 C6 1_555 1_555
H6 C6 1_555 1_555
H7 C6 1_555 1_555
C7 N3 1_555 1_555
C8 N4 1_555 1_555
H8 C8 1_555 1_555
H9 C8 1_555 1_555
H10 C8 1_555 1_555
O3 H11 1_555 1_555
O4 C14 1_555 1_555
O5 H12 1_555 1_555
C9 C10 1_555 1_555
C10 O5 1_555 1_555
C11 C9 1_555 1_555
H13 C11 1_555 1_555
C12 C10 1_555 1_555
H14 C12 1_555 1_555
C13 C11 1_555 1_555
H15 C13 1_555 1_555
C14 O3 1_555 1_555
C15 C12 1_555 1_555
H16 C15 1_555 1_555
N4 C7 1_555 1_555
C3 C4 1_555 1_555
C9 C14 1_555 1_555
C13 C15 1_555 1_555

#END
