
#######################################################################
#
#                 Cambridge Crystallographic Data Centre
#                                CCDC 
#
#######################################################################
#
# If this CIF has been generated from an entry in the Cambridge 
# Structural Database, then it will include bibliographic, chemical, 
# crystal, experimental, refinement or atomic coordinate data resulting 
# from the CCDC's data processing and validation procedures.
#
#######################################################################

data_XOBDID
_chemical_formula_moiety         'C38 H34 B1 F2 N3'
_chemical_name_systematic        
5,5-Difluoro-1,9-dimesityl-3,7-diphenyl-5H-6\l^5^,5\l^5^-dipyrrolo[1,2-c:2',1'-f][1,3,5,2]triazaborinine
_symmetry_cell_setting           orthorhombic
_symmetry_space_group_name_H-M   'P b c n'
_symmetry_Int_Tables_number      60
_space_group_name_Hall           '-P 2n 2ab'
loop_
_symmetry_equiv_pos_site_id
_symmetry_equiv_pos_as_xyz
1 x,y,z
2 1/2-x,1/2-y,1/2+z
3 -x,y,1/2-z
4 1/2+x,1/2-y,-z
5 -x,-y,-z
6 1/2+x,1/2+y,1/2-z
7 x,-y,1/2+z
8 1/2-x,1/2+y,z
_cell_length_a                   10.9911(9)
_cell_length_b                   12.4442(10)
_cell_length_c                   45.831(4)
_cell_angle_alpha                90
_cell_angle_beta                 90
_cell_angle_gamma                90
_cell_volume                     6268.56
_exptl_crystal_colour            colorless
_exptl_crystal_description       block
_cell_formula_units_Z            8
loop_
_atom_site_label
_atom_site_type_symbol
_atom_site_fract_x
_atom_site_fract_y
_atom_site_fract_z
B1 B 0.4843(2) 0.2722(2) 0.17378(6)
C1 C 0.7184(2) 0.32723(19) 0.17274(5)
F1 F 0.44732(12) 0.37679(11) 0.17766(3)
N1 N 0.61857(16) 0.27385(15) 0.16255(4)
C2 C 0.8160(2) 0.3116(2) 0.15277(5)
H1 H 0.8941 0.3394 0.1548
F2 F 0.47324(12) 0.21636(12) 0.19951(3)
N2 N 0.57693(17) 0.17637(15) 0.11804(4)
C3 C 0.7769(2) 0.24938(19) 0.13010(5)
N3 N 0.40952(16) 0.21411(14) 0.15017(4)
C4 C 0.6524(2) 0.22712(18) 0.13596(5)
C5 C 0.4600(2) 0.16953(18) 0.12499(5)
C6 C 0.3691(2) 0.11284(19) 0.10923(5)
C7 C 0.2660(2) 0.12053(19) 0.12602(5)
H2 H 0.1914 0.0891 0.1217
C8 C 0.2906(2) 0.18330(18) 0.15084(5)
C9 C 0.7247(2) 0.39344(19) 0.19897(5)
C10 C 0.6610(2) 0.3726(2) 0.22449(5)
H3 H 0.6092 0.3137 0.2254
C11 C 0.6736(2) 0.4382(2) 0.24846(6)
H4 H 0.6303 0.4231 0.2654
C12 C 0.7493(3) 0.5257(2) 0.24757(6)
H5 H 0.7568 0.5704 0.2637
C13 C 0.8139(3) 0.5467(2) 0.22264(7)
H6 H 0.8659 0.6057 0.2220
C14 C 0.8026(2) 0.4815(2) 0.19859(6)
H7 H 0.8475 0.4964 0.1819
C15 C 0.8455(2) 0.2116(2) 0.10427(5)
C16 C 0.9005(2) 0.1109(2) 0.10461(5)
C17 C 0.9656(2) 0.0773(2) 0.08039(6)
H8 H 1.0037 0.0106 0.0809
C18 C 0.9758(2) 0.1390(3) 0.05578(6)
C19 C 0.9196(3) 0.2370(3) 0.05567(6)
H9 H 0.9248 0.2794 0.0390
C20 C 0.8549(2) 0.2756(2) 0.07950(6)
C21 C 0.8886(3) 0.0388(2) 0.13065(6)
H10 H 0.9140 0.0767 0.1478
H11 H 0.9390 -0.0235 0.1280
H12 H 0.8054 0.0169 0.1328
C22 C 1.0475(3) 0.1009(3) 0.02956(6)
H13 H 1.0489 0.0238 0.0293
H14 H 1.1292 0.1277 0.0307
H15 H 1.0098 0.1270 0.0120
C23 C 0.7976(4) 0.3857(3) 0.07820(7)
H16 H 0.7161 0.3822 0.0857
H17 H 0.7955 0.4100 0.0583
H18 H 0.8446 0.4350 0.0897
C24 C 0.3755(2) 0.0606(2) 0.08020(5)
C25 C 0.3469(2) -0.0481(2) 0.07756(6)
C26 C 0.3335(2) -0.0920(3) 0.05003(7)
H19 H 0.3160 -0.1649 0.0485
C27 C 0.3450(3) -0.0330(3) 0.02501(7)
C28 C 0.3802(2) 0.0720(3) 0.02803(6)
H20 H 0.3929 0.1125 0.0112
C29 C 0.3979(2) 0.1210(2) 0.05500(6)
C30 C 0.3336(3) -0.1188(2) 0.10406(7)
H21 H 0.3901 -0.0962 0.1188
H22 H 0.3500 -0.1921 0.0988
H23 H 0.2521 -0.1132 0.1115
C31 C 0.3165(3) -0.0811(3) -0.00456(6)
H24 H 0.3337 -0.1567 -0.0042
H25 H 0.3656 -0.0470 -0.0192
H26 H 0.2320 -0.0702 -0.0090
C32 C 0.4408(3) 0.2364(2) 0.05641(6)
H27 H 0.3974 0.2735 0.0715
H28 H 0.4258 0.2708 0.0380
H29 H 0.5263 0.2380 0.0606
C33 C 0.2001(2) 0.2106(2) 0.17315(5)
C34 C 0.1197(2) 0.1317(2) 0.18192(6)
H30 H 0.1281 0.0624 0.1746
C35 C 0.0278(3) 0.1535(3) 0.20122(7)
H31 H -0.0249 0.0991 0.2070
C36 C 0.0134(3) 0.2549(4) 0.21190(6)
H32 H -0.0494 0.2698 0.2249
C37 C 0.0916(3) 0.3350(3) 0.20354(7)
H33 H 0.0819 0.4041 0.2109
C38 C 0.1855(2) 0.3131(3) 0.18409(6)
H34 H 0.2384 0.3676 0.1785
loop_
_geom_bond_atom_site_label_1
_geom_bond_atom_site_label_2
_geom_bond_site_symmetry_1
_geom_bond_site_symmetry_2
B1 F1 1_555 1_555
C1 N1 1_555 1_555
N1 B1 1_555 1_555
C2 C1 1_555 1_555
H1 C2 1_555 1_555
F2 B1 1_555 1_555
N2 C4 1_555 1_555
C3 C2 1_555 1_555
N3 B1 1_555 1_555
C4 N1 1_555 1_555
C5 N2 1_555 1_555
C6 C5 1_555 1_555
C7 C6 1_555 1_555
H2 C7 1_555 1_555
C8 N3 1_555 1_555
C9 C1 1_555 1_555
C10 C9 1_555 1_555
H3 C10 1_555 1_555
C11 C10 1_555 1_555
H4 C11 1_555 1_555
C12 C11 1_555 1_555
H5 C12 1_555 1_555
C13 C12 1_555 1_555
H6 C13 1_555 1_555
C14 C9 1_555 1_555
H7 C14 1_555 1_555
C15 C3 1_555 1_555
C16 C15 1_555 1_555
C17 C16 1_555 1_555
H8 C17 1_555 1_555
C18 C17 1_555 1_555
C19 C18 1_555 1_555
H9 C19 1_555 1_555
C20 C15 1_555 1_555
C21 C16 1_555 1_555
H10 C21 1_555 1_555
H11 C21 1_555 1_555
H12 C21 1_555 1_555
C22 C18 1_555 1_555
H13 C22 1_555 1_555
H14 C22 1_555 1_555
H15 C22 1_555 1_555
C23 C20 1_555 1_555
H16 C23 1_555 1_555
H17 C23 1_555 1_555
H18 C23 1_555 1_555
C24 C6 1_555 1_555
C25 C24 1_555 1_555
C26 C25 1_555 1_555
H19 C26 1_555 1_555
C27 C26 1_555 1_555
C28 C27 1_555 1_555
H20 C28 1_555 1_555
C29 C24 1_555 1_555
C30 C25 1_555 1_555
H21 C30 1_555 1_555
H22 C30 1_555 1_555
H23 C30 1_555 1_555
C31 C27 1_555 1_555
H24 C31 1_555 1_555
H25 C31 1_555 1_555
H26 C31 1_555 1_555
C32 C29 1_555 1_555
H27 C32 1_555 1_555
H28 C32 1_555 1_555
H29 C32 1_555 1_555
C33 C8 1_555 1_555
C34 C33 1_555 1_555
H30 C34 1_555 1_555
C35 C34 1_555 1_555
H31 C35 1_555 1_555
C36 C35 1_555 1_555
H32 C36 1_555 1_555
C37 C36 1_555 1_555
H33 C37 1_555 1_555
C38 C33 1_555 1_555
H34 C38 1_555 1_555
C3 C4 1_555 1_555
N3 C5 1_555 1_555
C7 C8 1_555 1_555
C13 C14 1_555 1_555
C19 C20 1_555 1_555
C28 C29 1_555 1_555
C37 C38 1_555 1_555

#END
