
#######################################################################
#
#                 Cambridge Crystallographic Data Centre
#                                CCDC 
#
#######################################################################
#
# If this CIF has been generated from an entry in the Cambridge 
# Structural Database, then it will include bibliographic, chemical, 
# crystal, experimental, refinement or atomic coordinate data resulting 
# from the CCDC's data processing and validation procedures.
#
#######################################################################

data_XOBGAY
_chemical_formula_moiety         'C29 H20 N2'
_chemical_name_systematic        
1-Phenyl-2-(2-phenylvinyl)-1H-phenanthro[9,10-d]imidazole
_symmetry_cell_setting           orthorhombic
_symmetry_space_group_name_H-M   'P b c a'
_symmetry_Int_Tables_number      61
_space_group_name_Hall           '-P 2ac 2ab'
loop_
_symmetry_equiv_pos_site_id
_symmetry_equiv_pos_as_xyz
1 x,y,z
2 1/2-x,-y,1/2+z
3 1/2+x,1/2-y,-z
4 -x,1/2+y,1/2-z
5 -x,-y,-z
6 1/2+x,y,1/2-z
7 1/2-x,1/2+y,z
8 x,1/2-y,1/2+z
_cell_length_a                   15.2615(9)
_cell_length_b                   16.0717(7)
_cell_length_c                   16.9595(8)
_cell_angle_alpha                90
_cell_angle_beta                 90
_cell_angle_gamma                90
_cell_volume                     4159.8
_exptl_crystal_colour            yellow
_exptl_crystal_description       Block
_cell_formula_units_Z            8
loop_
_atom_site_label
_atom_site_type_symbol
_atom_site_fract_x
_atom_site_fract_y
_atom_site_fract_z
C1 C 0.88656(10) 0.28584(9) 0.13136(9)
C2 C 0.98008(10) 0.28933(8) 0.12801(8)
C3 C 1.03411(11) 0.22973(9) 0.09236(9)
H1 H 1.0088 0.1834 0.0687
C4 C 1.12311(11) 0.23830(11) 0.09157(11)
H2 H 1.1578 0.1981 0.0675
C5 C 1.16163(12) 0.30657(12) 0.12647(11)
H3 H 1.2223 0.3123 0.1261
C6 C 1.11059(12) 0.36566(11) 0.16149(11)
H4 H 1.1376 0.4114 0.1847
C7 C 1.01934(10) 0.35992(9) 0.16383(9)
C8 C 0.96625(11) 0.42422(9) 0.20203(9)
C9 C 1.00330(13) 0.49404(10) 0.23874(10)
H5 H 1.0640 0.4994 0.2404
C10 C 0.95247(14) 0.55427(11) 0.27209(10)
H6 H 0.9789 0.6001 0.2957
C11 C 0.86265(13) 0.54800(10) 0.27127(10)
H7 H 0.8286 0.5898 0.2936
C12 C 0.82339(12) 0.48025(9) 0.23753(10)
H8 H 0.7627 0.4756 0.2378
C13 C 0.87431(10) 0.41801(9) 0.20259(9)
C14 C 0.83599(10) 0.34615(9) 0.16649(9)
C15 C 0.74475(10) 0.25571(10) 0.12550(9)
C16 C 0.66552(11) 0.21045(10) 0.10774(10)
H9 H 0.6694 0.1646 0.0745
C17 C 0.58796(11) 0.23069(10) 0.13608(10)
H10 H 0.5858 0.2770 0.1690
C18 C 0.50514(10) 0.18822(9) 0.12137(9)
C19 C 0.49430(11) 0.12999(10) 0.06189(10)
H11 H 0.5410 0.1176 0.0287
C20 C 0.41532(13) 0.09042(11) 0.05139(13)
H12 H 0.4090 0.0515 0.0112
C21 C 0.34538(13) 0.10811(12) 0.10015(13)
H13 H 0.2922 0.0808 0.0933
C22 C 0.35462(12) 0.16596(12) 0.15853(12)
H14 H 0.3076 0.1782 0.1914
C23 C 0.43336(11) 0.20607(11) 0.16870(10)
H15 H 0.4386 0.2460 0.2081
C24 C 0.84433(10) 0.15100(9) 0.06351(9)
C25 C 0.83771(13) 0.07680(10) 0.10217(12)
H16 H 0.8218 0.0753 0.1551
C26 C 0.85496(15) 0.00396(12) 0.06187(15)
H17 H 0.8498 -0.0471 0.0873
C27 C 0.87955(15) 0.00711(13) -0.01526(15)
H18 H 0.8920 -0.0420 -0.0420
C28 C 0.88617(14) 0.08123(13) -0.05373(12)
H19 H 0.9031 0.0827 -0.1064
C29 C 0.86772(12) 0.15374(11) -0.01444(10)
H20 H 0.8711 0.2045 -0.0406
N1 N 0.82688(8) 0.22707(7) 0.10474(7)
N2 N 0.74871(8) 0.32770(8) 0.16260(8)
loop_
_geom_bond_atom_site_label_1
_geom_bond_atom_site_label_2
_geom_bond_site_symmetry_1
_geom_bond_site_symmetry_2
C1 C2 1_555 1_555
C2 C3 1_555 1_555
C3 H1 1_555 1_555
C4 C3 1_555 1_555
H2 C4 1_555 1_555
C5 C4 1_555 1_555
H3 C5 1_555 1_555
C6 C5 1_555 1_555
H4 C6 1_555 1_555
C7 C2 1_555 1_555
C8 C7 1_555 1_555
C9 C8 1_555 1_555
H5 C9 1_555 1_555
C10 C9 1_555 1_555
H6 C10 1_555 1_555
C11 C10 1_555 1_555
H7 C11 1_555 1_555
C12 C11 1_555 1_555
H8 C12 1_555 1_555
C13 C8 1_555 1_555
C14 C1 1_555 1_555
C15 C16 1_555 1_555
C16 H9 1_555 1_555
C17 C16 1_555 1_555
H10 C17 1_555 1_555
C18 C17 1_555 1_555
C19 C18 1_555 1_555
H11 C19 1_555 1_555
C20 C19 1_555 1_555
H12 C20 1_555 1_555
C21 C20 1_555 1_555
H13 C21 1_555 1_555
C22 C21 1_555 1_555
H14 C22 1_555 1_555
C23 C18 1_555 1_555
H15 C23 1_555 1_555
C24 C25 1_555 1_555
C25 H16 1_555 1_555
C26 C25 1_555 1_555
H17 C26 1_555 1_555
C27 C26 1_555 1_555
H18 C27 1_555 1_555
C28 C27 1_555 1_555
H19 C28 1_555 1_555
C29 C24 1_555 1_555
H20 C29 1_555 1_555
N1 C1 1_555 1_555
N2 C14 1_555 1_555
C6 C7 1_555 1_555
C12 C13 1_555 1_555
C13 C14 1_555 1_555
C15 N1 1_555 1_555
C15 N2 1_555 1_555
C22 C23 1_555 1_555
C24 N1 1_555 1_555
C28 C29 1_555 1_555

#END
