
#######################################################################
#
#                 Cambridge Crystallographic Data Centre
#                                CCDC 
#
#######################################################################
#
# If this CIF has been generated from an entry in the Cambridge 
# Structural Database, then it will include bibliographic, chemical, 
# crystal, experimental, refinement or atomic coordinate data resulting 
# from the CCDC's data processing and validation procedures.
#
#######################################################################

data_XOBGAX
_chemical_formula_moiety         'C30 H20 Cl2 O2,C12 H13 N1 O3'
_chemical_name_systematic        
'1,6-bis(2-Chlorophenyl)-1,6-dihydroxy-1,6-diphenylhexa-2,4-diyne 1-(4-morpholinyl)-2-phenyl-1,2-ethanedione clathrate'
_symmetry_cell_setting           monoclinic
_symmetry_space_group_name_H-M   'P 21'
_symmetry_Int_Tables_number      4
_space_group_name_Hall           'P 2yb'
loop_
_symmetry_equiv_pos_site_id
_symmetry_equiv_pos_as_xyz
1 x,y,z
2 -x,1/2+y,-z
_cell_length_a                   8.2078(2)
_cell_length_b                   24.8368(7)
_cell_length_c                   9.4738(3)
_cell_angle_alpha                90
_cell_angle_beta                 111.8526(10)
_cell_angle_gamma                90
_cell_volume                     1792.51
_exptl_crystal_colour            colorless
_exptl_crystal_description       prism
_cell_formula_units_Z            2
loop_
_atom_site_label
_atom_site_type_symbol
_atom_site_fract_x
_atom_site_fract_y
_atom_site_fract_z
Cl1 Cl 0.64946(17) 0.26390(6) 0.93636(16)
O1 O 0.1092(4) 0.25323(13) 0.9651(3)
H1 H 0.0971 0.2760 1.0230
C1 C 0.2996(6) 0.3678(2) 0.9011(5)
C2 C 0.2890(6) 0.32011(19) 0.9179(5)
C3 C 0.2706(5) 0.26218(17) 0.9449(5)
C4 C 0.4319(6) 0.24671(16) 1.0910(5)
C5 C 0.4050(7) 0.23335(18) 1.2233(6)
H2 H 0.2919 0.2320 1.2235
C6 C 0.5491(8) 0.2220(2) 1.3558(6)
H3 H 0.5312 0.2128 1.4441
C7 C 0.7140(8) 0.2240(2) 1.3575(7)
H4 H 0.8081 0.2172 1.4478
C8 C 0.7452(7) 0.2358(2) 1.2310(7)
H5 H 0.8591 0.2357 1.2323
C9 C 0.5996(7) 0.24832(17) 1.0949(5)
C10 C 0.2568(6) 0.22677(19) 0.8083(5)
C11 C 0.2092(6) 0.2492(2) 0.6646(6)
H6 H 0.1877 0.2859 0.6489
C12 C 0.1948(7) 0.2145(4) 0.5438(7)
H7 H 0.1662 0.2288 0.4468
C13 C 0.2209(9) 0.1614(4) 0.5635(9)
H8 H 0.2049 0.1395 0.4798
C14 C 0.2720(10) 0.1385(3) 0.7087(10)
H9 H 0.2953 0.1018 0.7240
C15 C 0.2865(8) 0.1726(2) 0.8290(7)
H10 H 0.3171 0.1583 0.9262
Cl2 Cl -0.04317(19) 0.49436(6) 0.62132(16)
O2 O 0.4935(5) 0.54886(14) 0.9441(4)
H11 H 0.602(9) 0.533(3) 0.928(7)
C16 C 0.3145(6) 0.4222(2) 0.8815(5)
C17 C 0.3258(6) 0.4695(2) 0.8615(6)
C18 C 0.3360(6) 0.52733(18) 0.8298(6)
C19 C 0.1819(7) 0.55701(18) 0.8452(5)
C20 C 0.2102(9) 0.5999(2) 0.9497(6)
H12 H 0.3247 0.6093 1.0104
C21 C 0.0770(11) 0.6275(2) 0.9639(7)
H13 H 0.1003 0.6561 1.0317
C22 C -0.0946(12) 0.6138(3) 0.8787(9)
H14 H -0.1871 0.6321 0.8913
C23 C -0.1272(8) 0.5717(2) 0.7728(7)
H15 H -0.2417 0.5621 0.7132
C24 C 0.0087(7) 0.5457(2) 0.7588(6)
C25 C 0.3497(6) 0.53652(18) 0.6750(6)
C26 C 0.2973(11) 0.5843(2) 0.5983(9)
H16 H 0.2461 0.6108 0.6378
C27 C 0.3204(12) 0.5934(3) 0.4619(9)
H17 H 0.2840 0.6260 0.4116
C28 C 0.3944(9) 0.5560(3) 0.4009(7)
H18 H 0.4062 0.5623 0.3085
C29 C 0.4505(8) 0.5096(3) 0.4756(8)
H19 H 0.5061 0.4844 0.4365
C30 C 0.4269(6) 0.4987(2) 0.6108(6)
H20 H 0.4631 0.4658 0.6588
N1 N 0.0053(8) 0.4061(2) 0.1763(6)
O3 O 0.1643(5) 0.37735(16) 0.5100(4)
O4 O 0.0877(4) 0.31953(15) 0.1954(4)
O5 O -0.1963(6) 0.48879(19) 0.0085(5)
C31 C 0.2295(6) 0.37099(18) 0.4143(6)
C32 C 0.4130(6) 0.36385(18) 0.4444(5)
C33 C 0.5267(7) 0.3499(2) 0.5936(6)
H21 H 0.4830 0.3450 0.6702
C34 C 0.6987(7) 0.3440(2) 0.6226(7)
H22 H 0.7719 0.3339 0.7202
C35 C 0.7715(8) 0.3519(3) 0.5173(9)
H23 H 0.8920 0.3488 0.5426
C36 C 0.6616(9) 0.3646(2) 0.3720(8)
H24 H 0.7081 0.3698 0.2972
C37 C 0.4840(7) 0.3697(2) 0.3354(6)
H25 H 0.4113 0.3773 0.2357
C38 C 0.0985(7) 0.3658(2) 0.2483(6)
C39 C -0.152(2) 0.3954(4) 0.0359(10)
H26 H -0.2571 0.3924 0.0587
H27 H -0.1368 0.3627 -0.0139
C40 C -0.159(2) 0.4450(5) -0.0625(14)
H28 H -0.0469 0.4500 -0.0735
H29 H -0.2489 0.4404 -0.1629
C41 C -0.035(2) 0.5037(4) 0.1433(13)
H30 H -0.0503 0.5381 0.1852
H31 H 0.0671 0.5057 0.1152
C42 C -0.015(2) 0.4580(3) 0.2582(11)
H32 H 0.0880 0.4638 0.3499
H33 H -0.1174 0.4558 0.2854
C43? C 0.073(2) 0.4661(7) 0.194(3)
H34? H 0.1061 0.4783 0.1117
H35? H 0.1651 0.4735 0.2921
C44? C -0.2380(19) 0.4252(10) -0.025(3)
H36? H -0.2764 0.4091 0.0509
H37? H -0.3272 0.4195 -0.1250
C45? C -0.0599(16) 0.4024(8) -0.014(2)
H38? H 0.0048 0.4257 -0.0567
H39? H -0.0659 0.3659 -0.0526
C46? C -0.109(2) 0.4860(10) 0.183(2)
H40? H -0.1671 0.4605 0.2260
H41? H -0.1035 0.5210 0.2299
loop_
_geom_bond_atom_site_label_1
_geom_bond_atom_site_label_2
_geom_bond_site_symmetry_1
_geom_bond_site_symmetry_2
Cl1 C9 1_555 1_555
O1 H1 1_555 1_555
C1 C2 1_555 1_555
C2 C3 1_555 1_555
C3 O1 1_555 1_555
C4 C3 1_555 1_555
C5 C4 1_555 1_555
H2 C5 1_555 1_555
C6 C5 1_555 1_555
H3 C6 1_555 1_555
C7 C6 1_555 1_555
H4 C7 1_555 1_555
C8 C7 1_555 1_555
H5 C8 1_555 1_555
C9 C4 1_555 1_555
C10 C3 1_555 1_555
C11 C10 1_555 1_555
H6 C11 1_555 1_555
C12 C11 1_555 1_555
H7 C12 1_555 1_555
C13 C12 1_555 1_555
H8 C13 1_555 1_555
C14 C13 1_555 1_555
H9 C14 1_555 1_555
C15 C10 1_555 1_555
H10 C15 1_555 1_555
Cl2 C24 1_555 1_555
O2 H11 1_555 1_555
C16 C1 1_555 1_555
C17 C16 1_555 1_555
C18 O2 1_555 1_555
C19 C18 1_555 1_555
C20 C19 1_555 1_555
H12 C20 1_555 1_555
C21 C20 1_555 1_555
H13 C21 1_555 1_555
C22 C21 1_555 1_555
H14 C22 1_555 1_555
C23 C22 1_555 1_555
H15 C23 1_555 1_555
C24 C19 1_555 1_555
C25 C18 1_555 1_555
C26 C25 1_555 1_555
H16 C26 1_555 1_555
C27 C26 1_555 1_555
H17 C27 1_555 1_555
C28 C27 1_555 1_555
H18 C28 1_555 1_555
C29 C28 1_555 1_555
H19 C29 1_555 1_555
C30 C25 1_555 1_555
H20 C30 1_555 1_555
N1 C38 1_555 1_555
O3 C31 1_555 1_555
O4 C38 1_555 1_555
O5 C40 1_555 1_555
C31 C32 1_555 1_555
C32 C33 1_555 1_555
C33 H21 1_555 1_555
C34 C33 1_555 1_555
H22 C34 1_555 1_555
C35 C34 1_555 1_555
H23 C35 1_555 1_555
C36 C35 1_555 1_555
H24 C36 1_555 1_555
C37 C32 1_555 1_555
H25 C37 1_555 1_555
C38 C31 1_555 1_555
C39 N1 1_555 1_555
H26 C39 1_555 1_555
H27 C39 1_555 1_555
C40 C39 1_555 1_555
H28 C40 1_555 1_555
H29 C40 1_555 1_555
C41 O5 1_555 1_555
H30 C41 1_555 1_555
H31 C41 1_555 1_555
C42 N1 1_555 1_555
H32 C42 1_555 1_555
H33 C42 1_555 1_555
C8 C9 1_555 1_555
C14 C15 1_555 1_555
C17 C18 1_555 1_555
C23 C24 1_555 1_555
C29 C30 1_555 1_555
C36 C37 1_555 1_555
C41 C42 1_555 1_555

#END
