
#######################################################################
#
#                 Cambridge Crystallographic Data Centre
#                                CCDC 
#
#######################################################################
#
# If this CIF has been generated from an entry in the Cambridge 
# Structural Database, then it will include bibliographic, chemical, 
# crystal, experimental, refinement or atomic coordinate data resulting 
# from the CCDC's data processing and validation procedures.
#
#######################################################################

data_XOBHIH
_chemical_formula_moiety         'C26 H32 N4 O2'
_chemical_name_systematic        
4,4'-(5-t-Butyl-2-((2,4-diaminophenyl)diazenyl)-1,3-phenylene)bis(2-methylbut-3-yn-2-ol)
_symmetry_cell_setting           triclinic
_symmetry_space_group_name_H-M   'P -1'
_symmetry_Int_Tables_number      2
_space_group_name_Hall           '-P 1'
loop_
_symmetry_equiv_pos_site_id
_symmetry_equiv_pos_as_xyz
1 x,y,z
2 -x,-y,-z
_cell_length_a                   11.7693(5)
_cell_length_b                   19.6839(10)
_cell_length_c                   22.7064(7)
_cell_angle_alpha                112.090(4)
_cell_angle_beta                 90.068(3)
_cell_angle_gamma                99.006(4)
_cell_volume                     4803.69
_exptl_crystal_colour            red
_exptl_crystal_description       needle
_cell_formula_units_Z            8
loop_
_atom_site_label
_atom_site_type_symbol
_atom_site_fract_x
_atom_site_fract_y
_atom_site_fract_z
O1 O 0.2495(2) 0.85768(13) 0.72013(11)
H1 H 0.1779 0.8493 0.7230
O2 O -0.2466(2) 0.59836(16) 0.96810(12)
H2 H -0.2168 0.6087 0.9382
N1 N 0.0131(2) 0.71751(14) 0.88442(12)
N2 N 0.0468(2) 0.68740(14) 0.82837(12)
C1 C 0.3034(3) 0.80940(18) 0.74121(14)
C2 C 0.0950(3) 0.77357(16) 0.92857(14)
C3 C 0.2204(3) 0.81003(17) 0.85137(14)
N3 N -0.1901(2) 0.62599(16) 0.85051(12)
H3 H -0.2603 0.6064 0.8552
H4 H -0.1480 0.6598 0.8836
N4 N -0.2360(3) 0.46997(16) 0.62734(13)
H5 H -0.3076 0.4526 0.6319
H6 H -0.2069 0.4535 0.5899
C4 C 0.1896(3) 0.81744(17) 0.91474(14)
C5 C 0.2579(3) 0.81020(17) 0.80248(15)
C6 C 0.2586(3) 0.87329(17) 0.96566(14)
H7 H 0.3221 0.9029 0.9561
C7 C -0.0873(3) 0.69476(18) 1.01748(15)
C8 C 0.0749(3) 0.78740(17) 0.99317(14)
C9 C -0.0535(3) 0.55086(18) 0.67061(15)
H8 H -0.0216 0.5328 0.6303
C10 C -0.1709(3) 0.63518(19) 1.02542(15)
C11 C -0.0315(3) 0.63283(18) 0.78299(15)
C12 C 0.2392(3) 0.88767(19) 1.02930(15)
C13 C 0.1463(3) 0.84232(18) 1.04163(15)
H9 H 0.1320 0.8495 1.0845
C14 C -0.2453(3) 0.6659(2) 1.08010(19)
H10 H -0.3015 0.6252 1.0831
H11 H -0.2860 0.7021 1.0728
H12 H -0.1967 0.6903 1.1199
C15 C 0.4042(3) 0.9973(2) 1.06190(17)
H13 H 0.3629 1.0203 1.0389
H14 H 0.4561 0.9675 1.0335
H15 H 0.4492 1.0362 1.0989
C16 C -0.0169(3) 0.73885(18) 1.00711(14)
C17 C -0.1697(3) 0.52268(18) 0.67868(16)
C18 C -0.1462(3) 0.60369(18) 0.79144(16)
C19 C 0.0104(3) 0.60419(18) 0.72206(15)
H16 H 0.0873 0.6230 0.7164
C20 C 0.2456(4) 0.9962(2) 1.13396(18)
H17 H 0.1925 0.9652 1.1505
H18 H 0.2014 1.0211 1.1140
H19 H 0.2969 1.0337 1.1690
C21 C 0.3844(3) 0.9081(2) 1.11631(17)
H20 H 0.4299 0.8760 1.0850
H21 H 0.3300 0.8779 1.1331
H22 H 0.4361 0.9454 1.1513
C22 C 0.3176(3) 0.94725(19) 1.08424(15)
C23 C 0.4308(3) 0.8413(2) 0.75214(17)
H23 H 0.4420 0.8923 0.7839
H24 H 0.4613 0.8414 0.7120
H25 H 0.4714 0.8108 0.7676
C24 C -0.2126(3) 0.54985(18) 0.73845(15)
H26 H -0.2899 0.5313 0.7436
C25 C 0.2812(3) 0.73111(19) 0.69001(16)
H27 H 0.3108 0.7323 0.6500
H28 H 0.1981 0.7123 0.6836
H29 H 0.3202 0.6984 0.7035
C26 C -0.1079(4) 0.5771(2) 1.03367(18)
H30 H -0.0622 0.5574 0.9969
H31 H -0.1642 0.5365 1.0368
H32 H -0.0568 0.6001 1.0726
O3 O 1.0182(2) 0.80783(18) 0.74454(12)
H33 H 1.0380 0.7893 0.7699
O4 O 0.3089(2) 0.57883(12) 0.93221(10)
H34 H 0.2964 0.6031 0.9100
N5 N 0.6220(2) 0.72233(14) 0.85739(12)
N6 N 0.2873(2) 0.65110(15) 0.84682(12)
H35 H 0.2140 0.6331 0.8471
H36 H 0.3224 0.6880 0.8806
C27 C 0.6662(3) 0.77739(18) 0.91743(14)
C28 C 0.7676(3) 0.82565(17) 0.91745(14)
N7 N 0.5127(2) 0.70556(15) 0.85190(12)
C29 C 0.2614(3) 0.6672(2) 1.03274(18)
H37 H 0.2000 0.6295 1.0365
H38 H 0.2296 0.6954 1.0110
H39 H 0.2938 0.7011 1.0753
C30 C 0.8559(3) 0.81488(18) 0.80872(15)
C31 C 0.8159(3) 0.81893(17) 0.85790(15)
N8 N 0.3069(3) 0.47285(16) 0.63221(13)
H40 H 0.2343 0.4527 0.6313
H41 H 0.3477 0.4548 0.5991
C32 C 0.5249(3) 0.72940(18) 0.98065(14)
C33 C 0.3559(3) 0.62922(17) 0.99439(15)
C34 C 0.4495(3) 0.68547(17) 0.98862(14)
C35 C 0.6208(3) 0.78226(17) 0.97596(15)
C36 C 0.8954(3) 0.8072(2) 0.74502(15)
C37 C 0.5277(3) 0.61869(18) 0.74073(15)
H42 H 0.6072 0.6378 0.7417
C38 C 0.3481(3) 0.62094(19) 0.79248(16)
C39 C 0.8329(4) 0.7352(2) 0.69524(16)
H43 H 0.8528 0.6930 0.7036
H44 H 0.8560 0.7317 0.6529
H45 H 0.7495 0.7342 0.6970
C40 C 0.8743(3) 0.87276(19) 0.72946(16)
H46 H 0.9007 0.8669 0.6872
H47 H 0.9168 0.9189 0.7613
H48 H 0.7916 0.8750 0.7298
C41 C 0.7730(3) 0.88767(19) 1.03227(16)
C42 C 0.8189(3) 0.88035(18) 0.97468(15)
H49 H 0.8867 0.9132 0.9739
C43 C 0.9232(3) 1.00391(19) 1.08661(16)
H50 H 0.8951 1.0249 1.0576
H51 H 0.9875 0.9783 1.0684
H52 H 0.9494 1.0440 1.1278
C44 C 0.8737(3) 0.9115(2) 1.13705(16)
H53 H 0.9349 0.8851 1.1152
H54 H 0.8118 0.8762 1.1439
H55 H 0.9052 0.9497 1.1782
C45 C 0.4756(3) 0.56201(19) 0.68646(16)
H56 H 0.5185 0.5427 0.6502
C46 C 0.3563(3) 0.53236(18) 0.68511(16)
C47 C 0.2950(3) 0.56262(19) 0.73837(16)
H57 H 0.2156 0.5432 0.7378
C48 C 0.6757(3) 0.83691(19) 1.03178(16)
H58 H 0.6456 0.8398 1.0713
C49 C 0.4030(3) 0.5820(2) 1.02506(16)
H59 H 0.4673 0.5611 1.0015
H60 H 0.3420 0.5414 1.0241
H61 H 0.4301 0.6129 1.0693
C50 C 0.8254(3) 0.94841(19) 1.09613(16)
C51 C 0.4666(3) 0.64878(19) 0.79436(15)
C52 C 0.7315(3) 0.9912(2) 1.13121(17)
H62 H 0.6705 0.9568 1.1399
H63 H 0.6990 1.0137 1.1047
H64 H 0.7652 1.0303 1.1715
O5 O 0.8208(2) 0.14330(13) 0.78081(11)
H65 H 0.7542 0.1527 0.7783
O6 O 0.4214(3) 0.38457(15) 0.51835(13)
H66 H 0.3779 0.3491 0.5231
N9 N 0.7056(2) 0.31179(14) 0.67395(12)
C53 C 0.9013(3) 0.19056(18) 0.75959(14)
N10 N 0.6554(2) 0.28314(15) 0.61751(12)
N11 N 0.5021(2) 0.37577(16) 0.65520(13)
H67 H 0.4435 0.3968 0.6511
H68 H 0.5260 0.3425 0.6215
C54 C 0.7085(3) 0.22738(17) 0.57308(14)
C55 C 0.8171(3) 0.19213(17) 0.65012(14)
C56 C 0.8549(3) 0.19140(17) 0.69909(15)
C57 C 0.7822(3) 0.18422(18) 0.58705(14)
C58 C 0.8234(3) 0.12982(18) 0.53602(15)
H69 H 0.8721 0.1005 0.5454
N12 N 0.5473(3) 0.52845(17) 0.87829(13)
H70 H 0.4854 0.5468 0.8745
H71 H 0.5872 0.5450 0.9152
C59 C 0.6810(3) 0.21441(17) 0.50852(14)
C60 C 0.5816(3) 0.47413(19) 0.82673(15)
C61 C 0.5585(3) 0.30196(18) 0.48269(15)
C62 C 0.6823(3) 0.44555(18) 0.83251(15)
H72 H 0.7251 0.4631 0.8724
C63 C 0.6564(3) 0.36509(18) 0.72046(15)
C64 C 0.5557(3) 0.39463(18) 0.71366(15)
C65 C 0.4257(3) 0.3178(2) 0.40609(19)
H73 H 0.3836 0.3537 0.3992
H74 H 0.3707 0.2757 0.4075
H75 H 0.4760 0.2999 0.3712
C66 C 0.6127(3) 0.26089(18) 0.49433(14)
C67 C 0.7175(3) 0.39281(18) 0.78066(15)
H76 H 0.7852 0.3740 0.7851
C68 C 0.7261(3) 0.15993(18) 0.45974(15)
H77 H 0.7079 0.1525 0.4168
C69 C 0.5190(3) 0.44713(18) 0.76758(15)
H78 H 0.4499 0.4651 0.7642
C70 C 0.7974(3) 0.11603(19) 0.47252(15)
C71 C 0.9339(3) 0.0977(2) 0.38639(17)
H79 H 0.9963 0.1291 0.4180
H80 H 0.8955 0.1287 0.3704
H81 H 0.9658 0.0609 0.3509
C72 C 0.4989(3) 0.35566(19) 0.46936(16)
C73 C 0.9073(3) 0.0079(2) 0.43980(17)
H82 H 0.8533 -0.0170 0.4611
H83 H 0.9728 0.0383 0.4697
H84 H 0.9352 -0.0295 0.4030
C74 C 0.8464(3) 0.05751(19) 0.41738(15)
C75 C 0.5863(3) 0.4202(2) 0.46893(18)
H85 H 0.6276 0.4455 0.5109
H86 H 0.5467 0.4552 0.4589
H87 H 0.6412 0.4019 0.4367
C76 C 0.9232(3) 0.2688(2) 0.81099(17)
H88 H 0.9557 0.2674 0.8502
H89 H 0.8503 0.2879 0.8193
H90 H 0.9775 0.3014 0.7965
C77 C 0.7498(4) 0.0076(2) 0.36645(18)
H91 H 0.7157 0.0380 0.3479
H92 H 0.6902 -0.0157 0.3863
H93 H 0.7822 -0.0310 0.3329
C78 C 1.0107(3) 0.1571(2) 0.74804(19)
H94 H 0.9937 0.1063 0.7159
H95 H 1.0408 0.1559 0.7879
H96 H 1.0683 0.1873 0.7329
O7 O 0.6135(2) 0.19455(17) 0.75704(12)
H97 H 0.6429 0.2199 0.7366
O8 O 0.0472(2) 0.42542(13) 0.56511(10)
H98 H 0.0083 0.4020 0.5846
N13 N 0.2601(2) 0.27638(14) 0.64119(12)
C79 C 0.2357(3) 0.21790(17) 0.52183(15)
N14 N -0.0372(2) 0.34835(15) 0.64389(12)
H99 H -0.1005 0.3666 0.6427
H100 H -0.0197 0.3121 0.6101
C80 C 0.0358(3) 0.37712(19) 0.69986(16)
C81 C 0.3547(3) 0.17476(16) 0.58302(14)
C82 C 0.0624(3) 0.37464(18) 0.50147(15)
C83 C 0.1239(3) 0.31714(18) 0.50676(14)
C84 C 0.4461(3) 0.18519(17) 0.69273(15)
C85 C 0.4051(3) 0.18114(17) 0.64312(14)
C86 C 0.2797(3) 0.22281(17) 0.58151(14)
N15 N 0.1595(2) 0.29386(15) 0.64305(12)
C87 C 0.4396(3) 0.12454(19) 0.76982(16)
H101 H 0.4685 0.1306 0.8123
H102 H 0.4624 0.0800 0.7379
H103 H 0.3553 0.1191 0.7682
C88 C 0.4898(3) 0.1921(2) 0.75595(15)
C89 C 0.3795(3) 0.11934(18) 0.52611(15)
H104 H 0.4295 0.0866 0.5279
C90 C 0.1829(3) 0.43385(19) 0.80958(15)
H105 H 0.2316 0.4522 0.8475
C91 C 0.2127(3) 0.37915(18) 0.75630(15)
H106 H 0.2828 0.3611 0.7572
C92 C 0.1395(3) 0.34996(18) 0.70061(15)
N16 N 0.0534(3) 0.51800(16) 0.86269(13)
H107 H 0.0985 0.5352 0.8979
H108 H -0.0102 0.5359 0.8618
C93 C 0.1710(3) 0.27150(18) 0.51601(14)
C94 C 0.2624(3) 0.16276(18) 0.46677(16)
H109 H 0.2319 0.1595 0.4269
C95 C 0.1354(3) 0.4230(2) 0.47255(17)
H110 H 0.2094 0.4445 0.4974
H111 H 0.0951 0.4631 0.4729
H112 H 0.1489 0.3928 0.4286
C96 C 0.3323(3) 0.11166(18) 0.46752(15)
C97 C 0.0824(3) 0.46297(19) 0.80904(15)
C98 C 0.4220(3) -0.0041(2) 0.41515(16)
H113 H 0.3811 -0.0261 0.4430
H114 H 0.4984 0.0222 0.4351
H115 H 0.4304 -0.0436 0.3741
C99 C 0.4205(3) 0.0864(2) 0.36287(16)
H116 H 0.4943 0.1150 0.3853
H117 H 0.3754 0.1197 0.3540
H118 H 0.4348 0.0476 0.3227
C100 C -0.0539(3) 0.3387(2) 0.46464(19)
H119 H -0.0956 0.3776 0.4633
H120 H -0.0990 0.3094 0.4858
H121 H -0.0418 0.3062 0.4211
C101 C 0.0094(3) 0.43409(18) 0.75341(15)
H122 H -0.0590 0.4538 0.7524
C102 C 0.4621(4) 0.2631(2) 0.80680(17)
H123 H 0.4990 0.3062 0.7980
H124 H 0.4910 0.2674 0.8487
H125 H 0.3784 0.2615 0.8063
C103 C 0.3535(3) 0.05038(19) 0.40445(16)
C104 C 0.2371(3) 0.0069(2) 0.36912(17)
H126 H 0.1940 0.0408 0.3597
H127 H 0.1926 -0.0151 0.3959
H128 H 0.2505 -0.0327 0.3292
loop_
_geom_bond_atom_site_label_1
_geom_bond_atom_site_label_2
_geom_bond_site_symmetry_1
_geom_bond_site_symmetry_2
O1 H1 1_555 1_555
O2 H2 1_555 1_555
N1 N2 1_555 1_555
N2 C11 1_555 1_555
C1 O1 1_555 1_555
C2 N1 1_555 1_555
C3 C4 1_555 1_555
N3 H3 1_555 1_555
H4 N3 1_555 1_555
N4 H5 1_555 1_555
H6 N4 1_555 1_555
C4 C2 1_555 1_555
C5 C1 1_555 1_555
C6 C4 1_555 1_555
H7 C6 1_555 1_555
C7 C10 1_555 1_555
C8 C2 1_555 1_555
C9 H8 1_555 1_555
C10 O2 1_555 1_555
C11 C18 1_555 1_555
C12 C6 1_555 1_555
C13 C8 1_555 1_555
H9 C13 1_555 1_555
C14 C10 1_555 1_555
H10 C14 1_555 1_555
H11 C14 1_555 1_555
H12 C14 1_555 1_555
C15 H13 1_555 1_555
H14 C15 1_555 1_555
H15 C15 1_555 1_555
C16 C7 1_555 1_555
C17 N4 1_555 1_555
C18 N3 1_555 1_555
C19 C9 1_555 1_555
H16 C19 1_555 1_555
C20 H17 1_555 1_555
H18 C20 1_555 1_555
H19 C20 1_555 1_555
C21 H20 1_555 1_555
H21 C21 1_555 1_555
H22 C21 1_555 1_555
C22 C12 1_555 1_555
C23 C1 1_555 1_555
H23 C23 1_555 1_555
H24 C23 1_555 1_555
H25 C23 1_555 1_555
C24 C17 1_555 1_555
H26 C24 1_555 1_555
C25 C1 1_555 1_555
H27 C25 1_555 1_555
H28 C25 1_555 1_555
H29 C25 1_555 1_555
C26 C10 1_555 1_555
H30 C26 1_555 1_555
H31 C26 1_555 1_555
H32 C26 1_555 1_555
O3 H33 1_555 1_555
O4 H34 1_555 1_555
N5 C27 1_555 1_555
N6 H35 1_555 1_555
H36 N6 1_555 1_555
C27 C28 1_555 1_555
C28 C31 1_555 1_555
N7 N5 1_555 1_555
C29 H37 1_555 1_555
H38 C29 1_555 1_555
H39 C29 1_555 1_555
C30 C31 1_555 1_555
N8 H40 1_555 1_555
H41 N8 1_555 1_555
C32 C34 1_555 1_555
C33 O4 1_555 1_555
C34 C33 1_555 1_555
C35 C27 1_555 1_555
C36 O3 1_555 1_555
C37 H42 1_555 1_555
C38 N6 1_555 1_555
C39 C36 1_555 1_555
H43 C39 1_555 1_555
H44 C39 1_555 1_555
H45 C39 1_555 1_555
C40 C36 1_555 1_555
H46 C40 1_555 1_555
H47 C40 1_555 1_555
H48 C40 1_555 1_555
C41 C42 1_555 1_555
C42 C28 1_555 1_555
H49 C42 1_555 1_555
C43 H50 1_555 1_555
H51 C43 1_555 1_555
H52 C43 1_555 1_555
C44 H53 1_555 1_555
H54 C44 1_555 1_555
H55 C44 1_555 1_555
C45 C37 1_555 1_555
H56 C45 1_555 1_555
C46 N8 1_555 1_555
C47 C38 1_555 1_555
H57 C47 1_555 1_555
C48 C35 1_555 1_555
H58 C48 1_555 1_555
C49 C33 1_555 1_555
H59 C49 1_555 1_555
H60 C49 1_555 1_555
H61 C49 1_555 1_555
C50 C41 1_555 1_555
C51 N7 1_555 1_555
C52 C50 1_555 1_555
H62 C52 1_555 1_555
H63 C52 1_555 1_555
H64 C52 1_555 1_555
O5 H65 1_555 1_555
O6 H66 1_555 1_555
N9 N10 1_555 1_555
C53 O5 1_555 1_555
N10 C54 1_555 1_555
N11 H67 1_555 1_555
H68 N11 1_555 1_555
C54 C57 1_555 1_555
C55 C56 1_555 1_555
C56 C53 1_555 1_555
C57 C55 1_555 1_555
C58 C57 1_555 1_555
H69 C58 1_555 1_555
N12 H70 1_555 1_555
H71 N12 1_555 1_555
C59 C54 1_555 1_555
C60 N12 1_555 1_555
C61 C66 1_555 1_555
C62 C60 1_555 1_555
H72 C62 1_555 1_555
C63 N9 1_555 1_555
C64 N11 1_555 1_555
C65 H73 1_555 1_555
H74 C65 1_555 1_555
H75 C65 1_555 1_555
C66 C59 1_555 1_555
C67 C62 1_555 1_555
H76 C67 1_555 1_555
C68 C59 1_555 1_555
H77 C68 1_555 1_555
C69 C60 1_555 1_555
H78 C69 1_555 1_555
C70 C58 1_555 1_555
C71 H79 1_555 1_555
H80 C71 1_555 1_555
H81 C71 1_555 1_555
C72 O6 1_555 1_555
C73 H82 1_555 1_555
H83 C73 1_555 1_555
H84 C73 1_555 1_555
C74 C70 1_555 1_555
C75 C72 1_555 1_555
H85 C75 1_555 1_555
H86 C75 1_555 1_555
H87 C75 1_555 1_555
C76 C53 1_555 1_555
H88 C76 1_555 1_555
H89 C76 1_555 1_555
H90 C76 1_555 1_555
C77 C74 1_555 1_555
H91 C77 1_555 1_555
H92 C77 1_555 1_555
H93 C77 1_555 1_555
C78 C53 1_555 1_555
H94 C78 1_555 1_555
H95 C78 1_555 1_555
H96 C78 1_555 1_555
O7 H97 1_555 1_555
O8 H98 1_555 1_555
N13 C86 1_555 1_555
C79 C86 1_555 1_555
N14 H99 1_555 1_555
H100 N14 1_555 1_555
C80 N14 1_555 1_555
C81 C85 1_555 1_555
C82 O8 1_555 1_555
C83 C82 1_555 1_555
C84 C85 1_555 1_555
C86 C81 1_555 1_555
N15 N13 1_555 1_555
C87 H101 1_555 1_555
H102 C87 1_555 1_555
H103 C87 1_555 1_555
C88 O7 1_555 1_555
C89 C81 1_555 1_555
H104 C89 1_555 1_555
C90 H105 1_555 1_555
C91 C90 1_555 1_555
H106 C91 1_555 1_555
C92 C80 1_555 1_555
N16 H107 1_555 1_555
H108 N16 1_555 1_555
C93 C79 1_555 1_555
C94 C79 1_555 1_555
H109 C94 1_555 1_555
C95 C82 1_555 1_555
H110 C95 1_555 1_555
H111 C95 1_555 1_555
H112 C95 1_555 1_555
C96 C89 1_555 1_555
C97 C90 1_555 1_555
C98 H113 1_555 1_555
H114 C98 1_555 1_555
H115 C98 1_555 1_555
C99 H116 1_555 1_555
H117 C99 1_555 1_555
H118 C99 1_555 1_555
C100 C82 1_555 1_555
H119 C100 1_555 1_555
H120 C100 1_555 1_555
H121 C100 1_555 1_555
C101 C80 1_555 1_555
H122 C101 1_555 1_555
C102 C88 1_555 1_555
H123 C102 1_555 1_555
H124 C102 1_555 1_555
H125 C102 1_555 1_555
C103 C96 1_555 1_555
C104 C103 1_555 1_555
H126 C104 1_555 1_555
H127 C104 1_555 1_555
H128 C104 1_555 1_555
C3 C5 1_555 1_555
C8 C16 1_555 1_555
C9 C17 1_555 1_555
C11 C19 1_555 1_555
C12 C13 1_555 1_555
C15 C22 1_555 1_555
C18 C24 1_555 1_555
C20 C22 1_555 1_555
C21 C22 1_555 1_555
C29 C33 1_555 1_555
C30 C36 1_555 1_555
C32 C35 1_555 1_555
C37 C51 1_555 1_555
C38 C51 1_555 1_555
C41 C48 1_555 1_555
C43 C50 1_555 1_555
C44 C50 1_555 1_555
C45 C46 1_555 1_555
C46 C47 1_555 1_555
C61 C72 1_555 1_555
C63 C64 1_555 1_555
C63 C67 1_555 1_555
C64 C69 1_555 1_555
C65 C72 1_555 1_555
C68 C70 1_555 1_555
C71 C74 1_555 1_555
C73 C74 1_555 1_555
C83 C93 1_555 1_555
C84 C88 1_555 1_555
N15 C92 1_555 1_555
C87 C88 1_555 1_555
C91 C92 1_555 1_555
N16 C97 1_555 1_555
C94 C96 1_555 1_555
C97 C101 1_555 1_555
C98 C103 1_555 1_555
C99 C103 1_555 1_555

#END
