
#######################################################################
#
#                 Cambridge Crystallographic Data Centre
#                                CCDC 
#
#######################################################################
#
# If this CIF has been generated from an entry in the Cambridge 
# Structural Database, then it will include bibliographic, chemical, 
# crystal, experimental, refinement or atomic coordinate data resulting 
# from the CCDC's data processing and validation procedures.
#
#######################################################################

data_XOBHIH01
_chemical_formula_moiety         'C26 H32 N4 O2'
_chemical_name_systematic        
4,4'-(5-t-butyl-2-((2,4-diaminophenyl)diazenyl)-1,3-phenylene)bis(2-methylbut-3-yn-2-ol)
_symmetry_cell_setting           triclinic
_symmetry_space_group_name_H-M   'P -1'
_symmetry_Int_Tables_number      2
_space_group_name_Hall           '-P 1'
loop_
_symmetry_equiv_pos_site_id
_symmetry_equiv_pos_as_xyz
1 x,y,z
2 -x,-y,-z
_cell_length_a                   11.7693(5)
_cell_length_b                   19.6839(10)
_cell_length_c                   22.7064(7)
_cell_angle_alpha                112.090(4)
_cell_angle_beta                 90.068(3)
_cell_angle_gamma                99.006(4)
_cell_volume                     4803.69
_cell_formula_units_Z            8
loop_
_atom_site_label
_atom_site_type_symbol
_atom_site_fract_x
_atom_site_fract_y
_atom_site_fract_z
O1 O 0.2495(2) 0.8577(1) 0.7201(1)
H1 H 0.1779 0.8493 0.7230
O2 O -0.2466(2) 0.5984(2) 0.9681(1)
H2 H -0.2168 0.6087 0.9382
N1 N 0.0131(2) 0.7175(1) 0.8844(1)
N2 N 0.0468(2) 0.6874(1) 0.8284(1)
C1 C 0.3034(3) 0.8094(2) 0.7412(1)
C2 C 0.0950(3) 0.7736(2) 0.9286(1)
C3 C 0.2204(3) 0.8100(2) 0.8514(1)
N3 N -0.1901(2) 0.6260(2) 0.8505(1)
H3 H -0.2603 0.6064 0.8552
H4 H -0.1480 0.6598 0.8836
N4 N -0.2360(3) 0.4700(2) 0.6273(1)
H5 H -0.3076 0.4526 0.6319
H6 H -0.2069 0.4535 0.5899
C4 C 0.1896(3) 0.8174(2) 0.9147(1)
C5 C 0.2579(3) 0.8102(2) 0.8025(2)
C6 C 0.2586(3) 0.8733(2) 0.9657(1)
H7 H 0.3221 0.9029 0.9561
C7 C -0.0873(3) 0.6948(2) 1.0175(2)
C8 C 0.0749(3) 0.7874(2) 0.9932(1)
C9 C -0.0535(3) 0.5509(2) 0.6706(2)
H8 H -0.0216 0.5328 0.6303
C10 C -0.1709(3) 0.6352(2) 1.0254(2)
C11 C -0.0315(3) 0.6328(2) 0.7830(2)
C12 C 0.2392(3) 0.8877(2) 1.0293(2)
C13 C 0.1463(3) 0.8423(2) 1.0416(2)
H9 H 0.1320 0.8495 1.0845
C14 C -0.2453(3) 0.6659(2) 1.0801(2)
H10 H -0.3015 0.6252 1.0831
H11 H -0.2860 0.7021 1.0728
H12 H -0.1967 0.6903 1.1199
C15 C 0.4042(3) 0.9973(2) 1.0619(2)
H13 H 0.3629 1.0203 1.0389
H14 H 0.4561 0.9675 1.0335
H15 H 0.4492 1.0362 1.0989
C16 C -0.0169(3) 0.7388(2) 1.0071(1)
C17 C -0.1697(3) 0.5227(2) 0.6787(2)
C18 C -0.1462(3) 0.6037(2) 0.7914(2)
C19 C 0.0104(3) 0.6042(2) 0.7221(2)
H16 H 0.0873 0.6230 0.7164
C20 C 0.2456(4) 0.9962(2) 1.1340(2)
H17 H 0.1925 0.9652 1.1505
H18 H 0.2014 1.0211 1.1140
H19 H 0.2969 1.0337 1.1690
C21 C 0.3844(3) 0.9081(2) 1.1163(2)
H20 H 0.4299 0.8760 1.0850
H21 H 0.3300 0.8779 1.1331
H22 H 0.4361 0.9454 1.1513
C22 C 0.3176(3) 0.9473(2) 1.0842(2)
C23 C 0.4308(3) 0.8413(2) 0.7521(2)
H23 H 0.4420 0.8923 0.7839
H24 H 0.4613 0.8414 0.7120
H25 H 0.4714 0.8108 0.7676
C24 C -0.2126(3) 0.5498(2) 0.7384(2)
H26 H -0.2899 0.5313 0.7436
C25 C 0.2812(3) 0.7311(2) 0.6900(2)
H27 H 0.3108 0.7323 0.6500
H28 H 0.1981 0.7123 0.6836
H29 H 0.3202 0.6984 0.7035
C26 C -0.1079(4) 0.5771(2) 1.0337(2)
H30 H -0.0622 0.5574 0.9969
H31 H -0.1642 0.5365 1.0368
H32 H -0.0568 0.6001 1.0726
O3 O 1.0182(2) 0.8078(2) 0.7445(1)
H33 H 1.0380 0.7893 0.7699
O4 O 0.3089(2) 0.5788(1) 0.9322(1)
H34 H 0.2964 0.6031 0.9100
N5 N 0.6220(2) 0.7223(1) 0.8574(1)
N6 N 0.2873(2) 0.6511(2) 0.8468(1)
H35 H 0.2140 0.6331 0.8471
H36 H 0.3224 0.6880 0.8806
C27 C 0.6662(3) 0.7774(2) 0.9174(1)
C28 C 0.7676(3) 0.8256(2) 0.9175(1)
N7 N 0.5127(2) 0.7056(2) 0.8519(1)
C29 C 0.2614(3) 0.6672(2) 1.0327(2)
H37 H 0.2000 0.6295 1.0365
H38 H 0.2296 0.6954 1.0110
H39 H 0.2938 0.7011 1.0753
C30 C 0.8559(3) 0.8149(2) 0.8087(2)
C31 C 0.8159(3) 0.8189(2) 0.8579(2)
N8 N 0.3069(3) 0.4728(2) 0.6322(1)
H40 H 0.2343 0.4527 0.6313
H41 H 0.3477 0.4548 0.5991
C32 C 0.5249(3) 0.7294(2) 0.9807(1)
C33 C 0.3559(3) 0.6292(2) 0.9944(2)
C34 C 0.4495(3) 0.6855(2) 0.9886(1)
C35 C 0.6208(3) 0.7823(2) 0.9760(2)
C36 C 0.8954(3) 0.8072(2) 0.7450(2)
C37 C 0.5277(3) 0.6187(2) 0.7407(2)
H42 H 0.6072 0.6378 0.7417
C38 C 0.3481(3) 0.6209(2) 0.7925(2)
C39 C 0.8329(4) 0.7352(2) 0.6952(2)
H43 H 0.8528 0.6930 0.7036
H44 H 0.8560 0.7317 0.6529
H45 H 0.7495 0.7342 0.6970
C40 C 0.8743(3) 0.8728(2) 0.7295(2)
H46 H 0.9007 0.8669 0.6872
H47 H 0.9168 0.9189 0.7613
H48 H 0.7916 0.8750 0.7298
C41 C 0.7730(3) 0.8877(2) 1.0323(2)
C42 C 0.8189(3) 0.8803(2) 0.9747(2)
H49 H 0.8867 0.9132 0.9739
C43 C 0.9232(3) 1.0039(2) 1.0866(2)
H50 H 0.8951 1.0249 1.0576
H51 H 0.9875 0.9783 1.0684
H52 H 0.9494 1.0440 1.1278
C44 C 0.8737(3) 0.9115(2) 1.1371(2)
H53 H 0.9349 0.8851 1.1152
H54 H 0.8118 0.8762 1.1439
H55 H 0.9052 0.9497 1.1782
C45 C 0.4756(3) 0.5620(2) 0.6865(2)
H56 H 0.5185 0.5427 0.6502
C46 C 0.3563(3) 0.5324(2) 0.6851(2)
C47 C 0.2950(3) 0.5626(2) 0.7384(2)
H57 H 0.2156 0.5432 0.7378
C48 C 0.6757(3) 0.8369(2) 1.0318(2)
H58 H 0.6456 0.8398 1.0713
C49 C 0.4030(3) 0.5820(2) 1.0251(2)
H59 H 0.4673 0.5611 1.0015
H60 H 0.3420 0.5414 1.0241
H61 H 0.4301 0.6129 1.0693
C50 C 0.8254(3) 0.9484(2) 1.0961(2)
C51 C 0.4666(3) 0.6488(2) 0.7944(2)
C52 C 0.7315(3) 0.9912(2) 1.1312(2)
H62 H 0.6705 0.9568 1.1399
H63 H 0.6990 1.0137 1.1047
H64 H 0.7652 1.0303 1.1715
O5 O 0.8208(2) 0.1433(1) 0.7808(1)
H65 H 0.7542 0.1527 0.7783
O6 O 0.4214(3) 0.3846(2) 0.5184(1)
H66 H 0.3779 0.3491 0.5231
N9 N 0.7056(2) 0.3118(1) 0.6740(1)
C53 C 0.9013(3) 0.1906(2) 0.7596(1)
N10 N 0.6554(2) 0.2831(2) 0.6175(1)
N11 N 0.5021(2) 0.3758(2) 0.6552(1)
H67 H 0.4435 0.3968 0.6511
H68 H 0.5260 0.3425 0.6215
C54 C 0.7085(3) 0.2274(2) 0.5731(1)
C55 C 0.8171(3) 0.1921(2) 0.6501(1)
C56 C 0.8549(3) 0.1914(2) 0.6991(2)
C57 C 0.7822(3) 0.1842(2) 0.5871(1)
C58 C 0.8234(3) 0.1298(2) 0.5360(2)
H69 H 0.8721 0.1005 0.5454
N12 N 0.5473(3) 0.5285(2) 0.8783(1)
H70 H 0.4854 0.5468 0.8745
H71 H 0.5872 0.5450 0.9152
C59 C 0.6810(3) 0.2144(2) 0.5085(1)
C60 C 0.5816(3) 0.4741(2) 0.8267(2)
C61 C 0.5585(3) 0.3020(2) 0.4827(2)
C62 C 0.6823(3) 0.4455(2) 0.8325(2)
H72 H 0.7251 0.4631 0.8724
C63 C 0.6564(3) 0.3651(2) 0.7205(2)
C64 C 0.5557(3) 0.3946(2) 0.7137(2)
C65 C 0.4257(3) 0.3178(2) 0.4061(2)
H73 H 0.3836 0.3537 0.3992
H74 H 0.3707 0.2757 0.4075
H75 H 0.4760 0.2999 0.3712
C66 C 0.6127(3) 0.2609(2) 0.4943(1)
C67 C 0.7175(3) 0.3928(2) 0.7807(2)
H76 H 0.7852 0.3740 0.7851
C68 C 0.7261(3) 0.1599(2) 0.4597(2)
H77 H 0.7079 0.1525 0.4168
C69 C 0.5190(3) 0.4471(2) 0.7676(2)
H78 H 0.4499 0.4651 0.7642
C70 C 0.7974(3) 0.1160(2) 0.4725(2)
C71 C 0.9339(3) 0.0977(2) 0.3864(2)
H79 H 0.9963 0.1291 0.4180
H80 H 0.8955 0.1287 0.3704
H81 H 0.9658 0.0609 0.3509
C72 C 0.4989(3) 0.3557(2) 0.4694(2)
C73 C 0.9073(3) 0.0079(2) 0.4398(2)
H82 H 0.8533 -0.0170 0.4611
H83 H 0.9728 0.0383 0.4697
H84 H 0.9352 -0.0295 0.4030
C74 C 0.8464(3) 0.0575(2) 0.4174(2)
C75 C 0.5863(3) 0.4202(2) 0.4689(2)
H85 H 0.6276 0.4455 0.5109
H86 H 0.5467 0.4552 0.4589
H87 H 0.6412 0.4019 0.4367
C76 C 0.9232(3) 0.2688(2) 0.8110(2)
H88 H 0.9557 0.2674 0.8502
H89 H 0.8503 0.2879 0.8193
H90 H 0.9775 0.3014 0.7965
C77 C 0.7498(4) 0.0076(2) 0.3665(2)
H91 H 0.7157 0.0380 0.3479
H92 H 0.6902 -0.0157 0.3863
H93 H 0.7822 -0.0310 0.3329
C78 C 1.0107(3) 0.1571(2) 0.7480(2)
H94 H 0.9937 0.1063 0.7159
H95 H 1.0408 0.1559 0.7879
H96 H 1.0683 0.1873 0.7329
O7 O 0.6135(2) 0.1945(2) 0.7570(1)
H97 H 0.6429 0.2199 0.7366
O8 O 0.0472(2) 0.4254(1) 0.5651(1)
H98 H 0.0083 0.4020 0.5846
N13 N 0.2601(2) 0.2764(1) 0.6412(1)
C79 C 0.2357(3) 0.2179(2) 0.5218(2)
N14 N -0.0372(2) 0.3483(2) 0.6439(1)
H99 H -0.1005 0.3666 0.6427
H100 H -0.0197 0.3121 0.6101
C80 C 0.0358(3) 0.3771(2) 0.6999(2)
C81 C 0.3547(3) 0.1748(2) 0.5830(1)
C82 C 0.0624(3) 0.3746(2) 0.5015(2)
C83 C 0.1239(3) 0.3171(2) 0.5068(1)
C84 C 0.4461(3) 0.1852(2) 0.6927(2)
C85 C 0.4051(3) 0.1811(2) 0.6431(1)
C86 C 0.2797(3) 0.2228(2) 0.5815(1)
N15 N 0.1595(2) 0.2939(2) 0.6431(1)
C87 C 0.4396(3) 0.1245(2) 0.7698(2)
H101 H 0.4685 0.1306 0.8123
H102 H 0.4624 0.0800 0.7379
H103 H 0.3553 0.1191 0.7682
C88 C 0.4898(3) 0.1921(2) 0.7559(2)
C89 C 0.3795(3) 0.1193(2) 0.5261(2)
H104 H 0.4295 0.0866 0.5279
C90 C 0.1829(3) 0.4338(2) 0.8096(2)
H105 H 0.2316 0.4522 0.8475
C91 C 0.2127(3) 0.3792(2) 0.7563(2)
H106 H 0.2828 0.3611 0.7572
C92 C 0.1395(3) 0.3500(2) 0.7006(2)
N16 N 0.0534(3) 0.5180(2) 0.8627(1)
H107 H 0.0985 0.5352 0.8979
H108 H -0.0102 0.5359 0.8618
C93 C 0.1710(3) 0.2715(2) 0.5160(1)
C94 C 0.2624(3) 0.1628(2) 0.4668(2)
H109 H 0.2319 0.1595 0.4269
C95 C 0.1354(3) 0.4230(2) 0.4726(2)
H110 H 0.2094 0.4445 0.4974
H111 H 0.0951 0.4631 0.4729
H112 H 0.1489 0.3928 0.4286
C96 C 0.3323(3) 0.1117(2) 0.4675(2)
C97 C 0.0824(3) 0.4630(2) 0.8090(2)
C98 C 0.4220(3) -0.0041(2) 0.4151(2)
H113 H 0.3811 -0.0261 0.4430
H114 H 0.4984 0.0222 0.4351
H115 H 0.4304 -0.0436 0.3741
C99 C 0.4205(3) 0.0864(2) 0.3629(2)
H116 H 0.4943 0.1150 0.3853
H117 H 0.3754 0.1197 0.3540
H118 H 0.4348 0.0476 0.3227
C100 C -0.0539(3) 0.3387(2) 0.4646(2)
H119 H -0.0956 0.3776 0.4633
H120 H -0.0990 0.3094 0.4858
H121 H -0.0418 0.3062 0.4211
C101 C 0.0094(3) 0.4341(2) 0.7534(2)
H122 H -0.0590 0.4538 0.7524
C102 C 0.4621(4) 0.2631(2) 0.8068(2)
H123 H 0.4990 0.3062 0.7980
H124 H 0.4910 0.2674 0.8487
H125 H 0.3784 0.2615 0.8063
C103 C 0.3535(3) 0.0504(2) 0.4044(2)
C104 C 0.2371(3) 0.0069(2) 0.3691(2)
H126 H 0.1940 0.0408 0.3597
H127 H 0.1926 -0.0151 0.3959
H128 H 0.2505 -0.0327 0.3292
loop_
_geom_bond_atom_site_label_1
_geom_bond_atom_site_label_2
_geom_bond_site_symmetry_1
_geom_bond_site_symmetry_2
O1 H1 1_555 1_555
O2 H2 1_555 1_555
N1 N2 1_555 1_555
N2 C11 1_555 1_555
C1 O1 1_555 1_555
C2 N1 1_555 1_555
C3 C4 1_555 1_555
N3 H3 1_555 1_555
H4 N3 1_555 1_555
N4 H5 1_555 1_555
H6 N4 1_555 1_555
C4 C2 1_555 1_555
C5 C1 1_555 1_555
C6 C4 1_555 1_555
H7 C6 1_555 1_555
C7 C10 1_555 1_555
C8 C2 1_555 1_555
C9 H8 1_555 1_555
C10 O2 1_555 1_555
C11 C18 1_555 1_555
C12 C6 1_555 1_555
C13 C8 1_555 1_555
H9 C13 1_555 1_555
C14 C10 1_555 1_555
H10 C14 1_555 1_555
H11 C14 1_555 1_555
H12 C14 1_555 1_555
C15 H13 1_555 1_555
H14 C15 1_555 1_555
H15 C15 1_555 1_555
C16 C7 1_555 1_555
C17 N4 1_555 1_555
C18 N3 1_555 1_555
C19 C9 1_555 1_555
H16 C19 1_555 1_555
C20 H17 1_555 1_555
H18 C20 1_555 1_555
H19 C20 1_555 1_555
C21 H20 1_555 1_555
H21 C21 1_555 1_555
H22 C21 1_555 1_555
C22 C12 1_555 1_555
C23 C1 1_555 1_555
H23 C23 1_555 1_555
H24 C23 1_555 1_555
H25 C23 1_555 1_555
C24 C17 1_555 1_555
H26 C24 1_555 1_555
C25 C1 1_555 1_555
H27 C25 1_555 1_555
H28 C25 1_555 1_555
H29 C25 1_555 1_555
C26 C10 1_555 1_555
H30 C26 1_555 1_555
H31 C26 1_555 1_555
H32 C26 1_555 1_555
O3 H33 1_555 1_555
O4 H34 1_555 1_555
N5 C27 1_555 1_555
N6 H35 1_555 1_555
H36 N6 1_555 1_555
C27 C28 1_555 1_555
C28 C31 1_555 1_555
N7 N5 1_555 1_555
C29 H37 1_555 1_555
H38 C29 1_555 1_555
H39 C29 1_555 1_555
C30 C31 1_555 1_555
N8 H40 1_555 1_555
H41 N8 1_555 1_555
C32 C34 1_555 1_555
C33 O4 1_555 1_555
C34 C33 1_555 1_555
C35 C27 1_555 1_555
C36 O3 1_555 1_555
C37 H42 1_555 1_555
C38 N6 1_555 1_555
C39 C36 1_555 1_555
H43 C39 1_555 1_555
H44 C39 1_555 1_555
H45 C39 1_555 1_555
C40 C36 1_555 1_555
H46 C40 1_555 1_555
H47 C40 1_555 1_555
H48 C40 1_555 1_555
C41 C42 1_555 1_555
C42 C28 1_555 1_555
H49 C42 1_555 1_555
C43 H50 1_555 1_555
H51 C43 1_555 1_555
H52 C43 1_555 1_555
C44 H53 1_555 1_555
H54 C44 1_555 1_555
H55 C44 1_555 1_555
C45 C37 1_555 1_555
H56 C45 1_555 1_555
C46 N8 1_555 1_555
C47 C38 1_555 1_555
H57 C47 1_555 1_555
C48 C35 1_555 1_555
H58 C48 1_555 1_555
C49 C33 1_555 1_555
H59 C49 1_555 1_555
H60 C49 1_555 1_555
H61 C49 1_555 1_555
C50 C41 1_555 1_555
C51 N7 1_555 1_555
C52 C50 1_555 1_555
H62 C52 1_555 1_555
H63 C52 1_555 1_555
H64 C52 1_555 1_555
O5 H65 1_555 1_555
O6 H66 1_555 1_555
N9 N10 1_555 1_555
C53 O5 1_555 1_555
N10 C54 1_555 1_555
N11 H67 1_555 1_555
H68 N11 1_555 1_555
C54 C57 1_555 1_555
C55 C56 1_555 1_555
C56 C53 1_555 1_555
C57 C55 1_555 1_555
C58 C57 1_555 1_555
H69 C58 1_555 1_555
N12 H70 1_555 1_555
H71 N12 1_555 1_555
C59 C54 1_555 1_555
C60 N12 1_555 1_555
C61 C66 1_555 1_555
C62 C60 1_555 1_555
H72 C62 1_555 1_555
C63 N9 1_555 1_555
C64 N11 1_555 1_555
C65 H73 1_555 1_555
H74 C65 1_555 1_555
H75 C65 1_555 1_555
C66 C59 1_555 1_555
C67 C62 1_555 1_555
H76 C67 1_555 1_555
C68 C59 1_555 1_555
H77 C68 1_555 1_555
C69 C60 1_555 1_555
H78 C69 1_555 1_555
C70 C58 1_555 1_555
C71 H79 1_555 1_555
H80 C71 1_555 1_555
H81 C71 1_555 1_555
C72 O6 1_555 1_555
C73 H82 1_555 1_555
H83 C73 1_555 1_555
H84 C73 1_555 1_555
C74 C70 1_555 1_555
C75 C72 1_555 1_555
H85 C75 1_555 1_555
H86 C75 1_555 1_555
H87 C75 1_555 1_555
C76 C53 1_555 1_555
H88 C76 1_555 1_555
H89 C76 1_555 1_555
H90 C76 1_555 1_555
C77 C74 1_555 1_555
H91 C77 1_555 1_555
H92 C77 1_555 1_555
H93 C77 1_555 1_555
C78 C53 1_555 1_555
H94 C78 1_555 1_555
H95 C78 1_555 1_555
H96 C78 1_555 1_555
O7 H97 1_555 1_555
O8 H98 1_555 1_555
N13 C86 1_555 1_555
C79 C86 1_555 1_555
N14 H99 1_555 1_555
H100 N14 1_555 1_555
C80 N14 1_555 1_555
C81 C85 1_555 1_555
C82 O8 1_555 1_555
C83 C82 1_555 1_555
C84 C85 1_555 1_555
C86 C81 1_555 1_555
N15 N13 1_555 1_555
C87 H101 1_555 1_555
H102 C87 1_555 1_555
H103 C87 1_555 1_555
C88 O7 1_555 1_555
C89 C81 1_555 1_555
H104 C89 1_555 1_555
C90 H105 1_555 1_555
C91 C90 1_555 1_555
H106 C91 1_555 1_555
C92 C80 1_555 1_555
N16 H107 1_555 1_555
H108 N16 1_555 1_555
C93 C79 1_555 1_555
C94 C79 1_555 1_555
H109 C94 1_555 1_555
C95 C82 1_555 1_555
H110 C95 1_555 1_555
H111 C95 1_555 1_555
H112 C95 1_555 1_555
C96 C89 1_555 1_555
C97 C90 1_555 1_555
C98 H113 1_555 1_555
H114 C98 1_555 1_555
H115 C98 1_555 1_555
C99 H116 1_555 1_555
H117 C99 1_555 1_555
H118 C99 1_555 1_555
C100 C82 1_555 1_555
H119 C100 1_555 1_555
H120 C100 1_555 1_555
H121 C100 1_555 1_555
C101 C80 1_555 1_555
H122 C101 1_555 1_555
C102 C88 1_555 1_555
H123 C102 1_555 1_555
H124 C102 1_555 1_555
H125 C102 1_555 1_555
C103 C96 1_555 1_555
C104 C103 1_555 1_555
H126 C104 1_555 1_555
H127 C104 1_555 1_555
H128 C104 1_555 1_555
C3 C5 1_555 1_555
C8 C16 1_555 1_555
C9 C17 1_555 1_555
C11 C19 1_555 1_555
C12 C13 1_555 1_555
C15 C22 1_555 1_555
C18 C24 1_555 1_555
C20 C22 1_555 1_555
C21 C22 1_555 1_555
C29 C33 1_555 1_555
C30 C36 1_555 1_555
C32 C35 1_555 1_555
C37 C51 1_555 1_555
C38 C51 1_555 1_555
C41 C48 1_555 1_555
C43 C50 1_555 1_555
C44 C50 1_555 1_555
C45 C46 1_555 1_555
C46 C47 1_555 1_555
C61 C72 1_555 1_555
C63 C64 1_555 1_555
C63 C67 1_555 1_555
C64 C69 1_555 1_555
C65 C72 1_555 1_555
C68 C70 1_555 1_555
C71 C74 1_555 1_555
C73 C74 1_555 1_555
C83 C93 1_555 1_555
C84 C88 1_555 1_555
N15 C92 1_555 1_555
C87 C88 1_555 1_555
C91 C92 1_555 1_555
N16 C97 1_555 1_555
C94 C96 1_555 1_555
C97 C101 1_555 1_555
C98 C103 1_555 1_555
C99 C103 1_555 1_555

#END
