
#######################################################################
#
#                 Cambridge Crystallographic Data Centre
#                                CCDC 
#
#######################################################################
#
# If this CIF has been generated from an entry in the Cambridge 
# Structural Database, then it will include bibliographic, chemical, 
# crystal, experimental, refinement or atomic coordinate data resulting 
# from the CCDC's data processing and validation procedures.
#
#######################################################################

data_XOBHAY
_chemical_formula_moiety         'C30 H22 O2,2(C12 H13 N1 O3)'
_chemical_name_systematic        
'1,1,6,6-Tetraphenyl-2,4-hexadiyne-1,6-diol 1-(4-morpholinyl)-2-phenyl-1,2-ethanedione clathrate'
_symmetry_cell_setting           monoclinic
_symmetry_space_group_name_H-M   'P 21/c'
_symmetry_Int_Tables_number      14
_space_group_name_Hall           '-P 2ybc'
loop_
_symmetry_equiv_pos_site_id
_symmetry_equiv_pos_as_xyz
1 x,y,z
2 -x,1/2+y,1/2-z
3 -x,-y,-z
4 x,1/2-y,1/2+z
_cell_length_a                   5.9540(2)
_cell_length_b                   27.5070(7)
_cell_length_c                   13.7050(5)
_cell_angle_alpha                90
_cell_angle_beta                 94.7310(9)
_cell_angle_gamma                90
_cell_volume                     2236.91
_exptl_crystal_colour            colorless
_exptl_crystal_description       prism
_cell_formula_units_Z            2
loop_
_atom_site_label
_atom_site_type_symbol
_atom_site_fract_x
_atom_site_fract_y
_atom_site_fract_z
O1 O 0.9432(2) 0.07442(7) 0.55597(12)
H1 H 0.9373 0.0544 0.6000
C1 C 1.4343(4) 0.01974(11) 0.51163(18)
C2 C 1.3194(4) 0.05310(11) 0.53256(18)
C3 C 1.1670(4) 0.09317(9) 0.55676(17)
C4 C 1.2369(4) 0.11553(9) 0.65729(17)
C5 C 1.4523(4) 0.11071(10) 0.70331(18)
H2 H 1.5601 0.0926 0.6740
C6 C 1.5066(5) 0.13297(11) 0.7931(2)
H3 H 1.6501 0.1291 0.8243
C7 C 1.3515(5) 0.16046(11) 0.8357(2)
H4 H 1.3904 0.1758 0.8951
C8 C 1.1376(5) 0.16544(11) 0.7909(2)
H5 H 1.0306 0.1837 0.8206
C9 C 1.0821(4) 0.14324(10) 0.70159(19)
H6 H 0.9379 0.1471 0.6710
C10 C 1.1633(4) 0.13240(10) 0.47777(17)
C11 C 1.3553(5) 0.15819(13) 0.4641(2)
H7 H 1.4872 0.1513 0.5028
C12 C 1.3564(7) 0.19415(15) 0.3940(3)
H8 H 1.4879 0.2115 0.3867
C13 C 1.1692(9) 0.20430(14) 0.3362(3)
H9 H 1.1714 0.2283 0.2886
C14 C 0.9757(7) 0.17917(15) 0.3477(3)
H10 H 0.8462 0.1860 0.3074
C15 C 0.9705(5) 0.14309(11) 0.4196(2)
H11 H 0.8374 0.1265 0.4279
O1B O 2.0568(2) -0.07442(7) 0.44403(12)
H1B H 2.0627 -0.0544 0.4000
C1B C 1.5657(4) -0.01974(11) 0.48837(18)
C2B C 1.6806(4) -0.05310(11) 0.46744(18)
C3B C 1.8330(4) -0.09317(9) 0.44324(17)
C4B C 1.7631(4) -0.11553(9) 0.34271(17)
C5B C 1.5477(4) -0.11071(10) 0.29669(18)
H2B H 1.4399 -0.0926 0.3260
C6B C 1.4934(5) -0.13297(11) 0.2069(2)
H3B H 1.3499 -0.1291 0.1757
C7B C 1.6485(5) -0.16046(11) 0.1643(2)
H4B H 1.6096 -0.1758 0.1049
C8B C 1.8624(5) -0.16544(11) 0.2091(2)
H5B H 1.9694 -0.1837 0.1794
C9B C 1.9179(4) -0.14324(10) 0.29841(19)
H6B H 2.0621 -0.1471 0.3290
C10B C 1.8367(4) -0.13240(10) 0.52223(17)
C11B C 1.6447(5) -0.15819(13) 0.5359(2)
H7B H 1.5128 -0.1513 0.4972
C12B C 1.6436(7) -0.19415(15) 0.6060(3)
H8B H 1.5121 -0.2115 0.6133
C13B C 1.8308(9) -0.20430(14) 0.6638(3)
H9B H 1.8286 -0.2283 0.7114
C14B C 2.0243(7) -0.17917(15) 0.6523(3)
H10B H 2.1538 -0.1860 0.6926
C15B C 2.0295(5) -0.14309(11) 0.5804(2)
H11B H 2.1626 -0.1265 0.5721
N1 N 0.7282(4) 0.02817(9) 0.14681(16)
O2 O 0.3281(4) 0.09732(9) 0.12100(18)
O3 O 0.6787(3) 0.05130(8) -0.01276(16)
O4 O 1.0422(3) -0.01153(8) 0.28866(13)
C16 C 0.5215(6) 0.10257(14) 0.1004(2)
C17 C 0.6224(5) 0.15108(14) 0.09162(19)
C18 C 0.5100(6) 0.19075(18) 0.1243(2)
H12 H 0.3733 0.1863 0.1513
C19 C 0.5959(9) 0.23651(19) 0.1177(3)
H13 H 0.5191 0.2630 0.1408
C20 C 0.7974(9) 0.24311(16) 0.0766(3)
H14 H 0.8555 0.2743 0.0709
C21 C 0.9122(6) 0.20404(19) 0.0441(2)
H15 H 1.0477 0.2087 0.0161
C22 C 0.8270(6) 0.15788(15) 0.0529(2)
H16 H 0.9074 0.1312 0.0328
C23 C 0.6543(5) 0.05804(12) 0.0737(3)
C24 C 0.7124(5) 0.03790(11) 0.25103(19)
H17 H 0.6124 0.0145 0.2778
H18 H 0.6508 0.0701 0.2594
C25 C 0.9430(5) 0.03448(12) 0.3045(2)
H19 H 1.0384 0.0600 0.2817
H20 H 0.9314 0.0392 0.3740
C26 C 1.0667(5) -0.01875(11) 0.1870(2)
H21 H 1.1374 -0.0500 0.1777
H22 H 1.1642 0.0063 0.1639
C27 C 0.8435(5) -0.01711(11) 0.12814(19)
H23 H 0.8658 -0.0196 0.0590
H24 H 0.7518 -0.0444 0.1456
loop_
_geom_bond_atom_site_label_1
_geom_bond_atom_site_label_2
_geom_bond_site_symmetry_1
_geom_bond_site_symmetry_2
O1 H1 1_555 1_555
C1 C2 1_555 1_555
C2 C3 1_555 1_555
C3 O1 1_555 1_555
C4 C3 1_555 1_555
C5 C4 1_555 1_555
H2 C5 1_555 1_555
C6 C5 1_555 1_555
H3 C6 1_555 1_555
C7 C6 1_555 1_555
H4 C7 1_555 1_555
C8 C7 1_555 1_555
H5 C8 1_555 1_555
C9 C4 1_555 1_555
H6 C9 1_555 1_555
C10 C3 1_555 1_555
C11 C10 1_555 1_555
H7 C11 1_555 1_555
C12 C11 1_555 1_555
H8 C12 1_555 1_555
C13 C12 1_555 1_555
H9 C13 1_555 1_555
C14 C13 1_555 1_555
H10 C14 1_555 1_555
C15 C10 1_555 1_555
H11 C15 1_555 1_555
N1 C23 1_555 1_555
O2 C16 1_555 1_555
O3 C23 1_555 1_555
O4 C25 1_555 1_555
C16 C17 1_555 1_555
C17 C18 1_555 1_555
C18 H12 1_555 1_555
C19 C18 1_555 1_555
H13 C19 1_555 1_555
C20 C19 1_555 1_555
H14 C20 1_555 1_555
C21 C20 1_555 1_555
H15 C21 1_555 1_555
C22 C17 1_555 1_555
H16 C22 1_555 1_555
C23 C16 1_555 1_555
C24 N1 1_555 1_555
H17 C24 1_555 1_555
H18 C24 1_555 1_555
C25 C24 1_555 1_555
H19 C25 1_555 1_555
H20 C25 1_555 1_555
C26 O4 1_555 1_555
H21 C26 1_555 1_555
H22 C26 1_555 1_555
C27 N1 1_555 1_555
H23 C27 1_555 1_555
H24 C27 1_555 1_555
O1B H1B 1_555 1_555
C1B C1 1_555 1_555
C2B C1B 1_555 1_555
C3B O1B 1_555 1_555
C4B C3B 1_555 1_555
C5B C4B 1_555 1_555
H2B C5B 1_555 1_555
C6B C5B 1_555 1_555
H3B C6B 1_555 1_555
C7B C6B 1_555 1_555
H4B C7B 1_555 1_555
C8B C7B 1_555 1_555
H5B C8B 1_555 1_555
C9B C4B 1_555 1_555
H6B C9B 1_555 1_555
C10B C3B 1_555 1_555
C11B C10B 1_555 1_555
H7B C11B 1_555 1_555
C12B C11B 1_555 1_555
H8B C12B 1_555 1_555
C13B C12B 1_555 1_555
H9B C13B 1_555 1_555
C14B C13B 1_555 1_555
H10B C14B 1_555 1_555
C15B C10B 1_555 1_555
H11B C15B 1_555 1_555
C8 C9 1_555 1_555
C14 C15 1_555 1_555
C21 C22 1_555 1_555
C26 C27 1_555 1_555
C2B C3B 1_555 1_555
C8B C9B 1_555 1_555
C14B C15B 1_555 1_555

#END
