
#######################################################################
#
#                 Cambridge Crystallographic Data Centre
#                                CCDC 
#
#######################################################################
#
# If this CIF has been generated from an entry in the Cambridge 
# Structural Database, then it will include bibliographic, chemical, 
# crystal, experimental, refinement or atomic coordinate data resulting 
# from the CCDC's data processing and validation procedures.
#
#######################################################################

data_XOBNUZ
_chemical_formula_moiety         'C15 H13 N1 O1 Se1'
_chemical_name_systematic        
2-Benzyl-7-methyl-1,2-benzoselenazol-3(2H)-one
_symmetry_cell_setting           monoclinic
_symmetry_space_group_name_H-M   'P 21/c'
_symmetry_Int_Tables_number      14
_space_group_name_Hall           '-P 2ybc'
loop_
_symmetry_equiv_pos_site_id
_symmetry_equiv_pos_as_xyz
1 x,y,z
2 -x,1/2+y,1/2-z
3 -x,-y,-z
4 x,1/2-y,1/2+z
_cell_length_a                   10.4368(2)
_cell_length_b                   10.9926(2)
_cell_length_c                   11.5312(2)
_cell_angle_alpha                90
_cell_angle_beta                 102.8070(10)
_cell_angle_gamma                90
_cell_volume                     1290.03
_exptl_crystal_colour            colorless
_exptl_crystal_description       plate
_cell_formula_units_Z            4
loop_
_atom_site_label
_atom_site_type_symbol
_atom_site_fract_x
_atom_site_fract_y
_atom_site_fract_z
Se1 Se 0.460934(15) 0.469783(14) 0.767852(14)
O1 O 0.69851(11) 0.73404(12) 0.72190(12)
N1 N 0.60310(12) 0.57590(13) 0.79942(12)
C1 C 0.60902(14) 0.65932(14) 0.71389(15)
C2 C 0.49508(14) 0.64851(14) 0.61347(14)
C3 C 0.40663(15) 0.55641(14) 0.62355(14)
C4 C 0.29481(17) 0.53409(15) 0.53396(16)
C5 C 0.2012(2) 0.4325(2) 0.5438(2)
H1 H 0.1550 0.4084 0.4657
H2 H 0.1393 0.4599 0.5886
H3 H 0.2495 0.3644 0.5835
C6 C 0.27638(18) 0.60851(18) 0.43489(15)
H4 H 0.2028 0.5965 0.3737
C7 C 0.36450(18) 0.70110(18) 0.42373(15)
H5 H 0.3488 0.7496 0.3559
C8 C 0.47429(16) 0.72091(16) 0.51238(15)
H6 H 0.5337 0.7818 0.5048
C9 C 0.71107(17) 0.55888(17) 0.90454(15)
H7 H 0.6774 0.5180 0.9662
H8 H 0.7437 0.6379 0.9349
C10 C 0.82336(15) 0.48545(16) 0.87743(14)
C11 C 0.93034(17) 0.54299(18) 0.84906(16)
H9 H 0.9330 0.6274 0.8456
C12 C 1.03308(19) 0.4750(2) 0.82589(19)
H10 H 1.1048 0.5141 0.8070
C13 C 1.0306(2) 0.3503(2) 0.83042(19)
H11 H 1.1000 0.3051 0.8144
C14 C 0.9253(2) 0.2930(2) 0.85869(19)
H12 H 0.9234 0.2085 0.8620
C15 C 0.82193(17) 0.35930(17) 0.88233(16)
H13 H 0.7509 0.3193 0.9016
loop_
_geom_bond_atom_site_label_1
_geom_bond_atom_site_label_2
_geom_bond_site_symmetry_1
_geom_bond_site_symmetry_2
Se1 N1 1_555 1_555
O1 C1 1_555 1_555
N1 C1 1_555 1_555
C1 C2 1_555 1_555
C2 C3 1_555 1_555
C3 Se1 1_555 1_555
C4 C3 1_555 1_555
C5 C4 1_555 1_555
H1 C5 1_555 1_555
H2 C5 1_555 1_555
H3 C5 1_555 1_555
C6 C4 1_555 1_555
H4 C6 1_555 1_555
C7 C6 1_555 1_555
H5 C7 1_555 1_555
C8 C2 1_555 1_555
H6 C8 1_555 1_555
C9 N1 1_555 1_555
H7 C9 1_555 1_555
H8 C9 1_555 1_555
C10 C9 1_555 1_555
C11 C10 1_555 1_555
H9 C11 1_555 1_555
C12 C11 1_555 1_555
H10 C12 1_555 1_555
C13 C12 1_555 1_555
H11 C13 1_555 1_555
C14 C13 1_555 1_555
H12 C14 1_555 1_555
C15 C10 1_555 1_555
H13 C15 1_555 1_555
C7 C8 1_555 1_555
C14 C15 1_555 1_555

#END
