
#######################################################################
#
#                 Cambridge Crystallographic Data Centre
#                                CCDC 
#
#######################################################################
#
# If this CIF has been generated from an entry in the Cambridge 
# Structural Database, then it will include bibliographic, chemical, 
# crystal, experimental, refinement or atomic coordinate data resulting 
# from the CCDC's data processing and validation procedures.
#
#######################################################################

data_XOBPEM
_chemical_formula_moiety         'C17 H16 O5,C1 H1 Cl3'
_chemical_name_systematic        
'1-[2-(2,6-dihydroxybenzene-1-carbonyl)-3-hydroxy-5-methylphenyl]propan-1-one chloroform solvate'
_symmetry_cell_setting           monoclinic
_symmetry_space_group_name_H-M   'P 2'
_symmetry_Int_Tables_number      3
_space_group_name_Hall           'P 2y'
loop_
_symmetry_equiv_pos_site_id
_symmetry_equiv_pos_as_xyz
1 x,y,z
2 -x,y,-z
_cell_length_a                   13.8718(6)
_cell_length_b                   9.6965(5)
_cell_length_c                   13.8978(7)
_cell_angle_alpha                90
_cell_angle_beta                 92.204(4)
_cell_angle_gamma                90
_cell_volume                     1867.98
_exptl_crystal_colour            red
_exptl_crystal_description       plate
_cell_formula_units_Z            4
loop_
_atom_site_label
_atom_site_type_symbol
_atom_site_fract_x
_atom_site_fract_y
_atom_site_fract_z
O6 O 0.2866(5) 0.3640(8) 0.1318(4)
O7 O 0.3093(5) 0.1183(8) 0.1937(5)
H17 H 0.3070 0.1809 0.1540
O8 O 0.4180(5) 0.5718(8) 0.2319(5)
O9 O 0.0753(5) 0.4175(8) 0.2457(5)
H18 H 0.0171 0.4277 0.2517
O10 O 0.2567(6) 0.4932(8) 0.4075(5)
H19 H 0.2462 0.5067 0.4643
C18 C 0.2641(7) 0.6664(11) 0.2061(6)
C19 C 0.0657(6) 0.6645(11) 0.2267(6)
H20 H -0.0008 0.6633 0.2333
C20 C 0.4186(7) 0.7853(12) 0.1487(8)
H21 H 0.3894 0.7947 0.0845
H22 H 0.4051 0.8693 0.1836
C21 C 0.3705(6) 0.6668(11) 0.1982(6)
C22 C 0.5259(8) 0.7736(14) 0.1401(8)
H23 H 0.5488 0.8503 0.1038
H24 H 0.5408 0.6892 0.1078
H25 H 0.5566 0.7739 0.2032
C23 C 0.2796(6) 0.3127(11) 0.2971(6)
C24 C 0.2852(7) 0.2701(12) 0.4699(7)
H26 H 0.2824 0.3023 0.5327
C25 C 0.2162(6) 0.5419(11) 0.2206(6)
C26 C 0.1167(6) 0.5416(11) 0.2307(6)
C27 C 0.3092(7) 0.0808(12) 0.3607(7)
H27 H 0.3206 -0.0125 0.3506
C28 C 0.2117(7) 0.7892(11) 0.2030(6)
H28 H 0.2437 0.8723 0.1941
C29 C 0.2725(7) 0.3596(11) 0.3935(7)
C30 C 0.1121(7) 0.7893(12) 0.2132(7)
C31 C 0.0560(7) 0.9221(12) 0.2077(8)
H29 H 0.0200 0.9266 0.1474
H30 H 0.0997 0.9987 0.2127
H31 H 0.0123 0.9257 0.2596
C32 C 0.2655(6) 0.4039(11) 0.2131(6)
C33 C 0.2990(6) 0.1710(12) 0.2827(6)
C34 C 0.3022(8) 0.1314(12) 0.4525(7)
H32 H 0.3090 0.0712 0.5044
O1 O 0.8827(5) 0.3535(8) 0.2675(5)
O2 O 0.7662(5) 0.4146(8) 0.0619(5)
H1 H 0.7595 0.4258 0.0036
O3 O 0.7888(5) 0.5545(8) 0.4066(5)
O4 O 0.8174(5) 0.1102(8) 0.2904(5)
H2 H 0.8580 0.1708 0.2850
O5 O 0.6079(5) 0.4978(8) 0.2507(5)
H3 H 0.5504 0.5155 0.2420
C1 C 0.7158(6) 0.3090(11) 0.2660(6)
C2 C 0.8030(6) 0.6604(11) 0.2565(6)
C3 C 0.8116(6) 0.6575(11) 0.3627(6)
C4 C 0.7917(6) 0.5366(11) 0.2058(6)
C5 C 0.7835(6) 0.6628(11) 0.0555(6)
H4 H 0.7782 0.6621 -0.0114
C6 C 0.6192(6) 0.3621(11) 0.2634(7)
C7 C 0.7968(7) 0.7887(12) 0.1046(7)
C8 C 0.5423(7) 0.2745(12) 0.2750(7)
H5 H 0.4796 0.3087 0.2737
C9 C 0.8044(8) 0.9209(12) 0.0514(7)
H6 H 0.8637 0.9224 0.0180
H7 H 0.8035 0.9964 0.0960
H8 H 0.7510 0.9292 0.0058
C10 C 0.7993(6) 0.3971(10) 0.2523(6)
C11 C 0.6501(7) 0.0812(12) 0.2913(7)
H9 H 0.6591 -0.0133 0.2987
C12 C 0.8544(10) 0.7708(13) 0.5251(7)
H10 H 0.8936 0.6922 0.5420
H11 H 0.7911 0.7585 0.5494
H12 H 0.8831 0.8524 0.5528
C13 C 0.7782(6) 0.5396(12) 0.1060(7)
C14 C 0.8061(7) 0.7856(11) 0.2053(6)
H13 H 0.8146 0.8678 0.2390
C15 C 0.7287(7) 0.1661(12) 0.2831(6)
C16 C 0.8469(8) 0.7854(11) 0.4162(7)
H14 H 0.8034 0.8610 0.4001
H15 H 0.9099 0.8097 0.3935
C17 C 0.5594(7) 0.1342(12) 0.2888(7)
H16 H 0.5074 0.0753 0.2964
Cl1? Cl 0.5000 0.5158(7) 0.5000
Cl2? Cl 0.4322(5) 0.7687(6) 0.5757(4)
C35? C 0.5354(18) 0.673(3) 0.5311(17)
H33? H 0.5890 0.6698 0.5792
Cl3? Cl 0.39895(19) 0.1526(3) -0.03029(18)
Cl4? Cl 0.5000 0.4108(6) 0.0000
C36? C 0.4868(15) 0.245(3) 0.0323(15)
H34? H 0.4682 0.2456 0.0997
Cl5? Cl 1.0000 0.4705(4) 0.0000
Cl6? Cl 0.9115(2) 0.2118(4) -0.0578(2)
C37? C 1.0157(17) 0.296(2) -0.0307(16)
H35? H 1.0524 0.2957 -0.0896
Cl7? Cl 0.9597(2) 0.1499(4) 0.59476(19)
Cl8? Cl 1.0000 0.4048(6) 0.5000
C38? C 0.9675(13) 0.243(2) 0.4860(15)
H36? H 0.9023 0.2445 0.4564
loop_
_geom_bond_atom_site_label_1
_geom_bond_atom_site_label_2
_geom_bond_site_symmetry_1
_geom_bond_site_symmetry_2
O1 C10 1_555 1_555
O2 H1 1_555 1_555
O3 C3 1_555 1_555
O4 H2 1_555 1_555
O5 H3 1_555 1_555
C1 C6 1_555 1_555
C2 C3 1_555 1_555
C3 C16 1_555 1_555
C4 C2 1_555 1_555
C5 H4 1_555 1_555
C6 O5 1_555 1_555
C7 C5 1_555 1_555
C8 C6 1_555 1_555
H5 C8 1_555 1_555
C9 C7 1_555 1_555
H6 C9 1_555 1_555
H7 C9 1_555 1_555
H8 C9 1_555 1_555
C10 C1 1_555 1_555
C11 H9 1_555 1_555
C12 H10 1_555 1_555
H11 C12 1_555 1_555
H12 C12 1_555 1_555
C13 O2 1_555 1_555
C14 C2 1_555 1_555
H13 C14 1_555 1_555
C15 O4 1_555 1_555
C16 C12 1_555 1_555
H14 C16 1_555 1_555
H15 C16 1_555 1_555
C17 C8 1_555 1_555
H16 C17 1_555 1_555
O6 C32 1_555 1_555
O7 H17 1_555 1_555
O8 C21 1_555 1_555
O9 H18 1_555 1_555
O10 H19 1_555 1_555
C18 C21 1_555 1_555
C19 H20 1_555 1_555
C20 H21 1_555 1_555
H22 C20 1_555 1_555
C21 C20 1_555 1_555
C22 C20 1_555 1_555
H23 C22 1_555 1_555
H24 C22 1_555 1_555
H25 C22 1_555 1_555
C23 C29 1_555 1_555
C24 H26 1_555 1_555
C25 C18 1_555 1_555
C26 O9 1_555 1_555
C27 H27 1_555 1_555
C28 C18 1_555 1_555
H28 C28 1_555 1_555
C29 O10 1_555 1_555
C30 C19 1_555 1_555
C31 C30 1_555 1_555
H29 C31 1_555 1_555
H30 C31 1_555 1_555
H31 C31 1_555 1_555
C32 C23 1_555 1_555
C33 O7 1_555 1_555
C34 C24 1_555 1_555
H32 C34 1_555 1_555
C1 C15 1_555 1_555
C4 C10 1_555 1_555
C4 C13 1_555 1_555
C5 C13 1_555 1_555
C7 C14 1_555 1_555
C11 C15 1_555 1_555
C11 C17 1_555 1_555
C19 C26 1_555 1_555
C23 C33 1_555 1_555
C24 C29 1_555 1_555
C25 C26 1_555 1_555
C25 C32 1_555 1_555
C27 C33 1_555 1_555
C27 C34 1_555 1_555
C28 C30 1_555 1_555

#END
