
#######################################################################
#
#                 Cambridge Crystallographic Data Centre
#                                CCDC 
#
#######################################################################
#
# If this CIF has been generated from an entry in the Cambridge 
# Structural Database, then it will include bibliographic, chemical, 
# crystal, experimental, refinement or atomic coordinate data resulting 
# from the CCDC's data processing and validation procedures.
#
#######################################################################

data_XOBPAI
_chemical_formula_moiety         'C22 H24 O7'
_chemical_name_systematic        
13a-ethyl-7,9-dihydroxy-2-(hydroxymethyl)-3,3,5-trimethyl-2,3-dihydro[1]benzoxepino[2,3,4-ef][1,4]benzodioxepin-8(13aH)-one
_symmetry_cell_setting           triclinic
_symmetry_space_group_name_H-M   'P -1'
_symmetry_Int_Tables_number      2
_space_group_name_Hall           '-P 1'
loop_
_symmetry_equiv_pos_site_id
_symmetry_equiv_pos_as_xyz
1 x,y,z
2 -x,-y,-z
_cell_length_a                   9.13750(10)
_cell_length_b                   13.1527(2)
_cell_length_c                   16.3540(3)
_cell_angle_alpha                95.1870(10)
_cell_angle_beta                 95.2940(10)
_cell_angle_gamma                103.0400(10)
_cell_volume                     1894.04
_exptl_crystal_colour            yellow
_exptl_crystal_description       block
_cell_formula_units_Z            4
loop_
_atom_site_label
_atom_site_type_symbol
_atom_site_fract_x
_atom_site_fract_y
_atom_site_fract_z
O1 O 0.32143(10) 0.25462(7) 0.59614(5)
O2 O 0.41189(9) 0.42509(6) 0.58883(5)
O3 O 0.13446(10) 0.14689(7) 0.47288(5)
O4 O 0.12249(10) 0.59298(7) 0.48026(6)
O5 O 0.24017(11) 0.74775(7) 0.58441(6)
H1 H 0.1817 0.7146 0.5450
O6 O 0.63823(10) 0.28700(8) 0.60635(6)
O7 O 0.13162(11) 0.51163(7) 0.33085(6)
H2 H 0.1421 0.5640 0.3641
C1 C 0.41393(14) 0.52670(9) 0.61743(8)
C2 C 0.31401(14) 0.58080(10) 0.58030(8)
C3 C 0.39255(14) 0.20770(9) 0.53232(7)
H3 H 0.4182 0.2579 0.4921
C4 C 0.20690(14) 0.53737(9) 0.50680(8)
C5 C 0.14423(14) 0.24182(10) 0.44042(8)
C6 C 0.18793(13) 0.43295(10) 0.45707(8)
C7 C 0.19872(13) 0.33813(10) 0.49005(7)
C8 C 0.13508(14) 0.42665(10) 0.37243(8)
C9 C 0.27007(13) 0.34337(9) 0.57891(8)
C10 C 0.32684(15) 0.68682(10) 0.61452(8)
C11 C 0.16839(14) 0.36117(10) 0.64526(8)
H4 H 0.2280 0.3753 0.6990
H5 H 0.1295 0.4224 0.6358
C12 C 0.27413(14) 0.11157(10) 0.48951(8)
C13 C 0.08536(14) 0.23711(10) 0.35759(8)
C14 C 0.08742(14) 0.33050(10) 0.32454(8)
H6 H 0.0559 0.3286 0.2686
C15 C 0.52323(15) 0.57345(10) 0.68233(8)
H7 H 0.5890 0.5361 0.7049
C16 C 0.43568(15) 0.73294(10) 0.68066(8)
H8 H 0.4424 0.8017 0.7029
C17 C 0.53721(14) 0.18890(10) 0.57417(8)
H9 H 0.5144 0.1461 0.6188
H10 H 0.5848 0.1513 0.5347
C18 C 0.03592(15) 0.26687(11) 0.64565(9)
H11 H -0.0202 0.2500 0.5916
H12 H -0.0290 0.2836 0.6852
H13 H 0.0736 0.2077 0.6604
C19 C 0.23092(16) 0.02615(10) 0.54547(8)
H14 H 0.2044 0.0562 0.5961
H15 H 0.3150 -0.0048 0.5574
H16 H 0.1461 -0.0269 0.5183
C20 C 0.53350(15) 0.67746(11) 0.71342(8)
H17 H 0.6073 0.7097 0.7568
C21 C 0.32234(16) 0.06899(10) 0.40925(8)
H18 H 0.2483 0.0069 0.3853
H19 H 0.4185 0.0520 0.4204
H20 H 0.3307 0.1212 0.3714
C22 C 0.01530(17) 0.13424(11) 0.30575(9)
H21 H 0.0832 0.0883 0.3097
H22 H -0.0037 0.1463 0.2492
H23 H -0.0783 0.1024 0.3253
H24 H 0.580(2) 0.3292(16) 0.6232(13)
O8 O 0.69800(10) 0.11040(7) 0.03195(5)
O9 O 0.35035(11) 0.07500(7) 0.18532(6)
O10 O 0.79780(11) 0.26860(8) -0.00412(6)
O11 O 0.46672(13) -0.04772(8) 0.25908(6)
H25 H 0.4019 -0.0158 0.2468
O12 O 0.15427(11) 0.12813(9) 0.09379(7)
H26 H 0.1825 0.0941 0.1292
O13 O 0.61181(12) 0.38268(8) -0.04079(6)
O14 O 0.88377(15) 0.12196(11) -0.11657(8)
H27 H 0.8750 0.1177 -0.0675
C23 C 0.42548(14) 0.16913(10) 0.07645(8)
C24 C 0.44932(14) 0.09391(10) 0.13614(8)
C25 C 0.57188(15) 0.03895(10) 0.14493(8)
C26 C 0.54002(15) 0.23377(10) 0.03723(8)
C27 C 0.69027(15) 0.04749(10) 0.09430(8)
C28 C 0.78451(15) 0.26717(10) 0.13692(8)
H28 H 0.7314 0.2302 0.1782
H29 H 0.8859 0.2554 0.1409
C29 C 0.70291(15) 0.22213(10) 0.05125(8)
C30 C 0.27577(15) 0.18351(11) 0.06271(8)
C31 C 0.50277(16) 0.30812(11) -0.01119(8)
C32 C 0.57350(16) -0.03045(10) 0.20730(8)
C33 C 0.68686(17) -0.08507(11) 0.21667(9)
H30 H 0.6876 -0.1287 0.2583
C34 C 0.80028(16) -0.00840(11) 0.10300(9)
H31 H 0.8757 -0.0018 0.0680
C35 C 0.79450(16) 0.38446(10) 0.15541(9)
H32 H 0.8462 0.4214 0.1145
H33 H 0.8491 0.4096 0.2091
H34 H 0.6944 0.3962 0.1543
C36 C 0.24281(17) 0.25641(11) 0.01195(9)
H35 H 0.1436 0.2632 0.0029
C37 C 0.35280(17) 0.31888(11) -0.02534(9)
C38 C 0.79755(17) -0.07467(11) 0.16459(9)
H36 H 0.8717 -0.1125 0.1706
C39 C 0.73626(17) 0.25113(12) -0.08970(8)
H37 H 0.6462 0.1928 -0.0969
C40 C 0.68877(19) 0.35064(13) -0.10968(9)
C41 C 0.8563(2) 0.21845(16) -0.13774(10)
H38 H 0.8235 0.2118 -0.1965
H39 H 0.9496 0.2726 -0.1262
C42 C 0.3121(2) 0.39732(13) -0.07926(11)
H40 H 0.3902 0.4610 -0.0697
H41 H 0.2181 0.4120 -0.0663
H42 H 0.3020 0.3690 -0.1363
C43 C 0.5849(2) 0.33115(15) -0.19013(10)
H43 H 0.4961 0.2776 -0.1858
H44 H 0.6367 0.3086 -0.2343
H45 H 0.5563 0.3949 -0.2012
C44 C 0.8226(2) 0.44415(15) -0.10981(11)
H46 H 0.7871 0.5075 -0.1099
H47 H 0.8721 0.4347 -0.1583
H48 H 0.8928 0.4490 -0.0614
loop_
_geom_bond_atom_site_label_1
_geom_bond_atom_site_label_2
_geom_bond_site_symmetry_1
_geom_bond_site_symmetry_2
O1 C3 1_555 1_555
O2 C1 1_555 1_555
O3 C5 1_555 1_555
O4 C4 1_555 1_555
O5 H1 1_555 1_555
O6 C17 1_555 1_555
O7 H2 1_555 1_555
C1 C2 1_555 1_555
C2 C4 1_555 1_555
C3 H3 1_555 1_555
C4 C6 1_555 1_555
C5 C7 1_555 1_555
C6 C7 1_555 1_555
C7 C9 1_555 1_555
C8 O7 1_555 1_555
C9 O1 1_555 1_555
C10 O5 1_555 1_555
C11 C9 1_555 1_555
H4 C11 1_555 1_555
H5 C11 1_555 1_555
C12 O3 1_555 1_555
C13 C5 1_555 1_555
C14 C8 1_555 1_555
H6 C14 1_555 1_555
C15 C1 1_555 1_555
H7 C15 1_555 1_555
C16 C10 1_555 1_555
H8 C16 1_555 1_555
C17 C3 1_555 1_555
H9 C17 1_555 1_555
H10 C17 1_555 1_555
C18 C11 1_555 1_555
H11 C18 1_555 1_555
H12 C18 1_555 1_555
H13 C18 1_555 1_555
C19 C12 1_555 1_555
H14 C19 1_555 1_555
H15 C19 1_555 1_555
H16 C19 1_555 1_555
C20 C15 1_555 1_555
H17 C20 1_555 1_555
C21 C12 1_555 1_555
H18 C21 1_555 1_555
H19 C21 1_555 1_555
H20 C21 1_555 1_555
C22 C13 1_555 1_555
H21 C22 1_555 1_555
H22 C22 1_555 1_555
H23 C22 1_555 1_555
H24 O6 1_555 1_555
O8 C27 1_555 1_555
O9 C24 1_555 1_555
O10 C29 1_555 1_555
O11 H25 1_555 1_555
O12 H26 1_555 1_555
O13 C31 1_555 1_555
O14 H27 1_555 1_555
C23 C24 1_555 1_555
C24 C25 1_555 1_555
C25 C27 1_555 1_555
C26 C23 1_555 1_555
C27 C34 1_555 1_555
C28 H28 1_555 1_555
H29 C28 1_555 1_555
C29 O8 1_555 1_555
C30 O12 1_555 1_555
C31 C26 1_555 1_555
C32 O11 1_555 1_555
C33 C32 1_555 1_555
H30 C33 1_555 1_555
C34 H31 1_555 1_555
C35 C28 1_555 1_555
H32 C35 1_555 1_555
H33 C35 1_555 1_555
H34 C35 1_555 1_555
C36 C30 1_555 1_555
H35 C36 1_555 1_555
C37 C31 1_555 1_555
C38 C33 1_555 1_555
H36 C38 1_555 1_555
C39 O10 1_555 1_555
H37 C39 1_555 1_555
C40 O13 1_555 1_555
C41 O14 1_555 1_555
H38 C41 1_555 1_555
H39 C41 1_555 1_555
C42 C37 1_555 1_555
H40 C42 1_555 1_555
H41 C42 1_555 1_555
H42 C42 1_555 1_555
C43 C40 1_555 1_555
H43 C43 1_555 1_555
H44 C43 1_555 1_555
H45 C43 1_555 1_555
C44 C40 1_555 1_555
H46 C44 1_555 1_555
H47 C44 1_555 1_555
H48 C44 1_555 1_555
O2 C9 1_555 1_555
C2 C10 1_555 1_555
C3 C12 1_555 1_555
C6 C8 1_555 1_555
C13 C14 1_555 1_555
C16 C20 1_555 1_555
C23 C30 1_555 1_555
C25 C32 1_555 1_555
C26 C29 1_555 1_555
C28 C29 1_555 1_555
C34 C38 1_555 1_555
C36 C37 1_555 1_555
C39 C40 1_555 1_555
C39 C41 1_555 1_555

#END
