
#######################################################################
#
#                 Cambridge Crystallographic Data Centre
#                                CCDC 
#
#######################################################################
#
# If this CIF has been generated from an entry in the Cambridge 
# Structural Database, then it will include bibliographic, chemical, 
# crystal, experimental, refinement or atomic coordinate data resulting 
# from the CCDC's data processing and validation procedures.
#
#######################################################################

data_XOBTUF
_chemical_formula_moiety         'C25 H18 B1 F18 N1 O2'
_chemical_name_systematic        
N-(((bis(2,4,6-tris(trifluoromethyl)phenyl)boryl)oxy)carbonyl)-N-isopropylpropan-2-amine
_symmetry_cell_setting           monoclinic
_symmetry_space_group_name_H-M   'P 21/c'
_symmetry_Int_Tables_number      14
_space_group_name_Hall           '-P 2ybc'
loop_
_symmetry_equiv_pos_site_id
_symmetry_equiv_pos_as_xyz
1 x,y,z
2 -x,1/2+y,1/2-z
3 -x,-y,-z
4 x,1/2-y,1/2+z
_cell_length_a                   9.4744(8)
_cell_length_b                   20.8186(19)
_cell_length_c                   14.4371(13)
_cell_angle_alpha                90
_cell_angle_beta                 92.317(2)
_cell_angle_gamma                90
_cell_volume                     2845.3
_exptl_crystal_colour            colorless
_exptl_crystal_description       block
_cell_formula_units_Z            4
loop_
_atom_site_label
_atom_site_type_symbol
_atom_site_fract_x
_atom_site_fract_y
_atom_site_fract_z
B1 B 0.2882(3) 0.34472(15) 0.8826(2)
N1 N 0.5321(3) 0.22085(12) 0.84223(18)
O1 O 0.3466(2) 0.25141(11) 0.74568(16)
O2 O 0.3673(2) 0.29104(9) 0.89163(14)
F1 F 0.1367(2) 0.22987(9) 0.92983(13)
F2 F 0.2938(2) 0.21687(9) 1.03938(14)
F3 F 0.0737(2) 0.21366(9) 1.06741(15)
F4 F 0.1018(4) 0.37061(14) 1.30969(16)
F5 F -0.0930(3) 0.39906(16) 1.2440(2)
F6 F 0.0654(3) 0.46759(10) 1.27081(15)
F7 F 0.1667(2) 0.49375(8) 0.87812(13)
F8 F 0.2386(3) 0.54037(9) 1.00244(14)
F9 F 0.3802(2) 0.48128(10) 0.92842(15)
F10 F 0.0321(2) 0.30173(10) 0.8022(2)
F11 F -0.0387(2) 0.39339(11) 0.84237(16)
F12 F -0.0918(2) 0.35784(13) 0.70868(15)
F13 F 0.1626(6) 0.4471(2) 0.4635(2)
F14 F 0.1602(3) 0.53336(17) 0.5271(3)
F15 F 0.3552(3) 0.49951(17) 0.4907(2)
F16 F 0.6159(2) 0.36466(12) 0.74230(18)
F17 F 0.6058(2) 0.46304(11) 0.78311(18)
F18 F 0.5479(2) 0.38928(10) 0.87589(15)
C1 C 0.4138(3) 0.25341(13) 0.8183(2)
C2 C 0.6072(3) 0.22647(17) 0.9336(2)
H1 H 0.5555 0.2577 0.9700
C3 C 0.6062(5) 0.1630(2) 0.9854(3)
H2 H 0.5107 0.1483 0.9895
H3 H 0.6474 0.1689 1.0467
H4 H 0.6600 0.1318 0.9529
C4 C 0.7568(4) 0.2523(2) 0.9244(3)
H5 H 0.8119 0.2215 0.8920
H6 H 0.7992 0.2596 0.9849
H7 H 0.7532 0.2919 0.8904
C5 C 0.5897(4) 0.17570(16) 0.7740(3)
H8 H 0.6741 0.1562 0.8038
C6 C 0.4878(5) 0.12112(19) 0.7509(4)
H9 H 0.4607 0.1008 0.8072
H10 H 0.5329 0.0903 0.7125
H11 H 0.4053 0.1378 0.7184
C7 C 0.6381(5) 0.2100(2) 0.6875(3)
H12 H 0.5583 0.2297 0.6558
H13 H 0.6802 0.1794 0.6471
H14 H 0.7062 0.2423 0.7050
C8 C 0.2176(3) 0.36432(13) 0.9783(2)
C9 C 0.1692(3) 0.31578(13) 1.0388(2)
C10 C 0.1158(3) 0.33065(14) 1.1238(2)
H15 H 0.0863 0.2978 1.1622
C11 C 0.1056(3) 0.39352(14) 1.1526(2)
C12 C 0.1491(3) 0.44230(14) 1.0958(2)
H16 H 0.1416 0.4849 1.1145
C13 C 0.2039(3) 0.42797(13) 1.0111(2)
C14 C 0.1699(3) 0.24428(14) 1.0173(2)
C15 C 0.0476(4) 0.40763(17) 1.2450(2)
C16 C 0.2470(3) 0.48560(14) 0.9549(2)
C17 C 0.2738(3) 0.38286(12) 0.78674(19)
C18 C 0.3908(3) 0.41076(13) 0.7459(2)
C19 C 0.3802(3) 0.44238(14) 0.6618(2)
H17 H 0.4602 0.4603 0.6369
C20 C 0.2513(3) 0.44743(14) 0.6149(2)
C21 C 0.1326(3) 0.42097(13) 0.6527(2)
H18 H 0.0451 0.4244 0.6216
C22 C 0.1443(3) 0.38959(12) 0.73623(19)
C23 C 0.5397(3) 0.40709(15) 0.7877(2)
C24 C 0.2370(4) 0.4798(2) 0.5229(3)
C25 C 0.0116(3) 0.36081(14) 0.7717(2)
loop_
_geom_bond_atom_site_label_1
_geom_bond_atom_site_label_2
_geom_bond_site_symmetry_1
_geom_bond_site_symmetry_2
B1 O2 1_555 1_555
N1 C1 1_555 1_555
O1 C1 1_555 1_555
O2 C1 1_555 1_555
F1 C14 1_555 1_555
F2 C14 1_555 1_555
F3 C14 1_555 1_555
F4 C15 1_555 1_555
F5 C15 1_555 1_555
F6 C15 1_555 1_555
F7 C16 1_555 1_555
F8 C16 1_555 1_555
F9 C16 1_555 1_555
F10 C25 1_555 1_555
F11 C25 1_555 1_555
F12 C25 1_555 1_555
F13 C24 1_555 1_555
F14 C24 1_555 1_555
F15 C24 1_555 1_555
F16 C23 1_555 1_555
F17 C23 1_555 1_555
F18 C23 1_555 1_555
C2 N1 1_555 1_555
H1 C2 1_555 1_555
C3 C2 1_555 1_555
H2 C3 1_555 1_555
H3 C3 1_555 1_555
H4 C3 1_555 1_555
C4 C2 1_555 1_555
H5 C4 1_555 1_555
H6 C4 1_555 1_555
H7 C4 1_555 1_555
C5 N1 1_555 1_555
H8 C5 1_555 1_555
C6 C5 1_555 1_555
H9 C6 1_555 1_555
H10 C6 1_555 1_555
H11 C6 1_555 1_555
C7 C5 1_555 1_555
H12 C7 1_555 1_555
H13 C7 1_555 1_555
H14 C7 1_555 1_555
C8 B1 1_555 1_555
C9 C8 1_555 1_555
C10 C9 1_555 1_555
H15 C10 1_555 1_555
C11 C10 1_555 1_555
C12 C11 1_555 1_555
H16 C12 1_555 1_555
C13 C8 1_555 1_555
C14 C9 1_555 1_555
C15 C11 1_555 1_555
C16 C13 1_555 1_555
C17 B1 1_555 1_555
C18 C17 1_555 1_555
C19 C18 1_555 1_555
H17 C19 1_555 1_555
C20 C19 1_555 1_555
C21 C20 1_555 1_555
H18 C21 1_555 1_555
C22 C17 1_555 1_555
C23 C18 1_555 1_555
C24 C20 1_555 1_555
C25 C22 1_555 1_555
C12 C13 1_555 1_555
C21 C22 1_555 1_555

#END
