
#######################################################################
#
#                 Cambridge Crystallographic Data Centre
#                                CCDC 
#
#######################################################################
#
# If this CIF has been generated from an entry in the Cambridge 
# Structural Database, then it will include bibliographic, chemical, 
# crystal, experimental, refinement or atomic coordinate data resulting 
# from the CCDC's data processing and validation procedures.
#
#######################################################################

data_XOBVOB
_chemical_formula_moiety         'C19 H6 B1 F18 O2 1-,C6 H16 N1 1+'
_chemical_name_systematic        
'N,N-diisopropylammonium (formato)(hydrido)bis(2,4,6-tris(trifluoromethyl)phenyl)borate'
_symmetry_cell_setting           monoclinic
_symmetry_space_group_name_H-M   'P 21/n'
_symmetry_Int_Tables_number      14
_space_group_name_Hall           '-P 2yn'
loop_
_symmetry_equiv_pos_site_id
_symmetry_equiv_pos_as_xyz
1 x,y,z
2 1/2-x,1/2+y,1/2-z
3 -x,-y,-z
4 1/2+x,1/2-y,1/2+z
_cell_length_a                   9.9456(8)
_cell_length_b                   14.1430(11)
_cell_length_c                   21.3240(18)
_cell_angle_alpha                90
_cell_angle_beta                 99.2610(10)
_cell_angle_gamma                90
_cell_volume                     2960.35
_exptl_crystal_colour            colorless
_exptl_crystal_description       block
_cell_formula_units_Z            4
loop_
_atom_site_label
_atom_site_type_symbol
_atom_site_fract_x
_atom_site_fract_y
_atom_site_fract_z
C1 C 0.5550(3) 0.05372(18) 0.18100(12)
C2 C 0.6632(3) 0.1055(2) 0.21660(14)
C3 C 0.7173(3) 0.0834(2) 0.27971(16)
H1 H 0.7860 0.1208 0.3019
C4 C 0.6696(3) 0.0073(2) 0.30878(15)
C5 C 0.5789(3) -0.0534(2) 0.27351(14)
H2 H 0.5524 -0.1086 0.2918
C6 C 0.5268(3) -0.03216(19) 0.21055(13)
C7 C 0.7288(3) 0.1898(2) 0.19008(17)
C8 C 0.7153(5) -0.0096(3) 0.37848(18)
C9 C 0.4418(3) -0.1094(2) 0.17550(13)
C10 C 0.4216(3) 0.20702(18) 0.11785(12)
C11 C 0.4315(3) 0.27178(19) 0.06822(13)
C12 C 0.3968(3) 0.3667(2) 0.07085(15)
H3 H 0.4064 0.4068 0.0373
C13 C 0.3481(3) 0.4013(2) 0.12318(16)
C14 C 0.3277(3) 0.3405(2) 0.17083(15)
H4 H 0.2908 0.3630 0.2054
C15 C 0.3616(3) 0.2456(2) 0.16785(13)
C16 C 0.4726(3) 0.2401(2) 0.00663(14)
C17 C 0.3116(5) 0.5038(3) 0.1276(2)
C18 C 0.3287(3) 0.1884(2) 0.22313(14)
C19 C 0.3082(3) 0.00335(18) 0.03848(12)
H5 H 0.384(3) -0.0050(19) 0.0148(13)
B1 B 0.4701(3) 0.0952(2) 0.11342(14)
H6 H 0.534(2) 0.0844(17) 0.0766(12)
O1 O 0.19376(17) -0.02308(13) 0.01451(9)
O2 O 0.33325(16) 0.04496(12) 0.09255(8)
F1 F 0.29844(17) 0.09864(11) 0.20999(8)
F2 F 0.4340(2) 0.18702(15) 0.27249(9)
F3 F 0.2250(3) 0.22417(16) 0.24674(13)
F4 F 0.1933(4) 0.5174(2) 0.1429(2)
F5 F 0.3974(5) 0.54713(19) 0.17537(19)
F6 F 0.3240(3) 0.55289(16) 0.07751(14)
F7 F 0.4513(2) 0.30779(14) -0.03812(9)
F8 F 0.60250(18) 0.21490(13) 0.01035(9)
F9 F 0.39651(18) 0.16617(12) -0.01861(8)
F10 F 0.30664(15) -0.09912(13) 0.17399(8)
F11 F 0.46199(16) -0.11884(11) 0.11537(7)
F12 F 0.47325(18) -0.19396(12) 0.20237(9)
F13 F 0.6848(5) -0.0914(2) 0.39769(13)
F14 F 0.8483(3) -0.0020(3) 0.39500(14)
F15 F 0.6704(4) 0.0541(2) 0.41354(12)
F16 F 0.8617(2) 0.19564(15) 0.21455(12)
F17 F 0.6737(2) 0.27250(13) 0.20372(11)
F18 F 0.72388(19) 0.18781(14) 0.12791(9)
C20 C 0.9715(3) 0.8940(2) 0.13184(14)
H7 H 1.0444 0.8560 0.1560
C21 C 0.9962(4) 0.9963(3) 0.14953(16)
H8 H 1.0830 1.0155 0.1398
H9 H 0.9954 1.0042 0.1942
H10 H 0.9258 1.0345 0.1259
C22 C 0.8363(4) 0.8582(3) 0.14599(17)
H11 H 0.8254 0.7930 0.1339
H12 H 0.7638 0.8947 0.1224
H13 H 0.8338 0.8644 0.1906
C23 C 0.9699(3) 0.7858(2) 0.03351(15)
H14 H 0.8867 0.7552 0.0424
C24 C 0.9622(4) 0.7945(2) -0.03729(16)
H15 H 0.8835 0.8311 -0.0544
H16 H 0.9553 0.7326 -0.0561
H17 H 1.0428 0.8252 -0.0465
C25 C 1.0911(4) 0.7279(3) 0.06308(19)
H18 H 1.0850 0.6658 0.0447
H19 H 1.0920 0.7232 0.1081
H20 H 1.1734 0.7579 0.0553
N1 N 0.9785(2) 0.88393(17) 0.06206(11)
H21 H 1.059(4) 0.914(2) 0.0561(16)
H22 H 0.909(3) 0.923(2) 0.0399(14)
loop_
_geom_bond_atom_site_label_1
_geom_bond_atom_site_label_2
_geom_bond_site_symmetry_1
_geom_bond_site_symmetry_2
C1 C2 1_555 1_555
C2 C3 1_555 1_555
C3 H1 1_555 1_555
C4 C3 1_555 1_555
C5 C4 1_555 1_555
H2 C5 1_555 1_555
C6 C1 1_555 1_555
C7 C2 1_555 1_555
C8 C4 1_555 1_555
C9 C6 1_555 1_555
C10 C11 1_555 1_555
C11 C12 1_555 1_555
C12 H3 1_555 1_555
C13 C12 1_555 1_555
C14 C13 1_555 1_555
H4 C14 1_555 1_555
C15 C10 1_555 1_555
C16 C11 1_555 1_555
C17 C13 1_555 1_555
C18 C15 1_555 1_555
C19 H5 1_555 1_555
B1 C1 1_555 1_555
H6 B1 1_555 1_555
O1 C19 1_555 1_555
O2 C19 1_555 1_555
F1 C18 1_555 1_555
F2 C18 1_555 1_555
F3 C18 1_555 1_555
F4 C17 1_555 1_555
F5 C17 1_555 1_555
F6 C17 1_555 1_555
F7 C16 1_555 1_555
F8 C16 1_555 1_555
F9 C16 1_555 1_555
F10 C9 1_555 1_555
F11 C9 1_555 1_555
F12 C9 1_555 1_555
F13 C8 1_555 1_555
F14 C8 1_555 1_555
F15 C8 1_555 1_555
F16 C7 1_555 1_555
F17 C7 1_555 1_555
F18 C7 1_555 1_555
C20 H7 1_555 1_555
C21 C20 1_555 1_555
H8 C21 1_555 1_555
H9 C21 1_555 1_555
H10 C21 1_555 1_555
C22 C20 1_555 1_555
H11 C22 1_555 1_555
H12 C22 1_555 1_555
H13 C22 1_555 1_555
C23 H14 1_555 1_555
C24 C23 1_555 1_555
H15 C24 1_555 1_555
H16 C24 1_555 1_555
H17 C24 1_555 1_555
C25 C23 1_555 1_555
H18 C25 1_555 1_555
H19 C25 1_555 1_555
H20 C25 1_555 1_555
N1 C20 1_555 1_555
H21 N1 1_555 1_555
H22 N1 1_555 1_555
C5 C6 1_555 1_555
C10 B1 1_555 1_555
C14 C15 1_555 1_555
B1 O2 1_555 1_555
C23 N1 1_555 1_555

#END
