
#######################################################################
#
#                 Cambridge Crystallographic Data Centre
#                                CCDC 
#
#######################################################################
#
# If this CIF has been generated from an entry in the Cambridge 
# Structural Database, then it will include bibliographic, chemical, 
# crystal, experimental, refinement or atomic coordinate data resulting 
# from the CCDC's data processing and validation procedures.
#
#######################################################################

data_XOBVUG
_chemical_formula_moiety         'C18 H18 N2 O4 S1'
_chemical_name_systematic        
'(S)-Methyl 2-(benzenesulfonamido)-3-(1H-indol-3-yl)propanoate'
_symmetry_cell_setting           orthorhombic
_symmetry_space_group_name_H-M   'P 21 21 21'
_symmetry_Int_Tables_number      19
_space_group_name_Hall           'P 2ac 2ab'
loop_
_symmetry_equiv_pos_site_id
_symmetry_equiv_pos_as_xyz
1 x,y,z
2 1/2-x,-y,1/2+z
3 -x,1/2+y,1/2-z
4 1/2+x,1/2-y,-z
_cell_length_a                   9.6348(14)
_cell_length_b                   11.1517(17)
_cell_length_c                   16.412(3)
_cell_angle_alpha                90
_cell_angle_beta                 90
_cell_angle_gamma                90
_cell_volume                     1763.38
_exptl_crystal_colour            colorless
_exptl_crystal_description       rectangle
_chemical_melting_point          '146-147 deg.C'
_cell_formula_units_Z            4
_exptl_crystal_recrystallization_method 'petroleum ether'
loop_
_atom_site_label
_atom_site_type_symbol
_atom_site_fract_x
_atom_site_fract_y
_atom_site_fract_z
S1 S 0.79613(6) 0.55656(6) 0.76307(4)
O1 O 0.48537(18) 0.30973(14) 0.77271(10)
O2 O 0.43437(18) 0.47217(14) 0.69849(10)
O3 O 0.84806(16) 0.46970(18) 0.81899(11)
O4 O 0.86778(18) 0.66719(17) 0.75157(13)
N1 N 0.1103(2) 0.3928(2) 0.90584(15)
H1 H 0.0273(17) 0.363(3) 0.8934(18)
N2 N 0.6420(2) 0.59175(17) 0.79287(12)
H2 H 0.607(3) 0.650(2) 0.7672(15)
C1 C 0.3081(2) 0.4958(2) 0.89527(14)
C2 C 0.3090(2) 0.4325(2) 0.97113(13)
C3 C 0.4014(2) 0.4259(2) 1.03665(15)
H3 H 0.4853 0.4672 1.0351
C4 C 0.3667(3) 0.3576(2) 1.10344(17)
H4 H 0.4285 0.3521 1.1468
C5 C 0.2406(3) 0.2965(2) 1.10736(18)
H5 H 0.2194 0.2519 1.1536
C6 C 0.1473(3) 0.3011(2) 1.04447(17)
H6 H 0.0633 0.2602 1.0473
C7 C 0.1822(2) 0.3687(2) 0.97631(15)
C8 C 0.1868(3) 0.4688(3) 0.85812(16)
H7 H 0.1593 0.4976 0.8075
C9 C 0.4211(2) 0.5754(2) 0.86305(15)
H8 H 0.4561 0.6249 0.9071
H9 H 0.3824 0.6283 0.8220
C10 C 0.5427(2) 0.5049(2) 0.82552(14)
H10 H 0.5884 0.4593 0.8689
C11 C 0.4860(2) 0.41670(19) 0.76293(14)
C12 C 0.3746(3) 0.3976(3) 0.63585(17)
H11 H 0.2953 0.3561 0.6574
H12 H 0.4423 0.3403 0.6178
H13 H 0.3464 0.4467 0.5907
C13 C 0.7818(3) 0.4859(2) 0.66665(15)
C14 C 0.7241(3) 0.5488(3) 0.60303(16)
H14 H 0.6944 0.6273 0.6111
C15 C 0.7100(4) 0.4967(5) 0.5279(2)
H15 H 0.6726 0.5399 0.4847
C16 C 0.7515(4) 0.3807(5) 0.5170(2)
H16 H 0.7396 0.3446 0.4664
C17 C 0.8103(5) 0.3166(3) 0.5792(2)
H17 H 0.8395 0.2381 0.5706
C18 C 0.8264(4) 0.3703(3) 0.65621(19)
H18 H 0.8664 0.3281 0.6991
loop_
_geom_bond_atom_site_label_1
_geom_bond_atom_site_label_2
_geom_bond_site_symmetry_1
_geom_bond_site_symmetry_2
S1 O3 1_555 1_555
O1 C11 1_555 1_555
O2 C11 1_555 1_555
O4 S1 1_555 1_555
N1 H1 1_555 1_555
N2 S1 1_555 1_555
H2 N2 1_555 1_555
C1 C2 1_555 1_555
C2 C3 1_555 1_555
C3 H3 1_555 1_555
C4 C3 1_555 1_555
H4 C4 1_555 1_555
C5 C4 1_555 1_555
H5 C5 1_555 1_555
C6 C5 1_555 1_555
H6 C6 1_555 1_555
C7 N1 1_555 1_555
C8 N1 1_555 1_555
H7 C8 1_555 1_555
C9 C1 1_555 1_555
H8 C9 1_555 1_555
H9 C9 1_555 1_555
C10 N2 1_555 1_555
H10 C10 1_555 1_555
C11 C10 1_555 1_555
C12 O2 1_555 1_555
H11 C12 1_555 1_555
H12 C12 1_555 1_555
H13 C12 1_555 1_555
C13 S1 1_555 1_555
C14 C13 1_555 1_555
H14 C14 1_555 1_555
C15 C14 1_555 1_555
H15 C15 1_555 1_555
C16 C15 1_555 1_555
H16 C16 1_555 1_555
C17 C16 1_555 1_555
H17 C17 1_555 1_555
C18 C13 1_555 1_555
H18 C18 1_555 1_555
C1 C8 1_555 1_555
C2 C7 1_555 1_555
C6 C7 1_555 1_555
C9 C10 1_555 1_555
C17 C18 1_555 1_555

#END
