
#######################################################################
#
#                 Cambridge Crystallographic Data Centre
#                                CCDC 
#
#######################################################################
#
# If this CIF has been generated from an entry in the Cambridge 
# Structural Database, then it will include bibliographic, chemical, 
# crystal, experimental, refinement or atomic coordinate data resulting 
# from the CCDC's data processing and validation procedures.
#
#######################################################################

data_XOBVAN
_chemical_formula_moiety         'C25 H19 B1 F18 N1 O2 1-,C6 H16 N1 1+'
_chemical_name_systematic        
'N-isopropylpropan-2-aminium (diisopropylcarbamato)(hydrido)bis(2,4,6-tris(trifluoromethyl)phenyl)borate'
_symmetry_cell_setting           monoclinic
_symmetry_space_group_name_H-M   'P 21/c'
_symmetry_Int_Tables_number      14
_space_group_name_Hall           '-P 2ybc'
loop_
_symmetry_equiv_pos_site_id
_symmetry_equiv_pos_as_xyz
1 x,y,z
2 -x,1/2+y,1/2-z
3 -x,-y,-z
4 x,1/2-y,1/2+z
_cell_length_a                   16.6174(17)
_cell_length_b                   11.2356(11)
_cell_length_c                   20.840(2)
_cell_angle_alpha                90
_cell_angle_beta                 112.488(2)
_cell_angle_gamma                90
_cell_volume                     3595.09
_exptl_crystal_colour            colorless
_exptl_crystal_description       rod
_cell_formula_units_Z            4
loop_
_atom_site_label
_atom_site_type_symbol
_atom_site_fract_x
_atom_site_fract_y
_atom_site_fract_z
C1 C 0.35460(15) 0.7428(2) 1.06365(12)
C2 C 0.46538(18) 0.7630(3) 1.18158(13)
H1 H 0.5114 0.8211 1.2046
C3 C 0.5109(2) 0.6443(3) 1.18780(17)
H2 H 0.4683 0.5828 1.1687
H3 H 0.5444 0.6276 1.2359
H4 H 0.5488 0.6472 1.1628
C4 C 0.4049(2) 0.7672(4) 1.21992(15)
H5 H 0.3794 0.8450 1.2152
H6 H 0.4370 0.7504 1.2682
H7 H 0.3597 0.7090 1.2008
C5 C 0.45984(17) 0.9078(2) 1.08724(14)
H8 H 0.4256 0.9196 1.0376
C6 C 0.5541(2) 0.8872(3) 1.09511(19)
H9 H 0.5909 0.8838 1.1435
H10 H 0.5725 0.9514 1.0735
H11 H 0.5580 0.8134 1.0732
C7 C 0.4507(3) 1.0193(3) 1.1238(2)
H12 H 0.3902 1.0337 1.1141
H13 H 0.4745 1.0854 1.1077
H14 H 0.4816 1.0100 1.1729
C8 C 0.18655(14) 0.8947(2) 0.92098(11)
C9 C 0.14396(15) 0.9536(2) 0.96006(12)
C10 C 0.10167(16) 1.0613(2) 0.94099(13)
H15 H 0.0739 1.0946 0.9679
C11 C 0.10020(16) 1.1201(2) 0.88251(13)
C12 C 0.14173(16) 1.0699(2) 0.84347(13)
H16 H 0.1420 1.1095 0.8043
C13 C 0.18349(15) 0.9603(2) 0.86201(12)
C14 C 0.13601(17) 0.8991(2) 1.02377(13)
C15 C 0.05173(19) 1.2343(3) 0.86180(16)
C16 C 0.22199(17) 0.9156(2) 0.81226(13)
C17 C 0.23589(14) 0.6643(2) 0.89048(11)
C18 C 0.31010(14) 0.6224(2) 0.87966(12)
C19 C 0.30378(16) 0.5398(2) 0.82812(12)
H17 H 0.3539 0.5156 0.8221
C20 C 0.22478(16) 0.4938(2) 0.78614(13)
C21 C 0.15059(16) 0.5275(2) 0.79635(13)
H18 H 0.0968 0.4956 0.7688
C22 C 0.15680(15) 0.6088(2) 0.84782(12)
C23 C 0.40376(15) 0.6543(2) 0.92541(13)
C24 C 0.21930(19) 0.4014(3) 0.73322(15)
C25 C 0.07247(15) 0.6300(2) 0.85731(13)
N1 N 0.42374(13) 0.80263(18) 1.10873(10)
O1 O 0.32104(10) 0.79134(14) 1.00206(8)
O2 O 0.32780(10) 0.64970(14) 1.08055(8)
B1 B 0.23263(17) 0.7619(2) 0.94899(13)
H19 H 0.1916(15) 0.717(2) 0.9745(12)
F1 F 0.07789(10) 0.80901(14) 1.00757(8)
F2 F 0.21045(10) 0.85828(14) 1.07092(7)
F3 F 0.10621(11) 0.97839(15) 1.05795(8)
F4 F 0.07705(19) 1.31444(18) 0.91109(13)
F5 F -0.03260(14) 1.22063(19) 0.84705(15)
F6 F 0.05497(18) 1.28197(18) 0.80532(13)
F7 F 0.22699(12) 1.00106(14) 0.76823(8)
F8 F 0.17469(11) 0.82825(15) 0.77133(8)
F9 F 0.30260(9) 0.87407(14) 0.84292(8)
F10 F 0.42357(9) 0.76958(14) 0.93200(8)
F11 F 0.42755(9) 0.61048(13) 0.98954(7)
F12 F 0.46033(10) 0.60625(17) 0.89997(9)
F13 F 0.26611(13) 0.42913(18) 0.69556(10)
F14 F 0.24931(17) 0.29668(16) 0.76186(12)
F15 F 0.13822(12) 0.38423(18) 0.68749(10)
F16 F 0.07285(9) 0.57854(13) 0.91641(8)
F17 F 0.00397(9) 0.57985(14) 0.80634(8)
F18 F 0.05095(9) 0.74301(13) 0.85922(8)
C26 C 0.81577(16) 0.5460(2) 0.90136(13)
H20 H 0.7684 0.5508 0.8555
C27 C 0.8727(2) 0.6539(3) 0.9106(2)
H21 H 0.9177 0.6531 0.9563
H22 H 0.8382 0.7245 0.9049
H23 H 0.8986 0.6529 0.8766
C28 C 0.86417(19) 0.4313(3) 0.90521(15)
H24 H 0.8248 0.3655 0.8980
H25 H 0.9104 0.4244 0.9501
H26 H 0.8881 0.4309 0.8700
C29 C 0.72279(18) 0.6508(2) 0.95791(16)
H27 H 0.7601 0.7214 0.9669
C30 C 0.6486(2) 0.6664(3) 0.8887(2)
H28 H 0.6173 0.5928 0.8753
H29 H 0.6713 0.6888 0.8544
H30 H 0.6101 0.7274 0.8923
C31 C 0.6935(3) 0.6352(3) 1.0177(2)
H31 H 0.7429 0.6164 1.0592
H32 H 0.6518 0.5717 1.0074
H33 H 0.6672 0.7076 1.0246
N2 N 0.77628(13) 0.54339(18) 0.95541(10)
H34 H 0.8196 0.5349 0.9974
H35 H 0.7422 0.4785 0.9480
loop_
_geom_bond_atom_site_label_1
_geom_bond_atom_site_label_2
_geom_bond_site_symmetry_1
_geom_bond_site_symmetry_2
C1 N1 1_555 1_555
C2 H1 1_555 1_555
C3 C2 1_555 1_555
H2 C3 1_555 1_555
H3 C3 1_555 1_555
H4 C3 1_555 1_555
C4 C2 1_555 1_555
H5 C4 1_555 1_555
H6 C4 1_555 1_555
H7 C4 1_555 1_555
C5 H8 1_555 1_555
C6 C5 1_555 1_555
H9 C6 1_555 1_555
H10 C6 1_555 1_555
H11 C6 1_555 1_555
C7 C5 1_555 1_555
H12 C7 1_555 1_555
H13 C7 1_555 1_555
H14 C7 1_555 1_555
C8 C9 1_555 1_555
C9 C10 1_555 1_555
C10 H15 1_555 1_555
C11 C10 1_555 1_555
C12 C11 1_555 1_555
H16 C12 1_555 1_555
C13 C8 1_555 1_555
C14 C9 1_555 1_555
C15 C11 1_555 1_555
C16 C13 1_555 1_555
C17 C18 1_555 1_555
C18 C19 1_555 1_555
C19 H17 1_555 1_555
C20 C19 1_555 1_555
C21 C20 1_555 1_555
H18 C21 1_555 1_555
C22 C17 1_555 1_555
C23 C18 1_555 1_555
C24 C20 1_555 1_555
C25 C22 1_555 1_555
N1 C2 1_555 1_555
O1 C1 1_555 1_555
O2 C1 1_555 1_555
B1 C8 1_555 1_555
H19 B1 1_555 1_555
F1 C14 1_555 1_555
F2 C14 1_555 1_555
F3 C14 1_555 1_555
F4 C15 1_555 1_555
F5 C15 1_555 1_555
F6 C15 1_555 1_555
F7 C16 1_555 1_555
F8 C16 1_555 1_555
F9 C16 1_555 1_555
F10 C23 1_555 1_555
F11 C23 1_555 1_555
F12 C23 1_555 1_555
F13 C24 1_555 1_555
F14 C24 1_555 1_555
F15 C24 1_555 1_555
F16 C25 1_555 1_555
F17 C25 1_555 1_555
F18 C25 1_555 1_555
C26 H20 1_555 1_555
C27 C26 1_555 1_555
H21 C27 1_555 1_555
H22 C27 1_555 1_555
H23 C27 1_555 1_555
C28 C26 1_555 1_555
H24 C28 1_555 1_555
H25 C28 1_555 1_555
H26 C28 1_555 1_555
C29 H27 1_555 1_555
C30 C29 1_555 1_555
H28 C30 1_555 1_555
H29 C30 1_555 1_555
H30 C30 1_555 1_555
C31 C29 1_555 1_555
H31 C31 1_555 1_555
H32 C31 1_555 1_555
H33 C31 1_555 1_555
N2 C26 1_555 1_555
H34 N2 1_555 1_555
H35 N2 1_555 1_555
C5 N1 1_555 1_555
C12 C13 1_555 1_555
C17 B1 1_555 1_555
C21 C22 1_555 1_555
O1 B1 1_555 1_555
C29 N2 1_555 1_555

#END
