
#######################################################################
#
#                 Cambridge Crystallographic Data Centre
#                                CCDC 
#
#######################################################################
#
# If this CIF has been generated from an entry in the Cambridge 
# Structural Database, then it will include bibliographic, chemical, 
# crystal, experimental, refinement or atomic coordinate data resulting 
# from the CCDC's data processing and validation procedures.
#
#######################################################################

data_XOBWUI
_chemical_formula_moiety         
'1.5(C12 H24 O6),C3 H12 N2 O1 2+,2(B1 F4 1-),H2 O1'
_chemical_name_systematic        
'2-Hydroxypropane-1,3-diaminium sesqui(18-crown-6) bis(tetrafluoroborate) monohydrate'
_symmetry_cell_setting           monoclinic
_symmetry_space_group_name_H-M   'P 21/c'
_symmetry_Int_Tables_number      14
_space_group_name_Hall           '-P 2ybc'
loop_
_symmetry_equiv_pos_site_id
_symmetry_equiv_pos_as_xyz
1 x,y,z
2 -x,1/2+y,1/2-z
3 -x,-y,-z
4 x,1/2-y,1/2+z
_cell_length_a                   13.800(3)
_cell_length_b                   10.068(2)
_cell_length_c                   22.718(5)
_cell_angle_alpha                90
_cell_angle_beta                 92.89(3)
_cell_angle_gamma                90
_cell_volume                     3152.39
_cell_formula_units_Z            4
loop_
_atom_site_label
_atom_site_type_symbol
_atom_site_fract_x
_atom_site_fract_y
_atom_site_fract_z
B1 B 0.2936(3) 0.4134(5) 0.4862(2)
F1 F 0.2769(7) 0.2944(9) 0.4468(4)
F2 F 0.2997(18) 0.503(3) 0.4482(11)
F3 F 0.338(3) 0.419(4) 0.5021(17)
F4 F 0.2131(13) 0.4278(16) 0.5258(8)
O1 O 0.2766(6) -0.0062(8) 0.5486(3)
N1 N 0.1314(7) 0.1454(9) 0.5059(4)
N2 N 0.3546(6) 0.0247(8) 0.6596(4)
C1 C 0.2779(7) 0.1017(10) 0.6374(5)
C2 C 0.1602(7) 0.1470(9) 0.5657(4)
C3 C 0.2428(7) 0.0787(10) 0.5823(5)
O2 O 0.4471(7) 0.7074(10) 0.1105(4)
O3 O 0.2772(7) 0.5435(11) 0.2706(4)
O4 O 0.5256(8) 0.4567(11) 0.0901(5)
O5 O 0.5019(7) 0.2641(9) 0.1782(4)
O6 O 0.3483(7) 0.3045(9) 0.2539(4)
O7 O 0.2818(8) 0.7363(11) 0.1797(5)
C4 C 0.4919(13) 0.6745(18) 0.0577(8)
C5 C 0.4471(13) 0.1491(18) 0.2001(8)
C6 C 0.4163(13) 0.1927(17) 0.2584(9)
C7 C 0.2337(14) 0.4460(19) 0.2957(9)
C8 C 0.5684(11) 0.5700(14) 0.0691(7)
C9 C 0.2050(14) 0.651(2) 0.2592(8)
C10 C 0.3706(17) 0.818(2) 0.1016(11)
C11 C 0.3206(12) 0.3338(16) 0.3101(8)
C12 C 0.5471(12) 0.2317(16) 0.1272(7)
C13 C 0.3250(17) 0.833(2) 0.1570(11)
C14 C 0.5931(14) 0.3599(18) 0.1049(8)
C15 C 0.2334(16) 0.763(2) 0.2369(10)
O8 O 0.0989(3) 0.3582(4) 0.69383(18)
O9? O 0.0826(6) -0.1014(8) 0.4387(4)
O10? O -0.0208(7) 0.3084(9) 0.4855(4)
O11? O 0.0545(7) 0.1602(10) 0.3951(5)
C16? C 0.1324(12) -0.2208(16) 0.4505(7)
C17? C 0.0252(9) 0.0459(13) 0.3624(6)
C18? C 0.0924(12) -0.0605(16) 0.3742(7)
C19? C -0.0107(16) 0.360(2) 0.4255(10)
O12? O 0.1139(13) -0.2587(17) 0.5176(8)
C20? C -0.0031(13) 0.2778(18) 0.3801(8)
loop_
_geom_bond_atom_site_label_1
_geom_bond_atom_site_label_2
_geom_bond_site_symmetry_1
_geom_bond_site_symmetry_2
B1 F1 1_555 1_555
F2 B1 1_555 1_555
F3 B1 1_555 1_555
F4 B1 1_555 1_555
O1 C3 1_555 1_555
N1 C2 1_555 1_555
N2 C1 1_555 1_555
C1 C3 1_555 1_555
C2 C3 1_555 1_555
O2 C4 1_555 1_555
O3 C7 1_555 1_555
O4 C8 1_555 1_555
O5 C5 1_555 1_555
O6 C6 1_555 1_555
O7 C13 1_555 1_555
C4 C8 1_555 1_555
C5 C6 1_555 1_555
C7 C11 1_555 1_555
C9 O3 1_555 1_555
C10 O2 1_555 1_555
C11 O6 1_555 1_555
C12 O5 1_555 1_555
C13 C10 1_555 1_555
C14 O4 1_555 1_555
C15 O7 1_555 1_555
C9 C15 1_555 1_555
C12 C14 1_555 1_555

#END
