
#######################################################################
#
#                 Cambridge Crystallographic Data Centre
#                                CCDC 
#
#######################################################################
#
# If this CIF has been generated from an entry in the Cambridge 
# Structural Database, then it will include bibliographic, chemical, 
# crystal, experimental, refinement or atomic coordinate data resulting 
# from the CCDC's data processing and validation procedures.
#
#######################################################################

data_XOBWES
_chemical_formula_moiety         'C12 H24 O6,C6 H7 I1 N1 1+,B1 F4 1-'
_chemical_name_systematic        '4-Iodoanilinium 18-crown-6 tetrafluoroborate'
_symmetry_cell_setting           orthorhombic
_symmetry_space_group_name_H-M   'P n m a'
_symmetry_Int_Tables_number      62
_space_group_name_Hall           '-P 2ac 2n'
loop_
_symmetry_equiv_pos_site_id
_symmetry_equiv_pos_as_xyz
1 x,y,z
2 1/2-x,-y,1/2+z
3 1/2+x,1/2-y,1/2-z
4 -x,1/2+y,-z
5 -x,-y,-z
6 1/2+x,y,1/2-z
7 1/2-x,1/2+y,1/2+z
8 x,1/2-y,z
_cell_length_a                   16.086(3)
_cell_length_b                   11.311(2)
_cell_length_c                   12.908(3)
_cell_angle_alpha                90
_cell_angle_beta                 90
_cell_angle_gamma                90
_cell_volume                     2348.59
_cell_formula_units_Z            4
loop_
_atom_site_label
_atom_site_type_symbol
_atom_site_fract_x
_atom_site_fract_y
_atom_site_fract_z
O1 O 0.29719(12) 0.54161(17) 0.40494(15)
O2 O 0.39187(12) 0.53069(16) 0.21961(14)
O3 O 0.2146(2) 0.7500 0.4681(2)
O4 O 0.45564(18) 0.7500 0.1538(2)
C1 C 0.46335(19) 0.6454(3) 0.0941(2)
H1 H 0.5130 0.6492 0.0516
H2 H 0.4156 0.6368 0.0488
C2 C 0.46845(18) 0.5436(3) 0.1655(2)
H3 H 0.4802 0.4721 0.1266
H4 H 0.5133 0.5559 0.2146
C3 C 0.2169(2) 0.6449(3) 0.5292(3)
H5 H 0.1677 0.6407 0.5726
H6 H 0.2654 0.6461 0.5739
C4 C 0.2204(2) 0.5394(3) 0.4596(3)
H7 H 0.2163 0.4675 0.5002
H8 H 0.1744 0.5413 0.4111
C5 C 0.3980(2) 0.4456(3) 0.3006(2)
H9 H 0.4397 0.4706 0.3503
H10 H 0.4150 0.3700 0.2722
C6 C 0.3163(2) 0.4329(2) 0.3533(2)
H11 H 0.2735 0.4148 0.3028
H12 H 0.3186 0.3688 0.4031
O1G O 0.29719(12) 0.95839(17) 0.40494(15)
O2G O 0.39187(12) 0.96931(16) 0.21961(14)
C1G C 0.46335(19) 0.8546(3) 0.0941(2)
H1G H 0.5130 0.8508 0.0516
H2G H 0.4156 0.8632 0.0488
C2G C 0.46845(18) 0.9564(3) 0.1655(2)
H3G H 0.4802 1.0279 0.1266
H4G H 0.5133 0.9441 0.2146
C3G C 0.2169(2) 0.8551(3) 0.5292(3)
H5G H 0.1677 0.8593 0.5726
H6G H 0.2654 0.8539 0.5739
C4G C 0.2204(2) 0.9606(3) 0.4596(3)
H7G H 0.2163 1.0325 0.5002
H8G H 0.1744 0.9587 0.4111
C5G C 0.3980(2) 1.0544(3) 0.3006(2)
H9G H 0.4397 1.0294 0.3503
H10G H 0.4150 1.1300 0.2722
C6G C 0.3163(2) 1.0671(2) 0.3533(2)
H11G H 0.2735 1.0852 0.3028
H12G H 0.3186 1.1312 0.4031
I1 I -0.021072(18) 0.7500 0.00527(2)
N1 N 0.30567(18) 0.7500 0.2764(2)
C7 C 0.2307(2) 0.7500 0.2117(3)
C8 C 0.19543(17) 0.6446(2) 0.1824(2)
H13 H 0.2198 0.5735 0.2022
C9 C 0.0875(2) 0.7500 0.0947(3)
C10 C 0.12357(17) 0.6442(2) 0.1235(2)
H14 H 0.0997 0.5730 0.1033
C8G C 0.19543(17) 0.8554(2) 0.1824(2)
H13G H 0.2198 0.9265 0.2022
C10G C 0.12357(17) 0.8558(2) 0.1235(2)
H14G H 0.0997 0.9270 0.1033
F1 F 0.15909(17) 0.2500 0.3802(2)
F2 F 0.12223(14) 0.1500(2) 0.23640(19)
F3 F 0.02552(16) 0.2500 0.3285(3)
B1 B 0.1075(3) 0.2500 0.2945(4)
F2G F 0.12223(14) 0.3500(2) 0.23640(19)
H15? H 0.2961 0.7088 0.3339
H16? H 0.3189 0.8240 0.2930
H17? H 0.3475 0.7172 0.2415
loop_
_geom_bond_atom_site_label_1
_geom_bond_atom_site_label_2
_geom_bond_site_symmetry_1
_geom_bond_site_symmetry_2
O1 C4 1_555 1_555
O2 C2 1_555 1_555
O3 C3 1_555 1_555
O4 C1 1_555 1_555
C1 H1 1_555 1_555
H2 C1 1_555 1_555
C2 C1 1_555 1_555
H3 C2 1_555 1_555
H4 C2 1_555 1_555
C3 H5 1_555 1_555
H6 C3 1_555 1_555
C4 C3 1_555 1_555
H7 C4 1_555 1_555
H8 C4 1_555 1_555
C5 O2 1_555 1_555
H9 C5 1_555 1_555
H10 C5 1_555 1_555
C6 O1 1_555 1_555
H11 C6 1_555 1_555
H12 C6 1_555 1_555
I1 C9 1_555 1_555
N1 C7 1_555 1_555
C7 C8 1_555 1_555
C8 H13 1_555 1_555
C9 C10 1_555 1_555
C10 C8 1_555 1_555
H14 C10 1_555 1_555
F1 B1 1_555 1_555
F2 B1 1_555 1_555
F3 B1 1_555 1_555
B1 F2G 1_555 1_555
O1G C4G 1_555 1_555
O2G C2G 1_555 1_555
C1G O4 1_555 1_555
H1G C1G 1_555 1_555
H2G C1G 1_555 1_555
C2G C1G 1_555 1_555
H3G C2G 1_555 1_555
H4G C2G 1_555 1_555
C3G O3 1_555 1_555
H5G C3G 1_555 1_555
H6G C3G 1_555 1_555
C4G C3G 1_555 1_555
H7G C4G 1_555 1_555
H8G C4G 1_555 1_555
C5G O2G 1_555 1_555
H9G C5G 1_555 1_555
H10G C5G 1_555 1_555
C6G O1G 1_555 1_555
H11G C6G 1_555 1_555
H12G C6G 1_555 1_555
C8G C7 1_555 1_555
H13G C8G 1_555 1_555
C10G C9 1_555 1_555
H14G C10G 1_555 1_555
C5 C6 1_555 1_555
C5G C6G 1_555 1_555
C8G C10G 1_555 1_555

#END
