
#######################################################################
#
#                 Cambridge Crystallographic Data Centre
#                                CCDC 
#
#######################################################################
#
# If this CIF has been generated from an entry in the Cambridge 
# Structural Database, then it will include bibliographic, chemical, 
# crystal, experimental, refinement or atomic coordinate data resulting 
# from the CCDC's data processing and validation procedures.
#
#######################################################################

data_XOBYUL
_chemical_formula_moiety         'C28 H20 O4 S1'
_chemical_name_systematic        
3'-[(4-methylphenyl)sulfonyl]-2'-phenyl-4H,4'H-spiro[cyclohexa-2,5-diene-1,1'-naphthalene]-4,4'-dione
_symmetry_cell_setting           monoclinic
_symmetry_space_group_name_H-M   'P 21/c'
_symmetry_Int_Tables_number      14
_space_group_name_Hall           '-P 2ybc'
loop_
_symmetry_equiv_pos_site_id
_symmetry_equiv_pos_as_xyz
1 x,y,z
2 -x,1/2+y,1/2-z
3 -x,-y,-z
4 x,1/2-y,1/2+z
_cell_length_a                   10.5363(9)
_cell_length_b                   21.1088(12)
_cell_length_c                   10.9693(9)
_cell_angle_alpha                90
_cell_angle_beta                 111.920(10)
_cell_angle_gamma                90
_cell_volume                     2263.29
_exptl_crystal_colour            colorless
_exptl_crystal_description       block
_cell_formula_units_Z            4
loop_
_atom_site_label
_atom_site_type_symbol
_atom_site_fract_x
_atom_site_fract_y
_atom_site_fract_z
S1 S 0.06333(7) 0.22431(3) 0.74708(6)
O1 O -0.3982(3) 0.49791(10) 0.3750(3)
O2 O -0.1386(2) 0.12952(9) 0.60430(19)
O3 O 0.14394(18) 0.28057(9) 0.76945(17)
O4 O 0.03495(19) 0.19799(10) 0.85502(16)
C1 C -0.2851(3) 0.31022(11) 0.4694(2)
C2 C -0.1446(2) 0.29847(12) 0.5822(2)
C3 C -0.0989(2) 0.23933(11) 0.6169(2)
C4 C -0.1790(3) 0.18206(12) 0.5607(2)
C5 C -0.3116(3) 0.19064(12) 0.4507(2)
C6 C -0.3867(3) 0.13687(14) 0.3907(3)
H1 H -0.3522 0.0967 0.4197
C7 C -0.5112(3) 0.14311(15) 0.2894(3)
H2 H -0.5610 0.1074 0.2495
C8 C -0.5619(3) 0.20297(16) 0.2470(3)
H3 H -0.6466 0.2074 0.1789
C9 C -0.4881(3) 0.25574(15) 0.3047(3)
H4 H -0.5231 0.2957 0.2748
C10 C -0.3617(3) 0.25051(12) 0.4073(2)
C11 C -0.3719(3) 0.34807(13) 0.5262(3)
H5 H -0.3992 0.3285 0.5883
C12 C -0.4113(3) 0.40712(13) 0.4931(3)
H6 H -0.4656 0.4272 0.5315
C13 C -0.3716(3) 0.44164(14) 0.3975(3)
C14 C -0.2982(3) 0.40574(13) 0.3315(3)
H7 H -0.2802 0.4248 0.2632
C15 C -0.2562(3) 0.34720(13) 0.3647(2)
H8 H -0.2062 0.3276 0.3212
C16 C -0.0756(3) 0.35745(12) 0.6495(2)
C17 C -0.0929(3) 0.37636(14) 0.7630(3)
H9 H -0.1419 0.3508 0.7989
C18 C -0.0384(4) 0.43253(17) 0.8235(3)
H10 H -0.0507 0.4448 0.8998
C19 C 0.0339(4) 0.47041(16) 0.7713(4)
H11 H 0.0690 0.5089 0.8110
C20 C 0.0544(4) 0.45161(16) 0.6608(3)
H12 H 0.1059 0.4769 0.6271
C21 C -0.0003(3) 0.39557(14) 0.5987(3)
H13 H 0.0134 0.3834 0.5230
C22 C 0.1461(2) 0.16714(12) 0.6853(2)
C23 C 0.1907(3) 0.11094(13) 0.7508(3)
H14 H 0.1688 0.1002 0.8228
C24 C 0.2685(3) 0.07078(14) 0.7076(3)
H15 H 0.2997 0.0329 0.7521
C25 C 0.3010(3) 0.08520(13) 0.6007(3)
C26 C 0.2535(3) 0.14149(14) 0.5360(3)
H16 H 0.2732 0.1516 0.4625
C27 C 0.1774(3) 0.18299(13) 0.5780(2)
H17 H 0.1477 0.2212 0.5345
C28 C 0.3841(4) 0.04074(15) 0.5521(3)
H18 H 0.4329 0.0116 0.6207
H19 H 0.4481 0.0647 0.5273
H20 H 0.3241 0.0177 0.4774
loop_
_geom_bond_atom_site_label_1
_geom_bond_atom_site_label_2
_geom_bond_site_symmetry_1
_geom_bond_site_symmetry_2
S1 O3 1_555 1_555
O1 C13 1_555 1_555
O2 C4 1_555 1_555
O4 S1 1_555 1_555
C1 C2 1_555 1_555
C2 C3 1_555 1_555
C3 S1 1_555 1_555
C4 C3 1_555 1_555
C5 C4 1_555 1_555
C6 C5 1_555 1_555
H1 C6 1_555 1_555
C7 C6 1_555 1_555
H2 C7 1_555 1_555
C8 C7 1_555 1_555
H3 C8 1_555 1_555
C9 C8 1_555 1_555
H4 C9 1_555 1_555
C10 C1 1_555 1_555
C11 C1 1_555 1_555
H5 C11 1_555 1_555
C12 C11 1_555 1_555
H6 C12 1_555 1_555
C13 C12 1_555 1_555
C14 C13 1_555 1_555
H7 C14 1_555 1_555
C15 C1 1_555 1_555
H8 C15 1_555 1_555
C16 C2 1_555 1_555
C17 C16 1_555 1_555
H9 C17 1_555 1_555
C18 C17 1_555 1_555
H10 C18 1_555 1_555
C19 C18 1_555 1_555
H11 C19 1_555 1_555
C20 C19 1_555 1_555
H12 C20 1_555 1_555
C21 C16 1_555 1_555
H13 C21 1_555 1_555
C22 S1 1_555 1_555
C23 C22 1_555 1_555
H14 C23 1_555 1_555
C24 C23 1_555 1_555
H15 C24 1_555 1_555
C25 C24 1_555 1_555
C26 C25 1_555 1_555
H16 C26 1_555 1_555
C27 C22 1_555 1_555
H17 C27 1_555 1_555
C28 C25 1_555 1_555
H18 C28 1_555 1_555
H19 C28 1_555 1_555
H20 C28 1_555 1_555
C5 C10 1_555 1_555
C9 C10 1_555 1_555
C14 C15 1_555 1_555
C20 C21 1_555 1_555
C26 C27 1_555 1_555

#END
