
#######################################################################
#
#                 Cambridge Crystallographic Data Centre
#                                CCDC 
#
#######################################################################
#
# If this CIF has been generated from an entry in the Cambridge 
# Structural Database, then it will include bibliographic, chemical, 
# crystal, experimental, refinement or atomic coordinate data resulting 
# from the CCDC's data processing and validation procedures.
#
#######################################################################

data_XOBZEU
_chemical_formula_moiety         'C27 H32 N2 O4 S1'
_chemical_name_systematic        
4-methyl-N-((2-methylphenyl)(5,9,9-trimethyl-2-oxo-3,5,6,7,8,8a-hexahydro-2H-5,8-methano-1,4-benzoxazin-3-yl)methyl)benzenesulfonamide
_symmetry_cell_setting           monoclinic
_symmetry_space_group_name_H-M   'P 21'
_symmetry_Int_Tables_number      4
_space_group_name_Hall           'P 2yb'
loop_
_symmetry_equiv_pos_site_id
_symmetry_equiv_pos_as_xyz
1 x,y,z
2 -x,1/2+y,-z
_cell_length_a                   11.4320(12)
_cell_length_b                   15.4131(16)
_cell_length_c                   14.3198(15)
_cell_angle_alpha                90
_cell_angle_beta                 90.762(2)
_cell_angle_gamma                90
_cell_volume                     2522.96
_exptl_crystal_colour            colorless
_exptl_crystal_description       block
_cell_formula_units_Z            4
loop_
_atom_site_label
_atom_site_type_symbol
_atom_site_fract_x
_atom_site_fract_y
_atom_site_fract_z
S1 S 0.49154(8) 0.37650(5) 0.79488(5)
O1 O 0.64992(16) 0.31543(13) 0.41642(14)
O2 O 0.6763(2) 0.42132(15) 0.51799(16)
O3 O 0.3679(2) 0.39127(15) 0.79024(15)
O4 O 0.5668(2) 0.43855(15) 0.83915(16)
N1 N 0.4068(2) 0.31135(15) 0.45817(16)
N2 N 0.5391(2) 0.36967(16) 0.68877(16)
H1 H 0.5967 0.4017 0.6720
C1 C 0.4861(2) 0.2422(2) 0.24436(19)
C2 C 0.5912(2) 0.2017(2) 0.2986(2)
H3 H 0.6676 0.2094 0.2695
C3 C 0.5814(2) 0.23807(17) 0.39680(19)
H4 H 0.6021 0.1928 0.4422
C4 C 0.4529(2) 0.25754(17) 0.40299(18)
C5 C 0.3944(2) 0.21436(19) 0.31935(19)
C6 C 0.4193(3) 0.11585(19) 0.3289(2)
H5 H 0.4013 0.0956 0.3912
H6 H 0.3733 0.0829 0.2839
C7 C 0.5513(3) 0.1069(2) 0.3095(2)
H7 H 0.5919 0.0788 0.3611
H8 H 0.5646 0.0741 0.2528
C8 C 0.2684(3) 0.2397(2) 0.3035(2)
H9 H 0.2237 0.2248 0.3575
H10 H 0.2376 0.2094 0.2500
H11 H 0.2635 0.3011 0.2929
C9 C 0.4937(3) 0.3401(2) 0.2309(2)
H12 H 0.5513 0.3531 0.1847
H13 H 0.5158 0.3671 0.2890
H14 H 0.4190 0.3620 0.2106
C10 C 0.4620(3) 0.2017(3) 0.1481(2)
H15 H 0.3950 0.2291 0.1197
H16 H 0.4472 0.1407 0.1552
H17 H 0.5289 0.2098 0.1092
C11 C 0.6129(3) 0.36538(19) 0.48758(19)
C12 C 0.4891(2) 0.35317(18) 0.52284(19)
H18 H 0.4585 0.4119 0.5319
C13 C 0.4854(3) 0.30962(17) 0.62085(19)
H19 H 0.4029 0.3032 0.6373
C14 C 0.5395(2) 0.21971(18) 0.62198(18)
C15 C 0.6606(3) 0.2109(2) 0.6269(2)
H20 H 0.7066 0.2604 0.6331
C16 C 0.7143(3) 0.1308(2) 0.6228(3)
H21 H 0.7954 0.1265 0.6248
C17 C 0.6464(4) 0.0575(3) 0.6158(3)
H22 H 0.6811 0.0030 0.6132
C18 C 0.5268(4) 0.0653(2) 0.6125(2)
H23 H 0.4815 0.0153 0.6084
C19 C 0.4714(3) 0.14512(19) 0.6152(2)
C20 C 0.3388(3) 0.1479(2) 0.6127(3)
H24 H 0.3088 0.0906 0.6015
H25 H 0.3129 0.1860 0.5636
H26 H 0.3108 0.1688 0.6715
C21 C 0.5130(3) 0.2743(2) 0.84615(19)
C22 C 0.6254(3) 0.2436(2) 0.8623(3)
H27 H 0.6899 0.2779 0.8492
C23 C 0.6398(3) 0.1616(3) 0.8982(3)
H28 H 0.7153 0.1410 0.9084
C24 C 0.5478(3) 0.1091(2) 0.9194(2)
C25 C 0.4374(3) 0.1418(2) 0.9039(2)
H29 H 0.3730 0.1078 0.9188
C26 C 0.4192(3) 0.2225(2) 0.8674(2)
H30 H 0.3434 0.2424 0.8569
C27 C 0.5645(4) 0.0189(2) 0.9596(3)
H31 H 0.6345 -0.0063 0.9352
H32 H 0.4986 -0.0167 0.9426
H33 H 0.5708 0.0224 1.0264
S2 S 0.03684(9) 0.33720(5) 0.70172(6)
O5 O 0.16304(15) 0.41080(13) 1.08751(13)
O6 O 0.2114(2) 0.30493(16) 0.99323(16)
O7 O -0.0806(3) 0.30729(16) 0.70402(17)
O8 O 0.1255(3) 0.28573(17) 0.65927(17)
N3 N -0.07553(19) 0.39105(14) 1.03323(16)
N4 N 0.0810(2) 0.34985(15) 0.80933(16)
H2 H 0.1457 0.3268 0.8280
C28 C -0.0180(3) 0.4708(2) 1.2489(2)
C29 C 0.0805(2) 0.5210(2) 1.1983(2)
H34 H 0.1564 0.5215 1.2310
C30 C 0.0815(2) 0.48185(18) 1.10043(19)
H35 H 0.0966 0.5275 1.0545
C31 C -0.0422(2) 0.45015(16) 1.08940(19)
C32 C -0.1103(2) 0.48798(19) 1.1689(2)
C33 C -0.1028(3) 0.58799(19) 1.1579(2)
H36 H -0.1220 0.6052 1.0944
H37 H -0.1558 0.6168 1.2002
C34 C 0.0252(3) 0.6106(2) 1.1824(3)
H38 H 0.0624 0.6409 1.1315
H39 H 0.0304 0.6459 1.2384
C35 C -0.2310(3) 0.4511(2) 1.1807(3)
H40 H -0.2760 0.4601 1.1244
H41 H -0.2685 0.4795 1.2318
H42 H -0.2254 0.3900 1.1933
C36 C 0.0070(3) 0.3754(2) 1.2663(2)
H43 H 0.0694 0.3698 1.3114
H44 H 0.0292 0.3482 1.2089
H45 H -0.0620 0.3478 1.2897
C37 C -0.0513(3) 0.5121(3) 1.3438(2)
H46 H -0.1094 0.4769 1.3733
H47 H -0.0821 0.5693 1.3333
H48 H 0.0169 0.5156 1.3834
C38 C 0.1391(3) 0.35636(18) 1.01645(19)
C39 C 0.0170(3) 0.35714(18) 0.97285(19)
H49 H -0.0029 0.2961 0.9622
C40 C 0.0101(3) 0.40074(17) 0.87477(19)
H50 H -0.0714 0.3962 0.8532
C41 C 0.0405(2) 0.49680(17) 0.87641(18)
C42 C 0.1578(3) 0.52212(19) 0.8764(2)
H51 H 0.2158 0.4801 0.8718
C43 C 0.1889(3) 0.6079(2) 0.8830(2)
H52 H 0.2675 0.6236 0.8837
C44 C 0.1034(4) 0.6707(2) 0.8885(3)
H53 H 0.1238 0.7290 0.8931
C45 C -0.0118(3) 0.6464(2) 0.8872(3)
H54 H -0.0689 0.6893 0.8906
C46 C -0.0466(3) 0.5605(2) 0.8811(2)
C47 C -0.1751(3) 0.5386(3) 0.8769(3)
H55 H -0.2201 0.5900 0.8884
H56 H -0.1922 0.4958 0.9235
H57 H -0.1948 0.5162 0.8162
C48 C 0.0333(3) 0.4413(2) 0.64920(19)
C49 C 0.1358(3) 0.4870(2) 0.6389(2)
H58 H 0.2071 0.4623 0.6562
C50 C 0.1319(3) 0.5695(3) 0.6026(3)
H59 H 0.2011 0.6006 0.5968
C51 C 0.0285(3) 0.6073(2) 0.5747(2)
C52 C -0.0723(3) 0.5591(2) 0.5836(2)
H60 H -0.1433 0.5824 0.5637
C53 C -0.0696(3) 0.4769(2) 0.6217(2)
H61 H -0.1388 0.4459 0.6284
C54 C 0.0268(4) 0.6978(2) 0.5347(3)
H62 H 0.0040 0.6954 0.4699
H63 H 0.1033 0.7230 0.5404
H64 H -0.0282 0.7327 0.5682
loop_
_geom_bond_atom_site_label_1
_geom_bond_atom_site_label_2
_geom_bond_site_symmetry_1
_geom_bond_site_symmetry_2
S1 O3 1_555 1_555
S2 O7 1_555 1_555
O1 C3 1_555 1_555
O2 C11 1_555 1_555
O4 S1 1_555 1_555
O5 C30 1_555 1_555
O6 C38 1_555 1_555
O8 S2 1_555 1_555
N1 C4 1_555 1_555
N2 S1 1_555 1_555
H1 N2 1_555 1_555
N3 C31 1_555 1_555
N4 S2 1_555 1_555
H2 N4 1_555 1_555
C1 C2 1_555 1_555
C2 H3 1_555 1_555
C3 C2 1_555 1_555
H4 C3 1_555 1_555
C4 C3 1_555 1_555
C5 C1 1_555 1_555
C6 C5 1_555 1_555
H5 C6 1_555 1_555
H6 C6 1_555 1_555
C7 C2 1_555 1_555
H7 C7 1_555 1_555
H8 C7 1_555 1_555
C8 C5 1_555 1_555
H9 C8 1_555 1_555
H10 C8 1_555 1_555
H11 C8 1_555 1_555
C9 C1 1_555 1_555
H12 C9 1_555 1_555
H13 C9 1_555 1_555
H14 C9 1_555 1_555
C10 C1 1_555 1_555
H15 C10 1_555 1_555
H16 C10 1_555 1_555
H17 C10 1_555 1_555
C11 O1 1_555 1_555
C12 N1 1_555 1_555
H18 C12 1_555 1_555
C13 N2 1_555 1_555
H19 C13 1_555 1_555
C14 C13 1_555 1_555
C15 C14 1_555 1_555
H20 C15 1_555 1_555
C16 C15 1_555 1_555
H21 C16 1_555 1_555
C17 C16 1_555 1_555
H22 C17 1_555 1_555
C18 C17 1_555 1_555
H23 C18 1_555 1_555
C19 C14 1_555 1_555
C20 C19 1_555 1_555
H24 C20 1_555 1_555
H25 C20 1_555 1_555
H26 C20 1_555 1_555
C21 S1 1_555 1_555
C22 C21 1_555 1_555
H27 C22 1_555 1_555
C23 C22 1_555 1_555
H28 C23 1_555 1_555
C24 C23 1_555 1_555
C25 C24 1_555 1_555
H29 C25 1_555 1_555
C26 C21 1_555 1_555
H30 C26 1_555 1_555
C27 C24 1_555 1_555
H31 C27 1_555 1_555
H32 C27 1_555 1_555
H33 C27 1_555 1_555
C28 C29 1_555 1_555
C29 H34 1_555 1_555
C30 C29 1_555 1_555
H35 C30 1_555 1_555
C31 C30 1_555 1_555
C32 C28 1_555 1_555
C33 C32 1_555 1_555
H36 C33 1_555 1_555
H37 C33 1_555 1_555
C34 C29 1_555 1_555
H38 C34 1_555 1_555
H39 C34 1_555 1_555
C35 C32 1_555 1_555
H40 C35 1_555 1_555
H41 C35 1_555 1_555
H42 C35 1_555 1_555
C36 C28 1_555 1_555
H43 C36 1_555 1_555
H44 C36 1_555 1_555
H45 C36 1_555 1_555
C37 C28 1_555 1_555
H46 C37 1_555 1_555
H47 C37 1_555 1_555
H48 C37 1_555 1_555
C38 O5 1_555 1_555
C39 N3 1_555 1_555
H49 C39 1_555 1_555
C40 N4 1_555 1_555
H50 C40 1_555 1_555
C41 C40 1_555 1_555
C42 C41 1_555 1_555
H51 C42 1_555 1_555
C43 C42 1_555 1_555
H52 C43 1_555 1_555
C44 C43 1_555 1_555
H53 C44 1_555 1_555
C45 C44 1_555 1_555
H54 C45 1_555 1_555
C46 C41 1_555 1_555
C47 C46 1_555 1_555
H55 C47 1_555 1_555
H56 C47 1_555 1_555
H57 C47 1_555 1_555
C48 S2 1_555 1_555
C49 C48 1_555 1_555
H58 C49 1_555 1_555
C50 C49 1_555 1_555
H59 C50 1_555 1_555
C51 C50 1_555 1_555
C52 C51 1_555 1_555
H60 C52 1_555 1_555
C53 C48 1_555 1_555
H61 C53 1_555 1_555
C54 C51 1_555 1_555
H62 C54 1_555 1_555
H63 C54 1_555 1_555
H64 C54 1_555 1_555
C4 C5 1_555 1_555
C6 C7 1_555 1_555
C11 C12 1_555 1_555
C12 C13 1_555 1_555
C18 C19 1_555 1_555
C25 C26 1_555 1_555
C31 C32 1_555 1_555
C33 C34 1_555 1_555
C38 C39 1_555 1_555
C39 C40 1_555 1_555
C45 C46 1_555 1_555
C52 C53 1_555 1_555

#END
