
#######################################################################
#
#                 Cambridge Crystallographic Data Centre
#                                CCDC 
#
#######################################################################
#
# If this CIF has been generated from an entry in the Cambridge 
# Structural Database, then it will include bibliographic, chemical, 
# crystal, experimental, refinement or atomic coordinate data resulting 
# from the CCDC's data processing and validation procedures.
#
#######################################################################

data_XOCBUO
_chemical_formula_moiety         'C5 H3 N11 O10'
_chemical_name_systematic        
5-Azido-3,4-dinitro-N-(2,2,2-trinitroethyl)-1H-pyrazol-1-amine
_symmetry_cell_setting           monoclinic
_symmetry_space_group_name_H-M   'P 21/c'
_symmetry_Int_Tables_number      14
_space_group_name_Hall           '-P 2ybc'
loop_
_symmetry_equiv_pos_site_id
_symmetry_equiv_pos_as_xyz
1 x,y,z
2 -x,1/2+y,1/2-z
3 -x,-y,-z
4 x,1/2-y,1/2+z
_cell_length_a                   18.9685(7)
_cell_length_b                   7.7374(3)
_cell_length_c                   27.7321(10)
_cell_angle_alpha                90
_cell_angle_beta                 91.2480(10)
_cell_angle_gamma                90
_cell_volume                     4069.19
_exptl_crystal_colour            yellow
_exptl_crystal_description       plate
_cell_formula_units_Z            12
loop_
_atom_site_label
_atom_site_type_symbol
_atom_site_fract_x
_atom_site_fract_y
_atom_site_fract_z
N1 N 0.15956(7) 0.13422(19) -0.05950(5)
N2 N 0.20354(7) 0.1916(2) -0.09401(5)
C1 C 0.25876(9) 0.2448(2) -0.06914(7)
C2 C 0.25230(9) 0.2248(2) -0.01947(6)
C3 C 0.18628(9) 0.1493(2) -0.01397(6)
N3 N 0.32151(8) 0.2933(2) -0.09516(6)
O1 O 0.31532(8) 0.3951(2) -0.12812(6)
O2 O 0.37615(7) 0.2203(2) -0.08225(6)
N4 N 0.29747(8) 0.2904(2) 0.01771(6)
O3 O 0.34699(8) 0.3821(2) 0.00560(5)
O4 O 0.28449(7) 0.25604(19) 0.05950(5)
N5 N 0.14572(8) 0.1021(2) 0.02426(5)
N6 N 0.17832(8) 0.0235(2) 0.05803(6)
N7 N 0.19779(9) -0.0506(2) 0.09025(6)
N8 N 0.09593(7) 0.0551(2) -0.07152(6)
H1 H 0.0709(10) 0.126(3) -0.0851(7)
C4 C 0.10584(9) -0.1006(2) -0.10045(7)
H2 H 0.1561 -0.1351 -0.0994
H3 H 0.0919 -0.0777 -0.1345
C5 C 0.06068(9) -0.2446(2) -0.08023(7)
N9 N 0.06378(8) -0.2475(2) -0.02562(6)
O5 O 0.12342(7) -0.2542(2) -0.00865(5)
O6 O 0.00921(8) -0.2424(2) -0.00417(5)
N10 N 0.08378(8) -0.4218(2) -0.09725(6)
O7 O 0.08098(8) -0.54009(19) -0.06864(6)
O8 O 0.10166(9) -0.4282(2) -0.13879(6)
N11 N -0.01650(8) -0.2265(2) -0.09561(6)
O9 O -0.03753(6) -0.07969(17) -0.09950(5)
O10 O -0.04995(7) -0.35773(19) -0.10231(6)
N12 N 0.51777(7) 0.34910(19) 0.09348(5)
N13 N 0.56224(8) 0.3264(2) 0.05637(5)
C6 C 0.61659(10) 0.2483(3) 0.07678(7)
C7 C 0.60900(9) 0.2217(2) 0.12616(6)
C8 C 0.54280(9) 0.2888(2) 0.13625(6)
N14 N 0.67678(10) 0.2136(3) 0.04670(7)
O11 O 0.66609(10) 0.1528(3) 0.00699(6)
O12 O 0.73406(9) 0.2493(4) 0.06362(7)
N15 N 0.65856(8) 0.1461(2) 0.15937(6)
O13 O 0.70384(9) 0.0503(2) 0.14351(6)
O14 O 0.65408(7) 0.18147(19) 0.20213(5)
N16 N 0.49961(8) 0.3029(2) 0.17499(6)
N17 N 0.51755(8) 0.2258(2) 0.21333(6)
N18 N 0.52352(9) 0.1632(3) 0.24940(7)
N19 N 0.45448(7) 0.4375(2) 0.08685(6)
H4 H 0.4267(10) 0.379(3) 0.0698(7)
C9 C 0.46318(9) 0.6093(2) 0.06614(6)
H5 H 0.4331 0.6201 0.0367
H6 H 0.5129 0.6254 0.0569
C10 C 0.44320(9) 0.7479(2) 0.10198(7)
N20 N 0.49760(8) 0.7753(2) 0.14252(5)
O15 O 0.50315(9) 0.92129(19) 0.15859(6)
O16 O 0.53042(6) 0.64995(17) 0.15537(4)
N21 N 0.43627(10) 0.9228(2) 0.07757(6)
O17 O 0.38669(10) 1.0128(2) 0.08732(7)
O18 O 0.48388(9) 0.9579(2) 0.05087(6)
N22 N 0.37352(8) 0.7067(2) 0.12511(6)
O19 O 0.32723(7) 0.6641(2) 0.09646(5)
O20 O 0.36991(8) 0.7188(3) 0.16832(6)
N23 N 0.15928(7) 1.52079(19) 0.23580(5)
N24 N 0.10637(7) 1.5436(2) 0.26734(5)
C11 C 0.05574(9) 1.6097(2) 0.24021(6)
C12 C 0.07431(9) 1.6318(2) 0.19196(6)
C13 C 0.14329(9) 1.5709(2) 0.19018(6)
N25 N -0.01318(8) 1.6337(2) 0.26207(6)
O21 O -0.06304(7) 1.5613(2) 0.24237(6)
O22 O -0.01559(8) 1.7196(2) 0.29849(5)
N26 N 0.03563(8) 1.72052(19) 0.15522(6)
O23 O -0.01958(7) 1.79251(19) 0.16653(5)
O24 O 0.05946(7) 1.72254(17) 0.11461(5)
N27 N 0.19637(8) 1.5613(2) 0.15763(5)
N28 N 0.18149(7) 1.54741(19) 0.11327(6)
N29 N 0.18084(8) 1.5325(2) 0.07323(6)
N30 N 0.22355(7) 1.4496(2) 0.25024(6)
H7 H 0.2481(10) 1.521(3) 0.2657(7)
C14 C 0.21685(9) 1.2812(2) 0.27281(6)
H8 H 0.1666 1.2468 0.2733
H9 H 0.2350 1.2862 0.3065
C15 C 0.25854(9) 1.1496(2) 0.24454(7)
N31 N 0.33757(8) 1.1582(2) 0.25508(6)
O25 O 0.37094(7) 1.0256(2) 0.25112(6)
O26 O 0.36030(7) 1.29996(19) 0.26527(6)
N32 N 0.24826(9) 1.1774(2) 0.19063(6)
O27 O 0.18649(7) 1.1825(2) 0.17737(5)
O28 O 0.29974(9) 1.1945(3) 0.16653(5)
N33 N 0.23627(8) 0.9657(2) 0.25535(7)
O29 O 0.23175(9) 0.8653(2) 0.22199(6)
O30 O 0.22597(8) 0.9365(2) 0.29746(6)
loop_
_geom_bond_atom_site_label_1
_geom_bond_atom_site_label_2
_geom_bond_site_symmetry_1
_geom_bond_site_symmetry_2
N1 N2 1_555 1_555
N2 C1 1_555 1_555
C1 C2 1_555 1_555
C2 C3 1_555 1_555
C3 N1 1_555 1_555
N3 C1 1_555 1_555
O1 N3 1_555 1_555
O2 N3 1_555 1_555
N4 C2 1_555 1_555
O3 N4 1_555 1_555
O4 N4 1_555 1_555
N5 C3 1_555 1_555
N6 N5 1_555 1_555
N7 N6 1_555 1_555
N8 N1 1_555 1_555
H1 N8 1_555 1_555
C4 N8 1_555 1_555
H2 C4 1_555 1_555
H3 C4 1_555 1_555
C5 C4 1_555 1_555
N9 C5 1_555 1_555
O5 N9 1_555 1_555
O6 N9 1_555 1_555
N10 C5 1_555 1_555
O7 N10 1_555 1_555
O8 N10 1_555 1_555
N11 C5 1_555 1_555
O9 N11 1_555 1_555
O10 N11 1_555 1_555
N12 N13 1_555 1_555
N13 C6 1_555 1_555
C6 C7 1_555 1_555
C7 C8 1_555 1_555
C8 N12 1_555 1_555
N14 C6 1_555 1_555
O11 N14 1_555 1_555
O12 N14 1_555 1_555
N15 C7 1_555 1_555
O13 N15 1_555 1_555
O14 N15 1_555 1_555
N16 C8 1_555 1_555
N17 N16 1_555 1_555
N18 N17 1_555 1_555
N19 N12 1_555 1_555
H4 N19 1_555 1_555
C9 N19 1_555 1_555
H5 C9 1_555 1_555
H6 C9 1_555 1_555
C10 C9 1_555 1_555
N20 C10 1_555 1_555
O15 N20 1_555 1_555
O16 N20 1_555 1_555
N21 C10 1_555 1_555
O17 N21 1_555 1_555
O18 N21 1_555 1_555
N22 C10 1_555 1_555
O19 N22 1_555 1_555
O20 N22 1_555 1_555
N23 N24 1_555 1_555
N24 C11 1_555 1_555
C11 C12 1_555 1_555
C12 C13 1_555 1_555
C13 N23 1_555 1_555
N25 C11 1_555 1_555
O21 N25 1_555 1_555
O22 N25 1_555 1_555
N26 C12 1_555 1_555
O23 N26 1_555 1_555
O24 N26 1_555 1_555
N27 C13 1_555 1_555
N28 N27 1_555 1_555
N29 N28 1_555 1_555
N30 N23 1_555 1_555
H7 N30 1_555 1_555
C14 N30 1_555 1_555
H8 C14 1_555 1_555
H9 C14 1_555 1_555
C15 C14 1_555 1_555
N31 C15 1_555 1_555
O25 N31 1_555 1_555
O26 N31 1_555 1_555
N32 C15 1_555 1_555
O27 N32 1_555 1_555
O28 N32 1_555 1_555
N33 C15 1_555 1_555
O29 N33 1_555 1_555
O30 N33 1_555 1_555

#END
