
#######################################################################
#
#                 Cambridge Crystallographic Data Centre
#                                CCDC 
#
#######################################################################
#
# If this CIF has been generated from an entry in the Cambridge 
# Structural Database, then it will include bibliographic, chemical, 
# crystal, experimental, refinement or atomic coordinate data resulting 
# from the CCDC's data processing and validation procedures.
#
#######################################################################

data_XOCCIE
_chemical_formula_moiety         'C26 H32 B1 F1 S1,C1 H2 Cl2'
_chemical_name_systematic        
'[2-(dimethylsulfaniumyl)phenyl](fluoro)bis(2,4,6-trimethylphenyl)borate dichloromethane solvate'
_symmetry_cell_setting           monoclinic
_symmetry_space_group_name_H-M   'P 21/n'
_symmetry_Int_Tables_number      14
_space_group_name_Hall           '-P 2yn'
loop_
_symmetry_equiv_pos_site_id
_symmetry_equiv_pos_as_xyz
1 x,y,z
2 1/2-x,1/2+y,1/2-z
3 -x,-y,-z
4 1/2+x,1/2-y,1/2+z
_cell_length_a                   11.003(7)
_cell_length_b                   14.023(9)
_cell_length_c                   17.510(11)
_cell_angle_alpha                90
_cell_angle_beta                 106.621(11)
_cell_angle_gamma                90
_cell_volume                     2588.82
_exptl_crystal_colour            colorless
_exptl_crystal_description       block
_cell_formula_units_Z            4
loop_
_atom_site_label
_atom_site_type_symbol
_atom_site_fract_x
_atom_site_fract_y
_atom_site_fract_z
Cl1 Cl 0.13942(6) 0.46007(4) 0.59568(4)
Cl2 Cl 0.03768(7) 0.57071(6) 0.70496(5)
C1 C 0.0966(3) 0.57496(17) 0.62140(16)
H1 H 0.171787 0.617237 0.633203
H2 H 0.031123 0.602301 0.575547
S1 S 0.38463(5) 0.91389(3) 0.44879(3)
F1 F 0.48750(11) 0.86061(7) 0.59960(7)
C2 C 0.30988(19) 0.79982(13) 0.44738(12)
C3 C 0.37181(18) 0.73405(13) 0.50667(12)
C4 C 0.31152(19) 0.64460(13) 0.49965(12)
H3 H 0.346484 0.597208 0.538491
C5 C 0.20341(19) 0.62241(14) 0.43866(12)
H4 H 0.168250 0.560180 0.435669
C6 C 0.14646(19) 0.68965(14) 0.38234(12)
H5 H 0.071783 0.674290 0.341165
C7 C 0.19961(19) 0.78041(13) 0.38646(12)
H6 H 0.161502 0.828016 0.348574
C8 C 0.2892(2) 0.99255(14) 0.48856(14)
H7 H 0.199683 0.984332 0.458935
H8 H 0.314628 1.058701 0.483543
H9 H 0.301226 0.977571 0.544905
C9 C 0.3418(2) 0.95141(16) 0.34648(13)
H10 H 0.369860 0.903446 0.314489
H11 H 0.382644 1.012558 0.342444
H12 H 0.249509 0.958703 0.326669
C10 C 0.48385(18) 0.69319(13) 0.65693(11)
C11 C 0.40351(19) 0.72345(13) 0.70294(12)
C12 C 0.3795(2) 0.66479(14) 0.76165(12)
H13 H 0.327376 0.688439 0.792276
C13 C 0.4290(2) 0.57333(14) 0.77686(13)
C14 C 0.5061(2) 0.54226(14) 0.73129(13)
H14 H 0.540386 0.479675 0.739710
C15 C 0.53520(19) 0.59981(13) 0.67336(12)
C16 C 0.3345(2) 0.81838(15) 0.69071(14)
H15 H 0.271206 0.818807 0.720314
H16 H 0.292146 0.827661 0.633831
H17 H 0.395589 0.870008 0.710075
C17 C 0.3986(2) 0.51121(16) 0.83924(15)
H18 H 0.477137 0.495240 0.880407
H19 H 0.357418 0.452489 0.814340
H20 H 0.341454 0.545531 0.863515
C18 C 0.6209(2) 0.55649(14) 0.62824(14)
H21 H 0.580439 0.562270 0.570795
H22 H 0.635257 0.488980 0.642445
H23 H 0.702266 0.590259 0.642389
C19 C 0.63759(19) 0.75545(13) 0.56123(12)
C20 C 0.74561(19) 0.78489(13) 0.62335(12)
C21 C 0.86335(19) 0.79868(13) 0.60922(13)
H24 H 0.933854 0.817207 0.652249
C22 C 0.8802(2) 0.78612(14) 0.53433(14)
C23 C 0.7772(2) 0.75361(14) 0.47438(13)
H25 H 0.787302 0.742656 0.423011
C24 C 0.65867(19) 0.73617(13) 0.48622(12)
C25 C 0.7417(2) 0.79830(14) 0.70854(12)
H26 H 0.663791 0.832112 0.708672
H27 H 0.815463 0.835620 0.738099
H28 H 0.743249 0.735843 0.733915
C26 C 1.0057(2) 0.80593(17) 0.51835(16)
H29 H 1.013096 0.874348 0.509164
H30 H 1.010312 0.770337 0.471087
H31 H 1.075144 0.785953 0.564430
C27 C 0.5602(2) 0.69380(17) 0.41496(13)
H32 H 0.512989 0.643673 0.433147
H33 H 0.602741 0.666520 0.377880
H34 H 0.501481 0.743887 0.387903
B1 B 0.4992(2) 0.75777(14) 0.58137(14)
loop_
_geom_bond_atom_site_label_1
_geom_bond_atom_site_label_2
_geom_bond_site_symmetry_1
_geom_bond_site_symmetry_2
Cl1 C1 1_555 1_555
Cl2 C1 1_555 1_555
C1 H1 1_555 1_555
H2 C1 1_555 1_555
S1 C2 1_555 1_555
F1 B1 1_555 1_555
C2 C3 1_555 1_555
C3 C4 1_555 1_555
C4 H3 1_555 1_555
C5 C4 1_555 1_555
H4 C5 1_555 1_555
C6 C5 1_555 1_555
H5 C6 1_555 1_555
C7 C2 1_555 1_555
H6 C7 1_555 1_555
C8 S1 1_555 1_555
H7 C8 1_555 1_555
H8 C8 1_555 1_555
H9 C8 1_555 1_555
C9 S1 1_555 1_555
H10 C9 1_555 1_555
H11 C9 1_555 1_555
H12 C9 1_555 1_555
C10 C11 1_555 1_555
C11 C12 1_555 1_555
C12 H13 1_555 1_555
C13 C12 1_555 1_555
C14 C13 1_555 1_555
H14 C14 1_555 1_555
C15 C10 1_555 1_555
C16 C11 1_555 1_555
H15 C16 1_555 1_555
H16 C16 1_555 1_555
H17 C16 1_555 1_555
C17 C13 1_555 1_555
H18 C17 1_555 1_555
H19 C17 1_555 1_555
H20 C17 1_555 1_555
C18 C15 1_555 1_555
H21 C18 1_555 1_555
H22 C18 1_555 1_555
H23 C18 1_555 1_555
C19 C20 1_555 1_555
C20 C21 1_555 1_555
C21 H24 1_555 1_555
C22 C21 1_555 1_555
C23 C22 1_555 1_555
H25 C23 1_555 1_555
C24 C19 1_555 1_555
C25 C20 1_555 1_555
H26 C25 1_555 1_555
H27 C25 1_555 1_555
H28 C25 1_555 1_555
C26 C22 1_555 1_555
H29 C26 1_555 1_555
H30 C26 1_555 1_555
H31 C26 1_555 1_555
C27 C24 1_555 1_555
H32 C27 1_555 1_555
H33 C27 1_555 1_555
H34 C27 1_555 1_555
B1 C3 1_555 1_555
C6 C7 1_555 1_555
C10 B1 1_555 1_555
C14 C15 1_555 1_555
C19 B1 1_555 1_555
C23 C24 1_555 1_555

#END
