
#######################################################################
#
#                 Cambridge Crystallographic Data Centre
#                                CCDC 
#
#######################################################################
#
# If this CIF has been generated from an entry in the Cambridge 
# Structural Database, then it will include bibliographic, chemical, 
# crystal, experimental, refinement or atomic coordinate data resulting 
# from the CCDC's data processing and validation procedures.
#
#######################################################################

data_XOCFAX
_chemical_formula_moiety         'C21 H15 I1'
_chemical_name_systematic        3-iodo-1,2-diphenyl-1H-indene
_symmetry_cell_setting           triclinic
_symmetry_space_group_name_H-M   'P -1'
_symmetry_Int_Tables_number      2
_space_group_name_Hall           '-P 1'
loop_
_symmetry_equiv_pos_site_id
_symmetry_equiv_pos_as_xyz
1 x,y,z
2 -x,-y,-z
_cell_length_a                   9.476(6)
_cell_length_b                   9.948(8)
_cell_length_c                   10.069(8)
_cell_angle_alpha                70.22(3)
_cell_angle_beta                 83.19(3)
_cell_angle_gamma                78.26(3)
_cell_volume                     873.216
_exptl_crystal_colour            yellow
_exptl_crystal_description       prismatic
_chemical_melting_point          '105-106 deg.C'
_cell_formula_units_Z            2
loop_
_atom_site_label
_atom_site_type_symbol
_atom_site_fract_x
_atom_site_fract_y
_atom_site_fract_z
I1 I 1.16609(5) 1.05889(5) 0.31217(6)
C1 C 0.9592(7) 1.0581(7) 0.2514(7)
C2 C 0.9203(7) 0.9502(7) 0.2200(6)
C3 C 0.7691(8) 1.0042(7) 0.1629(7)
H1 H 0.7763 1.0113 0.0629
C4 C 0.7295(9) 1.1574(7) 0.1729(7)
C5 C 0.8439(8) 1.1877(7) 0.2261(7)
C6 C 0.8363(10) 1.3213(7) 0.2457(8)
H2 H 0.9139 1.3411 0.2801
C7 C 0.7101(12) 1.4255(8) 0.2130(9)
H3 H 0.7044 1.5153 0.2246
C8 C 0.5927(11) 1.3944(9) 0.1628(9)
H4 H 0.5088 1.4633 0.1436
C9 C 0.6000(10) 1.2599(10) 0.1410(8)
H5 H 0.5226 1.2394 0.1070
C10 C 0.6607(8) 0.9039(7) 0.2414(7)
C11 C 0.5814(10) 0.8482(9) 0.1744(10)
H6 H 0.5952 0.8703 0.0769
C12 C 0.4795(11) 0.7585(11) 0.2462(15)
H7 H 0.4234 0.7266 0.1971
C13 C 0.4661(9) 0.7194(10) 0.3939(14)
H8 H 0.4067 0.6535 0.4449
C14 C 0.5377(15) 0.7760(15) 0.4620(12)
H9 H 0.5228 0.7552 0.5593
C15 C 0.6375(14) 0.8686(16) 0.3853(10)
H10 H 0.6881 0.9060 0.4342
C16 C 1.0027(8) 0.7996(7) 0.2370(7)
C17 C 1.0667(9) 0.7141(8) 0.3621(9)
H11 H 1.0624 0.7529 0.4348
C18 C 1.1371(12) 0.5725(9) 0.3823(12)
H12 H 1.1732 0.5153 0.4695
C19 C 1.1531(14) 0.5169(9) 0.2705(13)
H13 H 1.2100 0.4268 0.2784
C20 C 1.0833(14) 0.5972(11) 0.1471(12)
H14 H 1.0832 0.5564 0.0766
C21 C 1.0133(10) 0.7391(9) 0.1293(8)
H15 H 0.9729 0.7946 0.0437
loop_
_geom_bond_atom_site_label_1
_geom_bond_atom_site_label_2
_geom_bond_site_symmetry_1
_geom_bond_site_symmetry_2
I1 C1 1_555 1_555
C1 C2 1_555 1_555
C2 C3 1_555 1_555
C3 H1 1_555 1_555
C4 C3 1_555 1_555
C5 C1 1_555 1_555
C6 C5 1_555 1_555
H2 C6 1_555 1_555
C7 C6 1_555 1_555
H3 C7 1_555 1_555
C8 C7 1_555 1_555
H4 C8 1_555 1_555
C9 C4 1_555 1_555
H5 C9 1_555 1_555
C10 C3 1_555 1_555
C11 C10 1_555 1_555
H6 C11 1_555 1_555
C12 C11 1_555 1_555
H7 C12 1_555 1_555
C13 C12 1_555 1_555
H8 C13 1_555 1_555
C14 C13 1_555 1_555
H9 C14 1_555 1_555
C15 C10 1_555 1_555
H10 C15 1_555 1_555
C16 C2 1_555 1_555
C17 C16 1_555 1_555
H11 C17 1_555 1_555
C18 C17 1_555 1_555
H12 C18 1_555 1_555
C19 C18 1_555 1_555
H13 C19 1_555 1_555
C20 C19 1_555 1_555
H14 C20 1_555 1_555
C21 C16 1_555 1_555
H15 C21 1_555 1_555
C4 C5 1_555 1_555
C8 C9 1_555 1_555
C14 C15 1_555 1_555
C20 C21 1_555 1_555

#END
