
#######################################################################
#
#                 Cambridge Crystallographic Data Centre
#                                CCDC 
#
#######################################################################
#
# If this CIF has been generated from an entry in the Cambridge 
# Structural Database, then it will include bibliographic, chemical, 
# crystal, experimental, refinement or atomic coordinate data resulting 
# from the CCDC's data processing and validation procedures.
#
#######################################################################

data_XOCFIG
_chemical_formula_moiety         'C29 H32 N2 O7 S1'
_chemical_name_systematic        
'Dimethyl 5-ethyl-3-((4-methylphenyl)sulfonyl)-17-oxa-3,16-diazapentacyclo[7.7.3.0^1,9^.0^2,6^.0^10,15^]nonadeca-7,10,12,14-tetraene-8,16-dicarboxylate'
_symmetry_cell_setting           triclinic
_symmetry_space_group_name_H-M   'P -1'
_symmetry_Int_Tables_number      2
_space_group_name_Hall           '-P 1'
loop_
_symmetry_equiv_pos_site_id
_symmetry_equiv_pos_as_xyz
1 x,y,z
2 -x,-y,-z
_cell_length_a                   8.2844(4)
_cell_length_b                   12.6179(4)
_cell_length_c                   25.8899(9)
_cell_angle_alpha                90.674(3)
_cell_angle_beta                 95.254(3)
_cell_angle_gamma                101.998(3)
_cell_volume                     2634.76
_exptl_crystal_colour            colorless
_exptl_crystal_description       prism
_cell_formula_units_Z            4
loop_
_atom_site_label
_atom_site_type_symbol
_atom_site_fract_x
_atom_site_fract_y
_atom_site_fract_z
S1 S 0.29265(6) 0.49779(4) 0.216293(18)
O1 O 0.2702(2) 0.38403(12) 0.22511(6)
O2 O 0.17400(19) 0.53788(14) 0.18229(6)
O3 O 0.81539(18) 0.89678(12) 0.03764(6)
O4 O 0.9678(2) 0.93871(12) 0.11378(6)
O5 O 0.63097(18) 0.53541(11) 0.10297(5)
O6 O 0.1212(2) 0.45288(14) 0.05446(6)
O7 O 0.3353(2) 0.40336(11) 0.10098(6)
N1 N 0.4709(2) 0.53653(13) 0.19401(6)
N2 N 0.3631(2) 0.57551(13) 0.07720(6)
C1 C 0.3314(3) 0.7176(2) 0.42772(9)
H1 H 0.3081 0.6618 0.4536
H2 H 0.2486 0.7630 0.4272
H3 H 0.4422 0.7626 0.4367
C2 C 0.3241(3) 0.66403(19) 0.37484(8)
C3 C 0.3028(3) 0.5534(2) 0.36970(9)
H4 H 0.2928 0.5112 0.3998
C4 C 0.2953(3) 0.50110(18) 0.32139(8)
H5 H 0.2823 0.4246 0.3186
C5 C 0.3073(2) 0.56297(17) 0.27805(8)
C6 C 0.3296(3) 0.67439(18) 0.28210(8)
H6 H 0.3390 0.7163 0.2519
C7 C 0.3382(3) 0.72493(18) 0.33044(9)
H7 H 0.3538 0.8016 0.3332
C8 C 0.6175(3) 0.50928(17) 0.22316(9)
H8 H 0.6342 0.4377 0.2114
H9 H 0.6050 0.5077 0.2608
C9 C 0.7644(3) 0.60053(16) 0.21132(8)
H10 H 0.8159 0.5751 0.1813
C10 C 0.8996(3) 0.63113(19) 0.25637(8)
H11 H 0.9429 0.5657 0.2656
H12 H 0.9919 0.6849 0.2441
C11 C 0.8494(3) 0.6774(2) 0.30531(9)
H13 H 0.8162 0.7462 0.2978
H14 H 0.9434 0.6898 0.3321
H15 H 0.7561 0.6261 0.3177
C12 C 0.6789(2) 0.69303(15) 0.19266(7)
H16 H 0.6540 0.7312 0.2241
C13 C 0.5136(2) 0.63458(14) 0.16424(7)
H17 H 0.4284 0.6797 0.1667
C14 C 0.7783(2) 0.77556(15) 0.16109(8)
H18 H 0.8732 0.8227 0.1782
C15 C 0.7432(2) 0.78796(14) 0.11040(7)
C16 C 0.6064(2) 0.71142(15) 0.07725(7)
C17 C 0.5304(2) 0.60965(15) 0.10691(7)
C18 C 0.8438(2) 0.87812(15) 0.08287(8)
C19 C 1.0613(3) 1.03193(18) 0.09024(10)
H19 H 1.0821 1.0117 0.0552
H20 H 1.1672 1.0578 0.1112
H21 H 0.9980 1.0896 0.0883
C20 C 0.6783(3) 0.65501(16) 0.03365(8)
H22 H 0.5941 0.6327 0.0037
H23 H 0.7764 0.7037 0.0216
C21 C 0.7256(3) 0.55740(19) 0.05930(9)
H24 H 0.7002 0.4942 0.0347
H25 H 0.8457 0.5728 0.0708
C22 C 0.4552(2) 0.75374(16) 0.05721(7)
C23 C 0.3165(3) 0.66825(16) 0.05540(7)
C24 C 0.2600(3) 0.47492(17) 0.07643(7)
C25 C 0.2360(3) 0.29616(18) 0.10453(10)
H26 H 0.1336 0.3008 0.1198
H27 H 0.2982 0.2527 0.1265
H28 H 0.2085 0.2620 0.0698
C26 C 0.4390(3) 0.85441(17) 0.03979(8)
H29 H 0.5325 0.9130 0.0416
C27 C 0.2831(3) 0.86894(19) 0.01941(9)
H30 H 0.2694 0.9379 0.0078
C28 C 0.1489(3) 0.7824(2) 0.01631(9)
H31 H 0.0441 0.7927 0.0017
C29 C 0.1626(3) 0.68071(19) 0.03385(8)
H32 H 0.0696 0.6218 0.0312
S2 S -0.18601(5) 0.03563(4) 0.296544(18)
O8 O -0.27096(18) -0.07275(13) 0.28133(6)
O9 O -0.23589(18) 0.09108(15) 0.33884(6)
O10 O 0.66198(17) 0.33502(12) 0.43821(5)
O11 O 0.70637(18) 0.35327(12) 0.35461(6)
O12 O 0.25276(16) 0.00178(11) 0.38785(5)
O13 O -0.17032(18) 0.02913(13) 0.46412(6)
O14 O -0.06572(17) -0.07264(12) 0.40924(6)
N3 N 0.00797(19) 0.03174(14) 0.31087(6)
N4 N 0.07062(19) 0.09873(13) 0.42872(6)
C30 C -0.2429(5) 0.3090(3) 0.10814(14)
H33 H -0.2724 0.2627 0.0766
H34 H -0.1388 0.3611 0.1049
H35 H -0.3311 0.3483 0.1129
C31 C -0.2218(3) 0.2403(2) 0.15404(10)
C32 C -0.2641(4) 0.1290(2) 0.15000(9)
H36 H -0.3035 0.0948 0.1170
C33 C -0.2505(3) 0.06515(18) 0.19298(9)
H37 H -0.2770 -0.0117 0.1892
C34 C -0.1977(2) 0.11505(16) 0.24133(8)
C35 C -0.1522(3) 0.22738(18) 0.24648(10)
H38 H -0.1157 0.2615 0.2796
C36 C -0.1606(3) 0.28882(19) 0.20291(12)
H39 H -0.1243 0.3653 0.2061
C37 C 0.0900(3) -0.02363(17) 0.27350(8)
H40 H 0.0311 -0.0264 0.2383
H41 H 0.0912 -0.0986 0.2841
C38 C 0.2680(2) 0.04361(16) 0.27417(7)
H42 H 0.3439 0.0091 0.2975
C39 C 0.3294(3) 0.05284(19) 0.22042(8)
H43 H 0.4408 0.1010 0.2228
H44 H 0.2539 0.0866 0.1972
C40 C 0.3388(3) -0.0572(2) 0.19665(9)
H45 H 0.4172 -0.0896 0.2186
H46 H 0.3764 -0.0472 0.1619
H47 H 0.2288 -0.1053 0.1942
C41 C 0.2569(2) 0.15372(15) 0.29883(7)
H48 H 0.2127 0.1968 0.2708
C42 C 0.1249(2) 0.12564(15) 0.33676(7)
H49 H 0.0676 0.1874 0.3401
C43 C 0.4163(2) 0.22081(15) 0.32276(7)
H50 H 0.4966 0.2520 0.3003
C44 C 0.4538(2) 0.24011(14) 0.37389(7)
C45 C 0.3452(2) 0.18793(14) 0.41466(7)
C46 C 0.1970(2) 0.09833(15) 0.39057(7)
C47 C 0.6158(2) 0.31263(15) 0.39320(7)
C48 C 0.8678(3) 0.41857(19) 0.37166(9)
H51 H 0.8548 0.4819 0.3919
H52 H 0.9268 0.4427 0.3414
H53 H 0.9315 0.3754 0.3933
C49 C 0.4362(2) 0.11615(16) 0.45058(7)
H54 H 0.5561 0.1485 0.4568
H55 H 0.3885 0.1063 0.4843
C50 C 0.4069(3) 0.01062(18) 0.42034(9)
H56 H 0.4992 0.0095 0.3987
H57 H 0.3992 -0.0506 0.4442
C51 C 0.2614(2) 0.25932(15) 0.44581(7)
C52 C 0.1019(2) 0.20209(15) 0.45375(7)
C53 C -0.0657(2) 0.01851(16) 0.43609(7)
C54 C -0.2149(3) -0.15459(18) 0.41063(8)
H58 H -0.2373 -0.1678 0.4468
H59 H -0.2008 -0.2218 0.3940
H60 H -0.3081 -0.1299 0.3921
C55 C 0.3209(3) 0.36148(16) 0.46850(8)
H61 H 0.4303 0.3995 0.4643
C56 C 0.2182(3) 0.40826(17) 0.49777(8)
H62 H 0.2575 0.4786 0.5133
C57 C 0.0591(3) 0.35170(18) 0.50402(8)
H63 H -0.0101 0.3848 0.5234
C58 C -0.0018(2) 0.24779(17) 0.48271(8)
H64 H -0.1103 0.2093 0.4877
loop_
_geom_bond_atom_site_label_1
_geom_bond_atom_site_label_2
_geom_bond_site_symmetry_1
_geom_bond_site_symmetry_2
S1 O1 1_555 1_555
O2 S1 1_555 1_555
O3 C18 1_555 1_555
O4 C18 1_555 1_555
O5 C17 1_555 1_555
O6 C24 1_555 1_555
O7 C24 1_555 1_555
N1 S1 1_555 1_555
N2 C17 1_555 1_555
C1 H1 1_555 1_555
H2 C1 1_555 1_555
H3 C1 1_555 1_555
C2 C1 1_555 1_555
C3 C2 1_555 1_555
H4 C3 1_555 1_555
C4 C3 1_555 1_555
H5 C4 1_555 1_555
C5 S1 1_555 1_555
C6 C5 1_555 1_555
H6 C6 1_555 1_555
C7 C2 1_555 1_555
H7 C7 1_555 1_555
C8 N1 1_555 1_555
H8 C8 1_555 1_555
H9 C8 1_555 1_555
C9 C8 1_555 1_555
H10 C9 1_555 1_555
C10 C9 1_555 1_555
H11 C10 1_555 1_555
H12 C10 1_555 1_555
C11 C10 1_555 1_555
H13 C11 1_555 1_555
H14 C11 1_555 1_555
H15 C11 1_555 1_555
C12 C9 1_555 1_555
H16 C12 1_555 1_555
C13 N1 1_555 1_555
H17 C13 1_555 1_555
C14 C12 1_555 1_555
H18 C14 1_555 1_555
C15 C14 1_555 1_555
C16 C15 1_555 1_555
C17 C13 1_555 1_555
C18 C15 1_555 1_555
C19 O4 1_555 1_555
H19 C19 1_555 1_555
H20 C19 1_555 1_555
H21 C19 1_555 1_555
C20 C16 1_555 1_555
H22 C20 1_555 1_555
H23 C20 1_555 1_555
C21 O5 1_555 1_555
H24 C21 1_555 1_555
H25 C21 1_555 1_555
C22 C16 1_555 1_555
C23 N2 1_555 1_555
C24 N2 1_555 1_555
C25 O7 1_555 1_555
H26 C25 1_555 1_555
H27 C25 1_555 1_555
H28 C25 1_555 1_555
C26 C22 1_555 1_555
H29 C26 1_555 1_555
C27 C26 1_555 1_555
H30 C27 1_555 1_555
C28 C27 1_555 1_555
H31 C28 1_555 1_555
C29 C23 1_555 1_555
H32 C29 1_555 1_555
S2 O8 1_555 1_555
O9 S2 1_555 1_555
O10 C47 1_555 1_555
O11 C47 1_555 1_555
O12 C46 1_555 1_555
O13 C53 1_555 1_555
O14 C53 1_555 1_555
N3 S2 1_555 1_555
N4 C46 1_555 1_555
C30 H33 1_555 1_555
H34 C30 1_555 1_555
H35 C30 1_555 1_555
C31 C30 1_555 1_555
C32 C31 1_555 1_555
H36 C32 1_555 1_555
C33 C32 1_555 1_555
H37 C33 1_555 1_555
C34 S2 1_555 1_555
C35 C34 1_555 1_555
H38 C35 1_555 1_555
C36 C31 1_555 1_555
H39 C36 1_555 1_555
C37 N3 1_555 1_555
H40 C37 1_555 1_555
H41 C37 1_555 1_555
C38 C37 1_555 1_555
H42 C38 1_555 1_555
C39 C38 1_555 1_555
H43 C39 1_555 1_555
H44 C39 1_555 1_555
C40 C39 1_555 1_555
H45 C40 1_555 1_555
H46 C40 1_555 1_555
H47 C40 1_555 1_555
C41 C38 1_555 1_555
H48 C41 1_555 1_555
C42 N3 1_555 1_555
H49 C42 1_555 1_555
C43 C41 1_555 1_555
H50 C43 1_555 1_555
C44 C43 1_555 1_555
C45 C44 1_555 1_555
C46 C42 1_555 1_555
C47 C44 1_555 1_555
C48 O11 1_555 1_555
H51 C48 1_555 1_555
H52 C48 1_555 1_555
H53 C48 1_555 1_555
C49 C45 1_555 1_555
H54 C49 1_555 1_555
H55 C49 1_555 1_555
C50 O12 1_555 1_555
H56 C50 1_555 1_555
H57 C50 1_555 1_555
C51 C45 1_555 1_555
C52 N4 1_555 1_555
C53 N4 1_555 1_555
C54 O14 1_555 1_555
H58 C54 1_555 1_555
H59 C54 1_555 1_555
H60 C54 1_555 1_555
C55 C51 1_555 1_555
H61 C55 1_555 1_555
C56 C55 1_555 1_555
H62 C56 1_555 1_555
C57 C56 1_555 1_555
H63 C57 1_555 1_555
C58 C52 1_555 1_555
H64 C58 1_555 1_555
C4 C5 1_555 1_555
C6 C7 1_555 1_555
C12 C13 1_555 1_555
C16 C17 1_555 1_555
C20 C21 1_555 1_555
C22 C23 1_555 1_555
C28 C29 1_555 1_555
C33 C34 1_555 1_555
C35 C36 1_555 1_555
C41 C42 1_555 1_555
C45 C46 1_555 1_555
C49 C50 1_555 1_555
C51 C52 1_555 1_555
C57 C58 1_555 1_555

#END
