
#######################################################################
#
#                 Cambridge Crystallographic Data Centre
#                                CCDC 
#
#######################################################################
#
# If this CIF has been generated from an entry in the Cambridge 
# Structural Database, then it will include bibliographic, chemical, 
# crystal, experimental, refinement or atomic coordinate data resulting 
# from the CCDC's data processing and validation procedures.
#
#######################################################################

data_XOCJEE
_chemical_formula_moiety         'C2 H5 N3 O2 S1'
_chemical_name_systematic        1-Nitro-2-methylisothiourea
_symmetry_cell_setting           triclinic
_symmetry_space_group_name_H-M   'P -1'
_symmetry_Int_Tables_number      2
_space_group_name_Hall           '-P 1'
loop_
_symmetry_equiv_pos_site_id
_symmetry_equiv_pos_as_xyz
1 x,y,z
2 -x,-y,-z
_cell_length_a                   6.4077(6)
_cell_length_b                   10.5843(8)
_cell_length_c                   4.0593(4)
_cell_angle_alpha                79.20(1)
_cell_angle_beta                 85.76(1)
_cell_angle_gamma                82.71(1)
_cell_volume                     267.888
_cell_formula_units_Z            2
loop_
_atom_site_label
_atom_site_type_symbol
_atom_site_fract_x
_atom_site_fract_y
_atom_site_fract_z
C1 C 0.7656(6) 0.1161(4) 0.103(1)
S1 S 0.5015(1) 0.15375(7) 0.2669(2)
C2 C 0.5063(5) 0.3106(3) 0.3414(8)
N1 N 0.6707(5) 0.3733(3) 0.2430(9)
N2 N 0.3547(4) 0.3765(3) 0.5079(7)
N3 N 0.1781(4) 0.3218(3) 0.6207(7)
O1 O 0.0584(4) 0.3813(3) 0.8036(8)
O2 O 0.1390(4) 0.2200(3) 0.5425(8)
H1 H 0.667(7) 0.455(5) 0.30(1)
H2 H 0.768(7) 0.344(4) 0.11(1)
H3 H 0.768(8) 0.025(5) 0.10(1)
H4 H 0.863(8) 0.123(5) 0.25(1)
H5 H 0.779(7) 0.155(5) -0.11(1)
loop_
_geom_bond_atom_site_label_1
_geom_bond_atom_site_label_2
_geom_bond_site_symmetry_1
_geom_bond_site_symmetry_2
C1 S1 1_555 1_555
S1 C2 1_555 1_555
C2 N1 1_555 1_555
N1 H1 1_555 1_555
N2 C2 1_555 1_555
N3 N2 1_555 1_555
O1 N3 1_555 1_555
O2 N3 1_555 1_555
H2 N1 1_555 1_555
H3 C1 1_555 1_555
H4 C1 1_555 1_555
H5 C1 1_555 1_555

#END
