
#######################################################################
#
#                 Cambridge Crystallographic Data Centre
#                                CCDC 
#
#######################################################################
#
# If this CIF has been generated from an entry in the Cambridge 
# Structural Database, then it will include bibliographic, chemical, 
# crystal, experimental, refinement or atomic coordinate data resulting 
# from the CCDC's data processing and validation procedures.
#
#######################################################################

data_XOCJEE01
_chemical_formula_moiety         'C2 H5 N3 O2 S1'
_chemical_name_systematic        1-Nitro-2-methylisothiourea
_symmetry_cell_setting           triclinic
_symmetry_space_group_name_H-M   'P -1'
_symmetry_Int_Tables_number      2
_space_group_name_Hall           '-P 1'
loop_
_symmetry_equiv_pos_site_id
_symmetry_equiv_pos_as_xyz
1 x,y,z
2 -x,-y,-z
_cell_length_a                   7.355(1)
_cell_length_b                   7.468(1)
_cell_length_c                   5.1659(5)
_cell_angle_alpha                105.40(1)
_cell_angle_beta                 94.43(1)
_cell_angle_gamma                86.50(1)
_cell_volume                     272.5
_cell_formula_units_Z            2
loop_
_atom_site_label
_atom_site_type_symbol
_atom_site_fract_x
_atom_site_fract_y
_atom_site_fract_z
C1 C 0.1811(4) 0.1528(4) 0.2119(6)
S1 S 0.42461(7) 0.15481(7) 0.2729(1)
C2 C 0.4486(3) 0.3040(3) 0.5929(4)
N1 N 0.3050(3) 0.3798(3) 0.7265(4)
N2 N 0.6069(2) 0.3604(2) 0.7290(3)
N3 N 0.7644(3) 0.2925(2) 0.6142(4)
O1 O 0.9036(2) 0.3584(3) 0.7435(4)
O2 O 0.7692(3) 0.1736(3) 0.3997(4)
H1 H 0.329(4) 0.456(4) 0.891(6)
H2 H 0.198(4) 0.351(3) 0.668(5)
H3 H 0.163(4) 0.070(4) 0.035(6)
H4 H 0.137(5) 0.267(4) 0.210(6)
H5 H 0.135(4) 0.104(4) 0.341(6)
loop_
_geom_bond_atom_site_label_1
_geom_bond_atom_site_label_2
_geom_bond_site_symmetry_1
_geom_bond_site_symmetry_2
C1 S1 1_555 1_555
S1 C2 1_555 1_555
C2 N1 1_555 1_555
N1 H1 1_555 1_555
N2 C2 1_555 1_555
N3 N2 1_555 1_555
O1 N3 1_555 1_555
O2 N3 1_555 1_555
H2 N1 1_555 1_555
H3 C1 1_555 1_555
H4 C1 1_555 1_555
H5 C1 1_555 1_555

#END
