
#######################################################################
#
#                 Cambridge Crystallographic Data Centre
#                                CCDC 
#
#######################################################################
#
# If this CIF has been generated from an entry in the Cambridge 
# Structural Database, then it will include bibliographic, chemical, 
# crystal, experimental, refinement or atomic coordinate data resulting 
# from the CCDC's data processing and validation procedures.
#
#######################################################################

data_XOCNIP
_chemical_formula_moiety         'C29 H20 Br1 N1 O4 S1'
_chemical_name_systematic        
4-(benzoyl)-3-(4-bromophenyl)-1-[(4-methylphenyl)sulfonyl]quinolin-2(1H)-one
_symmetry_cell_setting           orthorhombic
_symmetry_space_group_name_H-M   'P c a 21'
_symmetry_Int_Tables_number      29
_space_group_name_Hall           'P 2c -2ac'
loop_
_symmetry_equiv_pos_site_id
_symmetry_equiv_pos_as_xyz
1 x,y,z
2 -x,-y,1/2+z
3 1/2+x,-y,z
4 1/2-x,y,1/2+z
_cell_length_a                   18.6627(5)
_cell_length_b                   5.9686(2)
_cell_length_c                   22.9210(6)
_cell_angle_alpha                90
_cell_angle_beta                 90
_cell_angle_gamma                90
_cell_volume                     2553.17
_exptl_crystal_colour            colorless
_exptl_crystal_description       block
_cell_formula_units_Z            4
_exptl_crystal_recrystallization_method 
'Re-crystallisation from solvent: hexane and ethyl acetate'
loop_
_atom_site_label
_atom_site_type_symbol
_atom_site_fract_x
_atom_site_fract_y
_atom_site_fract_z
Br1 Br 0.60664(5) 0.87552(16) 0.66193(5)
S1 S 0.31913(9) 0.1901(3) 0.37496(6)
O1 O 0.4151(2) 0.2964(6) 0.46527(15)
O2 O 0.2769(3) 1.0677(7) 0.5422(2)
O3 O 0.2624(3) 0.2347(11) 0.3354(2)
N1 N 0.3002(3) 0.3497(7) 0.43555(18)
C1 C 0.2853(3) 0.6831(9) 0.5182(2)
O4 O 0.3327(4) -0.0331(8) 0.3928(3)
C2 C 0.4132(3) 0.6438(8) 0.5478(2)
C3 C 0.2304(3) 0.4262(11) 0.4479(2)
C4 C 0.3494(3) 0.5778(9) 0.51356(19)
C5 C 0.2784(3) 0.8775(9) 0.5601(2)
C6 C 0.2233(3) 0.6045(10) 0.4869(2)
C7 C 0.1550(4) 0.6894(14) 0.4985(3)
H1 H 0.1504 0.8136 0.5227
C8 C 0.3589(3) 0.3953(8) 0.4715(2)
C9 C 0.2757(3) 0.8296(9) 0.6229(2)
C10 C 0.4444(3) 0.8494(9) 0.5400(3)
H2 H 0.4260 0.9448 0.5116
C11 C 0.4423(3) 0.5034(9) 0.5897(2)
H3 H 0.4225 0.3620 0.5954
C12 C 0.2943(3) 0.9956(10) 0.6627(3)
H4 H 0.3104 1.1337 0.6492
C13 C 0.2506(4) 0.6259(9) 0.6439(3)
H5 H 0.2384 0.5124 0.6179
C14 C 0.5018(4) 0.9196(10) 0.5728(3)
H6 H 0.5224 1.0597 0.5667
C15 C 0.2890(4) 0.9577(13) 0.7213(3)
H7 H 0.3026 1.0688 0.7475
C16 C 0.2438(5) 0.5916(12) 0.7032(3)
H8 H 0.2257 0.4567 0.7171
C17 C 0.2638(4) 0.7578(14) 0.7417(3)
H9 H 0.2602 0.7335 0.7817
C18 C 0.3968(3) 0.3112(11) 0.3456(3)
C19 C 0.0954(4) 0.5949(17) 0.4753(4)
H10 H 0.0503 0.6533 0.4835
C20 C 0.4996(4) 0.5688(11) 0.6229(3)
H11 H 0.5190 0.4732 0.6507
C21 C 0.5143(5) 0.5018(15) 0.2921(3)
C22 C 0.4501(5) 0.6109(12) 0.2935(3)
H12 H 0.4461 0.7505 0.2758
C23 C 0.4601(4) 0.1968(12) 0.3450(4)
H13 H 0.4639 0.0566 0.3625
C24 C 0.3906(4) 0.5180(12) 0.3208(3)
H14 H 0.3474 0.5954 0.3222
C25 C 0.5277(3) 0.7787(11) 0.6142(3)
C26 C 0.1685(4) 0.3248(14) 0.4265(3)
H15 H 0.1719 0.1976 0.4032
C27 C 0.1026(4) 0.4124(18) 0.4397(4)
H16 H 0.0618 0.3461 0.4241
C28 C 0.5185(4) 0.2942(16) 0.3179(4)
H17 H 0.5618 0.2172 0.3170
C29 C 0.5793(7) 0.609(2) 0.2652(5)
H18 H 0.5666 0.7523 0.2494
H19 H 0.5973 0.5146 0.2345
H20 H 0.6157 0.6275 0.2944
loop_
_geom_bond_atom_site_label_1
_geom_bond_atom_site_label_2
_geom_bond_site_symmetry_1
_geom_bond_site_symmetry_2
Br1 C25 1_555 1_555
S1 O3 1_555 1_555
O1 C8 1_555 1_555
O2 C5 1_555 1_555
N1 S1 1_555 1_555
C1 C4 1_555 1_555
O4 S1 1_555 1_555
C2 C4 1_555 1_555
C3 N1 1_555 1_555
C4 C8 1_555 1_555
C5 C1 1_555 1_555
C6 C1 1_555 1_555
C7 C6 1_555 1_555
H1 C7 1_555 1_555
C8 N1 1_555 1_555
C9 C5 1_555 1_555
C10 C2 1_555 1_555
H2 C10 1_555 1_555
C11 C2 1_555 1_555
H3 C11 1_555 1_555
C12 C9 1_555 1_555
H4 C12 1_555 1_555
C13 C9 1_555 1_555
H5 C13 1_555 1_555
C14 C10 1_555 1_555
H6 C14 1_555 1_555
C15 C12 1_555 1_555
H7 C15 1_555 1_555
C16 C13 1_555 1_555
H8 C16 1_555 1_555
C17 C15 1_555 1_555
H9 C17 1_555 1_555
C18 S1 1_555 1_555
C19 C7 1_555 1_555
H10 C19 1_555 1_555
C20 C11 1_555 1_555
H11 C20 1_555 1_555
C21 C22 1_555 1_555
C22 H12 1_555 1_555
C23 C18 1_555 1_555
H13 C23 1_555 1_555
C24 C18 1_555 1_555
H14 C24 1_555 1_555
C25 C14 1_555 1_555
C26 C3 1_555 1_555
H15 C26 1_555 1_555
C27 C19 1_555 1_555
H16 C27 1_555 1_555
C28 C21 1_555 1_555
H17 C28 1_555 1_555
C29 C21 1_555 1_555
H18 C29 1_555 1_555
H19 C29 1_555 1_555
H20 C29 1_555 1_555
C3 C6 1_555 1_555
C16 C17 1_555 1_555
C20 C25 1_555 1_555
C22 C24 1_555 1_555
C23 C28 1_555 1_555
C26 C27 1_555 1_555

#END
