
#######################################################################
#
#                 Cambridge Crystallographic Data Centre
#                                CCDC 
#
#######################################################################
#
# If this CIF has been generated from an entry in the Cambridge 
# Structural Database, then it will include bibliographic, chemical, 
# crystal, experimental, refinement or atomic coordinate data resulting 
# from the CCDC's data processing and validation procedures.
#
#######################################################################

data_XOCSIS
_chemical_formula_moiety         'C19 H18 O1 S1'
_chemical_name_systematic        3-Methylthio-2,5-di-p-tolylfuran
_symmetry_cell_setting           triclinic
_symmetry_space_group_name_H-M   'P -1'
_symmetry_Int_Tables_number      2
_space_group_name_Hall           '-P 1'
loop_
_symmetry_equiv_pos_site_id
_symmetry_equiv_pos_as_xyz
1 x,y,z
2 -x,-y,-z
_cell_length_a                   5.6636(7)
_cell_length_b                   10.5669(13)
_cell_length_c                   14.0635(18)
_cell_angle_alpha                110.688(2)
_cell_angle_beta                 95.048(2)
_cell_angle_gamma                93.258(2)
_cell_volume                     780.83
_exptl_crystal_colour            colorless
_exptl_crystal_description       block
_cell_formula_units_Z            2
loop_
_atom_site_label
_atom_site_type_symbol
_atom_site_fract_x
_atom_site_fract_y
_atom_site_fract_z
S1 S 0.85422(12) 0.33736(6) 0.46108(4)
O1 O 0.5595(2) 0.00802(12) 0.23791(9)
C1 C 1.2687(4) 0.2635(2) -0.00354(17)
H1 H 1.2339 0.3515 -0.0030
H2 H 1.2266 0.1973 -0.0712
H3 H 1.4356 0.2650 0.0165
C2 C 1.1268(4) 0.2264(2) 0.07076(15)
C3 C 1.2143(4) 0.2603(2) 0.17193(15)
H4 H 1.3641 0.3076 0.1954
C4 C 1.0848(4) 0.22561(19) 0.23953(14)
H5 H 1.1491 0.2490 0.3073
C5 C 0.8591(3) 0.15605(18) 0.20706(13)
C6 C 0.7720(4) 0.12058(19) 0.10439(14)
H6 H 0.6226 0.0729 0.0805
C7 C 0.9029(4) 0.1547(2) 0.03792(15)
H7 H 0.8408 0.1295 -0.0303
C8 C 0.7165(3) 0.12398(18) 0.27833(14)
C9 C 0.6928(4) 0.18557(19) 0.37921(14)
C10 C 0.5144(4) 0.10501(19) 0.40249(14)
H8 H 0.4605 0.1219 0.4660
C11 C 0.4371(4) -0.00088(19) 0.31536(14)
C12 C 0.6672(5) 0.3926(2) 0.56144(15)
H9 H 0.5074 0.3932 0.5325
H10 H 0.7253 0.4826 0.6072
H11 H 0.6684 0.3317 0.5984
C13 C 0.2621(3) -0.11740(19) 0.29032(14)
C14 C 0.0715(4) -0.1120(2) 0.34671(16)
H12 H 0.0523 -0.0319 0.3998
C15 C -0.0896(4) -0.2237(2) 0.32514(18)
H13 H -0.2156 -0.2174 0.3643
C16 C -0.0693(4) -0.3450(2) 0.24706(17)
C17 C 0.1196(4) -0.3496(2) 0.18973(16)
H14 H 0.1371 -0.4297 0.1362
C18 C 0.2816(4) -0.2387(2) 0.21001(15)
H15 H 0.4053 -0.2446 0.1698
C19 C -0.2421(4) -0.4682(2) 0.2256(2)
H16 H -0.2121 -0.5383 0.1636
H17 H -0.4019 -0.4443 0.2181
H18 H -0.2224 -0.5005 0.2813
loop_
_geom_bond_atom_site_label_1
_geom_bond_atom_site_label_2
_geom_bond_site_symmetry_1
_geom_bond_site_symmetry_2
S1 C9 1_555 1_555
O1 C8 1_555 1_555
C1 H1 1_555 1_555
H2 C1 1_555 1_555
H3 C1 1_555 1_555
C2 C1 1_555 1_555
C3 C2 1_555 1_555
H4 C3 1_555 1_555
C4 C3 1_555 1_555
H5 C4 1_555 1_555
C5 C4 1_555 1_555
C6 C5 1_555 1_555
H6 C6 1_555 1_555
C7 C2 1_555 1_555
H7 C7 1_555 1_555
C8 C5 1_555 1_555
C9 C8 1_555 1_555
C10 C9 1_555 1_555
H8 C10 1_555 1_555
C11 O1 1_555 1_555
C12 S1 1_555 1_555
H9 C12 1_555 1_555
H10 C12 1_555 1_555
H11 C12 1_555 1_555
C13 C11 1_555 1_555
C14 C13 1_555 1_555
H12 C14 1_555 1_555
C15 C14 1_555 1_555
H13 C15 1_555 1_555
C16 C15 1_555 1_555
C17 C16 1_555 1_555
H14 C17 1_555 1_555
C18 C13 1_555 1_555
H15 C18 1_555 1_555
C19 C16 1_555 1_555
H16 C19 1_555 1_555
H17 C19 1_555 1_555
H18 C19 1_555 1_555
C6 C7 1_555 1_555
C10 C11 1_555 1_555
C17 C18 1_555 1_555

#END
