
#######################################################################
#
#                 Cambridge Crystallographic Data Centre
#                                CCDC 
#
#######################################################################
#
# If this CIF has been generated from an entry in the Cambridge 
# Structural Database, then it will include bibliographic, chemical, 
# crystal, experimental, refinement or atomic coordinate data resulting 
# from the CCDC's data processing and validation procedures.
#
#######################################################################

data_XOCVOB
_chemical_formula_moiety         'C24 H19 Cl2 N1 O3'
_chemical_name_systematic        
3-(4-Chloro-2-methylphenoxy)-4-(4-chloro-2-methylphenoxymethylene)-1-phenylazetidin-2-one
_symmetry_cell_setting           monoclinic
_symmetry_space_group_name_H-M   'P 21'
_symmetry_Int_Tables_number      4
_space_group_name_Hall           'P 2yb'
loop_
_symmetry_equiv_pos_site_id
_symmetry_equiv_pos_as_xyz
1 x,y,z
2 -x,1/2+y,-z
_cell_length_a                   7.820(2)
_cell_length_b                   13.703(4)
_cell_length_c                   10.394(3)
_cell_angle_alpha                90
_cell_angle_beta                 99.761(4)
_cell_angle_gamma                90
_cell_volume                     1097.67
_exptl_crystal_colour            colorless
_exptl_crystal_description       prismatic
_cell_formula_units_Z            2
loop_
_atom_site_label
_atom_site_type_symbol
_atom_site_fract_x
_atom_site_fract_y
_atom_site_fract_z
Cl1 Cl 0.47918(15) 0.92822(9) 0.11205(8)
Cl2 Cl 0.73595(17) 1.36239(9) 1.36861(14)
O1 O 0.9097(3) 1.00608(19) 1.0996(2)
C1 C 0.8663(4) 1.0921(2) 1.1558(3)
C2 C 0.5515(4) 0.9367(3) 0.2816(3)
O2 O 0.7045(4) 0.72253(18) 0.7453(2)
C3 C 0.5181(4) 1.0210(3) 0.3450(3)
H1 H 0.4607 1.0725 0.2979
O3 O 0.6942(3) 0.96109(16) 0.68301(19)
C4 C 0.8202(4) 0.8983(2) 0.7527(3)
H2 H 0.9265 0.8954 0.7146
C5 C 0.8564(4) 0.9197(3) 0.8986(3)
C6 C 0.9350(4) 1.1031(3) 1.2890(3)
C7 C 0.8895(5) 1.0024(3) 0.9647(3)
H3 H 0.8996 1.0598 0.9189
C8 C 0.6353(5) 0.8581(3) 0.3478(3)
H4 H 0.6562 0.8016 0.3035
C9 C 0.6547(4) 0.9495(2) 0.5478(3)
C10 C 0.5703(4) 1.0293(2) 0.4804(3)
C11 C 0.7864(5) 1.2576(3) 1.2849(4)
C12 C 0.8919(4) 1.1870(3) 1.3511(3)
H5 H 0.9351 1.1957 1.4394
N1 N 0.8139(4) 0.8221(2) 0.9282(2)
C13 C 0.7641(4) 0.7966(2) 0.7962(3)
C14 C 0.6877(5) 0.8654(3) 0.4827(3)
H6 H 0.7449 0.8135 0.5289
C15 C 0.7602(5) 1.1636(3) 1.0891(3)
H7 H 0.7164 1.1557 1.0008
C16 C 0.7191(5) 1.2473(3) 1.1546(4)
H8 H 0.6476 1.2952 1.1107
C17 C 0.5326(6) 1.1207(3) 0.5513(3)
H9 H 0.4435 1.1075 0.6021
H10 H 0.4941 1.1711 0.4890
H11 H 0.6360 1.1416 0.6079
C18 C 0.8449(4) 0.7622(3) 1.0422(3)
C19 C 0.9052(8) 0.6432(4) 1.2609(4)
H12 H 0.9251 0.6031 1.3342
C20 C 1.0490(5) 1.0252(3) 1.3601(3)
H13 H 1.0978 1.0481 1.4458
H14 H 1.1407 1.0101 1.3126
H15 H 0.9813 0.9676 1.3674
C21 C 0.9790(5) 0.7848(3) 1.1430(3)
H16 H 1.0492 0.8389 1.1374
C22 C 0.7413(5) 0.6807(3) 1.0490(4)
H17 H 0.6515 0.6659 0.9810
C23 C 0.7739(6) 0.6217(3) 1.1588(4)
H18 H 0.7059 0.5665 1.1636
C24 C 1.0070(6) 0.7245(4) 1.2536(4)
H19 H 1.0951 0.7396 1.3228
loop_
_geom_bond_atom_site_label_1
_geom_bond_atom_site_label_2
_geom_bond_site_symmetry_1
_geom_bond_site_symmetry_2
Cl1 C2 1_555 1_555
Cl2 C11 1_555 1_555
O1 C1 1_555 1_555
C1 C6 1_555 1_555
C2 C3 1_555 1_555
O2 C13 1_555 1_555
C3 H1 1_555 1_555
O3 C4 1_555 1_555
C4 H2 1_555 1_555
C5 C4 1_555 1_555
C6 C12 1_555 1_555
C7 O1 1_555 1_555
H3 C7 1_555 1_555
C8 C2 1_555 1_555
H4 C8 1_555 1_555
C9 O3 1_555 1_555
C10 C3 1_555 1_555
C11 C12 1_555 1_555
C12 H5 1_555 1_555
N1 C5 1_555 1_555
C13 C4 1_555 1_555
C14 C8 1_555 1_555
H6 C14 1_555 1_555
C15 C1 1_555 1_555
H7 C15 1_555 1_555
C16 C11 1_555 1_555
H8 C16 1_555 1_555
C17 C10 1_555 1_555
H9 C17 1_555 1_555
H10 C17 1_555 1_555
H11 C17 1_555 1_555
C18 N1 1_555 1_555
C19 H12 1_555 1_555
C20 C6 1_555 1_555
H13 C20 1_555 1_555
H14 C20 1_555 1_555
H15 C20 1_555 1_555
C21 C18 1_555 1_555
H16 C21 1_555 1_555
C22 C18 1_555 1_555
H17 C22 1_555 1_555
C23 C19 1_555 1_555
H18 C23 1_555 1_555
C24 C19 1_555 1_555
H19 C24 1_555 1_555
C5 C7 1_555 1_555
C9 C10 1_555 1_555
C9 C14 1_555 1_555
N1 C13 1_555 1_555
C15 C16 1_555 1_555
C21 C24 1_555 1_555
C22 C23 1_555 1_555

#END
