
#######################################################################
#
#                 Cambridge Crystallographic Data Centre
#                                CCDC 
#
#######################################################################
#
# If this CIF has been generated from an entry in the Cambridge 
# Structural Database, then it will include bibliographic, chemical, 
# crystal, experimental, refinement or atomic coordinate data resulting 
# from the CCDC's data processing and validation procedures.
#
#######################################################################

data_XOCZOF
_chemical_formula_moiety         'C15 H18 N30 O3'
_chemical_name_systematic        
2,4,6-tris(1,1,1-tris(Azidomethyl)methoxy)triazine
_symmetry_cell_setting           monoclinic
_symmetry_space_group_name_H-M   'C 2/c'
_symmetry_Int_Tables_number      15
_space_group_name_Hall           '-C 2yn'
loop_
_symmetry_equiv_pos_site_id
_symmetry_equiv_pos_as_xyz
1 x,y,z
2 1/2+x,1/2+y,z
3 -x,y,1/2-z
4 1/2-x,1/2+y,1/2-z
5 -x,-y,-z
6 1/2-x,1/2-y,-z
7 x,-y,1/2+z
8 1/2+x,1/2-y,1/2+z
_cell_length_a                   26.986(2)
_cell_length_b                   14.3734(14)
_cell_length_c                   15.4195(15)
_cell_angle_alpha                90
_cell_angle_beta                 97.237(5)
_cell_angle_gamma                90
_cell_volume                     5933.28
_exptl_crystal_colour            colorless
_exptl_crystal_description       plate
_chemical_melting_point          '74-75 deg.C'
_cell_formula_units_Z            8
loop_
_atom_site_label
_atom_site_type_symbol
_atom_site_fract_x
_atom_site_fract_y
_atom_site_fract_z
O1 O 0.37643(8) 0.16852(15) 1.11778(13)
O2 O 0.35982(8) 0.24543(16) 0.83077(14)
O3 O 0.51077(8) 0.26986(17) 0.99640(14)
N1 N 0.44342(9) 0.21926(19) 1.06139(17)
C1 C 0.32396(12) 0.1483(2) 1.1218(2)
C2 C 0.37478(12) 0.2880(2) 0.7522(2)
C3 C 0.54331(11) 0.2728(2) 1.0792(2)
N2 N 0.32982(13) 0.3261(3) 0.6073(2)
N3 N 0.33486(16) -0.0011(3) 1.0556(3)
N4 N 0.5764(4) 0.1122(6) 1.0798(8)
C4 C 0.46243(12) 0.2479(2) 0.9920(2)
C5 C 0.30165(12) 0.0794(2) 1.0527(2)
H1 H 0.2687 0.0603 1.0645
H2 H 0.2986 0.1080 0.9953
N6 N 0.5619(2) 0.0364(4) 1.0770(4)
N7 N 0.5631(3) -0.0410(4) 1.0851(6)
C6 C 0.54841(14) 0.1794(3) 1.1248(2)
H3 H 0.5651 0.1881 1.1838
H4 H 0.5154 0.1547 1.1290
N8 N 0.30664(14) 0.4008(4) 0.5956(2)
C7 C 0.32511(13) 0.2812(3) 0.6919(2)
H5 H 0.3160 0.2163 0.6825
H6 H 0.2989 0.3115 0.7192
N9 N 0.32416(15) -0.0622(4) 1.0059(3)
N10 N 0.43765(9) 0.25942(19) 0.91083(17)
C8 C 0.52573(14) 0.3457(2) 1.1395(2)
H7 H 0.4915 0.3316 1.1481
H8 H 0.5460 0.3408 1.1959
C9 C 0.41639(14) 0.2352(3) 0.7166(3)
H9 H 0.4250 0.2657 0.6644
H10 H 0.4459 0.2343 0.7597
C10 C 0.29403(13) 0.2384(3) 1.1138(2)
H11 H 0.2954 0.2650 1.0564
H12 H 0.2594 0.2247 1.1192
N11 N 0.28789(19) 0.4704(4) 0.5767(3)
N12 N 0.3131(6) -0.1337(9) 0.9740(12)
C11 C 0.39001(12) 0.2375(2) 0.9058(2)
C12 C 0.59246(11) 0.3012(3) 1.0473(2)
H13 H 0.6029 0.2542 1.0083
H14 H 0.5884 0.3597 1.0158
N14 N 0.31285(13) 0.3073(3) 1.1809(2)
C13 C 0.32755(13) 0.1065(3) 1.2135(2)
H15 H 0.3507 0.0547 1.2181
H16 H 0.3402 0.1530 1.2563
C14 C 0.39061(13) 0.3883(3) 0.7687(2)
H17 H 0.4204 0.3897 0.8111
H18 H 0.3990 0.4151 0.7147
N15 N 0.5278(4) 0.4425(7) 1.1090(9)
N17 N 0.39968(16) 0.1401(3) 0.6959(4)
N18 N 0.36541(10) 0.20771(18) 0.97112(17)
N19 N 0.35046(15) 0.3502(2) 1.1678(2)
N20 N 0.49488(14) 0.4924(3) 1.1163(2)
N21 N 0.43009(16) 0.0837(3) 0.6815(3)
C15 C 0.39466(12) 0.1990(2) 1.0463(2)
N22 N 0.38498(17) 0.3941(3) 1.1655(3)
N23 N 0.4540(2) 0.0239(4) 0.6675(5)
N24 N 0.47454(19) 0.5546(3) 1.1351(3)
N25 N 0.63002(10) 0.3110(2) 1.1251(2)
N26 N 0.27859(12) 0.0745(3) 1.2318(2)
N27 N 0.35183(14) 0.4455(3) 0.8012(3)
N28 N 0.67224(11) 0.3282(2) 1.1126(2)
N29 N 0.28038(13) -0.0024(3) 1.2676(3)
N30 N 0.3522(2) 0.4433(3) 0.8795(4)
N31 N 0.71253(14) 0.3459(4) 1.1110(3)
N32 N 0.3649(7) 0.4581(9) 0.9603(9)
N34 N 0.27843(18) -0.0722(3) 1.3028(4)
N5? N 0.5494(5) 0.1133(7) 1.0506(7)
N13? N 0.3264(9) -0.1101(17) 0.9451(15)
N16? N 0.5131(5) 0.4276(7) 1.0795(6)
N33? N 0.3335(6) 0.4342(11) 0.9399(10)
loop_
_geom_bond_atom_site_label_1
_geom_bond_atom_site_label_2
_geom_bond_site_symmetry_1
_geom_bond_site_symmetry_2
O1 C1 1_555 1_555
O2 C2 1_555 1_555
O3 C3 1_555 1_555
N1 C4 1_555 1_555
C1 C5 1_555 1_555
C2 C7 1_555 1_555
C3 C6 1_555 1_555
N2 N8 1_555 1_555
N3 C5 1_555 1_555
N4 N6 1_555 1_555
C4 O3 1_555 1_555
C5 H1 1_555 1_555
H2 C5 1_555 1_555
N6 N7 1_555 1_555
C6 N4 1_555 1_555
H3 C6 1_555 1_555
H4 C6 1_555 1_555
N8 N11 1_555 1_555
C7 N2 1_555 1_555
H5 C7 1_555 1_555
H6 C7 1_555 1_555
N9 N3 1_555 1_555
N10 C4 1_555 1_555
C8 C3 1_555 1_555
H7 C8 1_555 1_555
H8 C8 1_555 1_555
C9 C2 1_555 1_555
H9 C9 1_555 1_555
H10 C9 1_555 1_555
C10 C1 1_555 1_555
H11 C10 1_555 1_555
H12 C10 1_555 1_555
N12 N9 1_555 1_555
C11 O2 1_555 1_555
C12 C3 1_555 1_555
H13 C12 1_555 1_555
H14 C12 1_555 1_555
N14 C10 1_555 1_555
C13 C1 1_555 1_555
H15 C13 1_555 1_555
H16 C13 1_555 1_555
C14 C2 1_555 1_555
H17 C14 1_555 1_555
H18 C14 1_555 1_555
N15 C8 1_555 1_555
N17 C9 1_555 1_555
N18 C11 1_555 1_555
N19 N14 1_555 1_555
N20 N15 1_555 1_555
N21 N17 1_555 1_555
C15 O1 1_555 1_555
N22 N19 1_555 1_555
N23 N21 1_555 1_555
N24 N20 1_555 1_555
N25 C12 1_555 1_555
N26 C13 1_555 1_555
N27 C14 1_555 1_555
N28 N25 1_555 1_555
N29 N26 1_555 1_555
N30 N27 1_555 1_555
N31 N28 1_555 1_555
N32 N30 1_555 1_555
N34 N29 1_555 1_555
N1 C15 1_555 1_555
N10 C11 1_555 1_555
N18 C15 1_555 1_555

#END
