
#######################################################################
#
#                 Cambridge Crystallographic Data Centre
#                                CCDC 
#
#######################################################################
#
# If this CIF has been generated from an entry in the Cambridge 
# Structural Database, then it will include bibliographic, chemical, 
# crystal, experimental, refinement or atomic coordinate data resulting 
# from the CCDC's data processing and validation procedures.
#
#######################################################################

data_XODBOJ
_chemical_formula_moiety         'C10 H9 B1 F2 N4'
_chemical_name_systematic        
Difluoro(2-((((1H-pyrrol-2-yl)methylene)hydrazono)methyl)-1H-pyrrolato)boron
_symmetry_cell_setting           orthorhombic
_symmetry_space_group_name_H-M   'P b c a'
_symmetry_Int_Tables_number      61
_space_group_name_Hall           '-P 2ac 2ab'
loop_
_symmetry_equiv_pos_site_id
_symmetry_equiv_pos_as_xyz
1 x,y,z
2 1/2-x,-y,1/2+z
3 -x,1/2+y,1/2-z
4 1/2+x,1/2-y,-z
5 -x,-y,-z
6 1/2+x,y,1/2-z
7 x,1/2-y,1/2+z
8 1/2-x,1/2+y,z
_cell_length_a                   12.306(3)
_cell_length_b                   9.480(2)
_cell_length_c                   18.766(4)
_cell_angle_alpha                90
_cell_angle_beta                 90
_cell_angle_gamma                90
_cell_volume                     2189.26
_exptl_crystal_colour            colorless
_exptl_crystal_description       block
_cell_formula_units_Z            8
loop_
_atom_site_label
_atom_site_type_symbol
_atom_site_fract_x
_atom_site_fract_y
_atom_site_fract_z
B1 B 0.0855(2) 0.1695(3) 0.40653(16)
C1 C 0.0545(2) 0.3363(3) 0.29837(15)
H1 H -0.0196 0.3215 0.2923
C2 C 0.1166(3) 0.4273(3) 0.25886(15)
H2 H 0.0924 0.4844 0.2218
C3 C 0.2227(3) 0.4187(3) 0.28430(14)
H3 H 0.2824 0.4690 0.2677
C4 C 0.2223(2) 0.3208(2) 0.33895(13)
C5 C 0.30609(19) 0.2678(2) 0.38315(14)
H4 H 0.3753 0.3030 0.3742
C6 C 0.18615(16) 0.0350(2) 0.49909(12)
H5 H 0.1163 0.0012 0.5073
C7 C 0.26549(17) -0.0207(2) 0.54431(12)
C8 C 0.2514(2) -0.1244(3) 0.59523(13)
H6 H 0.1862 -0.1690 0.6060
C9 C 0.3496(2) -0.1506(3) 0.62725(14)
H7 H 0.3632 -0.2160 0.6631
C10 C 0.4238(2) -0.0616(3) 0.59617(13)
H8 H 0.4972 -0.0563 0.6079
F1 F 0.01566(10) 0.23106(14) 0.45576(8)
F2 F 0.03632(11) 0.04866(14) 0.38111(8)
N1 N 0.11805(16) 0.27041(19) 0.34820(10)
N2 N 0.29914(14) 0.17677(19) 0.43430(11)
N3 N 0.19322(13) 0.12642(18) 0.44716(10)
N4 N 0.37389(15) 0.0163(2) 0.54628(11)
H9 H 0.398(2) 0.087(3) 0.5158(13)
loop_
_geom_bond_atom_site_label_1
_geom_bond_atom_site_label_2
_geom_bond_site_symmetry_1
_geom_bond_site_symmetry_2
B1 F1 1_555 1_555
C1 H1 1_555 1_555
C2 C1 1_555 1_555
H2 C2 1_555 1_555
C3 C2 1_555 1_555
H3 C3 1_555 1_555
C4 C3 1_555 1_555
C5 C4 1_555 1_555
H4 C5 1_555 1_555
C6 H5 1_555 1_555
C7 C6 1_555 1_555
C8 C7 1_555 1_555
H6 C8 1_555 1_555
C9 C8 1_555 1_555
H7 C9 1_555 1_555
C10 C9 1_555 1_555
H8 C10 1_555 1_555
F2 B1 1_555 1_555
N1 B1 1_555 1_555
N2 C5 1_555 1_555
N3 B1 1_555 1_555
N4 C7 1_555 1_555
H9 N4 1_555 1_555
C1 N1 1_555 1_555
C4 N1 1_555 1_555
C6 N3 1_555 1_555
C10 N4 1_555 1_555
N2 N3 1_555 1_555

#END
