
#######################################################################
#
#                 Cambridge Crystallographic Data Centre
#                                CCDC 
#
#######################################################################
#
# If this CIF has been generated from an entry in the Cambridge 
# Structural Database, then it will include bibliographic, chemical, 
# crystal, experimental, refinement or atomic coordinate data resulting 
# from the CCDC's data processing and validation procedures.
#
#######################################################################

data_XODCIE
_chemical_formula_moiety         'C10 H12 N1 O3 P1'
_chemical_name_systematic        
'1-Ethoxy-7-methyl-1,2-dihydro-3H-2,1-benzazaphosphol-3-one 1-oxide'
_symmetry_cell_setting           monoclinic
_symmetry_space_group_name_H-M   'P 21/c'
_symmetry_Int_Tables_number      14
_space_group_name_Hall           '-P 2ybc'
loop_
_symmetry_equiv_pos_site_id
_symmetry_equiv_pos_as_xyz
1 x,y,z
2 -x,1/2+y,1/2-z
3 -x,-y,-z
4 x,1/2-y,1/2+z
_cell_length_a                   7.2030(14)
_cell_length_b                   8.5010(17)
_cell_length_c                   17.051(3)
_cell_angle_alpha                90
_cell_angle_beta                 90.90(3)
_cell_angle_gamma                90
_cell_volume                     1043.95
_exptl_crystal_colour            colorless
_exptl_crystal_description       block
_cell_formula_units_Z            4
loop_
_atom_site_label
_atom_site_type_symbol
_atom_site_fract_x
_atom_site_fract_y
_atom_site_fract_z
P1 P 0.37962(7) 0.83117(5) 0.07830(3)
N1 N 0.3029(2) 0.85107(18) -0.01414(9)
H1 H 0.326(3) 0.9332(16) -0.0417(11)
O1 O 0.2052(2) 0.70164(17) -0.11994(8)
O2 O 0.57164(19) 0.88374(15) 0.09435(7)
O3 O 0.24639(19) 0.92526(15) 0.13356(8)
C1 C 0.3320(3) 0.6255(2) 0.08021(11)
C2 C 0.3615(3) 0.5168(2) 0.14036(11)
C3 C 0.3142(3) 0.3612(2) 0.12340(12)
H2 H 0.3292 0.2837 0.1631
C4 C 0.2455(3) 0.3163(2) 0.04980(13)
H3 H 0.2149 0.2092 0.0405
C5 C 0.2211(3) 0.4253(2) -0.01002(12)
H4 H 0.1757 0.3945 -0.0603
C6 C 0.2652(2) 0.5798(2) 0.00622(10)
C7 C 0.2516(3) 0.7121(2) -0.05143(11)
C8 C 0.4439(3) 0.5636(3) 0.21831(12)
H5 H 0.5797 0.5605 0.2157
H6 H 0.4021 0.4904 0.2588
H7 H 0.4039 0.6705 0.2314
C9 C 0.0439(3) 0.9070(3) 0.13221(12)
H8 H 0.0041 0.8592 0.0817
H9 H -0.0151 1.0118 0.1361
C10 C -0.0195(4) 0.8058(3) 0.19819(15)
H10 H 0.0305 0.6994 0.1920
H11 H -0.1554 0.8015 0.1978
H12 H 0.0250 0.8501 0.2481
loop_
_geom_bond_atom_site_label_1
_geom_bond_atom_site_label_2
_geom_bond_site_symmetry_1
_geom_bond_site_symmetry_2
P1 N1 1_555 1_555
N1 H1 1_555 1_555
O1 C7 1_555 1_555
O2 P1 1_555 1_555
O3 P1 1_555 1_555
C1 P1 1_555 1_555
C2 C1 1_555 1_555
C3 C2 1_555 1_555
H2 C3 1_555 1_555
C4 C3 1_555 1_555
H3 C4 1_555 1_555
C5 C4 1_555 1_555
H4 C5 1_555 1_555
C6 C1 1_555 1_555
C7 N1 1_555 1_555
C8 C2 1_555 1_555
H5 C8 1_555 1_555
H6 C8 1_555 1_555
H7 C8 1_555 1_555
C9 O3 1_555 1_555
H8 C9 1_555 1_555
H9 C9 1_555 1_555
C10 C9 1_555 1_555
H10 C10 1_555 1_555
H11 C10 1_555 1_555
H12 C10 1_555 1_555
C5 C6 1_555 1_555
C6 C7 1_555 1_555

#END
