
#######################################################################
#
#                 Cambridge Crystallographic Data Centre
#                                CCDC 
#
#######################################################################
#
# If this CIF has been generated from an entry in the Cambridge 
# Structural Database, then it will include bibliographic, chemical, 
# crystal, experimental, refinement or atomic coordinate data resulting 
# from the CCDC's data processing and validation procedures.
#
#######################################################################

data_XODCAW
_chemical_formula_moiety         'C24 H25 Cl1 N2 O4'
_chemical_name_systematic        
"t-Butyl 5'-chloro-3-ethyl-1'-methyl-2',4-dioxo-3-phenyl-1',2'-dihydro-1H-spiro[azetidine-2,3'-indole]-1-carboxylate"
_symmetry_cell_setting           orthorhombic
_symmetry_space_group_name_H-M   'P 21 21 21'
_symmetry_Int_Tables_number      19
_space_group_name_Hall           'P 2ac 2ab'
loop_
_symmetry_equiv_pos_site_id
_symmetry_equiv_pos_as_xyz
1 x,y,z
2 1/2-x,-y,1/2+z
3 -x,1/2+y,1/2-z
4 1/2+x,1/2-y,-z
_cell_length_a                   11.939(2)
_cell_length_b                   12.451(3)
_cell_length_c                   15.057(3)
_cell_angle_alpha                90
_cell_angle_beta                 90
_cell_angle_gamma                90
_cell_volume                     2238.26
_exptl_crystal_colour            colorless
_exptl_crystal_description       rod
_cell_formula_units_Z            4
loop_
_atom_site_label
_atom_site_type_symbol
_atom_site_fract_x
_atom_site_fract_y
_atom_site_fract_z
Cl1 Cl 0.84280(4) 0.61007(4) 0.18774(3)
O1 O 0.54490(10) 0.08885(9) 0.27418(9)
O2 O 0.49714(11) 0.24760(12) 0.09285(9)
O3 O 0.32380(10) 0.30155(10) 0.14041(8)
O4 O 0.31198(10) 0.35602(10) 0.32411(9)
N1 N 0.72146(12) 0.16382(11) 0.26933(10)
N2 N 0.46606(11) 0.30894(11) 0.23290(10)
C1 C 0.81115(15) 0.47645(13) 0.21283(12)
C2 C 0.89730(14) 0.40253(15) 0.21701(12)
H1 H 0.9722 0.4249 0.2062
C3 C 0.87496(14) 0.29509(14) 0.23699(12)
H2 H 0.9333 0.2433 0.2397
C4 C 0.76494(14) 0.26722(13) 0.25261(11)
C5 C 0.67805(13) 0.34232(13) 0.25001(11)
C6 C 0.69970(14) 0.44819(14) 0.22908(12)
H3 H 0.6412 0.4998 0.2258
C7 C 0.57255(13) 0.28525(13) 0.27609(12)
C8 C 0.60679(14) 0.16574(13) 0.27225(12)
C9 C 0.78881(15) 0.06653(14) 0.27276(14)
H4 H 0.7403 0.0048 0.2852
H5 H 0.8450 0.0732 0.3198
H6 H 0.8264 0.0560 0.2156
C10 C 0.51220(13) 0.31715(13) 0.36873(12)
C11 C 0.40775(14) 0.33171(13) 0.31098(12)
C12 C 0.43280(14) 0.28247(14) 0.14700(12)
C13 C 0.25787(15) 0.27267(14) 0.06051(12)
C14 C 0.27106(19) 0.15452(16) 0.03965(16)
H7 H 0.2566 0.1122 0.0933
H8 H 0.3475 0.1408 0.0189
H9 H 0.2176 0.1340 -0.0068
C15 C 0.29191(17) 0.34423(18) -0.01586(14)
H10 H 0.3681 0.3260 -0.0347
H11 H 0.2895 0.4195 0.0032
H12 H 0.2402 0.3337 -0.0656
C16 C 0.14003(15) 0.29610(16) 0.09220(13)
H13 H 0.0867 0.2804 0.0444
H14 H 0.1341 0.3720 0.1088
H15 H 0.1230 0.2511 0.1439
C17 C 0.55030(15) 0.42420(14) 0.40888(13)
H16 H 0.6281 0.4170 0.4308
H17 H 0.5496 0.4802 0.3622
C18 C 0.47440(16) 0.45883(16) 0.48530(13)
H18 H 0.3971 0.4646 0.4640
H19 H 0.4992 0.5287 0.5079
H20 H 0.4782 0.4054 0.5330
C19 C 0.50548(14) 0.22815(13) 0.43711(11)
C20 C 0.40538(15) 0.17595(15) 0.45555(14)
H21 H 0.3393 0.1957 0.4245
C21 C 0.40106(18) 0.09544(17) 0.51869(15)
H22 H 0.3321 0.0603 0.5306
C22 C 0.49608(18) 0.06589(17) 0.56437(14)
H23 H 0.4929 0.0101 0.6073
C23 C 0.59616(18) 0.11785(17) 0.54749(14)
H24 H 0.6618 0.0982 0.5792
C24 C 0.60077(15) 0.19893(15) 0.48410(13)
H25 H 0.6697 0.2346 0.4729
loop_
_geom_bond_atom_site_label_1
_geom_bond_atom_site_label_2
_geom_bond_site_symmetry_1
_geom_bond_site_symmetry_2
Cl1 C1 1_555 1_555
O1 C8 1_555 1_555
O2 C12 1_555 1_555
O3 C12 1_555 1_555
O4 C11 1_555 1_555
N1 C4 1_555 1_555
N2 C7 1_555 1_555
C1 C2 1_555 1_555
C2 H1 1_555 1_555
C3 C2 1_555 1_555
H2 C3 1_555 1_555
C4 C3 1_555 1_555
C5 C4 1_555 1_555
C6 C1 1_555 1_555
H3 C6 1_555 1_555
C7 C5 1_555 1_555
C8 N1 1_555 1_555
C9 N1 1_555 1_555
H4 C9 1_555 1_555
H5 C9 1_555 1_555
H6 C9 1_555 1_555
C10 C7 1_555 1_555
C11 N2 1_555 1_555
C12 N2 1_555 1_555
C13 O3 1_555 1_555
C14 C13 1_555 1_555
H7 C14 1_555 1_555
H8 C14 1_555 1_555
H9 C14 1_555 1_555
C15 C13 1_555 1_555
H10 C15 1_555 1_555
H11 C15 1_555 1_555
H12 C15 1_555 1_555
C16 C13 1_555 1_555
H13 C16 1_555 1_555
H14 C16 1_555 1_555
H15 C16 1_555 1_555
C17 C10 1_555 1_555
H16 C17 1_555 1_555
H17 C17 1_555 1_555
C18 C17 1_555 1_555
H18 C18 1_555 1_555
H19 C18 1_555 1_555
H20 C18 1_555 1_555
C19 C10 1_555 1_555
C20 C19 1_555 1_555
H21 C20 1_555 1_555
C21 C20 1_555 1_555
H22 C21 1_555 1_555
C22 C21 1_555 1_555
H23 C22 1_555 1_555
C23 C22 1_555 1_555
H24 C23 1_555 1_555
C24 C19 1_555 1_555
H25 C24 1_555 1_555
C5 C6 1_555 1_555
C7 C8 1_555 1_555
C10 C11 1_555 1_555
C23 C24 1_555 1_555

#END
