
#######################################################################
#
#                 Cambridge Crystallographic Data Centre
#                                CCDC 
#
#######################################################################
#
# If this CIF has been generated from an entry in the Cambridge 
# Structural Database, then it will include bibliographic, chemical, 
# crystal, experimental, refinement or atomic coordinate data resulting 
# from the CCDC's data processing and validation procedures.
#
#######################################################################

data_XODGAA
_chemical_formula_moiety         'C25 H27 N1 O6'
_chemical_name_systematic        
'4-(5-Isopropyl-2-methyl-2-vinyl-6,8-dioxabicyclo[3.2.1]oct-7-yl)phenyl 4-nitrobenzoate'
_symmetry_cell_setting           triclinic
_symmetry_space_group_name_H-M   'P 1'
_symmetry_Int_Tables_number      1
_space_group_name_Hall           'P 1'
loop_
_symmetry_equiv_pos_site_id
_symmetry_equiv_pos_as_xyz
1 x,y,z
_cell_length_a                   12.9525(3)
_cell_length_b                   12.9574(3)
_cell_length_c                   22.2532(4)
_cell_angle_alpha                98.9531(17)
_cell_angle_beta                 92.3957(18)
_cell_angle_gamma                114.359(2)
_cell_volume                     3337.45
_exptl_crystal_colour            colorless
_exptl_crystal_description       block
_cell_formula_units_Z            6
loop_
_atom_site_label
_atom_site_type_symbol
_atom_site_fract_x
_atom_site_fract_y
_atom_site_fract_z
O1 O 0.7678(2) 1.45948(17) 0.57287(9)
O2 O 0.79909(16) 1.59969(14) 0.52426(8)
O3 O 0.47456(17) 1.20410(15) 0.26605(8)
O4 O 0.41191(14) 1.07268(13) 0.32664(7)
O5 O 0.12117(13) 0.72955(12) 0.08005(6)
O6 O 0.17145(12) 0.59105(11) 0.10279(6)
N1 N 0.75502(17) 1.49767(17) 0.52744(9)
C1 C 0.68143(18) 1.41347(18) 0.47365(10)
C2 C 0.68293(18) 1.45060(18) 0.41856(10)
H1 H 0.7290 1.5284 0.4158
C3 C 0.61619(19) 1.37220(19) 0.36778(10)
H2 H 0.6164 1.3958 0.3294
C4 C 0.54861(18) 1.25886(18) 0.37230(10)
C5 C 0.54665(18) 1.22388(18) 0.42830(10)
H3 H 0.4986 1.1467 0.4314
C6 C 0.61475(19) 1.30147(19) 0.47987(10)
H4 H 0.6155 1.2782 0.5183
C7 C 0.47623(19) 1.17788(19) 0.31527(10)
C8 C 0.3365(2) 0.99052(18) 0.27723(10)
C9 C 0.3742(2) 0.92220(19) 0.23833(10)
H5 H 0.4522 0.9355 0.2422
C10 C 0.2961(2) 0.83434(19) 0.19387(10)
H6 H 0.3208 0.7869 0.1670
C11 C 0.18181(19) 0.81447(17) 0.18802(9)
C12 C 0.14666(19) 0.88591(18) 0.22675(10)
H7 H 0.0689 0.8735 0.2229
C13 C 0.2250(2) 0.97529(18) 0.27101(10)
H8 H 0.2016 1.0254 0.2967
C14 C 0.09398(18) 0.71553(17) 0.14112(9)
H9 H 0.0165 0.7129 0.1456
C15 C 0.09140(17) 0.59622(17) 0.14439(9)
H10 H 0.1191 0.5948 0.1868
C16 C -0.02695(18) 0.49499(17) 0.12270(9)
C17 C -0.06718(18) 0.50837(18) 0.05949(10)
H11 H -0.1326 0.4356 0.0398
H12 H -0.0938 0.5703 0.0650
C18 C 0.02715(18) 0.53739(17) 0.01738(9)
H13 H 0.0046 0.5646 -0.0179
H14 H 0.0376 0.4671 0.0014
C19 C 0.13971(18) 0.63092(17) 0.05192(9)
C20 C 0.23964(19) 0.67296(18) 0.01471(10)
H15 H 0.3041 0.7387 0.0420
C21 C 0.2809(2) 0.5801(2) -0.00607(11)
H16 H 0.3013 0.5539 0.0298
H17 H 0.3480 0.6119 -0.0278
H18 H 0.2200 0.5147 -0.0335
C22 C 0.2121(2) 0.7186(2) -0.04021(11)
H19 H 0.1560 0.6542 -0.0704
H20 H 0.2820 0.7566 -0.0588
H21 H 0.1806 0.7741 -0.0266
C23 C -0.01440(19) 0.38312(18) 0.12101(10)
H22 H 0.0338 0.3816 0.1539
C24 C -0.0624(2) 0.28850(19) 0.07948(11)
H23 H -0.1115 0.2849 0.0455
H24 H -0.0481 0.2234 0.0833
C25 C -0.1110(2) 0.4978(2) 0.16910(10)
H25 H -0.0801 0.4959 0.2097
H26 H -0.1844 0.4307 0.1563
H27 H -0.1219 0.5687 0.1709
O7 O 1.12632(17) 1.2061(2) 0.56946(10)
O8 O 1.15077(17) 1.28881(17) 0.49025(12)
O9 O 0.74797(15) 0.69542(13) 0.38499(7)
O10 O 0.74731(13) 0.79941(12) 0.31284(6)
O11 O 0.41004(12) 0.45678(11) 0.09193(6)
O12 O 0.44835(12) 0.30538(11) 0.10238(6)
N2 N 1.10660(18) 1.2056(2) 0.51470(12)
C26 C 1.02444(19) 1.0959(2) 0.47630(11)
C27 C 0.9670(2) 1.0030(2) 0.50408(11)
H28 H 0.9803 1.0089 0.5471
C28 C 0.88982(19) 0.9012(2) 0.46745(10)
H29 H 0.8507 0.8351 0.4849
C29 C 0.86984(18) 0.89623(18) 0.40472(10)
C30 C 0.9272(2) 0.99086(19) 0.37856(11)
H30 H 0.9123 0.9864 0.3358
C31 C 1.0070(2) 1.09292(19) 0.41481(12)
H31 H 1.0481 1.1585 0.3974
C32 C 0.78300(18) 0.78565(17) 0.36783(9)
C33 C 0.65581(19) 0.70278(17) 0.27644(9)
C34 C 0.67163(19) 0.60653(18) 0.25073(10)
H32 H 0.7418 0.6017 0.2595
C35 C 0.5821(2) 0.51743(18) 0.21186(10)
H33 H 0.5912 0.4506 0.1939
C36 C 0.47916(18) 0.52434(17) 0.19874(9)
C37 C 0.46635(19) 0.62148(18) 0.22641(10)
H34 H 0.3960 0.6263 0.2185
C38 C 0.55505(19) 0.71192(18) 0.26551(10)
H35 H 0.5461 0.7784 0.2842
C39 C 0.38415(18) 0.43280(17) 0.15230(9)
H36 H 0.3096 0.4349 0.1603
C40 C 0.37357(18) 0.30917(17) 0.14763(9)
H37 H 0.4018 0.2983 0.1876
C41 C 0.25287(19) 0.21429(18) 0.12415(10)
C42 C 0.21143(19) 0.2420(2) 0.06541(10)
H38 H 0.1429 0.1740 0.0441
H39 H 0.1895 0.3067 0.0766
C43 C 0.30374(18) 0.27481(18) 0.02191(9)
H40 H 0.3089 0.2043 0.0007
H41 H 0.2826 0.3112 -0.0095
C44 C 0.41934(17) 0.35817(16) 0.05703(9)
C45 C 0.51587(18) 0.39723(17) 0.01752(9)
H42 H 0.5157 0.3267 -0.0083
C46 C 0.63265(19) 0.46267(19) 0.05615(10)
H43 H 0.6312 0.5254 0.0865
H44 H 0.6914 0.4949 0.0294
H45 H 0.6499 0.4096 0.0772
C47 C 0.4982(2) 0.47096(19) -0.02565(10)
H46 H 0.4267 0.4257 -0.0527
H47 H 0.5620 0.4952 -0.0503
H48 H 0.4945 0.5392 -0.0016
C48 C 0.2606(2) 0.09927(19) 0.11395(11)
H49 H 0.3072 0.0890 0.1444
C49 C 0.2106(3) 0.0126(2) 0.06809(14)
H50 H 0.1630 0.0178 0.0362
H51 H 0.2220 -0.0556 0.0667
C50 C 0.1726(2) 0.2115(2) 0.17297(11)
H52 H 0.1995 0.1923 0.2097
H53 H 0.0954 0.1530 0.1571
H54 H 0.1715 0.2873 0.1834
O13 O 0.46491(14) 0.98181(12) 0.48042(7)
O14 O 0.46292(15) 0.87095(14) 0.54401(8)
O15 O 0.14083(14) 0.49009(13) 0.26346(7)
O16 O 0.06550(14) 0.40965(13) 0.34324(7)
O17 O -0.35941(13) -0.01171(13) 0.17413(7)
O18 O -0.27236(14) 0.01141(13) 0.08879(7)
N3 N 0.43411(15) 0.88626(15) 0.49427(8)
C51 C 0.35879(17) 0.78441(17) 0.44900(10)
C52 C 0.35229(18) 0.79426(18) 0.38800(10)
H55 H 0.3955 0.8652 0.3755
C53 C 0.28084(18) 0.69759(18) 0.34584(10)
H56 H 0.2756 0.7011 0.3036
C54 C 0.21632(17) 0.59481(17) 0.36528(9)
C55 C 0.22390(18) 0.58801(18) 0.42688(10)
H57 H 0.1790 0.5181 0.4398
C56 C 0.29719(18) 0.68351(18) 0.46941(10)
H58 H 0.3049 0.6797 0.5116
C57 C 0.13884(18) 0.49457(17) 0.31735(10)
C58 C -0.0128(2) 0.30942(18) 0.30255(9)
C59 C -0.1191(2) 0.30083(18) 0.28427(10)
H59 H -0.1387 0.3634 0.2964
C60 C -0.1978(2) 0.19833(18) 0.24746(10)
H60 H -0.2720 0.1907 0.2347
C61 C -0.16849(18) 0.10748(17) 0.22941(9)
C62 C -0.05915(19) 0.11974(19) 0.24901(9)
H61 H -0.0387 0.0577 0.2370
C63 C 0.01940(19) 0.22076(19) 0.28553(9)
H62 H 0.0936 0.2291 0.2986
C64 C -0.24843(18) -0.00594(17) 0.18897(9)
H63 H -0.2558 -0.0707 0.2103
C65 C -0.20657(18) -0.02587(17) 0.12562(9)
H64 H -0.1231 0.0238 0.1270
C66 C -0.23443(18) -0.15372(17) 0.10063(10)
C67 C -0.36307(19) -0.22381(18) 0.10595(11)
H65 H -0.3895 -0.3020 0.0807
H66 H -0.3725 -0.2323 0.1491
C68 C -0.4376(2) -0.1672(2) 0.08528(12)
H67 H -0.5125 -0.2012 0.1009
H68 H -0.4509 -0.1837 0.0400
C69 C -0.3823(2) -0.0358(2) 0.10828(10)
C70 C -0.4554(3) 0.0240(3) 0.08950(12)
H69 H -0.5315 -0.0135 0.1044
C71 C -0.4039(3) 0.1499(3) 0.11836(16)
H70 H -0.4093 0.1582 0.1625
H71 H -0.4453 0.1880 0.1000
H72 H -0.3236 0.1857 0.1114
C72 C -0.4750(3) 0.0076(3) 0.01991(13)
H73 H -0.4022 0.0475 0.0042
H74 H -0.5281 0.0397 0.0088
H75 H -0.5074 -0.0749 0.0020
C73 C -0.2121(2) -0.16574(18) 0.03431(10)
H76 H -0.2523 -0.1406 0.0077
C74 C -0.1433(3) -0.2071(2) 0.00936(13)
H77 H -0.1009 -0.2335 0.0338
H78 H -0.1360 -0.2105 -0.0331
C75 C -0.1618(2) -0.19268(19) 0.13903(11)
H79 H -0.0808 -0.1467 0.1361
H80 H -0.1814 -0.2744 0.1237
H81 H -0.1764 -0.1819 0.1819
O19 O 0.32378(16) 0.40424(15) 0.31406(8)
O20 O 0.29010(15) 0.26424(13) 0.36322(8)
O21 O 0.61704(14) 0.65737(13) 0.62109(7)
O22 O 0.67621(13) 0.79218(12) 0.56204(7)
O23 O 0.94859(12) 1.14154(12) 0.80954(6)
O24 O 1.11923(12) 1.14117(11) 0.79507(6)
N4 N 0.33613(16) 0.36681(15) 0.35985(8)
C76 C 0.40897(18) 0.45010(17) 0.41410(10)
C77 C 0.41007(18) 0.41112(17) 0.46848(10)
H82 H 0.3660 0.3326 0.4708
C78 C 0.47774(18) 0.49048(17) 0.51950(10)
H83 H 0.4796 0.4664 0.5576
C79 C 0.54284(17) 0.60471(17) 0.51548(9)
C80 C 0.54123(17) 0.64131(17) 0.45995(10)
H84 H 0.5863 0.7195 0.4574
C81 C 0.47354(18) 0.56320(18) 0.40827(10)
H85 H 0.4717 0.5867 0.3700
C82 C 0.61465(18) 0.68423(17) 0.57207(9)
C83 C 0.74594(19) 0.87742(17) 0.61228(9)
C84 C 0.71409(18) 0.96413(17) 0.63369(9)
H86 H 0.6431 0.9613 0.6185
C85 C 0.78898(18) 1.05664(17) 0.67844(9)
H87 H 0.7687 1.1177 0.6934
C86 C 0.89205(18) 1.06111(17) 0.70142(9)
C87 C 0.91902(19) 0.96938(18) 0.68041(10)
H88 H 0.9880 0.9697 0.6968
C88 C 0.8457(2) 0.87705(18) 0.63549(10)
H89 H 0.8645 0.8147 0.6211
C89 C 0.96978(18) 1.16524(17) 0.74891(9)
H90 H 0.9540 1.2329 0.7437
C90 C 1.09837(18) 1.19925(16) 0.74923(9)
H91 H 1.1150 1.1688 0.7085
C91 C 1.17389(17) 1.33021(16) 0.76849(9)
C92 C 1.13510(18) 1.37196(17) 0.82833(9)
H92 H 1.1929 1.4500 0.8475
H93 H 1.0624 1.3774 0.8187
C93 C 1.11839(18) 1.29012(16) 0.87378(9)
H94 H 1.0742 1.3071 0.9061
H95 H 1.1938 1.3037 0.8937
C94 C 1.05540(17) 1.16300(17) 0.84199(9)
C95 C 1.03652(18) 1.07824(17) 0.88554(9)
H96 H 1.1119 1.0986 0.9092
C96 C 0.9933(2) 0.95443(18) 0.85074(11)
H97 H 0.9217 0.9337 0.8251
H98 H 0.9800 0.9022 0.8800
H99 H 1.0503 0.9477 0.8248
C97 C 0.9551(2) 1.0877(2) 0.93148(10)
H100 H 0.9856 1.1669 0.9548
H101 H 0.9472 1.0344 0.9596
H102 H 0.8803 1.0678 0.9095
C98 C 1.29715(18) 1.34748(17) 0.77616(10)
H103 H 1.3156 1.2940 0.7498
C99 C 1.3810(2) 1.4275(2) 0.81485(11)
H104 H 1.3676 1.4834 0.8423
H105 H 1.4553 1.4298 0.8155
C100 C 1.1589(2) 1.39238(18) 0.71812(10)
H106 H 1.0780 1.3752 0.7096
H107 H 1.1858 1.3661 0.6808
H108 H 1.2033 1.4758 0.7316
O25 O -0.36683(16) 0.00686(14) 0.34404(7)
O26 O -0.37675(13) -0.09959(13) 0.41153(8)
O27 O -0.03845(13) 0.38917(13) 0.62311(7)
O28 O 0.04809(13) 0.46664(13) 0.54456(7)
O29 O 0.42481(13) 0.90716(11) 0.72707(6)
O30 O 0.37024(12) 0.81085(11) 0.80499(6)
N5 N -0.34081(15) -0.00554(15) 0.39511(8)
C101 C -0.26258(18) 0.09726(18) 0.43922(10)
C102 C -0.25794(18) 0.09088(18) 0.50074(10)
H109 H -0.3041 0.0219 0.5142
C103 C -0.18429(18) 0.18760(19) 0.54193(10)
H110 H -0.1813 0.1864 0.5845
C104 C -0.11425(18) 0.28703(18) 0.52144(10)
C105 C -0.11955(18) 0.29076(18) 0.45935(9)
H111 H -0.0712 0.3583 0.4455
C106 C -0.19634(19) 0.19458(18) 0.41759(10)
H112 H -0.2027 0.1963 0.3751
C107 C -0.03413(18) 0.38445(17) 0.56911(10)
C108 C 0.14079(18) 0.55022(18) 0.58684(9)
C109 C 0.13394(19) 0.64666(19) 0.61848(10)
H113 H 0.0657 0.6569 0.6137
C110 C 0.22826(19) 0.72915(18) 0.65757(10)
H114 H 0.2245 0.7964 0.6794
C111 C 0.32767(18) 0.71417(17) 0.66500(9)
C112 C 0.33247(19) 0.61578(17) 0.63194(9)
H115 H 0.4005 0.6051 0.6364
C113 C 0.23905(19) 0.53338(17) 0.59266(9)
H116 H 0.2426 0.4665 0.5702
C114 C 0.43053(17) 0.79868(16) 0.70965(9)
H117 H 0.5024 0.8102 0.6909
C115 C 0.43440(17) 0.75908(17) 0.77161(9)
H118 H 0.3949 0.6731 0.7659
C116 C 0.55616(18) 0.80468(18) 0.80566(9)
C117 C 0.61354(18) 0.93616(18) 0.80882(10)
H119 H 0.6828 0.9705 0.8389
H120 H 0.6376 0.9520 0.7683
C118 C 0.53396(19) 0.99355(17) 0.82716(10)
H121 H 0.5288 0.9994 0.8717
H122 H 0.5659 1.0726 0.8183
C119 C 0.41499(18) 0.92407(16) 0.79219(9)
C120 C 0.3291(2) 0.97457(19) 0.80410(11)
H123 H 0.2533 0.9157 0.7829
C121 C 0.3574(3) 1.0834(2) 0.77742(14)
H124 H 0.4316 1.1431 0.7972
H125 H 0.2984 1.1112 0.7847
H126 H 0.3605 1.0658 0.7333
C122 C 0.3165(2) 0.9975(2) 0.87252(12)
H127 H 0.3041 0.9284 0.8895
H128 H 0.2511 1.0164 0.8778
H129 H 0.3860 1.0622 0.8940
C123 C 0.54279(19) 0.77878(18) 0.86996(9)
H130 H 0.5011 0.8115 0.8941
C124 C 0.5830(2) 0.7158(2) 0.89570(11)
H131 H 0.6253 0.6811 0.8735
H132 H 0.5696 0.7050 0.9364
C125 C 0.6245(2) 0.7476(2) 0.77164(10)
H133 H 0.5859 0.6640 0.7691
H134 H 0.7012 0.7775 0.7937
H135 H 0.6303 0.7648 0.7302
O31 O -0.05664(18) -0.38405(16) 0.33376(9)
O32 O -0.06132(15) -0.45780(14) 0.41486(10)
O33 O 0.31650(14) 0.14920(12) 0.49820(7)
O34 O 0.32367(13) 0.06089(12) 0.57713(7)
O35 O 0.65637(13) 0.41788(13) 0.79485(7)
O36 O 0.81257(12) 0.39238(11) 0.76842(6)
N6 N -0.02923(17) -0.37624(17) 0.38803(10)
C126 C 0.04813(18) -0.26125(18) 0.42358(11)
C127 C 0.09776(19) -0.17231(19) 0.39264(10)
H136 H 0.0802 -0.1833 0.3496
C128 C 0.17418(19) -0.06610(19) 0.42598(10)
H137 H 0.2090 -0.0030 0.4057
C129 C 0.20013(18) -0.05123(17) 0.48865(10)
C130 C 0.14792(19) -0.14323(18) 0.51901(10)
H138 H 0.1652 -0.1328 0.5621
C131 C 0.0711(2) -0.24930(18) 0.48619(11)
H139 H 0.0349 -0.3125 0.5062
C132 C 0.28561(18) 0.06447(17) 0.52082(10)
C133 C 0.41334(18) 0.16200(17) 0.61166(9)
C134 C 0.5059(2) 0.1485(2) 0.63455(12)
H140 H 0.5106 0.0768 0.6242
C135 C 0.5929(2) 0.2416(2) 0.67321(12)
H141 H 0.6575 0.2332 0.6894
C136 C 0.58616(18) 0.34648(18) 0.68820(10)
C137 C 0.49214(19) 0.35723(18) 0.66391(9)
H142 H 0.4874 0.4291 0.6736
C138 C 0.40385(19) 0.26477(19) 0.62536(10)
H143 H 0.3390 0.2726 0.6090
C139 C 0.67398(19) 0.44524(18) 0.73462(9)
H144 H 0.6647 0.5176 0.7327
C140 C 0.79925(17) 0.46737(16) 0.73014(9)
H145 H 0.8112 0.4439 0.6870
C141 C 0.88455(18) 0.59235(17) 0.75699(9)
C142 C 0.85503(19) 0.62522(17) 0.82168(10)
H146 H 0.9182 0.6979 0.8434
H147 H 0.7855 0.6389 0.8179
C143 C 0.83517(18) 0.53080(17) 0.85929(9)
H148 H 0.9091 0.5315 0.8731
H149 H 0.7990 0.5454 0.8960
C144 C 0.75815(17) 0.41348(17) 0.82024(9)
C145 C 0.72351(19) 0.30959(17) 0.85174(10)
H150 H 0.6815 0.2392 0.8194
C146 C 0.6419(2) 0.31087(19) 0.89891(11)
H151 H 0.6816 0.3763 0.9328
H152 H 0.6150 0.2388 0.9146
H153 H 0.5765 0.3184 0.8796
C147 C 0.8254(2) 0.2976(2) 0.88037(11)
H154 H 0.8794 0.3021 0.8502
H155 H 0.7996 0.2230 0.8935
H156 H 0.8630 0.3600 0.9159
C148 C 1.00331(18) 0.59722(17) 0.75816(10)
H157 H 1.0156 0.5479 0.7258
C149 C 1.0916(2) 0.6627(2) 0.79934(11)
H158 H 1.0839 0.7136 0.8327
H159 H 1.1628 0.6590 0.7957
C150 C 0.8765(2) 0.67345(18) 0.71524(10)
H160 H 0.7994 0.6698 0.7127
H161 H 0.8932 0.6495 0.6742
H162 H 0.9319 0.7527 0.7322
loop_
_geom_bond_atom_site_label_1
_geom_bond_atom_site_label_2
_geom_bond_site_symmetry_1
_geom_bond_site_symmetry_2
O1 N1 1_555 1_555
O2 N1 1_555 1_555
O3 C7 1_555 1_555
O4 C7 1_555 1_555
O5 C14 1_555 1_555
O6 C15 1_555 1_555
N1 C1 1_555 1_555
C1 C2 1_555 1_555
C2 H1 1_555 1_555
C3 C2 1_555 1_555
H2 C3 1_555 1_555
C4 C3 1_555 1_555
C5 C4 1_555 1_555
H3 C5 1_555 1_555
C6 C1 1_555 1_555
H4 C6 1_555 1_555
C7 C4 1_555 1_555
C8 O4 1_555 1_555
C9 C8 1_555 1_555
H5 C9 1_555 1_555
C10 C9 1_555 1_555
H6 C10 1_555 1_555
C11 C10 1_555 1_555
C12 C11 1_555 1_555
H7 C12 1_555 1_555
C13 C8 1_555 1_555
H8 C13 1_555 1_555
C14 C11 1_555 1_555
H9 C14 1_555 1_555
C15 C14 1_555 1_555
H10 C15 1_555 1_555
C16 C15 1_555 1_555
C17 C16 1_555 1_555
H11 C17 1_555 1_555
H12 C17 1_555 1_555
C18 C17 1_555 1_555
H13 C18 1_555 1_555
H14 C18 1_555 1_555
C19 O5 1_555 1_555
C20 C19 1_555 1_555
H15 C20 1_555 1_555
C21 C20 1_555 1_555
H16 C21 1_555 1_555
H17 C21 1_555 1_555
H18 C21 1_555 1_555
C22 C20 1_555 1_555
H19 C22 1_555 1_555
H20 C22 1_555 1_555
H21 C22 1_555 1_555
C23 C16 1_555 1_555
H22 C23 1_555 1_555
C24 C23 1_555 1_555
H23 C24 1_555 1_555
H24 C24 1_555 1_555
C25 C16 1_555 1_555
H25 C25 1_555 1_555
H26 C25 1_555 1_555
H27 C25 1_555 1_555
O7 N2 1_555 1_555
O8 N2 1_555 1_555
O9 C32 1_555 1_555
O10 C32 1_555 1_555
O11 C39 1_555 1_555
O12 C40 1_555 1_555
N2 C26 1_555 1_555
C26 C27 1_555 1_555
C27 H28 1_555 1_555
C28 C27 1_555 1_555
H29 C28 1_555 1_555
C29 C28 1_555 1_555
C30 C29 1_555 1_555
H30 C30 1_555 1_555
C31 C26 1_555 1_555
H31 C31 1_555 1_555
C32 C29 1_555 1_555
C33 O10 1_555 1_555
C34 C33 1_555 1_555
H32 C34 1_555 1_555
C35 C34 1_555 1_555
H33 C35 1_555 1_555
C36 C35 1_555 1_555
C37 C36 1_555 1_555
H34 C37 1_555 1_555
C38 C33 1_555 1_555
H35 C38 1_555 1_555
C39 C36 1_555 1_555
H36 C39 1_555 1_555
C40 C39 1_555 1_555
H37 C40 1_555 1_555
C41 C40 1_555 1_555
C42 C41 1_555 1_555
H38 C42 1_555 1_555
H39 C42 1_555 1_555
C43 C42 1_555 1_555
H40 C43 1_555 1_555
H41 C43 1_555 1_555
C44 O11 1_555 1_555
C45 C44 1_555 1_555
H42 C45 1_555 1_555
C46 C45 1_555 1_555
H43 C46 1_555 1_555
H44 C46 1_555 1_555
H45 C46 1_555 1_555
C47 C45 1_555 1_555
H46 C47 1_555 1_555
H47 C47 1_555 1_555
H48 C47 1_555 1_555
C48 C41 1_555 1_555
H49 C48 1_555 1_555
C49 C48 1_555 1_555
H50 C49 1_555 1_555
H51 C49 1_555 1_555
C50 C41 1_555 1_555
H52 C50 1_555 1_555
H53 C50 1_555 1_555
H54 C50 1_555 1_555
O13 N3 1_555 1_555
O14 N3 1_555 1_555
O15 C57 1_555 1_555
O16 C57 1_555 1_555
O17 C64 1_555 1_555
O18 C65 1_555 1_555
N3 C51 1_555 1_555
C51 C52 1_555 1_555
C52 H55 1_555 1_555
C53 C52 1_555 1_555
H56 C53 1_555 1_555
C54 C53 1_555 1_555
C55 C54 1_555 1_555
H57 C55 1_555 1_555
C56 C51 1_555 1_555
H58 C56 1_555 1_555
C57 C54 1_555 1_555
C58 O16 1_555 1_555
C59 C58 1_555 1_555
H59 C59 1_555 1_555
C60 C59 1_555 1_555
H60 C60 1_555 1_555
C61 C60 1_555 1_555
C62 C61 1_555 1_555
H61 C62 1_555 1_555
C63 C58 1_555 1_555
H62 C63 1_555 1_555
C64 C61 1_555 1_555
H63 C64 1_555 1_555
C65 C64 1_555 1_555
H64 C65 1_555 1_555
C66 C65 1_555 1_555
C67 C66 1_555 1_555
H65 C67 1_555 1_555
H66 C67 1_555 1_555
C68 C67 1_555 1_555
H67 C68 1_555 1_555
H68 C68 1_555 1_555
C69 O17 1_555 1_555
C70 C69 1_555 1_555
H69 C70 1_555 1_555
C71 C70 1_555 1_555
H70 C71 1_555 1_555
H71 C71 1_555 1_555
H72 C71 1_555 1_555
C72 C70 1_555 1_555
H73 C72 1_555 1_555
H74 C72 1_555 1_555
H75 C72 1_555 1_555
C73 C66 1_555 1_555
H76 C73 1_555 1_555
C74 C73 1_555 1_555
H77 C74 1_555 1_555
H78 C74 1_555 1_555
C75 C66 1_555 1_555
H79 C75 1_555 1_555
H80 C75 1_555 1_555
H81 C75 1_555 1_555
O19 N4 1_555 1_555
O20 N4 1_555 1_555
O21 C82 1_555 1_555
O22 C82 1_555 1_555
O23 C89 1_555 1_555
O24 C90 1_555 1_555
N4 C76 1_555 1_555
C76 C77 1_555 1_555
C77 H82 1_555 1_555
C78 C77 1_555 1_555
H83 C78 1_555 1_555
C79 C78 1_555 1_555
C80 C79 1_555 1_555
H84 C80 1_555 1_555
C81 C76 1_555 1_555
H85 C81 1_555 1_555
C82 C79 1_555 1_555
C83 O22 1_555 1_555
C84 C83 1_555 1_555
H86 C84 1_555 1_555
C85 C84 1_555 1_555
H87 C85 1_555 1_555
C86 C85 1_555 1_555
C87 C86 1_555 1_555
H88 C87 1_555 1_555
C88 C83 1_555 1_555
H89 C88 1_555 1_555
C89 C86 1_555 1_555
H90 C89 1_555 1_555
C90 C89 1_555 1_555
H91 C90 1_555 1_555
C91 C90 1_555 1_555
C92 C91 1_555 1_555
H92 C92 1_555 1_555
H93 C92 1_555 1_555
C93 C92 1_555 1_555
H94 C93 1_555 1_555
H95 C93 1_555 1_555
C94 O23 1_555 1_555
C95 C94 1_555 1_555
H96 C95 1_555 1_555
C96 C95 1_555 1_555
H97 C96 1_555 1_555
H98 C96 1_555 1_555
H99 C96 1_555 1_555
C97 C95 1_555 1_555
H100 C97 1_555 1_555
H101 C97 1_555 1_555
H102 C97 1_555 1_555
C98 C91 1_555 1_555
H103 C98 1_555 1_555
C99 C98 1_555 1_555
H104 C99 1_555 1_555
H105 C99 1_555 1_555
C100 C91 1_555 1_555
H106 C100 1_555 1_555
H107 C100 1_555 1_555
H108 C100 1_555 1_555
O25 N5 1_555 1_555
O26 N5 1_555 1_555
O27 C107 1_555 1_555
O28 C107 1_555 1_555
O29 C114 1_555 1_555
O30 C115 1_555 1_555
N5 C101 1_555 1_555
C101 C102 1_555 1_555
C102 H109 1_555 1_555
C103 C102 1_555 1_555
H110 C103 1_555 1_555
C104 C103 1_555 1_555
C105 C104 1_555 1_555
H111 C105 1_555 1_555
C106 C101 1_555 1_555
H112 C106 1_555 1_555
C107 C104 1_555 1_555
C108 O28 1_555 1_555
C109 C108 1_555 1_555
H113 C109 1_555 1_555
C110 C109 1_555 1_555
H114 C110 1_555 1_555
C111 C110 1_555 1_555
C112 C111 1_555 1_555
H115 C112 1_555 1_555
C113 C108 1_555 1_555
H116 C113 1_555 1_555
C114 C111 1_555 1_555
H117 C114 1_555 1_555
C115 C114 1_555 1_555
H118 C115 1_555 1_555
C116 C115 1_555 1_555
C117 C116 1_555 1_555
H119 C117 1_555 1_555
H120 C117 1_555 1_555
C118 C117 1_555 1_555
H121 C118 1_555 1_555
H122 C118 1_555 1_555
C119 O29 1_555 1_555
C120 C119 1_555 1_555
H123 C120 1_555 1_555
C121 C120 1_555 1_555
H124 C121 1_555 1_555
H125 C121 1_555 1_555
H126 C121 1_555 1_555
C122 C120 1_555 1_555
H127 C122 1_555 1_555
H128 C122 1_555 1_555
H129 C122 1_555 1_555
C123 C116 1_555 1_555
H130 C123 1_555 1_555
C124 C123 1_555 1_555
H131 C124 1_555 1_555
H132 C124 1_555 1_555
C125 C116 1_555 1_555
H133 C125 1_555 1_555
H134 C125 1_555 1_555
H135 C125 1_555 1_555
O31 N6 1_555 1_555
O32 N6 1_555 1_555
O33 C132 1_555 1_555
O34 C132 1_555 1_555
O35 C139 1_555 1_555
O36 C140 1_555 1_555
N6 C126 1_555 1_555
C126 C127 1_555 1_555
C127 H136 1_555 1_555
C128 C127 1_555 1_555
H137 C128 1_555 1_555
C129 C128 1_555 1_555
C130 C129 1_555 1_555
H138 C130 1_555 1_555
C131 C126 1_555 1_555
H139 C131 1_555 1_555
C132 C129 1_555 1_555
C133 O34 1_555 1_555
C134 C133 1_555 1_555
H140 C134 1_555 1_555
C135 C134 1_555 1_555
H141 C135 1_555 1_555
C136 C135 1_555 1_555
C137 C136 1_555 1_555
H142 C137 1_555 1_555
C138 C133 1_555 1_555
H143 C138 1_555 1_555
C139 C136 1_555 1_555
H144 C139 1_555 1_555
C140 C139 1_555 1_555
H145 C140 1_555 1_555
C141 C140 1_555 1_555
C142 C141 1_555 1_555
H146 C142 1_555 1_555
H147 C142 1_555 1_555
C143 C142 1_555 1_555
H148 C143 1_555 1_555
H149 C143 1_555 1_555
C144 O35 1_555 1_555
C145 C144 1_555 1_555
H150 C145 1_555 1_555
C146 C145 1_555 1_555
H151 C146 1_555 1_555
H152 C146 1_555 1_555
H153 C146 1_555 1_555
C147 C145 1_555 1_555
H154 C147 1_555 1_555
H155 C147 1_555 1_555
H156 C147 1_555 1_555
C148 C141 1_555 1_555
H157 C148 1_555 1_555
C149 C148 1_555 1_555
H158 C149 1_555 1_555
H159 C149 1_555 1_555
C150 C141 1_555 1_555
H160 C150 1_555 1_555
H161 C150 1_555 1_555
H162 C150 1_555 1_555
O6 C19 1_555 1_555
C5 C6 1_555 1_555
C12 C13 1_555 1_555
C18 C19 1_555 1_555
O12 C44 1_555 1_555
C30 C31 1_555 1_555
C37 C38 1_555 1_555
C43 C44 1_555 1_555
O18 C69 1_555 1_555
C55 C56 1_555 1_555
C62 C63 1_555 1_555
C68 C69 1_555 1_555
O24 C94 1_555 1_555
C80 C81 1_555 1_555
C87 C88 1_555 1_555
C93 C94 1_555 1_555
O30 C119 1_555 1_555
C105 C106 1_555 1_555
C112 C113 1_555 1_555
C118 C119 1_555 1_555
O36 C144 1_555 1_555
C130 C131 1_555 1_555
C137 C138 1_555 1_555
C143 C144 1_555 1_555

#END
