
#######################################################################
#
#                 Cambridge Crystallographic Data Centre
#                                CCDC 
#
#######################################################################
#
# If this CIF has been generated from an entry in the Cambridge 
# Structural Database, then it will include bibliographic, chemical, 
# crystal, experimental, refinement or atomic coordinate data resulting 
# from the CCDC's data processing and validation procedures.
#
#######################################################################

data_XODLIN
_chemical_formula_moiety         'C58 H36 O4'
_chemical_name_systematic        
11,23-dimethyl-4,6,16,18-tetrakis(phenylethynyl)-2,8,14,20-tetraoxapentacyclo[19.3.1.1^3,7^.1^9,13^.1^15,19^]octacosa-1(25),3(28),4,6,9(27),10,12,15(26),16,18,21,23-dodecaene
_symmetry_cell_setting           triclinic
_symmetry_space_group_name_H-M   'P -1'
_symmetry_Int_Tables_number      2
_space_group_name_Hall           '-P 1'
loop_
_symmetry_equiv_pos_site_id
_symmetry_equiv_pos_as_xyz
1 x,y,z
2 -x,-y,-z
_cell_length_a                   12.469(4)
_cell_length_b                   14.085(4)
_cell_length_c                   14.436(4)
_cell_angle_alpha                114.938(4)
_cell_angle_beta                 101.497(5)
_cell_angle_gamma                98.755(5)
_cell_volume                     2171.74
_exptl_crystal_colour            colorless
_exptl_crystal_description       feathered
_cell_formula_units_Z            2
loop_
_atom_site_label
_atom_site_type_symbol
_atom_site_fract_x
_atom_site_fract_y
_atom_site_fract_z
C1 C 0.12933(18) 0.17901(18) 0.05252(18)
C2 C 0.16801(19) 0.14421(19) -0.03838(18)
C3 C 0.2209(2) 0.06043(19) -0.05845(18)
H1 H 0.2464 0.0360 -0.1186
C4 C 0.23727(19) 0.01172(18) 0.00706(19)
C5 C 0.19592(19) 0.04765(18) 0.09606(19)
C6 C 0.14217(19) 0.13014(18) 0.11789(18)
H2 H 0.1145 0.1529 0.1768
C7 C 0.1975(2) 0.04896(18) 0.26052(19)
C8 C 0.0943(2) 0.01984(19) 0.2754(2)
H3 H 0.0346 -0.0340 0.2183
C9 C 0.0796(2) 0.0714(2) 0.3767(2)
C10 C 0.1709(2) 0.15053(19) 0.46073(19)
H4 H 0.1631 0.1855 0.5289
C11 C 0.2730(2) 0.17691(18) 0.44248(19)
C12 C 0.28851(19) 0.12731(18) 0.34324(19)
H5 H 0.3580 0.1459 0.3322
C13 C 0.37355(18) 0.36126(18) 0.53929(18)
C14 C 0.46884(18) 0.44208(18) 0.61825(17)
C15 C 0.47761(18) 0.54784(18) 0.63411(18)
H6 H 0.5410 0.6022 0.6856
C16 C 0.39671(18) 0.57664(17) 0.57714(17)
C17 C 0.30366(18) 0.49191(18) 0.49789(18)
C18 C 0.29285(18) 0.38620(18) 0.47886(18)
H7 H 0.2312 0.3314 0.4253
C19 C 0.13667(19) 0.43791(17) 0.35696(19)
C20 C 0.0366(2) 0.40192(19) 0.37306(19)
H8 H 0.0290 0.4315 0.4416
C21 C -0.0529(2) 0.3220(2) 0.2883(2)
C22 C -0.03797(19) 0.27795(18) 0.18711(19)
H9 H -0.0970 0.2250 0.1286
C23 C 0.06355(19) 0.31253(18) 0.17372(18)
C24 C 0.15261(18) 0.39392(18) 0.25740(19)
H10 H 0.2206 0.4179 0.2467
C25 C 0.1588(2) 0.1990(2) -0.10275(19)
C26 C 0.1519(2) 0.2454(2) -0.15494(19)
C27 C 0.1452(2) 0.3049(2) -0.21513(19)
C28 C 0.2427(3) 0.3714(2) -0.2107(2)
H11 H 0.3134 0.3744 -0.1718
C29 C 0.2351(3) 0.4332(3) -0.2638(3)
H12 H 0.3005 0.4785 -0.2596
C30 C 0.1338(4) 0.4280(3) -0.3211(3)
H13 H 0.1297 0.4701 -0.3563
C31 C 0.0365(4) 0.3623(3) -0.3290(3)
H14 H -0.0332 0.3590 -0.3698
C32 C 0.0423(3) 0.3005(3) -0.2756(3)
H15 H -0.0239 0.2556 -0.2807
C33 C 0.2997(2) -0.0688(2) -0.01068(19)
C34 C 0.3527(2) -0.1350(2) -0.02305(19)
C35 C 0.4159(2) -0.2142(2) -0.0356(2)
C36 C 0.4995(2) -0.2195(3) -0.0865(2)
H16 H 0.5145 -0.1733 -0.1158
C37 C 0.5614(3) -0.2963(3) -0.0929(3)
H17 H 0.6176 -0.3011 -0.1271
C38 C 0.5402(3) -0.3634(3) -0.0497(3)
H18 H 0.5834 -0.4123 -0.0525
C39 C 0.4585(3) -0.3595(3) -0.0039(4)
H19 H 0.4424 -0.4078 0.0230
C40 C 0.3973(3) -0.2855(3) 0.0046(3)
H20 H 0.3412 -0.2834 0.0387
C41 C 0.55239(19) 0.41712(18) 0.68198(18)
C42 C 0.62178(19) 0.39819(18) 0.73666(18)
C43 C 0.70650(19) 0.3744(2) 0.80070(19)
C44 C 0.7172(3) 0.2696(2) 0.7659(2)
H21 H 0.6692 0.2139 0.7011
C45 C 0.8007(3) 0.2480(3) 0.8288(4)
H22 H 0.8098 0.1781 0.8051
C46 C 0.8692(3) 0.3305(4) 0.9258(4)
H23 H 0.9245 0.3161 0.9678
C47 C 0.8570(2) 0.4326(3) 0.9607(3)
H24 H 0.9030 0.4875 1.0270
C48 C 0.7779(2) 0.4554(2) 0.8995(2)
H25 H 0.7714 0.5262 0.9239
C49 C 0.40471(18) 0.6862(2) 0.59756(18)
C50 C 0.40453(19) 0.7764(2) 0.61339(19)
C51 C 0.3992(2) 0.8825(2) 0.6274(2)
C52 C 0.4221(4) 0.9698(3) 0.7222(3)
H26 H 0.4453 0.9634 0.7842
C53 C 0.4124(4) 1.0696(3) 0.7306(4)
H27 H 0.4279 1.1279 0.7982
C54 C 0.3824(5) 1.0842(4) 0.6477(4)
H28 H 0.371(3) 1.154(3) 0.652(3)
C55 C 0.3130(7) 0.9831(6) 0.5505(6)
H29 H 0.271(5) 0.990(4) 0.499(5)
C56 C 0.3246(6) 0.8851(5) 0.5416(5)
H30 H 0.275(5) 0.820(5) 0.473(5)
C57 C -0.0357(2) 0.0451(3) 0.3928(3)
H31 H -0.0890 0.0669 0.3532
H32 H -0.0297 0.0834 0.4674
H33 H -0.0614 -0.0317 0.3680
C58 C -0.1633(2) 0.2830(3) 0.3056(3)
H34 H -0.1543 0.3129 0.3809
H35 H -0.1839 0.2052 0.2736
H36 H -0.2219 0.3062 0.2734
O1 O 0.07975(13) 0.26344(13) 0.07210(12)
O2 O 0.22366(13) 0.52184(12) 0.44311(13)
O3 O 0.36434(13) 0.25815(12) 0.52707(13)
O4 O 0.21130(14) -0.00327(12) 0.15834(13)
C59? C 0.4192(11) 1.0190(8) 0.5626(8)
H37? H 0.4408 1.0437 0.5169
C60? C 0.4223(10) 0.9148(7) 0.5491(7)
H38? H 0.393(9) 0.863(8) 0.473(8)
loop_
_geom_bond_atom_site_label_1
_geom_bond_atom_site_label_2
_geom_bond_site_symmetry_1
_geom_bond_site_symmetry_2
C1 C2 1_555 1_555
C2 C3 1_555 1_555
C3 H1 1_555 1_555
C4 C3 1_555 1_555
C5 C4 1_555 1_555
C6 C1 1_555 1_555
H2 C6 1_555 1_555
C7 C8 1_555 1_555
C8 H3 1_555 1_555
C9 C8 1_555 1_555
C10 C9 1_555 1_555
H4 C10 1_555 1_555
C11 C10 1_555 1_555
C12 C7 1_555 1_555
H5 C12 1_555 1_555
C13 C14 1_555 1_555
C14 C15 1_555 1_555
C15 H6 1_555 1_555
C16 C15 1_555 1_555
C17 C16 1_555 1_555
C18 C13 1_555 1_555
H7 C18 1_555 1_555
C19 C20 1_555 1_555
C20 H8 1_555 1_555
C21 C20 1_555 1_555
C22 C21 1_555 1_555
H9 C22 1_555 1_555
C23 C22 1_555 1_555
C24 C19 1_555 1_555
H10 C24 1_555 1_555
C25 C2 1_555 1_555
C26 C25 1_555 1_555
C27 C26 1_555 1_555
C28 C27 1_555 1_555
H11 C28 1_555 1_555
C29 C28 1_555 1_555
H12 C29 1_555 1_555
C30 C29 1_555 1_555
H13 C30 1_555 1_555
C31 C30 1_555 1_555
H14 C31 1_555 1_555
C32 C27 1_555 1_555
H15 C32 1_555 1_555
C33 C4 1_555 1_555
C34 C33 1_555 1_555
C35 C34 1_555 1_555
C36 C35 1_555 1_555
H16 C36 1_555 1_555
C37 C36 1_555 1_555
H17 C37 1_555 1_555
C38 C37 1_555 1_555
H18 C38 1_555 1_555
C39 C38 1_555 1_555
H19 C39 1_555 1_555
C40 C35 1_555 1_555
H20 C40 1_555 1_555
C41 C14 1_555 1_555
C42 C41 1_555 1_555
C43 C42 1_555 1_555
C44 C43 1_555 1_555
H21 C44 1_555 1_555
C45 C44 1_555 1_555
H22 C45 1_555 1_555
C46 C45 1_555 1_555
H23 C46 1_555 1_555
C47 C46 1_555 1_555
H24 C47 1_555 1_555
C48 C43 1_555 1_555
H25 C48 1_555 1_555
C49 C16 1_555 1_555
C50 C49 1_555 1_555
C51 C50 1_555 1_555
C52 C51 1_555 1_555
H26 C52 1_555 1_555
C53 C52 1_555 1_555
H27 C53 1_555 1_555
C54 C53 1_555 1_555
H28 C54 1_555 1_555
C55 C54 1_555 1_555
H29 C55 1_555 1_555
C56 C51 1_555 1_555
H30 C56 1_555 1_555
C57 C9 1_555 1_555
H31 C57 1_555 1_555
H32 C57 1_555 1_555
H33 C57 1_555 1_555
C58 C21 1_555 1_555
H34 C58 1_555 1_555
H35 C58 1_555 1_555
H36 C58 1_555 1_555
O1 C1 1_555 1_555
O2 C17 1_555 1_555
O3 C11 1_555 1_555
O4 C5 1_555 1_555
C5 C6 1_555 1_555
C7 O4 1_555 1_555
C11 C12 1_555 1_555
C13 O3 1_555 1_555
C17 C18 1_555 1_555
C19 O2 1_555 1_555
C23 C24 1_555 1_555
C23 O1 1_555 1_555
C31 C32 1_555 1_555
C39 C40 1_555 1_555
C47 C48 1_555 1_555
C55 C56 1_555 1_555

#END
