
#######################################################################
#
#                 Cambridge Crystallographic Data Centre
#                                CCDC 
#
#######################################################################
#
# If this CIF has been generated from an entry in the Cambridge 
# Structural Database, then it will include bibliographic, chemical, 
# crystal, experimental, refinement or atomic coordinate data resulting 
# from the CCDC's data processing and validation procedures.
#
#######################################################################

data_XODMAE
_chemical_name_common            
trans-N-(N'-Oxypicolinylidene)-4-aminoantipyridine
_chemical_formula_moiety         'C17 H16 N4 O2'
_chemical_name_systematic        
1,5-dimethyl-4-(((1-oxypyridin-2-yl)methylene)amino)-2-phenyl-1,2-dihydro-3H-pyrazole-3-one
_symmetry_cell_setting           orthorhombic
_symmetry_space_group_name_H-M   'P b c n'
_symmetry_Int_Tables_number      60
_space_group_name_Hall           '-P 2n 2ab'
loop_
_symmetry_equiv_pos_site_id
_symmetry_equiv_pos_as_xyz
1 x,y,z
2 1/2-x,1/2-y,1/2+z
3 -x,y,1/2-z
4 1/2+x,1/2-y,-z
5 -x,-y,-z
6 1/2+x,1/2+y,1/2-z
7 x,-y,1/2+z
8 1/2-x,1/2+y,z
_cell_length_a                   13.391(2)
_cell_length_b                   10.259(2)
_cell_length_c                   22.242(4)
_cell_angle_alpha                90
_cell_angle_beta                 90
_cell_angle_gamma                90
_cell_volume                     3055.57
_exptl_crystal_colour            yellow
_exptl_crystal_description       rod
_chemical_melting_point          '232 deg.C'
_cell_formula_units_Z            8
_exptl_crystal_recrystallization_method ethanol
loop_
_atom_site_label
_atom_site_type_symbol
_atom_site_fract_x
_atom_site_fract_y
_atom_site_fract_z
O1 O -0.01807(10) 0.15294(13) 0.55090(7)
O2 O -0.16473(10) 0.46562(13) 0.64477(6)
N1 N 0.06098(11) 0.20497(14) 0.52576(7)
N2 N 0.03795(11) 0.53071(14) 0.58222(6)
N3 N -0.07361(12) 0.77421(14) 0.67375(7)
N4 N -0.14779(11) 0.67766(15) 0.67826(7)
C1 C 0.11957(15) 0.13035(19) 0.48995(8)
H1 H 0.1012 0.0445 0.4823
C2 C 0.20496(15) 0.1782(2) 0.46480(9)
H2 H 0.2440 0.1254 0.4403
C3 C 0.23323(15) 0.3056(2) 0.47590(9)
H3 H 0.2919 0.3391 0.4598
C4 C 0.17276(14) 0.3812(2) 0.51121(8)
H4 H 0.1909 0.4672 0.5188
C5 C 0.08520(13) 0.33316(17) 0.53597(8)
C6 C 0.01715(14) 0.41050(18) 0.57186(8)
H5 H -0.0409 0.3736 0.5872
C7 C -0.02510(13) 0.60553(17) 0.61760(8)
C8 C -0.00428(14) 0.73194(18) 0.63408(8)
C9 C 0.07848(14) 0.8162(2) 0.61328(10)
H6 H 0.0516 0.8927 0.5944
H7 H 0.1188 0.7693 0.5849
H8 H 0.1188 0.8414 0.6470
C10 C -0.09868(15) 0.90787(18) 0.68841(10)
H9 H -0.0413 0.9623 0.6823
H10 H -0.1192 0.9130 0.7297
H11 H -0.1521 0.9369 0.6630
C11 C -0.11652(15) 0.56890(18) 0.64597(8)
C12 C -0.20999(15) 0.66868(19) 0.73060(8)
C13 C -0.29901(18) 0.7314(2) 0.73260(11)
H12 H -0.3196 0.7832 0.7006
C14 C -0.3592(2) 0.7173(3) 0.78315(14)
H13 H -0.4197 0.7616 0.7852
C15 C -0.3309(2) 0.6399(3) 0.82935(11)
H14 H -0.3715 0.6313 0.8630
C16 C -0.2421(2) 0.5742(3) 0.82617(10)
H15 H -0.2232 0.5190 0.8573
C17 C -0.18126(17) 0.5895(2) 0.77737(10)
H16 H -0.1203 0.5463 0.7758
loop_
_geom_bond_atom_site_label_1
_geom_bond_atom_site_label_2
_geom_bond_site_symmetry_1
_geom_bond_site_symmetry_2
O1 N1 1_555 1_555
O2 C11 1_555 1_555
N1 C1 1_555 1_555
N2 C6 1_555 1_555
N3 N4 1_555 1_555
N4 C11 1_555 1_555
C1 H1 1_555 1_555
C2 C1 1_555 1_555
H2 C2 1_555 1_555
C3 C2 1_555 1_555
H3 C3 1_555 1_555
C4 C3 1_555 1_555
H4 C4 1_555 1_555
C5 N1 1_555 1_555
C6 C5 1_555 1_555
H5 C6 1_555 1_555
C7 N2 1_555 1_555
C8 N3 1_555 1_555
C9 C8 1_555 1_555
H6 C9 1_555 1_555
H7 C9 1_555 1_555
H8 C9 1_555 1_555
C10 N3 1_555 1_555
H9 C10 1_555 1_555
H10 C10 1_555 1_555
H11 C10 1_555 1_555
C11 C7 1_555 1_555
C12 N4 1_555 1_555
C13 C12 1_555 1_555
H12 C13 1_555 1_555
C14 C13 1_555 1_555
H13 C14 1_555 1_555
C15 C14 1_555 1_555
H14 C15 1_555 1_555
C16 C15 1_555 1_555
H15 C16 1_555 1_555
C17 C12 1_555 1_555
H16 C17 1_555 1_555
C4 C5 1_555 1_555
C7 C8 1_555 1_555
C16 C17 1_555 1_555

#END
