
#######################################################################
#
#                 Cambridge Crystallographic Data Centre
#                                CCDC 
#
#######################################################################
#
# If this CIF has been generated from an entry in the Cambridge 
# Structural Database, then it will include bibliographic, chemical, 
# crystal, experimental, refinement or atomic coordinate data resulting 
# from the CCDC's data processing and validation procedures.
#
#######################################################################

data_XODNEL
_chemical_formula_moiety         'C18 H24 B2 F4 N4'
_chemical_name_systematic        
5,5,12,12-Tetrafluoro-1,3,8,10-tetramethyl-2,9-diethyl-5H,12H-pyrrolo[1,2-d]pyrrolo[1',2':4,5][1,2,4,3]triazaborinino[2,1-a][1,2,4,3]triazaborinine-4,11-diium-5,12-diide
_symmetry_cell_setting           monoclinic
_symmetry_space_group_name_H-M   'P 21/n'
_symmetry_Int_Tables_number      14
_space_group_name_Hall           '-P 2yn'
loop_
_symmetry_equiv_pos_site_id
_symmetry_equiv_pos_as_xyz
1 x,y,z
2 1/2-x,1/2+y,1/2-z
3 -x,-y,-z
4 1/2+x,1/2-y,1/2+z
_cell_length_a                   9.6760(18)
_cell_length_b                   13.659(3)
_cell_length_c                   15.313(3)
_cell_angle_alpha                90
_cell_angle_beta                 103.660(2)
_cell_angle_gamma                90
_cell_volume                     1966.59
_exptl_crystal_colour            colorless
_exptl_crystal_description       block
_cell_formula_units_Z            4
loop_
_atom_site_label
_atom_site_type_symbol
_atom_site_fract_x
_atom_site_fract_y
_atom_site_fract_z
B1 B 0.9400(4) 0.1974(3) -0.0389(2)
B2 B 0.7225(4) 0.0692(3) 0.1329(2)
C1 C 0.9350(3) 0.1051(2) -0.1870(2)
C2 C 0.8704(4) 0.0196(3) -0.2286(2)
C3 C 0.8060(3) -0.0272(2) -0.1683(2)
C4 C 0.8325(3) 0.0310(2) -0.09030(19)
C5 C 0.7823(3) 0.0213(2) -0.01323(19)
H1 H 0.7282 -0.0340 -0.0087
C6 C 0.7930(3) 0.1284(3) 0.2998(2)
C7 C 0.8778(3) 0.2039(3) 0.3463(2)
C8 C 0.9398(3) 0.2526(3) 0.2856(2)
C9 C 0.8914(3) 0.2044(2) 0.2024(2)
C10 C 0.9266(3) 0.2205(2) 0.1215(2)
H2 H 0.9828 0.2749 0.1178
C11 C 1.0184(4) 0.1799(3) -0.2230(2)
H3 H 1.0225 0.2392 -0.1888
H4 H 0.9736 0.1929 -0.2848
H5 H 1.1132 0.1560 -0.2186
C12 C 0.8641(4) -0.0106(3) -0.3239(2)
H6 H 0.8629 -0.0815 -0.3276
H7 H 0.9491 0.0124 -0.3407
C13 C 0.7350(5) 0.0296(4) -0.3891(3)
H8 H 0.6505 0.0071 -0.3728
H9 H 0.7344 0.0076 -0.4487
H10 H 0.7376 0.0999 -0.3874
C14 C 0.7214(4) -0.1199(3) -0.1829(2)
H11 H 0.6224 -0.1050 -0.1902
H12 H 0.7524 -0.1622 -0.1319
H13 H 0.7352 -0.1521 -0.2359
C15 C 0.7028(4) 0.0569(3) 0.3340(2)
H14 H 0.6176 0.0447 0.2884
H15 H 0.6782 0.0829 0.3865
H16 H 0.7542 -0.0033 0.3490
C16 C 0.9014(4) 0.2251(3) 0.4452(2)
H17 H 0.8161 0.2081 0.4647
H18 H 0.9177 0.2947 0.4551
C17 C 1.0260(5) 0.1695(4) 0.5018(2)
H19 H 1.0078 0.1005 0.4956
H20 H 1.0387 0.1879 0.5637
H21 H 1.1106 0.1849 0.4821
C18 C 1.0407(4) 0.3365(3) 0.3041(3)
H22 H 1.0063 0.3844 0.3398
H23 H 1.0483 0.3655 0.2484
H24 H 1.1325 0.3137 0.3362
F1 F 1.0820(2) 0.2198(2) -0.01108(14)
F2 F 0.8649(3) 0.27948(15) -0.07418(14)
F3 F 0.5853(2) 0.10193(19) 0.10177(13)
F4 F 0.7222(3) -0.02942(15) 0.14981(14)
N1 N 0.9115(3) 0.11227(19) -0.10342(16)
N2 N 0.8881(3) 0.16606(18) 0.04879(16)
N3 N 0.8048(3) 0.08386(19) 0.05442(16)
N4 N 0.8031(3) 0.1278(2) 0.21283(16)
loop_
_geom_bond_atom_site_label_1
_geom_bond_atom_site_label_2
_geom_bond_site_symmetry_1
_geom_bond_site_symmetry_2
B1 F1 1_555 1_555
B2 F3 1_555 1_555
C1 C2 1_555 1_555
C2 C3 1_555 1_555
C3 C4 1_555 1_555
C4 C5 1_555 1_555
C5 H1 1_555 1_555
C6 C7 1_555 1_555
C7 C8 1_555 1_555
C8 C9 1_555 1_555
C9 C10 1_555 1_555
C10 H2 1_555 1_555
C11 C1 1_555 1_555
H3 C11 1_555 1_555
H4 C11 1_555 1_555
H5 C11 1_555 1_555
C12 C2 1_555 1_555
H6 C12 1_555 1_555
H7 C12 1_555 1_555
C13 C12 1_555 1_555
H8 C13 1_555 1_555
H9 C13 1_555 1_555
H10 C13 1_555 1_555
C14 C3 1_555 1_555
H11 C14 1_555 1_555
H12 C14 1_555 1_555
H13 C14 1_555 1_555
C15 C6 1_555 1_555
H14 C15 1_555 1_555
H15 C15 1_555 1_555
H16 C15 1_555 1_555
C16 C7 1_555 1_555
H17 C16 1_555 1_555
H18 C16 1_555 1_555
C17 C16 1_555 1_555
H19 C17 1_555 1_555
H20 C17 1_555 1_555
H21 C17 1_555 1_555
C18 C8 1_555 1_555
H22 C18 1_555 1_555
H23 C18 1_555 1_555
H24 C18 1_555 1_555
F2 B1 1_555 1_555
F4 B2 1_555 1_555
N1 B1 1_555 1_555
N2 B1 1_555 1_555
N3 B2 1_555 1_555
N4 B2 1_555 1_555
C1 N1 1_555 1_555
C4 N1 1_555 1_555
C5 N3 1_555 1_555
C6 N4 1_555 1_555
C9 N4 1_555 1_555
C10 N2 1_555 1_555
N2 N3 1_555 1_555

#END
