
#######################################################################
#
#                 Cambridge Crystallographic Data Centre
#                                CCDC 
#
#######################################################################
#
# If this CIF has been generated from an entry in the Cambridge 
# Structural Database, then it will include bibliographic, chemical, 
# crystal, experimental, refinement or atomic coordinate data resulting 
# from the CCDC's data processing and validation procedures.
#
#######################################################################

data_XOFDON
_chemical_formula_moiety         'C23 H32 N2 O1 S1'
_chemical_name_systematic        
1-t-butyl-3-(2,6-di-isopropyl-4-phenoxyphenyl)thiourea
_symmetry_cell_setting           monoclinic
_symmetry_space_group_name_H-M   'P 21/c'
_symmetry_Int_Tables_number      14
_space_group_name_Hall           '-P 2ybc'
loop_
_symmetry_equiv_pos_site_id
_symmetry_equiv_pos_as_xyz
1 x,y,z
2 -x,1/2+y,1/2-z
3 -x,-y,-z
4 x,1/2-y,1/2+z
_cell_length_a                   12.8656(2)
_cell_length_b                   17.9807(3)
_cell_length_c                   10.1671(2)
_cell_angle_alpha                90
_cell_angle_beta                 102.6550(10)
_cell_angle_gamma                90
_cell_volume                     2294.84
_exptl_crystal_colour            colorless
_exptl_crystal_description       block
_cell_formula_units_Z            4
loop_
_atom_site_label
_atom_site_type_symbol
_atom_site_fract_x
_atom_site_fract_y
_atom_site_fract_z
S1 S 0.56002(13) 1.08803(6) 0.37193(18)
O1 O 0.85776(9) 0.69041(6) 0.51145(12)
N1 N 0.69688(10) 1.00011(7) 0.27909(12)
H1 H 0.7318 0.9577 0.2897
N2 N 0.61785(9) 0.95071(6) 0.43823(12)
H2 H 0.5680 0.9532 0.4851
C1 C 0.72543(12) 1.05027(8) 0.17740(15)
C2 C 0.80932(13) 1.00766(9) 0.12308(17)
H3 H 0.8690 0.9951 0.1976
H4 H 0.8350 1.0386 0.0575
H5 H 0.7779 0.9619 0.0792
C3 C 0.62948(15) 1.06426(14) 0.0633(2)
H6 H 0.6029 1.0168 0.0218
H7 H 0.6503 1.0963 -0.0045
H8 H 0.5734 1.0887 0.0989
C4 C 0.77343(18) 1.12213(10) 0.2428(2)
H9 H 0.7195 1.1494 0.2781
H10 H 0.7977 1.1527 0.1757
H11 H 0.8340 1.1105 0.3168
C5 C 0.62684(12) 1.00853(8) 0.35760(15)
C6 C 0.68322(10) 0.88509(7) 0.45404(13)
C7 C 0.65135(10) 0.82379(7) 0.37036(13)
C8 C 0.71330(11) 0.75966(8) 0.39362(14)
H12 H 0.6936 0.7172 0.3382
C9 C 0.80322(11) 0.75739(7) 0.49667(15)
C10 C 0.83576(11) 0.81891(7) 0.57626(15)
H13 H 0.8988 0.8168 0.6452
C11 C 0.77584(11) 0.88429(7) 0.55526(14)
C12 C 0.55233(12) 0.82694(9) 0.25731(15)
H14 H 0.5328 0.8805 0.2404
C13 C 0.45888(14) 0.78824(13) 0.2968(2)
H15 H 0.4768 0.7359 0.3174
H16 H 0.3963 0.7912 0.2221
H17 H 0.4432 0.8125 0.3765
C14 C 0.57182(19) 0.79454(14) 0.12726(19)
H18 H 0.6319 0.8203 0.1025
H19 H 0.5079 0.8009 0.0554
H20 H 0.5882 0.7414 0.1398
C15 C 0.81007(14) 0.95275(8) 0.64085(18)
H21 H 0.7900 0.9976 0.5826
C16 C 0.7452(3) 0.95541(14) 0.7595(2)
H22 H 0.7684 0.9144 0.8225
H23 H 0.6688 0.9506 0.7205
H24 H 0.7590 1.0029 0.8076
C17 C 0.9244(2) 0.95782(14) 0.7033(4)
H25 H 0.9389 1.0051 0.7519
H26 H 0.9658 0.9553 0.6332
H27 H 0.9447 0.9165 0.7665
C18 C 0.95008(11) 0.68370(7) 0.61207(16)
C19 C 0.94465(13) 0.67609(9) 0.74495(17)
H28 H 0.8778 0.6774 0.7702
C20 C 1.03768(15) 0.66652(10) 0.84113(18)
H29 H 1.0349 0.6615 0.9333
C21 C 1.13450(14) 0.66421(9) 0.8046(2)
H30 H 1.1983 0.6581 0.8713
C22 C 1.13828(13) 0.67082(10) 0.6715(2)
H31 H 1.2050 0.6687 0.6460
C23 C 1.04608(13) 0.68058(9) 0.57400(18)
H32 H 1.0490 0.6851 0.4818
S2? S 0.5179(4) 1.0709(2) 0.3222(4)
H33? H 0.7556 0.9932 0.6208
C24? C 0.8471(10) 0.9434(5) 0.7755(9)
H34? H 0.9083 0.9096 0.7912
H35? H 0.7906 0.9222 0.8149
H36? H 0.8690 0.9916 0.8174
C25? C 0.9296(6) 0.9760(4) 0.5818(9)
H37? H 0.9606 1.0219 0.6254
H38? H 0.9114 0.9830 0.4839
H39? H 0.9814 0.9354 0.6043
loop_
_geom_bond_atom_site_label_1
_geom_bond_atom_site_label_2
_geom_bond_site_symmetry_1
_geom_bond_site_symmetry_2
S1 C5 1_555 1_555
O1 C9 1_555 1_555
N1 H1 1_555 1_555
N2 H2 1_555 1_555
C1 N1 1_555 1_555
C2 C1 1_555 1_555
H3 C2 1_555 1_555
H4 C2 1_555 1_555
H5 C2 1_555 1_555
C3 C1 1_555 1_555
H6 C3 1_555 1_555
H7 C3 1_555 1_555
H8 C3 1_555 1_555
C4 C1 1_555 1_555
H9 C4 1_555 1_555
H10 C4 1_555 1_555
H11 C4 1_555 1_555
C5 N1 1_555 1_555
C6 N2 1_555 1_555
C7 C6 1_555 1_555
C8 C7 1_555 1_555
H12 C8 1_555 1_555
C9 C8 1_555 1_555
C10 C9 1_555 1_555
H13 C10 1_555 1_555
C11 C6 1_555 1_555
C12 C7 1_555 1_555
H14 C12 1_555 1_555
C13 C12 1_555 1_555
H15 C13 1_555 1_555
H16 C13 1_555 1_555
H17 C13 1_555 1_555
C14 C12 1_555 1_555
H18 C14 1_555 1_555
H19 C14 1_555 1_555
H20 C14 1_555 1_555
C15 C11 1_555 1_555
H21 C15 1_555 1_555
C16 C15 1_555 1_555
H22 C16 1_555 1_555
H23 C16 1_555 1_555
H24 C16 1_555 1_555
C17 C15 1_555 1_555
H25 C17 1_555 1_555
H26 C17 1_555 1_555
H27 C17 1_555 1_555
C18 O1 1_555 1_555
C19 C18 1_555 1_555
H28 C19 1_555 1_555
C20 C19 1_555 1_555
H29 C20 1_555 1_555
C21 C20 1_555 1_555
H30 C21 1_555 1_555
C22 C21 1_555 1_555
H31 C22 1_555 1_555
C23 C18 1_555 1_555
H32 C23 1_555 1_555
N2 C5 1_555 1_555
C10 C11 1_555 1_555
C22 C23 1_555 1_555

#END
