
#######################################################################
#
#                 Cambridge Crystallographic Data Centre
#                                CCDC 
#
#######################################################################
#
# If this CIF has been generated from an entry in the Cambridge 
# Structural Database, then it will include bibliographic, chemical, 
# crystal, experimental, refinement or atomic coordinate data resulting 
# from the CCDC's data processing and validation procedures.
#
#######################################################################

data_XOFGAA
_chemical_formula_moiety         'C38 H56 Li1 N3 O1'
_chemical_name_systematic        
'(diethyl ether)-(2,6-bis(1-(2,6-diisopropylphenylimino)ethyl)-1-methylpyridine)-lithium'
_symmetry_cell_setting           monoclinic
_symmetry_space_group_name_H-M   'P 21/c'
_symmetry_Int_Tables_number      14
_space_group_name_Hall           '-P 2ybc'
loop_
_symmetry_equiv_pos_site_id
_symmetry_equiv_pos_as_xyz
1 x,y,z
2 x,1/2-y,1/2+z
3 -x,-y,-z
4 -x,1/2+y,1/2-z
_cell_length_a                   12.9736(10)
_cell_length_b                   13.9491(10)
_cell_length_c                   19.6901(14)
_cell_angle_alpha                90
_cell_angle_beta                 96.189(4)
_cell_angle_gamma                90
_cell_volume                     3542.55
_exptl_crystal_colour            black
_exptl_crystal_description       prism
_cell_formula_units_Z            4
loop_
_atom_site_label
_atom_site_type_symbol
_atom_site_fract_x
_atom_site_fract_y
_atom_site_fract_z
O1 O 0.27587(16) 0.65427(14) 0.16075(11)
N1 N 0.21332(16) 0.90863(15) 0.09559(11)
N2 N 0.38309(17) 0.86658(17) 0.18512(12)
N3 N 0.07194(17) 0.79816(16) 0.15229(11)
C1 C 0.1650(2) 1.0984(2) 0.06307(14)
H1 H 0.1529 1.1554 0.0371
C2 C 0.2630(2) 1.0759(2) 0.09522(15)
H2 H 0.3154 1.1237 0.1
C3 C 0.2845(2) 0.98494(19) 0.12006(14)
C4 C 0.1075(2) 0.94270(19) 0.09635(13)
C5 C 0.0852(2) 1.0335(2) 0.07073(14)
H3 H 0.0152 1.0518 0.0583
C6 C 0.2319(2) 0.8782(2) 0.02567(15)
H4 H 0.1839 0.8263 0.0105
H5 H 0.3034 0.8555 0.0261
H6 H 0.2206 0.9327 -0.0057
C7 C 0.0366(2) 0.87948(19) 0.12433(13)
C8 C -0.0757(2) 0.9092(2) 0.12127(15)
H7 H -0.1141 0.8616 0.1451
H8 H -0.1054 0.9136 0.0735
H9 H -0.0804 0.9718 0.1433
C9 C -0.0013(2) 0.7324(2) 0.17592(14)
C10 C -0.0606(2) 0.6725(2) 0.12846(15)
C11 C -0.1286(2) 0.6074(2) 0.15362(17)
H10 H -0.1703 0.5678 0.1225
C12 C -0.1368(3) 0.5991(2) 0.22287(17)
H11 H -0.1832 0.5537 0.2389
C13 C -0.0778(2) 0.6567(2) 0.26849(17)
H12 H -0.0838 0.6504 0.3159
C14 C -0.0092(2) 0.7242(2) 0.24661(15)
C15 C -0.0469(2) 0.6764(2) 0.05301(15)
H13 H -0.036 0.745 0.041
C16 C -0.1401(3) 0.6394(2) 0.00576(17)
H14 H -0.153 0.5721 0.0165
H15 H -0.1253 0.6446 -0.0419
H16 H -0.2014 0.6778 0.0124
C17 C 0.0506(2) 0.6213(2) 0.03996(16)
H17 H 0.1109 0.65 0.0666
H18 H 0.0597 0.6243 -0.0088
H19 H 0.0437 0.5542 0.0536
C18 C 0.0513(2) 0.7903(2) 0.29733(15)
H20 H 0.1145 0.812 0.2767
C19 C -0.0124(3) 0.8787(3) 0.31017(18)
H21 H -0.0303 0.9129 0.2671
H22 H 0.0281 0.9209 0.3427
H23 H -0.076 0.8592 0.3291
C20 C 0.0871(3) 0.7416(3) 0.36583(17)
H24 H 0.0264 0.7194 0.387
H25 H 0.1261 0.7876 0.3962
H26 H 0.1314 0.6867 0.3579
C21 C 0.3728(2) 0.9568(2) 0.16552(15)
C22 C 0.4484(2) 1.0356(2) 0.19023(18)
H27 H 0.4149 1.0797 0.2198
H28 H 0.4693 1.0708 0.1509
H29 H 0.5097 1.0072 0.216
C23 C 0.4786(2) 0.8394(2) 0.22275(15)
C24 C 0.5655(2) 0.8197(2) 0.18774(16)
C25 C 0.6588(2) 0.7959(2) 0.22598(18)
H30 H 0.718 0.7833 0.203
C26 C 0.6673(2) 0.7902(2) 0.29603(18)
H31 H 0.7322 0.7762 0.3211
C27 C 0.5807(2) 0.8050(2) 0.32947(17)
H32 H 0.5863 0.7993 0.3778
C28 C 0.4849(2) 0.8282(2) 0.29398(16)
C29 C 0.5597(3) 0.8237(3) 0.11039(17)
H33 H 0.4849 0.826 0.092
C30 C 0.6079(3) 0.7342(3) 0.0808(2)
H34 H 0.6812 0.7296 0.0987
H35 H 0.6021 0.7391 0.0308
H36 H 0.5711 0.6769 0.0938
C31 C 0.6125(4) 0.9137(3) 0.0848(2)
H37 H 0.5789 0.9711 0.1007
H38 H 0.6063 0.9133 0.0348
H39 H 0.686 0.9138 0.1028
C32 C 0.3903(2) 0.8419(2) 0.33263(16)
H40 H 0.3275 0.8317 0.2993
C33 C 0.3844(4) 0.9433(3) 0.3604(2)
H41 H 0.4465 0.9566 0.3919
H42 H 0.3227 0.9495 0.3847
H43 H 0.3802 0.9891 0.3225
C34 C 0.3854(3) 0.7696(3) 0.39049(18)
H44 H 0.3832 0.7045 0.3718
H45 H 0.323 0.7813 0.4132
H46 H 0.4469 0.7768 0.4236
C35 C 0.3476(4) 0.5921(5) 0.0624(2)
H47 H 0.292 0.5446 0.0546
H48 H 0.4116 0.5658 0.0477
H49 H 0.328 0.6502 0.036
C36 C 0.3640(3) 0.6157(3) 0.1346(2)
H50 H 0.3856 0.557 0.1606
H51 H 0.4215 0.6626 0.142
C37 C 0.2403(5) 0.5539(4) 0.2566(3)
Li1 Li 0.2386(4) 0.7922(3) 0.1568(2)
C38 C 0.2133(5) 0.5751(4) 0.1901(4)
C39? C 0.2765(7) 0.6363(6) 0.2364(4)
loop_
_geom_bond_atom_site_label_1
_geom_bond_atom_site_label_2
_geom_bond_site_symmetry_1
_geom_bond_site_symmetry_2
O1 C36 1_555 1_555
N1 C3 1_555 1_555
N2 C21 1_555 1_555
N3 C7 1_555 1_555
C1 H1 1_555 1_555
C2 C1 1_555 1_555
H2 C2 1_555 1_555
C3 C2 1_555 1_555
C4 N1 1_555 1_555
C5 C1 1_555 1_555
H3 C5 1_555 1_555
C6 N1 1_555 1_555
H4 C6 1_555 1_555
H5 C6 1_555 1_555
H6 C6 1_555 1_555
C7 C4 1_555 1_555
C8 C7 1_555 1_555
H7 C8 1_555 1_555
H8 C8 1_555 1_555
H9 C8 1_555 1_555
C9 N3 1_555 1_555
C10 C9 1_555 1_555
C11 C10 1_555 1_555
H10 C11 1_555 1_555
C12 C11 1_555 1_555
H11 C12 1_555 1_555
C13 C12 1_555 1_555
H12 C13 1_555 1_555
C14 C9 1_555 1_555
C15 C10 1_555 1_555
H13 C15 1_555 1_555
C16 C15 1_555 1_555
H14 C16 1_555 1_555
H15 C16 1_555 1_555
H16 C16 1_555 1_555
C17 C15 1_555 1_555
H17 C17 1_555 1_555
H18 C17 1_555 1_555
H19 C17 1_555 1_555
C18 C14 1_555 1_555
H20 C18 1_555 1_555
C19 C18 1_555 1_555
H21 C19 1_555 1_555
H22 C19 1_555 1_555
H23 C19 1_555 1_555
C20 C18 1_555 1_555
H24 C20 1_555 1_555
H25 C20 1_555 1_555
H26 C20 1_555 1_555
C21 C3 1_555 1_555
C22 C21 1_555 1_555
H27 C22 1_555 1_555
H28 C22 1_555 1_555
H29 C22 1_555 1_555
C23 N2 1_555 1_555
C24 C23 1_555 1_555
C25 C24 1_555 1_555
H30 C25 1_555 1_555
C26 C25 1_555 1_555
H31 C26 1_555 1_555
C27 C26 1_555 1_555
H32 C27 1_555 1_555
C28 C23 1_555 1_555
C29 C24 1_555 1_555
H33 C29 1_555 1_555
C30 C29 1_555 1_555
H34 C30 1_555 1_555
H35 C30 1_555 1_555
H36 C30 1_555 1_555
C31 C29 1_555 1_555
H37 C31 1_555 1_555
H38 C31 1_555 1_555
H39 C31 1_555 1_555
C32 C28 1_555 1_555
H40 C32 1_555 1_555
C33 C32 1_555 1_555
H41 C33 1_555 1_555
H42 C33 1_555 1_555
H43 C33 1_555 1_555
C34 C32 1_555 1_555
H44 C34 1_555 1_555
H45 C34 1_555 1_555
H46 C34 1_555 1_555
C35 H47 1_555 1_555
H48 C35 1_555 1_555
H49 C35 1_555 1_555
C36 C35 1_555 1_555
H50 C36 1_555 1_555
H51 C36 1_555 1_555
C37 C38 1_555 1_555
Li1 O1 1_555 1_555
C38 O1 1_555 1_555
N1 Li1 1_555 1_555
N2 Li1 1_555 1_555
N3 Li1 1_555 1_555
C4 C5 1_555 1_555
C13 C14 1_555 1_555
C27 C28 1_555 1_555

#END
