
#######################################################################
#
#                 Cambridge Crystallographic Data Centre
#                                CCDC 
#
#######################################################################
#
# If this CIF has been generated from an entry in the Cambridge 
# Structural Database, then it will include bibliographic, chemical, 
# crystal, experimental, refinement or atomic coordinate data resulting 
# from the CCDC's data processing and validation procedures.
#
#######################################################################

data_XOFGUW
_chemical_formula_moiety         
'C56 H56 N4 O4,C44 H36 N2 O2,2(H2 O1),C1 H1 Cl3'
_chemical_name_systematic        
'[2]-(3,13,24,34-tetraazatridecacyclo[34.6.6.6^15,22^.1^5,9^.1^5,11^.1^7,11^.1^26,30^.1^26,32^.1^28,32^.0^16,21^.0^37,42^.0^43,48^.0^52,57^]hexaconta-1(42),15,17,19,21,36,38,40,43,45,47,52,54,56-tetradecaene-4,12,25,33-tetrone)-(2,4-bis(4-dibenzylaminophenyl)squaraine)-rotaxane chloroform solvate dihydrate'
_symmetry_cell_setting           triclinic
_symmetry_space_group_name_H-M   'P -1'
_symmetry_Int_Tables_number      2
_space_group_name_Hall           '-P 1'
loop_
_symmetry_equiv_pos_site_id
_symmetry_equiv_pos_as_xyz
1 x,y,z
2 -x,-y,-z
_cell_length_a                   11.1735(15)
_cell_length_b                   11.7304(13)
_cell_length_c                   17.822(3)
_cell_angle_alpha                100.460(8)
_cell_angle_beta                 99.693(9)
_cell_angle_gamma                107.086(6)
_cell_volume                     2133.77
_exptl_crystal_colour            turquoise
_exptl_crystal_description       blade
_cell_formula_units_Z            1
loop_
_atom_site_label
_atom_site_type_symbol
_atom_site_fract_x
_atom_site_fract_y
_atom_site_fract_z
O1 O -0.0348(5) -0.1187(5) 0.0863(3)
N1 N 0.4282(6) 0.4614(6) 0.2804(5)
C1 C -0.0164(7) -0.0548(7) 0.0385(5)
C2 C 0.0677(7) 0.0706(7) 0.0433(5)
C3 C 0.1603(7) 0.1680(7) 0.1027(5)
C4 C 0.1954(7) 0.1571(7) 0.1793(5)
H1 H 0.1574 0.0809 0.1913
C5 C 0.2814(7) 0.2507(8) 0.2371(5)
H2 H 0.3015 0.2390 0.2885
C6 C 0.3423(7) 0.3667(8) 0.2223(6)
C7 C 0.3110(7) 0.3791(8) 0.1451(6)
H3 H 0.3513 0.4546 0.1329
C8 C 0.2216(7) 0.2821(7) 0.0864(5)
H4 H 0.2012 0.2924 0.0346
C9 C 0.4624(8) 0.4484(9) 0.3594(6)
H5 H 0.5381 0.5202 0.3899
H6 H 0.4872 0.3738 0.3577
C10 C 0.3526(9) 0.4390(8) 0.4006(6)
C11 C 0.2690(12) 0.5051(10) 0.3875(8)
H7 H 0.2797 0.5587 0.3533
C12 C 0.1706(15) 0.4900(14) 0.4261(10)
H8 H 0.1140 0.5358 0.4185
C13 C 0.1508(13) 0.4126(13) 0.4744(8)
H9 H 0.0827 0.4063 0.5006
C14 C 0.2272(10) 0.3453(10) 0.4850(6)
H10 H 0.2122 0.2892 0.5175
C15 C 0.3290(10) 0.3582(9) 0.4481(6)
H11 H 0.3834 0.3104 0.4557
C16 C 0.4923(8) 0.5793(8) 0.2628(6)
H12 H 0.5412 0.6407 0.3127
H13 H 0.4258 0.6093 0.2373
C17 C 0.5843(7) 0.5692(7) 0.2092(6)
C18 C 0.6517(8) 0.4885(8) 0.2114(6)
H14 H 0.6413 0.4365 0.2467
C19 C 0.7352(8) 0.4824(8) 0.1621(7)
H15 H 0.7804 0.4254 0.1634
C20 C 0.7526(9) 0.5585(9) 0.1116(7)
H16 H 0.8069 0.5532 0.0763
C21 C 0.6890(9) 0.6422(9) 0.1138(7)
H17 H 0.7056 0.7002 0.0827
C22 C 0.6024(9) 0.6452(9) 0.1593(7)
H18 H 0.5548 0.7000 0.1562
O1A O 0.0348(5) 0.1187(5) -0.0863(3)
N1A N -0.4282(6) -0.4614(6) -0.2804(5)
C1A C 0.0164(7) 0.0548(7) -0.0385(5)
C2A C -0.0677(7) -0.0706(7) -0.0433(5)
C3A C -0.1603(7) -0.1680(7) -0.1027(5)
C4A C -0.1954(7) -0.1571(7) -0.1793(5)
H1A H -0.1574 -0.0809 -0.1913
C5A C -0.2814(7) -0.2507(8) -0.2371(5)
H2A H -0.3015 -0.2390 -0.2885
C6A C -0.3423(7) -0.3667(8) -0.2223(6)
C7A C -0.3110(7) -0.3791(8) -0.1451(6)
H3A H -0.3513 -0.4546 -0.1329
C8A C -0.2216(7) -0.2821(7) -0.0864(5)
H4A H -0.2012 -0.2924 -0.0346
C9A C -0.4624(8) -0.4484(9) -0.3594(6)
H5A H -0.5381 -0.5202 -0.3899
H6A H -0.4872 -0.3738 -0.3577
C10A C -0.3526(9) -0.4390(8) -0.4006(6)
C11A C -0.2690(12) -0.5051(10) -0.3875(8)
H7A H -0.2797 -0.5587 -0.3533
C12A C -0.1706(15) -0.4900(14) -0.4261(10)
H8A H -0.1140 -0.5358 -0.4185
C13A C -0.1508(13) -0.4126(13) -0.4744(8)
H9A H -0.0827 -0.4063 -0.5006
C14A C -0.2272(10) -0.3453(10) -0.4850(6)
H10A H -0.2122 -0.2892 -0.5175
C15A C -0.3290(10) -0.3582(9) -0.4481(6)
H11A H -0.3834 -0.3104 -0.4557
C16A C -0.4923(8) -0.5793(8) -0.2628(6)
H12A H -0.5412 -0.6407 -0.3127
H13A H -0.4258 -0.6093 -0.2373
C17A C -0.5843(7) -0.5692(7) -0.2092(6)
C18A C -0.6517(8) -0.4885(8) -0.2114(6)
H14A H -0.6413 -0.4365 -0.2467
C19A C -0.7352(8) -0.4824(8) -0.1621(7)
H15A H -0.7804 -0.4254 -0.1634
C20A C -0.7526(9) -0.5585(9) -0.1116(7)
H16A H -0.8069 -0.5532 -0.0763
C21A C -0.6890(9) -0.6422(9) -0.1138(7)
H17A H -0.7056 -0.7002 -0.0827
C22A C -0.6024(9) -0.6452(9) -0.1593(7)
H18A H -0.5548 -0.7000 -0.1562
O2 O 0.2923(9) -0.2610(8) 0.2436(4)
O3 O -0.2197(7) -0.0215(7) 0.3236(4)
N2 N 0.1813(6) -0.1970(6) 0.1537(4)
H19 H 0.1206 -0.1656 0.1406
N3 N -0.1578(6) -0.0222(6) 0.2109(4)
H20 H -0.1081 -0.0412 0.1809
C23 C 0.2571(8) -0.2242(9) 0.0964(5)
H21 H 0.2312 -0.3145 0.0766
H22 H 0.3495 -0.1935 0.1236
C24 C 0.2025(9) -0.2186(8) 0.2237(6)
C25 C 0.1326(9) -0.1818(8) 0.2832(5)
C26 C 0.0243(8) -0.1355(8) 0.2498(5)
H23 H 0.0611 -0.0655 0.2273
H24 H -0.0400 -0.2022 0.2068
C27 C -0.0428(8) -0.0948(8) 0.3121(5)
C28 C 0.0691(12) -0.2923(10) 0.3142(7)
H25 H 0.0092 -0.3595 0.2698
H26 H 0.1362 -0.3225 0.3386
C29 C -0.0031(15) -0.2593(14) 0.3731(9)
H27 H -0.0450 -0.3343 0.3907
C30 C -0.1040(10) -0.2085(9) 0.3425(7)
H28 H -0.1456 -0.1848 0.3849
H29 H -0.1711 -0.2722 0.2993
C31 C 0.2274(10) -0.0794(12) 0.3515(7)
H30 H 0.2631 -0.0050 0.3327
H31 H 0.2997 -0.1059 0.3728
C32 C 0.1578(11) -0.0485(15) 0.4177(8)
H32 H 0.2212 0.0145 0.4638
C33 C 0.0929(18) -0.164(2) 0.4428(10)
H33 H 0.1588 -0.1980 0.4647
H34 H 0.0483 -0.1439 0.4842
C34 C 0.0550(10) 0.0063(10) 0.3802(7)
H35 H 0.0109 0.0339 0.4200
H36 H 0.0982 0.0779 0.3608
C35 C -0.1483(9) -0.0456(8) 0.2815(6)
C36 C -0.2519(9) 0.0358(9) 0.1829(6)
H37 H -0.2427 0.1084 0.2246
H38 H -0.3399 -0.0232 0.1742
C37 C -0.2377(8) 0.0753(8) 0.1095(6)
C38 C -0.1514(7) 0.1931(8) 0.1131(5)
C39 C -0.0622(9) 0.2692(9) 0.1834(6)
H39 H -0.0592 0.2404 0.2300
C40 C 0.0195(8) 0.3827(9) 0.1858(6)
H40 H 0.0775 0.4322 0.2338
C41 C 0.0183(8) 0.4268(8) 0.1178(7)
H41 H 0.0757 0.5058 0.1198
C42 C -0.0629(8) 0.3585(8) 0.0507(6)
H42 H -0.0608 0.3906 0.0055
C43 C -0.1534(7) 0.2393(7) 0.0424(6)
C44 C -0.2400(7) 0.1678(8) -0.0282(5)
C45 C -0.3171(7) 0.0470(8) -0.0320(6)
C46 C -0.3997(9) -0.0306(9) -0.1028(6)
H43 H -0.4024 -0.0005 -0.1489
C47 C -0.4781(9) -0.1508(10) -0.1082(8)
H44 H -0.5324 -0.2019 -0.1570
C48 C -0.4744(11) -0.1937(11) -0.0402(9)
H45 H -0.5271 -0.2751 -0.0431
C49 C -0.3977(10) -0.1223(9) 0.0303(8)
H46 H -0.3982 -0.1537 0.0758
C50 C -0.3154(8) 0.0010(7) 0.0362(6)
O2A O -0.2923(9) 0.2610(8) -0.2436(4)
O3A O 0.2197(7) 0.0215(7) -0.3236(4)
N2A N -0.1813(6) 0.1970(6) -0.1537(4)
H19A H -0.1206 0.1656 -0.1406
N3A N 0.1578(6) 0.0222(6) -0.2109(4)
H20A H 0.1081 0.0412 -0.1809
C23A C -0.2571(8) 0.2242(9) -0.0964(5)
H21A H -0.2312 0.3145 -0.0766
H22A H -0.3495 0.1935 -0.1236
C24A C -0.2025(9) 0.2186(8) -0.2237(6)
C25A C -0.1326(9) 0.1818(8) -0.2832(5)
C26A C -0.0243(8) 0.1355(8) -0.2498(5)
H23A H -0.0611 0.0655 -0.2273
H24A H 0.0400 0.2022 -0.2068
C27A C 0.0428(8) 0.0948(8) -0.3121(5)
C28A C -0.0691(12) 0.2923(10) -0.3142(7)
H25A H -0.0092 0.3595 -0.2698
H26A H -0.1362 0.3225 -0.3386
C29A C 0.0031(15) 0.2593(14) -0.3731(9)
H27A H 0.0450 0.3343 -0.3907
C30A C 0.1040(10) 0.2085(9) -0.3425(7)
H28A H 0.1456 0.1848 -0.3849
H29A H 0.1711 0.2722 -0.2993
C31A C -0.2274(10) 0.0794(12) -0.3515(7)
H30A H -0.2631 0.0050 -0.3327
H31A H -0.2997 0.1059 -0.3728
C32A C -0.1578(11) 0.0485(15) -0.4177(8)
H32A H -0.2212 -0.0145 -0.4638
C33A C -0.0929(18) 0.164(2) -0.4428(10)
H33A H -0.1588 0.1980 -0.4647
H34A H -0.0483 0.1439 -0.4842
C34A C -0.0550(10) -0.0063(10) -0.3802(7)
H35A H -0.0109 -0.0339 -0.4200
H36A H -0.0982 -0.0779 -0.3608
C35A C 0.1483(9) 0.0456(8) -0.2815(6)
C36A C 0.2519(9) -0.0358(9) -0.1829(6)
H37A H 0.2427 -0.1084 -0.2246
H38A H 0.3399 0.0232 -0.1742
C37A C 0.2377(8) -0.0753(8) -0.1095(6)
C38A C 0.1514(7) -0.1931(8) -0.1131(5)
C39A C 0.0622(9) -0.2692(9) -0.1834(6)
H39A H 0.0592 -0.2404 -0.2300
C40A C -0.0195(8) -0.3827(9) -0.1858(6)
H40A H -0.0775 -0.4322 -0.2338
C41A C -0.0183(8) -0.4268(8) -0.1178(7)
H41A H -0.0757 -0.5058 -0.1198
C42A C 0.0629(8) -0.3585(8) -0.0507(6)
H42A H 0.0608 -0.3906 -0.0055
C43A C 0.1534(7) -0.2393(7) -0.0424(6)
C44A C 0.2400(7) -0.1678(8) 0.0282(5)
C45A C 0.3171(7) -0.0470(8) 0.0320(6)
C46A C 0.3997(9) 0.0306(9) 0.1028(6)
H43A H 0.4024 0.0005 0.1489
C47A C 0.4781(9) 0.1508(10) 0.1082(8)
H44A H 0.5324 0.2019 0.1570
C48A C 0.4744(11) 0.1937(11) 0.0402(9)
H45A H 0.5271 0.2751 0.0431
C49A C 0.3977(10) 0.1223(9) -0.0303(8)
H46A H 0.3982 0.1537 -0.0758
C50A C 0.3154(8) -0.0010(7) -0.0362(6)
C51 C 0.3511(17) 0.824(2) 0.6188(13)
H47 H 0.3160 0.8932 0.6221
Cl1 Cl 0.4644(5) 0.8652(6) 0.6968(3)
Cl2 Cl 0.4212(7) 0.8248(10) 0.5323(3)
Cl3 Cl 0.2222(8) 0.6986(6) 0.6156(5)
O4 O -0.4496(11) -0.1368(9) 0.3744(8)
loop_
_geom_bond_atom_site_label_1
_geom_bond_atom_site_label_2
_geom_bond_site_symmetry_1
_geom_bond_site_symmetry_2
O1 C1 1_555 1_555
N1 C6 1_555 1_555
C1 C2 1_555 1_555
C2 C3 1_555 1_555
C3 C4 1_555 1_555
C4 H1 1_555 1_555
C5 C4 1_555 1_555
H2 C5 1_555 1_555
C6 C5 1_555 1_555
C7 C6 1_555 1_555
H3 C7 1_555 1_555
C8 C3 1_555 1_555
H4 C8 1_555 1_555
C9 N1 1_555 1_555
H5 C9 1_555 1_555
H6 C9 1_555 1_555
C10 C9 1_555 1_555
C11 C10 1_555 1_555
H7 C11 1_555 1_555
C12 C11 1_555 1_555
H8 C12 1_555 1_555
C13 C12 1_555 1_555
H9 C13 1_555 1_555
C14 C13 1_555 1_555
H10 C14 1_555 1_555
C15 C10 1_555 1_555
H11 C15 1_555 1_555
C16 N1 1_555 1_555
H12 C16 1_555 1_555
H13 C16 1_555 1_555
C17 C16 1_555 1_555
C18 C17 1_555 1_555
H14 C18 1_555 1_555
C19 C18 1_555 1_555
H15 C19 1_555 1_555
C20 C19 1_555 1_555
H16 C20 1_555 1_555
C21 C20 1_555 1_555
H17 C21 1_555 1_555
C22 C17 1_555 1_555
H18 C22 1_555 1_555
O2 C24 1_555 1_555
O3 C35 1_555 1_555
N2 H19 1_555 1_555
N3 H20 1_555 1_555
C23 N2 1_555 1_555
H21 C23 1_555 1_555
H22 C23 1_555 1_555
C24 N2 1_555 1_555
C25 C24 1_555 1_555
C26 C25 1_555 1_555
H23 C26 1_555 1_555
H24 C26 1_555 1_555
C27 C26 1_555 1_555
C28 C25 1_555 1_555
H25 C28 1_555 1_555
H26 C28 1_555 1_555
C29 C28 1_555 1_555
H27 C29 1_555 1_555
C30 C27 1_555 1_555
H28 C30 1_555 1_555
H29 C30 1_555 1_555
C31 C25 1_555 1_555
H30 C31 1_555 1_555
H31 C31 1_555 1_555
C32 C31 1_555 1_555
H32 C32 1_555 1_555
C33 C29 1_555 1_555
H33 C33 1_555 1_555
H34 C33 1_555 1_555
C34 C27 1_555 1_555
H35 C34 1_555 1_555
H36 C34 1_555 1_555
C35 N3 1_555 1_555
C36 N3 1_555 1_555
H37 C36 1_555 1_555
H38 C36 1_555 1_555
C37 C36 1_555 1_555
C38 C37 1_555 1_555
C39 C38 1_555 1_555
H39 C39 1_555 1_555
C40 C39 1_555 1_555
H40 C40 1_555 1_555
C41 C40 1_555 1_555
H41 C41 1_555 1_555
C42 C41 1_555 1_555
H42 C42 1_555 1_555
C43 C38 1_555 1_555
C44 C43 1_555 1_555
C45 C44 1_555 1_555
C46 C45 1_555 1_555
H43 C46 1_555 1_555
C47 C46 1_555 1_555
H44 C47 1_555 1_555
C48 C47 1_555 1_555
H45 C48 1_555 1_555
C49 C48 1_555 1_555
H46 C49 1_555 1_555
C50 C37 1_555 1_555
C51 H47 1_555 1_555
Cl1 C51 1_555 1_555
Cl2 C51 1_555 1_555
Cl3 C51 1_555 1_555
O1A C1A 1_555 1_555
N1A C6A 1_555 1_555
C1A C2 1_555 1_555
C2A C1 1_555 1_555
C3A C2A 1_555 1_555
C4A C3A 1_555 1_555
H1A C4A 1_555 1_555
C5A C4A 1_555 1_555
H2A C5A 1_555 1_555
C6A C5A 1_555 1_555
C7A C6A 1_555 1_555
H3A C7A 1_555 1_555
C8A C3A 1_555 1_555
H4A C8A 1_555 1_555
C9A N1A 1_555 1_555
H5A C9A 1_555 1_555
H6A C9A 1_555 1_555
C10A C9A 1_555 1_555
C11A C10A 1_555 1_555
H7A C11A 1_555 1_555
C12A C11A 1_555 1_555
H8A C12A 1_555 1_555
C13A C12A 1_555 1_555
H9A C13A 1_555 1_555
C14A C13A 1_555 1_555
H10A C14A 1_555 1_555
C15A C10A 1_555 1_555
H11A C15A 1_555 1_555
C16A N1A 1_555 1_555
H12A C16A 1_555 1_555
H13A C16A 1_555 1_555
C17A C16A 1_555 1_555
C18A C17A 1_555 1_555
H14A C18A 1_555 1_555
C19A C18A 1_555 1_555
H15A C19A 1_555 1_555
C20A C19A 1_555 1_555
H16A C20A 1_555 1_555
C21A C20A 1_555 1_555
H17A C21A 1_555 1_555
C22A C17A 1_555 1_555
H18A C22A 1_555 1_555
O2A C24A 1_555 1_555
O3A C35A 1_555 1_555
N2A H19A 1_555 1_555
N3A H20A 1_555 1_555
C23A C44 1_555 1_555
H21A C23A 1_555 1_555
H22A C23A 1_555 1_555
C24A N2A 1_555 1_555
C25A C24A 1_555 1_555
C26A C25A 1_555 1_555
H23A C26A 1_555 1_555
H24A C26A 1_555 1_555
C27A C26A 1_555 1_555
C28A C25A 1_555 1_555
H25A C28A 1_555 1_555
H26A C28A 1_555 1_555
C29A C28A 1_555 1_555
H27A C29A 1_555 1_555
C30A C27A 1_555 1_555
H28A C30A 1_555 1_555
H29A C30A 1_555 1_555
C31A C25A 1_555 1_555
H30A C31A 1_555 1_555
H31A C31A 1_555 1_555
C32A C31A 1_555 1_555
H32A C32A 1_555 1_555
C33A C29A 1_555 1_555
H33A C33A 1_555 1_555
H34A C33A 1_555 1_555
C34A C27A 1_555 1_555
H35A C34A 1_555 1_555
H36A C34A 1_555 1_555
C35A N3A 1_555 1_555
C36A N3A 1_555 1_555
H37A C36A 1_555 1_555
H38A C36A 1_555 1_555
C37A C36A 1_555 1_555
C38A C37A 1_555 1_555
C39A C38A 1_555 1_555
H39A C39A 1_555 1_555
C40A C39A 1_555 1_555
H40A C40A 1_555 1_555
C41A C40A 1_555 1_555
H41A C41A 1_555 1_555
C42A C41A 1_555 1_555
H42A C42A 1_555 1_555
C43A C38A 1_555 1_555
C44A C23 1_555 1_555
C45A C44A 1_555 1_555
C46A C45A 1_555 1_555
H43A C46A 1_555 1_555
C47A C46A 1_555 1_555
H44A C47A 1_555 1_555
C48A C47A 1_555 1_555
H45A C48A 1_555 1_555
C49A C48A 1_555 1_555
H46A C49A 1_555 1_555
C50A C37A 1_555 1_555
C7 C8 1_555 1_555
C14 C15 1_555 1_555
C21 C22 1_555 1_555
C27 C35 1_555 1_555
C29 C30 1_555 1_555
C32 C33 1_555 1_555
C32 C34 1_555 1_555
C42 C43 1_555 1_555
C45 C50 1_555 1_555
C49 C50 1_555 1_555
C1A C2A 1_555 1_555
C7A C8A 1_555 1_555
C14A C15A 1_555 1_555
C21A C22A 1_555 1_555
N2A C23A 1_555 1_555
C27A C35A 1_555 1_555
C29A C30A 1_555 1_555
C32A C33A 1_555 1_555
C32A C34A 1_555 1_555
C42A C43A 1_555 1_555
C43A C44A 1_555 1_555
C45A C50A 1_555 1_555
C49A C50A 1_555 1_555

#END
