
#######################################################################
#
#                 Cambridge Crystallographic Data Centre
#                                CCDC 
#
#######################################################################
#
# If this CIF has been generated from an entry in the Cambridge 
# Structural Database, then it will include bibliographic, chemical, 
# crystal, experimental, refinement or atomic coordinate data resulting 
# from the CCDC's data processing and validation procedures.
#
#######################################################################

data_XOFNEN
_chemical_formula_moiety         'C16 H13 Br1 O3'
_chemical_name_systematic        
3-(2-bromo-5-methoxyphenyl)-4-phenyloxetan-2-one
_symmetry_cell_setting           monoclinic
_symmetry_space_group_name_H-M   'P 21'
_symmetry_Int_Tables_number      4
_space_group_name_Hall           'P 2yb'
loop_
_symmetry_equiv_pos_site_id
_symmetry_equiv_pos_as_xyz
1 x,y,z
2 -x,1/2+y,-z
_cell_length_a                   7.952(2)
_cell_length_b                   12.184(4)
_cell_length_c                   14.721(4)
_cell_angle_alpha                90
_cell_angle_beta                 92.596(4)
_cell_angle_gamma                90
_cell_volume                     1424.81
_exptl_crystal_colour            colorless
_exptl_crystal_description       prism
_cell_formula_units_Z            4
_exptl_crystal_recrystallization_method hexane
loop_
_atom_site_label
_atom_site_type_symbol
_atom_site_fract_x
_atom_site_fract_y
_atom_site_fract_z
Br1 Br 0.17802(8) 0.40992(5) -0.07316(5)
O1 O 0.8263(5) 0.3984(6) 0.0868(3)
O2 O 0.7588(6) 0.7034(4) -0.1583(3)
O3 O 0.6028(5) 0.4306(4) 0.1778(3)
C1 C 0.3633(7) 0.5036(5) -0.0940(4)
C2 C 0.6810(7) 0.4145(6) 0.0989(4)
C3 C 0.6458(7) 0.5630(5) -0.0607(4)
H1 H 0.7464 0.5584 -0.0261
C4 C 0.5209(7) 0.4177(5) 0.0386(4)
C5 C 0.2386(10) 0.7705(6) 0.1453(4)
H2 H 0.1948 0.8413 0.1455
C6 C 0.4831(8) 0.6439(6) -0.1843(4)
H3 H 0.4739 0.6943 -0.2317
C7 C 0.4105(10) 0.7542(6) 0.1581(5)
H4 H 0.4818 0.8136 0.1694
C8 C 0.5098(7) 0.4960(4) -0.0401(4)
C9 C 0.9166(8) 0.6894(6) -0.1150(5)
H5 H 0.9973 0.7347 -0.1438
H6 H 0.9497 0.6139 -0.1190
H7 H 0.9116 0.7100 -0.0522
C10 C 0.3482(7) 0.5775(5) -0.1664(4)
H8 H 0.2487 0.5819 -0.2019
C11 C 0.6309(7) 0.6362(5) -0.1328(4)
C12 C 0.4368(7) 0.4463(5) 0.1293(4)
C13 C 0.3713(8) 0.5615(5) 0.1385(4)
C14 C 0.4761(8) 0.6480(6) 0.1540(4)
H9 H 0.5915 0.6367 0.1618
C15 C 0.1324(10) 0.6817(6) 0.1323(4)
H10 H 0.0167 0.6925 0.1260
C16 C 0.1968(8) 0.5779(6) 0.1287(4)
H11 H 0.1251 0.5182 0.1198
H12 H 0.363(5) 0.384(3) 0.145(3)
H13 H 0.494(7) 0.3436(19) 0.014(3)
Br2 Br 0.68755(7) 0.15107(5) 0.43608(4)
O4 O 1.2644(5) 0.4436(4) 0.3424(3)
O5 O 1.1168(5) 0.1812(4) 0.6832(3)
O6 O 1.3386(5) 0.1553(6) 0.5918(3)
C17 C 0.6393(9) 0.4268(7) 0.6380(4)
H14 H 0.5236 0.4367 0.6303
C18 C 1.0351(6) 0.1609(6) 0.5445(3)
H15 H 1.0057 0.0858 0.5261
C19 C 0.9878(8) 0.3842(5) 0.3191(4)
H16 H 0.9770 0.4338 0.2712
C20 C 1.1554(7) 0.3056(5) 0.4425(4)
H17 H 1.2564 0.3031 0.4768
C21 C 1.0209(7) 0.2379(5) 0.4652(4)
C22 C 1.1960(8) 0.1629(6) 0.6048(4)
C23 C 1.4241(7) 0.4341(6) 0.3854(4)
H18 H 1.5020 0.4802 0.3553
H19 H 1.4610 0.3592 0.3827
H20 H 1.4190 0.4562 0.4478
C24 C 0.8713(7) 0.2440(5) 0.4125(4)
C25 C 0.8535(7) 0.3185(5) 0.3405(4)
H21 H 0.7517 0.3238 0.3071
C26 C 1.1377(7) 0.3758(5) 0.3693(4)
C27 C 0.9506(7) 0.1927(5) 0.6354(4)
C28 C 0.9825(8) 0.3960(6) 0.6583(4)
H22 H 1.0984 0.3869 0.6655
C29 C 0.8814(8) 0.3063(5) 0.6423(4)
C30 C 0.7085(9) 0.3215(6) 0.6339(4)
H23 H 0.6380 0.2612 0.6254
C31 C 0.9136(10) 0.5000(6) 0.6640(5)
H24 H 0.9832 0.5603 0.6750
C32 C 0.7413(9) 0.5141(6) 0.6532(4)
H25 H 0.6955 0.5841 0.6565
H26 H 0.880(5) 0.131(3) 0.656(3)
loop_
_geom_bond_atom_site_label_1
_geom_bond_atom_site_label_2
_geom_bond_site_symmetry_1
_geom_bond_site_symmetry_2
Br1 C1 1_555 1_555
O1 C2 1_555 1_555
O2 C9 1_555 1_555
O3 C2 1_555 1_555
C1 C8 1_555 1_555
C2 C4 1_555 1_555
C3 H1 1_555 1_555
C4 C8 1_555 1_555
C5 H2 1_555 1_555
C6 H3 1_555 1_555
C7 C5 1_555 1_555
H4 C7 1_555 1_555
C8 C3 1_555 1_555
C9 H5 1_555 1_555
H6 C9 1_555 1_555
H7 C9 1_555 1_555
C10 C1 1_555 1_555
H8 C10 1_555 1_555
C11 O2 1_555 1_555
C12 O3 1_555 1_555
C13 C12 1_555 1_555
C14 C7 1_555 1_555
H9 C14 1_555 1_555
C15 C5 1_555 1_555
H10 C15 1_555 1_555
C16 C13 1_555 1_555
H11 C16 1_555 1_555
H12 C12 1_555 1_555
H13 C4 1_555 1_555
Br2 C24 1_555 1_555
O4 C23 1_555 1_555
O5 C22 1_555 1_555
O6 C22 1_555 1_555
C17 H14 1_555 1_555
C18 H15 1_555 1_555
C19 H16 1_555 1_555
C20 H17 1_555 1_555
C21 C18 1_555 1_555
C22 C18 1_555 1_555
C23 H18 1_555 1_555
H19 C23 1_555 1_555
H20 C23 1_555 1_555
C24 C21 1_555 1_555
C25 C19 1_555 1_555
H21 C25 1_555 1_555
C26 O4 1_555 1_555
C27 O5 1_555 1_555
C28 H22 1_555 1_555
C29 C27 1_555 1_555
C30 C17 1_555 1_555
H23 C30 1_555 1_555
C31 C28 1_555 1_555
H24 C31 1_555 1_555
C32 C17 1_555 1_555
H25 C32 1_555 1_555
H26 C27 1_555 1_555
C3 C11 1_555 1_555
C4 C12 1_555 1_555
C6 C10 1_555 1_555
C6 C11 1_555 1_555
C13 C14 1_555 1_555
C15 C16 1_555 1_555
C18 C27 1_555 1_555
C19 C26 1_555 1_555
C20 C21 1_555 1_555
C20 C26 1_555 1_555
C24 C25 1_555 1_555
C28 C29 1_555 1_555
C29 C30 1_555 1_555
C31 C32 1_555 1_555

#END
