
#######################################################################
#
#                 Cambridge Crystallographic Data Centre
#                                CCDC 
#
#######################################################################
#
# If this CIF has been generated from an entry in the Cambridge 
# Structural Database, then it will include bibliographic, chemical, 
# crystal, experimental, refinement or atomic coordinate data resulting 
# from the CCDC's data processing and validation procedures.
#
#######################################################################

data_XOFNIR
_chemical_formula_moiety         'C11 H11 Br1 O3'
_chemical_name_systematic        
3-(2-bromo-5-methoxyphenyl)-4-methyloxetan-2-one
_symmetry_cell_setting           orthorhombic
_symmetry_space_group_name_H-M   'P 21 21 21'
_symmetry_Int_Tables_number      19
_space_group_name_Hall           'P 2ac 2ab'
loop_
_symmetry_equiv_pos_site_id
_symmetry_equiv_pos_as_xyz
1 x,y,z
2 1/2-x,-y,1/2+z
3 -x,1/2+y,1/2-z
4 1/2+x,1/2-y,-z
_cell_length_a                   12.060(2)
_cell_length_b                   12.066(2)
_cell_length_c                   14.641(3)
_cell_angle_alpha                90
_cell_angle_beta                 90
_cell_angle_gamma                90
_cell_volume                     2130.5
_exptl_crystal_colour            colorless
_exptl_crystal_description       prism
_cell_formula_units_Z            8
_exptl_crystal_recrystallization_method hexane
loop_
_atom_site_label
_atom_site_type_symbol
_atom_site_fract_x
_atom_site_fract_y
_atom_site_fract_z
Br1 Br 0.19415(6) 0.08479(6) -0.49321(6)
O1 O -0.0373(4) -0.3561(4) -0.5124(4)
O2 O -0.2088(4) 0.1104(4) -0.5255(3)
O3 O -0.2281(5) -0.0227(5) -0.6345(4)
C1 C -0.0600(7) 0.2450(6) -0.4942(7)
H1 H -0.0748 0.2725 -0.5545
H2 H 0.0180 0.2503 -0.4818
H3 H -0.1003 0.2882 -0.4503
C2 C 0.1294(6) -0.2511(6) -0.4793(4)
H4 H 0.1688 -0.3145 -0.4634
C3 C 0.1791(6) -0.1481(5) -0.4744(4)
H5 H 0.2518 -0.1418 -0.4539
C4 C -0.0505(6) 0.0416(6) -0.5589(4)
H6 H -0.0099 0.0803 -0.6074
C5 C 0.1205(6) -0.0537(5) -0.5000(5)
C6 C 0.0205(6) -0.2590(5) -0.5081(6)
C7 C 0.0184(6) -0.4549(6) -0.4853(6)
H7 H 0.0834 -0.4649 -0.5223
H8 H -0.0303 -0.5171 -0.4931
H9 H 0.0397 -0.4491 -0.4223
C8 C 0.0113(6) -0.0590(6) -0.5300(4)
C9 C -0.0955(6) 0.1264(6) -0.4880(5)
H10 H -0.0894 0.0981 -0.4254
C10 C -0.1727(6) 0.0307(6) -0.5846(5)
C11 C -0.0376(6) -0.1635(6) -0.5330(5)
H11 H -0.1109 -0.1699 -0.5521
Br2 Br 0.16360(7) -0.00325(7) -0.23606(5)
O4 O 0.5843(4) 0.2599(4) -0.2730(4)
C12 C 0.4913(6) 0.0827(6) -0.2851(4)
H12 H 0.5550 0.0466 -0.3050
O5 O 0.1098(5) 0.3951(4) -0.2343(4)
C13 C 0.1935(6) 0.2485(6) -0.1924(5)
O6 O 0.2469(5) 0.4380(4) -0.1319(4)
C14 C 0.6841(6) 0.2108(6) -0.3089(5)
H13 H 0.7085 0.1528 -0.2687
H14 H 0.7408 0.2663 -0.3135
H15 H 0.6694 0.1805 -0.3683
C15 C 0.3971(6) 0.2486(6) -0.2341(5)
H16 H 0.3998 0.3238 -0.2202
C16 C -0.0126(7) 0.2335(8) -0.2513(7)
H17 H -0.0333 0.2384 -0.1881
H18 H -0.0148 0.1575 -0.2705
H19 H -0.0635 0.2762 -0.2875
C17 C 0.3910(6) 0.0249(5) -0.2749(5)
H20 H 0.3882 -0.0504 -0.2881
C18 C 0.2957(6) 0.0795(5) -0.2453(4)
C19 C 0.1951(6) 0.3739(6) -0.1763(5)
C20 C 0.4928(6) 0.1954(5) -0.2647(5)
C21 C 0.2972(6) 0.1911(6) -0.2241(4)
C22 C 0.1032(6) 0.2784(6) -0.2636(6)
H21 H 0.1298 0.2685 -0.3263
H22 H 0.156(6) 0.217(6) -0.140(3)
loop_
_geom_bond_atom_site_label_1
_geom_bond_atom_site_label_2
_geom_bond_site_symmetry_1
_geom_bond_site_symmetry_2
Br1 C5 1_555 1_555
O1 C6 1_555 1_555
O2 C9 1_555 1_555
O3 C10 1_555 1_555
C1 H1 1_555 1_555
H2 C1 1_555 1_555
H3 C1 1_555 1_555
C2 H4 1_555 1_555
C3 C2 1_555 1_555
H5 C3 1_555 1_555
C4 H6 1_555 1_555
C5 C3 1_555 1_555
C6 C2 1_555 1_555
C7 O1 1_555 1_555
H7 C7 1_555 1_555
H8 C7 1_555 1_555
H9 C7 1_555 1_555
C8 C4 1_555 1_555
C9 C1 1_555 1_555
H10 C9 1_555 1_555
C10 O2 1_555 1_555
C11 C6 1_555 1_555
H11 C11 1_555 1_555
Br2 C18 1_555 1_555
O4 C14 1_555 1_555
C12 H12 1_555 1_555
O5 C19 1_555 1_555
C13 C19 1_555 1_555
O6 C19 1_555 1_555
C14 H13 1_555 1_555
H14 C14 1_555 1_555
H15 C14 1_555 1_555
C15 H16 1_555 1_555
C16 H17 1_555 1_555
H18 C16 1_555 1_555
H19 C16 1_555 1_555
C17 C12 1_555 1_555
H20 C17 1_555 1_555
C18 C17 1_555 1_555
C20 O4 1_555 1_555
C21 C13 1_555 1_555
C22 O5 1_555 1_555
H21 C22 1_555 1_555
H22 C13 1_555 1_555
C4 C9 1_555 1_555
C4 C10 1_555 1_555
C5 C8 1_555 1_555
C8 C11 1_555 1_555
C12 C20 1_555 1_555
C13 C22 1_555 1_555
C15 C20 1_555 1_555
C15 C21 1_555 1_555
C16 C22 1_555 1_555
C18 C21 1_555 1_555

#END
