
#######################################################################
#
#                 Cambridge Crystallographic Data Centre
#                                CCDC 
#
#######################################################################
#
# If this CIF has been generated from an entry in the Cambridge 
# Structural Database, then it will include bibliographic, chemical, 
# crystal, experimental, refinement or atomic coordinate data resulting 
# from the CCDC's data processing and validation procedures.
#
#######################################################################

data_XOFPOZ
_chemical_formula_moiety         'C24 H23 N3 O1'
_chemical_name_systematic        
4-((4-(1,3-Benzoxazol-2-yl)phenyl)carbonoimidoyl)-N,N-diethylaniline
_symmetry_cell_setting           orthorhombic
_symmetry_space_group_name_H-M   'P 21 21 21'
_symmetry_Int_Tables_number      19
_space_group_name_Hall           'P 2ac 2ab'
loop_
_symmetry_equiv_pos_site_id
_symmetry_equiv_pos_as_xyz
1 x,y,z
2 1/2-x,-y,1/2+z
3 -x,1/2+y,1/2-z
4 1/2+x,1/2-y,-z
_cell_length_a                   7.5448(8)
_cell_length_b                   9.2205(10)
_cell_length_c                   28.088(3)
_cell_angle_alpha                90
_cell_angle_beta                 90
_cell_angle_gamma                90
_cell_volume                     1953.99
_exptl_crystal_colour            yellow
_exptl_crystal_description       needle
_cell_formula_units_Z            4
loop_
_atom_site_label
_atom_site_type_symbol
_atom_site_fract_x
_atom_site_fract_y
_atom_site_fract_z
O1 O 0.40052(14) 0.44727(10) 0.09755(3)
N1 N 0.53824(18) 0.57449(13) 0.15510(4)
N2 N 0.43284(17) 1.03454(12) -0.02098(4)
N3 N 0.46403(18) 1.59167(13) -0.15912(4)
C1 C 0.4204(2) 0.35659(15) 0.13598(5)
C2 C 0.3653(2) 0.21531(18) 0.14037(6)
H1 H 0.3076 0.1666 0.1159
C3 C 0.4009(3) 0.15053(18) 0.18345(6)
H2 H 0.3660 0.0550 0.1884
C4 C 0.4877(3) 0.22414(18) 0.21980(6)
H3 H 0.5090 0.1768 0.2485
C5 C 0.5430(2) 0.36569(17) 0.21440(5)
H4 H 0.6023 0.4140 0.2387
C6 C 0.50646(19) 0.43380(15) 0.17110(5)
C7 C 0.47437(18) 0.57582(14) 0.11238(5)
C8 C 0.46690(18) 0.69596(14) 0.07885(5)
C9 C 0.3737(2) 0.68206(15) 0.03632(5)
H5 H 0.3164 0.5955 0.0291
C10 C 0.3663(2) 0.79677(15) 0.00491(5)
H6 H 0.3031 0.7864 -0.0233
C11 C 0.45111(18) 0.92748(15) 0.01435(5)
C12 C 0.5462(2) 0.93993(15) 0.05687(5)
H7 H 0.6058 1.0257 0.0637
C13 C 0.5525(2) 0.82652(15) 0.08864(5)
H8 H 0.6146 0.8371 0.1170
C14 C 0.4877(2) 1.16345(15) -0.01522(5)
H9 H 0.5404 1.1880 0.0136
C15 C 0.4718(2) 1.27392(15) -0.05155(5)
C16 C 0.5448(2) 1.41164(15) -0.04467(5)
H10 H 0.5975 1.4332 -0.0156
C17 C 0.54136(19) 1.51589(14) -0.07937(5)
H11 H 0.5923 1.6059 -0.0734
C18 C 0.46212(18) 1.48910(14) -0.12381(5)
C19 C 0.3814(2) 1.35211(15) -0.13005(5)
H12 H 0.3227 1.3319 -0.1584
C20 C 0.3881(2) 1.24832(15) -0.09513(5)
H13 H 0.3357 1.1586 -0.1006
C21 C 0.3505(2) 1.58183(19) -0.20089(5)
H14 H 0.3131 1.6788 -0.2098
H15 H 0.2451 1.5272 -0.1926
C22 C 0.4367(3) 1.5112(3) -0.24338(7)
H16 H 0.3535 1.5069 -0.2692
H17 H 0.4735 1.4148 -0.2351
H18 H 0.5381 1.5670 -0.2529
C23 C 0.5834(2) 1.71650(16) -0.15745(5)
H19 H 0.6221 1.7385 -0.1896
H20 H 0.6876 1.6903 -0.1391
C24 C 0.5032(3) 1.85111(17) -0.13609(6)
H21 H 0.5896 1.9275 -0.1360
H22 H 0.4663 1.8313 -0.1040
H23 H 0.4025 1.8804 -0.1547
loop_
_geom_bond_atom_site_label_1
_geom_bond_atom_site_label_2
_geom_bond_site_symmetry_1
_geom_bond_site_symmetry_2
O1 C1 1_555 1_555
N1 C6 1_555 1_555
N2 C11 1_555 1_555
N3 C18 1_555 1_555
C1 C2 1_555 1_555
C2 H1 1_555 1_555
C3 C2 1_555 1_555
H2 C3 1_555 1_555
C4 C3 1_555 1_555
H3 C4 1_555 1_555
C5 C4 1_555 1_555
H4 C5 1_555 1_555
C6 C1 1_555 1_555
C7 O1 1_555 1_555
C8 C7 1_555 1_555
C9 C8 1_555 1_555
H5 C9 1_555 1_555
C10 C9 1_555 1_555
H6 C10 1_555 1_555
C11 C10 1_555 1_555
C12 C11 1_555 1_555
H7 C12 1_555 1_555
C13 C8 1_555 1_555
H8 C13 1_555 1_555
C14 N2 1_555 1_555
H9 C14 1_555 1_555
C15 C14 1_555 1_555
C16 C15 1_555 1_555
H10 C16 1_555 1_555
C17 C16 1_555 1_555
H11 C17 1_555 1_555
C18 C17 1_555 1_555
C19 C18 1_555 1_555
H12 C19 1_555 1_555
C20 C15 1_555 1_555
H13 C20 1_555 1_555
C21 N3 1_555 1_555
H14 C21 1_555 1_555
H15 C21 1_555 1_555
C22 C21 1_555 1_555
H16 C22 1_555 1_555
H17 C22 1_555 1_555
H18 C22 1_555 1_555
C23 N3 1_555 1_555
H19 C23 1_555 1_555
H20 C23 1_555 1_555
C24 C23 1_555 1_555
H21 C24 1_555 1_555
H22 C24 1_555 1_555
H23 C24 1_555 1_555
N1 C7 1_555 1_555
C5 C6 1_555 1_555
C12 C13 1_555 1_555
C19 C20 1_555 1_555

#END
