
#######################################################################
#
#                 Cambridge Crystallographic Data Centre
#                                CCDC 
#
#######################################################################
#
# If this CIF has been generated from an entry in the Cambridge 
# Structural Database, then it will include bibliographic, chemical, 
# crystal, experimental, refinement or atomic coordinate data resulting 
# from the CCDC's data processing and validation procedures.
#
#######################################################################

data_XOFPUF
_chemical_formula_moiety         'C20 H14 N2 O2'
_chemical_name_systematic        
2-((4-(1,3-Benzoxazol-2-yl)phenyl)carbonoimidoyl)phenol
_symmetry_cell_setting           monoclinic
_symmetry_space_group_name_H-M   'P 21/c'
_symmetry_Int_Tables_number      14
_space_group_name_Hall           '-P 2ybc'
loop_
_symmetry_equiv_pos_site_id
_symmetry_equiv_pos_as_xyz
1 x,y,z
2 -x,1/2+y,1/2-z
3 -x,-y,-z
4 x,1/2-y,1/2+z
_cell_length_a                   26.467(5)
_cell_length_b                   4.692(5)
_cell_length_c                   12.387(5)
_cell_angle_alpha                90
_cell_angle_beta                 101.332(5)
_cell_angle_gamma                90
_cell_volume                     1508.27
_exptl_crystal_colour            orange
_exptl_crystal_description       needle
_cell_formula_units_Z            4
loop_
_atom_site_label
_atom_site_type_symbol
_atom_site_fract_x
_atom_site_fract_y
_atom_site_fract_z
O1 O 0.66917(6) -0.4685(3) 0.77153(12)
N1 N 0.81366(6) 0.4528(4) 0.58704(13)
N2 N 0.62979(6) -0.4444(4) 0.59513(13)
O2 O 0.85211(7) 0.7324(4) 0.44008(12)
H1 H 0.8311 0.6330 0.4633
C1 C 0.88021(8) 0.8017(4) 0.63408(16)
C2 C 0.77769(8) 0.1570(5) 0.72111(17)
H2 H 0.8013 0.2298 0.7802
C3 C 0.77865(7) 0.2508(4) 0.61452(15)
C4 C 0.70631(8) -0.1519(4) 0.65266(16)
C5 C 0.62750(8) -0.6513(5) 0.75619(17)
C6 C 0.88327(9) 0.8601(5) 0.52493(18)
C7 C 0.60312(8) -0.6364(5) 0.64838(17)
C8 C 0.66810(8) -0.3568(4) 0.67233(16)
C9 C 0.74344(8) 0.1347(4) 0.52788(16)
H3 H 0.7442 0.1903 0.4561
C10 C 0.70755(8) -0.0611(5) 0.54637(17)
H4 H 0.6838 -0.1336 0.4873
C11 C 0.84368(8) 0.5963(4) 0.66078(17)
H5 H 0.8420 0.5677 0.7343
C12 C 0.74235(8) -0.0407(4) 0.73948(17)
H6 H 0.7424 -0.1016 0.8110
C13 C 0.94839(9) 1.1393(5) 0.6965(2)
H7 H 0.9702 1.2323 0.7537
C14 C 0.91290(8) 0.9467(5) 0.71829(19)
H8 H 0.9105 0.9116 0.7910
C15 C 0.61057(10) -0.8278(5) 0.8312(2)
H9 H 0.6274 -0.8376 0.9044
C16 C 0.95125(10) 1.1933(6) 0.5886(2)
H10 H 0.9752 1.3243 0.5732
C17 C 0.91939(10) 1.0574(6) 0.5033(2)
H11 H 0.9219 1.0969 0.4310
C18 C 0.54273(10) -0.9727(6) 0.6837(3)
H12 H 0.5136 -1.0838 0.6601
C19 C 0.55978(10) -0.7971(6) 0.6092(2)
H13 H 0.5429 -0.7874 0.5360
C20 C 0.56743(10) -0.9881(6) 0.7910(2)
H14 H 0.5548 -1.1104 0.8385
loop_
_geom_bond_atom_site_label_1
_geom_bond_atom_site_label_2
_geom_bond_site_symmetry_1
_geom_bond_site_symmetry_2
O1 C5 1_555 1_555
N1 C3 1_555 1_555
N2 C7 1_555 1_555
O2 H1 1_555 1_555
C1 C6 1_555 1_555
C2 H2 1_555 1_555
C3 C2 1_555 1_555
C4 C8 1_555 1_555
C5 C7 1_555 1_555
C6 O2 1_555 1_555
C7 C19 1_555 1_555
C8 O1 1_555 1_555
C9 C3 1_555 1_555
H3 C9 1_555 1_555
C10 C4 1_555 1_555
H4 C10 1_555 1_555
C11 N1 1_555 1_555
H5 C11 1_555 1_555
C12 C2 1_555 1_555
H6 C12 1_555 1_555
C13 H7 1_555 1_555
C14 C1 1_555 1_555
H8 C14 1_555 1_555
C15 C5 1_555 1_555
H9 C15 1_555 1_555
C16 C13 1_555 1_555
H10 C16 1_555 1_555
C17 C6 1_555 1_555
H11 C17 1_555 1_555
C18 H12 1_555 1_555
C19 C18 1_555 1_555
H13 C19 1_555 1_555
C20 C15 1_555 1_555
H14 C20 1_555 1_555
N2 C8 1_555 1_555
C1 C11 1_555 1_555
C4 C12 1_555 1_555
C9 C10 1_555 1_555
C13 C14 1_555 1_555
C16 C17 1_555 1_555
C18 C20 1_555 1_555

#END
