
#######################################################################
#
#                 Cambridge Crystallographic Data Centre
#                                CCDC 
#
#######################################################################
#
# If this CIF has been generated from an entry in the Cambridge 
# Structural Database, then it will include bibliographic, chemical, 
# crystal, experimental, refinement or atomic coordinate data resulting 
# from the CCDC's data processing and validation procedures.
#
#######################################################################

data_XOFTUH
_chemical_formula_moiety         'C28 H25 N3 O2'
_chemical_name_systematic        
(+-)-endo-4-((1RS,3aRS,6aSR)-5-diphenylmethyl-1,2,3,3a,4,5,6,6a-octahydro-3,3-dimethyl-4,6-dioxopyrrolo[3,4-c]pyrrol-1-yl)benzonitrile
_symmetry_cell_setting           triclinic
_symmetry_space_group_name_H-M   'P -1'
_symmetry_Int_Tables_number      2
_space_group_name_Hall           '-P 1'
loop_
_symmetry_equiv_pos_site_id
_symmetry_equiv_pos_as_xyz
1 x,y,z
2 -x,-y,-z
_cell_length_a                   10.524(9)
_cell_length_b                   10.644(13)
_cell_length_c                   11.127(7)
_cell_angle_alpha                109.90(8)
_cell_angle_beta                 92.83(6)
_cell_angle_gamma                92.69(9)
_cell_volume                     1167.86
_exptl_crystal_colour            colorless
_exptl_crystal_description       prism
_chemical_melting_point          170-172deg.C
_cell_formula_units_Z            2
loop_
_atom_site_label
_atom_site_type_symbol
_atom_site_fract_x
_atom_site_fract_y
_atom_site_fract_z
O1 O 0.0972(2) 0.4655(2) 0.8579(2)
N1 N 0.1688(2) 0.6810(2) 0.8877(2)
O2 O 0.1805(2) 0.9109(2) 0.9549(2)
C1 C -0.0750(3) 0.8072(3) 0.7665(3)
H1 H -0.1612(3) 0.8326(3) 0.7767(3)
N2 N -0.0772(3) 0.6737(2) 0.6737(2)
H2 H -0.0512(3) 0.6520(2) 0.5938(2)
C2 C -0.1293(3) 0.5791(3) 0.7320(3)
C3 C -0.0011(3) 0.9083(3) 0.7247(3)
C4 C 0.3051(3) 0.6555(3) 0.8889(3)
H3 H 0.3090(3) 0.5603(3) 0.8504(3)
C5 C 0.1183(3) 0.8049(3) 0.9156(3)
C6 C 0.3692(3) 0.6932(3) 1.0231(3)
C7 C 0.3037(3) 0.7342(3) 1.1319(3)
H4 H 0.2134(3) 0.7422(3) 1.1249(3)
C8 C -0.0430(3) 1.0341(3) 0.7519(3)
H5 H -0.1171(3) 1.0569(3) 0.7997(3)
C9 C -0.1059(4) 0.4392(3) 0.6487(3)
H6 H -0.1534(18) 0.4177(9) 0.5676(9)
H7 H -0.1328(22) 0.3774(4) 0.6898(11)
H8 H -0.0166(5) 0.4330(7) 0.6355(19)
C10 C 0.1237(3) 1.0965(3) 0.6429(3)
C11 C 0.3750(3) 0.7170(3) 0.8024(3)
C12 C 0.0745(3) 0.5794(3) 0.8680(3)
C13 C 0.3666(4) 0.7640(4) 1.2519(3)
H9 H 0.3201(4) 0.7953(4) 1.3273(3)
C14 C -0.0240(3) 0.7839(3) 0.8908(3)
H10 H -0.0660(3) 0.8372(3) 0.9638(3)
C15 C -0.2719(3) 0.5905(4) 0.7506(4)
H11 H -0.3172(4) 0.5765(27) 0.6696(6)
H12 H -0.2857(4) 0.6781(10) 0.8090(20)
H13 H -0.3022(6) 0.5241(18) 0.7849(24)
C16 C 0.4977(4) 0.6770(4) 1.0361(3)
H14 H 0.5447(4) 0.6463(4) 0.9609(3)
C17 C 0.4941(4) 0.7492(4) 1.2631(4)
H15 H 0.5374(4) 0.7705(4) 1.3463(4)
C18 C -0.0537(3) 0.6333(3) 0.8645(3)
H16 H -0.1036(3) 0.6198(3) 0.9296(3)
N3 N 0.2319(3) 1.2710(4) 0.5592(3)
C19 C 0.1847(3) 1.1928(4) 0.5960(3)
C20 C 0.1055(4) 0.8775(3) 0.6565(4)
H17 H 0.1366(4) 0.7899(3) 0.6373(4)
C21 C 0.1685(3) 0.9703(4) 0.6154(4)
H18 H 0.2429(3) 0.9475(4) 0.5681(4)
C22 C 0.5008(4) 0.8202(5) 0.6404(4)
H19 H 0.5460(4) 0.8556(5) 0.5848(4)
C23 C 0.3782(3) 0.6427(4) 0.6748(3)
H20 H 0.3373(3) 0.5540(4) 0.6415(3)
C24 C 0.4413(4) 0.6963(5) 0.5926(4)
H21 H 0.4422(4) 0.6450(5) 0.5031(4)
C25 C 0.0189(4) 1.1291(4) 0.7122(4)
H22 H -0.0115(4) 1.2172(4) 0.7332(4)
C26 C 0.4353(4) 0.8426(4) 0.8481(3)
H23 H 0.4347(4) 0.8948(4) 0.9374(3)
C27 C 0.5604(4) 0.7041(5) 1.1553(4)
H24 H 0.6497(4) 0.6911(5) 1.1625(4)
C28 C 0.4973(4) 0.8956(4) 0.7671(4)
H25 H 0.5375(4) 0.9846(4) 0.7998(4)
loop_
_geom_bond_atom_site_label_1
_geom_bond_atom_site_label_2
_geom_bond_site_symmetry_1
_geom_bond_site_symmetry_2
O1 C12 1_555 1_555
N1 C4 1_555 1_555
O2 C5 1_555 1_555
C1 H1 1_555 1_555
N2 C1 1_555 1_555
H2 N2 1_555 1_555
C2 N2 1_555 1_555
C3 C1 1_555 1_555
C4 H3 1_555 1_555
C5 N1 1_555 1_555
C6 C4 1_555 1_555
C7 C6 1_555 1_555
H4 C7 1_555 1_555
C8 C3 1_555 1_555
H5 C8 1_555 1_555
C9 C2 1_555 1_555
H6 C9 1_555 1_555
H7 C9 1_555 1_555
H8 C9 1_555 1_555
C10 C19 1_555 1_555
C11 C4 1_555 1_555
C12 N1 1_555 1_555
C13 C7 1_555 1_555
H9 C13 1_555 1_555
C14 C1 1_555 1_555
H10 C14 1_555 1_555
C15 C2 1_555 1_555
H11 C15 1_555 1_555
H12 C15 1_555 1_555
H13 C15 1_555 1_555
C16 C6 1_555 1_555
H14 C16 1_555 1_555
C17 C13 1_555 1_555
H15 C17 1_555 1_555
C18 C2 1_555 1_555
H16 C18 1_555 1_555
N3 C19 1_555 1_555
C20 C3 1_555 1_555
H17 C20 1_555 1_555
C21 C10 1_555 1_555
H18 C21 1_555 1_555
C22 H19 1_555 1_555
C23 C11 1_555 1_555
H20 C23 1_555 1_555
C24 C22 1_555 1_555
H21 C24 1_555 1_555
C25 C8 1_555 1_555
H22 C25 1_555 1_555
C26 C11 1_555 1_555
H23 C26 1_555 1_555
C27 C16 1_555 1_555
H24 C27 1_555 1_555
C28 C22 1_555 1_555
H25 C28 1_555 1_555
C5 C14 1_555 1_555
C10 C25 1_555 1_555
C12 C18 1_555 1_555
C14 C18 1_555 1_555
C17 C27 1_555 1_555
C20 C21 1_555 1_555
C23 C24 1_555 1_555
C26 C28 1_555 1_555

#END
