
#######################################################################
#
#                 Cambridge Crystallographic Data Centre
#                                CCDC 
#
#######################################################################
#
# If this CIF has been generated from an entry in the Cambridge 
# Structural Database, then it will include bibliographic, chemical, 
# crystal, experimental, refinement or atomic coordinate data resulting 
# from the CCDC's data processing and validation procedures.
#
#######################################################################

data_XOFTOB
_chemical_formula_moiety         'C29 H25 N3 O2'
_chemical_name_systematic        
(+-)-endo,cis-4-((3aSR,4RS,8aRS,8bRS)-2-diphenylmethyl-2,3,3a,4,5,6,7,8,8a,8b-decahydro-1,3-dioxo-1H-pyrrolo[3,4-a]pyrrolizin-4-yl)benzonitrile
_symmetry_cell_setting           monoclinic
_symmetry_space_group_name_H-M   'P 21/c'
_symmetry_Int_Tables_number      14
_space_group_name_Hall           '-P 2ybc'
loop_
_symmetry_equiv_pos_site_id
_symmetry_equiv_pos_as_xyz
1 x,y,z
2 x,1/2-y,1/2+z
3 -x,-y,-z
4 -x,1/2+y,1/2-z
_cell_length_a                   15.258(8)
_cell_length_b                   16.407(11)
_cell_length_c                   9.394(4)
_cell_angle_alpha                90
_cell_angle_beta                 96.87(4)
_cell_angle_gamma                90
_cell_volume                     2334.79
_exptl_crystal_colour            colorless
_exptl_crystal_description       prism
_cell_formula_units_Z            4
loop_
_atom_site_label
_atom_site_type_symbol
_atom_site_fract_x
_atom_site_fract_y
_atom_site_fract_z
O1 O -0.92685(14) -0.98855(13) -0.1526(2)
O2 O -0.74810(14) -0.77434(13) -0.0111(2)
N1 N -0.8290(2) -0.8820(2) -0.1127(3)
N2 N -0.7515(2) -1.0062(2) 0.1589(2)
N3 N -0.3491(2) -0.7501(2) 0.0495(4)
C1 C -0.8844(2) -0.9424(2) -0.0726(3)
C2 C -0.7910(2) -0.8353(2) 0.0007(4)
C3 C -0.8115(2) -0.8754(2) 0.1395(3)
H1 H -0.8323(2) -0.8357(2) 0.2026(3)
C4 C -0.7313(2) -0.9253(2) 0.2142(3)
H2 H -0.7334(2) -0.9256(2) 0.3159(3)
C5 C -0.7102(2) -1.0785(2) 0.2282(4)
H3 H -0.7022(2) -1.0725(2) 0.3306(4)
H4 H -0.6542(2) -1.0893(2) 0.1952(4)
C6 C -0.7776(2) -1.1460(2) 0.1830(4)
H5 H -0.7916(2) -1.1767(2) 0.2643(4)
H6 H -0.7542(2) -1.1826(2) 0.1174(4)
C7 C -0.8610(2) -1.1027(2) 0.1095(3)
H7 H -0.9140(2) -1.1256(2) 0.1385(3)
H8 H -0.8638(2) -1.1048(2) 0.0069(3)
C8 C -0.8462(2) -1.0169(2) 0.1611(3)
H9 H -0.8576(2) -1.0159(2) 0.2594(3)
C9 C -0.8826(2) -0.9395(2) 0.0904(3)
H10 H -0.9394(2) -0.9256(2) 0.1175(3)
C10 C -0.8119(2) -0.8645(2) -0.2630(3)
H11 H -0.7845(2) -0.8117(2) -0.2597(3)
C11 C -0.8993(2) -0.8547(2) -0.3591(3)
C12 C -0.9585(2) -0.7972(2) -0.3230(3)
H12 H -0.9441(2) -0.7660(2) -0.2370(3)
C13 C -1.0367(2) -0.7833(2) -0.4078(4)
H13 H -1.0773(2) -0.7433(2) -0.3799(4)
C14 C -1.0575(2) -0.8281(3) -0.5313(4)
H14 H -1.1122(2) -0.8186(3) -0.5908(4)
C15 C -0.9995(3) -0.8851(2) -0.5678(3)
H15 H -1.0138(3) -0.9164(2) -0.6537(3)
C16 C -0.9200(2) -0.8989(2) -0.4837(4)
H16 H -0.8788(2) -0.9384(2) -0.5109(4)
C17 C -0.7434(2) -0.9231(2) -0.3068(3)
C18 C -0.6657(2) -0.8918(2) -0.3426(3)
H17 H -0.6583(2) -0.8338(2) -0.3448(3)
C19 C -0.5990(2) -0.9428(3) -0.3765(3)
H18 H -0.5447(2) -0.9199(3) -0.4004(3)
C20 C -0.6098(3) -1.0253(3) -0.3756(4)
H19 H -0.5628(3) -1.0608(3) -0.3957(4)
C21 C -0.6035(2) -0.8307(2) 0.2686(3)
H20 H -0.6299(2) -0.8124(2) 0.3507(3)
C22 C -0.6872(3) -1.0571(2) -0.3426(4)
H21 H -0.6970(3) -1.1149(2) -0.3475(4)
C23 C -0.7539(2) -1.0066(2) -0.3085(3)
H22 H -0.8078(2) -1.0295(2) -0.2832(3)
C24 C -0.6431(2) -0.8938(2) 0.1859(3)
C25 C -0.5268(2) -0.7954(2) 0.2361(4)
H23 H -0.5004(2) -0.7514(2) 0.2935(4)
C26 C -0.4881(2) -0.8222(2) 0.1187(4)
C27 C -0.5256(2) -0.8860(2) 0.0374(3)
H24 H -0.4977(2) -0.9056(2) -0.0423(3)
C28 C -0.6025(2) -0.9209(2) 0.0699(3)
H25 H -0.6290(2) -0.9646(2) 0.0117(3)
C29 C -0.4101(3) -0.7826(2) 0.0816(4)
loop_
_geom_bond_atom_site_label_1
_geom_bond_atom_site_label_2
_geom_bond_site_symmetry_1
_geom_bond_site_symmetry_2
O1 C1 1_555 1_555
O2 C2 1_555 1_555
N1 C1 1_555 1_555
N2 C4 1_555 1_555
N3 C29 1_555 1_555
C1 C9 1_555 1_555
C2 N1 1_555 1_555
C3 C2 1_555 1_555
H1 C3 1_555 1_555
C4 C3 1_555 1_555
H2 C4 1_555 1_555
C5 N2 1_555 1_555
H3 C5 1_555 1_555
H4 C5 1_555 1_555
C6 C5 1_555 1_555
H5 C6 1_555 1_555
H6 C6 1_555 1_555
C7 C6 1_555 1_555
H7 C7 1_555 1_555
H8 C7 1_555 1_555
C8 N2 1_555 1_555
H9 C8 1_555 1_555
C9 C3 1_555 1_555
H10 C9 1_555 1_555
C10 N1 1_555 1_555
H11 C10 1_555 1_555
C11 C10 1_555 1_555
C12 C11 1_555 1_555
H12 C12 1_555 1_555
C13 C12 1_555 1_555
H13 C13 1_555 1_555
C14 C13 1_555 1_555
H14 C14 1_555 1_555
C15 C14 1_555 1_555
H15 C15 1_555 1_555
C16 C11 1_555 1_555
H16 C16 1_555 1_555
C17 C10 1_555 1_555
C18 C17 1_555 1_555
H17 C18 1_555 1_555
C19 C18 1_555 1_555
H18 C19 1_555 1_555
C20 C19 1_555 1_555
H19 C20 1_555 1_555
C21 H20 1_555 1_555
C22 C20 1_555 1_555
H21 C22 1_555 1_555
C23 C17 1_555 1_555
H22 C23 1_555 1_555
C24 C4 1_555 1_555
C25 C21 1_555 1_555
H23 C25 1_555 1_555
C26 C25 1_555 1_555
C27 C26 1_555 1_555
H24 C27 1_555 1_555
C28 C24 1_555 1_555
H25 C28 1_555 1_555
C29 C26 1_555 1_555
C7 C8 1_555 1_555
C8 C9 1_555 1_555
C15 C16 1_555 1_555
C21 C24 1_555 1_555
C22 C23 1_555 1_555
C27 C28 1_555 1_555

#END
