
#######################################################################
#
#                 Cambridge Crystallographic Data Centre
#                                CCDC 
#
#######################################################################
#
# If this CIF has been generated from an entry in the Cambridge 
# Structural Database, then it will include bibliographic, chemical, 
# crystal, experimental, refinement or atomic coordinate data resulting 
# from the CCDC's data processing and validation procedures.
#
#######################################################################

data_XOFVET
_chemical_formula_moiety         'C24 H19 N3 O5'
_chemical_name_systematic        
(+-)-endo,trans-4-((3aSR,4RS,8aSR,8bRS)-2-[(1,3-benzodioxol-5-yl)methyl]-2,3,3a,4,5,6,7,8,8a,8b-decahydro-1,3,6-trioxo-1H-pyrrolo[3,4-a]pyrrolizin-4-yl)benzonitrile
_symmetry_cell_setting           monoclinic
_symmetry_space_group_name_H-M   'P 21/c'
_symmetry_Int_Tables_number      14
_space_group_name_Hall           '-P 2ybc'
loop_
_symmetry_equiv_pos_site_id
_symmetry_equiv_pos_as_xyz
1 x,y,z
2 x,1/2-y,1/2+z
3 -x,-y,-z
4 -x,1/2+y,1/2-z
_cell_length_a                   11.748(10)
_cell_length_b                   23.233(32)
_cell_length_c                   7.593(8)
_cell_angle_alpha                90
_cell_angle_beta                 93.82(8)
_cell_angle_gamma                90
_cell_volume                     2067.84
_exptl_crystal_colour            colorless
_exptl_crystal_description       prism
_chemical_melting_point          183-186deg.C
_cell_formula_units_Z            4
loop_
_atom_site_label
_atom_site_type_symbol
_atom_site_fract_x
_atom_site_fract_y
_atom_site_fract_z
O1 O 0.0979(4) 0.2197(2) 0.5532(6)
O2 O -0.0572(4) 0.0823(2) -0.1637(6)
O3 O 0.1589(4) 0.0268(2) 0.5694(5)
O4 O 0.6831(4) 0.1472(2) 0.5235(7)
O5 O 0.6002(4) 0.0575(2) 0.5315(7)
N1 N 0.0054(4) 0.1237(2) 0.0986(6)
N2 N 0.1473(4) 0.1249(2) 0.5910(5)
N3 N 0.6410(6) 0.0947(3) 0.0791(9)
C1 C 0.0808(5) 0.1688(3) 0.5212(7)
C2 C -0.0133(5) 0.1438(2) 0.3984(7)
H1 H -0.0845(5) 0.1459(2) 0.4533(7)
C3 C -0.0254(5) 0.1714(2) 0.2153(7)
H2 H 0.0283(5) 0.2023(2) 0.2087(7)
C4 C 0.0662(5) 0.0770(2) 0.1873(7)
H3 H 0.0412(5) 0.0412(2) 0.1346(7)
C5 C 0.0232(4) 0.0812(2) 0.3779(7)
H4 H -0.0395(4) 0.0555(2) 0.3923(7)
C6 C 0.1153(5) 0.0720(3) 0.5226(7)
C7 C -0.1415(6) 0.1898(3) 0.1339(9)
H5 H -0.1532(6) 0.2305(3) 0.1461(9)
H6 H -0.2012(6) 0.1695(3) 0.1878(9)
C8 C -0.1370(6) 0.1723(3) -0.0576(9)
H7 H -0.1053(6) 0.2029(3) -0.1239(9)
H8 H -0.2113(6) 0.1630(3) -0.1101(9)
C9 C -0.0599(5) 0.1208(3) -0.0558(9)
C10 C 0.1947(5) 0.0821(2) 0.1777(6)
C11 C 0.2583(5) 0.0329(3) 0.1536(8)
H9 H 0.2207(5) -0.0038(3) 0.1494(8)
C12 C 0.3747(5) 0.0365(3) 0.1347(8)
H10 H 0.4190(5) 0.0023(3) 0.1208(8)
C13 C 0.4272(5) 0.0894(3) 0.1379(7)
C14 C 0.3658(6) 0.1383(3) 0.1647(8)
H11 H 0.4041(6) 0.1748(3) 0.1721(8)
C15 C 0.2509(5) 0.1347(3) 0.1835(8)
H12 H 0.2077(5) 0.1690(3) 0.2017(8)
C16 C 0.5463(7) 0.0933(3) 0.1071(9)
C17 C 0.2356(5) 0.1319(3) 0.7339(7)
H13 H 0.2343(5) 0.0989(3) 0.8100(7)
H14 H 0.2182(5) 0.1652(3) 0.8019(7)
C18 C 0.3549(5) 0.1390(3) 0.6731(7)
C19 C 0.5157(6) 0.1993(3) 0.6175(11)
H15 H 0.5508(6) 0.2365(3) 0.6133(11)
C20 C 0.5726(5) 0.1516(3) 0.5755(8)
C21 C 0.5248(5) 0.0987(3) 0.5833(8)
C22 C 0.4165(6) 0.0898(3) 0.6291(7)
H16 H 0.3834(6) 0.0521(3) 0.6309(7)
C23 C 0.4046(6) 0.1919(3) 0.6661(11)
H17 H 0.3606(6) 0.2249(3) 0.6955(11)
C24 C 0.7069(6) 0.0870(3) 0.5174(10)
H18 H 0.7600(6) 0.0764(3) 0.6134(10)
H19 H 0.7389(6) 0.0774(3) 0.4081(10)
loop_
_geom_bond_atom_site_label_1
_geom_bond_atom_site_label_2
_geom_bond_site_symmetry_1
_geom_bond_site_symmetry_2
O1 C1 1_555 1_555
O2 C9 1_555 1_555
O3 C6 1_555 1_555
O4 C20 1_555 1_555
O5 C21 1_555 1_555
N1 C3 1_555 1_555
N2 C1 1_555 1_555
N3 C16 1_555 1_555
C1 C2 1_555 1_555
C2 H1 1_555 1_555
C3 C2 1_555 1_555
H2 C3 1_555 1_555
C4 N1 1_555 1_555
H3 C4 1_555 1_555
C5 C2 1_555 1_555
H4 C5 1_555 1_555
C6 N2 1_555 1_555
C7 C3 1_555 1_555
H5 C7 1_555 1_555
H6 C7 1_555 1_555
C8 C7 1_555 1_555
H7 C8 1_555 1_555
H8 C8 1_555 1_555
C9 N1 1_555 1_555
C10 C4 1_555 1_555
C11 C10 1_555 1_555
H9 C11 1_555 1_555
C12 C11 1_555 1_555
H10 C12 1_555 1_555
C13 C12 1_555 1_555
C14 C13 1_555 1_555
H11 C14 1_555 1_555
C15 C10 1_555 1_555
H12 C15 1_555 1_555
C16 C13 1_555 1_555
C17 N2 1_555 1_555
H13 C17 1_555 1_555
H14 C17 1_555 1_555
C18 C17 1_555 1_555
C19 H15 1_555 1_555
C20 C19 1_555 1_555
C21 C20 1_555 1_555
C22 C18 1_555 1_555
H16 C22 1_555 1_555
C23 C18 1_555 1_555
H17 C23 1_555 1_555
C24 O4 1_555 1_555
H18 C24 1_555 1_555
H19 C24 1_555 1_555
O5 C24 1_555 1_555
C4 C5 1_555 1_555
C5 C6 1_555 1_555
C8 C9 1_555 1_555
C14 C15 1_555 1_555
C19 C23 1_555 1_555
C21 C22 1_555 1_555

#END
