
#######################################################################
#
#                 Cambridge Crystallographic Data Centre
#                                CCDC 
#
#######################################################################
#
# If this CIF has been generated from an entry in the Cambridge 
# Structural Database, then it will include bibliographic, chemical, 
# crystal, experimental, refinement or atomic coordinate data resulting 
# from the CCDC's data processing and validation procedures.
#
#######################################################################

data_XOFVAP
_chemical_formula_moiety         'C28 H29 Br1 N2 O2'
_chemical_name_systematic        
(3RS,3aRS,6RS,6aSR)-6-(4-bromophenyl)-2-diphenylmethyl-1,2,3,3a,4,5,6,6a-octahydro-3-hydroxy-4,4,5-trimethylpyrrolo[3,4-c]pyrrol-1-one
_symmetry_cell_setting           orthorhombic
_symmetry_space_group_name_H-M   'P b c a'
_symmetry_Int_Tables_number      61
_space_group_name_Hall           '-P 2ac 2ab'
loop_
_symmetry_equiv_pos_site_id
_symmetry_equiv_pos_as_xyz
1 x,y,z
2 1/2+x,y,1/2-z
3 x,1/2-y,1/2+z
4 1/2-x,1/2+y,z
5 -x,-y,-z
6 1/2-x,-y,1/2+z
7 -x,1/2+y,1/2-z
8 1/2+x,1/2-y,-z
_cell_length_a                   12.204(5)
_cell_length_b                   17.055(13)
_cell_length_c                   23.449(18)
_cell_angle_alpha                90
_cell_angle_beta                 90
_cell_angle_gamma                90
_cell_volume                     4880.66
_exptl_crystal_colour            colorless
_exptl_crystal_description       prism
_chemical_melting_point          'decomposes above 215 deg.C'
_cell_formula_units_Z            8
loop_
_atom_site_label
_atom_site_type_symbol
_atom_site_fract_x
_atom_site_fract_y
_atom_site_fract_z
Br1 Br 0.17654(8) 0.97358(5) 0.05469(4)
O1 O 0.1733(4) 1.2542(2) 0.2240(2)
N1 N -0.0330(4) 1.3435(3) 0.0811(2)
O2 O -0.1639(3) 1.3577(2) 0.2450(2)
H1 H -0.2138(3) 1.3252(2) 0.2539(2)
C1 C 0.0772(5) 1.3216(4) 0.1007(3)
H2 H 0.1296(5) 1.3510(4) 0.0790(3)
N2 N -0.0122(5) 1.2743(3) 0.2295(2)
C2 C -0.0404(5) 1.2178(4) 0.2740(3)
H3 H -0.1111(5) 1.2340(4) 0.2875(3)
C3 C -0.0591(6) 1.1361(4) 0.2520(3)
C4 C -0.1563(6) 1.0971(4) 0.2677(3)
H4 H -0.2071(6) 1.1223(4) 0.2931(3)
C5 C -0.1758(6) 1.0225(5) 0.2465(3)
H5 H -0.2435(6) 0.9968(5) 0.2557(3)
C6 C 0.1439(8) 1.0807(4) 0.0702(3)
C7 C 0.0806(5) 1.3498(3) 0.1633(3)
H6 H 0.1385(5) 1.3873(3) 0.1684(3)
C8 C 0.0391(6) 1.1054(4) 0.0692(3)
H7 H -0.0173(6) 1.0681(4) 0.0605(3)
C9 C -0.0662(5) 1.4130(4) 0.1146(3)
C10 C 0.2069(6) 1.2088(4) 0.0916(2)
H8 H 0.2644(6) 1.2455(4) 0.0998(2)
C11 C -0.0973(5) 1.3245(4) 0.2031(3)
H9 H -0.1391(5) 1.2958(4) 0.1754(3)
C12 C 0.0341(7) 1.2247(5) 0.3263(3)
C13 C 0.0892(6) 1.2875(4) 0.2089(3)
C14 C -0.1020(7) 0.9849(4) 0.2136(3)
H10 H -0.1168(7) 0.9329(4) 0.1999(3)
C15 C -0.0054(6) 1.0219(5) 0.1989(3)
H11 H 0.0483(6) 0.9955(5) 0.1759(3)
C16 C 0.0994(6) 1.2353(4) 0.0907(2)
C17 C -0.1906(5) 1.4247(3) 0.1095(2)
H12 H -0.2114(5) 1.4396(3) 0.0715(2)
H13 H -0.2254(5) 1.3761(3) 0.1193(2)
H14 H -0.2133(5) 1.4647(3) 0.1358(2)
C18 C -0.0314(5) 1.3876(3) 0.1736(3)
H15 H -0.0258(5) 1.4320(3) 0.1985(3)
C19 C 0.0133(6) 1.0972(5) 0.2182(3)
H16 H 0.0789(6) 1.1241(5) 0.2070(3)
C20 C -0.0093(5) 1.4892(3) 0.0983(3)
H17 H 0.0684(5) 1.4810(3) 0.1007(3)
H18 H -0.0287(5) 1.5033(3) 0.0600(3)
H19 H -0.0302(5) 1.5306(3) 0.1238(3)
C21 C 0.1803(8) 1.1829(5) 0.3866(4)
H20 H 0.2398(8) 1.1474(5) 0.3939(4)
C22 C 0.1175(7) 1.1734(4) 0.3384(3)
H21 H 0.1311(7) 1.1308(4) 0.3125(3)
C23 C -0.0403(5) 1.3512(3) 0.0196(3)
H22 H -0.0183(5) 1.3032(3) 0.0015(3)
H23 H -0.1143(5) 1.3634(3) 0.0089(3)
H24 H 0.0073(5) 1.3929(3) 0.0077(3)
C24 C 0.2303(6) 1.1308(5) 0.0817(3)
H25 H 0.3045(6) 1.1122(5) 0.0830(3)
C25 C 0.1587(9) 1.2421(7) 0.4241(4)
H26 H 0.2026(9) 1.2476(7) 0.4578(4)
C26 C 0.0155(6) 1.2855(5) 0.3643(4)
H27 H -0.0420(6) 1.3220(5) 0.3555(4)
C27 C 0.0765(9) 1.2942(6) 0.4128(5)
H28 H 0.0617(9) 1.3355(6) 0.4395(5)
C28 C 0.0171(6) 1.1834(4) 0.0803(3)
H29 H -0.0574(6) 1.2014(4) 0.0808(3)
loop_
_geom_bond_atom_site_label_1
_geom_bond_atom_site_label_2
_geom_bond_site_symmetry_1
_geom_bond_site_symmetry_2
Br1 C6 1_555 1_555
O1 C13 1_555 1_555
N1 C1 1_555 1_555
O2 H1 1_555 1_555
C1 H2 1_555 1_555
N2 C2 1_555 1_555
C2 H3 1_555 1_555
C3 C2 1_555 1_555
C4 C3 1_555 1_555
H4 C4 1_555 1_555
C5 C4 1_555 1_555
H5 C5 1_555 1_555
C6 C8 1_555 1_555
C7 C1 1_555 1_555
H6 C7 1_555 1_555
C8 H7 1_555 1_555
C9 N1 1_555 1_555
C10 H8 1_555 1_555
C11 O2 1_555 1_555
H9 C11 1_555 1_555
C12 C2 1_555 1_555
C13 N2 1_555 1_555
C14 C5 1_555 1_555
H10 C14 1_555 1_555
C15 C14 1_555 1_555
H11 C15 1_555 1_555
C16 C1 1_555 1_555
C17 C9 1_555 1_555
H12 C17 1_555 1_555
H13 C17 1_555 1_555
H14 C17 1_555 1_555
C18 C7 1_555 1_555
H15 C18 1_555 1_555
C19 C3 1_555 1_555
H16 C19 1_555 1_555
C20 C9 1_555 1_555
H17 C20 1_555 1_555
H18 C20 1_555 1_555
H19 C20 1_555 1_555
C21 H20 1_555 1_555
C22 C12 1_555 1_555
H21 C22 1_555 1_555
C23 N1 1_555 1_555
H22 C23 1_555 1_555
H23 C23 1_555 1_555
H24 C23 1_555 1_555
C24 C6 1_555 1_555
H25 C24 1_555 1_555
C25 C21 1_555 1_555
H26 C25 1_555 1_555
C26 C12 1_555 1_555
H27 C26 1_555 1_555
C27 C25 1_555 1_555
H28 C27 1_555 1_555
C28 C8 1_555 1_555
H29 C28 1_555 1_555
N2 C11 1_555 1_555
C7 C13 1_555 1_555
C9 C18 1_555 1_555
C10 C16 1_555 1_555
C10 C24 1_555 1_555
C11 C18 1_555 1_555
C15 C19 1_555 1_555
C16 C28 1_555 1_555
C21 C22 1_555 1_555
C26 C27 1_555 1_555

#END
