
#######################################################################
#
#                 Cambridge Crystallographic Data Centre
#                                CCDC 
#
#######################################################################
#
# If this CIF has been generated from an entry in the Cambridge 
# Structural Database, then it will include bibliographic, chemical, 
# crystal, experimental, refinement or atomic coordinate data resulting 
# from the CCDC's data processing and validation procedures.
#
#######################################################################

data_XOGBEC
_chemical_formula_moiety         'C18 H20 F1 N3 O3,C2 H6 O1'
_chemical_name_systematic        
'N-ethyl-2-(8-(4-fluorobenzoyl)-6-oxo-1,2,3,4,6,7-hexahydropyrrolo[1,2-a]pyrimidin-7-yl)acetamide ethanol solvate'
_symmetry_cell_setting           triclinic
_symmetry_space_group_name_H-M   'P -1'
_symmetry_Int_Tables_number      2
_space_group_name_Hall           '-P 1'
loop_
_symmetry_equiv_pos_site_id
_symmetry_equiv_pos_as_xyz
1 x,y,z
2 -x,-y,-z
_cell_length_a                   8.9553(13)
_cell_length_b                   9.9570(14)
_cell_length_c                   12.2938(17)
_cell_angle_alpha                107.762(2)
_cell_angle_beta                 97.915(2)
_cell_angle_gamma                98.959(2)
_cell_volume                     1011.04
_exptl_crystal_colour            colorless
_exptl_crystal_description       block
_cell_formula_units_Z            2
loop_
_atom_site_label
_atom_site_type_symbol
_atom_site_fract_x
_atom_site_fract_y
_atom_site_fract_z
F1 F 0.1976(3) -0.4479(3) 0.4484(2)
N1 N 0.2136(3) 0.1988(3) 1.1017(2)
H1 H 0.1376 0.1259 1.0798
N2 N 0.4386(3) 0.3193(3) 1.0690(2)
N3 N 0.8456(3) 0.1491(4) 0.8430(3)
O1 O 0.1131(2) -0.0661(2) 0.93255(18)
O2 O 0.6496(3) 0.3911(3) 0.9982(2)
O3 O 0.6605(3) 0.1836(3) 0.7148(2)
C1 C 0.2051(5) -0.3445(5) 0.5532(3)
C2 C 0.2358(4) -0.2023(5) 0.5601(3)
H2 H 0.2514 -0.1770 0.4951
C3 C 0.2429(4) -0.0978(4) 0.6656(3)
H3 H 0.2655 -0.0009 0.6722
C4 C 0.2164(3) -0.1364(3) 0.7627(3)
C5 C 0.1830(4) -0.2818(4) 0.7509(3)
H4 H 0.1631 -0.3089 0.8143
C6 C 0.1791(5) -0.3870(4) 0.6455(4)
H5 H 0.1591 -0.4842 0.6380
C7 C 0.2139(3) -0.0295(3) 0.8783(3)
C8 C 0.3220(3) 0.1034(3) 0.9262(3)
C9 C 0.3153(3) 0.2021(3) 1.0339(3)
C10 C 0.2239(4) 0.3138(4) 1.2131(3)
H6 H 0.1800 0.2730 1.2668
H7 H 0.1660 0.3841 1.2004
C11 C 0.3906(5) 0.3858(5) 1.2639(4)
H8 H 0.3971 0.4671 1.3336
H9 H 0.4449 0.3181 1.2858
C12 C 0.4666(4) 0.4376(4) 1.1784(3)
H10 H 0.4249 0.5173 1.1662
H11 H 0.5767 0.4712 1.2085
C13 C 0.5309(4) 0.3059(4) 0.9867(3)
C14 C 0.4590(3) 0.1687(3) 0.8844(3)
H12 H 0.4206 0.1952 0.8169
C15 C 0.5803(4) 0.0779(4) 0.8537(3)
H13 H 0.6321 0.0665 0.9240
H14 H 0.5290 -0.0173 0.8005
C16 C 0.6991(4) 0.1441(4) 0.7985(3)
C17 C 0.9719(5) 0.2048(5) 0.7905(5)
H15 H 1.0532 0.1512 0.7934
H16 H 0.9323 0.1909 0.7095
C18 C 1.0326(7) 0.3529(6) 0.8515(7)
H17 H 0.9531 0.4063 0.8456
H18 H 1.1158 0.3864 0.8183
H19 H 1.0701 0.3667 0.9319
O4 O 0.3886(4) 0.2448(4) 0.6255(3)
H20 H 0.4652 0.2173 0.6477
C19 C 0.1797(6) 0.1632(7) 0.4688(5)
H21 H 0.1294 0.0924 0.4976
H22 H 0.1525 0.1300 0.3853
H23 H 0.1474 0.2524 0.4998
C20 C 0.3459(6) 0.1856(7) 0.5048(4)
H24 H 0.3778 0.0942 0.4783
H25 H 0.3972 0.2499 0.4696
loop_
_geom_bond_atom_site_label_1
_geom_bond_atom_site_label_2
_geom_bond_site_symmetry_1
_geom_bond_site_symmetry_2
F1 C1 1_555 1_555
N1 H1 1_555 1_555
N2 C9 1_555 1_555
N3 C16 1_555 1_555
O1 C7 1_555 1_555
O2 C13 1_555 1_555
O3 C16 1_555 1_555
C1 C2 1_555 1_555
C2 H2 1_555 1_555
C3 C2 1_555 1_555
H3 C3 1_555 1_555
C4 C3 1_555 1_555
C5 C4 1_555 1_555
H4 C5 1_555 1_555
C6 C1 1_555 1_555
H5 C6 1_555 1_555
C7 C4 1_555 1_555
C8 C7 1_555 1_555
C9 N1 1_555 1_555
C10 N1 1_555 1_555
H6 C10 1_555 1_555
H7 C10 1_555 1_555
C11 C10 1_555 1_555
H8 C11 1_555 1_555
H9 C11 1_555 1_555
C12 N2 1_555 1_555
H10 C12 1_555 1_555
H11 C12 1_555 1_555
C13 N2 1_555 1_555
C14 C8 1_555 1_555
H12 C14 1_555 1_555
C15 C14 1_555 1_555
H13 C15 1_555 1_555
H14 C15 1_555 1_555
C16 C15 1_555 1_555
C17 N3 1_555 1_555
H15 C17 1_555 1_555
H16 C17 1_555 1_555
C18 C17 1_555 1_555
H17 C18 1_555 1_555
H18 C18 1_555 1_555
H19 C18 1_555 1_555
O4 H20 1_555 1_555
C19 H21 1_555 1_555
H22 C19 1_555 1_555
H23 C19 1_555 1_555
C20 O4 1_555 1_555
H24 C20 1_555 1_555
H25 C20 1_555 1_555
C5 C6 1_555 1_555
C8 C9 1_555 1_555
C11 C12 1_555 1_555
C13 C14 1_555 1_555
C19 C20 1_555 1_555

#END
