
#######################################################################
#
#                 Cambridge Crystallographic Data Centre
#                                CCDC 
#
#######################################################################
#
# If this CIF has been generated from an entry in the Cambridge 
# Structural Database, then it will include bibliographic, chemical, 
# crystal, experimental, refinement or atomic coordinate data resulting 
# from the CCDC's data processing and validation procedures.
#
#######################################################################

data_XOGBIG
_chemical_formula_moiety         'C18 H18 Cl2 N2 O5'
_chemical_name_systematic        
't-butyl (3-(3,4-dichloro-5-oxo-2,5-dihydrofuran-2-yl)-1-methyl-2-oxo-2,3-dihydro-1H-indol-3-yl)carbamate'
_symmetry_cell_setting           orthorhombic
_symmetry_space_group_name_H-M   'P 21 21 21'
_symmetry_Int_Tables_number      19
_space_group_name_Hall           'P 2ac 2ab'
loop_
_symmetry_equiv_pos_site_id
_symmetry_equiv_pos_as_xyz
1 x,y,z
2 1/2+x,1/2-y,-z
3 -x,1/2+y,1/2-z
4 1/2-x,-y,1/2+z
_cell_length_a                   8.5564(8)
_cell_length_b                   9.1450(8)
_cell_length_c                   24.531(2)
_cell_angle_alpha                90
_cell_angle_beta                 90
_cell_angle_gamma                90
_cell_volume                     1919.51
_exptl_crystal_colour            colorless
_exptl_crystal_description       prism
_cell_formula_units_Z            4
loop_
_atom_site_label
_atom_site_type_symbol
_atom_site_fract_x
_atom_site_fract_y
_atom_site_fract_z
Cl1 Cl 0.75926(6) 1.12898(5) 0.978512(18)
Cl2 Cl 0.78882(5) 0.90239(4) 0.868449(19)
O1 O 0.13030(14) 1.03182(12) 0.71827(5)
O2 O 0.16410(15) 0.83486(13) 0.77477(5)
O3 O 0.53383(14) 0.80876(12) 0.76292(5)
O4 O 0.47265(13) 1.21728(11) 0.85934(4)
O5 O 0.48764(15) 1.33970(12) 0.93853(5)
N1 N 0.30181(16) 1.04451(14) 0.78573(5)
H1 H 0.3108 1.1378 0.7775
N2 N 0.45532(17) 0.73314(14) 0.84834(5)
C1 C -0.1337(2) 0.9279(2) 0.71497(8)
H2 H -0.1716 1.0190 0.7314
H3 H -0.1114 0.8567 0.7438
H4 H -0.2139 0.8885 0.6905
C2 C 0.01378(19) 0.95821(17) 0.68293(7)
C3 C 0.19367(19) 0.95878(17) 0.76016(7)
C4 C 0.40110(19) 0.97861(16) 0.82651(6)
C5 C 0.32593(18) 0.93629(16) 0.88028(6)
C6 C 0.2353(2) 1.01454(18) 0.91628(7)
H5 H 0.2032 1.1115 0.9080
C7 C 0.1916(2) 0.9484(2) 0.96524(7)
H6 H 0.1284 1.0004 0.9905
C8 C 0.2399(2) 0.8067(2) 0.97730(7)
H7 H 0.2106 0.7641 1.0111
C9 C 0.64881(19) 1.12745(17) 0.92131(7)
C10 C 0.65765(19) 1.03876(17) 0.87833(7)
C11 C 0.53902(18) 1.08582(16) 0.83626(6)
H8 H 0.5923 1.1086 0.8010
C12 C 0.0844(2) 0.8205(2) 0.65810(8)
H9 H 0.1008 0.7475 0.6868
H10 H 0.1847 0.8445 0.6410
H11 H 0.0130 0.7811 0.6305
C13 C -0.0149(2) 1.07209(19) 0.63887(7)
H12 H 0.0826 1.0903 0.6190
H13 H -0.0510 1.1632 0.6557
H14 H -0.0946 1.0361 0.6135
C14 C 0.37035(19) 0.79235(18) 0.89221(6)
C15 C 0.3305(2) 0.72570(19) 0.94076(7)
H15 H 0.3633 0.6289 0.9490
C16 C 0.5140(2) 0.58361(18) 0.84615(8)
H16 H 0.6169 0.5791 0.8636
H17 H 0.5231 0.5527 0.8080
H18 H 0.4415 0.5186 0.8653
C17 C 0.47095(19) 0.82993(16) 0.80689(6)
C18 C 0.5299(2) 1.23969(16) 0.91047(7)
loop_
_geom_bond_atom_site_label_1
_geom_bond_atom_site_label_2
_geom_bond_site_symmetry_1
_geom_bond_site_symmetry_2
Cl1 C9 1_555 1_555
Cl2 C10 1_555 1_555
O1 C2 1_555 1_555
O2 C3 1_555 1_555
O3 C17 1_555 1_555
O4 C11 1_555 1_555
O5 C18 1_555 1_555
N1 H1 1_555 1_555
N2 C14 1_555 1_555
C1 H2 1_555 1_555
H3 C1 1_555 1_555
H4 C1 1_555 1_555
C2 C1 1_555 1_555
C3 O1 1_555 1_555
C4 N1 1_555 1_555
C5 C4 1_555 1_555
C6 C5 1_555 1_555
H5 C6 1_555 1_555
C7 C6 1_555 1_555
H6 C7 1_555 1_555
C8 C7 1_555 1_555
H7 C8 1_555 1_555
C9 C10 1_555 1_555
C10 C11 1_555 1_555
C11 C4 1_555 1_555
H8 C11 1_555 1_555
C12 C2 1_555 1_555
H9 C12 1_555 1_555
H10 C12 1_555 1_555
H11 C12 1_555 1_555
C13 C2 1_555 1_555
H12 C13 1_555 1_555
H13 C13 1_555 1_555
H14 C13 1_555 1_555
C14 C5 1_555 1_555
C15 C8 1_555 1_555
H15 C15 1_555 1_555
C16 N2 1_555 1_555
H16 C16 1_555 1_555
H17 C16 1_555 1_555
H18 C16 1_555 1_555
C17 N2 1_555 1_555
C18 O4 1_555 1_555
N1 C3 1_555 1_555
C4 C17 1_555 1_555
C9 C18 1_555 1_555
C14 C15 1_555 1_555

#END
