
#######################################################################
#
#                 Cambridge Crystallographic Data Centre
#                                CCDC 
#
#######################################################################
#
# If this CIF has been generated from an entry in the Cambridge 
# Structural Database, then it will include bibliographic, chemical, 
# crystal, experimental, refinement or atomic coordinate data resulting 
# from the CCDC's data processing and validation procedures.
#
#######################################################################

data_XOGCED
_chemical_formula_moiety         'C45 H33 N3 O3,0.9(H2 O1)'
_chemical_name_systematic        
"N,N',N''-tri(biphenyl-4-yl)benzene-1,3,5-tricarboxamide hydrate"
_symmetry_cell_setting           monoclinic
_symmetry_space_group_name_H-M   'P 21/n'
_symmetry_Int_Tables_number      14
_space_group_name_Hall           '-P 2yn'
loop_
_symmetry_equiv_pos_site_id
_symmetry_equiv_pos_as_xyz
1 x,y,z
2 1/2-x,1/2+y,1/2-z
3 -x,-y,-z
4 1/2+x,1/2-y,1/2+z
_cell_length_a                   18.8071(17)
_cell_length_b                   19.813(2)
_cell_length_c                   30.015(3)
_cell_angle_alpha                90
_cell_angle_beta                 92.139(8)
_cell_angle_gamma                90
_cell_volume                     11176.5
_exptl_crystal_colour            colorless
_exptl_crystal_description       needle
_cell_formula_units_Z            12
loop_
_atom_site_label
_atom_site_type_symbol
_atom_site_fract_x
_atom_site_fract_y
_atom_site_fract_z
C1 C 1.0618(6) 0.6179(6) 0.0961(4)
C2 C 1.0139(6) 0.6293(6) 0.1309(4)
C3 C 0.9125(8) 0.5920(8) 0.0804(5)
C4 C 0.9640(10) 0.5830(8) 0.0464(5)
O1 O 0.6163(3) 0.6994(3) 0.18352(18)
O2 O 0.8741(3) 0.6423(3) 0.35782(17)
O3 O 0.9421(3) 0.7169(3) 0.19165(18)
N1 N 0.7804(4) 0.7111(3) 0.3718(2)
N2 N 0.5856(4) 0.6459(3) 0.2477(2)
C5 C 0.7996(5) 0.6779(4) 0.2960(3)
C6 C 0.8333(5) 0.6749(4) 0.2197(3)
C7 C 0.7624(5) 0.6740(4) 0.2055(3)
C8 C 0.7095(4) 0.6761(3) 0.2370(3)
C9 C 0.8524(5) 0.6757(4) 0.2649(3)
C10 C 0.7294(5) 0.6779(4) 0.2818(3)
C11 C 0.6334(5) 0.6747(4) 0.2204(3)
N3 N 0.8882(4) 0.6289(3) 0.1538(2)
C12 C 0.9415(5) 0.6196(4) 0.1209(3)
C13 C 1.0864(5) 0.5817(4) 0.0177(3)
C14 C 0.7874(4) 0.7150(4) 0.4195(3)
C15 C 1.1817(6) 0.5551(5) -0.0498(4)
C16 C 1.0344(5) 0.5939(4) 0.0541(3)
C17 C 0.4788(5) 0.5956(4) 0.2715(3)
C18 C 0.4757(5) 0.6543(4) 0.2010(3)
C19 C 0.3663(5) 0.6007(4) 0.2281(3)
C20 C 0.8216(5) 0.6766(4) 0.3442(3)
C21 C 0.4038(6) 0.6370(5) 0.1971(4)
C22 C 0.8193(4) 0.6659(4) 0.4448(3)
H1 H 0.8406 0.6289 0.4316
C23 C 0.5134(5) 0.6335(4) 0.2394(3)
C24 C 0.7571(5) 0.7757(5) 0.4852(3)
C25 C 0.7890(5) 0.7264(4) 0.5120(3)
C26 C 0.7293(7) 0.7593(6) 0.6294(4)
C27 C 0.4064(6) 0.5815(4) 0.2658(4)
C28 C 0.8194(5) 0.6723(5) 0.4912(3)
C29 C 0.2905(5) 0.5849(4) 0.2221(4)
C30 C 1.1447(6) 0.5443(5) 0.0251(4)
C31 C 0.8928(5) 0.6746(4) 0.1871(3)
C32 C 0.7905(6) 0.7312(4) 0.5622(3)
C33 C 1.0761(5) 0.6081(5) -0.0246(3)
H2 H 1.0371 0.6357 -0.0312
C34 C 0.2452(5) 0.5872(4) 0.2570(3)
H3 H 0.2640 0.5973 0.2853
C35 C 0.7564(5) 0.7697(4) 0.4384(3)
C36 C 0.7330(6) 0.7569(5) 0.5818(3)
C37 C 0.8484(6) 0.7083(5) 0.5872(3)
H4 H 0.8880 0.6906 0.5736
C38 C 1.1945(6) 0.5309(6) -0.0074(4)
C39 C 1.1248(5) 0.5932(6) -0.0580(3)
H5 H 1.1166 0.6107 -0.0865
C40 C 0.8463(8) 0.7121(5) 0.6336(4)
C41 C 0.2607(6) 0.5710(5) 0.1806(4)
C42 C 0.1874(7) 0.5577(5) 0.1745(5)
H6 H 0.1679 0.5474 0.1464
C43 C 0.7866(8) 0.7365(6) 0.6531(4)
H7 H 0.7857 0.7373 0.6840
C44 C 0.1728(6) 0.5752(5) 0.2520(5)
H8 H 0.1438 0.5774 0.2763
C45 C 0.1452(8) 0.5602(6) 0.2111(6)
H9 H 0.689(3) 0.778(3) 0.5681(18)
H10 H 0.896(5) 0.696(4) 0.653(3)
H11 H 0.388(3) 0.558(3) 0.288(2)
H12 H 0.089(5) 0.555(4) 0.205(3)
H13 H 0.500(5) 0.684(5) 0.178(3)
H14 H 0.379(3) 0.653(3) 0.1708(19)
H15 H 0.507(4) 0.582(4) 0.300(3)
H16 H 0.843(4) 0.585(4) 0.155(2)
H17 H 1.152(3) 0.526(3) 0.056(2)
H18 H 0.294(4) 0.567(3) 0.152(2)
H19 H 1.216(5) 0.550(4) -0.072(3)
H20 H 0.747(3) 0.678(3) 0.171(2)
H21 H 0.845(3) 0.636(3) 0.510(2)
H22 H 0.612(3) 0.629(3) 0.272(2)
H23 H 0.693(4) 0.793(4) 0.640(3)
H24 H 1.254(6) 0.499(6) -0.006(3)
H25 H 0.696(3) 0.681(3) 0.3028(19)
H26 H 0.909(3) 0.672(3) 0.2759(18)
H27 H 0.744(4) 0.747(4) 0.356(3)
H28 H 0.726(3) 0.812(3) 0.418(2)
H29 H 0.724(4) 0.822(4) 0.494(2)
O4 O 0.1883(3) 0.6882(2) 0.83646(16)
O5 O 0.4282(3) 0.5779(3) 0.78341(17)
N4 N 0.1012(4) 0.6430(3) 0.7918(2)
O6 O 0.2593(3) 0.6187(3) 0.61113(17)
C46 C 0.2199(4) 0.6591(3) 0.7631(3)
C47 C 0.3410(4) 0.6436(3) 0.7433(3)
C48 C 0.3194(4) 0.6478(4) 0.6984(3)
N5 N 0.4664(4) 0.6670(3) 0.7419(2)
N6 N 0.1789(4) 0.7033(4) 0.6240(2)
C49 C 0.2484(4) 0.6560(4) 0.6858(2)
C50 C 0.0618(5) 0.7616(4) 0.4491(3)
C51 C 0.1964(5) 0.6614(4) 0.7181(3)
C52 C 0.2892(5) 0.6498(3) 0.7748(3)
C53 C 0.5397(5) 0.6645(4) 0.7513(2)
C54 C 0.0774(6) 0.7843(4) 0.3718(3)
C55 C 0.5783(4) 0.7236(4) 0.7441(2)
C56 C 0.5768(5) 0.6073(4) 0.7645(2)
C57 C 0.1677(4) 0.6649(4) 0.7995(3)
C58 C 0.2293(5) 0.6580(4) 0.6364(3)
C59 C 0.1511(5) 0.7166(4) 0.5797(3)
C60 C 0.6891(4) 0.6661(4) 0.7635(2)
C61 C 0.4151(4) 0.6255(4) 0.7578(3)
C62 C 0.0933(4) 0.7461(4) 0.4942(3)
C63 C 0.6519(5) 0.7251(4) 0.7503(2)
C64 C 0.1064(5) 0.7707(4) 0.4137(3)
C65 C 0.8078(6) 0.6154(5) 0.7506(3)
C66 C -0.0107(5) 0.7642(4) 0.4408(3)
C67 C 0.0471(4) 0.6448(4) 0.8253(3)
C68 C 0.7680(4) 0.6685(4) 0.7661(2)
C69 C 0.0918(5) 0.7562(4) 0.5747(3)
C70 C 0.0058(6) 0.7883(4) 0.3635(3)
C71 C 0.0628(5) 0.7711(4) 0.5327(3)
C72 C 0.6504(5) 0.6076(4) 0.7708(3)
C73 C 0.0355(5) 0.7038(5) 0.8484(3)
C74 C 0.8042(6) 0.7265(5) 0.7795(3)
C75 C 0.9138(6) 0.6802(6) 0.7578(3)
C76 C 0.8758(7) 0.7329(5) 0.7752(3)
C77 C -0.0634(5) 0.6466(7) 0.8843(3)
C78 C 0.1520(6) 0.7068(5) 0.4998(3)
C79 C -0.0381(5) 0.7762(4) 0.3984(3)
C80 C 0.8810(6) 0.6210(6) 0.7466(3)
C81 C 0.0071(5) 0.5878(5) 0.8314(3)
C82 C -0.0212(6) 0.7038(7) 0.8783(3)
C83 C -0.1851(7) 0.6165(7) 0.9029(5)
H30 H -0.1889 0.5938 0.8758
C84 C 0.1826(6) 0.6915(6) 0.5417(3)
C85 C -0.2338(16) 0.6505(18) 0.9728(10)
H31 H -0.2697 0.6505 0.9932
C86 C -0.1237(6) 0.6489(7) 0.9154(5)
C87 C -0.1764(11) 0.6804(18) 0.9825(9)
H32 H -0.1726 0.7030 1.0097
C88 C -0.0465(6) 0.5896(7) 0.8614(4)
C89 C -0.1189(7) 0.6818(8) 0.9556(5)
H33 H -0.0775 0.7046 0.9645
C90 C -0.2451(7) 0.6177(9) 0.9325(7)
H34 H -0.2884 0.5975 0.9247
H35 H 0.673(3) 0.565(3) 0.7839(17)
H36 H 0.306(3) 0.651(2) 0.8088(18)
H37 H 0.443(3) 0.705(3) 0.7260(19)
H38 H 0.107(3) 0.804(3) 0.347(2)
H39 H -0.091(3) 0.774(3) 0.3962(17)
H40 H 0.778(3) 0.765(3) 0.7914(17)
H41 H -0.012(3) 0.799(3) 0.336(2)
H42 H -0.034(4) 0.752(4) 0.890(2)
H43 H 0.069(4) 0.778(4) 0.605(3)
H44 H 0.965(4) 0.683(3) 0.756(2)
H45 H 0.156(4) 0.771(3) 0.418(2)
H46 H 0.017(4) 0.805(4) 0.530(2)
H47 H -0.041(3) 0.755(3) 0.464(2)
H48 H 0.080(6) 0.612(6) 0.760(4)
H49 H 0.223(5) 0.658(5) 0.548(3)
H50 H 0.681(5) 0.769(5) 0.747(3)
H51 H 0.792(4) 0.573(4) 0.744(2)
H52 H 0.019(3) 0.548(3) 0.813(2)
H53 H 0.182(4) 0.692(4) 0.475(3)
H54 H 0.351(3) 0.639(3) 0.6738(19)
H55 H 0.555(3) 0.770(3) 0.7292(19)
H56 H 0.148(4) 0.663(3) 0.704(2)
H57 H 0.555(3) 0.564(3) 0.773(2)
H58 H 0.895(4) 0.774(4) 0.786(2)
H59 H -0.084(5) 0.552(5) 0.863(3)
H60 H 0.167(5) 0.746(5) 0.649(3)
H61 H 0.067(4) 0.751(4) 0.848(3)
H62 H 0.910(4) 0.581(4) 0.733(3)
O7 O 0.1324(18) 0.5164(10) 0.5540(8)
O8 O 0.990(3) 0.428(2) 0.475(2)
O9 O 0.904(4) 0.4867(19) 0.5076(12)
C91? C 1.0237(11) 0.6638(11) 0.0665(7)
C92? C 0.9721(12) 0.6792(11) 0.1008(8)
C93? C 0.9452(14) 0.5610(12) 0.1016(7)
C94? C 0.9920(18) 0.5455(11) 0.0672(10)
C95? C 0.6282(18) 0.5735(18) 0.5052(6)
C96? C 0.6745(8) 0.5309(10) 0.4678(6)
C97? C 0.496(2) 0.6780(11) 0.5279(11)
C98? C 0.5632(12) 0.5104(13) 0.4852(8)
C99? C 0.5990(11) 0.4861(10) 0.4477(7)
O10? O 0.7867(3) 0.5270(3) 0.15817(17)
O11? O 0.9595(3) 0.4406(3) 0.28386(17)
O12? O 0.6253(3) 0.5787(3) 0.33078(16)
N7? N 0.6725(4) 0.4996(3) 0.1713(2)
C100? C 0.7591(5) 0.5097(4) 0.2340(3)
C101? C 0.8514(5) 0.5000(4) 0.2917(3)
C102? C 0.5978(4) 0.4852(4) -0.0149(3)
C103? C 0.8290(5) 0.5022(4) 0.2470(3)
C104? C 0.6161(4) 0.4897(4) 0.0340(3)
N8? N 0.9581(5) 0.5281(4) 0.3347(2)
C105? C 0.7081(5) 0.5180(4) 0.2657(3)
C106? C 0.7391(5) 0.5125(4) 0.1839(3)
C107? C 0.6525(4) 0.4970(4) 0.1248(3)
C108? C 0.7989(6) 0.5082(4) 0.3227(3)
C109? C 0.7297(5) 0.5185(4) 0.3112(3)
C110? C 0.6750(5) 0.5403(4) 0.3433(3)
C111? C 0.6522(5) 0.5538(5) 0.0990(3)
C112? C 0.5647(6) 0.4741(6) -0.1060(4)
C113? C 0.5613(5) 0.5357(5) -0.0855(3)
C114? C 0.6349(5) 0.5491(4) 0.0538(3)
H63? H 0.6361 0.5879 0.0365
N9? N 0.6837(5) 0.5193(6) 0.3850(3)
C115? C 1.1446(7) 0.4824(6) 0.3622(3)
C116? C 0.6270(8) 0.6088(8) 0.4223(4)
C117? C 0.9277(5) 0.4866(5) 0.3032(3)
C118? C 0.6307(6) 0.4371(5) 0.1051(3)
C119? C 0.6021(7) 0.4249(6) -0.0370(4)
C120? C 1.2560(8) 0.5522(10) 0.3846(4)
C121? C 0.5908(7) 0.6407(7) 0.4600(5)
C122? C 0.5757(5) 0.5400(5) -0.0391(3)
C123? C 0.5851(8) 0.4196(6) -0.0826(4)
C124? C 1.0740(6) 0.4741(6) 0.3497(3)
C125? C 0.6133(6) 0.4342(5) 0.0598(4)
C126? C 1.1787(8) 0.5412(7) 0.3744(4)
C127? C 1.0309(6) 0.5297(5) 0.3480(3)
C128? C 1.0606(8) 0.5917(6) 0.3617(4)
C129? C 0.6442(8) 0.5443(9) 0.4209(4)
C130? C 1.1322(9) 0.5951(7) 0.3746(4)
H64? H 1.1501 0.6366 0.3841
C131? C 1.3051(10) 0.5060(9) 0.3713(6)
H65? H 1.2913 0.4668 0.3563
C132? C 1.3901(17) 0.5762(16) 0.4027(7)
H66? H 1.4370 0.5836 0.4124
C133? C 1.3520(14) 0.6218(16) 0.4132(10)
H67? H 1.3683 0.6619 0.4261
C134? C 1.3834(9) 0.5216(12) 0.3822(6)
H68? H 1.4211 0.4941 0.3745
C135? C 0.5748(14) 0.5947(14) 0.4911(9)
C136? C 1.2764(9) 0.6065(12) 0.4032(7)
H69? H 1.2423 0.6381 0.4109
C137? C 0.5905(14) 0.6419(9) 0.5789(8)
C138? C 0.5506(15) 0.6199(16) 0.5412(9)
C139? C 0.5428(18) 0.6692(14) 0.6160(7)
C140? C 0.4733(13) 0.5820(13) 0.5512(9)
C141? C 0.461(2) 0.6151(18) 0.6047(13)
H70? H 1.049(4) 0.431(3) 0.340(2)
H71? H 0.601(4) 0.388(4) 0.052(2)
H72? H 0.618(4) 0.392(3) -0.024(2)
H73? H 0.550(3) 0.472(3) -0.132(2)
H74? H 1.174(4) 0.437(4) 0.370(3)
H75? H 0.592(5) 0.375(5) -0.091(3)
H76? H 0.718(4) 0.495(4) 0.390(2)
H77? H 0.537(5) 0.579(5) -0.104(3)
H78? H 0.655(3) 0.514(3) 0.2568(18)
H79? H 0.820(3) 0.517(3) 0.3480(19)
H80? H 0.636(4) 0.474(4) 0.191(3)
H81? H 0.916(4) 0.566(4) 0.338(2)
H82? H 0.863(3) 0.491(3) 0.228(2)
H83? H 0.666(4) 0.602(4) 0.112(2)
H84? H 0.575(5) 0.594(5) -0.030(3)
H85? H 0.640(4) 0.394(5) 0.125(3)
H86? H 1.022(5) 0.623(5) 0.353(3)
C142? C 0.4475(16) 0.7006(11) 0.5809(13)
loop_
_geom_bond_atom_site_label_1
_geom_bond_atom_site_label_2
_geom_bond_site_symmetry_1
_geom_bond_site_symmetry_2
C1 C2 1_555 1_555
C2 C12 1_555 1_555
C3 C4 1_555 1_555
C4 C16 1_555 1_555
O1 C11 1_555 1_555
O2 C20 1_555 1_555
O3 C31 1_555 1_555
N1 C14 1_555 1_555
N2 C11 1_555 1_555
C5 C9 1_555 1_555
C6 C7 1_555 1_555
C7 C8 1_555 1_555
C8 C10 1_555 1_555
C9 C6 1_555 1_555
C10 C5 1_555 1_555
C11 C8 1_555 1_555
N3 C12 1_555 1_555
C12 C3 1_555 1_555
C13 C16 1_555 1_555
C14 C22 1_555 1_555
C15 C38 1_555 1_555
C16 C1 1_555 1_555
C17 C23 1_555 1_555
C18 C21 1_555 1_555
C19 C21 1_555 1_555
C20 N1 1_555 1_555
C21 H14 1_555 1_555
C22 H1 1_555 1_555
C23 N2 1_555 1_555
C24 C25 1_555 1_555
C25 C28 1_555 1_555
C26 C36 1_555 1_555
C27 C17 1_555 1_555
C28 C22 1_555 1_555
C29 C19 1_555 1_555
C30 C13 1_555 1_555
C31 C6 1_555 1_555
C32 C25 1_555 1_555
C33 C13 1_555 1_555
H2 C33 1_555 1_555
C34 C29 1_555 1_555
H3 C34 1_555 1_555
C35 C14 1_555 1_555
C36 C32 1_555 1_555
C37 C32 1_555 1_555
H4 C37 1_555 1_555
C38 C30 1_555 1_555
C39 C15 1_555 1_555
H5 C39 1_555 1_555
C40 C37 1_555 1_555
C41 C29 1_555 1_555
C42 C41 1_555 1_555
H6 C42 1_555 1_555
C43 C26 1_555 1_555
H7 C43 1_555 1_555
C44 C34 1_555 1_555
H8 C44 1_555 1_555
C45 C42 1_555 1_555
H9 C36 1_555 1_555
H10 C40 1_555 1_555
H11 C27 1_555 1_555
H12 C45 1_555 1_555
H13 C18 1_555 1_555
H15 C17 1_555 1_555
H16 N3 1_555 1_555
H17 C30 1_555 1_555
H18 C41 1_555 1_555
H19 C15 1_555 1_555
H20 C7 1_555 1_555
H21 C28 1_555 1_555
H22 N2 1_555 1_555
H23 C26 1_555 1_555
H24 C38 1_555 1_555
H25 C10 1_555 1_555
H26 C9 1_555 1_555
H27 N1 1_555 1_555
H28 C35 1_555 1_555
H29 C24 1_555 1_555
O4 C57 1_555 1_555
O5 C61 1_555 1_555
N4 C57 1_555 1_555
O6 C58 1_555 1_555
C46 C51 1_555 1_555
C47 C48 1_555 1_555
C48 C49 1_555 1_555
N5 C53 1_555 1_555
N6 C58 1_555 1_555
C49 C51 1_555 1_555
C50 C62 1_555 1_555
C51 H56 1_555 1_555
C52 C46 1_555 1_555
C53 C55 1_555 1_555
C54 C64 1_555 1_555
C55 C63 1_555 1_555
C56 C53 1_555 1_555
C57 C46 1_555 1_555
C58 C49 1_555 1_555
C59 N6 1_555 1_555
C60 C63 1_555 1_555
C61 C47 1_555 1_555
C62 C71 1_555 1_555
C63 H50 1_555 1_555
C64 C50 1_555 1_555
C65 C68 1_555 1_555
C66 C50 1_555 1_555
C67 N4 1_555 1_555
C68 C60 1_555 1_555
C69 C59 1_555 1_555
C70 C54 1_555 1_555
C71 C69 1_555 1_555
C72 C56 1_555 1_555
C73 C67 1_555 1_555
C74 C68 1_555 1_555
C75 C76 1_555 1_555
C76 C74 1_555 1_555
C77 C82 1_555 1_555
C78 C62 1_555 1_555
C79 C66 1_555 1_555
C80 C65 1_555 1_555
C81 C67 1_555 1_555
C82 C73 1_555 1_555
C83 H30 1_555 1_555
C84 C59 1_555 1_555
C85 H31 1_555 1_555
C86 C77 1_555 1_555
C87 C85 1_555 1_555
H32 C87 1_555 1_555
C88 C77 1_555 1_555
C89 C86 1_555 1_555
H33 C89 1_555 1_555
C90 C83 1_555 1_555
H34 C90 1_555 1_555
H35 C72 1_555 1_555
H36 C52 1_555 1_555
H37 N5 1_555 1_555
H38 C54 1_555 1_555
H39 C79 1_555 1_555
H40 C74 1_555 1_555
H41 C70 1_555 1_555
H42 C82 1_555 1_555
H43 C69 1_555 1_555
H44 C75 1_555 1_555
H45 C64 1_555 1_555
H46 C71 1_555 1_555
H47 C66 1_555 1_555
H48 N4 1_555 1_555
H49 C84 1_555 1_555
H51 C65 1_555 1_555
H52 C81 1_555 1_555
H53 C78 1_555 1_555
H54 C48 1_555 1_555
H55 C55 1_555 1_555
H57 C56 1_555 1_555
H58 C76 1_555 1_555
H59 C88 1_555 1_555
H60 N6 1_555 1_555
H61 C73 1_555 1_555
H62 C80 1_555 1_555
C5 C20 1_555 1_555
N3 C31 1_555 1_555
C18 C23 1_555 1_555
C19 C27 1_555 1_555
C24 C35 1_555 1_555
C33 C39 1_555 1_555
C40 C43 1_555 1_555
C44 C45 1_555 1_555
C47 C52 1_555 1_555
N5 C61 1_555 1_555
C60 C72 1_555 1_555
C70 C79 1_555 1_555
C75 C80 1_555 1_555
C78 C84 1_555 1_555
C81 C88 1_555 1_555
C83 C86 1_555 1_555
C85 C90 1_555 1_555
C87 C89 1_555 1_555

#END
