
#######################################################################
#
#                 Cambridge Crystallographic Data Centre
#                                CCDC 
#
#######################################################################
#
# If this CIF has been generated from an entry in the Cambridge 
# Structural Database, then it will include bibliographic, chemical, 
# crystal, experimental, refinement or atomic coordinate data resulting 
# from the CCDC's data processing and validation procedures.
#
#######################################################################

data_XOGDOO
_chemical_formula_moiety         'C8 H12 N2,2(C7 H6 O4)'
_chemical_name_systematic        
'bis(2,6-Dihydroxybenzoic acid) tetramethylpyrazine'
_symmetry_cell_setting           monoclinic
_symmetry_space_group_name_H-M   'P 21/c'
_symmetry_Int_Tables_number      14
_space_group_name_Hall           '-P 2ybc'
loop_
_symmetry_equiv_pos_site_id
_symmetry_equiv_pos_as_xyz
1 x,y,z
2 -x,1/2+y,1/2-z
3 -x,-y,-z
4 x,1/2-y,1/2+z
_cell_length_a                   9.6944(4)
_cell_length_b                   17.9372(7)
_cell_length_c                   18.6161(6)
_cell_angle_alpha                90
_cell_angle_beta                 91.427(3)
_cell_angle_gamma                90
_cell_volume                     3236.16
_exptl_crystal_colour            colorless
_exptl_crystal_description       block
_cell_formula_units_Z            6
loop_
_atom_site_label
_atom_site_type_symbol
_atom_site_fract_x
_atom_site_fract_y
_atom_site_fract_z
N1 N 0.0692(3) 0.17365(16) 0.12207(14)
C1 C 0.0489(3) 0.22429(19) 0.17439(16)
N2 N 0.2643(3) 0.1887(2) 0.22631(17)
C2 C 0.1814(4) 0.1304(2) 0.11936(19)
C3 C 0.1496(4) 0.2303(2) 0.22779(17)
C4 C 0.2816(4) 0.1393(3) 0.1739(2)
C5 C -0.0799(4) 0.2686(2) 0.1705(2)
H1 H -0.1326 0.2548 0.1283
H2 H -0.0576 0.3207 0.1684
H3 H -0.1330 0.2590 0.2124
C6 C 0.1910(5) 0.0753(3) 0.0595(2)
H4 H 0.1105 0.0792 0.0286
H5 H 0.1968 0.0258 0.0790
H6 H 0.2718 0.0855 0.0324
C7 C 0.1373(5) 0.2842(3) 0.2886(2)
H7 H 0.2164 0.2795 0.3204
H8 H 0.0552 0.2735 0.3145
H9 H 0.1325 0.3340 0.2700
C8 C 0.4118(5) 0.0955(4) 0.1743(3)
H10 H 0.4677 0.1089 0.2156
H11 H 0.4613 0.1060 0.1314
H12 H 0.3906 0.0432 0.1761
O1 O -0.2781(3) 0.25470(16) -0.17101(14)
O2 O -0.1001(3) 0.23967(16) -0.06716(13)
H13 H -0.1407 0.2543 -0.1037
C9 C -0.2984(3) 0.16523(16) -0.07399(15)
O3 O -0.1302(3) 0.15752(17) 0.01881(14)
O4 O -0.3406(3) 0.07306(15) 0.01651(13)
H14 H -0.2667 0.0902 0.0312
C10 C -0.3485(3) 0.19951(18) -0.13870(16)
C11 C -0.3799(4) 0.10809(18) -0.04494(17)
C12 C -0.1695(4) 0.18746(19) -0.03864(17)
C13 C -0.5008(4) 0.0859(2) -0.0786(2)
H15 H -0.5526 0.0474 -0.0594
C14 C -0.4689(4) 0.1774(2) -0.1706(2)
H16 H -0.5004 0.2004 -0.2127
C15 C -0.5448(4) 0.1207(2) -0.1406(2)
H17 H -0.6272 0.1059 -0.1628
H18 H -0.224(4) 0.268(2) -0.148(2)
N3 N 0.6108(3) 0.51562(17) 0.04266(14)
C16 C 0.4978(4) 0.5579(2) 0.04790(17)
C17 C 0.6168(4) 0.4580(2) -0.00306(17)
C18 C 0.5014(5) 0.6200(3) 0.1008(2)
H19 H 0.4144 0.6455 0.0994
H20 H 0.5736 0.6542 0.0891
H21 H 0.5187 0.6003 0.1482
C19 C 0.7469(5) 0.4138(3) -0.0035(3)
H22 H 0.7381 0.3745 -0.0383
H23 H 0.7641 0.3927 0.0433
H24 H 0.8223 0.4457 -0.0157
N3B N 0.3892(3) 0.48438(17) -0.04266(14)
C16B C 0.5022(4) 0.4421(2) -0.04790(17)
C17B C 0.3832(4) 0.5420(2) 0.00306(17)
C18B C 0.4986(5) 0.3800(3) -0.1008(2)
H19B H 0.5856 0.3545 -0.0994
H20B H 0.4264 0.3458 -0.0891
H21B H 0.4813 0.3997 -0.1482
C19B C 0.2531(5) 0.5862(3) 0.0035(3)
H22B H 0.2619 0.6255 0.0383
H23B H 0.2359 0.6073 -0.0433
H24B H 0.1777 0.5543 0.0157
O5 O 1.0513(3) 0.62226(17) 0.15595(15)
C20 C 0.9620(3) 0.52397(19) 0.23016(17)
O6 O 0.8288(3) 0.54939(17) 0.12517(14)
H25 H 0.7583 0.5375 0.1027
C21 C 0.9833(4) 0.4815(2) 0.29308(19)
O7 O 0.7560(3) 0.4608(2) 0.19781(18)
C22 C 1.0995(4) 0.4921(2) 0.33706(19)
H26 H 1.1130 0.4635 0.3783
C23 C 0.8405(4) 0.5095(2) 0.1830(2)
C24 C 1.1937(4) 0.5450(2) 0.31897(19)
H27 H 1.2714 0.5522 0.3485
C25 C 1.1768(4) 0.5876(2) 0.25891(19)
H28 H 1.2426 0.6234 0.2480
O8 O 0.8923(3) 0.42902(19) 0.31298(17)
H29 H 0.8283 0.4272 0.2834
C26 C 1.0620(3) 0.57802(18) 0.21377(17)
H30 H 0.982(5) 0.607(3) 0.135(3)
C27 C 0.2788(4) 0.3292(2) 0.06229(17)
O9 O 0.0682(4) 0.3133(2) 0.00002(19)
H31 H 0.0268 0.2875 -0.0298
O10 O 0.2334(5) 0.2341(2) -0.02325(19)
C28 C 0.4117(5) 0.3034(3) 0.0771(2)
C29 C 0.2325(5) 0.3918(3) 0.0995(2)
C30 C 0.1914(5) 0.2891(3) 0.0087(2)
O11 O 0.1037(4) 0.4210(2) 0.0865(2)
H32 H 0.0634 0.3962 0.0555
O12 O 0.4651(4) 0.2447(3) 0.0450(2)
H33 H 0.4086 0.2277 0.0159
C31 C 0.4407(5) 0.4012(3) 0.1627(2)
H34 H 0.4950 0.4264 0.1966
C32 C 0.4967(5) 0.3415(4) 0.1302(3)
H35 H 0.5860 0.3257 0.1415
C33 C 0.3110(6) 0.4270(3) 0.1496(3)
H36 H 0.2773 0.4678 0.1745
loop_
_geom_bond_atom_site_label_1
_geom_bond_atom_site_label_2
_geom_bond_site_symmetry_1
_geom_bond_site_symmetry_2
N1 C1 1_555 1_555
C1 C3 1_555 1_555
N2 C3 1_555 1_555
C2 N1 1_555 1_555
C3 C7 1_555 1_555
C4 N2 1_555 1_555
C5 C1 1_555 1_555
H1 C5 1_555 1_555
H2 C5 1_555 1_555
H3 C5 1_555 1_555
C6 C2 1_555 1_555
H4 C6 1_555 1_555
H5 C6 1_555 1_555
H6 C6 1_555 1_555
C7 H7 1_555 1_555
H8 C7 1_555 1_555
H9 C7 1_555 1_555
C8 C4 1_555 1_555
H10 C8 1_555 1_555
H11 C8 1_555 1_555
H12 C8 1_555 1_555
O1 C10 1_555 1_555
O2 H13 1_555 1_555
C9 C10 1_555 1_555
O3 C12 1_555 1_555
O4 H14 1_555 1_555
C10 C14 1_555 1_555
C11 C9 1_555 1_555
C12 O2 1_555 1_555
C13 C11 1_555 1_555
H15 C13 1_555 1_555
C14 H16 1_555 1_555
C15 C13 1_555 1_555
H17 C15 1_555 1_555
H18 O1 1_555 1_555
N3 C16 1_555 1_555
C16 C18 1_555 1_555
C17 N3 1_555 1_555
C18 H19 1_555 1_555
H20 C18 1_555 1_555
H21 C18 1_555 1_555
C19 C17 1_555 1_555
H22 C19 1_555 1_555
H23 C19 1_555 1_555
H24 C19 1_555 1_555
O5 C26 1_555 1_555
C20 C21 1_555 1_555
O6 H25 1_555 1_555
C21 C22 1_555 1_555
O7 C23 1_555 1_555
C22 H26 1_555 1_555
C23 C20 1_555 1_555
C24 C22 1_555 1_555
H27 C24 1_555 1_555
C25 C24 1_555 1_555
H28 C25 1_555 1_555
O8 C21 1_555 1_555
H29 O8 1_555 1_555
C26 C20 1_555 1_555
H30 O5 1_555 1_555
C27 C28 1_555 1_555
O9 H31 1_555 1_555
O10 C30 1_555 1_555
C28 O12 1_555 1_555
C29 C27 1_555 1_555
C30 C27 1_555 1_555
O11 C29 1_555 1_555
H32 O11 1_555 1_555
O12 H33 1_555 1_555
C31 H34 1_555 1_555
C32 C28 1_555 1_555
H35 C32 1_555 1_555
C33 C29 1_555 1_555
H36 C33 1_555 1_555
N3B C16B 1_555 1_555
C16B C17 1_555 1_555
C17B C16 1_555 1_555
C18B C16B 1_555 1_555
H19B C18B 1_555 1_555
H20B C18B 1_555 1_555
H21B C18B 1_555 1_555
C19B C17B 1_555 1_555
H22B C19B 1_555 1_555
H23B C19B 1_555 1_555
H24B C19B 1_555 1_555
C2 C4 1_555 1_555
C9 C12 1_555 1_555
O4 C11 1_555 1_555
C14 C15 1_555 1_555
O6 C23 1_555 1_555
C25 C26 1_555 1_555
O9 C30 1_555 1_555
C31 C32 1_555 1_555
C31 C33 1_555 1_555
N3B C17B 1_555 1_555

#END
