
#######################################################################
#
#                 Cambridge Crystallographic Data Centre
#                                CCDC 
#
#######################################################################
#
# If this CIF has been generated from an entry in the Cambridge 
# Structural Database, then it will include bibliographic, chemical, 
# crystal, experimental, refinement or atomic coordinate data resulting 
# from the CCDC's data processing and validation procedures.
#
#######################################################################

data_XOGDII
_chemical_formula_moiety         '2(C8 H12 O4),C8 H12 N2'
_chemical_name_systematic        
'bis(Cyclohexane-1,4-dicarboxylic acid) tetramethylpyrazine'
_symmetry_cell_setting           monoclinic
_symmetry_space_group_name_H-M   'P 21/n'
_symmetry_Int_Tables_number      14
_space_group_name_Hall           '-P 2yn'
loop_
_symmetry_equiv_pos_site_id
_symmetry_equiv_pos_as_xyz
1 x,y,z
2 1/2-x,1/2+y,1/2-z
3 -x,-y,-z
4 1/2+x,1/2-y,1/2+z
_cell_length_a                   5.4960(9)
_cell_length_b                   12.831(2)
_cell_length_c                   17.881(3)
_cell_angle_alpha                90
_cell_angle_beta                 93.872(3)
_cell_angle_gamma                90
_cell_volume                     1258.08
_exptl_crystal_colour            colorless
_exptl_crystal_description       block
_cell_formula_units_Z            2
loop_
_atom_site_label
_atom_site_type_symbol
_atom_site_fract_x
_atom_site_fract_y
_atom_site_fract_z
N1 N 0.1715(3) 0.93495(12) 0.47395(9)
C1 C 0.0252(4) 0.90135(14) 0.52607(11)
C2 C 0.1487(4) 1.03220(15) 0.44781(10)
C3 C 0.3172(5) 1.0645(2) 0.38967(14)
H1 H 0.2821 1.1350 0.3746
H2 H 0.2948 1.0193 0.3470
H3 H 0.4829 1.0598 0.4101
C4 C 0.0581(5) 0.79196(16) 0.55365(16)
H4 H -0.0575 0.7777 0.5903
H5 H 0.2205 0.7834 0.5761
H6 H 0.0323 0.7445 0.5124
N1B N -0.1715(3) 1.06505(12) 0.52605(9)
C1B C -0.0252(4) 1.09865(14) 0.47393(11)
C2B C -0.1487(4) 0.96780(15) 0.55219(10)
C3B C -0.3172(5) 0.9355(2) 0.61033(14)
H1B H -0.2821 0.8650 0.6254
H2B H -0.2948 0.9807 0.6530
H3B H -0.4829 0.9402 0.5899
C4B C -0.0581(5) 1.20804(16) 0.44635(16)
H4B H 0.0575 1.2223 0.4097
H5B H -0.2205 1.2166 0.4239
H6B H -0.0323 1.2555 0.4876
O1 O 0.5318(3) 0.80557(15) 0.43543(10)
H7 H 0.4256 0.8502 0.4374
C5 C 0.6293(4) 0.57734(15) 0.41795(10)
H8 H 0.6447 0.6020 0.4693
H9 H 0.4628 0.5538 0.4074
C6 C 0.6802(3) 0.66739(14) 0.36559(10)
H10 H 0.8422 0.6956 0.3801
C7 C 0.4944(4) 0.75181(15) 0.37403(12)
C8 C 0.8585(4) 0.53818(19) 0.27829(13)
H11 H 0.8515 0.5140 0.2268
H12 H 1.0227 0.5629 0.2912
O2 O 0.5454(3) 0.38137(14) 0.23018(10)
H13 H 0.4181 0.3504 0.2184
C9 C 0.5708(4) 0.39142(15) 0.30387(13)
C10 C 0.6790(4) 0.62827(17) 0.28474(11)
H14 H 0.5161 0.6052 0.2682
H15 H 0.7230 0.6849 0.2524
O3 O 0.3256(4) 0.76615(18) 0.32981(13)
C11 C 0.8016(4) 0.48606(17) 0.40982(12)
H16 H 0.7529 0.4290 0.4411
H17 H 0.9654 0.5068 0.4273
C12 C 0.8030(4) 0.44852(16) 0.32892(12)
H18 H 0.9372 0.3985 0.3269
O4 O 0.4286(4) 0.35642(18) 0.34496(12)
loop_
_geom_bond_atom_site_label_1
_geom_bond_atom_site_label_2
_geom_bond_site_symmetry_1
_geom_bond_site_symmetry_2
N1 C1 1_555 1_555
C1 C4 1_555 1_555
C2 N1 1_555 1_555
C3 C2 1_555 1_555
H1 C3 1_555 1_555
H2 C3 1_555 1_555
H3 C3 1_555 1_555
C4 H4 1_555 1_555
H5 C4 1_555 1_555
H6 C4 1_555 1_555
O1 H7 1_555 1_555
C5 H8 1_555 1_555
H9 C5 1_555 1_555
C6 C5 1_555 1_555
H10 C6 1_555 1_555
C7 O1 1_555 1_555
C8 H11 1_555 1_555
H12 C8 1_555 1_555
O2 H13 1_555 1_555
C9 O2 1_555 1_555
C10 C6 1_555 1_555
H14 C10 1_555 1_555
H15 C10 1_555 1_555
O3 C7 1_555 1_555
C11 C5 1_555 1_555
H16 C11 1_555 1_555
H17 C11 1_555 1_555
C12 C8 1_555 1_555
H18 C12 1_555 1_555
O4 C9 1_555 1_555
N1B C1B 1_555 1_555
C1B C2 1_555 1_555
C2B C1 1_555 1_555
C3B C2B 1_555 1_555
H1B C3B 1_555 1_555
H2B C3B 1_555 1_555
H3B C3B 1_555 1_555
C4B C1B 1_555 1_555
H4B C4B 1_555 1_555
H5B C4B 1_555 1_555
H6B C4B 1_555 1_555
C6 C7 1_555 1_555
C8 C10 1_555 1_555
C9 C12 1_555 1_555
C11 C12 1_555 1_555
N1B C2B 1_555 1_555

#END
