
#######################################################################
#
#                 Cambridge Crystallographic Data Centre
#                                CCDC 
#
#######################################################################
#
# If this CIF has been generated from an entry in the Cambridge 
# Structural Database, then it will include bibliographic, chemical, 
# crystal, experimental, refinement or atomic coordinate data resulting 
# from the CCDC's data processing and validation procedures.
#
#######################################################################

data_XOGFOQ
_chemical_formula_moiety         'C8 H12 N2,2(C8 H6 O4)'
_chemical_name_systematic        'bis(Phthalic acid) tetramethylpyrazine'
_symmetry_cell_setting           monoclinic
_symmetry_space_group_name_H-M   'P 21/n'
_symmetry_Int_Tables_number      14
_space_group_name_Hall           '-P 2yn'
loop_
_symmetry_equiv_pos_site_id
_symmetry_equiv_pos_as_xyz
1 x,y,z
2 1/2-x,1/2+y,1/2-z
3 -x,-y,-z
4 1/2+x,1/2-y,1/2+z
_cell_length_a                   7.4101(6)
_cell_length_b                   10.2133(9)
_cell_length_c                   15.0232(16)
_cell_angle_alpha                90
_cell_angle_beta                 95.937(9)
_cell_angle_gamma                90
_cell_volume                     1130.88
_exptl_crystal_colour            colorless
_exptl_crystal_description       block
_cell_formula_units_Z            2
loop_
_atom_site_label
_atom_site_type_symbol
_atom_site_fract_x
_atom_site_fract_y
_atom_site_fract_z
O1 O -0.0111(2) 0.63351(17) 0.93238(10)
H1 H -0.1110 0.5998 0.9346
C1 C 0.2097(3) 0.6958(2) 0.83883(12)
O2 O 0.2179(2) 0.94319(18) 1.00535(12)
O3 O -0.0105(2) 0.91448(18) 0.89898(12)
H2 H -0.0632 0.9598 0.9332
O4 O -0.0663(2) 0.59049(19) 0.78637(11)
C2 C 0.2697(3) 0.8126(2) 0.88046(13)
C3 C 0.0280(3) 0.63532(19) 0.84882(14)
C4 C 0.4431(3) 0.8590(2) 0.86991(16)
H3 H 0.4837 0.9363 0.8980
C5 C 0.1508(3) 0.8938(2) 0.93282(15)
C6 C 0.3240(3) 0.6295(2) 0.78641(14)
H4 H 0.2845 0.5525 0.7576
C7 C 0.4967(3) 0.6769(3) 0.77658(14)
H5 H 0.5725 0.6312 0.7419
C8 C 0.5550(3) 0.7910(3) 0.81796(16)
H6 H 0.6704 0.8229 0.8111
N1 N 0.1647(2) 0.96304(16) 0.47312(10)
C9 C 0.0871(3) 0.8928(2) 0.53430(13)
C10 C 0.0805(3) 1.07042(19) 0.43865(13)
C11 C 0.1886(4) 0.7749(3) 0.57221(18)
H7 H 0.1200 0.7328 0.6149
H8 H 0.3043 0.8016 0.6012
H9 H 0.2066 0.7148 0.5248
C12 C 0.1724(4) 1.1452(2) 0.37041(18)
H10 H 0.0995 1.2195 0.3507
H11 H 0.1876 1.0895 0.3203
H12 H 0.2890 1.1747 0.3966
N1B N -0.1647(2) 1.03696(16) 0.52688(10)
C9B C -0.0871(3) 1.1072(2) 0.46570(13)
C10B C -0.0805(3) 0.92958(19) 0.56135(13)
C11B C -0.1886(4) 1.2251(3) 0.42779(18)
H7B H -0.1200 1.2672 0.3851
H8B H -0.3043 1.1984 0.3988
H9B H -0.2066 1.2852 0.4752
C12B C -0.1724(4) 0.8548(2) 0.62959(18)
H10B H -0.0995 0.7805 0.6493
H11B H -0.1876 0.9105 0.6797
H12B H -0.2890 0.8253 0.6034
loop_
_geom_bond_atom_site_label_1
_geom_bond_atom_site_label_2
_geom_bond_site_symmetry_1
_geom_bond_site_symmetry_2
O1 H1 1_555 1_555
C1 C2 1_555 1_555
O2 C5 1_555 1_555
O3 H2 1_555 1_555
O4 C3 1_555 1_555
C2 C4 1_555 1_555
C3 O1 1_555 1_555
C4 H3 1_555 1_555
C5 O3 1_555 1_555
C6 C1 1_555 1_555
H4 C6 1_555 1_555
C7 C6 1_555 1_555
H5 C7 1_555 1_555
C8 C4 1_555 1_555
H6 C8 1_555 1_555
N1 C9 1_555 1_555
C9 C11 1_555 1_555
C10 N1 1_555 1_555
C11 H7 1_555 1_555
H8 C11 1_555 1_555
H9 C11 1_555 1_555
C12 C10 1_555 1_555
H10 C12 1_555 1_555
H11 C12 1_555 1_555
H12 C12 1_555 1_555
N1B C9B 1_555 1_555
C9B C10 1_555 1_555
C10B C9 1_555 1_555
C11B C9B 1_555 1_555
H7B C11B 1_555 1_555
H8B C11B 1_555 1_555
H9B C11B 1_555 1_555
C12B C10B 1_555 1_555
H10B C12B 1_555 1_555
H11B C12B 1_555 1_555
H12B C12B 1_555 1_555
C1 C3 1_555 1_555
C2 C5 1_555 1_555
C7 C8 1_555 1_555
N1B C10B 1_555 1_555

#END
