
#######################################################################
#
#                 Cambridge Crystallographic Data Centre
#                                CCDC 
#
#######################################################################
#
# If this CIF has been generated from an entry in the Cambridge 
# Structural Database, then it will include bibliographic, chemical, 
# crystal, experimental, refinement or atomic coordinate data resulting 
# from the CCDC's data processing and validation procedures.
#
#######################################################################

data_XOGFIK
_chemical_formula_moiety         'C8 H12 N2,C8 H6 O4'
_chemical_name_systematic        'Phthalic acid tetramethylpyrazine'
_symmetry_cell_setting           triclinic
_symmetry_space_group_name_H-M   'P -1'
_symmetry_Int_Tables_number      2
_space_group_name_Hall           '-P 1'
loop_
_symmetry_equiv_pos_site_id
_symmetry_equiv_pos_as_xyz
1 x,y,z
2 -x,-y,-z
_cell_length_a                   7.5343(14)
_cell_length_b                   8.9454(17)
_cell_length_c                   12.885(3)
_cell_angle_alpha                99.769(4)
_cell_angle_beta                 103.689(4)
_cell_angle_gamma                108.465(3)
_cell_volume                     771.598
_exptl_crystal_colour            colorless
_exptl_crystal_description       block
_cell_formula_units_Z            2
loop_
_atom_site_label
_atom_site_type_symbol
_atom_site_fract_x
_atom_site_fract_y
_atom_site_fract_z
O1 O 0.0987(2) 0.65567(17) 0.59750(14)
H1 H 0.1806 0.6450 0.5679
O2 O 0.2729(2) 0.7765(2) 0.83397(14)
C1 C -0.0254(2) 0.8366(2) 0.67791(15)
C2 C 0.1199(3) 0.8096(2) 0.62238(15)
O3 O 0.2351(2) 0.9173(2) 0.59997(16)
C3 C -0.1518(3) 0.9058(2) 0.62750(17)
H2 H -0.1381 0.9408 0.5649
C4 C 0.1058(3) 0.7328(2) 0.83517(15)
O4 O 0.0366(2) 0.6328(2) 0.89270(14)
H3 H 0.1239 0.6056 0.9251
C5 C -0.0430(2) 0.7889(2) 0.77351(16)
C6 C -0.2985(3) 0.9224(2) 0.6708(2)
H4 H -0.3847 0.9668 0.6361
C7 C -0.1900(3) 0.8084(3) 0.81604(19)
H5 H -0.2024 0.7768 0.8799
C8 C -0.3178(3) 0.8742(3) 0.7642(2)
H6 H -0.4167 0.8858 0.7927
N1 N 0.3622(2) 0.55607(19) 0.52558(13)
C9 C 0.4240(3) 0.5879(2) 0.44108(15)
C10 C 0.4347(3) 0.4681(2) 0.58551(15)
C11 C 0.3365(4) 0.6847(4) 0.3762(2)
H7 H 0.2437 0.7120 0.4076
H8 H 0.2706 0.6211 0.3007
H9 H 0.4390 0.7832 0.3786
C12 C 0.3570(5) 0.4319(4) 0.6776(2)
H10 H 0.2615 0.4808 0.6818
H11 H 0.4631 0.4756 0.7461
H12 H 0.2959 0.3157 0.6646
N1A N 0.6378(2) 0.44393(19) 0.47442(13)
C9A C 0.5760(3) 0.4121(2) 0.55892(15)
C10A C 0.5653(3) 0.5319(2) 0.41449(15)
C11A C 0.6635(4) 0.3153(4) 0.6238(2)
H7A H 0.7563 0.2880 0.5924
H8A H 0.7294 0.3789 0.6993
H9A H 0.5610 0.2168 0.6214
C12A C 0.6430(5) 0.5681(4) 0.3224(2)
H10A H 0.7385 0.5192 0.3182
H11A H 0.5369 0.5244 0.2539
H12A H 0.7041 0.6843 0.3354
N2 N 0.3364(2) 0.53950(18) 0.98531(12)
C13 C 0.3206(3) 0.3886(2) 0.93924(14)
C14 C 0.5134(3) 0.6512(2) 1.04614(15)
C15 C 0.1178(3) 0.2690(3) 0.8732(2)
H13 H 0.0249 0.3214 0.8744
H14 H 0.0848 0.1780 0.9048
H15 H 0.1138 0.2307 0.7981
C16 C 0.5201(4) 0.8175(3) 1.0968(2)
H16 H 0.3895 0.8186 1.0768
H17 H 0.6028 0.8974 1.0700
H18 H 0.5721 0.8430 1.1759
N2A N 0.6636(2) 0.46050(18) 1.01469(12)
C13A C 0.6794(3) 0.6114(2) 1.06076(14)
C14A C 0.4866(3) 0.3488(2) 0.95386(15)
C15A C 0.8822(3) 0.7310(3) 1.1268(2)
H13A H 0.9751 0.6786 1.1256
H14A H 0.9152 0.8220 1.0952
H15A H 0.8862 0.7693 1.2019
C16A C 0.4799(4) 0.1825(3) 0.9032(2)
H16A H 0.6105 0.1814 0.9232
H17A H 0.3972 0.1026 0.9300
H18A H 0.4279 0.1570 0.8241
loop_
_geom_bond_atom_site_label_1
_geom_bond_atom_site_label_2
_geom_bond_site_symmetry_1
_geom_bond_site_symmetry_2
O1 H1 1_555 1_555
O2 C4 1_555 1_555
C1 C2 1_555 1_555
C2 O1 1_555 1_555
O3 C2 1_555 1_555
C3 C1 1_555 1_555
H2 C3 1_555 1_555
C4 O4 1_555 1_555
O4 H3 1_555 1_555
C5 C1 1_555 1_555
C6 C3 1_555 1_555
H4 C6 1_555 1_555
C7 C5 1_555 1_555
H5 C7 1_555 1_555
C8 C6 1_555 1_555
H6 C8 1_555 1_555
N1 C9 1_555 1_555
C9 C11 1_555 1_555
C10 N1 1_555 1_555
C11 H7 1_555 1_555
H8 C11 1_555 1_555
H9 C11 1_555 1_555
C12 C10 1_555 1_555
H10 C12 1_555 1_555
H11 C12 1_555 1_555
H12 C12 1_555 1_555
N2 C13 1_555 1_555
C13 C15 1_555 1_555
C14 N2 1_555 1_555
C15 H13 1_555 1_555
H14 C15 1_555 1_555
H15 C15 1_555 1_555
C16 C14 1_555 1_555
H16 C16 1_555 1_555
H17 C16 1_555 1_555
H18 C16 1_555 1_555
N1A C9A 1_555 1_555
C9A C10 1_555 1_555
C10A C9 1_555 1_555
C11A C9A 1_555 1_555
H7A C11A 1_555 1_555
H8A C11A 1_555 1_555
H9A C11A 1_555 1_555
C12A C10A 1_555 1_555
H10A C12A 1_555 1_555
H11A C12A 1_555 1_555
H12A C12A 1_555 1_555
N2A C13A 1_555 1_555
C13A C14 1_555 1_555
C14A C13 1_555 1_555
C15A C13A 1_555 1_555
H13A C15A 1_555 1_555
H14A C15A 1_555 1_555
H15A C15A 1_555 1_555
C16A C14A 1_555 1_555
H16A C16A 1_555 1_555
H17A C16A 1_555 1_555
H18A C16A 1_555 1_555
C4 C5 1_555 1_555
C7 C8 1_555 1_555
N1A C10A 1_555 1_555
N2A C14A 1_555 1_555

#END
