
#######################################################################
#
#                 Cambridge Crystallographic Data Centre
#                                CCDC 
#
#######################################################################
#
# If this CIF has been generated from an entry in the Cambridge 
# Structural Database, then it will include bibliographic, chemical, 
# crystal, experimental, refinement or atomic coordinate data resulting 
# from the CCDC's data processing and validation procedures.
#
#######################################################################

data_XOGGEG
_chemical_formula_moiety         'C28 H22 O2'
_chemical_name_systematic        
2,2'-(1,4-Phenylene)bis(3-ethyl-1H-inden-1-one)
_symmetry_cell_setting           triclinic
_symmetry_space_group_name_H-M   'P -1'
_symmetry_Int_Tables_number      2
_space_group_name_Hall           '-P 1'
loop_
_symmetry_equiv_pos_site_id
_symmetry_equiv_pos_as_xyz
1 x,y,z
2 -x,-y,-z
_cell_length_a                   7.801(3)
_cell_length_b                   8.438(4)
_cell_length_c                   8.844(4)
_cell_angle_alpha                96.408(7)
_cell_angle_beta                 100.485(8)
_cell_angle_gamma                115.993(7)
_cell_volume                     502.327
_exptl_crystal_colour            orange
_exptl_crystal_description       needle-shaped
_chemical_melting_point          '480-482 K'
_cell_formula_units_Z            1
loop_
_atom_site_label
_atom_site_type_symbol
_atom_site_fract_x
_atom_site_fract_y
_atom_site_fract_z
O1 O 1.4057(3) 0.7731(3) 0.5452(2)
C1 C 1.2541(4) 0.7765(3) 0.5555(3)
C2 C 1.0712(3) 0.7084(3) 0.4264(3)
C3 C 1.0248(4) 0.6221(3) 0.2726(3)
H1 H 1.1126 0.5926 0.2337
C4 C 0.8410(4) 0.5803(3) 0.1764(3)
H2 H 0.8046 0.5201 0.0720
C5 C 0.7142(4) 0.6264(3) 0.2332(3)
H3 H 0.5948 0.6013 0.1658
C6 C 0.7605(4) 0.7106(3) 0.3908(3)
H4 H 0.6720 0.7389 0.4298
C7 C 0.9396(3) 0.7505(3) 0.4867(3)
C8 C 1.0314(3) 0.8379(3) 0.6562(3)
C9 C 1.2141(3) 0.8530(3) 0.6980(3)
C10 C 1.3588(3) 0.9294(3) 0.8527(3)
C11 C 1.3054(3) 0.8872(3) 0.9905(3)
H5 H 1.1740 0.8108 0.9854
C12 C 1.5566(3) 1.0435(3) 0.8652(3)
H6 H 1.5968 1.0737 0.7751
C13 C 0.9236(3) 0.8944(3) 0.7546(3)
H7 H 0.8653 0.9589 0.6988
H8 H 1.0163 0.9763 0.8517
C14 C 0.7612(3) 0.7327(3) 0.7938(3)
H9 H 0.6714 0.6496 0.6980
H10 H 0.6910 0.7736 0.8529
H11 H 0.8193 0.6734 0.8552
O1A O 1.5943(3) 1.2269(3) 1.4548(2)
C1A C 1.7459(4) 1.2235(3) 1.4445(3)
C2A C 1.9288(3) 1.2916(3) 1.5736(3)
C3A C 1.9752(4) 1.3779(3) 1.7274(3)
H1A H 1.8874 1.4074 1.7663
C4A C 2.1590(4) 1.4197(3) 1.8236(3)
H2A H 2.1954 1.4799 1.9280
C5A C 2.2858(4) 1.3736(3) 1.7668(3)
H3A H 2.4052 1.3987 1.8342
C6A C 2.2395(4) 1.2894(3) 1.6092(3)
H4A H 2.3280 1.2611 1.5702
C7A C 2.0604(3) 1.2495(3) 1.5133(3)
C8A C 1.9686(3) 1.1621(3) 1.3438(3)
C9A C 1.7859(3) 1.1470(3) 1.3020(3)
C10A C 1.6412(3) 1.0706(3) 1.1473(3)
C11A C 1.6946(3) 1.1128(3) 1.0095(3)
H5A H 1.8260 1.1892 1.0146
C12A C 1.4434(3) 0.9565(3) 1.1348(3)
H6A H 1.4032 0.9263 1.2249
C13A C 2.0764(3) 1.1056(3) 1.2454(3)
H7A H 2.1347 1.0411 1.3012
H8A H 1.9837 1.0237 1.1483
C14A C 2.2388(3) 1.2673(3) 1.2062(3)
H9A H 2.3286 1.3504 1.3020
H10A H 2.3090 1.2264 1.1471
H11A H 2.1807 1.3266 1.1448
loop_
_geom_bond_atom_site_label_1
_geom_bond_atom_site_label_2
_geom_bond_site_symmetry_1
_geom_bond_site_symmetry_2
O1 C1 1_555 1_555
C1 C2 1_555 1_555
C2 C3 1_555 1_555
C3 H1 1_555 1_555
C4 C3 1_555 1_555
H2 C4 1_555 1_555
C5 C4 1_555 1_555
H3 C5 1_555 1_555
C6 C5 1_555 1_555
H4 C6 1_555 1_555
C7 C2 1_555 1_555
C8 C7 1_555 1_555
C9 C1 1_555 1_555
C10 C9 1_555 1_555
C11 C10 1_555 1_555
H5 C11 1_555 1_555
C12 C10 1_555 1_555
H6 C12 1_555 1_555
C13 C8 1_555 1_555
H7 C13 1_555 1_555
H8 C13 1_555 1_555
C14 C13 1_555 1_555
H9 C14 1_555 1_555
H10 C14 1_555 1_555
H11 C14 1_555 1_555
O1A C1A 1_555 1_555
C1A C2A 1_555 1_555
C2A C3A 1_555 1_555
C3A H1A 1_555 1_555
C4A C3A 1_555 1_555
H2A C4A 1_555 1_555
C5A C4A 1_555 1_555
H3A C5A 1_555 1_555
C6A C5A 1_555 1_555
H4A C6A 1_555 1_555
C7A C2A 1_555 1_555
C8A C7A 1_555 1_555
C9A C1A 1_555 1_555
C10A C9A 1_555 1_555
C11A C12 1_555 1_555
H5A C11A 1_555 1_555
C12A C11 1_555 1_555
H6A C12A 1_555 1_555
C13A C8A 1_555 1_555
H7A C13A 1_555 1_555
H8A C13A 1_555 1_555
C14A C13A 1_555 1_555
H9A C14A 1_555 1_555
H10A C14A 1_555 1_555
H11A C14A 1_555 1_555
C6 C7 1_555 1_555
C8 C9 1_555 1_555
C6A C7A 1_555 1_555
C8A C9A 1_555 1_555
C10A C11A 1_555 1_555
C10A C12A 1_555 1_555

#END
