
#######################################################################
#
#                 Cambridge Crystallographic Data Centre
#                                CCDC 
#
#######################################################################
#
# If this CIF has been generated from an entry in the Cambridge 
# Structural Database, then it will include bibliographic, chemical, 
# crystal, experimental, refinement or atomic coordinate data resulting 
# from the CCDC's data processing and validation procedures.
#
#######################################################################

data_XOGJOT
_chemical_formula_moiety         'C22 H18 Br1 N1'
_chemical_name_systematic        
3-(4-Bromophenyl)-1-(n-propyl)benzo(f)quinoline
_symmetry_cell_setting           triclinic
_symmetry_space_group_name_H-M   'P -1'
_symmetry_Int_Tables_number      2
_space_group_name_Hall           '-P 1'
loop_
_symmetry_equiv_pos_site_id
_symmetry_equiv_pos_as_xyz
1 x,y,z
2 -x,-y,-z
_cell_length_a                   9.203(2)
_cell_length_b                   10.173(2)
_cell_length_c                   10.582(2)
_cell_angle_alpha                97.868(3)
_cell_angle_beta                 107.038(3)
_cell_angle_gamma                112.235(3)
_cell_volume                     841.731
_exptl_crystal_colour            colorless
_exptl_crystal_description       Block
_chemical_melting_point          '382-384 K'
_cell_formula_units_Z            2
_exptl_crystal_recrystallization_method 'DMF and THF'
loop_
_atom_site_label
_atom_site_type_symbol
_atom_site_fract_x
_atom_site_fract_y
_atom_site_fract_z
Br1 Br 0.39482(4) 0.28784(4) 0.06889(3)
N1 N -0.0181(2) 0.6311(2) 0.3152(2)
C1 C 0.1271(3) 0.6325(3) 0.3865(2)
C2 C 0.2133(3) 0.7083(3) 0.5275(3)
H1 H 0.3146 0.7047 0.5757
C3 C 0.1545(3) 0.7875(3) 0.5971(2)
C4 C -0.0027(3) 0.7880(3) 0.5227(2)
C5 C -0.0830(3) 0.7038(3) 0.3812(2)
C6 C -0.2441(3) 0.6897(3) 0.2983(3)
H2 H -0.2950 0.6330 0.2058
C7 C -0.3253(3) 0.7555(3) 0.3490(3)
H3 H -0.4321 0.7430 0.2921
C8 C -0.2505(3) 0.8440(3) 0.4883(3)
C9 C -0.3390(3) 0.9112(3) 0.5378(3)
H4 H -0.4457 0.8964 0.4783
C10 C -0.2736(4) 0.9973(3) 0.6704(3)
H5 H -0.3345 1.0411 0.7022
C11 C -0.1160(4) 1.0188(3) 0.7569(3)
H6 H -0.0689 1.0791 0.8479
C12 C -0.0274(3) 0.9536(3) 0.7121(3)
H7 H 0.0787 0.9697 0.7739
C13 C -0.0897(3) 0.8631(3) 0.5762(3)
C14 C 0.1955(3) 0.5524(3) 0.3119(2)
C15 C 0.1664(3) 0.5433(3) 0.1736(3)
H8 H 0.1052 0.5907 0.1292
C16 C 0.2252(3) 0.4665(3) 0.0996(3)
H9 H 0.2067 0.4632 0.0067
C17 C 0.3117(3) 0.3947(3) 0.1655(3)
C18 C 0.3409(3) 0.3994(3) 0.3024(3)
H10 H 0.3989 0.3489 0.3455
C19 C 0.2841(3) 0.4789(3) 0.3749(3)
H11 H 0.3053 0.4837 0.4682
C20 C 0.2616(3) 0.8606(3) 0.7483(3)
H12 H 0.284(3) 0.9639(13) 0.777(2)
H13 H 0.3752(18) 0.869(3) 0.764(3)
C21 C 0.1902(3) 0.7748(3) 0.8396(3)
H14 H 0.1865 0.6766 0.8178
H15 H 0.0736 0.7613 0.8191
C22 C 0.2926(4) 0.8507(3) 0.9919(3)
H16 H 0.4082 0.8646 1.0130
H17 H 0.2428 0.7899 1.0451
H18 H 0.2922 0.9461 1.0151
loop_
_geom_bond_atom_site_label_1
_geom_bond_atom_site_label_2
_geom_bond_site_symmetry_1
_geom_bond_site_symmetry_2
Br1 C17 1_555 1_555
N1 C1 1_555 1_555
C1 C2 1_555 1_555
C2 H1 1_555 1_555
C3 C2 1_555 1_555
C4 C3 1_555 1_555
C5 N1 1_555 1_555
C6 C5 1_555 1_555
H2 C6 1_555 1_555
C7 C6 1_555 1_555
H3 C7 1_555 1_555
C8 C7 1_555 1_555
C9 C8 1_555 1_555
H4 C9 1_555 1_555
C10 C9 1_555 1_555
H5 C10 1_555 1_555
C11 C10 1_555 1_555
H6 C11 1_555 1_555
C12 C11 1_555 1_555
H7 C12 1_555 1_555
C13 C4 1_555 1_555
C14 C1 1_555 1_555
C15 C14 1_555 1_555
H8 C15 1_555 1_555
C16 C15 1_555 1_555
H9 C16 1_555 1_555
C17 C16 1_555 1_555
C18 C17 1_555 1_555
H10 C18 1_555 1_555
C19 C14 1_555 1_555
H11 C19 1_555 1_555
C20 C3 1_555 1_555
H12 C20 1_555 1_555
H13 C20 1_555 1_555
C21 C20 1_555 1_555
H14 C21 1_555 1_555
H15 C21 1_555 1_555
C22 C21 1_555 1_555
H16 C22 1_555 1_555
H17 C22 1_555 1_555
H18 C22 1_555 1_555
C4 C5 1_555 1_555
C8 C13 1_555 1_555
C12 C13 1_555 1_555
C18 C19 1_555 1_555

#END
