
#######################################################################
#
#                 Cambridge Crystallographic Data Centre
#                                CCDC 
#
#######################################################################
#
# If this CIF has been generated from an entry in the Cambridge 
# Structural Database, then it will include bibliographic, chemical, 
# crystal, experimental, refinement or atomic coordinate data resulting 
# from the CCDC's data processing and validation procedures.
#
#######################################################################

data_XOGQOA
_chemical_formula_moiety         'C48 H45 N3 O9'
_chemical_name_systematic        
1,3,5-tris(((2'-Furfurylaminoformyl)phenoxy)methyl)-2,4,6-trimethylbenzene
_symmetry_cell_setting           monoclinic
_symmetry_space_group_name_H-M   'P 21/n'
_symmetry_Int_Tables_number      14
_space_group_name_Hall           '-P 2yn'
loop_
_symmetry_equiv_pos_site_id
_symmetry_equiv_pos_as_xyz
1 x,y,z
2 1/2-x,1/2+y,1/2-z
3 -x,-y,-z
4 1/2+x,1/2-y,1/2+z
_cell_length_a                   8.9278(2)
_cell_length_b                   15.1760(4)
_cell_length_c                   31.0232(8)
_cell_angle_alpha                90
_cell_angle_beta                 95.2180(10)
_cell_angle_gamma                90
_cell_volume                     4185.86
_exptl_crystal_colour            'pale yellow'
_exptl_crystal_description       block
_cell_formula_units_Z            4
loop_
_atom_site_label
_atom_site_type_symbol
_atom_site_fract_x
_atom_site_fract_y
_atom_site_fract_z
C1 C -0.3510(4) 0.3727(3) -0.02281(12)
C2 C -0.2378(5) 0.3860(3) 0.00630(12)
C3 C -0.3644(3) 0.2815(2) -0.02818(11)
C4 C -0.2616(3) 0.2423(2) -0.00190(9)
C5 C -0.2226(3) 0.1492(2) 0.00673(14)
C6 C -0.0417(3) 0.08721(17) -0.03967(9)
C7 C 0.1201(3) 0.07369(15) -0.04735(8)
C8 C 0.1484(4) 0.03531(18) -0.08670(9)
C9 C 0.2924(4) 0.0232(2) -0.09836(11)
C10 C 0.4120(4) 0.04764(19) -0.07039(10)
C11 C 0.3893(3) 0.08494(18) -0.03116(9)
C12 C 0.2446(3) 0.09944(15) -0.01967(8)
C13 C 0.3408(3) 0.1826(2) 0.04390(9)
C14 C 0.2757(2) 0.23486(17) 0.07882(8)
C15 C 0.2265(2) 0.32149(18) 0.07014(8)
C16 C 0.1768(2) 0.37241(17) 0.10372(8)
C17 C 0.1679(3) 0.33511(17) 0.14486(8)
C18 C 0.2155(3) 0.24835(17) 0.15297(8)
C19 C 0.2698(3) 0.19773(17) 0.11997(8)
C20 C 0.3206(5) 0.1033(2) 0.12824(14)
C21 C 0.2287(5) 0.3594(3) 0.02519(11)
C22 C 0.1057(5) 0.3886(3) 0.18031(12)
C23 C 0.2051(4) 0.2109(2) 0.19737(9)
C24 C 0.2784(3) 0.2634(2) 0.26953(8)
C25 C 0.2003(4) 0.1967(3) 0.28845(11)
C26 C 0.1652(5) 0.2062(4) 0.33084(13)
C27 C 0.2061(5) 0.2814(4) 0.35374(13)
C28 C 0.2846(4) 0.3461(3) 0.33510(11)
C29 C 0.3239(3) 0.3397(2) 0.29280(9)
C30 C 0.4070(3) 0.4155(2) 0.27602(10)
C31 C 0.5707(4) 0.4719(3) 0.22316(13)
C32 C 0.7285(5) 0.4741(3) 0.24239(15)
C33 C 0.8063(6) 0.4302(4) 0.27359(19)
H1 H 0.7724 0.3841 0.2899
C34 C 0.9500(10) 0.4673(10) 0.2772(4)
H2 H 1.0290 0.4496 0.2969
C35 C 0.9571(13) 0.5287(10) 0.2495(5)
H3 H 1.0418 0.5622 0.2454
C36 C 0.1391(3) 0.46830(19) 0.09694(12)
C37 C -0.0846(3) 0.55959(17) 0.09615(8)
C38 C 0.0000(3) 0.63557(19) 0.09358(10)
C39 C -0.0661(4) 0.7171(2) 0.09757(12)
C40 C -0.2156(4) 0.7239(2) 0.10303(12)
C41 C -0.2995(4) 0.6487(2) 0.10510(10)
C42 C -0.2382(3) 0.56497(17) 0.10207(8)
C43 C -0.3441(3) 0.48943(19) 0.10562(9)
C44 C -0.3803(4) 0.3309(2) 0.11292(13)
C45 C -0.3093(3) 0.2631(2) 0.14187(10)
C46 C -0.2099(4) 0.2002(3) 0.13773(14)
H4 H -0.1640 0.1866 0.1128
C47 C -0.1854(6) 0.1565(3) 0.17914(19)
C48 C -0.2638(7) 0.2016(4) 0.20446(19)
H5 H -0.2649 0.1903 0.2339
H6 H 0.411(3) 0.1367(17) 0.0558(7)
H7 H 0.389(3) 0.2211(17) 0.0245(8)
H8 H 0.062(3) 0.0192(16) -0.1053(8)
H9 H 0.182(3) 0.5033(19) 0.1232(9)
H10 H 0.478(3) 0.1024(17) -0.0101(8)
H11 H 0.229(3) 0.152(2) 0.2014(9)
H12 H 0.042(4) 0.435(2) 0.1709(10)
H13 H -0.400(3) 0.6510(19) 0.1092(9)
H14 H 0.107(3) 0.223(2) 0.2076(9)
H15 H -0.260(3) 0.782(2) 0.1084(9)
H16 H -0.194(3) 0.4029(19) 0.1117(9)
H17 H 0.108(3) 0.6299(16) 0.0899(8)
H18 H 0.304(3) -0.0025(19) -0.1272(10)
H19 H 0.000(3) 0.1438(19) 0.0157(9)
H20 H -0.485(4) 0.348(2) 0.1226(9)
H21 H 0.180(3) 0.4934(18) 0.0710(9)
H22 H 0.518(3) 0.0372(18) -0.0775(8)
H23 H 0.177(4) 0.289(2) 0.3854(12)
H24 H 0.319(4) 0.391(2) 0.0201(11)
H25 H 0.295(4) 0.070(3) 0.1030(13)
H26 H 0.147(4) 0.400(2) 0.0181(10)
H27 H -0.285(4) 0.114(2) -0.0126(10)
H28 H 0.044(5) 0.350(3) 0.1983(15)
H29 H -0.390(3) 0.306(2) 0.0851(11)
H30 H 0.214(4) 0.314(3) 0.0029(13)
H31 H 0.312(3) 0.400(2) 0.3505(11)
H32 H -0.230(3) 0.134(2) 0.0385(11)
H33 H -0.192(4) 0.440(3) 0.0179(12)
H34 H 0.554(4) 0.463(2) 0.1887(12)
H35 H 0.513(4) 0.531(3) 0.2290(11)
H36 H -0.008(4) 0.767(2) 0.0970(10)
H37 H 0.419(5) 0.100(2) 0.1391(12)
H38 H 0.175(3) 0.143(2) 0.2713(10)
H39 H -0.404(4) 0.414(2) -0.0385(11)
H40 H 0.473(3) 0.350(2) 0.2292(10)
H41 H -0.135(4) 0.109(3) 0.1870(13)
H42 H 0.175(5) 0.412(3) 0.2014(15)
H43 H 0.106(4) 0.158(3) 0.3419(11)
H44 H 0.262(4) 0.075(3) 0.1480(14)
H45 H -0.423(3) 0.2596(19) -0.0441(9)
N1 N -0.0710(2) 0.12703(17) -0.00302(9)
N2 N 0.4843(3) 0.4030(2) 0.24141(9)
N3 N -0.2872(3) 0.40942(15) 0.11195(8)
O1 O -0.1778(2) 0.30583(17) 0.02008(7)
O2 O -0.1432(2) 0.06408(16) -0.06622(6)
O3 O 0.21879(17) 0.13915(12) 0.01866(5)
O4 O 0.31395(19) 0.25660(13) 0.22737(5)
O5 O 0.4071(3) 0.48795(17) 0.29392(8)
O6 O 0.8153(5) 0.5373(3) 0.22619(13)
O7 O -0.02372(17) 0.47708(11) 0.09243(6)
O8 O -0.4805(2) 0.50234(15) 0.10424(8)
O9 O -0.3442(3) 0.2671(2) 0.18358(10)
loop_
_geom_bond_atom_site_label_1
_geom_bond_atom_site_label_2
_geom_bond_site_symmetry_1
_geom_bond_site_symmetry_2
C1 C2 1_555 1_555
C2 H33 1_555 1_555
C3 C1 1_555 1_555
C4 C3 1_555 1_555
C5 C4 1_555 1_555
C6 C7 1_555 1_555
C7 C8 1_555 1_555
C8 C9 1_555 1_555
C9 C10 1_555 1_555
C10 C11 1_555 1_555
C11 C12 1_555 1_555
C12 C7 1_555 1_555
C13 C14 1_555 1_555
C14 C15 1_555 1_555
C15 C16 1_555 1_555
C16 C17 1_555 1_555
C17 C18 1_555 1_555
C18 C19 1_555 1_555
C19 C14 1_555 1_555
C20 C19 1_555 1_555
C21 C15 1_555 1_555
C22 C17 1_555 1_555
C23 C18 1_555 1_555
C24 C25 1_555 1_555
C25 C26 1_555 1_555
C26 C27 1_555 1_555
C27 C28 1_555 1_555
C28 C29 1_555 1_555
C29 C24 1_555 1_555
C30 C29 1_555 1_555
C31 C32 1_555 1_555
C32 C33 1_555 1_555
C33 H1 1_555 1_555
C34 C33 1_555 1_555
H2 C34 1_555 1_555
C35 C34 1_555 1_555
H3 C35 1_555 1_555
C36 C16 1_555 1_555
C37 C38 1_555 1_555
C38 C39 1_555 1_555
C39 C40 1_555 1_555
C40 C41 1_555 1_555
C41 C42 1_555 1_555
C42 C37 1_555 1_555
C43 C42 1_555 1_555
C44 C45 1_555 1_555
C45 C46 1_555 1_555
C46 H4 1_555 1_555
C47 C46 1_555 1_555
C48 C47 1_555 1_555
H5 C48 1_555 1_555
H6 C13 1_555 1_555
H7 C13 1_555 1_555
H8 C8 1_555 1_555
H9 C36 1_555 1_555
H10 C11 1_555 1_555
H11 C23 1_555 1_555
H12 C22 1_555 1_555
H13 C41 1_555 1_555
H14 C23 1_555 1_555
H15 C40 1_555 1_555
H16 N3 1_555 1_555
H17 C38 1_555 1_555
H18 C9 1_555 1_555
H19 N1 1_555 1_555
H20 C44 1_555 1_555
H21 C36 1_555 1_555
H22 C10 1_555 1_555
H23 C27 1_555 1_555
H24 C21 1_555 1_555
H25 C20 1_555 1_555
H26 C21 1_555 1_555
H27 C5 1_555 1_555
H28 C22 1_555 1_555
H29 C44 1_555 1_555
H30 C21 1_555 1_555
H31 C28 1_555 1_555
H32 C5 1_555 1_555
H34 C31 1_555 1_555
H35 C31 1_555 1_555
H36 C39 1_555 1_555
H37 C20 1_555 1_555
H38 C25 1_555 1_555
H39 C1 1_555 1_555
H40 N2 1_555 1_555
H41 C47 1_555 1_555
H42 C22 1_555 1_555
H43 C26 1_555 1_555
H44 C20 1_555 1_555
H45 C3 1_555 1_555
N1 C5 1_555 1_555
N2 C30 1_555 1_555
N3 C43 1_555 1_555
O1 C2 1_555 1_555
O2 C6 1_555 1_555
O3 C12 1_555 1_555
O4 C23 1_555 1_555
O5 C30 1_555 1_555
O6 C32 1_555 1_555
O7 C36 1_555 1_555
O8 C43 1_555 1_555
O9 C45 1_555 1_555
C4 O1 1_555 1_555
C6 N1 1_555 1_555
C13 O3 1_555 1_555
C24 O4 1_555 1_555
C31 N2 1_555 1_555
C35 O6 1_555 1_555
C37 O7 1_555 1_555
C44 N3 1_555 1_555
C48 O9 1_555 1_555

#END
