
#######################################################################
#
#                 Cambridge Crystallographic Data Centre
#                                CCDC 
#
#######################################################################
#
# If this CIF has been generated from an entry in the Cambridge 
# Structural Database, then it will include bibliographic, chemical, 
# crystal, experimental, refinement or atomic coordinate data resulting 
# from the CCDC's data processing and validation procedures.
#
#######################################################################

data_XOGSUI
_chemical_formula_moiety         'C20 H23 N4 O6 P1 S1'
_chemical_name_systematic        
'Diethyl ((4-methoxyphenyl)(5-(4-nitrophenyl)-1,3,4-thiadiazol-2-ylamino)methyl)phosphonate'
_symmetry_cell_setting           monoclinic
_symmetry_space_group_name_H-M   'P 21/n'
_symmetry_Int_Tables_number      14
_space_group_name_Hall           '-P 2yn'
loop_
_symmetry_equiv_pos_site_id
_symmetry_equiv_pos_as_xyz
1 x,y,z
2 1/2-x,1/2+y,1/2-z
3 -x,-y,-z
4 1/2+x,1/2-y,1/2+z
_cell_length_a                   11.481(2)
_cell_length_b                   19.426(4)
_cell_length_c                   11.960(2)
_cell_angle_alpha                90
_cell_angle_beta                 117.08(3)
_cell_angle_gamma                90
_cell_volume                     2375.01
_exptl_crystal_colour            'light yellow'
_exptl_crystal_description       block
_chemical_melting_point          '476 K'
_cell_formula_units_Z            4
_exptl_crystal_recrystallization_method ethanol
loop_
_atom_site_label
_atom_site_type_symbol
_atom_site_fract_x
_atom_site_fract_y
_atom_site_fract_z
S1 S 0.11752(9) 0.17107(5) -0.10907(11)
P1 P 0.23008(11) -0.02508(6) 0.20206(12)
N1 N 0.1765(3) 0.04373(17) -0.0120(3)
H1 H 0.0966 0.0342 -0.0631
O1 O 0.2443(4) -0.2713(2) -0.1562(4)
C1 C 0.1296(7) -0.2920(3) -0.2318(6)
H2 H 0.1350 -0.3368 -0.2631
H3 H 0.0906 -0.2603 -0.3007
H4 H 0.0769 -0.2945 -0.1885
N2 N 0.3560(3) 0.19583(16) 0.0431(3)
O2 O 0.3525(4) 0.53251(19) -0.1632(4)
C2 C 0.2280(7) -0.2053(3) -0.1134(7)
N3 N 0.3379(3) 0.12947(16) 0.0636(3)
O3 O 0.1531(4) 0.52326(17) -0.2953(4)
C3 C 0.1235(6) -0.1701(3) -0.1297(6)
H5 H 0.0416 -0.1890 -0.1795
N4 N 0.2539(5) 0.4987(2) -0.2075(4)
C4 C 0.1299(4) -0.1052(2) -0.0755(5)
H6 H 0.0530 -0.0821 -0.0911
O4 O 0.2896(4) 0.04106(19) 0.2851(4)
O5 O 0.0918(3) -0.03805(17) 0.1673(3)
C5 C 0.2466(4) -0.0758(2) -0.0010(4)
O6 O 0.3218(3) -0.0846(2) 0.2736(3)
C6 C 0.3601(5) -0.1129(3) 0.0189(5)
H7 H 0.4426 -0.0944 0.0683
C7 C 0.3476(6) -0.1768(3) -0.0357(6)
H8 H 0.4229 -0.2017 -0.0194
C8 C 0.2618(4) -0.0111(2) 0.0683(4)
H9 H 0.3527 0.0042 0.1000
C9 C 0.2198(3) 0.1078(2) -0.0078(4)
C10 C 0.2513(3) 0.22694(18) -0.0425(4)
C11 C 0.2495(3) 0.29723(19) -0.0822(3)
C12 C 0.1363(3) 0.32734(19) -0.1726(4)
H10 H 0.0584 0.3026 -0.2044
C13 C 0.1361(4) 0.3941(2) -0.2172(4)
H11 H 0.0599 0.4130 -0.2800
C14 C 0.2518(4) 0.4315(2) -0.1658(4)
C15 C 0.3662(4) 0.4028(2) -0.0697(4)
H12 H 0.4426 0.4287 -0.0333
C16 C 0.3654(3) 0.3367(2) -0.0296(4)
H13 H 0.4417 0.3177 0.0328
C17 C 0.2907(7) 0.1293(4) 0.4169(7)
H14 H 0.2690 0.1414 0.4830
H15 H 0.2346 0.1539 0.3418
H16 H 0.3802 0.1413 0.4413
C18 C 0.2731(7) 0.0561(3) 0.3935(7)
H17 H 0.3368 0.0309 0.4653
H18 H 0.1863 0.0425 0.3798
C19 C 0.2659(6) -0.2016(3) 0.2448(6)
H19 H 0.2385 -0.2397 0.2783
H20 H 0.3481 -0.2123 0.2461
H21 H 0.2014 -0.1930 0.1600
C20 C 0.2802(6) -0.1418(3) 0.3193(6)
H22 H 0.1973 -0.1313 0.3184
H23 H 0.3437 -0.1510 0.4055
loop_
_geom_bond_atom_site_label_1
_geom_bond_atom_site_label_2
_geom_bond_site_symmetry_1
_geom_bond_site_symmetry_2
S1 C9 1_555 1_555
P1 O4 1_555 1_555
N1 H1 1_555 1_555
O1 C1 1_555 1_555
C1 H2 1_555 1_555
H3 C1 1_555 1_555
H4 C1 1_555 1_555
N2 N3 1_555 1_555
O2 N4 1_555 1_555
C2 O1 1_555 1_555
N3 C9 1_555 1_555
O3 N4 1_555 1_555
C3 C2 1_555 1_555
H5 C3 1_555 1_555
N4 C14 1_555 1_555
C4 C3 1_555 1_555
H6 C4 1_555 1_555
O4 C18 1_555 1_555
O5 P1 1_555 1_555
C5 C4 1_555 1_555
O6 P1 1_555 1_555
C6 C5 1_555 1_555
H7 C6 1_555 1_555
C7 C2 1_555 1_555
H8 C7 1_555 1_555
C8 P1 1_555 1_555
H9 C8 1_555 1_555
C9 N1 1_555 1_555
C10 S1 1_555 1_555
C11 C10 1_555 1_555
C12 C11 1_555 1_555
H10 C12 1_555 1_555
C13 C12 1_555 1_555
H11 C13 1_555 1_555
C14 C13 1_555 1_555
C15 C14 1_555 1_555
H12 C15 1_555 1_555
C16 C11 1_555 1_555
H13 C16 1_555 1_555
C17 H14 1_555 1_555
H15 C17 1_555 1_555
H16 C17 1_555 1_555
C18 C17 1_555 1_555
H17 C18 1_555 1_555
H18 C18 1_555 1_555
C19 H19 1_555 1_555
H20 C19 1_555 1_555
H21 C19 1_555 1_555
C20 O6 1_555 1_555
H22 C20 1_555 1_555
H23 C20 1_555 1_555
N1 C8 1_555 1_555
N2 C10 1_555 1_555
C5 C8 1_555 1_555
C6 C7 1_555 1_555
C15 C16 1_555 1_555
C19 C20 1_555 1_555

#END
