
#######################################################################
#
#                 Cambridge Crystallographic Data Centre
#                                CCDC 
#
#######################################################################
#
# If this CIF has been generated from an entry in the Cambridge 
# Structural Database, then it will include bibliographic, chemical, 
# crystal, experimental, refinement or atomic coordinate data resulting 
# from the CCDC's data processing and validation procedures.
#
#######################################################################

data_XOGSAN
_chemical_formula_moiety         'C12 H21 N1 O2'
_chemical_name_systematic        
2-Methyl-5-n-propyl-4-aza-10-oxabicyclo(5.2.1)dec-3-one
_symmetry_cell_setting           orthorhombic
_symmetry_space_group_name_H-M   'P b c a'
_symmetry_Int_Tables_number      61
_space_group_name_Hall           '-P 2ac 2ab'
loop_
_symmetry_equiv_pos_site_id
_symmetry_equiv_pos_as_xyz
1 x,y,z
2 1/2+x,y,1/2-z
3 x,1/2-y,1/2+z
4 1/2-x,1/2+y,z
5 -x,-y,-z
6 1/2-x,-y,1/2+z
7 -x,1/2+y,1/2-z
8 1/2+x,1/2-y,-z
_cell_length_a                   9.739(3)
_cell_length_b                   21.204(1)
_cell_length_c                   23.917(1)
_cell_angle_alpha                90
_cell_angle_beta                 90
_cell_angle_gamma                90
_cell_volume                     4939
_exptl_crystal_colour            colorless
_exptl_crystal_description       needle
_chemical_melting_point          '110-112 deg.C'
_cell_formula_units_Z            16
loop_
_atom_site_label
_atom_site_type_symbol
_atom_site_fract_x
_atom_site_fract_y
_atom_site_fract_z
O1 O 0.85399(13) 0.08400(5) 0.88326(5)
O2 O 0.86448(11) 0.03397(6) 0.74381(5)
N1 N 0.77698(15) 0.14128(6) 0.81072(5)
H1 H 0.829(2) 0.1706(9) 0.8219(8)
C1 C 0.78156(16) 0.08818(7) 0.84101(6)
C2 C 0.69566(17) 0.03290(7) 0.82119(6)
H2 H 0.6107 0.0494 0.8038
C3 C 0.77640(17) -0.00491(7) 0.77686(7)
H3 H 0.8312 -0.0382 0.7955
C4 C 0.6809(2) -0.03480(8) 0.73405(7)
H4 H 0.5954 -0.0493 0.7514
H5 H 0.7251 -0.0702 0.7149
C5 C 0.65528(17) 0.02015(8) 0.69431(7)
H6 H 0.5749 0.0446 0.7061
H7 H 0.6406 0.0050 0.6560
C6 C 0.78628(17) 0.05998(8) 0.69806(7)
H8 H 0.8394 0.0534 0.6633
C7 C 0.76677(18) 0.13088(8) 0.70595(7)
H9 H 0.7128 0.1465 0.6743
H10 H 0.8575 0.1507 0.7036
C8 C 0.69767(17) 0.15446(7) 0.75981(6)
H11 H 0.6067 0.1339 0.7632
C9 C 0.6763(2) 0.22577(7) 0.75568(7)
H12 H 0.7663 0.2458 0.7511
H13 H 0.6231 0.2346 0.7218
C10 C 0.6043(2) 0.25652(8) 0.80473(8)
H14 H 0.5178 0.2344 0.8119
H15 H 0.6620 0.2525 0.8381
C11 C 0.5748(4) 0.32542(10) 0.79434(11)
H16 H 0.6605 0.3479 0.7891
H17 H 0.5262 0.3429 0.8262
H18 H 0.5186 0.3297 0.7611
C12 C 0.6559(2) -0.00998(8) 0.86988(7)
H19 H 0.7382 -0.0239 0.8891
H20 H 0.6064 -0.0463 0.8557
H21 H 0.5979 0.0131 0.8957
O3 O 0.94542(13) 0.24401(5) 0.85728(5)
O4 O 0.90636(11) 0.29853(5) 0.99203(5)
N2 N 1.00937(14) 0.18814(6) 0.93300(5)
H22 H 0.9542(19) 0.1579(9) 0.9204(7)
C13 C 1.01048(16) 0.24057(7) 0.90153(6)
C14 C 1.09313(16) 0.29650(7) 0.92242(6)
H23 H 1.1731 0.2803 0.9435
C15 C 1.00397(17) 0.33628(7) 0.96260(7)
H24 H 0.9556 0.3696 0.9413
C16 C 1.0893(2) 0.36621(8) 1.00887(7)
H25 H 1.0423 0.4026 1.0253
H26 H 1.1796 0.3794 0.9951
C17 C 1.1015(2) 0.31204(8) 1.05083(7)
H27 H 1.1063 0.3281 1.0892
H28 H 1.1834 0.2865 1.0433
C18 C 0.96988(18) 0.27326(8) 1.04175(7)
H29 H 0.9076 0.2814 1.0737
C19 C 0.98860(18) 0.20232(8) 1.03656(7)
H30 H 0.8973 0.1831 1.0340
H31 H 1.0307 0.1871 1.0712
C20 C 1.07449(16) 0.17781(7) 0.98758(6)
H32 H 1.1638 0.2001 0.9878
C21 C 1.10184(19) 0.10720(8) 0.99420(7)
H33 H 1.1403 0.0996 1.0315
H34 H 1.0143 0.0846 0.9919
C22 C 1.19866(19) 0.08046(8) 0.95101(8)
H35 H 1.2827 0.1059 0.9505
H36 H 1.1558 0.0839 0.9141
C23 C 1.2368(3) 0.01221(10) 0.96145(9)
H37 H 1.2798 0.0084 0.9979
H38 H 1.3004 -0.0018 0.9328
H39 H 1.1547 -0.0136 0.9603
C24 C 1.1461(2) 0.33735(8) 0.87453(7)
H40 H 1.2124 0.3136 0.8528
H41 H 1.1896 0.3748 0.8896
H42 H 1.0699 0.3496 0.8508
loop_
_geom_bond_atom_site_label_1
_geom_bond_atom_site_label_2
_geom_bond_site_symmetry_1
_geom_bond_site_symmetry_2
O1 C1 1_555 1_555
O2 C3 1_555 1_555
N1 H1 1_555 1_555
C1 N1 1_555 1_555
C2 C1 1_555 1_555
H2 C2 1_555 1_555
C3 C2 1_555 1_555
H3 C3 1_555 1_555
C4 C3 1_555 1_555
H4 C4 1_555 1_555
H5 C4 1_555 1_555
C5 C4 1_555 1_555
H6 C5 1_555 1_555
H7 C5 1_555 1_555
C6 O2 1_555 1_555
H8 C6 1_555 1_555
C7 C6 1_555 1_555
H9 C7 1_555 1_555
H10 C7 1_555 1_555
C8 N1 1_555 1_555
H11 C8 1_555 1_555
C9 C8 1_555 1_555
H12 C9 1_555 1_555
H13 C9 1_555 1_555
C10 C9 1_555 1_555
H14 C10 1_555 1_555
H15 C10 1_555 1_555
C11 C10 1_555 1_555
H16 C11 1_555 1_555
H17 C11 1_555 1_555
H18 C11 1_555 1_555
C12 C2 1_555 1_555
H19 C12 1_555 1_555
H20 C12 1_555 1_555
H21 C12 1_555 1_555
O3 C13 1_555 1_555
O4 C15 1_555 1_555
N2 H22 1_555 1_555
C13 N2 1_555 1_555
C14 C13 1_555 1_555
H23 C14 1_555 1_555
C15 C14 1_555 1_555
H24 C15 1_555 1_555
C16 C15 1_555 1_555
H25 C16 1_555 1_555
H26 C16 1_555 1_555
C17 C16 1_555 1_555
H27 C17 1_555 1_555
H28 C17 1_555 1_555
C18 O4 1_555 1_555
H29 C18 1_555 1_555
C19 C18 1_555 1_555
H30 C19 1_555 1_555
H31 C19 1_555 1_555
C20 N2 1_555 1_555
H32 C20 1_555 1_555
C21 C20 1_555 1_555
H33 C21 1_555 1_555
H34 C21 1_555 1_555
C22 C21 1_555 1_555
H35 C22 1_555 1_555
H36 C22 1_555 1_555
C23 C22 1_555 1_555
H37 C23 1_555 1_555
H38 C23 1_555 1_555
H39 C23 1_555 1_555
C24 C14 1_555 1_555
H40 C24 1_555 1_555
H41 C24 1_555 1_555
H42 C24 1_555 1_555
C5 C6 1_555 1_555
C7 C8 1_555 1_555
C17 C18 1_555 1_555
C19 C20 1_555 1_555

#END
