
#######################################################################
#
#                 Cambridge Crystallographic Data Centre
#                                CCDC 
#
#######################################################################
#
# If this CIF has been generated from an entry in the Cambridge 
# Structural Database, then it will include bibliographic, chemical, 
# crystal, experimental, refinement or atomic coordinate data resulting 
# from the CCDC's data processing and validation procedures.
#
#######################################################################

data_XOGVOF01
_chemical_formula_moiety         'C12 H9 I1 N2 O2 S1'
_chemical_name_systematic        2-Nitrophenylthio-2-iodophenylamine
_symmetry_cell_setting           rhombohedral
_symmetry_space_group_name_H-M   'R -3'
_symmetry_Int_Tables_number      148
_space_group_name_Hall           '-R 3'
loop_
_symmetry_equiv_pos_site_id
_symmetry_equiv_pos_as_xyz
1 x,y,z
2 -y,x-y,z
3 -x+y,-x,z
4 2/3+x,1/3+y,1/3+z
5 2/3-y,1/3+x-y,1/3+z
6 2/3-x+y,1/3-x,1/3+z
7 1/3+x,2/3+y,2/3+z
8 1/3-y,2/3+x-y,2/3+z
9 1/3-x+y,2/3-x,2/3+z
10 -x,-y,-z
11 y,-x+y,-z
12 x-y,x,-z
13 1/3-x,2/3-y,2/3-z
14 1/3+y,2/3-x+y,2/3-z
15 1/3+x-y,2/3+x,2/3-z
16 2/3-x,1/3-y,1/3-z
17 2/3+y,1/3-x+y,1/3-z
18 2/3+x-y,1/3+x,1/3-z
_cell_length_a                   28.3168(7)
_cell_length_b                   28.3168(7)
_cell_length_c                   8.3011(3)
_cell_angle_alpha                90
_cell_angle_beta                 90
_cell_angle_gamma                120.00
_cell_volume                     5764.41
_exptl_crystal_colour            brown
_exptl_crystal_description       block
_cell_formula_units_Z            18
loop_
_atom_site_label
_atom_site_type_symbol
_atom_site_fract_x
_atom_site_fract_y
_atom_site_fract_z
I1 I 0.74224(2) 0.32871(2) 0.60826(8)
S1 S 0.84663(6) 0.51940(7) 0.4573(2)
O1 O 0.9527(2) 0.6740(2) 0.2292(7)
O2 O 0.8849(2) 0.6198(2) 0.3792(6)
N1 N 0.8195(3) 0.4506(3) 0.4950(8)
H1 H 0.7874 0.4265 0.4559
N2 N 0.9204(2) 0.6286(2) 0.2795(7)
C1 C 0.8902(2) 0.5301(3) 0.2893(8)
C2 C 0.9226(2) 0.5814(2) 0.2193(8)
C3 C 0.9571(3) 0.5899(3) 0.0895(8)
H2 H 0.9790 0.6255 0.0464
C4 C 0.9593(3) 0.5458(3) 0.0233(8)
H3 H 0.9817 0.5504 -0.0673
C5 C 0.9274(3) 0.4945(3) 0.0946(8)
H4 H 0.9288 0.4640 0.0525
C6 C 0.8943(3) 0.4871(2) 0.2233(8)
H5 H 0.8735 0.4517 0.2689
C7 C 0.8512(3) 0.4330(3) 0.5940(8)
C8 C 0.8249(3) 0.3798(3) 0.6561(8)
C9 C 0.8524(3) 0.3608(3) 0.7483(9)
H6 H 0.8335 0.3250 0.7917
C10 C 0.9076(3) 0.3940(3) 0.7776(8)
H7 H 0.9267 0.3811 0.8414
C11 C 0.9348(3) 0.4460(3) 0.7137(8)
H8 H 0.9729 0.4683 0.7309
C12 C 0.9070(3) 0.4660(3) 0.6241(8)
H9 H 0.9259 0.5022 0.5834
loop_
_geom_bond_atom_site_label_1
_geom_bond_atom_site_label_2
_geom_bond_site_symmetry_1
_geom_bond_site_symmetry_2
I1 C8 1_555 1_555
S1 N1 1_555 1_555
O1 N2 1_555 1_555
O2 N2 1_555 1_555
N1 H1 1_555 1_555
N2 C2 1_555 1_555
C1 S1 1_555 1_555
C2 C1 1_555 1_555
C3 C2 1_555 1_555
H2 C3 1_555 1_555
C4 C3 1_555 1_555
H3 C4 1_555 1_555
C5 C4 1_555 1_555
H4 C5 1_555 1_555
C6 C1 1_555 1_555
H5 C6 1_555 1_555
C7 N1 1_555 1_555
C8 C7 1_555 1_555
C9 C8 1_555 1_555
H6 C9 1_555 1_555
C10 C9 1_555 1_555
H7 C10 1_555 1_555
C11 C10 1_555 1_555
H8 C11 1_555 1_555
C12 C7 1_555 1_555
H9 C12 1_555 1_555
C5 C6 1_555 1_555
C11 C12 1_555 1_555

#END
