
#######################################################################
#
#                 Cambridge Crystallographic Data Centre
#                                CCDC 
#
#######################################################################
#
# If this CIF has been generated from an entry in the Cambridge 
# Structural Database, then it will include bibliographic, chemical, 
# crystal, experimental, refinement or atomic coordinate data resulting 
# from the CCDC's data processing and validation procedures.
#
#######################################################################

data_XOGVIZ
_chemical_formula_moiety         'C16 H16 N2'
_chemical_name_systematic        
'2-Methylbenzaldehyde 2-methylbenzylidenehydrazone'
_symmetry_cell_setting           monoclinic
_symmetry_space_group_name_H-M   'P 21/c'
_symmetry_Int_Tables_number      14
_space_group_name_Hall           '-P 2ybc'
loop_
_symmetry_equiv_pos_site_id
_symmetry_equiv_pos_as_xyz
1 x,y,z
2 -x,1/2+y,1/2-z
3 -x,-y,-z
4 x,1/2-y,1/2+z
_cell_length_a                   6.1578(11)
_cell_length_b                   13.248(2)
_cell_length_c                   8.8161(16)
_cell_angle_alpha                90
_cell_angle_beta                 105.398(12)
_cell_angle_gamma                90
_cell_volume                     693.388
_exptl_crystal_colour            yellow
_exptl_crystal_description       plate
_cell_formula_units_Z            2
_exptl_crystal_recrystallization_method 'absolute ethanol'
loop_
_atom_site_label
_atom_site_type_symbol
_atom_site_fract_x
_atom_site_fract_y
_atom_site_fract_z
N1 N 0.03959(16) 0.45944(7) 0.05193(11)
C1 C 0.33920(18) 0.40583(8) 0.26999(12)
C2 C 0.56653(19) 0.41758(9) 0.35123(13)
C3 C 0.6648(2) 0.34407(11) 0.46155(15)
H1 H 0.8162 0.3499 0.5151
C4 C 0.5435(3) 0.26319(11) 0.49318(18)
H2 H 0.6129 0.2158 0.5682
C5 C 0.3198(3) 0.25229(10) 0.41412(16)
H3 H 0.2377 0.1977 0.4356
C6 C 0.2186(2) 0.32277(9) 0.30309(14)
H4 H 0.0678 0.3151 0.2492
C7 C 0.22666(19) 0.47938(8) 0.15044(13)
H5 H 0.2935 0.5419 0.1466
C8 C 0.7057(2) 0.50502(11) 0.32086(16)
H6 H 0.6477 0.5668 0.3517
H7 H 0.6986 0.5078 0.2108
H8 H 0.8593 0.4963 0.3807
N1B N -0.03959(16) 0.54056(7) -0.05193(11)
C1B C -0.33920(18) 0.59417(8) -0.26999(12)
C2B C -0.56653(19) 0.58242(9) -0.35123(13)
C3B C -0.6648(2) 0.65593(11) -0.46155(15)
H1B H -0.8162 0.6501 -0.5151
C4B C -0.5435(3) 0.73681(11) -0.49318(18)
H2B H -0.6129 0.7842 -0.5682
C5B C -0.3198(3) 0.74771(10) -0.41412(16)
H3B H -0.2377 0.8023 -0.4356
C6B C -0.2186(2) 0.67723(9) -0.30309(14)
H4B H -0.0678 0.6849 -0.2492
C7B C -0.22666(19) 0.52062(8) -0.15044(13)
H5B H -0.2935 0.4581 -0.1466
C8B C -0.7057(2) 0.49498(11) -0.32086(16)
H6B H -0.6477 0.4332 -0.3517
H7B H -0.6986 0.4922 -0.2108
H8B H -0.8593 0.5037 -0.3807
loop_
_geom_bond_atom_site_label_1
_geom_bond_atom_site_label_2
_geom_bond_site_symmetry_1
_geom_bond_site_symmetry_2
N1 C7 1_555 1_555
C1 C2 1_555 1_555
C2 C3 1_555 1_555
C3 H1 1_555 1_555
C4 C3 1_555 1_555
H2 C4 1_555 1_555
C5 C4 1_555 1_555
H3 C5 1_555 1_555
C6 C1 1_555 1_555
H4 C6 1_555 1_555
C7 C1 1_555 1_555
H5 C7 1_555 1_555
C8 C2 1_555 1_555
H6 C8 1_555 1_555
H7 C8 1_555 1_555
H8 C8 1_555 1_555
N1B N1 1_555 1_555
C1B C2B 1_555 1_555
C2B C3B 1_555 1_555
C3B H1B 1_555 1_555
C4B C3B 1_555 1_555
H2B C4B 1_555 1_555
C5B C4B 1_555 1_555
H3B C5B 1_555 1_555
C6B C1B 1_555 1_555
H4B C6B 1_555 1_555
C7B N1B 1_555 1_555
H5B C7B 1_555 1_555
C8B C2B 1_555 1_555
H6B C8B 1_555 1_555
H7B C8B 1_555 1_555
H8B C8B 1_555 1_555
C5 C6 1_555 1_555
C1B C7B 1_555 1_555
C5B C6B 1_555 1_555

#END
