
#######################################################################
#
#                 Cambridge Crystallographic Data Centre
#                                CCDC 
#
#######################################################################
#
# If this CIF has been generated from an entry in the Cambridge 
# Structural Database, then it will include bibliographic, chemical, 
# crystal, experimental, refinement or atomic coordinate data resulting 
# from the CCDC's data processing and validation procedures.
#
#######################################################################

data_XOGWIB
_chemical_formula_moiety         'C22 H18 O2'
_chemical_name_systematic        
2-(1-hydroxy-1,2-dihydronaphthalen-2-yl)-1-(2-naphthyl)ethanone
_symmetry_cell_setting           monoclinic
_symmetry_space_group_name_H-M   'P 21'
_symmetry_Int_Tables_number      4
_space_group_name_Hall           'P 2yb'
loop_
_symmetry_equiv_pos_site_id
_symmetry_equiv_pos_as_xyz
1 x,y,z
2 -x,1/2+y,-z
_cell_length_a                   5.4036(5)
_cell_length_b                   24.156(2)
_cell_length_c                   5.9769(6)
_cell_angle_alpha                90
_cell_angle_beta                 90.837(3)
_cell_angle_gamma                90
_cell_volume                     780.078
_exptl_crystal_colour            colorless
_exptl_crystal_description       needle
_cell_formula_units_Z            2
loop_
_atom_site_label
_atom_site_type_symbol
_atom_site_fract_x
_atom_site_fract_y
_atom_site_fract_z
O1 O 0.25330(16) 0.91066(4) 1.11925(14)
O2 O 0.58722(18) 0.95629(4) 0.42367(15)
C1 C 0.4590(2) 0.88744(5) 0.7749(2)
H1 H 0.3152 0.9068 0.7024
C2 C 0.3750(2) 0.86691(5) 1.0042(2)
H2 H 0.5250 0.8559 1.0936
C3 C 0.2038(2) 0.81735(5) 0.9865(2)
C4 C 0.0294(2) 0.80686(6) 1.1491(2)
H3 H 0.0110 0.8321 1.2695
C5 C -0.1185(2) 0.75997(6) 1.1383(2)
H4 H -0.2369 0.7532 1.2510
C6 C -0.0934(2) 0.72284(6) 0.9624(2)
H5 H -0.1957 0.6909 0.9536
C7 C 0.0809(2) 0.73261(6) 0.8006(2)
H6 H 0.0988 0.7071 0.6811
C8 C 0.2316(2) 0.77962(5) 0.8103(2)
C9 C 0.4188(2) 0.79066(6) 0.6422(2)
H7 H 0.4633 0.7620 0.5416
C10 C 0.5284(2) 0.83970(6) 0.6263(2)
H8 H 0.6537 0.8448 0.5184
C11 C 0.6684(2) 0.92981(6) 0.8013(2)
H9 H 0.6284 0.9553 0.9253
H10 H 0.8230 0.9101 0.8427
C12 C 0.7120(2) 0.96329(6) 0.5929(2)
C13 C 0.9070(2) 1.00715(5) 0.5940(2)
C14 C 1.0692(2) 1.01545(5) 0.7706(2)
H11 H 1.0617 0.9921 0.8981
C15 C 1.2475(2) 1.05857(5) 0.7642(2)
C16 C 1.4203(2) 1.06778(6) 0.9407(2)
H12 H 1.4209 1.0440 1.0675
C17 C 1.5864(2) 1.11051(6) 0.9308(2)
H13 H 1.7001 1.1164 1.0512
C18 C 1.5899(2) 1.14583(6) 0.7434(2)
H14 H 1.7054 1.1754 0.7382
C19 C 1.4282(2) 1.13769(6) 0.5694(2)
H15 H 1.4334 1.1615 0.4431
C20 C 1.2525(2) 1.09425(5) 0.5743(2)
C21 C 1.0830(2) 1.08453(5) 0.3957(2)
H16 H 1.0849 1.1080 0.2682
C22 C 0.9177(2) 1.04226(5) 0.4037(2)
H17 H 0.8080 1.0361 0.2806
H18 H 0.352(4) 0.9218(9) 1.233(3)
loop_
_geom_bond_atom_site_label_1
_geom_bond_atom_site_label_2
_geom_bond_site_symmetry_1
_geom_bond_site_symmetry_2
O1 C2 1_555 1_555
O2 C12 1_555 1_555
C1 H1 1_555 1_555
C2 C1 1_555 1_555
H2 C2 1_555 1_555
C3 C2 1_555 1_555
C4 C3 1_555 1_555
H3 C4 1_555 1_555
C5 C4 1_555 1_555
H4 C5 1_555 1_555
C6 C5 1_555 1_555
H5 C6 1_555 1_555
C7 C6 1_555 1_555
H6 C7 1_555 1_555
C8 C3 1_555 1_555
C9 C8 1_555 1_555
H7 C9 1_555 1_555
C10 C1 1_555 1_555
H8 C10 1_555 1_555
C11 C1 1_555 1_555
H9 C11 1_555 1_555
H10 C11 1_555 1_555
C12 C11 1_555 1_555
C13 C12 1_555 1_555
C14 C13 1_555 1_555
H11 C14 1_555 1_555
C15 C14 1_555 1_555
C16 C15 1_555 1_555
H12 C16 1_555 1_555
C17 C16 1_555 1_555
H13 C17 1_555 1_555
C18 C17 1_555 1_555
H14 C18 1_555 1_555
C19 C18 1_555 1_555
H15 C19 1_555 1_555
C20 C15 1_555 1_555
C21 C20 1_555 1_555
H16 C21 1_555 1_555
C22 C13 1_555 1_555
H17 C22 1_555 1_555
H18 O1 1_555 1_555
C7 C8 1_555 1_555
C9 C10 1_555 1_555
C19 C20 1_555 1_555
C21 C22 1_555 1_555

#END
