
#######################################################################
#
#                 Cambridge Crystallographic Data Centre
#                                CCDC 
#
#######################################################################
#
# If this CIF has been generated from an entry in the Cambridge 
# Structural Database, then it will include bibliographic, chemical, 
# crystal, experimental, refinement or atomic coordinate data resulting 
# from the CCDC's data processing and validation procedures.
#
#######################################################################

data_XOGYEY
_chemical_formula_moiety         'C34 H34 O4,C13 H15 N1 O2'
_chemical_name_systematic        
'4,5-bis(Hydroxy(diphenyl)methyl)-2,2-(pentamethylene)-1,3-dioxolane 1-phenyl-2-(1-piperidinyl)-1,2-ethanedione clathrate'
_symmetry_cell_setting           monoclinic
_symmetry_space_group_name_H-M   'P 21'
_symmetry_Int_Tables_number      4
_space_group_name_Hall           'P 2yb'
loop_
_symmetry_equiv_pos_site_id
_symmetry_equiv_pos_as_xyz
1 x,y,z
2 -x,1/2+y,-z
_cell_length_a                   9.4158(2)
_cell_length_b                   40.9669(10)
_cell_length_c                   10.2490(3)
_cell_angle_alpha                90
_cell_angle_beta                 91.7547(16)
_cell_angle_gamma                90
_cell_volume                     3951.56
_exptl_crystal_colour            colorless
_exptl_crystal_description       needle
_cell_formula_units_Z            4
loop_
_atom_site_label
_atom_site_type_symbol
_atom_site_fract_x
_atom_site_fract_y
_atom_site_fract_z
O1 O 0.9620(6) 0.56423(13) 0.6116(4)
H1 H 1.0161 0.5560 0.6667
O2 O 1.1233(6) 0.53962(12) 0.8015(4)
H2 H 1.1648 0.5221 0.8112
O3 O 0.8442(5) 0.61843(11) 0.8747(4)
O4 O 1.0482(5) 0.60922(11) 0.9946(4)
C1 C 0.9113(7) 0.59008(18) 0.8196(6)
H3 H 0.8691 0.5701 0.8481
C2 C 0.8929(8) 0.59265(19) 0.6672(6)
C3 C 0.9566(8) 0.6235(2) 0.6150(6)
C4 C 0.8857(9) 0.6527(2) 0.6172(7)
H4 H 0.7907 0.6528 0.6487
C5 C 0.9472(12) 0.6812(3) 0.5747(8)
H5 H 0.8943 0.7013 0.5753
C6 C 1.0840(13) 0.6800(3) 0.5272(10)
H6 H 1.1322 0.6997 0.5034
C7 C 1.1522(12) 0.6521(4) 0.5218(9)
H7 H 1.2441 0.6521 0.4838
C8 C 1.0937(9) 0.6237(3) 0.5633(7)
H8 H 1.1434 0.6032 0.5612
C9 C 0.7376(8) 0.58915(17) 0.6190(7)
C10 C 0.6219(9) 0.58676(19) 0.6978(7)
H9 H 0.6365 0.5879 0.7908
C11 C 0.4840(8) 0.5827(2) 0.6432(9)
H10 H 0.4059 0.5811 0.7008
C12 C 0.4618(9) 0.58083(18) 0.5120(9)
H11 H 0.3686 0.5780 0.4730
C13 C 0.5764(10) 0.5836(2) 0.4312(7)
H12 H 0.5647 0.5816 0.3382
C14 C 0.7146(9) 0.58830(19) 0.4842(7)
H13 H 0.7947 0.5919 0.4302
C15 C 1.0618(7) 0.59059(16) 0.8808(6)
H14 H 1.1230 0.6000 0.8177
C16 C 1.1281(7) 0.55725(18) 0.9223(6)
C17 C 1.0359(8) 0.54028(19) 1.0266(8)
C18 C 1.0429(9) 0.55106(19) 1.1532(8)
H15 H 1.1046 0.5690 1.1746
C19 C 0.9549(11) 0.5362(3) 1.2440(9)
H16 H 0.9552 0.5434 1.3331
C20 C 0.8659(13) 0.5094(4) 1.2004(17)
H17 H 0.8073 0.4990 1.2630
C21 C 0.8676(12) 0.4999(3) 1.0824(16)
H18 H 0.8086 0.4821 1.0525
C22 C 0.9505(9) 0.5145(2) 0.9952(10)
H19 H 0.9517 0.5066 0.9070
C23 C 1.2806(7) 0.56007(19) 0.9726(6)
C24 C 1.3595(9) 0.5310(2) 0.9888(7)
H20 H 1.3133 0.5105 0.9700
C25 C 1.4996(10) 0.5321(3) 1.0299(8)
H21 H 1.5525 0.5122 1.0418
C26 C 1.5656(9) 0.5616(3) 1.0553(8)
H22 H 1.6641 0.5621 1.0826
C27 C 1.4927(9) 0.5903(2) 1.0400(7)
H23 H 1.5386 0.6108 1.0582
C28 C 1.3489(8) 0.5891(2) 0.9982(6)
H24 H 1.2979 0.6093 0.9868
C29 C 0.9339(8) 0.63229(17) 0.9759(6)
C30 C 0.8541(8) 0.63342(18) 1.0999(6)
H25 H 0.8286 0.6116 1.1237
H26 H 0.7695 0.6461 1.0849
C31 C 0.9426(9) 0.6500(2) 1.2112(7)
H27 H 1.0260 0.6369 1.2261
H28 H 0.8906 0.6514 1.2901
C32 C 0.9944(9) 0.6831(2) 1.1714(8)
H29 H 1.0508 0.6929 1.2405
H30 H 0.9112 0.6961 1.1541
C33 C 1.0776(8) 0.68136(19) 1.0463(7)
H31 H 1.1050 0.7028 1.0194
H32 H 1.1611 0.6684 1.0639
C34 C 0.9909(7) 0.66506(17) 0.9360(7)
H33 H 0.9127 0.6792 0.9133
H34 H 1.0485 0.6620 0.8613
O5 O 0.9181(8) 0.91259(17) 0.3249(6)
O6 O 0.7850(7) 0.97933(14) 0.2553(6)
N1 N 0.8074(10) 0.9750(2) 0.4734(9)
C35 C 1.0967(11) 0.9525(2) 0.3142(8)
C36 C 1.1936(14) 0.9318(3) 0.2587(9)
H35 H 1.1604 0.9105 0.2341
C37 C 1.3305(17) 0.9399(4) 0.2401(11)
H36 H 1.3937 0.9241 0.2045
C38 C 1.3743(16) 0.9712(5) 0.2728(14)
H37 H 1.4704 0.9774 0.2557
C39 C 1.2848(15) 0.9932(3) 0.3281(13)
H38 H 1.3179 1.0147 0.3506
C40 C 1.1434(13) 0.9841(2) 0.3517(9)
H39 H 1.0784 0.9987 0.3922
C41 C 0.9546(13) 0.9410(3) 0.3347(9)
C42 C 0.8372(11) 0.9668(2) 0.3522(11)
C43 C 0.8718(13) 0.9584(3) 0.5944(12)
H40 H 0.9302 0.9738 0.6420
H41 H 0.9294 0.9405 0.5663
C44 C 0.7718(15) 0.9471(3) 0.6804(12)
H42 H 0.8150 0.9365 0.7550
H43 H 0.7131 0.9318 0.6326
C45 C 0.6743(18) 0.9746(4) 0.7163(13)
H44 H 0.6062 0.9687 0.7800
H45 H 0.7358 0.9913 0.7515
C46 C 0.6052(14) 0.9892(3) 0.5906(16)
H46 H 0.5407 1.0063 0.6139
H47 H 0.5529 0.9717 0.5494
C47 C 0.7066(15) 1.0003(3) 0.5041(13)
H48 H 0.6648 1.0083 0.4237
H49 H 0.7581 1.0175 0.5476
O7 O 0.3646(6) 0.81711(11) 0.0612(4)
H50 H 0.3550 0.8367 0.0740
O8 O 0.5128(5) 0.79124(12) -0.1279(4)
H51 H 0.4732 0.8018 -0.0718
O9 O 0.4492(5) 0.74660(11) 0.2554(4)
O10 O 0.6526(4) 0.74074(11) 0.1442(4)
C48 C 0.4284(7) 0.76630(15) 0.1427(6)
H52 H 0.3610 0.7574 0.0803
C49 C 0.3688(7) 0.80001(16) 0.1850(7)
C50 C 0.2172(8) 0.79783(19) 0.2315(6)
C51 C 0.1513(8) 0.7686(2) 0.2676(7)
H53 H 0.2029 0.7485 0.2604
C52 C 0.0123(8) 0.7691(2) 0.3105(7)
H54 H -0.0296 0.7490 0.3381
C53 C -0.0625(8) 0.7971(2) 0.3166(7)
H55 H -0.1592 0.7972 0.3436
C54 C 0.0003(9) 0.8262(2) 0.2833(7)
H56 H -0.0517 0.8463 0.2891
C55 C 0.1393(8) 0.8259(2) 0.2423(7)
H57 H 0.1833 0.8462 0.2200
C56 C 0.4653(8) 0.81754(18) 0.2860(8)
C57 C 0.4653(9) 0.80679(19) 0.4158(8)
H58 H 0.4040 0.7893 0.4407
C58 C 0.5511(14) 0.8219(3) 0.5079(11)
H59 H 0.5470 0.8149 0.5972
C59 C 0.6397(15) 0.8465(4) 0.4785(16)
H60 H 0.7023 0.8548 0.5464
C60 C 0.6352(11) 0.8580(3) 0.3533(17)
H61 H 0.6933 0.8764 0.3317
C61 C 0.5512(9) 0.8434(2) 0.2538(9)
H62 H 0.5473 0.8503 0.1643
C62 C 0.5805(7) 0.76752(16) 0.0830(6)
H63 H 0.6221 0.7881 0.1069
C63 C 0.5873(7) 0.76437(17) -0.0681(6)
C64 C 0.5221(8) 0.73266(18) -0.1199(6)
C65 C 0.6008(9) 0.7037(2) -0.1165(6)
H64 H 0.6981 0.7046 -0.0859
C66 C 0.5386(11) 0.6749(2) -0.1581(8)
H65 H 0.5921 0.6550 -0.1520
C67 C 0.4016(14) 0.6742(3) -0.2067(8)
H66 H 0.3627 0.6539 -0.2377
C68 C 0.3218(10) 0.7025(3) -0.2103(9)
H67 H 0.2257 0.7023 -0.2446
C69 C 0.3827(9) 0.7311(2) -0.1665(7)
H68 H 0.3277 0.7508 -0.1667
C70 C 0.7400(8) 0.76778(17) -0.1152(7)
C71 C 0.7563(8) 0.76878(19) -0.2508(7)
H69 H 0.6728 0.7672 -0.3065
C72 C 0.8892(10) 0.7719(2) -0.3034(8)
H70 H 0.9019 0.7717 -0.3960
C73 C 1.0077(11) 0.7751(2) -0.2242(9)
H71 H 1.0986 0.7790 -0.2612
C74 C 0.9932(9) 0.7739(2) -0.0897(9)
H72 H 1.0771 0.7740 -0.0340
C75 C 0.8587(9) 0.7704(2) -0.0362(8)
H73 H 0.8470 0.7709 0.0565
C76 C 0.5686(7) 0.72595(16) 0.2419(6)
C77 C 0.5226(8) 0.69173(18) 0.2029(7)
H74 H 0.6043 0.6789 0.1826
H75 H 0.4614 0.6936 0.1267
C78 C 0.4446(9) 0.6747(2) 0.3096(7)
H76 H 0.3584 0.6865 0.3243
H77 H 0.4221 0.6527 0.2840
C79 C 0.5340(9) 0.6745(2) 0.4354(8)
H78 H 0.6215 0.6633 0.4199
H79 H 0.4842 0.6633 0.5026
C80 C 0.5701(8) 0.7086(2) 0.4769(6)
H80 H 0.4840 0.7207 0.4888
H81 H 0.6260 0.7087 0.5569
C81 C 0.6509(8) 0.72572(19) 0.3708(6)
H82 H 0.6709 0.7480 0.3938
H83 H 0.7385 0.7141 0.3613
O11 O 0.4177(4) 0.94539(7) 0.9432(4)
O12 O 0.2840(4) 0.87913(10) 1.0047(4)
N2 N 0.2914(4) 0.88447(9) 0.7939(4)
C82 C 0.5899(3) 0.90322(9) 0.9483(3)
C83 C 0.6869(4) 0.92540(12) 0.9990(3)
H84 H 0.6495 0.9456 1.0308
C84 C 0.8136(4) 0.91915(15) 1.0204(4)
H85 H 0.8814 0.9357 1.0453
C85 C 0.8654(3) 0.89418(16) 0.9929(5)
H86 H 0.9625 0.8888 1.0149
C86 C 0.7926(4) 0.86540(14) 0.9395(5)
H87 H 0.8301 0.8443 0.9188
C87 C 0.6372(4) 0.87317(10) 0.9117(4)
H88 H 0.5657 0.8600 0.8685
C88 C 0.4483(4) 0.91683(7) 0.9305(3)
C89 C 0.3364(3) 0.89200(8) 0.9120(3)
C90 C 0.3712(4) 0.89343(12) 0.6741(3)
H89 H 0.4025 0.9140 0.7093
H90 H 0.4523 0.8800 0.6577
C91 C 0.2776(5) 0.90363(16) 0.5820(4)
H91 H 0.3418 0.9054 0.5114
H92 H 0.2237 0.9234 0.5883
C92 C 0.1731(6) 0.87217(17) 0.5629(5)
H93 H 0.1022 0.8803 0.5020
H94 H 0.2242 0.8547 0.5234
C93 C 0.0906(5) 0.86850(15) 0.6918(5)
H95 H 0.0345 0.8859 0.7263
H96 H 0.0298 0.8506 0.6670
C94 C 0.2009(5) 0.85503(12) 0.7547(5)
H97 H 0.2557 0.8374 0.7208
H98 H 0.1523 0.8478 0.8304
loop_
_geom_bond_atom_site_label_1
_geom_bond_atom_site_label_2
_geom_bond_site_symmetry_1
_geom_bond_site_symmetry_2
O1 H1 1_555 1_555
O2 H2 1_555 1_555
O3 C1 1_555 1_555
O4 C15 1_555 1_555
C1 H3 1_555 1_555
C2 O1 1_555 1_555
C3 C2 1_555 1_555
C4 C3 1_555 1_555
H4 C4 1_555 1_555
C5 C4 1_555 1_555
H5 C5 1_555 1_555
C6 C5 1_555 1_555
H6 C6 1_555 1_555
C7 C6 1_555 1_555
H7 C7 1_555 1_555
C8 C3 1_555 1_555
H8 C8 1_555 1_555
C9 C2 1_555 1_555
C10 C9 1_555 1_555
H9 C10 1_555 1_555
C11 C10 1_555 1_555
H10 C11 1_555 1_555
C12 C11 1_555 1_555
H11 C12 1_555 1_555
C13 C12 1_555 1_555
H12 C13 1_555 1_555
C14 C9 1_555 1_555
H13 C14 1_555 1_555
C15 C1 1_555 1_555
H14 C15 1_555 1_555
C16 O2 1_555 1_555
C17 C16 1_555 1_555
C18 C17 1_555 1_555
H15 C18 1_555 1_555
C19 C18 1_555 1_555
H16 C19 1_555 1_555
C20 C19 1_555 1_555
H17 C20 1_555 1_555
C21 C20 1_555 1_555
H18 C21 1_555 1_555
C22 C17 1_555 1_555
H19 C22 1_555 1_555
C23 C16 1_555 1_555
C24 C23 1_555 1_555
H20 C24 1_555 1_555
C25 C24 1_555 1_555
H21 C25 1_555 1_555
C26 C25 1_555 1_555
H22 C26 1_555 1_555
C27 C26 1_555 1_555
H23 C27 1_555 1_555
C28 C23 1_555 1_555
H24 C28 1_555 1_555
C29 O3 1_555 1_555
C30 C29 1_555 1_555
H25 C30 1_555 1_555
H26 C30 1_555 1_555
C31 C30 1_555 1_555
H27 C31 1_555 1_555
H28 C31 1_555 1_555
C32 C31 1_555 1_555
H29 C32 1_555 1_555
H30 C32 1_555 1_555
C33 C32 1_555 1_555
H31 C33 1_555 1_555
H32 C33 1_555 1_555
C34 C29 1_555 1_555
H33 C34 1_555 1_555
H34 C34 1_555 1_555
O5 C41 1_555 1_555
O6 C42 1_555 1_555
N1 C42 1_555 1_555
C35 C36 1_555 1_555
C36 H35 1_555 1_555
C37 C36 1_555 1_555
H36 C37 1_555 1_555
C38 C37 1_555 1_555
H37 C38 1_555 1_555
C39 C38 1_555 1_555
H38 C39 1_555 1_555
C40 C35 1_555 1_555
H39 C40 1_555 1_555
C41 C35 1_555 1_555
C42 C41 1_555 1_555
C43 N1 1_555 1_555
H40 C43 1_555 1_555
H41 C43 1_555 1_555
C44 C43 1_555 1_555
H42 C44 1_555 1_555
H43 C44 1_555 1_555
C45 C44 1_555 1_555
H44 C45 1_555 1_555
H45 C45 1_555 1_555
C46 C45 1_555 1_555
H46 C46 1_555 1_555
H47 C46 1_555 1_555
C47 N1 1_555 1_555
H48 C47 1_555 1_555
H49 C47 1_555 1_555
O7 H50 1_555 1_555
O8 H51 1_555 1_555
O9 C48 1_555 1_555
O10 C62 1_555 1_555
C48 H52 1_555 1_555
C49 O7 1_555 1_555
C50 C49 1_555 1_555
C51 C50 1_555 1_555
H53 C51 1_555 1_555
C52 C51 1_555 1_555
H54 C52 1_555 1_555
C53 C52 1_555 1_555
H55 C53 1_555 1_555
C54 C53 1_555 1_555
H56 C54 1_555 1_555
C55 C50 1_555 1_555
H57 C55 1_555 1_555
C56 C49 1_555 1_555
C57 C56 1_555 1_555
H58 C57 1_555 1_555
C58 C57 1_555 1_555
H59 C58 1_555 1_555
C59 C58 1_555 1_555
H60 C59 1_555 1_555
C60 C59 1_555 1_555
H61 C60 1_555 1_555
C61 C56 1_555 1_555
H62 C61 1_555 1_555
C62 C48 1_555 1_555
H63 C62 1_555 1_555
C63 O8 1_555 1_555
C64 C63 1_555 1_555
C65 C64 1_555 1_555
H64 C65 1_555 1_555
C66 C65 1_555 1_555
H65 C66 1_555 1_555
C67 C66 1_555 1_555
H66 C67 1_555 1_555
C68 C67 1_555 1_555
H67 C68 1_555 1_555
C69 C64 1_555 1_555
H68 C69 1_555 1_555
C70 C63 1_555 1_555
C71 C70 1_555 1_555
H69 C71 1_555 1_555
C72 C71 1_555 1_555
H70 C72 1_555 1_555
C73 C72 1_555 1_555
H71 C73 1_555 1_555
C74 C73 1_555 1_555
H72 C74 1_555 1_555
C75 C70 1_555 1_555
H73 C75 1_555 1_555
C76 O9 1_555 1_555
C77 C76 1_555 1_555
H74 C77 1_555 1_555
H75 C77 1_555 1_555
C78 C77 1_555 1_555
H76 C78 1_555 1_555
H77 C78 1_555 1_555
C79 C78 1_555 1_555
H78 C79 1_555 1_555
H79 C79 1_555 1_555
C80 C79 1_555 1_555
H80 C80 1_555 1_555
H81 C80 1_555 1_555
C81 C76 1_555 1_555
H82 C81 1_555 1_555
H83 C81 1_555 1_555
O11 C88 1_555 1_555
O12 C89 1_555 1_555
N2 C89 1_555 1_555
C82 C83 1_555 1_555
C83 H84 1_555 1_555
C84 C83 1_555 1_555
H85 C84 1_555 1_555
C85 C84 1_555 1_555
H86 C85 1_555 1_555
C86 C85 1_555 1_555
H87 C86 1_555 1_555
C87 C82 1_555 1_555
H88 C87 1_555 1_555
C88 C82 1_555 1_555
C89 C88 1_555 1_555
C90 N2 1_555 1_555
H89 C90 1_555 1_555
H90 C90 1_555 1_555
C91 C90 1_555 1_555
H91 C91 1_555 1_555
H92 C91 1_555 1_555
C92 C91 1_555 1_555
H93 C92 1_555 1_555
H94 C92 1_555 1_555
C93 C92 1_555 1_555
H95 C93 1_555 1_555
H96 C93 1_555 1_555
C94 N2 1_555 1_555
H97 C94 1_555 1_555
H98 C94 1_555 1_555
O4 C29 1_555 1_555
C1 C2 1_555 1_555
C7 C8 1_555 1_555
C13 C14 1_555 1_555
C15 C16 1_555 1_555
C21 C22 1_555 1_555
C27 C28 1_555 1_555
C33 C34 1_555 1_555
C39 C40 1_555 1_555
C46 C47 1_555 1_555
O10 C76 1_555 1_555
C48 C49 1_555 1_555
C54 C55 1_555 1_555
C60 C61 1_555 1_555
C62 C63 1_555 1_555
C68 C69 1_555 1_555
C74 C75 1_555 1_555
C80 C81 1_555 1_555
C86 C87 1_555 1_555
C93 C94 1_555 1_555

#END
