
#######################################################################
#
#                 Cambridge Crystallographic Data Centre
#                                CCDC 
#
#######################################################################
#
# If this CIF has been generated from an entry in the Cambridge 
# Structural Database, then it will include bibliographic, chemical, 
# crystal, experimental, refinement or atomic coordinate data resulting 
# from the CCDC's data processing and validation procedures.
#
#######################################################################

data_XOHFEG
_chemical_formula_moiety         'C20 H18 N8 O2'
_chemical_name_systematic        
meso-1-(3'-Azido-4'-phenylazetidine-2'-one-1'-yl)-2-(3''-azido-4''-phenylazetidine-2''-one-1''-yl)ethane
_symmetry_cell_setting           monoclinic
_symmetry_space_group_name_H-M   'P 21/c'
_symmetry_Int_Tables_number      14
_space_group_name_Hall           '-P 2ybc'
loop_
_symmetry_equiv_pos_site_id
_symmetry_equiv_pos_as_xyz
1 x,y,z
2 -x,1/2+y,1/2-z
3 -x,-y,-z
4 x,1/2-y,1/2+z
_cell_length_a                   13.196(8)
_cell_length_b                   5.751(4)
_cell_length_c                   13.632(8)
_cell_angle_alpha                90
_cell_angle_beta                 109.453(9)
_cell_angle_gamma                90
_cell_volume                     975.479
_exptl_crystal_colour            colorless
_exptl_crystal_description       needle
_chemical_melting_point          '162-163 deg.C'
_cell_formula_units_Z            2
_exptl_crystal_recrystallization_method 'ethyl acetate/light petroleum ether'
loop_
_atom_site_label
_atom_site_type_symbol
_atom_site_fract_x
_atom_site_fract_y
_atom_site_fract_z
O1 O 0.49932(10) 0.9761(2) 0.32493(10)
N1 N 0.41808(8) 0.6790(2) 0.38820(9)
N2 N 0.24536(10) 0.9250(2) 0.19948(10)
N3 N 0.25915(9) 1.0675(2) 0.13832(9)
N4 N 0.26118(13) 1.2082(3) 0.08218(12)
C1 C 0.43215(11) 0.8306(2) 0.31892(12)
C2 C 0.32989(11) 0.7501(3) 0.23467(10)
H1 H 0.3438 0.6689 0.1772
C3 C 0.31597(10) 0.5826(2) 0.31849(10)
H2 H 0.3242 0.4200 0.3010
C4 C 0.22010(10) 0.6137(2) 0.35299(10)
C5 C 0.20996(12) 0.8024(3) 0.41183(11)
H3 H 0.2644 0.9130 0.4325
C6 C 0.11951(13) 0.8274(3) 0.44000(12)
H4 H 0.1135 0.9536 0.4803
C7 C 0.03819(12) 0.6664(3) 0.40870(12)
H5 H -0.0229 0.6841 0.4276
C8 C 0.04696(12) 0.4803(3) 0.34987(12)
H6 H -0.0085 0.3721 0.3282
C9 C 0.13797(11) 0.4526(3) 0.32263(11)
H7 H 0.1441 0.3242 0.2835
C10 C 0.48117(12) 0.6237(3) 0.49459(12)
H8 H 0.4381 0.6500 0.5390
H9 H 0.5430 0.7264 0.5175
O1B O 0.50068(10) 0.0239(2) 0.67507(10)
N1B N 0.58192(8) 0.3210(2) 0.61180(9)
N2B N 0.75464(10) 0.0750(2) 0.80052(10)
N3B N 0.74085(9) -0.0675(2) 0.86168(9)
N4B N 0.73882(13) -0.2082(3) 0.91782(12)
C1B C 0.56785(11) 0.1694(2) 0.68108(12)
C2B C 0.67011(11) 0.2499(3) 0.76533(10)
H1B H 0.6562 0.3311 0.8228
C3B C 0.68403(10) 0.4174(2) 0.68151(10)
H2B H 0.6758 0.5800 0.6990
C4B C 0.77990(10) 0.3863(2) 0.64701(10)
C5B C 0.79004(12) 0.1976(3) 0.58817(11)
H3B H 0.7356 0.0870 0.5675
C6B C 0.88049(13) 0.1726(3) 0.56000(12)
H4B H 0.8865 0.0464 0.5197
C7B C 0.96181(12) 0.3336(3) 0.59130(12)
H5B H 1.0229 0.3159 0.5724
C8B C 0.95304(12) 0.5197(3) 0.65013(12)
H6B H 1.0085 0.6279 0.6718
C9B C 0.86203(11) 0.5474(3) 0.67737(11)
H7B H 0.8559 0.6758 0.7165
C10B C 0.51883(12) 0.3763(3) 0.50541(12)
H8B H 0.5619 0.3500 0.4610
H9B H 0.4570 0.2736 0.4825
loop_
_geom_bond_atom_site_label_1
_geom_bond_atom_site_label_2
_geom_bond_site_symmetry_1
_geom_bond_site_symmetry_2
O1 C1 1_555 1_555
N1 C1 1_555 1_555
N2 N3 1_555 1_555
N3 N4 1_555 1_555
C1 C2 1_555 1_555
C2 N2 1_555 1_555
H1 C2 1_555 1_555
C3 N1 1_555 1_555
H2 C3 1_555 1_555
C4 C3 1_555 1_555
C5 C4 1_555 1_555
H3 C5 1_555 1_555
C6 C5 1_555 1_555
H4 C6 1_555 1_555
C7 C6 1_555 1_555
H5 C7 1_555 1_555
C8 C7 1_555 1_555
H6 C8 1_555 1_555
C9 C4 1_555 1_555
H7 C9 1_555 1_555
C10 N1 1_555 1_555
H8 C10 1_555 1_555
H9 C10 1_555 1_555
O1B C1B 1_555 1_555
N1B C1B 1_555 1_555
N2B N3B 1_555 1_555
N3B N4B 1_555 1_555
C1B C2B 1_555 1_555
C2B N2B 1_555 1_555
H1B C2B 1_555 1_555
C3B N1B 1_555 1_555
H2B C3B 1_555 1_555
C4B C3B 1_555 1_555
C5B C4B 1_555 1_555
H3B C5B 1_555 1_555
C6B C5B 1_555 1_555
H4B C6B 1_555 1_555
C7B C6B 1_555 1_555
H5B C7B 1_555 1_555
C8B C7B 1_555 1_555
H6B C8B 1_555 1_555
C9B C4B 1_555 1_555
H7B C9B 1_555 1_555
C10B C10 1_555 1_555
H8B C10B 1_555 1_555
H9B C10B 1_555 1_555
C2 C3 1_555 1_555
C8 C9 1_555 1_555
N1B C10B 1_555 1_555
C2B C3B 1_555 1_555
C8B C9B 1_555 1_555

#END
