
#######################################################################
#
#                 Cambridge Crystallographic Data Centre
#                                CCDC 
#
#######################################################################
#
# If this CIF has been generated from an entry in the Cambridge 
# Structural Database, then it will include bibliographic, chemical, 
# crystal, experimental, refinement or atomic coordinate data resulting 
# from the CCDC's data processing and validation procedures.
#
#######################################################################

data_XOHLAH
_chemical_formula_moiety         'C17 H18 Cl1 N3 O7'
_chemical_name_systematic        
3,5-Di-O-acetyl-1,2-O-(methyl-1-(4-chloro-pyrrolo[2,3-d]pyrimidin-7-yl)methylene)-\a-D-furanose
_chemical_properties_biological  
'no inhibition of proliferation of KB, Hela and Bel-7402 tumour cells or PKA activity'
_symmetry_cell_setting           tetragonal
_symmetry_space_group_name_H-M   'P 41'
_symmetry_Int_Tables_number      76
_space_group_name_Hall           'P 4w'
loop_
_symmetry_equiv_pos_site_id
_symmetry_equiv_pos_as_xyz
1 x,y,z
2 -y,x,1/4+z
3 -x,-y,1/2+z
4 y,-x,3/4+z
_cell_length_a                   11.146
_cell_length_b                   11.146
_cell_length_c                   15.007
_cell_angle_alpha                90
_cell_angle_beta                 90
_cell_angle_gamma                90
_cell_volume                     1864.37
_chemical_melting_point          115-117deg.C
_cell_formula_units_Z            4
_exptl_crystal_recrystallization_method petroleum/dichloromethane
loop_
_atom_site_label
_atom_site_type_symbol
_atom_site_fract_x
_atom_site_fract_y
_atom_site_fract_z
Cl1 Cl 0.4278(1) 0.2000(1) 0.2347(1)
O1 O 0.5767(3) 0.7834(3) 0.3195(25)
O2 O 0.6081(3) 0.7734(3) 0.1698(23)
O3 O 0.7447(3) 0.9022(3) 0.3471(3)
O4 O 0.9327(3) 1.0537(3) 0.3052(3)
O5 O 1.0034(5) 1.2387(4) 0.3209(4)
O6 O 0.6671(3) 0.9996(3) 0.1321(24)
O7 O 0.7545(3) 0.8963(3) 0.0211(3)
N1 N 0.6294(4) 0.3157(3) 0.2556(4)
N2 N 0.6562(3) 0.5308(3) 0.2572(3)
N3 N 0.4708(3) 0.6417(3) 0.2348(3)
C1 C 0.5138(4) 0.3303(4) 0.2420(4)
C2 C 0.6941(5) 0.4172(5) 0.2622(4)
C3 C 0.5374(4) 0.5387(4) 0.2434(4)
C4 C 0.3513(4) 0.6088(4) 0.2212(4)
C5 C 0.3403(4) 0.4868(5) 0.2212(4)
C6 C 0.4588(4) 0.4402(4) 0.2349(4)
C7 C 0.5180(4) 0.7651(4) 0.2378(4)
C8 C 0.7044(4) 0.7957(5) 0.3082(4)
C9 C 0.7198(4) 0.8071(4) 0.2078(3)
C10 C 0.7495(4) 0.9415(4) 0.1934(4)
C11 C 0.7274(5) 1.0007(5) 0.2842(4)
C12 C 0.8116(5) 1.1018(5) 0.3079(5)
C13 C 1.0222(6) 1.1337(6) 0.3126(4)
C14 C 1.1428(5) 1.0757(7) 0.3094(5)
C15 C 0.6751(5) 0.9630(4) 0.0460(4)
C16 C 0.5752(5) 1.0134(5) -0.0088(5)
C17 C 0.4202(5) 0.8567(5) 0.2242(5)
H1 H 0.790 0.405 0.275
H2 H 0.277 0.672 0.213
H3 H 0.258 0.435 0.210
H4 H 0.753 0.716 0.333
H5 H 0.795 0.751 0.184
H6 H 0.843 0.954 0.173
H7 H 0.634 1.031 0.287
H8 H 0.790 1.138 0.374
H9 H 0.801 1.176 0.260
H10 H 1.178 1.005 0.355
H11 H 1.215 1.091 0.261
H12 H 1.109 1.001 0.265
H13 H 0.567 0.968 -0.074
H14 H 0.584 1.109 -0.022
H15 H 0.492 0.997 0.028
H16 H 0.368 0.843 0.163
H17 H 0.450 0.949 0.224
H18 H 0.359 0.843 0.280
loop_
_geom_bond_atom_site_label_1
_geom_bond_atom_site_label_2
_geom_bond_site_symmetry_1
_geom_bond_site_symmetry_2
Cl1 C1 1_555 1_555
O1 C7 1_555 1_555
O2 C7 1_555 1_555
O3 C8 1_555 1_555
O4 C12 1_555 1_555
O5 C13 1_555 1_555
O6 C10 1_555 1_555
O7 C15 1_555 1_555
N1 C1 1_555 1_555
N2 C2 1_555 1_555
N3 C3 1_555 1_555
C1 C6 1_555 1_555
C2 N1 1_555 1_555
C3 N2 1_555 1_555
C4 N3 1_555 1_555
C5 C4 1_555 1_555
C6 C3 1_555 1_555
C7 N3 1_555 1_555
C8 O1 1_555 1_555
C9 O2 1_555 1_555
C10 C9 1_555 1_555
C11 O3 1_555 1_555
C12 C11 1_555 1_555
C13 O4 1_555 1_555
C14 C13 1_555 1_555
C15 O6 1_555 1_555
C16 C15 1_555 1_555
C17 C7 1_555 1_555
H1 C2 1_555 1_555
H2 C4 1_555 1_555
H3 C5 1_555 1_555
H4 C8 1_555 1_555
H5 C9 1_555 1_555
H6 C10 1_555 1_555
H7 C11 1_555 1_555
H8 C12 1_555 1_555
H9 C12 1_555 1_555
H10 C14 1_555 1_555
H11 C14 1_555 1_555
H12 C14 1_555 1_555
H13 C16 1_555 1_555
H14 C16 1_555 1_555
H15 C16 1_555 1_555
H16 C17 1_555 1_555
H17 C17 1_555 1_555
H18 C17 1_555 1_555
C5 C6 1_555 1_555
C8 C9 1_555 1_555
C10 C11 1_555 1_555

#END
