
#######################################################################
#
#                 Cambridge Crystallographic Data Centre
#                                CCDC 
#
#######################################################################
#
# If this CIF has been generated from an entry in the Cambridge 
# Structural Database, then it will include bibliographic, chemical, 
# crystal, experimental, refinement or atomic coordinate data resulting 
# from the CCDC's data processing and validation procedures.
#
#######################################################################

data_XOHPIT
_chemical_formula_moiety         'C12 H18 N2 O2'
_chemical_name_systematic        
(1R,5S,8S,12R)-5-(Hydroxymethyl)-12-cyano-6-aza-7-oxatricyclo(6.3.1.0^1,6^)dodecane
_symmetry_cell_setting           monoclinic
_symmetry_space_group_name_H-M   'P 21'
_symmetry_Int_Tables_number      4
_space_group_name_Hall           'P 2yb'
loop_
_symmetry_equiv_pos_site_id
_symmetry_equiv_pos_as_xyz
1 x,y,z
2 -x,1/2+y,-z
_cell_length_a                   6.949(2)
_cell_length_b                   14.011(4)
_cell_length_c                   12.055(3)
_cell_angle_alpha                90
_cell_angle_beta                 93.60(2)
_cell_angle_gamma                90
_cell_volume                     1171.39
_exptl_crystal_colour            white
_exptl_crystal_description       block
_cell_formula_units_Z            4
_exptl_crystal_recrystallization_method ether
loop_
_atom_site_label
_atom_site_type_symbol
_atom_site_fract_x
_atom_site_fract_y
_atom_site_fract_z
O1 O 0.1245(4) 0.2104(2) 0.0749(2)
O2 O 0.5986(5) 0.0808(2) 0.1242(3)
H1 H 0.594(7) 0.099(4) 0.1889(17)
N1 N 0.2830(4) 0.1936(2) 0.0016(2)
N2 N -0.2080(7) 0.2995(4) -0.2667(4)
C1 C -0.0438(5) 0.2478(3) 0.0105(3)
H2 H -0.1639 0.2207 0.0354
C2 C -0.0426(6) 0.3551(3) 0.0184(4)
H3 H -0.0762 0.3744 0.0920
H4 H -0.1383 0.3813 -0.0352
C3 C 0.1545(7) 0.3942(3) -0.0040(4)
H5 H 0.2400 0.3862 0.0621
H6 H 0.1435 0.4620 -0.0193
C4 C 0.2424(6) 0.3451(3) -0.1014(4)
H7 H 0.3799 0.3578 -0.0974
H8 H 0.1875 0.3729 -0.1700
C5 C 0.2110(5) 0.2364(3) -0.1060(3)
C6 C 0.3118(6) 0.1950(4) -0.2053(4)
H9 H 0.2392 0.2132 -0.2733
H10 H 0.4391 0.2233 -0.2068
C7 C 0.3328(7) 0.0867(4) -0.2030(4)
H11 H 0.2068 0.0571 -0.2137
H12 H 0.4104 0.0662 -0.2627
C8 C 0.4274(6) 0.0568(3) -0.0931(4)
H13 H 0.5549 0.0849 -0.0839
H14 H 0.4416 -0.0121 -0.0915
C9 C 0.3070(5) 0.0885(3) 0.0022(3)
H15 H 0.1792 0.0591 -0.0080
C10 C -0.0059(5) 0.2153(3) -0.1070(3)
H16 H -0.0268 0.1463 -0.1133
C11 C 0.3979(6) 0.0580(3) 0.1134(4)
H17 H 0.3327 0.0895 0.1721
H18 H 0.3817 -0.0103 0.1220
C12 C -0.1214(6) 0.2639(3) -0.1956(4)
O3 O 0.4604(4) 0.1368(2) 0.3833(2)
O4 O 0.5686(4) 0.2983(2) 0.1493(2)
H19 H 0.469(4) 0.274(4) 0.122(4)
N3 N 0.6469(4) 0.1675(2) 0.3442(3)
N4 N 0.8495(7) 0.0300(4) 0.6970(4)
C13 C 0.4907(6) 0.0888(4) 0.4899(3)
H20 H 0.3908 0.1065 0.5400
C14 C 0.4941(9) -0.0165(4) 0.4717(5)
H21 H 0.3657 -0.0387 0.4484
H22 H 0.5347 -0.0484 0.5406
C15 C 0.6322(10) -0.0405(4) 0.3832(5)
H23 H 0.6650 -0.1077 0.3888
H24 H 0.5677 -0.0299 0.3106
C16 C 0.8146(8) 0.0172(4) 0.3923(4)
H25 H 0.8733 0.0144 0.3214
H26 H 0.9032 -0.0127 0.4472
C17 C 0.7920(6) 0.1224(3) 0.4242(3)
C18 C 0.9871(6) 0.1727(4) 0.4261(5)
H27 H 1.0507 0.1552 0.3597
H28 H 1.0666 0.1501 0.4897
C19 C 0.9738(8) 0.2817(5) 0.4320(5)
H29 H 0.9255 0.3009 0.5023
H30 H 1.1004 0.3097 0.4262
C20 C 0.8382(7) 0.3155(4) 0.3368(4)
H31 H 0.8875 0.2961 0.2667
H32 H 0.8306 0.3846 0.3377
C21 C 0.6381(6) 0.2733(3) 0.3470(3)
H33 H 0.5921 0.2928 0.4188
C22 C 0.6887(6) 0.1270(3) 0.5327(3)
H34 H 0.6765 0.1938 0.5557
C23 C 0.4942(7) 0.3082(3) 0.2556(3)
H35 H 0.3757 0.2719 0.2578
H36 H 0.4642 0.3748 0.2683
C24 C 0.7790(6) 0.0715(4) 0.6243(4)
loop_
_geom_bond_atom_site_label_1
_geom_bond_atom_site_label_2
_geom_bond_site_symmetry_1
_geom_bond_site_symmetry_2
O1 N1 1_555 1_555
O2 H1 1_555 1_555
N1 C5 1_555 1_555
N2 C12 1_555 1_555
C1 O1 1_555 1_555
H2 C1 1_555 1_555
C2 C1 1_555 1_555
H3 C2 1_555 1_555
H4 C2 1_555 1_555
C3 C2 1_555 1_555
H5 C3 1_555 1_555
H6 C3 1_555 1_555
C4 C3 1_555 1_555
H7 C4 1_555 1_555
H8 C4 1_555 1_555
C5 C4 1_555 1_555
C6 C5 1_555 1_555
H9 C6 1_555 1_555
H10 C6 1_555 1_555
C7 C6 1_555 1_555
H11 C7 1_555 1_555
H12 C7 1_555 1_555
C8 C7 1_555 1_555
H13 C8 1_555 1_555
H14 C8 1_555 1_555
C9 N1 1_555 1_555
H15 C9 1_555 1_555
C10 C1 1_555 1_555
H16 C10 1_555 1_555
C11 O2 1_555 1_555
H17 C11 1_555 1_555
H18 C11 1_555 1_555
C12 C10 1_555 1_555
O3 N3 1_555 1_555
O4 H19 1_555 1_555
N3 C17 1_555 1_555
N4 C24 1_555 1_555
C13 O3 1_555 1_555
H20 C13 1_555 1_555
C14 C13 1_555 1_555
H21 C14 1_555 1_555
H22 C14 1_555 1_555
C15 C14 1_555 1_555
H23 C15 1_555 1_555
H24 C15 1_555 1_555
C16 C15 1_555 1_555
H25 C16 1_555 1_555
H26 C16 1_555 1_555
C17 C16 1_555 1_555
C18 C17 1_555 1_555
H27 C18 1_555 1_555
H28 C18 1_555 1_555
C19 C18 1_555 1_555
H29 C19 1_555 1_555
H30 C19 1_555 1_555
C20 C19 1_555 1_555
H31 C20 1_555 1_555
H32 C20 1_555 1_555
C21 N3 1_555 1_555
H33 C21 1_555 1_555
C22 C13 1_555 1_555
H34 C22 1_555 1_555
C23 O4 1_555 1_555
H35 C23 1_555 1_555
H36 C23 1_555 1_555
C24 C22 1_555 1_555
C5 C10 1_555 1_555
C8 C9 1_555 1_555
C9 C11 1_555 1_555
C17 C22 1_555 1_555
C20 C21 1_555 1_555
C21 C23 1_555 1_555

#END
