
#######################################################################
#
#                 Cambridge Crystallographic Data Centre
#                                CCDC 
#
#######################################################################
#
# If this CIF has been generated from an entry in the Cambridge 
# Structural Database, then it will include bibliographic, chemical, 
# crystal, experimental, refinement or atomic coordinate data resulting 
# from the CCDC's data processing and validation procedures.
#
#######################################################################

data_XOHWIC
_chemical_formula_moiety         'C26 H30 N2 O5 S1'
_chemical_name_systematic        
3-(benzyl((4-methylphenyl)sulfonyl)amino)-N,N-diethyl-3-(6-oxo-3,6-dihydro-2H-pyran-4-yl)acrylamide
_symmetry_cell_setting           monoclinic
_symmetry_space_group_name_H-M   'P 21/c'
_symmetry_Int_Tables_number      14
_space_group_name_Hall           '-P 2ybc'
loop_
_symmetry_equiv_pos_site_id
_symmetry_equiv_pos_as_xyz
1 x,y,z
2 -x,1/2+y,1/2-z
3 -x,-y,-z
4 x,1/2-y,1/2+z
_cell_length_a                   15.633(4)
_cell_length_b                   11.937(3)
_cell_length_c                   15.622(5)
_cell_angle_alpha                90
_cell_angle_beta                 117.347(4)
_cell_angle_gamma                90
_cell_volume                     2589.43
_exptl_crystal_colour            colorless
_exptl_crystal_description       block
_cell_formula_units_Z            4
loop_
_atom_site_label
_atom_site_type_symbol
_atom_site_fract_x
_atom_site_fract_y
_atom_site_fract_z
S1 S 0.05918(4) 0.70607(5) 0.14724(5)
O1 O 0.03865(12) 0.65732(15) 0.05736(12)
O2 O -0.01026(13) 0.69874(16) 0.18228(15)
O3 O 0.45301(13) 0.61508(19) 0.27816(15)
O4 O 0.24313(16) 0.49179(17) -0.02732(14)
O5 O 0.32165(17) 0.63650(19) -0.04445(15)
N1 N 0.15831(13) 0.64551(16) 0.22992(14)
N2 N 0.45456(15) 0.8042(2) 0.27244(18)
C1 C 0.08879(16) 0.84765(19) 0.14381(17)
C2 C 0.1085(2) 0.8840(2) 0.07118(19)
H1 H 0.1041 0.8349 0.0231
C3 C 0.1351(2) 0.9947(2) 0.0703(2)
H2 H 0.1479 1.0196 0.0210
C4 C 0.0956(2) 0.9197(2) 0.2154(2)
H3 H 0.0828 0.8946 0.2647
C5 C 0.1427(2) 1.0683(2) 0.1414(2)
C6 C 0.1218(2) 1.0295(2) 0.2131(2)
H4 H 0.1255 1.0786 0.2609
C7 C 0.1714(3) 1.1887(3) 0.1404(3)
H5 H 0.2264 1.2061 0.2004
H6 H 0.1188 1.2369 0.1317
H7 H 0.1871 1.1998 0.0883
C8 C 0.17185(18) 0.6384(2) 0.32894(17)
H8 H 0.1095 0.6396 0.3283
H9 H 0.2081 0.7030 0.3651
C9 C 0.22482(18) 0.5326(2) 0.37784(17)
C10 C 0.1807(2) 0.4305(2) 0.3467(2)
H10 H 0.1192 0.4267 0.2950
C11 C 0.3160(2) 0.5361(3) 0.45445(19)
H11 H 0.3465 0.6047 0.4760
C12 C 0.2282(3) 0.3327(3) 0.3927(2)
H12 H 0.1980 0.2638 0.3720
C13 C 0.3623(2) 0.4395(3) 0.4993(2)
H13 H 0.4236 0.4433 0.5514
C14 C 0.3188(3) 0.3374(3) 0.4679(2)
H14 H 0.3508 0.2719 0.4977
C15 C 0.24187(14) 0.65653(17) 0.21480(14)
C16 C 0.32047(16) 0.70952(18) 0.27746(17)
H15 H 0.3162 0.7520 0.3252
C17 C 0.41568(17) 0.7052(2) 0.27608(17)
C18 C 0.5412(3) 0.8133(4) 0.1765(3)
H16 H 0.4996 0.7553 0.1363
H17 H 0.6039 0.8054 0.1802
H18 H 0.5149 0.8852 0.1496
C19 C 0.4082(3) 0.9126(3) 0.2663(3)
H19 H 0.3404 0.9008 0.2468
H20 H 0.4132 0.9580 0.2173
C20 C 0.5490(2) 0.8043(3) 0.2744(3)
H21 H 0.5828 0.7358 0.3044
H22 H 0.5866 0.8668 0.3132
C21 C 0.4543(4) 0.9760(5) 0.3632(4)
H23 H 0.4560 0.9280 0.4133
H24 H 0.4169 1.0415 0.3587
H25 H 0.5187 0.9977 0.3779
C22 C 0.23781(14) 0.60134(17) 0.12846(15)
C23 C 0.26632(16) 0.65403(19) 0.07163(16)
H26 H 0.2792 0.7304 0.0804
C24 C 0.20559(18) 0.48280(19) 0.10735(19)
H27 H 0.2579 0.4334 0.1478
H28 H 0.1523 0.4702 0.1218
C25 C 0.27824(19) 0.5964(2) -0.00427(18)
C26 C 0.1751(2) 0.4571(3) 0.0049(2)
H29 H 0.1650 0.3769 -0.0048
H30 H 0.1140 0.4937 -0.0342
loop_
_geom_bond_atom_site_label_1
_geom_bond_atom_site_label_2
_geom_bond_site_symmetry_1
_geom_bond_site_symmetry_2
S1 O1 1_555 1_555
O2 S1 1_555 1_555
O3 C17 1_555 1_555
O4 C25 1_555 1_555
O5 C25 1_555 1_555
N1 S1 1_555 1_555
N2 C17 1_555 1_555
C1 S1 1_555 1_555
C2 C1 1_555 1_555
H1 C2 1_555 1_555
C3 C2 1_555 1_555
H2 C3 1_555 1_555
C4 C1 1_555 1_555
H3 C4 1_555 1_555
C5 C3 1_555 1_555
C6 C4 1_555 1_555
H4 C6 1_555 1_555
C7 C5 1_555 1_555
H5 C7 1_555 1_555
H6 C7 1_555 1_555
H7 C7 1_555 1_555
C8 N1 1_555 1_555
H8 C8 1_555 1_555
H9 C8 1_555 1_555
C9 C8 1_555 1_555
C10 C9 1_555 1_555
H10 C10 1_555 1_555
C11 C9 1_555 1_555
H11 C11 1_555 1_555
C12 C10 1_555 1_555
H12 C12 1_555 1_555
C13 C11 1_555 1_555
H13 C13 1_555 1_555
C14 C12 1_555 1_555
H14 C14 1_555 1_555
C15 N1 1_555 1_555
C16 C15 1_555 1_555
H15 C16 1_555 1_555
C17 C16 1_555 1_555
C18 H16 1_555 1_555
H17 C18 1_555 1_555
H18 C18 1_555 1_555
C19 N2 1_555 1_555
H19 C19 1_555 1_555
H20 C19 1_555 1_555
C20 N2 1_555 1_555
H21 C20 1_555 1_555
H22 C20 1_555 1_555
C21 C19 1_555 1_555
H23 C21 1_555 1_555
H24 C21 1_555 1_555
H25 C21 1_555 1_555
C22 C15 1_555 1_555
C23 C22 1_555 1_555
H26 C23 1_555 1_555
C24 C22 1_555 1_555
H27 C24 1_555 1_555
H28 C24 1_555 1_555
C25 C23 1_555 1_555
C26 O4 1_555 1_555
H29 C26 1_555 1_555
H30 C26 1_555 1_555
C5 C6 1_555 1_555
C13 C14 1_555 1_555
C18 C20 1_555 1_555
C24 C26 1_555 1_555

#END
