
#######################################################################
#
#                 Cambridge Crystallographic Data Centre
#                                CCDC 
#
#######################################################################
#
# If this CIF has been generated from an entry in the Cambridge 
# Structural Database, then it will include bibliographic, chemical, 
# crystal, experimental, refinement or atomic coordinate data resulting 
# from the CCDC's data processing and validation procedures.
#
#######################################################################

data_XOHWEY
_chemical_formula_moiety         'C61 H48 N20'
_chemical_name_systematic        
"6,6',6'',6'''-(methanetetrayltetrabiphenyl-4',4-diyl)tetrakis(1,3,5-triazine-2,4-diamine) unknown solvate"
_symmetry_cell_setting           monoclinic
_symmetry_space_group_name_H-M   'P 2/n'
_symmetry_Int_Tables_number      13
_space_group_name_Hall           '-P 2yac'
loop_
_symmetry_equiv_pos_site_id
_symmetry_equiv_pos_as_xyz
1 x,y,z
2 1/2-x,y,1/2-z
3 -x,-y,-z
4 1/2+x,-y,1/2+z
_cell_length_a                   20.212(6)
_cell_length_b                   7.275(2)
_cell_length_c                   26.666(8)
_cell_angle_alpha                90
_cell_angle_beta                 90.606(6)
_cell_angle_gamma                90
_cell_volume                     3920.81
_exptl_crystal_colour            colorless
_exptl_crystal_description       needle
_cell_formula_units_Z            2
_chemical_properties_physical    'Air-sensitive, Moisture-sensitive'
_exptl_crystal_recrystallization_method N,N-dimethylformamide
loop_
_atom_site_label
_atom_site_type_symbol
_atom_site_fract_x
_atom_site_fract_y
_atom_site_fract_z
C1 C 0.2500 1.0660(7) 0.7500
C2 C 0.30628(19) 1.1906(5) 0.76959(14)
C3 C 0.3350(2) 1.1766(5) 0.81689(16)
H1 H 0.3198 1.0873 0.8389
C4 C 0.3858(2) 1.2923(6) 0.83222(17)
H2 H 0.4045 1.2766 0.8640
C5 C 0.4096(2) 1.4306(5) 0.80160(17)
C6 C 0.3804(2) 1.4477(5) 0.75311(16)
H3 H 0.3954 1.5374 0.7312
C7 C 0.3297(2) 1.3309(5) 0.73849(15)
H4 H 0.3105 1.3462 0.7069
C8 C 0.4648(3) 1.5511(6) 0.81770(18)
C9 C 0.5146(4) 1.4833(9) 0.8475(3)
H5 H 0.5135 1.3602 0.8568
C10 C 0.5664(4) 1.5917(10) 0.8642(4)
H6 H 0.5977 1.5434 0.8864
C11 C 0.5720(3) 1.7701(7) 0.84827(18)
C12 C 0.5241(3) 1.8362(7) 0.8166(2)
H7 H 0.5269 1.9563 0.8048
C13 C 0.4726(3) 1.7286(6) 0.80223(19)
H8 H 0.4409 1.7783 0.7807
C14 C 0.6312(3) 1.8763(7) 0.86438(19)
C15 C 0.7255(3) 1.9012(8) 0.9106(2)
C16 C 0.6908(4) 2.1362(10) 0.8656(4)
C17 C 0.27383(19) 0.9351(5) 0.70830(14)
C18 C 0.2327(2) 0.7910(5) 0.69375(15)
H9 H 0.1902 0.7863 0.7067
C19 C 0.2519(2) 0.6546(5) 0.66092(15)
H10 H 0.2228 0.5602 0.6526
C20 C 0.3155(2) 0.6584(5) 0.64007(14)
C21 C 0.3559(2) 0.8081(5) 0.65260(15)
H11 H 0.3976 0.8172 0.6383
C22 C 0.3358(2) 0.9429(5) 0.68571(15)
H12 H 0.3640 1.0404 0.6930
C23 C 0.3389(2) 0.4995(5) 0.61019(15)
C24 C 0.2954(3) 0.3869(6) 0.58507(18)
H13 H 0.2507 0.4171 0.5845
C25 C 0.3161(2) 0.2277(6) 0.56021(18)
H14 H 0.2856 0.1546 0.5431
C26 C 0.3818(2) 0.1806(6) 0.56126(16)
C27 C 0.4269(2) 0.2930(6) 0.58543(16)
H15 H 0.4716 0.2629 0.5856
C28 C 0.4054(2) 0.4510(5) 0.60943(17)
H16 H 0.4362 0.5263 0.6254
C29 C 0.4042(2) 0.0081(6) 0.53551(17)
C30 C 0.3878(3) -0.2159(7) 0.47819(19)
C31 C 0.4760(2) -0.2296(5) 0.52986(16)
N1 N 0.6748(3) 1.7952(7) 0.8948(2)
N2 N 0.7355(3) 2.0702(7) 0.8990(2)
N3 N 0.6367(3) 2.0449(6) 0.8472(2)
N4 N 0.7694(4) 1.8250(9) 0.9408(3)
H17 H 0.8026 1.8881 0.9517
H18 H 0.7650 1.7121 0.9497
N5 N 0.7021(6) 2.2971(11) 0.8455(7)
H19 H 0.7372 2.3574 0.8537
H20 H 0.6745 2.3425 0.8241
N6 N 0.3658(2) -0.0554(5) 0.49859(16)
N7 N 0.44070(19) -0.3097(5) 0.49326(13)
N8 N 0.46019(17) -0.0689(4) 0.55298(13)
N9 N 0.3535(3) -0.2808(7) 0.4392(2)
H21 H 0.3658 -0.3804 0.4246
H22 H 0.3190 -0.2231 0.4285
N10 N 0.53013(18) -0.3147(5) 0.54629(15)
H23 H 0.5415 -0.4182 0.5334
H24 H 0.5538 -0.2664 0.5698
C2A C 0.19372(19) 1.1906(5) 0.73041(14)
C3A C 0.1650(2) 1.1766(5) 0.68311(16)
H1A H 0.1802 1.0873 0.6611
C4A C 0.1142(2) 1.2923(6) 0.66778(17)
H2A H 0.0955 1.2766 0.6360
C5A C 0.0904(2) 1.4306(5) 0.69840(17)
C6A C 0.1196(2) 1.4477(5) 0.74689(16)
H3A H 0.1046 1.5374 0.7688
C7A C 0.1703(2) 1.3309(5) 0.76151(15)
H4A H 0.1895 1.3462 0.7931
C8A C 0.0352(3) 1.5511(6) 0.68230(18)
C9A C -0.0146(4) 1.4833(9) 0.6525(3)
H5A H -0.0135 1.3602 0.6432
C10A C -0.0664(4) 1.5917(10) 0.6358(4)
H6A H -0.0977 1.5434 0.6136
C11A C -0.0720(3) 1.7701(7) 0.65173(18)
C12A C -0.0241(3) 1.8362(7) 0.6834(2)
H7A H -0.0269 1.9563 0.6952
C13A C 0.0274(3) 1.7286(6) 0.69777(19)
H8A H 0.0591 1.7783 0.7193
C14A C -0.1312(3) 1.8763(7) 0.63562(19)
C15A C -0.2255(3) 1.9012(8) 0.5894(2)
C16A C -0.1908(4) 2.1362(10) 0.6344(4)
C17A C 0.22617(19) 0.9351(5) 0.79170(14)
C18A C 0.2673(2) 0.7910(5) 0.80625(15)
H9A H 0.3098 0.7863 0.7933
C19A C 0.2481(2) 0.6546(5) 0.83908(15)
H10A H 0.2772 0.5602 0.8474
C20A C 0.1845(2) 0.6584(5) 0.85993(14)
C21A C 0.1441(2) 0.8081(5) 0.84740(15)
H11A H 0.1024 0.8172 0.8617
C22A C 0.1642(2) 0.9429(5) 0.81429(15)
H12A H 0.1360 1.0404 0.8070
C23A C 0.1611(2) 0.4995(5) 0.88981(15)
C24A C 0.2046(3) 0.3869(6) 0.91493(18)
H13A H 0.2493 0.4171 0.9155
C25A C 0.1839(2) 0.2277(6) 0.93979(18)
H14A H 0.2144 0.1546 0.9569
C26A C 0.1182(2) 0.1806(6) 0.93874(16)
C27A C 0.0731(2) 0.2930(6) 0.91457(16)
H15A H 0.0284 0.2629 0.9144
C28A C 0.0946(2) 0.4510(5) 0.89057(17)
H16A H 0.0638 0.5263 0.8746
C29A C 0.0958(2) 0.0081(6) 0.96449(17)
C30A C 0.1122(3) -0.2159(7) 1.02181(19)
C31A C 0.0240(2) -0.2296(5) 0.97014(16)
N1A N -0.1748(3) 1.7952(7) 0.6052(2)
N2A N -0.2355(3) 2.0702(7) 0.6010(2)
N3A N -0.1367(3) 2.0449(6) 0.6528(2)
N4A N -0.2694(4) 1.8250(9) 0.5592(3)
H17A H -0.3026 1.8881 0.5483
H18A H -0.2650 1.7121 0.5503
N5A N -0.2021(6) 2.2971(11) 0.6545(7)
H19A H -0.2372 2.3574 0.6463
H20A H -0.1745 2.3425 0.6759
N6A N 0.1342(2) -0.0554(5) 1.00141(16)
N7A N 0.05930(19) -0.3097(5) 1.00674(13)
N8A N 0.03981(17) -0.0689(4) 0.94702(13)
N9A N 0.1465(3) -0.2808(7) 1.0608(2)
H21A H 0.1342 -0.3804 1.0754
H22A H 0.1810 -0.2231 1.0715
N10A N -0.03013(18) -0.3147(5) 0.95371(15)
H23A H -0.0415 -0.4182 0.9666
H24A H -0.0538 -0.2664 0.9302
loop_
_geom_bond_atom_site_label_1
_geom_bond_atom_site_label_2
_geom_bond_site_symmetry_1
_geom_bond_site_symmetry_2
C1 C2 1_555 1_555
C2 C3 1_555 1_555
C3 H1 1_555 1_555
C4 C3 1_555 1_555
H2 C4 1_555 1_555
C5 C4 1_555 1_555
C6 C5 1_555 1_555
H3 C6 1_555 1_555
C7 C2 1_555 1_555
H4 C7 1_555 1_555
C8 C5 1_555 1_555
C9 C8 1_555 1_555
H5 C9 1_555 1_555
C10 C9 1_555 1_555
H6 C10 1_555 1_555
C11 C10 1_555 1_555
C12 C11 1_555 1_555
H7 C12 1_555 1_555
C13 C8 1_555 1_555
H8 C13 1_555 1_555
C14 C11 1_555 1_555
C15 N1 1_555 1_555
C16 N2 1_555 1_555
C17 C1 1_555 1_555
C18 C17 1_555 1_555
H9 C18 1_555 1_555
C19 C18 1_555 1_555
H10 C19 1_555 1_555
C20 C19 1_555 1_555
C21 C20 1_555 1_555
H11 C21 1_555 1_555
C22 C17 1_555 1_555
H12 C22 1_555 1_555
C23 C20 1_555 1_555
C24 C23 1_555 1_555
H13 C24 1_555 1_555
C25 C24 1_555 1_555
H14 C25 1_555 1_555
C26 C25 1_555 1_555
C27 C26 1_555 1_555
H15 C27 1_555 1_555
C28 C23 1_555 1_555
H16 C28 1_555 1_555
C29 C26 1_555 1_555
C30 N6 1_555 1_555
C31 N7 1_555 1_555
N1 C14 1_555 1_555
N2 C15 1_555 1_555
N3 C14 1_555 1_555
N4 C15 1_555 1_555
H17 N4 1_555 1_555
H18 N4 1_555 1_555
N5 C16 1_555 1_555
H19 N5 1_555 1_555
H20 N5 1_555 1_555
N6 C29 1_555 1_555
N7 C30 1_555 1_555
N8 C29 1_555 1_555
N9 C30 1_555 1_555
H21 N9 1_555 1_555
H22 N9 1_555 1_555
N10 C31 1_555 1_555
H23 N10 1_555 1_555
H24 N10 1_555 1_555
C2A C1 1_555 1_555
C3A C2A 1_555 1_555
H1A C3A 1_555 1_555
C4A C3A 1_555 1_555
H2A C4A 1_555 1_555
C5A C4A 1_555 1_555
C6A C5A 1_555 1_555
H3A C6A 1_555 1_555
C7A C2A 1_555 1_555
H4A C7A 1_555 1_555
C8A C5A 1_555 1_555
C9A C8A 1_555 1_555
H5A C9A 1_555 1_555
C10A C9A 1_555 1_555
H6A C10A 1_555 1_555
C11A C10A 1_555 1_555
C12A C11A 1_555 1_555
H7A C12A 1_555 1_555
C13A C8A 1_555 1_555
H8A C13A 1_555 1_555
C14A C11A 1_555 1_555
C15A N1A 1_555 1_555
C16A N2A 1_555 1_555
C17A C1 1_555 1_555
C18A C17A 1_555 1_555
H9A C18A 1_555 1_555
C19A C18A 1_555 1_555
H10A C19A 1_555 1_555
C20A C19A 1_555 1_555
C21A C20A 1_555 1_555
H11A C21A 1_555 1_555
C22A C17A 1_555 1_555
H12A C22A 1_555 1_555
C23A C20A 1_555 1_555
C24A C23A 1_555 1_555
H13A C24A 1_555 1_555
C25A C24A 1_555 1_555
H14A C25A 1_555 1_555
C26A C25A 1_555 1_555
C27A C26A 1_555 1_555
H15A C27A 1_555 1_555
C28A C23A 1_555 1_555
H16A C28A 1_555 1_555
C29A C26A 1_555 1_555
C30A N6A 1_555 1_555
C31A N7A 1_555 1_555
N1A C14A 1_555 1_555
N2A C15A 1_555 1_555
N3A C14A 1_555 1_555
N4A C15A 1_555 1_555
H17A N4A 1_555 1_555
H18A N4A 1_555 1_555
N5A C16A 1_555 1_555
H19A N5A 1_555 1_555
H20A N5A 1_555 1_555
N6A C29A 1_555 1_555
N7A C30A 1_555 1_555
N8A C29A 1_555 1_555
N9A C30A 1_555 1_555
H21A N9A 1_555 1_555
H22A N9A 1_555 1_555
N10A C31A 1_555 1_555
H23A N10A 1_555 1_555
H24A N10A 1_555 1_555
C6 C7 1_555 1_555
C12 C13 1_555 1_555
C16 N3 1_555 1_555
C21 C22 1_555 1_555
C27 C28 1_555 1_555
C31 N8 1_555 1_555
C6A C7A 1_555 1_555
C12A C13A 1_555 1_555
C16A N3A 1_555 1_555
C21A C22A 1_555 1_555
C27A C28A 1_555 1_555
C31A N8A 1_555 1_555

#END
