
#######################################################################
#
#                 Cambridge Crystallographic Data Centre
#                                CCDC 
#
#######################################################################
#
# If this CIF has been generated from an entry in the Cambridge 
# Structural Database, then it will include bibliographic, chemical, 
# crystal, experimental, refinement or atomic coordinate data resulting 
# from the CCDC's data processing and validation procedures.
#
#######################################################################

data_XOJDIK
_chemical_formula_moiety         
'C63 H73 N5 O4 2+,2(Cl1 1-),0.67(H1 Cl1),4.33(C1 H2 Cl2)'
_chemical_name_systematic        
"29'-t-Butyl-5',17',23',35',38',40',43',45'-octamethyl-7',11',15',25',33'-pentaazadispiro(cyclohexane-1,2'-heptacyclo(32.2.2.2^3,6^.2^16,19^.2^21,24^.1^9,13^.1^27,31^)hexatetracontane-20',1''-cyclohexane)-1'(36'),3',5',9'(44'),10',12',16',18',21',23',27' (39'),28',30',34',37',40',42',45'-octadecaene-8',14',26',32'-tetrone hydrogenchloride dichloromethane solvate"
_symmetry_cell_setting           triclinic
_symmetry_space_group_name_H-M   'P -1'
_symmetry_Int_Tables_number      2
_space_group_name_Hall           '-P 1'
loop_
_symmetry_equiv_pos_site_id
_symmetry_equiv_pos_as_xyz
1 x,y,z
2 -x,-y,-z
_cell_length_a                   14.105(3)
_cell_length_b                   18.436(4)
_cell_length_c                   22.291(5)
_cell_angle_alpha                70.38(3)
_cell_angle_beta                 88.36(3)
_cell_angle_gamma                89.41(3)
_cell_volume                     5457.76
_exptl_crystal_colour            colorless
_exptl_crystal_description       block
_cell_formula_units_Z            3
loop_
_atom_site_label
_atom_site_type_symbol
_atom_site_fract_x
_atom_site_fract_y
_atom_site_fract_z
N6 N 0.781(3) 0.211(2) 0.3368(12)
C64 C 0.7471(6) 0.2821(5) 0.3052(4)
H72 H 0.6941 0.3001 0.3234
C65 C 0.7844(5) 0.3288(4) 0.2494(3)
C66 C 0.8718(5) 0.3094(4) 0.2287(3)
H73 H 0.8989 0.3402 0.1888
C67 C 0.9195(5) 0.2444(4) 0.2670(3)
C68 C 0.8757(7) 0.2002(5) 0.3230(4)
H74 H 0.9113 0.1614 0.3531
C69 C 0.7293(5) 0.3994(4) 0.2105(3)
N7 N 0.7741(5) 0.4489(3) 0.1602(3)
H75 H 0.8337 0.4390 0.1531
O5 O 0.6491(4) 0.4099(3) 0.2253(3)
C70 C 0.7335(5) 0.5161(4) 0.1170(3)
C71 C 0.7605(5) 0.5887(4) 0.1181(4)
C72 C 0.7244(5) 0.6534(4) 0.0743(3)
H76 H 0.7425 0.7024 0.0755
C73 C 0.6607(5) 0.6502(4) 0.0269(3)
C74 C 0.6349(5) 0.5783(4) 0.0280(3)
H77 H 0.5921 0.5741 -0.0029
C75 C 0.6696(5) 0.5100(4) 0.0733(3)
C76 C 0.6293(5) 0.7229(4) -0.0273(3)
C77 C 0.5300(5) 0.7133(4) -0.0496(3)
H78 H 0.5175 0.7564 -0.0893
H79 H 0.5280 0.6649 -0.0595
C78 C 0.4516(6) 0.7113(5) -0.0002(4)
H80 H 0.3893 0.7045 -0.0170
H81 H 0.4619 0.6669 0.0391
C79 C 0.4513(6) 0.7836(5) 0.0150(4)
H82 H 0.4026 0.7803 0.0487
H83 H 0.4348 0.8273 -0.0234
C80 C 0.5487(5) 0.7977(4) 0.0378(4)
H84 H 0.5480 0.8480 0.0447
H85 H 0.5611 0.7572 0.0791
C81 C 0.6276(5) 0.7973(4) -0.0090(3)
H86 H 0.6890 0.8024 0.0096
H87 H 0.6204 0.8425 -0.0481
C82 C 0.7086(5) 0.7316(4) -0.0803(3)
C83 C 0.7962(5) 0.7628(4) -0.0765(4)
H88 H 0.8050 0.7841 -0.0437
C84 C 0.6954(5) 0.7040(4) -0.1294(3)
H89 H 0.6348 0.6850 -0.1343
C86 C 0.7696(5) 0.7032(4) -0.1724(3)
C87 C 0.8572(5) 0.7331(4) -0.1660(3)
C88 C 0.8707(5) 0.7646(4) -0.1175(4)
C89 C 1.0122(5) 0.2213(4) 0.2463(3)
N8 N 0.9370(4) 0.7230(4) -0.2032(3)
H90 H 0.9549 0.6753 -0.1972
O6 O 1.0407(4) 0.1532(3) 0.2688(2)
C90 C 0.6438(7) 0.4333(5) 0.0699(4)
H91 H 0.6747 0.3927 0.1041
H92 H 0.6648 0.4301 0.0286
H93 H 0.5748 0.4265 0.0749
C91 C 0.8293(7) 0.5950(5) 0.1670(4)
H94 H 0.8474 0.5432 0.1943
H95 H 0.7991 0.6227 0.1930
H96 H 0.8860 0.6230 0.1452
C96 C 0.7570(6) 0.6664(5) -0.2227(4)
H106 H 0.8156 0.6720 -0.2486
H107 H 0.7425 0.6116 -0.2022
H108 H 0.7048 0.6917 -0.2501
C97 C 0.9645(6) 0.7988(6) -0.1118(4)
H109 H 1.0079 0.7957 -0.1459
H110 H 0.9557 0.8528 -0.1153
H111 H 0.9912 0.7702 -0.0704
N6A N 1.219(3) 0.789(2) -0.3368(12)
C64A C 1.2529(6) 0.7179(5) -0.3052(4)
H72A H 1.3059 0.6999 -0.3234
C65A C 1.2156(5) 0.6712(4) -0.2494(3)
C66A C 1.1282(5) 0.6906(4) -0.2287(3)
H73A H 1.1011 0.6598 -0.1888
C67A C 1.0805(5) 0.7556(4) -0.2670(3)
C68A C 1.1243(7) 0.7998(5) -0.3230(4)
H74A H 1.0887 0.8386 -0.3531
C69A C 1.2707(5) 0.6006(4) -0.2105(3)
N7A N 1.2259(5) 0.5511(3) -0.1602(3)
H75A H 1.1663 0.5610 -0.1531
O5A O 1.3509(4) 0.5901(3) -0.2253(3)
C70A C 1.2665(5) 0.4839(4) -0.1170(3)
C71A C 1.2395(5) 0.4113(4) -0.1181(4)
C72A C 1.2756(5) 0.3466(4) -0.0743(3)
H76A H 1.2575 0.2976 -0.0755
C73A C 1.3393(5) 0.3498(4) -0.0269(3)
C74A C 1.3651(5) 0.4217(4) -0.0280(3)
H77A H 1.4079 0.4259 0.0029
C75A C 1.3304(5) 0.4900(4) -0.0733(3)
C76A C 1.3707(5) 0.2771(4) 0.0273(3)
C77A C 1.4700(5) 0.2867(4) 0.0496(3)
H78A H 1.4825 0.2436 0.0893
H79A H 1.4720 0.3351 0.0595
C78A C 1.5484(6) 0.2887(5) 0.0002(4)
H80A H 1.6107 0.2955 0.0170
H81A H 1.5381 0.3331 -0.0391
C79A C 1.5487(6) 0.2164(5) -0.0150(4)
H82A H 1.5974 0.2197 -0.0487
H83A H 1.5652 0.1727 0.0234
C80A C 1.4513(5) 0.2023(4) -0.0378(4)
H84A H 1.4520 0.1520 -0.0447
H85A H 1.4389 0.2428 -0.0791
C81A C 1.3724(5) 0.2027(4) 0.0090(3)
H86A H 1.3110 0.1976 -0.0096
H87A H 1.3796 0.1575 0.0481
C82A C 1.2914(5) 0.2684(4) 0.0803(3)
C83A C 1.2038(5) 0.2372(4) 0.0765(4)
H88A H 1.1950 0.2159 0.0437
C84A C 1.3046(5) 0.2960(4) 0.1294(3)
H89A H 1.3652 0.3150 0.1343
C86A C 1.2304(5) 0.2968(4) 0.1724(3)
C87A C 1.1428(5) 0.2669(4) 0.1660(3)
C88A C 1.1293(5) 0.2354(4) 0.1175(4)
C89A C 0.9878(5) 0.7787(4) -0.2463(3)
N8A N 1.0630(4) 0.2770(4) 0.2032(3)
H90A H 1.0451 0.3247 0.1972
O6A O 0.9593(4) 0.8468(3) -0.2688(2)
C90A C 1.3562(7) 0.5667(5) -0.0699(4)
H91A H 1.3253 0.6073 -0.1041
H92A H 1.3352 0.5699 -0.0286
H93A H 1.4252 0.5735 -0.0749
C91A C 1.1707(7) 0.4050(5) -0.1670(4)
H94A H 1.1526 0.4568 -0.1943
H95A H 1.2009 0.3773 -0.1930
H96A H 1.1140 0.3770 -0.1452
C96A C 1.2430(6) 0.3336(5) 0.2227(4)
H106A H 1.1844 0.3280 0.2486
H107A H 1.2575 0.3884 0.2022
H108A H 1.2952 0.3083 0.2501
C97A C 1.0355(6) 0.2012(6) 0.1118(4)
H109A H 0.9921 0.2043 0.1459
H110A H 1.0443 0.1472 0.1153
H111A H 1.0088 0.2298 0.0704
C98 C 0.7115(10) 0.1549(8) 0.2004(6)
H112 H 0.6518 0.1258 0.2038
H113 H 0.7152 0.1701 0.2389
Cl1 Cl 0.7083(3) 0.2353(2) 0.13521(16)
Cl2 Cl 0.8082(2) 0.09456(16) 0.19820(17)
C99 C 1.4567(13) -0.3331(11) 0.3706(9)
H114 H 1.5156 -0.3032 0.3679
H115 H 1.4554 -0.3500 0.3329
Cl3 Cl 1.3586(5) -0.2767(5) 0.3723(3)
Cl4 Cl 1.4536(5) -0.4204(4) 0.4470(3)
C100 C 0.4174(16) -0.1047(12) 0.1441(11)
H116 H 0.4413 -0.1441 0.1264
H117 H 0.3475 -0.1098 0.1482
Cl5 Cl 0.4671(5) -0.1285(4) 0.2297(3)
Cl6 Cl 0.4414(4) -0.0237(3) 0.0948(3)
C101 C 0.4260(14) 0.1555(11) 0.2606(9)
H118 H 0.4283 0.1229 0.3061
H119 H 0.3597 0.1731 0.2520
Cl7 Cl 0.5030(3) 0.2427(3) 0.2482(2)
Cl8 Cl 0.4519(3) 0.1048(2) 0.2197(2)
C102 C 0.9790(14) 0.3972(12) 0.3430(10)
H120 H 1.0288 0.3931 0.3744
H121 H 0.9528 0.3450 0.3513
Cl9 Cl 1.0284(4) 0.4289(3) 0.2691(3)
Cl10 Cl 0.8914(4) 0.4557(3) 0.3537(3)
C103 C 1.243(2) -0.4695(16) 0.3610(13)
H122 H 1.2946 -0.4500 0.3810
H123 H 1.2439 -0.4369 0.3155
Cl11 Cl 1.2772(6) -0.5663(5) 0.3641(4)
Cl12 Cl 1.1482(5) -0.4542(4) 0.3912(3)
C104 C 0.794(2) 0.1795(18) 0.5146(14)
H125 H 0.8000 0.1731 0.5603
Cl13 Cl 0.8924(9) 0.1347(8) 0.4892(6)
Cl14 Cl 0.7892(6) 0.2770(5) 0.4704(4)
Cl15 Cl 0.9952(6) -0.5676(4) 0.1162(4)
Cl16 Cl 0.9818(7) -0.3858(6) -0.0069(4)
Cl17 Cl 1.3076(5) -0.2708(4) 0.1864(4)
Cl18 Cl 1.1716(7) -0.1894(5) 0.2275(4)
N1 N 1.3989(5) -0.5244(4) 0.1131(4)
C1 C 1.4480(6) -0.5110(4) 0.1585(4)
H1 H 1.5102 -0.5317 0.1660
C2 C 1.4140(5) -0.4686(4) 0.1953(3)
C3 C 1.3195(5) -0.4400(4) 0.1841(3)
H2 H 1.2910 -0.4138 0.2102
C4 C 1.2703(5) -0.4503(4) 0.1359(4)
C5 C 1.3122(6) -0.4937(4) 0.1013(4)
H3 H 1.2776 -0.5016 0.0680
C6 C 1.4676(5) -0.4437(4) 0.2421(3)
N2 N 1.5554(4) -0.4677(3) 0.2544(3)
H4 H 1.5777 -0.5042 0.2405
O1 O 1.4273(4) -0.3990(3) 0.2658(3)
C7 C 1.6152(5) -0.4357(4) 0.2899(3)
C8 C 1.6413(5) -0.3567(4) 0.2643(3)
C9 C 1.6954(5) -0.3273(4) 0.2987(3)
H5 H 1.7110 -0.2741 0.2816
C10 C 1.7307(5) -0.3701(4) 0.3584(3)
C11 C 1.7034(5) -0.4474(4) 0.3818(3)
H6 H 1.7249 -0.4786 0.4224
C12 C 1.6470(5) -0.4805(4) 0.3490(3)
C13 C 1.7893(5) -0.3301(4) 0.3955(3)
C14 C 1.8228(6) -0.3882(4) 0.4603(4)
H7 H 1.7666 -0.4098 0.4879
H8 H 1.8570 -0.4314 0.4522
C15 C 1.8861(7) -0.3512(6) 0.4941(5)
H9 H 1.9073 -0.3905 0.5338
H10 H 1.8499 -0.3115 0.5058
C16 C 1.9751(7) -0.3132(6) 0.4520(6)
H11 H 2.0127 -0.2861 0.4748
H12 H 2.0156 -0.3536 0.4445
C17 C 1.9453(6) -0.2566(6) 0.3889(5)
H13 H 2.0022 -0.2377 0.3612
H14 H 1.9138 -0.2119 0.3960
C18 C 1.8769(5) -0.2942(5) 0.3553(4)
H15 H 1.8562 -0.2547 0.3155
H16 H 1.9115 -0.3346 0.3435
C19 C 1.7200(5) -0.2690(4) 0.4075(3)
C20 C 1.7179(5) -0.1930(4) 0.3666(3)
H17 H 1.7680 -0.1754 0.3359
C21 C 1.6450(5) -0.1410(4) 0.3685(3)
C22 C 1.5728(5) -0.1683(4) 0.4139(3)
C23 C 1.5755(5) -0.2439(4) 0.4597(3)
C24 C 1.6491(5) -0.2916(4) 0.4546(4)
H18 H 1.6513 -0.3422 0.4847
C25 C 1.4811(5) -0.0531(4) 0.4184(3)
N3 N 1.4883(4) -0.1254(3) 0.4142(3)
H19 H 1.4347 -0.1479 0.4114
O2 O 1.5471(4) -0.0201(3) 0.4320(3)
C26 C 1.3855(5) -0.0183(4) 0.4014(3)
C27 C 1.3503(5) 0.0375(4) 0.4268(3)
H20 H 1.3877 0.0511 0.4562
C28 C 1.2642(6) 0.0727(4) 0.4108(4)
C29 C 1.2096(5) 0.0519(4) 0.3663(3)
H21 H 1.1494 0.0751 0.3545
C30 C 1.2441(5) -0.0021(4) 0.3400(3)
C31 C 1.3322(5) -0.0354(4) 0.3574(3)
H22 H 1.3563 -0.0710 0.3383
C32 C 1.1909(5) -0.0299(4) 0.2962(4)
N4 N 1.1208(4) 0.0159(3) 0.2623(3)
H23 H 1.1124 0.0623 0.2645
O3 O 1.2095(5) -0.0921(4) 0.2899(3)
C33 C 1.0607(5) -0.0105(4) 0.2234(3)
C34 C 1.0925(5) -0.0073(4) 0.1625(3)
C35 C 1.0350(5) -0.0373(4) 0.1291(3)
H24 H 1.0562 -0.0360 0.0879
C36 C 0.9452(5) -0.0707(4) 0.1520(3)
C37 C 0.9172(5) -0.0724(4) 0.2121(3)
H25 H 0.8581 -0.0956 0.2292
C38 C 0.9714(5) -0.0419(4) 0.2493(3)
C39 C 0.8919(5) -0.1104(4) 0.1130(3)
C40 C 0.8756(5) -0.0543(4) 0.0453(3)
H26 H 0.9371 -0.0312 0.0263
H27 H 0.8518 -0.0837 0.0189
C41 C 0.8055(5) 0.0103(5) 0.0428(4)
H28 H 0.7991 0.0447 -0.0018
H29 H 0.8295 0.0413 0.0678
C42 C 0.7082(6) -0.0237(5) 0.0701(4)
H30 H 0.6639 0.0181 0.0703
H31 H 0.6818 -0.0512 0.0431
C43 C 0.7192(5) -0.0796(5) 0.1381(4)
H32 H 0.7388 -0.0506 0.1658
H33 H 0.6572 -0.1040 0.1545
C44 C 0.7918(5) -0.1418(4) 0.1411(3)
H34 H 0.7680 -0.1745 0.1176
H35 H 0.7984 -0.1747 0.1862
C45 C 0.9570(5) -0.1780(4) 0.1114(3)
C46 C 0.9698(6) -0.2396(4) 0.1677(4)
H36 H 0.9311 -0.2426 0.2041
C47 C 1.0359(6) -0.2955(4) 0.1723(4)
C48 C 1.0927(5) -0.2914(4) 0.1200(4)
C49 C 1.0821(5) -0.2332(4) 0.0619(3)
C50 C 1.0115(5) -0.1768(4) 0.0583(3)
H37 H 1.0014 -0.1373 0.0187
C51 C 1.1773(6) -0.4093(5) 0.1174(4)
N5 N 1.1729(5) -0.3413(4) 0.1265(3)
H38 H 1.2258 -0.3252 0.1378
O4 O 1.1128(4) -0.4354(3) 0.0948(3)
C52 C 1.6042(7) -0.3052(5) 0.1997(4)
H39 H 1.6296 -0.2530 0.1896
H40 H 1.5347 -0.3034 0.2020
H41 H 1.6246 -0.3263 0.1665
C53 C 1.6200(8) -0.5644(5) 0.3764(4)
H42 H 1.6498 -0.5876 0.4177
H43 H 1.6417 -0.5911 0.3472
H44 H 1.5509 -0.5689 0.3822
C54 C 1.6458(6) -0.0614(5) 0.3214(4)
H45 H 1.5904 -0.0331 0.3294
H46 H 1.6437 -0.0638 0.2782
H47 H 1.7038 -0.0349 0.3258
C55 C 1.4992(7) -0.2729(5) 0.5125(5)
H48 H 1.5141 -0.3258 0.5391
H49 H 1.4373 -0.2719 0.4934
H50 H 1.4974 -0.2397 0.5388
C56 C 1.2297(7) 0.1309(6) 0.4393(4)
C57 C 1.3080(9) 0.2019(6) 0.4181(6)
H51 H 1.3118 0.2242 0.3715
H52 H 1.3703 0.1818 0.4342
H53 H 1.2882 0.2416 0.4361
C58 C 1.1309(8) 0.1678(8) 0.4129(6)
H54 H 1.0823 0.1276 0.4238
H55 H 1.1362 0.1918 0.3665
H56 H 1.1132 0.2069 0.4320
C59 C 1.2218(8) 0.0978(8) 0.5106(5)
H57 H 1.1750 0.0562 0.5230
H58 H 1.2017 0.1382 0.5277
H59 H 1.2836 0.0776 0.5276
C60 C 1.1882(6) 0.0250(5) 0.1366(4)
H60 H 1.1979 0.0225 0.0936
H61 H 1.2374 -0.0052 0.1644
H62 H 1.1917 0.0787 0.1349
C61 C 0.9398(6) -0.0439(5) 0.3140(4)
H63 H 0.8771 -0.0680 0.3243
H64 H 0.9362 0.0087 0.3151
H65 H 0.9852 -0.0738 0.3453
C62 C 1.0482(8) -0.3606(6) 0.2364(4)
H66 H 1.0020 -0.3540 0.2678
H67 H 1.1125 -0.3588 0.2513
H68 H 1.0379 -0.4104 0.2308
C63 C 1.1454(6) -0.2259(5) 0.0037(4)
H69 H 1.1895 -0.2695 0.0136
H70 H 1.1814 -0.1777 -0.0080
H71 H 1.1062 -0.2257 -0.0319
C85? C 0.796(4) 0.223(3) 0.3492(16)
C92? C 0.7600(10) 0.1773(8) 0.4157(7)
C93? C 0.6525(12) 0.1405(11) 0.4158(10)
H97? H 0.6275 0.1193 0.4597
H98? H 0.6568 0.0995 0.3970
H99? H 0.6101 0.1811 0.3907
C94? C 0.8290(14) 0.1099(11) 0.4523(9)
H100? H 0.8124 0.0921 0.4980
H101? H 0.8946 0.1286 0.4458
H102? H 0.8229 0.0670 0.4360
C95? C 0.7518(15) 0.2318(11) 0.4532(9)
H103? H 0.7255 0.2043 0.4959
H104? H 0.7098 0.2746 0.4313
H105? H 0.8147 0.2518 0.4567
H124? H 0.7347 0.1543 0.5097
loop_
_geom_bond_atom_site_label_1
_geom_bond_atom_site_label_2
_geom_bond_site_symmetry_1
_geom_bond_site_symmetry_2
N1 C1 1_555 1_555
C1 H1 1_555 1_555
C2 C1 1_555 1_555
C3 C2 1_555 1_555
H2 C3 1_555 1_555
C4 C3 1_555 1_555
C5 N1 1_555 1_555
H3 C5 1_555 1_555
C6 C2 1_555 1_555
N2 C6 1_555 1_555
H4 N2 1_555 1_555
O1 C6 1_555 1_555
C7 N2 1_555 1_555
C8 C7 1_555 1_555
C9 C8 1_555 1_555
H5 C9 1_555 1_555
C10 C9 1_555 1_555
C11 C10 1_555 1_555
H6 C11 1_555 1_555
C12 C7 1_555 1_555
C13 C10 1_555 1_555
C14 C13 1_555 1_555
H7 C14 1_555 1_555
H8 C14 1_555 1_555
C15 C14 1_555 1_555
H9 C15 1_555 1_555
H10 C15 1_555 1_555
C16 C15 1_555 1_555
H11 C16 1_555 1_555
H12 C16 1_555 1_555
C17 C16 1_555 1_555
H13 C17 1_555 1_555
H14 C17 1_555 1_555
C18 C13 1_555 1_555
H15 C18 1_555 1_555
H16 C18 1_555 1_555
C19 C13 1_555 1_555
C20 C19 1_555 1_555
H17 C20 1_555 1_555
C21 C20 1_555 1_555
C22 C21 1_555 1_555
C23 C22 1_555 1_555
C24 C19 1_555 1_555
H18 C24 1_555 1_555
C25 N3 1_555 1_555
N3 C22 1_555 1_555
H19 N3 1_555 1_555
O2 C25 1_555 1_555
C26 C25 1_555 1_555
C27 C26 1_555 1_555
H20 C27 1_555 1_555
C28 C27 1_555 1_555
C29 C28 1_555 1_555
H21 C29 1_555 1_555
C30 C29 1_555 1_555
C31 C26 1_555 1_555
H22 C31 1_555 1_555
C32 C30 1_555 1_555
N4 C32 1_555 1_555
H23 N4 1_555 1_555
O3 C32 1_555 1_555
C33 N4 1_555 1_555
C34 C33 1_555 1_555
C35 C34 1_555 1_555
H24 C35 1_555 1_555
C36 C35 1_555 1_555
C37 C36 1_555 1_555
H25 C37 1_555 1_555
C38 C33 1_555 1_555
C39 C36 1_555 1_555
C40 C39 1_555 1_555
H26 C40 1_555 1_555
H27 C40 1_555 1_555
C41 C40 1_555 1_555
H28 C41 1_555 1_555
H29 C41 1_555 1_555
C42 C41 1_555 1_555
H30 C42 1_555 1_555
H31 C42 1_555 1_555
C43 C42 1_555 1_555
H32 C43 1_555 1_555
H33 C43 1_555 1_555
C44 C39 1_555 1_555
H34 C44 1_555 1_555
H35 C44 1_555 1_555
C45 C39 1_555 1_555
C46 C45 1_555 1_555
H36 C46 1_555 1_555
C47 C46 1_555 1_555
C48 C47 1_555 1_555
C49 C48 1_555 1_555
C50 C45 1_555 1_555
H37 C50 1_555 1_555
C51 C4 1_555 1_555
N5 C48 1_555 1_555
H38 N5 1_555 1_555
O4 C51 1_555 1_555
C52 C8 1_555 1_555
H39 C52 1_555 1_555
H40 C52 1_555 1_555
H41 C52 1_555 1_555
C53 C12 1_555 1_555
H42 C53 1_555 1_555
H43 C53 1_555 1_555
H44 C53 1_555 1_555
C54 C21 1_555 1_555
H45 C54 1_555 1_555
H46 C54 1_555 1_555
H47 C54 1_555 1_555
C55 C23 1_555 1_555
H48 C55 1_555 1_555
H49 C55 1_555 1_555
H50 C55 1_555 1_555
C56 C28 1_555 1_555
C57 C56 1_555 1_555
H51 C57 1_555 1_555
H52 C57 1_555 1_555
H53 C57 1_555 1_555
C58 C56 1_555 1_555
H54 C58 1_555 1_555
H55 C58 1_555 1_555
H56 C58 1_555 1_555
C59 C56 1_555 1_555
H57 C59 1_555 1_555
H58 C59 1_555 1_555
H59 C59 1_555 1_555
C60 C34 1_555 1_555
H60 C60 1_555 1_555
H61 C60 1_555 1_555
H62 C60 1_555 1_555
C61 C38 1_555 1_555
H63 C61 1_555 1_555
H64 C61 1_555 1_555
H65 C61 1_555 1_555
C62 C47 1_555 1_555
H66 C62 1_555 1_555
H67 C62 1_555 1_555
H68 C62 1_555 1_555
C63 C49 1_555 1_555
H69 C63 1_555 1_555
H70 C63 1_555 1_555
H71 C63 1_555 1_555
N6 C64 1_555 1_555
C64 H72 1_555 1_555
C65 C64 1_555 1_555
C66 C65 1_555 1_555
H73 C66 1_555 1_555
C67 C66 1_555 1_555
C68 N6 1_555 1_555
H74 C68 1_555 1_555
C69 C65 1_555 1_555
N7 C69 1_555 1_555
H75 N7 1_555 1_555
O5 C69 1_555 1_555
C70 N7 1_555 1_555
C71 C70 1_555 1_555
C72 C71 1_555 1_555
H76 C72 1_555 1_555
C73 C72 1_555 1_555
C74 C73 1_555 1_555
H77 C74 1_555 1_555
C75 C70 1_555 1_555
C76 C73 1_555 1_555
C77 C76 1_555 1_555
H78 C77 1_555 1_555
H79 C77 1_555 1_555
C78 C77 1_555 1_555
H80 C78 1_555 1_555
H81 C78 1_555 1_555
C79 C78 1_555 1_555
H82 C79 1_555 1_555
H83 C79 1_555 1_555
C80 C79 1_555 1_555
H84 C80 1_555 1_555
H85 C80 1_555 1_555
C81 C76 1_555 1_555
H86 C81 1_555 1_555
H87 C81 1_555 1_555
C82 C76 1_555 1_555
C83 C82 1_555 1_555
H88 C83 1_555 1_555
C84 C82 1_555 1_555
H89 C84 1_555 1_555
C86 C84 1_555 1_555
C87 C86 1_555 1_555
C88 C83 1_555 1_555
C89 C67 1_555 1_555
N8 C87 1_555 1_555
H90 N8 1_555 1_555
O6 C89 1_555 1_555
C90 C75 1_555 1_555
H91 C90 1_555 1_555
H92 C90 1_555 1_555
H93 C90 1_555 1_555
C91 C71 1_555 1_555
H94 C91 1_555 1_555
H95 C91 1_555 1_555
H96 C91 1_555 1_555
C96 C86 1_555 1_555
H106 C96 1_555 1_555
H107 C96 1_555 1_555
H108 C96 1_555 1_555
C97 C88 1_555 1_555
H109 C97 1_555 1_555
H110 C97 1_555 1_555
H111 C97 1_555 1_555
C98 H112 1_555 1_555
H113 C98 1_555 1_555
Cl1 C98 1_555 1_555
Cl2 C98 1_555 1_555
C99 H114 1_555 1_555
H115 C99 1_555 1_555
Cl3 C99 1_555 1_555
Cl4 C99 1_555 1_555
C100 H116 1_555 1_555
H117 C100 1_555 1_555
Cl5 C100 1_555 1_555
Cl6 C100 1_555 1_555
C101 H118 1_555 1_555
H119 C101 1_555 1_555
Cl7 C101 1_555 1_555
Cl8 C101 1_555 1_555
C102 H120 1_555 1_555
H121 C102 1_555 1_555
Cl9 C102 1_555 1_555
Cl10 C102 1_555 1_555
C103 H122 1_555 1_555
H123 C103 1_555 1_555
Cl11 C103 1_555 1_555
Cl12 C103 1_555 1_555
C104 H125 1_555 1_555
Cl13 C104 1_555 1_555
Cl14 C104 1_555 1_555
N6A C64A 1_555 1_555
C64A H72A 1_555 1_555
C65A C64A 1_555 1_555
C66A C65A 1_555 1_555
H73A C66A 1_555 1_555
C67A C66A 1_555 1_555
C68A N6A 1_555 1_555
H74A C68A 1_555 1_555
C69A C65A 1_555 1_555
N7A C69A 1_555 1_555
H75A N7A 1_555 1_555
O5A C69A 1_555 1_555
C70A N7A 1_555 1_555
C71A C70A 1_555 1_555
C72A C71A 1_555 1_555
H76A C72A 1_555 1_555
C73A C72A 1_555 1_555
C74A C73A 1_555 1_555
H77A C74A 1_555 1_555
C75A C70A 1_555 1_555
C76A C73A 1_555 1_555
C77A C76A 1_555 1_555
H78A C77A 1_555 1_555
H79A C77A 1_555 1_555
C78A C77A 1_555 1_555
H80A C78A 1_555 1_555
H81A C78A 1_555 1_555
C79A C78A 1_555 1_555
H82A C79A 1_555 1_555
H83A C79A 1_555 1_555
C80A C79A 1_555 1_555
H84A C80A 1_555 1_555
H85A C80A 1_555 1_555
C81A C76A 1_555 1_555
H86A C81A 1_555 1_555
H87A C81A 1_555 1_555
C82A C76A 1_555 1_555
C83A C82A 1_555 1_555
H88A C83A 1_555 1_555
C84A C82A 1_555 1_555
H89A C84A 1_555 1_555
C86A C84A 1_555 1_555
C87A C86A 1_555 1_555
C88A C83A 1_555 1_555
C89A N8 1_555 1_555
N8A C89 1_555 1_555
H90A N8A 1_555 1_555
O6A C89A 1_555 1_555
C90A C75A 1_555 1_555
H91A C90A 1_555 1_555
H92A C90A 1_555 1_555
H93A C90A 1_555 1_555
C91A C71A 1_555 1_555
H94A C91A 1_555 1_555
H95A C91A 1_555 1_555
H96A C91A 1_555 1_555
C96A C86A 1_555 1_555
H106A C96A 1_555 1_555
H107A C96A 1_555 1_555
H108A C96A 1_555 1_555
C97A C88A 1_555 1_555
H109A C97A 1_555 1_555
H110A C97A 1_555 1_555
H111A C97A 1_555 1_555
C4 C5 1_555 1_555
C11 C12 1_555 1_555
C17 C18 1_555 1_555
C23 C24 1_555 1_555
C30 C31 1_555 1_555
C37 C38 1_555 1_555
C43 C44 1_555 1_555
C49 C50 1_555 1_555
C51 N5 1_555 1_555
C67 C68 1_555 1_555
C74 C75 1_555 1_555
C80 C81 1_555 1_555
C87 C88 1_555 1_555
C67A C68A 1_555 1_555
C67A C89A 1_555 1_555
C74A C75A 1_555 1_555
C80A C81A 1_555 1_555
C87A C88A 1_555 1_555
C87A N8A 1_555 1_555

#END
