
#######################################################################
#
#                 Cambridge Crystallographic Data Centre
#                                CCDC 
#
#######################################################################
#
# If this CIF has been generated from an entry in the Cambridge 
# Structural Database, then it will include bibliographic, chemical, 
# crystal, experimental, refinement or atomic coordinate data resulting 
# from the CCDC's data processing and validation procedures.
#
#######################################################################

data_XOJFIL
_chemical_formula_moiety         'C24 H27 Cl1 O4 Si1'
_chemical_name_systematic        
'(1R-(1\a,2\b,3\b,6\a))-4-Chloro-2-(((1,1-dimethylethyl)-diphenylsilyl)oxy)-7-oxabicyclo(4.1.0)hept-4-en-3-ol acetate'
_symmetry_cell_setting           orthorhombic
_symmetry_space_group_name_H-M   'P 21 21 21'
_symmetry_Int_Tables_number      19
_space_group_name_Hall           'P 2ac 2ab'
loop_
_symmetry_equiv_pos_site_id
_symmetry_equiv_pos_as_xyz
1 x,y,z
2 1/2-x,-y,1/2+z
3 1/2+x,1/2-y,-z
4 -x,1/2+y,1/2-z
_cell_length_a                   9.7325(7)
_cell_length_b                   9.7726(7)
_cell_length_c                   25.180(2)
_cell_angle_alpha                90
_cell_angle_beta                 90
_cell_angle_gamma                90
_cell_volume                     2394.92
_exptl_crystal_colour            colorless
_exptl_crystal_description       prism
_chemical_melting_point          156-158deg.C
_cell_formula_units_Z            4
loop_
_atom_site_label
_atom_site_type_symbol
_atom_site_fract_x
_atom_site_fract_y
_atom_site_fract_z
Cl1 Cl -0.30437(18) -0.0793(3) 0.11006(6)
Si1 Si -0.25141(12) -0.1317(1) -0.14601(4)
O1 O -0.0358(3) -0.3312(5) -0.00452(17)
O2 O -0.1802(3) -0.1248(3) -0.08655(11)
O3 O -0.0919(3) -0.0372(5) 0.00867(16)
O4 O -0.1815(5) 0.1633(5) -0.0176(3)
C1 C -0.1620(5) -0.3298(6) -0.0325(2)
C2 C -0.2317(4) -0.1976(4) -0.04127(16)
C3 C -0.2272(5) -0.1003(6) 0.00674(18)
C4 C -0.2431(6) -0.1803(9) 0.05869(19)
C5 C -0.2109(6) -0.3138(9) 0.0636(2)
C6 C -0.1537(5) -0.3855(8) 0.0206(2)
C7 C -0.0865(6) 0.0926(8) -0.0075(3)
C8 C 0.0618(7) 0.1417(8) -0.0124(4)
C9 C -0.2946(4) -0.3155(4) -0.16073(15)
C10 C -0.1896(5) -0.4101(4) -0.17014(19)
C11 C -0.2170(5) -0.5482(4) -0.1749(2)
C12 C -0.3524(6) -0.5954(5) -0.1699(2)
C13 C -0.4554(6) -0.5048(5) -0.1608(2)
C14 C -0.4272(5) -0.3658(4) -0.15597(19)
C15 C -0.4129(4) -0.0262(4) -0.14759(18)
C16 C -0.5031(5) -0.0326(5) -0.18992(19)
C17 C -0.6182(5) 0.0521(6) -0.1932(2)
C18 C -0.6466(5) 0.1402(5) -0.1521(2)
C19 C -0.5604(5) 0.1477(4) -0.1099(2)
C20 C -0.4436(5) 0.0678(4) -0.10742(19)
C21 C -0.1194(5) -0.0529(4) -0.19170(19)
C22 C 0.0231(5) -0.1179(6) -0.1852(3)
C23 C -0.1645(7) -0.0712(9) -0.2497(2)
C24 C -0.1029(8) 0.0965(5) -0.1767(4)
H1 H -0.1939(5) -0.3645(6) -0.0678(2)
H2 H -0.3293(4) -0.2259(4) -0.04714(16)
H3 H -0.3021(5) -0.0310(6) 0.00274(18)
H4 H -0.2265(6) -0.3611(9) 0.0983(2)
H5 H -0.1798(5) -0.4753(8) 0.0368(2)
H6 H 0.0644(7) 0.2392(8) -0.0245(4)
H7 H 0.1083(7) 0.1338(8) 0.0229(4)
H8 H 0.1104(7) 0.0828(8) -0.0389(4)
H9 H -0.0928(5) -0.3772(4) -0.17375(19)
H10 H -0.1406(5) -0.6145(4) -0.1814(2)
H11 H -0.3736(6) -0.6950(5) -0.1737(2)
H12 H -0.5521(6) -0.5380(5) -0.1574(2)
H13 H -0.5041(5) -0.3005(4) -0.14886(19)
H14 H -0.4846(5) -0.0991(5) -0.21926(19)
H15 H -0.6800(5) 0.0475(6) -0.2248(2)
H16 H -0.7305(5) 0.1991(5) -0.1532(2)
H17 H -0.5815(5) 0.2121(4) -0.0801(2)
H18 H -0.3791(5) 0.0782(4) -0.07676(19)
H19 H 0.0884(5) -0.0730(6) -0.2104(3)
H20 H 0.0177(5) -0.2180(6) -0.1932(3)
H21 H 0.0562(5) -0.1047(6) -0.1479(3)
H22 H -0.0936(7) -0.0297(9) -0.2736(2)
H23 H -0.1738(7) -0.1709(9) -0.2580(2)
H24 H -0.2547(7) -0.0247(9) -0.2555(2)
H25 H -0.0333(8) 0.1398(5) -0.2006(4)
H26 H -0.1932(8) 0.1440(5) -0.1811(4)
H27 H -0.0718(8) 0.1045(5) -0.1390(4)
loop_
_geom_bond_atom_site_label_1
_geom_bond_atom_site_label_2
_geom_bond_site_symmetry_1
_geom_bond_site_symmetry_2
Cl1 C4 1_555 1_555
Si1 O2 1_555 1_555
O1 C1 1_555 1_555
O2 C2 1_555 1_555
O3 C3 1_555 1_555
O4 C7 1_555 1_555
C1 C2 1_555 1_555
C2 C3 1_555 1_555
C3 C4 1_555 1_555
C4 C5 1_555 1_555
C5 C6 1_555 1_555
C6 O1 1_555 1_555
C7 O3 1_555 1_555
C8 C7 1_555 1_555
C9 Si1 1_555 1_555
C10 C9 1_555 1_555
C11 C10 1_555 1_555
C12 C11 1_555 1_555
C13 C12 1_555 1_555
C14 C9 1_555 1_555
C15 Si1 1_555 1_555
C16 C15 1_555 1_555
C17 C16 1_555 1_555
C18 C17 1_555 1_555
C19 C18 1_555 1_555
C20 C15 1_555 1_555
C21 Si1 1_555 1_555
C22 C21 1_555 1_555
C23 C21 1_555 1_555
C24 C21 1_555 1_555
H1 C1 1_555 1_555
H2 C2 1_555 1_555
H3 C3 1_555 1_555
H4 C5 1_555 1_555
H5 C6 1_555 1_555
H6 C8 1_555 1_555
H7 C8 1_555 1_555
H8 C8 1_555 1_555
H9 C10 1_555 1_555
H10 C11 1_555 1_555
H11 C12 1_555 1_555
H12 C13 1_555 1_555
H13 C14 1_555 1_555
H14 C16 1_555 1_555
H15 C17 1_555 1_555
H16 C18 1_555 1_555
H17 C19 1_555 1_555
H18 C20 1_555 1_555
H19 C22 1_555 1_555
H20 C22 1_555 1_555
H21 C22 1_555 1_555
H22 C23 1_555 1_555
H23 C23 1_555 1_555
H24 C23 1_555 1_555
H25 C24 1_555 1_555
H26 C24 1_555 1_555
H27 C24 1_555 1_555
C1 C6 1_555 1_555
C13 C14 1_555 1_555
C19 C20 1_555 1_555

#END
