
#######################################################################
#
#                 Cambridge Crystallographic Data Centre
#                                CCDC 
#
#######################################################################
#
# If this CIF has been generated from an entry in the Cambridge 
# Structural Database, then it will include bibliographic, chemical, 
# crystal, experimental, refinement or atomic coordinate data resulting 
# from the CCDC's data processing and validation procedures.
#
#######################################################################

data_XOJFAD
_chemical_compound_source        
'n-hexane extract of fruits of Vitex agnus-castus'
_chemical_name_common            'Vitexlactam A'
_chemical_formula_moiety         'C22 H35 N1 O4'
_chemical_name_systematic        
6\b-Acetoxy-9\a-hydroxy-13(14)-labden-16,15-amide
_symmetry_cell_setting           triclinic
_symmetry_space_group_name_H-M   'P 1'
_symmetry_Int_Tables_number      1
_space_group_name_Hall           'P 1'
loop_
_symmetry_equiv_pos_site_id
_symmetry_equiv_pos_as_xyz
1 x,y,z
_cell_length_a                   7.4942(6)
_cell_length_b                   7.5210(6)
_cell_length_c                   20.0151(19)
_cell_angle_alpha                79.954(4)
_cell_angle_beta                 85.188(3)
_cell_angle_gamma                68.463(5)
_cell_volume                     1033.03
_exptl_crystal_colour            colorless
_exptl_crystal_description       plate
_chemical_melting_point          207deg.C
_cell_formula_units_Z            2
_exptl_crystal_recrystallization_method methanol
loop_
_atom_site_label
_atom_site_type_symbol
_atom_site_fract_x
_atom_site_fract_y
_atom_site_fract_z
C1 C 1.0926(11) 0.5581(10) 0.3429(4)
H1 H 1.0321 0.4916 0.3186
H2 H 1.1904 0.5915 0.3125
C2 C 1.1821(13) 0.4314(11) 0.4062(4)
H3 H 1.2887 0.3154 0.3946
H4 H 1.0859 0.3882 0.4342
C3 C 1.2577(11) 0.5422(11) 0.4458(4)
H5 H 1.3432 0.5953 0.4153
H6 H 1.3366 0.4499 0.4831
C4 C 1.1059(11) 0.7079(12) 0.4762(4)
C5 C 1.0028(9) 0.8523(9) 0.4150(3)
H7 H 1.1084 0.8862 0.3886
C6 C 0.8681(9) 1.0458(10) 0.4347(3)
H8 H 0.9458 1.1008 0.4572
O1 O 0.7033(7) 1.0424(7) 0.4798(2)
C7 C 0.7962(11) 1.1772(9) 0.3695(4)
H9 H 0.8982 1.2233 0.3478
H10 H 0.6847 1.2915 0.3794
C8 C 0.7363(10) 1.0733(9) 0.3201(3)
H11 H 0.6258 1.0376 0.3411
C9 C 0.8917(9) 0.8925(9) 0.2997(3)
O2 O 1.0632(6) 0.9338(7) 0.2757(2)
H12 H 1.0550 0.9765 0.2339
C10 C 0.9360(10) 0.7469(10) 0.3654(4)
C11 C 0.8630(10) 0.7970(11) 0.2389(4)
H13 H 0.8718 0.8827 0.1961
H14 H 0.9723 0.6732 0.2384
C12 C 0.6785(10) 0.7556(10) 0.2374(4)
H15 H 0.6815 0.6433 0.2721
H16 H 0.5658 0.8692 0.2470
C13 C 0.6665(10) 0.7130(11) 0.1681(4)
C14 C 0.7789(11) 0.7112(11) 0.1096(4)
H17 H 0.8905 0.7441 0.1064
C15 C 0.7107(12) 0.6536(11) 0.0524(4)
H18 H 0.8041 0.5323 0.0389
H19 H 0.6791 0.7571 0.0125
C16 C 0.5043(10) 0.6581(10) 0.1527(4)
O3 O 0.3654(7) 0.6488(7) 0.1943(3)
N1 N 0.5346(8) 0.6262(9) 0.0869(3)
H20 H 0.4563 0.5918 0.0662
C17 C 0.6703(12) 1.2164(12) 0.2624(4)
H21 H 0.5414 1.2269 0.2516
H22 H 0.7577 1.1801 0.2237
H23 H 0.6662 1.3413 0.2720
C18 C 1.2054(15) 0.8354(18) 0.5063(5)
H27 H 1.1154 0.9130 0.5378
H28 H 1.2391 0.9212 0.4689
H29 H 1.3217 0.7488 0.5304
C19 C 0.9704(14) 0.6709(16) 0.5338(5)
H33 H 0.8518 0.6766 0.5147
H34 H 0.9401 0.7697 0.5633
H35 H 1.0323 0.5426 0.5602
C20 C 0.7527(11) 0.7077(11) 0.3980(4)
H39 H 0.6598 0.7338 0.3626
H40 H 0.6947 0.7926 0.4321
H41 H 0.7895 0.5723 0.4196
C21 C 0.6221(11) 1.1777(12) 0.5271(4)
O4 O 0.6765(9) 1.3109(8) 0.5304(3)
C22 C 0.4656(13) 1.1397(15) 0.5762(5)
H45 H 0.3619 1.1372 0.5500
H46 H 0.4144 1.2428 0.6042
H47 H 0.5211 1.0148 0.6055
C23 C 0.4260(10) 0.7014(11) 0.8848(4)
H51 H 0.3973 0.5998 0.9175
H52 H 0.4990 0.7551 0.9093
C24 C 0.5592(12) 0.6023(13) 0.8281(4)
H53 H 0.5979 0.6997 0.7967
H54 H 0.6768 0.5021 0.8487
C25 C 0.4646(13) 0.5096(11) 0.7881(5)
H55 H 0.5538 0.4513 0.7518
H56 H 0.4339 0.4052 0.8185
C26 C 0.2838(12) 0.6584(10) 0.7572(4)
C27 C 0.1518(9) 0.7681(10) 0.8157(4)
H57 H 0.1270 0.6606 0.8473
C28 C -0.0460(10) 0.9104(10) 0.8007(3)
H58 H -0.1114 0.8465 0.7765
O5 O -0.0186(8) 1.0652(8) 0.7522(3)
C29 C -0.1841(10) 0.9976(10) 0.8572(4)
H59 H -0.2285 0.8960 0.8829
H60 H -0.2979 1.1018 0.8356
C30 C -0.1058(9) 1.0824(10) 0.9087(4)
H61 H -0.0764 1.1951 0.8828
C31 C 0.0853(9) 0.9221(9) 0.9283(3)
O6 O 0.0193(7) 0.7656(6) 0.9564(2)
H62 H 0.0034 0.7129 0.9249
C32 C 0.2383(10) 0.8604(10) 0.8646(4)
C33 C 0.1431(11) 0.9790(11) 0.9920(4)
H63 H 0.0399 0.9807 1.0265
H64 H 0.2592 0.8698 1.0095
C34 C 0.1853(12) 1.1652(10) 0.9929(4)
H65 H 0.3089 1.1531 0.9687
H66 H 0.0839 1.2763 0.9677
C35 C 0.1949(11) 1.2069(11) 1.0628(4)
C36 C 0.1774(11) 1.1102(11) 1.1235(4)
H67 H 0.1456 0.9970 1.1312
C37 C 0.2147(13) 1.2035(11) 1.1779(4)
H68 H 0.1012 1.2431 1.2086
H69 H 0.3259 1.1134 1.2050
C38 C 0.2454(10) 1.3749(10) 1.0778(4)
O7 O 0.2732(7) 1.4974(7) 1.0358(3)
N2 N 0.2540(9) 1.3681(9) 1.1435(3)
H70 H 0.2797 1.4516 1.1631
C39 C -0.2697(12) 1.1670(12) 0.9702(5)
H71 H -0.3964 1.2354 0.9501
H72 H -0.2332 1.2562 0.9915
H73 H -0.2742 1.0584 1.0045
C40 C 0.1937(19) 0.5418(16) 0.7252(5)
H77 H 0.2063 0.5681 0.6757
H78 H 0.0576 0.5792 0.7385
H79 H 0.2596 0.4035 0.7410
C41 C 0.3726(14) 0.7654(14) 0.6962(4)
H83 H 0.3423 0.7383 0.6533
H84 H 0.5121 0.7192 0.7007
H85 H 0.3183 0.9051 0.6969
C42 C 0.2929(11) 1.0339(11) 0.8324(4)
H89 H 0.2901 1.0475 0.7829
H90 H 0.4223 1.0136 0.8461
H91 H 0.2013 1.1516 0.8476
C43 C -0.1210(13) 1.1163(12) 0.6997(4)
O8 O -0.2315(11) 1.0401(10) 0.6905(4)
C44 C -0.0779(14) 1.2698(15) 0.6579(5)
H95 H -0.0776 1.2558 0.6101
H96 H 0.0486 1.2652 0.6692
H97 H -0.1752 1.3940 0.6657
H24? H 0.7688 1.2720 0.2466
H25? H 0.5524 1.3187 0.2745
H26? H 0.6440 1.1576 0.2262
H30? H 1.3354 0.8090 0.4870
H31? H 1.2117 0.8007 0.5558
H32? H 1.1291 0.9732 0.4943
H36? H 1.0310 0.6493 0.5775
H37? H 0.9427 0.5562 0.5289
H38? H 0.8505 0.7833 0.5320
H42? H 0.7696 0.6653 0.4470
H43? H 0.7346 0.6066 0.3774
H44? H 0.6398 0.8268 0.3899
H48? H 0.5031 1.1260 0.6231
H49? H 0.4506 1.0204 0.5689
H50? H 0.3438 1.2484 0.5677
H74? H -0.2062 1.1312 1.0140
H75? H -0.3693 1.1105 0.9726
H76? H -0.3283 1.3083 0.9596
H80? H 0.1427 0.4658 0.7611
H81? H 0.2914 0.4546 0.6983
H82? H 0.0894 0.6304 0.6958
H86? H 0.4395 0.8368 0.7140
H87? H 0.2697 0.8559 0.6666
H88? H 0.4635 0.6699 0.6703
H92? H 0.3191 1.0943 0.8682
H93? H 0.1869 1.1282 0.8050
H94? H 0.4078 0.9902 0.8034
H98? H -0.0585 1.3542 0.6865
H99? H -0.1847 1.3448 0.6275
H100? H 0.0391 1.2160 0.6310
loop_
_geom_bond_atom_site_label_1
_geom_bond_atom_site_label_2
_geom_bond_site_symmetry_1
_geom_bond_site_symmetry_2
C1 H1 1_555 1_555
H2 C1 1_555 1_555
C2 C1 1_555 1_555
H3 C2 1_555 1_555
H4 C2 1_555 1_555
C3 C2 1_555 1_555
H5 C3 1_555 1_555
H6 C3 1_555 1_555
C4 C3 1_555 1_555
C5 C4 1_555 1_555
H7 C5 1_555 1_555
C6 C5 1_555 1_555
H8 C6 1_555 1_555
O1 C6 1_555 1_555
C7 C6 1_555 1_555
H9 C7 1_555 1_555
H10 C7 1_555 1_555
C8 C7 1_555 1_555
H11 C8 1_555 1_555
C9 C8 1_555 1_555
O2 C9 1_555 1_555
H12 O2 1_555 1_555
C10 C1 1_555 1_555
C11 C9 1_555 1_555
H13 C11 1_555 1_555
H14 C11 1_555 1_555
C12 C11 1_555 1_555
H15 C12 1_555 1_555
H16 C12 1_555 1_555
C13 C12 1_555 1_555
C14 C13 1_555 1_555
H17 C14 1_555 1_555
C15 C14 1_555 1_555
H18 C15 1_555 1_555
H19 C15 1_555 1_555
C16 C13 1_555 1_555
O3 C16 1_555 1_555
N1 C15 1_555 1_555
H20 N1 1_555 1_555
C17 C8 1_555 1_555
H21 C17 1_555 1_555
H22 C17 1_555 1_555
H23 C17 1_555 1_555
C18 C4 1_555 1_555
H27 C18 1_555 1_555
H28 C18 1_555 1_555
H29 C18 1_555 1_555
C19 C4 1_555 1_555
H33 C19 1_555 1_555
H34 C19 1_555 1_555
H35 C19 1_555 1_555
C20 C10 1_555 1_555
H39 C20 1_555 1_555
H40 C20 1_555 1_555
H41 C20 1_555 1_555
C21 O1 1_555 1_555
O4 C21 1_555 1_555
C22 C21 1_555 1_555
H45 C22 1_555 1_555
H46 C22 1_555 1_555
H47 C22 1_555 1_555
C23 H51 1_555 1_555
H52 C23 1_555 1_555
C24 C23 1_555 1_555
H53 C24 1_555 1_555
H54 C24 1_555 1_555
C25 C24 1_555 1_555
H55 C25 1_555 1_555
H56 C25 1_555 1_555
C26 C25 1_555 1_555
C27 C26 1_555 1_555
H57 C27 1_555 1_555
C28 C27 1_555 1_555
H58 C28 1_555 1_555
O5 C28 1_555 1_555
C29 C28 1_555 1_555
H59 C29 1_555 1_555
H60 C29 1_555 1_555
C30 C29 1_555 1_555
H61 C30 1_555 1_555
C31 C30 1_555 1_555
O6 C31 1_555 1_555
H62 O6 1_555 1_555
C32 C23 1_555 1_555
C33 C31 1_555 1_555
H63 C33 1_555 1_555
H64 C33 1_555 1_555
C34 C33 1_555 1_555
H65 C34 1_555 1_555
H66 C34 1_555 1_555
C35 C34 1_555 1_555
C36 C35 1_555 1_555
H67 C36 1_555 1_555
C37 C36 1_555 1_555
H68 C37 1_555 1_555
H69 C37 1_555 1_555
C38 C35 1_555 1_555
O7 C38 1_555 1_555
N2 C37 1_555 1_555
H70 N2 1_555 1_555
C39 C30 1_555 1_555
H71 C39 1_555 1_555
H72 C39 1_555 1_555
H73 C39 1_555 1_555
C40 C26 1_555 1_555
H77 C40 1_555 1_555
H78 C40 1_555 1_555
H79 C40 1_555 1_555
C41 C26 1_555 1_555
H83 C41 1_555 1_555
H84 C41 1_555 1_555
H85 C41 1_555 1_555
C42 C32 1_555 1_555
H89 C42 1_555 1_555
H90 C42 1_555 1_555
H91 C42 1_555 1_555
C43 O5 1_555 1_555
O8 C43 1_555 1_555
C44 C43 1_555 1_555
H95 C44 1_555 1_555
H96 C44 1_555 1_555
H97 C44 1_555 1_555
C5 C10 1_555 1_555
C9 C10 1_555 1_555
C16 N1 1_555 1_555
C27 C32 1_555 1_555
C31 C32 1_555 1_555
C38 N2 1_555 1_555

#END
