
#######################################################################
#
#                 Cambridge Crystallographic Data Centre
#                                CCDC 
#
#######################################################################
#
# If this CIF has been generated from an entry in the Cambridge 
# Structural Database, then it will include bibliographic, chemical, 
# crystal, experimental, refinement or atomic coordinate data resulting 
# from the CCDC's data processing and validation procedures.
#
#######################################################################

data_XOJWUO
_chemical_formula_moiety         'C14 H19 Cl2 N1 O1 Si1'
_chemical_name_systematic        
4-Chloro-3-(4-chlorophenyl)-6-((trimethylsilyl)methyl)-5,6-dihydro-4H-1,2-oxazine
_symmetry_cell_setting           orthorhombic
_symmetry_space_group_name_H-M   'P 21 21 21'
_symmetry_Int_Tables_number      19
_space_group_name_Hall           'P 2ac 2ab'
loop_
_symmetry_equiv_pos_site_id
_symmetry_equiv_pos_as_xyz
1 x,y,z
2 1/2-x,-y,1/2+z
3 1/2+x,1/2-y,-z
4 -x,1/2+y,1/2-z
_cell_length_a                   6.072(3)
_cell_length_b                   11.494(5)
_cell_length_c                   23.036(5)
_cell_angle_alpha                90
_cell_angle_beta                 90
_cell_angle_gamma                90
_cell_volume                     1607.72
_chemical_melting_point          '110-111 deg.C'
_cell_formula_units_Z            4
_chemical_properties_physical    air-sensitive
_exptl_crystal_recrystallization_method chloroform
loop_
_atom_site_label
_atom_site_type_symbol
_atom_site_fract_x
_atom_site_fract_y
_atom_site_fract_z
Si1 Si 0.1991(2) 0.4124(1) 0.2055(1)
Cl1 Cl 0.5903(3) 0.0537(1) 0.1328(1)
Cl2 Cl 0.6172(3) -0.3172(1) -0.1169(1)
O1 O 0.0607(5) 0.2005(3) 0.0645(2)
N1 N 0.1443(6) 0.1108(4) 0.0307(2)
C1 C 0.3494(7) 0.0822(4) 0.0348(2)
C2 C 0.5136(7) 0.1440(4) 0.0722(2)
C3 C 0.4225(8) 0.2578(4) 0.0946(2)
C4 C 0.1894(8) 0.2377(4) 0.1147(2)
C5 C 0.4180(7) -0.0150(4) -0.0029(2)
C6 C 0.2720(8) -0.0634(4) -0.0438(2)
C7 C 0.3334(9) -0.1544(4) -0.0780(2)
C8 C 0.5418(10) -0.2011(5) -0.0729(2)
C9 C 0.6900(9) -0.1560(5) -0.0358(2)
C10 C 0.6294(8) -0.0627(5) -0.0001(2)
C11 C 0.0725(9) 0.3403(4) 0.1393(2)
C12 C 0.3304(11) 0.3038(5) 0.2528(2)
C13 C 0.4092(10) 0.5202(5) 0.1807(3)
C14 C -0.0214(11) 0.4906(7) 0.2452(3)
H1 H 0.6453(7) 0.1602(4) 0.0490(2)
H2 H 0.5118(8) 0.2858(4) 0.1265(2)
H3 H 0.4247(8) 0.3158(4) 0.0640(2)
H4 H 0.1893(8) 0.1751(4) 0.1436(2)
H5 H 0.1311(8) -0.0327(4) -0.0475(2)
H6 H 0.2347(9) -0.1851(4) -0.1048(2)
H7 H 0.8316(9) -0.1867(5) -0.0338(2)
H8 H 0.7315(8) -0.0320(5) 0.0258(2)
H9 H -0.0758(9) 0.3164(4) 0.1494(2)
H10 H 0.0603(9) 0.3985(4) 0.1090(2)
H11 H 0.4430(11) 0.2635(5) 0.2315(2)
H12 H 0.2219(11) 0.2490(5) 0.2659(2)
H13 H 0.3951(11) 0.3421(5) 0.2857(2)
H14 H 0.3367(10) 0.5842(5) 0.1620(3)
H15 H 0.5082(10) 0.4836(5) 0.1539(3)
H16 H 0.4905(10) 0.5483(5) 0.2136(3)
H17 H -0.0958(11) 0.5429(7) 0.2192(3)
H18 H 0.0422(11) 0.5343(7) 0.2765(3)
H19 H -0.1249(11) 0.4354(7) 0.2605(3)
loop_
_geom_bond_atom_site_label_1
_geom_bond_atom_site_label_2
_geom_bond_site_symmetry_1
_geom_bond_site_symmetry_2
Si1 C11 1_555 1_555
Cl1 C2 1_555 1_555
Cl2 C8 1_555 1_555
O1 N1 1_555 1_555
N1 C1 1_555 1_555
C1 C2 1_555 1_555
C2 C3 1_555 1_555
C3 C4 1_555 1_555
C4 O1 1_555 1_555
C5 C1 1_555 1_555
C6 C5 1_555 1_555
C7 C6 1_555 1_555
C8 C7 1_555 1_555
C9 C8 1_555 1_555
C10 C5 1_555 1_555
C11 C4 1_555 1_555
C12 Si1 1_555 1_555
C13 Si1 1_555 1_555
C14 Si1 1_555 1_555
H1 C2 1_555 1_555
H2 C3 1_555 1_555
H3 C3 1_555 1_555
H4 C4 1_555 1_555
H5 C6 1_555 1_555
H6 C7 1_555 1_555
H7 C9 1_555 1_555
H8 C10 1_555 1_555
H9 C11 1_555 1_555
H10 C11 1_555 1_555
H11 C12 1_555 1_555
H12 C12 1_555 1_555
H13 C12 1_555 1_555
H14 C13 1_555 1_555
H15 C13 1_555 1_555
H16 C13 1_555 1_555
H17 C14 1_555 1_555
H18 C14 1_555 1_555
H19 C14 1_555 1_555
C9 C10 1_555 1_555

#END
