
#######################################################################
#
#                 Cambridge Crystallographic Data Centre
#                                CCDC 
#
#######################################################################
#
# If this CIF has been generated from an entry in the Cambridge 
# Structural Database, then it will include bibliographic, chemical, 
# crystal, experimental, refinement or atomic coordinate data resulting 
# from the CCDC's data processing and validation procedures.
#
#######################################################################

data_XOJXOL05
_chemical_name_common            5-oxoproline
_chemical_formula_moiety         'C5 H7 N1 O3'
_chemical_name_systematic        'D-pyroglutamic acid'
_symmetry_cell_setting           orthorhombic
_symmetry_space_group_name_H-M   'P 21 21 21'
_symmetry_Int_Tables_number      19
_space_group_name_Hall           'P 2ac 2ab'
loop_
_symmetry_equiv_pos_site_id
_symmetry_equiv_pos_as_xyz
1 x,y,z
2 1/2-x,-y,1/2+z
3 1/2+x,1/2-y,-z
4 -x,1/2+y,1/2-z
_cell_length_a                   9.0121(12)
_cell_length_b                   13.4568(18)
_cell_length_c                   14.6634(18)
_cell_angle_alpha                90
_cell_angle_beta                 90
_cell_angle_gamma                90
_cell_volume                     1778.29
_exptl_crystal_colour            colorless
_exptl_crystal_description       ROD
_cell_formula_units_Z            12
loop_
_atom_site_label
_atom_site_type_symbol
_atom_site_fract_x
_atom_site_fract_y
_atom_site_fract_z
C1 C 0.7768(4) 0.2890(2) 0.2915(2)
C2 C 0.7791(4) 0.2478(2) 0.1963(2)
H1 H 0.8011 0.1765 0.1983
C3 C 0.6328(5) 0.2650(4) 0.1460(2)
H2 H 0.5772 0.2035 0.1414
H3 H 0.5727 0.3136 0.1780
C4 C 0.6736(4) 0.3027(3) 0.0525(2)
H4 H 0.6587 0.2514 0.0069
H5 H 0.6141 0.3601 0.0364
C5 C 0.8324(4) 0.3297(2) 0.0593(2)
N1 N 0.8854(3) 0.2975(2) 0.13867(16)
H6 H 0.9765 0.3056 0.1544
O1 O 0.6773(3) 0.24657(19) 0.34206(17)
H7 H 0.6792 0.2709 0.3933
O2 O 0.8537(3) 0.3577(2) 0.31669(17)
O3 O 0.9074(3) 0.3739(2) 0.00189(15)
C6 C 0.2381(3) 0.0956(2) 0.2060(2)
C7 C 0.2445(3) 0.0652(2) 0.30496(19)
H8 H 0.2252 -0.0063 0.3098
C8 C 0.3912(4) 0.0895(3) 0.3525(2)
H9 H 0.4563 0.0321 0.3531
H10 H 0.4415 0.1440 0.3221
C9 C 0.3460(4) 0.1184(3) 0.4487(2)
H11 H 0.3553 0.0624 0.4899
H12 H 0.4069 0.1726 0.4711
C10 C 0.1879(4) 0.1499(2) 0.4400(2)
N2 N 0.1373(3) 0.1186(2) 0.35936(16)
H13 H 0.0480 0.1294 0.3413
O4 O 0.3583(3) 0.06942(19) 0.16204(15)
H14 H 0.3518 0.0871 0.1087
O5 O 0.1336(3) 0.1358(2) 0.17163(15)
O6 O 0.1131(3) 0.1951(2) 0.49624(16)
C11 C 0.1975(3) 0.4485(2) 0.2357(2)
C12 C 0.1895(3) 0.4213(2) 0.3354(2)
H15 H 0.1317 0.3601 0.3428
C13 C 0.3416(4) 0.4084(2) 0.3793(2)
H16 H 0.4163 0.4464 0.3469
H17 H 0.3708 0.3391 0.3801
C14 C 0.3211(4) 0.4479(2) 0.4762(2)
H18 H 0.3002 0.3942 0.5184
H19 H 0.4090 0.4830 0.4967
C15 C 0.1925(3) 0.5164(2) 0.46874(19)
N3 N 0.1241(3) 0.4999(2) 0.38958(16)
H20 H 0.0476 0.5331 0.3722
O7 O 0.2580(3) 0.37841(18) 0.18734(16)
H21 H 0.2606 0.3954 0.1337
O8 O 0.1530(3) 0.52597(19) 0.20489(15)
O9 O 0.1519(3) 0.57922(19) 0.52559(14)
loop_
_geom_bond_atom_site_label_1
_geom_bond_atom_site_label_2
_geom_bond_site_symmetry_1
_geom_bond_site_symmetry_2
C1 C2 1_555 1_555
C2 H1 1_555 1_555
C3 C2 1_555 1_555
H2 C3 1_555 1_555
H3 C3 1_555 1_555
C4 C3 1_555 1_555
H4 C4 1_555 1_555
H5 C4 1_555 1_555
C5 C4 1_555 1_555
N1 C2 1_555 1_555
H6 N1 1_555 1_555
O1 C1 1_555 1_555
H7 O1 1_555 1_555
O2 C1 1_555 1_555
O3 C5 1_555 1_555
C6 C7 1_555 1_555
C7 H8 1_555 1_555
C8 C7 1_555 1_555
H9 C8 1_555 1_555
H10 C8 1_555 1_555
C9 C8 1_555 1_555
H11 C9 1_555 1_555
H12 C9 1_555 1_555
C10 C9 1_555 1_555
N2 C7 1_555 1_555
H13 N2 1_555 1_555
O4 C6 1_555 1_555
H14 O4 1_555 1_555
O5 C6 1_555 1_555
O6 C10 1_555 1_555
C11 C12 1_555 1_555
C12 H15 1_555 1_555
C13 C12 1_555 1_555
H16 C13 1_555 1_555
H17 C13 1_555 1_555
C14 C13 1_555 1_555
H18 C14 1_555 1_555
H19 C14 1_555 1_555
C15 C14 1_555 1_555
N3 C12 1_555 1_555
H20 N3 1_555 1_555
O7 C11 1_555 1_555
H21 O7 1_555 1_555
O8 C11 1_555 1_555
O9 C15 1_555 1_555
C5 N1 1_555 1_555
C10 N2 1_555 1_555
C15 N3 1_555 1_555

#END
