
#######################################################################
#
#                 Cambridge Crystallographic Data Centre
#                                CCDC 
#
#######################################################################
#
# If this CIF has been generated from an entry in the Cambridge 
# Structural Database, then it will include bibliographic, chemical, 
# crystal, experimental, refinement or atomic coordinate data resulting 
# from the CCDC's data processing and validation procedures.
#
#######################################################################

data_XOJXOL01
_chemical_name_common            5-oxoproline
_chemical_formula_moiety         'C5 H7 N1 O3'
_chemical_name_systematic        'D-pyroglutamic acid'
_symmetry_cell_setting           orthorhombic
_symmetry_space_group_name_H-M   'P 21 21 21'
_symmetry_Int_Tables_number      19
_space_group_name_Hall           'P 2ac 2ab'
loop_
_symmetry_equiv_pos_site_id
_symmetry_equiv_pos_as_xyz
1 x,y,z
2 1/2-x,-y,1/2+z
3 1/2+x,1/2-y,-z
4 -x,1/2+y,1/2-z
_cell_length_a                   8.2013(8)
_cell_length_b                   14.3479(14)
_cell_length_c                   14.6577(13)
_cell_angle_alpha                90
_cell_angle_beta                 90
_cell_angle_gamma                90
_cell_volume                     1724.79
_exptl_crystal_colour            colorless
_exptl_crystal_description       rod
_cell_formula_units_Z            12
loop_
_atom_site_label
_atom_site_type_symbol
_atom_site_fract_x
_atom_site_fract_y
_atom_site_fract_z
C1 C 0.2230(4) 0.2343(2) 0.2626(2)
C2 C 0.2220(4) 0.2519(2) 0.1609(2)
H1 H 0.1531 0.3078 0.1478
C3 C 0.3898(4) 0.2653(2) 0.1174(2)
H2 H 0.4746 0.2300 0.1508
H3 H 0.4206 0.3320 0.1157
C4 C 0.3655(4) 0.2265(2) 0.0206(2)
H4 H 0.3346 0.2766 -0.0225
H5 H 0.4660 0.1957 -0.0017
C5 C 0.2299(4) 0.1574(2) 0.0316(2)
N1 N 0.1566(3) 0.17214(17) 0.11180(17)
H6 H 0.0768 0.1371 0.1327
O1 O 0.3016(3) 0.30112(17) 0.30630(16)
H7 H 0.3007 0.2899 0.3625
O2 O 0.1576(3) 0.16922(15) 0.29911(15)
O3 O 0.1873(3) 0.09721(15) -0.02431(15)
C6 C 0.8254(4) 0.3533(2) 0.2327(2)
C7 C 0.8554(4) 0.3740(2) 0.3331(2)
H8 H 0.9478 0.4190 0.3396
C8 C 0.7036(4) 0.4122(2) 0.3817(2)
H9 H 0.7035 0.4812 0.3819
H10 H 0.6025 0.3898 0.3519
C9 C 0.7182(5) 0.3737(2) 0.4785(2)
H11 H 0.7735 0.4188 0.5191
H12 H 0.6096 0.3588 0.5040
C10 C 0.8184(4) 0.2873(2) 0.4669(2)
N2 N 0.8899(4) 0.28978(19) 0.38428(17)
H13 H 0.9517 0.2445 0.3633
O4 O 0.7990(3) 0.43080(14) 0.18669(14)
H14 H 0.7826 0.4179 0.1315
O5 O 0.8271(3) 0.27646(15) 0.20055(15)
O6 O 0.8392(3) 0.22213(15) 0.52172(15)
C11 C 0.2554(4) 0.5613(2) 0.3126(2)
C12 C 0.2696(4) 0.5823(2) 0.2120(2)
H15 H 0.2656 0.6514 0.2033
C13 C 0.4203(4) 0.5443(3) 0.1628(2)
H16 H 0.4580 0.4853 0.1908
H17 H 0.5107 0.5901 0.1638
C14 C 0.3586(4) 0.5283(3) 0.0654(2)
H18 H 0.3756 0.5843 0.0271
H19 H 0.4142 0.4745 0.0368
C15 C 0.1801(4) 0.5090(2) 0.0786(2)
N3 N 0.1366(3) 0.54070(19) 0.16122(17)
H20 H 0.0366 0.5366 0.1826
O7 O 0.3967(3) 0.56488(17) 0.35426(15)
H21 H 0.3839 0.5526 0.4098
O8 O 0.1263(3) 0.54646(16) 0.34994(15)
O9 O 0.0845(3) 0.47116(17) 0.02438(15)
loop_
_geom_bond_atom_site_label_1
_geom_bond_atom_site_label_2
_geom_bond_site_symmetry_1
_geom_bond_site_symmetry_2
C1 C2 1_555 1_555
C2 H1 1_555 1_555
C3 C2 1_555 1_555
H2 C3 1_555 1_555
H3 C3 1_555 1_555
C4 C3 1_555 1_555
H4 C4 1_555 1_555
H5 C4 1_555 1_555
C5 C4 1_555 1_555
N1 C2 1_555 1_555
H6 N1 1_555 1_555
O1 C1 1_555 1_555
H7 O1 1_555 1_555
O2 C1 1_555 1_555
O3 C5 1_555 1_555
C6 C7 1_555 1_555
C7 H8 1_555 1_555
C8 C7 1_555 1_555
H9 C8 1_555 1_555
H10 C8 1_555 1_555
C9 C8 1_555 1_555
H11 C9 1_555 1_555
H12 C9 1_555 1_555
C10 C9 1_555 1_555
N2 C7 1_555 1_555
H13 N2 1_555 1_555
O4 C6 1_555 1_555
H14 O4 1_555 1_555
O5 C6 1_555 1_555
O6 C10 1_555 1_555
C11 C12 1_555 1_555
C12 H15 1_555 1_555
C13 C12 1_555 1_555
H16 C13 1_555 1_555
H17 C13 1_555 1_555
C14 C13 1_555 1_555
H18 C14 1_555 1_555
H19 C14 1_555 1_555
C15 C14 1_555 1_555
N3 C12 1_555 1_555
H20 N3 1_555 1_555
O7 C11 1_555 1_555
H21 O7 1_555 1_555
O8 C11 1_555 1_555
O9 C15 1_555 1_555
C5 N1 1_555 1_555
C10 N2 1_555 1_555
C15 N3 1_555 1_555

#END
