
#######################################################################
#
#                 Cambridge Crystallographic Data Centre
#                                CCDC 
#
#######################################################################
#
# If this CIF has been generated from an entry in the Cambridge 
# Structural Database, then it will include bibliographic, chemical, 
# crystal, experimental, refinement or atomic coordinate data resulting 
# from the CCDC's data processing and validation procedures.
#
#######################################################################

data_XOJXOL04
_chemical_name_common            5-oxoproline
_chemical_formula_moiety         'C5 H7 N1 O3'
_chemical_name_systematic        'D-pyroglutamic acid'
_symmetry_cell_setting           orthorhombic
_symmetry_space_group_name_H-M   'P 21 21 21'
_symmetry_Int_Tables_number      19
_space_group_name_Hall           'P 2ac 2ab'
loop_
_symmetry_equiv_pos_site_id
_symmetry_equiv_pos_as_xyz
1 x,y,z
2 1/2-x,-y,1/2+z
3 1/2+x,1/2-y,-z
4 -x,1/2+y,1/2-z
_cell_length_a                   8.988(4)
_cell_length_b                   13.378(5)
_cell_length_c                   14.620(6)
_cell_angle_alpha                90
_cell_angle_beta                 90
_cell_angle_gamma                90
_cell_volume                     1757.93
_exptl_crystal_colour            colorless
_exptl_crystal_description       rod
_cell_formula_units_Z            12
loop_
_atom_site_label
_atom_site_type_symbol
_atom_site_fract_x
_atom_site_fract_y
_atom_site_fract_z
O1 O 0.6763(3) 0.7461(2) 0.34279(17)
H1 H 0.6778 0.7708 0.3948
O2 O 0.8528(3) 0.8590(2) 0.31759(17)
O3 O 0.9103(3) 0.8740(2) 0.00253(16)
N1 N 0.8859(3) 0.7970(2) 0.13926(18)
H2 H 0.9783 0.8047 0.1554
C1 C 0.6739(4) 0.8042(3) 0.0527(2)
H3 H 0.6580 0.7522 0.0064
H4 H 0.6150 0.8631 0.0362
C2 C 0.6314(5) 0.7666(4) 0.1465(2)
H5 H 0.5734 0.7048 0.1417
H6 H 0.5719 0.8167 0.1790
C3 C 0.7783(4) 0.7474(2) 0.1970(2)
H7 H 0.7991 0.6748 0.1990
C4 C 0.7760(4) 0.7892(3) 0.2922(2)
C5 C 0.8335(4) 0.8299(2) 0.0597(2)
O4 O 0.8607(3) 0.93180(19) 0.83871(16)
H8 H 0.8544 0.9143 0.8930
O5 O 0.6118(3) 0.8046(2) 0.50474(17)
O6 O 0.6338(3) 0.8661(2) 0.82993(15)
N2 N 0.6371(3) 0.8820(2) 0.64171(17)
H9 H 0.5468 0.8707 0.6605
C6 C 0.8463(4) 0.8822(3) 0.5514(2)
H10 H 0.8553 0.9391 0.5095
H11 H 0.9075 0.8271 0.5284
C7 C 0.8929(4) 0.9114(3) 0.6478(2)
H12 H 0.9591 0.9696 0.6469
H13 H 0.9437 0.8559 0.6785
C8 C 0.7451(3) 0.9363(2) 0.6957(2)
H14 H 0.7255 1.0089 0.6904
C9 C 0.7394(4) 0.9063(2) 0.7954(2)
C10 C 0.6870(4) 0.8507(2) 0.5610(2)
O7 O 0.7530(3) 0.62410(19) 0.81111(16)
H15 H 0.7558 0.6075 0.8658
O8 O 0.6533(3) 0.47359(18) 0.79396(15)
O9 O 0.6547(3) 0.41831(19) 0.47311(15)
N3 N 0.6245(3) 0.4980(2) 0.60902(16)
H16 H 0.5480 0.4632 0.6270
C11 C 0.6954(4) 0.5515(3) 0.7628(2)
C12 C 0.6877(4) 0.5782(2) 0.6629(2)
H17 H 0.6275 0.6395 0.6550
C13 C 0.8408(4) 0.5930(3) 0.6189(2)
H18 H 0.8684 0.6638 0.6181
H19 H 0.9173 0.5553 0.6519
C14 C 0.8214(4) 0.5530(3) 0.5221(2)
H20 H 0.7987 0.6073 0.4793
H21 H 0.9115 0.5184 0.5015
C15 C 0.6932(4) 0.4818(2) 0.5295(2)
loop_
_geom_bond_atom_site_label_1
_geom_bond_atom_site_label_2
_geom_bond_site_symmetry_1
_geom_bond_site_symmetry_2
O1 H1 1_555 1_555
O2 C4 1_555 1_555
O3 C5 1_555 1_555
N1 H2 1_555 1_555
C1 H3 1_555 1_555
H4 C1 1_555 1_555
C2 C1 1_555 1_555
H5 C2 1_555 1_555
H6 C2 1_555 1_555
C3 N1 1_555 1_555
H7 C3 1_555 1_555
C4 O1 1_555 1_555
C5 N1 1_555 1_555
O4 H8 1_555 1_555
O5 C10 1_555 1_555
O6 C9 1_555 1_555
N2 H9 1_555 1_555
C6 H10 1_555 1_555
H11 C6 1_555 1_555
C7 C6 1_555 1_555
H12 C7 1_555 1_555
H13 C7 1_555 1_555
C8 N2 1_555 1_555
H14 C8 1_555 1_555
C9 O4 1_555 1_555
C10 N2 1_555 1_555
O7 H15 1_555 1_555
O8 C11 1_555 1_555
O9 C15 1_555 1_555
N3 H16 1_555 1_555
C11 O7 1_555 1_555
C12 N3 1_555 1_555
H17 C12 1_555 1_555
C13 C12 1_555 1_555
H18 C13 1_555 1_555
H19 C13 1_555 1_555
C14 C13 1_555 1_555
H20 C14 1_555 1_555
H21 C14 1_555 1_555
C15 N3 1_555 1_555
C1 C5 1_555 1_555
C2 C3 1_555 1_555
C3 C4 1_555 1_555
C6 C10 1_555 1_555
C7 C8 1_555 1_555
C8 C9 1_555 1_555
C11 C12 1_555 1_555
C14 C15 1_555 1_555

#END
