
#######################################################################
#
#                 Cambridge Crystallographic Data Centre
#                                CCDC 
#
#######################################################################
#
# If this CIF has been generated from an entry in the Cambridge 
# Structural Database, then it will include bibliographic, chemical, 
# crystal, experimental, refinement or atomic coordinate data resulting 
# from the CCDC's data processing and validation procedures.
#
#######################################################################

data_XOJXOL06
_chemical_name_common            5-oxoproline
_chemical_formula_moiety         'C5 H7 N1 O3'
_chemical_name_systematic        'D-pyroglutamic acid'
_symmetry_cell_setting           orthorhombic
_symmetry_space_group_name_H-M   'P 21 21 21'
_symmetry_Int_Tables_number      19
_space_group_name_Hall           'P 2ac 2ab'
loop_
_symmetry_equiv_pos_site_id
_symmetry_equiv_pos_as_xyz
1 x,y,z
2 1/2-x,-y,1/2+z
3 1/2+x,1/2-y,-z
4 -x,1/2+y,1/2-z
_cell_length_a                   4.4250(10)
_cell_length_b                   9.162(2)
_cell_length_c                   14.747(3)
_cell_angle_alpha                90
_cell_angle_beta                 90
_cell_angle_gamma                90
_cell_volume                     597.871
_exptl_crystal_colour            colorless
_exptl_crystal_description       rod
_cell_formula_units_Z            4
loop_
_atom_site_label
_atom_site_type_symbol
_atom_site_fract_x
_atom_site_fract_y
_atom_site_fract_z
O1 O 1.0480(7) 0.0693(4) -0.08211(14)
H1 H 0.9824 0.0662 -0.1341
O2 O 0.7285(9) -0.1120(3) -0.06175(15)
O3 O 0.6187(7) -0.1324(2) 0.25680(14)
N1 N 0.8515(7) -0.1243(2) 0.11990(14)
H2 H 0.8034 -0.2116 0.1041
C1 C 0.9169(7) -0.0303(3) -0.03360(18)
C2 C 1.0278(6) -0.0306(3) 0.06306(17)
H3 H 1.2403 -0.0606 0.0649
C3 C 0.9910(10) 0.1172(3) 0.1094(2)
H4 H 1.1813 0.1697 0.1102
H5 H 0.8415 0.1760 0.0781
C4 C 0.8888(8) 0.0828(3) 0.20430(19)
H6 H 1.0569 0.0875 0.2464
H7 H 0.7337 0.1507 0.2239
C5 C 0.7674(7) -0.0673(3) 0.19852(16)
loop_
_geom_bond_atom_site_label_1
_geom_bond_atom_site_label_2
_geom_bond_site_symmetry_1
_geom_bond_site_symmetry_2
O1 H1 1_555 1_555
O2 C1 1_555 1_555
O3 C5 1_555 1_555
N1 H2 1_555 1_555
C1 O1 1_555 1_555
C2 N1 1_555 1_555
H3 C2 1_555 1_555
C3 C2 1_555 1_555
H4 C3 1_555 1_555
H5 C3 1_555 1_555
C4 C3 1_555 1_555
H6 C4 1_555 1_555
H7 C4 1_555 1_555
C5 N1 1_555 1_555
C1 C2 1_555 1_555
C4 C5 1_555 1_555

#END
