
#######################################################################
#
#                 Cambridge Crystallographic Data Centre
#                                CCDC 
#
#######################################################################
#
# If this CIF has been generated from an entry in the Cambridge 
# Structural Database, then it will include bibliographic, chemical, 
# crystal, experimental, refinement or atomic coordinate data resulting 
# from the CCDC's data processing and validation procedures.
#
#######################################################################

data_XOJZOM
_chemical_formula_moiety         'C19 H13 N5,2(C19 H14 N5 1+),O4 S1 2-,8(H2 O1)'
_chemical_name_systematic        
"bis(2-(5-(1H-benzimidazol-2-yl)-3-pyridinyl)-1H-benzimidazol-3-ium) 2,2'-(3,5-pyridinediyl)bis-1H-benzimidazole sulfate octahydrate"
_symmetry_cell_setting           triclinic
_symmetry_space_group_name_H-M   'P -1'
_symmetry_Int_Tables_number      2
_space_group_name_Hall           '-P 1'
loop_
_symmetry_equiv_pos_site_id
_symmetry_equiv_pos_as_xyz
1 x,y,z
2 -x,-y,-z
_cell_length_a                   12.495(3)
_cell_length_b                   15.367(3)
_cell_length_c                   15.976(3)
_cell_angle_alpha                73.050(3)
_cell_angle_beta                 72.760(3)
_cell_angle_gamma                82.380(3)
_cell_volume                     2798.89
_exptl_crystal_colour            yellow
_exptl_crystal_description       block
_cell_formula_units_Z            2
loop_
_atom_site_label
_atom_site_type_symbol
_atom_site_fract_x
_atom_site_fract_y
_atom_site_fract_z
S1 S 0.47422(10) 0.37158(8) 0.37968(7)
O9 O 0.5122(3) 0.3838(2) 0.4553(2)
O10 O 0.3550(3) 0.3962(2) 0.3925(2)
O11 O 0.5408(3) 0.4273(2) 0.2944(2)
O12 O 0.4945(3) 0.27423(19) 0.38149(19)
O1 O 0.2979(3) 0.9529(3) 0.9935(3)
H1 H 0.3484 0.9411 0.9497
H2 H 0.2759 0.9039 1.0322
O2 O 0.6291(4) 0.9124(3) 0.9612(3)
H3 H 0.5813 0.8923 0.9437
H4 H 0.6525 0.9545 0.9750
O3 O 0.4660(4) 0.9193(3) 0.8476(3)
H5 H 0.3966 0.9198 0.8712
H6 H 0.5106 0.9173 0.8793
O4 O 0.5751(4) 0.7648(3) 0.8399(3)
H7 H 0.5327 0.8101 0.8282
H8 H 0.6310 0.7783 0.8515
O5 O 0.3875(3) 0.7800(2) 0.7638(2)
H9 H 0.4078 0.8168 0.7862
H10 H 0.4224 0.7511 0.7250
O6 O 0.5965(3) 0.5627(2) 0.3955(2)
H11 H 0.5710 0.5099 0.4131
H12 H 0.5763 0.5716 0.4468
O7 O 0.9731(2) 0.1435(2) 0.6333(2)
H13 H 0.9729 0.1976 0.6334
H14 H 0.9447 0.1382 0.5951
O8 O 0.2726(3) 0.2757(2) 0.3093(2)
H15 H 0.3330 0.2660 0.2725
H16 H 0.2515 0.2280 0.3490
N1 N 0.2218(3) 0.9004(2) 0.7403(2)
H17 H 0.2832 0.8671 0.7340
N2 N 0.0902(3) 1.0014(2) 0.7083(2)
H18 H 0.0534 1.0439 0.6780
N3 N 0.2703(3) 1.0940(2) 0.4312(2)
N4 N 0.5610(3) 0.9527(2) 0.3178(2)
N5 N 0.5604(3) 0.8463(2) 0.4479(2)
H19 H 0.5390 0.8169 0.5043
C1 C 0.0555(3) 0.9606(3) 0.8013(3)
C2 C -0.0403(4) 0.9746(3) 0.8679(3)
H25 H -0.0972 1.0173 0.8545
C3 C -0.0463(4) 0.9218(4) 0.9546(3)
H26 H -0.1091 0.9287 1.0015
C4 C 0.0388(4) 0.8582(3) 0.9743(3)
H27 H 0.0310 0.8239 1.0341
C5 C 0.1331(4) 0.8441(3) 0.9094(3)
H28 H 0.1899 0.8016 0.9233
C6 C 0.1399(3) 0.8966(3) 0.8215(3)
C7 C 0.1909(3) 0.9631(3) 0.6736(3)
C8 C 0.2538(3) 0.9890(3) 0.5776(2)
C9 C 0.2178(4) 1.0655(3) 0.5187(3)
H29 H 0.1534 1.0984 0.5421
C10 C 0.3624(4) 1.0457(3) 0.3995(3)
H30 H 0.3998 1.0658 0.3381
C11 C 0.4063(3) 0.9691(3) 0.4499(3)
C12 C 0.3497(3) 0.9394(3) 0.5425(3)
H31 H 0.3758 0.8875 0.5798
C13 C 0.5081(3) 0.9226(3) 0.4058(3)
C14 C 0.6527(3) 0.8919(3) 0.3025(3)
C15 C 0.7382(4) 0.8894(3) 0.2240(3)
H32 H 0.7390 0.9325 0.1692
C16 C 0.8208(4) 0.8222(3) 0.2293(3)
H33 H 0.8788 0.8199 0.1775
C17 C 0.8196(4) 0.7564(3) 0.3116(3)
H34 H 0.8777 0.7118 0.3127
C18 C 0.7365(4) 0.7550(3) 0.3906(3)
H35 H 0.7359 0.7104 0.4445
C19 C 0.6525(3) 0.8250(3) 0.3848(3)
N6 N 0.2960(3) 0.7330(2) 0.5207(2)
H20 H 0.3577 0.7002 0.5161
N7 N 0.1647(3) 0.8341(3) 0.4805(2)
H21 H 0.1288 0.8752 0.4481
N8 N 0.3481(3) 0.9233(3) 0.2085(3)
N9 N 0.6276(3) 0.6691(2) 0.2294(2)
H22 H 0.6045 0.6410 0.2861
N10 N 0.6373(3) 0.7711(2) 0.0984(2)
C20 C 0.2118(4) 0.7329(3) 0.6002(3)
C21 C 0.2005(4) 0.6847(3) 0.6894(3)
H36 H 0.2560 0.6426 0.7066
C22 C 0.1034(5) 0.7017(4) 0.7516(3)
H37 H 0.0935 0.6708 0.8126
C23 C 0.0199(5) 0.7632(4) 0.7266(4)
H38 H -0.0454 0.7714 0.7710
C24 C 0.0310(4) 0.8132(4) 0.6371(3)
H39 H -0.0247 0.8553 0.6204
C25 C 0.1299(4) 0.7970(3) 0.5733(3)
C26 C 0.2625(3) 0.7949(3) 0.4511(3)
C27 C 0.3291(3) 0.8169(3) 0.3560(3)
C28 C 0.4223(3) 0.7659(3) 0.3210(3)
H40 H 0.4471 0.7135 0.3584
C29 C 0.4784(4) 0.7938(3) 0.2292(3)
C30 C 0.4370(4) 0.8723(3) 0.1765(3)
H41 H 0.4738 0.8904 0.1148
C31 C 0.2961(4) 0.8945(3) 0.2974(3)
H42 H 0.2336 0.9289 0.3212
C32 C 0.5790(3) 0.7445(3) 0.1870(3)
C33 C 0.7272(4) 0.7072(3) 0.0850(3)
C34 C 0.8134(4) 0.7014(4) 0.0077(3)
H43 H 0.8187 0.7439 -0.0482
C35 C 0.8893(4) 0.6301(4) 0.0189(4)
H44 H 0.9476 0.6240 -0.0314
C36 C 0.8846(4) 0.5657(4) 0.1016(4)
H45 H 0.9395 0.5187 0.1052
C37 C 0.7992(4) 0.5707(3) 0.1787(4)
H46 H 0.7948 0.5280 0.2344
C38 C 0.7206(4) 0.6431(3) 0.1683(3)
N11 N 0.2194(3) 0.5550(2) 0.4040(2)
H23 H 0.2761 0.5173 0.3945
N12 N 0.1000(3) 0.6739(2) 0.3766(2)
N13 N 0.2748(3) 0.7640(2) 0.1000(2)
N14 N 0.5564(3) 0.5106(2) 0.1156(2)
H24 H 0.5335 0.4814 0.1719
N15 N 0.5653(3) 0.6187(2) -0.0144(2)
C39 C 0.1410(3) 0.5529(3) 0.4861(3)
C40 C 0.1297(4) 0.4938(3) 0.5727(3)
H47 H 0.1804 0.4448 0.5843
C41 C 0.0394(4) 0.5123(3) 0.6397(3)
H48 H 0.0287 0.4743 0.6984
C42 C -0.0366(4) 0.5852(3) 0.6236(3)
H49 H -0.0970 0.5948 0.6711
C43 C -0.0237(4) 0.6439(3) 0.5376(3)
H50 H -0.0741 0.6932 0.5264
C44 C 0.0663(3) 0.6266(3) 0.4689(3)
C45 C 0.1907(3) 0.6279(3) 0.3409(3)
C46 C 0.2543(3) 0.6540(3) 0.2452(3)
C47 C 0.2201(4) 0.7327(3) 0.1872(3)
H51 H 0.1555 0.7651 0.2108
C48 C 0.3663(4) 0.7159(3) 0.0673(3)
H52 H 0.4045 0.7369 0.0062
C49 C 0.4083(3) 0.6373(3) 0.1175(3)
C50 C 0.3511(3) 0.6058(3) 0.2083(3)
H53 H 0.3768 0.5529 0.2444
C51 C 0.5087(3) 0.5886(3) 0.0737(3)
C52 C 0.6525(3) 0.5545(3) -0.0290(3)
C53 C 0.7377(4) 0.5497(3) -0.1069(3)
H54 H 0.7424 0.5943 -0.1614
C54 C 0.8139(4) 0.4777(3) -0.1008(3)
H55 H 0.8717 0.4735 -0.1521
C55 C 0.8074(4) 0.4101(3) -0.0197(3)
H56 H 0.8611 0.3620 -0.0187
C56 C 0.7252(4) 0.4119(3) 0.0584(3)
H57 H 0.7211 0.3663 0.1123
C57 C 0.6481(3) 0.4858(3) 0.0526(3)
loop_
_geom_bond_atom_site_label_1
_geom_bond_atom_site_label_2
_geom_bond_site_symmetry_1
_geom_bond_site_symmetry_2
S1 O9 1_555 1_555
O1 H1 1_555 1_555
H2 O1 1_555 1_555
O2 H3 1_555 1_555
H4 O2 1_555 1_555
O3 H5 1_555 1_555
H6 O3 1_555 1_555
O4 H7 1_555 1_555
H8 O4 1_555 1_555
O5 H9 1_555 1_555
H10 O5 1_555 1_555
O6 H11 1_555 1_555
H12 O6 1_555 1_555
O7 H13 1_555 1_555
H14 O7 1_555 1_555
O8 H15 1_555 1_555
H16 O8 1_555 1_555
O10 S1 1_555 1_555
O11 S1 1_555 1_555
O12 S1 1_555 1_555
N1 H17 1_555 1_555
N2 H18 1_555 1_555
N3 C9 1_555 1_555
N4 C13 1_555 1_555
N5 H19 1_555 1_555
N6 H20 1_555 1_555
N7 H21 1_555 1_555
N8 C30 1_555 1_555
N9 H22 1_555 1_555
N10 C32 1_555 1_555
N11 H23 1_555 1_555
N12 C44 1_555 1_555
N13 C47 1_555 1_555
N14 H24 1_555 1_555
N15 C51 1_555 1_555
C1 N2 1_555 1_555
C2 C1 1_555 1_555
H25 C2 1_555 1_555
C3 C2 1_555 1_555
H26 C3 1_555 1_555
C4 C3 1_555 1_555
H27 C4 1_555 1_555
C5 C4 1_555 1_555
H28 C5 1_555 1_555
C6 N1 1_555 1_555
C7 N1 1_555 1_555
C8 C7 1_555 1_555
C9 C8 1_555 1_555
H29 C9 1_555 1_555
C10 N3 1_555 1_555
H30 C10 1_555 1_555
C11 C10 1_555 1_555
C12 C8 1_555 1_555
H31 C12 1_555 1_555
C13 N5 1_555 1_555
C14 N4 1_555 1_555
C15 C14 1_555 1_555
H32 C15 1_555 1_555
C16 C15 1_555 1_555
H33 C16 1_555 1_555
C17 C16 1_555 1_555
H34 C17 1_555 1_555
C18 C17 1_555 1_555
H35 C18 1_555 1_555
C19 N5 1_555 1_555
C20 N6 1_555 1_555
C21 C20 1_555 1_555
H36 C21 1_555 1_555
C22 C21 1_555 1_555
H37 C22 1_555 1_555
C23 C22 1_555 1_555
H38 C23 1_555 1_555
C24 C23 1_555 1_555
H39 C24 1_555 1_555
C25 N7 1_555 1_555
C26 N6 1_555 1_555
C27 C26 1_555 1_555
C28 C27 1_555 1_555
H40 C28 1_555 1_555
C29 C28 1_555 1_555
C30 C29 1_555 1_555
H41 C30 1_555 1_555
C31 N8 1_555 1_555
H42 C31 1_555 1_555
C32 N9 1_555 1_555
C33 N10 1_555 1_555
C34 C33 1_555 1_555
H43 C34 1_555 1_555
C35 C34 1_555 1_555
H44 C35 1_555 1_555
C36 C35 1_555 1_555
H45 C36 1_555 1_555
C37 C36 1_555 1_555
H46 C37 1_555 1_555
C38 N9 1_555 1_555
C39 N11 1_555 1_555
C40 C39 1_555 1_555
H47 C40 1_555 1_555
C41 C40 1_555 1_555
H48 C41 1_555 1_555
C42 C41 1_555 1_555
H49 C42 1_555 1_555
C43 C42 1_555 1_555
H50 C43 1_555 1_555
C44 C39 1_555 1_555
C45 N11 1_555 1_555
C46 C45 1_555 1_555
C47 C46 1_555 1_555
H51 C47 1_555 1_555
C48 N13 1_555 1_555
H52 C48 1_555 1_555
C49 C48 1_555 1_555
C50 C46 1_555 1_555
H53 C50 1_555 1_555
C51 N14 1_555 1_555
C52 N15 1_555 1_555
C53 C52 1_555 1_555
H54 C53 1_555 1_555
C54 C53 1_555 1_555
H55 C54 1_555 1_555
C55 C54 1_555 1_555
H56 C55 1_555 1_555
C56 C55 1_555 1_555
H57 C56 1_555 1_555
C57 N14 1_555 1_555
N2 C7 1_555 1_555
N7 C26 1_555 1_555
N12 C45 1_555 1_555
C1 C6 1_555 1_555
C5 C6 1_555 1_555
C11 C12 1_555 1_555
C11 C13 1_555 1_555
C14 C19 1_555 1_555
C18 C19 1_555 1_555
C20 C25 1_555 1_555
C24 C25 1_555 1_555
C27 C31 1_555 1_555
C29 C32 1_555 1_555
C33 C38 1_555 1_555
C37 C38 1_555 1_555
C43 C44 1_555 1_555
C49 C50 1_555 1_555
C49 C51 1_555 1_555
C52 C57 1_555 1_555
C56 C57 1_555 1_555

#END
