
#######################################################################
#
#                 Cambridge Crystallographic Data Centre
#                                CCDC 
#
#######################################################################
#
# If this CIF has been generated from an entry in the Cambridge 
# Structural Database, then it will include bibliographic, chemical, 
# crystal, experimental, refinement or atomic coordinate data resulting 
# from the CCDC's data processing and validation procedures.
#
#######################################################################

data_XOKCIJ
_chemical_formula_moiety         'C32 H25 Br1'
_chemical_name_systematic        
3-Bromo-trans-1,2-bis(p-tolyl)-8-phenyl-1,2-dihydrocyclobuta(b)naphthalene
_symmetry_cell_setting           monoclinic
_symmetry_space_group_name_H-M   'C 2/c'
_symmetry_Int_Tables_number      15
_space_group_name_Hall           '-C 2yn'
loop_
_symmetry_equiv_pos_site_id
_symmetry_equiv_pos_as_xyz
1 x,y,z
2 -x,y,1/2-z
3 1/2+x,1/2+y,z
4 1/2-x,1/2+y,1/2-z
5 -x,-y,-z
6 x,-y,1/2+z
7 1/2-x,1/2-y,-z
8 1/2+x,1/2-y,1/2+z
_cell_length_a                   23.872(4)
_cell_length_b                   14.125(2)
_cell_length_c                   18.202(3)
_cell_angle_alpha                90
_cell_angle_beta                 126.08(2)
_cell_angle_gamma                90
_cell_volume                     4960.36
_exptl_crystal_colour            white
_chemical_melting_point          '142-143 deg.C'
_cell_formula_units_Z            8
loop_
_atom_site_label
_atom_site_type_symbol
_atom_site_fract_x
_atom_site_fract_y
_atom_site_fract_z
Br1 Br 0.91043(2) 0.62484(3) 1.35141(3)
C1 C 0.8439(2) 0.7003(3) 1.2507(2)
C2 C 0.9285(2) 0.8303(3) 1.2951(3)
H1 H 0.9635(2) 0.7946(3) 1.3438(3)
C3 C 0.8609(2) 0.7922(3) 1.2362(3)
C4 C 0.9422(2) 0.9186(4) 1.2807(4)
H2 H 0.9865(2) 0.9436(4) 1.3207(4)
C5 C 0.8913(3) 0.9725(3) 1.2072(4)
H3 H 0.9021(3) 1.0323(3) 1.1974(4)
C6 C 0.8258(2) 0.9382(3) 1.1496(3)
H4 H 0.7924(2) 0.9749(3) 1.1005(3)
C7 C 0.8074(2) 0.8482(3) 1.1626(3)
C8 C 0.7375(2) 0.8141(3) 1.1029(2)
C9 C 0.7267(2) 0.7247(3) 1.1208(2)
C10 C 0.6696(2) 0.6524(2) 1.0903(2)
H5 H 0.6543(2) 0.6228(2) 1.0326(2)
C11 C 0.7285(2) 0.5905(2) 1.1756(2)
H6 H 0.7210(2) 0.5898(2) 1.2230(2)
C12 C 0.7783(2) 0.6696(2) 1.1933(2)
C13 C 0.6795(2) 0.8700(3) 1.0282(2)
C14 C 0.6590(2) 0.9555(3) 1.0431(3)
H7 H 0.6835(2) 0.9805(3) 1.1015(3)
C15 C 0.6027(2) 1.0036(2) 0.9722(3)
H8 H 0.5898(2) 1.0610(3) 0.9832(3)
C16 C 0.5654(2) 0.9678(3) 0.8858(3)
H9 H 0.5271(2) 1.0004(3) 0.8381(3)
C17 C 0.5850(2) 0.8839(3) 0.8705(3)
H10 H 0.5599(2) 0.8588(3) 0.8121(3)
C18 C 0.6413(2) 0.8361(3) 0.9409(3)
H11 H 0.6541(2) 0.7791(3) 0.9291(3)
C19 C 0.6092(2) 0.6794(3) 1.0909(2)
C20 C 0.6102(2) 0.7554(3) 1.1383(3)
H12 H 0.6483(2) 0.7956(3) 1.1677(3)
C21 C 0.5554(2) 0.7739(3) 1.1436(3)
H13 H 0.5574(2) 0.8267(3) 1.1756(3)
C22 C 0.4986(2) 0.7158(3) 1.1025(3)
C23 C 0.4962(2) 0.6415(3) 1.0536(3)
H14 H 0.4577(2) 0.6019(3) 1.0236(3)
C24 C 0.5508(2) 0.6238(3) 1.0476(3)
H15 H 0.5476(2) 0.5727(3) 1.0132(3)
C25 C 0.7402(2) 0.4917(3) 1.1568(2)
C26 C 0.7004(2) 0.4186(3) 1.1533(2)
H16 H 0.6667(2) 0.4310(3) 1.1625(2)
C27 C 0.7103(2) 0.3271(3) 1.1363(3)
H17 H 0.6822(2) 0.2793(3) 1.1331(3)
C28 C 0.7597(2) 0.3044(3) 1.1238(2)
C29 C 0.7990(2) 0.3780(3) 1.1274(2)
H18 H 0.8334(2) 0.3654(3) 1.1195(2)
C30 C 0.7887(2) 0.4699(3) 1.1425(3)
H19 H 0.8154(2) 0.5181(3) 1.1428(3)
C31 C 0.4399(2) 0.7338(3) 1.1105(3)
H20 H 0.4502(2) 0.7889(3) 1.1473(3)
H21 H 0.4346(2) 0.6800(3) 1.1381(3)
H22 H 0.3977(2) 0.7439(3) 1.0511(3)
C32 C 0.7734(2) 0.2032(2) 1.1107(3)
H23 H 0.8099(2) 0.2023(2) 1.1032(3)
H24 H 0.7320(2) 0.1770(2) 1.0576(3)
H25 H 0.7868(2) 0.1663(2) 1.1630(3)
loop_
_geom_bond_atom_site_label_1
_geom_bond_atom_site_label_2
_geom_bond_site_symmetry_1
_geom_bond_site_symmetry_2
Br1 C1 1_555 1_555
C1 C3 1_555 1_555
C2 H1 1_555 1_555
C3 C2 1_555 1_555
C4 C2 1_555 1_555
H2 C4 1_555 1_555
C5 C4 1_555 1_555
H3 C5 1_555 1_555
C6 C5 1_555 1_555
H4 C6 1_555 1_555
C7 C3 1_555 1_555
C8 C7 1_555 1_555
C9 C8 1_555 1_555
C10 C9 1_555 1_555
H5 C10 1_555 1_555
C11 C10 1_555 1_555
H6 C11 1_555 1_555
C12 C1 1_555 1_555
C13 C8 1_555 1_555
C14 C13 1_555 1_555
H7 C14 1_555 1_555
C15 C14 1_555 1_555
H8 C15 1_555 1_555
C16 C15 1_555 1_555
H9 C16 1_555 1_555
C17 C16 1_555 1_555
H10 C17 1_555 1_555
C18 C13 1_555 1_555
H11 C18 1_555 1_555
C19 C10 1_555 1_555
C20 C19 1_555 1_555
H12 C20 1_555 1_555
C21 C20 1_555 1_555
H13 C21 1_555 1_555
C22 C21 1_555 1_555
C23 C22 1_555 1_555
H14 C23 1_555 1_555
C24 C19 1_555 1_555
H15 C24 1_555 1_555
C25 C11 1_555 1_555
C26 C25 1_555 1_555
H16 C26 1_555 1_555
C27 C26 1_555 1_555
H17 C27 1_555 1_555
C28 C27 1_555 1_555
C29 C28 1_555 1_555
H18 C29 1_555 1_555
C30 C25 1_555 1_555
H19 C30 1_555 1_555
C31 C22 1_555 1_555
H20 C31 1_555 1_555
H21 C31 1_555 1_555
H22 C31 1_555 1_555
C32 C28 1_555 1_555
H23 C32 1_555 1_555
H24 C32 1_555 1_555
H25 C32 1_555 1_555
C6 C7 1_555 1_555
C9 C12 1_555 1_555
C11 C12 1_555 1_555
C17 C18 1_555 1_555
C23 C24 1_555 1_555
C29 C30 1_555 1_555

#END
