
#######################################################################
#
#                 Cambridge Crystallographic Data Centre
#                                CCDC 
#
#######################################################################
#
# If this CIF has been generated from an entry in the Cambridge 
# Structural Database, then it will include bibliographic, chemical, 
# crystal, experimental, refinement or atomic coordinate data resulting 
# from the CCDC's data processing and validation procedures.
#
#######################################################################

data_XOKREW
_chemical_name_common            
(S)-N-(hexahydro-2-oxo-1H-azepin-3-yl)-3-phenyl-2-propenamide
_chemical_formula_moiety         'C15 H18 N2 O2'
_chemical_name_systematic        (S)-N-(2-oxoazepan-3-yl)-3-phenylacrylamide
_symmetry_cell_setting           monoclinic
_symmetry_space_group_name_H-M   'P 21/n'
_symmetry_Int_Tables_number      14
_space_group_name_Hall           '-P 2yn'
loop_
_symmetry_equiv_pos_site_id
_symmetry_equiv_pos_as_xyz
1 x,y,z
2 1/2-x,1/2+y,1/2-z
3 -x,-y,-z
4 1/2+x,1/2-y,1/2+z
_cell_length_a                   14.957(3)
_cell_length_b                   4.8840(10)
_cell_length_c                   18.630(4)
_cell_angle_alpha                90
_cell_angle_beta                 95.91(3)
_cell_angle_gamma                90
_cell_volume                     1353.69
_exptl_crystal_colour            colorless
_exptl_crystal_description       block
_cell_formula_units_Z            4
loop_
_atom_site_label
_atom_site_type_symbol
_atom_site_fract_x
_atom_site_fract_y
_atom_site_fract_z
O1 O 0.81723(16) 0.2698(5) 0.11690(16)
N1 N 0.75578(17) 0.6877(6) 0.09504(16)
H1 H 0.7639 0.8521 0.0805
C1 C 1.1496(3) 0.5228(10) 0.1682(3)
H2 H 1.1367 0.3831 0.1994
O2 O 0.61895(15) 0.9702(5) 0.02913(13)
N2 N 0.51059(17) 0.7102(6) 0.06971(15)
H3 H 0.4714 0.8153 0.0467
C2 C 1.2364(3) 0.6246(11) 0.1719(3)
H4 H 1.2803 0.5591 0.2066
C3 C 1.2571(3) 0.8217(11) 0.1243(3)
H5 H 1.3159 0.8854 0.1254
C4 C 1.1915(3) 0.9259(12) 0.0748(3)
H6 H 1.2051 1.0632 0.0431
C5 C 1.1050(3) 0.8244(10) 0.0726(2)
H7 H 1.0609 0.8940 0.0387
C6 C 1.0818(2) 0.6220(8) 0.11963(19)
C7 C 0.9903(2) 0.5159(8) 0.11895(19)
H8 H 0.9850 0.3394 0.1367
C8 C 0.9142(2) 0.6410(8) 0.09609(19)
H9 H 0.9163 0.8135 0.0752
C9 C 0.8261(2) 0.5139(8) 0.10290(19)
C10 C 0.6669(2) 0.6037(7) 0.11056(18)
H10 H 0.6583 0.4114 0.0966
C11 C 0.5967(2) 0.7746(7) 0.06586(18)
C12 C 0.4757(2) 0.4820(8) 0.10855(19)
H11 H 0.5048 0.3147 0.0952
H12 H 0.4118 0.4636 0.0939
C13 C 0.4900(2) 0.5154(9) 0.1902(2)
H13 H 0.4746 0.7012 0.2026
H14 H 0.4498 0.3926 0.2122
C14 C 0.5858(2) 0.4565(8) 0.2213(2)
H15 H 0.5986 0.2653 0.2126
H16 H 0.5897 0.4823 0.2732
C15 C 0.6586(2) 0.6285(8) 0.19216(19)
H17 H 0.7159 0.5786 0.2180
H18 H 0.6476 0.8191 0.2030
loop_
_geom_bond_atom_site_label_1
_geom_bond_atom_site_label_2
_geom_bond_site_symmetry_1
_geom_bond_site_symmetry_2
O1 C9 1_555 1_555
N1 H1 1_555 1_555
C1 H2 1_555 1_555
O2 C11 1_555 1_555
N2 H3 1_555 1_555
C2 C1 1_555 1_555
H4 C2 1_555 1_555
C3 C2 1_555 1_555
H5 C3 1_555 1_555
C4 C3 1_555 1_555
H6 C4 1_555 1_555
C5 C4 1_555 1_555
H7 C5 1_555 1_555
C6 C1 1_555 1_555
C7 C6 1_555 1_555
H8 C7 1_555 1_555
C8 C7 1_555 1_555
H9 C8 1_555 1_555
C9 N1 1_555 1_555
C10 N1 1_555 1_555
H10 C10 1_555 1_555
C11 N2 1_555 1_555
C12 N2 1_555 1_555
H11 C12 1_555 1_555
H12 C12 1_555 1_555
C13 C12 1_555 1_555
H13 C13 1_555 1_555
H14 C13 1_555 1_555
C14 C13 1_555 1_555
H15 C14 1_555 1_555
H16 C14 1_555 1_555
C15 C10 1_555 1_555
H17 C15 1_555 1_555
H18 C15 1_555 1_555
C5 C6 1_555 1_555
C8 C9 1_555 1_555
C10 C11 1_555 1_555
C14 C15 1_555 1_555

#END
