
#######################################################################
#
#                 Cambridge Crystallographic Data Centre
#                                CCDC 
#
#######################################################################
#
# If this CIF has been generated from an entry in the Cambridge 
# Structural Database, then it will include bibliographic, chemical, 
# crystal, experimental, refinement or atomic coordinate data resulting 
# from the CCDC's data processing and validation procedures.
#
#######################################################################

data_XOKVUQ
_chemical_formula_moiety         'C28 H10 Br2 F12 N2'
_chemical_name_systematic        
3,3'-(2,5-dibromo-1,4-phenylene)bis(2-(3,5-bis(trifluoromethyl)phenyl)acrylonitrile)
_symmetry_cell_setting           monoclinic
_symmetry_space_group_name_H-M   'P 21/c'
_symmetry_Int_Tables_number      14
_space_group_name_Hall           '-P 2ybc'
loop_
_symmetry_equiv_pos_site_id
_symmetry_equiv_pos_as_xyz
1 x,y,z
2 -x,1/2+y,1/2-z
3 -x,-y,-z
4 x,1/2-y,1/2+z
_cell_length_a                   20.1093(5)
_cell_length_b                   4.67830(10)
_cell_length_c                   14.0181(4)
_cell_angle_alpha                90
_cell_angle_beta                 95.8770(10)
_cell_angle_gamma                90
_cell_volume                     1311.85
_exptl_crystal_colour            colorless
_exptl_crystal_description       block
_cell_formula_units_Z            2
loop_
_atom_site_label
_atom_site_type_symbol
_atom_site_fract_x
_atom_site_fract_y
_atom_site_fract_z
Br1 Br 0.573157(8) -0.19511(4) 0.812771(11)
C1 C 0.87200(8) 0.6062(4) 0.98640(12)
H1 H 0.9138 0.6834 0.9733
C2 C 0.86805(8) 0.4208(4) 1.06305(12)
C3 C 0.80698(8) 0.3073(4) 1.08266(12)
H2 H 0.8049 0.1820 1.1356
C4 C 0.74877(8) 0.3778(4) 1.02444(12)
C5 C 0.75242(8) 0.5656(4) 0.94758(11)
H3 H 0.7130 0.6170 0.9081
C6 C 0.81383(9) 0.6765(4) 0.92925(12)
C7 C 0.68340(8) 0.2492(4) 1.04206(12)
C8 C 0.63164(8) 0.2198(4) 0.97445(12)
H4 H 0.6386 0.2779 0.9113
C9 C 0.56490(8) 0.1061(4) 0.98850(12)
C10 C 0.53044(8) -0.0728(4) 0.92007(11)
C11 C 0.46750(8) -0.1782(4) 0.93112(12)
H5 H 0.4460 -0.3011 0.8836
C12 C 0.93184(9) 0.3374(4) 1.12175(13)
C13 C 0.81824(9) 0.8655(4) 0.84367(13)
C14 C 0.67912(8) 0.1347(4) 1.13738(13)
F1 F 0.97131(6) 0.1853(3) 1.06909(9)
F2 F 0.96738(6) 0.5618(3) 1.15373(11)
F3 F 0.92158(5) 0.1749(3) 1.19649(8)
F4 F 0.83001(6) 0.7142(2) 0.76572(8)
F5 F 0.86732(6) 1.0569(3) 0.85792(8)
F6 F 0.76153(6) 1.0107(2) 0.81968(8)
N1 N 0.67695(8) 0.0403(4) 1.21195(12)
Br1B Br 0.426843(8) 0.19511(4) 1.187229(11)
C1B C 0.12800(8) -0.6062(4) 1.01360(12)
H1B H 0.0862 -0.6834 1.0267
C2B C 0.13195(8) -0.4208(4) 0.93695(12)
C3B C 0.19302(8) -0.3073(4) 0.91734(12)
H2B H 0.1951 -0.1820 0.8644
C4B C 0.25123(8) -0.3778(4) 0.97556(12)
C5B C 0.24758(8) -0.5656(4) 1.05242(11)
H3B H 0.2870 -0.6170 1.0919
C6B C 0.18617(9) -0.6765(4) 1.07075(12)
C7B C 0.31660(8) -0.2492(4) 0.95794(12)
C8B C 0.36836(8) -0.2198(4) 1.02555(12)
H4B H 0.3614 -0.2779 1.0887
C9B C 0.43510(8) -0.1061(4) 1.01150(12)
C10B C 0.46956(8) 0.0728(4) 1.07993(11)
C11B C 0.53250(8) 0.1782(4) 1.06888(12)
H5B H 0.5540 0.3011 1.1164
C12B C 0.06816(9) -0.3374(4) 0.87825(13)
C13B C 0.18176(9) -0.8655(4) 1.15633(13)
C14B C 0.32088(8) -0.1347(4) 0.86262(13)
F1B F 0.02869(6) -0.1853(3) 0.93091(9)
F2B F 0.03262(6) -0.5618(3) 0.84627(11)
F3B F 0.07842(5) -0.1749(3) 0.80351(8)
F4B F 0.16999(6) -0.7142(2) 1.23428(8)
F5B F 0.13268(6) -1.0569(3) 1.14208(8)
F6B F 0.23847(6) -1.0107(2) 1.18032(8)
N1B N 0.32305(8) -0.0403(4) 0.78805(12)
loop_
_geom_bond_atom_site_label_1
_geom_bond_atom_site_label_2
_geom_bond_site_symmetry_1
_geom_bond_site_symmetry_2
Br1 C10 1_555 1_555
C1 H1 1_555 1_555
C2 C1 1_555 1_555
C3 C2 1_555 1_555
H2 C3 1_555 1_555
C4 C3 1_555 1_555
C5 C4 1_555 1_555
H3 C5 1_555 1_555
C6 C1 1_555 1_555
C7 C4 1_555 1_555
C8 C7 1_555 1_555
H4 C8 1_555 1_555
C9 C8 1_555 1_555
C10 C9 1_555 1_555
C11 C10 1_555 1_555
H5 C11 1_555 1_555
C12 C2 1_555 1_555
C13 C6 1_555 1_555
C14 C7 1_555 1_555
F1 C12 1_555 1_555
F2 C12 1_555 1_555
F3 C12 1_555 1_555
F4 C13 1_555 1_555
F5 C13 1_555 1_555
F6 C13 1_555 1_555
N1 C14 1_555 1_555
Br1B C10B 1_555 1_555
C1B H1B 1_555 1_555
C2B C1B 1_555 1_555
C3B C2B 1_555 1_555
H2B C3B 1_555 1_555
C4B C3B 1_555 1_555
C5B C4B 1_555 1_555
H3B C5B 1_555 1_555
C6B C1B 1_555 1_555
C7B C4B 1_555 1_555
C8B C7B 1_555 1_555
H4B C8B 1_555 1_555
C9B C11 1_555 1_555
C10B C9B 1_555 1_555
C11B C9 1_555 1_555
H5B C11B 1_555 1_555
C12B C2B 1_555 1_555
C13B C6B 1_555 1_555
C14B C7B 1_555 1_555
F1B C12B 1_555 1_555
F2B C12B 1_555 1_555
F3B C12B 1_555 1_555
F4B C13B 1_555 1_555
F5B C13B 1_555 1_555
F6B C13B 1_555 1_555
N1B C14B 1_555 1_555
C5 C6 1_555 1_555
C5B C6B 1_555 1_555
C8B C9B 1_555 1_555
C10B C11B 1_555 1_555

#END
