
#######################################################################
#
#                 Cambridge Crystallographic Data Centre
#                                CCDC 
#
#######################################################################
#
# If this CIF has been generated from an entry in the Cambridge 
# Structural Database, then it will include bibliographic, chemical, 
# crystal, experimental, refinement or atomic coordinate data resulting 
# from the CCDC's data processing and validation procedures.
#
#######################################################################

data_XOLDOT
_chemical_formula_moiety         'C27 H27 N1 O4 S1'
_chemical_name_systematic        
6,7-bis(4-methoxyphenyl)-3-((4-methylphenyl)sulfonyl)-3-azabicyclo[4.1.0]hept-4-ene
_symmetry_cell_setting           monoclinic
_symmetry_space_group_name_H-M   'P 21/c'
_symmetry_Int_Tables_number      14
_space_group_name_Hall           '-P 2ybc'
loop_
_symmetry_equiv_pos_site_id
_symmetry_equiv_pos_as_xyz
1 x,y,z
2 -x,1/2+y,1/2-z
3 -x,-y,-z
4 x,1/2-y,1/2+z
_cell_length_a                   14.3764(5)
_cell_length_b                   6.4364(3)
_cell_length_c                   25.7893(11)
_cell_angle_alpha                90
_cell_angle_beta                 91.356(2)
_cell_angle_gamma                90
_cell_volume                     2385.67
_cell_formula_units_Z            4
loop_
_atom_site_label
_atom_site_type_symbol
_atom_site_fract_x
_atom_site_fract_y
_atom_site_fract_z
S1 S 0.21840(4) 0.66019(9) 0.03791(2)
C1 C 0.37045(14) 0.6557(3) -0.01755(8)
H1 H 0.3848 0.5205 -0.0074
O1 O 0.10603(10) 1.4164(3) -0.25862(6)
O2 O 0.24818(10) 0.4555(2) 0.05205(6)
C2 C 0.38475(13) 0.9387(3) -0.08199(7)
N1 N 0.30855(11) 0.7737(2) 0.01255(6)
C3 C 0.40868(13) 0.7326(3) -0.05996(8)
H2 H 0.4528 0.6526 -0.0766
C4 C 0.23873(13) 1.0938(3) -0.13738(8)
O3 O 0.63619(11) 1.3099(3) -0.21972(6)
C5 C 0.32669(13) 1.0709(3) -0.04725(7)
H3 H 0.3368 1.2207 -0.0510
C6 C 0.50735(14) 1.2021(3) -0.10140(8)
H4 H 0.5020 1.2509 -0.0677
C7 C 0.45363(13) 1.0360(3) -0.11731(8)
C8 C 0.15309(13) 1.3183(3) -0.21883(8)
C9 C 0.31343(14) 0.9999(3) 0.00787(7)
H5 H 0.3647 1.0509 0.0294
H6 H 0.2565 1.0600 0.0207
C10 C 0.27864(13) 0.9703(3) -0.09312(7)
H7 H 0.2407 0.8497 -0.0840
O4 O 0.18389(11) 0.8004(2) 0.07585(5)
C11 C 0.57824(14) 1.2253(4) -0.18358(9)
C12 C 0.13435(13) 0.6379(3) -0.01235(8)
C13 C 0.16254(13) 1.0144(3) -0.16502(7)
H8 H 0.1397 0.8840 -0.1564
C14 C 0.56905(13) 1.2990(3) -0.13395(9)
H9 H 0.6038 1.4124 -0.1224
C15 C 0.22971(14) 1.3993(3) -0.19220(8)
H10 H 0.2532 1.5286 -0.2012
C16 C 0.12722(15) 0.4586(3) -0.04122(9)
H11 H 0.1647 0.3449 -0.0330
C17 C 0.00746(14) 0.6125(4) -0.09575(8)
C18 C 0.52724(16) 1.0545(4) -0.20009(9)
H12 H 0.5346 1.0022 -0.2334
C19 C 0.07777(15) 0.8060(3) -0.02525(9)
H13 H 0.0819 0.9281 -0.0061
C20 C 0.27095(14) 1.2876(3) -0.15230(8)
H14 H 0.3222 1.3441 -0.1347
C21 C 0.11987(13) 1.1249(3) -0.20501(8)
H15 H 0.0686 1.0688 -0.2227
C22 C 0.46561(14) 0.9618(4) -0.16721(8)
H16 H 0.4314 0.8474 -0.1787
C23 C 0.01564(15) 0.7913(4) -0.06642(9)
H17 H -0.0219 0.9048 -0.0747
C24 C 0.06465(16) 0.4477(4) -0.08232(9)
H18 H 0.0607 0.3258 -0.1016
C25 C -0.05891(17) 0.5995(5) -0.14149(10)
H19 H -0.0920 0.7284 -0.1452
H20 H -0.1024 0.4887 -0.1362
H21 H -0.0248 0.5731 -0.1724
C26 C 0.68106(19) 1.5007(5) -0.20675(12)
H22 H 0.7189 1.5439 -0.2350
H23 H 0.7195 1.4819 -0.1762
H24 H 0.6350 1.6050 -0.2003
C27 C 0.14904(19) 1.5864(4) -0.28330(11)
H25 H 0.1084 1.6388 -0.3103
H26 H 0.2064 1.5415 -0.2980
H27 H 0.1615 1.6941 -0.2583
loop_
_geom_bond_atom_site_label_1
_geom_bond_atom_site_label_2
_geom_bond_site_symmetry_1
_geom_bond_site_symmetry_2
S1 O2 1_555 1_555
C1 H1 1_555 1_555
O1 C8 1_555 1_555
C2 C3 1_555 1_555
N1 S1 1_555 1_555
C3 C1 1_555 1_555
H2 C3 1_555 1_555
C4 C10 1_555 1_555
O3 C11 1_555 1_555
C5 C2 1_555 1_555
H3 C5 1_555 1_555
C6 H4 1_555 1_555
C7 C2 1_555 1_555
C8 C15 1_555 1_555
C9 N1 1_555 1_555
H5 C9 1_555 1_555
H6 C9 1_555 1_555
C10 C2 1_555 1_555
H7 C10 1_555 1_555
O4 S1 1_555 1_555
C11 C14 1_555 1_555
C12 S1 1_555 1_555
C13 C4 1_555 1_555
H8 C13 1_555 1_555
C14 C6 1_555 1_555
H9 C14 1_555 1_555
C15 H10 1_555 1_555
C16 C12 1_555 1_555
H11 C16 1_555 1_555
C17 C23 1_555 1_555
C18 C11 1_555 1_555
H12 C18 1_555 1_555
C19 C12 1_555 1_555
H13 C19 1_555 1_555
C20 C4 1_555 1_555
H14 C20 1_555 1_555
C21 C8 1_555 1_555
H15 C21 1_555 1_555
C22 C7 1_555 1_555
H16 C22 1_555 1_555
C23 C19 1_555 1_555
H17 C23 1_555 1_555
C24 C16 1_555 1_555
H18 C24 1_555 1_555
C25 C17 1_555 1_555
H19 C25 1_555 1_555
H20 C25 1_555 1_555
H21 C25 1_555 1_555
C26 O3 1_555 1_555
H22 C26 1_555 1_555
H23 C26 1_555 1_555
H24 C26 1_555 1_555
C27 O1 1_555 1_555
H25 C27 1_555 1_555
H26 C27 1_555 1_555
H27 C27 1_555 1_555
C1 N1 1_555 1_555
C5 C9 1_555 1_555
C5 C10 1_555 1_555
C6 C7 1_555 1_555
C13 C21 1_555 1_555
C15 C20 1_555 1_555
C17 C24 1_555 1_555
C18 C22 1_555 1_555

#END
