
#######################################################################
#
#                 Cambridge Crystallographic Data Centre
#                                CCDC 
#
#######################################################################
#
# If this CIF has been generated from an entry in the Cambridge 
# Structural Database, then it will include bibliographic, chemical, 
# crystal, experimental, refinement or atomic coordinate data resulting 
# from the CCDC's data processing and validation procedures.
#
#######################################################################

data_XOLFIP
_chemical_formula_moiety         'C18 H18 O4,C12 H10 N2'
_chemical_name_systematic        
"1,8-dimethyltetracyclo[6.6.2.0^2,7^.0^9,14^]hexadeca-2,4,6,9,11,13-hexaene-4,5,11,12-tetrol 4,4'-ethene-1,2-diyldipyridine"
_symmetry_cell_setting           monoclinic
_symmetry_space_group_name_H-M   'C 2/c'
_symmetry_Int_Tables_number      15
_space_group_name_Hall           '-C 2yn'
loop_
_symmetry_equiv_pos_site_id
_symmetry_equiv_pos_as_xyz
1 x,y,z
2 -x,y,1/2-z
3 1/2+x,1/2+y,z
4 1/2-x,1/2+y,1/2-z
5 -x,-y,-z
6 x,-y,1/2+z
7 1/2-x,1/2-y,-z
8 1/2+x,1/2-y,1/2+z
_cell_length_a                   29.944(6)
_cell_length_b                   9.820(2)
_cell_length_c                   22.643(5)
_cell_angle_alpha                90
_cell_angle_beta                 130.69(3)
_cell_angle_gamma                90
_cell_volume                     5048.55
_exptl_crystal_colour            white
_exptl_crystal_description       strip
_cell_formula_units_Z            8
loop_
_atom_site_label
_atom_site_type_symbol
_atom_site_fract_x
_atom_site_fract_y
_atom_site_fract_z
O1 O 0.05510(6) 0.27808(14) 0.38818(7)
H1 H 0.0273 0.2663 0.3867
O2 O 0.05138(6) 0.30316(14) 0.50535(8)
H2 H 0.0546 0.3182 0.5436
O3 O 0.44786(6) 0.26983(15) 0.73481(8)
H3 H 0.4433 0.2639 0.6951
O4 O 0.44826(6) 0.29814(14) 0.85120(7)
H4 H 0.4449 0.3167 0.8834
C1 C 0.10146(8) 0.33489(19) 0.45874(11)
C2 C 0.10059(8) 0.34736(19) 0.51938(11)
C3 C 0.39961(8) 0.33088(19) 0.71778(11)
C4 C 0.39956(8) 0.34395(19) 0.77914(11)
C5 C 0.14932(8) 0.38260(18) 0.46743(10)
H5 H 0.1493 0.3752 0.4264
C6 C 0.19709(8) 0.44124(18) 0.53731(11)
C7 C 0.19674(8) 0.45321(18) 0.59872(11)
C8 C 0.14891(8) 0.40541(19) 0.58974(10)
H6 H 0.1491 0.4121 0.6309
C9 C 0.25114(8) 0.50249(19) 0.55416(10)
C10 C 0.25097(9) 0.6559(2) 0.57289(11)
H7 H 0.2856 0.7007 0.5869
H8 H 0.2165 0.7005 0.5269
C11 C 0.25056(8) 0.6699(2) 0.64056(11)
H9 H 0.2159 0.7204 0.6229
H10 H 0.2851 0.7202 0.6830
C12 C 0.25029(8) 0.5258(2) 0.67036(11)
C13 C 0.30413(8) 0.45260(18) 0.69211(11)
C14 C 0.30436(8) 0.44088(18) 0.63066(10)
C15 C 0.35221(8) 0.37970(19) 0.64384(10)
H11 H 0.3525 0.3714 0.6032
C16 C 0.35135(8) 0.40372(19) 0.76597(11)
H12 H 0.3508 0.4109 0.8064
C17 C 0.25151(8) 0.4881(2) 0.48761(11)
H13 H 0.2517 0.3933 0.4774
H14 H 0.2860 0.5313 0.5016
H15 H 0.2170 0.5306 0.4417
C18 C 0.24997(9) 0.5402(2) 0.73740(11)
H16 H 0.2497 0.4514 0.7549
H17 H 0.2155 0.5894 0.7197
H18 H 0.2845 0.5887 0.7796
N1 N 0.06488(7) 0.84182(18) 0.54122(9)
N2 N 0.06271(7) 0.66084(18) 0.13252(10)
C19 C 0.07765(9) 0.7224(2) 0.52694(11)
H19 H 0.0822 0.6468 0.5552
C20 C 0.08451(9) 0.7046(2) 0.47283(11)
H20 H 0.0941 0.6194 0.4659
C21 C 0.07690(8) 0.8162(2) 0.42839(11)
C22 C 0.06518(10) 0.9416(2) 0.44488(12)
H21 H 0.0612 1.0194 0.4184
C23 C 0.05943(10) 0.9500(2) 0.50083(12)
H22 H 0.0515 1.0345 0.5108
C24 C 0.07907(9) 0.8057(2) 0.36587(11)
H23 H 0.0813 0.8868 0.3467
C25 C 0.07814(9) 0.6905(2) 0.33383(11)
H24 H 0.0795 0.6090 0.3559
C26 C 0.07511(8) 0.6816(2) 0.26650(11)
C27 C 0.06071(10) 0.5578(2) 0.22688(12)
H25 H 0.0552 0.4798 0.2448
C28 C 0.05474(10) 0.5525(2) 0.16087(12)
H26 H 0.0447 0.4698 0.1349
C29 C 0.07677(9) 0.7788(2) 0.17077(12)
H27 H 0.0824 0.8549 0.1518
C30 C 0.08340(9) 0.7940(2) 0.23693(11)
H28 H 0.0933 0.8783 0.2614
loop_
_geom_bond_atom_site_label_1
_geom_bond_atom_site_label_2
_geom_bond_site_symmetry_1
_geom_bond_site_symmetry_2
O1 H1 1_555 1_555
O2 H2 1_555 1_555
O3 H3 1_555 1_555
O4 H4 1_555 1_555
C1 O1 1_555 1_555
C2 O2 1_555 1_555
C3 O3 1_555 1_555
C4 O4 1_555 1_555
C5 C1 1_555 1_555
H5 C5 1_555 1_555
C6 C5 1_555 1_555
C7 C6 1_555 1_555
C8 C2 1_555 1_555
H6 C8 1_555 1_555
C9 C6 1_555 1_555
C10 C9 1_555 1_555
H7 C10 1_555 1_555
H8 C10 1_555 1_555
C11 C10 1_555 1_555
H9 C11 1_555 1_555
H10 C11 1_555 1_555
C12 C7 1_555 1_555
C13 C12 1_555 1_555
C14 C9 1_555 1_555
C15 C3 1_555 1_555
H11 C15 1_555 1_555
C16 C4 1_555 1_555
H12 C16 1_555 1_555
C17 C9 1_555 1_555
H13 C17 1_555 1_555
H14 C17 1_555 1_555
H15 C17 1_555 1_555
C18 C12 1_555 1_555
H16 C18 1_555 1_555
H17 C18 1_555 1_555
H18 C18 1_555 1_555
N1 C19 1_555 1_555
N2 C28 1_555 1_555
C19 H19 1_555 1_555
C20 C19 1_555 1_555
H20 C20 1_555 1_555
C21 C20 1_555 1_555
C22 C21 1_555 1_555
H21 C22 1_555 1_555
C23 N1 1_555 1_555
H22 C23 1_555 1_555
C24 C21 1_555 1_555
H23 C24 1_555 1_555
C25 C24 1_555 1_555
H24 C25 1_555 1_555
C26 C25 1_555 1_555
C27 C26 1_555 1_555
H25 C27 1_555 1_555
C28 C27 1_555 1_555
H26 C28 1_555 1_555
C29 N2 1_555 1_555
H27 C29 1_555 1_555
C30 C26 1_555 1_555
H28 C30 1_555 1_555
C1 C2 1_555 1_555
C3 C4 1_555 1_555
C7 C8 1_555 1_555
C11 C12 1_555 1_555
C13 C14 1_555 1_555
C13 C16 1_555 1_555
C14 C15 1_555 1_555
C22 C23 1_555 1_555
C29 C30 1_555 1_555

#END
