
#######################################################################
#
#                 Cambridge Crystallographic Data Centre
#                                CCDC 
#
#######################################################################
#
# If this CIF has been generated from an entry in the Cambridge 
# Structural Database, then it will include bibliographic, chemical, 
# crystal, experimental, refinement or atomic coordinate data resulting 
# from the CCDC's data processing and validation procedures.
#
#######################################################################

data_XOLFEL
_chemical_formula_moiety         'C18 H18 O4,C10 H8 N2'
_chemical_name_systematic        
"1,8-dimethyltetracyclo[6.6.2.0^2,7^.0^9,14^]hexadeca-2,4,6,9,11,13-hexaene-4,5,11,12-tetrol - 4,4'-bipyridine"
_symmetry_cell_setting           orthorhombic
_symmetry_space_group_name_H-M   'P n m a'
_symmetry_Int_Tables_number      62
_space_group_name_Hall           '-P 2ac 2n'
loop_
_symmetry_equiv_pos_site_id
_symmetry_equiv_pos_as_xyz
1 x,y,z
2 1/2-x,-y,1/2+z
3 -x,1/2+y,-z
4 1/2+x,1/2-y,1/2-z
5 -x,-y,-z
6 1/2+x,y,1/2-z
7 x,1/2-y,z
8 1/2-x,1/2+y,1/2+z
_cell_length_a                   9.7078(4)
_cell_length_b                   22.4974(10)
_cell_length_c                   20.6272(9)
_cell_angle_alpha                90
_cell_angle_beta                 90
_cell_angle_gamma                90
_cell_volume                     4504.99
_exptl_crystal_colour            white
_exptl_crystal_description       strip
_cell_formula_units_Z            8
loop_
_atom_site_label
_atom_site_type_symbol
_atom_site_fract_x
_atom_site_fract_y
_atom_site_fract_z
O1 O 0.55768(14) 0.55488(6) 0.10460(7)
H1 H 0.5399 0.5289 0.1312
O2 O 0.60944(15) 0.55077(6) 0.23417(7)
H2 H 0.6181 0.5562 0.2733
C1 C 0.62618(18) 0.60090(9) 0.13487(10)
C2 C 0.65394(18) 0.59982(9) 0.20139(10)
C3 C 0.66871(18) 0.64846(9) 0.09724(10)
H3 H 0.6512 0.6485 0.0529
C4 C 0.72522(18) 0.64719(9) 0.22933(10)
H4 H 0.7457 0.6464 0.2734
C5 C 0.76591(18) 0.69557(9) 0.19188(10)
C6 C 0.73737(18) 0.69606(9) 0.12535(10)
C7 C 0.7918(3) 0.7500 0.08918(13)
C8 C 0.9505(3) 0.7500 0.10128(13)
H5 H 0.9913 0.7849 0.0814
C9 C 0.9817(3) 0.7500 0.17504(14)
H6 H 1.0356 0.7151 0.1860
C10 C 0.8459(3) 0.7500 0.21533(14)
C11 C 0.8786(3) 0.7500 0.28760(14)
H7 H 0.9282 0.7856 0.2985
C12 C 0.7605(3) 0.7500 0.01682(13)
H8 H 0.7981 0.7148 -0.0026
H9 H 0.6626 0.7508 0.0104
O1F O 0.55768(14) 0.94512(6) 0.10460(7)
H1F H 0.5399 0.9711 0.1312
O2F O 0.60944(15) 0.94923(6) 0.23417(7)
H2F H 0.6181 0.9438 0.2733
C1F C 0.62618(18) 0.89910(9) 0.13487(10)
C2F C 0.65394(18) 0.90018(9) 0.20139(10)
C3F C 0.66871(18) 0.85154(9) 0.09724(10)
H3F H 0.6512 0.8515 0.0529
C4F C 0.72522(18) 0.85281(9) 0.22933(10)
H4F H 0.7457 0.8536 0.2734
C5F C 0.76591(18) 0.80443(9) 0.19188(10)
C6F C 0.73737(18) 0.80394(9) 0.12535(10)
H5F H 0.9913 0.7151 0.0814
H6F H 1.0356 0.7849 0.1860
H7F H 0.9282 0.7144 0.2985
H8F H 0.7981 0.7852 -0.0026
O3 O 0.54378(15) 0.55378(6) 0.96762(6)
H10 H 0.5347 0.5569 1.0070
O4 O 0.53662(15) 0.55265(6) 0.83894(7)
H11 H 0.5265 0.5564 0.7997
C13 C 0.48322(19) 0.60163(9) 0.93766(10)
C14 C 0.48258(19) 0.60157(9) 0.87015(10)
C15 C 0.42146(18) 0.64840(9) 0.97109(9)
H12 H 0.4193 0.6478 1.0162
C16 C 0.36316(18) 0.69586(9) 0.93794(10)
C17 C 0.36370(19) 0.69597(9) 0.87040(9)
C18 C 0.42333(19) 0.64909(9) 0.83698(9)
H13 H 0.4238 0.6494 0.7919
C19 C 0.2948(3) 0.7500 0.96857(13)
C20 C 0.1437(3) 0.7500 0.94215(15)
H14 H 0.0955 0.7849 0.9579
C21 C 0.1442(3) 0.7500 0.86738(15)
H15 H 0.0959 0.7151 0.8517
C22 C 0.2939(3) 0.7500 0.84016(14)
C23 C 0.2925(3) 0.7500 0.76615(14)
H16 H 0.2473 0.7147 0.7508
H17 H 0.3854 0.7509 0.7502
C24 C 0.2982(3) 0.7500 1.04224(13)
H18 H 0.2533 0.7851 1.0582
H19 H 0.3921 0.7495 1.0568
O3F O 0.54378(15) 0.94622(6) 0.96762(6)
H10F H 0.5347 0.9431 1.0070
O4F O 0.53662(15) 0.94735(6) 0.83894(7)
H11F H 0.5265 0.9436 0.7997
C13F C 0.48322(19) 0.89837(9) 0.93766(10)
C14F C 0.48258(19) 0.89843(9) 0.87015(10)
C15F C 0.42146(18) 0.85160(9) 0.97109(9)
H12F H 0.4193 0.8522 1.0162
C16F C 0.36316(18) 0.80414(9) 0.93794(10)
C17F C 0.36370(19) 0.80403(9) 0.87040(9)
C18F C 0.42333(19) 0.85091(9) 0.83698(9)
H13F H 0.4238 0.8506 0.7919
H14F H 0.0955 0.7151 0.9579
H15F H 0.0959 0.7849 0.8517
H16F H 0.2473 0.7853 0.7508
H18F H 0.2533 0.7149 1.0582
N1 N 0.52861(17) 0.56767(8) 0.70726(9)
N2 N 0.61218(16) 0.56326(8) 0.36427(8)
C25 C 0.6412(2) 0.54587(10) 0.67917(11)
H20 H 0.7097 0.5302 0.7056
C26 C 0.6619(2) 0.54526(10) 0.61309(11)
H21 H 0.7425 0.5292 0.5961
C27 C 0.56251(19) 0.56858(9) 0.57171(10)
C28 C 0.58052(18) 0.56748(9) 0.50024(10)
C29 C 0.6950(2) 0.54167(10) 0.47098(10)
H22 H 0.7642 0.5252 0.4965
C30 C 0.7063(2) 0.54038(11) 0.40417(10)
H23 H 0.7837 0.5226 0.3861
C31 C 0.5019(2) 0.58806(10) 0.39181(10)
H24 H 0.4346 0.6042 0.3650
C32 C 0.4825(2) 0.59095(10) 0.45804(10)
H25 H 0.4034 0.6087 0.4746
C33 C 0.4329(2) 0.58987(11) 0.66781(11)
H26 H 0.3530 0.6052 0.6863
C34 C 0.4452(2) 0.59141(11) 0.60117(11)
H27 H 0.3752 0.6077 0.5761
H28? H 0.9340 0.7159 0.2979
H29? H 0.9913 0.7849 0.0814
H30? H 1.0356 0.7151 0.1860
H31? H 0.2438 0.7844 0.7508
H32? H 0.0955 0.7849 0.9579
H33? H 0.0959 0.7151 0.8517
H34? H 0.2513 0.7846 1.0582
H35? H 0.7944 0.7485 0.3119
H36? H 0.8013 0.7844 -0.0029
loop_
_geom_bond_atom_site_label_1
_geom_bond_atom_site_label_2
_geom_bond_site_symmetry_1
_geom_bond_site_symmetry_2
O1 H1 1_555 1_555
O2 H2 1_555 1_555
C1 O1 1_555 1_555
C2 O2 1_555 1_555
C3 C1 1_555 1_555
H3 C3 1_555 1_555
C4 C2 1_555 1_555
H4 C4 1_555 1_555
C5 C4 1_555 1_555
C6 C3 1_555 1_555
C7 C6 1_555 1_555
C8 C7 1_555 1_555
H5 C8 1_555 1_555
C9 C8 1_555 1_555
H6 C9 1_555 1_555
C10 C5 1_555 1_555
C11 C10 1_555 1_555
H7 C11 1_555 1_555
C12 C7 1_555 1_555
H8 C12 1_555 1_555
H9 C12 1_555 1_555
O3 H10 1_555 1_555
O4 H11 1_555 1_555
C13 O3 1_555 1_555
C14 O4 1_555 1_555
C15 C13 1_555 1_555
H12 C15 1_555 1_555
C16 C15 1_555 1_555
C17 C16 1_555 1_555
C18 C14 1_555 1_555
H13 C18 1_555 1_555
C19 C16 1_555 1_555
C20 C19 1_555 1_555
H14 C20 1_555 1_555
C21 C20 1_555 1_555
H15 C21 1_555 1_555
C22 C17 1_555 1_555
C23 C22 1_555 1_555
H16 C23 1_555 1_555
H17 C23 1_555 1_555
C24 C19 1_555 1_555
H18 C24 1_555 1_555
H19 C24 1_555 1_555
N1 C25 1_555 1_555
N2 C30 1_555 1_555
C25 H20 1_555 1_555
C26 C25 1_555 1_555
H21 C26 1_555 1_555
C27 C26 1_555 1_555
C28 C27 1_555 1_555
C29 C28 1_555 1_555
H22 C29 1_555 1_555
C30 C29 1_555 1_555
H23 C30 1_555 1_555
C31 N2 1_555 1_555
H24 C31 1_555 1_555
C32 C28 1_555 1_555
H25 C32 1_555 1_555
C33 N1 1_555 1_555
H26 C33 1_555 1_555
C34 C27 1_555 1_555
H27 C34 1_555 1_555
O1F H1F 1_555 1_555
O2F H2F 1_555 1_555
C1F O1F 1_555 1_555
C2F O2F 1_555 1_555
C3F C1F 1_555 1_555
H3F C3F 1_555 1_555
C4F C2F 1_555 1_555
H4F C4F 1_555 1_555
C5F C10 1_555 1_555
C6F C7 1_555 1_555
H5F C8 1_555 1_555
H6F C9 1_555 1_555
H7F C11 1_555 1_555
H8F C12 1_555 1_555
O3F H10F 1_555 1_555
O4F H11F 1_555 1_555
C13F O3F 1_555 1_555
C14F O4F 1_555 1_555
C15F C13F 1_555 1_555
H12F C15F 1_555 1_555
C16F C19 1_555 1_555
C17F C22 1_555 1_555
C18F C14F 1_555 1_555
H13F C18F 1_555 1_555
H14F C20 1_555 1_555
H15F C21 1_555 1_555
H16F C23 1_555 1_555
H18F C24 1_555 1_555
C1 C2 1_555 1_555
C5 C6 1_555 1_555
C9 C10 1_555 1_555
C13 C14 1_555 1_555
C17 C18 1_555 1_555
C21 C22 1_555 1_555
C31 C32 1_555 1_555
C33 C34 1_555 1_555
C1F C2F 1_555 1_555
C3F C6F 1_555 1_555
C4F C5F 1_555 1_555
C5F C6F 1_555 1_555
C13F C14F 1_555 1_555
C15F C16F 1_555 1_555
C16F C17F 1_555 1_555
C17F C18F 1_555 1_555

#END
