
#######################################################################
#
#                 Cambridge Crystallographic Data Centre
#                                CCDC 
#
#######################################################################
#
# If this CIF has been generated from an entry in the Cambridge 
# Structural Database, then it will include bibliographic, chemical, 
# crystal, experimental, refinement or atomic coordinate data resulting 
# from the CCDC's data processing and validation procedures.
#
#######################################################################

data_XOLGOV
_chemical_formula_moiety         'C40 H44 N24 O12,8(C6 H5 N1 O3),13(H2 O1)'
_chemical_name_systematic        
'\a,\f-Tetramethylcucurbit(6)uril octakis(4-nitrophenol) tridecahydrate'
_symmetry_cell_setting           triclinic
_symmetry_space_group_name_H-M   'P -1'
_symmetry_Int_Tables_number      2
_space_group_name_Hall           '-P 1'
loop_
_symmetry_equiv_pos_site_id
_symmetry_equiv_pos_as_xyz
1 x,y,z
2 -x,-y,-z
_cell_length_a                   17.758(6)
_cell_length_b                   17.908(6)
_cell_length_c                   18.914(7)
_cell_angle_alpha                88.290(5)
_cell_angle_beta                 83.072(5)
_cell_angle_gamma                63.602(5)
_cell_volume                     5346.41
_cell_formula_units_Z            2
loop_
_atom_site_label
_atom_site_type_symbol
_atom_site_fract_x
_atom_site_fract_y
_atom_site_fract_z
O1 O 0.5352(2) 0.8109(2) 0.0711(2)
H1 H 0.5573 0.7845 0.0243
H2 H 0.5370 0.7622 0.1087
O2 O 0.3957(2) 0.9532(2) 0.0416(2)
H3 H 0.3971 0.9629 -0.0070
H4 H 0.4594 0.9041 0.0538
O3 O 0.4146(2) 0.6677(2) 0.2055(2)
H5 H 0.4455 0.6104 0.2029
H6 H 0.3653 0.6907 0.1690
O4 O 0.4031(2) 0.0921(2) 0.1017(2)
H7 H 0.4567 0.0793 0.1044
H8 H 0.4186 0.0378 0.0799
O5 O 0.4435(2) 0.3122(2) -0.1656(2)
H9 H 0.3857 0.3673 -0.1414
H10 H 0.4852 0.3369 -0.1731
O6 O 0.5869(2) 0.0348(2) 0.1048(2)
H11 H 0.6009 0.0588 0.1397
H12 H 0.6038 -0.0308 0.1081
O7 O 0.5898(3) 0.5649(3) 0.3364(3)
O8 O 0.4327(4) 0.4419(4) 0.5131(4)
H13 H 0.4182 0.4158 0.4672
H14 H 0.3883 0.5039 0.5115
O9 O 0.5282(4) 0.2460(5) 0.4091(4)
O10 O 0.6028(8) 0.1191(4) 0.3059(4)
O11 O 0.4063(6) 0.5890(6) 0.4509(6)
H15 H 0.3819 0.6323 0.4218
H16 H 0.4576 0.5941 0.4345
O12 O 0.4400(9) 0.4901(9) 0.0754(8)
O13 O 0.5065(8) 0.5912(12) 0.0341(9)
C1 C 0.4021(3) 0.7543(2) -0.0701(2)
C2 C 0.4189(2) 0.7136(2) -0.1901(2)
H17 H 0.4071 0.7529 -0.2291
C3 C 0.3360(3) 0.7143(2) -0.1511(2)
H18 H 0.2858 0.7551 -0.1713
C4 C 0.4234(3) 0.5817(3) -0.2034(2)
C5 C 0.2634(3) 0.7623(3) -0.0243(2)
H19 H 0.2695 0.7952 0.0124
H20 H 0.2130 0.7977 -0.0460
C6 C 0.2808(3) 0.6048(3) -0.1499(2)
H21 H 0.2952 0.5554 -0.1788
H22 H 0.2296 0.6491 -0.1647
C7 C 0.2553(3) 0.6791(3) 0.0800(2)
C8 C 0.2103(3) 0.6521(2) -0.0238(2)
H23 H 0.1589 0.6924 -0.0428
C9 C 0.1896(3) 0.6035(2) 0.0382(2)
H24 H 0.1284 0.6223 0.0490
C10 C 0.2711(2) 0.5097(3) -0.0556(2)
C11 C 0.2081(3) 0.6012(2) 0.1699(2)
H25 H 0.1514 0.6054 0.1775
H26 H 0.2101 0.6416 0.2017
C12 C 0.2208(3) 0.4514(2) 0.0487(2)
H27 H 0.2296 0.4089 0.0137
H28 H 0.1627 0.4730 0.0709
C13 C 0.3338(3) 0.5075(3) 0.2239(2)
C14 C 0.2616(2) 0.4405(2) 0.1776(2)
C15 C 0.3436(3) 0.3731(2) 0.2084(2)
C16 C 0.3523(3) 0.3452(3) 0.0864(2)
C17 C 0.5265(3) 0.7528(2) -0.1449(3)
H29 H 0.5231 0.7904 -0.1074
H30 H 0.5268 0.7800 -0.1899
C18 C 0.5432(3) 0.6039(3) -0.2681(2)
H31 H 0.5466 0.5598 -0.2989
H32 H 0.5367 0.6512 -0.2976
C19 C 0.1779(3) 0.4455(3) 0.2131(3)
H33 H 0.1693 0.4635 0.2619
H34 H 0.1790 0.3915 0.2110
H35 H 0.1325 0.4846 0.1887
C20 C 0.3278(3) 0.3180(3) 0.2661(2)
H36 H 0.2941 0.3520 0.3071
H37 H 0.3810 0.2772 0.2794
H38 H 0.2983 0.2902 0.2480
N1 N 0.4523(2) 0.7381(2) -0.13391(19)
N2 N 0.3363(2) 0.7364(2) -0.07809(19)
N3 N 0.4686(2) 0.6283(2) -0.21607(18)
N4 N 0.3490(2) 0.6294(2) -0.16325(18)
N5 N 0.2522(2) 0.6935(2) 0.00851(18)
N6 N 0.2246(2) 0.6224(2) 0.09700(18)
N7 N 0.2639(2) 0.5874(2) -0.07551(18)
N8 N 0.2324(2) 0.5181(2) 0.01256(18)
N9 N 0.2676(2) 0.5183(2) 0.18799(18)
N10 N 0.3786(2) 0.4249(2) 0.23697(19)
N11 N 0.2771(2) 0.4126(2) 0.10312(17)
N12 N 0.3945(2) 0.3231(2) 0.14526(18)
O14 O 0.4134(2) 0.7814(2) -0.01626(19)
O15 O 0.2798(2) 0.7125(2) 0.12100(17)
O16 O 0.34836(19) 0.56329(18) 0.24420(17)
O17 O 0.44754(19) 0.51033(19) -0.22592(17)
O18 O 0.30458(19) 0.44629(18) -0.09257(16)
O19 O 0.37732(19) 0.30794(19) 0.02879(17)
C1A C 0.5979(3) 0.2457(2) 0.0701(2)
C2A C 0.5811(2) 0.2864(2) 0.1901(2)
H17A H 0.5929 0.2471 0.2291
C3A C 0.6640(3) 0.2857(2) 0.1511(2)
H18A H 0.7142 0.2449 0.1713
C4A C 0.5766(3) 0.4183(3) 0.2034(2)
C5A C 0.7366(3) 0.2377(3) 0.0243(2)
H19A H 0.7305 0.2048 -0.0124
H20A H 0.7870 0.2023 0.0460
C6A C 0.7192(3) 0.3952(3) 0.1499(2)
H21A H 0.7048 0.4446 0.1788
H22A H 0.7704 0.3509 0.1647
C7A C 0.7447(3) 0.3209(3) -0.0800(2)
C8A C 0.7897(3) 0.3479(2) 0.0238(2)
H23A H 0.8411 0.3076 0.0428
C9A C 0.8104(3) 0.3965(2) -0.0382(2)
H24A H 0.8716 0.3777 -0.0490
C10A C 0.7289(2) 0.4903(3) 0.0556(2)
C11A C 0.7919(3) 0.3988(2) -0.1699(2)
H25A H 0.8486 0.3946 -0.1775
H26A H 0.7899 0.3584 -0.2017
C12A C 0.7792(3) 0.5486(2) -0.0487(2)
H27A H 0.7704 0.5911 -0.0137
H28A H 0.8373 0.5270 -0.0709
C13A C 0.6662(3) 0.4925(3) -0.2239(2)
C14A C 0.7384(2) 0.5595(2) -0.1776(2)
C15A C 0.6564(3) 0.6269(2) -0.2084(2)
C16A C 0.6477(3) 0.6548(3) -0.0864(2)
C17A C 0.4735(3) 0.2472(2) 0.1449(3)
H29A H 0.4769 0.2096 0.1074
H30A H 0.4732 0.2200 0.1899
C18A C 0.4568(3) 0.3961(3) 0.2681(2)
H31A H 0.4534 0.4402 0.2989
H32A H 0.4633 0.3488 0.2976
C19A C 0.8221(3) 0.5545(3) -0.2131(3)
H33A H 0.8307 0.5365 -0.2619
H34A H 0.8210 0.6085 -0.2110
H35A H 0.8675 0.5154 -0.1887
C20A C 0.6722(3) 0.6820(3) -0.2661(2)
H36A H 0.7059 0.6480 -0.3071
H37A H 0.6190 0.7228 -0.2794
H38A H 0.7017 0.7098 -0.2480
N1A N 0.5477(2) 0.2619(2) 0.13391(19)
N2A N 0.6637(2) 0.2636(2) 0.07809(19)
N3A N 0.5314(2) 0.3717(2) 0.21607(18)
N4A N 0.6510(2) 0.3706(2) 0.16325(18)
N5A N 0.7478(2) 0.3065(2) -0.00851(18)
N6A N 0.7754(2) 0.3776(2) -0.09700(18)
N7A N 0.7361(2) 0.4126(2) 0.07551(18)
N8A N 0.7676(2) 0.4819(2) -0.01256(18)
N9A N 0.7324(2) 0.4817(2) -0.18799(18)
N10A N 0.6214(2) 0.5751(2) -0.23697(19)
N11A N 0.7229(2) 0.5874(2) -0.10312(17)
N12A N 0.6055(2) 0.6769(2) -0.14526(18)
O14A O 0.5866(2) 0.2186(2) 0.01626(19)
O15A O 0.7202(2) 0.2875(2) -0.12100(17)
O16A O 0.65164(19) 0.43671(18) -0.24420(17)
O17A O 0.55246(19) 0.48967(19) 0.22592(17)
O18A O 0.69542(19) 0.55371(18) 0.09257(16)
O19A O 0.62268(19) 0.69206(19) -0.02879(17)
C21 C 0.6122(3) -0.2611(3) 0.4057(3)
C22 C 0.6145(3) -0.2178(3) 0.2891(2)
H39 H 0.6183 -0.2537 0.2494
C23 C 0.7027(3) -0.2429(3) 0.3134(2)
H40 H 0.7474 -0.2896 0.2845
C24 C 0.6488(3) -0.1058(3) 0.2736(2)
C25 C 0.7604(3) -0.3053(3) 0.4294(3)
H41 H 0.7502 -0.3455 0.4594
H42 H 0.8125 -0.3355 0.3982
C26 C 0.7855(3) -0.1579(3) 0.3237(2)
H43 H 0.8365 -0.2093 0.3117
H44 H 0.7912 -0.1142 0.2954
C27 C 0.7320(3) -0.2257(3) 0.5420(3)
C28 C 0.8169(3) -0.1997(3) 0.4499(2)
H45 H 0.8768 -0.2361 0.4343
C29 C 0.8063(3) -0.1461(3) 0.5168(3)
H46 H 0.8604 -0.1624 0.5355
C30 C 0.7603(3) -0.0588(3) 0.4217(2)
C31 C 0.7350(4) -0.1429(3) 0.6417(3)
H47 H 0.7893 -0.1548 0.6571
H48 H 0.7138 -0.1785 0.6677
C32 C 0.7738(3) 0.0062(3) 0.5300(3)
H49 H 0.8268 -0.0141 0.5504
H50 H 0.7722 0.0486 0.4963
C33 C 0.5999(3) -0.0362(3) 0.6979(2)
C34 C 0.7002(3) 0.0123(3) 0.6576(2)
C35 C 0.6185(3) 0.0863(3) 0.6975(2)
C36 C 0.6392(3) 0.1205(3) 0.5780(3)
C37 C 0.4861(3) 0.0836(3) 0.7669(3)
H51 H 0.4779 0.0399 0.7931
H52 H 0.4920 0.1192 0.8012
C38 C 0.4835(3) -0.2274(3) 0.3495(3)
H53 H 0.4760 -0.2630 0.3866
H54 H 0.4835 -0.2512 0.3041
C39 C 0.7809(4) -0.0115(4) 0.6921(4)
H55 H 0.7746 -0.0318 0.7389
H56 H 0.7911 0.0366 0.6955
H57 H 0.8279 -0.0543 0.6636
C40 C 0.6339(3) 0.1242(3) 0.7613(3)
H58 H 0.6547 0.0826 0.7965
H59 H 0.5818 0.1695 0.7811
H60 H 0.6749 0.1446 0.7468
N13 N 0.5647(2) -0.2279(2) 0.3514(2)
N14 N 0.6915(2) -0.2656(2) 0.38651(19)
N15 N 0.5888(2) -0.1324(2) 0.2672(2)
N16 N 0.7131(2) -0.1680(2) 0.3043(2)
N17 N 0.7713(2) -0.2476(2) 0.4740(2)
N18 N 0.7476(3) -0.1635(2) 0.5669(2)
N19 N 0.7793(2) -0.1377(2) 0.39771(19)
N20 N 0.7728(2) -0.0621(2) 0.4918(2)
N21 N 0.6766(3) -0.0566(2) 0.6601(2)
N22 N 0.5643(2) 0.0455(2) 0.7190(2)
N23 N 0.7047(2) 0.0442(2) 0.5863(2)
N24 N 0.5877(2) 0.1455(2) 0.6408(2)
O20 O 0.5896(2) -0.2851(2) 0.46153(19)
O21 O 0.6910(3) -0.2581(2) 0.57568(18)
O22 O 0.5682(3) -0.0843(2) 0.7125(2)
O23 O 0.6462(2) -0.0395(2) 0.2540(2)
O24 O 0.7366(2) 0.0038(2) 0.38585(18)
O25 O 0.6295(2) 0.1606(2) 0.52338(18)
C21A C 0.3878(3) 0.2611(3) 0.5943(3)
C22A C 0.3855(3) 0.2178(3) 0.7109(2)
H39A H 0.3817 0.2537 0.7506
C23A C 0.2973(3) 0.2429(3) 0.6866(2)
H40A H 0.2526 0.2896 0.7155
C24A C 0.3512(3) 0.1058(3) 0.7264(2)
C25A C 0.2396(3) 0.3053(3) 0.5706(3)
H41A H 0.2498 0.3455 0.5406
H42A H 0.1875 0.3355 0.6018
C26A C 0.2145(3) 0.1579(3) 0.6763(2)
H43A H 0.1635 0.2093 0.6883
H44A H 0.2088 0.1142 0.7046
C27A C 0.2680(3) 0.2257(3) 0.4580(3)
C28A C 0.1831(3) 0.1997(3) 0.5501(2)
H45A H 0.1232 0.2361 0.5657
C29A C 0.1937(3) 0.1461(3) 0.4832(3)
H46A H 0.1396 0.1624 0.4645
C30A C 0.2397(3) 0.0588(3) 0.5783(2)
C31A C 0.2650(4) 0.1429(3) 0.3583(3)
H47A H 0.2107 0.1548 0.3429
H48A H 0.2862 0.1785 0.3323
C32A C 0.2262(3) -0.0062(3) 0.4700(3)
H49A H 0.1732 0.0141 0.4496
H50A H 0.2278 -0.0486 0.5037
C33A C 0.4001(3) 0.0362(3) 0.3021(2)
C34A C 0.2998(3) -0.0123(3) 0.3424(2)
C35A C 0.3815(3) -0.0863(3) 0.3025(2)
C36A C 0.3608(3) -0.1205(3) 0.4220(3)
C37A C 0.5139(3) -0.0836(3) 0.2331(3)
H51A H 0.5221 -0.0399 0.2069
H52A H 0.5080 -0.1192 0.1988
C38A C 0.5165(3) 0.2274(3) 0.6505(3)
H53A H 0.5240 0.2630 0.6134
H54A H 0.5165 0.2512 0.6959
C39A C 0.2191(4) 0.0115(4) 0.3079(4)
H55A H 0.2254 0.0318 0.2611
H56A H 0.2089 -0.0366 0.3045
H57A H 0.1721 0.0543 0.3364
C40A C 0.3661(3) -0.1242(3) 0.2387(3)
H58A H 0.3453 -0.0826 0.2035
H59A H 0.4182 -0.1695 0.2189
H60A H 0.3251 -0.1446 0.2532
N13A N 0.4353(2) 0.2279(2) 0.6486(2)
N14A N 0.3085(2) 0.2656(2) 0.61349(19)
N15A N 0.4112(2) 0.1324(2) 0.7328(2)
N16A N 0.2869(2) 0.1680(2) 0.6957(2)
N17A N 0.2287(2) 0.2476(2) 0.5260(2)
N18A N 0.2524(3) 0.1635(2) 0.4331(2)
N19A N 0.2207(2) 0.1377(2) 0.60229(19)
N20A N 0.2272(2) 0.0621(2) 0.5082(2)
N21A N 0.3234(3) 0.0566(2) 0.3399(2)
N22A N 0.4357(2) -0.0455(2) 0.2810(2)
N23A N 0.2953(2) -0.0442(2) 0.4137(2)
N24A N 0.4123(2) -0.1455(2) 0.3592(2)
O20A O 0.4104(2) 0.2851(2) 0.53847(19)
O21A O 0.3090(3) 0.2581(2) 0.42432(18)
O22A O 0.4318(3) 0.0843(2) 0.2875(2)
O23A O 0.3538(2) 0.0395(2) 0.7460(2)
O24A O 0.2634(2) -0.0038(2) 0.61415(18)
O25A O 0.3705(2) -0.1606(2) 0.47662(18)
C41 C 0.7256(3) 0.7961(3) 0.1054(3)
C42 C 0.7391(3) 0.7135(3) 0.1093(2)
H61 H 0.6965 0.6994 0.1008
C43 C 0.8158(3) 0.6525(3) 0.1258(2)
H62 H 0.8257 0.5970 0.1280
C44 C 0.8776(3) 0.6756(3) 0.1390(2)
C45 C 0.8643(3) 0.7579(3) 0.1355(3)
H63 H 0.9069 0.7722 0.1441
C46 C 0.7889(3) 0.8173(3) 0.1197(3)
H64 H 0.7791 0.8728 0.1183
N25 N 0.9606(2) 0.6110(3) 0.1535(2)
O26 O 0.6522(2) 0.8577(2) 0.0880(2)
H65 H 0.6203 0.8379 0.0799
O27 O 0.9746(2) 0.5384(2) 0.1536(3)
O28 O 1.0142(2) 0.6339(3) 0.1636(3)
C47 C 0.2401(4) 0.4653(3) 0.4127(3)
C48 C 0.2361(3) 0.5414(3) 0.3871(3)
H66 H 0.2841 0.5503 0.3838
C49 C 0.1628(3) 0.6021(3) 0.3671(3)
H67 H 0.1606 0.6525 0.3507
C50 C 0.0916(3) 0.5883(3) 0.3712(3)
C51 C 0.0928(4) 0.5148(3) 0.3986(3)
H68 H 0.0443 0.5066 0.4028
C52 C 0.1676(4) 0.4540(3) 0.4196(3)
H69 H 0.1689 0.4049 0.4384
N26 N 0.0149(3) 0.6506(3) 0.3451(3)
O29 O 0.3148(3) 0.4078(2) 0.4284(2)
H70 H 0.3103 0.3661 0.4427
O30 O -0.0447(3) 0.6338(3) 0.3427(3)
O31 O 0.0106(3) 0.7180(3) 0.3257(3)
C53 C 0.2560(3) 0.7587(3) 0.3539(3)
C54 C 0.2065(3) 0.7806(3) 0.2990(3)
H71 H 0.2311 0.7640 0.2523
C55 C 0.1202(3) 0.8273(3) 0.3138(3)
H72 H 0.0863 0.8428 0.2771
C56 C 0.0846(3) 0.8509(4) 0.3824(3)
C57 C 0.1337(4) 0.8301(4) 0.4379(3)
H73 H 0.1088 0.8477 0.4843
C58 C 0.2199(4) 0.7832(4) 0.4235(3)
H74 H 0.2537 0.7680 0.4604
N27 N -0.0080(4) 0.8980(4) 0.3970(4)
O32 O 0.3415(2) 0.7114(2) 0.3424(2)
H75 H 0.3561 0.6999 0.2998
O33 O -0.0503(3) 0.9163(4) 0.3474(4)
O34 O -0.0370(4) 0.9183(5) 0.4593(4)
C59 C 0.1967(3) 0.2280(3) 0.1604(3)
C60 C 0.1182(3) 0.2621(3) 0.2026(3)
H76 H 0.1145 0.2476 0.2501
C61 C 0.0467(3) 0.3165(3) 0.1744(3)
H77 H -0.0056 0.3388 0.2022
C62 C 0.0539(3) 0.3378(3) 0.1032(3)
C63 C 0.1304(3) 0.3061(3) 0.0616(3)
H78 H 0.1341 0.3215 0.0144
C64 C 0.2024(3) 0.2508(3) 0.0903(3)
H79 H 0.2546 0.2291 0.0623
N28 N -0.0234(3) 0.3921(3) 0.0725(3)
O35 O 0.2639(2) 0.1729(2) 0.19134(19)
H80 H 0.3066 0.1567 0.1624
O36 O -0.0914(2) 0.4182(2) 0.1094(2)
O37 O -0.0160(3) 0.4084(3) 0.0092(3)
C65 C 0.7732(4) 0.0395(3) 0.1592(3)
C66 C 0.8039(4) 0.0302(3) 0.0883(3)
H81 H 0.7693 0.0629 0.0551
C67 C 0.8854(4) -0.0269(4) 0.0662(3)
H82 H 0.9071 -0.0309 0.0184
C68 C 0.9356(4) -0.0788(4) 0.1149(4)
C69 C 0.9061(4) -0.0697(3) 0.1869(3)
H83 H 0.9399 -0.1042 0.2197
C70 C 0.8258(3) -0.0088(3) 0.2090(3)
H84 H 0.8066 0.0003 0.2574
N29 N 1.0198(4) -0.1432(5) 0.0898(4)
O38 O 0.6917(3) 0.0959(2) 0.1771(2)
H89 H 0.6795 0.0966 0.2204
O39 O 1.0462(4) -0.1463(6) 0.0270(4)
O40 O 1.0606(3) -0.1908(4) 0.1349(4)
C71 C 0.7110(5) 0.2715(4) 0.3501(3)
C72 C 0.7490(5) 0.1893(4) 0.3728(3)
H85 H 0.7158 0.1629 0.3893
C73 C 0.8345(5) 0.1482(4) 0.3707(4)
H86 H 0.8601 0.0930 0.3846
C74 C 0.8844(5) 0.1894(4) 0.3475(3)
C75 C 0.8478(6) 0.2692(4) 0.3229(4)
H87 H 0.8811 0.2951 0.3053
C76 C 0.7614(6) 0.3099(5) 0.3245(4)
H88 H 0.7362 0.3641 0.3082
N30 N 0.9741(5) 0.1471(5) 0.3486(4)
O41 O 0.6261(4) 0.3168(3) 0.3524(3)
H90 H 0.6025 0.2885 0.3684
O42 O 1.0090(4) 0.0752(5) 0.3671(5)
O43 O 1.0163(4) 0.1844(4) 0.3303(4)
C77 C 0.1962(3) 0.9741(3) 0.1097(3)
C78 C 0.1339(4) 0.9568(3) 0.1469(3)
H91 H 0.1468 0.9030 0.1621
C79 C 0.0527(4) 1.0197(4) 0.1614(3)
H92 H 0.0108 1.0082 0.1864
C80 C 0.0338(3) 1.0979(3) 0.1394(3)
C81 C 0.0963(3) 1.1164(3) 0.1037(3)
H93 H 0.0832 1.1705 0.0894
C82 C 0.1771(3) 1.0548(3) 0.0899(3)
H94 H 0.2194 1.0672 0.0670
N31 N -0.0524(3) 1.1630(3) 0.1501(3)
O44 O 0.2732(2) 0.9086(2) 0.0945(2)
H95 H 0.3057 0.9247 0.0724
O45 O -0.0672(3) 1.2346(3) 0.1334(3)
O46 O -0.1087(3) 1.1445(3) 0.1738(3)
C83 C 0.8027(4) 0.5077(3) 0.3313(4)
C84 C 0.7878(4) 0.4731(4) 0.3947(3)
H96 H 0.7326 0.4875 0.4151
C85 C 0.8558(4) 0.4169(4) 0.4276(3)
H97 H 0.8464 0.3927 0.4698
C86 C 0.9366(4) 0.3971(4) 0.3979(3)
C87 C 0.9507(4) 0.4331(4) 0.3357(4)
H98 H 1.0058 0.4204 0.3160
C88 C 0.8831(5) 0.4879(4) 0.3030(4)
H99 H 0.8928 0.5117 0.2606
N32 N 1.0084(4) 0.3383(4) 0.4308(4)
O47 O 0.7377(3) 0.5619(3) 0.2964(3)
H100 H 0.6925 0.5690 0.3189
O48 O 1.0801(4) 0.3222(3) 0.4041(4)
O49 O 0.9939(4) 0.3031(4) 0.4845(3)
O50? O 0.4788(15) 0.1859(13) 0.361(2)
loop_
_geom_bond_atom_site_label_1
_geom_bond_atom_site_label_2
_geom_bond_site_symmetry_1
_geom_bond_site_symmetry_2
O1 H1 1_555 1_555
H2 O1 1_555 1_555
O2 H3 1_555 1_555
H4 O2 1_555 1_555
O3 H5 1_555 1_555
H6 O3 1_555 1_555
O4 H7 1_555 1_555
H8 O4 1_555 1_555
O5 H9 1_555 1_555
H10 O5 1_555 1_555
O6 H11 1_555 1_555
H12 O6 1_555 1_555
O8 H13 1_555 1_555
H14 O8 1_555 1_555
O11 H15 1_555 1_555
H16 O11 1_555 1_555
C1 N1 1_555 1_555
C2 H17 1_555 1_555
C3 C2 1_555 1_555
H18 C3 1_555 1_555
C4 N3 1_555 1_555
C5 H19 1_555 1_555
H20 C5 1_555 1_555
C6 H21 1_555 1_555
H22 C6 1_555 1_555
C7 N5 1_555 1_555
C8 H23 1_555 1_555
C9 C8 1_555 1_555
H24 C9 1_555 1_555
C10 N7 1_555 1_555
C11 H25 1_555 1_555
H26 C11 1_555 1_555
C12 H27 1_555 1_555
H28 C12 1_555 1_555
C13 N9 1_555 1_555
C14 C15 1_555 1_555
C15 C20 1_555 1_555
C16 N11 1_555 1_555
C17 H29 1_555 1_555
H30 C17 1_555 1_555
C18 H31 1_555 1_555
H32 C18 1_555 1_555
C19 C14 1_555 1_555
H33 C19 1_555 1_555
H34 C19 1_555 1_555
H35 C19 1_555 1_555
C20 H36 1_555 1_555
H37 C20 1_555 1_555
H38 C20 1_555 1_555
N1 C2 1_555 1_555
N2 C1 1_555 1_555
N3 C2 1_555 1_555
N4 C3 1_555 1_555
N5 C5 1_555 1_555
N6 C7 1_555 1_555
N7 C6 1_555 1_555
N8 C9 1_555 1_555
N9 C11 1_555 1_555
N10 C13 1_555 1_555
N11 C12 1_555 1_555
N12 C15 1_555 1_555
O14 C1 1_555 1_555
O15 C7 1_555 1_555
O16 C13 1_555 1_555
O17 C4 1_555 1_555
O18 C10 1_555 1_555
O19 C16 1_555 1_555
C21 N13 1_555 1_555
C22 H39 1_555 1_555
C23 C22 1_555 1_555
H40 C23 1_555 1_555
C24 N15 1_555 1_555
C25 H41 1_555 1_555
H42 C25 1_555 1_555
C26 H43 1_555 1_555
H44 C26 1_555 1_555
C27 N17 1_555 1_555
C28 H45 1_555 1_555
C29 C28 1_555 1_555
H46 C29 1_555 1_555
C30 N19 1_555 1_555
C31 H47 1_555 1_555
H48 C31 1_555 1_555
C32 H49 1_555 1_555
H50 C32 1_555 1_555
C33 N21 1_555 1_555
C34 C35 1_555 1_555
C35 C40 1_555 1_555
C36 N23 1_555 1_555
C37 H51 1_555 1_555
H52 C37 1_555 1_555
C38 H53 1_555 1_555
H54 C38 1_555 1_555
C39 C34 1_555 1_555
H55 C39 1_555 1_555
H56 C39 1_555 1_555
H57 C39 1_555 1_555
C40 H58 1_555 1_555
H59 C40 1_555 1_555
H60 C40 1_555 1_555
N13 C22 1_555 1_555
N14 C21 1_555 1_555
N15 C22 1_555 1_555
N16 C23 1_555 1_555
N17 C25 1_555 1_555
N18 C27 1_555 1_555
N19 C26 1_555 1_555
N20 C29 1_555 1_555
N21 C31 1_555 1_555
N22 C33 1_555 1_555
N23 C32 1_555 1_555
N24 C35 1_555 1_555
O20 C21 1_555 1_555
O21 C27 1_555 1_555
O22 C33 1_555 1_555
O23 C24 1_555 1_555
O24 C30 1_555 1_555
O25 C36 1_555 1_555
C41 C42 1_555 1_555
C42 H61 1_555 1_555
C43 C42 1_555 1_555
H62 C43 1_555 1_555
C44 C43 1_555 1_555
C45 C44 1_555 1_555
H63 C45 1_555 1_555
C46 C41 1_555 1_555
H64 C46 1_555 1_555
N25 C44 1_555 1_555
O26 C41 1_555 1_555
H65 O26 1_555 1_555
O27 N25 1_555 1_555
O28 N25 1_555 1_555
C47 C48 1_555 1_555
C48 H66 1_555 1_555
C49 C48 1_555 1_555
H67 C49 1_555 1_555
C50 C49 1_555 1_555
C51 C50 1_555 1_555
H68 C51 1_555 1_555
C52 C47 1_555 1_555
H69 C52 1_555 1_555
N26 C50 1_555 1_555
O29 C47 1_555 1_555
H70 O29 1_555 1_555
O30 N26 1_555 1_555
O31 N26 1_555 1_555
C53 C54 1_555 1_555
C54 H71 1_555 1_555
C55 C54 1_555 1_555
H72 C55 1_555 1_555
C56 C55 1_555 1_555
C57 C56 1_555 1_555
H73 C57 1_555 1_555
C58 C53 1_555 1_555
H74 C58 1_555 1_555
N27 C56 1_555 1_555
O32 C53 1_555 1_555
H75 O32 1_555 1_555
O33 N27 1_555 1_555
O34 N27 1_555 1_555
C59 C60 1_555 1_555
C60 H76 1_555 1_555
C61 C60 1_555 1_555
H77 C61 1_555 1_555
C62 C61 1_555 1_555
C63 C62 1_555 1_555
H78 C63 1_555 1_555
C64 C59 1_555 1_555
H79 C64 1_555 1_555
N28 C62 1_555 1_555
O35 C59 1_555 1_555
H80 O35 1_555 1_555
O36 N28 1_555 1_555
O37 N28 1_555 1_555
C65 C66 1_555 1_555
C66 H81 1_555 1_555
C67 C66 1_555 1_555
H82 C67 1_555 1_555
C68 C67 1_555 1_555
C69 C68 1_555 1_555
H83 C69 1_555 1_555
C70 C65 1_555 1_555
H84 C70 1_555 1_555
C71 C72 1_555 1_555
C72 H85 1_555 1_555
C73 C72 1_555 1_555
H86 C73 1_555 1_555
C74 C73 1_555 1_555
C75 C74 1_555 1_555
H87 C75 1_555 1_555
C76 C71 1_555 1_555
H88 C76 1_555 1_555
N29 C68 1_555 1_555
N30 C74 1_555 1_555
O38 C65 1_555 1_555
H89 O38 1_555 1_555
O39 N29 1_555 1_555
O40 N29 1_555 1_555
O41 C71 1_555 1_555
H90 O41 1_555 1_555
O42 N30 1_555 1_555
O43 N30 1_555 1_555
C77 C78 1_555 1_555
C78 H91 1_555 1_555
C79 C78 1_555 1_555
H92 C79 1_555 1_555
C80 C79 1_555 1_555
C81 C80 1_555 1_555
H93 C81 1_555 1_555
C82 C77 1_555 1_555
H94 C82 1_555 1_555
N31 C80 1_555 1_555
O44 C77 1_555 1_555
H95 O44 1_555 1_555
O45 N31 1_555 1_555
O46 N31 1_555 1_555
C83 C84 1_555 1_555
C84 H96 1_555 1_555
C85 C84 1_555 1_555
H97 C85 1_555 1_555
C86 C85 1_555 1_555
C87 C86 1_555 1_555
H98 C87 1_555 1_555
C88 C83 1_555 1_555
H99 C88 1_555 1_555
N32 C86 1_555 1_555
O47 C83 1_555 1_555
H100 O47 1_555 1_555
O48 N32 1_555 1_555
O49 N32 1_555 1_555
C1A N1A 1_555 1_555
C2A H17A 1_555 1_555
C3A C2A 1_555 1_555
H18A C3A 1_555 1_555
C4A N3A 1_555 1_555
C5A H19A 1_555 1_555
H20A C5A 1_555 1_555
C6A H21A 1_555 1_555
H22A C6A 1_555 1_555
C7A N5A 1_555 1_555
C8A H23A 1_555 1_555
C9A C8A 1_555 1_555
H24A C9A 1_555 1_555
C10A N7A 1_555 1_555
C11A H25A 1_555 1_555
H26A C11A 1_555 1_555
C12A H27A 1_555 1_555
H28A C12A 1_555 1_555
C13A N9A 1_555 1_555
C14A C15A 1_555 1_555
C15A C20A 1_555 1_555
C16A N11A 1_555 1_555
C17A N12 1_555 1_555
H29A C17A 1_555 1_555
H30A C17A 1_555 1_555
C18A N10 1_555 1_555
H31A C18A 1_555 1_555
H32A C18A 1_555 1_555
C19A C14A 1_555 1_555
H33A C19A 1_555 1_555
H34A C19A 1_555 1_555
H35A C19A 1_555 1_555
C20A H36A 1_555 1_555
H37A C20A 1_555 1_555
H38A C20A 1_555 1_555
N1A C2A 1_555 1_555
N2A C1A 1_555 1_555
N3A C2A 1_555 1_555
N4A C3A 1_555 1_555
N5A C5A 1_555 1_555
N6A C7A 1_555 1_555
N7A C6A 1_555 1_555
N8A C9A 1_555 1_555
N9A C11A 1_555 1_555
N10A C18 1_555 1_555
N11A C12A 1_555 1_555
N12A C17 1_555 1_555
O14A C1A 1_555 1_555
O15A C7A 1_555 1_555
O16A C13A 1_555 1_555
O17A C4A 1_555 1_555
O18A C10A 1_555 1_555
O19A C16A 1_555 1_555
C21A N13A 1_555 1_555
C22A H39A 1_555 1_555
C23A C22A 1_555 1_555
H40A C23A 1_555 1_555
C24A N15A 1_555 1_555
C25A H41A 1_555 1_555
H42A C25A 1_555 1_555
C26A H43A 1_555 1_555
H44A C26A 1_555 1_555
C27A N17A 1_555 1_555
C28A H45A 1_555 1_555
C29A C28A 1_555 1_555
H46A C29A 1_555 1_555
C30A N19A 1_555 1_555
C31A H47A 1_555 1_555
H48A C31A 1_555 1_555
C32A H49A 1_555 1_555
H50A C32A 1_555 1_555
C33A N21A 1_555 1_555
C34A C35A 1_555 1_555
C35A C40A 1_555 1_555
C36A N23A 1_555 1_555
C37A N15 1_555 1_555
H51A C37A 1_555 1_555
H52A C37A 1_555 1_555
C38A N24 1_555 1_555
H53A C38A 1_555 1_555
H54A C38A 1_555 1_555
C39A C34A 1_555 1_555
H55A C39A 1_555 1_555
H56A C39A 1_555 1_555
H57A C39A 1_555 1_555
C40A H58A 1_555 1_555
H59A C40A 1_555 1_555
H60A C40A 1_555 1_555
N13A C22A 1_555 1_555
N14A C21A 1_555 1_555
N15A C37 1_555 1_555
N16A C23A 1_555 1_555
N17A C25A 1_555 1_555
N18A C27A 1_555 1_555
N19A C26A 1_555 1_555
N20A C29A 1_555 1_555
N21A C31A 1_555 1_555
N22A C33A 1_555 1_555
N23A C32A 1_555 1_555
N24A C38 1_555 1_555
O20A C21A 1_555 1_555
O21A C27A 1_555 1_555
O22A C33A 1_555 1_555
O23A C24A 1_555 1_555
O24A C30A 1_555 1_555
O25A C36A 1_555 1_555
C3 N2 1_555 1_555
C4 N4 1_555 1_555
C5 N2 1_555 1_555
C6 N4 1_555 1_555
C8 N5 1_555 1_555
C8 N7 1_555 1_555
C9 N6 1_555 1_555
C10 N8 1_555 1_555
C11 N6 1_555 1_555
C12 N8 1_555 1_555
C14 N9 1_555 1_555
C14 N11 1_555 1_555
C15 N10 1_555 1_555
C16 N12 1_555 1_555
C17 N1 1_555 1_555
C18 N3 1_555 1_555
C23 N14 1_555 1_555
C24 N16 1_555 1_555
C25 N14 1_555 1_555
C26 N16 1_555 1_555
C28 N17 1_555 1_555
C28 N19 1_555 1_555
C29 N18 1_555 1_555
C30 N20 1_555 1_555
C31 N18 1_555 1_555
C32 N20 1_555 1_555
C34 N21 1_555 1_555
C34 N23 1_555 1_555
C35 N22 1_555 1_555
C36 N24 1_555 1_555
C37 N22 1_555 1_555
C38 N13 1_555 1_555
C45 C46 1_555 1_555
C51 C52 1_555 1_555
C57 C58 1_555 1_555
C63 C64 1_555 1_555
C69 C70 1_555 1_555
C75 C76 1_555 1_555
C81 C82 1_555 1_555
C87 C88 1_555 1_555
C3A N2A 1_555 1_555
C4A N4A 1_555 1_555
C5A N2A 1_555 1_555
C6A N4A 1_555 1_555
C8A N5A 1_555 1_555
C8A N7A 1_555 1_555
C9A N6A 1_555 1_555
C10A N8A 1_555 1_555
C11A N6A 1_555 1_555
C12A N8A 1_555 1_555
C13A N10A 1_555 1_555
C14A N9A 1_555 1_555
C14A N11A 1_555 1_555
C15A N10A 1_555 1_555
C15A N12A 1_555 1_555
C16A N12A 1_555 1_555
C17A N1A 1_555 1_555
C18A N3A 1_555 1_555
C22A N15A 1_555 1_555
C23A N14A 1_555 1_555
C24A N16A 1_555 1_555
C25A N14A 1_555 1_555
C26A N16A 1_555 1_555
C28A N17A 1_555 1_555
C28A N19A 1_555 1_555
C29A N18A 1_555 1_555
C30A N20A 1_555 1_555
C31A N18A 1_555 1_555
C32A N20A 1_555 1_555
C34A N21A 1_555 1_555
C34A N23A 1_555 1_555
C35A N22A 1_555 1_555
C35A N24A 1_555 1_555
C36A N24A 1_555 1_555
C37A N22A 1_555 1_555
C38A N13A 1_555 1_555

#END
