
#######################################################################
#
#                 Cambridge Crystallographic Data Centre
#                                CCDC 
#
#######################################################################
#
# If this CIF has been generated from an entry in the Cambridge 
# Structural Database, then it will include bibliographic, chemical, 
# crystal, experimental, refinement or atomic coordinate data resulting 
# from the CCDC's data processing and validation procedures.
#
#######################################################################

data_XOLKOZ
_chemical_formula_moiety         'C28 H30 N1 O5 S1 1+,C2 F3 O2 1-,2.5(H2 O1)'
_chemical_name_systematic        
'2-(2-Methoxy-1-(1-(methoxycarbonyl)-2-methyl-2-p-tolyl-3-oxo-2,3-dihydro-1H-inden-1-yl)-2-oxoethyl)-3,4,5-trimethyl-1,3-thiazol-3-ium trifluoroacetate hydrate'
_symmetry_cell_setting           triclinic
_symmetry_space_group_name_H-M   'P -1'
_symmetry_Int_Tables_number      2
_space_group_name_Hall           '-P 1'
loop_
_symmetry_equiv_pos_site_id
_symmetry_equiv_pos_as_xyz
1 x,y,z
2 -x,-y,-z
_cell_length_a                   14.258(3)
_cell_length_b                   15.677(3)
_cell_length_c                   17.381(4)
_cell_angle_alpha                97.49(3)
_cell_angle_beta                 106.18(3)
_cell_angle_gamma                115.38(3)
_cell_volume                     3228.35
_exptl_crystal_colour            colorless
_exptl_crystal_description       block
_cell_formula_units_Z            4
loop_
_atom_site_label
_atom_site_type_symbol
_atom_site_fract_x
_atom_site_fract_y
_atom_site_fract_z
S1 S 0.48200(13) 0.91066(11) 0.17707(9)
N2 N 0.2918(4) 0.8206(3) 0.0664(3)
O3 O 0.2249(4) 0.8676(3) 0.2053(3)
O5 O 0.3114(4) 1.0233(3) 0.2813(3)
O6 O 0.2708(3) 1.1281(3) 0.1605(3)
O7 O 0.5801(4) 1.1210(3) 0.0375(3)
O8 O 0.4357(3) 1.2319(3) 0.2629(2)
C3 C 0.1743(7) 0.8350(6) 0.2650(6)
H5 H 0.1308 0.7644 0.2473
H6 H 0.1267 0.8628 0.2681
H7 H 0.2319 0.8563 0.3190
C4 C 0.5127(7) 0.7493(6) 0.1375(6)
H8 H 0.4751 0.6829 0.1020
H9 H 0.5343 0.7492 0.1950
H10 H 0.5782 0.7884 0.1266
C5 C 0.5097(10) 1.5239(6) 0.1054(7)
H11 H 0.4404 1.5201 0.0736
H12 H 0.5652 1.5573 0.0830
H13 H 0.5343 1.5597 0.1627
C7 C 0.2662(7) 0.6550(5) 0.0017(5)
H17 H 0.3085 0.6208 0.0086
H18 H 0.2480 0.6613 -0.0540
H19 H 0.1984 0.6187 0.0110
C11 C 0.2217(6) 1.1868(6) 0.1878(5)
H25 H 0.1445 1.1574 0.1518
H26 H 0.2617 1.2528 0.1849
H27 H 0.2271 1.1883 0.2443
C12 C 0.7461(6) 1.1478(5) 0.3004(5)
H28 H 0.8168 1.1556 0.3267
C14 C 0.3899(9) 1.3399(7) 0.0543(6)
H30 H 0.3311 1.3502 0.0273
C22 C 0.4927(9) 1.4206(6) 0.1003(5)
C23 C 0.7088(5) 1.1426(5) 0.2172(4)
H43 H 0.7541 1.1481 0.1866
C24 C 0.1789(5) 0.7915(5) 0.0089(5)
H44 H 0.1629 0.8445 0.0195
H45 H 0.1253 0.7341 0.0173
H46 H 0.1746 0.7767 -0.0478
C26 C 0.6771(5) 1.1412(5) 0.3455(4)
H48 H 0.7040 1.1469 0.4022
C27 C 0.5783(7) 1.4038(5) 0.1403(5)
H49 H 0.6493 1.4567 0.1714
C28 C 0.3693(6) 1.2421(5) 0.0460(4)
H50 H 0.2989 1.1894 0.0130
C30 C 0.3438(5) 1.0490(4) 0.0021(3)
H51 H 0.3619 1.0712 -0.0434
H52 H 0.2737 1.0450 -0.0007
H53 H 0.3378 0.9851 -0.0017
C31 C 0.5590(6) 1.3084(5) 0.1342(4)
H54 H 0.6179 1.2989 0.1624
C33 C 0.4352(6) 0.7921(4) 0.1204(4)
C36 C 0.3342(6) 0.7557(4) 0.0636(4)
C43 C 0.2887(5) 0.9628(4) 0.2191(4)
C44 C 0.3284(5) 0.9832(4) 0.1489(3)
H58 H 0.2627 0.9696 0.1012
C46 C 0.4346(5) 1.1209(4) 0.0841(3)
C48 C 0.3615(4) 0.9074(4) 0.1243(3)
C50 C 0.6028(4) 1.1291(4) 0.1803(4)
C51 C 0.4549(5) 1.2260(4) 0.0876(4)
C52 C 0.4168(4) 1.0934(4) 0.1663(3)
C53 C 0.5721(5) 1.1269(4) 0.3089(3)
H60 H 0.5271 1.1225 0.3396
C54 C 0.3769(5) 1.1595(4) 0.2047(3)
C55 C 0.5338(4) 1.1189(4) 0.2241(3)
C56 C 0.5458(5) 1.1231(4) 0.0929(3)
S2 S 0.21161(13) 0.44309(11) 0.38803(10)
N1 N 0.2672(4) 0.5001(3) 0.5421(3)
O1 O 0.1576(4) 0.6219(4) 0.5011(3)
O2 O 0.2096(4) 0.7141(4) 0.4179(3)
O4 O 0.5541(4) 0.5584(3) 0.4081(3)
O9 O 0.4369(4) 0.8242(3) 0.3825(2)
O10 O 0.4504(4) 0.8446(3) 0.5158(2)
C1 C 0.8893(8) 1.0459(6) 0.4778(8)
H1 H 0.9256 1.0914 0.5329
H2 H 0.8607 1.0745 0.4383
H3 H 0.9422 1.0315 0.4632
C2 C 0.2205(8) 0.5534(7) 0.1997(5)
H4 H 0.1591 0.5455 0.1563
C6 C 0.0609(7) 0.6365(7) 0.4921(8)
H14 H 0.0209 0.6016 0.5241
H15 H 0.0124 0.6119 0.4342
H16 H 0.0858 0.7055 0.5121
C8 C 0.2759(8) 0.5020(7) 0.1845(5)
H20 H 0.2512 0.4611 0.1311
C9 C 0.7322(7) 0.8765(6) 0.4050(5)
H21 H 0.7500 0.8828 0.3577
C10 C 0.1092(7) 0.2475(5) 0.3915(5)
H22 H 0.0944 0.2087 0.4295
H23 H 0.1530 0.2322 0.3650
H24 H 0.0397 0.2328 0.3498
C13 C 0.6406(6) 0.7879(5) 0.4008(4)
H29 H 0.5980 0.7377 0.3506
C15 C 0.1947(6) 0.3459(6) 0.5862(5)
H31 H 0.1528 0.2758 0.5610
H32 H 0.1552 0.3659 0.6144
H33 H 0.2668 0.3633 0.6258
C16 C 0.2552(6) 0.6165(5) 0.2785(4)
H34 H 0.2183 0.6509 0.2882
C17 C 0.3640(7) 0.5103(5) 0.2453(5)
H35 H 0.4000 0.4752 0.2351
C18 C 0.7684(6) 0.9396(5) 0.5459(5)
H36 H 0.8119 0.9901 0.5959
C19 C 0.7947(6) 0.9525(5) 0.4765(6)
C20 C 0.3116(6) 0.5605(5) 0.6291(4)
H37 H 0.3490 0.6290 0.6319
H38 H 0.3636 0.5448 0.6638
H39 H 0.2511 0.5471 0.6482
C21 C 0.4838(7) 0.9290(5) 0.3973(4)
H40 H 0.4875 0.9454 0.3466
H41 H 0.5577 0.9616 0.4397
H42 H 0.4374 0.9499 0.4157
C25 C 0.6787(5) 0.8534(5) 0.5440(4)
H47 H 0.6619 0.8477 0.5917
C29 C 0.1727(5) 0.3556(5) 0.4392(5)
C32 C 0.2235(5) 0.6639(4) 0.4617(4)
C34 C 0.2090(5) 0.3963(4) 0.5206(4)
C35 C 0.3464(5) 0.6260(4) 0.3417(3)
C37 C 0.4003(5) 0.5734(4) 0.3246(4)
C38 C 0.4942(5) 0.5967(4) 0.3978(4)
C39 C 0.5135(4) 0.6799(4) 0.4672(3)
C40 C 0.6140(5) 0.7754(4) 0.4698(4)
C41 C 0.5394(5) 0.6574(5) 0.5494(4)
H55 H 0.6088 0.6563 0.5640
H56 H 0.4804 0.5943 0.5449
H57 H 0.5453 0.7072 0.5919
C42 C 0.4287(5) 0.7919(4) 0.4473(3)
C45 C 0.3207(4) 0.6422(4) 0.4826(3)
H59 H 0.3671 0.6783 0.5417
C47 C 0.2763(4) 0.5352(4) 0.4775(4)
C49 C 0.3983(4) 0.6845(4) 0.4326(3)
O11 O -0.0470(8) 0.5539(7) 0.1792(5)
O12 O -0.1322(10) 0.5434(9) 0.2714(7)
C57 C -0.1180(6) 0.6669(4) 0.2094(5)
C58 C -0.1053(10) 0.5752(6) 0.2165(10)
F1 F -0.0948(8) 0.6962(7) 0.1471(5)
F2 F -0.0520(7) 0.7403(7) 0.2770(5)
F3 F -0.2200(6) 0.6477(7) 0.1975(6)
O13 O 0.9140(6) 1.1056(5) 0.1822(5)
O14 O 0.9377(6) 1.0060(6) 0.0949(4)
C59 C 0.9013(12) 0.9604(11) 0.2095(10)
C60 C 0.9213(10) 1.0330(10) 0.1563(9)
F4 F 0.856(3) 0.8702(18) 0.1711(15)
F5 F 0.981(2) 0.9906(18) 0.2753(17)
F6 F 0.805(2) 0.9465(18) 0.2226(15)
O15 O -0.0593(8) 0.7064(5) -0.1920(5)
H61 H -0.0194 0.6748 -0.2091
H62 H -0.0128 0.7700 -0.1807
O16 O 0.0654(17) 0.6126(14) -0.231(2)
H63 H 0.0357 0.5648 -0.2114
H64 H 0.1225 0.6068 -0.2358
O17 O -0.0133(6) 0.5783(5) 0.0380(5)
O18 O -0.0925(5) 0.7024(5) -0.0366(5)
H65 H -0.0666 0.6611 -0.0122
H66 H -0.0816 0.7041 -0.0882
O19 O 0.9595(5) 1.0937(4) -0.0310(4)
H67 H 0.9588 1.0646 0.0098
H68 H 0.9841 1.0578 -0.0640
F7? F 0.970(3) 0.920(2) 0.216(2)
F8? F 0.924(3) 0.998(2) 0.286(2)
F9? F 0.805(3) 0.888(3) 0.192(2)
loop_
_geom_bond_atom_site_label_1
_geom_bond_atom_site_label_2
_geom_bond_site_symmetry_1
_geom_bond_site_symmetry_2
S1 C33 1_555 1_555
S2 C29 1_555 1_555
N1 C20 1_555 1_555
N2 C24 1_555 1_555
O1 C6 1_555 1_555
O2 C32 1_555 1_555
O3 C3 1_555 1_555
O4 C38 1_555 1_555
O5 C43 1_555 1_555
O6 C11 1_555 1_555
O7 C56 1_555 1_555
O8 C54 1_555 1_555
O9 C21 1_555 1_555
O10 C42 1_555 1_555
O11 C58 1_555 1_555
O12 C58 1_555 1_555
O13 C60 1_555 1_555
O14 C60 1_555 1_555
C1 H1 1_555 1_555
H2 C1 1_555 1_555
H3 C1 1_555 1_555
C2 H4 1_555 1_555
C3 H5 1_555 1_555
H6 C3 1_555 1_555
H7 C3 1_555 1_555
C4 H8 1_555 1_555
H9 C4 1_555 1_555
H10 C4 1_555 1_555
C5 H11 1_555 1_555
H12 C5 1_555 1_555
H13 C5 1_555 1_555
C6 H14 1_555 1_555
H15 C6 1_555 1_555
H16 C6 1_555 1_555
C7 H17 1_555 1_555
H18 C7 1_555 1_555
H19 C7 1_555 1_555
C8 C2 1_555 1_555
H20 C8 1_555 1_555
C9 H21 1_555 1_555
C10 H22 1_555 1_555
H23 C10 1_555 1_555
H24 C10 1_555 1_555
C11 H25 1_555 1_555
H26 C11 1_555 1_555
H27 C11 1_555 1_555
C12 H28 1_555 1_555
C13 C9 1_555 1_555
H29 C13 1_555 1_555
C14 H30 1_555 1_555
C15 H31 1_555 1_555
H32 C15 1_555 1_555
H33 C15 1_555 1_555
C16 C2 1_555 1_555
H34 C16 1_555 1_555
C17 C8 1_555 1_555
H35 C17 1_555 1_555
C18 H36 1_555 1_555
C19 C1 1_555 1_555
C20 H37 1_555 1_555
H38 C20 1_555 1_555
H39 C20 1_555 1_555
C21 H40 1_555 1_555
H41 C21 1_555 1_555
H42 C21 1_555 1_555
C22 C5 1_555 1_555
C23 C12 1_555 1_555
H43 C23 1_555 1_555
C24 H44 1_555 1_555
H45 C24 1_555 1_555
H46 C24 1_555 1_555
C25 C18 1_555 1_555
H47 C25 1_555 1_555
C26 C12 1_555 1_555
H48 C26 1_555 1_555
C27 C22 1_555 1_555
H49 C27 1_555 1_555
C28 C14 1_555 1_555
H50 C28 1_555 1_555
C29 C10 1_555 1_555
C30 H51 1_555 1_555
H52 C30 1_555 1_555
H53 C30 1_555 1_555
C31 C27 1_555 1_555
H54 C31 1_555 1_555
C32 O1 1_555 1_555
C33 C4 1_555 1_555
C34 N1 1_555 1_555
C35 C16 1_555 1_555
C36 N2 1_555 1_555
C37 C17 1_555 1_555
C38 C37 1_555 1_555
C39 C38 1_555 1_555
C40 C13 1_555 1_555
C41 C39 1_555 1_555
H55 C41 1_555 1_555
H56 C41 1_555 1_555
H57 C41 1_555 1_555
C42 O9 1_555 1_555
C43 O3 1_555 1_555
C44 C43 1_555 1_555
H58 C44 1_555 1_555
C45 C32 1_555 1_555
H59 C45 1_555 1_555
C46 C30 1_555 1_555
C47 S2 1_555 1_555
C48 S1 1_555 1_555
C49 C35 1_555 1_555
C50 C23 1_555 1_555
C51 C28 1_555 1_555
C52 C44 1_555 1_555
C53 C26 1_555 1_555
H60 C53 1_555 1_555
C54 O6 1_555 1_555
C55 C50 1_555 1_555
C56 C46 1_555 1_555
C57 C58 1_555 1_555
C59 C60 1_555 1_555
F1 C57 1_555 1_555
F2 C57 1_555 1_555
F3 C57 1_555 1_555
F4 C59 1_555 1_555
F5 C59 1_555 1_555
F6 C59 1_555 1_555
O15 H61 1_555 1_555
H62 O15 1_555 1_555
O16 H63 1_555 1_555
H64 O16 1_555 1_555
O18 H65 1_555 1_555
H66 O18 1_555 1_555
O19 H67 1_555 1_555
H68 O19 1_555 1_555
N1 C47 1_555 1_555
N2 C48 1_555 1_555
C7 C36 1_555 1_555
C9 C19 1_555 1_555
C14 C22 1_555 1_555
C15 C34 1_555 1_555
C18 C19 1_555 1_555
C25 C40 1_555 1_555
C29 C34 1_555 1_555
C31 C51 1_555 1_555
C33 C36 1_555 1_555
C35 C37 1_555 1_555
C39 C40 1_555 1_555
C39 C49 1_555 1_555
C42 C49 1_555 1_555
C44 C48 1_555 1_555
C45 C47 1_555 1_555
C45 C49 1_555 1_555
C46 C51 1_555 1_555
C46 C52 1_555 1_555
C50 C56 1_555 1_555
C52 C54 1_555 1_555
C52 C55 1_555 1_555
C53 C55 1_555 1_555

#END
