
#######################################################################
#
#                 Cambridge Crystallographic Data Centre
#                                CCDC 
#
#######################################################################
#
# If this CIF has been generated from an entry in the Cambridge 
# Structural Database, then it will include bibliographic, chemical, 
# crystal, experimental, refinement or atomic coordinate data resulting 
# from the CCDC's data processing and validation procedures.
#
#######################################################################

data_XOLKUF
_chemical_formula_moiety         'C29 H31 N1 O5 S1'
_chemical_name_systematic        
'Methyl 2-ethyl-1-(1-(3-ethyl-4,5-dimethyl-1,3-thiazol-2(3H)-ylidene)-2-methoxy-2-oxoethyl)-3-oxo-2-phenyl-1-indanecarboxylate'
_symmetry_cell_setting           triclinic
_symmetry_space_group_name_H-M   'P -1'
_symmetry_Int_Tables_number      2
_space_group_name_Hall           '-P 1'
loop_
_symmetry_equiv_pos_site_id
_symmetry_equiv_pos_as_xyz
1 x,y,z
2 -x,-y,-z
_cell_length_a                   9.0846(18)
_cell_length_b                   11.400(2)
_cell_length_c                   13.728(3)
_cell_angle_alpha                89.60(3)
_cell_angle_beta                 77.09(3)
_cell_angle_gamma                72.33(3)
_cell_volume                     1317.58
_exptl_crystal_colour            colorless
_exptl_crystal_description       chunk
_chemical_melting_point          192-194deg.C
_cell_formula_units_Z            2
loop_
_atom_site_label
_atom_site_type_symbol
_atom_site_fract_x
_atom_site_fract_y
_atom_site_fract_z
S1 S 0.05908(7) 0.64064(6) 0.37786(5)
O1 O 0.10198(16) 0.38077(15) 0.23919(12)
O2 O 0.45649(17) 0.64342(14) 0.20034(14)
O3 O 0.61325(16) 0.44768(14) 0.20590(13)
O4 O 0.10357(18) 0.32936(16) 0.39662(13)
O5 O 0.73631(19) 0.15697(16) 0.22068(15)
N1 N 0.1346(2) 0.66707(16) 0.19418(14)
C1 C 0.3360(2) 0.36910(19) 0.29327(16)
C2 C 0.3344(2) 0.49250(18) 0.24782(15)
C3 C 0.1891(2) 0.59294(19) 0.26332(16)
C4 C 0.4529(2) 0.24705(19) 0.22336(17)
C5 C 0.6047(3) 0.2220(2) 0.26365(19)
C6 C 0.4784(2) 0.51947(19) 0.21653(16)
C7 C 0.5609(2) 0.2801(2) 0.36478(18)
C8 C 0.1680(2) 0.35694(19) 0.31810(17)
C9 C 0.3346(3) 0.4136(2) 0.48115(17)
H1 H 0.2300 0.4650 0.4965
C10 C 0.4040(2) 0.35555(19) 0.38617(16)
C11 C 0.3865(3) 0.1383(2) 0.24952(18)
C12 C -0.0081(3) 0.7626(2) 0.2308(2)
C13 C -0.0658(3) 0.7594(2) 0.3289(2)
C14 C 0.5954(3) 0.6803(2) 0.1719(2)
H2 H 0.6623 0.6507 0.2177
H3 H 0.5659 0.7687 0.1734
H4 H 0.6519 0.6464 0.1054
C15 C 0.2077(3) 0.6404(3) 0.08627(18)
H5 H 0.3166 0.5876 0.0773
H6 H 0.2097 0.7169 0.0554
C16 C 0.4240(3) 0.3934(2) 0.5524(2)
H7 H 0.3777 0.4307 0.6166
C17 C 0.4822(3) 0.2645(2) 0.11050(17)
H8 H 0.3802 0.2947 0.0929
H9 H 0.5340 0.3276 0.0964
C18 C 0.2836(3) 0.1126(3) 0.1973(2)
H10 H 0.2605 0.1580 0.1430
C19 C -0.0793(4) 0.8552(2) 0.1626(3)
H11 H -0.1353 0.8201 0.1254
H12 H 0.0036 0.8771 0.1171
H13 H -0.1518 0.9275 0.2018
C20 C 0.6504(3) 0.2615(2) 0.4370(2)
H14 H 0.7555 0.2110 0.4221
C21 C 0.1190(4) 0.5783(3) 0.0350(2)
H15 H 0.1190 0.5016 0.0643
H16 H 0.1697 0.5628 -0.0350
H17 H 0.0115 0.6308 0.0429
C22 C 0.5801(3) 0.3193(2) 0.5309(2)
H18 H 0.6381 0.3083 0.5800
C23 C 0.3532(4) -0.0275(3) 0.3544(3)
H19 H 0.3782 -0.0750 0.4072
C24 C 0.4197(3) 0.0647(2) 0.3281(2)
H20 H 0.4891 0.0785 0.3639
C25 C 0.2501(4) -0.0500(3) 0.3032(3)
H21 H 0.2044 -0.1121 0.3213
C26 C 0.5829(4) 0.1487(3) 0.0432(2)
H22 H 0.6861 0.1198 0.0576
H23 H 0.5935 0.1679 -0.0257
H24 H 0.5322 0.0856 0.0555
C27 C -0.2130(3) 0.8459(3) 0.3956(3)
H25 H -0.2266 0.9285 0.3754
H26 H -0.2028 0.8422 0.4638
H27 H -0.3037 0.8220 0.3902
C28 C -0.0559(3) 0.3688(3) 0.2534(2)
H28 H -0.0497 0.2835 0.2588
H29 H -0.0994 0.3994 0.1972
H30 H -0.1230 0.4156 0.3135
C29 C 0.2153(4) 0.0204(3) 0.2249(3)
H31 H 0.1451 0.0060 0.1900
loop_
_geom_bond_atom_site_label_1
_geom_bond_atom_site_label_2
_geom_bond_site_symmetry_1
_geom_bond_site_symmetry_2
S1 C3 1_555 1_555
O1 C8 1_555 1_555
O2 C6 1_555 1_555
O3 C6 1_555 1_555
O4 C8 1_555 1_555
O5 C5 1_555 1_555
N1 C3 1_555 1_555
C1 C2 1_555 1_555
C2 C3 1_555 1_555
C4 C1 1_555 1_555
C5 C4 1_555 1_555
C6 C2 1_555 1_555
C7 C5 1_555 1_555
C8 C1 1_555 1_555
C9 H1 1_555 1_555
C10 C1 1_555 1_555
C11 C4 1_555 1_555
C12 N1 1_555 1_555
C13 S1 1_555 1_555
C14 O2 1_555 1_555
H2 C14 1_555 1_555
H3 C14 1_555 1_555
H4 C14 1_555 1_555
C15 N1 1_555 1_555
H5 C15 1_555 1_555
H6 C15 1_555 1_555
C16 C9 1_555 1_555
H7 C16 1_555 1_555
C17 C4 1_555 1_555
H8 C17 1_555 1_555
H9 C17 1_555 1_555
C18 C11 1_555 1_555
H10 C18 1_555 1_555
C19 C12 1_555 1_555
H11 C19 1_555 1_555
H12 C19 1_555 1_555
H13 C19 1_555 1_555
C20 C7 1_555 1_555
H14 C20 1_555 1_555
C21 C15 1_555 1_555
H15 C21 1_555 1_555
H16 C21 1_555 1_555
H17 C21 1_555 1_555
C22 C16 1_555 1_555
H18 C22 1_555 1_555
C23 H19 1_555 1_555
C24 C11 1_555 1_555
H20 C24 1_555 1_555
C25 C23 1_555 1_555
H21 C25 1_555 1_555
C26 C17 1_555 1_555
H22 C26 1_555 1_555
H23 C26 1_555 1_555
H24 C26 1_555 1_555
C27 C13 1_555 1_555
H25 C27 1_555 1_555
H26 C27 1_555 1_555
H27 C27 1_555 1_555
C28 O1 1_555 1_555
H28 C28 1_555 1_555
H29 C28 1_555 1_555
H30 C28 1_555 1_555
C29 C18 1_555 1_555
H31 C29 1_555 1_555
C7 C10 1_555 1_555
C9 C10 1_555 1_555
C12 C13 1_555 1_555
C20 C22 1_555 1_555
C23 C24 1_555 1_555
C25 C29 1_555 1_555

#END
