
#######################################################################
#
#                 Cambridge Crystallographic Data Centre
#                                CCDC 
#
#######################################################################
#
# If this CIF has been generated from an entry in the Cambridge 
# Structural Database, then it will include bibliographic, chemical, 
# crystal, experimental, refinement or atomic coordinate data resulting 
# from the CCDC's data processing and validation procedures.
#
#######################################################################

data_XOLKEP
_chemical_formula_moiety         'C15 H16 Br1 N1 O1 S1'
_chemical_name_systematic        
(Z)-1-(4-Bromophenyl)-2-(3-ethyl-4,5-dimethyl-1,3-thiazol-2(3H)-ylidene)ethanone
_symmetry_cell_setting           triclinic
_symmetry_space_group_name_H-M   'P -1'
_symmetry_Int_Tables_number      2
_space_group_name_Hall           '-P 1'
loop_
_symmetry_equiv_pos_site_id
_symmetry_equiv_pos_as_xyz
1 x,y,z
2 -x,-y,-z
_cell_length_a                   6.952(4)
_cell_length_b                   7.636(6)
_cell_length_c                   15.489(11)
_cell_angle_alpha                78.16(3)
_cell_angle_beta                 87.74(3)
_cell_angle_gamma                66.38(3)
_cell_volume                     736.489
_exptl_crystal_colour            colorless
_exptl_crystal_description       chunk
_chemical_melting_point          128-130deg.C
_cell_formula_units_Z            2
loop_
_atom_site_label
_atom_site_type_symbol
_atom_site_fract_x
_atom_site_fract_y
_atom_site_fract_z
Br1 Br -0.27238(6) 0.21059(5) 0.47791(3)
S1 S 0.54898(11) 0.64500(10) 0.08264(5)
N1 N 0.5320(3) 0.8596(3) 0.19021(14)
O1 O 0.3038(3) 0.4610(3) 0.14516(14)
C1 C -0.1026(4) 0.2984(4) 0.3970(2)
C2 C 0.0515(5) 0.3418(4) 0.4291(2)
H1 H 0.0777 0.3198 0.4896
C3 C 0.1666(5) 0.4184(4) 0.37045(19)
H2 H 0.2677 0.4515 0.3920
C4 C 0.1344(4) 0.4466(4) 0.28044(18)
C5 C -0.0163(4) 0.3939(4) 0.24950(19)
H3 H -0.0356 0.4067 0.1891
C6 C -0.1368(4) 0.3233(4) 0.3072(2)
H4 H -0.2401 0.2925 0.2859
C7 C 0.2604(4) 0.5235(4) 0.21481(19)
C8 C 0.3287(4) 0.6618(4) 0.23488(19)
H5 H 0.2877 0.7095 0.2863
C9 C 0.4566(4) 0.7271(4) 0.17853(18)
C10 C 0.4736(5) 0.9604(4) 0.2643(2)
H6 H 0.3313 0.9775 0.2794
H7 H 0.4754 1.0891 0.2461
C11 C 0.6177(6) 0.8518(5) 0.3444(2)
H8 H 0.6122 0.7264 0.3642
H9 H 0.5746 0.9249 0.3904
H10 H 0.7589 0.8346 0.3299
C12 C 0.6688(4) 0.8913(4) 0.12603(19)
C13 C 0.6960(4) 0.7872(4) 0.06413(19)
C14 C 0.7677(5) 1.0309(5) 0.1319(2)
H11 H 0.8558 1.0358 0.0830
H12 H 0.8510 0.9875 0.1862
H13 H 0.6597 1.1587 0.1304
C15 C 0.8316(5) 0.7794(5) -0.0134(2)
H14 H 0.8189 0.6910 -0.0465
H15 H 0.9754 0.7349 0.0069
H16 H 0.7878 0.9075 -0.0503
loop_
_geom_bond_atom_site_label_1
_geom_bond_atom_site_label_2
_geom_bond_site_symmetry_1
_geom_bond_site_symmetry_2
Br1 C1 1_555 1_555
S1 C9 1_555 1_555
N1 C9 1_555 1_555
O1 C7 1_555 1_555
C1 C2 1_555 1_555
C2 H1 1_555 1_555
C3 C2 1_555 1_555
H2 C3 1_555 1_555
C4 C3 1_555 1_555
C5 C4 1_555 1_555
H3 C5 1_555 1_555
C6 C1 1_555 1_555
H4 C6 1_555 1_555
C7 C4 1_555 1_555
C8 C7 1_555 1_555
H5 C8 1_555 1_555
C9 C8 1_555 1_555
C10 N1 1_555 1_555
H6 C10 1_555 1_555
H7 C10 1_555 1_555
C11 C10 1_555 1_555
H8 C11 1_555 1_555
H9 C11 1_555 1_555
H10 C11 1_555 1_555
C12 N1 1_555 1_555
C13 S1 1_555 1_555
C14 C12 1_555 1_555
H11 C14 1_555 1_555
H12 C14 1_555 1_555
H13 C14 1_555 1_555
C15 C13 1_555 1_555
H14 C15 1_555 1_555
H15 C15 1_555 1_555
H16 C15 1_555 1_555
C5 C6 1_555 1_555
C12 C13 1_555 1_555

#END
