
#######################################################################
#
#                 Cambridge Crystallographic Data Centre
#                                CCDC 
#
#######################################################################
#
# If this CIF has been generated from an entry in the Cambridge 
# Structural Database, then it will include bibliographic, chemical, 
# crystal, experimental, refinement or atomic coordinate data resulting 
# from the CCDC's data processing and validation procedures.
#
#######################################################################

data_XOLLAM
_chemical_formula_moiety         
'C32 H36 Br1 N1 O5 S1,0.25(C2 H6 O1),0.5(H2 O1)'
_chemical_name_systematic        
"Ethyl 3-(2-(4-bromophenyl)-2-oxoethyl)-4'-ethyl-2',3'-dimethyl-5'-oxo-4',5'-dihydro-3H-dispiro(2-benzofuran-1,6'-(1,4)thiazepine-7',1''-cyclohexane)-3-carboxylate ethanol solvate hemihydrate"
_symmetry_cell_setting           monoclinic
_symmetry_space_group_name_H-M   'P 21/c'
_symmetry_Int_Tables_number      14
_space_group_name_Hall           '-P 2ybc'
loop_
_symmetry_equiv_pos_site_id
_symmetry_equiv_pos_as_xyz
1 x,y,z
2 -x,1/2+y,1/2-z
3 -x,-y,-z
4 x,1/2-y,1/2+z
_cell_length_a                   26.9107(11)
_cell_length_b                   10.0719(3)
_cell_length_c                   27.6693(10)
_cell_angle_alpha                90
_cell_angle_beta                 116.8800(10)
_cell_angle_gamma                90
_cell_volume                     6689.25
_exptl_crystal_colour            colorless
_exptl_crystal_description       platelet
_cell_formula_units_Z            8
loop_
_atom_site_label
_atom_site_type_symbol
_atom_site_fract_x
_atom_site_fract_y
_atom_site_fract_z
Br2 Br 0.41316(4) 0.12382(10) 0.40911(4)
S2 S 0.37343(6) 1.05849(15) 0.17793(6)
N2 N 0.43014(16) 0.8149(5) 0.24389(16)
O6 O 0.33411(12) 0.7427(3) 0.15262(13)
O7 O 0.27392(16) 0.5567(4) 0.20144(16)
O8 O 0.24154(15) 0.4749(4) 0.08985(16)
O9 O 0.22442(15) 0.6923(4) 0.08550(18)
O10 O 0.47629(14) 0.8017(4) 0.19355(14)
C33 C 0.32025(19) 0.6102(5) 0.13043(19)
C34 C 0.34782(18) 0.5991(4) 0.09516(18)
C35 C 0.3455(2) 0.4952(5) 0.0614(2)
H37 H 0.3209 0.4252 0.0552
C36 C 0.3804(2) 0.4972(5) 0.0370(2)
H38 H 0.3785 0.4296 0.0134
C37 C 0.4183(2) 0.6005(5) 0.0479(2)
H39 H 0.4424 0.6001 0.0321
C38 C 0.4207(2) 0.7044(5) 0.08196(19)
H40 H 0.4466 0.7724 0.0896
C39 C 0.3841(2) 0.7050(5) 0.10435(18)
C40 C 0.37717(19) 0.8010(5) 0.14302(18)
C41 C 0.3451(2) 0.5080(5) 0.1764(2)
H41 H 0.3438 0.4214 0.1606
H42 H 0.3840 0.5299 0.1987
C42 C 0.3171(2) 0.4983(5) 0.2125(2)
C43 C 0.3426(2) 0.4093(5) 0.2614(2)
C44 C 0.3172(2) 0.3978(6) 0.2946(2)
H43 H 0.2854 0.4475 0.2869
C45 C 0.3379(2) 0.3143(6) 0.3389(2)
H44 H 0.3202 0.3066 0.3610
C46 C 0.3855(3) 0.2425(6) 0.3497(2)
C47 C 0.4128(2) 0.2546(5) 0.3186(2)
H45 H 0.4454 0.2072 0.3272
C48 C 0.3914(2) 0.3375(5) 0.2745(2)
H46 H 0.4097 0.3460 0.2530
C49 C 0.2560(2) 0.6019(6) 0.0999(2)
C50 C 0.1815(3) 0.4487(8) 0.0674(3)
H47 H 0.1660 0.5003 0.0869
H48 H 0.1631 0.4758 0.0297
C51 C 0.1718(4) 0.3158(11) 0.0712(6)
H49 H 0.1851 0.2652 0.0500
H50 H 0.1325 0.3012 0.0579
H51 H 0.1910 0.2884 0.1084
C52 C 0.3592(2) 0.9463(5) 0.12009(19)
C53 C 0.2971(3) 0.9483(6) 0.0790(3)
H52 H 0.2747 0.9305 0.0975
H53 H 0.2898 0.8791 0.0522
C54 C 0.2801(3) 1.0870(7) 0.0496(4)
H54 H 0.2430 1.0800 0.0198
H55 H 0.2788 1.1518 0.0749
C55 C 0.3200(5) 1.1375(8) 0.0277(3)
H56 H 0.3179 1.0794 -0.0012
H57 H 0.3088 1.2258 0.0127
C56 C 0.3756(4) 1.1412(6) 0.0695(3)
H58 H 0.3781 1.2024 0.0975
H59 H 0.4001 1.1729 0.0549
C57 C 0.3945(3) 1.0012(5) 0.0943(2)
H60 H 0.3924 0.9408 0.0661
H61 H 0.4331 1.0054 0.1215
C58 C 0.4322(2) 0.8088(5) 0.19600(19)
C59 C 0.4838(2) 0.8060(8) 0.2936(2)
H62 H 0.4781 0.7614 0.3218
H63 H 0.5100 0.7540 0.2864
C60 C 0.5066(3) 0.9381(8) 0.3122(3)
H64 H 0.5075 0.9865 0.2827
H65 H 0.5438 0.9303 0.3410
H66 H 0.4837 0.9843 0.3250
C61 C 0.3829(2) 0.8630(7) 0.2493(2)
C62 C 0.3698(3) 0.7877(7) 0.2885(2)
H67 H 0.3742 0.8448 0.3179
H68 H 0.3947 0.7135 0.3023
H69 H 0.3320 0.7563 0.2705
C63 C 0.3543(2) 0.9693(6) 0.2211(2)
C64 C 0.3017(3) 1.0185(8) 0.2225(3)
H70 H 0.2702 1.0021 0.1881
H71 H 0.3048 1.1120 0.2299
H72 H 0.2967 0.9724 0.2504
O12 O 0.5381(8) 0.4393(18) 0.5777(8)
H75 H 0.5308 0.3563 0.5705
H76 H 0.5445 0.4770 0.5548
O13 O 0.0000 0.5000 0.0000
H77 H 0.0272 0.5267 -0.0114
C65 C -0.0076(12) 0.327(2) -0.0624(9)
H78 H 0.0279 0.3594 -0.0576
H79 H -0.0080 0.2314 -0.0649
H80 H -0.0366 0.3627 -0.0951
C66 C -0.0173(19) 0.3683(16) -0.0138(14)
H81 H 0.0036 0.3106 0.0168
H82 H -0.0565 0.3603 -0.0231
H77B H -0.0272 0.4733 0.0114
C65B C 0.0076(12) 0.673(2) 0.0624(9)
H78B H -0.0279 0.6406 0.0576
H79B H 0.0080 0.7686 0.0649
H80B H 0.0366 0.6373 0.0951
C66B C 0.0173(19) 0.6317(16) 0.0138(14)
H81B H -0.0036 0.6894 -0.0168
H82B H 0.0565 0.6397 0.0231
Br1 Br 0.06636(3) 1.04021(9) 0.07801(3)
S1 S 0.12276(6) 0.10641(13) 0.29381(6)
N1 N 0.06434(16) 0.3578(4) 0.24042(15)
O1 O 0.16420(11) 0.4242(3) 0.32883(11)
O2 O 0.22173(16) 0.6274(4) 0.28739(15)
O3 O 0.25507(14) 0.6862(4) 0.40515(14)
O4 O 0.27527(14) 0.4751(4) 0.39500(14)
O5 O 0.02500(14) 0.3465(4) 0.29735(14)
C1 C 0.17896(18) 0.5489(4) 0.35648(17)
C2 C 0.15530(18) 0.5425(4) 0.39641(17)
C3 C 0.1622(2) 0.6299(5) 0.43791(18)
H1 H 0.1860 0.7024 0.4457
C4 C 0.1335(2) 0.6074(5) 0.4670(2)
H2 H 0.1385 0.6632 0.4956
C5 C 0.0972(2) 0.5022(6) 0.4540(2)
H3 H 0.0769 0.4900 0.4734
C6 C 0.0899(2) 0.4145(5) 0.41322(19)
H4 H 0.0645 0.3451 0.4044
C7 C 0.12139(18) 0.4322(4) 0.38563(17)
C8 C 0.12475(18) 0.3517(4) 0.34078(17)
C9 C 0.15172(19) 0.6601(5) 0.31507(18)
H5 H 0.1123 0.6409 0.2943
H6 H 0.1552 0.7428 0.3343
C10 C 0.1767(2) 0.6779(5) 0.27656(19)
C11 C 0.14749(19) 0.7612(5) 0.22747(17)
C12 C 0.09824(19) 0.8252(5) 0.21527(18)
H7 H 0.0814 0.8147 0.2379
C13 C 0.0731(2) 0.9052(5) 0.16997(19)
H8 H 0.0397 0.9479 0.1620
C14 C 0.0982(2) 0.9203(5) 0.13720(19)
C15 C 0.1474(2) 0.8551(6) 0.1473(2)
H9 H 0.1636 0.8650 0.1241
C16 C 0.1717(2) 0.7752(5) 0.1926(2)
H10 H 0.2045 0.7302 0.1999
C17 C 0.2427(2) 0.5609(6) 0.38655(19)
C18 C 0.3136(2) 0.7181(7) 0.4356(3)
H11 H 0.3346 0.6379 0.4515
H12 H 0.3189 0.7790 0.4647
C19 C 0.3336(3) 0.7785(8) 0.3998(3)
H13 H 0.3320 0.7146 0.3734
H14 H 0.3714 0.8073 0.4208
H15 H 0.3107 0.8534 0.3818
C20 C 0.14658(18) 0.2046(4) 0.35658(18)
C21 C 0.20958(19) 0.2042(5) 0.3893(2)
H16 H 0.2200 0.2622 0.4203
H17 H 0.2259 0.2399 0.3671
C22 C 0.2338(2) 0.0660(5) 0.4092(3)
H18 H 0.2276 0.0105 0.3783
H19 H 0.2737 0.0731 0.4318
C23 C 0.2073(3) 0.0020(6) 0.4412(3)
H20 H 0.2167 0.0525 0.4740
H21 H 0.2218 -0.0872 0.4515
C24 C 0.1441(3) -0.0039(5) 0.4080(3)
H22 H 0.1344 -0.0607 0.3767
H23 H 0.1277 -0.0412 0.4298
C25 C 0.1215(2) 0.1353(5) 0.3895(2)
H24 H 0.1287 0.1888 0.4212
H25 H 0.0814 0.1301 0.3678
C26 C 0.06677(19) 0.3488(5) 0.29038(19)
C27 C 0.0080(2) 0.3666(6) 0.1935(2)
H26 H 0.0099 0.4218 0.1657
H27 H -0.0172 0.4091 0.2050
C28 C -0.0149(2) 0.2335(7) 0.1699(3)
H28 H 0.0079 0.1948 0.1551
H29 H -0.0523 0.2435 0.1418
H30 H -0.0149 0.1768 0.1978
C29 C 0.1080(2) 0.3182(6) 0.22863(19)
C30 C 0.1172(3) 0.4070(7) 0.1906(2)
H31 H 0.1561 0.4278 0.2052
H32 H 0.0963 0.4874 0.1857
H33 H 0.1051 0.3632 0.1563
C31 C 0.1379(2) 0.2097(6) 0.2504(2)
C32 C 0.1864(2) 0.1651(7) 0.2410(3)
H34 H 0.1903 0.0704 0.2451
H35 H 0.2199 0.2070 0.2670
H36 H 0.1798 0.1894 0.2051
O11? O 0.5216(9) 0.472(2) 0.5024(11)
H73? H 0.5378 0.5170 0.4827
H74? H 0.5362 0.3888 0.5033
loop_
_geom_bond_atom_site_label_1
_geom_bond_atom_site_label_2
_geom_bond_site_symmetry_1
_geom_bond_site_symmetry_2
Br1 C14 1_555 1_555
Br2 C46 1_555 1_555
S1 C20 1_555 1_555
S2 C52 1_555 1_555
N1 C26 1_555 1_555
N2 C58 1_555 1_555
O1 C1 1_555 1_555
O2 C10 1_555 1_555
O3 C17 1_555 1_555
O4 C17 1_555 1_555
O5 C26 1_555 1_555
O6 C33 1_555 1_555
O7 C42 1_555 1_555
O8 C49 1_555 1_555
O9 C49 1_555 1_555
O10 C58 1_555 1_555
C1 C2 1_555 1_555
C2 C3 1_555 1_555
C3 H1 1_555 1_555
C4 C3 1_555 1_555
H2 C4 1_555 1_555
C5 C4 1_555 1_555
H3 C5 1_555 1_555
C6 C5 1_555 1_555
H4 C6 1_555 1_555
C7 C2 1_555 1_555
C8 O1 1_555 1_555
C9 C1 1_555 1_555
H5 C9 1_555 1_555
H6 C9 1_555 1_555
C10 C9 1_555 1_555
C11 C10 1_555 1_555
C12 C11 1_555 1_555
H7 C12 1_555 1_555
C13 C12 1_555 1_555
H8 C13 1_555 1_555
C14 C13 1_555 1_555
C15 C14 1_555 1_555
H9 C15 1_555 1_555
C16 C11 1_555 1_555
H10 C16 1_555 1_555
C17 C1 1_555 1_555
C18 O3 1_555 1_555
H11 C18 1_555 1_555
H12 C18 1_555 1_555
C19 C18 1_555 1_555
H13 C19 1_555 1_555
H14 C19 1_555 1_555
H15 C19 1_555 1_555
C20 C8 1_555 1_555
C21 C20 1_555 1_555
H16 C21 1_555 1_555
H17 C21 1_555 1_555
C22 C21 1_555 1_555
H18 C22 1_555 1_555
H19 C22 1_555 1_555
C23 C22 1_555 1_555
H20 C23 1_555 1_555
H21 C23 1_555 1_555
C24 C23 1_555 1_555
H22 C24 1_555 1_555
H23 C24 1_555 1_555
C25 C20 1_555 1_555
H24 C25 1_555 1_555
H25 C25 1_555 1_555
C26 C8 1_555 1_555
C27 N1 1_555 1_555
H26 C27 1_555 1_555
H27 C27 1_555 1_555
C28 C27 1_555 1_555
H28 C28 1_555 1_555
H29 C28 1_555 1_555
H30 C28 1_555 1_555
C29 N1 1_555 1_555
C30 C29 1_555 1_555
H31 C30 1_555 1_555
H32 C30 1_555 1_555
H33 C30 1_555 1_555
C31 S1 1_555 1_555
C32 C31 1_555 1_555
H34 C32 1_555 1_555
H35 C32 1_555 1_555
H36 C32 1_555 1_555
C33 C34 1_555 1_555
C34 C35 1_555 1_555
C35 H37 1_555 1_555
C36 C35 1_555 1_555
H38 C36 1_555 1_555
C37 C36 1_555 1_555
H39 C37 1_555 1_555
C38 C37 1_555 1_555
H40 C38 1_555 1_555
C39 C34 1_555 1_555
C40 O6 1_555 1_555
C41 C33 1_555 1_555
H41 C41 1_555 1_555
H42 C41 1_555 1_555
C42 C41 1_555 1_555
C43 C42 1_555 1_555
C44 C43 1_555 1_555
H43 C44 1_555 1_555
C45 C44 1_555 1_555
H44 C45 1_555 1_555
C46 C45 1_555 1_555
C47 C46 1_555 1_555
H45 C47 1_555 1_555
C48 C43 1_555 1_555
H46 C48 1_555 1_555
C49 C33 1_555 1_555
C50 O8 1_555 1_555
H47 C50 1_555 1_555
H48 C50 1_555 1_555
C51 C50 1_555 1_555
H49 C51 1_555 1_555
H50 C51 1_555 1_555
H51 C51 1_555 1_555
C52 C40 1_555 1_555
C53 C52 1_555 1_555
H52 C53 1_555 1_555
H53 C53 1_555 1_555
C54 C53 1_555 1_555
H54 C54 1_555 1_555
H55 C54 1_555 1_555
C55 C54 1_555 1_555
H56 C55 1_555 1_555
H57 C55 1_555 1_555
C56 C55 1_555 1_555
H58 C56 1_555 1_555
H59 C56 1_555 1_555
C57 C52 1_555 1_555
H60 C57 1_555 1_555
H61 C57 1_555 1_555
C58 C40 1_555 1_555
C59 N2 1_555 1_555
H62 C59 1_555 1_555
H63 C59 1_555 1_555
C60 C59 1_555 1_555
H64 C60 1_555 1_555
H65 C60 1_555 1_555
H66 C60 1_555 1_555
C61 N2 1_555 1_555
C62 C61 1_555 1_555
H67 C62 1_555 1_555
H68 C62 1_555 1_555
H69 C62 1_555 1_555
C63 S2 1_555 1_555
C64 C63 1_555 1_555
H70 C64 1_555 1_555
H71 C64 1_555 1_555
H72 C64 1_555 1_555
O12 H75 1_555 1_555
H76 O12 1_555 1_555
O13 H77 1_555 1_555
C65 H78 1_555 1_555
H79 C65 1_555 1_555
H80 C65 1_555 1_555
C66 O13 1_555 1_555
H81 C66 1_555 1_555
H82 C66 1_555 1_555
H77B O13 1_555 1_555
C65B H78B 1_555 1_555
H79B C65B 1_555 1_555
H80B C65B 1_555 1_555
C66B O13 1_555 1_555
H81B C66B 1_555 1_555
H82B C66B 1_555 1_555
C6 C7 1_555 1_555
C7 C8 1_555 1_555
C15 C16 1_555 1_555
C24 C25 1_555 1_555
C29 C31 1_555 1_555
C38 C39 1_555 1_555
C39 C40 1_555 1_555
C47 C48 1_555 1_555
C56 C57 1_555 1_555
C61 C63 1_555 1_555
C65 C66 1_555 1_555
C65B C66B 1_555 1_555

#END
