
#######################################################################
#
#                 Cambridge Crystallographic Data Centre
#                                CCDC 
#
#######################################################################
#
# If this CIF has been generated from an entry in the Cambridge 
# Structural Database, then it will include bibliographic, chemical, 
# crystal, experimental, refinement or atomic coordinate data resulting 
# from the CCDC's data processing and validation procedures.
#
#######################################################################

data_XOLMAO01
_chemical_formula_moiety         'C6 H15 N2 1+,H4 B5 O10 1-'
_chemical_name_systematic        
"1,4-Dimethylpiperazin-1-ium 1,1'-spiro-bis(3,5-dihydroxy-2,4,6-trioxa-1,3,5-triboracyclohexane)"
_symmetry_cell_setting           triclinic
_symmetry_space_group_name_H-M   'P -1'
_symmetry_Int_Tables_number      2
_space_group_name_Hall           '-P 1'
loop_
_symmetry_equiv_pos_site_id
_symmetry_equiv_pos_as_xyz
1 x,y,z
2 -x,-y,-z
_cell_length_a                   8.743(6)
_cell_length_b                   9.257(7)
_cell_length_c                   10.304(8)
_cell_angle_alpha                77.905(9)
_cell_angle_beta                 75.289(6)
_cell_angle_gamma                87.617(9)
_cell_volume                     788.641
_exptl_crystal_colour            white
_exptl_crystal_description       block
_cell_formula_units_Z            2
loop_
_atom_site_label
_atom_site_type_symbol
_atom_site_fract_x
_atom_site_fract_y
_atom_site_fract_z
N1 N 1.0557(2) 1.1506(2) 0.20561(19)
N2 N 1.2125(2) 1.1405(2) -0.07192(19)
H1 H 1.1274 1.1046 -0.0913
C1 C 1.2486(3) 1.0367(3) 0.0420(3)
H2 H 1.3348 1.0756 0.0685
H3 H 1.2825 0.9443 0.0140
C2 C 1.0261(3) 1.2611(3) 0.0868(3)
H4 H 1.0009 1.3556 0.1132
H5 H 0.9363 1.2291 0.0603
C3 C 1.1075(3) 1.0088(3) 0.1617(3)
H6 H 1.0221 0.9667 0.1366
H7 H 1.1339 0.9389 0.2369
C4 C 1.1694(3) 1.2783(3) -0.0328(3)
H8 H 1.1472 1.3484 -0.1099
H9 H 1.2571 1.3171 -0.0082
C5 C 0.9153(4) 1.1260(6) 0.3260(4)
H10 H 0.8859 1.2179 0.3543
H11 H 0.9411 1.0561 0.4002
H12 H 0.8286 1.0883 0.3010
C6 C 1.3429(4) 1.1584(5) -0.1951(3)
H13 H 1.3150 1.2297 -0.2673
H14 H 1.3637 1.0654 -0.2230
H15 H 1.4357 1.1919 -0.1760
O1 O 0.62589(13) 0.52016(13) 0.83569(12)
O2 O 0.63529(17) 0.33922(15) 1.03516(14)
H16 H 0.5593 0.3864 1.0684
B1 B 0.6932(2) 0.4021(2) 0.9005(2)
O3 O 0.84015(14) 0.52626(13) 0.63241(12)
O4 O 0.82967(16) 0.34247(15) 0.83301(13)
O5 O 0.57744(15) 0.57840(14) 0.61026(13)
O6 O 0.38392(19) 0.67896(18) 0.49028(17)
H17 H 0.3966 0.6011 0.4631
O7 O 0.51534(17) 0.83330(15) 0.57359(16)
O8 O 0.68158(18) 1.00107(15) 0.62415(17)
H18 H 0.6379 1.0597 0.5741
O9 O 0.72003(14) 0.74993(13) 0.68558(13)
B2 B 0.4931(3) 0.6916(3) 0.5596(2)
B3 B 0.6381(3) 0.8614(2) 0.6271(2)
B4 B 0.6907(2) 0.5930(2) 0.6913(2)
O10 O 1.03238(18) 0.33862(17) 0.63779(15)
H19 H 1.0650 0.3825 0.5580
B5 B 0.9006(2) 0.4041(2) 0.6977(2)
loop_
_geom_bond_atom_site_label_1
_geom_bond_atom_site_label_2
_geom_bond_site_symmetry_1
_geom_bond_site_symmetry_2
N1 C2 1_555 1_555
N2 H1 1_555 1_555
C1 N2 1_555 1_555
H2 C1 1_555 1_555
H3 C1 1_555 1_555
C2 H4 1_555 1_555
H5 C2 1_555 1_555
C3 N1 1_555 1_555
H6 C3 1_555 1_555
H7 C3 1_555 1_555
C4 N2 1_555 1_555
H8 C4 1_555 1_555
H9 C4 1_555 1_555
C5 N1 1_555 1_555
H10 C5 1_555 1_555
H11 C5 1_555 1_555
H12 C5 1_555 1_555
C6 N2 1_555 1_555
H13 C6 1_555 1_555
H14 C6 1_555 1_555
H15 C6 1_555 1_555
O1 B1 1_555 1_555
O2 H16 1_555 1_555
B1 O2 1_555 1_555
O3 B4 1_555 1_555
O4 B1 1_555 1_555
O5 B2 1_555 1_555
O6 H17 1_555 1_555
O7 B2 1_555 1_555
O8 H18 1_555 1_555
O9 B3 1_555 1_555
B2 O6 1_555 1_555
B3 O7 1_555 1_555
B4 O1 1_555 1_555
O10 H19 1_555 1_555
B5 O3 1_555 1_555
C1 C3 1_555 1_555
C2 C4 1_555 1_555
O4 B5 1_555 1_555
O5 B4 1_555 1_555
O8 B3 1_555 1_555
O9 B4 1_555 1_555
O10 B5 1_555 1_555

#END
