
#######################################################################
#
#                 Cambridge Crystallographic Data Centre
#                                CCDC 
#
#######################################################################
#
# If this CIF has been generated from an entry in the Cambridge 
# Structural Database, then it will include bibliographic, chemical, 
# crystal, experimental, refinement or atomic coordinate data resulting 
# from the CCDC's data processing and validation procedures.
#
#######################################################################

data_XOLQIA
_chemical_formula_moiety         'C15 H11 B1 F2 N2 O1'
_chemical_name_systematic        
5,5-Difluoro-10-phenoxy-5H-4\l^5^,5\l^5^-dipyrrolo[1,2-c:2',1'-f][1,3,2]diazaborinine
_symmetry_cell_setting           triclinic
_symmetry_space_group_name_H-M   'P -1'
_symmetry_Int_Tables_number      2
_space_group_name_Hall           '-P 1'
loop_
_symmetry_equiv_pos_site_id
_symmetry_equiv_pos_as_xyz
1 x,y,z
2 -x,-y,-z
_cell_length_a                   5.5578(5)
_cell_length_b                   10.8386(10)
_cell_length_c                   11.0174(10)
_cell_angle_alpha                87.304(8)
_cell_angle_beta                 79.109(7)
_cell_angle_gamma                78.784(8)
_cell_volume                     639.237
_exptl_crystal_colour            yellow
_cell_formula_units_Z            2
loop_
_atom_site_label
_atom_site_type_symbol
_atom_site_fract_x
_atom_site_fract_y
_atom_site_fract_z
F1 F 0.29908(18) 0.88056(9) 0.56020(9)
F2 F 0.11794(19) 0.72620(10) 0.50466(9)
O1 O 0.2093(2) 0.66172(12) 0.98312(11)
N1 N -0.0237(2) 0.81186(13) 0.71088(12)
N2 N 0.3916(2) 0.67369(13) 0.65357(12)
C1 C 0.6053(3) 0.56052(16) 0.79120(16)
C2 C -0.3215(3) 0.70328(17) 1.24313(16)
C3 C -0.1611(3) 0.65510(16) 1.13591(16)
C4 C 0.1841(3) 0.70175(15) 0.86791(15)
C5 C 0.3862(3) 0.64664(15) 0.77801(15)
C6 C -0.0720(3) 0.85997(17) 1.25297(17)
C7 C -0.2435(3) 0.88606(16) 0.70111(17)
C8 C -0.2532(3) 0.85012(15) 0.90392(17)
C9 C -0.0230(3) 0.78622(15) 0.83634(15)
C10 C 0.0874(3) 0.81412(16) 1.14483(16)
C11 C -0.3901(3) 0.91149(16) 0.81843(17)
C12 C 0.0379(3) 0.71314(15) 1.08871(15)
C13 C 0.7423(3) 0.53511(17) 0.67348(17)
C14 C 0.6066(3) 0.60609(17) 0.59090(16)
C15 C -0.2773(3) 0.80531(17) 1.30104(16)
B1 B 0.1973(4) 0.77401(18) 0.60079(17)
H1 H -0.307(3) 0.8485(16) 0.9906(18)
H2 H -0.283(3) 0.9149(18) 0.6207(19)
H3 H 0.645(3) 0.5261(17) 0.8684(18)
H4 H 0.649(3) 0.6144(16) 0.5002(18)
H5 H -0.559(4) 0.9628(18) 0.8347(18)
H6 H -0.188(4) 0.582(2) 1.093(2)
H7 H -0.389(4) 0.8368(18) 1.3775(19)
H8 H 0.232(4) 0.8478(19) 1.1090(19)
H9 H -0.046(4) 0.931(2) 1.296(2)
H10 H -0.465(4) 0.6658(19) 1.2777(18)
H11 H 0.903(4) 0.4772(19) 0.6503(19)
loop_
_geom_bond_atom_site_label_1
_geom_bond_atom_site_label_2
_geom_bond_site_symmetry_1
_geom_bond_site_symmetry_2
F1 B1 1_555 1_555
F2 B1 1_555 1_555
O1 C4 1_555 1_555
N1 C7 1_555 1_555
N2 C5 1_555 1_555
C1 C5 1_555 1_555
C2 C3 1_555 1_555
C3 C12 1_555 1_555
C4 C5 1_555 1_555
C6 C10 1_555 1_555
C7 C11 1_555 1_555
C8 C9 1_555 1_555
C9 N1 1_555 1_555
C10 C12 1_555 1_555
C11 C8 1_555 1_555
C12 O1 1_555 1_555
C13 C1 1_555 1_555
C14 N2 1_555 1_555
C15 C2 1_555 1_555
B1 N1 1_555 1_555
H1 C8 1_555 1_555
H2 C7 1_555 1_555
H3 C1 1_555 1_555
H4 C14 1_555 1_555
H5 C11 1_555 1_555
H6 C3 1_555 1_555
H7 C15 1_555 1_555
H8 C10 1_555 1_555
H9 C6 1_555 1_555
H10 C2 1_555 1_555
H11 C13 1_555 1_555
N2 B1 1_555 1_555
C4 C9 1_555 1_555
C6 C15 1_555 1_555
C13 C14 1_555 1_555

#END
