
#######################################################################
#
#                 Cambridge Crystallographic Data Centre
#                                CCDC 
#
#######################################################################
#
# If this CIF has been generated from an entry in the Cambridge 
# Structural Database, then it will include bibliographic, chemical, 
# crystal, experimental, refinement or atomic coordinate data resulting 
# from the CCDC's data processing and validation procedures.
#
#######################################################################

data_XOLRUN
_chemical_formula_moiety         'C20 H14 N4 O2'
_chemical_name_systematic        
6-(4-Nitrophenyl)-5,6-dihydrobenzimidazo[1,2-c]quinazoline
_symmetry_cell_setting           orthorhombic
_symmetry_space_group_name_H-M   'P c a 21'
_symmetry_Int_Tables_number      29
_space_group_name_Hall           'P 2c -2ac'
loop_
_symmetry_equiv_pos_site_id
_symmetry_equiv_pos_as_xyz
1 x,y,z
2 -x,-y,1/2+z
3 1/2-x,y,1/2+z
4 1/2+x,-y,z
_cell_length_a                   12.0792(5)
_cell_length_b                   9.1171(4)
_cell_length_c                   15.1341(7)
_cell_angle_alpha                90
_cell_angle_beta                 90
_cell_angle_gamma                90
_cell_volume                     1666.68
_cell_formula_units_Z            4
loop_
_atom_site_label
_atom_site_type_symbol
_atom_site_fract_x
_atom_site_fract_y
_atom_site_fract_z
O1 O 0.66849(13) 1.02594(17) 0.17510(12)
O2 O 0.76135(12) 0.94055(18) 0.28540(16)
C1 C 0.13451(10) 0.61389(15) 0.25697(10)
N1 N 0.21190(9) 0.62744(14) 0.32261(9)
C2 C 0.41285(10) 0.66757(15) 0.30350(10)
C3 C 0.06766(11) 0.77014(15) 0.34915(10)
C4 C 0.10390(17) 0.39441(19) 0.04863(12)
H1 H 0.0541 0.3815 0.0024
C5 C 0.08356(14) 0.49685(19) 0.11354(11)
H2 H 0.0204 0.5550 0.1100
C6 C 0.15588(11) 0.51483(15) 0.18425(10)
C7 C 0.32067(10) 0.55842(16) 0.32436(11)
H3 H 0.3332 0.5200 0.3840
C8 C 0.40553(13) 0.76016(17) 0.23184(11)
H4 H 0.3419 0.7604 0.1973
C9 C 0.49221(14) 0.85255(18) 0.21103(12)
H5 H 0.4872 0.9161 0.1631
C10 C 0.58572(11) 0.84894(16) 0.26221(12)
N2 N 0.67858(12) 0.94614(17) 0.23931(14)
C11 C 0.50760(12) 0.66797(17) 0.35564(11)
H6 H 0.5121 0.6068 0.4047
C12 C 0.59531(12) 0.75936(18) 0.33457(12)
H7 H 0.6593 0.7599 0.3688
C13 C 0.17201(11) 0.72952(17) 0.38256(10)
C14 C 0.00466(13) 0.87481(18) 0.39395(12)
H8 H -0.0648 0.9027 0.3734
C15 C 0.04870(17) 0.9355(2) 0.46964(12)
H9 H 0.0082 1.0059 0.5002
C16 C 0.15221(18) 0.8943(2) 0.50155(12)
H10 H 0.1792 0.9380 0.5527
C17 C 0.21597(15) 0.7898(2) 0.45897(12)
H11 H 0.2848 0.7615 0.4805
N3 N 0.04580(9) 0.69552(13) 0.27105(8)
C18 C 0.25258(12) 0.42866(16) 0.18940(12)
N4 N 0.31937(10) 0.43533(14) 0.26336(11)
H12 H 0.3627 0.3625 0.2739
C19 C 0.27362(14) 0.32708(19) 0.12158(14)
H13 H 0.3377 0.2707 0.1230
C20 C 0.19961(18) 0.3108(2) 0.05307(13)
H14 H 0.2141 0.2425 0.0089
loop_
_geom_bond_atom_site_label_1
_geom_bond_atom_site_label_2
_geom_bond_site_symmetry_1
_geom_bond_site_symmetry_2
O1 N2 1_555 1_555
O2 N2 1_555 1_555
C1 N1 1_555 1_555
N1 C7 1_555 1_555
C2 C7 1_555 1_555
C3 C13 1_555 1_555
C4 H1 1_555 1_555
C5 C4 1_555 1_555
H2 C5 1_555 1_555
C6 C1 1_555 1_555
C7 H3 1_555 1_555
C8 C2 1_555 1_555
H4 C8 1_555 1_555
C9 C8 1_555 1_555
H5 C9 1_555 1_555
C10 C9 1_555 1_555
N2 C10 1_555 1_555
C11 C2 1_555 1_555
H6 C11 1_555 1_555
C12 C10 1_555 1_555
H7 C12 1_555 1_555
C13 N1 1_555 1_555
C14 C3 1_555 1_555
H8 C14 1_555 1_555
C15 C14 1_555 1_555
H9 C15 1_555 1_555
C16 C15 1_555 1_555
H10 C16 1_555 1_555
C17 C13 1_555 1_555
H11 C17 1_555 1_555
N3 C1 1_555 1_555
C18 C6 1_555 1_555
N4 C7 1_555 1_555
H12 N4 1_555 1_555
C19 C18 1_555 1_555
H13 C19 1_555 1_555
C20 C4 1_555 1_555
H14 C20 1_555 1_555
C3 N3 1_555 1_555
C5 C6 1_555 1_555
C11 C12 1_555 1_555
C16 C17 1_555 1_555
C18 N4 1_555 1_555
C19 C20 1_555 1_555

#END
