
#######################################################################
#
#                 Cambridge Crystallographic Data Centre
#                                CCDC 
#
#######################################################################
#
# If this CIF has been generated from an entry in the Cambridge 
# Structural Database, then it will include bibliographic, chemical, 
# crystal, experimental, refinement or atomic coordinate data resulting 
# from the CCDC's data processing and validation procedures.
#
#######################################################################

data_XOLTUN
_chemical_formula_moiety         'C60 H40,2(C1 H2 Cl2)'
_chemical_name_systematic        'Octaphenylbiphenylene dichloromethane solvate'
_symmetry_cell_setting           orthorhombic
_symmetry_space_group_name_H-M   'P b c n'
_symmetry_Int_Tables_number      60
_space_group_name_Hall           '-P 2n 2ab'
loop_
_symmetry_equiv_pos_site_id
_symmetry_equiv_pos_as_xyz
1 x,y,z
2 1/2+x,1/2+y,1/2-z
3 x,-y,1/2+z
4 1/2-x,1/2+y,z
5 -x,-y,-z
6 1/2-x,1/2-y,1/2+z
7 -x,y,1/2-z
8 1/2+x,1/2-y,-z
_cell_length_a                   18.6482(5)
_cell_length_b                   24.2381(8)
_cell_length_c                   10.5573(3)
_cell_angle_alpha                90
_cell_angle_beta                 90
_cell_angle_gamma                90
_cell_volume                     4771.87
_exptl_crystal_colour            colorless
_exptl_crystal_description       Needle
_cell_formula_units_Z            4
loop_
_atom_site_label
_atom_site_type_symbol
_atom_site_fract_x
_atom_site_fract_y
_atom_site_fract_z
C1 C 0.03627(14) -0.00652(11) 0.2668(2)
C2 C 0.07655(14) 0.04392(11) 0.2786(2)
C3 C 0.03728(14) 0.09120(11) 0.2628(2)
C4 C 0.03723(14) 0.15396(11) 0.2635(2)
C5 C 0.07683(14) 0.20103(11) 0.2744(2)
C6 C 0.03731(14) 0.25148(11) 0.2597(2)
C7 C 0.07283(14) -0.06000(11) 0.2976(2)
C8 C 0.0552(2) -0.08708(12) 0.4083(3)
H1 H 0.0167(2) -0.07389(12) 0.4590(3)
C9 C 0.0933(2) -0.13350(13) 0.4462(3)
H2 H 0.0810(2) -0.15165(13) 0.5230(3)
C10 C 0.1488(2) -0.15335(13) 0.3733(3)
H3 H 0.1755(2) -0.18457(13) 0.4006(3)
C11 C 0.1654(2) -0.12795(12) 0.2613(3)
H4 H 0.2027(2) -0.14231(12) 0.2095(3)
C12 C 0.1281(2) -0.08132(12) 0.2232(3)
H5 H 0.1403(2) -0.06374(12) 0.1457(3)
C13 C 0.15523(14) 0.04426(10) 0.3049(2)
C14 C 0.18429(15) 0.02076(11) 0.4133(3)
H6 H 0.15356(15) 0.00332(11) 0.4729(3)
C15 C 0.2572(2) 0.02239(12) 0.4359(3)
H7 H 0.2762(2) 0.00651(12) 0.5110(3)
C16 C 0.3025(2) 0.04709(13) 0.3494(3)
H8 H 0.3527(2) 0.04833(13) 0.3650(3)
C17 C 0.2748(2) 0.06997(12) 0.2401(3)
H9 H 0.3059(2) 0.08649(12) 0.1799(3)
C18 C 0.20178(15) 0.06891(11) 0.2182(3)
H10 H 0.18305(15) 0.08514(11) 0.1433(3)
C19 C 0.15563(14) 0.20066(10) 0.2973(2)
C20 C 0.18263(15) 0.17997(12) 0.4111(3)
H11 H 0.15068(15) 0.16591(12) 0.4733(3)
C21 C 0.2557(2) 0.17985(13) 0.4338(3)
H12 H 0.2736(2) 0.16600(13) 0.5118(3)
C22 C 0.3027(2) 0.19966(13) 0.3440(3)
H13 H 0.3528(2) 0.19934(13) 0.3598(3)
C23 C 0.2766(2) 0.22002(13) 0.2307(3)
H14 H 0.3089(2) 0.23365(13) 0.1685(3)
C24 C 0.2036(2) 0.22060(12) 0.2076(3)
H15 H 0.1860(2) 0.23478(12) 0.1296(3)
C25 C 0.07688(14) 0.30549(11) 0.2608(3)
C26 C 0.1166(2) 0.32250(13) 0.3654(3)
C27 C 0.1523(2) 0.37284(14) 0.3631(3)
H17 H 0.1788(2) 0.38451(14) 0.4350(3)
C28 C 0.1494(2) 0.40575(14) 0.2576(4)
H18 H 0.1742(2) 0.43999(14) 0.2566(4)
C29 C 0.1109(2) 0.38935(13) 0.1538(4)
H19 H 0.1089(2) 0.41225(13) 0.0808(4)
C30 C 0.0750(2) 0.33962(12) 0.1551(3)
H20 H 0.0485(2) 0.32851(12) 0.0826(3)
C1F C -0.03627(14) -0.00652(11) 0.2332(2)
C2F C -0.07655(14) 0.04392(11) 0.2214(2)
C3F C -0.03728(14) 0.09120(11) 0.2372(2)
C4F C -0.03723(14) 0.15396(11) 0.2365(2)
C5F C -0.07683(14) 0.20103(11) 0.2256(2)
C6F C -0.03731(14) 0.25148(11) 0.2403(2)
C25F C -0.07688(14) 0.30549(11) 0.2392(3)
C26F C -0.1166(2) 0.32250(13) 0.1346(3)
C27F C -0.1523(2) 0.37284(14) 0.1369(3)
H17F H -0.1788(2) 0.38451(14) 0.0650(3)
C28F C -0.1494(2) 0.40575(14) 0.2424(4)
H18F H -0.1742(2) 0.43999(14) 0.2434(4)
C29F C -0.1109(2) 0.38935(13) 0.3462(4)
H19F H -0.1089(2) 0.41225(13) 0.4192(4)
C30F C -0.0750(2) 0.33962(12) 0.3449(3)
H20F H -0.0485(2) 0.32851(12) 0.4174(3)
C19F C -0.15563(14) 0.20066(10) 0.2027(2)
C20F C -0.18263(15) 0.17997(12) 0.0889(3)
H11F H -0.15068(15) 0.16591(12) 0.0267(3)
C21F C -0.2557(2) 0.17985(13) 0.0662(3)
H12F H -0.2736(2) 0.16600(13) -0.0118(3)
C22F C -0.3027(2) 0.19966(13) 0.1560(3)
H13F H -0.3528(2) 0.19934(13) 0.1402(3)
C23F C -0.2766(2) 0.22002(13) 0.2693(3)
H14F H -0.3089(2) 0.23365(13) 0.3315(3)
C24F C -0.2036(2) 0.22060(12) 0.2924(3)
H15F H -0.1860(2) 0.23478(12) 0.3704(3)
C13F C -0.15523(14) 0.04426(10) 0.1951(2)
C14F C -0.18429(15) 0.02076(11) 0.0867(3)
H6F H -0.15356(15) 0.00332(11) 0.0271(3)
C15F C -0.2572(2) 0.02239(12) 0.0641(3)
H7F H -0.2762(2) 0.00651(12) -0.0110(3)
C16F C -0.3025(2) 0.04709(13) 0.1506(3)
H8F H -0.3527(2) 0.04833(13) 0.1350(3)
C17F C -0.2748(2) 0.06997(12) 0.2599(3)
H9F H -0.3059(2) 0.08649(12) 0.3201(3)
C18F C -0.20178(15) 0.06891(11) 0.2818(3)
H10F H -0.18305(15) 0.08514(11) 0.3567(3)
C7F C -0.07283(14) -0.06000(11) 0.2024(2)
C8F C -0.0552(2) -0.08708(12) 0.0917(3)
H1F H -0.0167(2) -0.07389(12) 0.0410(3)
C9F C -0.0933(2) -0.13350(13) 0.0538(3)
H2F H -0.0810(2) -0.15165(13) -0.0230(3)
C10F C -0.1488(2) -0.15335(13) 0.1267(3)
H3F H -0.1755(2) -0.18457(13) 0.0994(3)
C11F C -0.1654(2) -0.12795(12) 0.2387(3)
H4F H -0.2027(2) -0.14231(12) 0.2905(3)
C12F C -0.1281(2) -0.08132(12) 0.2768(3)
H5F H -0.1403(2) -0.06374(12) 0.3543(3)
Cl1 Cl 0.46912(10) 0.05202(9) 0.1247(2)
C31 C 0.5000 0.0112(4) 0.2500
H21 H 0.5394 -0.0128(4) 0.2197
H22 H 0.4606 -0.0128(4) 0.2803
Cl1F Cl 0.53088(10) 0.05202(9) 0.3753(2)
Cl2 Cl 0.01595(12) 0.25574(12) 0.6132(3)
C32 C 0.0000 0.2232(3) 0.7500
H23 H 0.0417 0.1987(3) 0.7652
H24 H -0.0417 0.1987(3) 0.7348
Cl2F Cl -0.01595(12) 0.25574(12) 0.8868(3)
H16? H 0.1192(2) 0.29971(13) 0.4385(3)
C33? C 0.0260(32) 0.3048(8) 0.6659(31)
H25? H 0.0739(32) 0.3220(8) 0.6741(31)
H26? H -0.0038(32) 0.3275(8) 0.6082(31)
Cl3? Cl -0.0156(10) 0.2974(6) 0.8154(14)
Cl4? Cl 0.0329(10) 0.2360(7) 0.6105(17)
loop_
_geom_bond_atom_site_label_1
_geom_bond_atom_site_label_2
_geom_bond_site_symmetry_1
_geom_bond_site_symmetry_2
C1 C2 1_555 1_555
C2 C3 1_555 1_555
C3 C4 1_555 1_555
C4 C5 1_555 1_555
C5 C6 1_555 1_555
C6 C25 1_555 1_555
C7 C1 1_555 1_555
C8 C7 1_555 1_555
H1 C8 1_555 1_555
C9 C8 1_555 1_555
H2 C9 1_555 1_555
C10 C9 1_555 1_555
H3 C10 1_555 1_555
C11 C10 1_555 1_555
H4 C11 1_555 1_555
C12 C7 1_555 1_555
H5 C12 1_555 1_555
C13 C2 1_555 1_555
C14 C13 1_555 1_555
H6 C14 1_555 1_555
C15 C14 1_555 1_555
H7 C15 1_555 1_555
C16 C15 1_555 1_555
H8 C16 1_555 1_555
C17 C16 1_555 1_555
H9 C17 1_555 1_555
C18 C13 1_555 1_555
H10 C18 1_555 1_555
C19 C5 1_555 1_555
C20 C19 1_555 1_555
H11 C20 1_555 1_555
C21 C20 1_555 1_555
H12 C21 1_555 1_555
C22 C21 1_555 1_555
H13 C22 1_555 1_555
C23 C22 1_555 1_555
H14 C23 1_555 1_555
C24 C19 1_555 1_555
H15 C24 1_555 1_555
C25 C26 1_555 1_555
C26 C27 1_555 1_555
C27 H17 1_555 1_555
C28 C27 1_555 1_555
H18 C28 1_555 1_555
C29 C28 1_555 1_555
H19 C29 1_555 1_555
C30 C25 1_555 1_555
H20 C30 1_555 1_555
Cl1 C31 1_555 1_555
C31 H21 1_555 1_555
H22 C31 1_555 1_555
Cl2 C32 1_555 1_555
C32 H23 1_555 1_555
H24 C32 1_555 1_555
C1F C1 1_555 1_555
C2F C1F 1_555 1_555
C3F C3 1_555 1_555
C4F C4 1_555 1_555
C5F C4F 1_555 1_555
C6F C6 1_555 1_555
C25F C6F 1_555 1_555
C26F C25F 1_555 1_555
C27F C26F 1_555 1_555
H17F C27F 1_555 1_555
C28F C27F 1_555 1_555
H18F C28F 1_555 1_555
C29F C28F 1_555 1_555
H19F C29F 1_555 1_555
C30F C25F 1_555 1_555
H20F C30F 1_555 1_555
C19F C5F 1_555 1_555
C20F C19F 1_555 1_555
H11F C20F 1_555 1_555
C21F C20F 1_555 1_555
H12F C21F 1_555 1_555
C22F C21F 1_555 1_555
H13F C22F 1_555 1_555
C23F C22F 1_555 1_555
H14F C23F 1_555 1_555
C24F C19F 1_555 1_555
H15F C24F 1_555 1_555
C13F C2F 1_555 1_555
C14F C13F 1_555 1_555
H6F C14F 1_555 1_555
C15F C14F 1_555 1_555
H7F C15F 1_555 1_555
C16F C15F 1_555 1_555
H8F C16F 1_555 1_555
C17F C16F 1_555 1_555
H9F C17F 1_555 1_555
C18F C13F 1_555 1_555
H10F C18F 1_555 1_555
C7F C1F 1_555 1_555
C8F C7F 1_555 1_555
H1F C8F 1_555 1_555
C9F C8F 1_555 1_555
H2F C9F 1_555 1_555
C10F C9F 1_555 1_555
H3F C10F 1_555 1_555
C11F C10F 1_555 1_555
H4F C11F 1_555 1_555
C12F C7F 1_555 1_555
H5F C12F 1_555 1_555
Cl1F C31 1_555 1_555
Cl2F C32 1_555 1_555
C11 C12 1_555 1_555
C17 C18 1_555 1_555
C23 C24 1_555 1_555
C29 C30 1_555 1_555
C2F C3F 1_555 1_555
C3F C4F 1_555 1_555
C5F C6F 1_555 1_555
C29F C30F 1_555 1_555
C23F C24F 1_555 1_555
C17F C18F 1_555 1_555
C11F C12F 1_555 1_555

#END
