
#######################################################################
#
#                 Cambridge Crystallographic Data Centre
#                                CCDC 
#
#######################################################################
#
# If this CIF has been generated from an entry in the Cambridge 
# Structural Database, then it will include bibliographic, chemical, 
# crystal, experimental, refinement or atomic coordinate data resulting 
# from the CCDC's data processing and validation procedures.
#
#######################################################################

data_XOLVAV
_chemical_formula_moiety         'C92 H62,C1 H2 Cl2'
_chemical_name_systematic        
'1,2,3,4,5,6,7,8,13,14,15,16-Dodecaphenyltriptycene dichloromethane solvate'
_symmetry_cell_setting           monoclinic
_symmetry_space_group_name_H-M   'P 21/c'
_symmetry_Int_Tables_number      14
_space_group_name_Hall           '-P 2ybc'
loop_
_symmetry_equiv_pos_site_id
_symmetry_equiv_pos_as_xyz
1 x,y,z
2 x,1/2-y,1/2+z
3 -x,-y,-z
4 -x,1/2+y,1/2-z
_cell_length_a                   19.2738(4)
_cell_length_b                   28.5548(5)
_cell_length_c                   32.3310(5)
_cell_angle_alpha                90
_cell_angle_beta                 125.4847(8)
_cell_angle_gamma                90
_cell_volume                     14488.9
_exptl_crystal_colour            colorless
_exptl_crystal_description       Prism
_chemical_melting_point          'above 450 deg.C'
_cell_formula_units_Z            8
_exptl_crystal_recrystallization_method dichloromethane/methanol
loop_
_atom_site_label
_atom_site_type_symbol
_atom_site_fract_x
_atom_site_fract_y
_atom_site_fract_z
C1 C 0.5481(3) 0.20452(14) 0.26399(15)
C2 C 0.5381(3) 0.21547(14) 0.3031(2)
C3 C 0.5677(3) 0.25777(14) 0.3296(2)
C4 C 0.6099(3) 0.29081(14) 0.3182(2)
C5 C 0.6243(2) 0.27829(13) 0.28204(14)
C6 C 0.8316(3) 0.28797(14) 0.30385(15)
C7 C 0.8891(3) 0.25568(14) 0.30615(15)
C8 C 0.8614(3) 0.21077(14) 0.28440(15)
C9 C 0.7733(3) 0.19919(13) 0.25580(14)
C10 C 0.7164(2) 0.23336(13) 0.25065(14)
C11 C 0.6196(2) 0.22831(13) 0.21917(14)
H1 H 0.5992(2) 0.19762(13) 0.20098(14)
C12 C 0.5954(2) 0.23553(13) 0.25604(14)
C13 C 0.6720(2) 0.30728(13) 0.26599(14)
H2 H 0.6922(2) 0.33802(13) 0.28408(14)
C14 C 0.7457(3) 0.27652(13) 0.27557(15)
C15 C 0.6126(2) 0.31294(14) 0.20838(15)
C16 C 0.5841(2) 0.27014(13) 0.18284(15)
C17 C 0.5320(2) 0.26804(14) 0.12988(14)
C18 C 0.5073(2) 0.31039(14) 0.10198(15)
C19 C 0.5368(2) 0.35346(14) 0.1276(2)
C20 C 0.5889(2) 0.35502(14) 0.1816(2)
C21 C 0.5039(3) 0.16267(14) 0.23157(15)
C22 C 0.5481(3) 0.12509(14) 0.2295(2)
H3 H 0.6085(3) 0.12629(14) 0.2481(2)
C23 C 0.5040(3) 0.0858(2) 0.2003(2)
H4 H 0.5342(3) 0.0604(2) 0.1987(2)
C24 C 0.4166(3) 0.0837(2) 0.1736(2)
H5 H 0.3868(3) 0.0565(2) 0.1545(2)
C25 C 0.3726(3) 0.1212(2) 0.1747(2)
H6 H 0.3122(3) 0.1201(2) 0.1556(2)
C26 C 0.4158(3) 0.1602(2) 0.2032(2)
H7 H 0.3847(3) 0.1858(2) 0.2036(2)
C27 C 0.4934(3) 0.1805(2) 0.3148(2)
C28 C 0.5295(3) 0.1361(2) 0.3328(2)
H8 H 0.5824(3) 0.1290(2) 0.3382(2)
C29 C 0.4896(4) 0.1022(2) 0.3429(2)
H9 H 0.5149(4) 0.0722(2) 0.3550(2)
C30 C 0.4130(4) 0.1124(2) 0.3351(2)
H10 H 0.3851(4) 0.0892(2) 0.3417(2)
C31 C 0.3764(4) 0.1562(2) 0.3179(2)
H11 H 0.3239(4) 0.1631(2) 0.3130(2)
C32 C 0.4164(3) 0.1900(2) 0.3077(2)
H12 H 0.3908(3) 0.2199(2) 0.2958(2)
C33 C 0.5530(3) 0.26748(14) 0.3696(2)
C34 C 0.4945(3) 0.3012(2) 0.3618(2)
H13 H 0.4683(3) 0.3210(2) 0.3329(2)
C35 C 0.4745(3) 0.3057(2) 0.3962(2)
H14 H 0.4336(3) 0.3283(2) 0.3904(2)
C36 C 0.5128(3) 0.2780(2) 0.4388(2)
H15 H 0.4975(3) 0.2809(2) 0.4619(2)
C37 C 0.5736(3) 0.2459(2) 0.4478(2)
H16 H 0.6025(3) 0.2276(2) 0.4780(2)
C38 C 0.5922(3) 0.2405(2) 0.4131(2)
H17 H 0.6330(3) 0.2177(2) 0.4191(2)
C39 C 0.6362(3) 0.33752(14) 0.3436(2)
C40 C 0.6064(3) 0.3782(2) 0.3139(2)
H18 H 0.5696(3) 0.3758(2) 0.2780(2)
C41 C 0.6304(3) 0.4220(2) 0.3367(2)
H19 H 0.6106(3) 0.4493(2) 0.3162(2)
C42 C 0.6824(3) 0.4260(2) 0.3887(2)
H20 H 0.6989(3) 0.4560(2) 0.4042(2)
C43 C 0.7109(3) 0.3857(2) 0.4184(2)
H21 H 0.7458(3) 0.3884(2) 0.4544(2)
C44 C 0.6890(3) 0.3419(2) 0.3964(2)
H22 H 0.7100(3) 0.3147(2) 0.4171(2)
C45 C 0.8641(3) 0.33350(14) 0.3323(2)
C46 C 0.8528(3) 0.3433(2) 0.3701(2)
H23 H 0.8222(3) 0.3220(2) 0.3765(2)
C47 C 0.8853(4) 0.3833(2) 0.3982(2)
H24 H 0.8779(4) 0.3894(2) 0.4244(2)
C48 C 0.9289(4) 0.4149(2) 0.3888(2)
H25 H 0.9515(4) 0.4427(2) 0.4085(2)
C49 C 0.9398(3) 0.4064(2) 0.3510(2)
H26 H 0.9695(3) 0.4282(2) 0.3444(2)
C50 C 0.9073(3) 0.36588(15) 0.3227(2)
H27 H 0.9143(3) 0.36000(15) 0.2964(2)
C51 C 0.9801(3) 0.26913(14) 0.3303(2)
C52 C 1.0363(3) 0.28039(14) 0.3814(2)
H28 H 1.0177(3) 0.27913(14) 0.4029(2)
C53 C 1.1182(3) 0.2933(2) 0.4010(2)
H29 H 1.1555(3) 0.3013(2) 0.4360(2)
C54 C 1.1482(3) 0.2950(2) 0.3712(2)
H30 H 1.2053(3) 0.3039(2) 0.3853(2)
C55 C 1.0936(3) 0.2834(2) 0.3208(2)
H31 H 1.1130(3) 0.2839(2) 0.2997(2)
C56 C 1.0103(3) 0.27105(14) 0.3006(2)
H32 H 0.9729(3) 0.26369(14) 0.2654(2)
C57 C 0.9248(3) 0.17552(13) 0.2913(2)
C58 C 0.9167(3) 0.15365(14) 0.2502(2)
H33 H 0.8683(3) 0.16011(14) 0.2168(2)
C59 C 0.9777(3) 0.1228(2) 0.2572(2)
H34 H 0.9710(3) 0.1079(2) 0.2288(2)
C60 C 1.0489(3) 0.1134(2) 0.3058(2)
H35 H 1.0918(3) 0.0927(2) 0.3108(2)
C61 C 1.0570(3) 0.1344(2) 0.3468(2)
H36 H 1.1051(3) 0.1277(2) 0.3802(2)
C62 C 0.9962(3) 0.16486(14) 0.3396(2)
H37 H 1.0029(3) 0.17908(14) 0.3683(2)
C63 C 0.7423(3) 0.15151(13) 0.2340(2)
C64 C 0.6920(3) 0.14367(15) 0.1819(2)
H38 H 0.6773(3) 0.16915(15) 0.1593(2)
C65 C 0.6633(3) 0.0995(2) 0.1627(2)
H39 H 0.6295(3) 0.0943(2) 0.1270(2)
C66 C 0.6839(3) 0.0625(2) 0.1955(2)
H40 H 0.6632(3) 0.0320(2) 0.1823(2)
C67 C 0.7339(3) 0.0694(2) 0.2472(2)
H41 H 0.7485(3) 0.0438(2) 0.2696(2)
C68 C 0.7626(3) 0.11370(14) 0.2661(2)
H42 H 0.7970(3) 0.11851(14) 0.3018(2)
C69 C 0.5055(2) 0.22160(14) 0.10287(15)
C70 C 0.4535(3) 0.1912(2) 0.1068(2)
C71 C 0.4275(3) 0.1491(2) 0.0802(2)
H44 H 0.3919(3) 0.1285(2) 0.0832(2)
C72 C 0.4529(3) 0.1372(2) 0.0498(2)
H45 H 0.4345(3) 0.1086(2) 0.0313(2)
C73 C 0.5052(3) 0.1669(2) 0.0462(2)
H46 H 0.5236(3) 0.1585(2) 0.0255(2)
C74 C 0.5313(3) 0.2088(2) 0.0723(2)
H47 H 0.5674(3) 0.2290(2) 0.0694(2)
C75 C 0.4521(3) 0.30793(14) 0.0453(2)
C76 C 0.3731(3) 0.28616(15) 0.0196(2)
H48 H 0.3535(3) 0.27359(15) 0.0383(2)
C77 C 0.3224(3) 0.2825(2) -0.0329(2)
H49 H 0.2687(3) 0.2672(2) -0.0499(2)
C78 C 0.3502(4) 0.3011(2) -0.0606(2)
H50 H 0.3157(4) 0.2984(2) -0.0966(2)
C79 C 0.4272(3) 0.3233(2) -0.0360(2)
H51 H 0.4462(3) 0.3362(2) -0.0548(2)
C80 C 0.4772(3) 0.3268(2) 0.0161(2)
H52 H 0.5303(3) 0.3426(2) 0.0327(2)
C81 C 0.5158(3) 0.39797(14) 0.0986(2)
C82 C 0.5820(3) 0.42633(15) 0.1070(2)
H53 H 0.6394(3) 0.41624(15) 0.1297(2)
C83 C 0.5648(4) 0.4690(2) 0.0823(2)
H54 H 0.6104(4) 0.4879(2) 0.0884(2)
C84 C 0.4824(4) 0.4841(2) 0.0492(2)
H55 H 0.4708(4) 0.5135(2) 0.0328(2)
C85 C 0.4161(4) 0.4560(2) 0.0400(2)
H56 H 0.3589(4) 0.4661(2) 0.0168(2)
C86 C 0.4324(3) 0.4134(2) 0.0644(2)
H57 H 0.3864(3) 0.3944(2) 0.0576(2)
C87 C 0.6155(3) 0.40152(13) 0.20783(15)
C88 C 0.7008(3) 0.4138(2) 0.2405(2)
H58 H 0.7434(3) 0.3918(2) 0.2477(2)
C89 C 0.7248(3) 0.4579(2) 0.2627(2)
H59 H 0.7835(3) 0.4657(2) 0.2853(2)
C90 C 0.6637(3) 0.4902(2) 0.2521(2)
H60 H 0.6802(3) 0.5206(2) 0.2666(2)
C91 C 0.5786(3) 0.4785(2) 0.2206(2)
H61 H 0.5365(3) 0.5007(2) 0.2140(2)
C92 C 0.5545(3) 0.43459(15) 0.1988(2)
H62 H 0.4957(3) 0.42670(15) 0.1773(2)
Cl1 Cl 0.83727(13) 0.24092(7) 0.46508(6)
Cl2 Cl 0.8467(2) 0.20196(8) 0.38608(11)
C93 C 0.7947(6) 0.2037(2) 0.4155(3)
H63 H 0.7346(6) 0.2127(2) 0.3899(3)
H64 H 0.7948(6) 0.1718(2) 0.4275(3)
C95 C -0.0945(3) 0.25811(14) 0.09441(15)
C96 C -0.0769(3) 0.21145(14) 0.08839(15)
C97 C -0.0116(3) 0.20195(14) 0.0830(2)
C98 C 0.0374(2) 0.23824(14) 0.08287(14)
C99 C 0.0194(2) 0.28422(13) 0.08845(14)
C100 C -0.0032(2) 0.37970(13) 0.00661(14)
C101 C -0.0710(2) 0.40950(13) -0.02845(14)
C102 C -0.1418(2) 0.41487(13) -0.02694(14)
C103 C -0.1424(2) 0.39488(13) 0.01255(14)
C104 C -0.0721(2) 0.36863(13) 0.04922(14)
C105 C -0.0584(2) 0.34627(13) 0.09682(14)
H67 H -0.1063(2) 0.35304(13) 0.09974(14)
C106 C -0.0469(2) 0.29399(13) 0.09306(14)
C107 C 0.0643(2) 0.32867(13) 0.08872(14)
H68 H 0.1120(2) 0.32184(13) 0.08557(14)
C108 C -0.0050(2) 0.35948(13) 0.04553(14)
C109 C 0.0942(2) 0.35507(13) 0.13795(14)
C110 C 0.0263(2) 0.36484(13) 0.14173(14)
C111 C 0.0410(3) 0.38878(13) 0.18341(15)
C112 C 0.1253(3) 0.40311(13) 0.22220(15)
C113 C 0.1920(3) 0.39436(13) 0.21766(15)
C114 C 0.1768(3) 0.36872(13) 0.17558(15)
C115 C -0.1577(3) 0.26790(13) 0.10585(15)
C116 C -0.2291(3) 0.29536(15) 0.0741(2)
H69 H -0.2385(3) 0.30831(15) 0.0442(2)
C117 C -0.2867(3) 0.3041(2) 0.0855(2)
H70 H -0.3352(3) 0.3230(2) 0.0634(2)
C118 C -0.2746(3) 0.2858(2) 0.1285(2)
H71 H -0.3142(3) 0.2921(2) 0.1364(2)
C119 C -0.2043(3) 0.2581(2) 0.1601(2)
H72 H -0.1953(3) 0.2452(2) 0.1899(2)
C120 C -0.1465(3) 0.24904(14) 0.1486(2)
H73 H -0.0986(3) 0.22957(14) 0.1704(2)
C121 C -0.1338(3) 0.17329(15) 0.0847(2)
C122 C -0.2202(3) 0.1743(2) 0.0456(2)
H74 H -0.2420(3) 0.1991(2) 0.0217(2)
C123 C -0.2753(4) 0.1399(2) 0.0407(2)
H75 H -0.3343(4) 0.1409(2) 0.0137(2)
C124 C -0.2421(5) 0.1036(2) 0.0764(3)
H76 H -0.2790(5) 0.0800(2) 0.0740(3)
C125 C -0.1561(4) 0.1018(2) 0.1152(2)
H77 H -0.1338(4) 0.0767(2) 0.1388(2)
C126 C -0.1030(3) 0.1365(2) 0.1194(2)
H78 H -0.0441(3) 0.1353(2) 0.1465(2)
C127 C 0.0089(3) 0.15177(15) 0.0794(2)
C128 C 0.0873(4) 0.1326(2) 0.1172(2)
H79 H 0.1280(4) 0.1515(2) 0.1452(2)
C129 C 0.1073(5) 0.0869(2) 0.1150(3)
H80 H 0.1609(5) 0.0742(2) 0.1413(3)
C130 C 0.0477(7) 0.0598(2) 0.0738(4)
H81 H 0.0609(7) 0.0281(2) 0.0718(4)
C131 C -0.0302(5) 0.0780(2) 0.0357(3)
H82 H -0.0706(5) 0.0592(2) 0.0075(3)
C132 C -0.0488(4) 0.1235(2) 0.0389(2)
H83 H -0.1027(4) 0.1359(2) 0.0127(2)
C133 C 0.1012(3) 0.22715(13) 0.0720(2)
C134 C 0.1867(3) 0.23897(14) 0.1050(2)
H84 H 0.2061(3) 0.25544(14) 0.1354(2)
C135 C 0.2439(3) 0.2271(2) 0.0941(2)
H85 H 0.3017(3) 0.2365(2) 0.1165(2)
C136 C 0.2183(3) 0.2019(2) 0.0514(2)
H86 H 0.2585(3) 0.1930(2) 0.0448(2)
C137 C 0.1340(3) 0.1897(2) 0.0181(2)
H87 H 0.1157(3) 0.1726(2) -0.0117(2)
C138 C 0.0755(3) 0.20224(14) 0.0280(2)
H88 H 0.0173(3) 0.19384(14) 0.0046(2)
C139 C 0.0685(2) 0.37078(14) 0.00199(14)
C140 C 0.0846(3) 0.32583(14) -0.00706(15)
H89 H 0.0517(3) 0.30031(14) -0.00843(15)
C141 C 0.1481(3) 0.3177(2) -0.0141(2)
H90 H 0.1586(3) 0.2868(2) -0.0199(2)
C142 C 0.1960(3) 0.3546(2) -0.0127(2)
H91 H 0.2390(3) 0.3491(2) -0.0179(2)
C143 C 0.1807(3) 0.39954(15) -0.0037(2)
H92 H 0.2134(3) 0.42500(15) -0.0027(2)
C144 C 0.1179(3) 0.40745(14) 0.00389(15)
H93 H 0.1085(3) 0.43835(14) 0.01049(15)
C145 C -0.0671(2) 0.43823(13) -0.06627(15)
C146 C -0.0610(2) 0.41929(15) -0.10353(15)
H94 H -0.0570(2) 0.38632(15) -0.10558(15)
C147 C -0.0608(3) 0.4480(2) -0.1374(2)
H95 H -0.0574(3) 0.4348(2) -0.1631(2)
C148 C -0.0655(3) 0.4961(2) -0.1346(2)
H96 H -0.0665(3) 0.5156(2) -0.1587(2)
C149 C -0.0689(3) 0.51588(15) -0.0969(2)
H97 H -0.0702(3) 0.54893(15) -0.0941(2)
C150 C -0.0703(3) 0.48675(14) -0.0633(2)
H98 H -0.0736(3) 0.50012(14) -0.0376(2)
C151 C -0.2159(2) 0.44308(13) -0.06797(14)
C152 C -0.2423(3) 0.48393(14) -0.0569(2)
H99 H -0.2168(3) 0.49247(14) -0.0225(2)
C153 C -0.3049(3) 0.51183(15) -0.0953(2)
H100 H -0.3216(3) 0.53977(15) -0.0873(2)
C154 C -0.3437(3) 0.4992(2) -0.1456(2)
H101 H -0.3862(3) 0.5188(2) -0.1721(2)
C155 C -0.3206(3) 0.4585(2) -0.1571(2)
H102 H -0.3482(3) 0.4494(2) -0.1915(2)
C156 C -0.2574(3) 0.43059(14) -0.1187(2)
H103 H -0.2419(3) 0.40241(14) -0.1270(2)
C157 C -0.2180(3) 0.40113(13) 0.01394(15)
C158 C -0.2121(3) 0.42520(15) 0.0532(2)
H104 H -0.1591(3) 0.43835(15) 0.0797(2)
C159 C -0.2824(3) 0.4302(2) 0.0542(2)
H105 H -0.2774(3) 0.4465(2) 0.0814(2)
C160 C -0.3600(3) 0.4116(2) 0.0156(2)
H106 H -0.4082(3) 0.4148(2) 0.0164(2)
C161 C -0.3671(3) 0.3885(2) -0.0236(2)
H107 H -0.4206(3) 0.3760(2) -0.0504(2)
C162 C -0.2964(3) 0.38326(15) -0.0243(2)
H108 H -0.3020(3) 0.36702(15) -0.0518(2)
C163 C -0.0311(3) 0.40234(15) 0.18667(15)
C164 C -0.0801(3) 0.3691(2) 0.1900(2)
H109 H -0.0698(3) 0.3368(2) 0.1889(2)
C165 C -0.1445(3) 0.3830(2) 0.1949(2)
H110 H -0.1783(3) 0.3600(2) 0.1966(2)
C166 C -0.1593(3) 0.4294(2) 0.1971(2)
H111 H -0.2022(3) 0.4385(2) 0.2014(2)
C167 C -0.1119(3) 0.4627(2) 0.1932(2)
H112 H -0.1228(3) 0.4950(2) 0.1940(2)
C168 C -0.0488(3) 0.4494(2) 0.1882(2)
H113 H -0.0164(3) 0.4728(2) 0.1857(2)
C169 C 0.1410(3) 0.42811(14) 0.26779(15)
C170 C 0.1277(3) 0.4045(2) 0.3001(2)
H114 H 0.1093(3) 0.3728(2) 0.2933(2)
C171 C 0.1410(3) 0.4267(2) 0.3420(2)
H115 H 0.1322(3) 0.4101(2) 0.3641(2)
C172 C 0.1668(3) 0.4730(2) 0.3523(2)
H116 H 0.1757(3) 0.4882(2) 0.3812(2)
C173 C 0.1793(3) 0.4965(2) 0.3205(2)
H117 H 0.1972(3) 0.5282(2) 0.3272(2)
C174 C 0.1662(3) 0.47432(15) 0.2784(2)
H118 H 0.1746(3) 0.49130(15) 0.2564(2)
C175 C 0.2793(3) 0.41275(14) 0.2560(2)
C176 C 0.3179(3) 0.44207(14) 0.2403(2)
H119 H 0.2883(3) 0.45000(14) 0.2054(2)
C177 C 0.3985(3) 0.4595(2) 0.2750(2)
H120 H 0.4241(3) 0.4791(2) 0.2636(2)
C178 C 0.4423(3) 0.4491(2) 0.3258(2)
H121 H 0.4977(3) 0.4615(2) 0.3495(2)
C179 C 0.4045(3) 0.4203(2) 0.3418(2)
H122 H 0.4343(3) 0.4128(2) 0.3768(2)
C180 C 0.3241(3) 0.40235(15) 0.3076(2)
H123 H 0.2989(3) 0.38274(15) 0.3193(2)
C181 C 0.2496(2) 0.35524(13) 0.17326(15)
C182 C 0.2549(3) 0.37069(15) 0.1344(2)
H124 H 0.2119(3) 0.39066(15) 0.1087(2)
C183 C 0.3226(3) 0.3572(2) 0.1327(2)
H125 H 0.3260(3) 0.3684(2) 0.1063(2)
C184 C 0.3851(3) 0.3275(2) 0.1695(2)
H126 H 0.4308(3) 0.3179(2) 0.1680(2)
C185 C 0.3804(3) 0.3121(2) 0.2080(2)
H127 H 0.4235(3) 0.2919(2) 0.2335(2)
C186 C 0.3139(3) 0.32555(14) 0.2101(2)
H128 H 0.3116(3) 0.31451(14) 0.2370(2)
Cl4 Cl 0.2408(4) 0.2711(2) 0.2833(3)
Cl5 Cl 0.1039(4) 0.2095(3) 0.2288(2)
C187 C 0.1501(8) 0.2520(5) 0.2211(4)
H129 H 0.1097(8) 0.2783(5) 0.2034(4)
H130 H 0.1695(8) 0.2416(5) 0.2002(4)
H43? H 0.4356(3) 0.1991(2) 0.1278(2)
Cl3? Cl 0.7732(22) 0.1992(6) 0.3733(8)
C94? C 0.8601(26) 0.2130(20) 0.4283(24)
H65? H 0.8958(26) 0.2335(20) 0.4230(24)
H66? H 0.8930(26) 0.1842(20) 0.4458(24)
loop_
_geom_bond_atom_site_label_1
_geom_bond_atom_site_label_2
_geom_bond_site_symmetry_1
_geom_bond_site_symmetry_2
C1 C2 1_555 1_555
C2 C3 1_555 1_555
C3 C4 1_555 1_555
C4 C5 1_555 1_555
C5 C12 1_555 1_555
C6 C7 1_555 1_555
C7 C8 1_555 1_555
C8 C9 1_555 1_555
C9 C10 1_555 1_555
C10 C11 1_555 1_555
C11 H1 1_555 1_555
C12 C1 1_555 1_555
C13 C5 1_555 1_555
H2 C13 1_555 1_555
C14 C6 1_555 1_555
C15 C13 1_555 1_555
C16 C11 1_555 1_555
C17 C16 1_555 1_555
C18 C17 1_555 1_555
C19 C18 1_555 1_555
C20 C15 1_555 1_555
C21 C1 1_555 1_555
C22 C21 1_555 1_555
H3 C22 1_555 1_555
C23 C22 1_555 1_555
H4 C23 1_555 1_555
C24 C23 1_555 1_555
H5 C24 1_555 1_555
C25 C24 1_555 1_555
H6 C25 1_555 1_555
C26 C21 1_555 1_555
H7 C26 1_555 1_555
C27 C2 1_555 1_555
C28 C27 1_555 1_555
H8 C28 1_555 1_555
C29 C28 1_555 1_555
H9 C29 1_555 1_555
C30 C29 1_555 1_555
H10 C30 1_555 1_555
C31 C30 1_555 1_555
H11 C31 1_555 1_555
C32 C27 1_555 1_555
H12 C32 1_555 1_555
C33 C3 1_555 1_555
C34 C33 1_555 1_555
H13 C34 1_555 1_555
C35 C34 1_555 1_555
H14 C35 1_555 1_555
C36 C35 1_555 1_555
H15 C36 1_555 1_555
C37 C36 1_555 1_555
H16 C37 1_555 1_555
C38 C33 1_555 1_555
H17 C38 1_555 1_555
C39 C4 1_555 1_555
C40 C39 1_555 1_555
H18 C40 1_555 1_555
C41 C40 1_555 1_555
H19 C41 1_555 1_555
C42 C41 1_555 1_555
H20 C42 1_555 1_555
C43 C42 1_555 1_555
H21 C43 1_555 1_555
C44 C39 1_555 1_555
H22 C44 1_555 1_555
C45 C6 1_555 1_555
C46 C45 1_555 1_555
H23 C46 1_555 1_555
C47 C46 1_555 1_555
H24 C47 1_555 1_555
C48 C47 1_555 1_555
H25 C48 1_555 1_555
C49 C48 1_555 1_555
H26 C49 1_555 1_555
C50 C45 1_555 1_555
H27 C50 1_555 1_555
C51 C7 1_555 1_555
C52 C51 1_555 1_555
H28 C52 1_555 1_555
C53 C52 1_555 1_555
H29 C53 1_555 1_555
C54 C53 1_555 1_555
H30 C54 1_555 1_555
C55 C54 1_555 1_555
H31 C55 1_555 1_555
C56 C51 1_555 1_555
H32 C56 1_555 1_555
C57 C8 1_555 1_555
C58 C57 1_555 1_555
H33 C58 1_555 1_555
C59 C58 1_555 1_555
H34 C59 1_555 1_555
C60 C59 1_555 1_555
H35 C60 1_555 1_555
C61 C60 1_555 1_555
H36 C61 1_555 1_555
C62 C57 1_555 1_555
H37 C62 1_555 1_555
C63 C9 1_555 1_555
C64 C63 1_555 1_555
H38 C64 1_555 1_555
C65 C64 1_555 1_555
H39 C65 1_555 1_555
C66 C65 1_555 1_555
H40 C66 1_555 1_555
C67 C66 1_555 1_555
H41 C67 1_555 1_555
C68 C63 1_555 1_555
H42 C68 1_555 1_555
C69 C17 1_555 1_555
C70 C69 1_555 1_555
C71 C70 1_555 1_555
H44 C71 1_555 1_555
C72 C71 1_555 1_555
H45 C72 1_555 1_555
C73 C72 1_555 1_555
H46 C73 1_555 1_555
C74 C69 1_555 1_555
H47 C74 1_555 1_555
C75 C18 1_555 1_555
C76 C75 1_555 1_555
H48 C76 1_555 1_555
C77 C76 1_555 1_555
H49 C77 1_555 1_555
C78 C77 1_555 1_555
H50 C78 1_555 1_555
C79 C78 1_555 1_555
H51 C79 1_555 1_555
C80 C75 1_555 1_555
H52 C80 1_555 1_555
C81 C19 1_555 1_555
C82 C81 1_555 1_555
H53 C82 1_555 1_555
C83 C82 1_555 1_555
H54 C83 1_555 1_555
C84 C83 1_555 1_555
H55 C84 1_555 1_555
C85 C84 1_555 1_555
H56 C85 1_555 1_555
C86 C81 1_555 1_555
H57 C86 1_555 1_555
C87 C20 1_555 1_555
C88 C87 1_555 1_555
H58 C88 1_555 1_555
C89 C88 1_555 1_555
H59 C89 1_555 1_555
C90 C89 1_555 1_555
H60 C90 1_555 1_555
C91 C90 1_555 1_555
H61 C91 1_555 1_555
C92 C87 1_555 1_555
H62 C92 1_555 1_555
Cl1 C93 1_555 1_555
Cl2 C93 1_555 1_555
C93 H63 1_555 1_555
H64 C93 1_555 1_555
C95 C96 1_555 1_555
C96 C97 1_555 1_555
C97 C98 1_555 1_555
C98 C99 1_555 1_555
C99 C106 1_555 1_555
C100 C101 1_555 1_555
C101 C102 1_555 1_555
C102 C103 1_555 1_555
C103 C104 1_555 1_555
C104 C105 1_555 1_555
C105 H67 1_555 1_555
C106 C95 1_555 1_555
C107 C99 1_555 1_555
H68 C107 1_555 1_555
C108 C100 1_555 1_555
C109 C107 1_555 1_555
C110 C105 1_555 1_555
C111 C110 1_555 1_555
C112 C111 1_555 1_555
C113 C112 1_555 1_555
C114 C109 1_555 1_555
C115 C95 1_555 1_555
C116 C115 1_555 1_555
H69 C116 1_555 1_555
C117 C116 1_555 1_555
H70 C117 1_555 1_555
C118 C117 1_555 1_555
H71 C118 1_555 1_555
C119 C118 1_555 1_555
H72 C119 1_555 1_555
C120 C115 1_555 1_555
H73 C120 1_555 1_555
C121 C96 1_555 1_555
C122 C121 1_555 1_555
H74 C122 1_555 1_555
C123 C122 1_555 1_555
H75 C123 1_555 1_555
C124 C123 1_555 1_555
H76 C124 1_555 1_555
C125 C124 1_555 1_555
H77 C125 1_555 1_555
C126 C121 1_555 1_555
H78 C126 1_555 1_555
C127 C97 1_555 1_555
C128 C127 1_555 1_555
H79 C128 1_555 1_555
C129 C128 1_555 1_555
H80 C129 1_555 1_555
C130 C129 1_555 1_555
H81 C130 1_555 1_555
C131 C130 1_555 1_555
H82 C131 1_555 1_555
C132 C127 1_555 1_555
H83 C132 1_555 1_555
C133 C98 1_555 1_555
C134 C133 1_555 1_555
H84 C134 1_555 1_555
C135 C134 1_555 1_555
H85 C135 1_555 1_555
C136 C135 1_555 1_555
H86 C136 1_555 1_555
C137 C136 1_555 1_555
H87 C137 1_555 1_555
C138 C133 1_555 1_555
H88 C138 1_555 1_555
C139 C100 1_555 1_555
C140 C139 1_555 1_555
H89 C140 1_555 1_555
C141 C140 1_555 1_555
H90 C141 1_555 1_555
C142 C141 1_555 1_555
H91 C142 1_555 1_555
C143 C142 1_555 1_555
H92 C143 1_555 1_555
C144 C139 1_555 1_555
H93 C144 1_555 1_555
C145 C101 1_555 1_555
C146 C145 1_555 1_555
H94 C146 1_555 1_555
C147 C146 1_555 1_555
H95 C147 1_555 1_555
C148 C147 1_555 1_555
H96 C148 1_555 1_555
C149 C148 1_555 1_555
H97 C149 1_555 1_555
C150 C145 1_555 1_555
H98 C150 1_555 1_555
C151 C102 1_555 1_555
C152 C151 1_555 1_555
H99 C152 1_555 1_555
C153 C152 1_555 1_555
H100 C153 1_555 1_555
C154 C153 1_555 1_555
H101 C154 1_555 1_555
C155 C154 1_555 1_555
H102 C155 1_555 1_555
C156 C151 1_555 1_555
H103 C156 1_555 1_555
C157 C103 1_555 1_555
C158 C157 1_555 1_555
H104 C158 1_555 1_555
C159 C158 1_555 1_555
H105 C159 1_555 1_555
C160 C159 1_555 1_555
H106 C160 1_555 1_555
C161 C160 1_555 1_555
H107 C161 1_555 1_555
C162 C157 1_555 1_555
H108 C162 1_555 1_555
C163 C111 1_555 1_555
C164 C163 1_555 1_555
H109 C164 1_555 1_555
C165 C164 1_555 1_555
H110 C165 1_555 1_555
C166 C165 1_555 1_555
H111 C166 1_555 1_555
C167 C166 1_555 1_555
H112 C167 1_555 1_555
C168 C163 1_555 1_555
H113 C168 1_555 1_555
C169 C112 1_555 1_555
C170 C169 1_555 1_555
H114 C170 1_555 1_555
C171 C170 1_555 1_555
H115 C171 1_555 1_555
C172 C171 1_555 1_555
H116 C172 1_555 1_555
C173 C172 1_555 1_555
H117 C173 1_555 1_555
C174 C169 1_555 1_555
H118 C174 1_555 1_555
C175 C113 1_555 1_555
C176 C175 1_555 1_555
H119 C176 1_555 1_555
C177 C176 1_555 1_555
H120 C177 1_555 1_555
C178 C177 1_555 1_555
H121 C178 1_555 1_555
C179 C178 1_555 1_555
H122 C179 1_555 1_555
C180 C175 1_555 1_555
H123 C180 1_555 1_555
C181 C114 1_555 1_555
C182 C181 1_555 1_555
H124 C182 1_555 1_555
C183 C182 1_555 1_555
H125 C183 1_555 1_555
C184 C183 1_555 1_555
H126 C184 1_555 1_555
C185 C184 1_555 1_555
H127 C185 1_555 1_555
C186 C181 1_555 1_555
H128 C186 1_555 1_555
Cl4 C187 1_555 1_555
Cl5 C187 1_555 1_555
C187 H129 1_555 1_555
H130 C187 1_555 1_555
C10 C14 1_555 1_555
C11 C12 1_555 1_555
C13 C14 1_555 1_555
C15 C16 1_555 1_555
C19 C20 1_555 1_555
C25 C26 1_555 1_555
C31 C32 1_555 1_555
C37 C38 1_555 1_555
C43 C44 1_555 1_555
C49 C50 1_555 1_555
C55 C56 1_555 1_555
C61 C62 1_555 1_555
C67 C68 1_555 1_555
C73 C74 1_555 1_555
C79 C80 1_555 1_555
C85 C86 1_555 1_555
C91 C92 1_555 1_555
C104 C108 1_555 1_555
C105 C106 1_555 1_555
C107 C108 1_555 1_555
C109 C110 1_555 1_555
C113 C114 1_555 1_555
C119 C120 1_555 1_555
C125 C126 1_555 1_555
C131 C132 1_555 1_555
C137 C138 1_555 1_555
C143 C144 1_555 1_555
C149 C150 1_555 1_555
C155 C156 1_555 1_555
C161 C162 1_555 1_555
C167 C168 1_555 1_555
C173 C174 1_555 1_555
C179 C180 1_555 1_555
C185 C186 1_555 1_555

#END
