
#######################################################################
#
#                 Cambridge Crystallographic Data Centre
#                                CCDC 
#
#######################################################################
#
# If this CIF has been generated from an entry in the Cambridge 
# Structural Database, then it will include bibliographic, chemical, 
# crystal, experimental, refinement or atomic coordinate data resulting 
# from the CCDC's data processing and validation procedures.
#
#######################################################################

data_XOMFEK
_chemical_formula_moiety         'C13 H20 F6 O1'
_chemical_name_systematic        
1-(1,1,2,3,3,3-Hexafluoropropyl)-4-t-butylcyclohexanol
_symmetry_cell_setting           monoclinic
_symmetry_space_group_name_H-M   'P 21/n'
_symmetry_Int_Tables_number      14
_space_group_name_Hall           '-P 2yn'
loop_
_symmetry_equiv_pos_site_id
_symmetry_equiv_pos_as_xyz
1 x,y,z
2 1/2+x,1/2-y,1/2+z
3 -x,-y,-z
4 1/2-x,1/2+y,1/2-z
_cell_length_a                   15.1257(3)
_cell_length_b                   17.1114(3)
_cell_length_c                   17.6818(2)
_cell_angle_alpha                90
_cell_angle_beta                 105.64(1)
_cell_angle_gamma                90
_cell_volume                     4406.99
_exptl_crystal_colour            colorless
_exptl_crystal_description       plate
_chemical_melting_point          '90-91 deg.C'
_cell_formula_units_Z            12
loop_
_atom_site_label
_atom_site_type_symbol
_atom_site_fract_x
_atom_site_fract_y
_atom_site_fract_z
O1 O 0.4268(4) 0.3210(3) 0.4018(4)
F1 F 0.2388(4) 0.3146(4) 0.3751(3)
F2 F 0.2268(4) 0.4418(4) 0.3633(4)
F3 F 0.3205(6) 0.4699(4) 0.5050(4)
F4 F 0.2210(5) 0.2880(4) 0.5188(4)
F5 F 0.2493(5) 0.3847(4) 0.5954(4)
F6 F 0.1484(5) 0.3929(6) 0.4843(4)
C1 C 0.3703(6) 0.3843(5) 0.3639(5)
C2 C 0.4269(7) 0.4590(6) 0.3840(6)
H1 H 0.3861(7) 0.5047(6) 0.3675(6)
H2 H 0.4532(7) 0.4621(6) 0.4416(6)
C3 C 0.5040(7) 0.4622(5) 0.3441(6)
H3 H 0.5361(7) 0.5130(5) 0.3564(6)
H4 H 0.5489(7) 0.4205(5) 0.3661(6)
C4 C 0.4722(6) 0.4527(5) 0.2553(5)
H5 H 0.4253(6) 0.4945(5) 0.2360(5)
C5 C 0.4209(6) 0.3763(6) 0.2381(6)
H6 H 0.4639(6) 0.3328(6) 0.2583(6)
H7 H 0.3974(6) 0.3698(6) 0.1805(6)
C6 C 0.3403(6) 0.3714(6) 0.2749(6)
H8 H 0.3111(6) 0.3194(6) 0.2637(6)
H9 H 0.2940(6) 0.4113(6) 0.2504(6)
C7 C 0.2848(7) 0.3844(6) 0.3975(6)
C8 C 0.3055(8) 0.3904(6) 0.4866(6)
H10 H 0.3617(8) 0.3594(6) 0.5121(6)
C9 C 0.2285(8) 0.3677(7) 0.5196(7)
C10 C 0.5471(6) 0.4657(5) 0.2112(6)
C11 C 0.6283(7) 0.4125(6) 0.2421(7)
H11 H 0.6533(7) 0.4210(6) 0.2987(7)
H12 H 0.6756(7) 0.4239(6) 0.2152(7)
H13 H 0.6086(7) 0.3580(6) 0.2326(7)
C12 C 0.5821(8) 0.5510(6) 0.2227(7)
H14 H 0.5306(8) 0.5869(6) 0.2029(7)
H15 H 0.6282(8) 0.5592(6) 0.1937(7)
H16 H 0.6098(8) 0.5609(6) 0.2786(7)
C13 C 0.5079(7) 0.4531(7) 0.1240(6)
H17 H 0.4553(7) 0.4880(7) 0.1043(6)
H18 H 0.4880(7) 0.3987(7) 0.1142(6)
H19 H 0.5550(7) 0.4646(7) 0.0969(6)
O2 O 0.0741(4) 0.2581(3) -0.0085(3)
F7 F 0.0387(4) 0.1609(3) 0.1057(3)
F8 F 0.1675(4) 0.1940(3) 0.1905(3)
F9 F 0.1208(4) 0.3409(3) 0.1912(4)
F10 F -0.0866(5) 0.2410(4) 0.1532(5)
F11 F -0.0391(4) 0.3434(3) 0.2202(4)
F12 F 0.0244(5) 0.2327(4) 0.2581(4)
C14 C 0.1467(6) 0.2309(5) 0.0563(5)
C15 C 0.2221(6) 0.2929(5) 0.0743(6)
H20 H 0.2694(6) 0.2782(5) 0.1228(6)
H21 H 0.1955(6) 0.3436(5) 0.0838(6)
C16 C 0.2672(7) 0.3020(5) 0.0070(6)
H22 H 0.3163(7) 0.3419(5) 0.0214(6)
H23 H 0.2209(7) 0.3204(5) -0.0406(6)
C17 C 0.3086(6) 0.2240(5) -0.0111(6)
H24 H 0.3541(6) 0.2065(5) 0.0382(6)
C18 C 0.2320(6) 0.1640(5) -0.0310(6)
H25 H 0.2575(6) 0.1131(5) -0.0414(6)
H26 H 0.1858(6) 0.1803(5) -0.0795(6)
C19 C 0.1852(6) 0.1539(5) 0.0346(5)
H27 H 0.2300(6) 0.1325(5) 0.0816(5)
H28 H 0.1346(6) 0.1157(5) 0.0178(5)
C20 C 0.1034(6) 0.2204(5) 0.1253(6)
C21 C 0.0541(7) 0.2926(5) 0.1462(6)
H29 H 0.0206(7) 0.3204(5) 0.0971(6)
C22 C -0.0115(8) 0.2753(6) 0.1960(8)
C23 C 0.3609(6) 0.2334(5) -0.0751(5)
C24 C 0.3972(8) 0.1531(6) -0.0913(7)
H30 H 0.4358(8) 0.1312(6) -0.0422(7)
H31 H 0.4336(8) 0.1588(6) -0.1292(7)
H32 H 0.3454(8) 0.1179(6) -0.1129(7)
C25 C 0.3018(7) 0.2642(6) -0.1528(6)
H33 H 0.2486(7) 0.2299(6) -0.1720(6)
H34 H 0.3380(7) 0.2654(6) -0.1912(6)
H35 H 0.2808(7) 0.3171(6) -0.1455(6)
C26 C 0.4429(7) 0.2880(7) -0.0471(7)
H36 H 0.4820(7) 0.2692(7) 0.0032(7)
H37 H 0.4210(7) 0.3408(7) -0.0403(7)
H38 H 0.4782(7) 0.2891(7) -0.0861(7)
O3 O 0.1724(7) 0.6828(6) 0.1562(6)
F13 F 0.3040(11) 0.5812(9) 0.1360(10)
F15 F 0.2024(8) 0.4926(7) 0.0846(7)
F17 F 0.1187(11) 0.5938(10) -0.0328(9)
F19 F 0.2804(5) 0.5136(4) -0.0387(4)
F20 F 0.3561(5) 0.6195(4) 0.0000(4)
F21 F 0.2360(5) 0.6225(5) -0.0941(5)
C27 C 0.1539(12) 0.6007(10) 0.1469(12)
C29 C 0.1778(13) 0.5568(12) 0.2269(13)
C31 C 0.1189(14) 0.5841(12) 0.2798(13)
C33 C 0.0145(6) 0.5622(5) 0.2370(6)
C34 C -0.0104(12) 0.6146(11) 0.1606(10)
C36 C 0.0476(17) 0.5902(12) 0.1032(12)
C38 C 0.2112(13) 0.5726(10) 0.0951(12)
C40 C 0.2002(19) 0.6121(14) 0.0117(16)
C42 C 0.2747(8) 0.5901(7) -0.0254(7)
C43 C -0.0450(6) 0.5786(5) 0.2942(6)
C44 C -0.0583(7) 0.6683(6) 0.3062(6)
H39 H 0.0019(7) 0.6933(6) 0.3257(6)
H40 H -0.0941(7) 0.6758(6) 0.3443(6)
H41 H -0.0910(7) 0.6920(6) 0.2559(6)
C45 C -0.0011(9) 0.5432(6) 0.3750(6)
H42 H 0.0599(9) 0.5659(6) 0.3965(6)
H43 H 0.0045(9) 0.4865(6) 0.3699(6)
H44 H -0.0396(9) 0.5545(6) 0.4102(6)
C46 C -0.1396(7) 0.5411(7) 0.2638(8)
H45 H -0.1701(7) 0.5624(7) 0.2119(8)
H46 H -0.1767(7) 0.5524(7) 0.3002(8)
H47 H -0.1327(7) 0.4844(7) 0.2598(8)
O4? O 0.0807(9) 0.6690(8) 0.0870(8)
F14? F 0.0944(10) 0.5648(9) -0.0317(8)
F16? F 0.1658(9) 0.4814(7) 0.0554(8)
F18? F 0.3034(12) 0.5697(10) 0.1118(10)
C28? C 0.0993(19) 0.5885(12) 0.1100(13)
C30? C 0.1595(16) 0.5789(14) 0.1942(17)
C32? C 0.1039(16) 0.6070(14) 0.2520(14)
C35? C -0.0457(16) 0.5711(14) 0.1511(13)
C37? C 0.0109(14) 0.5403(12) 0.0930(12)
C39? C 0.1543(18) 0.5608(15) 0.0469(16)
C41? C 0.2355(19) 0.6038(15) 0.0465(17)
loop_
_geom_bond_atom_site_label_1
_geom_bond_atom_site_label_2
_geom_bond_site_symmetry_1
_geom_bond_site_symmetry_2
O1 C1 1_555 1_555
F1 C7 1_555 1_555
F2 C7 1_555 1_555
F3 C8 1_555 1_555
F4 C9 1_555 1_555
F5 C9 1_555 1_555
F6 C9 1_555 1_555
C1 C2 1_555 1_555
C2 H1 1_555 1_555
H2 C2 1_555 1_555
C3 C2 1_555 1_555
H3 C3 1_555 1_555
H4 C3 1_555 1_555
C4 C3 1_555 1_555
H5 C4 1_555 1_555
C5 C4 1_555 1_555
H6 C5 1_555 1_555
H7 C5 1_555 1_555
C6 C1 1_555 1_555
H8 C6 1_555 1_555
H9 C6 1_555 1_555
C7 C1 1_555 1_555
C8 C7 1_555 1_555
H10 C8 1_555 1_555
C9 C8 1_555 1_555
C10 C4 1_555 1_555
C11 C10 1_555 1_555
H11 C11 1_555 1_555
H12 C11 1_555 1_555
H13 C11 1_555 1_555
C12 C10 1_555 1_555
H14 C12 1_555 1_555
H15 C12 1_555 1_555
H16 C12 1_555 1_555
C13 C10 1_555 1_555
H17 C13 1_555 1_555
H18 C13 1_555 1_555
H19 C13 1_555 1_555
O2 C14 1_555 1_555
F7 C20 1_555 1_555
F8 C20 1_555 1_555
F9 C21 1_555 1_555
F10 C22 1_555 1_555
F11 C22 1_555 1_555
F12 C22 1_555 1_555
C14 C15 1_555 1_555
C15 H20 1_555 1_555
H21 C15 1_555 1_555
C16 C15 1_555 1_555
H22 C16 1_555 1_555
H23 C16 1_555 1_555
C17 C16 1_555 1_555
H24 C17 1_555 1_555
C18 C17 1_555 1_555
H25 C18 1_555 1_555
H26 C18 1_555 1_555
C19 C14 1_555 1_555
H27 C19 1_555 1_555
H28 C19 1_555 1_555
C20 C14 1_555 1_555
C21 C20 1_555 1_555
H29 C21 1_555 1_555
C22 C21 1_555 1_555
C23 C17 1_555 1_555
C24 C23 1_555 1_555
H30 C24 1_555 1_555
H31 C24 1_555 1_555
H32 C24 1_555 1_555
C25 C23 1_555 1_555
H33 C25 1_555 1_555
H34 C25 1_555 1_555
H35 C25 1_555 1_555
C26 C23 1_555 1_555
H36 C26 1_555 1_555
H37 C26 1_555 1_555
H38 C26 1_555 1_555
O3 C27 1_555 1_555
F13 C38 1_555 1_555
F15 C38 1_555 1_555
F17 C40 1_555 1_555
F19 C42 1_555 1_555
F20 C42 1_555 1_555
F21 C42 1_555 1_555
C27 C29 1_555 1_555
C29 C31 1_555 1_555
C31 C33 1_555 1_555
C33 C34 1_555 1_555
C34 C36 1_555 1_555
C36 C27 1_555 1_555
C38 C27 1_555 1_555
C40 C38 1_555 1_555
C42 C40 1_555 1_555
C43 C33 1_555 1_555
C44 C43 1_555 1_555
H39 C44 1_555 1_555
H40 C44 1_555 1_555
H41 C44 1_555 1_555
C45 C43 1_555 1_555
H42 C45 1_555 1_555
H43 C45 1_555 1_555
H44 C45 1_555 1_555
C46 C43 1_555 1_555
H45 C46 1_555 1_555
H46 C46 1_555 1_555
H47 C46 1_555 1_555
C5 C6 1_555 1_555
C18 C19 1_555 1_555

#END
