
#######################################################################
#
#                 Cambridge Crystallographic Data Centre
#                                CCDC 
#
#######################################################################
#
# If this CIF has been generated from an entry in the Cambridge 
# Structural Database, then it will include bibliographic, chemical, 
# crystal, experimental, refinement or atomic coordinate data resulting 
# from the CCDC's data processing and validation procedures.
#
#######################################################################

data_XOMJOZ
_chemical_formula_moiety         'C29 H26 Cl1 F3 N6 O2'
_chemical_name_systematic        
N-((2R,3S)-4-(4-Chlorophenyl)-3-(3-cyanophenyl)-1-(1H-1,2,4-triazol-1-yl)butan-2-yl)-2-methyl-2-(5-(trifluoromethyl)pyridin-2-yloxy)propanamide
_chemical_properties_biological  'Cannabinoid CB1 receptor binding affinity'
_symmetry_cell_setting           monoclinic
_symmetry_space_group_name_H-M   'P 21/c'
_symmetry_Int_Tables_number      14
_space_group_name_Hall           '-P 2ybc'
loop_
_symmetry_equiv_pos_site_id
_symmetry_equiv_pos_as_xyz
1 x,y,z
2 -x,1/2+y,1/2-z
3 -x,-y,-z
4 x,1/2-y,1/2+z
_cell_length_a                   9.7520(6)
_cell_length_b                   12.8745(10)
_cell_length_c                   23.6522(16)
_cell_angle_alpha                90
_cell_angle_beta                 93.9146(18)
_cell_angle_gamma                90
_cell_volume                     2962.66
_exptl_crystal_colour            colorless
_exptl_crystal_description       needle
_cell_formula_units_Z            4
loop_
_atom_site_label
_atom_site_type_symbol
_atom_site_fract_x
_atom_site_fract_y
_atom_site_fract_z
C1 C 0.1466(7) 0.0259(6) -0.0605(4)
C2 C 0.2493(6) -0.0508(5) -0.0468(3)
C3 C 0.3765(7) -0.0399(5) -0.0678(3)
H1 H 0.3964 0.0163 -0.0905
C4 C 0.4723(7) -0.1142(5) -0.0541(3)
H2 H 0.5595 -0.1083 -0.0674
C5 C 0.4429(6) -0.1981(5) -0.0208(3)
H3 H 0.5102 -0.2481 -0.0126
C6 C 0.3150(5) -0.2097(4) 0.0009(2)
C7 C 0.2184(5) -0.1337(4) -0.0128(2)
H4 H 0.1316 -0.1383 0.0011
C8 C 0.2825(4) -0.2967(4) 0.0407(2)
H5 H 0.1899 -0.2845 0.0530
C9 C 0.3818(5) -0.2966(4) 0.0934(2)
H6 H 0.3635 -0.3576 0.1157
H7 H 0.4746 -0.3030 0.0815
C10 C 0.3760(5) -0.2025(4) 0.1311(2)
C11 C 0.4923(5) -0.1728(5) 0.1633(2)
H8 H 0.5742 -0.2083 0.1595
C12 C 0.4896(5) -0.0916(5) 0.2009(2)
H9 H 0.5687 -0.0743 0.2231
C13 C 0.3719(6) -0.0363(5) 0.2060(2)
C14 C 0.2556(6) -0.0637(5) 0.1733(3)
H10 H 0.1745 -0.0267 0.1764
C15 C 0.2588(5) -0.1448(5) 0.1364(3)
H11 H 0.1795 -0.1616 0.1142
C16 C 0.2874(5) -0.5591(6) -0.0950(2)
H12 H 0.3717 -0.5304 -0.1025
C17 C 0.1232(5) -0.6567(5) -0.0896(2)
H13 H 0.0680 -0.7155 -0.0936
C18 C 0.1953(5) -0.4077(4) -0.0436(2)
H14 H 0.1024 -0.3861 -0.0370
H15 H 0.2321 -0.3587 -0.0698
C19 C 0.2832(4) -0.4042(4) 0.0126(2)
H16 H 0.3782 -0.4215 0.0051
C20 C 0.3105(5) -0.5591(4) 0.0744(2)
C21 C 0.2392(5) -0.6392(4) 0.1097(2)
C22 C 0.1789(5) -0.7195(4) 0.0692(3)
H17 H 0.1327 -0.7716 0.0899
H18 H 0.2510 -0.7514 0.0496
H19 H 0.1144 -0.6871 0.0423
C23 C 0.3375(6) -0.6875(5) 0.1546(3)
H20 H 0.3745 -0.6342 0.1797
H21 H 0.4111 -0.7212 0.1368
H22 H 0.2893 -0.7376 0.1759
C24 C 0.1361(6) -0.5181(5) 0.1739(2)
C25 C 0.0224(7) -0.4127(6) 0.2386(3)
H23 H -0.0548 -0.3900 0.2560
C26 C 0.1473(7) -0.3690(5) 0.2531(3)
C27 C 0.2560(6) -0.4031(5) 0.2244(3)
H24 H 0.3407 -0.3718 0.2332
C28 C 0.2513(4) -0.4754(4) 0.1860(2)
H25 H 0.3293 -0.4950 0.1682
C29 C 0.1637(13) -0.2851(9) 0.2962(4)
O1 O 0.4334(3) -0.5694(3) 0.06583(16)
O2 O 0.1190(3) -0.5939(3) 0.13344(16)
N1 N 0.0646(7) 0.0880(6) -0.0693(4)
N2 N 0.2487(5) -0.6541(4) -0.1090(2)
N3 N 0.0818(4) -0.5733(4) -0.06487(18)
N4 N 0.1913(4) -0.5097(3) -0.06882(17)
N5 N 0.2327(4) -0.4830(3) 0.05042(16)
H26 H 0.1476 -0.4804 0.0578
N6 N 0.0096(6) -0.4910(6) 0.1978(3)
Cl1 Cl 0.36571(17) 0.06493(15) 0.25438(8)
F1 F 0.1037(7) -0.3067(5) 0.3416(2)
F2 F 0.2811(8) -0.2582(8) 0.3111(4)
F3 F 0.0950(12) -0.2050(6) 0.2808(3)
loop_
_geom_bond_atom_site_label_1
_geom_bond_atom_site_label_2
_geom_bond_site_symmetry_1
_geom_bond_site_symmetry_2
C1 C2 1_555 1_555
C2 C3 1_555 1_555
C3 H1 1_555 1_555
C4 C3 1_555 1_555
H2 C4 1_555 1_555
C5 C4 1_555 1_555
H3 C5 1_555 1_555
C6 C5 1_555 1_555
C7 C2 1_555 1_555
H4 C7 1_555 1_555
C8 C6 1_555 1_555
H5 C8 1_555 1_555
C9 C8 1_555 1_555
H6 C9 1_555 1_555
H7 C9 1_555 1_555
C10 C9 1_555 1_555
C11 C10 1_555 1_555
H8 C11 1_555 1_555
C12 C11 1_555 1_555
H9 C12 1_555 1_555
C13 C12 1_555 1_555
C14 C13 1_555 1_555
H10 C14 1_555 1_555
C15 C10 1_555 1_555
H11 C15 1_555 1_555
C16 H12 1_555 1_555
C17 H13 1_555 1_555
C18 H14 1_555 1_555
H15 C18 1_555 1_555
C19 C8 1_555 1_555
H16 C19 1_555 1_555
C20 C21 1_555 1_555
C21 C22 1_555 1_555
C22 H17 1_555 1_555
H18 C22 1_555 1_555
H19 C22 1_555 1_555
C23 C21 1_555 1_555
H20 C23 1_555 1_555
H21 C23 1_555 1_555
H22 C23 1_555 1_555
C24 C28 1_555 1_555
C25 H23 1_555 1_555
C26 C25 1_555 1_555
C27 C26 1_555 1_555
H24 C27 1_555 1_555
C28 C27 1_555 1_555
H25 C28 1_555 1_555
C29 C26 1_555 1_555
O1 C20 1_555 1_555
O2 C21 1_555 1_555
N1 C1 1_555 1_555
N2 C16 1_555 1_555
N3 C17 1_555 1_555
N4 C16 1_555 1_555
N5 C19 1_555 1_555
H26 N5 1_555 1_555
N6 C24 1_555 1_555
Cl1 C13 1_555 1_555
F1 C29 1_555 1_555
F2 C29 1_555 1_555
F3 C29 1_555 1_555
C6 C7 1_555 1_555
C14 C15 1_555 1_555
C17 N2 1_555 1_555
C18 C19 1_555 1_555
C18 N4 1_555 1_555
C20 N5 1_555 1_555
C24 O2 1_555 1_555
C25 N6 1_555 1_555
N3 N4 1_555 1_555

#END
