
#######################################################################
#
#                 Cambridge Crystallographic Data Centre
#                                CCDC 
#
#######################################################################
#
# If this CIF has been generated from an entry in the Cambridge 
# Structural Database, then it will include bibliographic, chemical, 
# crystal, experimental, refinement or atomic coordinate data resulting 
# from the CCDC's data processing and validation procedures.
#
#######################################################################

data_XOMKAM
_chemical_formula_moiety         'C42 H48 O4 S4,C1 H1 Cl3'
_chemical_name_systematic        
'5,17-bis(2-Methyl-1,3-dithiolan-2-yl)-26,28-dihydroxy-25,27-dipropoxycalix(4)arene chloroform solvate'
_symmetry_cell_setting           monoclinic
_symmetry_space_group_name_H-M   'P 21/n'
_symmetry_Int_Tables_number      14
_space_group_name_Hall           '-P 2yn'
loop_
_symmetry_equiv_pos_site_id
_symmetry_equiv_pos_as_xyz
1 x,y,z
2 1/2-x,1/2+y,1/2-z
3 -x,-y,-z
4 1/2+x,1/2-y,1/2+z
_cell_length_a                   10.9794(19)
_cell_length_b                   34.998(6)
_cell_length_c                   11.755(2)
_cell_angle_alpha                90
_cell_angle_beta                 108.649(4)
_cell_angle_gamma                90
_cell_volume                     4279.78
_exptl_crystal_colour            colorless
_exptl_crystal_description       needle
_cell_formula_units_Z            4
_exptl_crystal_recrystallization_method chloroform/methanol
loop_
_atom_site_label
_atom_site_type_symbol
_atom_site_fract_x
_atom_site_fract_y
_atom_site_fract_z
S1 S 0.9703(4) 0.19406(12) 0.4068(4)
S2 S 1.1928(4) 0.24376(14) 0.4567(4)
S3 S 0.1167(5) 0.40607(17) -0.3728(4)
S4 S -0.0314(5) 0.35730(18) -0.2693(5)
O1 O 0.7320(9) 0.3700(3) 0.3877(9)
H1 H 0.7802 0.3874 0.4214
O2 O 0.7251(10) 0.4321(3) 0.2375(10)
O3 O 0.4650(10) 0.4044(3) 0.2014(10)
H2 H 0.4940 0.3848 0.2385
O4 O 0.4707(9) 0.3598(3) 0.3949(8)
C1 C 0.8018(12) 0.3391(4) 0.3809(12)
C2 C 0.7766(13) 0.3050(4) 0.4226(11)
C3 C 0.8481(15) 0.2737(5) 0.4187(15)
H3 H 0.8300 0.2511 0.4511
C4 C 0.9468(13) 0.2738(4) 0.3689(12)
C5 C 0.9741(14) 0.3107(4) 0.3289(13)
H4 H 1.0426 0.3128 0.2989
C6 C 0.9049(14) 0.3426(4) 0.3325(13)
C7 C 0.9352(14) 0.3796(4) 0.2788(16)
H5 H 0.9317 0.4008 0.3310
H6 H 1.0219 0.3783 0.2746
C8 C 0.8426(14) 0.3870(4) 0.1550(15)
C9 C 0.8491(16) 0.3676(5) 0.0550(16)
H7 H 0.9155 0.3502 0.0634
C10 C 0.7585(18) 0.3733(5) -0.0594(16)
H8 H 0.7688 0.3622 -0.1277
C11 C 0.6546(16) 0.3958(5) -0.0659(17)
H9 H 0.5879 0.3972 -0.1383
C12 C 0.6445(19) 0.4168(5) 0.031(2)
C13 C 0.7391(14) 0.4122(5) 0.1442(13)
C14 C 0.5178(17) 0.4390(5) 0.0110(16)
H10 H 0.5272 0.4560 0.0784
H11 H 0.5005 0.4545 -0.0608
C15 C 0.4037(15) 0.4121(4) -0.0022(15)
C16 C 0.3139(17) 0.4053(5) -0.1162(17)
H12 H 0.3267 0.4178 -0.1812
C17 C 0.2118(17) 0.3824(5) -0.1385(17)
C18 C 0.1940(16) 0.3647(5) -0.0356(15)
H13 H 0.1241 0.3485 -0.0463
C19 C 0.2752(14) 0.3707(4) 0.0774(14)
C20 C 0.3794(14) 0.3950(4) 0.0914(13)
C21 C 0.2556(18) 0.3525(6) 0.1863(16)
H14 H 0.1667 0.3443 0.1651
H15 H 0.2688 0.3719 0.2480
C22 C 0.3415(14) 0.3185(4) 0.2400(13)
C23 C 0.3176(15) 0.2824(5) 0.1891(15)
H16 H 0.2459 0.2786 0.1218
C24 C 0.3962(18) 0.2529(5) 0.2351(15)
H17 H 0.3755 0.2284 0.2051
C25 C 0.5111(16) 0.2600(5) 0.3301(15)
H18 H 0.5692 0.2401 0.3589
C26 C 0.5385(15) 0.2962(4) 0.3812(13)
C27 C 0.4469(14) 0.3244(4) 0.3387(12)
C28 C 0.6671(15) 0.3030(5) 0.4806(14)
H19 H 0.6839 0.2823 0.5385
H20 H 0.6637 0.3267 0.5222
C29 C 1.0262(14) 0.2384(5) 0.3587(13)
C30 C 1.0255(18) 0.2318(5) 0.2299(15)
H21 H 0.9383 0.2307 0.1773
H22 H 1.0683 0.2082 0.2257
H23 H 1.0693 0.2525 0.2060
C31 C 1.0790(16) 0.1936(5) 0.5589(14)
H24 H 1.0304 0.1899 0.6139
H25 H 1.1384 0.1724 0.5687
C32 C 1.1507(18) 0.2290(6) 0.5879(17)
H26 H 1.2280 0.2252 0.6558
H27 H 1.0990 0.2485 0.6089
C33 C 0.1289(19) 0.3683(6) -0.2632(15)
C34 C 0.163(3) 0.3350(8) -0.328(2)
H28 H 0.2499 0.3272 -0.2877
H29 H 0.1549 0.3424 -0.4092
H30 H 0.1059 0.3140 -0.3300
C35 C 0.008(3) 0.4344(10) -0.309(4)
H31 H 0.0603 0.4507 -0.2452
H32 H -0.0457 0.4509 -0.3715
C36 C -0.076(4) 0.4104(10) -0.261(4)
H33 H -0.1658 0.4145 -0.3077
H34 H -0.0650 0.4174 -0.1783
C37 C 0.781(2) 0.4699(5) 0.255(2)
H35 H 0.7380 0.4861 0.1869
H36 H 0.8715 0.4685 0.2619
C38 C 0.766(3) 0.4865(7) 0.369(2)
H37 H 0.7984 0.4687 0.4348
H38 H 0.8139 0.5102 0.3895
C39 C 0.628(4) 0.4936(9) 0.346(3)
H39 H 0.5984 0.5125 0.2845
H40 H 0.6151 0.5026 0.4187
H41 H 0.5811 0.4703 0.3213
C40 C 0.4130(19) 0.3628(5) 0.4880(17)
H42 H 0.4488 0.3436 0.5490
H43 H 0.3211 0.3586 0.4550
C41 C 0.439(2) 0.4018(6) 0.542(2)
H44 H 0.3907 0.4202 0.4835
H45 H 0.4069 0.4029 0.6101
C42 C 0.577(2) 0.4135(10) 0.584(3)
H46 H 0.6282 0.3933 0.6303
H47 H 0.5869 0.4360 0.6326
H48 H 0.6040 0.4188 0.5156
C43 C 0.2863(14) 0.9707(4) 0.3281(11)
H49 H 0.2204 0.9518 0.3282
Cl1 Cl 0.4320(8) 0.9516(3) 0.4062(10)
Cl2 Cl 0.2833(15) 0.9764(4) 0.1829(10)
Cl3 Cl 0.2497(9) 1.0119(3) 0.3871(11)
Cl4? Cl 0.407(9) 0.967(5) 0.268(12)
Cl5? Cl 0.192(6) 1.0049(12) 0.240(4)
Cl6? Cl 0.305(8) 0.988(2) 0.468(3)
loop_
_geom_bond_atom_site_label_1
_geom_bond_atom_site_label_2
_geom_bond_site_symmetry_1
_geom_bond_site_symmetry_2
S1 C29 1_555 1_555
S2 C29 1_555 1_555
S3 C33 1_555 1_555
S4 C33 1_555 1_555
O1 H1 1_555 1_555
O2 C13 1_555 1_555
O3 H2 1_555 1_555
O4 C27 1_555 1_555
C1 O1 1_555 1_555
C2 C1 1_555 1_555
C3 C2 1_555 1_555
H3 C3 1_555 1_555
C4 C3 1_555 1_555
C5 C4 1_555 1_555
H4 C5 1_555 1_555
C6 C1 1_555 1_555
C7 C6 1_555 1_555
H5 C7 1_555 1_555
H6 C7 1_555 1_555
C8 C7 1_555 1_555
C9 C8 1_555 1_555
H7 C9 1_555 1_555
C10 C9 1_555 1_555
H8 C10 1_555 1_555
C11 C10 1_555 1_555
H9 C11 1_555 1_555
C12 C11 1_555 1_555
C13 C8 1_555 1_555
C14 C12 1_555 1_555
H10 C14 1_555 1_555
H11 C14 1_555 1_555
C15 C14 1_555 1_555
C16 C15 1_555 1_555
H12 C16 1_555 1_555
C17 C16 1_555 1_555
C18 C17 1_555 1_555
H13 C18 1_555 1_555
C19 C18 1_555 1_555
C20 O3 1_555 1_555
C21 C19 1_555 1_555
H14 C21 1_555 1_555
H15 C21 1_555 1_555
C22 C21 1_555 1_555
C23 C22 1_555 1_555
H16 C23 1_555 1_555
C24 C23 1_555 1_555
H17 C24 1_555 1_555
C25 C24 1_555 1_555
H18 C25 1_555 1_555
C26 C25 1_555 1_555
C27 C22 1_555 1_555
C28 C2 1_555 1_555
H19 C28 1_555 1_555
H20 C28 1_555 1_555
C29 C4 1_555 1_555
C30 C29 1_555 1_555
H21 C30 1_555 1_555
H22 C30 1_555 1_555
H23 C30 1_555 1_555
C31 S1 1_555 1_555
H24 C31 1_555 1_555
H25 C31 1_555 1_555
C32 S2 1_555 1_555
H26 C32 1_555 1_555
H27 C32 1_555 1_555
C33 C17 1_555 1_555
C34 C33 1_555 1_555
H28 C34 1_555 1_555
H29 C34 1_555 1_555
H30 C34 1_555 1_555
C35 S3 1_555 1_555
H31 C35 1_555 1_555
H32 C35 1_555 1_555
C36 S4 1_555 1_555
H33 C36 1_555 1_555
H34 C36 1_555 1_555
C37 O2 1_555 1_555
H35 C37 1_555 1_555
H36 C37 1_555 1_555
C38 C37 1_555 1_555
H37 C38 1_555 1_555
H38 C38 1_555 1_555
C39 C38 1_555 1_555
H39 C39 1_555 1_555
H40 C39 1_555 1_555
H41 C39 1_555 1_555
C40 O4 1_555 1_555
H42 C40 1_555 1_555
H43 C40 1_555 1_555
C41 C40 1_555 1_555
H44 C41 1_555 1_555
H45 C41 1_555 1_555
C42 C41 1_555 1_555
H46 C42 1_555 1_555
H47 C42 1_555 1_555
H48 C42 1_555 1_555
C43 H49 1_555 1_555
Cl1 C43 1_555 1_555
Cl2 C43 1_555 1_555
Cl3 C43 1_555 1_555
C5 C6 1_555 1_555
C12 C13 1_555 1_555
C15 C20 1_555 1_555
C19 C20 1_555 1_555
C26 C27 1_555 1_555
C26 C28 1_555 1_555
C31 C32 1_555 1_555
C35 C36 1_555 1_555

#END
