
#######################################################################
#
#                 Cambridge Crystallographic Data Centre
#                                CCDC 
#
#######################################################################
#
# If this CIF has been generated from an entry in the Cambridge 
# Structural Database, then it will include bibliographic, chemical, 
# crystal, experimental, refinement or atomic coordinate data resulting 
# from the CCDC's data processing and validation procedures.
#
#######################################################################

data_XOMLUG
_chemical_formula_moiety         'C6 H16 N2,2(C7 F15 I1)'
_chemical_name_systematic        
"N,N,N',N'-Tetramethylethylenediamine bis(1-iodoperfluoroheptane)"
_symmetry_cell_setting           triclinic
_symmetry_space_group_name_H-M   'P -1'
_symmetry_Int_Tables_number      2
_space_group_name_Hall           '-P 1'
loop_
_symmetry_equiv_pos_site_id
_symmetry_equiv_pos_as_xyz
1 x,y,z
2 -x,-y,-z
_cell_length_a                   6.2283(10)
_cell_length_b                   9.250(2)
_cell_length_c                   15.098(3)
_cell_angle_alpha                81.369(5)
_cell_angle_beta                 81.397(5)
_cell_angle_gamma                86.010(5)
_cell_volume                     849.307
_exptl_crystal_colour            colorless
_exptl_crystal_description       ellipsoid
_chemical_melting_point          52-53deg.C
_cell_formula_units_Z            1
loop_
_atom_site_label
_atom_site_type_symbol
_atom_site_fract_x
_atom_site_fract_y
_atom_site_fract_z
N1 N 0.1462(5) 0.1676(3) -0.06104(19)
C1 C 0.0811(7) 0.0140(4) -0.0427(3)
H1 H 0.215(9) -0.067(6) -0.026(4)
H2 H -0.012(8) 0.012(6) -0.101(4)
C2 C -0.0246(7) 0.2773(5) -0.0841(3)
H3 H -0.133(11) 0.278(8) -0.037(5)
H4 H -0.092(8) 0.253(6) -0.133(4)
H5 H 0.031(6) 0.373(5) -0.105(3)
C3 C 0.3253(7) 0.1730(5) -0.1359(3)
H6 H 0.465(9) 0.092(6) -0.125(4)
H7 H 0.387(9) 0.282(6) -0.150(4)
H8 H 0.280(7) 0.156(5) -0.190(3)
C1A C -0.0811(7) -0.0140(4) 0.0427(3)
N1A N -0.1462(5) -0.1676(3) 0.06104(19)
C2A C 0.0246(7) -0.2773(5) 0.0841(3)
H3A H 0.133(11) -0.278(8) 0.037(5)
H4A H 0.092(8) -0.253(6) 0.133(4)
H5A H -0.031(6) -0.373(5) 0.105(3)
C3A C -0.3253(7) -0.1730(5) 0.1359(3)
H6A H -0.465(9) -0.092(6) 0.125(4)
H7A H -0.387(9) -0.282(6) 0.150(4)
H8A H -0.280(7) -0.156(5) 0.190(3)
H1A H -0.215(9) 0.067(6) 0.026(4)
H2A H 0.012(8) -0.012(6) 0.101(4)
I1 I 0.32011(3) 0.26610(2) 0.075603(14)
C4 C 0.4711(8) 0.3677(4) 0.1696(3)
F1 F 0.6624(6) 0.4242(4) 0.12710(18)
F2 F 0.3466(7) 0.4805(3) 0.1958(2)
C5 C 0.5228(5) 0.2632(4) 0.2527(2)
F3 F 0.6677(5) 0.1609(3) 0.22459(19)
F4 F 0.3414(4) 0.1971(3) 0.29165(16)
C6 C 0.6329(18) 0.3347(10) 0.3205(6)
F5 F 0.8408(13) 0.3644(12) 0.2859(5)
F6 F 0.5363(19) 0.4592(8) 0.3365(7)
C7 C 0.6434(19) 0.2382(12) 0.4113(7)
F7 F 0.7109(15) 0.1033(7) 0.3969(5)
F8 F 0.4387(9) 0.2332(11) 0.4557(4)
C8 C 0.781(2) 0.2880(12) 0.4776(7)
F9 F 0.9921(7) 0.2642(7) 0.4452(3)
F10 F 0.740(3) 0.4308(13) 0.4780(14)
C9 C 0.7428(12) 0.2097(9) 0.5751(5)
F11 F 0.7371(16) 0.0668(8) 0.5752(7)
F12 F 0.5482(8) 0.2569(9) 0.6144(4)
C10 C 0.9035(19) 0.2340(13) 0.6378(7)
F13 F 0.934(3) 0.3716(13) 0.6371(13)
F14 F 1.0985(9) 0.1758(8) 0.6112(4)
F15 F 0.8420(13) 0.1662(10) 0.7202(4)
C11? C 0.5982(18) 0.3316(11) 0.3310(7)
F16? F 0.7362(14) 0.4335(7) 0.2923(4)
F17? F 0.4250(10) 0.4013(8) 0.3713(4)
C12? C 0.7014(18) 0.2244(10) 0.4005(6)
F18? F 0.5833(11) 0.1083(7) 0.4221(4)
F19? F 0.9022(7) 0.1829(7) 0.3631(3)
C13? C 0.725(2) 0.2837(12) 0.4887(7)
F20? F 0.5235(8) 0.2886(8) 0.5373(3)
F21? F 0.794(3) 0.4196(11) 0.4696(13)
C14? C 0.8773(13) 0.1906(10) 0.5480(5)
F22? F 0.8386(14) 0.0487(9) 0.5529(7)
F23? F 1.0819(8) 0.2115(9) 0.5089(4)
C15? C 0.866(2) 0.2237(14) 0.6429(8)
F24? F 0.883(3) 0.3592(11) 0.6493(12)
F25? F 1.0124(16) 0.1451(10) 0.6855(5)
F26? F 0.6811(14) 0.1976(12) 0.6933(4)
loop_
_geom_bond_atom_site_label_1
_geom_bond_atom_site_label_2
_geom_bond_site_symmetry_1
_geom_bond_site_symmetry_2
N1 C1 1_555 1_555
C1 H1 1_555 1_555
H2 C1 1_555 1_555
C2 N1 1_555 1_555
H3 C2 1_555 1_555
H4 C2 1_555 1_555
H5 C2 1_555 1_555
C3 N1 1_555 1_555
H6 C3 1_555 1_555
H7 C3 1_555 1_555
H8 C3 1_555 1_555
I1 C4 1_555 1_555
C4 F1 1_555 1_555
F2 C4 1_555 1_555
C5 C4 1_555 1_555
F3 C5 1_555 1_555
F4 C5 1_555 1_555
C6 C5 1_555 1_555
F5 C6 1_555 1_555
F6 C6 1_555 1_555
C7 C6 1_555 1_555
F7 C7 1_555 1_555
F8 C7 1_555 1_555
C8 C7 1_555 1_555
F9 C8 1_555 1_555
F10 C8 1_555 1_555
C9 C8 1_555 1_555
F11 C9 1_555 1_555
F12 C9 1_555 1_555
C10 C9 1_555 1_555
F13 C10 1_555 1_555
F14 C10 1_555 1_555
F15 C10 1_555 1_555
C1A C1 1_555 1_555
N1A C1A 1_555 1_555
C2A N1A 1_555 1_555
H3A C2A 1_555 1_555
H4A C2A 1_555 1_555
H5A C2A 1_555 1_555
C3A N1A 1_555 1_555
H6A C3A 1_555 1_555
H7A C3A 1_555 1_555
H8A C3A 1_555 1_555
H1A C1A 1_555 1_555
H2A C1A 1_555 1_555

#END
