
#######################################################################
#
#                 Cambridge Crystallographic Data Centre
#                                CCDC 
#
#######################################################################
#
# If this CIF has been generated from an entry in the Cambridge 
# Structural Database, then it will include bibliographic, chemical, 
# crystal, experimental, refinement or atomic coordinate data resulting 
# from the CCDC's data processing and validation procedures.
#
#######################################################################

data_XOMXAA
_chemical_formula_moiety         'C19 H28 B1 Cl1 N1 1-,C4 H8 O1,K1 1+'
_chemical_name_systematic        
'potassium 3,5-di-t-butyl-2-chloro-1-(2,6-dimethylphenyl)-1,2-azaborate tetrahydrofuran solvate'
_symmetry_cell_setting           monoclinic
_symmetry_space_group_name_H-M   'P 21/n'
_symmetry_Int_Tables_number      14
_space_group_name_Hall           '-P 2yn'
loop_
_symmetry_equiv_pos_site_id
_symmetry_equiv_pos_as_xyz
1 x,y,z
2 1/2-x,1/2+y,1/2-z
3 -x,-y,-z
4 1/2+x,1/2-y,1/2+z
_cell_length_a                   11.905(3)
_cell_length_b                   11.540(3)
_cell_length_c                   18.044(5)
_cell_angle_alpha                90
_cell_angle_beta                 106.268(4)
_cell_angle_gamma                90
_cell_volume                     2379.7
_exptl_crystal_colour            'pale yellow'
_exptl_crystal_description       Prism
_cell_formula_units_Z            4
loop_
_atom_site_label
_atom_site_type_symbol
_atom_site_fract_x
_atom_site_fract_y
_atom_site_fract_z
Cl1 Cl 0.66330(2) 0.17512(3) 0.178256(17)
N1 N 0.73319(8) 0.10236(8) 0.33503(6)
C1 C 0.68687(9) 0.06710(9) 0.39644(7)
C2 C 0.82770(10) 0.11668(10) 0.52936(7)
H1 H 0.8862 0.1519 0.5075
H2 H 0.8669 0.0821 0.5796
H3 H 0.7727 0.1763 0.5360
C3 C 0.76756(12) 0.33283(10) 0.40218(8)
H4 H 0.7817 0.3285 0.4583
H5 H 0.6917 0.2976 0.3767
H6 H 0.7673 0.4141 0.3864
C4 C 0.39535(10) 0.10865(10) 0.24516(7)
C5 C 0.84458(9) 0.15746(10) 0.34584(7)
C6 C 0.56676(10) 0.06356(9) 0.36712(7)
H7 H 0.5160 0.0408 0.3968
C7 C 0.52530(10) 0.09762(9) 0.28718(7)
C8 C 1.03697(10) 0.16303(11) 0.32644(8)
H8 H 1.0956 0.1287 0.3070
C9 C 0.84949(10) -0.06856(11) 0.46353(7)
H9 H 0.8077 -0.1347 0.4343
H10 H 0.8973 -0.0950 0.5142
H11 H 0.9002 -0.0337 0.4352
C10 C 0.93081(10) 0.10549(10) 0.31712(7)
C11 C 0.97196(11) 0.32144(11) 0.38909(8)
H12 H 0.9866 0.3947 0.4139
C12 C 0.76060(10) 0.02197(9) 0.47438(7)
C13 C 0.34521(11) 0.21609(11) 0.27522(9)
H13 H 0.3562 0.2083 0.3309
H14 H 0.2615 0.2228 0.2487
H15 H 0.3860 0.2856 0.2652
C14 C 0.32591(10) 0.00221(10) 0.25925(8)
H16 H 0.3567 -0.0677 0.2411
H17 H 0.2432 0.0116 0.2310
H18 H 0.3337 -0.0049 0.3146
C15 C 0.86302(10) 0.26853(10) 0.37930(7)
C16 C 0.67949(11) -0.03668(11) 0.51600(7)
H19 H 0.6234 0.0202 0.5247
H20 H 0.7262 -0.0675 0.5657
H21 H 0.6371 -0.1002 0.4841
C17 C 0.37643(11) 0.12054(12) 0.15824(8)
H22 H 0.4147 0.1913 0.1476
H23 H 0.2924 0.1247 0.1322
H24 H 0.4101 0.0532 0.1391
B1 B 0.63350(11) 0.12450(11) 0.26703(8)
C18 C 0.91026(11) -0.00924(10) 0.27593(8)
H25 H 0.9024 -0.0700 0.3121
H26 H 0.9766 -0.0272 0.2558
H27 H 0.8384 -0.0052 0.2331
C19 C 1.05851(11) 0.26941(12) 0.36350(8)
H28 H 1.1323 0.3061 0.3712
K1 K 0.63320(2) -0.14369(2) 0.290854(16)
O1 O 0.57324(8) -0.28748(8) 0.39112(6)
C20 C 0.60212(13) -0.36006(12) 0.51557(9)
H29 H 0.6573 -0.3063 0.5504
H30 H 0.6021 -0.4348 0.5425
C21 C 0.63412(14) -0.37709(13) 0.44128(10)
H31 H 0.7197 -0.3697 0.4499
H32 H 0.6090 -0.4545 0.4191
C22 C 0.47877(12) -0.30817(12) 0.48954(9)
H33 H 0.4197 -0.3643 0.4966
H34 H 0.4737 -0.2367 0.5187
C23 C 0.46142(12) -0.28195(15) 0.40496(10)
H35 H 0.4078 -0.3394 0.3725
H36 H 0.4271 -0.2038 0.3923
loop_
_geom_bond_atom_site_label_1
_geom_bond_atom_site_label_2
_geom_bond_site_symmetry_1
_geom_bond_site_symmetry_2
Cl1 B1 1_555 1_555
N1 C1 1_555 1_555
C1 C6 1_555 1_555
C2 H1 1_555 1_555
H2 C2 1_555 1_555
H3 C2 1_555 1_555
C3 H4 1_555 1_555
H5 C3 1_555 1_555
H6 C3 1_555 1_555
C4 C7 1_555 1_555
C5 N1 1_555 1_555
C6 H7 1_555 1_555
C7 C6 1_555 1_555
C8 H8 1_555 1_555
C9 H9 1_555 1_555
H10 C9 1_555 1_555
H11 C9 1_555 1_555
C10 C5 1_555 1_555
C11 H12 1_555 1_555
C12 C1 1_555 1_555
C13 C4 1_555 1_555
H13 C13 1_555 1_555
H14 C13 1_555 1_555
H15 C13 1_555 1_555
C14 C4 1_555 1_555
H16 C14 1_555 1_555
H17 C14 1_555 1_555
H18 C14 1_555 1_555
C15 C3 1_555 1_555
C16 C12 1_555 1_555
H19 C16 1_555 1_555
H20 C16 1_555 1_555
H21 C16 1_555 1_555
C17 C4 1_555 1_555
H22 C17 1_555 1_555
H23 C17 1_555 1_555
H24 C17 1_555 1_555
B1 N1 1_555 1_555
C18 C10 1_555 1_555
H25 C18 1_555 1_555
H26 C18 1_555 1_555
H27 C18 1_555 1_555
C19 C8 1_555 1_555
H28 C19 1_555 1_555
O1 C21 1_555 1_555
C20 H29 1_555 1_555
H30 C20 1_555 1_555
C21 C20 1_555 1_555
H31 C21 1_555 1_555
H32 C21 1_555 1_555
C22 C20 1_555 1_555
H33 C22 1_555 1_555
H34 C22 1_555 1_555
C23 O1 1_555 1_555
H35 C23 1_555 1_555
H36 C23 1_555 1_555
C2 C12 1_555 1_555
C5 C15 1_555 1_555
C7 B1 1_555 1_555
C8 C10 1_555 1_555
C9 C12 1_555 1_555
C11 C15 1_555 1_555
C11 C19 1_555 1_555
C22 C23 1_555 1_555

#END
