
#######################################################################
#
#                 Cambridge Crystallographic Data Centre
#                                CCDC 
#
#######################################################################
#
# If this CIF has been generated from an entry in the Cambridge 
# Structural Database, then it will include bibliographic, chemical, 
# crystal, experimental, refinement or atomic coordinate data resulting 
# from the CCDC's data processing and validation procedures.
#
#######################################################################

data_XOMYON
_chemical_formula_moiety         'C33 H34 Br1 N1 O3'
_chemical_name_systematic        
1-(4-(Benzyloxy)phenylmethyl)-8-bromo-2-(1-phenylethyl)-6,7-dimethoxy-1,2,3,4-tetrahydroisoquinoline
_symmetry_cell_setting           monoclinic
_symmetry_space_group_name_H-M   'P 21'
_symmetry_Int_Tables_number      4
_space_group_name_Hall           'P 2yb'
loop_
_symmetry_equiv_pos_site_id
_symmetry_equiv_pos_as_xyz
1 x,y,z
2 -x,1/2+y,-z
_cell_length_a                   10.814(2)
_cell_length_b                   9.818(1)
_cell_length_c                   13.573(2)
_cell_angle_alpha                90
_cell_angle_beta                 97.61(1)
_cell_angle_gamma                90
_cell_volume                     1428.38
_exptl_crystal_colour            colorless
_exptl_crystal_description       prism
_cell_formula_units_Z            2
loop_
_atom_site_label
_atom_site_type_symbol
_atom_site_fract_x
_atom_site_fract_y
_atom_site_fract_z
Br1 Br 0.18223(4) -0.1028 0.33988(3)
O1 O -0.1689(3) -0.0346(4) 0.0498(3)
O2 O -0.0030(4) -0.1875(4) 0.1674(3)
O3 O 0.4217(3) 0.3869(6) 0.7998(2)
N1 N 0.1548(3) 0.3609(3) 0.3662(2)
C1 C 0.0325(5) 0.4256(5) 0.3412(3)
C2 C -0.0383(4) 0.3811(7) 0.2418(3)
C3 C -0.0288(4) 0.2276(5) 0.2268(3)
C4 C -0.1053(4) 0.1683(5) 0.1467(3)
C5 C -0.0954(4) 0.0327(5) 0.1259(3)
C6 C -0.0099(5) -0.0483(5) 0.1837(4)
C7 C 0.0645(4) 0.0111(4) 0.2626(3)
C8 C 0.0577(4) 0.1501(4) 0.2867(3)
C9 C 0.1395(4) 0.2126(4) 0.3758(3)
C10 C 0.0920(4) 0.1766(5) 0.4743(3)
C11 C 0.1786(4) 0.2261(5) 0.5635(3)
C12 C 0.2797(4) 0.1498(5) 0.6040(3)
C13 C 0.3650(4) 0.1995(5) 0.6832(3)
C14 C 0.3464(4) 0.3260(5) 0.7214(3)
C15 C 0.2449(4) 0.4048(8) 0.6820(3)
C16 C 0.1628(4) 0.3540(5) 0.6042(3)
C17 C 0.5327(4) 0.3185(5) 0.8395(4)
C18 C 0.5986(4) 0.4068(8) 0.9193(3)
C19 C 0.5892(4) 0.386(1) 1.0189(3)
C20 C 0.6479(6) 0.4732(7) 1.0906(4)
C21 C 0.7171(6) 0.5784(8) 1.0656(5)
C22 C 0.7312(5) 0.6006(7) 0.9675(5)
C23 C 0.6717(5) 0.5166(6) 0.8948(4)
C24 C 0.2469(4) 0.3950(7) 0.2990(3)
C25 C 0.2567(6) 0.5504(6) 0.2847(5)
C26 C 0.3753(4) 0.3424(5) 0.3402(3)
C27 C 0.4232(4) 0.3584(5) 0.4381(3)
C28 C 0.5428(5) 0.3101(8) 0.4731(4)
C29 C 0.6131(6) 0.2519(8) 0.4100(7)
C30 C 0.5671(7) 0.2358(8) 0.3117(6)
C31 C 0.4495(6) 0.2820(7) 0.2775(4)
C32 C -0.2806(5) 0.0263(7) 0.0073(4)
C33 C 0.0434(6) -0.2248(7) 0.0841(5)
H1 H -0.0185 0.4015 0.3922
H2 H 0.0418 0.5213 0.3412
H3 H -0.1231 0.4066 0.2390
H4 H -0.0022 0.4270 0.1907
H5 H -0.1651 0.2218 0.1071
H6 H 0.2201 0.1730 0.3774
H7 H 0.0127 0.2160 0.4752
H8 H 0.0857 0.0798 0.4787
H9 H 0.2918 0.0623 0.5782
H10 H 0.4340 0.1465 0.7103
H11 H 0.2321 0.4917 0.7086
H12 H 0.0938 0.4082 0.5774
H13 H 0.5142 0.2330 0.8664
H14 H 0.5851 0.3049 0.7889
H15 H 0.5425 0.3102 1.0382
H16 H 0.6404 0.4594 1.1583
H17 H 0.7557 0.6388 1.1150
H18 H 0.7828 0.6726 0.9502
H19 H 0.6788 0.5338 0.8269
H20 H 0.2220 0.3546 0.2360
H21 H 0.2620 0.5952 0.3474
H22 H 0.3307 0.5711 0.2556
H23 H 0.1864 0.5830 0.2423
H24 H 0.3759 0.4040 0.4826
H25 H 0.5748 0.3173 0.5411
H26 H 0.6945 0.2207 0.4342
H27 H 0.6183 0.1959 0.2667
H28 H 0.4180 0.2720 0.2088
H29 H -0.3276 0.0540 0.0590
H30 H -0.2626 0.1040 -0.0296
H31 H -0.3286 -0.0366 -0.0347
H32 H 0.1123 -0.2882 0.1026
H33 H -0.0185 -0.2735 0.0410
H34 H 0.0727 -0.1507 0.0516
loop_
_geom_bond_atom_site_label_1
_geom_bond_atom_site_label_2
_geom_bond_site_symmetry_1
_geom_bond_site_symmetry_2
Br1 C7 1_555 1_555
O1 C5 1_555 1_555
O2 C6 1_555 1_555
O3 C14 1_555 1_555
N1 C1 1_555 1_555
C1 C2 1_555 1_555
C2 C3 1_555 1_555
C3 C4 1_555 1_555
C4 C5 1_555 1_555
C5 C6 1_555 1_555
C6 C7 1_555 1_555
C7 C8 1_555 1_555
C8 C3 1_555 1_555
C9 N1 1_555 1_555
C10 C9 1_555 1_555
C11 C10 1_555 1_555
C12 C11 1_555 1_555
C13 C12 1_555 1_555
C14 C13 1_555 1_555
C15 C14 1_555 1_555
C16 C11 1_555 1_555
C17 O3 1_555 1_555
C18 C17 1_555 1_555
C19 C18 1_555 1_555
C20 C19 1_555 1_555
C21 C20 1_555 1_555
C22 C21 1_555 1_555
C23 C18 1_555 1_555
C24 N1 1_555 1_555
C25 C24 1_555 1_555
C26 C24 1_555 1_555
C27 C26 1_555 1_555
C28 C27 1_555 1_555
C29 C28 1_555 1_555
C30 C29 1_555 1_555
C31 C26 1_555 1_555
C32 O1 1_555 1_555
C33 O2 1_555 1_555
H1 C1 1_555 1_555
H2 C1 1_555 1_555
H3 C2 1_555 1_555
H4 C2 1_555 1_555
H5 C4 1_555 1_555
H6 C9 1_555 1_555
H7 C10 1_555 1_555
H8 C10 1_555 1_555
H9 C12 1_555 1_555
H10 C13 1_555 1_555
H11 C15 1_555 1_555
H12 C16 1_555 1_555
H13 C17 1_555 1_555
H14 C17 1_555 1_555
H15 C19 1_555 1_555
H16 C20 1_555 1_555
H17 C21 1_555 1_555
H18 C22 1_555 1_555
H19 C23 1_555 1_555
H20 C24 1_555 1_555
H21 C25 1_555 1_555
H22 C25 1_555 1_555
H23 C25 1_555 1_555
H24 C27 1_555 1_555
H25 C28 1_555 1_555
H26 C29 1_555 1_555
H27 C30 1_555 1_555
H28 C31 1_555 1_555
H29 C32 1_555 1_555
H30 C32 1_555 1_555
H31 C32 1_555 1_555
H32 C33 1_555 1_555
H33 C33 1_555 1_555
H34 C33 1_555 1_555
C8 C9 1_555 1_555
C15 C16 1_555 1_555
C22 C23 1_555 1_555
C30 C31 1_555 1_555

#END
