
#######################################################################
#
#                 Cambridge Crystallographic Data Centre
#                                CCDC 
#
#######################################################################
#
# If this CIF has been generated from an entry in the Cambridge 
# Structural Database, then it will include bibliographic, chemical, 
# crystal, experimental, refinement or atomic coordinate data resulting 
# from the CCDC's data processing and validation procedures.
#
#######################################################################

data_XONDAH
_chemical_formula_moiety         'C22 H17 N1 O3'
_chemical_name_systematic        
'ethyl 2-methyl-5-oxo-4-phenyl-5H-indeno[1,2-b]pyridine-3-carboxylate'
_symmetry_cell_setting           monoclinic
_symmetry_space_group_name_H-M   'P 21/n'
_symmetry_Int_Tables_number      14
_space_group_name_Hall           '-P 2yn'
loop_
_symmetry_equiv_pos_site_id
_symmetry_equiv_pos_as_xyz
1 x,y,z
2 1/2-x,1/2+y,1/2-z
3 -x,-y,-z
4 1/2+x,1/2-y,1/2+z
_cell_length_a                   7.5078(5)
_cell_length_b                   21.0935(15)
_cell_length_c                   11.5058(7)
_cell_angle_alpha                90
_cell_angle_beta                 104.876(2)
_cell_angle_gamma                90
_cell_volume                     1761.05
_exptl_crystal_colour            colorless
_exptl_crystal_description       Block
_cell_formula_units_Z            4
loop_
_atom_site_label
_atom_site_type_symbol
_atom_site_fract_x
_atom_site_fract_y
_atom_site_fract_z
O1 O 0.8414(2) -0.14541(7) -0.01758(12)
O2 O 0.6148(2) -0.13861(7) 0.43180(13)
O3 O 0.8601(3) -0.08757(9) 0.54100(14)
C1 C 0.8038(2) -0.09322(9) 0.01098(15)
C2 C 0.7785(2) -0.03477(9) -0.06422(15)
C3 C 0.7909(3) -0.02677(11) -0.18085(17)
H1 H 0.8180 -0.0605 -0.2253
C4 C 0.7611(3) 0.03382(13) -0.22905(19)
H2 H 0.7679 0.0407 -0.3076
C5 C 0.7220(3) 0.08364(12) -0.16390(19)
H3 H 0.7015 0.1236 -0.1991
C6 C 0.7124(3) 0.07568(10) -0.04672(17)
H4 H 0.6880 0.1098 -0.0020
C7 C 0.7400(2) 0.01602(8) 0.00191(14)
C8 C 0.7399(2) -0.00751(8) 0.12264(14)
N1 N 0.71521(19) 0.02765(6) 0.21184(12)
C9 C 0.7245(2) -0.00268(8) 0.31612(15)
C10 C 0.7561(2) -0.06761(8) 0.33043(14)
C11 C 0.7839(2) -0.10463(7) 0.23492(14)
C12 C 0.7749(2) -0.07270(8) 0.12940(14)
C13 C 0.6928(3) 0.03831(9) 0.41543(19)
H5 H 0.8074 0.0449 0.4745
H6 H 0.6070 0.0178 0.4523
H7 H 0.6435 0.0784 0.3831
C14 C 0.7541(3) -0.09837(9) 0.44697(17)
C15 C 0.59739(17) -0.17604(5) 0.53546(10)
H8 H 0.6591 -0.1538 0.6085
H9 H 0.4680 -0.1793 0.5339
C16 C 0.82487(17) -0.17350(5) 0.25057(10)
C17 C 0.98739(17) -0.19322(5) 0.32859(10)
H10 H 1.0718 -0.1634 0.3694
C18 C 1.0249(3) -0.25680(10) 0.3461(2)
H11 H 1.1355 -0.2698 0.3979
C19 C 0.9018(4) -0.30077(10) 0.2885(2)
H12 H 0.9270 -0.3437 0.3020
C20 C 0.7406(4) -0.28198(10) 0.2105(2)
H13 H 0.6562 -0.3121 0.1710
C21 C 0.7030(3) -0.21815(8) 0.19042(18)
H14 H 0.5946 -0.2055 0.1359
C22 C 0.6712(3) -0.23704(8) 0.53900(18)
H15 H 0.6553 -0.2589 0.6088
H16 H 0.8001 -0.2343 0.5426
H17 H 0.6088 -0.2598 0.4680
H18? H 0.7162 -0.1756 0.5964
H19? H 0.5076 -0.1566 0.5712
C23? C 0.578(5) -0.2360(6) 0.5011(18)
H20? H 0.5663 -0.2619 0.5672
H21? H 0.6846 -0.2491 0.4754
H22? H 0.4701 -0.2404 0.4356
loop_
_geom_bond_atom_site_label_1
_geom_bond_atom_site_label_2
_geom_bond_site_symmetry_1
_geom_bond_site_symmetry_2
O1 C1 1_555 1_555
O2 C14 1_555 1_555
O3 C14 1_555 1_555
C1 C2 1_555 1_555
C2 C3 1_555 1_555
C3 H1 1_555 1_555
C4 C3 1_555 1_555
H2 C4 1_555 1_555
C5 C4 1_555 1_555
H3 C5 1_555 1_555
C6 C5 1_555 1_555
H4 C6 1_555 1_555
C7 C2 1_555 1_555
C8 C7 1_555 1_555
N1 C8 1_555 1_555
C9 N1 1_555 1_555
C10 C9 1_555 1_555
C11 C10 1_555 1_555
C12 C1 1_555 1_555
C13 C9 1_555 1_555
H5 C13 1_555 1_555
H6 C13 1_555 1_555
H7 C13 1_555 1_555
C14 C10 1_555 1_555
C15 O2 1_555 1_555
H8 C15 1_555 1_555
H9 C15 1_555 1_555
C16 C11 1_555 1_555
C17 C16 1_555 1_555
H10 C17 1_555 1_555
C18 C17 1_555 1_555
H11 C18 1_555 1_555
C19 C18 1_555 1_555
H12 C19 1_555 1_555
C20 C19 1_555 1_555
H13 C20 1_555 1_555
C21 C16 1_555 1_555
H14 C21 1_555 1_555
C22 C15 1_555 1_555
H15 C22 1_555 1_555
H16 C22 1_555 1_555
H17 C22 1_555 1_555
C6 C7 1_555 1_555
C8 C12 1_555 1_555
C11 C12 1_555 1_555
C20 C21 1_555 1_555

#END
