
#######################################################################
#
#                 Cambridge Crystallographic Data Centre
#                                CCDC 
#
#######################################################################
#
# If this CIF has been generated from an entry in the Cambridge 
# Structural Database, then it will include bibliographic, chemical, 
# crystal, experimental, refinement or atomic coordinate data resulting 
# from the CCDC's data processing and validation procedures.
#
#######################################################################

data_XONROH
_chemical_formula_moiety         'C20 H14 O2,C11 H12 N2 O2,C4 H8 O1'
_chemical_name_systematic        
"(R)-1,1'-Bi-(2-naphthol) (S)-5-oxopyrrolidine-2-carboxanilide tetrahydrofuran solvate"
_symmetry_cell_setting           monoclinic
_symmetry_space_group_name_H-M   'P 21'
_symmetry_Int_Tables_number      4
_space_group_name_Hall           'P 2yb'
loop_
_symmetry_equiv_pos_site_id
_symmetry_equiv_pos_as_xyz
1 x,y,z
2 -x,1/2+y,-z
_cell_length_a                   11.0489(8)
_cell_length_b                   8.8662(7)
_cell_length_c                   14.9503(11)
_cell_angle_alpha                90
_cell_angle_beta                 94.837(2)
_cell_angle_gamma                90
_cell_volume                     1459.34
_exptl_crystal_colour            colorless
_cell_formula_units_Z            2
loop_
_atom_site_label
_atom_site_type_symbol
_atom_site_fract_x
_atom_site_fract_y
_atom_site_fract_z
O1 O 0.7885(2) 0.4024(3) 0.11247(15)
O2 O 1.0950(3) 0.2894(3) 0.2264(2)
C1 C 0.7817(3) 0.3625(4) 0.2005(2)
C2 C 0.6776(3) 0.2809(5) 0.2178(3)
C3 C 0.6624(3) 0.2345(4) 0.3028(3)
C4 C 0.7523(3) 0.2628(4) 0.3737(2)
C5 C 0.7423(5) 0.2073(5) 0.4613(3)
C6 C 0.8300(5) 0.2327(6) 0.5275(3)
C7 C 0.9325(4) 0.3203(6) 0.5102(3)
C8 C 0.9445(4) 0.3734(5) 0.4281(3)
C9 C 0.8561(3) 0.3467(4) 0.3552(2)
C10 C 0.8687(3) 0.3999(4) 0.2665(2)
C11 C 0.9730(3) 0.5004(3) 0.2479(2)
C12 C 1.0816(3) 0.4422(4) 0.2292(2)
C13 C 1.1802(4) 0.5365(4) 0.2128(3)
C14 C 1.1673(4) 0.6885(5) 0.2140(2)
C15 C 1.0560(3) 0.7556(4) 0.2334(2)
C16 C 1.0409(4) 0.9129(5) 0.2373(3)
C17 C 0.9353(4) 0.9747(5) 0.2588(3)
C18 C 0.8387(4) 0.8800(4) 0.2769(3)
C19 C 0.8484(4) 0.7275(4) 0.2719(3)
C20 C 0.9575(3) 0.6593(3) 0.2506(2)
H1 H 0.610(4) 0.269(5) 0.178(3)
H2 H 0.593(4) 0.177(5) 0.322(3)
H3 H 0.661(4) 0.155(5) 0.467(3)
H4 H 0.837(4) 0.183(5) 0.587(3)
H5 H 0.988(4) 0.346(5) 0.565(3)
H6 H 1.000(4) 0.441(5) 0.413(3)
H7 H 1.256(4) 0.490(5) 0.201(3)
H8 H 1.234(4) 0.749(5) 0.209(3)
H9 H 1.102(4) 0.976(5) 0.233(3)
H10 H 0.937(4) 1.079(5) 0.269(3)
H11 H 0.764(4) 0.920(5) 0.288(3)
H12 H 0.772(4) 0.661(5) 0.292(3)
H13 H 0.866(2) 0.419(5) 0.101(2)
H14 H 1.162(2) 0.266(4) 0.202(2)
O3 O 0.6816(4) 0.7452(4) 0.8707(3)
O4 O 1.0267(2) 0.9764(3) 0.98831(18)
N1 N 0.6626(3) 0.5428(3) 0.9565(2)
N2 N 0.8898(3) 0.7887(3) 1.0029(2)
C21 C 0.9260(3) 0.9312(4) 1.0041(2)
C22 C 0.8238(4) 1.0267(5) 1.0291(4)
C23 C 0.7185(4) 0.9218(5) 1.0375(4)
C24 C 0.7650(4) 0.7624(4) 1.0220(3)
C25 C 0.6969(4) 0.6843(5) 0.9430(3)
C26 C 0.6053(3) 0.4391(4) 0.8948(2)
C27 C 0.5816(3) 0.2962(5) 0.9270(3)
C28 C 0.5260(4) 0.1886(5) 0.8713(3)
C29 C 0.4931(4) 0.2221(6) 0.7823(4)
C30 C 0.5162(4) 0.3650(6) 0.7513(3)
C31 C 0.5703(4) 0.4733(5) 0.8065(3)
H15 H 0.520(3) 0.090(4) 0.894(2)
H16 H 0.768(3) 0.705(4) 1.071(2)
H17 H 0.602(3) 0.279(4) 0.992(2)
H18 H 0.459(4) 0.153(5) 0.742(3)
H19 H 0.504(4) 0.390(6) 0.689(3)
H20 H 0.587(3) 0.567(5) 0.781(2)
H21 H 0.692(3) 0.508(4) 1.0072(12)
H22 H 0.936(3) 0.717(3) 0.988(2)
H23 H 0.808(3) 1.102(5) 0.990(3)
H24 H 0.658(4) 0.938(5) 0.997(3)
H25 H 0.857(5) 1.093(7) 1.077(4)
H26 H 0.686(4) 0.934(6) 1.101(3)
O5 O 0.3704(12) 0.3332(12) 0.4075(8)
C32 C 0.406(3) 0.272(2) 0.5058(13)
C33 C 0.3278(16) 0.1175(19) 0.5087(10)
C34 C 0.2837(10) 0.0983(14) 0.4068(8)
C35 C 0.3240(9) 0.2171(10) 0.3538(6)
O6? O 0.263(4) 0.323(4) 0.426(2)
C36? C 0.322(2) 0.296(2) 0.5074(13)
C37? C 0.236(5) 0.172(4) 0.482(2)
C38? C 0.4262(18) 0.116(3) 0.4345(16)
C39? C 0.399(2) 0.165(3) 0.3836(18)
loop_
_geom_bond_atom_site_label_1
_geom_bond_atom_site_label_2
_geom_bond_site_symmetry_1
_geom_bond_site_symmetry_2
O1 C1 1_555 1_555
O2 C12 1_555 1_555
O3 C25 1_555 1_555
O4 C21 1_555 1_555
O5 C32 1_555 1_555
N1 C25 1_555 1_555
N2 C21 1_555 1_555
C1 C2 1_555 1_555
C2 C3 1_555 1_555
C3 C4 1_555 1_555
C4 C5 1_555 1_555
C5 C6 1_555 1_555
C6 C7 1_555 1_555
C7 C8 1_555 1_555
C8 C9 1_555 1_555
C9 C4 1_555 1_555
C10 C1 1_555 1_555
C11 C10 1_555 1_555
C12 C11 1_555 1_555
C13 C12 1_555 1_555
C14 C13 1_555 1_555
C15 C14 1_555 1_555
C16 C15 1_555 1_555
C17 C16 1_555 1_555
C18 C17 1_555 1_555
C19 C18 1_555 1_555
C20 C11 1_555 1_555
C21 C22 1_555 1_555
C22 C23 1_555 1_555
C23 C24 1_555 1_555
C24 N2 1_555 1_555
C25 C24 1_555 1_555
C26 N1 1_555 1_555
C27 C26 1_555 1_555
C28 C27 1_555 1_555
C29 C28 1_555 1_555
C30 C29 1_555 1_555
C31 C26 1_555 1_555
C32 C33 1_555 1_555
C33 C34 1_555 1_555
C34 C35 1_555 1_555
C35 O5 1_555 1_555
H1 C2 1_555 1_555
H2 C3 1_555 1_555
H3 C5 1_555 1_555
H4 C6 1_555 1_555
H5 C7 1_555 1_555
H6 C8 1_555 1_555
H7 C13 1_555 1_555
H8 C14 1_555 1_555
H9 C16 1_555 1_555
H10 C17 1_555 1_555
H11 C18 1_555 1_555
H12 C19 1_555 1_555
H13 O1 1_555 1_555
H14 O2 1_555 1_555
H15 C28 1_555 1_555
H16 C24 1_555 1_555
H17 C27 1_555 1_555
H18 C29 1_555 1_555
H19 C30 1_555 1_555
H20 C31 1_555 1_555
H21 N1 1_555 1_555
H22 N2 1_555 1_555
H23 C22 1_555 1_555
H24 C23 1_555 1_555
H25 C22 1_555 1_555
H26 C23 1_555 1_555
C9 C10 1_555 1_555
C15 C20 1_555 1_555
C19 C20 1_555 1_555
C30 C31 1_555 1_555

#END
