
#######################################################################
#
#                 Cambridge Crystallographic Data Centre
#                                CCDC 
#
#######################################################################
#
# If this CIF has been generated from an entry in the Cambridge 
# Structural Database, then it will include bibliographic, chemical, 
# crystal, experimental, refinement or atomic coordinate data resulting 
# from the CCDC's data processing and validation procedures.
#
#######################################################################

data_XONSUQ02
_chemical_name_common            'N-isopropylbenzylammonium dichloroacetate'
_chemical_formula_moiety         'C10 H16 N1 1+,C2 H1 Cl2 O2 1-'
_chemical_name_systematic        'N-benzylpropan-2-aminium dichloroacetate'
_symmetry_cell_setting           monoclinic
_symmetry_space_group_name_H-M   'P 21/c'
_symmetry_Int_Tables_number      14
_space_group_name_Hall           '-P 2ybc'
loop_
_symmetry_equiv_pos_site_id
_symmetry_equiv_pos_as_xyz
1 x,y,z
2 -x,1/2+y,1/2-z
3 -x,-y,-z
4 x,1/2-y,1/2+z
_cell_length_a                   9.7856(5)
_cell_length_b                   8.6119(3)
_cell_length_c                   17.6992(11)
_cell_angle_alpha                90
_cell_angle_beta                 106.549(5)
_cell_angle_gamma                90
_cell_volume                     1429.77
_cell_formula_units_Z            4
loop_
_atom_site_label
_atom_site_type_symbol
_atom_site_fract_x
_atom_site_fract_y
_atom_site_fract_z
Cl1 Cl 0.62597(15) 0.66398(14) 0.01226(8)
Cl2 Cl 0.69164(15) 0.98547(15) -0.00738(8)
O1 O 0.8726(3) 0.6882(3) 0.14890(18)
O2 O 0.8992(3) 0.9392(3) 0.14781(18)
C1 C 0.8373(4) 0.8183(3) 0.1235(2)
C2 C 0.6916(4) 0.8354(4) 0.0610(2)
H1 H 0.6223 0.8675 0.0901
N1 N 0.9458(3) 0.2417(3) 0.19716(15)
H2 H 0.9204 0.1458 0.1746
H3 H 0.9982 0.2258 0.2486
C3 C 0.7255(3) 0.2383(3) 0.2399(2)
C4 C 0.8135(4) 0.3275(4) 0.1968(3)
H4 H 0.7561 0.3456 0.1417
H5 H 0.8394 0.4299 0.2223
C5 C 1.0394(4) 0.3214(4) 0.1544(2)
H6 H 1.0596 0.4291 0.1757
C6 C 0.7570(4) 0.2434(4) 0.3209(2)
H7 H 0.8354 0.3033 0.3507
C7 C 0.6117(4) 0.1497(5) 0.1976(2)
H8 H 0.5891 0.1449 0.1418
C8 C 1.1784(5) 0.2340(6) 0.1722(3)
H9 H 1.1604 0.1276 0.1521
H10 H 1.2224 0.2312 0.2293
H11 H 1.2426 0.2861 0.1468
C9 C 0.5309(4) 0.0684(5) 0.2363(3)
H12 H 0.4532 0.0070 0.2070
C10 C 0.6743(5) 0.1611(5) 0.3589(3)
H13 H 0.6964 0.1647 0.4147
C11 C 0.5616(5) 0.0752(6) 0.3167(3)
H14 H 0.5045 0.0201 0.3430
C12 C 0.9635(6) 0.3321(6) 0.0677(3)
H15 H 1.0289 0.3729 0.0397
H16 H 0.8813 0.4017 0.0596
H17 H 0.9307 0.2286 0.0474
loop_
_geom_bond_atom_site_label_1
_geom_bond_atom_site_label_2
_geom_bond_site_symmetry_1
_geom_bond_site_symmetry_2
Cl1 C2 1_555 1_555
Cl2 C2 1_555 1_555
O1 C1 1_555 1_555
O2 C1 1_555 1_555
C1 C2 1_555 1_555
C2 H1 1_555 1_555
N1 H2 1_555 1_555
H3 N1 1_555 1_555
C3 C4 1_555 1_555
C4 N1 1_555 1_555
H4 C4 1_555 1_555
H5 C4 1_555 1_555
C5 N1 1_555 1_555
H6 C5 1_555 1_555
C6 C3 1_555 1_555
H7 C6 1_555 1_555
C7 C3 1_555 1_555
H8 C7 1_555 1_555
C8 C5 1_555 1_555
H9 C8 1_555 1_555
H10 C8 1_555 1_555
H11 C8 1_555 1_555
C9 C7 1_555 1_555
H12 C9 1_555 1_555
C10 C6 1_555 1_555
H13 C10 1_555 1_555
C11 C9 1_555 1_555
H14 C11 1_555 1_555
C12 C5 1_555 1_555
H15 C12 1_555 1_555
H16 C12 1_555 1_555
H17 C12 1_555 1_555
C10 C11 1_555 1_555

#END
