
#######################################################################
#
#                 Cambridge Crystallographic Data Centre
#                                CCDC 
#
#######################################################################
#
# If this CIF has been generated from an entry in the Cambridge 
# Structural Database, then it will include bibliographic, chemical, 
# crystal, experimental, refinement or atomic coordinate data resulting 
# from the CCDC's data processing and validation procedures.
#
#######################################################################

data_XONSUQ
_chemical_name_common            'N-isopropylbenzylammonium dichloroacetate'
_chemical_formula_moiety         'C10 H16 N1 1+,C2 H1 Cl2 O2 1-'
_chemical_name_systematic        'N-benzylpropan-2-aminium dichloroacetate'
_symmetry_cell_setting           monoclinic
_symmetry_space_group_name_H-M   'P 21/c'
_symmetry_Int_Tables_number      14
_space_group_name_Hall           '-P 2ybc'
loop_
_symmetry_equiv_pos_site_id
_symmetry_equiv_pos_as_xyz
1 x,y,z
2 -x,1/2+y,1/2-z
3 -x,-y,-z
4 x,1/2-y,1/2+z
_cell_length_a                   9.700(8)
_cell_length_b                   8.569(6)
_cell_length_c                   17.378(14)
_cell_angle_alpha                90
_cell_angle_beta                 105.825(13)
_cell_angle_gamma                90
_cell_volume                     1389.7
_exptl_crystal_colour            colorless
_exptl_crystal_description       block
_cell_formula_units_Z            4
loop_
_atom_site_label
_atom_site_type_symbol
_atom_site_fract_x
_atom_site_fract_y
_atom_site_fract_z
Cl1 Cl 0.12596(9) 0.33616(9) 0.01023(5)
Cl2 Cl 0.18982(9) 0.01133(9) -0.00728(5)
O1 O 0.3734(2) 0.31438(19) 0.14721(12)
C1 C 0.3376(2) 0.1827(3) 0.12300(14)
O2 O 0.4023(2) 0.0615(2) 0.14665(13)
C2 C 0.1902(3) 0.1633(3) 0.06156(14)
H1 H 0.1207 0.1330 0.0922
N1 N -0.44732(18) 0.2413(2) -0.19703(11)
H2 H -0.4215 0.1450 -0.1743
H3 H -0.4996 0.2253 -0.2492
C3 C -0.2254(2) 0.2383(3) -0.24039(14)
C4 C -0.3146(3) 0.3285(3) -0.19726(18)
H4 H -0.2578 0.3480 -0.1415
H5 H -0.3408 0.4308 -0.2237
C5 C -0.1107(3) 0.1509(3) -0.19767(15)
H6 H -0.0885 0.1477 -0.1410
C6 C -0.5420(3) 0.3203(3) -0.15309(16)
H7 H -0.5619 0.4290 -0.1741
C7 C -0.0279(3) 0.0685(3) -0.23638(17)
H8 H 0.0504 0.0079 -0.2063
C8 C -0.2553(3) 0.2422(3) -0.32272(15)
H9 H -0.3343 0.3015 -0.3530
C9 C -0.6817(3) 0.2323(4) -0.1711(2)
H10 H -0.6638 0.1250 -0.1514
H11 H -0.7256 0.2310 -0.2290
H12 H -0.7465 0.2838 -0.1445
C10 C -0.0578(3) 0.0733(4) -0.31780(19)
H13 H -0.0003 0.0163 -0.3443
C11 C -0.1710(3) 0.1604(4) -0.36125(18)
H14 H -0.1913 0.1645 -0.4179
C12 C -0.4693(4) 0.3286(4) -0.0657(2)
H15 H -0.4433 0.2232 -0.0449
H16 H -0.5343 0.3757 -0.0379
H17 H -0.3826 0.3925 -0.0569
loop_
_geom_bond_atom_site_label_1
_geom_bond_atom_site_label_2
_geom_bond_site_symmetry_1
_geom_bond_site_symmetry_2
Cl1 C2 1_555 1_555
Cl2 C2 1_555 1_555
O1 C1 1_555 1_555
C1 O2 1_555 1_555
C2 C1 1_555 1_555
H1 C2 1_555 1_555
N1 H2 1_555 1_555
H3 N1 1_555 1_555
C3 C4 1_555 1_555
C4 N1 1_555 1_555
H4 C4 1_555 1_555
H5 C4 1_555 1_555
C5 C3 1_555 1_555
H6 C5 1_555 1_555
C6 N1 1_555 1_555
H7 C6 1_555 1_555
C7 C5 1_555 1_555
H8 C7 1_555 1_555
C8 C3 1_555 1_555
H9 C8 1_555 1_555
C9 C6 1_555 1_555
H10 C9 1_555 1_555
H11 C9 1_555 1_555
H12 C9 1_555 1_555
C10 C7 1_555 1_555
H13 C10 1_555 1_555
C11 C8 1_555 1_555
H14 C11 1_555 1_555
C12 C6 1_555 1_555
H15 C12 1_555 1_555
H16 C12 1_555 1_555
H17 C12 1_555 1_555
C10 C11 1_555 1_555

#END
