
#######################################################################
#
#                 Cambridge Crystallographic Data Centre
#                                CCDC 
#
#######################################################################
#
# If this CIF has been generated from an entry in the Cambridge 
# Structural Database, then it will include bibliographic, chemical, 
# crystal, experimental, refinement or atomic coordinate data resulting 
# from the CCDC's data processing and validation procedures.
#
#######################################################################

data_XONSUQ04
_chemical_name_common            'N-isopropylbenzylammonium dichloroacetate'
_chemical_formula_moiety         'C10 H16 N1 1+,C2 H1 Cl2 O2 1-'
_chemical_name_systematic        'N-benzylpropan-2-aminium dichloroacetate'
_symmetry_cell_setting           monoclinic
_symmetry_space_group_name_H-M   'P 21/c'
_symmetry_Int_Tables_number      14
_space_group_name_Hall           '-P 2ybc'
loop_
_symmetry_equiv_pos_site_id
_symmetry_equiv_pos_as_xyz
1 x,y,z
2 -x,1/2+y,1/2-z
3 -x,-y,-z
4 x,1/2-y,1/2+z
_cell_length_a                   9.8256(9)
_cell_length_b                   8.6329(5)
_cell_length_c                   17.8841(19)
_cell_angle_alpha                90
_cell_angle_beta                 107.061(8)
_cell_angle_gamma                90
_cell_volume                     1450.23
_exptl_crystal_colour            colorless
_exptl_crystal_description       block
_cell_formula_units_Z            4
loop_
_atom_site_label
_atom_site_type_symbol
_atom_site_fract_x
_atom_site_fract_y
_atom_site_fract_z
N1 N 0.05505(16) -0.24207(16) -0.19723(9)
H1 H 0.0804 -0.1463 -0.1750
H2 H 0.0017 -0.2264 -0.2483
C1 C 0.2428(3) -0.2440(3) -0.31979(15)
H3 H 0.1646 -0.3041 -0.3495
C2 C 0.3249(3) -0.1627(3) -0.35716(17)
H4 H 0.3033 -0.1684 -0.4125
C3 C 0.4367(3) -0.0745(4) -0.3157(2)
H5 H 0.4926 -0.0188 -0.3419
C4 C 0.4675(3) -0.0669(3) -0.23659(19)
H6 H 0.5444 -0.0043 -0.2075
C5 C 0.3883(2) -0.1492(3) -0.19814(15)
H7 H 0.4126 -0.1446 -0.1427
C6 C 0.2738(2) -0.2383(2) -0.23926(13)
C7 C 0.1875(2) -0.3270(2) -0.19707(15)
H8 H 0.1616 -0.4291 -0.2225
H9 H 0.2457 -0.3453 -0.1424
C8 C -0.0365(3) -0.3209(2) -0.15499(15)
H10 H -0.0574 -0.4280 -0.1767
C9 C -0.1763(3) -0.2336(4) -0.17226(18)
H11 H -0.2194 -0.2263 -0.2290
H12 H -0.1587 -0.1292 -0.1500
H13 H -0.2410 -0.2888 -0.1490
C10 C 0.0384(4) -0.3342(4) -0.06936(19)
H14 H 0.0616 -0.2305 -0.0470
H15 H 0.1262 -0.3940 -0.0616
H16 H -0.0237 -0.3869 -0.0434
Cl1 Cl 0.3078(4) -0.9861(3) 0.0066(2)
O1 O 0.10244(19) -0.93969(17) -0.14790(11)
O2 O 0.12726(19) -0.68934(17) -0.14992(10)
C11 C 0.1632(2) -0.8188(2) -0.12343(13)
Cl2 Cl 0.3808(9) -0.6637(9) -0.0214(5)
C12 C 0.273(2) -0.820(2) -0.0421(10)
H17 H 0.2053 -0.7818 -0.0140
Cl3? Cl 0.347(3) -0.983(3) 0.0032(16)
Cl4? Cl 0.2649(14) -0.9510(13) 0.0132(7)
Cl5? Cl 0.4164(13) -0.733(2) -0.0524(9)
C13? C 0.3127(8) -0.8367(9) -0.0633(5)
Cl6? Cl 0.3641(11) -0.6650(9) -0.0027(6)
H18? H 0.3880 -0.8824 -0.0840
loop_
_geom_bond_atom_site_label_1
_geom_bond_atom_site_label_2
_geom_bond_site_symmetry_1
_geom_bond_site_symmetry_2
N1 H1 1_555 1_555
H2 N1 1_555 1_555
C1 H3 1_555 1_555
C2 C1 1_555 1_555
H4 C2 1_555 1_555
C3 C2 1_555 1_555
H5 C3 1_555 1_555
C4 C3 1_555 1_555
H6 C4 1_555 1_555
C5 C4 1_555 1_555
H7 C5 1_555 1_555
C6 C1 1_555 1_555
C7 N1 1_555 1_555
H8 C7 1_555 1_555
H9 C7 1_555 1_555
C8 N1 1_555 1_555
H10 C8 1_555 1_555
C9 C8 1_555 1_555
H11 C9 1_555 1_555
H12 C9 1_555 1_555
H13 C9 1_555 1_555
C10 C8 1_555 1_555
H14 C10 1_555 1_555
H15 C10 1_555 1_555
H16 C10 1_555 1_555
Cl1 C12 1_555 1_555
O1 C11 1_555 1_555
O2 C11 1_555 1_555
C11 C12 1_555 1_555
Cl2 C12 1_555 1_555
C12 H17 1_555 1_555
C5 C6 1_555 1_555
C6 C7 1_555 1_555

#END
