
#######################################################################
#
#                 Cambridge Crystallographic Data Centre
#                                CCDC 
#
#######################################################################
#
# If this CIF has been generated from an entry in the Cambridge 
# Structural Database, then it will include bibliographic, chemical, 
# crystal, experimental, refinement or atomic coordinate data resulting 
# from the CCDC's data processing and validation procedures.
#
#######################################################################

data_XONVEC
_chemical_formula_moiety         'C18 H15 N1 O5'
_chemical_name_systematic        
1-(2-Methoxyphenyl)-2-(2-oxo-4-phenyl-1,3-oxazolidin-3-yl)-1,2-ethanedione
_symmetry_cell_setting           monoclinic
_symmetry_space_group_name_H-M   'P 21'
_symmetry_Int_Tables_number      4
_space_group_name_Hall           'P 2yb'
loop_
_symmetry_equiv_pos_site_id
_symmetry_equiv_pos_as_xyz
1 x,y,z
2 -x,1/2+y,-z
_cell_length_a                   13.3412(13)
_cell_length_b                   8.657(3)
_cell_length_c                   14.001(6)
_cell_angle_alpha                90
_cell_angle_beta                 102.904(6)
_cell_angle_gamma                90
_cell_volume                     1576.2
_exptl_crystal_colour            colorless
_exptl_crystal_description       prism
_cell_formula_units_Z            4
loop_
_atom_site_label
_atom_site_type_symbol
_atom_site_fract_x
_atom_site_fract_y
_atom_site_fract_z
C1 C 0.3846(2) 0.1997(3) 0.9814(2)
C2 C 0.4256(2) 0.1816(4) 1.0809(2)
H1 H 0.4809 0.2453 1.1131
C3 C 0.3856(2) 0.0701(4) 1.1332(2)
H2 H 0.4145 0.0561 1.2011
C4 C 0.3040(2) -0.0204(4) 1.0869(2)
H3 H 0.2773 -0.0976 1.1226
C5 C 0.2612(3) 0.0014(4) 0.9889(2)
H4 H 0.2038 -0.0589 0.9574
C6 C 0.3018(2) 0.1113(4) 0.9361(2)
H5 H 0.2723 0.1256 0.8684
C7 C 0.4284(2) 0.3207(3) 0.9243(2)
H6 H 0.4889 0.3722 0.9678
C8 C 0.3494(3) 0.4431(4) 0.8757(2)
H7 H 0.2820 0.4237 0.8920
H8 H 0.3730 0.5478 0.8989
C9 C 0.4037(3) 0.3216(4) 0.7504(2)
C10 C 0.5377(2) 0.1542(4) 0.8407(2)
C11 C 0.5808(2) 0.1383(4) 0.7479(2)
C12 C 0.5652(2) -0.0013(4) 0.6863(2)
C13 C 0.6335(3) -0.0242(4) 0.6232(2)
H9 H 0.6878 0.0466 0.6230
C14 C 0.6195(3) -0.1514(5) 0.5617(3)
H10 H 0.6644 -0.1686 0.5187
C15 C 0.5407(3) -0.2526(5) 0.5631(3)
H11 H 0.5326 -0.3401 0.5211
C16 C 0.4734(3) -0.2324(4) 0.6225(3)
H12 H 0.4194 -0.3042 0.6216
C17 C 0.4855(2) -0.1035(4) 0.6849(2)
C18 C 0.3340(2) -0.1658(4) 0.7423(3)
H13 H 0.2854 -0.1509 0.6793
H14 H 0.3009 -0.1375 0.7957
H15 H 0.3551 -0.2744 0.7492
N1 N 0.45836(18) 0.2569(3) 0.83624(17)
O1 O 0.34045(17) 0.4308(3) 0.77079(16)
O2 O 0.4085(2) 0.2865(3) 0.66850(16)
O3 O 0.58223(15) 0.0927(3) 0.91604(15)
O4 O 0.63984(18) 0.2404(3) 0.73683(17)
O5 O 0.42240(16) -0.0704(3) 0.74636(17)
C19 C 0.9283(2) 0.5635(4) 0.5770(2)
C20 C 0.8422(2) 0.5975(4) 0.5039(2)
H16 H 0.8468 0.6753 0.4572
C21 C 0.7506(2) 0.5213(4) 0.4975(2)
H17 H 0.6925 0.5477 0.4474
C22 C 0.7430(3) 0.4060(4) 0.5642(2)
H18 H 0.6799 0.3531 0.5603
C23 C 0.8290(3) 0.3687(4) 0.6369(3)
H19 H 0.8245 0.2894 0.6826
C24 C 0.9204(2) 0.4453(4) 0.6432(2)
H20 H 0.9787 0.4179 0.6928
C25 C 1.0272(2) 0.6519(4) 0.5837(2)
H21 H 1.0298 0.6980 0.5188
C26 C 1.1251(2) 0.5597(4) 0.6251(2)
H22 H 1.1136 0.4481 0.6112
H23 H 1.1822 0.5952 0.5961
C27 C 1.1029(2) 0.7218(4) 0.7476(2)
C28 C 0.9904(2) 0.9137(4) 0.6512(2)
C29 C 1.0272(2) 1.0338(4) 0.7324(2)
C30 C 0.9705(2) 1.0637(4) 0.8082(2)
C31 C 0.9979(3) 1.1910(4) 0.8701(2)
H24 H 1.0521 1.2569 0.8615
C32 C 0.9462(3) 1.2219(5) 0.9443(3)
H25 H 0.9646 1.3087 0.9861
C33 C 0.8675(3) 1.1239(5) 0.9562(3)
H26 H 0.8317 1.1443 1.0063
C34 C 0.8405(3) 0.9964(4) 0.8958(2)
H27 H 0.7867 0.9300 0.9047
C35 C 0.8921(2) 0.9671(4) 0.8232(2)
C36 C 0.8019(3) 0.7280(4) 0.7820(3)
H28 H 0.8293 0.6839 0.8471
H29 H 0.7944 0.6462 0.7326
H30 H 0.7347 0.7749 0.7803
N2 N 1.04071(18) 0.7733(3) 0.66078(18)
O6 O 1.14817(16) 0.5883(3) 0.73028(16)
O7 O 1.11695(17) 0.7819(3) 0.82658(16)
O8 O 0.92852(16) 0.9509(3) 0.57715(15)
O9 O 1.10130(18) 1.1118(3) 0.72278(17)
O10 O 0.87089(17) 0.8431(3) 0.76184(16)
loop_
_geom_bond_atom_site_label_1
_geom_bond_atom_site_label_2
_geom_bond_site_symmetry_1
_geom_bond_site_symmetry_2
C1 C2 1_555 1_555
C2 H1 1_555 1_555
C3 C2 1_555 1_555
H2 C3 1_555 1_555
C4 C3 1_555 1_555
H3 C4 1_555 1_555
C5 C4 1_555 1_555
H4 C5 1_555 1_555
C6 C1 1_555 1_555
H5 C6 1_555 1_555
C7 C1 1_555 1_555
H6 C7 1_555 1_555
C8 C7 1_555 1_555
H7 C8 1_555 1_555
H8 C8 1_555 1_555
C9 N1 1_555 1_555
C10 C11 1_555 1_555
C11 C12 1_555 1_555
C12 C13 1_555 1_555
C13 H9 1_555 1_555
C14 C13 1_555 1_555
H10 C14 1_555 1_555
C15 C14 1_555 1_555
H11 C15 1_555 1_555
C16 C15 1_555 1_555
H12 C16 1_555 1_555
C17 C12 1_555 1_555
C18 H13 1_555 1_555
H14 C18 1_555 1_555
H15 C18 1_555 1_555
C19 C20 1_555 1_555
C20 H16 1_555 1_555
C21 C20 1_555 1_555
H17 C21 1_555 1_555
C22 C21 1_555 1_555
H18 C22 1_555 1_555
C23 C22 1_555 1_555
H19 C23 1_555 1_555
C24 C19 1_555 1_555
H20 C24 1_555 1_555
C25 C19 1_555 1_555
H21 C25 1_555 1_555
C26 C25 1_555 1_555
H22 C26 1_555 1_555
H23 C26 1_555 1_555
C27 N2 1_555 1_555
C28 C29 1_555 1_555
C29 C30 1_555 1_555
C30 C31 1_555 1_555
C31 H24 1_555 1_555
C32 C31 1_555 1_555
H25 C32 1_555 1_555
C33 C32 1_555 1_555
H26 C33 1_555 1_555
C34 C33 1_555 1_555
H27 C34 1_555 1_555
C35 C30 1_555 1_555
C36 H28 1_555 1_555
H29 C36 1_555 1_555
H30 C36 1_555 1_555
N1 C7 1_555 1_555
N2 C25 1_555 1_555
O1 C8 1_555 1_555
O2 C9 1_555 1_555
O3 C10 1_555 1_555
O4 C11 1_555 1_555
O5 C17 1_555 1_555
O6 C26 1_555 1_555
O7 C27 1_555 1_555
O8 C28 1_555 1_555
O9 C29 1_555 1_555
O10 C35 1_555 1_555
C5 C6 1_555 1_555
C9 O1 1_555 1_555
C10 N1 1_555 1_555
C16 C17 1_555 1_555
C18 O5 1_555 1_555
C23 C24 1_555 1_555
C27 O6 1_555 1_555
C28 N2 1_555 1_555
C34 C35 1_555 1_555
C36 O10 1_555 1_555

#END
