
#######################################################################
#
#                 Cambridge Crystallographic Data Centre
#                                CCDC 
#
#######################################################################
#
# If this CIF has been generated from an entry in the Cambridge 
# Structural Database, then it will include bibliographic, chemical, 
# crystal, experimental, refinement or atomic coordinate data resulting 
# from the CCDC's data processing and validation procedures.
#
#######################################################################

data_XONWON
_chemical_formula_moiety         
'C37 H45 N1 O14,C12 H14 N2 2+,2(F6 P1 1-),1.35(C3 H6 O1),1.5(H2 O1)'
_chemical_name_systematic        
"5,8,11,14,17,24,27,30,33,36,40,48-Dodecaoxa-50-azapentacyclo-[19.17.11.1^42,46^.0^4,37^.0^18,23^]pentaconta-1,3,18,20,22,37,42(50),43,45-nonaene-41,47-dione N,N'-dimethyl-4,4'-bipyridinium clathrate bis(hexafluorophosphate) acetone solvate sesquihydrate"
_symmetry_cell_setting           triclinic
_symmetry_space_group_name_H-M   'P -1'
_symmetry_Int_Tables_number      2
_space_group_name_Hall           '-P 1'
loop_
_symmetry_equiv_pos_site_id
_symmetry_equiv_pos_as_xyz
1 x,y,z
2 -x,-y,-z
_cell_length_a                   13.9013(5)
_cell_length_b                   17.2987(6)
_cell_length_c                   26.7004(10)
_cell_angle_alpha                84.770(3)
_cell_angle_beta                 76.048(3)
_cell_angle_gamma                85.381(3)
_cell_volume                     6194
_exptl_crystal_colour            yellow
_exptl_crystal_description       plate
_cell_formula_units_Z            4
_exptl_crystal_recrystallization_method acetone/pentane
loop_
_atom_site_label
_atom_site_type_symbol
_atom_site_fract_x
_atom_site_fract_y
_atom_site_fract_z
P1 P 0.45859(10) 0.06890(8) 0.19229(5)
F1 F 0.4220(3) 0.0170(2) 0.15468(16)
F2 F 0.4522(3) 0.14299(19) 0.15275(13)
F3 F 0.5703(2) 0.0492(2) 0.16259(12)
F4 F 0.4976(3) 0.1195(2) 0.22945(13)
F5 F 0.3466(3) 0.0892(3) 0.22054(15)
F6 F 0.4638(3) -0.0058(2) 0.23132(15)
P2 P 0.70456(9) 0.76430(7) 0.12084(5)
F7 F 0.7141(2) 0.81643(17) 0.06727(12)
F8 F 0.7374(3) 0.8332(2) 0.14697(15)
F9 F 0.5902(2) 0.79330(17) 0.13860(14)
F10 F 0.6964(2) 0.71010(18) 0.17388(10)
F11 F 0.6726(2) 0.69345(15) 0.09510(10)
F12 F 0.8186(2) 0.73355(17) 0.10260(10)
P3 P 0.6042(2) 0.06018(19) 0.52756(10)
F13 F 0.5260(5) 0.1234(5) 0.5114(3)
F14 F 0.6419(6) 0.0371(4) 0.4705(3)
F15 F 0.6852(5) 0.1213(4) 0.5139(3)
F16 F 0.6789(6) -0.0025(5) 0.5450(3)
F17 F 0.5660(6) 0.0889(6) 0.5848(3)
F18 F 0.5203(6) -0.0011(5) 0.5407(3)
P4 P 0.0374(9) 0.5136(8) 0.1366(3)
F19 F -0.0335(12) 0.4662(11) 0.1121(7)
F20 F 0.0595(5) 0.4342(5) 0.1695(3)
F21 F 0.1291(4) 0.4908(5) 0.0904(3)
F22 F 0.1065(8) 0.5581(5) 0.1612(5)
F23 F -0.0566(4) 0.5352(3) 0.1820(2)
F24 F 0.0134(8) 0.5918(6) 0.1042(4)
P5 P 0.0000 0.5000 0.5000
F25 F 0.0114(5) 0.4986(5) 0.43993(19)
F26 F -0.1088(6) 0.4798(8) 0.5113(3)
F27 F -0.0322(13) 0.5873(7) 0.4983(3)
F25A F -0.0114(5) 0.5014(5) 0.56007(19)
F26A F 0.1088(6) 0.5202(8) 0.4887(3)
F27A F 0.0322(13) 0.4127(7) 0.5017(3)
O1 O 1.1281(4) 0.7143(2) 0.27830(19)
O2 O 0.9487(3) 0.6845(2) 0.35563(14)
O3 O 0.8249(3) 0.8187(2) 0.39114(14)
O4 O 0.6642(3) 0.8728(2) 0.34024(12)
O5 O 0.7518(2) 0.98980(17) 0.25820(11)
O6 O 1.2441(3) 0.8217(2) 0.28874(13)
O7 O 1.1711(3) 0.9085(2) 0.37306(13)
O8 O 1.0104(3) 1.0031(2) 0.42941(12)
O9 O 0.9324(3) 1.0990(2) 0.35792(13)
O10 O 0.8737(2) 1.08979(18) 0.26649(11)
O11 O 1.1898(2) 0.73150(17) 0.07400(11)
O12 O 1.2433(3) 0.6455(2) 0.01403(14)
O13 O 0.8632(2) 0.91987(17) -0.00902(11)
O14 O 0.9299(2) 0.91647(16) 0.05991(11)
N1 N 1.0417(3) 0.78611(19) 0.02851(12)
C1 C 1.1960(4) 0.7399(3) 0.23475(19)
C2 C 1.2554(4) 0.7997(3) 0.24004(17)
C3 C 1.3227(3) 0.8295(3) 0.19598(18)
H1 H 1.3638 0.8695 0.1987
C4 C 1.3294(3) 0.8007(3) 0.14850(18)
H2 H 1.3754 0.8213 0.1189
C5 C 1.2703(3) 0.7424(3) 0.14322(17)
C6 C 1.2037(3) 0.7121(3) 0.18777(18)
H3 H 1.1635 0.6716 0.1850
C7 C 0.8165(3) 1.0132(2) 0.21277(16)
C8 C 0.8847(3) 1.0671(2) 0.21817(16)
C9 C 0.9541(3) 1.0925(3) 0.17425(18)
H4 H 1.0007 1.1281 0.1771
C10 C 0.9565(3) 1.0669(2) 0.12646(16)
H5 H 1.0057 1.0841 0.0971
C11 C 0.8883(3) 1.0165(2) 0.12076(16)
C12 C 0.8185(3) 0.9896(2) 0.16535(16)
H6 H 0.7718 0.9543 0.1622
C13 C 1.0803(7) 0.6518(4) 0.2803(3)
H7 H 1.1270 0.6086 0.2660
H8 H 1.0298 0.6615 0.2595
C14 C 1.0292(5) 0.6301(3) 0.3380(3)
H9 H 1.0046 0.5773 0.3415
H10 H 1.0781 0.6299 0.3595
C15 C 0.9583(6) 0.7249(4) 0.3982(3)
H11 H 1.0040 0.7673 0.3860
H12 H 0.9854 0.6888 0.4231
C16 C 0.8556(5) 0.7579(4) 0.4238(2)
H13 H 0.8080 0.7164 0.4308
H14 H 0.8569 0.7778 0.4572
C17 C 0.7310(5) 0.8572(4) 0.41418(19)
H15 H 0.7374 0.8846 0.4441
H16 H 0.6805 0.8183 0.4268
C18 C 0.6985(5) 0.9143(3) 0.3750(2)
H17 H 0.6447 0.9506 0.3925
H18 H 0.7549 0.9450 0.3560
C19 C 0.6148(4) 0.9204(3) 0.30674(19)
H19 H 0.5910 0.9703 0.3223
H20 H 0.5560 0.8943 0.3035
C20 C 0.6805(4) 0.9367(3) 0.25374(17)
H21 H 0.7149 0.8878 0.2403
H22 H 0.6403 0.9599 0.2296
C21 C 1.2942(5) 0.8874(3) 0.29567(19)
H23 H 1.2687 0.9350 0.2784
H24 H 1.3664 0.8796 0.2806
C22 C 1.2749(5) 0.8947(4) 0.3524(2)
H25 H 1.2991 0.8463 0.3695
H26 H 1.3110 0.9383 0.3591
C23 C 1.1464(6) 0.9117(4) 0.4276(2)
H27 H 1.1796 0.9546 0.4373
H28 H 1.1689 0.8623 0.4443
C24 C 1.0370(6) 0.9246(4) 0.4450(2)
H29 H 1.0037 0.8882 0.4291
H30 H 1.0159 0.9155 0.4831
C25 C 0.9065(5) 1.0175(4) 0.4345(2)
H31 H 0.8713 1.0129 0.4715
H32 H 0.8813 0.9789 0.4164
C26 C 0.8883(4) 1.0971(4) 0.4115(2)
H33 H 0.8161 1.1104 0.4173
H34 H 0.9178 1.1354 0.4279
C27 C 0.9070(4) 1.1666(3) 0.3283(2)
H35 H 0.9430 1.2111 0.3337
H36 H 0.8348 1.1802 0.3388
C28 C 0.9360(4) 1.1487(3) 0.2727(2)
H37 H 0.9265 1.1960 0.2501
H38 H 1.0067 1.1298 0.2632
C29 C 1.2797(3) 0.7087(3) 0.09284(18)
H39 H 1.3387 0.7278 0.0674
H40 H 1.2880 0.6513 0.0973
C30 C 1.1822(3) 0.6946(3) 0.03383(17)
C31 C 1.0915(3) 0.7185(2) 0.01439(16)
C32 C 1.0651(3) 0.6723(2) -0.01970(16)
H41 H 1.1014 0.6246 -0.0284
C33 C 0.9855(3) 0.6971(3) -0.04050(16)
H42 H 0.9655 0.6660 -0.0633
C34 C 0.9349(3) 0.7670(2) -0.02811(15)
H43 H 0.8810 0.7860 -0.0428
C35 C 0.9657(3) 0.8092(2) 0.00692(15)
C36 C 0.9134(3) 0.8871(2) 0.01846(15)
C37 C 0.8825(3) 0.9943(2) 0.06921(16)
H44 H 0.8121 0.9950 0.0675
H45 H 0.9161 1.0325 0.0420
O15 O 0.7914(3) 0.35528(19) 0.29984(13)
O16 O 0.7768(3) 0.4812(3) 0.36353(17)
O17 O 0.6471(4) 0.6103(3) 0.3999(2)
O18 O 0.5071(3) 0.6597(2) 0.33955(13)
O19 O 0.4151(2) 0.61798(18) 0.25826(11)
O20 O 0.6765(2) 0.23975(19) 0.31407(12)
O21 O 0.5057(3) 0.2231(2) 0.39588(13)
O22 O 0.2452(3) 0.4046(2) 0.35172(12)
O23 O 0.2878(2) 0.51311(18) 0.26254(11)
O24 O 0.6818(2) 0.22630(17) 0.10490(11)
O25 O 0.7379(2) 0.13615(19) 0.04771(13)
O26 O 0.3658(3) 0.40599(18) 0.00349(12)
O27 O 0.4398(2) 0.41837(16) 0.06790(11)
N2 N 0.5440(3) 0.2802(2) 0.05090(13)
C38 C 0.7834(3) 0.3235(3) 0.25647(18)
C39 C 0.7224(3) 0.2597(3) 0.26357(17)
C40 C 0.7154(3) 0.2218(3) 0.22191(17)
H46 H 0.6749 0.1788 0.2271
C41 C 0.7678(3) 0.2457(2) 0.17130(17)
C42 C 0.8259(3) 0.3090(3) 0.16480(18)
H47 H 0.8608 0.3261 0.1310
C43 C 0.8341(3) 0.3475(3) 0.20643(19)
H48 H 0.8745 0.3906 0.2010
C44 C 0.4147(3) 0.5891(2) 0.21272(16)
C45 C 0.3457(3) 0.5329(2) 0.21422(17)
C46 C 0.3385(3) 0.5033(2) 0.16937(17)
H49 H 0.2905 0.4666 0.1707
C47 C 0.4008(3) 0.5264(2) 0.12160(16)
C48 C 0.4694(3) 0.5808(2) 0.12012(17)
H50 H 0.5123 0.5969 0.0881
C49 C 0.4760(3) 0.6122(2) 0.16534(17)
H51 H 0.5230 0.6498 0.1637
C50 C 0.8644(4) 0.4115(3) 0.2931(3)
H52 H 0.8481 0.4567 0.2704
H53 H 0.9305 0.3883 0.2764
C51 C 0.8666(5) 0.4373(4) 0.3439(3)
H54 H 0.8740 0.3916 0.3681
H55 H 0.9239 0.4696 0.3402
C52 C 0.7824(6) 0.5193(5) 0.4079(3)
H56 H 0.8264 0.5631 0.3976
H57 H 0.8088 0.4824 0.4326
C53 C 0.6775(8) 0.5487(6) 0.4321(3)
H58 H 0.6321 0.5059 0.4369
H59 H 0.6747 0.5670 0.4665
C54 C 0.5477(6) 0.6376(6) 0.4209(3)
H60 H 0.5434 0.6607 0.4541
H61 H 0.5036 0.5938 0.4278
C55 C 0.5159(5) 0.6973(5) 0.3833(2)
H62 H 0.4513 0.7233 0.3996
H63 H 0.5655 0.7372 0.3725
C56 C 0.4650(4) 0.7124(3) 0.3055(2)
H64 H 0.4964 0.7627 0.3012
H65 H 0.3930 0.7218 0.3205
C57 C 0.4803(4) 0.6799(3) 0.25416(19)
H66 H 0.4664 0.7213 0.2283
H67 H 0.5502 0.6599 0.2425
C58 C 0.6246(4) 0.1695(3) 0.32387(18)
H68 H 0.6713 0.1243 0.3135
H69 H 0.5726 0.1725 0.3040
C59 C 0.5787(4) 0.1611(3) 0.3807(2)
H70 H 0.5473 0.1108 0.3896
H71 H 0.6311 0.1612 0.4001
C60 C 0.5429(7) 0.2871(6) 0.4162(4)
H72 H 0.5899 0.3155 0.3881
H73 H 0.5785 0.2667 0.4431
C61 C 0.4569(8) 0.3406(6) 0.4389(3)
H74 H 0.4068 0.3108 0.4644
H75 H 0.4796 0.3804 0.4571
O28 O 0.4130(5) 0.3779(4) 0.3986(2)
C62 C 0.3276(8) 0.4257(6) 0.4179(3)
H76 H 0.3451 0.4667 0.4372
H77 H 0.2775 0.3943 0.4422
C63 C 0.2852(8) 0.4623(6) 0.3749(4)
H78 H 0.2321 0.5020 0.3883
H79 H 0.3376 0.4885 0.3485
C64 C 0.1762(4) 0.4318(3) 0.32229(18)
H80 H 0.1394 0.4793 0.3367
H81 H 0.1276 0.3919 0.3249
C65 C 0.2254(4) 0.4500(3) 0.26632(18)
H82 H 0.2656 0.4037 0.2520
H83 H 0.1745 0.4644 0.2463
C66 C 0.7669(3) 0.2002(3) 0.12768(17)
H84 H 0.7626 0.1444 0.1398
H85 H 0.8296 0.2060 0.1009
C67 C 0.6765(3) 0.1869(2) 0.06555(16)
C68 C 0.5885(3) 0.2087(2) 0.04376(15)
C69 C 0.5602(3) 0.1557(3) 0.01510(17)
H86 H 0.5930 0.1054 0.0121
C70 C 0.4833(4) 0.1770(3) -0.00932(17)
H87 H 0.4617 0.1415 -0.0288
C71 C 0.4392(3) 0.2512(3) -0.00439(16)
H88 H 0.3880 0.2686 -0.0215
C72 C 0.4712(3) 0.3000(3) 0.02626(15)
C73 C 0.4204(3) 0.3798(3) 0.03103(16)
C74 C 0.3875(3) 0.4959(2) 0.07351(17)
H89 H 0.3160 0.4921 0.0755
H90 H 0.4150 0.5316 0.0432
N3 N -0.1321(3) 0.7540(2) 0.24758(14)
N4 N 0.2300(3) 0.9966(2) 0.09977(13)
C75 C -0.1030(4) 0.8127(3) 0.26947(17)
H91 H -0.1324 0.8213 0.3047
C76 C -0.0320(3) 0.8598(3) 0.24167(16)
H92 H -0.0107 0.8997 0.2580
C77 C 0.0100(3) 0.8499(2) 0.18937(16)
C78 C -0.0226(3) 0.7896(3) 0.16757(17)
H93 H 0.0036 0.7816 0.1320
C79 C -0.0919(4) 0.7421(3) 0.19692(18)
H94 H -0.1122 0.7004 0.1819
C80 C -0.2082(4) 0.7025(3) 0.2786(2)
H95 H -0.2169 0.6610 0.2577
H96 H -0.2713 0.7329 0.2894
H97 H -0.1866 0.6795 0.3094
C81 C 0.2005(3) 1.0014(3) 0.15140(17)
H98 H 0.2287 1.0379 0.1673
C82 C 0.1306(3) 0.9546(2) 0.18114(17)
H99 H 0.1112 0.9582 0.2175
C83 C 0.0876(3) 0.9014(2) 0.15807(16)
C84 C 0.1196(3) 0.8976(2) 0.10466(16)
H100 H 0.0919 0.8622 0.0877
C85 C 0.1912(3) 0.9452(3) 0.07652(16)
H101 H 0.2136 0.9416 0.0402
C86 C 0.3063(4) 1.0477(3) 0.06853(19)
H102 H 0.3724 1.0249 0.0702
H103 H 0.2964 1.0991 0.0823
H104 H 0.3005 1.0528 0.0325
N5 N 0.4413(3) 0.3038(2) 0.26646(15)
N6 N 0.7684(3) 0.5284(2) 0.07929(14)
C87 C 0.4555(4) 0.2924(3) 0.21612(18)
H105 H 0.4217 0.2529 0.2061
C88 C 0.5181(3) 0.3368(3) 0.17866(18)
H106 H 0.5275 0.3281 0.1431
C89 C 0.5676(3) 0.3949(2) 0.19355(17)
C90 C 0.5507(3) 0.4063(3) 0.24546(17)
H107 H 0.5831 0.4458 0.2564
C91 C 0.4872(4) 0.3608(3) 0.28147(19)
H108 H 0.4754 0.3694 0.3171
C92 C 0.3731(4) 0.2546(3) 0.30571(19)
H109 H 0.3049 0.2772 0.3100
H110 H 0.3923 0.2523 0.3388
H111 H 0.3772 0.2020 0.2942
C93 C 0.7547(3) 0.5417(2) 0.12943(18)
H112 H 0.7903 0.5803 0.1389
C94 C 0.6891(3) 0.4995(2) 0.16739(17)
H113 H 0.6788 0.5096 0.2027
C95 C 0.6384(3) 0.4422(2) 0.15330(17)
C96 C 0.6548(3) 0.4297(2) 0.10131(17)
H114 H 0.6212 0.3906 0.0909
C97 C 0.7191(3) 0.4734(2) 0.06492(17)
H115 H 0.7290 0.4650 0.0293
C98 C 0.8376(3) 0.5751(3) 0.03898(19)
H116 H 0.8011 0.6210 0.0268
H117 H 0.8673 0.5435 0.0099
H118 H 0.8902 0.5917 0.0536
O29 O 0.6532(3) 0.5392(2) 0.29374(14)
O30 O 0.0513(3) 0.9744(2) 0.30584(13)
O31 O 0.6040(4) 0.9680(3) 0.06253(19)
O32 O 0.1609(3) 0.1868(3) 0.14048(19)
C99 C 0.2541(7) 0.2951(5) 0.1218(4)
H119 H 0.2660 0.2794 0.0864
H120 H 0.3172 0.2920 0.1324
H121 H 0.2252 0.3487 0.1232
C100 C 0.1859(4) 0.2436(3) 0.1565(2)
C101 C 0.1538(9) 0.2657(7) 0.2095(3)
H122 H 0.0911 0.2976 0.2136
H123 H 0.2045 0.2957 0.2173
H124 H 0.1440 0.2189 0.2332
O33 O 0.8856(4) 0.7631(4) 0.6609(3)
C102 C 0.8028(6) 0.8864(5) 0.6499(3)
H125 H 0.7932 0.8864 0.6875
H126 H 0.7380 0.8922 0.6411
H127 H 0.8427 0.9297 0.6329
C103 C 0.8549(6) 0.8119(8) 0.6322(4)
C104 C 0.8687(11) 0.7963(18) 0.5756(5)
H128 H 0.9176 0.8306 0.5539
H129 H 0.8052 0.8064 0.5656
H130 H 0.8923 0.7419 0.5707
O34 O 0.3361(9) 0.6134(10) 0.4939(5)
C105 C 0.2446(13) 0.6663(9) 0.4310(6)
H131 H 0.2771 0.7111 0.4108
H132 H 0.1728 0.6731 0.4339
H133 H 0.2709 0.6188 0.4138
C106 C 0.2637(12) 0.6600(10) 0.4826(8)
C107 C 0.1967(18) 0.7015(9) 0.5238(6)
H134 H 0.1797 0.6663 0.5550
H135 H 0.2295 0.7458 0.5311
H136 H 0.1361 0.7203 0.5127
C108? C 1.1312(9) 0.6791(8) 0.3154(5)
C109? C 0.4459(11) 0.2140(9) 0.4453(5)
C110? C 0.3904(14) 0.2904(11) 0.4568(5)
C111? C 0.2632(13) 0.3759(10) 0.4386(5)
C112? C 0.1886(12) 0.3888(9) 0.4048(5)
F28? F -0.0369(15) 0.4651(9) 0.1116(6)
F29? F 0.0783(7) 0.5365(5) 0.0590(3)
F30? F 0.1258(6) 0.4383(6) 0.1085(4)
F31? F 0.1382(8) 0.5601(6) 0.1281(6)
F32? F 0.0251(9) 0.4850(9) 0.1797(4)
F33? F -0.0237(9) 0.5868(7) 0.1276(6)
H137? H 1.1380 0.7142 0.3415
H138? H 1.1902 0.6421 0.3094
H139? H 0.4869 0.1987 0.4706
H140? H 0.3989 0.1731 0.4473
H141? H 0.3591 0.2905 0.4943
H142? H 0.4368 0.3328 0.4475
H143? H 0.3093 0.4186 0.4308
H144? H 0.2280 0.3758 0.4756
H145? H 0.1507 0.3419 0.4075
H146? H 0.1412 0.4333 0.4158
O35? O 0.3182(7) 0.3026(6) 0.4287(3)
P6? P 0.0506(12) 0.5116(10) 0.1204(5)
loop_
_geom_bond_atom_site_label_1
_geom_bond_atom_site_label_2
_geom_bond_site_symmetry_1
_geom_bond_site_symmetry_2
P1 F1 1_555 1_555
F2 P1 1_555 1_555
F3 P1 1_555 1_555
F4 P1 1_555 1_555
F5 P1 1_555 1_555
F6 P1 1_555 1_555
P2 F7 1_555 1_555
F8 P2 1_555 1_555
F9 P2 1_555 1_555
F10 P2 1_555 1_555
F11 P2 1_555 1_555
F12 P2 1_555 1_555
P3 F13 1_555 1_555
F14 P3 1_555 1_555
F15 P3 1_555 1_555
F16 P3 1_555 1_555
F17 P3 1_555 1_555
F18 P3 1_555 1_555
P4 F19 1_555 1_555
F20 P4 1_555 1_555
F21 P4 1_555 1_555
F22 P4 1_555 1_555
F23 P4 1_555 1_555
F24 P4 1_555 1_555
P5 F25 1_555 1_555
F26 P5 1_555 1_555
F27 P5 1_555 1_555
O1 C1 1_555 1_555
O2 C14 1_555 1_555
O3 C16 1_555 1_555
O4 C18 1_555 1_555
O5 C7 1_555 1_555
O6 C2 1_555 1_555
O7 C22 1_555 1_555
O8 C24 1_555 1_555
O9 C26 1_555 1_555
O10 C8 1_555 1_555
O11 C29 1_555 1_555
O12 C30 1_555 1_555
O13 C36 1_555 1_555
O14 C36 1_555 1_555
N1 C31 1_555 1_555
C1 C2 1_555 1_555
C2 C3 1_555 1_555
C3 H1 1_555 1_555
C4 C3 1_555 1_555
H2 C4 1_555 1_555
C5 C4 1_555 1_555
C6 C1 1_555 1_555
H3 C6 1_555 1_555
C7 C8 1_555 1_555
C8 C9 1_555 1_555
C9 H4 1_555 1_555
C10 C9 1_555 1_555
H5 C10 1_555 1_555
C11 C10 1_555 1_555
C12 C7 1_555 1_555
H6 C12 1_555 1_555
C13 O1 1_555 1_555
H7 C13 1_555 1_555
H8 C13 1_555 1_555
C14 C13 1_555 1_555
H9 C14 1_555 1_555
H10 C14 1_555 1_555
C15 O2 1_555 1_555
H11 C15 1_555 1_555
H12 C15 1_555 1_555
C16 C15 1_555 1_555
H13 C16 1_555 1_555
H14 C16 1_555 1_555
C17 O3 1_555 1_555
H15 C17 1_555 1_555
H16 C17 1_555 1_555
C18 C17 1_555 1_555
H17 C18 1_555 1_555
H18 C18 1_555 1_555
C19 O4 1_555 1_555
H19 C19 1_555 1_555
H20 C19 1_555 1_555
C20 O5 1_555 1_555
H21 C20 1_555 1_555
H22 C20 1_555 1_555
C21 O6 1_555 1_555
H23 C21 1_555 1_555
H24 C21 1_555 1_555
C22 C21 1_555 1_555
H25 C22 1_555 1_555
H26 C22 1_555 1_555
C23 O7 1_555 1_555
H27 C23 1_555 1_555
H28 C23 1_555 1_555
C24 C23 1_555 1_555
H29 C24 1_555 1_555
H30 C24 1_555 1_555
C25 O8 1_555 1_555
H31 C25 1_555 1_555
H32 C25 1_555 1_555
C26 C25 1_555 1_555
H33 C26 1_555 1_555
H34 C26 1_555 1_555
C27 O9 1_555 1_555
H35 C27 1_555 1_555
H36 C27 1_555 1_555
C28 O10 1_555 1_555
H37 C28 1_555 1_555
H38 C28 1_555 1_555
C29 C5 1_555 1_555
H39 C29 1_555 1_555
H40 C29 1_555 1_555
C30 O11 1_555 1_555
C31 C30 1_555 1_555
C32 C31 1_555 1_555
H41 C32 1_555 1_555
C33 C32 1_555 1_555
H42 C33 1_555 1_555
C34 C33 1_555 1_555
H43 C34 1_555 1_555
C35 N1 1_555 1_555
C36 C35 1_555 1_555
C37 O14 1_555 1_555
H44 C37 1_555 1_555
H45 C37 1_555 1_555
O15 C38 1_555 1_555
O16 C51 1_555 1_555
O17 C53 1_555 1_555
O18 C55 1_555 1_555
O19 C44 1_555 1_555
O20 C39 1_555 1_555
O21 C59 1_555 1_555
O22 C63 1_555 1_555
O23 C45 1_555 1_555
O24 C66 1_555 1_555
O25 C67 1_555 1_555
O26 C73 1_555 1_555
O27 C73 1_555 1_555
N2 C68 1_555 1_555
C38 C39 1_555 1_555
C39 C40 1_555 1_555
C40 H46 1_555 1_555
C41 C40 1_555 1_555
C42 C41 1_555 1_555
H47 C42 1_555 1_555
C43 C38 1_555 1_555
H48 C43 1_555 1_555
C44 C45 1_555 1_555
C45 C46 1_555 1_555
C46 H49 1_555 1_555
C47 C46 1_555 1_555
C48 C47 1_555 1_555
H50 C48 1_555 1_555
C49 C44 1_555 1_555
H51 C49 1_555 1_555
C50 O15 1_555 1_555
H52 C50 1_555 1_555
H53 C50 1_555 1_555
C51 C50 1_555 1_555
H54 C51 1_555 1_555
H55 C51 1_555 1_555
C52 O16 1_555 1_555
H56 C52 1_555 1_555
H57 C52 1_555 1_555
C53 C52 1_555 1_555
H58 C53 1_555 1_555
H59 C53 1_555 1_555
C54 O17 1_555 1_555
H60 C54 1_555 1_555
H61 C54 1_555 1_555
C55 C54 1_555 1_555
H62 C55 1_555 1_555
H63 C55 1_555 1_555
C56 O18 1_555 1_555
H64 C56 1_555 1_555
H65 C56 1_555 1_555
C57 O19 1_555 1_555
H66 C57 1_555 1_555
H67 C57 1_555 1_555
C58 O20 1_555 1_555
H68 C58 1_555 1_555
H69 C58 1_555 1_555
C59 C58 1_555 1_555
H70 C59 1_555 1_555
H71 C59 1_555 1_555
C60 O21 1_555 1_555
H72 C60 1_555 1_555
H73 C60 1_555 1_555
C61 C60 1_555 1_555
H74 C61 1_555 1_555
H75 C61 1_555 1_555
O28 C61 1_555 1_555
C62 O28 1_555 1_555
H76 C62 1_555 1_555
H77 C62 1_555 1_555
C63 C62 1_555 1_555
H78 C63 1_555 1_555
H79 C63 1_555 1_555
C64 O22 1_555 1_555
H80 C64 1_555 1_555
H81 C64 1_555 1_555
C65 O23 1_555 1_555
H82 C65 1_555 1_555
H83 C65 1_555 1_555
C66 C41 1_555 1_555
H84 C66 1_555 1_555
H85 C66 1_555 1_555
C67 O24 1_555 1_555
C68 C67 1_555 1_555
C69 C68 1_555 1_555
H86 C69 1_555 1_555
C70 C69 1_555 1_555
H87 C70 1_555 1_555
C71 C70 1_555 1_555
H88 C71 1_555 1_555
C72 N2 1_555 1_555
C73 C72 1_555 1_555
C74 O27 1_555 1_555
H89 C74 1_555 1_555
H90 C74 1_555 1_555
N3 C75 1_555 1_555
N4 C81 1_555 1_555
C75 H91 1_555 1_555
C76 C75 1_555 1_555
H92 C76 1_555 1_555
C77 C76 1_555 1_555
C78 C77 1_555 1_555
H93 C78 1_555 1_555
C79 N3 1_555 1_555
H94 C79 1_555 1_555
C80 N3 1_555 1_555
H95 C80 1_555 1_555
H96 C80 1_555 1_555
H97 C80 1_555 1_555
C81 H98 1_555 1_555
C82 C81 1_555 1_555
H99 C82 1_555 1_555
C83 C77 1_555 1_555
C84 C83 1_555 1_555
H100 C84 1_555 1_555
C85 N4 1_555 1_555
H101 C85 1_555 1_555
C86 N4 1_555 1_555
H102 C86 1_555 1_555
H103 C86 1_555 1_555
H104 C86 1_555 1_555
N5 C87 1_555 1_555
N6 C93 1_555 1_555
C87 H105 1_555 1_555
C88 C87 1_555 1_555
H106 C88 1_555 1_555
C89 C88 1_555 1_555
C90 C89 1_555 1_555
H107 C90 1_555 1_555
C91 N5 1_555 1_555
H108 C91 1_555 1_555
C92 N5 1_555 1_555
H109 C92 1_555 1_555
H110 C92 1_555 1_555
H111 C92 1_555 1_555
C93 H112 1_555 1_555
C94 C93 1_555 1_555
H113 C94 1_555 1_555
C95 C89 1_555 1_555
C96 C95 1_555 1_555
H114 C96 1_555 1_555
C97 N6 1_555 1_555
H115 C97 1_555 1_555
C98 N6 1_555 1_555
H116 C98 1_555 1_555
H117 C98 1_555 1_555
H118 C98 1_555 1_555
O32 C100 1_555 1_555
C99 H119 1_555 1_555
H120 C99 1_555 1_555
H121 C99 1_555 1_555
C100 C99 1_555 1_555
C101 C100 1_555 1_555
H122 C101 1_555 1_555
H123 C101 1_555 1_555
H124 C101 1_555 1_555
O33 C103 1_555 1_555
C102 H125 1_555 1_555
H126 C102 1_555 1_555
H127 C102 1_555 1_555
C103 C102 1_555 1_555
C104 C103 1_555 1_555
H128 C104 1_555 1_555
H129 C104 1_555 1_555
H130 C104 1_555 1_555
O34 C106 1_555 1_555
C105 H131 1_555 1_555
H132 C105 1_555 1_555
H133 C105 1_555 1_555
C106 C105 1_555 1_555
C107 C106 1_555 1_555
H134 C107 1_555 1_555
H135 C107 1_555 1_555
H136 C107 1_555 1_555
F25A P5 1_555 1_555
F26A P5 1_555 1_555
F27A P5 1_555 1_555
C5 C6 1_555 1_555
C11 C12 1_555 1_555
C11 C37 1_555 1_555
C19 C20 1_555 1_555
C27 C28 1_555 1_555
C34 C35 1_555 1_555
C42 C43 1_555 1_555
C47 C74 1_555 1_555
C48 C49 1_555 1_555
C56 C57 1_555 1_555
C64 C65 1_555 1_555
C71 C72 1_555 1_555
C78 C79 1_555 1_555
C82 C83 1_555 1_555
C84 C85 1_555 1_555
C90 C91 1_555 1_555
C94 C95 1_555 1_555
C96 C97 1_555 1_555

#END
