
#######################################################################
#
#                 Cambridge Crystallographic Data Centre
#                                CCDC 
#
#######################################################################
#
# If this CIF has been generated from an entry in the Cambridge 
# Structural Database, then it will include bibliographic, chemical, 
# crystal, experimental, refinement or atomic coordinate data resulting 
# from the CCDC's data processing and validation procedures.
#
#######################################################################

data_XONXAA
_chemical_formula_moiety         
'C37 H45 N1 O14,C14 H18 N2 O2 2+,2(F6 P1 1-),0.5(C3 H6 O1),C5 H12,H2 O1'
_chemical_name_systematic        
"5,8,11,14,17,24,27,30,33,36,40,48-Dodecaoxa-50-azapentacyclo [19.17.11.1^42,46^.0^4,37^.0^18,23^]pentaconta-1,3,18,20,22,37,42(50),43,45-nonaene-41,47-dione N,N'-bis(2-hydroxyethyl)-4,4'-bipyridinium clathrate bis(hexafluorophosphate) acetone pentane solvate monohydrate"
_symmetry_cell_setting           triclinic
_symmetry_space_group_name_H-M   'P -1'
_symmetry_Int_Tables_number      2
_space_group_name_Hall           '-P 1'
loop_
_symmetry_equiv_pos_site_id
_symmetry_equiv_pos_as_xyz
1 x,y,z
2 -x,-y,-z
_cell_length_a                   13.9741(4)
_cell_length_b                   16.8936(5)
_cell_length_c                   26.4827(5)
_cell_angle_alpha                89.867(2)
_cell_angle_beta                 81.082(2)
_cell_angle_gamma                85.426(2)
_cell_volume                     6156.28
_cell_formula_units_Z            4
_exptl_crystal_recrystallization_method pentane/acetone
loop_
_atom_site_label
_atom_site_type_symbol
_atom_site_fract_x
_atom_site_fract_y
_atom_site_fract_z
P2 P 0.70064(8) 0.79227(7) 0.10496(4)
F7 F 0.71239(19) 0.81461(18) 0.04668(9)
F8 F 0.81308(19) 0.75481(18) 0.09686(9)
F9 F 0.6739(2) 0.70653(17) 0.08851(11)
F10 F 0.69367(18) 0.76250(18) 0.16214(8)
F11 F 0.7391(2) 0.87140(16) 0.11893(11)
F12 F 0.59146(19) 0.8198(2) 0.11248(10)
P4 P 0.4563(11) 0.1710(5) 0.2131(6)
F19 F 0.3429(13) 0.1754(14) 0.2240(12)
F20 F 0.4585(17) 0.2607(5) 0.2302(8)
F21 F 0.4497(18) 0.1940(10) 0.1543(8)
F22 F 0.4720(14) 0.1378(10) 0.2683(7)
F23 F 0.5684(12) 0.1629(12) 0.1971(8)
F24 F 0.4597(14) 0.0817(9) 0.1946(9)
P5 P 0.04242(19) 0.60049(16) 0.49044(9)
F25 F 0.0340(4) 0.5745(4) 0.43374(17)
F26 F -0.0462(5) 0.6589(4) 0.4908(2)
F27 F 0.0484(3) 0.6284(3) 0.54834(16)
F28 F -0.0249(8) 0.5330(6) 0.5102(3)
F29 F 0.1304(6) 0.5415(6) 0.4902(2)
F30 F 0.1098(7) 0.6639(6) 0.4730(2)
P6 P 0.5000 1.0000 0.5000
F31 F 0.42124(18) 0.93648(16) 0.50196(10)
F32 F 0.50372(17) 1.00807(16) 0.43976(8)
F33 F 0.58556(17) 0.93073(15) 0.49190(8)
F31A F 0.57876(18) 1.06352(16) 0.49804(10)
F32A F 0.49628(17) 0.99193(16) 0.56024(8)
F33A F 0.41444(17) 1.06927(15) 0.50810(8)
O1 O 0.18206(18) 0.78369(15) 0.29118(9)
O2 O -0.00601(19) 0.76413(16) 0.36104(9)
O3 O -0.1231(2) 0.91417(17) 0.38260(9)
O4 O -0.29480(18) 0.94546(15) 0.33781(9)
O5 O -0.23909(17) 1.04880(14) 0.25635(8)
O6 O 0.30456(18) 0.89154(16) 0.29190(10)
O7 O 0.2621(2) 1.00087(17) 0.37098(11)
O8 O 0.1059(3) 1.09766(19) 0.42690(11)
O9 O -0.0227(2) 1.15946(16) 0.35999(10)
O10 O -0.10287(17) 1.13733(14) 0.26884(8)
O11 O 0.19656(16) 0.75723(14) 0.08478(9)
O12 O 0.23962(19) 0.65451(16) 0.03014(9)
O13 O -0.14257(19) 0.92792(15) -0.00567(9)
O14 O -0.06484(16) 0.94009(13) 0.06191(8)
N1 N 0.0450(2) 0.80352(17) 0.03601(10)
C1 C 0.3003(3) 0.8595(2) 0.24486(15)
C2 C 0.2351(2) 0.7998(2) 0.24466(14)
C3 C 0.2297(3) 0.7615(2) 0.19957(13)
H1 H 0.1862 0.7211 0.1995
C4 C 0.2866(3) 0.7806(2) 0.15396(14)
C5 C 0.3489(3) 0.8394(2) 0.15436(15)
H2 H 0.3877 0.8533 0.1234
C6 C 0.3561(3) 0.8791(2) 0.19955(16)
H3 H 0.3996 0.9197 0.1992
C7 C -0.0996(2) 1.1087(2) 0.22017(13)
C8 C -0.1741(2) 1.0607(2) 0.21317(13)
C9 C -0.1781(2) 1.0305(2) 0.16529(13)
H4 H -0.2286 0.9979 0.1608
C10 C -0.1088(3) 1.0470(2) 0.12317(13)
C11 C -0.0357(3) 1.0936(2) 0.13038(13)
H5 H 0.0122 1.1046 0.1022
C12 C -0.0309(3) 1.1249(2) 0.17852(14)
H6 H 0.0196 1.1576 0.1828
C13 C 0.1226(3) 0.7186(2) 0.29165(14)
H7 H 0.1635 0.6698 0.2793
H8 H 0.0741 0.7296 0.2685
C14 C 0.0721(3) 0.7064(3) 0.34451(14)
H9 H 0.0468 0.6532 0.3463
H10 H 0.1201 0.7071 0.3684
C15 C 0.0204(3) 0.8292(3) 0.38646(16)
H11 H 0.0530 0.8658 0.3614
H12 H 0.0663 0.8111 0.4098
C16 C -0.0696(3) 0.8717(3) 0.41652(15)
H13 H -0.1101 0.8327 0.4356
H14 H -0.0509 0.9088 0.4415
C17 C -0.2091(3) 0.9554(3) 0.40855(14)
H15 H -0.1928 0.9923 0.4343
H16 H -0.2526 0.9172 0.4263
C18 C -0.2592(3) 1.0011(3) 0.36980(14)
H17 H -0.3139 1.0368 0.3874
H18 H -0.2130 1.0340 0.3488
C19 C -0.3596(3) 0.9800(2) 0.30590(13)
H19 H -0.3897 1.0312 0.3212
H20 H -0.4122 0.9445 0.3045
C20 C -0.3109(3) 0.9942(2) 0.25262(13)
H21 H -0.2800 0.9438 0.2365
H22 H -0.3589 1.0169 0.2316
C21 C 0.3598(3) 0.9592(3) 0.29291(17)
H23 H 0.3301 1.0043 0.2752
H24 H 0.4271 0.9465 0.2754
C22 C 0.3597(3) 0.9800(3) 0.34753(18)
H25 H 0.3877 0.9342 0.3653
H26 H 0.3997 1.0253 0.3499
C23 C 0.2514(4) 1.0153(3) 0.42375(17)
H27 H 0.2835 1.0635 0.4304
H28 H 0.2822 0.9699 0.4407
C24 C 0.1461(4) 1.0264(3) 0.44450(16)
H29 H 0.1125 0.9815 0.4335
H30 H 0.1371 1.0273 0.4823
C25 C 0.0040(4) 1.1092(4) 0.44044(17)
H31 H -0.0131 1.1182 0.4778
H32 H -0.0262 1.0612 0.4314
C26 C -0.0337(4) 1.1792(3) 0.41276(15)
H33 H -0.1031 1.1931 0.4263
H34 H 0.0030 1.2256 0.4177
C27 C -0.0547(3) 1.2222(2) 0.32946(14)
H35 H -0.0192 1.2696 0.3336
H36 H -0.1250 1.2366 0.3402
C28 C -0.0361(3) 1.1953(2) 0.27506(14)
H37 H -0.0456 1.2410 0.2523
H38 H 0.0316 1.1718 0.2661
C29 C 0.2833(3) 0.7328(2) 0.10753(14)
H39 H 0.3421 0.7396 0.0823
H40 H 0.2829 0.6759 0.1165
C30 C 0.1836(3) 0.7102(2) 0.04603(14)
C31 C 0.0933(3) 0.7330(2) 0.02394(13)
C32 C 0.0666(3) 0.6793(2) -0.00974(14)
H41 H 0.1026 0.6293 -0.0163
C33 C -0.0129(3) 0.6991(2) -0.03360(14)
H42 H -0.0328 0.6631 -0.0567
C34 C -0.0630(3) 0.7728(2) -0.02314(13)
H43 H -0.1173 0.7890 -0.0394
C35 C -0.0314(3) 0.8225(2) 0.01197(12)
C36 C -0.0854(3) 0.9013(2) 0.02155(13)
C37 C -0.1195(3) 1.0183(2) 0.07151(12)
H44 H -0.1890 1.0137 0.0695
H45 H -0.0941 1.0564 0.0453
O15 O 0.80730(19) 0.41224(15) 0.32173(9)
O16 O 0.7616(3) 0.5416(2) 0.39202(12)
O17 O 0.7013(3) 0.7083(3) 0.40357(13)
O18 O 0.5626(3) 0.7932(3) 0.34489(15)
O20 O 0.43405(19) 0.66245(17) 0.28332(9)
O21 O 0.69513(18) 0.29587(15) 0.32053(9)
O22 O 0.5309(2) 0.26744(18) 0.39528(11)
O23 O 0.3210(2) 0.30182(17) 0.41465(10)
O24 O 0.2433(2) 0.4088(2) 0.34573(11)
O25 O 0.32253(18) 0.54646(16) 0.27846(9)
O26 O 0.71495(16) 0.27476(14) 0.11141(8)
O27 O 0.7594(2) 0.16938(16) 0.05958(9)
O28 O 0.39749(19) 0.44846(16) 0.00917(9)
O29 O 0.45623(16) 0.45574(13) 0.08330(8)
N2 N 0.5703(2) 0.31972(17) 0.05876(9)
C38 C 0.8067(3) 0.3781(2) 0.27525(15)
C39 C 0.7455(3) 0.3156(2) 0.27429(14)
C40 C 0.7418(3) 0.2769(2) 0.22856(14)
H46 H 0.7006 0.2349 0.2281
C41 C 0.7983(3) 0.2992(2) 0.18293(13)
C42 C 0.8573(3) 0.3607(2) 0.18400(15)
H47 H 0.8955 0.3764 0.1533
C43 C 0.8611(3) 0.3999(2) 0.22958(16)
H48 H 0.9016 0.4425 0.2296
C44 C 0.4326(3) 0.6333(2) 0.23523(15)
C45 C 0.3720(3) 0.5713(2) 0.23300(14)
C46 C 0.3653(3) 0.5390(2) 0.18584(13)
H49 H 0.3241 0.4973 0.1840
C47 C 0.4173(3) 0.5662(2) 0.14133(13)
C48 C 0.4764(3) 0.6269(2) 0.14459(14)
H50 H 0.5124 0.6460 0.1142
C49 C 0.4844(3) 0.6607(2) 0.19095(15)
H51 H 0.5253 0.7027 0.1924
C50 C 0.8672(3) 0.4769(3) 0.32211(17)
H52 H 0.8468 0.5195 0.2993
H53 H 0.9359 0.4587 0.3095
C51 C 0.8575(4) 0.5083(3) 0.37587(19)
H54 H 0.8732 0.4647 0.3990
H55 H 0.9038 0.5493 0.3774
C52 C 0.7491(5) 0.5858(4) 0.44037(18)
H56 H 0.6825 0.5812 0.4588
H57 H 0.7955 0.5621 0.4620
C53 C 0.7646(5) 0.6679(4) 0.4326(2)
H58 H 0.7576 0.6946 0.4664
H59 H 0.8322 0.6721 0.4155
C54 C 0.6173(6) 0.7470(5) 0.4272(3)
H60 H 0.6295 0.7701 0.4597
H61 H 0.5685 0.7077 0.4358
C55 C 0.5733(5) 0.8147(5) 0.3953(2)
H62 H 0.5087 0.8341 0.4138
H63 H 0.6154 0.8594 0.3933
C56 C 0.4915(6) 0.7387(5) 0.3429(2)
H64 H 0.4265 0.7611 0.3593
H65 H 0.5083 0.6881 0.3597
C60 C 0.4950(3) 0.7268(3) 0.28534(16)
H72 H 0.4687 0.7752 0.2694
H73 H 0.5621 0.7122 0.2681
C61 C 0.6400(3) 0.2276(2) 0.31961(15)
H74 H 0.6827 0.1820 0.3036
H75 H 0.5872 0.2392 0.2991
C62 C 0.5977(3) 0.2073(2) 0.37295(15)
H76 H 0.5653 0.1574 0.3724
H77 H 0.6506 0.1985 0.3937
C63 C 0.4668(3) 0.2421(3) 0.43860(17)
H78 H 0.4571 0.2835 0.4657
H79 H 0.4960 0.1929 0.4524
C64 C 0.3701(4) 0.2267(3) 0.42343(17)
H80 H 0.3802 0.1935 0.3920
H81 H 0.3310 0.1983 0.4510
C65 C 0.2309(4) 0.2959(3) 0.3984(2)
H82 H 0.1871 0.2694 0.4250
H83 H 0.2401 0.2631 0.3668
C66 C 0.1865(4) 0.3751(4) 0.3885(2)
H84 H 0.1195 0.3709 0.3815
H85 H 0.1831 0.4097 0.4190
C67 C 0.1946(3) 0.4763(3) 0.32604(16)
H86 H 0.1921 0.5223 0.3494
H87 H 0.1272 0.4653 0.3230
C68 C 0.2487(3) 0.4945(3) 0.27474(15)
H88 H 0.2785 0.4444 0.2577
H89 H 0.2026 0.5193 0.2534
C69 C 0.8007(3) 0.2509(2) 0.13581(14)
H90 H 0.8607 0.2588 0.1117
H91 H 0.8010 0.1939 0.1446
C70 C 0.7045(3) 0.2259(2) 0.07404(13)
C71 C 0.6158(3) 0.2477(2) 0.04980(12)
C72 C 0.5878(3) 0.1921(2) 0.01755(13)
H92 H 0.6226 0.1413 0.0125
C73 C 0.5096(3) 0.2109(2) -0.00686(13)
H93 H 0.4884 0.1734 -0.0285
C74 C 0.4625(3) 0.2859(2) 0.00081(13)
H94 H 0.4089 0.3016 -0.0160
C75 C 0.4952(2) 0.3378(2) 0.03356(12)
C76 C 0.4444(3) 0.4200(2) 0.04021(14)
C77 C 0.4042(3) 0.5350(2) 0.09065(13)
H95 H 0.3343 0.5315 0.0893
H96 H 0.4306 0.5709 0.0633
O30 O -0.25235(18) 0.65923(15) 0.29944(9)
H97 H -0.2756 0.6723 0.3297
O31 O 0.4368(3) 0.9741(2) 0.05401(16)
H98 H 0.4399 0.9892 0.0236
N3 N -0.1212(2) 0.82546(17) 0.24012(11)
N4 N 0.2537(2) 1.03775(19) 0.11514(14)
C78 C -0.0780(3) 0.8760(2) 0.26708(13)
H99 H -0.1013 0.8848 0.3024
C79 C -0.0014(3) 0.9146(2) 0.24403(14)
H100 H 0.0283 0.9501 0.2634
C80 C 0.0340(2) 0.9025(2) 0.19224(13)
C81 C -0.0109(2) 0.8490(2) 0.16600(13)
H101 H 0.0122 0.8384 0.1308
C82 C -0.0874(3) 0.8115(2) 0.19002(13)
H102 H -0.1174 0.7750 0.1715
C83 C -0.2046(3) 0.7837(2) 0.26573(14)
H103 H -0.2516 0.7782 0.2418
H104 H -0.2381 0.8152 0.2957
C84 C -0.1695(3) 0.7023(2) 0.28282(15)
H105 H -0.1269 0.6737 0.2541
H106 H -0.1317 0.7076 0.3112
C85 C 0.2290(3) 1.0462(2) 0.16577(18)
H107 H 0.2593 1.0833 0.1837
C86 C 0.1594(3) 1.0011(2) 0.19222(15)
H108 H 0.1427 1.0068 0.2283
C87 C 0.1138(2) 0.9470(2) 0.16577(14)
C88 C 0.1438(3) 0.9396(2) 0.11288(14)
H109 H 0.1158 0.9027 0.0937
C89 C 0.2135(3) 0.9852(2) 0.08888(15)
H110 H 0.2335 0.9796 0.0530
C90 C 0.3306(3) 1.0866(3) 0.08939(18)
H111 H 0.3295 1.1370 0.1086
H112 H 0.3182 1.0997 0.0544
C91 C 0.4300(4) 1.0410(3) 0.0868(2)
H113 H 0.4815 1.0763 0.0739
H114 H 0.4398 1.0235 0.1214
O32 O 0.9197(2) 0.48181(16) 0.06859(10)
H115 H 0.9796 0.4830 0.0691
O33 O 0.4368(6) 0.5844(5) 0.4235(3)
H116 H 0.4701 0.5666 0.4455
N5 N 0.7288(5) 0.5197(4) 0.0990(4)
N6 N 0.5027(6) 0.4525(5) 0.3519(3)
C92 C 0.7445(7) 0.5687(6) 0.1358(3)
H117 H 0.7838 0.6120 0.1287
C93 C 0.7007(6) 0.5529(5) 0.1846(5)
H118 H 0.7102 0.5859 0.2121
C94 C 0.6424(6) 0.4894(5) 0.1946(4)
C95 C 0.6280(6) 0.4411(4) 0.1562(4)
H119 H 0.5882 0.3979 0.1621
C96 C 0.6753(6) 0.4586(5) 0.1071(3)
H120 H 0.6687 0.4257 0.0790
C97 C 0.7792(7) 0.5364(5) 0.0464(3)
H121 H 0.7451 0.5839 0.0333
H122 H 0.7733 0.4911 0.0238
C98 C 0.8855(7) 0.5502(6) 0.0430(4)
H123 H 0.9179 0.5518 0.0071
H124 H 0.8946 0.5999 0.0608
C99 C 0.5776(6) 0.4992(5) 0.3438(3)
H125 H 0.5998 0.5234 0.3717
C100 C 0.6210(6) 0.5109(5) 0.2945(3)
H126 H 0.6722 0.5453 0.2896
C101 C 0.5946(6) 0.4745(4) 0.2488(5)
C102 C 0.5205(5) 0.4221(4) 0.2605(3)
H127 H 0.5006 0.3934 0.2337
C103 C 0.4752(8) 0.4115(6) 0.3117(5)
H128 H 0.4256 0.3759 0.3185
C104 C 0.4472(7) 0.4456(6) 0.4091(4)
H129 H 0.4922 0.4473 0.4345
H130 H 0.4125 0.3967 0.4138
C105 C 0.3719(13) 0.5251(10) 0.4125(7)
H131 H 0.3475 0.5356 0.3798
H132 H 0.3164 0.5219 0.4404
O35 O 0.1628(2) 0.22747(19) 0.13737(12)
C120 C 0.2529(4) 0.3383(3) 0.1162(2)
H150 H 0.2661 0.3139 0.0821
H151 H 0.3143 0.3435 0.1290
H152 H 0.2188 0.3910 0.1145
C121 C 0.1916(3) 0.2878(3) 0.15125(19)
C122 C 0.1667(4) 0.3169(3) 0.20499(19)
H153 H 0.1283 0.2786 0.2254
H154 H 0.1287 0.3684 0.2059
H155 H 0.2265 0.3229 0.2191
O36 O 0.1038(2) 0.02826(17) 0.31447(9)
O37 O 0.6345(4) 0.9785(3) 0.0309(2)
P1 P 0.04360(7) 0.57123(6) 0.16689(4)
F1 F 0.04114(18) 0.66141(14) 0.18360(11)
F2 F -0.07210(14) 0.57724(14) 0.17573(8)
F3 F 0.04200(17) 0.54558(17) 0.22484(8)
F4 F 0.04356(18) 0.48039(14) 0.15061(9)
F5 F 0.15860(15) 0.56504(15) 0.15831(9)
F6 F 0.04330(18) 0.59650(17) 0.10942(9)
P3? P 0.4301(8) 0.1773(5) 0.2275(4)
F13? F 0.5398(10) 0.1936(13) 0.2097(4)
F14? F 0.4517(13) 0.1577(13) 0.2829(5)
F15? F 0.4063(13) 0.2649(9) 0.2495(8)
F16? F 0.3196(12) 0.1660(14) 0.2479(9)
F17? F 0.4031(12) 0.2042(12) 0.1743(6)
F18? F 0.4408(12) 0.0860(8) 0.2093(7)
O19? O 0.5468(6) 0.7311(5) 0.3588(3)
C57? C 0.6712(8) 0.7833(7) 0.4121(5)
H66? H 0.7063 0.8190 0.3873
H67? H 0.6745 0.8005 0.4474
C58? C 0.5677(9) 0.7759(10) 0.4030(5)
H68? H 0.5330 0.7519 0.4341
H69? H 0.5371 0.8305 0.4010
C59? C 0.4853(10) 0.7784(8) 0.3308(4)
H70? H 0.5097 0.8311 0.3224
H71? H 0.4175 0.7852 0.3487
O34? O 0.5130(9) 0.4266(7) 0.4820(4)
H133? H 0.5687 0.4239 0.4645
N7? N 0.7062(6) 0.5065(5) 0.1195(3)
N8? N 0.4692(8) 0.4694(6) 0.3753(5)
C106? C 0.7275(6) 0.5568(5) 0.1554(4)
H134? H 0.7688 0.5982 0.1462
C107? C 0.6870(6) 0.5457(5) 0.2061(3)
H135? H 0.7010 0.5795 0.2322
C108? C 0.6262(6) 0.4857(4) 0.2185(4)
C109? C 0.6064(6) 0.4378(5) 0.1819(4)
H136? H 0.5644 0.3965 0.1901
C110? C 0.6489(6) 0.4496(5) 0.1310(5)
H137? H 0.6358 0.4158 0.1047
C111? C 0.7453(6) 0.5217(5) 0.0653(5)
H138? H 0.7040 0.5659 0.0532
H139? H 0.7386 0.4740 0.0449
C112? C 0.8481(8) 0.5417(6) 0.0540(4)
H140? H 0.8642 0.5510 0.0168
H141? H 0.8540 0.5921 0.0718
C113? C 0.5286(10) 0.5360(8) 0.3563(5)
H142? H 0.5278 0.5815 0.3773
C114? C 0.5815(9) 0.5326(7) 0.3112(4)
H143? H 0.6267 0.5717 0.3037
C115? C 0.5781(6) 0.4781(5) 0.2734(4)
C116? C 0.5129(7) 0.4179(5) 0.2892(5)
H144? H 0.4990 0.3787 0.2663
C117? C 0.4748(8) 0.4211(7) 0.3367(5)
H145? H 0.4413 0.3752 0.3462
C118? C 0.4011(9) 0.4948(8) 0.4252(4)
H146? H 0.3639 0.5455 0.4194
H147? H 0.3540 0.4542 0.4339
C119? C 0.4509(13) 0.5043(11) 0.4666(6)
H148? H 0.4030 0.5223 0.4967
H149? H 0.4953 0.5470 0.4583
loop_
_geom_bond_atom_site_label_1
_geom_bond_atom_site_label_2
_geom_bond_site_symmetry_1
_geom_bond_site_symmetry_2
P1 F1 1_555 1_555
F2 P1 1_555 1_555
F3 P1 1_555 1_555
F4 P1 1_555 1_555
F5 P1 1_555 1_555
F6 P1 1_555 1_555
P2 F7 1_555 1_555
F8 P2 1_555 1_555
F9 P2 1_555 1_555
F10 P2 1_555 1_555
F11 P2 1_555 1_555
F12 P2 1_555 1_555
P4 F19 1_555 1_555
F20 P4 1_555 1_555
F21 P4 1_555 1_555
F22 P4 1_555 1_555
F23 P4 1_555 1_555
F24 P4 1_555 1_555
P5 F25 1_555 1_555
F26 P5 1_555 1_555
F27 P5 1_555 1_555
F28 P5 1_555 1_555
F29 P5 1_555 1_555
F30 P5 1_555 1_555
P6 F31 1_555 1_555
F32 P6 1_555 1_555
F33 P6 1_555 1_555
O1 C2 1_555 1_555
O2 C14 1_555 1_555
O3 C16 1_555 1_555
O4 C18 1_555 1_555
O5 C8 1_555 1_555
O6 C1 1_555 1_555
O7 C22 1_555 1_555
O8 C24 1_555 1_555
O9 C26 1_555 1_555
O10 C7 1_555 1_555
O11 C29 1_555 1_555
O12 C30 1_555 1_555
O13 C36 1_555 1_555
O14 C36 1_555 1_555
N1 C31 1_555 1_555
C1 C2 1_555 1_555
C2 C3 1_555 1_555
C3 H1 1_555 1_555
C4 C3 1_555 1_555
C5 C4 1_555 1_555
H2 C5 1_555 1_555
C6 C1 1_555 1_555
H3 C6 1_555 1_555
C7 C8 1_555 1_555
C8 C9 1_555 1_555
C9 H4 1_555 1_555
C10 C9 1_555 1_555
C11 C10 1_555 1_555
H5 C11 1_555 1_555
C12 C7 1_555 1_555
H6 C12 1_555 1_555
C13 O1 1_555 1_555
H7 C13 1_555 1_555
H8 C13 1_555 1_555
C14 C13 1_555 1_555
H9 C14 1_555 1_555
H10 C14 1_555 1_555
C15 O2 1_555 1_555
H11 C15 1_555 1_555
H12 C15 1_555 1_555
C16 C15 1_555 1_555
H13 C16 1_555 1_555
H14 C16 1_555 1_555
C17 O3 1_555 1_555
H15 C17 1_555 1_555
H16 C17 1_555 1_555
C18 C17 1_555 1_555
H17 C18 1_555 1_555
H18 C18 1_555 1_555
C19 O4 1_555 1_555
H19 C19 1_555 1_555
H20 C19 1_555 1_555
C20 O5 1_555 1_555
H21 C20 1_555 1_555
H22 C20 1_555 1_555
C21 O6 1_555 1_555
H23 C21 1_555 1_555
H24 C21 1_555 1_555
C22 C21 1_555 1_555
H25 C22 1_555 1_555
H26 C22 1_555 1_555
C23 O7 1_555 1_555
H27 C23 1_555 1_555
H28 C23 1_555 1_555
C24 C23 1_555 1_555
H29 C24 1_555 1_555
H30 C24 1_555 1_555
C25 O8 1_555 1_555
H31 C25 1_555 1_555
H32 C25 1_555 1_555
C26 C25 1_555 1_555
H33 C26 1_555 1_555
H34 C26 1_555 1_555
C27 O9 1_555 1_555
H35 C27 1_555 1_555
H36 C27 1_555 1_555
C28 O10 1_555 1_555
H37 C28 1_555 1_555
H38 C28 1_555 1_555
C29 C4 1_555 1_555
H39 C29 1_555 1_555
H40 C29 1_555 1_555
C30 O11 1_555 1_555
C31 C30 1_555 1_555
C32 C31 1_555 1_555
H41 C32 1_555 1_555
C33 C32 1_555 1_555
H42 C33 1_555 1_555
C34 C33 1_555 1_555
H43 C34 1_555 1_555
C35 N1 1_555 1_555
C36 C35 1_555 1_555
C37 O14 1_555 1_555
H44 C37 1_555 1_555
H45 C37 1_555 1_555
O15 C38 1_555 1_555
O16 C51 1_555 1_555
O17 C53 1_555 1_555
O18 C55 1_555 1_555
O20 C44 1_555 1_555
O21 C39 1_555 1_555
O22 C62 1_555 1_555
O23 C64 1_555 1_555
O24 C66 1_555 1_555
O25 C45 1_555 1_555
O26 C69 1_555 1_555
O27 C70 1_555 1_555
O28 C76 1_555 1_555
O29 C76 1_555 1_555
N2 C71 1_555 1_555
C38 C39 1_555 1_555
C39 C40 1_555 1_555
C40 H46 1_555 1_555
C41 C40 1_555 1_555
C42 C41 1_555 1_555
H47 C42 1_555 1_555
C43 C38 1_555 1_555
H48 C43 1_555 1_555
C44 C45 1_555 1_555
C45 C46 1_555 1_555
C46 H49 1_555 1_555
C47 C46 1_555 1_555
C48 C47 1_555 1_555
H50 C48 1_555 1_555
C49 C44 1_555 1_555
H51 C49 1_555 1_555
C50 O15 1_555 1_555
H52 C50 1_555 1_555
H53 C50 1_555 1_555
C51 C50 1_555 1_555
H54 C51 1_555 1_555
H55 C51 1_555 1_555
C52 O16 1_555 1_555
H56 C52 1_555 1_555
H57 C52 1_555 1_555
C53 C52 1_555 1_555
H58 C53 1_555 1_555
H59 C53 1_555 1_555
C54 O17 1_555 1_555
H60 C54 1_555 1_555
H61 C54 1_555 1_555
C55 C54 1_555 1_555
H62 C55 1_555 1_555
H63 C55 1_555 1_555
C56 O18 1_555 1_555
H64 C56 1_555 1_555
H65 C56 1_555 1_555
C60 O20 1_555 1_555
H72 C60 1_555 1_555
H73 C60 1_555 1_555
C61 O21 1_555 1_555
H74 C61 1_555 1_555
H75 C61 1_555 1_555
C62 C61 1_555 1_555
H76 C62 1_555 1_555
H77 C62 1_555 1_555
C63 O22 1_555 1_555
H78 C63 1_555 1_555
H79 C63 1_555 1_555
C64 C63 1_555 1_555
H80 C64 1_555 1_555
H81 C64 1_555 1_555
C65 O23 1_555 1_555
H82 C65 1_555 1_555
H83 C65 1_555 1_555
C66 C65 1_555 1_555
H84 C66 1_555 1_555
H85 C66 1_555 1_555
C67 O24 1_555 1_555
H86 C67 1_555 1_555
H87 C67 1_555 1_555
C68 O25 1_555 1_555
H88 C68 1_555 1_555
H89 C68 1_555 1_555
C69 C41 1_555 1_555
H90 C69 1_555 1_555
H91 C69 1_555 1_555
C70 O26 1_555 1_555
C71 C70 1_555 1_555
C72 C71 1_555 1_555
H92 C72 1_555 1_555
C73 C72 1_555 1_555
H93 C73 1_555 1_555
C74 C73 1_555 1_555
H94 C74 1_555 1_555
C75 N2 1_555 1_555
C76 C75 1_555 1_555
C77 O29 1_555 1_555
H95 C77 1_555 1_555
H96 C77 1_555 1_555
O30 H97 1_555 1_555
O31 H98 1_555 1_555
N3 C78 1_555 1_555
N4 C85 1_555 1_555
C78 H99 1_555 1_555
C79 C78 1_555 1_555
H100 C79 1_555 1_555
C80 C79 1_555 1_555
C81 C80 1_555 1_555
H101 C81 1_555 1_555
C82 N3 1_555 1_555
H102 C82 1_555 1_555
C83 N3 1_555 1_555
H103 C83 1_555 1_555
H104 C83 1_555 1_555
C84 O30 1_555 1_555
H105 C84 1_555 1_555
H106 C84 1_555 1_555
C85 H107 1_555 1_555
C86 C85 1_555 1_555
H108 C86 1_555 1_555
C87 C80 1_555 1_555
C88 C87 1_555 1_555
H109 C88 1_555 1_555
C89 N4 1_555 1_555
H110 C89 1_555 1_555
C90 N4 1_555 1_555
H111 C90 1_555 1_555
H112 C90 1_555 1_555
C91 O31 1_555 1_555
H113 C91 1_555 1_555
H114 C91 1_555 1_555
O32 H115 1_555 1_555
O33 H116 1_555 1_555
N5 C92 1_555 1_555
N6 C99 1_555 1_555
C92 H117 1_555 1_555
C93 C92 1_555 1_555
H118 C93 1_555 1_555
C94 C93 1_555 1_555
C95 C94 1_555 1_555
H119 C95 1_555 1_555
C96 N5 1_555 1_555
H120 C96 1_555 1_555
C97 N5 1_555 1_555
H121 C97 1_555 1_555
H122 C97 1_555 1_555
C98 O32 1_555 1_555
H123 C98 1_555 1_555
H124 C98 1_555 1_555
C99 H125 1_555 1_555
C100 C99 1_555 1_555
H126 C100 1_555 1_555
C101 C94 1_555 1_555
C102 C101 1_555 1_555
H127 C102 1_555 1_555
C103 N6 1_555 1_555
H128 C103 1_555 1_555
C104 N6 1_555 1_555
H129 C104 1_555 1_555
H130 C104 1_555 1_555
C105 O33 1_555 1_555
H131 C105 1_555 1_555
H132 C105 1_555 1_555
O35 C121 1_555 1_555
C120 H150 1_555 1_555
H151 C120 1_555 1_555
H152 C120 1_555 1_555
C121 C120 1_555 1_555
C122 C121 1_555 1_555
H153 C122 1_555 1_555
H154 C122 1_555 1_555
H155 C122 1_555 1_555
F31A P6 1_555 1_555
F32A P6 1_555 1_555
F33A P6 1_555 1_555
C5 C6 1_555 1_555
C10 C37 1_555 1_555
C11 C12 1_555 1_555
C19 C20 1_555 1_555
C27 C28 1_555 1_555
C34 C35 1_555 1_555
C42 C43 1_555 1_555
C47 C77 1_555 1_555
C48 C49 1_555 1_555
C56 C60 1_555 1_555
C67 C68 1_555 1_555
C74 C75 1_555 1_555
C81 C82 1_555 1_555
C83 C84 1_555 1_555
C86 C87 1_555 1_555
C88 C89 1_555 1_555
C90 C91 1_555 1_555
C95 C96 1_555 1_555
C97 C98 1_555 1_555
C100 C101 1_555 1_555
C102 C103 1_555 1_555
C104 C105 1_555 1_555

#END
