
#######################################################################
#
#                 Cambridge Crystallographic Data Centre
#                                CCDC 
#
#######################################################################
#
# If this CIF has been generated from an entry in the Cambridge 
# Structural Database, then it will include bibliographic, chemical, 
# crystal, experimental, refinement or atomic coordinate data resulting 
# from the CCDC's data processing and validation procedures.
#
#######################################################################

data_XOPGOA01
_chemical_formula_moiety         'C30 H26 I1 N1 O5 S1'
_chemical_name_systematic        
'1-(benzyl((4-methylphenyl)sulfonyl)amino)-2-(4-methoxyphenyl)vinyl 2-iodobenzoate'
_symmetry_cell_setting           triclinic
_symmetry_space_group_name_H-M   'P -1'
_symmetry_Int_Tables_number      2
_space_group_name_Hall           '-P 1'
loop_
_symmetry_equiv_pos_site_id
_symmetry_equiv_pos_as_xyz
1 x,y,z
2 -x,-y,-z
_cell_length_a                   12.771(3)
_cell_length_b                   14.579(3)
_cell_length_c                   16.377(3)
_cell_angle_alpha                106.53(3)
_cell_angle_beta                 105.21(3)
_cell_angle_gamma                91.30(3)
_cell_volume                     2805.13
_cell_formula_units_Z            4
loop_
_atom_site_label
_atom_site_type_symbol
_atom_site_fract_x
_atom_site_fract_y
_atom_site_fract_z
I1 I 0.6162(2) 0.59055(18) -0.33084(18)
S1 S 0.5184(8) 0.8355(8) 0.1044(7)
O1 O 0.498(2) 0.802(2) -0.1078(18)
N1 N 0.463(2) 0.7520(18) 0.0082(16)
O2 O -0.0715(17) 0.712(3) -0.020(2)
C1 C 0.412(2) 0.600(3) -0.009(2)
C2 C 0.016(3) 0.745(4) -0.127(2)
C3 C 0.756(4) 0.871(3) -0.2602(18)
O3 O 0.527(3) 0.795(3) 0.1736(19)
C4 C 0.603(5) 0.782(4) -0.219(6)
O4 O 0.452(4) 0.685(2) -0.240(3)
C5 C 0.510(3) 0.660(3) -0.009(2)
C6 C 0.661(5) 0.864(3) 0.113(4)
C7 C 0.231(4) 0.774(3) -0.078(2)
O5 O 0.454(5) 0.915(4) 0.094(4)
C8 C 0.657(3) 0.746(4) -0.264(3)
C9 C 0.625(4) 0.903(8) -0.168(3)
C10 C 0.422(3) 0.785(4) -0.069(3)
C11 C 0.721(3) 0.899(8) -0.193(3)
C12 C 0.116(3) 0.753(3) -0.148(2)
C13 C 0.382(4) 0.560(3) 0.038(3)
C14 C 0.280(3) 0.498(2) 0.034(4)
C15 C 0.519(2) 0.747(4) -0.179(2)
C16 C 0.218(3) 0.739(2) -0.009(2)
C17 C -0.186(3) 0.721(4) -0.081(3)
C18 C 0.730(4) 0.797(7) -0.286(7)
C19 C 0.319(3) 0.792(2) -0.1003(18)
C20 C 0.345(4) 0.527(3) -0.115(3)
C21 C 0.262(4) 0.469(4) -0.128(3)
C22 C 0.013(3) 0.722(4) -0.057(3)
C23 C 0.228(3) 0.460(4) -0.051(4)
C24 C 0.117(3) 0.730(4) 0.014(3)
C25 C 0.666(3) 0.952(4) 0.082(5)
C26 C 0.739(6) 0.828(5) 0.142(4)
C27 C 0.975(5) 0.965(4) 0.112(6)
C28 C 0.853(4) 0.926(4) 0.119(5)
C29 C 0.838(11) 0.871(5) 0.132(6)
C30 C 0.787(2) 0.9679(18) 0.063(2)
loop_
_geom_bond_atom_site_label_1
_geom_bond_atom_site_label_2
_geom_bond_site_symmetry_1
_geom_bond_site_symmetry_2
I1 C8 1_555 1_555
S1 N1 1_555 1_555
O1 C10 1_555 1_555
N1 C5 1_555 1_555
O2 C17 1_555 1_555
C1 C5 1_555 1_555
C2 C12 1_555 1_555
C3 C11 1_555 1_555
O3 S1 1_555 1_555
C4 C8 1_555 1_555
O4 C15 1_555 1_555
C6 S1 1_555 1_555
C7 C12 1_555 1_555
O5 S1 1_555 1_555
C8 C18 1_555 1_555
C9 C4 1_555 1_555
C10 N1 1_555 1_555
C11 C9 1_555 1_555
C13 C1 1_555 1_555
C14 C13 1_555 1_555
C15 O1 1_555 1_555
C16 C7 1_555 1_555
C18 C3 1_555 1_555
C19 C7 1_555 1_555
C20 C1 1_555 1_555
C21 C20 1_555 1_555
C22 O2 1_555 1_555
C23 C14 1_555 1_555
C24 C16 1_555 1_555
C25 C6 1_555 1_555
C26 C6 1_555 1_555
C27 C28 1_555 1_555
C28 C29 1_555 1_555
C29 C26 1_555 1_555
C30 C25 1_555 1_555
C2 C22 1_555 1_555
C4 C15 1_555 1_555
C10 C19 1_555 1_555
C21 C23 1_555 1_555
C22 C24 1_555 1_555
C28 C30 1_555 1_555

#END
