
#######################################################################
#
#                 Cambridge Crystallographic Data Centre
#                                CCDC 
#
#######################################################################
#
# If this CIF has been generated from an entry in the Cambridge 
# Structural Database, then it will include bibliographic, chemical, 
# crystal, experimental, refinement or atomic coordinate data resulting 
# from the CCDC's data processing and validation procedures.
#
#######################################################################

data_XOPPIC
_chemical_formula_moiety         'C26 H26 Cl1 N1 O3 S1'
_chemical_name_systematic        
6-(4-Chlorophenyl)-3-ethyl-1-((4-methylphenyl)sulfonyl)-4-phenyl-1,2,3,4-tetrahydro-2-pyridinol
_symmetry_cell_setting           orthorhombic
_symmetry_space_group_name_H-M   'P 21 21 21'
_symmetry_Int_Tables_number      19
_space_group_name_Hall           'P 2ac 2ab'
loop_
_symmetry_equiv_pos_site_id
_symmetry_equiv_pos_as_xyz
1 x,y,z
2 1/2-x,-y,1/2+z
3 -x,1/2+y,1/2-z
4 1/2+x,1/2-y,-z
_cell_length_a                   8.1071(16)
_cell_length_b                   10.953(2)
_cell_length_c                   27.139(5)
_cell_angle_alpha                90
_cell_angle_beta                 90
_cell_angle_gamma                90
_cell_volume                     2409.86
_cell_formula_units_Z            4
loop_
_atom_site_label
_atom_site_type_symbol
_atom_site_fract_x
_atom_site_fract_y
_atom_site_fract_z
S1 S -0.02405(6) 0.13657(4) 0.21652(2)
Cl1 Cl 0.48228(9) 0.19217(6) 0.41798(3)
O1 O 0.00768(19) 0.17653(13) 0.26611(6)
O2 O -0.17929(17) 0.08149(13) 0.20476(7)
O3 O 0.15129(18) -0.16072(12) 0.16671(7)
H1 H 0.089(3) -0.196(2) 0.1884(12)
N1 N 0.1197(2) 0.03413(15) 0.20222(8)
C1 C 0.0076(2) 0.26332(17) 0.17785(9)
C2 C 0.1151(2) 0.35566(19) 0.19263(11)
H2 H 0.1707 0.3505 0.2234
C3 C 0.1400(3) 0.4556(2) 0.16171(11)
H3 H 0.2134 0.5187 0.1715
C4 C 0.0595(3) 0.4642(2) 0.11694(11)
C5 C -0.0450(3) 0.36989(19) 0.10220(10)
H4 H -0.0976 0.3740 0.0710
C6 C -0.0731(3) 0.27038(19) 0.13248(10)
H5 H -0.1466 0.2075 0.1225
C7 C 0.0792(4) 0.5766(2) 0.08458(14)
H6 H 0.1842 0.5719 0.0668
H7 H 0.0780 0.6501 0.1052
H8 H -0.0119 0.5804 0.0609
C8 C 0.0891(2) -0.04362(18) 0.15791(9)
H9 H -0.0323 -0.0488 0.1517
C9 C 0.1750(2) 0.00731(18) 0.11200(9)
H10 H 0.1293 0.0907 0.1058
C10 C 0.3619(2) 0.02146(18) 0.12159(9)
H11 H 0.4138 -0.0600 0.1155
C11 C 0.3997(2) 0.05582(18) 0.17359(10)
H12 H 0.5117 0.0726 0.1813
C12 C 0.2904(2) 0.06523(18) 0.21036(10)
C13 C 0.3408(2) 0.09488(19) 0.26155(10)
C14 C 0.4420(3) 0.1956(2) 0.27079(10)
H13 H 0.4784 0.2447 0.2441
C15 C 0.4902(3) 0.22514(19) 0.31850(10)
H14 H 0.5601 0.2932 0.3245
C16 C 0.4345(3) 0.1537(2) 0.35712(10)
C17 C 0.3403(3) 0.0500(2) 0.34861(11)
H15 H 0.3089 -0.0014 0.3752
C18 C 0.2929(3) 0.0223(2) 0.30117(11)
H16 H 0.2263 -0.0476 0.2954
C19 C 0.4405(2) 0.11144(18) 0.08586(10)
C20 C 0.4128(3) 0.23685(19) 0.09086(11)
H17 H 0.3417 0.2657 0.1161
C21 C 0.4881(3) 0.31946(19) 0.05936(11)
H18 H 0.4682 0.4044 0.0631
C22 C 0.5923(3) 0.2783(2) 0.02239(11)
H19 H 0.6436 0.3349 0.0007
C23 C 0.6213(3) 0.1548(2) 0.01726(11)
H20 H 0.6931 0.1264 -0.0079
C24 C 0.5459(3) 0.0719(2) 0.04876(10)
H21 H 0.5666 -0.0129 0.0449
C25 C 0.1407(3) -0.06961(19) 0.06619(10)
H22 H 0.2020 -0.0343 0.0380
H23 H 0.1834 -0.1531 0.0718
C26 C -0.0416(3) -0.0778(2) 0.05252(11)
H24 H -0.1022 -0.1184 0.0791
H25 H -0.0537 -0.1249 0.0220
H26 H -0.0859 0.0045 0.0476
loop_
_geom_bond_atom_site_label_1
_geom_bond_atom_site_label_2
_geom_bond_site_symmetry_1
_geom_bond_site_symmetry_2
S1 O1 1_555 1_555
Cl1 C16 1_555 1_555
O2 S1 1_555 1_555
O3 H1 1_555 1_555
N1 S1 1_555 1_555
C1 S1 1_555 1_555
C2 C1 1_555 1_555
H2 C2 1_555 1_555
C3 C2 1_555 1_555
H3 C3 1_555 1_555
C4 C3 1_555 1_555
C5 C4 1_555 1_555
H4 C5 1_555 1_555
C6 C1 1_555 1_555
H5 C6 1_555 1_555
C7 C4 1_555 1_555
H6 C7 1_555 1_555
H7 C7 1_555 1_555
H8 C7 1_555 1_555
C8 O3 1_555 1_555
H9 C8 1_555 1_555
C9 C8 1_555 1_555
H10 C9 1_555 1_555
C10 C9 1_555 1_555
H11 C10 1_555 1_555
C11 C10 1_555 1_555
H12 C11 1_555 1_555
C12 N1 1_555 1_555
C13 C12 1_555 1_555
C14 C13 1_555 1_555
H13 C14 1_555 1_555
C15 C14 1_555 1_555
H14 C15 1_555 1_555
C16 C15 1_555 1_555
C17 C16 1_555 1_555
H15 C17 1_555 1_555
C18 C13 1_555 1_555
H16 C18 1_555 1_555
C19 C10 1_555 1_555
C20 C19 1_555 1_555
H17 C20 1_555 1_555
C21 C20 1_555 1_555
H18 C21 1_555 1_555
C22 C21 1_555 1_555
H19 C22 1_555 1_555
C23 C22 1_555 1_555
H20 C23 1_555 1_555
C24 C19 1_555 1_555
H21 C24 1_555 1_555
C25 C9 1_555 1_555
H22 C25 1_555 1_555
H23 C25 1_555 1_555
C26 C25 1_555 1_555
H24 C26 1_555 1_555
H25 C26 1_555 1_555
H26 C26 1_555 1_555
N1 C8 1_555 1_555
C5 C6 1_555 1_555
C11 C12 1_555 1_555
C17 C18 1_555 1_555
C23 C24 1_555 1_555

#END
