
#######################################################################
#
#                 Cambridge Crystallographic Data Centre
#                                CCDC 
#
#######################################################################
#
# If this CIF has been generated from an entry in the Cambridge 
# Structural Database, then it will include bibliographic, chemical, 
# crystal, experimental, refinement or atomic coordinate data resulting 
# from the CCDC's data processing and validation procedures.
#
#######################################################################

data_XOPQUO
_chemical_formula_moiety         'C22 H32 O7,H2 O1'
_chemical_name_systematic        'Pachyclavulariaenone C monohydrate'
_symmetry_cell_setting           monoclinic
_symmetry_space_group_name_H-M   'P 21'
_symmetry_Int_Tables_number      4
_space_group_name_Hall           'P 2yb'
loop_
_symmetry_equiv_pos_site_id
_symmetry_equiv_pos_as_xyz
1 x,y,z
2 -x,1/2+y,-z
_cell_length_a                   10.309(1)
_cell_length_b                   22.259(1)
_cell_length_c                   10.457(1)
_cell_angle_alpha                90
_cell_angle_beta                 115.814(6)
_cell_angle_gamma                90
_cell_volume                     2160.1
_exptl_crystal_colour            colorless
_exptl_crystal_description       prism
_chemical_melting_point          '220-223 deg.C'
_cell_formula_units_Z            4
loop_
_atom_site_label
_atom_site_type_symbol
_atom_site_fract_x
_atom_site_fract_y
_atom_site_fract_z
O1 O 0.6549(1) 0.0032 0.2058(1)
O2 O 0.8967(1) -0.06799(8) -0.0134(1)
O3 O 0.8562(2) -0.16635(9) -0.0117(2)
O4 O 0.4141(1) -0.01118(8) -0.2255(1)
O5 O 0.3108(1) -0.05081(8) -0.0417(1)
O6 O 1.0504(2) 0.01159(9) 0.6955(2)
O7 O 1.0181(1) -0.03413(8) 0.2452(1)
C1 C 0.8275(2) -0.0648(1) 0.3684(2)
C2 C 0.8074(2) -0.00815(9) 0.2776(2)
C3 C 0.8746(2) -0.0105(1) 0.1716(2)
C4 C 0.7972(2) -0.0554(1) 0.0502(2)
C5 C 0.6600(2) -0.0368(1) -0.0812(2)
C6 C 0.5147(2) -0.0235(1) -0.0809(2)
C7 C 0.4461(2) -0.0738(1) -0.0321(2)
C8 C 0.5301(2) -0.0935(1) 0.1227(2)
C9 C 0.5770(2) -0.0448(1) 0.2340(2)
C10 C 0.6835(2) -0.0680(1) 0.3809(2)
C11 C 0.6828(2) -0.0304(1) 0.5011(2)
C12 C 0.8014(2) -0.0052(1) 0.5981(2)
C13 C 0.9461(2) -0.0148(1) 0.6078(2)
C14 C 0.9623(2) -0.0628(1) 0.5113(2)
C15 C 1.1027(2) -0.0600(1) 0.4978(2)
C16 C 1.1050(2) -0.0147(1) 0.3891(2)
C17 C 1.1455(2) -0.1219(1) 0.4684(2)
C18 C 0.8813(2) 0.0523(1) 0.1163(2)
C19 C 0.4176(3) -0.1297(1) -0.1272(2)
C20 C 0.5402(2) -0.0246(1) 0.5067(2)
C21 C 0.9075(2) -0.1248(1) -0.0474(2)
C22 C 0.9862(2) -0.1302(1) -0.1372(2)
H1 H 0.8339 -0.0985 0.3160
H2 H 0.8504 0.0247 0.3409
H3 H 0.7793 -0.0914 0.0883
H4 H 0.6849 -0.0011 -0.1161
H5 H 0.6419 -0.0681 -0.1486
H6 H 0.5241 0.0113 -0.0245
H7 H 0.4717 -0.1206 0.1443
H8 H 0.6149 -0.1135 0.1307
H9 H 0.4944 -0.0286 0.2399
H10 H 0.6624 -0.1084 0.3923
H11 H 0.7918 0.0205 0.6661
H12 H 0.9641 -0.0999 0.5559
H13 H 1.1747 -0.0477 0.5875
H14 H 1.2014 -0.0096 0.4025
H15 H 1.0687 0.0227 0.4039
H16 H 1.1573 -0.1481 0.5443
H17 H 1.0731 -0.1369 0.3822
H18 H 1.2342 -0.1189 0.4611
H19 H 0.9365 0.0778 0.1946
H20 H 0.9249 0.0504 0.0536
H21 H 0.7864 0.0679 0.0683
H22 H 0.3714 -0.1596 -0.0969
H23 H 0.3567 -0.1189 -0.2230
H24 H 0.5061 -0.1447 -0.1210
H25 H 0.5145 0.0166 0.5020
H26 H 0.4686 -0.0455 0.4290
H27 H 0.5474 -0.0413 0.5933
H28 H 0.9904 -0.1714 -0.1597
H29 H 0.9368 -0.1081 -0.2228
H30 H 1.0810 -0.1149 -0.0873
H61 H 0.4379 0.0277 -0.2499
H62 H 0.2568 -0.0280 -0.1258
O8 O 0.6823(1) 0.25194(8) -0.5562(1)
O9 O 0.3590(1) 0.18798(8) -0.4293(1)
O10 O 0.4533(2) 0.10200(9) -0.3180(2)
O11 O 0.7881(2) 0.28593(8) -0.1377(1)
O12 O 0.9864(1) 0.23574(9) -0.2135(2)
O13 O 0.4269(2) 0.2114(1) -1.0613(2)
O14 O 0.3176(1) 0.18990(8) -0.6834(1)
C23 C 0.5809(2) 0.1654(1) -0.6988(2)
C24 C 0.5471(2) 0.2269(1) -0.6556(2)
C25 C 0.4350(2) 0.2285(1) -0.5969(2)
C26 C 0.4899(2) 0.2001(1) -0.4464(2)
C27 C 0.5835(2) 0.2375(1) -0.3133(2)
C28 C 0.7384(2) 0.2561(1) -0.2738(2)
C29 C 0.8481(2) 0.2064(1) -0.2562(2)
C30 C 0.8225(2) 0.1720(1) -0.3914(2)
C31 C 0.7961(2) 0.2086(1) -0.5234(2)
C32 C 0.7443(2) 0.1706(1) -0.6581(2)
C33 C 0.7748(2) 0.1993(1) -0.7717(2)
C34 C 0.6706(2) 0.2112(1) -0.9009(2)
C35 C 0.5203(3) 0.1942(1) -0.9477(2)
C36 C 0.4867(2) 0.1502(1) -0.8557(2)
C37 C 0.3258(2) 0.1442(1) -0.8929(2)
C38 C 0.2664(2) 0.1943(1) -0.8354(2)
C39 C 0.2898(3) 0.0830(1) -0.8524(3)
C40 C 0.3811(2) 0.2925(1) -0.5995(2)
C41 C 0.8594(3) 0.1611(1) -0.1431(2)
C42 C 0.9289(3) 0.2159(1) -0.7335(3)
C43 C 0.3548(2) 0.1375(1) -0.3625(2)
C44 C 0.2169(2) 0.1311(1) -0.3513(2)
H31 H 0.5666 0.1355 -0.6414
H32 H 0.5118 0.2517 -0.7383
H33 H 0.5378 0.1634 -0.4439
H34 H 0.5321 0.2739 -0.3218
H35 H 0.5868 0.2153 -0.2345
H36 H 0.7386 0.2841 -0.3425
H37 H 0.9045 0.1477 -0.3707
H38 H 0.7402 0.1473 -0.4139
H39 H 0.8827 0.2289 -0.5095
H40 H 0.7879 0.1321 -0.6362
H41 H 0.6969 0.2323 -0.9655
H42 H 0.5176 0.1119 -0.8715
H43 H 0.2759 0.1467 -0.9933
H44 H 0.1642 0.1923 -0.8791
H45 H 0.2959 0.2320 -0.8573
H46 H 0.1883 0.0788 -0.8895
H47 H 0.3276 0.0525 -0.8897
H48 H 0.3315 0.0797 -0.7515
H49 H 0.4595 0.3179 -0.5430
H50 H 0.3389 0.3072 -0.6949
H51 H 0.3110 0.2930 -0.5638
H52 H 0.7689 0.1414 -0.1715
H53 H 0.9309 0.1321 -0.1327
H54 H 0.8842 0.1811 -0.0556
H55 H 0.9877 0.2046 -0.6383
H56 H 0.9597 0.1953 -0.7952
H57 H 0.9359 0.2580 -0.7440
H58 H 0.2053 0.1644 -0.2996
H59 H 0.1394 0.1306 -0.4437
H60 H 0.2180 0.0950 -0.3031
H63 H 0.7887 0.3300 -0.1609
H64 H 1.0009 0.2595 -0.1344
O15 O 0.2320(1) -0.08765(8) 0.1768(1)
O16 O 1.1968(3) 0.2882(1) -0.2971(3)
loop_
_geom_bond_atom_site_label_1
_geom_bond_atom_site_label_2
_geom_bond_site_symmetry_1
_geom_bond_site_symmetry_2
O1 C2 1_555 1_555
O2 C4 1_555 1_555
O3 C21 1_555 1_555
O4 C6 1_555 1_555
O5 C7 1_555 1_555
O6 C13 1_555 1_555
O7 C3 1_555 1_555
O8 C24 1_555 1_555
O9 C26 1_555 1_555
O10 C43 1_555 1_555
O11 C28 1_555 1_555
O12 C29 1_555 1_555
O13 C35 1_555 1_555
O14 C25 1_555 1_555
C1 C2 1_555 1_555
C2 C3 1_555 1_555
C3 C4 1_555 1_555
C4 C5 1_555 1_555
C5 C6 1_555 1_555
C6 C7 1_555 1_555
C7 C8 1_555 1_555
C8 C9 1_555 1_555
C9 O1 1_555 1_555
C10 C1 1_555 1_555
C11 C10 1_555 1_555
C12 C11 1_555 1_555
C13 C12 1_555 1_555
C14 C1 1_555 1_555
C15 C14 1_555 1_555
C16 O7 1_555 1_555
C17 C15 1_555 1_555
C18 C3 1_555 1_555
C19 C7 1_555 1_555
C20 C11 1_555 1_555
C21 O2 1_555 1_555
C22 C21 1_555 1_555
C23 C24 1_555 1_555
C24 C25 1_555 1_555
C25 C26 1_555 1_555
C26 C27 1_555 1_555
C27 C28 1_555 1_555
C28 C29 1_555 1_555
C29 C30 1_555 1_555
C30 C31 1_555 1_555
C31 O8 1_555 1_555
C32 C23 1_555 1_555
C33 C32 1_555 1_555
C34 C33 1_555 1_555
C35 C34 1_555 1_555
C36 C23 1_555 1_555
C37 C36 1_555 1_555
C38 O14 1_555 1_555
C39 C37 1_555 1_555
C40 C25 1_555 1_555
C41 C29 1_555 1_555
C42 C33 1_555 1_555
C43 O9 1_555 1_555
C44 C43 1_555 1_555
H1 C1 1_555 1_555
H2 C2 1_555 1_555
H3 C4 1_555 1_555
H4 C5 1_555 1_555
H5 C5 1_555 1_555
H6 C6 1_555 1_555
H7 C8 1_555 1_555
H8 C8 1_555 1_555
H9 C9 1_555 1_555
H10 C10 1_555 1_555
H11 C12 1_555 1_555
H12 C14 1_555 1_555
H13 C15 1_555 1_555
H14 C16 1_555 1_555
H15 C16 1_555 1_555
H16 C17 1_555 1_555
H17 C17 1_555 1_555
H18 C17 1_555 1_555
H19 C18 1_555 1_555
H20 C18 1_555 1_555
H21 C18 1_555 1_555
H22 C19 1_555 1_555
H23 C19 1_555 1_555
H24 C19 1_555 1_555
H25 C20 1_555 1_555
H26 C20 1_555 1_555
H27 C20 1_555 1_555
H28 C22 1_555 1_555
H29 C22 1_555 1_555
H30 C22 1_555 1_555
H31 C23 1_555 1_555
H32 C24 1_555 1_555
H33 C26 1_555 1_555
H34 C27 1_555 1_555
H35 C27 1_555 1_555
H36 C28 1_555 1_555
H37 C30 1_555 1_555
H38 C30 1_555 1_555
H39 C31 1_555 1_555
H40 C32 1_555 1_555
H41 C34 1_555 1_555
H42 C36 1_555 1_555
H43 C37 1_555 1_555
H44 C38 1_555 1_555
H45 C38 1_555 1_555
H46 C39 1_555 1_555
H47 C39 1_555 1_555
H48 C39 1_555 1_555
H49 C40 1_555 1_555
H50 C40 1_555 1_555
H51 C40 1_555 1_555
H52 C41 1_555 1_555
H53 C41 1_555 1_555
H54 C41 1_555 1_555
H55 C42 1_555 1_555
H56 C42 1_555 1_555
H57 C42 1_555 1_555
H58 C44 1_555 1_555
H59 C44 1_555 1_555
H60 C44 1_555 1_555
H61 O4 1_555 1_555
H62 O5 1_555 1_555
H63 O11 1_555 1_555
H64 O12 1_555 1_555
C9 C10 1_555 1_555
C13 C14 1_555 1_555
C15 C16 1_555 1_555
C31 C32 1_555 1_555
C35 C36 1_555 1_555
C37 C38 1_555 1_555

#END
