
#######################################################################
#
#                 Cambridge Crystallographic Data Centre
#                                CCDC 
#
#######################################################################
#
# If this CIF has been generated from an entry in the Cambridge 
# Structural Database, then it will include bibliographic, chemical, 
# crystal, experimental, refinement or atomic coordinate data resulting 
# from the CCDC's data processing and validation procedures.
#
#######################################################################

data_XOPYIL
_chemical_formula_moiety         'C18 H12 N2 O4 S3'
_chemical_name_systematic        
4,7-bis(2'-(3,4-Ethylenedioxythiophene))-2,1,3-benzothiadiazole
_symmetry_cell_setting           orthorhombic
_symmetry_space_group_name_H-M   'P b c n'
_symmetry_Int_Tables_number      60
_space_group_name_Hall           '-P 2n 2ab'
loop_
_symmetry_equiv_pos_site_id
_symmetry_equiv_pos_as_xyz
1 x,y,z
2 1/2-x,1/2-y,1/2+z
3 -x,y,1/2-z
4 1/2+x,1/2-y,-z
5 -x,-y,-z
6 1/2+x,1/2+y,1/2-z
7 x,-y,1/2+z
8 1/2-x,1/2+y,z
_cell_length_a                   4.3945(6)
_cell_length_b                   15.655(2)
_cell_length_c                   23.950(3)
_cell_angle_alpha                90
_cell_angle_beta                 90
_cell_angle_gamma                90
_cell_volume                     1647.66
_exptl_crystal_colour            red
_exptl_crystal_description       plate
_cell_formula_units_Z            4
loop_
_atom_site_label
_atom_site_type_symbol
_atom_site_fract_x
_atom_site_fract_y
_atom_site_fract_z
C1 C 1.1870(12) 0.7165(3) 0.43486(19)
H1 H 1.2916 0.7412 0.4656
C2 C 1.1740(10) 0.6313(3) 0.42447(17)
C3 C 0.9995(10) 0.6126(3) 0.37657(16)
C4 C 0.8799(9) 0.6819(2) 0.35006(16)
C5 C 1.255(2) 0.4879(4) 0.4374(3)
H2 H 1.4541 0.4604 0.4306
H3 H 1.1605 0.4572 0.4691
C6 C 1.089(3) 0.4716(4) 0.3942(4)
H4 H 0.9226 0.4344 0.4079
H5 H 1.2165 0.4353 0.3698
C7 C 0.5924(10) 0.7614(2) 0.27421(17)
C8 C 0.6907(9) 0.6842(2) 0.30075(16)
C9 C 0.5891(9) 0.6115(2) 0.27432(16)
H6 H 0.6431 0.5578 0.2900
N1 N 0.6628(10) 0.8409(2) 0.29239(17)
O1 O 1.3166(7) 0.5704(2) 0.45622(12)
O2 O 0.9525(7) 0.52970(17) 0.35948(12)
S1 S 0.9920(3) 0.77342(7) 0.38591(5)
S2 S 0.5000 0.90612(10) 0.2500
C1B C -0.1870(12) 0.7165(3) 0.06514(19)
H1B H -0.2916 0.7412 0.0344
C2B C -0.1740(10) 0.6313(3) 0.07553(17)
C3B C 0.0005(10) 0.6126(3) 0.12343(16)
C4B C 0.1201(9) 0.6819(2) 0.14994(16)
C5B C -0.255(2) 0.4879(4) 0.0626(3)
H2B H -0.4541 0.4604 0.0694
H3B H -0.1605 0.4572 0.0309
C6B C -0.089(3) 0.4716(4) 0.1058(4)
H4B H 0.0774 0.4344 0.0921
H5B H -0.2165 0.4353 0.1302
C7B C 0.4076(10) 0.7614(2) 0.22579(17)
C8B C 0.3093(9) 0.6842(2) 0.19925(16)
C9B C 0.4109(9) 0.6115(2) 0.22568(16)
H6B H 0.3569 0.5578 0.2100
N1B N 0.3372(10) 0.8409(2) 0.20761(17)
O1B O -0.3166(7) 0.5704(2) 0.04378(12)
O2B O 0.0475(7) 0.52970(17) 0.14052(12)
S1B S 0.0080(3) 0.77342(7) 0.11409(5)
loop_
_geom_bond_atom_site_label_1
_geom_bond_atom_site_label_2
_geom_bond_site_symmetry_1
_geom_bond_site_symmetry_2
C1 H1 1_555 1_555
C2 C1 1_555 1_555
C3 C2 1_555 1_555
C4 C3 1_555 1_555
C5 H2 1_555 1_555
H3 C5 1_555 1_555
C6 C5 1_555 1_555
H4 C6 1_555 1_555
H5 C6 1_555 1_555
C7 C8 1_555 1_555
C8 C4 1_555 1_555
C9 C8 1_555 1_555
H6 C9 1_555 1_555
N1 C7 1_555 1_555
O1 C2 1_555 1_555
O2 C3 1_555 1_555
S1 C1 1_555 1_555
S2 N1 1_555 1_555
C1B H1B 1_555 1_555
C2B C1B 1_555 1_555
C3B C2B 1_555 1_555
C4B C3B 1_555 1_555
C5B H2B 1_555 1_555
H3B C5B 1_555 1_555
C6B C5B 1_555 1_555
H4B C6B 1_555 1_555
H5B C6B 1_555 1_555
C7B C7 1_555 1_555
C8B C4B 1_555 1_555
C9B C9 1_555 1_555
H6B C9B 1_555 1_555
N1B S2 1_555 1_555
O1B C2B 1_555 1_555
O2B C3B 1_555 1_555
S1B C1B 1_555 1_555
C4 S1 1_555 1_555
C5 O1 1_555 1_555
C6 O2 1_555 1_555
C4B S1B 1_555 1_555
C5B O1B 1_555 1_555
C6B O2B 1_555 1_555
C7B C8B 1_555 1_555
C7B N1B 1_555 1_555
C8B C9B 1_555 1_555

#END
