
#######################################################################
#
#                 Cambridge Crystallographic Data Centre
#                                CCDC 
#
#######################################################################
#
# If this CIF has been generated from an entry in the Cambridge 
# Structural Database, then it will include bibliographic, chemical, 
# crystal, experimental, refinement or atomic coordinate data resulting 
# from the CCDC's data processing and validation procedures.
#
#######################################################################

data_XOPYOR
_chemical_formula_moiety         'C28 H28 N2 O4 S3 Si2'
_chemical_name_systematic        
4,7-bis(7-((Trimethylsilyl)ethynyl)-2,3-dihydrothieno(3,4-b)(1,4)dioxin-5-yl)-2,1,3-benzothiadiazole
_symmetry_cell_setting           monoclinic
_symmetry_space_group_name_H-M   'C 2/c'
_symmetry_Int_Tables_number      15
_space_group_name_Hall           '-C 2yn'
loop_
_symmetry_equiv_pos_site_id
_symmetry_equiv_pos_as_xyz
1 x,y,z
2 1/2+x,1/2+y,z
3 -x,y,1/2-z
4 1/2-x,1/2+y,1/2-z
5 -x,-y,-z
6 1/2-x,1/2-y,-z
7 x,-y,1/2+z
8 1/2+x,1/2-y,1/2+z
_cell_length_a                   41.462(5)
_cell_length_b                   8.2575(11)
_cell_length_c                   17.814(2)
_cell_angle_alpha                90
_cell_angle_beta                 105.450(2)
_cell_angle_gamma                90
_cell_volume                     5878.62
_exptl_crystal_colour            red
_exptl_crystal_description       plate
_cell_formula_units_Z            8
_exptl_crystal_preparation       luminescent
loop_
_atom_site_label
_atom_site_type_symbol
_atom_site_fract_x
_atom_site_fract_y
_atom_site_fract_z
C1 C 0.23023(12) 0.1497(8) 0.2862(3)
H1 H 0.2351 0.0352 0.2987
H2 H 0.2241 0.2028 0.3297
H3 H 0.2501 0.2025 0.2774
C2 C 0.20579(12) 0.0526(7) 0.1166(3)
H4 H 0.1875 0.0615 0.0689
H5 H 0.2095 -0.0616 0.1313
H6 H 0.2262 0.0981 0.1075
C3 C 0.18455(14) 0.3802(6) 0.1696(3)
H7 H 0.1660 0.3847 0.1222
H8 H 0.2042 0.4339 0.1603
H9 H 0.1780 0.4352 0.2121
C4 C 0.15687(11) 0.0775(5) 0.2174(2)
C5 C 0.13345(9) 0.0333(5) 0.2352(2)
C6 C 0.10516(9) -0.0244(4) 0.2608(2)
C7 C 0.09354(9) -0.1801(4) 0.2597(2)
C8 C 0.06532(9) -0.1931(4) 0.2894(2)
C9 C 0.05488(9) -0.0491(4) 0.3134(2)
C10 C 0.08679(12) -0.4450(5) 0.2186(3)
H10 H 0.1003 -0.5422 0.2150
H11 H 0.0702 -0.4308 0.1676
C11 C 0.06941(13) -0.4722(5) 0.2769(3)
H12 H 0.0860 -0.5000 0.3264
H13 H 0.0545 -0.5671 0.2613
C12 C 0.02656(9) -0.0191(4) 0.3465(2)
C13 C 0.01849(9) 0.1383(4) 0.3708(2)
C14 C -0.00954(9) 0.1614(4) 0.4035(2)
C15 C -0.03045(9) 0.0298(4) 0.4135(2)
C16 C -0.02110(9) -0.1190(4) 0.3909(2)
H14 H -0.0337 -0.2114 0.3976
C17 C 0.00598(9) -0.1416(4) 0.3585(2)
H15 H 0.0104 -0.2483 0.3440
C18 C -0.05950(9) 0.0518(4) 0.4446(2)
C19 C -0.08130(9) -0.0646(4) 0.4558(2)
C20 C -0.10777(9) -0.0034(5) 0.4834(2)
C21 C -0.10606(9) 0.1598(5) 0.4960(2)
C22 C -0.10326(11) -0.3247(5) 0.4630(3)
H16 H -0.0954 -0.3527 0.5190
H17 H -0.1058 -0.4269 0.4330
C23 C -0.13582(11) -0.2455(5) 0.4484(3)
H18 H -0.1441 -0.2186 0.3924
H19 H -0.1521 -0.3204 0.4619
C24 C -0.12888(9) 0.2595(5) 0.5250(2)
C25 C -0.14869(11) 0.3352(5) 0.5458(2)
C26 C -0.19377(13) 0.3015(7) 0.6502(3)
H20 H -0.2035 0.2030 0.6226
H21 H -0.2104 0.3548 0.6720
H22 H -0.1741 0.2731 0.6924
C27 C -0.21792(13) 0.4881(8) 0.4992(3)
H23 H -0.2278 0.3874 0.4742
H24 H -0.2107 0.5552 0.4613
H25 H -0.2346 0.5471 0.5185
C28 C -0.16257(14) 0.6320(6) 0.6294(3)
H26 H -0.1562 0.7010 0.5910
H27 H -0.1427 0.6069 0.6718
H28 H -0.1790 0.6889 0.6505
N1 N 0.03515(8) 0.2758(4) 0.3675(2)
N2 N -0.01303(8) 0.3163(4) 0.4238(2)
O1 O 0.10818(6) -0.3081(3) 0.23312(15)
O2 O 0.04967(6) -0.3386(3) 0.29100(15)
O3 O -0.07823(6) -0.2265(3) 0.44235(16)
O4 O -0.13334(7) -0.0982(3) 0.49451(16)
S1 S 0.08097(2) 0.10647(11) 0.29870(6)
S2 S 0.01658(3) 0.41779(12) 0.40285(8)
S3 S -0.07163(2) 0.24047(11) 0.47136(6)
Si1 Si 0.19475(3) 0.16629(17) 0.19655(7)
Si2 Si -0.18134(3) 0.43990(16) 0.58177(7)
loop_
_geom_bond_atom_site_label_1
_geom_bond_atom_site_label_2
_geom_bond_site_symmetry_1
_geom_bond_site_symmetry_2
C1 H1 1_555 1_555
H2 C1 1_555 1_555
H3 C1 1_555 1_555
C2 H4 1_555 1_555
H5 C2 1_555 1_555
H6 C2 1_555 1_555
C3 H7 1_555 1_555
H8 C3 1_555 1_555
H9 C3 1_555 1_555
C4 C5 1_555 1_555
C5 C6 1_555 1_555
C6 C7 1_555 1_555
C7 C8 1_555 1_555
C8 C9 1_555 1_555
C9 C12 1_555 1_555
C10 H10 1_555 1_555
H11 C10 1_555 1_555
C11 C10 1_555 1_555
H12 C11 1_555 1_555
H13 C11 1_555 1_555
C12 C13 1_555 1_555
C13 C14 1_555 1_555
C14 C15 1_555 1_555
C15 C16 1_555 1_555
C16 H14 1_555 1_555
C17 C12 1_555 1_555
H15 C17 1_555 1_555
C18 C15 1_555 1_555
C19 C18 1_555 1_555
C20 C19 1_555 1_555
C21 C20 1_555 1_555
C22 H16 1_555 1_555
H17 C22 1_555 1_555
C23 C22 1_555 1_555
H18 C23 1_555 1_555
H19 C23 1_555 1_555
C24 C21 1_555 1_555
C25 C24 1_555 1_555
C26 H20 1_555 1_555
H21 C26 1_555 1_555
H22 C26 1_555 1_555
C27 H23 1_555 1_555
H24 C27 1_555 1_555
H25 C27 1_555 1_555
C28 H26 1_555 1_555
H27 C28 1_555 1_555
H28 C28 1_555 1_555
N1 C13 1_555 1_555
N2 C14 1_555 1_555
O1 C7 1_555 1_555
O2 C8 1_555 1_555
O3 C19 1_555 1_555
O4 C20 1_555 1_555
S1 C6 1_555 1_555
S2 N1 1_555 1_555
S3 C18 1_555 1_555
Si1 C1 1_555 1_555
Si2 C25 1_555 1_555
C2 Si1 1_555 1_555
C3 Si1 1_555 1_555
C4 Si1 1_555 1_555
C9 S1 1_555 1_555
C10 O1 1_555 1_555
C11 O2 1_555 1_555
C16 C17 1_555 1_555
C21 S3 1_555 1_555
C22 O3 1_555 1_555
C23 O4 1_555 1_555
C26 Si2 1_555 1_555
C27 Si2 1_555 1_555
C28 Si2 1_555 1_555
N2 S2 1_555 1_555

#END
