
#######################################################################
#
#                 Cambridge Crystallographic Data Centre
#                                CCDC 
#
#######################################################################
#
# If this CIF has been generated from an entry in the Cambridge 
# Structural Database, then it will include bibliographic, chemical, 
# crystal, experimental, refinement or atomic coordinate data resulting 
# from the CCDC's data processing and validation procedures.
#
#######################################################################

data_XOQGUH
_chemical_formula_moiety         'C20 H17 Cl4 N1 O3,H2 O1'
_chemical_name_systematic        
'8,9,10,11-Tetrachloro-11b-hydroxy-1,4-dimethyl-1-phenyl-1,4,5,11b-tetrahydro[1,4]oxazepino[5,4-a]isoindol-7(2H)-one monohydrate'
_symmetry_cell_setting           monoclinic
_symmetry_space_group_name_H-M   'P 21/n'
_symmetry_Int_Tables_number      14
_space_group_name_Hall           '-P 2yn'
loop_
_symmetry_equiv_pos_site_id
_symmetry_equiv_pos_as_xyz
1 x,y,z
2 1/2-x,1/2+y,1/2-z
3 -x,-y,-z
4 1/2+x,1/2-y,1/2+z
_cell_length_a                   7.3530(15)
_cell_length_b                   13.501(3)
_cell_length_c                   21.321(4)
_cell_angle_alpha                90
_cell_angle_beta                 95.43(3)
_cell_angle_gamma                90
_cell_volume                     2107.1
_cell_formula_units_Z            4
loop_
_atom_site_label
_atom_site_type_symbol
_atom_site_fract_x
_atom_site_fract_y
_atom_site_fract_z
Cl1 Cl -0.52466(11) 0.27345(8) -0.10679(5)
Cl2 Cl -0.53534(14) 0.32965(9) 0.03310(5)
Cl3 Cl -0.22427(15) 0.26443(8) 0.13252(4)
Cl4 Cl 0.11976(12) 0.15626(7) 0.08993(4)
N1 N 0.0232(3) 0.10520(18) -0.12165(10)
O1 O 0.0888(3) 0.15181(16) -0.25028(9)
O2 O 0.2185(3) 0.06375(17) -0.03570(10)
O3 O -0.2855(3) 0.09411(16) -0.16429(9)
H1 H -0.2992 0.0491 -0.1394
C1 C -0.2376(6) 0.5163(3) -0.1439(2)
H2 H -0.3251 0.5642 -0.1557
C2 C -0.1022(6) 0.5369(3) -0.0981(2)
H3 H -0.0962 0.5987 -0.0787
C3 C 0.0264(5) 0.4653(3) -0.08044(16)
H4 H 0.1205 0.4790 -0.0494
C4 C 0.0154(4) 0.3730(2) -0.10906(14)
H5 H 0.1025 0.3253 -0.0964
C5 C -0.1215(4) 0.3496(2) -0.15601(13)
C6 C -0.2472(5) 0.4245(3) -0.17353(17)
H6 H -0.3391 0.4126 -0.2057
C7 C -0.1280(4) 0.2467(2) -0.18765(13)
C8 C -0.1519(4) 0.1592(2) -0.13812(13)
C9 C 0.0938(4) 0.0347(2) -0.16609(13)
H7 H -0.0083 -0.0003 -0.1881
H8 H 0.1697 -0.0138 -0.1424
C10 C 0.2038(4) 0.0826(2) -0.21399(14)
H9 H 0.3084 0.1176 -0.1924
C11 C 0.0565(5) 0.2407(2) -0.21737(15)
H10 H 0.0626 0.2958 -0.2463
H11 H 0.1547 0.2492 -0.1841
C12 C -0.2789(5) 0.2400(3) -0.24222(15)
H12 H -0.2638 0.2923 -0.2717
H13 H -0.3960 0.2462 -0.2261
H14 H -0.2715 0.1772 -0.2630
C13 C 0.2705(5) 0.0065(3) -0.25828(17)
H15 H 0.3414 0.0387 -0.2879
H16 H 0.1677 -0.0261 -0.2805
H17 H 0.3449 -0.0415 -0.2346
C14 C -0.1923(4) 0.1940(2) -0.07206(13)
C15 C -0.3440(4) 0.2426(2) -0.05359(15)
C16 C -0.3507(4) 0.2652(2) 0.00985(16)
C17 C -0.2098(5) 0.2380(2) 0.05436(14)
C18 C -0.0586(4) 0.1878(2) 0.03523(13)
C19 C -0.0535(4) 0.1658(2) -0.02752(13)
C20 C 0.0825(4) 0.1062(2) -0.06018(13)
O4 O -0.4560(3) -0.0139(2) -0.07967(12)
H18 H -0.554(4) 0.013(3) -0.0664(17)
H19 H -0.382(4) -0.034(3) -0.0457(13)
loop_
_geom_bond_atom_site_label_1
_geom_bond_atom_site_label_2
_geom_bond_site_symmetry_1
_geom_bond_site_symmetry_2
Cl1 C15 1_555 1_555
Cl2 C16 1_555 1_555
Cl3 C17 1_555 1_555
Cl4 C18 1_555 1_555
N1 C8 1_555 1_555
O1 C10 1_555 1_555
O2 C20 1_555 1_555
O3 H1 1_555 1_555
C1 H2 1_555 1_555
C2 C1 1_555 1_555
H3 C2 1_555 1_555
C3 C2 1_555 1_555
H4 C3 1_555 1_555
C4 C3 1_555 1_555
H5 C4 1_555 1_555
C5 C4 1_555 1_555
C6 C1 1_555 1_555
H6 C6 1_555 1_555
C7 C5 1_555 1_555
C8 O3 1_555 1_555
C9 N1 1_555 1_555
H7 C9 1_555 1_555
H8 C9 1_555 1_555
C10 C9 1_555 1_555
H9 C10 1_555 1_555
C11 O1 1_555 1_555
H10 C11 1_555 1_555
H11 C11 1_555 1_555
C12 C7 1_555 1_555
H12 C12 1_555 1_555
H13 C12 1_555 1_555
H14 C12 1_555 1_555
C13 C10 1_555 1_555
H15 C13 1_555 1_555
H16 C13 1_555 1_555
H17 C13 1_555 1_555
C14 C8 1_555 1_555
C15 C14 1_555 1_555
C16 C15 1_555 1_555
C17 C16 1_555 1_555
C18 C17 1_555 1_555
C19 C14 1_555 1_555
C20 N1 1_555 1_555
O4 H18 1_555 1_555
H19 O4 1_555 1_555
C5 C6 1_555 1_555
C7 C8 1_555 1_555
C7 C11 1_555 1_555
C18 C19 1_555 1_555
C19 C20 1_555 1_555

#END
