
#######################################################################
#
#                 Cambridge Crystallographic Data Centre
#                                CCDC 
#
#######################################################################
#
# If this CIF has been generated from an entry in the Cambridge 
# Structural Database, then it will include bibliographic, chemical, 
# crystal, experimental, refinement or atomic coordinate data resulting 
# from the CCDC's data processing and validation procedures.
#
#######################################################################

data_XOQQIE
_chemical_formula_moiety         'C60 H88 N4 Na4 O4'
_chemical_name_systematic        
bis(\m~3~-\h^5^,\h^2^-N,N'-Dimesitylbut-2-ene-2,3-diamine-N,N,N',N')-tetrakis(tetrahydrofuran)-tetra-sodium
_symmetry_cell_setting           monoclinic
_symmetry_space_group_name_H-M   'P 21/n'
_symmetry_Int_Tables_number      14
_space_group_name_Hall           '-P 2yn'
loop_
_symmetry_equiv_pos_site_id
_symmetry_equiv_pos_as_xyz
1 x,y,z
2 1/2-x,1/2+y,1/2-z
3 -x,-y,-z
4 1/2+x,1/2-y,1/2+z
_cell_length_a                   10.4148(15)
_cell_length_b                   20.699(3)
_cell_length_c                   14.609(2)
_cell_angle_alpha                90
_cell_angle_beta                 107.828(2)
_cell_angle_gamma                90
_cell_volume                     2998.12
_exptl_crystal_colour            red
_exptl_crystal_description       block
_chemical_melting_point          'decomposes at 140 deg.C'
_cell_formula_units_Z            2
loop_
_atom_site_label
_atom_site_type_symbol
_atom_site_fract_x
_atom_site_fract_y
_atom_site_fract_z
Na1 Na 0.07401(15) 0.03898(6) -0.10487(8)
Na2 Na 0.04927(15) 0.19410(7) -0.08548(9)
N1 N 0.1977(3) 0.12510(12) -0.13566(17)
N2 N 0.1155(3) 0.10994(12) 0.02965(17)
C1 C 0.2917(3) 0.13142(14) -0.0431(2)
C2 C 0.2526(3) 0.12420(14) 0.0374(2)
C3 C 0.2446(3) 0.10943(15) -0.2117(2)
C4 C 0.1990(4) 0.14544(17) -0.2976(2)
C5 C 0.3320(3) 0.05687(16) -0.2110(2)
C6 C 0.3745(4) 0.04587(17) -0.2904(2)
H1 H 0.4351 0.0124 -0.2876
C7 C 0.3444(4) 0.14396(18) 0.1348(2)
H2 H 0.3753 0.1874 0.1316
H3 H 0.4205 0.1153 0.1537
H4 H 0.2960 0.1418 0.1811
O1 O -0.1752(3) 0.22223(17) -0.1586(2)
O2 O 0.1169(4) 0.30128(13) -0.0551(2)
C8 C 0.3322(4) 0.0818(2) -0.3731(3)
C9 C 0.4300(4) 0.1560(2) -0.0373(3)
H5 H 0.4468 0.1958 -0.0020
H6 H 0.4351 0.1632 -0.1010
H7 H 0.4965 0.1246 -0.0052
C10 C 0.2422(4) 0.13028(19) -0.3756(2)
H8 H 0.2087 0.1540 -0.4319
C11 C 0.3724(4) 0.01046(18) -0.1285(2)
H9 H 0.4320 -0.0215 -0.1406
H10 H 0.2935 -0.0103 -0.1216
H11 H 0.4177 0.0334 -0.0706
C12 C 0.0849(6) 0.3507(2) -0.1239(4)
H12 H 0.0382 0.3856 -0.1031
H13 H 0.0275 0.3344 -0.1850
C13 C 0.1007(5) 0.1999(2) -0.3042(3)
H14 H 0.0795 0.2196 -0.3666
H15 H 0.1403 0.2315 -0.2557
H16 H 0.0198 0.1833 -0.2945
C14 C 0.3851(6) 0.0677(3) -0.4571(3)
H17 H 0.3449 0.0972 -0.5087
H18 H 0.3625 0.0242 -0.4788
H19 H 0.4813 0.0729 -0.4370
C15 C 0.2510(8) 0.3150(3) 0.0048(4)
H20 H 0.2982 0.2754 0.0304
H21 H 0.2492 0.3426 0.0580
C16 C -0.4004(8) 0.2198(6) -0.2409(7)
H22 H -0.4331 0.2387 -0.3046
H23 H -0.4665 0.1889 -0.2334
C17 C -0.2706(8) 0.1887(3) -0.2267(5)
H24 H -0.2740 0.1444 -0.2059
H25 H -0.2485 0.1882 -0.2865
C18 C -0.2383(7) 0.2732(3) -0.1268(5)
H26 H -0.2168 0.2715 -0.0574
H27 H -0.2063 0.3141 -0.1439
C19 C 0.2103(9) 0.3730(4) -0.1332(7)
H28 H 0.2190 0.3591 -0.1945
H29 H 0.2128 0.4198 -0.1314
C20 C -0.3765(9) 0.2684(4) -0.1691(8)
H30 H -0.4129 0.3094 -0.1977
H31 H -0.4199 0.2570 -0.1213
C21 C 0.3178(8) 0.3481(4) -0.0580(6)
H32 H 0.3760 0.3825 -0.0236
H33 H 0.3710 0.3179 -0.0822
C22 C 0.0216(4) -0.09918(17) -0.1356(2)
C23 C -0.1690(3) -0.02752(16) -0.1589(2)
C24 C 0.0912(3) 0.07996(15) 0.1061(2)
C25 C 0.1158(4) -0.1494(2) -0.0790(3)
H34 H 0.1862 -0.1570 -0.1075
H35 H 0.1547 -0.1347 -0.0140
H36 H 0.0671 -0.1888 -0.0791
C26 C -0.2674(4) 0.00832(18) -0.1202(3)
H37 H -0.3106 0.0417 -0.1645
H38 H -0.3342 -0.0212 -0.1122
H39 H -0.2200 0.0272 -0.0592
C27 C -0.0440(4) -0.02857(18) -0.2759(2)
C28 C -0.1467(4) -0.00561(16) -0.2429(2)
H40 H -0.2037 0.0260 -0.2787
C29 C 0.0405(4) -0.07401(18) -0.2174(2)
H41 H 0.1145 -0.0883 -0.2348
C30 C -0.0244(5) -0.0040(2) -0.3683(3)
H42 H 0.0511 -0.0256 -0.3793
H43 H -0.1042 -0.0125 -0.4210
H44 H -0.0079 0.0417 -0.3633
Na1B Na -0.07401(15) -0.03898(6) 0.10487(8)
Na2B Na -0.04927(15) -0.19410(7) 0.08548(9)
N1B N -0.1977(3) -0.12510(12) 0.13566(17)
N2B N -0.1155(3) -0.10994(12) -0.02965(17)
C1B C -0.2917(3) -0.13142(14) 0.0431(2)
C2B C -0.2526(3) -0.12420(14) -0.0374(2)
C3B C -0.2446(3) -0.10943(15) 0.2117(2)
C4B C -0.1990(4) -0.14544(17) 0.2976(2)
C5B C -0.3320(3) -0.05687(16) 0.2110(2)
C6B C -0.3745(4) -0.04587(17) 0.2904(2)
H1B H -0.4351 -0.0124 0.2876
C7B C -0.3444(4) -0.14396(18) -0.1348(2)
H2B H -0.3753 -0.1874 -0.1316
H3B H -0.4205 -0.1153 -0.1537
H4B H -0.2960 -0.1418 -0.1811
O1B O 0.1752(3) -0.22223(17) 0.1586(2)
O2B O -0.1169(4) -0.30128(13) 0.0551(2)
C8B C -0.3322(4) -0.0818(2) 0.3731(3)
C9B C -0.4300(4) -0.1560(2) 0.0373(3)
H5B H -0.4468 -0.1958 0.0020
H6B H -0.4351 -0.1632 0.1010
H7B H -0.4965 -0.1246 0.0052
C10B C -0.2422(4) -0.13028(19) 0.3756(2)
H8B H -0.2087 -0.1540 0.4319
C11B C -0.3724(4) -0.01046(18) 0.1285(2)
H9B H -0.4320 0.0215 0.1406
H10B H -0.2935 0.0103 0.1216
H11B H -0.4177 -0.0334 0.0706
C12B C -0.0849(6) -0.3507(2) 0.1239(4)
H12B H -0.0382 -0.3856 0.1031
H13B H -0.0275 -0.3344 0.1850
C13B C -0.1007(5) -0.1999(2) 0.3042(3)
H14B H -0.0795 -0.2196 0.3666
H15B H -0.1403 -0.2315 0.2557
H16B H -0.0198 -0.1833 0.2945
C14B C -0.3851(6) -0.0677(3) 0.4571(3)
H17B H -0.3449 -0.0972 0.5087
H18B H -0.3625 -0.0242 0.4788
H19B H -0.4813 -0.0729 0.4370
C15B C -0.2510(8) -0.3150(3) -0.0048(4)
H20B H -0.2982 -0.2754 -0.0304
H21B H -0.2492 -0.3426 -0.0580
C16B C 0.4004(8) -0.2198(6) 0.2409(7)
H22B H 0.4331 -0.2387 0.3046
H23B H 0.4665 -0.1889 0.2334
C17B C 0.2706(8) -0.1887(3) 0.2267(5)
H24B H 0.2740 -0.1444 0.2059
H25B H 0.2485 -0.1882 0.2865
C18B C 0.2383(7) -0.2732(3) 0.1268(5)
H26B H 0.2168 -0.2715 0.0574
H27B H 0.2063 -0.3141 0.1439
C19B C -0.2103(9) -0.3730(4) 0.1332(7)
H28B H -0.2190 -0.3591 0.1945
H29B H -0.2128 -0.4198 0.1314
C20B C 0.3765(9) -0.2684(4) 0.1691(8)
H30B H 0.4129 -0.3094 0.1977
H31B H 0.4199 -0.2570 0.1213
C21B C -0.3178(8) -0.3481(4) 0.0580(6)
H32B H -0.3760 -0.3825 0.0236
H33B H -0.3710 -0.3179 0.0822
C22B C -0.0216(4) 0.09918(17) 0.1356(2)
C23B C 0.1690(3) 0.02752(16) 0.1589(2)
C24B C -0.0912(3) -0.07996(15) -0.1061(2)
C25B C -0.1158(4) 0.1494(2) 0.0790(3)
H34B H -0.1862 0.1570 0.1075
H35B H -0.1547 0.1347 0.0140
H36B H -0.0671 0.1888 0.0791
C26B C 0.2674(4) -0.00832(18) 0.1202(3)
H37B H 0.3106 -0.0417 0.1645
H38B H 0.3342 0.0212 0.1122
H39B H 0.2200 -0.0272 0.0592
C27B C 0.0440(4) 0.02857(18) 0.2759(2)
C28B C 0.1467(4) 0.00561(16) 0.2429(2)
H40B H 0.2037 -0.0260 0.2787
C29B C -0.0405(4) 0.07401(18) 0.2174(2)
H41B H -0.1145 0.0883 0.2348
C30B C 0.0244(5) 0.0040(2) 0.3683(3)
H42B H -0.0511 0.0256 0.3793
H43B H 0.1042 0.0125 0.4210
H44B H 0.0079 -0.0417 0.3633
loop_
_geom_bond_atom_site_label_1
_geom_bond_atom_site_label_2
_geom_bond_site_symmetry_1
_geom_bond_site_symmetry_2
Na1 N1 1_555 1_555
Na2 N1 1_555 1_555
N1 C1 1_555 1_555
N2 Na1 1_555 1_555
C1 Na2 1_555 1_555
C2 Na2 1_555 1_555
C3 N1 1_555 1_555
C4 C3 1_555 1_555
C5 C3 1_555 1_555
C6 C5 1_555 1_555
H1 C6 1_555 1_555
C7 C2 1_555 1_555
H2 C7 1_555 1_555
H3 C7 1_555 1_555
H4 C7 1_555 1_555
O1 Na2 1_555 1_555
O2 Na2 1_555 1_555
C8 C6 1_555 1_555
C9 C1 1_555 1_555
H5 C9 1_555 1_555
H6 C9 1_555 1_555
H7 C9 1_555 1_555
C10 C4 1_555 1_555
H8 C10 1_555 1_555
C11 C5 1_555 1_555
H9 C11 1_555 1_555
H10 C11 1_555 1_555
H11 C11 1_555 1_555
C12 O2 1_555 1_555
H12 C12 1_555 1_555
H13 C12 1_555 1_555
C13 C4 1_555 1_555
H14 C13 1_555 1_555
H15 C13 1_555 1_555
H16 C13 1_555 1_555
C14 C8 1_555 1_555
H17 C14 1_555 1_555
H18 C14 1_555 1_555
H19 C14 1_555 1_555
C15 O2 1_555 1_555
H20 C15 1_555 1_555
H21 C15 1_555 1_555
C16 H22 1_555 1_555
H23 C16 1_555 1_555
C17 O1 1_555 1_555
H24 C17 1_555 1_555
H25 C17 1_555 1_555
C18 O1 1_555 1_555
H26 C18 1_555 1_555
H27 C18 1_555 1_555
C19 C12 1_555 1_555
H28 C19 1_555 1_555
H29 C19 1_555 1_555
C20 C16 1_555 1_555
H30 C20 1_555 1_555
H31 C20 1_555 1_555
C21 C15 1_555 1_555
H32 C21 1_555 1_555
H33 C21 1_555 1_555
C22 Na1 1_555 1_555
C23 Na1 1_555 1_555
C24 N2 1_555 1_555
C25 C22 1_555 1_555
H34 C25 1_555 1_555
H35 C25 1_555 1_555
H36 C25 1_555 1_555
C26 C23 1_555 1_555
H37 C26 1_555 1_555
H38 C26 1_555 1_555
H39 C26 1_555 1_555
C27 Na1 1_555 1_555
C28 Na1 1_555 1_555
H40 C28 1_555 1_555
C29 Na1 1_555 1_555
H41 C29 1_555 1_555
C30 C27 1_555 1_555
H42 C30 1_555 1_555
H43 C30 1_555 1_555
H44 C30 1_555 1_555
Na1B N1B 1_555 1_555
Na2B N1B 1_555 1_555
N1B C1B 1_555 1_555
N2B Na1B 1_555 1_555
C1B Na2B 1_555 1_555
C2B Na2B 1_555 1_555
C3B N1B 1_555 1_555
C4B C3B 1_555 1_555
C5B C3B 1_555 1_555
C6B C5B 1_555 1_555
H1B C6B 1_555 1_555
C7B C2B 1_555 1_555
H2B C7B 1_555 1_555
H3B C7B 1_555 1_555
H4B C7B 1_555 1_555
O1B Na2B 1_555 1_555
O2B Na2B 1_555 1_555
C8B C6B 1_555 1_555
C9B C1B 1_555 1_555
H5B C9B 1_555 1_555
H6B C9B 1_555 1_555
H7B C9B 1_555 1_555
C10B C4B 1_555 1_555
H8B C10B 1_555 1_555
C11B C5B 1_555 1_555
H9B C11B 1_555 1_555
H10B C11B 1_555 1_555
H11B C11B 1_555 1_555
C12B O2B 1_555 1_555
H12B C12B 1_555 1_555
H13B C12B 1_555 1_555
C13B C4B 1_555 1_555
H14B C13B 1_555 1_555
H15B C13B 1_555 1_555
H16B C13B 1_555 1_555
C14B C8B 1_555 1_555
H17B C14B 1_555 1_555
H18B C14B 1_555 1_555
H19B C14B 1_555 1_555
C15B O2B 1_555 1_555
H20B C15B 1_555 1_555
H21B C15B 1_555 1_555
C16B H22B 1_555 1_555
H23B C16B 1_555 1_555
C17B O1B 1_555 1_555
H24B C17B 1_555 1_555
H25B C17B 1_555 1_555
C18B O1B 1_555 1_555
H26B C18B 1_555 1_555
H27B C18B 1_555 1_555
C19B C12B 1_555 1_555
H28B C19B 1_555 1_555
H29B C19B 1_555 1_555
C20B C16B 1_555 1_555
H30B C20B 1_555 1_555
H31B C20B 1_555 1_555
C21B C15B 1_555 1_555
H32B C21B 1_555 1_555
H33B C21B 1_555 1_555
C22B C24 1_555 1_555
C23B C24 1_555 1_555
C24B C22 1_555 1_555
C25B C22B 1_555 1_555
H34B C25B 1_555 1_555
H35B C25B 1_555 1_555
H36B C25B 1_555 1_555
C26B C23B 1_555 1_555
H37B C26B 1_555 1_555
H38B C26B 1_555 1_555
H39B C26B 1_555 1_555
C27B Na1B 1_555 1_555
C28B Na1B 1_555 1_555
H40B C28B 1_555 1_555
C29B Na1B 1_555 1_555
H41B C29B 1_555 1_555
C30B C27B 1_555 1_555
H42B C30B 1_555 1_555
H43B C30B 1_555 1_555
H44B C30B 1_555 1_555
Na2 N2 1_555 1_555
N2 C2 1_555 1_555
C1 C2 1_555 1_555
C8 C10 1_555 1_555
C16 C17 1_555 1_555
C18 C20 1_555 1_555
C19 C21 1_555 1_555
C22 C29 1_555 1_555
C23 C28 1_555 1_555
C23 C24B 1_555 1_555
C27 C28 1_555 1_555
C27 C29 1_555 1_555
Na1B C22B 1_555 1_555
Na1B C23B 1_555 1_555
Na2B N2B 1_555 1_555
N2B C2B 1_555 1_555
N2B C24B 1_555 1_555
C1B C2B 1_555 1_555
C8B C10B 1_555 1_555
C16B C17B 1_555 1_555
C18B C20B 1_555 1_555
C19B C21B 1_555 1_555
C22B C29B 1_555 1_555
C23B C28B 1_555 1_555
C27B C28B 1_555 1_555
C27B C29B 1_555 1_555

#END
