
#######################################################################
#
#                 Cambridge Crystallographic Data Centre
#                                CCDC 
#
#######################################################################
#
# If this CIF has been generated from an entry in the Cambridge 
# Structural Database, then it will include bibliographic, chemical, 
# crystal, experimental, refinement or atomic coordinate data resulting 
# from the CCDC's data processing and validation procedures.
#
#######################################################################

data_XOQQAW
_chemical_formula_moiety         'C64 H100 N4 Na4 O2'
_chemical_name_systematic        
"bis(\m~3~-\h^4^,\h^2^,\h^1^-N,N'-bis(2,6-Di-isopropylphenyl)but-2-ene-2,3-diamine-C,C',N,N')-bis(diethyl ether)-tetra-sodium"
_symmetry_cell_setting           monoclinic
_symmetry_space_group_name_H-M   'P 21/n'
_symmetry_Int_Tables_number      14
_space_group_name_Hall           '-P 2yn'
loop_
_symmetry_equiv_pos_site_id
_symmetry_equiv_pos_as_xyz
1 x,y,z
2 1/2-x,1/2+y,1/2-z
3 -x,-y,-z
4 1/2+x,1/2-y,1/2+z
_cell_length_a                   17.0908(17)
_cell_length_b                   11.0256(11)
_cell_length_c                   18.6460(19)
_cell_angle_alpha                90
_cell_angle_beta                 113.231(2)
_cell_angle_gamma                90
_cell_volume                     3228.71
_exptl_crystal_colour            red
_exptl_crystal_description       block
_cell_formula_units_Z            2
_exptl_crystal_recrystallization_method 'diethyl ether'
loop_
_atom_site_label
_atom_site_type_symbol
_atom_site_fract_x
_atom_site_fract_y
_atom_site_fract_z
Na1 Na 0.42228(8) -0.06628(12) 0.19511(8)
Na2 Na 0.39025(7) 0.03977(12) 0.01701(6)
N1 N 0.50571(14) 0.0499(2) 0.14416(13)
N2 N 0.33377(15) 0.0807(2) 0.11011(14)
O1 O 0.43180(19) -0.1925(4) 0.2971(2)
C1 C 0.47808(19) 0.1482(3) 0.17757(16)
C2 C 0.3936(2) 0.1625(3) 0.16180(17)
C3 C 0.5454(2) 0.2208(3) 0.24197(18)
H1 H 0.5349 0.2159 0.2888
H2 H 0.5431 0.3040 0.2261
H3 H 0.6008 0.1882 0.2516
C4 C 0.3632(2) 0.2442(3) 0.2110(2)
H4 H 0.4018 0.2385 0.2647
H5 H 0.3074 0.2192 0.2059
H6 H 0.3610 0.3265 0.1936
C5 C 0.58391(18) 0.0535(3) 0.13748(15)
C6 C 0.64030(18) -0.0476(3) 0.16574(15)
C7 C 0.6204(2) -0.1449(3) 0.21369(17)
H7 H 0.5588 -0.1591 0.1896
C8 C 0.6636(2) -0.2670(3) 0.2174(2)
H8 H 0.6496 -0.2968 0.1654
H9 H 0.6441 -0.3237 0.2459
H10 H 0.7241 -0.2575 0.2433
C9 C 0.6410(2) -0.0979(3) 0.29680(19)
H11 H 0.6129 -0.0217 0.2942
H12 H 0.7014 -0.0872 0.3233
H13 H 0.6216 -0.1555 0.3248
C10 C 0.25095(19) 0.1137(3) 0.06364(17)
C11 C 0.2233(2) 0.2304(3) 0.02900(18)
C12 C 0.1382(2) 0.2473(4) -0.0199(2)
H14 H 0.1205 0.3235 -0.0416
C13 C 0.0789(2) 0.1552(5) -0.0374(2)
H15 H 0.0223 0.1694 -0.0699
C14 C 0.1048(2) 0.0431(4) -0.0064(2)
H16 H 0.0652 -0.0196 -0.0188
C15 C 0.1883(2) 0.0198(3) 0.04302(19)
C16 C 0.2849(2) 0.3337(3) 0.0333(2)
H17 H 0.3396 0.3157 0.0759
C17 C 0.2991(3) 0.3400(4) -0.0420(2)
H18 H 0.3185 0.2627 -0.0521
H19 H 0.3411 0.4007 -0.0373
H20 H 0.2465 0.3606 -0.0844
C18 C 0.2548(3) 0.4598(3) 0.0493(3)
H21 H 0.2963 0.5200 0.0518
H22 H 0.2481 0.4578 0.0981
H23 H 0.2013 0.4797 0.0080
C19 C 0.2140(2) -0.1050(3) 0.0780(2)
H24 H 0.2724 -0.1191 0.0825
C20 C 0.1594(3) -0.2097(4) 0.0297(3)
H25 H 0.1593 -0.2079 -0.0219
H26 H 0.1022 -0.2012 0.0264
H27 H 0.1826 -0.2854 0.0542
C21 C 0.2161(3) -0.1074(4) 0.1605(3)
H28 H 0.2511 -0.0423 0.1904
H29 H 0.2391 -0.1834 0.1848
H30 H 0.1593 -0.0980 0.1582
C22 C 0.38995(18) -0.1480(3) -0.09974(16)
C23 C 0.31247(19) -0.1387(3) -0.09109(17)
H31 H 0.2906 -0.2105 -0.0741
C24 C 0.2599(2) -0.0391(3) -0.11699(18)
H32 H 0.2014 -0.0420 -0.1198
C25 C 0.28427(19) 0.0522(3) -0.15423(17)
H33 H 0.2462 0.1217 -0.1747
C26 C 0.4466(2) -0.2560(3) -0.06302(18)
H34 H 0.4978 -0.2484 -0.0741
C27 C 0.4051(2) -0.3784(3) -0.0958(2)
H35 H 0.3882 -0.3792 -0.1514
H36 H 0.3560 -0.3901 -0.0837
H37 H 0.4453 -0.4425 -0.0728
C28 C 0.4749(2) -0.2563(3) 0.02607(19)
H38 H 0.5025 -0.1809 0.0471
H39 H 0.5138 -0.3221 0.0481
H40 H 0.4260 -0.2662 0.0388
C29 C 0.4376(5) -0.1425(8) 0.3703(4)
H41 H 0.3885 -0.1677 0.3803
H42 H 0.4882 -0.1738 0.4120
C30 C 0.4414(5) -0.0143(8) 0.3702(4)
H43 H 0.4451 0.0161 0.4196
H44 H 0.3911 0.0170 0.3294
H45 H 0.4907 0.0109 0.3614
C31 C 0.4320(6) -0.3180(8) 0.2987(6)
H46 H 0.4829 -0.3452 0.3418
H47 H 0.3833 -0.3453 0.3088
C32 C 0.4292(7) -0.3720(8) 0.2312(6)
H48 H 0.4283 -0.4586 0.2364
H49 H 0.4786 -0.3488 0.2220
H50 H 0.3788 -0.3463 0.1881
Na1B Na 0.57772(8) 0.06628(12) -0.19511(8)
Na2B Na 0.60975(7) -0.03977(12) -0.01701(6)
N1B N 0.49429(14) -0.0499(2) -0.14416(13)
N2B N 0.66623(15) -0.0807(2) -0.11011(14)
O1B O 0.56820(19) 0.1925(4) -0.2971(2)
C1B C 0.52192(19) -0.1482(3) -0.17757(16)
C2B C 0.6064(2) -0.1625(3) -0.16180(17)
C3B C 0.4546(2) -0.2208(3) -0.24197(18)
H1B H 0.4651 -0.2159 -0.2888
H2B H 0.4569 -0.3040 -0.2261
H3B H 0.3992 -0.1882 -0.2516
C4B C 0.6368(2) -0.2442(3) -0.2110(2)
H4B H 0.5982 -0.2385 -0.2647
H5B H 0.6926 -0.2192 -0.2059
H6B H 0.6390 -0.3265 -0.1936
C5B C 0.41609(18) -0.0535(3) -0.13748(15)
C6B C 0.35970(18) 0.0476(3) -0.16574(15)
C7B C 0.3796(2) 0.1449(3) -0.21369(17)
H7B H 0.4412 0.1591 -0.1896
C8B C 0.3364(2) 0.2670(3) -0.2174(2)
H8B H 0.3504 0.2968 -0.1654
H9B H 0.3559 0.3237 -0.2459
H10B H 0.2759 0.2575 -0.2433
C9B C 0.3590(2) 0.0979(3) -0.29680(19)
H11B H 0.3871 0.0217 -0.2942
H12B H 0.2986 0.0872 -0.3233
H13B H 0.3784 0.1555 -0.3248
C10B C 0.74905(19) -0.1137(3) -0.06364(17)
C11B C 0.7767(2) -0.2304(3) -0.02900(18)
C12B C 0.8618(2) -0.2473(4) 0.0199(2)
H14B H 0.8795 -0.3235 0.0416
C13B C 0.9211(2) -0.1552(5) 0.0374(2)
H15B H 0.9777 -0.1694 0.0699
C14B C 0.8952(2) -0.0431(4) 0.0064(2)
H16B H 0.9348 0.0196 0.0188
C15B C 0.8117(2) -0.0198(3) -0.04302(19)
C16B C 0.7151(2) -0.3337(3) -0.0333(2)
H17B H 0.6604 -0.3157 -0.0759
C17B C 0.7009(3) -0.3400(4) 0.0420(2)
H18B H 0.6815 -0.2627 0.0521
H19B H 0.6589 -0.4007 0.0373
H20B H 0.7535 -0.3606 0.0844
C18B C 0.7452(3) -0.4598(3) -0.0493(3)
H21B H 0.7037 -0.5200 -0.0518
H22B H 0.7519 -0.4578 -0.0981
H23B H 0.7987 -0.4797 -0.0080
C19B C 0.7860(2) 0.1050(3) -0.0780(2)
H24B H 0.7276 0.1191 -0.0825
C20B C 0.8406(3) 0.2097(4) -0.0297(3)
H25B H 0.8407 0.2079 0.0219
H26B H 0.8978 0.2012 -0.0264
H27B H 0.8174 0.2854 -0.0542
C21B C 0.7839(3) 0.1074(4) -0.1605(3)
H28B H 0.7489 0.0423 -0.1904
H29B H 0.7609 0.1834 -0.1848
H30B H 0.8407 0.0980 -0.1582
C22B C 0.61005(18) 0.1480(3) 0.09974(16)
C23B C 0.68753(19) 0.1387(3) 0.09109(17)
H31B H 0.7094 0.2105 0.0741
C24B C 0.7401(2) 0.0391(3) 0.11699(18)
H32B H 0.7986 0.0420 0.1198
C25B C 0.71573(19) -0.0522(3) 0.15423(17)
H33B H 0.7538 -0.1217 0.1747
C26B C 0.5534(2) 0.2560(3) 0.06302(18)
H34B H 0.5022 0.2484 0.0741
C27B C 0.5949(2) 0.3784(3) 0.0958(2)
H35B H 0.6118 0.3792 0.1514
H36B H 0.6440 0.3901 0.0837
H37B H 0.5547 0.4425 0.0728
C28B C 0.5251(2) 0.2563(3) -0.02607(19)
H38B H 0.4975 0.1809 -0.0471
H39B H 0.4862 0.3221 -0.0481
H40B H 0.5740 0.2662 -0.0388
C29B C 0.5624(5) 0.1425(8) -0.3703(4)
H41B H 0.6115 0.1677 -0.3803
H42B H 0.5118 0.1738 -0.4120
C30B C 0.5586(5) 0.0143(8) -0.3702(4)
H43B H 0.5549 -0.0161 -0.4196
H44B H 0.6089 -0.0170 -0.3294
H45B H 0.5093 -0.0109 -0.3614
C31B C 0.5680(6) 0.3180(8) -0.2987(6)
H46B H 0.5171 0.3452 -0.3418
H47B H 0.6167 0.3453 -0.3088
C32B C 0.5708(7) 0.3720(8) -0.2312(6)
H48B H 0.5717 0.4586 -0.2364
H49B H 0.5214 0.3488 -0.2220
H50B H 0.6212 0.3463 -0.1881
loop_
_geom_bond_atom_site_label_1
_geom_bond_atom_site_label_2
_geom_bond_site_symmetry_1
_geom_bond_site_symmetry_2
Na1 N1 1_555 1_555
Na2 N1 1_555 1_555
N1 C1 1_555 1_555
N2 Na1 1_555 1_555
O1 Na1 1_555 1_555
C1 Na1 1_555 1_555
C2 Na1 1_555 1_555
C3 C1 1_555 1_555
H1 C3 1_555 1_555
H2 C3 1_555 1_555
H3 C3 1_555 1_555
C4 C2 1_555 1_555
H4 C4 1_555 1_555
H5 C4 1_555 1_555
H6 C4 1_555 1_555
C5 N1 1_555 1_555
C6 C5 1_555 1_555
C7 C6 1_555 1_555
H7 C7 1_555 1_555
C8 C7 1_555 1_555
H8 C8 1_555 1_555
H9 C8 1_555 1_555
H10 C8 1_555 1_555
C9 C7 1_555 1_555
H11 C9 1_555 1_555
H12 C9 1_555 1_555
H13 C9 1_555 1_555
C10 Na2 1_555 1_555
C11 C10 1_555 1_555
C12 C11 1_555 1_555
H14 C12 1_555 1_555
C13 C12 1_555 1_555
H15 C13 1_555 1_555
C14 C13 1_555 1_555
H16 C14 1_555 1_555
C15 C10 1_555 1_555
C16 C11 1_555 1_555
H17 C16 1_555 1_555
C17 C16 1_555 1_555
H18 C17 1_555 1_555
H19 C17 1_555 1_555
H20 C17 1_555 1_555
C18 C16 1_555 1_555
H21 C18 1_555 1_555
H22 C18 1_555 1_555
H23 C18 1_555 1_555
C19 C15 1_555 1_555
H24 C19 1_555 1_555
C20 C19 1_555 1_555
H25 C20 1_555 1_555
H26 C20 1_555 1_555
H27 C20 1_555 1_555
C21 C19 1_555 1_555
H28 C21 1_555 1_555
H29 C21 1_555 1_555
H30 C21 1_555 1_555
C22 Na2 1_555 1_555
C23 Na2 1_555 1_555
H31 C23 1_555 1_555
C24 Na2 1_555 1_555
H32 C24 1_555 1_555
C25 Na2 1_555 1_555
H33 C25 1_555 1_555
C26 C22 1_555 1_555
H34 C26 1_555 1_555
C27 C26 1_555 1_555
H35 C27 1_555 1_555
H36 C27 1_555 1_555
H37 C27 1_555 1_555
C28 C26 1_555 1_555
H38 C28 1_555 1_555
H39 C28 1_555 1_555
H40 C28 1_555 1_555
C29 O1 1_555 1_555
H41 C29 1_555 1_555
H42 C29 1_555 1_555
C30 C29 1_555 1_555
H43 C30 1_555 1_555
H44 C30 1_555 1_555
H45 C30 1_555 1_555
C31 O1 1_555 1_555
H46 C31 1_555 1_555
H47 C31 1_555 1_555
C32 C31 1_555 1_555
H48 C32 1_555 1_555
H49 C32 1_555 1_555
H50 C32 1_555 1_555
Na1B N1B 1_555 1_555
Na2B N1B 1_555 1_555
N1B C1B 1_555 1_555
N2B Na1B 1_555 1_555
O1B Na1B 1_555 1_555
C1B Na1B 1_555 1_555
C2B Na1B 1_555 1_555
C3B C1B 1_555 1_555
H1B C3B 1_555 1_555
H2B C3B 1_555 1_555
H3B C3B 1_555 1_555
C4B C2B 1_555 1_555
H4B C4B 1_555 1_555
H5B C4B 1_555 1_555
H6B C4B 1_555 1_555
C5B C22 1_555 1_555
C6B C25 1_555 1_555
C7B C6B 1_555 1_555
H7B C7B 1_555 1_555
C8B C7B 1_555 1_555
H8B C8B 1_555 1_555
H9B C8B 1_555 1_555
H10B C8B 1_555 1_555
C9B C7B 1_555 1_555
H11B C9B 1_555 1_555
H12B C9B 1_555 1_555
H13B C9B 1_555 1_555
C10B Na2B 1_555 1_555
C11B C10B 1_555 1_555
C12B C11B 1_555 1_555
H14B C12B 1_555 1_555
C13B C12B 1_555 1_555
H15B C13B 1_555 1_555
C14B C13B 1_555 1_555
H16B C14B 1_555 1_555
C15B C10B 1_555 1_555
C16B C11B 1_555 1_555
H17B C16B 1_555 1_555
C17B C16B 1_555 1_555
H18B C17B 1_555 1_555
H19B C17B 1_555 1_555
H20B C17B 1_555 1_555
C18B C16B 1_555 1_555
H21B C18B 1_555 1_555
H22B C18B 1_555 1_555
H23B C18B 1_555 1_555
C19B C15B 1_555 1_555
H24B C19B 1_555 1_555
C20B C19B 1_555 1_555
H25B C20B 1_555 1_555
H26B C20B 1_555 1_555
H27B C20B 1_555 1_555
C21B C19B 1_555 1_555
H28B C21B 1_555 1_555
H29B C21B 1_555 1_555
H30B C21B 1_555 1_555
C22B C5 1_555 1_555
C23B Na2B 1_555 1_555
H31B C23B 1_555 1_555
C24B Na2B 1_555 1_555
H32B C24B 1_555 1_555
C25B C6 1_555 1_555
H33B C25B 1_555 1_555
C26B C22B 1_555 1_555
H34B C26B 1_555 1_555
C27B C26B 1_555 1_555
H35B C27B 1_555 1_555
H36B C27B 1_555 1_555
H37B C27B 1_555 1_555
C28B C26B 1_555 1_555
H38B C28B 1_555 1_555
H39B C28B 1_555 1_555
H40B C28B 1_555 1_555
C29B O1B 1_555 1_555
H41B C29B 1_555 1_555
H42B C29B 1_555 1_555
C30B C29B 1_555 1_555
H43B C30B 1_555 1_555
H44B C30B 1_555 1_555
H45B C30B 1_555 1_555
C31B O1B 1_555 1_555
H46B C31B 1_555 1_555
H47B C31B 1_555 1_555
C32B C31B 1_555 1_555
H48B C32B 1_555 1_555
H49B C32B 1_555 1_555
H50B C32B 1_555 1_555
Na2 N2 1_555 1_555
N2 C2 1_555 1_555
N2 C10 1_555 1_555
C1 C2 1_555 1_555
C14 C15 1_555 1_555
C22 C23 1_555 1_555
C23 C24 1_555 1_555
C24 C25 1_555 1_555
Na2B N2B 1_555 1_555
Na2B C22B 1_555 1_555
Na2B C25B 1_555 1_555
N1B C5B 1_555 1_555
N2B C2B 1_555 1_555
N2B C10B 1_555 1_555
C1B C2B 1_555 1_555
C5B C6B 1_555 1_555
C14B C15B 1_555 1_555
C22B C23B 1_555 1_555
C23B C24B 1_555 1_555
C24B C25B 1_555 1_555

#END
