
#######################################################################
#
#                 Cambridge Crystallographic Data Centre
#                                CCDC 
#
#######################################################################
#
# If this CIF has been generated from an entry in the Cambridge 
# Structural Database, then it will include bibliographic, chemical, 
# crystal, experimental, refinement or atomic coordinate data resulting 
# from the CCDC's data processing and validation procedures.
#
#######################################################################

data_XORJIZ
_chemical_compound_source        
'aerial parts of Physalis coztomatl (Solanaceae)'
_chemical_name_common            '15alpha-Acetoxyphysachenolide D trihydrate'
_chemical_formula_moiety         'C32 H42 O10,3(H2 O1)'
_chemical_name_systematic        
'14,17,20-Trihydroxy-1,26-dioxo-22,26-epoxyergosta-2,5,24-triene-15,18-diyl diacetate trihydrate'
_symmetry_cell_setting           orthorhombic
_symmetry_space_group_name_H-M   'P 21 21 21'
_symmetry_Int_Tables_number      19
_space_group_name_Hall           'P 2ac 2ab'
loop_
_symmetry_equiv_pos_site_id
_symmetry_equiv_pos_as_xyz
1 x,y,z
2 1/2-x,-y,1/2+z
3 -x,1/2+y,1/2-z
4 1/2+x,1/2-y,-z
_cell_length_a                   10.8337(13)
_cell_length_b                   15.0357(18)
_cell_length_c                   19.525(2)
_cell_angle_alpha                90
_cell_angle_beta                 90
_cell_angle_gamma                90
_cell_volume                     3180.47
_exptl_crystal_colour            colorless
_exptl_crystal_description       needle
_cell_formula_units_Z            4
loop_
_atom_site_label
_atom_site_type_symbol
_atom_site_fract_x
_atom_site_fract_y
_atom_site_fract_z
O1 O 0.44255(13) 0.35754(10) 0.40016(7)
O2 O 0.48212(14) 0.10731(11) 0.04961(8)
O3 O 0.15885(12) 0.19262(9) 0.23133(7)
H1 H 0.189(3) 0.212(2) 0.2670(18)
O4 O -0.08558(12) 0.24114(9) 0.21955(7)
O5 O -0.23120(13) 0.34784(9) 0.21453(7)
O6 O 0.19060(13) 0.47905(9) 0.26824(7)
H2 H 0.122(3) 0.502(2) 0.2556(17)
O7 O 0.30022(12) 0.47427(9) 0.13521(7)
O8 O 0.17351(15) 0.58420(11) 0.10268(10)
O9 O 0.24685(13) 0.26311(10) 0.34142(8)
H3 H 0.271(3) 0.246(2) 0.3770(16)
O10 O 0.60729(14) 0.34166(11) 0.46397(8)
C1 C 0.39351(19) 0.10249(13) 0.01157(10)
C2 C 0.3949(2) 0.04075(14) -0.04731(11)
H4 H 0.472(2) 0.0125(17) -0.0552(13)
C3 C 0.2957(2) 0.02396(14) -0.08501(11)
H5 H 0.303(2) -0.0134(18) -0.1219(14)
C4 C 0.1718(2) 0.06269(15) -0.07009(10)
H6 H 0.107(2) 0.0164(19) -0.0720(13)
H7 H 0.153(2) 0.1033(18) -0.1061(14)
C5 C 0.16545(19) 0.10713(13) -0.00063(10)
C6 C 0.06766(19) 0.09670(13) 0.03925(10)
H8 H -0.001(2) 0.0582(16) 0.0248(12)
C7 C 0.05210(17) 0.14000(13) 0.10789(10)
H9 H -0.039(2) 0.1569(15) 0.1142(11)
H10 H 0.075(2) 0.1001(16) 0.1443(12)
C8 C 0.13489(17) 0.22258(12) 0.11354(9)
H11 H 0.1045(19) 0.2665(14) 0.0807(11)
C9 C 0.26934(18) 0.19587(13) 0.09515(9)
H12 H 0.291(2) 0.1460(16) 0.1229(11)
C10 C 0.27804(18) 0.16189(13) 0.01999(9)
C11 C 0.36408(18) 0.26926(13) 0.11114(10)
H13 H 0.3556(19) 0.3171(16) 0.0788(11)
H14 H 0.447(2) 0.2430(17) 0.1059(12)
C12 C 0.35297(17) 0.30636(13) 0.18432(10)
H15 H 0.370(2) 0.2595(16) 0.2163(11)
H16 H 0.416(2) 0.3548(15) 0.1901(11)
C13 C 0.22240(17) 0.34311(12) 0.19624(9)
C14 C 0.13010(17) 0.26388(12) 0.18559(9)
C15 C 0.00929(17) 0.30777(13) 0.20864(10)
H17 H -0.016(2) 0.3493(16) 0.1754(12)
C16 C 0.04472(17) 0.35387(14) 0.27563(10)
H18 H -0.009(3) 0.400(2) 0.2859(14)
H19 H 0.036(3) 0.311(2) 0.3117(15)
C17 C 0.18192(17) 0.38451(12) 0.26931(10)
C18 C 0.19432(18) 0.41480(13) 0.14181(10)
H20 H 0.122(2) 0.4501(15) 0.1538(11)
H21 H 0.184(2) 0.3886(17) 0.0958(13)
C19 C 0.2930(2) 0.23892(14) -0.03216(10)
H22 H 0.371(3) 0.2678(19) -0.0246(13)
H23 H 0.296(3) 0.2128(18) -0.0777(15)
H24 H 0.229(3) 0.279(2) -0.0294(15)
C20 C 0.25521(18) 0.35752(14) 0.33571(10)
C21 C 0.1960(2) 0.40101(16) 0.39872(11)
H25 H 0.200(3) 0.465(2) 0.3955(14)
H26 H 0.111(3) 0.389(2) 0.4014(15)
H27 H 0.238(2) 0.3804(18) 0.4415(14)
C22 C 0.39393(18) 0.37970(13) 0.33201(9)
H28 H 0.430(2) 0.3370(15) 0.3010(11)
C23 C 0.43638(18) 0.47177(13) 0.31320(10)
H29 H 0.404(2) 0.5124(17) 0.3452(14)
H30 H 0.409(2) 0.4889(16) 0.2658(13)
C24 C 0.57569(18) 0.47321(13) 0.31527(10)
C25 C 0.63532(18) 0.42362(13) 0.36142(10)
C26 C 0.56285(19) 0.37226(13) 0.41133(10)
C27 C 0.77279(19) 0.41883(16) 0.37186(11)
H31 H 0.7991 0.3565 0.3717
H32 H 0.7942 0.4461 0.4159
H33 H 0.8146 0.4508 0.3348
C28 C 0.6348(2) 0.53201(15) 0.26300(11)
H34 H 0.723(3) 0.5382(18) 0.2689(14)
H35 H 0.597(3) 0.591(2) 0.2654(15)
H36 H 0.617(2) 0.5071(17) 0.2178(14)
C29 C -0.20311(17) 0.27087(13) 0.22005(9)
C30 C -0.29319(19) 0.19615(15) 0.22655(13)
H37 H -0.3623 0.2148 0.2556
H38 H -0.2522 0.1446 0.2472
H39 H -0.3242 0.1800 0.1811
C31 C 0.2767(2) 0.55602(14) 0.11269(11)
C32 C 0.3924(2) 0.60860(15) 0.10105(14)
H40 H 0.374(3) 0.668(2) 0.1003(15)
H41 H 0.428(3) 0.585(2) 0.0556(17)
H42 H 0.451(2) 0.5966(18) 0.1364(14)
O11 O -0.01133(15) 0.56295(10) 0.21121(9)
H43 H -0.047(3) 0.606(3) 0.2330(19)
H44 H 0.026(3) 0.588(2) 0.1803(16)
O12 O 0.31983(17) 0.17557(12) 0.45340(8)
H45 H 0.260(4) 0.165(3) 0.475(2)
H46 H 0.367(3) 0.206(2) 0.4818(16)
O13 O 0.44940(16) 0.26034(12) 0.55681(9)
H47 H 0.392(4) 0.310(3) 0.576(2)
H48 H 0.517(5) 0.291(4) 0.524(3)
loop_
_geom_bond_atom_site_label_1
_geom_bond_atom_site_label_2
_geom_bond_site_symmetry_1
_geom_bond_site_symmetry_2
O1 C22 1_555 1_555
O2 C1 1_555 1_555
O3 H1 1_555 1_555
O4 C15 1_555 1_555
O5 C29 1_555 1_555
O6 H2 1_555 1_555
O7 C18 1_555 1_555
O8 C31 1_555 1_555
O9 H3 1_555 1_555
O10 C26 1_555 1_555
C1 C2 1_555 1_555
C2 H4 1_555 1_555
C3 C2 1_555 1_555
H5 C3 1_555 1_555
C4 C3 1_555 1_555
H6 C4 1_555 1_555
H7 C4 1_555 1_555
C5 C4 1_555 1_555
C6 C5 1_555 1_555
H8 C6 1_555 1_555
C7 C6 1_555 1_555
H9 C7 1_555 1_555
H10 C7 1_555 1_555
C8 C7 1_555 1_555
H11 C8 1_555 1_555
C9 C8 1_555 1_555
H12 C9 1_555 1_555
C10 C1 1_555 1_555
C11 C9 1_555 1_555
H13 C11 1_555 1_555
H14 C11 1_555 1_555
C12 C11 1_555 1_555
H15 C12 1_555 1_555
H16 C12 1_555 1_555
C13 C12 1_555 1_555
C14 O3 1_555 1_555
C15 C14 1_555 1_555
H17 C15 1_555 1_555
C16 C15 1_555 1_555
H18 C16 1_555 1_555
H19 C16 1_555 1_555
C17 O6 1_555 1_555
C18 C13 1_555 1_555
H20 C18 1_555 1_555
H21 C18 1_555 1_555
C19 C10 1_555 1_555
H22 C19 1_555 1_555
H23 C19 1_555 1_555
H24 C19 1_555 1_555
C20 O9 1_555 1_555
C21 C20 1_555 1_555
H25 C21 1_555 1_555
H26 C21 1_555 1_555
H27 C21 1_555 1_555
C22 C20 1_555 1_555
H28 C22 1_555 1_555
C23 C22 1_555 1_555
H29 C23 1_555 1_555
H30 C23 1_555 1_555
C24 C23 1_555 1_555
C25 C24 1_555 1_555
C26 O1 1_555 1_555
C27 C25 1_555 1_555
H31 C27 1_555 1_555
H32 C27 1_555 1_555
H33 C27 1_555 1_555
C28 C24 1_555 1_555
H34 C28 1_555 1_555
H35 C28 1_555 1_555
H36 C28 1_555 1_555
C29 O4 1_555 1_555
C30 C29 1_555 1_555
H37 C30 1_555 1_555
H38 C30 1_555 1_555
H39 C30 1_555 1_555
C31 O7 1_555 1_555
C32 C31 1_555 1_555
H40 C32 1_555 1_555
H41 C32 1_555 1_555
H42 C32 1_555 1_555
O11 H43 1_555 1_555
H44 O11 1_555 1_555
O12 H45 1_555 1_555
H46 O12 1_555 1_555
O13 H47 1_555 1_555
H48 O13 1_555 1_555
C5 C10 1_555 1_555
C8 C14 1_555 1_555
C9 C10 1_555 1_555
C13 C14 1_555 1_555
C13 C17 1_555 1_555
C16 C17 1_555 1_555
C17 C20 1_555 1_555
C25 C26 1_555 1_555

#END
