
#######################################################################
#
#                 Cambridge Crystallographic Data Centre
#                                CCDC 
#
#######################################################################
#
# If this CIF has been generated from an entry in the Cambridge 
# Structural Database, then it will include bibliographic, chemical, 
# crystal, experimental, refinement or atomic coordinate data resulting 
# from the CCDC's data processing and validation procedures.
#
#######################################################################

data_XORLEX
_chemical_formula_moiety         'C22 H18 O3 S1'
_chemical_name_systematic        
4'-Hydroxy-2'-(2-naphthyl)-4',5'-dihydro-4H-spiro[chromene-3,3'-thiophen]-4-one
_symmetry_cell_setting           monoclinic
_symmetry_space_group_name_H-M   'I 2/a'
_symmetry_Int_Tables_number      15
_space_group_name_Hall           '-I 2ya'
loop_
_symmetry_equiv_pos_site_id
_symmetry_equiv_pos_as_xyz
1 x,y,z
2 1/2-x,y,-z
3 1/2+x,1/2+y,1/2+z
4 -x,1/2+y,1/2-z
5 -x,-y,-z
6 1/2+x,-y,z
7 1/2-x,1/2-y,1/2-z
8 x,1/2-y,1/2+z
_cell_length_a                   19.0920(7)
_cell_length_b                   6.0610(2)
_cell_length_c                   29.9990(9)
_cell_angle_alpha                90
_cell_angle_beta                 90.569(5)
_cell_angle_gamma                90
_cell_volume                     3471.21
_exptl_crystal_colour            colorless
_exptl_crystal_description       prism
_cell_formula_units_Z            8
loop_
_atom_site_label
_atom_site_type_symbol
_atom_site_fract_x
_atom_site_fract_y
_atom_site_fract_z
C1 C 0.58122(15) 0.1802(4) 0.34283(8)
C2 C 0.60769(12) 0.2787(4) 0.44879(9)
C3 C 0.59977(12) 0.1447(4) 0.48959(8)
C4 C 0.63380(12) -0.0573(4) 0.49359(8)
C5 C 0.62942(15) -0.1812(5) 0.53221(9)
H1 H 0.6525 -0.3158 0.5346
C6 C 0.51995(14) 0.2954(4) 0.34066(8)
H2 H 0.5174 0.4324 0.3545
C7 C 0.46002(15) 0.2126(4) 0.31793(8)
C8 C 0.46400(18) 0.0033(5) 0.29713(8)
C9 C 0.65479(15) -0.0638(4) 0.41669(9)
H3 H 0.6076 -0.1114 0.4093
H4 H 0.6862 -0.1261 0.3948
C10 C 0.65861(12) 0.1888(4) 0.41474(9)
C11 C 0.5273(2) -0.1128(5) 0.29950(9)
H5 H 0.5307 -0.2502 0.2859
C12 C 0.56010(14) 0.2202(5) 0.52531(10)
H6 H 0.5365 0.3540 0.5230
C13 C 0.59030(17) -0.1014(7) 0.56696(10)
H7 H 0.5871 -0.1834 0.5931
C14 C 0.55559(16) 0.0992(7) 0.56373(10)
H8 H 0.5294 0.1511 0.5875
C15 C 0.58407(19) -0.0280(5) 0.32135(9)
H9 H 0.6256 -0.1083 0.3222
C16 C 0.39656(16) 0.3293(6) 0.31532(10)
H10 H 0.3929 0.4662 0.3291
C17 C 0.4040(2) -0.0786(6) 0.27403(10)
H11 H 0.4059 -0.2159 0.2603
C18 C 0.3404(2) 0.2448(7) 0.29289(12)
H12 H 0.2988 0.3246 0.2916
C19 C 0.3442(2) 0.0407(8) 0.27183(12)
H13 H 0.3055 -0.0137 0.2562
O1 O 0.57712(10) 0.4515(3) 0.44309(7)
O2 O 0.67372(9) -0.1430(3) 0.46007(6)
S1 S 0.72016(15) 0.2231(5) 0.33134(8)
C20 C 0.7762(2) 0.1890(9) 0.38068(16)
H14 H 0.7908 0.0360 0.3829
H15 H 0.8179 0.2787 0.3774
C21 C 0.73515(14) 0.2616(5) 0.42772(12)
H16 H 0.7542 0.1994 0.4554
C22 C 0.64289(14) 0.2793(5) 0.36747(10)
H17 H 0.6361 0.4393 0.3694
O3 O 0.73891(18) 0.4925(5) 0.42353(12)
H18 H 0.7383 0.5491 0.4484
S2? S 0.7302(2) 0.2841(9) 0.34497(12)
O4? O 0.7392(3) 0.4227(8) 0.46655(16)
H19? H 0.7102 0.5210 0.4628
H20? H 0.7618 0.1292 0.4359
C23? C 0.7741(4) 0.3798(14) 0.3940(2)
H21? H 0.8233 0.3391 0.3943
H22? H 0.7698 0.5384 0.3975
H23? H 0.6305 0.4346 0.3719
loop_
_geom_bond_atom_site_label_1
_geom_bond_atom_site_label_2
_geom_bond_site_symmetry_1
_geom_bond_site_symmetry_2
C1 C6 1_555 1_555
C2 C3 1_555 1_555
C3 C4 1_555 1_555
C4 C5 1_555 1_555
C5 H1 1_555 1_555
C6 H2 1_555 1_555
C7 C6 1_555 1_555
C8 C7 1_555 1_555
C9 H3 1_555 1_555
H4 C9 1_555 1_555
C10 C2 1_555 1_555
C11 C8 1_555 1_555
H5 C11 1_555 1_555
C12 C3 1_555 1_555
H6 C12 1_555 1_555
C13 C5 1_555 1_555
H7 C13 1_555 1_555
C14 C12 1_555 1_555
H8 C14 1_555 1_555
C15 C1 1_555 1_555
H9 C15 1_555 1_555
C16 C7 1_555 1_555
H10 C16 1_555 1_555
C17 C8 1_555 1_555
H11 C17 1_555 1_555
C18 C16 1_555 1_555
H12 C18 1_555 1_555
C19 C17 1_555 1_555
H13 C19 1_555 1_555
O1 C2 1_555 1_555
O2 C4 1_555 1_555
S1 C20 1_555 1_555
C20 H14 1_555 1_555
H15 C20 1_555 1_555
C21 C10 1_555 1_555
H16 C21 1_555 1_555
C22 C1 1_555 1_555
H17 C22 1_555 1_555
O3 C21 1_555 1_555
H18 O3 1_555 1_555
C9 C10 1_555 1_555
C9 O2 1_555 1_555
C10 C22 1_555 1_555
C11 C15 1_555 1_555
C13 C14 1_555 1_555
C18 C19 1_555 1_555
S1 C22 1_555 1_555
C20 C21 1_555 1_555

#END
