
#######################################################################
#
#                 Cambridge Crystallographic Data Centre
#                                CCDC 
#
#######################################################################
#
# If this CIF has been generated from an entry in the Cambridge 
# Structural Database, then it will include bibliographic, chemical, 
# crystal, experimental, refinement or atomic coordinate data resulting 
# from the CCDC's data processing and validation procedures.
#
#######################################################################

data_XORRIG
_chemical_formula_moiety         'C50 H40 N6 O6,C1 H1 Cl3'
_chemical_name_systematic        
'Diethyl 2,6-bis(4-(1-naphthylethynyl)phenyl)-4,8-dioxotetrahydro-1H,5H-2,3a,4a,6,7a,8a-hexaazacyclopenta[def]fluorene-8b,8c-dicarboxylate chloroform solvate'
_symmetry_cell_setting           monoclinic
_symmetry_space_group_name_H-M   'P 21/n'
_symmetry_Int_Tables_number      14
_space_group_name_Hall           '-P 2yn'
loop_
_symmetry_equiv_pos_site_id
_symmetry_equiv_pos_as_xyz
1 x,y,z
2 1/2-x,1/2+y,1/2-z
3 -x,-y,-z
4 1/2+x,1/2-y,1/2+z
_cell_length_a                   12.5195(7)
_cell_length_b                   25.0264(14)
_cell_length_c                   15.5955(8)
_cell_angle_alpha                90
_cell_angle_beta                 108.0710(10)
_cell_angle_gamma                90
_cell_volume                     4645.32
_exptl_crystal_colour            yellow
_exptl_crystal_description       block
_chemical_melting_point          '253-255 deg.C'
_cell_formula_units_Z            4
_exptl_crystal_recrystallization_method chloroform/methanol
_exptl_crystal_preparation       fluorescent
loop_
_atom_site_label
_atom_site_type_symbol
_atom_site_fract_x
_atom_site_fract_y
_atom_site_fract_z
C1 C 0.9744(4) 0.5529(2) 1.1849(3)
H1 H 0.9774 0.5161 1.1929
C2 C 1.0716(4) 0.5816(3) 1.2080(4)
H2 H 1.1404 0.5642 1.2297
C3 C 1.0677(5) 0.6373(3) 1.1989(3)
H3 H 1.1342 0.6568 1.2172
C4 C 0.9702(5) 0.6631(2) 1.1646(3)
H4 H 0.9698 0.7000 1.1576
C5 C 0.8676(4) 0.6347(2) 1.1388(2)
C6 C 0.7608(5) 0.6611(2) 1.1043(3)
H5 H 0.7578 0.6981 1.0978
C7 C 0.6660(5) 0.6327(3) 1.0814(4)
H6 H 0.5974 0.6502 1.0592
C8 C 0.6681(4) 0.5782(2) 1.0902(3)
H7 H 0.6007 0.5594 1.0731
C9 C 0.7661(4) 0.55086(19) 1.1232(3)
C10 C 0.8686(4) 0.57845(18) 1.1489(2)
C11 C 0.7610(4) 0.4931(2) 1.1321(3)
C12 C 0.7491(3) 0.4457(2) 1.1396(3)
C13 C 0.7248(3) 0.39066(18) 1.1460(3)
C14 C 0.7851(3) 0.35828(18) 1.2162(3)
H8 H 0.8457 0.3725 1.2613
C15 C 0.7576(3) 0.30646(18) 1.2205(2)
H9 H 0.7995 0.2860 1.2691
C16 C 0.6680(3) 0.28242(18) 1.1541(2)
C17 C 0.6085(3) 0.31487(18) 1.0843(2)
H10 H 0.5487 0.3005 1.0387
C18 C 0.6348(3) 0.36801(18) 1.0801(3)
H11 H 0.5918 0.3890 1.0327
C19 C 0.7281(3) 0.18889(16) 1.1774(2)
H12 H 0.7146 0.1598 1.2138
H13 H 0.7999 0.2049 1.2097
C20 C 0.5320(3) 0.20760(17) 1.1096(2)
H14 H 0.5066 0.1807 1.1436
H15 H 0.4771 0.2362 1.0956
C21 C 0.7895(3) 0.19442(15) 1.0412(3)
C22 C 0.4987(3) 0.20661(17) 0.9411(3)
C23 C 0.6277(3) 0.14653(14) 1.0341(2)
C24 C 0.5998(4) 0.09149(18) 1.0642(3)
C25 C 0.6742(5) 0.00518(19) 1.1135(4)
H16 H 0.6232 -0.0148 1.0645
H17 H 0.6449 0.0051 1.1642
C26 C 0.7881(7) -0.0189(3) 1.1398(6)
H18 H 0.8258 -0.0083 1.0975
H19 H 0.7819 -0.0571 1.1398
H20 H 0.8304 -0.0068 1.1991
C27 C 0.6425(3) 0.14824(15) 0.9375(2)
C28 C 0.6417(4) 0.09459(17) 0.8939(3)
C29 C 0.7515(5) 0.0253(2) 0.8614(4)
H21 H 0.7078 -0.0003 0.8832
H22 H 0.7212 0.0265 0.7961
C30 C 0.8679(7) 0.0082(3) 0.8874(5)
H23 H 0.9050 0.0252 0.8492
H24 H 0.8711 -0.0298 0.8811
H25 H 0.9047 0.0180 0.9490
C31 C 0.7591(3) 0.20546(18) 0.8755(3)
H26 H 0.7750 0.1789 0.8359
H27 H 0.8234 0.2291 0.8952
C32 C 0.5580(3) 0.20402(17) 0.8040(2)
H28 H 0.4934 0.2264 0.7759
H29 H 0.5611 0.1764 0.7612
C33 C 0.6534(3) 0.29209(19) 0.8372(3)
C34 C 0.7291(3) 0.3201(2) 0.9037(3)
H30 H 0.7842 0.3019 0.9480
C35 C 0.7248(4) 0.3759(2) 0.9061(3)
H31 H 0.7790 0.3942 0.9510
C36 C 0.6434(4) 0.4043(2) 0.8445(3)
C37 C 0.5645(4) 0.3755(2) 0.7783(3)
H32 H 0.5070 0.3937 0.7361
C38 C 0.5692(4) 0.3223(2) 0.7740(3)
H33 H 0.5154 0.3045 0.7281
C39 C 0.6433(4) 0.4626(3) 0.8466(3)
C40 C 0.6493(4) 0.5107(3) 0.8485(3)
C41 C 0.6598(4) 0.5674(2) 0.8463(3)
C42 C 0.5674(5) 0.5987(3) 0.8112(3)
H34 H 0.4963 0.5833 0.7910
C43 C 0.5804(6) 0.6551(3) 0.8057(4)
H35 H 0.5175 0.6766 0.7823
C44 C 0.6839(7) 0.6774(2) 0.8345(4)
H36 H 0.6911 0.7143 0.8311
C45 C 0.7805(5) 0.6459(2) 0.8694(3)
C46 C 0.8911(6) 0.6690(2) 0.8966(3)
H37 H 0.8993 0.7058 0.8933
C47 C 0.9807(6) 0.6386(3) 0.9259(4)
H38 H 1.0518 0.6540 0.9418
C48 C 0.9700(5) 0.5834(3) 0.9333(3)
H39 H 1.0344 0.5627 0.9555
C49 C 0.8691(4) 0.5595(2) 0.9093(3)
H40 H 0.8642 0.5227 0.9150
C50 C 0.7693(4) 0.59049(19) 0.8752(3)
N1 N 0.6399(2) 0.22873(14) 1.16510(19)
N2 N 0.7336(2) 0.16745(11) 1.09141(19)
N3 N 0.5377(2) 0.18407(12) 1.02585(19)
N4 N 0.7440(2) 0.17909(11) 0.9531(2)
N5 N 0.5441(2) 0.17914(11) 0.88474(18)
N6 N 0.6603(3) 0.23640(15) 0.8251(2)
O1 O 0.8678(2) 0.22522(11) 1.07078(18)
O2 O 0.4310(2) 0.24307(11) 0.91891(17)
O3 O 0.5092(3) 0.08018(14) 1.0698(3)
O4 O 0.6865(3) 0.06050(12) 1.0848(2)
O5 O 0.5570(3) 0.06938(12) 0.8606(3)
O6 O 0.7423(3) 0.07780(12) 0.8984(2)
C51 C 0.3864(9) 0.6750(5) 0.4911(5)
H41 H 0.4245 0.7071 0.4794
Cl1 Cl 0.4815(2) 0.62254(15) 0.5242(3)
Cl2 Cl 0.2786(7) 0.6568(4) 0.3949(4)
Cl3 Cl 0.3239(9) 0.6878(4) 0.5762(6)
C52? C 0.3640(9) 0.6597(5) 0.4708(11)
Cl4? Cl 0.2338(5) 0.6304(3) 0.4574(9)
Cl5? Cl 0.4237(11) 0.6840(9) 0.5773(11)
Cl6? Cl 0.4491(16) 0.6245(9) 0.4259(16)
H42? H 0.3459 0.6919 0.4333
loop_
_geom_bond_atom_site_label_1
_geom_bond_atom_site_label_2
_geom_bond_site_symmetry_1
_geom_bond_site_symmetry_2
C1 H1 1_555 1_555
C2 C1 1_555 1_555
H2 C2 1_555 1_555
C3 C2 1_555 1_555
H3 C3 1_555 1_555
C4 C3 1_555 1_555
H4 C4 1_555 1_555
C5 C4 1_555 1_555
C6 C5 1_555 1_555
H5 C6 1_555 1_555
C7 C6 1_555 1_555
H6 C7 1_555 1_555
C8 C7 1_555 1_555
H7 C8 1_555 1_555
C9 C8 1_555 1_555
C10 C1 1_555 1_555
C11 C9 1_555 1_555
C12 C11 1_555 1_555
C13 C12 1_555 1_555
C14 C13 1_555 1_555
H8 C14 1_555 1_555
C15 C14 1_555 1_555
H9 C15 1_555 1_555
C16 C15 1_555 1_555
C17 C16 1_555 1_555
H10 C17 1_555 1_555
C18 C13 1_555 1_555
H11 C18 1_555 1_555
C19 H12 1_555 1_555
H13 C19 1_555 1_555
C20 H14 1_555 1_555
H15 C20 1_555 1_555
C21 N2 1_555 1_555
C22 N3 1_555 1_555
C23 C24 1_555 1_555
C24 O3 1_555 1_555
C25 H16 1_555 1_555
H17 C25 1_555 1_555
C26 C25 1_555 1_555
H18 C26 1_555 1_555
H19 C26 1_555 1_555
H20 C26 1_555 1_555
C27 C23 1_555 1_555
C28 C27 1_555 1_555
C29 H21 1_555 1_555
H22 C29 1_555 1_555
C30 C29 1_555 1_555
H23 C30 1_555 1_555
H24 C30 1_555 1_555
H25 C30 1_555 1_555
C31 H26 1_555 1_555
H27 C31 1_555 1_555
C32 H28 1_555 1_555
H29 C32 1_555 1_555
C33 C34 1_555 1_555
C34 H30 1_555 1_555
C35 C34 1_555 1_555
H31 C35 1_555 1_555
C36 C35 1_555 1_555
C37 C36 1_555 1_555
H32 C37 1_555 1_555
C38 C33 1_555 1_555
H33 C38 1_555 1_555
C39 C36 1_555 1_555
C40 C39 1_555 1_555
C41 C40 1_555 1_555
C42 C41 1_555 1_555
H34 C42 1_555 1_555
C43 C42 1_555 1_555
H35 C43 1_555 1_555
C44 C43 1_555 1_555
H36 C44 1_555 1_555
C45 C44 1_555 1_555
C46 C45 1_555 1_555
H37 C46 1_555 1_555
C47 C46 1_555 1_555
H38 C47 1_555 1_555
C48 C47 1_555 1_555
H39 C48 1_555 1_555
C49 C48 1_555 1_555
H40 C49 1_555 1_555
C50 C41 1_555 1_555
C51 H41 1_555 1_555
Cl1 C51 1_555 1_555
Cl2 C51 1_555 1_555
Cl3 C51 1_555 1_555
N1 C16 1_555 1_555
N2 C19 1_555 1_555
N3 C20 1_555 1_555
N4 C21 1_555 1_555
N5 C22 1_555 1_555
N6 C31 1_555 1_555
O1 C21 1_555 1_555
O2 C22 1_555 1_555
O4 C24 1_555 1_555
O5 C28 1_555 1_555
O6 C28 1_555 1_555
C5 C10 1_555 1_555
C9 C10 1_555 1_555
C17 C18 1_555 1_555
C19 N1 1_555 1_555
C20 N1 1_555 1_555
C23 N2 1_555 1_555
C23 N3 1_555 1_555
C25 O4 1_555 1_555
C27 N4 1_555 1_555
C27 N5 1_555 1_555
C29 O6 1_555 1_555
C31 N4 1_555 1_555
C32 N5 1_555 1_555
C32 N6 1_555 1_555
C33 N6 1_555 1_555
C37 C38 1_555 1_555
C45 C50 1_555 1_555
C49 C50 1_555 1_555

#END
