
#######################################################################
#
#                 Cambridge Crystallographic Data Centre
#                                CCDC 
#
#######################################################################
#
# If this CIF has been generated from an entry in the Cambridge 
# Structural Database, then it will include bibliographic, chemical, 
# crystal, experimental, refinement or atomic coordinate data resulting 
# from the CCDC's data processing and validation procedures.
#
#######################################################################

data_XORSUT
_chemical_formula_moiety         'C33 H36 O2'
_chemical_name_systematic        
1-(3-Hydroxy-3,3-bis(4-t-butylphenyl)-1-propen-1-yl)-2-naphthol
_symmetry_cell_setting           monoclinic
_symmetry_space_group_name_H-M   'P 21/c'
_symmetry_Int_Tables_number      14
_space_group_name_Hall           '-P 2ybc'
loop_
_symmetry_equiv_pos_site_id
_symmetry_equiv_pos_as_xyz
1 x,y,z
2 -x,1/2+y,1/2-z
3 -x,-y,-z
4 x,1/2-y,1/2+z
_cell_length_a                   14.358(3)
_cell_length_b                   7.6725(15)
_cell_length_c                   24.470(5)
_cell_angle_alpha                90
_cell_angle_beta                 97.147(4)
_cell_angle_gamma                90
_cell_volume                     2674.71
_exptl_crystal_colour            colorless
_exptl_crystal_description       block
_chemical_melting_point          '194-195 deg.C'
_cell_formula_units_Z            4
loop_
_atom_site_label
_atom_site_type_symbol
_atom_site_fract_x
_atom_site_fract_y
_atom_site_fract_z
O1 O -0.03545(13) 0.4432(2) 0.56858(7)
H1 H -0.0532 0.5378 0.5556
O2 O 0.07966(12) 0.2899(2) 0.50095(6)
H2 H 0.0396 0.3362 0.5172
C1 C 0.00912(18) 0.4667(3) 0.62109(11)
C2 C 0.0045(2) 0.6296(3) 0.64657(13)
H3 H -0.0272 0.7212 0.6275
C3 C 0.0457(2) 0.6540(4) 0.69855(14)
H4 H 0.0419 0.7626 0.7150
C4 C 0.0947(2) 0.5178(4) 0.72842(12)
C5 C 0.1375(3) 0.5384(5) 0.78252(14)
H5 H 0.1326 0.6451 0.8000
C6 C 0.1857(3) 0.4084(6) 0.81009(14)
H6 H 0.2132 0.4254 0.8461
C7 C 0.1942(2) 0.2461(5) 0.78395(13)
H7 H 0.2287 0.1568 0.8025
C8 C 0.1521(2) 0.2205(4) 0.73179(11)
H8 H 0.1577 0.1126 0.7152
C9 C 0.10004(18) 0.3538(3) 0.70207(11)
C10 C 0.05613(17) 0.3294(3) 0.64727(10)
C11 C 0.05825(18) 0.1542(3) 0.62207(10)
H9 H 0.0273 0.0679 0.6395
C12 C 0.09712(17) 0.1009(3) 0.57880(10)
H10 H 0.0912 -0.0173 0.5706
C13 C 0.15029(16) 0.2087(3) 0.54069(9)
C14 C 0.21209(16) 0.3435(3) 0.57321(9)
C15 C 0.21165(18) 0.5181(3) 0.55968(10)
H11 H 0.1729 0.5573 0.5288
C16 C 0.26783(19) 0.6351(3) 0.59126(10)
H12 H 0.2656 0.7521 0.5813
C17 C 0.32763(17) 0.5842(3) 0.63747(10)
C18 C 0.32881(18) 0.4087(3) 0.64982(10)
H13 H 0.3688 0.3684 0.6800
C19 C 0.27238(17) 0.2919(3) 0.61863(10)
H14 H 0.2749 0.1747 0.6284
C20 C 0.3861(2) 0.7180(3) 0.67312(10)
C21 C 0.3179(3) 0.8355(4) 0.69999(14)
H15 H 0.2743 0.8882 0.6719
H16 H 0.3526 0.9249 0.7211
H17 H 0.2841 0.7668 0.7238
C22 C 0.4522(3) 0.6363(4) 0.71869(14)
H18 H 0.4169 0.5691 0.7420
H19 H 0.4861 0.7262 0.7400
H20 H 0.4956 0.5617 0.7031
C23 C 0.4406(3) 0.8315(5) 0.63795(15)
H21 H 0.4862 0.7619 0.6224
H22 H 0.4719 0.9221 0.6602
H23 H 0.3983 0.8828 0.6089
C24 C 0.20647(17) 0.0896(3) 0.50655(9)
C25 C 0.30172(18) 0.1025(3) 0.50626(11)
H24 H 0.3345 0.1922 0.5257
C26 C 0.34993(19) -0.0159(3) 0.47757(11)
H25 H 0.4145 -0.0028 0.4782
C27 C 0.30627(18) -0.1524(3) 0.44808(9)
C28 C 0.20996(18) -0.1589(3) 0.44622(10)
H26 H 0.1768 -0.2444 0.4250
C29 C 0.16145(18) -0.0420(3) 0.47498(10)
H27 H 0.0966 -0.0522 0.4731
C30 C 0.36071(18) -0.2905(3) 0.42006(10)
C31 C 0.3317(5) -0.4741(6) 0.4351(4)
H28 H 0.2655 -0.4886 0.4246
H29 H 0.3461 -0.4911 0.4741
H30 H 0.3653 -0.5581 0.4160
C32 C 0.3425(6) -0.2722(11) 0.35725(19)
H31 H 0.3746 -0.3635 0.3404
H32 H 0.3652 -0.1611 0.3466
H33 H 0.2763 -0.2804 0.3455
C33 C 0.4680(3) -0.2801(8) 0.4353(3)
H34 H 0.4830 -0.2849 0.4747
H35 H 0.4908 -0.1726 0.4219
H36 H 0.4972 -0.3763 0.4190
C34? C 0.2953(6) -0.4210(11) 0.3891(4)
C35? C 0.4188(7) -0.1953(11) 0.3811(4)
C36? C 0.4256(6) -0.3764(10) 0.4661(3)
H37? H 0.2540 -0.3618 0.3612
H38? H 0.2589 -0.4778 0.4143
H39? H 0.3313 -0.5062 0.3721
H40? H 0.4599 -0.2766 0.3663
H41? H 0.4554 -0.1056 0.4010
H42? H 0.3776 -0.1438 0.3516
H43? H 0.3894 -0.4197 0.4936
H44? H 0.4703 -0.2925 0.4825
H45? H 0.4583 -0.4713 0.4514
loop_
_geom_bond_atom_site_label_1
_geom_bond_atom_site_label_2
_geom_bond_site_symmetry_1
_geom_bond_site_symmetry_2
O1 H1 1_555 1_555
O2 H2 1_555 1_555
C1 O1 1_555 1_555
C2 C1 1_555 1_555
H3 C2 1_555 1_555
C3 C2 1_555 1_555
H4 C3 1_555 1_555
C4 C3 1_555 1_555
C5 C4 1_555 1_555
H5 C5 1_555 1_555
C6 C5 1_555 1_555
H6 C6 1_555 1_555
C7 C6 1_555 1_555
H7 C7 1_555 1_555
C8 C7 1_555 1_555
H8 C8 1_555 1_555
C9 C4 1_555 1_555
C10 C1 1_555 1_555
C11 C10 1_555 1_555
H9 C11 1_555 1_555
C12 C11 1_555 1_555
H10 C12 1_555 1_555
C13 O2 1_555 1_555
C14 C13 1_555 1_555
C15 C14 1_555 1_555
H11 C15 1_555 1_555
C16 C15 1_555 1_555
H12 C16 1_555 1_555
C17 C16 1_555 1_555
C18 C17 1_555 1_555
H13 C18 1_555 1_555
C19 C14 1_555 1_555
H14 C19 1_555 1_555
C20 C17 1_555 1_555
C21 C20 1_555 1_555
H15 C21 1_555 1_555
H16 C21 1_555 1_555
H17 C21 1_555 1_555
C22 C20 1_555 1_555
H18 C22 1_555 1_555
H19 C22 1_555 1_555
H20 C22 1_555 1_555
C23 C20 1_555 1_555
H21 C23 1_555 1_555
H22 C23 1_555 1_555
H23 C23 1_555 1_555
C24 C13 1_555 1_555
C25 C24 1_555 1_555
H24 C25 1_555 1_555
C26 C25 1_555 1_555
H25 C26 1_555 1_555
C27 C26 1_555 1_555
C28 C27 1_555 1_555
H26 C28 1_555 1_555
C29 C24 1_555 1_555
H27 C29 1_555 1_555
C30 C27 1_555 1_555
C31 C30 1_555 1_555
H28 C31 1_555 1_555
H29 C31 1_555 1_555
H30 C31 1_555 1_555
C32 C30 1_555 1_555
H31 C32 1_555 1_555
H32 C32 1_555 1_555
H33 C32 1_555 1_555
C33 C30 1_555 1_555
H34 C33 1_555 1_555
H35 C33 1_555 1_555
H36 C33 1_555 1_555
C8 C9 1_555 1_555
C9 C10 1_555 1_555
C12 C13 1_555 1_555
C18 C19 1_555 1_555
C28 C29 1_555 1_555

#END
