
#######################################################################
#
#                 Cambridge Crystallographic Data Centre
#                                CCDC 
#
#######################################################################
#
# If this CIF has been generated from an entry in the Cambridge 
# Structural Database, then it will include bibliographic, chemical, 
# crystal, experimental, refinement or atomic coordinate data resulting 
# from the CCDC's data processing and validation procedures.
#
#######################################################################

data_XORVAC
_chemical_name_common            
7-ethoxycarbonyl-2-methyl-6-methylthio-1H-imidazo[1,2-b]pyrazole
_chemical_formula_moiety         'C10 H13 N3 O2 S1'
_chemical_name_systematic        
'Ethyl 2-methyl-6-(methylsulfanyl)-1H-imidazo[1,2-b]pyrazole-7-carboxylate'
_symmetry_cell_setting           triclinic
_symmetry_space_group_name_H-M   'P -1'
_symmetry_Int_Tables_number      2
_space_group_name_Hall           '-P 1'
loop_
_symmetry_equiv_pos_site_id
_symmetry_equiv_pos_as_xyz
1 x,y,z
2 -x,-y,-z
_cell_length_a                   8.0461(10)
_cell_length_b                   8.5534(11)
_cell_length_c                   9.5605(12)
_cell_angle_alpha                64.804(2)
_cell_angle_beta                 74.231(2)
_cell_angle_gamma                76.885(2)
_cell_volume                     568.268
_chemical_melting_point          '232-234 deg.C'
_cell_formula_units_Z            2
loop_
_atom_site_label
_atom_site_type_symbol
_atom_site_fract_x
_atom_site_fract_y
_atom_site_fract_z
C1 C 0.1903(3) 0.3979(3) 0.1890(3)
H1 H 0.1578 0.5153 0.1202
H2 H 0.3134 0.3666 0.1607
H3 H 0.1612 0.3895 0.2961
S1 S 0.07546(7) 0.25292(6) 0.17052(6)
N1 N 0.2845(2) 0.0430(2) 0.37260(19)
O1 O -0.11871(18) -0.01488(18) 0.20563(18)
N2 N 0.2349(2) -0.3914(2) 0.5581(2)
N3 N 0.3064(2) -0.1318(2) 0.46862(19)
O2 O -0.0844(2) -0.29857(19) 0.3642(2)
C2 C -0.0418(2) -0.1530(2) 0.3109(2)
C3 C 0.4335(3) -0.5643(3) 0.7501(3)
H4 H 0.3736 -0.6566 0.7641
H5 H 0.4134 -0.5511 0.8484
H6 H 0.5561 -0.5919 0.7155
C4 C 0.1554(2) 0.0537(2) 0.3039(2)
C5 C 0.1986(2) -0.2250(2) 0.4597(2)
C6 C 0.0949(2) -0.1093(2) 0.3522(2)
C7 C 0.3677(2) -0.3993(3) 0.6301(2)
C8 C 0.4135(2) -0.2373(3) 0.5735(2)
H7 H 0.4992 -0.2040 0.5998
C9 C -0.3295(3) 0.1319(3) 0.0461(3)
H8 H -0.4255 0.1189 0.0120
H9 H -0.2386 0.1757 -0.0436
H10 H -0.3679 0.2120 0.0980
C10 C -0.2621(3) -0.0407(3) 0.1580(3)
H11 H -0.3530 -0.0864 0.2493
H12 H -0.2233 -0.1230 0.1070
H13 H 0.187(3) -0.469(3) 0.574(3)
loop_
_geom_bond_atom_site_label_1
_geom_bond_atom_site_label_2
_geom_bond_site_symmetry_1
_geom_bond_site_symmetry_2
C1 H1 1_555 1_555
H2 C1 1_555 1_555
H3 C1 1_555 1_555
S1 C1 1_555 1_555
N1 N3 1_555 1_555
O1 C2 1_555 1_555
N2 C5 1_555 1_555
N3 C5 1_555 1_555
O2 C2 1_555 1_555
C2 C6 1_555 1_555
C3 H4 1_555 1_555
H5 C3 1_555 1_555
H6 C3 1_555 1_555
C4 S1 1_555 1_555
C5 C6 1_555 1_555
C6 C4 1_555 1_555
C7 N2 1_555 1_555
C8 N3 1_555 1_555
H7 C8 1_555 1_555
C9 H8 1_555 1_555
H9 C9 1_555 1_555
H10 C9 1_555 1_555
C10 O1 1_555 1_555
H11 C10 1_555 1_555
H12 C10 1_555 1_555
H13 N2 1_555 1_555
N1 C4 1_555 1_555
C3 C7 1_555 1_555
C7 C8 1_555 1_555
C9 C10 1_555 1_555

#END
