
#######################################################################
#
#                 Cambridge Crystallographic Data Centre
#                                CCDC 
#
#######################################################################
#
# If this CIF has been generated from an entry in the Cambridge 
# Structural Database, then it will include bibliographic, chemical, 
# crystal, experimental, refinement or atomic coordinate data resulting 
# from the CCDC's data processing and validation procedures.
#
#######################################################################

data_XORXOR
_chemical_formula_moiety         'C27 H26 Cl2 N1 O5 P1 S1'
_chemical_name_systematic        
'Diethyl (3-(\b-(2,4-dichlorophenyl)vinyl)-N-phenylsulfonyl-indol-2-ylmethyl)phosphonate'
_symmetry_cell_setting           monoclinic
_symmetry_space_group_name_H-M   'P 21/n'
_symmetry_Int_Tables_number      14
_space_group_name_Hall           '-P 2yn'
loop_
_symmetry_equiv_pos_site_id
_symmetry_equiv_pos_as_xyz
1 x,y,z
2 1/2+x,1/2-y,1/2+z
3 -x,-y,-z
4 1/2-x,1/2+y,1/2-z
_cell_length_a                   16.608(2)
_cell_length_b                   8.3570(10)
_cell_length_c                   19.647(5)
_cell_angle_alpha                90
_cell_angle_beta                 93.300(10)
_cell_angle_gamma                90
_cell_volume                     2722.35
_exptl_crystal_colour            colorless
_exptl_crystal_description       tablet
_cell_formula_units_Z            4
_exptl_crystal_recrystallization_method 'ethyl acetate'
loop_
_atom_site_label
_atom_site_type_symbol
_atom_site_fract_x
_atom_site_fract_y
_atom_site_fract_z
P1 P 0.31476(6) -0.40244(15) 0.20785(5)
S1 S 0.56810(6) -0.49475(14) 0.26025(5)
Cl1 Cl 0.03728(8) -1.20568(18) -0.03072(7)
Cl2 Cl 0.31530(9) -0.9612(2) -0.10733(6)
N1 N 0.51749(18) -0.5255(4) 0.18548(15)
O1 O 0.26812(19) -0.3479(4) 0.26437(15)
O2 O 0.64009(18) -0.4126(4) 0.24564(16)
O3 O 0.51363(18) -0.4218(4) 0.30449(15)
O4 O 0.3698(2) -0.2740(4) 0.17576(16)
O5 O 0.26459(18) -0.4594(5) 0.14249(17)
C1 C 0.4410(2) -0.6030(4) 0.17979(18)
C2 C 0.4326(2) -0.6851(5) 0.11981(18)
C3 C 0.5067(2) -0.6632(5) 0.08469(18)
C4 C 0.5578(2) -0.5671(5) 0.12538(19)
C5 C 0.6326(2) -0.5164(6) 0.1048(2)
H1 H 0.6655 -0.4485 0.1316
C6 C 0.6557(3) -0.5718(7) 0.0426(3)
H2 H 0.7062 -0.5439 0.0283
C7 C 0.6061(3) -0.6668(7) 0.0015(2)
H3 H 0.6229 -0.6995 -0.0407
C8 C 0.5322(3) -0.7139(6) 0.0219(2)
H4 H 0.4992 -0.7792 -0.0061
C9 C 0.5921(2) -0.6862(5) 0.2918(2)
C10 C 0.5567(3) -0.7392(7) 0.3484(3)
H5 H 0.5200 -0.6750 0.3697
C11 C 0.5760(4) -0.8894(8) 0.3737(3)
H6 H 0.5531 -0.9258 0.4130
C12 C 0.6287(4) -0.9853(7) 0.3412(3)
H7 H 0.6401 -1.0878 0.3575
C13 C 0.6642(3) -0.9304(7) 0.2854(3)
H8 H 0.7006 -0.9948 0.2638
C14 C 0.6466(3) -0.7804(6) 0.2607(2)
H9 H 0.6717 -0.7425 0.2227
C15 C 0.3776(2) -0.5725(5) 0.22920(19)
H10 H 0.4036 -0.5561 0.2741
H11 H 0.3437 -0.6668 0.2314
C16 C 0.4035(4) -0.1393(7) 0.2100(3)
H12 H 0.4166 -0.1662 0.2574
H13 H 0.3644 -0.0530 0.2087
C17 C 0.4773(4) -0.0859(7) 0.1778(4)
H14 H 0.5167 -0.1701 0.1806
H15 H 0.4988 0.0070 0.2012
H16 H 0.4644 -0.0601 0.1309
C18 C 0.1903(4) -0.4472(13) 0.1260(4)
H17 H 0.1804 -0.3347 0.1167
H18 H 0.1623 -0.4726 0.1666
C19 C 0.1507(4) -0.5314(8) 0.0726(3)
H19 H 0.1897 -0.5859 0.0468
H20 H 0.1205 -0.4580 0.0435
H21 H 0.1147 -0.6081 0.0908
C20 C 0.3606(2) -0.7712(5) 0.0984(2)
H22 H 0.3218 -0.7783 0.1306
C21 C 0.3420(2) -0.8415(5) 0.0395(2)
H23 H 0.3790 -0.8328 0.0059
C22 C 0.2681(2) -0.9320(5) 0.0224(2)
C23 C 0.2112(3) -0.9613(6) 0.0703(2)
H24 H 0.2209 -0.9241 0.1147
C24 C 0.1414(3) -1.0431(6) 0.0539(2)
H25 H 0.1043 -1.0594 0.0869
C25 C 0.1258(3) -1.1009(5) -0.0101(2)
C26 C 0.1792(3) -1.0764(5) -0.0599(2)
H26 H 0.1686 -1.1155 -0.1038
C27 C 0.2494(2) -0.9919(5) -0.0432(2)
loop_
_geom_bond_atom_site_label_1
_geom_bond_atom_site_label_2
_geom_bond_site_symmetry_1
_geom_bond_site_symmetry_2
P1 O1 1_555 1_555
S1 N1 1_555 1_555
Cl1 C25 1_555 1_555
Cl2 C27 1_555 1_555
N1 C1 1_555 1_555
O2 S1 1_555 1_555
O3 S1 1_555 1_555
O4 P1 1_555 1_555
O5 P1 1_555 1_555
C1 C2 1_555 1_555
C2 C3 1_555 1_555
C3 C4 1_555 1_555
C4 N1 1_555 1_555
C5 C4 1_555 1_555
H1 C5 1_555 1_555
C6 C5 1_555 1_555
H2 C6 1_555 1_555
C7 C6 1_555 1_555
H3 C7 1_555 1_555
C8 C3 1_555 1_555
H4 C8 1_555 1_555
C9 S1 1_555 1_555
C10 C9 1_555 1_555
H5 C10 1_555 1_555
C11 C10 1_555 1_555
H6 C11 1_555 1_555
C12 C11 1_555 1_555
H7 C12 1_555 1_555
C13 C12 1_555 1_555
H8 C13 1_555 1_555
C14 C9 1_555 1_555
H9 C14 1_555 1_555
C15 P1 1_555 1_555
H10 C15 1_555 1_555
H11 C15 1_555 1_555
C16 O4 1_555 1_555
H12 C16 1_555 1_555
H13 C16 1_555 1_555
C17 C16 1_555 1_555
H14 C17 1_555 1_555
H15 C17 1_555 1_555
H16 C17 1_555 1_555
C18 O5 1_555 1_555
H17 C18 1_555 1_555
H18 C18 1_555 1_555
C19 C18 1_555 1_555
H19 C19 1_555 1_555
H20 C19 1_555 1_555
H21 C19 1_555 1_555
C20 C2 1_555 1_555
H22 C20 1_555 1_555
C21 C20 1_555 1_555
H23 C21 1_555 1_555
C22 C21 1_555 1_555
C23 C22 1_555 1_555
H24 C23 1_555 1_555
C24 C23 1_555 1_555
H25 C24 1_555 1_555
C25 C24 1_555 1_555
C26 C25 1_555 1_555
H26 C26 1_555 1_555
C27 C22 1_555 1_555
C1 C15 1_555 1_555
C7 C8 1_555 1_555
C13 C14 1_555 1_555
C26 C27 1_555 1_555

#END
