
#######################################################################
#
#                 Cambridge Crystallographic Data Centre
#                                CCDC 
#
#######################################################################
#
# If this CIF has been generated from an entry in the Cambridge 
# Structural Database, then it will include bibliographic, chemical, 
# crystal, experimental, refinement or atomic coordinate data resulting 
# from the CCDC's data processing and validation procedures.
#
#######################################################################

data_XORYOS
_chemical_formula_moiety         'C8 H5 I2 N1 O4'
_chemical_name_systematic        '2,6-Di-iodo-4-nitrophenyl acetate'
_symmetry_cell_setting           orthorhombic
_symmetry_space_group_name_H-M   'P n m a'
_symmetry_Int_Tables_number      62
_space_group_name_Hall           '-P 2ac 2n'
loop_
_symmetry_equiv_pos_site_id
_symmetry_equiv_pos_as_xyz
1 x,y,z
2 1/2+x,y,1/2-z
3 1/2-x,1/2+y,1/2+z
4 x,1/2-y,z
5 -x,-y,-z
6 1/2-x,-y,1/2+z
7 1/2+x,1/2-y,1/2-z
8 -x,1/2+y,-z
_cell_length_a                   8.0608(9)
_cell_length_b                   12.4501(14)
_cell_length_c                   11.6790(13)
_cell_angle_alpha                90
_cell_angle_beta                 90
_cell_angle_gamma                90
_cell_volume                     1172.08
_exptl_crystal_colour            colorless
_exptl_crystal_description       block
_chemical_melting_point          409-411K
_cell_formula_units_Z            4
_exptl_crystal_recrystallization_method ethanol
loop_
_atom_site_label
_atom_site_type_symbol
_atom_site_fract_x
_atom_site_fract_y
_atom_site_fract_z
C1 C 0.1503(5) 0.2500 0.1689(3)
O1 O 0.1962(3) 0.2500 0.0539(2)
C2 C 0.0705(6) 0.2500 -0.0268(3)
O2 O -0.0711(5) 0.2500 0.0010(3)
C3 C 0.1402(6) 0.2500 -0.1442(3)
C4 C 0.1341(3) 0.3471(2) 0.2269(2)
I1 I 0.16877(4) 0.49229(2) 0.14194(2)
C5 C 0.1006(4) 0.3473(3) 0.3440(2)
C6 C 0.0833(5) 0.2500 0.3985(3)
N1 N 0.0485(5) 0.2500 0.5223(3)
O3 O 0.0328(4) 0.3362(3) 0.5705(2)
H3 H 0.1657 0.3223 -0.1666
H4 H 0.0903 0.4114 0.3842
H3C H 0.1657 0.1777 -0.1666
C5C C 0.1006(4) 0.1527(3) 0.3440(2)
C4C C 0.1341(3) 0.1529(2) 0.2269(2)
I1C I 0.16877(4) 0.00771(2) 0.14194(2)
H4C H 0.0903 0.0886 0.3842
O3C O 0.0328(4) 0.1638(3) 0.5705(2)
H1? H 0.0605 0.2202 -0.1963
H2? H 0.2395 0.2075 -0.1457
loop_
_geom_bond_atom_site_label_1
_geom_bond_atom_site_label_2
_geom_bond_site_symmetry_1
_geom_bond_site_symmetry_2
C1 O1 1_555 1_555
O1 C2 1_555 1_555
C2 O2 1_555 1_555
C3 C2 1_555 1_555
C4 C1 1_555 1_555
I1 C4 1_555 1_555
C5 C4 1_555 1_555
C6 C5 1_555 1_555
N1 C6 1_555 1_555
O3 N1 1_555 1_555
H3 C3 1_555 1_555
H4 C5 1_555 1_555
H3C C3 1_555 1_555
C5C C6 1_555 1_555
C4C C1 1_555 1_555
I1C C4C 1_555 1_555
H4C C5C 1_555 1_555
O3C N1 1_555 1_555
C5C C4C 1_555 1_555

#END
