
#######################################################################
#
#                 Cambridge Crystallographic Data Centre
#                                CCDC 
#
#######################################################################
#
# If this CIF has been generated from an entry in the Cambridge 
# Structural Database, then it will include bibliographic, chemical, 
# crystal, experimental, refinement or atomic coordinate data resulting 
# from the CCDC's data processing and validation procedures.
#
#######################################################################

data_XORZUA
_chemical_name_common            
"trans-anti-3,3'-bis(n-propyl)-3,3'-dihydroxy-5,5',6,6'-tetramethoxy-[2,2'-bi-3H-indenylidene]-1,1'-dione dichloromethane solvate"
_chemical_formula_moiety         'C28 H32 O8,C1 H2 Cl2'
_chemical_name_systematic        
'3-Hydroxy-2-(1-hydroxy-5,6-dimethoxy-3-oxo-1-n-propyl-1,3-dihydro-2H-inden-2-ylidene)-5,6-dimethoxy-3-n-propyl-1-indanone dichloromethane solvate'
_symmetry_cell_setting           monoclinic
_symmetry_space_group_name_H-M   'C 2/c'
_symmetry_Int_Tables_number      15
_space_group_name_Hall           '-C 2yn'
loop_
_symmetry_equiv_pos_site_id
_symmetry_equiv_pos_as_xyz
1 x,y,z
2 -x,y,1/2-z
3 1/2+x,1/2+y,z
4 1/2-x,1/2+y,1/2-z
5 -x,-y,-z
6 x,-y,1/2+z
7 1/2-x,1/2-y,-z
8 1/2+x,1/2-y,1/2+z
_cell_length_a                   11.5749(13)
_cell_length_b                   13.6614(15)
_cell_length_c                   18.998(3)
_cell_angle_alpha                90
_cell_angle_beta                 105.114(1)
_cell_angle_gamma                90
_cell_volume                     2900.22
_exptl_crystal_colour            brown
_exptl_crystal_description       block
_chemical_melting_point          '292-294 deg.C'
_cell_formula_units_Z            4
_chemical_properties_physical    light-sensitive
_exptl_crystal_recrystallization_method dichloromethane
_exptl_crystal_preparation       'photochromic and photomagnetic'
loop_
_atom_site_label
_atom_site_type_symbol
_atom_site_fract_x
_atom_site_fract_y
_atom_site_fract_z
Cl1 Cl 0.5000 0.38124(14) 0.2500
Cl2 Cl 0.5000 0.58956(14) 0.2500
C15 C 0.4245(5) 0.4785(4) 0.2577(3)
H17 H 0.3625 0.4651 0.2262
H18 H 0.4033 0.4728 0.2902
C15A C 0.5755(5) 0.4785(4) 0.2423(3)
H17A H 0.6375 0.4651 0.2738
H18A H 0.5967 0.4728 0.2098
O1 O 0.23744(14) -0.41255(10) 0.35252(8)
O2 O 0.32232(14) -0.46743(10) 0.48392(8)
O3 O 0.53179(13) -0.13212(9) 0.60834(7)
O4 O 0.34015(12) -0.03185(10) 0.36833(7)
H1 H 0.3623 0.0245 0.3646
C1 C 0.30008(16) -0.34272(14) 0.39695(10)
C2 C 0.32270(17) -0.24999(14) 0.37438(10)
H2 H 0.2945 -0.2310 0.3259
C3 C 0.38902(15) -0.18592(13) 0.42653(9)
C4 C 0.42589(15) -0.21257(13) 0.49883(9)
C5 C 0.40580(16) -0.30674(13) 0.52250(10)
H3 H 0.4325 -0.3243 0.5714
C6 C 0.34531(17) -0.37235(13) 0.47105(10)
C7 C 0.3797(2) -0.50546(16) 0.55438(13)
H4 H 0.3477 -0.4739 0.5904
H5 H 0.3656 -0.5747 0.5551
H6 H 0.4641 -0.4934 0.5650
C8 C 0.1741(3) -0.38426(19) 0.28066(12)
H7 H 0.2301 -0.3648 0.2539
H8 H 0.1275 -0.4385 0.2565
H9 H 0.1221 -0.3304 0.2832
C9 C 0.43627(16) -0.08700(13) 0.41246(9)
C10 C 0.48385(15) -0.04663(13) 0.49034(9)
C11 C 0.48665(16) -0.13095(13) 0.54223(9)
C12 C 0.53651(18) -0.09899(14) 0.37324(10)
H10 H 0.5705 -0.0350 0.3694
H11 H 0.5006 -0.1218 0.3241
C13 C 0.6376(2) -0.16799(17) 0.40837(14)
H12 H 0.6048 -0.2324 0.4126
H13 H 0.6758 -0.1450 0.4572
C14 C 0.7308(3) -0.1762(2) 0.36572(19)
H14 H 0.7648 -0.1129 0.3621
H15 H 0.7927 -0.2204 0.3902
H16 H 0.6940 -0.2006 0.3177
O1D O 0.76256(14) 0.41255(10) 0.64748(8)
O2D O 0.67768(14) 0.46743(10) 0.51608(8)
O3D O 0.46821(13) 0.13212(9) 0.39166(7)
O4D O 0.65985(12) 0.03185(10) 0.63167(7)
H1D H 0.6377 -0.0245 0.6354
C1D C 0.69992(16) 0.34272(14) 0.60305(10)
C2D C 0.67730(17) 0.24999(14) 0.62562(10)
H2D H 0.7055 0.2310 0.6741
C3D C 0.61098(15) 0.18592(13) 0.57347(9)
C4D C 0.57411(15) 0.21257(13) 0.50117(9)
C5D C 0.59420(16) 0.30674(13) 0.47750(10)
H3D H 0.5675 0.3243 0.4286
C6D C 0.65469(17) 0.37235(13) 0.52895(10)
C7D C 0.6203(2) 0.50546(16) 0.44562(13)
H4D H 0.6523 0.4739 0.4096
H5D H 0.6344 0.5747 0.4449
H6D H 0.5359 0.4934 0.4350
C8D C 0.8259(3) 0.38426(19) 0.71934(12)
H7D H 0.7699 0.3648 0.7461
H8D H 0.8725 0.4385 0.7435
H9D H 0.8779 0.3304 0.7168
C9D C 0.56373(16) 0.08700(13) 0.58754(9)
C10D C 0.51615(15) 0.04663(13) 0.50966(9)
C11D C 0.51335(16) 0.13095(13) 0.45777(9)
C12D C 0.46349(18) 0.09899(14) 0.62676(10)
H10D H 0.4295 0.0350 0.6306
H11D H 0.4994 0.1218 0.6759
C13D C 0.3624(2) 0.16799(17) 0.59163(14)
H12D H 0.3952 0.2324 0.5874
H13D H 0.3242 0.1450 0.5428
C14D C 0.2692(3) 0.1762(2) 0.63428(19)
H14D H 0.2352 0.1129 0.6379
H15D H 0.2073 0.2204 0.6098
H16D H 0.3060 0.2006 0.6823
loop_
_geom_bond_atom_site_label_1
_geom_bond_atom_site_label_2
_geom_bond_site_symmetry_1
_geom_bond_site_symmetry_2
O1 C1 1_555 1_555
O2 C6 1_555 1_555
O3 C11 1_555 1_555
O4 H1 1_555 1_555
C1 C2 1_555 1_555
C2 H2 1_555 1_555
C3 C2 1_555 1_555
C4 C3 1_555 1_555
C5 C4 1_555 1_555
H3 C5 1_555 1_555
C6 C1 1_555 1_555
C7 O2 1_555 1_555
H4 C7 1_555 1_555
H5 C7 1_555 1_555
H6 C7 1_555 1_555
C8 O1 1_555 1_555
H7 C8 1_555 1_555
H8 C8 1_555 1_555
H9 C8 1_555 1_555
C9 O4 1_555 1_555
C10 C9 1_555 1_555
C11 C4 1_555 1_555
C12 C9 1_555 1_555
H10 C12 1_555 1_555
H11 C12 1_555 1_555
C13 C12 1_555 1_555
H12 C13 1_555 1_555
H13 C13 1_555 1_555
C14 C13 1_555 1_555
H14 C14 1_555 1_555
H15 C14 1_555 1_555
H16 C14 1_555 1_555
Cl1 C15 1_555 1_555
Cl2 C15 1_555 1_555
C15 H17 1_555 1_555
H18 C15 1_555 1_555
O1D C1D 1_555 1_555
O2D C6D 1_555 1_555
O3D C11D 1_555 1_555
O4D H1D 1_555 1_555
C1D C2D 1_555 1_555
C2D H2D 1_555 1_555
C3D C2D 1_555 1_555
C4D C3D 1_555 1_555
C5D C4D 1_555 1_555
H3D C5D 1_555 1_555
C6D C1D 1_555 1_555
C7D O2D 1_555 1_555
H4D C7D 1_555 1_555
H5D C7D 1_555 1_555
H6D C7D 1_555 1_555
C8D O1D 1_555 1_555
H7D C8D 1_555 1_555
H8D C8D 1_555 1_555
H9D C8D 1_555 1_555
C9D O4D 1_555 1_555
C10D C10 1_555 1_555
C11D C4D 1_555 1_555
C12D C9D 1_555 1_555
H10D C12D 1_555 1_555
H11D C12D 1_555 1_555
C13D C12D 1_555 1_555
H12D C13D 1_555 1_555
H13D C13D 1_555 1_555
C14D C13D 1_555 1_555
H14D C14D 1_555 1_555
H15D C14D 1_555 1_555
H16D C14D 1_555 1_555
C15A Cl1 1_555 1_555
H17A C15A 1_555 1_555
H18A C15A 1_555 1_555
C3 C9 1_555 1_555
C5 C6 1_555 1_555
C10 C11 1_555 1_555
Cl2 C15A 1_555 1_555
C3D C9D 1_555 1_555
C5D C6D 1_555 1_555
C9D C10D 1_555 1_555
C10D C11D 1_555 1_555

#END
