
#######################################################################
#
#                 Cambridge Crystallographic Data Centre
#                                CCDC 
#
#######################################################################
#
# If this CIF has been generated from an entry in the Cambridge 
# Structural Database, then it will include bibliographic, chemical, 
# crystal, experimental, refinement or atomic coordinate data resulting 
# from the CCDC's data processing and validation procedures.
#
#######################################################################

data_XORZOT
_chemical_formula_moiety         'C24 H17 N1 O3'
_chemical_name_systematic        
11-Methyl-12a-phenyl-9a,12a-dihydrophenanthro(9',10':5,6)-(1,4)dioxino(2,3-d)oxazole
_symmetry_cell_setting           orthorhombic
_symmetry_space_group_name_H-M   'P 21 21 21'
_symmetry_Int_Tables_number      19
_space_group_name_Hall           'P 2ac 2ab'
loop_
_symmetry_equiv_pos_site_id
_symmetry_equiv_pos_as_xyz
1 x,y,z
2 1/2-x,-y,1/2+z
3 -x,1/2+y,1/2-z
4 1/2+x,1/2-y,-z
_cell_length_a                   9.7633(4)
_cell_length_b                   10.9896(4)
_cell_length_c                   16.6210(7)
_cell_angle_alpha                90
_cell_angle_beta                 90
_cell_angle_gamma                90
_cell_volume                     1783.35
_exptl_crystal_colour            colorless
_exptl_crystal_description       slab
_chemical_melting_point          439K
_cell_formula_units_Z            4
_exptl_crystal_recrystallization_method 'acetone/petroleum ether(1:1)'
loop_
_atom_site_label
_atom_site_type_symbol
_atom_site_fract_x
_atom_site_fract_y
_atom_site_fract_z
O1 O 0.6729(3) 0.6238(2) 0.17570(14)
O2 O 0.6269(3) 0.7719(2) 0.30598(15)
O3 O 0.4103(3) 0.6924(3) 0.28999(16)
N1 N 0.4359(4) 0.6013(3) 0.1691(2)
C1 C 0.7268(4) 0.5947(3) 0.2501(2)
C2 C 0.8128(4) 0.4914(3) 0.2546(2)
C3 C 0.8365(4) 0.4169(3) 0.1876(3)
H1 H 0.7943 0.4353 0.1389
C4 C 0.9200(4) 0.3181(4) 0.1925(3)
H2 H 0.9359 0.2702 0.1474
C5 C 0.9812(5) 0.2895(4) 0.2652(4)
H3 H 1.0363 0.2207 0.2693
C6 C 0.9611(4) 0.3618(4) 0.3311(3)
H4 H 1.0032 0.3408 0.3794
C7 C 0.8803(4) 0.4652(4) 0.3285(2)
C8 C 0.8631(4) 0.5488(4) 0.3955(2)
C9 C 0.9335(5) 0.5347(5) 0.4698(3)
H5 H 0.9899 0.4674 0.4773
C10 C 0.9200(5) 0.6177(5) 0.5301(3)
H6 H 0.9675 0.6067 0.5781
C11 C 0.8364(5) 0.7180(5) 0.5206(3)
H7 H 0.8289 0.7745 0.5620
C12 C 0.7649(5) 0.7349(4) 0.4512(2)
H8 H 0.7077 0.8021 0.4456
C13 C 0.7776(4) 0.6506(4) 0.3879(2)
C14 C 0.7072(4) 0.6687(3) 0.3130(2)
C15 C 0.5178(4) 0.7603(4) 0.2525(3)
H9 H 0.4834 0.8416 0.2392
C16 C 0.3698(5) 0.6071(4) 0.2343(3)
C17 C 0.5460(4) 0.6908(3) 0.1740(2)
C18 C 0.5520(4) 0.7733(4) 0.1017(2)
C19 C 0.4348(5) 0.8356(4) 0.0793(2)
H10 H 0.3533 0.8224 0.1069
C20 C 0.4385(6) 0.9175(4) 0.0158(3)
H11 H 0.3594 0.9592 0.0013
C21 C 0.5564(5) 0.9374(4) -0.0253(3)
H12 H 0.5585 0.9927 -0.0676
C22 C 0.6723(5) 0.8755(5) -0.0039(3)
H13 H 0.7528 0.8879 -0.0326
C23 C 0.6715(4) 0.7942(4) 0.0602(2)
H14 H 0.7515 0.7541 0.0749
C24 C 0.2524(5) 0.5318(4) 0.2599(3)
H15 H 0.1744 0.5830 0.2692
H16 H 0.2754 0.4894 0.3086
H17 H 0.2312 0.4738 0.2185
loop_
_geom_bond_atom_site_label_1
_geom_bond_atom_site_label_2
_geom_bond_site_symmetry_1
_geom_bond_site_symmetry_2
O1 C1 1_555 1_555
O2 C14 1_555 1_555
O3 C15 1_555 1_555
N1 C16 1_555 1_555
C1 C2 1_555 1_555
C2 C3 1_555 1_555
C3 H1 1_555 1_555
C4 C3 1_555 1_555
H2 C4 1_555 1_555
C5 C4 1_555 1_555
H3 C5 1_555 1_555
C6 C5 1_555 1_555
H4 C6 1_555 1_555
C7 C2 1_555 1_555
C8 C7 1_555 1_555
C9 C8 1_555 1_555
H5 C9 1_555 1_555
C10 C9 1_555 1_555
H6 C10 1_555 1_555
C11 C10 1_555 1_555
H7 C11 1_555 1_555
C12 C11 1_555 1_555
H8 C12 1_555 1_555
C13 C8 1_555 1_555
C14 C1 1_555 1_555
C15 O2 1_555 1_555
H9 C15 1_555 1_555
C16 O3 1_555 1_555
C17 O1 1_555 1_555
C18 C17 1_555 1_555
C19 C18 1_555 1_555
H10 C19 1_555 1_555
C20 C19 1_555 1_555
H11 C20 1_555 1_555
C21 C20 1_555 1_555
H12 C21 1_555 1_555
C22 C21 1_555 1_555
H13 C22 1_555 1_555
C23 C18 1_555 1_555
H14 C23 1_555 1_555
C24 C16 1_555 1_555
H15 C24 1_555 1_555
H16 C24 1_555 1_555
H17 C24 1_555 1_555
N1 C17 1_555 1_555
C6 C7 1_555 1_555
C12 C13 1_555 1_555
C13 C14 1_555 1_555
C15 C17 1_555 1_555
C22 C23 1_555 1_555

#END
