
#######################################################################
#
#                 Cambridge Crystallographic Data Centre
#                                CCDC 
#
#######################################################################
#
# If this CIF has been generated from an entry in the Cambridge 
# Structural Database, then it will include bibliographic, chemical, 
# crystal, experimental, refinement or atomic coordinate data resulting 
# from the CCDC's data processing and validation procedures.
#
#######################################################################

data_XORZOU
_chemical_name_common            
trans-anti-3,3'-diethyl-3,3'-dihydroxy-5,5',6,6'-tetramethoxy-[2,2'-bi-3H-indenylidene]-1,1'-dione
_chemical_formula_moiety         'C26 H28 O8'
_chemical_name_systematic        
3-Ethyl-2-(1-ethyl-1-hydroxy-5,6-dimethoxy-3-oxo-1,3-dihydro-2H-inden-2-ylidene)-3-hydroxy-5,6-dimethoxy-1-indanone
_symmetry_cell_setting           triclinic
_symmetry_space_group_name_H-M   'P -1'
_symmetry_Int_Tables_number      2
_space_group_name_Hall           '-P 1'
loop_
_symmetry_equiv_pos_site_id
_symmetry_equiv_pos_as_xyz
1 x,y,z
2 -x,-y,-z
_cell_length_a                   8.506(5)
_cell_length_b                   8.845(5)
_cell_length_c                   9.393(6)
_cell_angle_alpha                70.114(10)
_cell_angle_beta                 65.325(8)
_cell_angle_gamma                65.649(9)
_cell_volume                     572.856
_chemical_melting_point          '294-297 deg.C'
_cell_formula_units_Z            1
_chemical_properties_physical    light-sensitive
_exptl_crystal_recrystallization_method dichloromethane
_exptl_crystal_preparation       'photochromic and photomagnetic'
loop_
_atom_site_label
_atom_site_type_symbol
_atom_site_fract_x
_atom_site_fract_y
_atom_site_fract_z
O1 O 0.21539(17) 0.96987(18) 0.96559(16)
O2 O 0.83672(17) 0.95235(17) 0.76502(14)
H1 H 0.8523 0.9804 0.8316
O3 O 0.82263(18) 0.68838(18) 0.34237(15)
O4 O 0.48537(17) 0.71604(17) 0.43121(15)
C1 C 0.3815(2) 0.9327(2) 0.8995(2)
C2 C 0.5199(2) 0.9559(2) 0.9451(2)
C3 C 0.7110(2) 0.8593(2) 0.8439(2)
C4 C 0.6668(2) 0.8279(2) 0.71796(19)
C5 C 0.7885(2) 0.7703(2) 0.5787(2)
H2 H 0.9125 0.7529 0.5497
C6 C 0.7205(2) 0.7394(2) 0.4836(2)
C7 C 0.5312(2) 0.7589(2) 0.5317(2)
C8 C 0.4116(2) 0.8204(2) 0.6674(2)
H3 H 0.2874 0.8376 0.6980
C9 C 0.4822(2) 0.8566(2) 0.7584(2)
C10 C 0.7969(3) 0.6899(2) 0.9463(2)
H4 H 0.9092 0.6271 0.8761
H5 H 0.8287 0.7155 1.0214
C11 C 0.6764(3) 0.5757(3) 1.0401(3)
H6 H 0.5696 0.6322 1.1171
H7 H 0.7432 0.4716 1.0944
H8 H 0.6409 0.5517 0.9677
C12 C 1.0024(3) 0.7009(3) 0.2700(2)
H9 H 0.9989 0.8105 0.2707
H10 H 1.0498 0.6858 0.1617
H11 H 1.0795 0.6148 0.3290
C13 C 0.3036(3) 0.7098(3) 0.4853(3)
H12 H 0.2813 0.6335 0.5872
H13 H 0.2892 0.6706 0.4092
H14 H 0.2182 0.8210 0.4958
O1A O 0.78461(17) 1.03013(18) 1.03441(16)
O2A O 0.16328(17) 1.04765(17) 1.23498(14)
H1A H 0.1477 1.0196 1.1684
O3A O 0.17737(18) 1.31162(18) 1.65763(15)
O4A O 0.51463(17) 1.28396(17) 1.56879(15)
C1A C 0.6185(2) 1.0673(2) 1.1005(2)
C2A C 0.4801(2) 1.0441(2) 1.0549(2)
C3A C 0.2890(2) 1.1407(2) 1.1561(2)
C4A C 0.3332(2) 1.1721(2) 1.28204(19)
C5A C 0.2115(2) 1.2297(2) 1.4213(2)
H2A H 0.0875 1.2471 1.4503
C6A C 0.2795(2) 1.2606(2) 1.5164(2)
C7A C 0.4688(2) 1.2411(2) 1.4683(2)
C8A C 0.5884(2) 1.1796(2) 1.3326(2)
H3A H 0.7126 1.1624 1.3020
C9A C 0.5178(2) 1.1434(2) 1.2416(2)
C10A C 0.2031(3) 1.3101(2) 1.0537(2)
H4A H 0.0908 1.3729 1.1239
H5A H 0.1713 1.2845 0.9786
C11A C 0.3236(3) 1.4243(3) 0.9599(3)
H6A H 0.4304 1.3678 0.8829
H7A H 0.2568 1.5284 0.9056
H8A H 0.3591 1.4483 1.0323
C12A C -0.0024(3) 1.2991(3) 1.7300(2)
H9A H 0.0011 1.1895 1.7293
H10A H -0.0498 1.3142 1.8383
H11A H -0.0795 1.3852 1.6710
C13A C 0.6964(3) 1.2902(3) 1.5147(3)
H12A H 0.7187 1.3665 1.4128
H13A H 0.7108 1.3294 1.5908
H14A H 0.7818 1.1790 1.5042
loop_
_geom_bond_atom_site_label_1
_geom_bond_atom_site_label_2
_geom_bond_site_symmetry_1
_geom_bond_site_symmetry_2
O1 C1 1_555 1_555
O2 H1 1_555 1_555
O3 C6 1_555 1_555
O4 C7 1_555 1_555
C1 C2 1_555 1_555
C2 C3 1_555 1_555
C3 O2 1_555 1_555
C4 C3 1_555 1_555
C5 C4 1_555 1_555
H2 C5 1_555 1_555
C6 C5 1_555 1_555
C7 C6 1_555 1_555
C8 C7 1_555 1_555
H3 C8 1_555 1_555
C9 C1 1_555 1_555
C10 C3 1_555 1_555
H4 C10 1_555 1_555
H5 C10 1_555 1_555
C11 C10 1_555 1_555
H6 C11 1_555 1_555
H7 C11 1_555 1_555
H8 C11 1_555 1_555
C12 O3 1_555 1_555
H9 C12 1_555 1_555
H10 C12 1_555 1_555
H11 C12 1_555 1_555
C13 O4 1_555 1_555
H12 C13 1_555 1_555
H13 C13 1_555 1_555
H14 C13 1_555 1_555
O1A C1A 1_555 1_555
O2A H1A 1_555 1_555
O3A C6A 1_555 1_555
O4A C7A 1_555 1_555
C1A C2A 1_555 1_555
C2A C2 1_555 1_555
C3A O2A 1_555 1_555
C4A C3A 1_555 1_555
C5A C4A 1_555 1_555
H2A C5A 1_555 1_555
C6A C5A 1_555 1_555
C7A C6A 1_555 1_555
C8A C7A 1_555 1_555
H3A C8A 1_555 1_555
C9A C1A 1_555 1_555
C10A C3A 1_555 1_555
H4A C10A 1_555 1_555
H5A C10A 1_555 1_555
C11A C10A 1_555 1_555
H6A C11A 1_555 1_555
H7A C11A 1_555 1_555
H8A C11A 1_555 1_555
C12A O3A 1_555 1_555
H9A C12A 1_555 1_555
H10A C12A 1_555 1_555
H11A C12A 1_555 1_555
C13A O4A 1_555 1_555
H12A C13A 1_555 1_555
H13A C13A 1_555 1_555
H14A C13A 1_555 1_555
C4 C9 1_555 1_555
C8 C9 1_555 1_555
C2A C3A 1_555 1_555
C4A C9A 1_555 1_555
C8A C9A 1_555 1_555

#END
