
#######################################################################
#
#                 Cambridge Crystallographic Data Centre
#                                CCDC 
#
#######################################################################
#
# If this CIF has been generated from an entry in the Cambridge 
# Structural Database, then it will include bibliographic, chemical, 
# crystal, experimental, refinement or atomic coordinate data resulting 
# from the CCDC's data processing and validation procedures.
#
#######################################################################

data_XORZIN
_chemical_formula_moiety         'C13 H22 O3'
_chemical_name_systematic        
(1SR,2RS,5RS,6SR,8RS)-7,7-Dimethyltricyclo(6.2.1.0^1,6^)undecane-2,5,6-triol
_symmetry_cell_setting           triclinic
_symmetry_space_group_name_H-M   'P -1'
_symmetry_Int_Tables_number      2
_space_group_name_Hall           '-P 1'
loop_
_symmetry_equiv_pos_site_id
_symmetry_equiv_pos_as_xyz
1 x,y,z
2 -x,-y,-z
_cell_length_a                   9.812(2)
_cell_length_b                   11.1410(10)
_cell_length_c                   11.443(2)
_cell_angle_alpha                82.470(10)
_cell_angle_beta                 77.560(10)
_cell_angle_gamma                89.460(10)
_cell_volume                     1210.77
_exptl_crystal_colour            colorless
_exptl_crystal_description       block
_chemical_melting_point          451-453K
_cell_formula_units_Z            4
_exptl_crystal_recrystallization_method 'ether/light petroleum (1:1)'
loop_
_atom_site_label
_atom_site_type_symbol
_atom_site_fract_x
_atom_site_fract_y
_atom_site_fract_z
C1 C 0.7141(3) 0.2593(2) 0.9184(2)
C2 C 0.6901(3) 0.2018(2) 0.8106(2)
H1 H 0.7796 0.1978 0.7535
C3 C 0.6296(3) 0.0742(3) 0.8510(3)
H2 H 0.6222 0.0370 0.7806
H3 H 0.5363 0.0784 0.9002
C4 C 0.7192(3) -0.0050(2) 0.9236(3)
H4 H 0.6725 -0.0828 0.9531
H5 H 0.8078 -0.0191 0.8709
C5 C 0.7465(3) 0.0526(2) 1.0304(2)
H6 H 0.6579 0.0596 1.0880
C6 C 0.8121(3) 0.1796(2) 0.9847(2)
C7 C 0.8437(3) 0.2627(3) 1.0796(2)
C8 C 0.7786(3) 0.3848(3) 1.0373(3)
H7 H 0.8228 0.4562 1.0561
C9 C 0.6201(3) 0.3799(3) 1.0801(3)
H8 H 0.5797 0.4578 1.0608
H9 H 0.5926 0.3545 1.1664
C10 C 0.5768(3) 0.2844(3) 1.0080(3)
H10 H 0.5062 0.3157 0.9651
H11 H 0.5408 0.2113 1.0610
C11 C 0.7907(3) 0.3824(2) 0.9017(2)
H12 H 0.8866 0.3808 0.8573
H13 H 0.7417 0.4481 0.8651
C12 C 1.0010(3) 0.2824(3) 1.0680(3)
H14 H 1.0422 0.3190 0.9875
H15 H 1.0435 0.2058 1.0843
H16 H 1.0156 0.3345 1.1248
C13 C 0.7803(4) 0.2134(3) 1.2117(3)
H17 H 0.6836 0.1927 1.2200
H18 H 0.7882 0.2742 1.2623
H19 H 0.8294 0.1426 1.2355
O1 O 0.59473(19) 0.2694(2) 0.74991(18)
H20 H 0.6369 0.3255 0.7029
O2 O 0.84002(19) -0.01982(17) 1.08956(18)
H21 H 0.7973 -0.0787 1.1316
O3 O 0.93661(17) 0.16502(17) 0.89587(15)
H22 H 0.9861 0.1147 0.9245
C14 C 0.7940(3) 0.6323(2) 0.5335(2)
C15 C 0.8156(3) 0.5029(2) 0.5043(2)
H23 H 0.9074 0.4977 0.4509
C16 C 0.7034(3) 0.4690(2) 0.4412(3)
H24 H 0.6133 0.4672 0.4967
H25 H 0.7205 0.3884 0.4186
C17 C 0.6993(3) 0.5582(3) 0.3280(3)
H26 H 0.7835 0.5499 0.2673
H27 H 0.6203 0.5372 0.2956
C18 C 0.6875(3) 0.6889(2) 0.3516(2)
H28 H 0.5961 0.6992 0.4039
C19 C 0.8003(2) 0.7213(2) 0.4158(2)
C20 C 0.7980(3) 0.8496(2) 0.4626(3)
C21 C 0.8150(3) 0.8138(3) 0.5955(3)
H29 H 0.8596 0.8772 0.6269
C22 C 0.6780(3) 0.7643(3) 0.6783(3)
H30 H 0.6023 0.8200 0.6727
H31 H 0.6867 0.7480 0.7617
C23 C 0.6553(3) 0.6465(3) 0.6274(3)
H32 H 0.5762 0.6530 0.5887
H33 H 0.6393 0.5781 0.6909
C24 C 0.8977(3) 0.6965(3) 0.5892(2)
H34 H 0.9049 0.6565 0.6682
H35 H 0.9896 0.7082 0.5365
C25 C 0.9221(3) 0.9312(3) 0.3914(3)
H36 H 1.0079 0.8942 0.4026
H37 H 0.9155 1.0087 0.4201
H38 H 0.9203 0.9417 0.3071
C26 C 0.6646(3) 0.9206(3) 0.4549(3)
H39 H 0.6635 0.9908 0.4956
H40 H 0.5845 0.8700 0.4927
H41 H 0.6625 0.9453 0.3718
O4 O 0.8074(2) 0.41898(19) 0.61185(18)
H42 H 0.8856 0.3947 0.6156
O5 O 0.6974(2) 0.76823(19) 0.23988(18)
H43 H 0.6220 0.7690 0.2199
O6 O 0.93444(17) 0.70004(17) 0.33988(16)
H44 H 0.9459 0.7466 0.2767
loop_
_geom_bond_atom_site_label_1
_geom_bond_atom_site_label_2
_geom_bond_site_symmetry_1
_geom_bond_site_symmetry_2
C1 C2 1_555 1_555
C2 H1 1_555 1_555
C3 C2 1_555 1_555
H2 C3 1_555 1_555
H3 C3 1_555 1_555
C4 C3 1_555 1_555
H4 C4 1_555 1_555
H5 C4 1_555 1_555
C5 C4 1_555 1_555
H6 C5 1_555 1_555
C6 C1 1_555 1_555
C7 C6 1_555 1_555
C8 C7 1_555 1_555
H7 C8 1_555 1_555
C9 C8 1_555 1_555
H8 C9 1_555 1_555
H9 C9 1_555 1_555
C10 C1 1_555 1_555
H10 C10 1_555 1_555
H11 C10 1_555 1_555
C11 C1 1_555 1_555
H12 C11 1_555 1_555
H13 C11 1_555 1_555
C12 C7 1_555 1_555
H14 C12 1_555 1_555
H15 C12 1_555 1_555
H16 C12 1_555 1_555
C13 C7 1_555 1_555
H17 C13 1_555 1_555
H18 C13 1_555 1_555
H19 C13 1_555 1_555
O1 C2 1_555 1_555
H20 O1 1_555 1_555
O2 C5 1_555 1_555
H21 O2 1_555 1_555
O3 C6 1_555 1_555
H22 O3 1_555 1_555
C14 C15 1_555 1_555
C15 H23 1_555 1_555
C16 C15 1_555 1_555
H24 C16 1_555 1_555
H25 C16 1_555 1_555
C17 C16 1_555 1_555
H26 C17 1_555 1_555
H27 C17 1_555 1_555
C18 C17 1_555 1_555
H28 C18 1_555 1_555
C19 C14 1_555 1_555
C20 C19 1_555 1_555
C21 C20 1_555 1_555
H29 C21 1_555 1_555
C22 C21 1_555 1_555
H30 C22 1_555 1_555
H31 C22 1_555 1_555
C23 C14 1_555 1_555
H32 C23 1_555 1_555
H33 C23 1_555 1_555
C24 C14 1_555 1_555
H34 C24 1_555 1_555
H35 C24 1_555 1_555
C25 C20 1_555 1_555
H36 C25 1_555 1_555
H37 C25 1_555 1_555
H38 C25 1_555 1_555
C26 C20 1_555 1_555
H39 C26 1_555 1_555
H40 C26 1_555 1_555
H41 C26 1_555 1_555
O4 C15 1_555 1_555
H42 O4 1_555 1_555
O5 C18 1_555 1_555
H43 O5 1_555 1_555
O6 C19 1_555 1_555
H44 O6 1_555 1_555
C5 C6 1_555 1_555
C8 C11 1_555 1_555
C9 C10 1_555 1_555
C18 C19 1_555 1_555
C21 C24 1_555 1_555
C22 C23 1_555 1_555

#END
