
#######################################################################
#
#                 Cambridge Crystallographic Data Centre
#                                CCDC 
#
#######################################################################
#
# If this CIF has been generated from an entry in the Cambridge 
# Structural Database, then it will include bibliographic, chemical, 
# crystal, experimental, refinement or atomic coordinate data resulting 
# from the CCDC's data processing and validation procedures.
#
#######################################################################

data_XORZUB
_chemical_formula_moiety         'C30 H30 N4 O4'
_chemical_name_systematic        
'3-(5-(hydroxy(diphenyl)methyl)-2-(pyrrolidin-1-ylcarbonyl)-2H-1,2,3-triazol-4-yl)propyl benzoate'
_symmetry_cell_setting           monoclinic
_symmetry_space_group_name_H-M   'P 21/c'
_symmetry_Int_Tables_number      14
_space_group_name_Hall           '-P 2ybc'
loop_
_symmetry_equiv_pos_site_id
_symmetry_equiv_pos_as_xyz
1 x,y,z
2 -x,1/2+y,1/2-z
3 -x,-y,-z
4 x,1/2-y,1/2+z
_cell_length_a                   5.9119(3)
_cell_length_b                   25.6702(13)
_cell_length_c                   17.0557(9)
_cell_angle_alpha                90
_cell_angle_beta                 92.6195(12)
_cell_angle_gamma                90
_cell_volume                     2585.66
_exptl_crystal_colour            colorless
_exptl_crystal_description       needle
_cell_formula_units_Z            4
loop_
_atom_site_label
_atom_site_type_symbol
_atom_site_fract_x
_atom_site_fract_y
_atom_site_fract_z
O1 O -0.2557(3) 0.51086(7) 0.73989(10)
O2 O -0.3461(3) 0.70651(7) 0.74347(10)
O3 O -0.6871(4) 0.74172(8) 0.76154(11)
O4 O 0.7043(3) 0.50393(7) 0.90200(10)
N1 N 0.2529(4) 0.59213(8) 0.86968(12)
N2 N 0.3719(4) 0.54719(8) 0.87436(12)
N3 N 0.2979(4) 0.50945(8) 0.82368(11)
N4 N 0.6219(4) 0.57293(9) 0.97846(12)
C1 C -0.0219(4) 0.50463(10) 0.72251(14)
C2 C 0.1212(4) 0.53131(10) 0.78654(14)
C3 C 0.0922(5) 0.58246(10) 0.81473(15)
C4 C -0.0866(5) 0.62107(11) 0.79040(16)
C5 C -0.1003(5) 0.66895(10) 0.84233(15)
C6 C -0.3223(5) 0.69674(11) 0.82733(15)
C7 C -0.5454(5) 0.72649(10) 0.71794(16)
C8 C -0.5737(5) 0.72723(10) 0.63053(16)
C9 C -0.7747(5) 0.74707(11) 0.59694(17)
C10 C -0.8095(6) 0.74661(12) 0.51615(18)
C11 C -0.6486(6) 0.72656(12) 0.46886(18)
C12 C -0.4478(5) 0.70693(12) 0.50238(16)
C13 C -0.4089(5) 0.70715(11) 0.58301(16)
C14 C 0.5781(5) 0.53952(11) 0.92042(15)
C15 C 0.8461(5) 0.56882(11) 1.02032(15)
C16 C 0.8465(5) 0.61497(12) 1.07630(16)
C17 C 0.5984(5) 0.61916(11) 1.09633(15)
C18 C 0.4713(5) 0.60976(11) 1.01786(15)
C19 C 0.0352(5) 0.44682(10) 0.71387(14)
C20 C 0.2481(5) 0.43119(11) 0.69025(15)
C21 C 0.2950(5) 0.37859(11) 0.68252(16)
C22 C 0.1359(6) 0.34126(12) 0.69804(16)
C23 C -0.0748(6) 0.35658(12) 0.72139(16)
C24 C -0.1252(5) 0.40906(11) 0.72894(15)
C25 C 0.0042(5) 0.53361(10) 0.64430(14)
C26 C 0.2039(5) 0.55904(10) 0.62758(15)
C27 C 0.2218(5) 0.58552(11) 0.55704(16)
C28 C 0.0424(5) 0.58647(11) 0.50254(16)
C29 C -0.1557(5) 0.56056(11) 0.51798(15)
C30 C -0.1753(5) 0.53427(11) 0.58824(15)
H1 H -0.2735 0.5027 0.7869
H2 H -0.2352 0.6032 0.7891
H3 H -0.0594 0.6327 0.7363
H4 H -0.0851 0.6584 0.8982
H5 H 0.0260 0.6929 0.8317
H6 H -0.4490 0.6749 0.8444
H7 H -0.3231 0.7300 0.8567
H8 H -0.8870 0.7608 0.6292
H9 H -0.9462 0.7603 0.4931
H10 H -0.6746 0.7261 0.4135
H11 H -0.3363 0.6932 0.4697
H12 H -0.2713 0.6937 0.6058
H13 H 0.9701 0.5716 0.9835
H14 H 0.8613 0.5355 1.0493
H15 H 0.8984 0.6471 1.0505
H16 H 0.9445 0.6082 1.1238
H17 H 0.5591 0.5925 1.1354
H18 H 0.5641 0.6541 1.1173
H19 H 0.3206 0.5941 1.0253
H20 H 0.4523 0.6425 0.9877
H21 H 0.3600 0.4565 0.6796
H22 H 0.4396 0.3681 0.6662
H23 H 0.1705 0.3053 0.6928
H24 H -0.1855 0.3311 0.7323
H25 H -0.2709 0.4193 0.7446
H26 H 0.3290 0.5583 0.6646
H27 H 0.3584 0.6031 0.5463
H28 H 0.0548 0.6048 0.4546
H29 H -0.2790 0.5608 0.4802
H30 H -0.3120 0.5165 0.5984
loop_
_geom_bond_atom_site_label_1
_geom_bond_atom_site_label_2
_geom_bond_site_symmetry_1
_geom_bond_site_symmetry_2
O1 C1 1_555 1_555
O2 C6 1_555 1_555
O3 C7 1_555 1_555
O4 C14 1_555 1_555
N1 N2 1_555 1_555
N2 N3 1_555 1_555
N3 C2 1_555 1_555
N4 C14 1_555 1_555
C1 C2 1_555 1_555
C2 C3 1_555 1_555
C3 N1 1_555 1_555
C4 C3 1_555 1_555
C5 C4 1_555 1_555
C6 C5 1_555 1_555
C7 O2 1_555 1_555
C8 C7 1_555 1_555
C9 C8 1_555 1_555
C10 C9 1_555 1_555
C11 C10 1_555 1_555
C12 C11 1_555 1_555
C13 C8 1_555 1_555
C14 N2 1_555 1_555
C15 N4 1_555 1_555
C16 C15 1_555 1_555
C17 C16 1_555 1_555
C18 N4 1_555 1_555
C19 C1 1_555 1_555
C20 C19 1_555 1_555
C21 C20 1_555 1_555
C22 C21 1_555 1_555
C23 C22 1_555 1_555
C24 C19 1_555 1_555
C25 C1 1_555 1_555
C26 C25 1_555 1_555
C27 C26 1_555 1_555
C28 C27 1_555 1_555
C29 C28 1_555 1_555
C30 C25 1_555 1_555
H1 O1 1_555 1_555
H2 C4 1_555 1_555
H3 C4 1_555 1_555
H4 C5 1_555 1_555
H5 C5 1_555 1_555
H6 C6 1_555 1_555
H7 C6 1_555 1_555
H8 C9 1_555 1_555
H9 C10 1_555 1_555
H10 C11 1_555 1_555
H11 C12 1_555 1_555
H12 C13 1_555 1_555
H13 C15 1_555 1_555
H14 C15 1_555 1_555
H15 C16 1_555 1_555
H16 C16 1_555 1_555
H17 C17 1_555 1_555
H18 C17 1_555 1_555
H19 C18 1_555 1_555
H20 C18 1_555 1_555
H21 C20 1_555 1_555
H22 C21 1_555 1_555
H23 C22 1_555 1_555
H24 C23 1_555 1_555
H25 C24 1_555 1_555
H26 C26 1_555 1_555
H27 C27 1_555 1_555
H28 C28 1_555 1_555
H29 C29 1_555 1_555
H30 C30 1_555 1_555
C12 C13 1_555 1_555
C17 C18 1_555 1_555
C23 C24 1_555 1_555
C29 C30 1_555 1_555

#END
