
#######################################################################
#
#                 Cambridge Crystallographic Data Centre
#                                CCDC 
#
#######################################################################
#
# If this CIF has been generated from an entry in the Cambridge 
# Structural Database, then it will include bibliographic, chemical, 
# crystal, experimental, refinement or atomic coordinate data resulting 
# from the CCDC's data processing and validation procedures.
#
#######################################################################

data_XOSBUC
_chemical_formula_moiety         'C12 H8 N2 O4 S2'
_chemical_name_systematic        '2-Nitrophenyl 4-nitrophenyl disulfide'
_symmetry_cell_setting           monoclinic
_symmetry_space_group_name_H-M   'P 21/c'
_symmetry_Int_Tables_number      14
_space_group_name_Hall           '-P 2ybc'
loop_
_symmetry_equiv_pos_site_id
_symmetry_equiv_pos_as_xyz
1 x,y,z
2 x,1/2-y,1/2+z
3 -x,-y,-z
4 -x,1/2+y,1/2-z
_cell_length_a                   11.4923(6)
_cell_length_b                   7.9061(4)
_cell_length_c                   14.3117(7)
_cell_angle_alpha                90
_cell_angle_beta                 94.3350(10)
_cell_angle_gamma                90
_cell_volume                     1296.63
_exptl_crystal_colour            colorless
_exptl_crystal_description       block
_chemical_melting_point          429-431K
_cell_formula_units_Z            4
_exptl_crystal_recrystallization_method ethanol
loop_
_atom_site_label
_atom_site_type_symbol
_atom_site_fract_x
_atom_site_fract_y
_atom_site_fract_z
S1 S 0.16358(3) 0.52555(5) 0.10632(3)
C1 C 0.07525(11) 0.34112(16) 0.11723(9)
C2 C -0.04477(12) 0.35258(17) 0.13031(9)
N1 N -0.10064(11) 0.51619(16) 0.13679(8)
O1 O -0.04083(11) 0.64271(15) 0.13112(10)
O2 O -0.20539(10) 0.52300(17) 0.14711(10)
C3 C -0.11428(13) 0.2109(2) 0.13591(10)
C4 C -0.06638(15) 0.0523(2) 0.12949(11)
C5 C 0.05116(14) 0.03787(19) 0.11789(11)
C6 C 0.12087(13) 0.17865(18) 0.11173(11)
S2 S 0.32356(3) 0.43292(5) 0.07788(3)
C7 C 0.39917(11) 0.40630(17) 0.19007(10)
C8 C 0.52018(12) 0.4233(2) 0.19514(10)
C9 C 0.58406(12) 0.4059(2) 0.27933(10)
C10 C 0.52634(12) 0.37059(17) 0.35856(10)
N2 N 0.59401(11) 0.35597(15) 0.44898(9)
O3 O 0.69786(10) 0.39064(19) 0.45323(9)
O4 O 0.54394(11) 0.31008(15) 0.51711(8)
C11 C 0.40704(13) 0.35009(18) 0.35498(10)
C12 C 0.34329(12) 0.36788(18) 0.27030(10)
H1 H -0.1934 0.2227 0.1440
H2 H -0.1126 -0.0437 0.1329
H3 H 0.0841 -0.0691 0.1141
H4 H 0.1999 0.1648 0.1038
H5 H 0.5576 0.4466 0.1412
H6 H 0.6648 0.4176 0.2832
H7 H 0.3702 0.3246 0.4089
H8 H 0.2627 0.3542 0.2667
loop_
_geom_bond_atom_site_label_1
_geom_bond_atom_site_label_2
_geom_bond_site_symmetry_1
_geom_bond_site_symmetry_2
S1 C1 1_555 1_555
C1 C2 1_555 1_555
C2 N1 1_555 1_555
N1 O1 1_555 1_555
O2 N1 1_555 1_555
C3 C2 1_555 1_555
C4 C3 1_555 1_555
C5 C4 1_555 1_555
C6 C1 1_555 1_555
S2 S1 1_555 1_555
C7 S2 1_555 1_555
C8 C7 1_555 1_555
C9 C8 1_555 1_555
C10 C9 1_555 1_555
N2 C10 1_555 1_555
O3 N2 1_555 1_555
O4 N2 1_555 1_555
C11 C10 1_555 1_555
C12 C7 1_555 1_555
H1 C3 1_555 1_555
H2 C4 1_555 1_555
H3 C5 1_555 1_555
H4 C6 1_555 1_555
H5 C8 1_555 1_555
H6 C9 1_555 1_555
H7 C11 1_555 1_555
H8 C12 1_555 1_555
C5 C6 1_555 1_555
C11 C12 1_555 1_555

#END
