
#######################################################################
#
#                 Cambridge Crystallographic Data Centre
#                                CCDC 
#
#######################################################################
#
# If this CIF has been generated from an entry in the Cambridge 
# Structural Database, then it will include bibliographic, chemical, 
# crystal, experimental, refinement or atomic coordinate data resulting 
# from the CCDC's data processing and validation procedures.
#
#######################################################################

data_XOSDAL
_chemical_formula_moiety         'C17 H12 Cl2 O3'
_chemical_name_systematic        
1,6-bis(2-chlorophenyl)-2,5-dioxabicyclo[2.2.1]heptan-3-one
_symmetry_cell_setting           orthorhombic
_symmetry_space_group_name_H-M   'P n a 21'
_symmetry_Int_Tables_number      33
_space_group_name_Hall           'P 2c -2n'
loop_
_symmetry_equiv_pos_site_id
_symmetry_equiv_pos_as_xyz
1 x,y,z
2 -x,-y,1/2+z
3 1/2-x,1/2+y,1/2+z
4 1/2+x,1/2-y,z
_cell_length_a                   18.813(3)
_cell_length_b                   11.198(2)
_cell_length_c                   7.1985(13)
_cell_angle_alpha                90
_cell_angle_beta                 90
_cell_angle_gamma                90
_cell_volume                     1516.49
_exptl_crystal_colour            colorless
_exptl_crystal_description       plate
_chemical_melting_point          '168 deg.C'
_cell_formula_units_Z            4
_exptl_crystal_recrystallization_method chloroform
loop_
_atom_site_label
_atom_site_type_symbol
_atom_site_fract_x
_atom_site_fract_y
_atom_site_fract_z
C1 C 0.73669(12) -0.2308(2) 0.7520(4)
C2 C 0.76573(13) -0.2575(2) 0.5814(4)
H1 H 0.7401 -0.3044 0.4985
C3 C 0.83198(15) -0.2163(3) 0.5305(5)
H2 H 0.8501 -0.2349 0.4139
C4 C 0.87109(14) -0.1483(2) 0.6503(5)
H3 H 0.9159 -0.1210 0.6159
C5 C 0.58741(12) -0.1331(2) 0.5882(4)
C6 C 0.54108(15) -0.1932(3) 0.4698(4)
H4 H 0.5211 -0.2647 0.5094
C7 C 0.77759(13) -0.1606(2) 0.8704(4)
C8 C 0.84390(14) -0.1205(3) 0.8215(5)
H5 H 0.8703 -0.0747 0.9042
C9 C 0.61622(14) -0.0279(3) 0.5219(4)
C10 C 0.59959(17) 0.0159(3) 0.3476(5)
H6 H 0.6199 0.0868 0.3062
C11 C 0.55347(19) -0.0450(4) 0.2370(5)
H7 H 0.5418 -0.0153 0.1203
C12 C 0.52402(17) -0.1508(4) 0.2978(5)
H8 H 0.4928 -0.1930 0.2221
C13 C 0.64307(16) -0.3281(3) 0.9861(4)
C14 C 0.66263(12) -0.2726(2) 0.7987(3)
C15 C 0.56930(15) -0.3565(2) 0.9205(4)
O1 O 0.54233(8) -0.24287(16) 0.8545(3)
C16 C 0.60278(12) -0.1790(2) 0.7808(4)
O2 O 0.64292(9) -0.36859(14) 0.6700(3)
O3 O 0.55540(11) -0.5044(2) 0.6714(4)
C17 C 0.58472(14) -0.4233(2) 0.7450(5)
H9 H 0.6439(12) -0.273(2) 1.085(4)
H10 H 0.6115(10) -0.1149(19) 0.866(3)
Cl1 Cl 0.67380(4) 0.05591(6) 0.65975(14)
Cl2 Cl 0.74553(5) -0.11459(8) 1.08654(13)
H11 H 0.6727(14) -0.396(3) 1.007(4)
H12 H 0.5364(15) -0.390(3) 0.997(4)
loop_
_geom_bond_atom_site_label_1
_geom_bond_atom_site_label_2
_geom_bond_site_symmetry_1
_geom_bond_site_symmetry_2
C1 C2 1_555 1_555
C2 H1 1_555 1_555
C3 C2 1_555 1_555
H2 C3 1_555 1_555
C4 C3 1_555 1_555
H3 C4 1_555 1_555
C5 C6 1_555 1_555
C6 H4 1_555 1_555
C7 C1 1_555 1_555
C8 C4 1_555 1_555
H5 C8 1_555 1_555
C9 C5 1_555 1_555
C10 C9 1_555 1_555
H6 C10 1_555 1_555
C11 C10 1_555 1_555
H7 C11 1_555 1_555
C12 C6 1_555 1_555
H8 C12 1_555 1_555
C13 C14 1_555 1_555
C14 C1 1_555 1_555
C15 C13 1_555 1_555
O1 C15 1_555 1_555
C16 C5 1_555 1_555
O2 C14 1_555 1_555
O3 C17 1_555 1_555
C17 C15 1_555 1_555
H9 C13 1_555 1_555
H10 C16 1_555 1_555
Cl1 C9 1_555 1_555
Cl2 C7 1_555 1_555
H11 C13 1_555 1_555
H12 C15 1_555 1_555
C7 C8 1_555 1_555
C11 C12 1_555 1_555
C14 C16 1_555 1_555
O1 C16 1_555 1_555
O2 C17 1_555 1_555

#END
