
#######################################################################
#
#                 Cambridge Crystallographic Data Centre
#                                CCDC 
#
#######################################################################
#
# If this CIF has been generated from an entry in the Cambridge 
# Structural Database, then it will include bibliographic, chemical, 
# crystal, experimental, refinement or atomic coordinate data resulting 
# from the CCDC's data processing and validation procedures.
#
#######################################################################

data_XOSDIS
_chemical_formula_moiety         'C11 H22 N2 O8'
_chemical_name_systematic        
N,N'-bis(2-Hydroxy-1,1-bis(hydroxymethyl)ethyl)malonamide
_symmetry_cell_setting           monoclinic
_symmetry_space_group_name_H-M   'C 2/c'
_symmetry_Int_Tables_number      15
_space_group_name_Hall           '-C 2yn'
loop_
_symmetry_equiv_pos_site_id
_symmetry_equiv_pos_as_xyz
1 x,y,z
2 1/2+x,1/2+y,z
3 x,-y,1/2+z
4 1/2+x,1/2-y,1/2+z
5 -x,-y,-z
6 1/2-x,1/2-y,-z
7 -x,y,1/2-z
8 1/2-x,1/2+y,1/2-z
_cell_length_a                   11.6928(11)
_cell_length_b                   5.6610(5)
_cell_length_c                   21.0034(19)
_cell_angle_alpha                90
_cell_angle_beta                 92.700(2)
_cell_angle_gamma                90
_cell_volume                     1388.73
_exptl_crystal_colour            colorless
_exptl_crystal_description       plate
_chemical_melting_point          428K
_cell_formula_units_Z            4
_exptl_crystal_recrystallization_method ethanol
loop_
_atom_site_label
_atom_site_type_symbol
_atom_site_fract_x
_atom_site_fract_y
_atom_site_fract_z
C1 C 0.18283(10) 0.0069(2) 0.37960(5)
C2 C 0.30828(11) 0.0892(2) 0.39066(6)
H1 H 0.3471 0.0772 0.3510
H2 H 0.3092 0.2537 0.4035
O1 O 0.36882(10) -0.0482(2) 0.43840(6)
H3 H 0.3746 0.0272 0.4717
C3 C 0.17427(12) -0.2557(2) 0.36034(7)
H4 H 0.2077 -0.3511 0.3948
H5 H 0.0941 -0.2984 0.3548
O2 O 0.22973(10) -0.3107(2) 0.30335(5)
H6 H 0.2950 -0.3568 0.3123
C4 C 0.11605(13) 0.0373(2) 0.44108(6)
H7 H 0.0442 -0.0478 0.4363
H8 H 0.1601 -0.0320 0.4766
O3 O 0.09299(10) 0.2793(2) 0.45517(5)
H9 H 0.0298 0.3157 0.4396
N1 N 0.13697(9) 0.15798(19) 0.32724(5)
H10 H 0.1850 0.2435 0.3078
C5 C 0.02636(11) 0.1730(2) 0.30746(6)
O4 O -0.05086(9) 0.0641(2) 0.33328(6)
C6 C 0.0000 0.3319(3) 0.2500
H11 H -0.0696(18) 0.428(4) 0.2556(10)
C5F C -0.02636(11) 0.1730(2) 0.19254(6)
N1F N -0.13697(9) 0.15798(19) 0.17276(5)
C1F C -0.18283(10) 0.0069(2) 0.12040(5)
C2F C -0.30828(11) 0.0892(2) 0.10934(6)
H1F H -0.3471 0.0772 0.1490
H2F H -0.3092 0.2537 0.0965
O1F O -0.36882(10) -0.0482(2) 0.06160(6)
H3F H -0.3746 0.0272 0.0283
C3F C -0.17427(12) -0.2557(2) 0.13966(7)
H4F H -0.2077 -0.3511 0.1052
H5F H -0.0941 -0.2984 0.1452
O2F O -0.22973(10) -0.3107(2) 0.19665(5)
H6F H -0.2950 -0.3568 0.1877
C4F C -0.11605(13) 0.0373(2) 0.05892(6)
H7F H -0.0442 -0.0478 0.0637
H8F H -0.1601 -0.0320 0.0234
O3F O -0.09299(10) 0.2793(2) 0.04483(5)
H9F H -0.0298 0.3157 0.0604
H10F H -0.1850 0.2435 0.1922
O4F O 0.05086(9) 0.0641(2) 0.16672(6)
H11F H 0.0696(18) 0.428(4) 0.2444(10)
loop_
_geom_bond_atom_site_label_1
_geom_bond_atom_site_label_2
_geom_bond_site_symmetry_1
_geom_bond_site_symmetry_2
C1 C2 1_555 1_555
C2 H1 1_555 1_555
H2 C2 1_555 1_555
O1 C2 1_555 1_555
H3 O1 1_555 1_555
C3 C1 1_555 1_555
H4 C3 1_555 1_555
H5 C3 1_555 1_555
O2 C3 1_555 1_555
H6 O2 1_555 1_555
C4 C1 1_555 1_555
H7 C4 1_555 1_555
H8 C4 1_555 1_555
O3 C4 1_555 1_555
H9 O3 1_555 1_555
N1 C1 1_555 1_555
H10 N1 1_555 1_555
C5 N1 1_555 1_555
O4 C5 1_555 1_555
C6 C5 1_555 1_555
H11 C6 1_555 1_555
C5F C6 1_555 1_555
N1F C5F 1_555 1_555
C1F N1F 1_555 1_555
C2F C1F 1_555 1_555
H1F C2F 1_555 1_555
H2F C2F 1_555 1_555
O1F C2F 1_555 1_555
H3F O1F 1_555 1_555
C3F C1F 1_555 1_555
H4F C3F 1_555 1_555
H5F C3F 1_555 1_555
O2F C3F 1_555 1_555
H6F O2F 1_555 1_555
C4F C1F 1_555 1_555
H7F C4F 1_555 1_555
H8F C4F 1_555 1_555
O3F C4F 1_555 1_555
H9F O3F 1_555 1_555
H10F N1F 1_555 1_555
O4F C5F 1_555 1_555
H11F C6 1_555 1_555

#END
