
#######################################################################
#
#                 Cambridge Crystallographic Data Centre
#                                CCDC 
#
#######################################################################
#
# If this CIF has been generated from an entry in the Cambridge 
# Structural Database, then it will include bibliographic, chemical, 
# crystal, experimental, refinement or atomic coordinate data resulting 
# from the CCDC's data processing and validation procedures.
#
#######################################################################

data_XOSDEO
_chemical_formula_moiety         'C4 H10 O3'
_chemical_name_systematic        2-(Hydroxymethyl)-1,2-propanediol
_symmetry_cell_setting           monoclinic
_symmetry_space_group_name_H-M   'P 21/m'
_symmetry_Int_Tables_number      11
_space_group_name_Hall           '-P 2yb'
loop_
_symmetry_equiv_pos_site_id
_symmetry_equiv_pos_as_xyz
1 x,y,z
2 x,1/2-y,z
3 -x,-y,-z
4 -x,1/2+y,-z
_cell_length_a                   4.8066(3)
_cell_length_b                   9.5179(6)
_cell_length_c                   6.1346(4)
_cell_angle_alpha                90
_cell_angle_beta                 107.911(4)
_cell_angle_gamma                90
_cell_volume                     267.049
_exptl_crystal_colour            colorless
_exptl_crystal_description       prism
_cell_formula_units_Z            2
_exptl_crystal_recrystallization_method 'ethyl acetate'
loop_
_atom_site_label
_atom_site_type_symbol
_atom_site_fract_x
_atom_site_fract_y
_atom_site_fract_z
C1 C 0.2426(3) 0.2500 0.2648(3)
H1 H 0.0409 0.2500 0.1622
C2 C 0.2268(4) 0.2500 0.5080(3)
H2 H 0.1200 0.3324 0.5304
O1 O 0.5093(3) 0.2500 0.6743(2)
C3 C 0.3879(3) 0.11876(11) 0.21179(19)
H4 H 0.4199 0.1288 0.0640
H5 H 0.5766 0.1062 0.3268
O2 O 0.2094(2) -0.00105(9) 0.20882(17)
H6 H 0.094(8) -0.001(4) 0.079(7)
H2A H 0.1200 0.1676 0.5304
C3A C 0.3879(3) 0.38124(11) 0.21179(19)
H4A H 0.4199 0.3712 0.0640
H5A H 0.5766 0.3938 0.3268
O2A O 0.2094(2) 0.50105(9) 0.20882(17)
H6A H 0.094(8) 0.501(4) 0.079(7)
H3? H 0.5682 0.1689 0.6998
H7? H 0.293(8) -0.073(5) 0.236(6)
loop_
_geom_bond_atom_site_label_1
_geom_bond_atom_site_label_2
_geom_bond_site_symmetry_1
_geom_bond_site_symmetry_2
C1 H1 1_555 1_555
C2 C1 1_555 1_555
H2 C2 1_555 1_555
O1 C2 1_555 1_555
C3 C1 1_555 1_555
H4 C3 1_555 1_555
H5 C3 1_555 1_555
O2 C3 1_555 1_555
H6 O2 1_555 1_555
H2A C2 1_555 1_555
C3A C1 1_555 1_555
H4A C3A 1_555 1_555
H5A C3A 1_555 1_555
O2A C3A 1_555 1_555
H6A O2A 1_555 1_555

#END
