
#######################################################################
#
#                 Cambridge Crystallographic Data Centre
#                                CCDC 
#
#######################################################################
#
# If this CIF has been generated from an entry in the Cambridge 
# Structural Database, then it will include bibliographic, chemical, 
# crystal, experimental, refinement or atomic coordinate data resulting 
# from the CCDC's data processing and validation procedures.
#
#######################################################################

data_XOSFOA
_chemical_formula_moiety         'C20 H24 B2 N2 O2 S1'
_chemical_name_systematic        
2,5-bis((N-B)-(2-Aminoethoxy)phenylboryl)thiophene
_symmetry_cell_setting           orthorhombic
_symmetry_space_group_name_H-M   'P b c n'
_symmetry_Int_Tables_number      60
_space_group_name_Hall           '-P 2n 2ab'
loop_
_symmetry_equiv_pos_site_id
_symmetry_equiv_pos_as_xyz
1 x,y,z
2 1/2-x,1/2-y,1/2+z
3 1/2+x,1/2-y,-z
4 -x,y,1/2-z
5 -x,-y,-z
6 1/2+x,1/2+y,1/2-z
7 1/2-x,1/2+y,z
8 x,-y,1/2+z
_cell_length_a                   11.484(3)
_cell_length_b                   18.385(6)
_cell_length_c                   9.509(3)
_cell_angle_alpha                90
_cell_angle_beta                 90
_cell_angle_gamma                90
_cell_volume                     2007.67
_exptl_crystal_colour            colorless
_exptl_crystal_description       lozenge
_chemical_melting_point          498-499K
_cell_formula_units_Z            4
_exptl_crystal_recrystallization_method chloroform
loop_
_atom_site_label
_atom_site_type_symbol
_atom_site_fract_x
_atom_site_fract_y
_atom_site_fract_z
S1 S 0.5000 -0.01244(6) 0.2500
O1 O 0.79473(16) -0.00550(11) 0.21691(15)
N1 N 0.7124(3) -0.02854(16) -0.0105(3)
H1 H 0.646(3) -0.0478(15) -0.028(2)
H2 H 0.745(2) -0.0154(16) -0.096(3)
B1 B 0.7217(3) 0.0334(2) 0.1135(3)
C1 C 0.5530(2) 0.1179(2) 0.2121(2)
H3 H 0.5912 0.1616 0.1852
C2 C 0.5962(3) 0.05165(17) 0.1807(2)
C3 C 0.8626(3) -0.05877(17) 0.1464(3)
H4 H 0.8913 -0.0959 0.2134
H5 H 0.9301 -0.0360 0.0990
C4 C 0.7815(3) -0.09243(18) 0.0404(3)
H6 H 0.8253 -0.1154 -0.0375
H7 H 0.7305 -0.1293 0.0848
C5 C 0.7814(3) 0.10478(18) 0.0496(3)
C6 C 0.7335(3) 0.14601(19) -0.0586(3)
H8 H 0.6637 0.1296 -0.1017
C7 C 0.7829(4) 0.2091(2) -0.1053(3)
H9 H 0.7474 0.2356 -0.1795
C8 C 0.8849(3) 0.2346(2) -0.0443(4)
H10 H 0.9197 0.2785 -0.0760
C9 C 0.9346(4) 0.1949(2) 0.0629(4)
H11 H 1.0044 0.2114 0.1059
C10 C 0.8839(3) 0.1325(2) 0.1070(3)
H12 H 0.9201 0.1062 0.1810
C1C C 0.4470(2) 0.1179(2) 0.2879(2)
H3C H 0.4088 0.1616 0.3148
C2C C 0.4038(3) 0.05165(17) 0.3193(2)
B1C B 0.2783(3) 0.0334(2) 0.3865(3)
O1C O 0.20527(16) -0.00550(11) 0.28309(15)
C3C C 0.1374(3) -0.05877(17) 0.3536(3)
H4C H 0.1087 -0.0959 0.2866
H5C H 0.0699 -0.0360 0.4010
C4C C 0.2185(3) -0.09243(18) 0.4596(3)
N1C N 0.2876(3) -0.02854(16) 0.5105(3)
H1C H 0.354(3) -0.0478(15) 0.528(2)
H2C H 0.255(2) -0.0154(16) 0.596(3)
C5C C 0.2186(3) 0.10478(18) 0.4504(3)
C6C C 0.2665(3) 0.14601(19) 0.5586(3)
H8C H 0.3363 0.1296 0.6017
C7C C 0.2171(4) 0.2091(2) 0.6053(3)
H9C H 0.2526 0.2356 0.6795
C8C C 0.1151(3) 0.2346(2) 0.5443(4)
H10C H 0.0803 0.2785 0.5760
C9C C 0.0654(4) 0.1949(2) 0.4371(4)
H11C H -0.0044 0.2114 0.3941
C10C C 0.1161(3) 0.1325(2) 0.3930(3)
H12C H 0.0799 0.1062 0.3190
H6C H 0.1747 -0.1154 0.5375
H7C H 0.2695 -0.1293 0.4152
loop_
_geom_bond_atom_site_label_1
_geom_bond_atom_site_label_2
_geom_bond_site_symmetry_1
_geom_bond_site_symmetry_2
S1 C2 1_555 1_555
O1 B1 1_555 1_555
N1 H1 1_555 1_555
H2 N1 1_555 1_555
B1 N1 1_555 1_555
C1 H3 1_555 1_555
C2 B1 1_555 1_555
C3 O1 1_555 1_555
H4 C3 1_555 1_555
H5 C3 1_555 1_555
C4 N1 1_555 1_555
H6 C4 1_555 1_555
H7 C4 1_555 1_555
C5 B1 1_555 1_555
C6 C5 1_555 1_555
H8 C6 1_555 1_555
C7 C6 1_555 1_555
H9 C7 1_555 1_555
C8 C7 1_555 1_555
H10 C8 1_555 1_555
C9 C8 1_555 1_555
H11 C9 1_555 1_555
C10 C5 1_555 1_555
H12 C10 1_555 1_555
C1C C1 1_555 1_555
H3C C1C 1_555 1_555
C2C S1 1_555 1_555
B1C C2C 1_555 1_555
O1C B1C 1_555 1_555
C3C O1C 1_555 1_555
H4C C3C 1_555 1_555
H5C C3C 1_555 1_555
C4C C3C 1_555 1_555
N1C B1C 1_555 1_555
H1C N1C 1_555 1_555
H2C N1C 1_555 1_555
C5C B1C 1_555 1_555
C6C C5C 1_555 1_555
H8C C6C 1_555 1_555
C7C C6C 1_555 1_555
H9C C7C 1_555 1_555
C8C C7C 1_555 1_555
H10C C8C 1_555 1_555
C9C C8C 1_555 1_555
H11C C9C 1_555 1_555
C10C C5C 1_555 1_555
H12C C10C 1_555 1_555
H6C C4C 1_555 1_555
H7C C4C 1_555 1_555
C1 C2 1_555 1_555
C3 C4 1_555 1_555
C9 C10 1_555 1_555
C1C C2C 1_555 1_555
C4C N1C 1_555 1_555
C9C C10C 1_555 1_555

#END
