
#######################################################################
#
#                 Cambridge Crystallographic Data Centre
#                                CCDC 
#
#######################################################################
#
# If this CIF has been generated from an entry in the Cambridge 
# Structural Database, then it will include bibliographic, chemical, 
# crystal, experimental, refinement or atomic coordinate data resulting 
# from the CCDC's data processing and validation procedures.
#
#######################################################################

data_XOSJAQ
_chemical_formula_moiety         'C25 H21 Br1 O3'
_chemical_name_systematic        
(+)-(3S,4S,5S)-3-(4-Bromobenzyl)-4-(2-oxo-2-phenylethyl)-5-phenyltetrahydro-2-furanone
_symmetry_cell_setting           orthorhombic
_symmetry_space_group_name_H-M   'P 21 21 21'
_symmetry_Int_Tables_number      19
_space_group_name_Hall           'P 2ac 2ab'
loop_
_symmetry_equiv_pos_site_id
_symmetry_equiv_pos_as_xyz
1 x,y,z
2 1/2-x,-y,1/2+z
3 1/2+x,1/2-y,-z
4 -x,1/2+y,1/2-z
_cell_length_a                   5.8065(3)
_cell_length_b                   14.7712(8)
_cell_length_c                   24.1162(14)
_cell_angle_alpha                90
_cell_angle_beta                 90
_cell_angle_gamma                90
_cell_volume                     2068.42
_exptl_crystal_colour            colorless
_exptl_crystal_description       needle
_chemical_melting_point          129-131deg.C
_cell_formula_units_Z            4
_exptl_crystal_recrystallization_method dichloromethane/hexanes
loop_
_atom_site_label
_atom_site_type_symbol
_atom_site_fract_x
_atom_site_fract_y
_atom_site_fract_z
Br1 Br 0.19312(8) 0.16486(3) 0.136241(14)
O1 O 0.5100(3) 0.38855(12) 0.49181(7)
O2 O 0.6175(4) 0.24409(15) 0.49293(10)
O3 O -0.0606(4) 0.38822(16) 0.33152(8)
C1 C 0.5434(5) 0.30677(18) 0.46778(12)
C2 C 0.4795(5) 0.31120(17) 0.40660(11)
H1 H 0.6204 0.3252 0.3851
C3 C 0.3209(5) 0.39368(16) 0.40462(9)
H2 H 0.1629 0.3748 0.4148
C4 C 0.4202(5) 0.45280(17) 0.45134(10)
H3 H 0.5488 0.4896 0.4365
C5 C 0.3852(6) 0.22027(19) 0.38659(12)
H4 H 0.4941 0.1729 0.3976
H5 H 0.2403 0.2085 0.4061
C6 C 0.3413(5) 0.21127(16) 0.32538(11)
C7 C 0.1345(5) 0.17421(19) 0.30666(13)
H6 H 0.0211 0.1583 0.3327
C8 C 0.0914(5) 0.1602(2) 0.25140(13)
H7 H -0.0487 0.1343 0.2400
C9 C 0.2543(6) 0.18428(18) 0.21298(12)
C10 C 0.4611(6) 0.2221(2) 0.22900(13)
H8 H 0.5723 0.2385 0.2025
C11 C 0.5010(5) 0.23535(19) 0.28533(12)
H9 H 0.6410 0.2615 0.2966
C12 C 0.3126(5) 0.44603(17) 0.34996(9)
H10 H 0.2991 0.5108 0.3582
H11 H 0.4581 0.4368 0.3302
C13 C 0.1158(5) 0.41851(18) 0.31247(10)
C14 C 0.1377(4) 0.43386(16) 0.25145(10)
C15 C 0.3268(5) 0.47575(17) 0.22694(11)
H12 H 0.4502 0.4954 0.2491
C16 C 0.3344(6) 0.4886(2) 0.17026(12)
H13 H 0.4618 0.5176 0.1540
C17 C 0.1551(6) 0.4591(2) 0.13747(13)
H14 H 0.1610 0.4671 0.0988
C18 C -0.0321(6) 0.4177(2) 0.16136(12)
H15 H -0.1539 0.3976 0.1389
C19 C -0.0434(5) 0.4055(2) 0.21769(12)
H16 H -0.1737 0.3780 0.2336
C20 C 0.2502(4) 0.51410(16) 0.47983(10)
C21 C 0.0539(5) 0.47886(18) 0.50461(11)
H17 H 0.0261 0.4162 0.5031
C22 C -0.1018(5) 0.5349(2) 0.53150(12)
H18 H -0.2340 0.5103 0.5482
C23 C -0.0614(6) 0.6271(2) 0.53362(13)
H19 H -0.1655 0.6654 0.5521
C24 C 0.1313(6) 0.6624(2) 0.50868(14)
H20 H 0.1584 0.7252 0.5100
C25 C 0.2853(6) 0.60667(18) 0.48178(12)
H21 H 0.4157 0.6318 0.4646
loop_
_geom_bond_atom_site_label_1
_geom_bond_atom_site_label_2
_geom_bond_site_symmetry_1
_geom_bond_site_symmetry_2
Br1 C9 1_555 1_555
O1 C1 1_555 1_555
O2 C1 1_555 1_555
O3 C13 1_555 1_555
C1 C2 1_555 1_555
C2 H1 1_555 1_555
C3 C2 1_555 1_555
H2 C3 1_555 1_555
C4 O1 1_555 1_555
H3 C4 1_555 1_555
C5 C2 1_555 1_555
H4 C5 1_555 1_555
H5 C5 1_555 1_555
C6 C5 1_555 1_555
C7 C6 1_555 1_555
H6 C7 1_555 1_555
C8 C7 1_555 1_555
H7 C8 1_555 1_555
C9 C8 1_555 1_555
C10 C9 1_555 1_555
H8 C10 1_555 1_555
C11 C6 1_555 1_555
H9 C11 1_555 1_555
C12 C3 1_555 1_555
H10 C12 1_555 1_555
H11 C12 1_555 1_555
C13 C12 1_555 1_555
C14 C13 1_555 1_555
C15 C14 1_555 1_555
H12 C15 1_555 1_555
C16 C15 1_555 1_555
H13 C16 1_555 1_555
C17 C16 1_555 1_555
H14 C17 1_555 1_555
C18 C17 1_555 1_555
H15 C18 1_555 1_555
C19 C14 1_555 1_555
H16 C19 1_555 1_555
C20 C4 1_555 1_555
C21 C20 1_555 1_555
H17 C21 1_555 1_555
C22 C21 1_555 1_555
H18 C22 1_555 1_555
C23 C22 1_555 1_555
H19 C23 1_555 1_555
C24 C23 1_555 1_555
H20 C24 1_555 1_555
C25 C20 1_555 1_555
H21 C25 1_555 1_555
C3 C4 1_555 1_555
C10 C11 1_555 1_555
C18 C19 1_555 1_555
C24 C25 1_555 1_555

#END
