
#######################################################################
#
#                 Cambridge Crystallographic Data Centre
#                                CCDC 
#
#######################################################################
#
# If this CIF has been generated from an entry in the Cambridge 
# Structural Database, then it will include bibliographic, chemical, 
# crystal, experimental, refinement or atomic coordinate data resulting 
# from the CCDC's data processing and validation procedures.
#
#######################################################################

data_XOSJIZ
_chemical_formula_moiety         'C16 H25 N1 O3'
_chemical_name_systematic        
(1S,2R,5S,8R,1'S)-5-(1'-Hydroxy-2'-methylpropyl)-8,11,11-trimethyl-3-oxa-6-azatricyclo(6.2.1.0^2,7^)undec-6-en-4-one
_symmetry_cell_setting           orthorhombic
_symmetry_space_group_name_H-M   'P 21 21 21'
_symmetry_Int_Tables_number      19
_space_group_name_Hall           'P 2ac 2ab'
loop_
_symmetry_equiv_pos_site_id
_symmetry_equiv_pos_as_xyz
1 x,y,z
2 1/2-x,-y,1/2+z
3 1/2+x,1/2-y,-z
4 -x,1/2+y,1/2-z
_cell_length_a                   7.157(3)
_cell_length_b                   10.618(4)
_cell_length_c                   20.531(8)
_cell_angle_alpha                90
_cell_angle_beta                 90
_cell_angle_gamma                90
_cell_volume                     1560.21
_exptl_crystal_colour            colorless
_exptl_crystal_description       block
_chemical_melting_point          '102-104 deg.C'
_cell_formula_units_Z            4
loop_
_atom_site_label
_atom_site_type_symbol
_atom_site_fract_x
_atom_site_fract_y
_atom_site_fract_z
O1 O 0.6534(1) 0.11497(9) 0.56134(4)
O2 O 0.4746(2) 0.2648(1) 0.52289(5)
O3 O 0.9670(2) 0.3622(1) 0.59904(5)
N1 N 0.6902(2) 0.2486(1) 0.68056(5)
C1 C 0.7723(2) 0.1446(1) 0.67095(6)
C2 C 0.6382(2) 0.3175(1) 0.62104(6)
C3 C 0.5854(2) 0.2322(1) 0.56411(7)
C4 C 0.8071(2) 0.0864(1) 0.60465(6)
C5 C 0.8285(2) -0.0535(1) 0.62112(6)
C6 C 1.0308(2) -0.0630(1) 0.64427(7)
C7 C 1.0260(2) 0.0091(1) 0.70969(7)
C8 C 0.8172(2) 0.0437(1) 0.72017(6)
C9 C 0.7172(2) -0.0699(1) 0.68517(6)
C10 C 0.5050(2) -0.0545(2) 0.67760(8)
C11 C 0.7523(2) -0.1966(1) 0.71937(8)
C12 C 0.7613(3) 0.0737(2) 0.78927(6)
C13 C 0.7880(2) 0.4180(1) 0.60464(6)
C14 C 0.7408(3) 0.5028(1) 0.54662(7)
C15 C 0.8957(3) 0.5992(2) 0.53646(9)
C16 C 0.5522(3) 0.5675(2) 0.55390(8)
H1 H 0.5257 0.3640 0.6319
H2 H 0.9229 0.1185 0.5866
H3 H 0.7945 -0.1111 0.5864
H4 H 1.0675 -0.1500 0.6506
H5 H 1.1154 -0.0232 0.6136
H6 H 1.0707 -0.0439 0.7449
H7 H 1.1020 0.0846 0.7072
H8 H 0.4784 0.0247 0.6559
H9 H 0.4558 -0.1235 0.6519
H10 H 0.4468 -0.0548 0.7203
H11 H 0.6913 -0.1965 0.7615
H12 H 0.7022 -0.2643 0.6929
H13 H 0.8856 -0.2087 0.7252
H14 H 0.8238 0.1501 0.8033
H15 H 0.6270 0.0858 0.7914
H16 H 0.7969 0.0046 0.8175
H17 H 0.7943 0.4732 0.6422
H18 H 0.7353 0.4501 0.5081
H19 H 1.0126 0.5559 0.5282
H20 H 0.8650 0.6523 0.4995
H21 H 0.9080 0.6508 0.5752
H22 H 0.5553 0.6233 0.5913
H23 H 0.5255 0.6160 0.5150
H24 H 0.4556 0.5046 0.5601
loop_
_geom_bond_atom_site_label_1
_geom_bond_atom_site_label_2
_geom_bond_site_symmetry_1
_geom_bond_site_symmetry_2
O1 C3 1_555 1_555
O2 C3 1_555 1_555
O3 C13 1_555 1_555
N1 C1 1_555 1_555
C1 C4 1_555 1_555
C2 N1 1_555 1_555
C3 C2 1_555 1_555
C4 O1 1_555 1_555
C5 C4 1_555 1_555
C6 C5 1_555 1_555
C7 C6 1_555 1_555
C8 C1 1_555 1_555
C9 C5 1_555 1_555
C10 C9 1_555 1_555
C11 C9 1_555 1_555
C12 C8 1_555 1_555
C13 C2 1_555 1_555
C14 C13 1_555 1_555
C15 C14 1_555 1_555
C16 C14 1_555 1_555
H1 C2 1_555 1_555
H2 C4 1_555 1_555
H3 C5 1_555 1_555
H4 C6 1_555 1_555
H5 C6 1_555 1_555
H6 C7 1_555 1_555
H7 C7 1_555 1_555
H8 C10 1_555 1_555
H9 C10 1_555 1_555
H10 C10 1_555 1_555
H11 C11 1_555 1_555
H12 C11 1_555 1_555
H13 C11 1_555 1_555
H14 C12 1_555 1_555
H15 C12 1_555 1_555
H16 C12 1_555 1_555
H17 C13 1_555 1_555
H18 C14 1_555 1_555
H19 C15 1_555 1_555
H20 C15 1_555 1_555
H21 C15 1_555 1_555
H22 C16 1_555 1_555
H23 C16 1_555 1_555
H24 C16 1_555 1_555
C7 C8 1_555 1_555
C8 C9 1_555 1_555

#END
