
#######################################################################
#
#                 Cambridge Crystallographic Data Centre
#                                CCDC 
#
#######################################################################
#
# If this CIF has been generated from an entry in the Cambridge 
# Structural Database, then it will include bibliographic, chemical, 
# crystal, experimental, refinement or atomic coordinate data resulting 
# from the CCDC's data processing and validation procedures.
#
#######################################################################

data_XOSJOF
_chemical_formula_moiety         'C16 H25 N1 O3'
_chemical_name_systematic        
(1R,2S,5R,8S,1'R)-5-(1'-Hydroxy-2'-methylpropyl)-1,11,11-trimethyl-3-oxa-6-azatricyclo(6.2.1.0^2,7^)undec-6-en-4-one
_symmetry_cell_setting           monoclinic
_symmetry_space_group_name_H-M   'P 21'
_symmetry_Int_Tables_number      4
_space_group_name_Hall           'P 2yb'
loop_
_symmetry_equiv_pos_site_id
_symmetry_equiv_pos_as_xyz
1 x,y,z
2 -x,1/2+y,-z
_cell_length_a                   9.937(6)
_cell_length_b                   13.512(7)
_cell_length_c                   12.023(7)
_cell_angle_alpha                90
_cell_angle_beta                 100.595(9)
_cell_angle_gamma                90
_cell_volume                     1586.79
_exptl_crystal_colour            colorless
_exptl_crystal_description       prism
_chemical_melting_point          '178 deg.C(dec.)'
_cell_formula_units_Z            4
loop_
_atom_site_label
_atom_site_type_symbol
_atom_site_fract_x
_atom_site_fract_y
_atom_site_fract_z
O1 O 0.6274(1) 0.2557 0.12912(9)
O2 O 0.6655(1) 0.1398(1) 0.2591(1)
O3 O 0.7242(1) 0.3034(1) 0.44469(10)
N1 N 0.4068(1) 0.3256(1) 0.2267(1)
C1 C 0.5764(1) 0.3550(1) 0.1041(1)
C2 C 0.6114(2) 0.2174(1) 0.2301(1)
C3 C 0.5218(2) 0.2731(1) 0.2983(1)
C4 C 0.4388(1) 0.3671(1) 0.1404(1)
C5 C 0.3471(2) 0.4181(1) 0.0440(1)
C6 C 0.4134(2) 0.5195(1) 0.0281(1)
C7 C 0.5397(2) 0.4929(1) -0.0237(1)
C8 C 0.5412(2) 0.3789(1) -0.0236(1)
C9 C 0.3849(2) 0.3553(1) -0.0546(1)
C10 C 0.3497(2) 0.2462(1) -0.0480(1)
C11 C 0.3130(2) 0.3931(2) -0.1714(1)
C12 C 0.6348(2) 0.3310(1) -0.0946(1)
C13 C 0.6045(2) 0.3459(2) 0.3844(1)
C14 C 0.5162(2) 0.3827(2) 0.4677(2)
C15 C 0.5901(3) 0.4675(3) 0.5392(2)
C16 C 0.4762(3) 0.3018(3) 0.5419(2)
H1 H 0.6412 0.4030 0.1426
H2 H 0.4819 0.2243 0.3417
H3 H 0.2507 0.4198 0.0484
H4 H 0.3508 0.5613 -0.0228
H5 H 0.4405 0.5529 0.1002
H6 H 0.5303 0.5185 -0.1001
H7 H 0.6227 0.5190 0.0222
H8 H 0.2513 0.2387 -0.0564
H9 H 0.3818 0.2105 -0.1080
H10 H 0.3936 0.2199 0.0247
H11 H 0.3335 0.4627 -0.1786
H12 H 0.3453 0.3559 -0.2303
H13 H 0.2148 0.3845 -0.1787
H14 H 0.6300 0.2596 -0.0880
H15 H 0.6060 0.3501 -0.1731
H16 H 0.7281 0.3528 -0.0680
H17 H 0.6298 0.4025 0.3430
H18 H 0.4326 0.4095 0.4236
H19 H 0.6712 0.4419 0.5882
H20 H 0.6165 0.5176 0.4896
H21 H 0.5293 0.4963 0.5848
H22 H 0.4143 0.3285 0.5880
H23 H 0.4310 0.2489 0.4948
H24 H 0.5575 0.2762 0.5905
O4 O 0.0669(1) 0.4636(1) 0.17667(9)
O5 O -0.0081(1) 0.3638(1) 0.03414(9)
O6 O 0.1832(1) 0.2518(1) 0.31801(9)
N2 N -0.0756(1) 0.3520(1) 0.3167(1)
C17 C 0.1065(2) 0.4711(1) 0.2983(1)
C18 C 0.0084(2) 0.3778(1) 0.1347(1)
C19 C -0.0406(1) 0.3052(1) 0.2151(1)
C20 C -0.0028(2) 0.4256(1) 0.3545(1)
C21 C -0.0255(2) 0.4965(1) 0.4448(1)
C22 C 0.1116(2) 0.5061(2) 0.5301(1)
C23 C 0.2037(2) 0.5648(2) 0.4635(2)
C24 C 0.1151(2) 0.5777(1) 0.3450(1)
C25 C -0.0296(2) 0.5943(1) 0.3746(1)
C26 C -0.1466(2) 0.5978(2) 0.2724(2)
C27 C -0.0403(2) 0.6870(2) 0.4454(2)
C28 C 0.1672(2) 0.6538(2) 0.2707(2)
C29 C 0.0594(2) 0.2178(1) 0.2496(1)
C30 C 0.0834(2) 0.1538(1) 0.1505(1)
C31 C 0.1777(2) 0.0681(2) 0.1954(2)
C32 C -0.0504(2) 0.1154(2) 0.0819(2)
H25 H 0.1929 0.4374 0.3231
H26 H -0.1246 0.2765 0.1740
H27 H -0.1056 0.4838 0.4781
H28 H 0.0988 0.5418 0.5973
H29 H 0.1503 0.4414 0.5515
H30 H 0.2279 0.6286 0.4986
H31 H 0.2865 0.5281 0.4592
H32 H -0.1387 0.6573 0.2290
H33 H -0.1417 0.5402 0.2251
H34 H -0.2335 0.5980 0.2981
H35 H 0.0327 0.6869 0.5111
H36 H -0.0324 0.7454 0.4001
H37 H -0.1281 0.6876 0.4698
H38 H 0.2583 0.6354 0.2600
H39 H 0.1062 0.6565 0.1979
H40 H 0.1705 0.7182 0.3067
H41 H 0.0161 0.1752 0.2976
H42 H 0.1286 0.1938 0.1014
H43 H 0.1345 0.0278 0.2457
H44 H 0.1948 0.0280 0.1326
H45 H 0.2636 0.0939 0.2365
H46 H -0.1090 0.1709 0.0542
H47 H -0.0315 0.0770 0.0184
H48 H -0.0959 0.0739 0.1295
loop_
_geom_bond_atom_site_label_1
_geom_bond_atom_site_label_2
_geom_bond_site_symmetry_1
_geom_bond_site_symmetry_2
O1 C1 1_555 1_555
O2 C2 1_555 1_555
O3 C13 1_555 1_555
N1 C3 1_555 1_555
C1 C4 1_555 1_555
C2 O1 1_555 1_555
C3 C2 1_555 1_555
C4 N1 1_555 1_555
C5 C4 1_555 1_555
C6 C5 1_555 1_555
C7 C6 1_555 1_555
C8 C1 1_555 1_555
C9 C5 1_555 1_555
C10 C9 1_555 1_555
C11 C9 1_555 1_555
C12 C8 1_555 1_555
C13 C3 1_555 1_555
C14 C13 1_555 1_555
C15 C14 1_555 1_555
C16 C14 1_555 1_555
H1 C1 1_555 1_555
H2 C3 1_555 1_555
H3 C5 1_555 1_555
H4 C6 1_555 1_555
H5 C6 1_555 1_555
H6 C7 1_555 1_555
H7 C7 1_555 1_555
H8 C10 1_555 1_555
H9 C10 1_555 1_555
H10 C10 1_555 1_555
H11 C11 1_555 1_555
H12 C11 1_555 1_555
H13 C11 1_555 1_555
H14 C12 1_555 1_555
H15 C12 1_555 1_555
H16 C12 1_555 1_555
H17 C13 1_555 1_555
H18 C14 1_555 1_555
H19 C15 1_555 1_555
H20 C15 1_555 1_555
H21 C15 1_555 1_555
H22 C16 1_555 1_555
H23 C16 1_555 1_555
H24 C16 1_555 1_555
O4 C17 1_555 1_555
O5 C18 1_555 1_555
O6 C29 1_555 1_555
N2 C19 1_555 1_555
C17 C20 1_555 1_555
C18 O4 1_555 1_555
C19 C18 1_555 1_555
C20 N2 1_555 1_555
C21 C20 1_555 1_555
C22 C21 1_555 1_555
C23 C22 1_555 1_555
C24 C17 1_555 1_555
C25 C21 1_555 1_555
C26 C25 1_555 1_555
C27 C25 1_555 1_555
C28 C24 1_555 1_555
C29 C19 1_555 1_555
C30 C29 1_555 1_555
C31 C30 1_555 1_555
C32 C30 1_555 1_555
H25 C17 1_555 1_555
H26 C19 1_555 1_555
H27 C21 1_555 1_555
H28 C22 1_555 1_555
H29 C22 1_555 1_555
H30 C23 1_555 1_555
H31 C23 1_555 1_555
H32 C26 1_555 1_555
H33 C26 1_555 1_555
H34 C26 1_555 1_555
H35 C27 1_555 1_555
H36 C27 1_555 1_555
H37 C27 1_555 1_555
H38 C28 1_555 1_555
H39 C28 1_555 1_555
H40 C28 1_555 1_555
H41 C29 1_555 1_555
H42 C30 1_555 1_555
H43 C31 1_555 1_555
H44 C31 1_555 1_555
H45 C31 1_555 1_555
H46 C32 1_555 1_555
H47 C32 1_555 1_555
H48 C32 1_555 1_555
C7 C8 1_555 1_555
C8 C9 1_555 1_555
C23 C24 1_555 1_555
C24 C25 1_555 1_555

#END
