
#######################################################################
#
#                 Cambridge Crystallographic Data Centre
#                                CCDC 
#
#######################################################################
#
# If this CIF has been generated from an entry in the Cambridge 
# Structural Database, then it will include bibliographic, chemical, 
# crystal, experimental, refinement or atomic coordinate data resulting 
# from the CCDC's data processing and validation procedures.
#
#######################################################################

data_XOSJOE
_chemical_formula_moiety         'C24 H23 N1 O5 S1'
_chemical_name_systematic        
1-(4-Methoxybenzyl)-4-(2-furanyl)-5-(toluene-4-sulfonyl)-3,4-dihydropyridin-2-one
_symmetry_cell_setting           monoclinic
_symmetry_space_group_name_H-M   'P 21/c'
_symmetry_Int_Tables_number      14
_space_group_name_Hall           '-P 2ybc'
loop_
_symmetry_equiv_pos_site_id
_symmetry_equiv_pos_as_xyz
1 x,y,z
2 x,1/2-y,1/2+z
3 -x,-y,-z
4 -x,1/2+y,1/2-z
_cell_length_a                   10.293(3)
_cell_length_b                   23.238(3)
_cell_length_c                   9.672(3)
_cell_angle_alpha                90
_cell_angle_beta                 113.29(2)
_cell_angle_gamma                90
_cell_volume                     2124.92
_exptl_crystal_colour            'light orange'
_exptl_crystal_description       prism
_cell_formula_units_Z            4
loop_
_atom_site_label
_atom_site_type_symbol
_atom_site_fract_x
_atom_site_fract_y
_atom_site_fract_z
S1 S 0.16851(6) 0.08647(3) 0.88614(7)
O1 O 0.2629(2) 0.23772(7) 0.4600(2)
O2 O 0.1756(2) 0.02771(8) 0.8461(2)
O3 O 0.0440(2) 0.10727(9) 0.9028(2)
O4 O -0.3427(2) 0.13694(8) -0.0732(2)
O5 O 0.3794(2) 0.06235(8) 0.5308(2)
N1 N 0.1235(2) 0.20746(8) 0.5779(2)
C1 C 0.2503(2) 0.2091(1) 0.5590(2)
C2 C 0.3683(2) 0.1751(1) 0.6722(2)
C3 C 0.3187(2) 0.1169(1) 0.7092(2)
C4 C 0.1959(2) 0.1294(1) 0.7519(2)
C5 C 0.1071(2) 0.1721(1) 0.6852(2)
C6 C 0.0038(3) 0.2420(1) 0.4788(2)
C7 C -0.0843(2) 0.2130(1) 0.3319(2)
C8 C -0.0374(2) 0.1657(1) 0.2785(2)
C9 C -0.1203(2) 0.1388(1) 0.1445(3)
C10 C -0.2533(2) 0.1599(1) 0.0608(2)
C11 C -0.3021(2) 0.2077(1) 0.1116(3)
C12 C -0.2188(2) 0.2334(1) 0.2459(3)
C13 C -0.2957(3) 0.0877(1) -0.1264(3)
C14 C 0.3168(2) 0.0994(1) 1.0555(2)
C15 C 0.4371(3) 0.0659(1) 1.0892(3)
C16 C 0.5536(3) 0.0759(1) 1.2211(3)
C17 C 0.5527(3) 0.1189(1) 1.3187(3)
C18 C 0.4309(3) 0.1512(1) 1.2837(3)
C19 C 0.3136(3) 0.1418(1) 1.1530(3)
C20 C 0.6804(3) 0.1294(1) 1.4616(3)
C21 C 0.2761(2) 0.0759(1) 0.5794(2)
C22 C 0.1554(3) 0.0496(1) 0.4922(3)
C23 C 0.1836(3) 0.0182(1) 0.3818(3)
C24 C 0.3177(4) 0.0270(1) 0.4081(3)
H1 H 0.4382 0.1683 0.6330
H2 H 0.4082 0.1970 0.7622
H3 H 0.3931 0.1003 0.7930
H4 H 0.0291 0.1786 0.7122
H5 H -0.0555 0.2502 0.5307
H6 H 0.0397 0.2769 0.4569
H7 H 0.0546 0.1512 0.3353
H8 H -0.0856 0.1061 0.1109
H9 H -0.3932 0.2229 0.0536
H10 H -0.2542 0.2657 0.2804
H11 H -0.2774 0.0574 -0.0552
H12 H -0.3667 0.0759 -0.2198
H13 H -0.2114 0.0967 -0.1399
H14 H 0.4393 0.0364 1.0222
H15 H 0.6356 0.0527 1.2448
H16 H 0.4282 0.1804 1.3511
H17 H 0.2310 0.1645 1.1304
H18 H 0.7009 0.0958 1.5222
H19 H 0.7590 0.1387 1.4378
H20 H 0.6618 0.1605 1.5150
H21 H 0.0675 0.0516 0.5027
H22 H 0.1185 -0.0048 0.3038
H23 H 0.3652 0.0111 0.3504
loop_
_geom_bond_atom_site_label_1
_geom_bond_atom_site_label_2
_geom_bond_site_symmetry_1
_geom_bond_site_symmetry_2
S1 O2 1_555 1_555
O1 C1 1_555 1_555
O3 S1 1_555 1_555
O4 C10 1_555 1_555
O5 C21 1_555 1_555
N1 C1 1_555 1_555
C1 C2 1_555 1_555
C2 C3 1_555 1_555
C3 C4 1_555 1_555
C4 S1 1_555 1_555
C5 N1 1_555 1_555
C6 N1 1_555 1_555
C7 C6 1_555 1_555
C8 C7 1_555 1_555
C9 C8 1_555 1_555
C10 C9 1_555 1_555
C11 C10 1_555 1_555
C12 C7 1_555 1_555
C13 O4 1_555 1_555
C14 S1 1_555 1_555
C15 C14 1_555 1_555
C16 C15 1_555 1_555
C17 C16 1_555 1_555
C18 C17 1_555 1_555
C19 C14 1_555 1_555
C20 C17 1_555 1_555
C21 C3 1_555 1_555
C22 C21 1_555 1_555
C23 C22 1_555 1_555
C24 O5 1_555 1_555
H1 C2 1_555 1_555
H2 C2 1_555 1_555
H3 C3 1_555 1_555
H4 C5 1_555 1_555
H5 C6 1_555 1_555
H6 C6 1_555 1_555
H7 C8 1_555 1_555
H8 C9 1_555 1_555
H9 C11 1_555 1_555
H10 C12 1_555 1_555
H11 C13 1_555 1_555
H12 C13 1_555 1_555
H13 C13 1_555 1_555
H14 C15 1_555 1_555
H15 C16 1_555 1_555
H16 C18 1_555 1_555
H17 C19 1_555 1_555
H18 C20 1_555 1_555
H19 C20 1_555 1_555
H20 C20 1_555 1_555
H21 C22 1_555 1_555
H22 C23 1_555 1_555
H23 C24 1_555 1_555
C4 C5 1_555 1_555
C11 C12 1_555 1_555
C18 C19 1_555 1_555
C23 C24 1_555 1_555

#END
