
#######################################################################
#
#                 Cambridge Crystallographic Data Centre
#                                CCDC 
#
#######################################################################
#
# If this CIF has been generated from an entry in the Cambridge 
# Structural Database, then it will include bibliographic, chemical, 
# crystal, experimental, refinement or atomic coordinate data resulting 
# from the CCDC's data processing and validation procedures.
#
#######################################################################

data_XOSJAR
_chemical_formula_moiety         'C19 H29 N1 O3'
_chemical_name_systematic        
(1S,2R,5S,8R,1'S)-5-(1'-Hydroxy-1'-cyclohexylmethyl)-8,11,11-trimethyl-3-oxa-6-aza-tricyclo(6.2.1.0^2,7^)undec-6-en-4-one
_symmetry_cell_setting           monoclinic
_symmetry_space_group_name_H-M   'P 21'
_symmetry_Int_Tables_number      4
_space_group_name_Hall           'P 2yb'
loop_
_symmetry_equiv_pos_site_id
_symmetry_equiv_pos_as_xyz
1 x,y,z
2 -x,1/2+y,-z
_cell_length_a                   7.2075(8)
_cell_length_b                   10.4013(12)
_cell_length_c                   12.3538(14)
_cell_angle_alpha                90
_cell_angle_beta                 98.287(2)
_cell_angle_gamma                90
_cell_volume                     916.462
_exptl_crystal_colour            white
_chemical_melting_point          '154-156 deg.C'
_cell_formula_units_Z            2
loop_
_atom_site_label
_atom_site_type_symbol
_atom_site_fract_x
_atom_site_fract_y
_atom_site_fract_z
O1 O 0.6689(4) 0.4953(2) 0.00874(19)
O2 O 0.4915(3) 0.39347(18) 0.11028(15)
O3 O 0.5988(3) 0.1864(3) -0.05280(18)
H1 H 0.5652 0.1219 -0.0227
N1 N 0.7941(2) 0.2262(2) 0.18721(15)
C1 C 0.3305(3) 0.2739(3) 0.2478(2)
H2 H 0.2331 0.3403 0.2388
C2 C 0.4542(3) 0.2696(2) 0.15728(19)
H3 H 0.3998 0.2108 0.0993
C3 C 0.6473(4) 0.4029(3) 0.06384(19)
C4 C 0.7979(3) 0.2989(2) 0.08651(18)
H4 H 0.9192 0.3431 0.0943
C5 C 0.6339(3) 0.2140(2) 0.21614(17)
C6 C 0.5913(3) 0.1647(3) 0.32460(18)
C7 C 0.4364(4) 0.0604(3) 0.2985(2)
H5 H 0.4704 -0.0010 0.2456
H6 H 0.4168 0.0146 0.3643
C8 C 0.2581(4) 0.1362(3) 0.2508(2)
H7 H 0.2086 0.1060 0.1781
H8 H 0.1615 0.1291 0.2976
C9 C 0.4719(4) 0.2840(3) 0.3538(2)
C10 C 0.5816(5) 0.4097(4) 0.3672(3)
H9 H 0.5010 0.4775 0.3851
H10 H 0.6276 0.4300 0.3000
H11 H 0.6854 0.4007 0.4248
C11 C 0.3828(5) 0.2630(4) 0.4586(2)
H12 H 0.3125 0.3380 0.4728
H13 H 0.4797 0.2480 0.5192
H14 H 0.3006 0.1900 0.4491
C12 C 0.7595(4) 0.1238(4) 0.4038(2)
H15 H 0.8172 0.0508 0.3749
H16 H 0.7206 0.1013 0.4725
H17 H 0.8478 0.1934 0.4146
C13 C 0.7901(3) 0.2109(2) -0.01457(19)
H18 H 0.8514 0.1293 0.0084
C14 C 0.8814(3) 0.2657(3) -0.10866(18)
H19 H 0.8107 0.3421 -0.1369
C15 C 1.0839(4) 0.3040(3) -0.0757(2)
H20 H 1.0902 0.3707 -0.0204
H21 H 1.1533 0.2303 -0.0432
C16 C 1.1772(5) 0.3526(4) -0.1701(3)
H22 H 1.1177 0.4320 -0.1979
H23 H 1.3082 0.3707 -0.1445
C17 C 1.1626(6) 0.2541(5) -0.2608(3)
H24 H 1.2154 0.2894 -0.3224
H25 H 1.2347 0.1785 -0.2353
C18 C 0.9641(6) 0.2165(6) -0.2971(3)
H26 H 0.9598 0.1500 -0.3525
H27 H 0.8949 0.2902 -0.3297
C19 C 0.8702(5) 0.1664(5) -0.2003(2)
H28 H 0.7398 0.1464 -0.2259
H29 H 0.9319 0.0879 -0.1722
loop_
_geom_bond_atom_site_label_1
_geom_bond_atom_site_label_2
_geom_bond_site_symmetry_1
_geom_bond_site_symmetry_2
O1 C3 1_555 1_555
O2 C2 1_555 1_555
O3 H1 1_555 1_555
N1 C4 1_555 1_555
C1 H2 1_555 1_555
C2 C1 1_555 1_555
H3 C2 1_555 1_555
C3 O2 1_555 1_555
C4 C3 1_555 1_555
H4 C4 1_555 1_555
C5 N1 1_555 1_555
C6 C5 1_555 1_555
C7 C6 1_555 1_555
H5 C7 1_555 1_555
H6 C7 1_555 1_555
C8 C1 1_555 1_555
H7 C8 1_555 1_555
H8 C8 1_555 1_555
C9 C1 1_555 1_555
C10 C9 1_555 1_555
H9 C10 1_555 1_555
H10 C10 1_555 1_555
H11 C10 1_555 1_555
C11 C9 1_555 1_555
H12 C11 1_555 1_555
H13 C11 1_555 1_555
H14 C11 1_555 1_555
C12 C6 1_555 1_555
H15 C12 1_555 1_555
H16 C12 1_555 1_555
H17 C12 1_555 1_555
C13 O3 1_555 1_555
H18 C13 1_555 1_555
C14 C13 1_555 1_555
H19 C14 1_555 1_555
C15 C14 1_555 1_555
H20 C15 1_555 1_555
H21 C15 1_555 1_555
C16 C15 1_555 1_555
H22 C16 1_555 1_555
H23 C16 1_555 1_555
C17 C16 1_555 1_555
H24 C17 1_555 1_555
H25 C17 1_555 1_555
C18 C17 1_555 1_555
H26 C18 1_555 1_555
H27 C18 1_555 1_555
C19 C14 1_555 1_555
H28 C19 1_555 1_555
H29 C19 1_555 1_555
C2 C5 1_555 1_555
C4 C13 1_555 1_555
C6 C9 1_555 1_555
C7 C8 1_555 1_555
C18 C19 1_555 1_555

#END
