
#######################################################################
#
#                 Cambridge Crystallographic Data Centre
#                                CCDC 
#
#######################################################################
#
# If this CIF has been generated from an entry in the Cambridge 
# Structural Database, then it will include bibliographic, chemical, 
# crystal, experimental, refinement or atomic coordinate data resulting 
# from the CCDC's data processing and validation procedures.
#
#######################################################################

data_XOSLAT
_chemical_formula_moiety         'C16 H14 Br1 N1 O2'
_chemical_name_systematic        
4-(4-Bromophenyl)-6-methyl-4,5-dihydro-1,5-benzoxazepin-2(3H)-one
_symmetry_cell_setting           orthorhombic
_symmetry_space_group_name_H-M   'P 21 21 21'
_symmetry_Int_Tables_number      19
_space_group_name_Hall           'P 2ac 2ab'
loop_
_symmetry_equiv_pos_site_id
_symmetry_equiv_pos_as_xyz
1 x,y,z
2 1/2-x,-y,1/2+z
3 -x,1/2+y,1/2-z
4 1/2+x,1/2-y,-z
_cell_length_a                   5.1367(2)
_cell_length_b                   11.0649(5)
_cell_length_c                   25.2522(11)
_cell_angle_alpha                90
_cell_angle_beta                 90
_cell_angle_gamma                90
_cell_volume                     1435.26
_exptl_crystal_colour            colorless
_exptl_crystal_description       prism
_chemical_melting_point          '145-147 deg.C'
_cell_formula_units_Z            4
loop_
_atom_site_label
_atom_site_type_symbol
_atom_site_fract_x
_atom_site_fract_y
_atom_site_fract_z
Br1 Br -0.20978(9) 0.59233(4) 0.971914(11)
C1 C -0.1057(6) 0.6246(2) 0.90140(9)
C2 C 0.1114(6) 0.6955(3) 0.89215(10)
H1 H 0.2059 0.7298 0.9208
C3 C 0.1887(6) 0.7156(2) 0.84024(9)
H2 H 0.3379 0.7638 0.8333
C4 C 0.0492(5) 0.66555(17) 0.79777(8)
C5 C -0.1709(5) 0.59813(18) 0.80846(8)
H3 H -0.2708 0.5663 0.7800
C6 C -0.2479(5) 0.5762(2) 0.86045(9)
H4 H -0.3973 0.5283 0.8676
C7 C 0.1476(4) 0.68762(17) 0.74188(8)
H5 H 0.3410 0.6775 0.7421
C8 C 0.0864(4) 0.81661(18) 0.72319(9)
H6 H 0.1526 0.8752 0.7496
H7 H 0.1765 0.8321 0.6892
C9 C -0.1994(5) 0.83468(17) 0.71603(8)
C10 C -0.1575(4) 0.72130(19) 0.63556(8)
C11 C 0.0158(5) 0.63040(18) 0.65071(8)
C12 C 0.1512(5) 0.5691(2) 0.61065(9)
C13 C 0.3470(6) 0.4728(2) 0.62434(10)
H8 H 0.4360 0.4461 0.5921
H9 H 0.2575 0.4039 0.6406
H10 H 0.4750 0.5056 0.6493
C14 C 0.1015(6) 0.5984(2) 0.55820(10)
H11 H 0.1899 0.5555 0.5310
C15 C -0.0726(7) 0.6881(3) 0.54424(10)
H12 H -0.1016 0.7069 0.5080
C16 C -0.2046(6) 0.7505(2) 0.58350(9)
H13 H -0.3253 0.8123 0.5746
N1 N 0.0384(4) 0.59927(15) 0.70466(7)
H14 H 0.112(6) 0.5323(19) 0.7075(11)
O1 O -0.3393(3) 0.89124(13) 0.74532(6)
O2 O -0.3112(3) 0.78278(14) 0.67303(6)
loop_
_geom_bond_atom_site_label_1
_geom_bond_atom_site_label_2
_geom_bond_site_symmetry_1
_geom_bond_site_symmetry_2
Br1 C1 1_555 1_555
C1 C2 1_555 1_555
C2 H1 1_555 1_555
C3 C2 1_555 1_555
H2 C3 1_555 1_555
C4 C3 1_555 1_555
C5 C4 1_555 1_555
H3 C5 1_555 1_555
C6 C1 1_555 1_555
H4 C6 1_555 1_555
C7 C4 1_555 1_555
H5 C7 1_555 1_555
C8 C7 1_555 1_555
H6 C8 1_555 1_555
H7 C8 1_555 1_555
C9 C8 1_555 1_555
C10 C11 1_555 1_555
C11 C12 1_555 1_555
C12 C13 1_555 1_555
C13 H8 1_555 1_555
H9 C13 1_555 1_555
H10 C13 1_555 1_555
C14 C12 1_555 1_555
H11 C14 1_555 1_555
C15 C14 1_555 1_555
H12 C15 1_555 1_555
C16 C10 1_555 1_555
H13 C16 1_555 1_555
N1 C7 1_555 1_555
H14 N1 1_555 1_555
O1 C9 1_555 1_555
O2 C9 1_555 1_555
C5 C6 1_555 1_555
C10 O2 1_555 1_555
C11 N1 1_555 1_555
C15 C16 1_555 1_555

#END
