
#######################################################################
#
#                 Cambridge Crystallographic Data Centre
#                                CCDC 
#
#######################################################################
#
# If this CIF has been generated from an entry in the Cambridge 
# Structural Database, then it will include bibliographic, chemical, 
# crystal, experimental, refinement or atomic coordinate data resulting 
# from the CCDC's data processing and validation procedures.
#
#######################################################################

data_XOSMIC
_chemical_formula_moiety         'C17 H24 N4 O1 2+,2(C2 F3 O2 1-)'
_chemical_name_systematic        
'1-(2-((Ethylammonio)methyl)-3H-imidazo(4,5-c)quinolin-5-ium-3-yl)-2-methylpropan-2-ol bis(trifluoroacetate)'
_chemical_properties_biological  
'Toll-like receptor 7 (TLR7)-antagonistic activity of free base'
_symmetry_cell_setting           triclinic
_symmetry_space_group_name_H-M   'P -1'
_symmetry_Int_Tables_number      2
_space_group_name_Hall           '-P 1'
loop_
_symmetry_equiv_pos_site_id
_symmetry_equiv_pos_as_xyz
1 x,y,z
2 -x,-y,-z
_cell_length_a                   8.1766(5)
_cell_length_b                   11.1900(7)
_cell_length_c                   14.1774(8)
_cell_angle_alpha                104.295(1)
_cell_angle_beta                 98.817(1)
_cell_angle_gamma                108.518(1)
_cell_volume                     1153.41
_exptl_crystal_colour            colorless
_exptl_crystal_description       plate
_cell_formula_units_Z            2
_exptl_crystal_recrystallization_method methanol
loop_
_atom_site_label
_atom_site_type_symbol
_atom_site_fract_x
_atom_site_fract_y
_atom_site_fract_z
O1 O 0.5296(3) 0.6947(2) 0.42906(16)
H1 H 0.448(5) 0.709(4) 0.460(3)
N1 N 0.5681(3) 0.6196(2) 0.23125(18)
N2 N 0.3869(3) 0.4055(2) 0.15124(18)
N3 N 0.3610(3) 0.6752(3) 0.00746(19)
H2 H 0.364(4) 0.732(3) -0.022(3)
N4 N 0.5232(3) 0.3052(2) 0.29239(19)
H3 H 0.530(5) 0.261(4) 0.225(3)
H4 H 0.595(4) 0.288(3) 0.338(2)
C1 C 0.5120(4) 0.4913(3) 0.2322(2)
C2 C 0.3574(4) 0.4825(3) 0.0937(2)
C3 C 0.4689(4) 0.6148(3) 0.1414(2)
C4 C 0.4732(4) 0.7130(3) 0.0968(2)
H5 H 0.549(4) 0.804(3) 0.128(2)
C5 C 0.2405(4) 0.5473(3) -0.0430(2)
C6 C 0.2360(4) 0.4453(3) -0.0002(2)
C7 C 0.1109(4) 0.3159(3) -0.0535(2)
H6 H 0.110(4) 0.252(3) -0.026(2)
C8 C 0.0004(4) 0.2909(3) -0.1443(2)
H7 H -0.086(4) 0.202(3) -0.183(2)
C9 C 0.0080(4) 0.3937(3) -0.1868(2)
H8 H -0.074(4) 0.367(3) -0.254(2)
C10 C 0.1256(4) 0.5208(3) -0.1364(2)
H9 H 0.135(4) 0.587(3) -0.167(2)
C11 C 0.5916(4) 0.4522(3) 0.3165(2)
H10 H 0.720(5) 0.484(3) 0.327(2)
H11 H 0.560(4) 0.490(3) 0.376(2)
C12 C 0.3380(4) 0.2462(3) 0.3033(2)
H12 H 0.261(4) 0.281(3) 0.266(2)
H13 H 0.342(4) 0.281(3) 0.375(2)
C13 C 0.2732(5) 0.0972(3) 0.2652(3)
H14 H 0.350(5) 0.063(4) 0.300(3)
H15 H 0.263(4) 0.062(3) 0.190(3)
H16 H 0.158(5) 0.061(4) 0.276(3)
C14 C 0.6936(4) 0.7388(3) 0.3115(2)
H17 H 0.782(4) 0.718(3) 0.345(2)
H18 H 0.749(4) 0.803(3) 0.279(2)
C15 C 0.6051(4) 0.7978(3) 0.3880(2)
C16 C 0.4611(4) 0.8396(3) 0.3409(3)
H19 H 0.405(4) 0.870(3) 0.389(2)
H20 H 0.365(4) 0.767(3) 0.287(2)
H21 H 0.518(4) 0.911(3) 0.315(2)
C17 C 0.7498(5) 0.9163(4) 0.4694(3)
H22 H 0.800(4) 0.983(4) 0.443(3)
H23 H 0.696(4) 0.947(3) 0.520(2)
H24 H 0.842(5) 0.889(3) 0.499(3)
F1 F 0.9636(3) 0.1602(2) 0.12093(16)
F2 F 0.7690(3) 0.08922(19) -0.01913(13)
F3 F 0.8085(4) -0.0490(2) 0.0534(2)
O2 O 0.6076(3) 0.1788(2) 0.11751(15)
O3 O 0.6283(3) 0.0203(2) 0.18450(16)
C18 C 0.6639(4) 0.0893(3) 0.1303(2)
C19 C 0.8016(4) 0.0711(3) 0.0710(2)
F4 F 0.9057(2) 0.3424(2) 0.33418(14)
F5 F 0.9960(3) 0.19705(19) 0.37357(14)
F6 F 1.1409(2) 0.40470(19) 0.45288(15)
O4 O 0.7003(3) 0.2703(2) 0.45455(15)
O5 O 0.9453(3) 0.3165(3) 0.57470(17)
C20 C 0.8641(4) 0.2997(3) 0.4895(2)
C21 C 0.9771(4) 0.3125(3) 0.4126(2)
loop_
_geom_bond_atom_site_label_1
_geom_bond_atom_site_label_2
_geom_bond_site_symmetry_1
_geom_bond_site_symmetry_2
O1 H1 1_555 1_555
N1 C1 1_555 1_555
N2 C1 1_555 1_555
N3 H2 1_555 1_555
N4 H3 1_555 1_555
H4 N4 1_555 1_555
C1 C11 1_555 1_555
C2 N2 1_555 1_555
C3 N1 1_555 1_555
C4 N3 1_555 1_555
H5 C4 1_555 1_555
C5 N3 1_555 1_555
C6 C2 1_555 1_555
C7 C6 1_555 1_555
H6 C7 1_555 1_555
C8 C7 1_555 1_555
H7 C8 1_555 1_555
C9 C8 1_555 1_555
H8 C9 1_555 1_555
C10 C5 1_555 1_555
H9 C10 1_555 1_555
C11 N4 1_555 1_555
H10 C11 1_555 1_555
H11 C11 1_555 1_555
C12 N4 1_555 1_555
H12 C12 1_555 1_555
H13 C12 1_555 1_555
C13 C12 1_555 1_555
H14 C13 1_555 1_555
H15 C13 1_555 1_555
H16 C13 1_555 1_555
C14 N1 1_555 1_555
H17 C14 1_555 1_555
H18 C14 1_555 1_555
C15 O1 1_555 1_555
C16 C15 1_555 1_555
H19 C16 1_555 1_555
H20 C16 1_555 1_555
H21 C16 1_555 1_555
C17 C15 1_555 1_555
H22 C17 1_555 1_555
H23 C17 1_555 1_555
H24 C17 1_555 1_555
F1 C19 1_555 1_555
F2 C19 1_555 1_555
F3 C19 1_555 1_555
O2 C18 1_555 1_555
O3 C18 1_555 1_555
C18 C19 1_555 1_555
F4 C21 1_555 1_555
F5 C21 1_555 1_555
F6 C21 1_555 1_555
O4 C20 1_555 1_555
O5 C20 1_555 1_555
C20 C21 1_555 1_555
C2 C3 1_555 1_555
C3 C4 1_555 1_555
C5 C6 1_555 1_555
C9 C10 1_555 1_555
C14 C15 1_555 1_555

#END
