
#######################################################################
#
#                 Cambridge Crystallographic Data Centre
#                                CCDC 
#
#######################################################################
#
# If this CIF has been generated from an entry in the Cambridge 
# Structural Database, then it will include bibliographic, chemical, 
# crystal, experimental, refinement or atomic coordinate data resulting 
# from the CCDC's data processing and validation procedures.
#
#######################################################################

data_XOSNIE
_chemical_formula_moiety         'C28 H21 N1 O1'
_chemical_name_systematic        
3-(1-benzyl-1H-indol-3-yl)-1-(2-naphthyl)prop-2-en-1-one
_symmetry_cell_setting           monoclinic
_symmetry_space_group_name_H-M   'P 21/n'
_symmetry_Int_Tables_number      14
_space_group_name_Hall           '-P 2yn'
loop_
_symmetry_equiv_pos_site_id
_symmetry_equiv_pos_as_xyz
1 x,y,z
2 1/2-x,1/2+y,1/2-z
3 -x,-y,-z
4 1/2+x,1/2-y,1/2+z
_cell_length_a                   18.5489(18)
_cell_length_b                   5.8835(5)
_cell_length_c                   18.7144(17)
_cell_angle_alpha                90
_cell_angle_beta                 93.780(8)
_cell_angle_gamma                90
_cell_volume                     2037.91
_cell_formula_units_Z            4
loop_
_atom_site_label
_atom_site_type_symbol
_atom_site_fract_x
_atom_site_fract_y
_atom_site_fract_z
O1 O 0.34651(11) -0.7897(4) -0.03790(11)
N1 N 0.50036(11) 0.0438(4) 0.12552(11)
C1 C 0.24183(14) -0.8504(4) 0.02376(13)
C2 C 0.19168(14) -0.7715(4) 0.06801(13)
H1 H 0.2003 -0.6346 0.0919
C3 C 0.12695(14) -0.8918(4) 0.07870(14)
C4 C 0.07441(16) -0.8093(5) 0.12363(16)
H2 H 0.0817 -0.6716 0.1474
C5 C 0.01316(17) -0.9312(6) 0.13220(19)
H3 H -0.0213 -0.8751 0.1615
C6 C 0.00160(19) -1.1376(7) 0.0978(2)
H4 H -0.0403 -1.2191 0.1046
C7 C 0.05083(19) -1.2225(6) 0.05414(18)
H5 H 0.0423 -1.3611 0.0312
C8 C 0.39054(13) -0.1004(4) 0.14505(12)
C9 C 0.11502(15) -1.1003(5) 0.04351(14)
C10 C 0.16750(17) -1.1794(5) -0.00200(15)
H6 H 0.1602 -1.3175 -0.0256
C11 C 0.22835(16) -1.0584(5) -0.01213(14)
H7 H 0.2615 -1.1134 -0.0431
C12 C 0.31031(15) -0.7269(5) 0.01139(13)
C13 C 0.33308(14) -0.5382(5) 0.05743(13)
H8 H 0.3035 -0.4938 0.0932
C14 C 0.39455(14) -0.4259(4) 0.05052(13)
H9 H 0.4230 -0.4785 0.0149
C15 C 0.42254(13) -0.2350(4) 0.09068(13)
C16 C 0.48915(14) -0.1377(4) 0.08205(13)
H10 H 0.5220 -0.1903 0.0504
C17 C 0.44006(13) 0.0716(4) 0.16530(13)
C18 C 0.42787(15) 0.2344(5) 0.21630(13)
H11 H 0.4621 0.3453 0.2289
C19 C 0.36278(16) 0.2253(5) 0.24771(15)
H12 H 0.3527 0.3311 0.2826
C20 C 0.31199(16) 0.0587(5) 0.22753(15)
H13 H 0.2682 0.0565 0.2490
C21 C 0.32486(14) -0.1013(5) 0.17711(13)
H14 H 0.2900 -0.2101 0.1642
C22 C 0.56473(15) 0.1867(5) 0.13095(14)
H15 H 0.5504 0.3436 0.1230
H16 H 0.5957 0.1442 0.0934
C23 C 0.60729(13) 0.1694(4) 0.20216(14)
C24 C 0.65154(17) 0.3468(5) 0.2254(2)
H17 H 0.6539 0.4772 0.1976
C25 C 0.69247(19) 0.3320(7) 0.2900(2)
H18 H 0.7223 0.4522 0.3050
C26 C 0.68931(18) 0.1438(7) 0.33151(19)
H19 H 0.7165 0.1353 0.3750
C27 C 0.64586(18) -0.0332(6) 0.30906(18)
H20 H 0.6436 -0.1630 0.3372
C28 C 0.60539(16) -0.0198(5) 0.24473(16)
H21 H 0.5762 -0.1416 0.2299
loop_
_geom_bond_atom_site_label_1
_geom_bond_atom_site_label_2
_geom_bond_site_symmetry_1
_geom_bond_site_symmetry_2
O1 C12 1_555 1_555
N1 C16 1_555 1_555
C1 C2 1_555 1_555
C2 H1 1_555 1_555
C3 C2 1_555 1_555
C4 C3 1_555 1_555
H2 C4 1_555 1_555
C5 C4 1_555 1_555
H3 C5 1_555 1_555
C6 C5 1_555 1_555
H4 C6 1_555 1_555
C7 C6 1_555 1_555
H5 C7 1_555 1_555
C8 C15 1_555 1_555
C9 C3 1_555 1_555
C10 C9 1_555 1_555
H6 C10 1_555 1_555
C11 C1 1_555 1_555
H7 C11 1_555 1_555
C12 C1 1_555 1_555
C13 C12 1_555 1_555
H8 C13 1_555 1_555
C14 C13 1_555 1_555
H9 C14 1_555 1_555
C15 C14 1_555 1_555
C16 C15 1_555 1_555
H10 C16 1_555 1_555
C17 N1 1_555 1_555
C18 C17 1_555 1_555
H11 C18 1_555 1_555
C19 C18 1_555 1_555
H12 C19 1_555 1_555
C20 C19 1_555 1_555
H13 C20 1_555 1_555
C21 C8 1_555 1_555
H14 C21 1_555 1_555
C22 N1 1_555 1_555
H15 C22 1_555 1_555
H16 C22 1_555 1_555
C23 C22 1_555 1_555
C24 C23 1_555 1_555
H17 C24 1_555 1_555
C25 C24 1_555 1_555
H18 C25 1_555 1_555
C26 C25 1_555 1_555
H19 C26 1_555 1_555
C27 C26 1_555 1_555
H20 C27 1_555 1_555
C28 C23 1_555 1_555
H21 C28 1_555 1_555
C7 C9 1_555 1_555
C8 C17 1_555 1_555
C10 C11 1_555 1_555
C20 C21 1_555 1_555
C27 C28 1_555 1_555

#END
