
#######################################################################
#
#                 Cambridge Crystallographic Data Centre
#                                CCDC 
#
#######################################################################
#
# If this CIF has been generated from an entry in the Cambridge 
# Structural Database, then it will include bibliographic, chemical, 
# crystal, experimental, refinement or atomic coordinate data resulting 
# from the CCDC's data processing and validation procedures.
#
#######################################################################

data_XOSQAY
_chemical_formula_moiety         'C15 H11 F3 N2 O2'
_chemical_name_systematic        
'Ethyl 1-(trifluoromethyl)-9H-\b-carboline-3-carboxylate'
_symmetry_cell_setting           triclinic
_symmetry_space_group_name_H-M   'P -1'
_symmetry_Int_Tables_number      2
_space_group_name_Hall           '-P 1'
loop_
_symmetry_equiv_pos_site_id
_symmetry_equiv_pos_as_xyz
1 x,y,z
2 -x,-y,-z
_cell_length_a                   8.4116(9)
_cell_length_b                   11.4492(13)
_cell_length_c                   15.0795(17)
_cell_angle_alpha                69.233(2)
_cell_angle_beta                 84.234(2)
_cell_angle_gamma                87.195(2)
_cell_volume                     1350.89
_exptl_crystal_colour            colorless
_exptl_crystal_description       block
_chemical_melting_point          '217-218 deg.C'
_cell_formula_units_Z            4
loop_
_atom_site_label
_atom_site_type_symbol
_atom_site_fract_x
_atom_site_fract_y
_atom_site_fract_z
F1 F 0.4400(11) 0.3947(5) 0.7269(4)
F2 F 0.5388(9) 0.2940(10) 0.8515(7)
F3 F 0.3203(7) 0.2571(5) 0.8273(5)
O1 O 0.8506(6) 0.1353(4) 0.4936(3)
O2 O 0.8280(6) 0.3287(4) 0.4978(3)
N1 N 0.6310(6) 0.2391(4) 0.6658(3)
N2 N 0.4104(6) -0.0017(4) 0.8668(3)
H1 H 0.3551 0.0287 0.9049
C1 C 0.8434(12) 0.2218(9) 0.3234(6)
H3 H 0.7784 0.1543 0.3251
H4 H 0.9085 0.2506 0.2639
H5 H 0.7759 0.2891 0.3296
C2 C 0.9472(10) 0.1779(8) 0.4028(6)
H6 H 1.0155 0.1099 0.3966
H7 H 1.0149 0.2454 0.4003
C3 C 0.7973(7) 0.2198(6) 0.5322(4)
C4 C 0.6975(7) 0.1609(5) 0.6231(4)
C5 C 0.6742(7) 0.0312(5) 0.6597(4)
C6 C 0.5762(7) -0.0162(5) 0.7440(4)
C7 C 0.5025(7) 0.0651(5) 0.7878(4)
C8 C 0.5367(7) 0.1942(6) 0.7454(4)
C9 C 0.4666(8) 0.2865(6) 0.7875(4)
C10 C 0.5215(7) -0.1399(5) 0.8012(4)
C11 C 0.5519(8) -0.2582(6) 0.7949(4)
C12 C 0.4785(9) -0.3594(6) 0.8643(5)
C13 C 0.3746(9) -0.3435(6) 0.9398(5)
C14 C 0.3439(8) -0.2283(6) 0.9467(4)
C15 C 0.4194(7) -0.1264(5) 0.8767(4)
F4 F -0.1630(8) 0.4336(4) 0.8498(4)
F5 F -0.1031(9) 0.5302(4) 0.7044(4)
F6 F 0.0647(8) 0.4818(5) 0.7971(6)
O3 O -0.0818(5) -0.1102(3) 0.8899(3)
O4 O -0.1976(6) 0.0040(4) 0.9714(3)
N3 N -0.0863(6) 0.2176(4) 0.8297(3)
N4 N 0.1349(6) 0.4068(4) 0.6036(3)
H2 H 0.1232 0.4859 0.5912
C16 C -0.0924(9) -0.3317(6) 0.9371(5)
H8 H -0.1334 -0.3214 0.8776
H9 H -0.1344 -0.4064 0.9851
H10 H 0.0221 -0.3377 0.9303
C17 C -0.1415(9) -0.2218(5) 0.9654(5)
H11 H -0.2570 -0.2170 0.9752
H12 H -0.0975 -0.2299 1.0244
C18 C -0.1172(7) -0.0042(5) 0.9033(4)
C19 C -0.0482(7) 0.1060(5) 0.8222(4)
C20 C 0.0501(7) 0.0905(5) 0.7472(4)
C21 C 0.1071(6) 0.1988(5) 0.6751(4)
C22 C 0.0628(6) 0.3149(5) 0.6805(4)
C23 C -0.0329(7) 0.3192(5) 0.7622(4)
C24 C -0.0669(8) 0.4390(6) 0.7779(4)
C25 C 0.2164(7) 0.2217(5) 0.5902(4)
C26 C 0.2296(7) 0.3509(5) 0.5493(4)
C27 C 0.3304(8) 0.4106(6) 0.4666(4)
C28 C 0.4166(8) 0.3322(6) 0.4271(4)
C29 C 0.4050(8) 0.2015(7) 0.4668(4)
C30 C 0.3048(7) 0.1446(6) 0.5485(4)
loop_
_geom_bond_atom_site_label_1
_geom_bond_atom_site_label_2
_geom_bond_site_symmetry_1
_geom_bond_site_symmetry_2
F1 C9 1_555 1_555
F2 C9 1_555 1_555
F3 C9 1_555 1_555
F4 C24 1_555 1_555
F5 C24 1_555 1_555
F6 C24 1_555 1_555
O1 C2 1_555 1_555
O2 C3 1_555 1_555
O3 C17 1_555 1_555
O4 C18 1_555 1_555
N1 C4 1_555 1_555
N2 H1 1_555 1_555
N3 C19 1_555 1_555
N4 H2 1_555 1_555
C1 H3 1_555 1_555
H4 C1 1_555 1_555
H5 C1 1_555 1_555
C2 C1 1_555 1_555
H6 C2 1_555 1_555
H7 C2 1_555 1_555
C3 O1 1_555 1_555
C4 C3 1_555 1_555
C5 C4 1_555 1_555
C6 C5 1_555 1_555
C7 N2 1_555 1_555
C8 N1 1_555 1_555
C9 C8 1_555 1_555
C10 C6 1_555 1_555
C11 C10 1_555 1_555
C12 C11 1_555 1_555
C13 C12 1_555 1_555
C14 C13 1_555 1_555
C15 N2 1_555 1_555
C16 H8 1_555 1_555
H9 C16 1_555 1_555
H10 C16 1_555 1_555
C17 C16 1_555 1_555
H11 C17 1_555 1_555
H12 C17 1_555 1_555
C18 O3 1_555 1_555
C19 C18 1_555 1_555
C20 C19 1_555 1_555
C21 C20 1_555 1_555
C22 N4 1_555 1_555
C23 N3 1_555 1_555
C24 C23 1_555 1_555
C25 C21 1_555 1_555
C26 N4 1_555 1_555
C27 C26 1_555 1_555
C28 C27 1_555 1_555
C29 C28 1_555 1_555
C30 C25 1_555 1_555
C6 C7 1_555 1_555
C7 C8 1_555 1_555
C10 C15 1_555 1_555
C14 C15 1_555 1_555
C21 C22 1_555 1_555
C22 C23 1_555 1_555
C25 C26 1_555 1_555
C29 C30 1_555 1_555

#END
