
#######################################################################
#
#                 Cambridge Crystallographic Data Centre
#                                CCDC 
#
#######################################################################
#
# If this CIF has been generated from an entry in the Cambridge 
# Structural Database, then it will include bibliographic, chemical, 
# crystal, experimental, refinement or atomic coordinate data resulting 
# from the CCDC's data processing and validation procedures.
#
#######################################################################

data_XOSQIH
_chemical_formula_moiety         'C22 H24 Cl1 N5 O7'
_chemical_name_systematic        
'((3-acetamido-4-((2-chloro-4-nitrophenyl)diazenyl)phenyl)imino)diethane-2,1-diyl diacetate'
_symmetry_cell_setting           monoclinic
_symmetry_space_group_name_H-M   'C 2/c'
_symmetry_Int_Tables_number      15
_space_group_name_Hall           '-C 2yn'
loop_
_symmetry_equiv_pos_site_id
_symmetry_equiv_pos_as_xyz
1 x,y,z
2 -x,y,1/2-z
3 1/2+x,1/2+y,z
4 1/2-x,1/2+y,1/2-z
5 -x,-y,-z
6 x,-y,1/2+z
7 1/2-x,1/2-y,-z
8 1/2+x,1/2-y,1/2+z
_cell_length_a                   15.740(3)
_cell_length_b                   36.210(6)
_cell_length_c                   8.5120(15)
_cell_angle_alpha                90
_cell_angle_beta                 104.062(3)
_cell_angle_gamma                90
_cell_volume                     4706
_exptl_crystal_colour            red
_exptl_crystal_description       block
_cell_formula_units_Z            8
loop_
_atom_site_label
_atom_site_type_symbol
_atom_site_fract_x
_atom_site_fract_y
_atom_site_fract_z
C1 C 0.9738(2) 0.37435(10) 0.5048(4)
C2 C 0.9063(2) 0.37524(10) 0.5813(4)
H1 H 0.8824 0.3975 0.6036
C3 C 0.8755(2) 0.34220(10) 0.6236(4)
C4 C 0.9084(2) 0.30845(10) 0.5866(4)
C5 C 0.9760(2) 0.30934(11) 0.5073(4)
H2 H 0.9990 0.2872 0.4809
C6 C 1.0091(2) 0.34171(10) 0.4675(4)
H3 H 1.0549 0.3419 0.4159
C7 C 0.8765(2) 0.21346(10) 0.6305(4)
C8 C 0.8063(2) 0.20482(10) 0.7060(4)
C9 C 0.7875(2) 0.16867(10) 0.7299(4)
H4 H 0.7433 0.1634 0.7821
C10 C 0.8319(2) 0.13898(10) 0.6790(4)
C11 C 0.9010(2) 0.14759(10) 0.6051(4)
H5 H 0.9321 0.1288 0.5699
C12 C 0.9214(2) 0.18333(10) 0.5864(4)
H6 H 0.9684 0.1883 0.5412
C13 C 0.6882(3) 0.23323(12) 0.8143(4)
C14 C 0.6471(3) 0.26974(12) 0.8282(4)
H7 H 0.6161 0.2687 0.9123
H8 H 0.6069 0.2755 0.7272
H9 H 0.6918 0.2885 0.8539
C15 C 0.8545(3) 0.07305(11) 0.6378(5)
H10 H 0.8446 0.0505 0.6919
H11 H 0.9169 0.0782 0.6669
C16 C 0.8257(3) 0.06694(12) 0.4576(5)
H12 H 0.8280 0.0901 0.4020
H13 H 0.8648 0.0497 0.4236
C17 C 0.7226(4) 0.02164(12) 0.3338(6)
C18 C 0.6306(4) 0.00938(14) 0.3009(7)
H14 H 0.6204 -0.0098 0.2203
H15 H 0.5930 0.0298 0.2623
H16 H 0.6184 0.0001 0.3988
C19 C 0.7459(3) 0.09299(12) 0.7888(5)
H17 H 0.7159 0.0705 0.7428
H18 H 0.7025 0.1123 0.7778
C20 C 0.7855(4) 0.0871(2) 0.9625(8)
H19 H 0.7646 0.0642 0.9957
H20 H 0.7674 0.1067 1.0232
C21 C 0.9141(6) 0.1084(2) 1.0749(9)
C22 C 0.9532(7) 0.1408(3) 1.1739(10)
H21 H 0.9273 0.1632 1.1247
H22 H 0.9426 0.1386 1.2799
H23 H 1.0151 0.1415 1.1827
Cl1 Cl 0.79307(7) 0.34325(3) 0.72696(12)
H24 H 0.774(2) 0.2559(10) 0.725(4)
N1 N 1.0099(2) 0.40924(10) 0.4656(4)
N2 N 0.87128(19) 0.27602(8) 0.6318(3)
N3 N 0.90730(19) 0.24685(8) 0.5962(3)
N4 N 0.7592(2) 0.23414(9) 0.7472(3)
N5 N 0.8093(2) 0.10322(8) 0.6967(3)
O1 O 1.0730(2) 0.40843(9) 0.4071(5)
O2 O 0.9742(3) 0.43774(9) 0.4885(5)
O3 O 0.6598(2) 0.20499(8) 0.8578(4)
O4 O 0.7378(2) 0.05242(8) 0.4159(4)
O5 O 0.7784(3) 0.00589(11) 0.2923(6)
O6 O 0.8285(5) 0.10846(17) 1.0456(8)
O7 O 0.9591(2) 0.08647(11) 1.0243(4)
C1A C 1.0262(2) 0.37435(10) 1.9952(4)
C2A C 1.0937(2) 0.37524(10) 1.9187(4)
H1A H 1.1176 0.3975 1.8964
C3A C 1.1245(2) 0.34220(10) 1.8764(4)
C4A C 1.0916(2) 0.30845(10) 1.9134(4)
C5A C 1.0240(2) 0.30934(11) 1.9927(4)
H2A H 1.0010 0.2872 2.0191
C6A C 0.9909(2) 0.34171(10) 2.0325(4)
H3A H 0.9451 0.3419 2.0841
C7A C 1.1235(2) 0.21346(10) 1.8695(4)
C8A C 1.1937(2) 0.20482(10) 1.7940(4)
C9A C 1.2125(2) 0.16867(10) 1.7701(4)
H4A H 1.2567 0.1634 1.7179
C10A C 1.1681(2) 0.13898(10) 1.8210(4)
C11A C 1.0990(2) 0.14759(10) 1.8949(4)
H5A H 1.0679 0.1288 1.9301
C12A C 1.0786(2) 0.18333(10) 1.9136(4)
H6A H 1.0316 0.1883 1.9588
C13A C 1.3118(3) 0.23323(12) 1.6857(4)
C14A C 1.3529(3) 0.26974(12) 1.6718(4)
H7A H 1.3839 0.2687 1.5877
H8A H 1.3931 0.2755 1.7728
H9A H 1.3082 0.2885 1.6461
C15A C 1.1455(3) 0.07305(11) 1.8622(5)
H10A H 1.1554 0.0505 1.8081
H11A H 1.0831 0.0782 1.8331
C16A C 1.1743(3) 0.06694(12) 2.0424(5)
H12A H 1.1720 0.0901 2.0980
H13A H 1.1352 0.0497 2.0764
C17A C 1.2774(4) 0.02164(12) 2.1662(6)
C18A C 1.3694(4) 0.00938(14) 2.1991(7)
H14A H 1.3796 -0.0098 2.2797
H15A H 1.4070 0.0298 2.2377
H16A H 1.3816 0.0001 2.1012
C19A C 1.2541(3) 0.09299(12) 1.7112(5)
H17A H 1.2841 0.0705 1.7572
H18A H 1.2975 0.1123 1.7222
C20A C 1.2145(4) 0.0871(2) 1.5375(8)
H19A H 1.2354 0.0642 1.5043
H20A H 1.2326 0.1067 1.4768
C21A C 1.0859(6) 0.1084(2) 1.4251(9)
C22A C 1.0468(7) 0.1408(3) 1.3261(10)
H21A H 1.0727 0.1632 1.3753
H22A H 1.0574 0.1386 1.2201
H23A H 0.9849 0.1415 1.3173
Cl1A Cl 1.20693(7) 0.34325(3) 1.77304(12)
H24A H 1.226(2) 0.2559(10) 1.775(4)
N1A N 0.9901(2) 0.40924(10) 2.0344(4)
N2A N 1.12872(19) 0.27602(8) 1.8682(3)
N3A N 1.09270(19) 0.24685(8) 1.9038(3)
N4A N 1.2408(2) 0.23414(9) 1.7528(3)
N5A N 1.1907(2) 0.10322(8) 1.8033(3)
O1A O 0.9270(2) 0.40843(9) 2.0929(5)
O2A O 1.0258(3) 0.43774(9) 2.0115(5)
O3A O 1.3402(2) 0.20499(8) 1.6422(4)
O4A O 1.2622(2) 0.05242(8) 2.0841(4)
O5A O 1.2216(3) 0.00589(11) 2.2077(6)
O6A O 1.1715(5) 0.10846(17) 1.4544(8)
O7A O 1.0409(2) 0.08647(11) 1.4757(4)
C23? C 0.9156(7) 0.0626(3) 1.0593(10)
C24? C 0.9526(8) 0.0269(3) 1.1367(13)
H25? H 0.9675 0.0112 1.0564
H26? H 0.9097 0.0148 1.1819
H27? H 1.0041 0.0321 1.2210
O8? O 0.8325(5) 0.06481(19) 1.0400(8)
loop_
_geom_bond_atom_site_label_1
_geom_bond_atom_site_label_2
_geom_bond_site_symmetry_1
_geom_bond_site_symmetry_2
C1 C2 1_555 1_555
C2 H1 1_555 1_555
C3 C2 1_555 1_555
C4 C3 1_555 1_555
C5 C4 1_555 1_555
H2 C5 1_555 1_555
C6 C1 1_555 1_555
H3 C6 1_555 1_555
C7 C8 1_555 1_555
C8 C9 1_555 1_555
C9 H4 1_555 1_555
C10 C9 1_555 1_555
C11 C10 1_555 1_555
H5 C11 1_555 1_555
C12 C7 1_555 1_555
H6 C12 1_555 1_555
C13 C14 1_555 1_555
C14 H7 1_555 1_555
H8 C14 1_555 1_555
H9 C14 1_555 1_555
C15 H10 1_555 1_555
H11 C15 1_555 1_555
C16 C15 1_555 1_555
H12 C16 1_555 1_555
H13 C16 1_555 1_555
C17 C18 1_555 1_555
C18 H14 1_555 1_555
H15 C18 1_555 1_555
H16 C18 1_555 1_555
C19 H17 1_555 1_555
H18 C19 1_555 1_555
C20 C19 1_555 1_555
H19 C20 1_555 1_555
H20 C20 1_555 1_555
C21 C22 1_555 1_555
C22 H21 1_555 1_555
H22 C22 1_555 1_555
H23 C22 1_555 1_555
Cl1 C3 1_555 1_555
H24 N4 1_555 1_555
N1 C1 1_555 1_555
N2 C4 1_555 1_555
N3 C7 1_555 1_555
N4 C8 1_555 1_555
N5 C10 1_555 1_555
O1 N1 1_555 1_555
O2 N1 1_555 1_555
O3 C13 1_555 1_555
O4 C16 1_555 1_555
O5 C17 1_555 1_555
O6 C20 1_555 1_555
O7 C21 1_555 1_555
C1A C2A 1_555 1_555
C2A H1A 1_555 1_555
C3A C2A 1_555 1_555
C4A C3A 1_555 1_555
C5A C4A 1_555 1_555
H2A C5A 1_555 1_555
C6A C1A 1_555 1_555
H3A C6A 1_555 1_555
C7A C8A 1_555 1_555
C8A C9A 1_555 1_555
C9A H4A 1_555 1_555
C10A C9A 1_555 1_555
C11A C10A 1_555 1_555
H5A C11A 1_555 1_555
C12A C7A 1_555 1_555
H6A C12A 1_555 1_555
C13A C14A 1_555 1_555
C14A H7A 1_555 1_555
H8A C14A 1_555 1_555
H9A C14A 1_555 1_555
C15A H10A 1_555 1_555
H11A C15A 1_555 1_555
C16A C15A 1_555 1_555
H12A C16A 1_555 1_555
H13A C16A 1_555 1_555
C17A C18A 1_555 1_555
C18A H14A 1_555 1_555
H15A C18A 1_555 1_555
H16A C18A 1_555 1_555
C19A H17A 1_555 1_555
H18A C19A 1_555 1_555
C20A C19A 1_555 1_555
H19A C20A 1_555 1_555
H20A C20A 1_555 1_555
C21A C22A 1_555 1_555
C22A H21A 1_555 1_555
H22A C22A 1_555 1_555
H23A C22A 1_555 1_555
Cl1A C3A 1_555 1_555
H24A N4A 1_555 1_555
N1A C1A 1_555 1_555
N2A C4A 1_555 1_555
N3A C7A 1_555 1_555
N4A C8A 1_555 1_555
N5A C10A 1_555 1_555
O1A N1A 1_555 1_555
O2A N1A 1_555 1_555
O3A C13A 1_555 1_555
O4A C16A 1_555 1_555
O5A C17A 1_555 1_555
O6A C20A 1_555 1_555
O7A C21A 1_555 1_555
C5 C6 1_555 1_555
C11 C12 1_555 1_555
C13 N4 1_555 1_555
C15 N5 1_555 1_555
C17 O4 1_555 1_555
C19 N5 1_555 1_555
C21 O6 1_555 1_555
N2 N3 1_555 1_555
C5A C6A 1_555 1_555
C11A C12A 1_555 1_555
C13A N4A 1_555 1_555
C15A N5A 1_555 1_555
C17A O4A 1_555 1_555
C19A N5A 1_555 1_555
C21A O6A 1_555 1_555
N2A N3A 1_555 1_555

#END
