
#######################################################################
#
#                 Cambridge Crystallographic Data Centre
#                                CCDC 
#
#######################################################################
#
# If this CIF has been generated from an entry in the Cambridge 
# Structural Database, then it will include bibliographic, chemical, 
# crystal, experimental, refinement or atomic coordinate data resulting 
# from the CCDC's data processing and validation procedures.
#
#######################################################################

data_XOSWAF
_chemical_formula_moiety         'C25 H28 O4 Si1'
_chemical_name_systematic        
(3-(Furan-2-yl)-5,6-dimethoxy-1-methyl-2-phenyl-1H-inden-1-yloxy)trimethylsilane
_symmetry_cell_setting           orthorhombic
_symmetry_space_group_name_H-M   'P 21 21 21'
_symmetry_Int_Tables_number      19
_space_group_name_Hall           'P 2ac 2ab'
loop_
_symmetry_equiv_pos_site_id
_symmetry_equiv_pos_as_xyz
1 x,y,z
2 1/2-x,-y,1/2+z
3 -x,1/2+y,1/2-z
4 1/2+x,1/2-y,-z
_cell_length_a                   7.4301(5)
_cell_length_b                   16.7863(11)
_cell_length_c                   18.6419(12)
_cell_angle_alpha                90
_cell_angle_beta                 90
_cell_angle_gamma                90
_cell_volume                     2325.09
_exptl_crystal_colour            colorless
_exptl_crystal_description       prismatic
_chemical_melting_point          '437 K'
_cell_formula_units_Z            4
_exptl_crystal_recrystallization_method hexane/acetone
loop_
_atom_site_label
_atom_site_type_symbol
_atom_site_fract_x
_atom_site_fract_y
_atom_site_fract_z
Si1 Si 0.68292(8) 0.09962(3) 0.83397(3)
O1 O 0.35663(19) 0.05436(8) 0.52494(7)
O2 O 0.83268(17) 0.08024(8) 0.77107(6)
O3 O 0.71183(19) 0.37911(8) 0.65729(8)
O4 O 0.4399(2) 0.34466(8) 0.57852(7)
C1 C 0.8214(3) 0.08625(11) 0.69456(9)
C2 C 0.7030(2) 0.02117(10) 0.66136(9)
C3 C 0.5721(2) 0.05391(11) 0.62060(9)
C4 C 0.5838(2) 0.14189(11) 0.62566(9)
C5 C 0.7293(2) 0.16115(11) 0.66865(9)
C6 C 0.7783(3) 0.23925(12) 0.68076(10)
H1 H 0.8769 0.2512 0.7096
C7 C 0.6783(3) 0.29961(11) 0.64929(9)
C8 C 0.5293(3) 0.28079(11) 0.60637(9)
C9 C 0.4822(3) 0.20202(11) 0.59412(9)
H2 H 0.3841 0.1896 0.5652
C10 C 0.4424(3) 0.01111(11) 0.57715(10)
C11 C 0.3838(3) -0.06445(13) 0.57329(12)
H3 H 0.4191 -0.1063 0.6028
C12 C 0.2597(3) -0.06884(13) 0.51670(12)
H4 H 0.1983 -0.1141 0.5015
C13 C 0.2464(3) 0.00328(15) 0.48916(12)
H5 H 0.1725 0.0172 0.4509
C14 C 0.7442(2) -0.06472(11) 0.66790(10)
C15 C 0.6936(3) -0.11003(12) 0.72669(11)
H6 H 0.6335 -0.0860 0.7647
C16 C 0.7313(3) -0.19002(13) 0.72933(12)
H7 H 0.6973 -0.2194 0.7694
C17 C 0.8179(3) -0.22718(13) 0.67411(13)
H8 H 0.8415 -0.2815 0.6762
C18 C 0.8697(4) -0.18367(14) 0.61556(13)
H9 H 0.9287 -0.2083 0.5776
C19 C 0.8341(3) -0.10294(13) 0.61311(12)
H10 H 0.8716 -0.0736 0.5735
C20 C 1.0144(3) 0.08081(13) 0.66714(11)
H11 H 1.0843 0.1234 0.6872
H12 H 1.0149 0.0849 0.6158
H13 H 1.0655 0.0307 0.6812
C21 C 0.8691(3) 0.40122(14) 0.69452(15)
H14 H 0.8602 0.3842 0.7436
H15 H 0.8827 0.4581 0.6929
H16 H 0.9716 0.3765 0.6725
C22 C 0.2962(4) 0.32844(15) 0.53024(13)
H17 H 0.3388 0.2950 0.4921
H18 H 0.2520 0.3776 0.5106
H19 H 0.2009 0.3018 0.5554
C23 C 0.4500(3) 0.07711(14) 0.80539(12)
H20 H 0.4175 0.1112 0.7661
H21 H 0.3692 0.0860 0.8448
H22 H 0.4424 0.0225 0.7905
C24 C 0.6908(4) 0.20505(16) 0.86323(14)
H23 H 0.8113 0.2184 0.8773
H24 H 0.6110 0.2125 0.9032
H25 H 0.6541 0.2389 0.8243
C25 C 0.7508(4) 0.03390(17) 0.90813(12)
H26 H 0.7435 -0.0206 0.8929
H27 H 0.6721 0.0421 0.9483
H28 H 0.8723 0.0459 0.9219
loop_
_geom_bond_atom_site_label_1
_geom_bond_atom_site_label_2
_geom_bond_site_symmetry_1
_geom_bond_site_symmetry_2
Si1 O2 1_555 1_555
O1 C10 1_555 1_555
O2 C1 1_555 1_555
O3 C7 1_555 1_555
O4 C8 1_555 1_555
C1 C2 1_555 1_555
C2 C3 1_555 1_555
C3 C4 1_555 1_555
C4 C5 1_555 1_555
C5 C1 1_555 1_555
C6 C5 1_555 1_555
H1 C6 1_555 1_555
C7 C6 1_555 1_555
C8 C7 1_555 1_555
C9 C4 1_555 1_555
H2 C9 1_555 1_555
C10 C3 1_555 1_555
C11 C10 1_555 1_555
H3 C11 1_555 1_555
C12 C11 1_555 1_555
H4 C12 1_555 1_555
C13 O1 1_555 1_555
H5 C13 1_555 1_555
C14 C2 1_555 1_555
C15 C14 1_555 1_555
H6 C15 1_555 1_555
C16 C15 1_555 1_555
H7 C16 1_555 1_555
C17 C16 1_555 1_555
H8 C17 1_555 1_555
C18 C17 1_555 1_555
H9 C18 1_555 1_555
C19 C14 1_555 1_555
H10 C19 1_555 1_555
C20 C1 1_555 1_555
H11 C20 1_555 1_555
H12 C20 1_555 1_555
H13 C20 1_555 1_555
C21 O3 1_555 1_555
H14 C21 1_555 1_555
H15 C21 1_555 1_555
H16 C21 1_555 1_555
C22 O4 1_555 1_555
H17 C22 1_555 1_555
H18 C22 1_555 1_555
H19 C22 1_555 1_555
C23 Si1 1_555 1_555
H20 C23 1_555 1_555
H21 C23 1_555 1_555
H22 C23 1_555 1_555
C24 Si1 1_555 1_555
H23 C24 1_555 1_555
H24 C24 1_555 1_555
H25 C24 1_555 1_555
C25 Si1 1_555 1_555
H26 C25 1_555 1_555
H27 C25 1_555 1_555
H28 C25 1_555 1_555
C8 C9 1_555 1_555
C12 C13 1_555 1_555
C18 C19 1_555 1_555

#END
