
#######################################################################
#
#                 Cambridge Crystallographic Data Centre
#                                CCDC 
#
#######################################################################
#
# If this CIF has been generated from an entry in the Cambridge 
# Structural Database, then it will include bibliographic, chemical, 
# crystal, experimental, refinement or atomic coordinate data resulting 
# from the CCDC's data processing and validation procedures.
#
#######################################################################

data_XOSWEJ
_chemical_formula_moiety         'C67 H78 Se1,C6 H14'
_chemical_name_systematic        
'2,6-bis(3,5-bis(2,6-Di-isopropylphenyl)phenyl)benzenecarboselenaldehyde n-hexane solvate'
_symmetry_cell_setting           monoclinic
_symmetry_space_group_name_H-M   'P 21/n'
_symmetry_Int_Tables_number      14
_space_group_name_Hall           '-P 2yn'
loop_
_symmetry_equiv_pos_site_id
_symmetry_equiv_pos_as_xyz
1 x,y,z
2 1/2-x,1/2+y,1/2-z
3 -x,-y,-z
4 1/2+x,1/2-y,1/2+z
_cell_length_a                   19.4185(18)
_cell_length_b                   9.4091(8)
_cell_length_c                   35.522(3)
_cell_angle_alpha                90
_cell_angle_beta                 103.2891(13)
_cell_angle_gamma                90
_cell_volume                     6316.45
_exptl_crystal_colour            green
_exptl_crystal_description       platelet
_cell_formula_units_Z            4
loop_
_atom_site_label
_atom_site_type_symbol
_atom_site_fract_x
_atom_site_fract_y
_atom_site_fract_z
C1 C 0.91498(15) 0.3785(3) 0.34996(8)
H1 H 0.9592 0.3428 0.3471
Se1 Se 0.85476(2) 0.24583(4) 0.354020(13)
C2 C 0.91153(13) 0.5334(3) 0.35004(7)
C3 C 0.86146(12) 0.6086(3) 0.36599(7)
C4 C 0.85133(13) 0.7529(3) 0.35831(7)
H2 H 0.8164 0.8024 0.3680
C5 C 0.89097(14) 0.8263(3) 0.33679(8)
H3 H 0.8825 0.9244 0.3313
C6 C 0.94281(14) 0.7552(3) 0.32345(8)
H4 H 0.9709 0.8061 0.3094
C7 C 0.95482(13) 0.6110(3) 0.33015(7)
C8 C 0.82228(13) 0.5402(3) 0.39262(7)
C9 C 0.74842(13) 0.5374(3) 0.38454(7)
H5 H 0.7220 0.5805 0.3615
C10 C 0.71330(12) 0.4721(3) 0.40982(7)
C11 C 0.75269(13) 0.4117(3) 0.44374(7)
H6 H 0.7289 0.3657 0.4609
C12 C 0.82644(13) 0.4174(3) 0.45294(7)
C13 C 0.86020(13) 0.4817(3) 0.42710(7)
H7 H 0.9104 0.4858 0.4331
C14 C 0.63427(13) 0.4618(3) 0.40092(7)
C15 C 0.59958(13) 0.3583(3) 0.37436(8)
C16 C 0.52617(15) 0.3453(4) 0.36818(9)
H8 H 0.5021 0.2755 0.3507
C17 C 0.48848(16) 0.4325(4) 0.38720(10)
H9 H 0.4386 0.4224 0.3826
C18 C 0.52196(15) 0.5338(4) 0.41267(9)
H10 H 0.4949 0.5937 0.4252
C19 C 0.59548(14) 0.5502(3) 0.42040(8)
C20 C 0.64048(16) 0.2584(3) 0.35408(9)
H11 H 0.6871 0.3038 0.3543
C21 C 0.6032(2) 0.2307(5) 0.31201(11)
H12 H 0.5571 0.1862 0.3110
H13 H 0.6322 0.1672 0.3002
H14 H 0.5962 0.3209 0.2979
C22 C 0.6551(2) 0.1186(4) 0.37678(13)
H15 H 0.6829 0.1382 0.4030
H16 H 0.6817 0.0543 0.3636
H17 H 0.6102 0.0742 0.3782
C23 C 0.63127(15) 0.6626(4) 0.44882(8)
H18 H 0.6833 0.6565 0.4506
C24 C 0.6072(2) 0.8119(4) 0.43497(11)
H19 H 0.6195 0.8304 0.4102
H20 H 0.6307 0.8817 0.4541
H21 H 0.5558 0.8195 0.4317
C25 C 0.6192(2) 0.6360(5) 0.48924(10)
H22 H 0.5684 0.6407 0.4884
H23 H 0.6441 0.7086 0.5071
H24 H 0.6372 0.5417 0.4982
C26 C 0.86893(12) 0.3557(3) 0.49014(7)
C27 C 0.87772(14) 0.2082(3) 0.49400(8)
C28 C 0.91939(15) 0.1556(3) 0.52862(9)
H25 H 0.9252 0.0558 0.5320
C29 C 0.95223(15) 0.2453(3) 0.55792(8)
H26 H 0.9811 0.2072 0.5810
C30 C 0.94333(14) 0.3897(3) 0.55386(8)
H27 H 0.9662 0.4507 0.5742
C31 C 0.90095(13) 0.4488(3) 0.52008(7)
C32 C 0.84527(16) 0.1049(3) 0.46193(10)
H28 H 0.8190 0.1619 0.4394
C33 C 0.9014(2) 0.0205(4) 0.44860(12)
H29 H 0.9320 0.0854 0.4383
H30 H 0.8788 -0.0463 0.4284
H31 H 0.9299 -0.0323 0.4705
C34 C 0.7923(2) 0.0074(4) 0.47457(14)
H32 H 0.8165 -0.0488 0.4969
H33 H 0.7712 -0.0566 0.4533
H34 H 0.7550 0.0646 0.4816
C35 C 0.88706(13) 0.6081(3) 0.51769(7)
H35 H 0.8716 0.6335 0.4897
C36 C 0.95175(16) 0.6969(3) 0.53486(10)
H36 H 0.9394 0.7979 0.5320
H37 H 0.9892 0.6763 0.5213
H38 H 0.9685 0.6738 0.5623
C37 C 0.82619(16) 0.6425(3) 0.53648(9)
H39 H 0.8399 0.6196 0.5641
H40 H 0.7846 0.5862 0.5242
H41 H 0.8148 0.7439 0.5333
C38 C 1.01392(13) 0.5427(3) 0.31612(7)
C39 C 1.07081(13) 0.4793(3) 0.34214(7)
H42 H 1.0715 0.4794 0.3690
C40 C 1.12591(13) 0.4167(3) 0.32971(7)
C41 C 1.12418(13) 0.4182(3) 0.29019(7)
H43 H 1.1617 0.3749 0.2813
C42 C 1.06854(13) 0.4818(3) 0.26343(7)
C43 C 1.01387(13) 0.5451(3) 0.27704(7)
H44 H 0.9761 0.5903 0.2593
C44 C 1.18709(13) 0.3492(3) 0.35736(7)
C45 C 1.18759(14) 0.2008(3) 0.36349(7)
C46 C 1.24526(15) 0.1410(3) 0.38889(8)
H45 H 1.2464 0.0413 0.3933
C47 C 1.30123(15) 0.2244(3) 0.40797(8)
H46 H 1.3405 0.1812 0.4251
C48 C 1.30056(14) 0.3690(3) 0.40234(8)
H47 H 1.3391 0.4251 0.4158
C49 C 1.24362(13) 0.4340(3) 0.37703(7)
C50 C 1.12497(15) 0.1080(3) 0.34435(8)
H48 H 1.0951 0.1644 0.3228
C51 C 1.0801(2) 0.0748(5) 0.37293(12)
H49 H 1.1069 0.0143 0.3936
H50 H 1.0370 0.0251 0.3596
H51 H 1.0672 0.1635 0.3841
C52 C 1.1470(2) -0.0277(4) 0.32690(11)
H52 H 1.1784 -0.0039 0.3098
H53 H 1.1049 -0.0764 0.3120
H54 H 1.1720 -0.0903 0.3477
C53 C 1.24384(14) 0.5948(3) 0.37182(9)
H55 H 1.2031 0.6199 0.3500
C54 C 1.2317(3) 0.6696(5) 0.40909(16)
H56 H 1.1853 0.6424 0.4132
H57 H 1.2334 0.7729 0.4059
H58 H 1.2687 0.6403 0.4314
C55 C 1.3106(3) 0.6526(5) 0.36214(17)
H59 H 1.3507 0.6391 0.3843
H60 H 1.3046 0.7542 0.3562
H61 H 1.3197 0.6020 0.3397
C56 C 1.06937(14) 0.4797(3) 0.22139(7)
C57 C 1.02959(16) 0.3777(3) 0.19701(8)
C58 C 1.03499(18) 0.3731(4) 0.15850(8)
H62 H 1.0089 0.3035 0.1417
C59 C 1.07721(19) 0.4671(4) 0.14439(9)
H63 H 1.0804 0.4615 0.1181
C60 C 1.11474(17) 0.5691(4) 0.16835(9)
H64 H 1.1430 0.6349 0.1583
C61 C 1.11211(14) 0.5778(3) 0.20730(8)
C62 C 0.98519(18) 0.2688(3) 0.21228(9)
H65 H 0.9741 0.3084 0.2364
C63 C 1.0271(2) 0.1314(4) 0.22311(12)
H66 H 1.0346 0.0855 0.1996
H67 H 1.0005 0.0672 0.2363
H68 H 1.0729 0.1534 0.2404
C64 C 0.9152(2) 0.2364(5) 0.18394(12)
H69 H 0.8892 0.3251 0.1765
H70 H 0.8870 0.1728 0.1962
H71 H 0.9245 0.1903 0.1609
C65 C 1.15404(16) 0.6923(4) 0.23300(9)
H72 H 1.1342 0.6998 0.2565
C66 C 1.1457(4) 0.8432(7) 0.2129(2)
H73 H 1.0954 0.8656 0.2038
H74 H 1.1683 0.8421 0.1909
H75 H 1.1684 0.9153 0.2316
C67 C 1.2324(3) 0.6642(10) 0.2467(3)
H76 H 1.2523 0.6415 0.2245
H77 H 1.2398 0.5839 0.2648
H78 H 1.2558 0.7489 0.2598
C68 C 0.5150(5) 0.0447(9) 0.4967(3)
C69 C 0.5845(7) 0.1041(14) 0.5187(4)
C70 C 0.5976(5) 0.2258(10) 0.4876(3)
C68B C 0.4850(5) -0.0447(9) 0.5033(3)
C69B C 0.4155(7) -0.1041(14) 0.4813(4)
C70B C 0.4024(5) -0.2258(10) 0.5124(3)
H79? H 0.9094 0.3394 0.3737
Se2? Se 0.92628(10) 0.25110(14) 0.31864(5)
H80? H 1.1947 0.6264 0.3594
C71? C 1.2670(9) 0.6690(19) 0.4075(5)
H81? H 1.2354 0.6469 0.4246
H82? H 1.2661 0.7716 0.4025
H83? H 1.3153 0.6397 0.4198
C72? C 1.2934(8) 0.6276(18) 0.3431(4)
H84? H 1.3400 0.5845 0.3531
H85? H 1.2987 0.7306 0.3410
H86? H 1.2722 0.5879 0.3176
H87? H 1.1512 0.6717 0.2602
C73? C 1.1217(7) 0.8277(16) 0.2227(4)
H88? H 1.1177 0.8450 0.1951
H89? H 1.1509 0.9022 0.2379
H90? H 1.0745 0.8286 0.2282
C74? C 1.2316(9) 0.6757(19) 0.2309(4)
H91? H 1.2410 0.7353 0.2100
H92? H 1.2410 0.5760 0.2258
H93? H 1.2625 0.7050 0.2556
C75? C 0.5249(7) 0.1387(14) 0.4680(4)
C76? C 0.7651(8) -0.0653(17) 0.2401(5)
C77? C 0.7366(10) 0.0788(17) 0.2484(6)
C78? C 0.7727(10) 0.0615(18) 0.2415(6)
C79? C 0.7487(8) -0.2916(19) 0.2493(5)
C80? C 0.7354(7) -0.1857(16) 0.2507(4)
C81? C 0.7203(9) -0.0424(18) 0.2557(5)
loop_
_geom_bond_atom_site_label_1
_geom_bond_atom_site_label_2
_geom_bond_site_symmetry_1
_geom_bond_site_symmetry_2
C1 H1 1_555 1_555
Se1 C1 1_555 1_555
C2 C1 1_555 1_555
C3 C2 1_555 1_555
C4 C3 1_555 1_555
H2 C4 1_555 1_555
C5 C4 1_555 1_555
H3 C5 1_555 1_555
C6 C5 1_555 1_555
H4 C6 1_555 1_555
C7 C2 1_555 1_555
C8 C3 1_555 1_555
C9 C8 1_555 1_555
H5 C9 1_555 1_555
C10 C9 1_555 1_555
C11 C10 1_555 1_555
H6 C11 1_555 1_555
C12 C11 1_555 1_555
C13 C8 1_555 1_555
H7 C13 1_555 1_555
C14 C10 1_555 1_555
C15 C14 1_555 1_555
C16 C15 1_555 1_555
H8 C16 1_555 1_555
C17 C16 1_555 1_555
H9 C17 1_555 1_555
C18 C17 1_555 1_555
H10 C18 1_555 1_555
C19 C14 1_555 1_555
C20 C15 1_555 1_555
H11 C20 1_555 1_555
C21 C20 1_555 1_555
H12 C21 1_555 1_555
H13 C21 1_555 1_555
H14 C21 1_555 1_555
C22 C20 1_555 1_555
H15 C22 1_555 1_555
H16 C22 1_555 1_555
H17 C22 1_555 1_555
C23 C19 1_555 1_555
H18 C23 1_555 1_555
C24 C23 1_555 1_555
H19 C24 1_555 1_555
H20 C24 1_555 1_555
H21 C24 1_555 1_555
C25 C23 1_555 1_555
H22 C25 1_555 1_555
H23 C25 1_555 1_555
H24 C25 1_555 1_555
C26 C12 1_555 1_555
C27 C26 1_555 1_555
C28 C27 1_555 1_555
H25 C28 1_555 1_555
C29 C28 1_555 1_555
H26 C29 1_555 1_555
C30 C29 1_555 1_555
H27 C30 1_555 1_555
C31 C26 1_555 1_555
C32 C27 1_555 1_555
H28 C32 1_555 1_555
C33 C32 1_555 1_555
H29 C33 1_555 1_555
H30 C33 1_555 1_555
H31 C33 1_555 1_555
C34 C32 1_555 1_555
H32 C34 1_555 1_555
H33 C34 1_555 1_555
H34 C34 1_555 1_555
C35 C31 1_555 1_555
H35 C35 1_555 1_555
C36 C35 1_555 1_555
H36 C36 1_555 1_555
H37 C36 1_555 1_555
H38 C36 1_555 1_555
C37 C35 1_555 1_555
H39 C37 1_555 1_555
H40 C37 1_555 1_555
H41 C37 1_555 1_555
C38 C7 1_555 1_555
C39 C38 1_555 1_555
H42 C39 1_555 1_555
C40 C39 1_555 1_555
C41 C40 1_555 1_555
H43 C41 1_555 1_555
C42 C41 1_555 1_555
C43 C38 1_555 1_555
H44 C43 1_555 1_555
C44 C40 1_555 1_555
C45 C44 1_555 1_555
C46 C45 1_555 1_555
H45 C46 1_555 1_555
C47 C46 1_555 1_555
H46 C47 1_555 1_555
C48 C47 1_555 1_555
H47 C48 1_555 1_555
C49 C44 1_555 1_555
C50 C45 1_555 1_555
H48 C50 1_555 1_555
C51 C50 1_555 1_555
H49 C51 1_555 1_555
H50 C51 1_555 1_555
H51 C51 1_555 1_555
C52 C50 1_555 1_555
H52 C52 1_555 1_555
H53 C52 1_555 1_555
H54 C52 1_555 1_555
C53 C49 1_555 1_555
H55 C53 1_555 1_555
C54 C53 1_555 1_555
H56 C54 1_555 1_555
H57 C54 1_555 1_555
H58 C54 1_555 1_555
C55 C53 1_555 1_555
H59 C55 1_555 1_555
H60 C55 1_555 1_555
H61 C55 1_555 1_555
C56 C42 1_555 1_555
C57 C56 1_555 1_555
C58 C57 1_555 1_555
H62 C58 1_555 1_555
C59 C58 1_555 1_555
H63 C59 1_555 1_555
C60 C59 1_555 1_555
H64 C60 1_555 1_555
C61 C56 1_555 1_555
C62 C57 1_555 1_555
H65 C62 1_555 1_555
C63 C62 1_555 1_555
H66 C63 1_555 1_555
H67 C63 1_555 1_555
H68 C63 1_555 1_555
C64 C62 1_555 1_555
H69 C64 1_555 1_555
H70 C64 1_555 1_555
H71 C64 1_555 1_555
C65 C61 1_555 1_555
H72 C65 1_555 1_555
C66 C65 1_555 1_555
H73 C66 1_555 1_555
H74 C66 1_555 1_555
H75 C66 1_555 1_555
C67 C65 1_555 1_555
H76 C67 1_555 1_555
H77 C67 1_555 1_555
H78 C67 1_555 1_555
C68 C69 1_555 1_555
C69 C70 1_555 1_555
C68B C68 1_555 1_555
C69B C68B 1_555 1_555
C70B C69B 1_555 1_555
C6 C7 1_555 1_555
C12 C13 1_555 1_555
C18 C19 1_555 1_555
C30 C31 1_555 1_555
C42 C43 1_555 1_555
C48 C49 1_555 1_555
C60 C61 1_555 1_555

#END
