
#######################################################################
#
#                 Cambridge Crystallographic Data Centre
#                                CCDC 
#
#######################################################################
#
# If this CIF has been generated from an entry in the Cambridge 
# Structural Database, then it will include bibliographic, chemical, 
# crystal, experimental, refinement or atomic coordinate data resulting 
# from the CCDC's data processing and validation procedures.
#
#######################################################################

data_XOSZAI
_chemical_formula_moiety         'C17 H17 N1 O3'
_chemical_name_systematic        
'methyl 4-(4-methoxyphenyl)-3,4-dihydro-2H-cyclopenta[c]pyridine-3-carboxylate'
_symmetry_cell_setting           orthorhombic
_symmetry_space_group_name_H-M   'P 21 21 21'
_symmetry_Int_Tables_number      19
_space_group_name_Hall           'P 2ac 2ab'
loop_
_symmetry_equiv_pos_site_id
_symmetry_equiv_pos_as_xyz
1 x,y,z
2 1/2-x,-y,1/2+z
3 -x,1/2+y,1/2-z
4 1/2+x,1/2-y,-z
_cell_length_a                   10.2469(9)
_cell_length_b                   10.4606(9)
_cell_length_c                   13.5437(12)
_cell_angle_alpha                90
_cell_angle_beta                 90
_cell_angle_gamma                90
_cell_volume                     1451.73
_exptl_crystal_description       block
_cell_formula_units_Z            4
loop_
_atom_site_label
_atom_site_type_symbol
_atom_site_fract_x
_atom_site_fract_y
_atom_site_fract_z
C1 C 0.28977(13) 1.07836(13) 1.01751(11)
C2 C 0.20589(15) 1.04265(14) 1.09266(11)
H1 H 0.2300 1.0553 1.1581
C3 C 0.08713(14) 0.98849(14) 1.07088(10)
H2 H 0.0316 0.9654 1.1222
C4 C 0.04792(12) 0.96735(11) 0.97394(9)
C5 C 0.13350(14) 1.00222(14) 0.90013(10)
H3 H 0.1102 0.9881 0.8347
C6 C 0.25337(14) 1.05773(15) 0.92079(11)
H4 H 0.3090 1.0810 0.8696
C7 C 0.48597(17) 1.18574(18) 0.97323(15)
H5 H 0.5202 1.1180 0.9331
H6 H 0.5567 1.2311 1.0037
H7 H 0.4365 1.2434 0.9327
C8 C -0.08486(12) 0.90787(12) 0.95207(9)
H8 H -0.1432 0.9274 1.0074
C9 C -0.14712(12) 0.95755(12) 0.85898(10)
C10 C -0.13167(13) 0.88934(13) 0.76768(10)
C11 C -0.05956(14) 0.77963(14) 0.76430(10)
H9 H -0.0356 0.7456 0.7035
C12 C -0.07713(13) 0.75966(12) 0.94121(9)
H10 H -0.1662 0.7259 0.9455
C13 C -0.18843(14) 0.96625(16) 0.69084(11)
H11 H -0.1919 0.9461 0.6240
C14 C -0.23576(14) 1.07337(15) 0.73394(12)
H12 H -0.2795 1.1389 0.7014
C15 C -0.20790(13) 1.07013(14) 0.83821(11)
H13 H -0.2280 1.1340 0.8835
C16 C 0.00221(13) 0.69796(12) 1.02168(11)
C17 C 0.01987(19) 0.6694(2) 1.19335(11)
H14 H 0.0304 0.5787 1.1868
H15 H -0.0274 0.6879 1.2528
H16 H 0.1041 0.7094 1.1961
N1 N -0.02322(12) 0.72088(11) 0.84688(8)
H17 H 0.0326 0.6595 0.8443
O1 O 0.40445(10) 1.13391(11) 1.04687(8)
O2 O 0.10077(12) 0.64020(12) 1.00842(8)
O3 O -0.05141(10) 0.71802(10) 1.10966(7)
loop_
_geom_bond_atom_site_label_1
_geom_bond_atom_site_label_2
_geom_bond_site_symmetry_1
_geom_bond_site_symmetry_2
C1 C2 1_555 1_555
C2 H1 1_555 1_555
C3 C2 1_555 1_555
H2 C3 1_555 1_555
C4 C3 1_555 1_555
C5 C4 1_555 1_555
H3 C5 1_555 1_555
C6 C1 1_555 1_555
H4 C6 1_555 1_555
C7 H5 1_555 1_555
H6 C7 1_555 1_555
H7 C7 1_555 1_555
C8 C4 1_555 1_555
H8 C8 1_555 1_555
C9 C8 1_555 1_555
C10 C9 1_555 1_555
C11 C10 1_555 1_555
H9 C11 1_555 1_555
C12 C8 1_555 1_555
H10 C12 1_555 1_555
C13 C10 1_555 1_555
H11 C13 1_555 1_555
C14 C13 1_555 1_555
H12 C14 1_555 1_555
C15 C9 1_555 1_555
H13 C15 1_555 1_555
C16 C12 1_555 1_555
C17 H14 1_555 1_555
H15 C17 1_555 1_555
H16 C17 1_555 1_555
N1 C11 1_555 1_555
H17 N1 1_555 1_555
O1 C1 1_555 1_555
O2 C16 1_555 1_555
O3 C16 1_555 1_555
C5 C6 1_555 1_555
C7 O1 1_555 1_555
C12 N1 1_555 1_555
C14 C15 1_555 1_555
C17 O3 1_555 1_555

#END
