
#######################################################################
#
#                 Cambridge Crystallographic Data Centre
#                                CCDC 
#
#######################################################################
#
# If this CIF has been generated from an entry in the Cambridge 
# Structural Database, then it will include bibliographic, chemical, 
# crystal, experimental, refinement or atomic coordinate data resulting 
# from the CCDC's data processing and validation procedures.
#
#######################################################################

data_XOTCAM
_chemical_formula_moiety         'C18 H14 Cl2 N6 O2'
_chemical_name_systematic        
3,3'-((4-((2,6-dichloro-4-nitrophenyl)diazenyl)phenyl)imino)dipropanenitrile
_symmetry_cell_setting           monoclinic
_symmetry_space_group_name_H-M   'P 21/c'
_symmetry_Int_Tables_number      14
_space_group_name_Hall           '-P 2ybc'
loop_
_symmetry_equiv_pos_site_id
_symmetry_equiv_pos_as_xyz
1 x,y,z
2 -x,1/2+y,1/2-z
3 -x,-y,-z
4 x,1/2-y,1/2+z
_cell_length_a                   8.236(5)
_cell_length_b                   8.013(4)
_cell_length_c                   29.718(16)
_cell_angle_alpha                90
_cell_angle_beta                 99.861(17)
_cell_angle_gamma                90
_cell_volume                     1932.27
_exptl_crystal_colour            yellow
_exptl_crystal_description       block
_cell_formula_units_Z            4
loop_
_atom_site_label
_atom_site_type_symbol
_atom_site_fract_x
_atom_site_fract_y
_atom_site_fract_z
C1 C 0.3002(4) 0.5765(5) 0.00712(12)
C2 C 0.2280(4) 0.5677(6) -0.03857(11)
H1 H 0.2359 0.6557 -0.0585
C3 C 0.1447(4) 0.4248(6) -0.05326(11)
C4 C 0.1268(4) 0.2934(6) -0.02500(12)
H2 H 0.0703 0.1975 -0.0362
C5 C 0.1960(5) 0.3080(6) 0.02091(12)
C6 C 0.2850(4) 0.4481(5) 0.03739(11)
C7 C 0.3948(5) 0.5005(4) 0.15678(11)
C8 C 0.3057(4) 0.5315(5) 0.18970(11)
H3 H 0.1926 0.5482 0.1818
C9 C 0.3776(4) 0.5389(5) 0.23453(11)
H4 H 0.3121 0.5595 0.2565
C10 C 0.5477(4) 0.5165(4) 0.24848(9)
C11 C 0.6414(4) 0.4878(4) 0.21433(10)
H5 H 0.7549 0.4738 0.2220
C12 C 0.5651(5) 0.4802(4) 0.16886(11)
H6 H 0.6282 0.4613 0.1462
C13 C 0.5223(4) 0.5681(4) 0.32838(10)
H7 H 0.4389 0.6485 0.3157
H8 H 0.5942 0.6215 0.3535
C14 C 0.4384(5) 0.4193(5) 0.34670(12)
H9 H 0.3649 0.3658 0.3219
H10 H 0.5209 0.3384 0.3597
C15 C 0.3456(5) 0.4741(6) 0.38134(14)
C16 C 0.7852(4) 0.4697(4) 0.31079(11)
H11 H 0.8222 0.3989 0.2881
H12 H 0.7862 0.4034 0.3381
C17 C 0.9053(4) 0.6141(6) 0.32179(14)
H13 H 0.8619 0.6912 0.3419
H14 H 1.0090 0.5711 0.3381
C18 C 0.9364(5) 0.7043(6) 0.28192(17)
Cl1 Cl 0.40905(16) 0.75477(16) 0.02644(4)
Cl2 Cl 0.1730(2) 0.14349(19) 0.05695(4)
N1 N 0.0742(4) 0.4090(6) -0.10224(12)
N2 N 0.3848(4) 0.4594(5) 0.08333(11)
N3 N 0.3020(4) 0.4899(4) 0.11106(10)
N4 N 0.6176(3) 0.5234(3) 0.29381(8)
N5 N 0.2752(5) 0.5250(6) 0.40746(14)
N6 N 0.9596(6) 0.7757(7) 0.25088(18)
O1 O 0.0858(4) 0.5296(6) -0.12656(10)
O2 O 0.0056(5) 0.2797(5) -0.11446(12)
loop_
_geom_bond_atom_site_label_1
_geom_bond_atom_site_label_2
_geom_bond_site_symmetry_1
_geom_bond_site_symmetry_2
C1 C2 1_555 1_555
C2 H1 1_555 1_555
C3 C2 1_555 1_555
C4 C3 1_555 1_555
H2 C4 1_555 1_555
C5 C4 1_555 1_555
C6 C1 1_555 1_555
C7 C8 1_555 1_555
C8 H3 1_555 1_555
C9 C8 1_555 1_555
H4 C9 1_555 1_555
C10 C9 1_555 1_555
C11 C10 1_555 1_555
H5 C11 1_555 1_555
C12 C7 1_555 1_555
H6 C12 1_555 1_555
C13 H7 1_555 1_555
H8 C13 1_555 1_555
C14 C13 1_555 1_555
H9 C14 1_555 1_555
H10 C14 1_555 1_555
C15 C14 1_555 1_555
C16 H11 1_555 1_555
H12 C16 1_555 1_555
C17 C16 1_555 1_555
H13 C17 1_555 1_555
H14 C17 1_555 1_555
C18 C17 1_555 1_555
Cl1 C1 1_555 1_555
Cl2 C5 1_555 1_555
N1 C3 1_555 1_555
N2 C6 1_555 1_555
N3 C7 1_555 1_555
N4 C10 1_555 1_555
N5 C15 1_555 1_555
N6 C18 1_555 1_555
O1 N1 1_555 1_555
O2 N1 1_555 1_555
C5 C6 1_555 1_555
C11 C12 1_555 1_555
C13 N4 1_555 1_555
C16 N4 1_555 1_555
N2 N3 1_555 1_555

#END
