
#######################################################################
#
#                 Cambridge Crystallographic Data Centre
#                                CCDC 
#
#######################################################################
#
# If this CIF has been generated from an entry in the Cambridge 
# Structural Database, then it will include bibliographic, chemical, 
# crystal, experimental, refinement or atomic coordinate data resulting 
# from the CCDC's data processing and validation procedures.
#
#######################################################################

data_XOTCOY
_chemical_formula_moiety         'C14 H19 N2 O1 P1 S2'
_chemical_name_systematic        
2-(4-Methoxyphenyl)-2,4-dithioxo-spiro((1,3,2-diazaphospholidine)-5,1'-cyclohexane)
_symmetry_cell_setting           monoclinic
_symmetry_space_group_name_H-M   'P 21/n'
_symmetry_Int_Tables_number      14
_space_group_name_Hall           '-P 2yn'
loop_
_symmetry_equiv_pos_site_id
_symmetry_equiv_pos_as_xyz
1 x,y,z
2 1/2+x,1/2-y,1/2+z
3 -x,-y,-z
4 1/2-x,1/2+y,1/2-z
_cell_length_a                   14.296(4)
_cell_length_b                   11.028(3)
_cell_length_c                   21.715(6)
_cell_angle_alpha                90
_cell_angle_beta                 101.823(6)
_cell_angle_gamma                90
_cell_volume                     3350.88
_exptl_crystal_colour            colorless
_chemical_melting_point          '205-207 deg.C'
_cell_formula_units_Z            8
loop_
_atom_site_label
_atom_site_type_symbol
_atom_site_fract_x
_atom_site_fract_y
_atom_site_fract_z
N1 N 0.0973(2) 0.2207(3) 0.32644(14)
H1 H 0.0404 0.1954 0.3110
N2 N 0.2496(2) 0.2539(3) 0.39180(15)
H2 H 0.3005 0.2535 0.4209
O1 O 0.1748(2) -0.3338(3) 0.43692(16)
P1 P 0.14721(8) 0.20017(11) 0.40380(5)
S1 S 0.08363(8) 0.28140(10) 0.46201(6)
S2 S 0.11065(9) 0.31258(13) 0.21649(6)
C1 C 0.2490(3) 0.3032(4) 0.32799(19)
C2 C 0.2687(3) 0.4409(4) 0.3320(2)
H5 H 0.2563 0.4743 0.2898
H6 H 0.2249 0.4789 0.3548
C3 C 0.3704(4) 0.4719(4) 0.3643(2)
H7 H 0.3800 0.5587 0.3623
H8 H 0.3804 0.4490 0.4083
C4 C 0.4422(4) 0.4074(5) 0.3340(2)
H9 H 0.5063 0.4249 0.3573
H10 H 0.4370 0.4367 0.2914
C5 C 0.4255(3) 0.2709(5) 0.3330(2)
H11 H 0.4356 0.2406 0.3758
H12 H 0.4711 0.2313 0.3121
C6 C 0.3235(3) 0.2405(4) 0.29835(19)
H13 H 0.3153 0.2655 0.2547
H14 H 0.3140 0.1535 0.2991
C7 C 0.1486(3) 0.2768(4) 0.29045(19)
C8 C 0.1533(3) 0.0387(4) 0.4149(2)
C9 C 0.1970(3) -0.0336(5) 0.3766(2)
H15 H 0.2230 0.0019 0.3451
C10 C 0.2019(3) -0.1572(4) 0.3849(2)
H16 H 0.2309 -0.2048 0.3588
C11 C 0.1643(3) -0.2112(4) 0.4316(2)
C12 C 0.1217(3) -0.1409(4) 0.4706(2)
H17 H 0.0967 -0.1764 0.5026
C13 C 0.1167(3) -0.0170(4) 0.4614(2)
H18 H 0.0877 0.0303 0.4876
C14 C 0.1477(3) -0.3918(4) 0.4893(3)
H19 H 0.1588 -0.4775 0.4874
H20 H 0.0811 -0.3774 0.4881
H21 H 0.1850 -0.3596 0.5277
N3 N 0.8811(2) 0.2168(3) 0.17480(14)
H3 H 0.9402 0.2359 0.1879
N4 N 0.7229(2) 0.2071(3) 0.11675(15)
H4 H 0.6698 0.2223 0.0912
O2 O 0.8559(2) 0.7620(3) 0.05099(16)
P2 P 0.82541(8) 0.23605(11) 0.09837(5)
S3 S 0.86890(9) 0.13358(14) 0.28732(6)
S4 S 0.87355(9) 0.13278(11) 0.04051(6)
C15 C 0.7257(3) 0.1535(4) 0.1793(2)
C16 C 0.6575(3) 0.2186(5) 0.2131(2)
H22 H 0.6695 0.3051 0.2131
H23 H 0.6683 0.1915 0.2565
C17 C 0.5530(4) 0.1932(6) 0.1807(3)
H24 H 0.5105 0.2329 0.2039
H25 H 0.5408 0.2265 0.1385
C18 C 0.5325(4) 0.0582(7) 0.1774(3)
H26 H 0.5404 0.0253 0.2196
H27 H 0.4670 0.0442 0.1558
C19 C 0.5998(4) -0.0043(5) 0.1428(3)
H28 H 0.5888 0.0256 0.0999
H29 H 0.5869 -0.0907 0.1412
C20 C 0.7026(4) 0.0171(4) 0.1741(2)
H30 H 0.7440 -0.0222 0.1499
H31 H 0.7150 -0.0186 0.2158
C21 C 0.8288(3) 0.1705(4) 0.21369(19)
C22 C 0.8350(3) 0.3941(4) 0.0814(2)
C23 C 0.8782(3) 0.4328(4) 0.0341(2)
H32 H 0.9019 0.3761 0.0095
C24 C 0.8869(3) 0.5552(4) 0.0223(2)
H33 H 0.9168 0.5805 -0.0098
C25 C 0.8513(3) 0.6388(5) 0.0580(2)
C26 C 0.8079(3) 0.6019(4) 0.1056(2)
H34 H 0.7848 0.6595 0.1301
C27 C 0.7981(3) 0.4803(4) 0.1175(2)
H35 H 0.7673 0.4557 0.1491
C28 C 0.9049(3) 0.8067(4) 0.0042(2)
H36 H 0.9030 0.8937 0.0037
H37 H 0.8743 0.7764 -0.0364
H38 H 0.9702 0.7800 0.0139
loop_
_geom_bond_atom_site_label_1
_geom_bond_atom_site_label_2
_geom_bond_site_symmetry_1
_geom_bond_site_symmetry_2
N1 H1 1_555 1_555
N2 H2 1_555 1_555
N3 H3 1_555 1_555
N4 H4 1_555 1_555
O1 C11 1_555 1_555
O2 C25 1_555 1_555
P1 N1 1_555 1_555
P2 N3 1_555 1_555
S1 P1 1_555 1_555
S2 C7 1_555 1_555
S3 C21 1_555 1_555
S4 P2 1_555 1_555
C1 N2 1_555 1_555
C2 C1 1_555 1_555
H5 C2 1_555 1_555
H6 C2 1_555 1_555
C3 C2 1_555 1_555
H7 C3 1_555 1_555
H8 C3 1_555 1_555
C4 C3 1_555 1_555
H9 C4 1_555 1_555
H10 C4 1_555 1_555
C5 C4 1_555 1_555
H11 C5 1_555 1_555
H12 C5 1_555 1_555
C6 C1 1_555 1_555
H13 C6 1_555 1_555
H14 C6 1_555 1_555
C7 N1 1_555 1_555
C8 P1 1_555 1_555
C9 C8 1_555 1_555
H15 C9 1_555 1_555
C10 C9 1_555 1_555
H16 C10 1_555 1_555
C11 C10 1_555 1_555
C12 C11 1_555 1_555
H17 C12 1_555 1_555
C13 C8 1_555 1_555
H18 C13 1_555 1_555
C14 O1 1_555 1_555
H19 C14 1_555 1_555
H20 C14 1_555 1_555
H21 C14 1_555 1_555
C15 N4 1_555 1_555
C16 C15 1_555 1_555
H22 C16 1_555 1_555
H23 C16 1_555 1_555
C17 C16 1_555 1_555
H24 C17 1_555 1_555
H25 C17 1_555 1_555
C18 C17 1_555 1_555
H26 C18 1_555 1_555
H27 C18 1_555 1_555
C19 C18 1_555 1_555
H28 C19 1_555 1_555
H29 C19 1_555 1_555
C20 C15 1_555 1_555
H30 C20 1_555 1_555
H31 C20 1_555 1_555
C21 N3 1_555 1_555
C22 P2 1_555 1_555
C23 C22 1_555 1_555
H32 C23 1_555 1_555
C24 C23 1_555 1_555
H33 C24 1_555 1_555
C25 C24 1_555 1_555
C26 C25 1_555 1_555
H34 C26 1_555 1_555
C27 C22 1_555 1_555
H35 C27 1_555 1_555
C28 O2 1_555 1_555
H36 C28 1_555 1_555
H37 C28 1_555 1_555
H38 C28 1_555 1_555
N2 P1 1_555 1_555
N4 P2 1_555 1_555
C1 C7 1_555 1_555
C5 C6 1_555 1_555
C12 C13 1_555 1_555
C15 C21 1_555 1_555
C19 C20 1_555 1_555
C26 C27 1_555 1_555

#END
