
#######################################################################
#
#                 Cambridge Crystallographic Data Centre
#                                CCDC 
#
#######################################################################
#
# If this CIF has been generated from an entry in the Cambridge 
# Structural Database, then it will include bibliographic, chemical, 
# crystal, experimental, refinement or atomic coordinate data resulting 
# from the CCDC's data processing and validation procedures.
#
#######################################################################

data_XOTCEQ
_chemical_formula_moiety         'C22 H24 N6 O2'
_chemical_name_systematic        
'methyl azido(1-benzyl-5-butyl-1H-1,2,3-triazol-4-yl)phenylacetate'
_symmetry_cell_setting           triclinic
_symmetry_space_group_name_H-M   'P -1'
_symmetry_Int_Tables_number      2
_space_group_name_Hall           '-P 1'
loop_
_symmetry_equiv_pos_site_id
_symmetry_equiv_pos_as_xyz
1 x,y,z
2 -x,-y,-z
_cell_length_a                   8.4282(2)
_cell_length_b                   10.9862(3)
_cell_length_c                   11.9200(4)
_cell_angle_alpha                80.8052(7)
_cell_angle_beta                 79.8864(7)
_cell_angle_gamma                76.0103(7)
_cell_volume                     1046.36
_exptl_crystal_colour            colorless
_exptl_crystal_description       block
_cell_formula_units_Z            2
loop_
_atom_site_label
_atom_site_type_symbol
_atom_site_fract_x
_atom_site_fract_y
_atom_site_fract_z
O1 O -0.30108(11) 0.37582(8) 0.63371(8)
O2 O -0.22454(10) 0.19614(8) 0.55207(7)
N1 N 0.04300(11) -0.03823(9) 0.85696(8)
N2 N -0.12389(12) -0.00539(9) 0.86597(8)
N3 N -0.16094(12) 0.09590(9) 0.79239(8)
N4 N 0.00044(12) 0.35124(9) 0.69991(8)
N5 N -0.09687(13) 0.37948(9) 0.78751(8)
N6 N -0.17404(17) 0.41483(12) 0.86802(10)
C1 C 0.39707(19) 0.23463(14) 0.95749(13)
C2 C 0.31820(16) 0.20313(12) 0.86347(11)
C3 C 0.37604(14) 0.06458(11) 0.84488(10)
C4 C 0.29851(13) 0.02863(11) 0.75061(10)
C5 C 0.33736(14) -0.34373(11) 0.85993(10)
C6 C 0.39342(15) -0.44580(11) 0.79670(11)
C7 C 0.29747(17) -0.46732(11) 0.72217(11)
C8 C 0.14417(18) -0.38769(12) 0.71158(12)
C9 C 0.08766(15) -0.28627(11) 0.77488(11)
C10 C 0.18405(14) -0.26325(10) 0.84920(9)
C11 C 0.12047(15) -0.15603(10) 0.92200(10)
C12 C 0.11499(13) 0.04184(10) 0.77681(9)
C13 C -0.01791(13) 0.12676(10) 0.73552(9)
C14 C -0.02638(13) 0.24381(10) 0.64894(9)
C15 C 0.10191(12) 0.22941(10) 0.54073(9)
C16 C 0.14426(13) 0.11689(10) 0.49111(9)
C17 C 0.24977(14) 0.10783(11) 0.38756(10)
C18 C 0.31365(14) 0.21103(11) 0.33281(10)
C19 C 0.27419(14) 0.32219(11) 0.38254(10)
C20 C 0.16835(14) 0.33163(10) 0.48620(10)
C21 C -0.20179(13) 0.28134(10) 0.61176(9)
C22 C -0.38581(15) 0.22252(13) 0.51506(12)
H1 H 0.5173 0.2176 0.9359
H2 H 0.3693 0.1824 1.0297
H3 H 0.3554 0.3241 0.9675
H4 H 0.3461 0.2564 0.7909
H5 H 0.1966 0.2232 0.8844
H6 H 0.3488 0.0118 0.9179
H7 H 0.4977 0.0450 0.8242
H8 H 0.3241 0.0827 0.6780
H9 H 0.3507 -0.0601 0.7384
H10 H 0.4041 -0.3289 0.9106
H11 H 0.4978 -0.5008 0.8048
H12 H 0.3363 -0.5364 0.6784
H13 H 0.0777 -0.4027 0.6608
H14 H -0.0175 -0.2322 0.7674
H15 H 0.0388 -0.1807 0.9868
H16 H 0.2135 -0.1412 0.9546
H17 H 0.1008 0.0463 0.5282
H18 H 0.2783 0.0311 0.3542
H19 H 0.3842 0.2053 0.2614
H20 H 0.3194 0.3922 0.3459
H21 H 0.1414 0.4082 0.5198
H22 H -0.4713 0.2233 0.5825
H23 H -0.3903 0.1570 0.4695
H24 H -0.4048 0.3051 0.4682
loop_
_geom_bond_atom_site_label_1
_geom_bond_atom_site_label_2
_geom_bond_site_symmetry_1
_geom_bond_site_symmetry_2
O1 C21 1_555 1_555
O2 C21 1_555 1_555
N1 N2 1_555 1_555
N2 N3 1_555 1_555
N3 C13 1_555 1_555
N4 N5 1_555 1_555
N5 N6 1_555 1_555
C1 C2 1_555 1_555
C2 C3 1_555 1_555
C3 C4 1_555 1_555
C4 C12 1_555 1_555
C5 C6 1_555 1_555
C6 C7 1_555 1_555
C7 C8 1_555 1_555
C8 C9 1_555 1_555
C9 C10 1_555 1_555
C10 C5 1_555 1_555
C11 N1 1_555 1_555
C12 N1 1_555 1_555
C13 C12 1_555 1_555
C14 N4 1_555 1_555
C15 C14 1_555 1_555
C16 C15 1_555 1_555
C17 C16 1_555 1_555
C18 C17 1_555 1_555
C19 C18 1_555 1_555
C20 C15 1_555 1_555
C21 C14 1_555 1_555
C22 O2 1_555 1_555
H1 C1 1_555 1_555
H2 C1 1_555 1_555
H3 C1 1_555 1_555
H4 C2 1_555 1_555
H5 C2 1_555 1_555
H6 C3 1_555 1_555
H7 C3 1_555 1_555
H8 C4 1_555 1_555
H9 C4 1_555 1_555
H10 C5 1_555 1_555
H11 C6 1_555 1_555
H12 C7 1_555 1_555
H13 C8 1_555 1_555
H14 C9 1_555 1_555
H15 C11 1_555 1_555
H16 C11 1_555 1_555
H17 C16 1_555 1_555
H18 C17 1_555 1_555
H19 C18 1_555 1_555
H20 C19 1_555 1_555
H21 C20 1_555 1_555
H22 C22 1_555 1_555
H23 C22 1_555 1_555
H24 C22 1_555 1_555
C10 C11 1_555 1_555
C13 C14 1_555 1_555
C19 C20 1_555 1_555

#END
