
#######################################################################
#
#                 Cambridge Crystallographic Data Centre
#                                CCDC 
#
#######################################################################
#
# If this CIF has been generated from an entry in the Cambridge 
# Structural Database, then it will include bibliographic, chemical, 
# crystal, experimental, refinement or atomic coordinate data resulting 
# from the CCDC's data processing and validation procedures.
#
#######################################################################

data_XOTDIV
_chemical_formula_moiety         'C19 H13 B1 F2 N2 O1'
_chemical_name_systematic        
(2-(1,3-benzoxazol-2-yl)-N-phenylanilinato)(difluoro)borate
_symmetry_cell_setting           monoclinic
_symmetry_space_group_name_H-M   'P 21/n'
_symmetry_Int_Tables_number      14
_space_group_name_Hall           '-P 2yn'
loop_
_symmetry_equiv_pos_site_id
_symmetry_equiv_pos_as_xyz
1 x,y,z
2 1/2-x,1/2+y,1/2-z
3 -x,-y,-z
4 1/2+x,1/2-y,1/2+z
_cell_length_a                   7.6771(16)
_cell_length_b                   10.1854(17)
_cell_length_c                   20.076(4)
_cell_angle_alpha                90
_cell_angle_beta                 99.451(9)
_cell_angle_gamma                90
_cell_volume                     1548.52
_exptl_crystal_colour            yellow
_exptl_crystal_description       prism
_cell_formula_units_Z            4
loop_
_atom_site_label
_atom_site_type_symbol
_atom_site_fract_x
_atom_site_fract_y
_atom_site_fract_z
C1 C 0.3299(6) -0.1304(4) 0.9043(2)
C2 C 0.3582(6) -0.1972(4) 0.8471(3)
H1 H 0.3246 -0.1625 0.8041
C3 C 0.4390(7) -0.3180(5) 0.8573(3)
H2 H 0.4600 -0.3664 0.8201
C4 C 0.4894(7) -0.3688(5) 0.9211(4)
H3 H 0.5458 -0.4498 0.9256
C5 C 0.4597(6) -0.3046(5) 0.9785(3)
H4 H 0.4925 -0.3394 1.0216
C6 C 0.3775(6) -0.1850(4) 0.9670(3)
C7 C 0.2521(5) 0.0041(4) 0.9793(2)
C8 C 0.1789(5) 0.1105(4) 1.0099(2)
C9 C 0.1834(6) 0.1179(4) 1.0802(2)
H5 H 0.2374 0.0513 1.1078
C10 C 0.1104(7) 0.2202(5) 1.1078(2)
H6 H 0.1154 0.2251 1.1543
C11 C 0.0274(6) 0.3184(4) 1.0661(2)
H7 H -0.0226 0.3890 1.0854
C12 C 0.0172(6) 0.3141(4) 0.9973(2)
H8 H -0.0407 0.3807 0.9707
C13 C 0.0938(5) 0.2095(4) 0.9668(2)
C14 C -0.0115(6) 0.2969(4) 0.8556(2)
C15 C 0.0726(7) 0.3945(4) 0.8251(2)
H9 H 0.1952 0.3999 0.8329
C16 C -0.0275(9) 0.4851(5) 0.7825(3)
H10 H 0.0283 0.5508 0.7617
C17 C -0.2072(9) 0.4764(5) 0.7716(2)
H11 H -0.2735 0.5366 0.7432
C18 C -0.2908(7) 0.3808(5) 0.8019(3)
H12 H -0.4135 0.3766 0.7945
C19 C -0.1936(7) 0.2906(4) 0.8433(2)
H13 H -0.2511 0.2246 0.8632
B1 B 0.1983(7) 0.1062(5) 0.8635(3)
N1 N 0.2539(4) -0.0085(3) 0.91395(18)
N2 N 0.0903(5) 0.2015(3) 0.89824(17)
O1 O 0.3277(4) -0.0998(3) 1.01500(15)
F1 F 0.1038(4) 0.0539(3) 0.80543(13)
F2 F 0.3512(4) 0.1625(2) 0.84849(14)
loop_
_geom_bond_atom_site_label_1
_geom_bond_atom_site_label_2
_geom_bond_site_symmetry_1
_geom_bond_site_symmetry_2
C1 C2 1_555 1_555
C2 H1 1_555 1_555
C3 C2 1_555 1_555
H2 C3 1_555 1_555
C4 C3 1_555 1_555
H3 C4 1_555 1_555
C5 C4 1_555 1_555
H4 C5 1_555 1_555
C6 C1 1_555 1_555
C7 C8 1_555 1_555
C8 C9 1_555 1_555
C9 H5 1_555 1_555
C10 C9 1_555 1_555
H6 C10 1_555 1_555
C11 C10 1_555 1_555
H7 C11 1_555 1_555
C12 C11 1_555 1_555
H8 C12 1_555 1_555
C13 C8 1_555 1_555
C14 C15 1_555 1_555
C15 H9 1_555 1_555
C16 C15 1_555 1_555
H10 C16 1_555 1_555
C17 C16 1_555 1_555
H11 C17 1_555 1_555
C18 C17 1_555 1_555
H12 C18 1_555 1_555
C19 C14 1_555 1_555
H13 C19 1_555 1_555
B1 N1 1_555 1_555
N1 C1 1_555 1_555
N2 C13 1_555 1_555
O1 C6 1_555 1_555
F1 B1 1_555 1_555
F2 B1 1_555 1_555
C5 C6 1_555 1_555
C7 N1 1_555 1_555
C7 O1 1_555 1_555
C12 C13 1_555 1_555
C14 N2 1_555 1_555
C18 C19 1_555 1_555
B1 N2 1_555 1_555

#END
