
#######################################################################
#
#                 Cambridge Crystallographic Data Centre
#                                CCDC 
#
#######################################################################
#
# If this CIF has been generated from an entry in the Cambridge 
# Structural Database, then it will include bibliographic, chemical, 
# crystal, experimental, refinement or atomic coordinate data resulting 
# from the CCDC's data processing and validation procedures.
#
#######################################################################

data_XOTDUH
_chemical_formula_moiety         'C23 H21 B1 F2 N2 O1'
_chemical_name_systematic        
(N-(2-(1,3-benzoxazol-2-yl)phenyl)-2,6-diethylanilinato)(difluoro)borate
_symmetry_cell_setting           orthorhombic
_symmetry_space_group_name_H-M   'P b c a'
_symmetry_Int_Tables_number      61
_space_group_name_Hall           '-P 2ac 2ab'
loop_
_symmetry_equiv_pos_site_id
_symmetry_equiv_pos_as_xyz
1 x,y,z
2 1/2-x,-y,1/2+z
3 -x,1/2+y,1/2-z
4 1/2+x,1/2-y,-z
5 -x,-y,-z
6 1/2+x,y,1/2-z
7 x,1/2-y,1/2+z
8 1/2-x,1/2+y,z
_cell_length_a                   9.9254(4)
_cell_length_b                   15.5842(5)
_cell_length_c                   24.9184(10)
_cell_angle_alpha                90
_cell_angle_beta                 90
_cell_angle_gamma                90
_cell_volume                     3854.36
_exptl_crystal_colour            'yellow green'
_exptl_crystal_description       prism
_cell_formula_units_Z            8
loop_
_atom_site_label
_atom_site_type_symbol
_atom_site_fract_x
_atom_site_fract_y
_atom_site_fract_z
B1 B 0.9184(3) 0.57661(15) 0.09681(9)
C1 C 0.7428(2) 0.69225(13) 0.09186(8)
C2 C 0.7994(2) 0.77459(14) 0.09323(9)
C3 C 0.9155(3) 0.79741(16) 0.12921(11)
H1 H 0.9363 0.7471 0.1520
H2 H 0.9954 0.8085 0.1065
C4 C 0.8945(4) 0.8717(2) 0.16410(14)
H3 H 0.9754 0.8813 0.1858
H4 H 0.8174 0.8610 0.1877
H5 H 0.8766 0.9226 0.1421
C5 C 0.7445(3) 0.83657(15) 0.05979(10)
H6 H 0.7819 0.8927 0.0598
C6 C 0.6378(3) 0.81893(16) 0.02678(10)
H7 H 0.6026 0.8624 0.0040
C7 C 0.5817(3) 0.73839(17) 0.02656(9)
H8 H 0.5067 0.7270 0.0039
C8 C 0.6324(2) 0.67320(15) 0.05886(9)
C9 C 0.5679(3) 0.58549(17) 0.05732(12)
H9 H 0.5548 0.5685 0.0194
H10 H 0.6302 0.5435 0.0739
C10 C 0.4347(3) 0.5811(2) 0.08577(17)
H11 H 0.3988 0.5227 0.0833
H12 H 0.3715 0.6213 0.0690
H13 H 0.4470 0.5966 0.1236
C11 C 0.7640(2) 0.61511(12) 0.17628(8)
C12 C 0.6681(2) 0.66947(14) 0.20068(9)
H14 H 0.6257 0.7130 0.1800
C13 C 0.6354(2) 0.66015(14) 0.25392(9)
H15 H 0.5705 0.6977 0.2692
C14 C 0.6946(2) 0.59717(15) 0.28635(9)
H16 H 0.6728 0.5931 0.3234
C15 C 0.7845(2) 0.54163(14) 0.26350(8)
H17 H 0.8235 0.4974 0.2846
C16 C 0.8199(2) 0.54935(13) 0.20886(8)
C17 C 0.9117(2) 0.49258(12) 0.18423(8)
C18 C 1.0536(2) 0.38662(13) 0.17274(9)
C19 C 1.1340(2) 0.31550(14) 0.17966(10)
H18 H 1.1364 0.2839 0.2123
C20 C 1.2113(2) 0.29352(15) 0.13540(11)
H19 H 1.2682 0.2446 0.1376
C21 C 1.2085(2) 0.34029(15) 0.08817(10)
H20 H 1.2640 0.3227 0.0591
C22 C 1.1273(2) 0.41187(14) 0.08196(9)
H21 H 1.1254 0.4441 0.0496
C23 C 1.0490(2) 0.43345(13) 0.12588(8)
F1 F 1.03460(13) 0.62639(8) 0.09163(5)
F2 F 0.88325(14) 0.54443(8) 0.04721(5)
N1 N 0.80310(17) 0.62446(11) 0.12384(7)
N2 N 0.95554(17) 0.49998(11) 0.13469(7)
O1 O 0.96604(15) 0.42403(9) 0.20982(6)
loop_
_geom_bond_atom_site_label_1
_geom_bond_atom_site_label_2
_geom_bond_site_symmetry_1
_geom_bond_site_symmetry_2
B1 F1 1_555 1_555
C1 C2 1_555 1_555
C2 C3 1_555 1_555
C3 H1 1_555 1_555
H2 C3 1_555 1_555
C4 C3 1_555 1_555
H3 C4 1_555 1_555
H4 C4 1_555 1_555
H5 C4 1_555 1_555
C5 C2 1_555 1_555
H6 C5 1_555 1_555
C6 C5 1_555 1_555
H7 C6 1_555 1_555
C7 C6 1_555 1_555
H8 C7 1_555 1_555
C8 C1 1_555 1_555
C9 C8 1_555 1_555
H9 C9 1_555 1_555
H10 C9 1_555 1_555
C10 C9 1_555 1_555
H11 C10 1_555 1_555
H12 C10 1_555 1_555
H13 C10 1_555 1_555
C11 C12 1_555 1_555
C12 H14 1_555 1_555
C13 C12 1_555 1_555
H15 C13 1_555 1_555
C14 C13 1_555 1_555
H16 C14 1_555 1_555
C15 C14 1_555 1_555
H17 C15 1_555 1_555
C16 C11 1_555 1_555
C17 C16 1_555 1_555
C18 C19 1_555 1_555
C19 H18 1_555 1_555
C20 C19 1_555 1_555
H19 C20 1_555 1_555
C21 C20 1_555 1_555
H20 C21 1_555 1_555
C22 C21 1_555 1_555
H21 C22 1_555 1_555
C23 C18 1_555 1_555
F2 B1 1_555 1_555
N1 B1 1_555 1_555
N2 B1 1_555 1_555
O1 C17 1_555 1_555
C1 N1 1_555 1_555
C7 C8 1_555 1_555
C11 N1 1_555 1_555
C15 C16 1_555 1_555
C17 N2 1_555 1_555
C18 O1 1_555 1_555
C22 C23 1_555 1_555
C23 N2 1_555 1_555

#END
