
#######################################################################
#
#                 Cambridge Crystallographic Data Centre
#                                CCDC 
#
#######################################################################
#
# If this CIF has been generated from an entry in the Cambridge 
# Structural Database, then it will include bibliographic, chemical, 
# crystal, experimental, refinement or atomic coordinate data resulting 
# from the CCDC's data processing and validation procedures.
#
#######################################################################

data_XOTFIX
_chemical_formula_moiety         'C19 H11 B1 Br2 F2 N2 O1'
_chemical_name_systematic        
(N-(2-(1,3-benzoxazol-2-yl)phenyl)-2,6-dibromoanilinato)(difluoro)borate
_symmetry_cell_setting           monoclinic
_symmetry_space_group_name_H-M   'P 21/c'
_symmetry_Int_Tables_number      14
_space_group_name_Hall           '-P 2ybc'
loop_
_symmetry_equiv_pos_site_id
_symmetry_equiv_pos_as_xyz
1 x,y,z
2 -x,1/2+y,1/2-z
3 -x,-y,-z
4 x,1/2-y,1/2+z
_cell_length_a                   12.050(3)
_cell_length_b                   9.965(3)
_cell_length_c                   15.290(4)
_cell_angle_alpha                90
_cell_angle_beta                 100.226(5)
_cell_angle_gamma                90
_cell_volume                     1806.83
_exptl_crystal_colour            yellow
_exptl_crystal_description       prism
_cell_formula_units_Z            4
loop_
_atom_site_label
_atom_site_type_symbol
_atom_site_fract_x
_atom_site_fract_y
_atom_site_fract_z
C1 C 0.7510(4) 0.5751(6) 1.0793(3)
C2 C 0.6588(4) 0.6592(6) 1.0751(4)
H1 H 0.5985 0.6589 1.0258
C3 C 0.6599(5) 0.7439(6) 1.1472(4)
H2 H 0.5991 0.8046 1.1473
C4 C 0.7495(5) 0.7418(7) 1.2204(4)
H3 H 0.7457 0.7994 1.2693
C5 C 0.8428(5) 0.6593(6) 1.2240(4)
H4 H 0.9037 0.6591 1.2728
C6 C 0.8399(4) 0.5784(6) 1.1514(4)
C7 C 0.8802(4) 0.4282(6) 1.0572(3)
C8 C 0.9386(4) 0.3280(5) 1.0183(3)
C9 C 1.0501(4) 0.2929(6) 1.0558(3)
H5 H 1.0876 0.3388 1.1070
C10 C 1.1051(4) 0.1926(6) 1.0189(4)
H6 H 1.1803 0.1687 1.0440
C11 C 1.0480(4) 0.1269(6) 0.9440(4)
H7 H 1.0851 0.0563 0.9190
C12 C 0.9396(4) 0.1605(6) 0.9047(3)
H8 H 0.9037 0.1135 0.8533
C13 C 0.8819(4) 0.2636(5) 0.9403(3)
C14 C 0.7134(4) 0.2296(6) 0.8296(3)
C15 C 0.6422(4) 0.1227(6) 0.8414(4)
C16 C 0.5750(5) 0.0620(7) 0.7698(5)
H9 H 0.5271 -0.0104 0.7789
C17 C 0.5778(5) 0.1069(7) 0.6849(4)
H10 H 0.5296 0.0669 0.6359
C18 C 0.6482(5) 0.2074(7) 0.6702(4)
H11 H 0.6506 0.2366 0.6114
C19 C 0.7168(4) 0.2670(6) 0.7424(4)
B1 B 0.7091(5) 0.4243(7) 0.9325(4)
O1 O 0.9214(3) 0.4856(4) 1.1360(2)
F1 F 0.6968(2) 0.5279(3) 0.87113(19)
F2 F 0.6028(2) 0.3879(3) 0.94775(19)
Br1 Br 0.63958(5) 0.05738(7) 0.95711(5)
Br2 Br 0.82237(6) 0.39802(8) 0.71916(4)
N1 N 0.7799(3) 0.4762(4) 1.0213(3)
N2 N 0.7733(3) 0.3034(5) 0.9038(3)
loop_
_geom_bond_atom_site_label_1
_geom_bond_atom_site_label_2
_geom_bond_site_symmetry_1
_geom_bond_site_symmetry_2
C1 C2 1_555 1_555
C2 H1 1_555 1_555
C3 C2 1_555 1_555
H2 C3 1_555 1_555
C4 C3 1_555 1_555
H3 C4 1_555 1_555
C5 C4 1_555 1_555
H4 C5 1_555 1_555
C6 C1 1_555 1_555
C7 C8 1_555 1_555
C8 C9 1_555 1_555
C9 H5 1_555 1_555
C10 C9 1_555 1_555
H6 C10 1_555 1_555
C11 C10 1_555 1_555
H7 C11 1_555 1_555
C12 C11 1_555 1_555
H8 C12 1_555 1_555
C13 C8 1_555 1_555
C14 C15 1_555 1_555
C15 C16 1_555 1_555
C16 H9 1_555 1_555
C17 C16 1_555 1_555
H10 C17 1_555 1_555
C18 C17 1_555 1_555
H11 C18 1_555 1_555
C19 C14 1_555 1_555
B1 F1 1_555 1_555
O1 C6 1_555 1_555
F2 B1 1_555 1_555
Br1 C15 1_555 1_555
Br2 C19 1_555 1_555
N1 C1 1_555 1_555
N2 C13 1_555 1_555
C5 C6 1_555 1_555
C7 O1 1_555 1_555
C7 N1 1_555 1_555
C12 C13 1_555 1_555
C14 N2 1_555 1_555
C18 C19 1_555 1_555
B1 N1 1_555 1_555
B1 N2 1_555 1_555

#END
