
#######################################################################
#
#                 Cambridge Crystallographic Data Centre
#                                CCDC 
#
#######################################################################
#
# If this CIF has been generated from an entry in the Cambridge 
# Structural Database, then it will include bibliographic, chemical, 
# crystal, experimental, refinement or atomic coordinate data resulting 
# from the CCDC's data processing and validation procedures.
#
#######################################################################

data_XOTJOH
_chemical_formula_moiety         'C20 H22 N4 O6'
_chemical_name_systematic        
'((4-((4-nitrophenyl)diazenyl)phenyl)imino)diethane-2,1-diyl diacetate'
_symmetry_cell_setting           triclinic
_symmetry_space_group_name_H-M   'P -1'
_symmetry_Int_Tables_number      2
_space_group_name_Hall           '-P 1'
loop_
_symmetry_equiv_pos_site_id
_symmetry_equiv_pos_as_xyz
1 x,y,z
2 -x,-y,-z
_cell_length_a                   7.589(2)
_cell_length_b                   7.761(2)
_cell_length_c                   17.382(5)
_cell_angle_alpha                82.290(5)
_cell_angle_beta                 86.314(5)
_cell_angle_gamma                86.322(5)
_cell_volume                     1010.82
_exptl_crystal_colour            orange
_exptl_crystal_description       block
_cell_formula_units_Z            2
loop_
_atom_site_label
_atom_site_type_symbol
_atom_site_fract_x
_atom_site_fract_y
_atom_site_fract_z
C1 C -0.2249(4) 0.7703(5) 0.58331(19)
C2 C -0.0574(5) 0.7091(6) 0.5993(2)
H1 H -0.0268 0.6710 0.6500
C3 C 0.0678(5) 0.7056(6) 0.5358(3)
H2 H 0.1841 0.6656 0.5440
C4 C 0.0159(6) 0.7624(5) 0.4609(2)
C5 C -0.1547(6) 0.8192(6) 0.4490(2)
H3 H -0.1888 0.8546 0.3986
C6 C -0.2751(6) 0.8248(6) 0.5095(2)
H4 H -0.3911 0.8654 0.5010
C7 C 0.3861(5) 0.7092(5) 0.3302(2)
C8 C 0.5512(5) 0.6295(5) 0.3404(2)
H5 H 0.5791 0.5759 0.3896
C9 C 0.6766(4) 0.6269(5) 0.27977(19)
H6 H 0.7868 0.5711 0.2889
C10 C 0.6423(4) 0.7064(4) 0.20446(18)
C11 C 0.4721(4) 0.7856(4) 0.1935(2)
H7 H 0.4430 0.8375 0.1442
C12 C 0.3480(4) 0.7873(5) 0.2549(2)
H8 H 0.2367 0.8411 0.2464
C13 C 0.9572(4) 0.6671(4) 0.1570(2)
H9 H 0.9764 0.6740 0.2112
H10 H 1.0270 0.7537 0.1257
C14 C 1.0237(4) 0.4896(4) 0.1384(2)
H11 H 0.9979 0.4759 0.0857
H12 H 1.1506 0.4743 0.1431
C15 C 0.9724(4) 0.1945(4) 0.18581(18)
C16 C 0.8706(5) 0.0790(5) 0.24624(19)
H13 H 0.8141 -0.0050 0.2219
H14 H 0.7824 0.1481 0.2724
H15 H 0.9497 0.0198 0.2833
C17 C 0.7311(5) 0.7681(4) 0.06329(18)
H16 H 0.6075 0.7507 0.0574
H17 H 0.8009 0.6946 0.0305
C18 C 0.7657(4) 0.9562(4) 0.03418(18)
H18 H 0.8855 0.9800 0.0441
H19 H 0.7519 0.9795 -0.0214
C19 C 0.6470(4) 1.2372(4) 0.05680(17)
C20 C 0.5170(5) 1.3337(5) 0.1056(2)
H20 H 0.5745 1.3659 0.1487
H21 H 0.4220 1.2607 0.1246
H22 H 0.4707 1.4367 0.0749
N1 N -0.3585(5) 0.7806(5) 0.6481(2)
N2 N 0.1294(5) 0.7681(5) 0.38713(18)
N3 N 0.2718(4) 0.7028(4) 0.4027(2)
N4 N 0.7709(3) 0.7107(3) 0.14394(14)
O1 O -0.3114(5) 0.7356(6) 0.71350(18)
O2 O -0.5073(5) 0.8304(6) 0.6331(2)
O3 O 0.9344(3) 0.3632(3) 0.19330(12)
O4 O 1.0766(3) 0.1474(3) 0.13716(14)
O5 O 0.6401(3) 1.0652(3) 0.07472(12)
O6 O 0.7468(4) 1.3037(3) 0.00649(15)
loop_
_geom_bond_atom_site_label_1
_geom_bond_atom_site_label_2
_geom_bond_site_symmetry_1
_geom_bond_site_symmetry_2
C1 C2 1_555 1_555
C2 H1 1_555 1_555
C3 C2 1_555 1_555
H2 C3 1_555 1_555
C4 C3 1_555 1_555
C5 C4 1_555 1_555
H3 C5 1_555 1_555
C6 C1 1_555 1_555
H4 C6 1_555 1_555
C7 C8 1_555 1_555
C8 H5 1_555 1_555
C9 C8 1_555 1_555
H6 C9 1_555 1_555
C10 C9 1_555 1_555
C11 C10 1_555 1_555
H7 C11 1_555 1_555
C12 C7 1_555 1_555
H8 C12 1_555 1_555
C13 H9 1_555 1_555
H10 C13 1_555 1_555
C14 C13 1_555 1_555
H11 C14 1_555 1_555
H12 C14 1_555 1_555
C15 C16 1_555 1_555
C16 H13 1_555 1_555
H14 C16 1_555 1_555
H15 C16 1_555 1_555
C17 H16 1_555 1_555
H17 C17 1_555 1_555
C18 C17 1_555 1_555
H18 C18 1_555 1_555
H19 C18 1_555 1_555
C19 C20 1_555 1_555
C20 H20 1_555 1_555
H21 C20 1_555 1_555
H22 C20 1_555 1_555
N1 C1 1_555 1_555
N2 C4 1_555 1_555
N3 C7 1_555 1_555
N4 C10 1_555 1_555
O1 N1 1_555 1_555
O2 N1 1_555 1_555
O3 C14 1_555 1_555
O4 C15 1_555 1_555
O5 C18 1_555 1_555
O6 C19 1_555 1_555
C5 C6 1_555 1_555
C11 C12 1_555 1_555
C13 N4 1_555 1_555
C15 O3 1_555 1_555
C17 N4 1_555 1_555
C19 O5 1_555 1_555
N2 N3 1_555 1_555

#END
