
#######################################################################
#
#                 Cambridge Crystallographic Data Centre
#                                CCDC 
#
#######################################################################
#
# If this CIF has been generated from an entry in the Cambridge 
# Structural Database, then it will include bibliographic, chemical, 
# crystal, experimental, refinement or atomic coordinate data resulting 
# from the CCDC's data processing and validation procedures.
#
#######################################################################

data_XOTJUN
_chemical_formula_moiety         'C22 H19 N5 O2'
_chemical_name_systematic        
3-(benzyl(4-((4-nitrophenyl)diazenyl)phenyl)amino)propanenitrile
_symmetry_cell_setting           monoclinic
_symmetry_space_group_name_H-M   'P 21/c'
_symmetry_Int_Tables_number      14
_space_group_name_Hall           '-P 2ybc'
loop_
_symmetry_equiv_pos_site_id
_symmetry_equiv_pos_as_xyz
1 x,y,z
2 -x,1/2+y,1/2-z
3 -x,-y,-z
4 x,1/2-y,1/2+z
_cell_length_a                   15.890(3)
_cell_length_b                   7.2728(15)
_cell_length_c                   20.744(3)
_cell_angle_alpha                90
_cell_angle_beta                 129.835(9)
_cell_angle_gamma                90
_cell_volume                     1840.85
_exptl_crystal_colour            orange
_exptl_crystal_description       block
_cell_formula_units_Z            4
loop_
_atom_site_label
_atom_site_type_symbol
_atom_site_fract_x
_atom_site_fract_y
_atom_site_fract_z
C1 C -0.24080(14) 0.1553(2) 0.50675(11)
C2 C -0.29565(14) 0.0616(2) 0.43168(11)
H1 H -0.3627 0.0051 0.4068
C3 C -0.24782(14) 0.0543(2) 0.39444(11)
H2 H -0.2831 -0.0083 0.3440
C4 C -0.14857(13) 0.1388(2) 0.43142(11)
C5 C -0.09513(14) 0.2348(2) 0.50700(11)
H3 H -0.0289 0.2937 0.5314
C6 C -0.14112(14) 0.2416(2) 0.54498(11)
H4 H -0.1058 0.3034 0.5956
C7 C 0.03061(14) 0.1945(2) 0.38654(11)
C8 C -0.00809(13) 0.0894(2) 0.31573(11)
H5 H -0.0728 0.0229 0.2884
C9 C 0.04852(13) 0.0838(2) 0.28636(10)
H6 H 0.0211 0.0138 0.2390
C10 C 0.14758(13) 0.1820(2) 0.32648(10)
C11 C 0.18565(14) 0.2887(2) 0.39767(11)
H7 H 0.2500 0.3562 0.4253
C12 C 0.12754(14) 0.2929(2) 0.42614(11)
H8 H 0.1538 0.3634 0.4731
C13 C 0.28577(13) 0.3172(2) 0.32236(11)
H9 H 0.2655 0.4302 0.3342
H10 H 0.2847 0.3405 0.2758
C14 C 0.40230(13) 0.2623(2) 0.39991(11)
H11 H 0.4045 0.2457 0.4474
H12 H 0.4213 0.1460 0.3893
C15 C 0.48244(14) 0.4013(2) 0.42060(11)
C16 C 0.16878(14) 0.0516(2) 0.22838(11)
H13 H 0.1085 0.1094 0.1760
H14 H 0.1414 -0.0614 0.2339
C17 C 0.25800(13) 0.0049(2) 0.22436(11)
C18 C 0.25756(14) 0.0799(2) 0.16272(11)
H15 H 0.2016 0.1596 0.1232
C19 C 0.34002(14) 0.0370(2) 0.15939(11)
H16 H 0.3392 0.0883 0.1179
C20 C 0.42311(14) -0.0821(2) 0.21774(12)
H17 H 0.4788 -0.1101 0.2161
C21 C 0.42289(15) -0.1595(2) 0.27873(12)
H18 H 0.4783 -0.2404 0.3178
C22 C 0.34088(14) -0.1171(2) 0.28175(11)
H19 H 0.3410 -0.1707 0.3225
N1 N -0.28849(12) 0.16289(18) 0.54780(9)
N2 N -0.10489(11) 0.11814(19) 0.38941(9)
N3 N -0.01834(11) 0.21072(18) 0.42358(9)
N4 N 0.20525(11) 0.17453(18) 0.29813(9)
N5 N 0.54575(12) 0.5098(2) 0.43612(10)
O1 O -0.37249(10) 0.07425(16) 0.51692(8)
O2 O -0.24231(10) 0.25760(16) 0.61145(8)
loop_
_geom_bond_atom_site_label_1
_geom_bond_atom_site_label_2
_geom_bond_site_symmetry_1
_geom_bond_site_symmetry_2
C1 C2 1_555 1_555
C2 H1 1_555 1_555
C3 C2 1_555 1_555
H2 C3 1_555 1_555
C4 C3 1_555 1_555
C5 C4 1_555 1_555
H3 C5 1_555 1_555
C6 C1 1_555 1_555
H4 C6 1_555 1_555
C7 C8 1_555 1_555
C8 H5 1_555 1_555
C9 C8 1_555 1_555
H6 C9 1_555 1_555
C10 C9 1_555 1_555
C11 C10 1_555 1_555
H7 C11 1_555 1_555
C12 C7 1_555 1_555
H8 C12 1_555 1_555
C13 H9 1_555 1_555
H10 C13 1_555 1_555
C14 C13 1_555 1_555
H11 C14 1_555 1_555
H12 C14 1_555 1_555
C15 C14 1_555 1_555
C16 H13 1_555 1_555
H14 C16 1_555 1_555
C17 C16 1_555 1_555
C18 C17 1_555 1_555
H15 C18 1_555 1_555
C19 C18 1_555 1_555
H16 C19 1_555 1_555
C20 C19 1_555 1_555
H17 C20 1_555 1_555
C21 C20 1_555 1_555
H18 C21 1_555 1_555
C22 C17 1_555 1_555
H19 C22 1_555 1_555
N1 C1 1_555 1_555
N2 C4 1_555 1_555
N3 C7 1_555 1_555
N4 C10 1_555 1_555
N5 C15 1_555 1_555
O1 N1 1_555 1_555
O2 N1 1_555 1_555
C5 C6 1_555 1_555
C11 C12 1_555 1_555
C13 N4 1_555 1_555
C16 N4 1_555 1_555
C21 C22 1_555 1_555
N2 N3 1_555 1_555

#END
