
#######################################################################
#
#                 Cambridge Crystallographic Data Centre
#                                CCDC 
#
#######################################################################
#
# If this CIF has been generated from an entry in the Cambridge 
# Structural Database, then it will include bibliographic, chemical, 
# crystal, experimental, refinement or atomic coordinate data resulting 
# from the CCDC's data processing and validation procedures.
#
#######################################################################

data_XOTKEY
_chemical_formula_moiety         'C20 H16 O1 S1'
_chemical_name_systematic        
1-(2-(2-phenyl-2-(2-thienyl)vinyl)phenyl)ethanone
_symmetry_cell_setting           monoclinic
_symmetry_space_group_name_H-M   'P 21'
_symmetry_Int_Tables_number      4
_space_group_name_Hall           'P 2yb'
loop_
_symmetry_equiv_pos_site_id
_symmetry_equiv_pos_as_xyz
1 x,y,z
2 -x,1/2+y,-z
_cell_length_a                   7.985(2)
_cell_length_b                   6.918(2)
_cell_length_c                   14.547(4)
_cell_angle_alpha                90
_cell_angle_beta                 101.987(5)
_cell_angle_gamma                90
_cell_volume                     786.057
_exptl_crystal_colour            brown
_exptl_crystal_description       prismatic
_cell_formula_units_Z            2
loop_
_atom_site_label
_atom_site_type_symbol
_atom_site_fract_x
_atom_site_fract_y
_atom_site_fract_z
S1 S 0.90181(17) 0.3438(3) 0.91617(7)
O1 O 0.9677(4) 0.1797(7) 0.5142(2)
C1 C 0.7882(6) 0.5499(9) 0.9015(4)
H1 H 0.7616 0.6206 0.9510
C2 C 0.7412(6) 0.6007(8) 0.8132(4)
H2 H 0.6772 0.7119 0.7958
C3 C 0.7930(5) 0.4765(6) 0.7436(2)
H3 H 0.7720 0.4948 0.6789
C4 C 0.8868(5) 0.3142(6) 0.7981(2)
C5 C 0.9668(5) 0.1475(6) 0.7611(2)
C6 C 0.8973(5) 0.0539(7) 0.6822(3)
H4 H 0.9666 -0.0364 0.6607
C7 C 0.7237(5) 0.0778(6) 0.6254(2)
C8 C 0.5835(5) 0.0647(7) 0.6694(3)
H5 H 0.6030 0.0477 0.7342
C9 C 0.4170(5) 0.0765(7) 0.6187(3)
H6 H 0.3264 0.0723 0.6498
C10 C 0.3845(5) 0.0944(8) 0.5223(3)
H7 H 0.2726 0.1038 0.4881
C11 C 0.5209(5) 0.0983(7) 0.4769(3)
H8 H 0.4992 0.1038 0.4117
C12 C 0.6880(5) 0.0940(6) 0.5264(2)
C13 C 0.8317(5) 0.1166(6) 0.4755(3)
C14 C 0.8018(7) 0.0589(10) 0.3734(3)
H9 H 0.9073 0.0678 0.3520
H10 H 0.7187 0.1439 0.3369
H11 H 0.7602 -0.0716 0.3665
C15 C 1.1411(5) 0.0891(7) 0.8142(2)
C16 C 1.2669(5) 0.2282(7) 0.8418(3)
H12 H 1.2404 0.3581 0.8304
C17 C 1.4312(6) 0.1763(9) 0.8862(3)
H13 H 1.5152 0.2702 0.9034
C18 C 1.4689(6) -0.0147(9) 0.9044(3)
H14 H 1.5794 -0.0497 0.9340
C19 C 1.3481(6) -0.1542(9) 0.8800(3)
H15 H 1.3756 -0.2831 0.8935
C20 C 1.1813(6) -0.1026(7) 0.8342(3)
H16 H 1.0982 -0.1975 0.8173
loop_
_geom_bond_atom_site_label_1
_geom_bond_atom_site_label_2
_geom_bond_site_symmetry_1
_geom_bond_site_symmetry_2
S1 C1 1_555 1_555
O1 C13 1_555 1_555
C1 H1 1_555 1_555
C2 C1 1_555 1_555
H2 C2 1_555 1_555
C3 C2 1_555 1_555
H3 C3 1_555 1_555
C4 S1 1_555 1_555
C5 C4 1_555 1_555
C6 C5 1_555 1_555
H4 C6 1_555 1_555
C7 C6 1_555 1_555
C8 C7 1_555 1_555
H5 C8 1_555 1_555
C9 C8 1_555 1_555
H6 C9 1_555 1_555
C10 C9 1_555 1_555
H7 C10 1_555 1_555
C11 C10 1_555 1_555
H8 C11 1_555 1_555
C12 C7 1_555 1_555
C13 C12 1_555 1_555
C14 C13 1_555 1_555
H9 C14 1_555 1_555
H10 C14 1_555 1_555
H11 C14 1_555 1_555
C15 C5 1_555 1_555
C16 C15 1_555 1_555
H12 C16 1_555 1_555
C17 C16 1_555 1_555
H13 C17 1_555 1_555
C18 C17 1_555 1_555
H14 C18 1_555 1_555
C19 C18 1_555 1_555
H15 C19 1_555 1_555
C20 C15 1_555 1_555
H16 C20 1_555 1_555
C3 C4 1_555 1_555
C11 C12 1_555 1_555
C19 C20 1_555 1_555

#END
