
#######################################################################
#
#                 Cambridge Crystallographic Data Centre
#                                CCDC 
#
#######################################################################
#
# If this CIF has been generated from an entry in the Cambridge 
# Structural Database, then it will include bibliographic, chemical, 
# crystal, experimental, refinement or atomic coordinate data resulting 
# from the CCDC's data processing and validation procedures.
#
#######################################################################

data_XOTRAB
_chemical_formula_moiety         'C17 H15 N1 O4'
_chemical_name_systematic        
'methyl 9-(dimethylamino)-3-oxo-3H-benzo[f]chromene-2-carboxylate'
_symmetry_cell_setting           triclinic
_symmetry_space_group_name_H-M   'P -1'
_symmetry_Int_Tables_number      2
_space_group_name_Hall           '-P 1'
loop_
_symmetry_equiv_pos_site_id
_symmetry_equiv_pos_as_xyz
1 x,y,z
2 -x,-y,-z
_cell_length_a                   6.4560(3)
_cell_length_b                   12.5261(4)
_cell_length_c                   16.8967(6)
_cell_angle_alpha                90.012(2)
_cell_angle_beta                 90.001(2)
_cell_angle_gamma                89.974(2)
_cell_volume                     1366.41
_exptl_crystal_colour            red
_exptl_crystal_description       pillar
_chemical_melting_point          '523 K'
_cell_formula_units_Z            4
_exptl_crystal_recrystallization_method 'dichloromethane and hexane'
_exptl_crystal_preparation       Luminescent
loop_
_atom_site_label
_atom_site_type_symbol
_atom_site_fract_x
_atom_site_fract_y
_atom_site_fract_z
O1 O 0.7503(2) 0.95840(10) 0.32235(7)
O2 O 0.7500(2) 0.79790(11) 0.27136(8)
O3 O 0.7500(3) 0.66362(11) 0.50162(8)
O4 O 0.7498(2) 0.63047(10) 0.37137(8)
N1 N 0.7499(3) 1.10363(12) 0.74174(9)
C1 C 0.7499(4) 1.18769(16) 0.80158(11)
H1 H 0.7497 1.2576 0.7755
H2 H 0.8739 1.1810 0.8347
H3 H 0.6260 1.1809 0.8347
C2 C 0.7500(3) 0.99313(15) 0.76691(10)
H4 H 0.7503 0.9465 0.7203
H5 H 0.6259 0.9790 0.7986
H6 H 0.8738 0.9791 0.7988
C3 C 0.7496(3) 1.12791(13) 0.66306(9)
C4 C 0.7500(3) 1.23723(13) 0.63817(10)
H7 H 0.7502 1.2923 0.6768
C5 C 0.7499(3) 1.04882(13) 0.60422(9)
H8 H 0.7501 0.9758 0.6194
C6 C 0.7502(3) 1.26337(13) 0.55977(10)
H9 H 0.7504 1.3365 0.5450
C7 C 0.7498(3) 1.07492(12) 0.52361(9)
C8 C 0.7500(3) 1.18455(13) 0.50005(10)
C9 C 0.7499(3) 1.21226(13) 0.41892(10)
H10 H 0.7496 1.2855 0.4045
C10 C 0.7502(3) 1.13623(14) 0.36060(10)
H11 H 0.7503 1.1558 0.3063
C11 C 0.7502(3) 1.02908(13) 0.38335(9)
C12 C 0.7498(3) 0.99523(12) 0.46179(9)
C13 C 0.7499(3) 0.88248(13) 0.47460(9)
H12 H 0.7498 0.8562 0.5273
C14 C 0.7498(3) 0.84887(14) 0.33203(10)
C15 C 0.7501(3) 0.81133(13) 0.41350(9)
C16 C 0.7497(3) 0.69595(13) 0.43385(10)
C17 C 0.7502(4) 0.51816(14) 0.39023(12)
H13 H 0.7504 0.4764 0.3412
H14 H 0.6264 0.5008 0.4212
H15 H 0.8743 0.5010 0.4212
O5 O 0.7499(2) 0.45841(10) 0.17763(7)
O6 O 0.7501(2) 0.29802(11) 0.22867(8)
O7 O 0.7501(3) 0.16352(11) -0.00159(8)
O8 O 0.7504(2) 0.13050(10) 0.12864(8)
N2 N 0.7500(3) 0.60366(13) -0.24170(9)
C18 C 0.7502(3) 0.68773(16) -0.30152(11)
H16 H 0.7501 0.7576 -0.2755
H17 H 0.6265 0.6810 -0.3347
H18 H 0.8743 0.6810 -0.3346
C19 C 0.7502(3) 0.49305(15) -0.26666(10)
H19 H 0.7500 0.4466 -0.2200
H20 H 0.8743 0.4788 -0.2984
H21 H 0.6264 0.4788 -0.2985
C20 C 0.7498(3) 0.62791(13) -0.16304(9)
C21 C 0.7500(3) 0.73723(13) -0.13810(10)
H22 H 0.7502 0.7924 -0.1767
C22 C 0.7500(3) 0.54905(13) -0.10429(9)
H23 H 0.7501 0.4761 -0.1196
C23 C 0.7498(3) 0.76312(13) -0.05976(10)
H24 H 0.7495 0.8363 -0.0449
C24 C 0.7501(2) 0.57496(12) -0.02344(9)
C25 C 0.7502(3) 0.68444(13) -0.00012(10)
C26 C 0.7500(3) 0.71237(13) 0.08106(10)
H25 H 0.7500 0.7857 0.0955
C27 C 0.7499(3) 0.63615(13) 0.13929(10)
H26 H 0.7496 0.6557 0.1936
C28 C 0.7503(3) 0.52927(13) 0.11651(9)
C29 C 0.7503(3) 0.49514(12) 0.03818(9)
C30 C 0.7498(3) 0.38261(13) 0.02551(9)
H27 H 0.7493 0.3563 -0.0272
C31 C 0.7495(3) 0.34897(14) 0.16779(10)
C32 C 0.7502(3) 0.31154(13) 0.08649(9)
C33 C 0.7496(3) 0.19588(13) 0.06589(10)
C34 C 0.7502(4) 0.01804(15) 0.10979(12)
H28 H 0.7506 -0.0237 0.1589
H29 H 0.8739 0.0007 0.0787
H30 H 0.6260 0.0008 0.0790
loop_
_geom_bond_atom_site_label_1
_geom_bond_atom_site_label_2
_geom_bond_site_symmetry_1
_geom_bond_site_symmetry_2
O1 C11 1_555 1_555
O2 C14 1_555 1_555
O3 C16 1_555 1_555
O4 C16 1_555 1_555
N1 C1 1_555 1_555
C1 H1 1_555 1_555
H2 C1 1_555 1_555
H3 C1 1_555 1_555
C2 N1 1_555 1_555
H4 C2 1_555 1_555
H5 C2 1_555 1_555
H6 C2 1_555 1_555
C3 N1 1_555 1_555
C4 C3 1_555 1_555
H7 C4 1_555 1_555
C5 C3 1_555 1_555
H8 C5 1_555 1_555
C6 C4 1_555 1_555
H9 C6 1_555 1_555
C7 C5 1_555 1_555
C8 C6 1_555 1_555
C9 C8 1_555 1_555
H10 C9 1_555 1_555
C10 C9 1_555 1_555
H11 C10 1_555 1_555
C11 C10 1_555 1_555
C12 C7 1_555 1_555
C13 C12 1_555 1_555
H12 C13 1_555 1_555
C14 O1 1_555 1_555
C15 C13 1_555 1_555
C16 C15 1_555 1_555
C17 O4 1_555 1_555
H13 C17 1_555 1_555
H14 C17 1_555 1_555
H15 C17 1_555 1_555
O5 C28 1_555 1_555
O6 C31 1_555 1_555
O7 C33 1_555 1_555
O8 C33 1_555 1_555
N2 C18 1_555 1_555
C18 H16 1_555 1_555
H17 C18 1_555 1_555
H18 C18 1_555 1_555
C19 N2 1_555 1_555
H19 C19 1_555 1_555
H20 C19 1_555 1_555
H21 C19 1_555 1_555
C20 N2 1_555 1_555
C21 C20 1_555 1_555
H22 C21 1_555 1_555
C22 C20 1_555 1_555
H23 C22 1_555 1_555
C23 C21 1_555 1_555
H24 C23 1_555 1_555
C24 C22 1_555 1_555
C25 C23 1_555 1_555
C26 C25 1_555 1_555
H25 C26 1_555 1_555
C27 C26 1_555 1_555
H26 C27 1_555 1_555
C28 C27 1_555 1_555
C29 C24 1_555 1_555
C30 C29 1_555 1_555
H27 C30 1_555 1_555
C31 O5 1_555 1_555
C32 C30 1_555 1_555
C33 C32 1_555 1_555
C34 O8 1_555 1_555
H28 C34 1_555 1_555
H29 C34 1_555 1_555
H30 C34 1_555 1_555
C7 C8 1_555 1_555
C11 C12 1_555 1_555
C14 C15 1_555 1_555
C24 C25 1_555 1_555
C28 C29 1_555 1_555
C31 C32 1_555 1_555

#END
