
#######################################################################
#
#                 Cambridge Crystallographic Data Centre
#                                CCDC 
#
#######################################################################
#
# If this CIF has been generated from an entry in the Cambridge 
# Structural Database, then it will include bibliographic, chemical, 
# crystal, experimental, refinement or atomic coordinate data resulting 
# from the CCDC's data processing and validation procedures.
#
#######################################################################

data_XOTYUB
_chemical_formula_moiety         '2(C9 H10 O3),C10 H8 N2'
_chemical_name_systematic        "bis(4-Ethoxybenzoic acid) 4,4'-bipyridine"
_symmetry_cell_setting           monoclinic
_symmetry_space_group_name_H-M   'P 21'
_symmetry_Int_Tables_number      4
_space_group_name_Hall           'P 2yb'
loop_
_symmetry_equiv_pos_site_id
_symmetry_equiv_pos_as_xyz
1 x,y,z
2 -x,1/2+y,-z
_cell_length_a                   9.2046(2)
_cell_length_b                   21.1011(6)
_cell_length_c                   13.1030(3)
_cell_angle_alpha                90
_cell_angle_beta                 101.2650(14)
_cell_angle_gamma                90
_cell_volume                     2495.93
_cell_formula_units_Z            4
loop_
_atom_site_label
_atom_site_type_symbol
_atom_site_fract_x
_atom_site_fract_y
_atom_site_fract_z
O1 O -0.1269(5) 0.4534(3) 0.4669(4)
O2 O -0.0947(5) 0.3526(2) 0.5146(4)
H1 H -0.0217 0.3644 0.4666
O3 O -0.6724(5) 0.4044(2) 0.6871(4)
C1 C -0.1660(7) 0.4087(3) 0.5074(6)
C2 C -0.2972(7) 0.4072(3) 0.5562(5)
C3 C -0.3947(7) 0.4580(3) 0.5412(5)
H2 H -0.3743 0.4920 0.5009
C4 C -0.5217(7) 0.4604(3) 0.5837(5)
H3 H -0.5848 0.4952 0.5721
C5 C -0.5527(7) 0.4098(3) 0.6438(5)
C6 C -0.4557(7) 0.3585(4) 0.6615(5)
H4 H -0.4745 0.3257 0.7045
C7 C -0.3328(7) 0.3555(3) 0.6167(5)
H5 H -0.2729 0.3196 0.6259
C8 C -0.7776(7) 0.4569(4) 0.6720(6)
H6 H -0.8212 0.4609 0.5986
H7 H -0.7264 0.4961 0.6946
C9 C -0.8974(8) 0.4457(4) 0.7328(6)
H8 H -0.9645 0.4810 0.7237
H9 H -0.8539 0.4413 0.8053
H10 H -0.9503 0.4077 0.7085
O4 O -0.4960(5) 0.6894(2) 0.4048(4)
H11 H -0.4158 0.6870 0.3698
O5 O -0.5276(5) 0.5877(3) 0.3695(5)
O6 O -1.0782(5) 0.6550(2) 0.5794(4)
C10 C -0.5689(7) 0.6358(4) 0.4037(5)
C11 C -0.6996(7) 0.6411(3) 0.4500(5)
C12 C -0.7453(7) 0.6953(3) 0.4900(5)
H12 H -0.6886 0.7315 0.4873
C13 C -0.8693(7) 0.7012(3) 0.5346(6)
H13 H -0.8938 0.7392 0.5627
C14 C -0.9562(7) 0.6462(3) 0.5349(5)
C15 C -0.9188(7) 0.5917(3) 0.4932(5)
H14 H -0.9800 0.5565 0.4918
C16 C -0.7918(7) 0.5869(3) 0.4523(6)
H15 H -0.7663 0.5483 0.4263
C17 C -1.1747(7) 0.6007(4) 0.5846(6)
H16 H -1.1179 0.5654 0.6195
H17 H -1.2216 0.5873 0.5152
C18 C -1.2861(7) 0.6212(4) 0.6431(6)
H18 H -1.3531 0.5869 0.6474
H19 H -1.3402 0.6565 0.6083
H20 H -1.2383 0.6336 0.7119
O7 O 0.9967(5) 0.3921(2) 0.0961(4)
H21 H 0.8752 0.4273 0.0946
O8 O 1.0269(5) 0.4958(3) 0.1306(4)
O9 O 1.5794(5) 0.4285(2) -0.0782(4)
C19 C 1.0659(7) 0.4470(4) 0.0949(5)
C20 C 1.2053(7) 0.4428(3) 0.0488(5)
C21 C 1.2426(7) 0.3849(3) 0.0054(5)
H22 H 1.1838 0.3489 0.0042
C22 C 1.3701(7) 0.3845(3) -0.0347(5)
H23 H 1.3970 0.3469 -0.0631
C23 C 1.4590(7) 0.4359(3) -0.0354(5)
C24 C 1.4192(7) 0.4940(3) 0.0065(6)
H24 H 1.4754 0.5306 0.0059
C25 C 1.2913(7) 0.4933(3) 0.0488(5)
H25 H 1.2648 0.5305 0.0788
C26 C 1.6712(8) 0.4804(3) -0.0840(6)
H26 H 1.7146 0.4947 -0.0143
H27 H 1.6135 0.5149 -0.1202
C27 C 1.7944(8) 0.4619(4) -0.1419(6)
H28 H 1.8559 0.4981 -0.1467
H29 H 1.7511 0.4475 -0.2106
H30 H 1.8533 0.4287 -0.1047
O10 O 0.6243(5) 0.6271(2) 0.0313(4)
O11 O 0.5951(6) 0.7287(2) -0.0139(5)
H31 H 0.5249 0.7288 0.0088
O12 O 1.1746(5) 0.6774(2) -0.1893(4)
C28 C 0.6661(6) 0.6751(4) -0.0088(5)
C29 C 0.8001(7) 0.6759(3) -0.0580(5)
C30 C 0.8279(7) 0.7248(3) -0.1177(6)
H32 H 0.7605 0.7581 -0.1309
C31 C 0.9553(7) 0.7264(3) -0.1597(6)
H33 H 0.9758 0.7612 -0.1981
C32 C 1.0513(7) 0.6752(3) -0.1435(5)
C33 C 1.0205(7) 0.6246(3) -0.0844(5)
H34 H 1.0846 0.5901 -0.0730
C34 C 0.8940(7) 0.6253(3) -0.0422(5)
H35 H 0.8729 0.5910 -0.0028
C35 C 1.2703(7) 0.6253(4) -0.1761(6)
H36 H 1.2166 0.5872 -0.2019
H37 H 1.3122 0.6194 -0.1028
C36 C 1.3903(8) 0.6375(4) -0.2347(6)
H38 H 1.4584 0.6025 -0.2253
H39 H 1.4419 0.6756 -0.2094
H40 H 1.3482 0.6421 -0.3073
N1 N 0.1348(6) 0.3581(3) 0.4190(5)
N2 N 0.7643(7) 0.3908(3) 0.1856(5)
C37 C 0.3862(7) 0.3733(3) 0.3305(5)
C38 C 0.2799(6) 0.4211(4) 0.3235(5)
H41 H 0.2907 0.4586 0.2883
C39 C 0.1603(7) 0.4123(4) 0.3686(5)
H42 H 0.0921 0.4451 0.3649
C40 C 0.2386(8) 0.3124(4) 0.4254(7)
H43 H 0.2274 0.2755 0.4619
C41 C 0.3614(7) 0.3184(3) 0.3796(6)
H44 H 0.4274 0.2848 0.3822
C42 C 0.7078(8) 0.3364(4) 0.2020(7)
H45 H 0.7540 0.3001 0.1839
C43 C 0.5833(7) 0.3291(4) 0.2449(6)
H46 H 0.5435 0.2891 0.2505
C44 C 0.5179(7) 0.3820(4) 0.2795(5)
C45 C 0.5788(8) 0.4384(4) 0.2656(5)
H47 H 0.5381 0.4748 0.2884
C46 C 0.6996(8) 0.4440(4) 0.2189(6)
H48 H 0.7380 0.4839 0.2096
N3 N 0.3629(6) 0.7248(3) 0.0813(5)
N4 N -0.2652(7) 0.6897(4) 0.3111(5)
C47 C 0.3416(7) 0.6732(4) 0.1311(6)
H49 H 0.4131 0.6416 0.1371
C48 C 0.2188(7) 0.6626(4) 0.1759(6)
H50 H 0.2073 0.6242 0.2083
C49 C 0.1135(7) 0.7103(3) 0.1716(5)
C50 C 0.1374(8) 0.7652(4) 0.1171(7)
H51 H 0.0684 0.7979 0.1083
C51 C 0.2638(8) 0.7701(3) 0.0770(6)
H52 H 0.2805 0.8079 0.0447
C52 C -0.2031(8) 0.7471(4) 0.3036(6)
H53 H -0.2416 0.7821 0.3322
C53 C -0.0848(8) 0.7554(4) 0.2550(7)
H54 H -0.0500 0.7960 0.2462
C54 C -0.0170(7) 0.7034(3) 0.2191(5)
C55 C -0.0799(7) 0.6439(3) 0.2320(5)
H55 H -0.0400 0.6068 0.2107
C56 C -0.2037(8) 0.6426(4) 0.2776(6)
H56 H -0.2457 0.6031 0.2842
loop_
_geom_bond_atom_site_label_1
_geom_bond_atom_site_label_2
_geom_bond_site_symmetry_1
_geom_bond_site_symmetry_2
O1 C1 1_555 1_555
O2 H1 1_555 1_555
O3 C5 1_555 1_555
C1 O2 1_555 1_555
C2 C1 1_555 1_555
C3 C2 1_555 1_555
H2 C3 1_555 1_555
C4 C3 1_555 1_555
H3 C4 1_555 1_555
C5 C4 1_555 1_555
C6 C5 1_555 1_555
H4 C6 1_555 1_555
C7 C2 1_555 1_555
H5 C7 1_555 1_555
C8 O3 1_555 1_555
H6 C8 1_555 1_555
H7 C8 1_555 1_555
C9 C8 1_555 1_555
H8 C9 1_555 1_555
H9 C9 1_555 1_555
H10 C9 1_555 1_555
O4 H11 1_555 1_555
O5 C10 1_555 1_555
O6 C14 1_555 1_555
C10 O4 1_555 1_555
C11 C10 1_555 1_555
C12 C11 1_555 1_555
H12 C12 1_555 1_555
C13 C12 1_555 1_555
H13 C13 1_555 1_555
C14 C13 1_555 1_555
C15 C14 1_555 1_555
H14 C15 1_555 1_555
C16 C11 1_555 1_555
H15 C16 1_555 1_555
C17 O6 1_555 1_555
H16 C17 1_555 1_555
H17 C17 1_555 1_555
C18 C17 1_555 1_555
H18 C18 1_555 1_555
H19 C18 1_555 1_555
H20 C18 1_555 1_555
O7 H21 1_555 1_555
O8 C19 1_555 1_555
O9 C23 1_555 1_555
C19 O7 1_555 1_555
C20 C19 1_555 1_555
C21 C20 1_555 1_555
H22 C21 1_555 1_555
C22 C21 1_555 1_555
H23 C22 1_555 1_555
C23 C22 1_555 1_555
C24 C23 1_555 1_555
H24 C24 1_555 1_555
C25 C20 1_555 1_555
H25 C25 1_555 1_555
C26 O9 1_555 1_555
H26 C26 1_555 1_555
H27 C26 1_555 1_555
C27 C26 1_555 1_555
H28 C27 1_555 1_555
H29 C27 1_555 1_555
H30 C27 1_555 1_555
O10 C28 1_555 1_555
O11 H31 1_555 1_555
O12 C32 1_555 1_555
C28 O11 1_555 1_555
C29 C28 1_555 1_555
C30 C29 1_555 1_555
H32 C30 1_555 1_555
C31 C30 1_555 1_555
H33 C31 1_555 1_555
C32 C31 1_555 1_555
C33 C32 1_555 1_555
H34 C33 1_555 1_555
C34 C29 1_555 1_555
H35 C34 1_555 1_555
C35 O12 1_555 1_555
H36 C35 1_555 1_555
H37 C35 1_555 1_555
C36 C35 1_555 1_555
H38 C36 1_555 1_555
H39 C36 1_555 1_555
H40 C36 1_555 1_555
N1 C39 1_555 1_555
N2 C42 1_555 1_555
C37 C38 1_555 1_555
C38 H41 1_555 1_555
C39 C38 1_555 1_555
H42 C39 1_555 1_555
C40 N1 1_555 1_555
H43 C40 1_555 1_555
C41 C37 1_555 1_555
H44 C41 1_555 1_555
C42 H45 1_555 1_555
C43 C42 1_555 1_555
H46 C43 1_555 1_555
C44 C37 1_555 1_555
C45 C44 1_555 1_555
H47 C45 1_555 1_555
C46 N2 1_555 1_555
H48 C46 1_555 1_555
N3 C47 1_555 1_555
N4 C52 1_555 1_555
C47 H49 1_555 1_555
C48 C47 1_555 1_555
H50 C48 1_555 1_555
C49 C48 1_555 1_555
C50 C49 1_555 1_555
H51 C50 1_555 1_555
C51 N3 1_555 1_555
H52 C51 1_555 1_555
C52 H53 1_555 1_555
C53 C52 1_555 1_555
H54 C53 1_555 1_555
C54 C49 1_555 1_555
C55 C54 1_555 1_555
H55 C55 1_555 1_555
C56 N4 1_555 1_555
H56 C56 1_555 1_555
C6 C7 1_555 1_555
C15 C16 1_555 1_555
C24 C25 1_555 1_555
C33 C34 1_555 1_555
C40 C41 1_555 1_555
C43 C44 1_555 1_555
C45 C46 1_555 1_555
C50 C51 1_555 1_555
C53 C54 1_555 1_555
C55 C56 1_555 1_555

#END
