
#######################################################################
#
#                 Cambridge Crystallographic Data Centre
#                                CCDC 
#
#######################################################################
#
# If this CIF has been generated from an entry in the Cambridge 
# Structural Database, then it will include bibliographic, chemical, 
# crystal, experimental, refinement or atomic coordinate data resulting 
# from the CCDC's data processing and validation procedures.
#
#######################################################################

data_XOTYOV
_chemical_formula_moiety         'C14 H16 N4,2(C9 H10 O3)'
_chemical_name_systematic        
'bis(4-Ethoxybenzoic acid) 1,4-bis(4-pyridinyl)piperazine'
_symmetry_cell_setting           monoclinic
_symmetry_space_group_name_H-M   'P c'
_symmetry_Int_Tables_number      7
_space_group_name_Hall           'P -2yc'
loop_
_symmetry_equiv_pos_site_id
_symmetry_equiv_pos_as_xyz
1 x,y,z
2 x,-y,1/2+z
_cell_length_a                   13.2405(18)
_cell_length_b                   8.8054(12)
_cell_length_c                   13.5314(19)
_cell_angle_alpha                90
_cell_angle_beta                 113.556(2)
_cell_angle_gamma                90
_cell_volume                     1446.14
_exptl_crystal_colour            colorless
_cell_formula_units_Z            2
loop_
_atom_site_label
_atom_site_type_symbol
_atom_site_fract_x
_atom_site_fract_y
_atom_site_fract_z
O1 O 1.1878(4) 0.3167(5) 1.8624(3)
O2 O 1.0339(4) 0.1005(5) 1.3757(4)
O3 O 0.9808(4) 0.3415(5) 1.3554(3)
H1 H 0.9589 0.3175 1.2917
C1 C 1.2671(7) 0.2542(8) 2.0482(6)
H2 H 1.2985 0.1731 2.0986
H3 H 1.2031 0.2929 2.0563
H4 H 1.3204 0.3341 2.0618
C2 C 1.2357(6) 0.1970(7) 1.9377(5)
H5 H 1.3003 0.1580 1.9291
H6 H 1.1832 0.1146 1.9242
C3 C 1.1514(5) 0.2883(7) 1.7553(5)
C4 C 1.0971(5) 0.4053(6) 1.6887(4)
H7 H 1.0869 0.4965 1.7182
C5 C 1.0563(5) 0.3890(6) 1.5756(4)
H8 H 1.0193 0.4686 1.5305
C6 C 1.0724(5) 0.2501(7) 1.5321(5)
C7 C 1.1284(5) 0.1361(6) 1.6021(5)
H9 H 1.1394 0.0443 1.5740
C8 C 1.1688(5) 0.1532(6) 1.7124(5)
H10 H 1.2074 0.0745 1.7575
C9 C 1.0276(5) 0.2262(7) 1.4149(5)
O4 O 0.5226(4) 0.4009(5) 0.0261(4)
O5 O 0.5724(4) 0.1580(5) 0.0478(3)
H11 H 0.5943 0.1798 0.1119
O6 O 0.3678(4) 0.1854(5) -0.4610(3)
C10 C 0.5274(5) 0.2790(7) -0.0111(5)
C11 C 0.4855(5) 0.2504(7) -0.1302(5)
C12 C 0.4290(5) 0.3670(6) -0.1994(5)
H12 H 0.4174 0.4579 -0.1705
C13 C 0.3899(5) 0.3512(6) -0.3094(5)
H13 H 0.3543 0.4319 -0.3541
C14 C 0.4038(5) 0.2139(7) -0.3538(5)
C15 C 0.4608(6) 0.0968(6) -0.2824(5)
H14 H 0.4718 0.0045 -0.3101
C16 C 0.4993(5) 0.1159(7) -0.1761(5)
H15 H 0.5367 0.0362 -0.1312
C17 C 0.3220(5) 0.3107(7) -0.5335(5)
H16 H 0.3746 0.3932 -0.5175
H17 H 0.2557 0.3480 -0.5276
C18 C 0.2961(7) 0.2483(8) -0.6442(6)
H18 H 0.2652 0.3272 -0.6967
H19 H 0.2440 0.1667 -0.6585
H20 H 0.3624 0.2111 -0.6483
N1 N 0.9054(5) 0.2869(6) 1.1500(4)
N2 N 0.8073(4) 0.2480(5) 0.8161(3)
N3 N 0.7488(4) 0.2519(5) 0.5878(3)
N4 N 0.6504(5) 0.2157(6) 0.2519(4)
C19 C 0.8136(5) 0.3530(8) 1.0795(5)
H21 H 0.7708 0.4082 1.1070
C20 C 0.7789(6) 0.3449(6) 0.9710(5)
H22 H 0.7140 0.3927 0.9264
C21 C 0.8422(5) 0.2634(6) 0.9263(4)
C22 C 0.9359(5) 0.1942(6) 0.9975(4)
H23 H 0.9806 0.1390 0.9723
C23 C 0.9635(6) 0.2075(8) 1.1079(5)
H24 H 1.0263 0.1578 1.1548
C24 C 0.7117(5) 0.3356(6) 0.7435(4)
H25 H 0.7338 0.4399 0.7403
H26 H 0.6551 0.3360 0.7719
C25 C 0.6661(5) 0.2695(8) 0.6328(5)
H27 H 0.6343 0.1710 0.6350
H28 H 0.6075 0.3346 0.5858
C26 C 0.8446(5) 0.1693(7) 0.6589(5)
H29 H 0.9003 0.1709 0.6294
H30 H 0.8243 0.0642 0.6626
C27 C 0.8922(5) 0.2349(7) 0.7710(5)
H31 H 0.9516 0.1703 0.8174
H32 H 0.9227 0.3345 0.7692
C28 C 0.7169(4) 0.2376(6) 0.4787(4)
C29 C 0.6186(5) 0.3066(7) 0.4034(5)
H33 H 0.5732 0.3611 0.4282
C30 C 0.5913(6) 0.2930(7) 0.2963(5)
H34 H 0.5270 0.3405 0.2500
C31 C 0.7417(6) 0.1523(7) 0.3200(6)
H35 H 0.7853 0.1001 0.2919
C32 C 0.7769(5) 0.1583(7) 0.4313(5)
H36 H 0.8415 0.1088 0.4748
loop_
_geom_bond_atom_site_label_1
_geom_bond_atom_site_label_2
_geom_bond_site_symmetry_1
_geom_bond_site_symmetry_2
O1 C2 1_555 1_555
O2 C9 1_555 1_555
O3 H1 1_555 1_555
C1 H2 1_555 1_555
H3 C1 1_555 1_555
H4 C1 1_555 1_555
C2 C1 1_555 1_555
H5 C2 1_555 1_555
H6 C2 1_555 1_555
C3 O1 1_555 1_555
C4 C3 1_555 1_555
H7 C4 1_555 1_555
C5 C4 1_555 1_555
H8 C5 1_555 1_555
C6 C5 1_555 1_555
C7 C6 1_555 1_555
H9 C7 1_555 1_555
C8 C3 1_555 1_555
H10 C8 1_555 1_555
C9 O3 1_555 1_555
O4 C10 1_555 1_555
O5 H11 1_555 1_555
O6 C14 1_555 1_555
C10 O5 1_555 1_555
C11 C10 1_555 1_555
C12 C11 1_555 1_555
H12 C12 1_555 1_555
C13 C12 1_555 1_555
H13 C13 1_555 1_555
C14 C13 1_555 1_555
C15 C14 1_555 1_555
H14 C15 1_555 1_555
C16 C11 1_555 1_555
H15 C16 1_555 1_555
C17 O6 1_555 1_555
H16 C17 1_555 1_555
H17 C17 1_555 1_555
C18 C17 1_555 1_555
H18 C18 1_555 1_555
H19 C18 1_555 1_555
H20 C18 1_555 1_555
N1 C19 1_555 1_555
N2 C21 1_555 1_555
N3 C25 1_555 1_555
N4 C30 1_555 1_555
C19 H21 1_555 1_555
C20 C19 1_555 1_555
H22 C20 1_555 1_555
C21 C20 1_555 1_555
C22 C21 1_555 1_555
H23 C22 1_555 1_555
C23 N1 1_555 1_555
H24 C23 1_555 1_555
C24 N2 1_555 1_555
H25 C24 1_555 1_555
H26 C24 1_555 1_555
C25 C24 1_555 1_555
H27 C25 1_555 1_555
H28 C25 1_555 1_555
C26 N3 1_555 1_555
H29 C26 1_555 1_555
H30 C26 1_555 1_555
C27 N2 1_555 1_555
H31 C27 1_555 1_555
H32 C27 1_555 1_555
C28 N3 1_555 1_555
C29 C28 1_555 1_555
H33 C29 1_555 1_555
C30 C29 1_555 1_555
H34 C30 1_555 1_555
C31 N4 1_555 1_555
H35 C31 1_555 1_555
C32 C28 1_555 1_555
H36 C32 1_555 1_555
C6 C9 1_555 1_555
C7 C8 1_555 1_555
C15 C16 1_555 1_555
C22 C23 1_555 1_555
C26 C27 1_555 1_555
C31 C32 1_555 1_555

#END
