
#######################################################################
#
#                 Cambridge Crystallographic Data Centre
#                                CCDC 
#
#######################################################################
#
# If this CIF has been generated from an entry in the Cambridge 
# Structural Database, then it will include bibliographic, chemical, 
# crystal, experimental, refinement or atomic coordinate data resulting 
# from the CCDC's data processing and validation procedures.
#
#######################################################################

data_XOTZAI
_chemical_formula_moiety         'C15 H15 N1 O2 S1'
_chemical_name_systematic        2-(4-(4-Morpholinyl)benzoyl)thiophene
_symmetry_cell_setting           triclinic
_symmetry_space_group_name_H-M   'P -1'
_symmetry_Int_Tables_number      2
_space_group_name_Hall           '-P 1'
loop_
_symmetry_equiv_pos_site_id
_symmetry_equiv_pos_as_xyz
1 x,y,z
2 -x,-y,-z
_cell_length_a                   10.0474(8)
_cell_length_b                   10.6773(9)
_cell_length_c                   13.1861(11)
_cell_angle_alpha                76.086(2)
_cell_angle_beta                 85.300(2)
_cell_angle_gamma                85.476(2)
_cell_volume                     1365.91
_exptl_crystal_colour            yellow
_exptl_crystal_description       block
_chemical_melting_point          '114 deg.C'
_cell_formula_units_Z            4
_exptl_crystal_recrystallization_method 'ethyl acetate'
loop_
_atom_site_label
_atom_site_type_symbol
_atom_site_fract_x
_atom_site_fract_y
_atom_site_fract_z
S1 S 0.08978(11) 0.96458(12) 0.35112(10)
C1 C 0.1948(4) 1.0722(6) 0.3485(5)
H1 H 0.1997 1.1480 0.2962
C2 C 0.2746(4) 1.0421(6) 0.4292(5)
H2 H 0.3401 1.0948 0.4380
C3 C 0.2489(11) 0.9216(9) 0.4998(9)
H3 H 0.2955 0.8835 0.5587
C4 C 0.14145(18) 0.86999(16) 0.46568(13)
C5 C 0.07539(17) 0.74867(16) 0.50795(14)
O1 O 0.00516(14) 0.71009(13) 0.45110(11)
C6 C 0.09774(15) 0.67038(15) 0.61517(13)
C7 C 0.08931(16) 0.53694(15) 0.63506(14)
H4 H 0.0677 0.5010 0.5814
C8 C 0.11180(15) 0.45669(15) 0.73117(14)
H5 H 0.1079 0.3679 0.7403
C9 C 0.14068(14) 0.50623(14) 0.81600(13)
C10 C 0.14573(16) 0.64148(14) 0.79673(13)
H6 H 0.1635 0.6782 0.8510
C11 C 0.12504(16) 0.72045(15) 0.69956(13)
H7 H 0.1293 0.8093 0.6897
N1 N 0.16100(14) 0.42583(12) 0.91426(11)
C12 C 0.1914(4) 0.2887(4) 0.9219(3)
H8 H 0.2784 0.2765 0.8868
H9 H 0.1255 0.2565 0.8863
C13 C 0.1917(9) 0.2115(6) 1.0345(4)
H10 H 0.1008 0.2091 1.0656
H11 H 0.2249 0.1233 1.0359
O2 O 0.2727(3) 0.26528(16) 1.09500(16)
C14 C 0.2119(4) 0.3902(4) 1.0990(4)
H12 H 0.2598 0.4268 1.1448
H13 H 0.1203 0.3813 1.1278
C15 C 0.2134(5) 0.4802(5) 0.9912(4)
H14 H 0.1611 0.5594 0.9953
H15 H 0.3047 0.5024 0.9688
S2 S 0.2638(2) 1.09778(18) -0.29267(14)
C16 C 0.4220(5) 1.1532(8) -0.3314(6)
H16 H 0.4433 1.2072 -0.3964
C17 C 0.5111(8) 1.1099(7) -0.2575(5)
H17 H 0.6001 1.1307 -0.2654
C18 C 0.4531(10) 1.0306(11) -0.1686(10)
H18 H 0.4994 0.9933 -0.1094
C19 C 0.31638(17) 1.01151(14) -0.17636(12)
C20 C 0.21818(16) 0.94054(15) -0.09945(14)
O3 O 0.09833(13) 0.96300(14) -0.11331(11)
C21 C 0.26243(15) 0.84459(14) -0.00539(13)
C22 C 0.38327(15) 0.76916(14) -0.00393(13)
H19 H 0.4415 0.7813 -0.0636
C23 C 0.41712(15) 0.67760(15) 0.08412(13)
H20 H 0.4975 0.6283 0.0824
C24 C 0.33389(14) 0.65636(14) 0.17664(13)
C25 C 0.21330(15) 0.73309(15) 0.17493(14)
H21 H 0.1559 0.7227 0.2350
C26 C 0.17899(15) 0.82287(15) 0.08627(14)
H22 H 0.0977 0.8708 0.0873
N2 N 0.36816(13) 0.56218(14) 0.26459(12)
C27 C 0.5027(11) 0.5088(10) 0.2782(7)
H23 H 0.5474 0.5551 0.3192
H24 H 0.5515 0.5185 0.2104
C28 C 0.5021(5) 0.3656(5) 0.3339(4)
H25 H 0.4537 0.3190 0.2955
H26 H 0.5928 0.3274 0.3399
O4 O 0.4351(7) 0.3607(6) 0.4384(6)
C29 C 0.2947(4) 0.4000(4) 0.4137(4)
H27 H 0.2365 0.3821 0.4773
H28 H 0.2665 0.3518 0.3664
C30 C 0.2860(7) 0.5413(5) 0.3639(5)
H29 H 0.1938 0.5710 0.3511
H30 H 0.3186 0.5892 0.4097
C31? C 0.312(2) 1.042(2) 0.4316(19)
C32? C 0.1403(14) 0.2939(15) 0.9351(11)
C33? C 0.210(3) 0.2074(19) 1.0273(13)
C34? C 0.2491(17) 0.3856(13) 1.0917(14)
C35? C 0.181(2) 0.4797(17) 1.0028(15)
C36? C 0.4907(18) 1.1319(15) -0.2802(11)
C37? C 0.3790(13) 1.1536(17) -0.3329(14)
C38? C 0.2801(17) 1.0784(16) -0.2776(12)
C39? C 0.238(2) 1.072(3) 0.348(2)
C40? C 0.497(2) 0.494(2) 0.2645(14)
C41? C 0.499(4) 0.449(4) 0.264(2)
C42? C 0.5356(10) 0.4170(16) 0.3726(9)
C43? C 0.537(3) 0.464(3) 0.370(2)
C44? C 0.3209(11) 0.4339(14) 0.4488(9)
C45? C 0.325(3) 0.469(3) 0.450(3)
C46? C 0.1335(19) 0.983(2) 0.3557(17)
C47? C 0.2678(13) 0.5022(11) 0.3451(9)
C48? C 0.322(4) 0.561(4) 0.346(3)
H31? H 0.3841 1.0880 0.4398
H32? H 0.1697 0.2633 0.8728
H33? H 0.0449 0.2834 0.9474
H34? H 0.1766 0.1215 1.0433
H35? H 0.3056 0.2001 1.0103
H36? H 0.3427 0.3704 1.0710
H37? H 0.2440 0.4217 1.1528
H38? H 0.0942 0.5093 1.0298
H39? H 0.2338 0.5544 0.9785
H40? H 0.5699 1.1709 -0.3064
H41? H 0.3699 1.2113 -0.3975
H42? H 0.1983 1.0722 -0.3038
H43? H 0.2516 1.1418 0.2917
H44? H 0.5646 0.5553 0.2357
H45? H 0.4983 0.4347 0.2187
H46? H 0.4706 0.3637 0.2653
H47? H 0.5664 0.4752 0.2074
H48? H 0.6155 0.3616 0.3658
H49? H 0.5547 0.4759 0.4145
H50? H 0.6294 0.4344 0.3795
H51? H 0.5269 0.5548 0.3716
H52? H 0.3587 0.4945 0.4810
H53? H 0.2503 0.3913 0.4961
H54? H 0.3190 0.5158 0.5053
H55? H 0.2502 0.4139 0.4616
H56? H 0.0712 0.9894 0.3060
H57? H 0.2234 0.4404 0.3184
H58? H 0.2007 0.5687 0.3566
H59? H 0.2269 0.5765 0.3354
H60? H 0.3494 0.6403 0.3592
O5? O 0.1830(10) 0.2646(5) 1.1167(5)
O6? O 0.4251(13) 0.3383(14) 0.4243(12)
O7? O 0.452(3) 0.390(3) 0.452(2)
S3? S 0.2633(11) 0.9204(8) 0.5125(9)
S4? S 0.4740(6) 1.0258(6) -0.1602(5)
loop_
_geom_bond_atom_site_label_1
_geom_bond_atom_site_label_2
_geom_bond_site_symmetry_1
_geom_bond_site_symmetry_2
S1 C1 1_555 1_555
C1 H1 1_555 1_555
C2 C1 1_555 1_555
H2 C2 1_555 1_555
C3 C2 1_555 1_555
H3 C3 1_555 1_555
C4 S1 1_555 1_555
C5 C4 1_555 1_555
O1 C5 1_555 1_555
C6 C5 1_555 1_555
C7 C6 1_555 1_555
H4 C7 1_555 1_555
C8 C7 1_555 1_555
H5 C8 1_555 1_555
C9 C8 1_555 1_555
C10 C9 1_555 1_555
H6 C10 1_555 1_555
C11 C6 1_555 1_555
H7 C11 1_555 1_555
N1 C9 1_555 1_555
C12 N1 1_555 1_555
H8 C12 1_555 1_555
H9 C12 1_555 1_555
C13 C12 1_555 1_555
H10 C13 1_555 1_555
H11 C13 1_555 1_555
O2 C13 1_555 1_555
C14 O2 1_555 1_555
H12 C14 1_555 1_555
H13 C14 1_555 1_555
C15 N1 1_555 1_555
H14 C15 1_555 1_555
H15 C15 1_555 1_555
S2 C16 1_555 1_555
C16 H16 1_555 1_555
C17 C16 1_555 1_555
H17 C17 1_555 1_555
C18 C17 1_555 1_555
H18 C18 1_555 1_555
C19 S2 1_555 1_555
C20 C19 1_555 1_555
O3 C20 1_555 1_555
C21 C20 1_555 1_555
C22 C21 1_555 1_555
H19 C22 1_555 1_555
C23 C22 1_555 1_555
H20 C23 1_555 1_555
C24 C23 1_555 1_555
C25 C24 1_555 1_555
H21 C25 1_555 1_555
C26 C21 1_555 1_555
H22 C26 1_555 1_555
N2 C24 1_555 1_555
C27 N2 1_555 1_555
H23 C27 1_555 1_555
H24 C27 1_555 1_555
C28 C27 1_555 1_555
H25 C28 1_555 1_555
H26 C28 1_555 1_555
O4 C28 1_555 1_555
C29 O4 1_555 1_555
H27 C29 1_555 1_555
H28 C29 1_555 1_555
C30 N2 1_555 1_555
H29 C30 1_555 1_555
H30 C30 1_555 1_555
C3 C4 1_555 1_555
C10 C11 1_555 1_555
C14 C15 1_555 1_555
C18 C19 1_555 1_555
C25 C26 1_555 1_555
C29 C30 1_555 1_555

#END
