
#######################################################################
#
#                 Cambridge Crystallographic Data Centre
#                                CCDC 
#
#######################################################################
#
# If this CIF has been generated from an entry in the Cambridge 
# Structural Database, then it will include bibliographic, chemical, 
# crystal, experimental, refinement or atomic coordinate data resulting 
# from the CCDC's data processing and validation procedures.
#
#######################################################################

data_XOVBUH
_chemical_name_common            
6,6-dimethyl-3a,4,4a,7a-tetrahydro-3H-[1,3]dioxolo[4,5]cyclopenta[1,2-c][1,2]oxazol-4-ol
_chemical_formula_moiety         'C9 H13 N1 O4'
_chemical_name_systematic        
(3aS,4S,4aS,7aR)-6,6-dimethyl-3a,4,4a,7a-tetrahydro-3H-[1,3]dioxolo[4',5':4,5]cyclopenta[1,2-c]isoxazol-4-ol
_symmetry_cell_setting           hexagonal
_symmetry_space_group_name_H-M   'P 65'
_symmetry_Int_Tables_number      170
_space_group_name_Hall           'P 65'
loop_
_symmetry_equiv_pos_site_id
_symmetry_equiv_pos_as_xyz
1 x,y,z
2 -y,x-y,2/3+z
3 -x+y,-x,1/3+z
4 -x,-y,1/2+z
5 y,-x+y,1/6+z
6 x-y,x,5/6+z
_cell_length_a                   15.154(3)
_cell_length_b                   15.154(3)
_cell_length_c                   8.3934(14)
_cell_angle_alpha                90
_cell_angle_beta                 90
_cell_angle_gamma                120
_cell_volume                     1669.26
_chemical_melting_point          '367 K'
_cell_formula_units_Z            6
_exptl_crystal_recrystallization_method hexane/ethylacetate
loop_
_atom_site_label
_atom_site_type_symbol
_atom_site_fract_x
_atom_site_fract_y
_atom_site_fract_z
O1 O 0.3508(3) 0.2661(3) -0.0164(4)
O2 O 0.4743(2) 0.2267(2) 0.0143(3)
O3 O 0.6119(3) 0.3090(3) 0.2429(5)
H1 H 0.6527 0.3416 0.3136
O4 O 0.4233(3) 0.4573(3) 0.4211(6)
C1 C 0.5068(3) 0.3929(3) 0.2599(5)
H2 H 0.5426 0.4315 0.1645
N1 N 0.3485(3) 0.3744(4) 0.3313(5)
C2 C 0.3940(3) 0.3437(3) 0.2416(5)
C3 C 0.5166(3) 0.2974(3) 0.2800(5)
H3 H 0.4998 0.2737 0.3903
C4 C 0.4351(3) 0.2175(3) 0.1703(5)
H4 H 0.4074 0.1483 0.2125
C5 C 0.3507(3) 0.2469(3) 0.1496(5)
H5 H 0.2839 0.1945 0.1890
C6 C 0.3986(4) 0.2172(3) -0.0956(5)
C7 C 0.5216(3) 0.4628(4) 0.3992(6)
H6 H 0.5408 0.4401 0.4944
H7 H 0.5744 0.5321 0.3756
C8 C 0.4506(4) 0.2760(4) -0.2429(6)
H8 H 0.4979 0.3454 -0.2151
H9 H 0.4006 0.2740 -0.3154
H10 H 0.4865 0.2462 -0.2928
C9 C 0.3220(4) 0.1067(4) -0.1278(7)
H11 H 0.3558 0.0740 -0.1755
H12 H 0.2705 0.1025 -0.1990
H13 H 0.2910 0.0732 -0.0294
loop_
_geom_bond_atom_site_label_1
_geom_bond_atom_site_label_2
_geom_bond_site_symmetry_1
_geom_bond_site_symmetry_2
O1 C5 1_555 1_555
O2 C4 1_555 1_555
O3 H1 1_555 1_555
O4 N1 1_555 1_555
C1 H2 1_555 1_555
N1 C2 1_555 1_555
C2 C1 1_555 1_555
C3 O3 1_555 1_555
H3 C3 1_555 1_555
C4 C3 1_555 1_555
H4 C4 1_555 1_555
C5 C2 1_555 1_555
H5 C5 1_555 1_555
C6 O1 1_555 1_555
C7 O4 1_555 1_555
H6 C7 1_555 1_555
H7 C7 1_555 1_555
C8 C6 1_555 1_555
H8 C8 1_555 1_555
H9 C8 1_555 1_555
H10 C8 1_555 1_555
C9 C6 1_555 1_555
H11 C9 1_555 1_555
H12 C9 1_555 1_555
H13 C9 1_555 1_555
O2 C6 1_555 1_555
C1 C3 1_555 1_555
C1 C7 1_555 1_555
C4 C5 1_555 1_555

#END
