
#######################################################################
#
#                 Cambridge Crystallographic Data Centre
#                                CCDC 
#
#######################################################################
#
# If this CIF has been generated from an entry in the Cambridge 
# Structural Database, then it will include bibliographic, chemical, 
# crystal, experimental, refinement or atomic coordinate data resulting 
# from the CCDC's data processing and validation procedures.
#
#######################################################################

data_XOVGIA
_chemical_name_common            
4,10,16,22-tetrakis(2-Methoxy-2-oxoethoxy)-6,12,18,24-tetramethoxy-C-isopropylcalix(4)resorcinarene
_chemical_formula_moiety         'C56 H72 O16'
_chemical_name_systematic        
2,8,14,20-Tetra-isopropyl-4,10,16,22-tetrakis(2-methoxy-2-oxoethoxy)-6,12,18,24-tetramethoxycalix(4)arene
_symmetry_cell_setting           triclinic
_symmetry_space_group_name_H-M   'P -1'
_symmetry_Int_Tables_number      2
_space_group_name_Hall           '-P 1'
loop_
_symmetry_equiv_pos_site_id
_symmetry_equiv_pos_as_xyz
1 x,y,z
2 -x,-y,-z
_cell_length_a                   11.454(3)
_cell_length_b                   12.470(3)
_cell_length_c                   20.489(5)
_cell_angle_alpha                95.095(4)
_cell_angle_beta                 101.342(3)
_cell_angle_gamma                98.142(4)
_cell_volume                     2819.81
_cell_formula_units_Z            2
loop_
_atom_site_label
_atom_site_type_symbol
_atom_site_fract_x
_atom_site_fract_y
_atom_site_fract_z
O1 O 0.6474(3) -0.2637(2) 0.19887(14)
O2 O 0.3434(3) -0.2393(2) 0.13111(15)
O3 O 0.3756(3) 0.4062(2) 0.19746(17)
O4 O 0.9773(3) -0.0644(2) 0.36802(15)
O5 O 0.7832(3) 0.4348(2) 0.16078(17)
O6 O 1.0431(3) 0.1996(2) 0.48799(16)
O7 O 0.2481(3) 0.1269(2) 0.11967(16)
C1 C 0.5994(4) 0.2291(3) 0.2291(2)
H1 H 0.6047 0.1619 0.2449
C2 C 0.6551(4) -0.0780(3) 0.3495(2)
H2 H 0.6023 -0.0483 0.3722
C3 C 0.6874(4) -0.1936(3) 0.2593(2)
C4 C 0.8179(4) 0.2375(3) 0.2179(2)
H3 H 0.8739 0.2874 0.1996
C5 C 0.6056(4) -0.1523(3) 0.2919(2)
C6 C 0.4701(4) -0.1870(3) 0.2655(2)
H4 H 0.4600 -0.2542 0.2348
C7 C 0.4133(4) -0.1042(3) 0.2241(2)
C8 C 0.7011(4) 0.2842(3) 0.2111(2)
C9 C 0.3843(4) 0.2031(3) 0.2467(2)
H5 H 0.3120 0.2316 0.2263
C10 C 0.8330(4) 0.1562(3) 0.3281(2)
H6 H 0.7644 0.1073 0.3066
O8 O -0.0109(4) 0.1614(3) 0.00280(19)
C11 C 0.6889(4) 0.3820(3) 0.1859(2)
C12 C 0.3669(4) 0.0827(3) 0.2170(2)
C13 C 0.7783(4) -0.0461(3) 0.3745(2)
O9 O 0.9542(3) 0.6987(3) 0.17816(19)
O10 O 1.0137(3) 0.3939(3) 0.29035(19)
C14 C 0.8763(4) 0.2360(3) 0.2921(2)
C15 C 0.8839(4) 0.1434(3) 0.3938(2)
C16 C 0.3020(4) 0.0484(3) 0.1522(2)
C17 C 0.4206(4) 0.0040(3) 0.2509(2)
H7 H 0.4643 0.0251 0.2946
O11 O 0.6039(4) -0.2248(3) 0.02754(17)
C18 C 0.8120(4) -0.1680(3) 0.2842(2)
H8 H 0.8646 -0.1999 0.2623
O12 O 0.1200(3) 0.2722(3) 0.0839(2)
C19 C 0.9752(4) 0.3119(3) 0.3264(2)
C20 C 0.2926(4) -0.0579(3) 0.1219(2)
H9 H 0.2491 -0.0786 0.0781
C21 C 0.5813(4) 0.4256(3) 0.1810(2)
H10 H 0.5752 0.4920 0.1642
C22 C 0.3495(4) -0.1335(3) 0.1580(2)
C23 C 0.8563(4) -0.0957(3) 0.3411(2)
C24 C 0.4910(4) 0.2683(3) 0.2250(2)
C25 C 0.8034(4) 0.1248(4) 0.1771(2)
H11 H 0.7495 0.0732 0.1955
C26 C 0.8313(4) 0.0508(3) 0.4284(2)
H12 H 0.8981 0.0294 0.4596
O13 O 0.5780(4) -0.3773(3) 0.07655(17)
C27 C 0.4848(4) 0.3690(3) 0.2013(2)
C28 C 0.4050(4) -0.2166(4) 0.3217(2)
H13 H 0.4140 -0.1511 0.3536
C29 C 0.3935(5) 0.2191(4) 0.3229(2)
H14 H 0.4622 0.1866 0.3443
C30 C 0.6481(4) -0.2034(4) 0.1429(2)
H15 H 0.7290 -0.1657 0.1447
H16 H 0.5949 -0.1496 0.1438
C31 C 0.9879(4) 0.2189(4) 0.4242(2)
C32 C 0.9078(5) 0.5979(4) 0.1504(3)
C33 C 1.0304(4) 0.3029(4) 0.3919(3)
H17 H 1.0965 0.3542 0.4140
C34 C 0.0802(5) 0.1795(4) 0.0465(3)
C35 C 0.8275(5) 0.5421(4) 0.1893(3)
H18 H 0.8717 0.5424 0.2349
H19 H 0.7606 0.5812 0.1910
C36 C 0.6060(5) -0.2817(4) 0.0802(2)
C37 C 0.7401(5) 0.0882(4) 0.4703(2)
H20 H 0.6670 0.0951 0.4379
C38 C 0.3643(5) 0.5057(4) 0.1695(3)
H21 H 0.4245 0.5632 0.1955
H22 H 0.2855 0.5233 0.1698
H23 H 0.3754 0.4976 0.1241
C39 C 0.2962(5) -0.2670(4) 0.0604(2)
H24 H 0.2112 -0.2645 0.0506
H25 H 0.3095 -0.3391 0.0468
H26 H 0.3364 -0.2157 0.0364
C40 C 0.2712(4) -0.2555(4) 0.2934(3)
H27 H 0.2354 -0.1970 0.2744
H28 H 0.2327 -0.2780 0.3287
H29 H 0.2609 -0.3160 0.2592
O14 O 1.2302(4) 0.4432(3) 0.5731(2)
C41 C 0.9239(5) 0.0842(4) 0.1832(3)
H30 H 0.9131 0.0161 0.1552
H31 H 0.9540 0.0740 0.2290
H32 H 0.9806 0.1369 0.1693
O15 O 0.9242(5) 0.5605(3) 0.0971(3)
C42 C 1.1511(5) 0.2694(4) 0.5207(3)
H33 H 1.2006 0.2850 0.4882
H34 H 1.1957 0.2322 0.5545
O16 O 1.0334(4) 0.3940(4) 0.5612(3)
C43 C 0.4166(5) 0.3417(4) 0.3499(3)
H35 H 0.4922 0.3755 0.3418
H36 H 0.4191 0.3496 0.3973
H37 H 0.3527 0.3760 0.3275
C44 C 0.1573(5) 0.0926(4) 0.0607(2)
H38 H 0.1072 0.0259 0.0662
H39 H 0.1947 0.0774 0.0230
C45 C 0.4591(5) -0.3054(4) 0.3595(3)
H40 H 0.4144 -0.3242 0.3930
H41 H 0.5418 -0.2784 0.3806
H42 H 0.4548 -0.3689 0.3284
C46 C 1.0577(4) -0.1115(4) 0.3336(3)
H43 H 1.0426 -0.1894 0.3326
H44 H 1.1395 -0.0840 0.3564
H45 H 1.0453 -0.0929 0.2885
C47 C 1.0329(6) 0.7644(5) 0.1450(3)
H46 H 1.0976 0.7266 0.1379
H47 H 1.0655 0.8326 0.1724
H48 H 0.9880 0.7777 0.1025
C48 C 0.7455(5) 0.1274(4) 0.1031(2)
H49 H 0.7964 0.1781 0.0840
H50 H 0.6679 0.1497 0.0999
H51 H 0.7361 0.0559 0.0790
C49 C 1.1286(6) 0.3740(4) 0.5530(3)
C50 C 0.7042(5) -0.0052(4) 0.5110(3)
H52 H 0.7756 -0.0245 0.5373
H53 H 0.6603 -0.0676 0.4808
H54 H 0.6543 0.0185 0.5402
C51 C 1.1068(5) 0.4797(5) 0.3247(3)
H55 H 1.0842 0.5112 0.3639
H56 H 1.1187 0.5347 0.2956
H57 H 1.1803 0.4511 0.3377
C52 C 0.0475(6) 0.3586(5) 0.0720(4)
H58 H 0.0504 0.3811 0.0287
H59 H 0.0790 0.4196 0.1059
H60 H -0.0346 0.3318 0.0736
C53 C 0.5625(7) -0.2882(5) -0.0384(3)
H61 H 0.6215 -0.3325 -0.0465
H62 H 0.5517 -0.2397 -0.0721
H63 H 0.4872 -0.3343 -0.0399
C54 C 0.2810(5) 0.1625(4) 0.3416(3)
H64 H 0.2123 0.1919 0.3201
H65 H 0.2893 0.1740 0.3893
H66 H 0.2701 0.0857 0.3271
C55 C 0.7804(6) 0.1952(5) 0.5122(3)
H67 H 0.8488 0.1906 0.5468
H68 H 0.7159 0.2143 0.5322
H69 H 0.8026 0.2499 0.4847
C56 C 1.2228(7) 0.5490(6) 0.6086(5)
H70 H 1.1705 0.5866 0.5796
H71 H 1.3019 0.5921 0.6215
H72 H 1.1913 0.5373 0.6479
loop_
_geom_bond_atom_site_label_1
_geom_bond_atom_site_label_2
_geom_bond_site_symmetry_1
_geom_bond_site_symmetry_2
O1 C3 1_555 1_555
O2 C22 1_555 1_555
O3 C27 1_555 1_555
O4 C23 1_555 1_555
O5 C11 1_555 1_555
O6 C31 1_555 1_555
O7 C16 1_555 1_555
C1 H1 1_555 1_555
C2 H2 1_555 1_555
C3 C5 1_555 1_555
C4 H3 1_555 1_555
C5 C2 1_555 1_555
C6 C5 1_555 1_555
H4 C6 1_555 1_555
C7 C6 1_555 1_555
C8 C1 1_555 1_555
C9 H5 1_555 1_555
C10 H6 1_555 1_555
O8 C34 1_555 1_555
C11 C8 1_555 1_555
C12 C9 1_555 1_555
C13 C2 1_555 1_555
O9 C32 1_555 1_555
O10 C19 1_555 1_555
C14 C4 1_555 1_555
C15 C10 1_555 1_555
C16 C12 1_555 1_555
C17 C7 1_555 1_555
H7 C17 1_555 1_555
O11 C36 1_555 1_555
C18 C3 1_555 1_555
H8 C18 1_555 1_555
O12 C34 1_555 1_555
C19 C14 1_555 1_555
C20 C16 1_555 1_555
H9 C20 1_555 1_555
C21 C11 1_555 1_555
H10 C21 1_555 1_555
C22 C7 1_555 1_555
C23 C13 1_555 1_555
C24 C1 1_555 1_555
C25 C4 1_555 1_555
H11 C25 1_555 1_555
C26 C13 1_555 1_555
H12 C26 1_555 1_555
O13 C36 1_555 1_555
C27 C21 1_555 1_555
C28 C6 1_555 1_555
H13 C28 1_555 1_555
C29 C9 1_555 1_555
H14 C29 1_555 1_555
C30 O1 1_555 1_555
H15 C30 1_555 1_555
H16 C30 1_555 1_555
C31 C15 1_555 1_555
C32 C35 1_555 1_555
C33 C19 1_555 1_555
H17 C33 1_555 1_555
C34 C44 1_555 1_555
C35 O5 1_555 1_555
H18 C35 1_555 1_555
H19 C35 1_555 1_555
C36 C30 1_555 1_555
C37 C26 1_555 1_555
H20 C37 1_555 1_555
C38 O3 1_555 1_555
H21 C38 1_555 1_555
H22 C38 1_555 1_555
H23 C38 1_555 1_555
C39 O2 1_555 1_555
H24 C39 1_555 1_555
H25 C39 1_555 1_555
H26 C39 1_555 1_555
C40 C28 1_555 1_555
H27 C40 1_555 1_555
H28 C40 1_555 1_555
H29 C40 1_555 1_555
O14 C49 1_555 1_555
C41 C25 1_555 1_555
H30 C41 1_555 1_555
H31 C41 1_555 1_555
H32 C41 1_555 1_555
O15 C32 1_555 1_555
C42 O6 1_555 1_555
H33 C42 1_555 1_555
H34 C42 1_555 1_555
O16 C49 1_555 1_555
C43 C29 1_555 1_555
H35 C43 1_555 1_555
H36 C43 1_555 1_555
H37 C43 1_555 1_555
C44 O7 1_555 1_555
H38 C44 1_555 1_555
H39 C44 1_555 1_555
C45 C28 1_555 1_555
H40 C45 1_555 1_555
H41 C45 1_555 1_555
H42 C45 1_555 1_555
C46 O4 1_555 1_555
H43 C46 1_555 1_555
H44 C46 1_555 1_555
H45 C46 1_555 1_555
C47 O9 1_555 1_555
H46 C47 1_555 1_555
H47 C47 1_555 1_555
H48 C47 1_555 1_555
C48 C25 1_555 1_555
H49 C48 1_555 1_555
H50 C48 1_555 1_555
H51 C48 1_555 1_555
C49 C42 1_555 1_555
C50 C37 1_555 1_555
H52 C50 1_555 1_555
H53 C50 1_555 1_555
H54 C50 1_555 1_555
C51 O10 1_555 1_555
H55 C51 1_555 1_555
H56 C51 1_555 1_555
H57 C51 1_555 1_555
C52 O12 1_555 1_555
H58 C52 1_555 1_555
H59 C52 1_555 1_555
H60 C52 1_555 1_555
C53 O11 1_555 1_555
H61 C53 1_555 1_555
H62 C53 1_555 1_555
H63 C53 1_555 1_555
C54 C29 1_555 1_555
H64 C54 1_555 1_555
H65 C54 1_555 1_555
H66 C54 1_555 1_555
C55 C37 1_555 1_555
H67 C55 1_555 1_555
H68 C55 1_555 1_555
H69 C55 1_555 1_555
C56 O14 1_555 1_555
H70 C56 1_555 1_555
H71 C56 1_555 1_555
H72 C56 1_555 1_555
C4 C8 1_555 1_555
C9 C24 1_555 1_555
C10 C14 1_555 1_555
C12 C17 1_555 1_555
C15 C26 1_555 1_555
C18 C23 1_555 1_555
C20 C22 1_555 1_555
C24 C27 1_555 1_555
C31 C33 1_555 1_555

#END
