
#######################################################################
#
#                 Cambridge Crystallographic Data Centre
#                                CCDC 
#
#######################################################################
#
# If this CIF has been generated from an entry in the Cambridge 
# Structural Database, then it will include bibliographic, chemical, 
# crystal, experimental, refinement or atomic coordinate data resulting 
# from the CCDC's data processing and validation procedures.
#
#######################################################################

data_XOVGOG
_chemical_name_common            
'4,10,16,22-tetrakis(2-((2-((2-Hydroxybenzylidene)amino)ethyl)amino)-2-oxoethoxy)-6,12,18,24-tetramethoxy-C-pentylcalix(4)resorcinarene unknown solvate'
_chemical_formula_moiety         'C96 H120 N8 O16'
_chemical_name_systematic        
'2,8,14,20-Tetra-n-pentyl-4,10,16,22-tetrakis(2-((2-((2-hydroxybenzylidene)amino)ethyl)amino)-2-oxoethoxy)-6,12,18,24-tetramethoxycalix(4)arene unknown solvate'
_symmetry_cell_setting           triclinic
_symmetry_space_group_name_H-M   'P -1'
_symmetry_Int_Tables_number      2
_space_group_name_Hall           '-P 1'
loop_
_symmetry_equiv_pos_site_id
_symmetry_equiv_pos_as_xyz
1 x,y,z
2 -x,-y,-z
_cell_length_a                   16.03(3)
_cell_length_b                   17.95(3)
_cell_length_c                   33.14(6)
_cell_angle_alpha                98.20(2)
_cell_angle_beta                 96.84(2)
_cell_angle_gamma                98.93(2)
_cell_volume                     9225.98
_cell_formula_units_Z            4
loop_
_atom_site_label
_atom_site_type_symbol
_atom_site_fract_x
_atom_site_fract_y
_atom_site_fract_z
C1 C 0.6197(2) 0.0787(2) 1.06294(8)
H1 H 0.6745 0.0639 1.0680
H2 H 0.5762 0.0390 1.0678
H3 H 0.6187 0.1252 1.0811
C2 C 0.6597(2) 0.14072(17) 1.00624(9)
C3 C 0.72574(19) 0.18937(17) 1.03206(9)
H4 H 0.7324 0.1904 1.0604
C4 C 0.7811(2) 0.23608(18) 1.01424(9)
C5 C 0.76985(19) 0.23954(17) 0.97348(9)
C6 C 0.70207(18) 0.19049(16) 0.94945(9)
H5 H 0.6931 0.1921 0.9214
C7 C 0.64758(19) 0.13978(17) 0.96488(8)
C8 C 0.8685(2) 0.28309(19) 1.07815(9)
H6 H 0.8738 0.2313 1.0817
H7 H 0.8226 0.2975 1.0925
C9 C 0.9508(2) 0.3365(2) 1.09609(10)
C10 C 1.0680(2) 0.43054(19) 1.08727(10)
H8 H 1.0976 0.4409 1.0642
H9 H 1.1042 0.4067 1.1052
C11 C 1.0543(2) 0.5048(2) 1.11063(10)
H10 H 1.0231 0.4946 1.1331
H11 H 1.1092 0.5360 1.1223
C12 C 0.9484(2) 0.5755(2) 1.09797(11)
H12 H 0.9352 0.5697 1.1241
C13 C 0.9010(2) 0.6178(2) 1.07341(11)
C14 C 0.8359(2) 0.6511(2) 1.08973(12)
H13 H 0.8265 0.6475 1.1166
C15 C 0.7894(3) 0.6866(2) 1.06746(11)
H14 H 0.7451 0.7061 1.0787
C16 C 0.8010(2) 0.6973(2) 1.02846(12)
H15 H 0.7664 0.7242 1.0137
C17 C 0.8656(2) 0.6672(2) 1.01158(12)
H16 H 0.8767 0.6739 0.9853
C18 C 0.9120(2) 0.6276(2) 1.03436(11)
C19 C 0.83254(19) 0.29117(17) 0.95322(9)
H17 H 0.8707 0.3259 0.9757
C20 C 0.8868(2) 0.24237(18) 0.93169(9)
H18 H 0.9267 0.2745 0.9189
H19 H 0.8505 0.2056 0.9099
C21 C 0.9365(2) 0.19966(19) 0.95957(9)
H20 H 0.9682 0.2355 0.9831
H21 H 0.8969 0.1628 0.9698
C22 C 0.9971(2) 0.1590(2) 0.93786(11)
H22 H 1.0360 0.1955 0.9270
H23 H 0.9654 0.1219 0.9148
C23 C 1.0487(3) 0.1178(3) 0.96718(12)
H24 H 1.0098 0.0824 0.9787
H25 H 1.0819 0.1550 0.9897
C24 C 1.1124(3) 0.0714(3) 0.94271(15)
H26 H 1.0807 0.0402 0.9180
H27 H 1.1368 0.0394 0.9601
H28 H 1.1572 0.1071 0.9357
C25 C 0.7455(2) 0.4701(2) 1.01083(10)
H29 H 0.6886 0.4724 0.9987
H30 H 0.7826 0.5171 1.0099
H31 H 0.7452 0.4627 1.0389
C26 C 0.78752(18) 0.34110(17) 0.92775(8)
C27 C 0.75818(19) 0.40297(18) 0.94867(9)
C28 C 0.71962(19) 0.44916(18) 0.92660(9)
H32 H 0.7007 0.4908 0.9404
C29 C 0.70769(19) 0.43620(17) 0.88436(9)
C30 C 0.73760(18) 0.37656(17) 0.86213(8)
C31 C 0.77700(18) 0.32851(17) 0.88498(8)
H33 H 0.7966 0.2872 0.8712
C32 C 0.6249(2) 0.53628(19) 0.88103(10)
H34 H 0.6652 0.5795 0.8968
H35 H 0.5918 0.5123 0.8999
C33 C 0.5683(2) 0.5624(2) 0.85039(10)
C34 C 0.5119(2) 0.5542(2) 0.77741(10)
H36 H 0.5377 0.5521 0.7523
H37 H 0.4965 0.6042 0.7839
C35 C 0.4335(2) 0.4917(2) 0.77217(10)
H38 H 0.4494 0.4416 0.7668
H39 H 0.4064 0.4951 0.7969
C36 C 0.3624(2) 0.4522(2) 0.70462(10)
H40 H 0.3900 0.4103 0.7047
C37 C 0.3079(2) 0.45720(19) 0.66926(10)
C38 C 0.2623(2) 0.5161(2) 0.66870(11)
C39 C 0.2070(2) 0.5188(2) 0.63466(11)
H41 H 0.1735 0.5567 0.6351
C40 C 0.2007(2) 0.4667(2) 0.60036(11)
H42 H 0.1649 0.4706 0.5768
C41 C 0.2450(2) 0.4098(2) 0.59978(11)
H43 H 0.2390 0.3732 0.5763
C42 C 0.3009(2) 0.4058(2) 0.63498(10)
H44 H 0.3334 0.3672 0.6345
C43 C 0.72787(18) 0.36679(17) 0.81668(8)
H45 H 0.7367 0.4178 0.8089
C44 C 0.79502(19) 0.32261(18) 0.79857(8)
H46 H 0.8506 0.3424 0.8148
H47 H 0.7803 0.2691 0.8010
C45 C 0.8011(2) 0.3287(2) 0.75337(10)
H48 H 0.7441 0.3150 0.7379
H49 H 0.8223 0.3815 0.7515
C46 C 0.8572(2) 0.2795(2) 0.73361(12)
H50 H 0.8755 0.3011 0.7102
H51 H 0.9079 0.2815 0.7532
C47 C 0.8198(3) 0.2029(3) 0.72008(14)
H52 H 0.7626 0.1995 0.7057
H53 H 0.8161 0.1762 0.7434
C48 C 0.8764(3) 0.1659(3) 0.69047(14)
H54 H 0.8572 0.1717 0.6627
H55 H 0.8720 0.1126 0.6922
H56 H 0.9348 0.1908 0.6983
C49 C 0.6245(2) 0.43159(16) 0.71043(8)
H57 H 0.6299 0.3866 0.6922
H58 H 0.6657 0.4739 0.7065
H59 H 0.5681 0.4427 0.7046
C50 C 0.60304(18) 0.34808(16) 0.76025(8)
C51 C 0.53384(17) 0.30439(15) 0.73592(8)
H60 H 0.5095 0.3202 0.7124
C52 C 0.49991(17) 0.23528(15) 0.74693(8)
C53 C 0.53394(17) 0.21044(15) 0.78106(8)
C54 C 0.60597(18) 0.25572(16) 0.80398(8)
H61 H 0.6311 0.2389 0.8270
C55 C 0.64296(18) 0.32489(16) 0.79465(8)
C56 C 0.40439(17) 0.20598(15) 0.68412(7)
H62 H 0.4519 0.2097 0.6685
H63 H 0.3860 0.2552 0.6876
C57 C 0.33385(18) 0.14721(16) 0.66144(8)
C58 C 0.24105(16) 0.02600(16) 0.65766(8)
H64 H 0.2444 -0.0194 0.6701
H65 H 0.2480 0.0136 0.6289
C59 C 0.15458(18) 0.04705(16) 0.66008(8)
H66 H 0.1513 0.0932 0.6483
H67 H 0.1113 0.0064 0.6440
C60 C 0.11263(19) 0.12079(18) 0.71484(9)
H68 H 0.1049 0.1564 0.6975
C61 C 0.0962(2) 0.13450(18) 0.75641(9)
C62 C 0.0669(2) 0.2006(2) 0.77051(10)
H69 H 0.0573 0.2351 0.7528
C63 C 0.0518(2) 0.2158(2) 0.81120(10)
H70 H 0.0341 0.2610 0.8210
C64 C 0.0632(2) 0.1638(2) 0.83616(10)
H71 H 0.0516 0.1731 0.8631
C65 C 0.0911(2) 0.0983(2) 0.82288(10)
H72 H 0.0985 0.0632 0.8406
C66 C 0.1083(2) 0.08401(18) 0.78348(9)
C67 C 0.50231(18) 0.13175(16) 0.79117(8)
H73 H 0.4464 0.1128 0.7744
C68 C 0.55933(18) 0.07641(16) 0.77883(8)
H74 H 0.5358 0.0269 0.7850
H75 H 0.6147 0.0931 0.7956
C69 C 0.57205(19) 0.06663(17) 0.73402(8)
H76 H 0.5167 0.0561 0.7170
H77 H 0.6028 0.1142 0.7285
C70 C 0.6198(2) 0.00400(19) 0.72224(9)
H78 H 0.6742 0.0138 0.7401
H79 H 0.5880 -0.0436 0.7271
C71 C 0.6357(2) -0.00550(19) 0.67911(10)
H80 H 0.6703 0.0410 0.6745
H81 H 0.5816 -0.0129 0.6612
C72 C 0.6802(2) -0.0721(2) 0.66757(12)
H82 H 0.7275 -0.0709 0.6885
H83 H 0.7006 -0.0686 0.6417
H84 H 0.6408 -0.1191 0.6652
C73 C 0.29315(19) 0.21257(18) 0.82965(10)
H85 H 0.2579 0.1753 0.8412
H86 H 0.2612 0.2241 0.8056
H87 H 0.3112 0.2583 0.8496
C74 C 0.41710(19) 0.15927(17) 0.84784(8)
C75 C 0.4005(2) 0.15854(17) 0.88835(8)
H88 H 0.3511 0.1741 0.8959
C76 C 0.4533(2) 0.13630(17) 0.91617(8)
C77 C 0.52493(19) 0.10960(16) 0.90565(8)
C78 C 0.54080(19) 0.10977(16) 0.86537(8)
H89 H 0.5892 0.0921 0.8578
C79 C 0.48838(18) 0.13490(15) 0.83599(8)
C80 C 0.3760(2) 0.1654(2) 0.97071(10)
H90 H 0.3284 0.1242 0.9694
H91 H 0.3580 0.1997 0.9526
C81 C 0.3973(2) 0.2079(2) 1.01377(11)
C82 C 0.5191(3) 0.2703(2) 1.06424(12)
H92 H 0.5535 0.2476 1.0836
H93 H 0.4775 0.2929 1.0787
C83 C 0.5758(3) 0.3317(2) 1.04807(12)
H94 H 0.5979 0.3740 1.0704
H95 H 0.6240 0.3111 1.0388
C84 C 0.5466(2) 0.3394(2) 0.97840(11)
H96 H 0.5862 0.3073 0.9742
C85 C 0.5022(2) 0.3656(2) 0.94374(11)
C86 C 0.4384(2) 0.4118(2) 0.94693(12)
C87 C 0.3966(2) 0.4343(2) 0.91459(11)
H97 H 0.3557 0.4652 0.9185
C88 C 0.4154(2) 0.4104(2) 0.87365(12)
H98 H 0.3882 0.4264 0.8509
C89 C 0.4771(2) 0.3615(2) 0.86937(11)
H99 H 0.4895 0.3428 0.8435
C90 C 0.5172(2) 0.3431(2) 0.90418(11)
H100 H 0.5586 0.3125 0.9009
C91 C 0.58265(17) 0.07942(15) 0.93676(8)
H101 H 0.5457 0.0547 0.9543
C92 C 0.62742(18) 0.01924(14) 0.91713(8)
H102 H 0.6706 0.0430 0.9026
H103 H 0.5865 -0.0174 0.8971
C93 C 0.66924(18) -0.02246(16) 0.94846(9)
H104 H 0.6258 -0.0533 0.9600
H105 H 0.7044 0.0142 0.9707
C94 C 0.72412(17) -0.0734(2) 0.92720(13)
H106 H 0.7024 -0.0876 0.8981
H107 H 0.7238 -0.1197 0.9392
C95 C 0.81535(18) -0.02708(18) 0.93346(16)
H108 H 0.8298 0.0066 0.9598
H109 H 0.8258 0.0015 0.9113
C96 C 0.8603(3) -0.0982(2) 0.9318(2)
H110 H 0.8186 -0.1433 0.9306
H111 H 0.9016 -0.0922 0.9560
H112 H 0.8884 -0.1028 0.9078
N1 N 0.98694(15) 0.37685(14) 1.07164(7)
H113 H 0.9641 0.3726 1.0464
N2 N 1.00817(18) 0.54575(16) 1.08463(8)
N3 N 0.57227(18) 0.53920(16) 0.81206(8)
H114 H 0.6118 0.5138 0.8062
N4 N 0.37605(19) 0.50408(17) 0.73737(9)
N5 N 0.30949(14) 0.08561(13) 0.67784(6)
H115 H 0.3356 0.0813 0.7014
N6 N 0.13796(14) 0.05940(13) 0.70177(7)
N7 N 0.4739(2) 0.20976(18) 1.02942(9)
H116 H 0.5008 0.1750 1.0197
N8 N 0.5310(2) 0.36037(18) 1.01404(10)
O1 O 0.60418(14) 0.09034(13) 1.02170(6)
O2 O 0.84982(13) 0.28636(12) 1.03692(5)
O3 O 0.97482(16) 0.33967(15) 1.13312(7)
O4 O 0.97540(14) 0.59507(13) 1.01703(6)
H117 H 0.9891 0.6171 0.9982
O5 O 0.77407(15) 0.41001(13) 0.98914(6)
O6 O 0.67031(14) 0.48200(12) 0.86047(6)
O7 O 0.5206(2) 0.60423(17) 0.86121(8)
O8 O 0.26565(18) 0.57172(16) 0.70181(8)
H118 H 0.3143 0.5821 0.7145
O9 O 0.63933(13) 0.41898(10) 0.75203(5)
O10 O 0.43104(11) 0.18762(10) 0.72312(5)
O11 O 0.29859(13) 0.15732(12) 0.62866(5)
O12 O 0.13636(12) 0.02034(11) 0.77154(6)
H119 H 0.1391 0.0157 0.7468
O13 O 0.36524(12) 0.18326(12) 0.81859(6)
O14 O 0.44177(14) 0.13581(13) 0.95671(6)
O15 O 0.3464(2) 0.24323(19) 1.02915(8)
O16 O 0.42003(19) 0.43335(17) 0.98581(9)
H120 H 0.4565 0.4236 1.0028
C97 C 0.1936(2) -0.0879(2) 0.16581(12)
H121 H 0.2385 -0.0879 0.1878
H122 H 0.2173 -0.0842 0.1407
H123 H 0.1530 -0.1345 0.1623
C98 C 0.1505(2) -0.0221(2) 0.17601(10)
H124 H 0.0993 -0.0280 0.1562
H125 H 0.1879 0.0240 0.1729
C99 C 0.1263(2) -0.01170(19) 0.21857(9)
H126 H 0.0910 -0.0588 0.2220
H127 H 0.1780 -0.0042 0.2382
C100 C 0.08117(19) 0.05052(17) 0.22927(8)
H128 H 0.0261 0.0409 0.2119
H129 H 0.1134 0.0976 0.2240
C101 C 0.06779(18) 0.05995(16) 0.27436(8)
H130 H 0.1232 0.0733 0.2914
H131 H 0.0405 0.0111 0.2799
C102 C 0.01374(17) 0.12055(14) 0.28738(7)
H132 H -0.0431 0.1045 0.2711
C103 C 0.00237(17) 0.12498(15) 0.33231(8)
C104 C -0.06264(17) 0.15468(14) 0.34766(8)
C105 C -0.07522(18) 0.15657(15) 0.38762(8)
H133 H -0.1210 0.1766 0.3968
C106 C -0.02035(17) 0.12889(15) 0.41453(8)
C107 C 0.04576(17) 0.09761(15) 0.40180(8)
C108 C 0.05603(17) 0.09758(14) 0.36104(7)
H134 H 0.1021 0.0779 0.3520
C109 C -0.18731(18) 0.20646(18) 0.33147(9)
H135 H -0.2232 0.1657 0.3403
H136 H -0.2181 0.2228 0.3086
H137 H -0.1705 0.2486 0.3538
C110 C -0.08610(18) 0.17404(17) 0.47117(8)
H138 H -0.1435 0.1460 0.4618
H139 H -0.0812 0.2224 0.4610
C111 C -0.0698(2) 0.18869(17) 0.51787(9)
C112 C 0.0169(2) 0.17521(18) 0.58079(9)
H140 H 0.0472 0.1359 0.5892
H141 H -0.0332 0.1746 0.5946
C113 C 0.0744(2) 0.25313(19) 0.59252(9)
H142 H 0.1199 0.2560 0.5757
H143 H 0.0416 0.2929 0.5876
C114 C 0.0855(2) 0.31677(19) 0.65940(10)
H144 H 0.0430 0.3415 0.6488
C115 C 0.1223(2) 0.33719(19) 0.70201(10)
C116 C 0.0825(3) 0.3853(2) 0.72774(11)
H145 H 0.0306 0.3985 0.7184
C117 C 0.1244(3) 0.4131(2) 0.76870(11)
H146 H 0.0987 0.4455 0.7858
C118 C 0.1975(3) 0.3957(2) 0.78377(11)
H147 H 0.2242 0.4167 0.8103
C119 C 0.2326(2) 0.3453(2) 0.75871(10)
H148 H 0.2817 0.3289 0.7693
C120 C 0.1962(2) 0.3175(2) 0.71734(10)
C121 C 0.10437(17) 0.06322(15) 0.43079(8)
H149 H 0.0680 0.0372 0.4482
C122 C 0.14856(18) 0.00466(16) 0.41017(8)
H150 H 0.1841 0.0288 0.3923
H151 H 0.1056 -0.0345 0.3927
C123 C 0.2038(2) -0.03438(17) 0.43782(9)
H152 H 0.2434 0.0048 0.4571
H153 H 0.1674 -0.0629 0.4538
C124 C 0.2531(2) -0.0867(2) 0.41678(11)
H154 H 0.2126 -0.1315 0.4028
H155 H 0.2766 -0.0617 0.3955
C125 C 0.3215(3) -0.1136(3) 0.43886(14)
H156 H 0.2992 -0.1390 0.4602
H157 H 0.3636 -0.0696 0.4524
C126 C 0.3726(4) -0.1750(3) 0.41038(17)
H158 H 0.3334 -0.2036 0.3872
H159 H 0.3931 -0.2095 0.4272
H160 H 0.4198 -0.1463 0.4008
C127 C 0.16773(17) 0.12408(15) 0.45927(8)
C128 C 0.22180(17) 0.17626(15) 0.44288(8)
H161 H 0.2125 0.1765 0.4147
C129 C 0.28902(18) 0.22809(16) 0.46658(8)
C130 C 0.30135(18) 0.22621(16) 0.50882(8)
C131 C 0.24880(17) 0.17504(15) 0.52627(8)
H162 H 0.2577 0.1745 0.5545
C132 C 0.18208(18) 0.12423(15) 0.50077(8)
C133 C 0.1620(2) 0.04226(17) 0.55038(9)
H163 H 0.2124 0.0231 0.5439
H164 H 0.1206 0.0011 0.5553
H165 H 0.1764 0.0807 0.5746
C134 C 0.39073(19) 0.26638(16) 0.57225(8)
H166 H 0.4117 0.2185 0.5720
H167 H 0.3413 0.2636 0.5866
C135 C 0.4601(2) 0.33213(18) 0.59476(9)
C136 C 0.55467(18) 0.44540(17) 0.59086(9)
H168 H 0.5878 0.4597 0.5696
H169 H 0.5922 0.4278 0.6112
C137 C 0.5266(2) 0.51384(17) 0.61075(9)
H170 H 0.4888 0.4991 0.6301
H171 H 0.5761 0.5487 0.6263
C138 C 0.4191(2) 0.58185(19) 0.58877(10)
H172 H 0.3978 0.5752 0.6132
C139 C 0.3759(2) 0.6239(2) 0.56204(11)
C140 C 0.3046(2) 0.6554(2) 0.57200(12)
H173 H 0.2872 0.6514 0.5975
C141 C 0.2612(3) 0.6908(2) 0.54618(12)
H174 H 0.2130 0.7096 0.5531
C142 C 0.2885(2) 0.6990(2) 0.50941(12)
H175 H 0.2585 0.7245 0.4916
C143 C 0.3576(2) 0.6716(2) 0.49776(11)
H176 H 0.3758 0.6788 0.4727
C144 C 0.4005(2) 0.63231(19) 0.52467(11)
C145 C 0.35281(18) 0.27707(16) 0.44662(8)
H177 H 0.3890 0.3135 0.4691
C146 C 0.41131(19) 0.22788(18) 0.42710(9)
H178 H 0.4542 0.2606 0.4162
H179 H 0.3779 0.1920 0.4040
C147 C 0.4565(2) 0.18302(19) 0.45613(9)
H180 H 0.4883 0.2182 0.4799
H181 H 0.4142 0.1477 0.4658
C148 C 0.5156(2) 0.1399(2) 0.43564(11)
H182 H 0.4844 0.1073 0.4109
H183 H 0.5598 0.1757 0.4275
C149 C 0.5554(3) 0.0929(3) 0.46212(12)
H184 H 0.5112 0.0553 0.4689
H185 H 0.5835 0.1252 0.4876
C150 C 0.6204(3) 0.0515(3) 0.44264(17)
H186 H 0.5915 0.0048 0.4255
H187 H 0.6603 0.0401 0.4639
H188 H 0.6505 0.0835 0.4263
C151 C 0.31056(18) 0.32447(16) 0.41881(8)
C152 C 0.28207(19) 0.38820(18) 0.43427(9)
C153 C 0.25061(18) 0.43458(17) 0.41046(9)
H189 H 0.2329 0.4787 0.4221
C154 C 0.24508(19) 0.41548(17) 0.36830(9)
C155 C 0.27044(18) 0.35183(16) 0.34990(8)
C156 C 0.30299(17) 0.30621(16) 0.37599(8)
H190 H 0.3204 0.2618 0.3646
C157 C 0.2596(2) 0.4679(2) 0.49404(11)
H191 H 0.2013 0.4647 0.4822
H192 H 0.2935 0.5131 0.4883
H193 H 0.2630 0.4699 0.5233
C158 C 0.1910(2) 0.53021(19) 0.35424(11)
H194 H 0.2198 0.5723 0.3429
H195 H 0.2048 0.5424 0.3840
C159 C 0.0967(2) 0.5238(2) 0.34270(11)
C160 C -0.0269(2) 0.43880(18) 0.30160(10)
H196 H -0.0404 0.4319 0.2718
H197 H -0.0562 0.4782 0.3134
C161 C -0.0564(2) 0.36340(18) 0.31697(9)
H198 H -0.1163 0.3448 0.3066
H199 H -0.0241 0.3252 0.3066
C162 C 0.0114(2) 0.34301(17) 0.37946(9)
H200 H 0.0432 0.3147 0.3636
C163 C 0.0264(2) 0.34866(17) 0.42207(10)
C164 C -0.0164(2) 0.39307(19) 0.44791(10)
C165 C -0.0051(2) 0.3974(2) 0.48980(10)
H201 H -0.0360 0.4261 0.5061
C166 C 0.0546(2) 0.35715(18) 0.50756(10)
H202 H 0.0653 0.3601 0.5360
C167 C 0.0957(2) 0.31476(18) 0.48295(9)
H203 H 0.1340 0.2870 0.4945
C168 C 0.0825(2) 0.31145(18) 0.44121(9)
H204 H 0.1135 0.2823 0.4252
C169 C 0.26327(18) 0.33275(17) 0.30364(8)
H205 H 0.2787 0.3812 0.2937
C170 C 0.32060(19) 0.28222(19) 0.28808(8)
H206 H 0.3044 0.2326 0.2960
H207 H 0.3782 0.3029 0.3017
C171 C 0.3217(2) 0.2707(2) 0.24205(10)
H208 H 0.2634 0.2532 0.2285
H209 H 0.3413 0.3199 0.2344
C172 C 0.3742(3) 0.2171(3) 0.22596(12)
H210 H 0.4328 0.2370 0.2384
H211 H 0.3573 0.1694 0.2358
C173 C 0.3737(3) 0.1997(3) 0.18343(14)
H212 H 0.3166 0.1737 0.1715
H213 H 0.3829 0.2477 0.1731
C174 C 0.4278(4) 0.1580(4) 0.16862(17)
H214 H 0.4851 0.1852 0.1770
H215 H 0.4158 0.1480 0.1391
H216 H 0.4216 0.1105 0.1790
C175 C 0.17101(18) 0.30090(16) 0.28478(8)
C176 C 0.13053(19) 0.32711(17) 0.25157(8)
C177 C 0.05428(18) 0.29010(16) 0.23087(8)
H217 H 0.0282 0.3088 0.2088
C178 C 0.01513(17) 0.22382(16) 0.24290(8)
C179 C 0.05131(17) 0.19605(15) 0.27674(7)
C180 C 0.12833(17) 0.23535(16) 0.29603(8)
H218 H 0.1543 0.2171 0.3183
C181 C 0.1389(2) 0.41968(19) 0.20674(9)
H219 H 0.1329 0.3811 0.1828
H220 H 0.1756 0.4649 0.2028
H221 H 0.0839 0.4315 0.2109
C182 C -0.09374(18) 0.20783(17) 0.18597(8)
H222 H -0.0507 0.2129 0.1678
H223 H -0.1091 0.2577 0.1933
C183 C -0.17049(19) 0.15281(18) 0.16410(9)
C184 C -0.26171(18) 0.03009(17) 0.15921(9)
H224 H -0.2606 -0.0150 0.1722
H225 H -0.2551 0.0159 0.1306
C185 C -0.34548(19) 0.05338(19) 0.16095(8)
H226 H -0.3478 0.0984 0.1481
H227 H -0.3902 0.0127 0.1461
C186 C -0.3682(2) 0.1359(2) 0.21595(10)
H228 H -0.3654 0.1714 0.1980
C187 C -0.3843(2) 0.1596(2) 0.25865(11)
C188 C -0.3947(2) 0.2341(3) 0.27072(12)
H229 H -0.3903 0.2689 0.2525
C189 C -0.4120(3) 0.2570(3) 0.31088(12)
H230 H -0.4195 0.3063 0.3207
C190 C -0.4168(2) 0.1984(3) 0.33457(12)
H231 H -0.4292 0.2120 0.3610
C191 C -0.4063(2) 0.1254(3) 0.32517(11)
H232 H -0.4111 0.0911 0.3437
C192 C -0.3877(2) 0.1048(3) 0.28514(11)
N9 N -0.00827(16) 0.16046(15) 0.53687(7)
H233 H 0.0186 0.1315 0.5222
N10 N 0.11096(17) 0.26510(15) 0.63634(8)
N11 N 0.48809(14) 0.38348(13) 0.57274(6)
H234 H 0.4662 0.3797 0.5474
N12 N 0.48292(15) 0.55342(14) 0.58193(7)
N13 N 0.06393(17) 0.46117(16) 0.31389(8)
H235 H 0.0979 0.4344 0.3028
N14 N -0.04402(18) 0.37502(14) 0.36153(7)
N15 N -0.19039(15) 0.08768(13) 0.17878(7)
H236 H -0.1597 0.0801 0.2004
N16 N -0.35846(16) 0.07003(15) 0.20373(7)
O17 O -0.11484(11) 0.18072(10) 0.31945(5)
O18 O -0.02731(11) 0.13212(10) 0.45575(5)
O19 O -0.11680(15) 0.22677(14) 0.53591(7)
O20 O 0.23522(15) 0.27251(14) 0.69373(8)
H237 H 0.2064 0.2295 0.6881
O21 O 0.12731(11) 0.07471(10) 0.51673(5)
O22 O 0.36725(12) 0.27708(11) 0.53209(5)
O23 O 0.48375(15) 0.33374(13) 0.63051(6)
O24 O 0.46798(12) 0.60300(11) 0.51227(6)
H238 H 0.4866 0.5789 0.5295
O25 O 0.29122(15) 0.40209(13) 0.47662(6)
O26 O 0.22280(14) 0.46323(12) 0.34040(7)
O27 O 0.05798(16) 0.57049(14) 0.35570(9)
O28 O -0.07321(17) 0.43320(14) 0.43193(7)
H239 H -0.0884 0.4159 0.4074
O29 O 0.17461(14) 0.39272(11) 0.24135(6)
O30 O -0.05967(11) 0.18269(10) 0.22214(5)
O31 O -0.20968(15) 0.16751(13) 0.13405(6)
O32 O -0.37349(15) 0.03275(15) 0.27327(7)
H240 H -0.3600 0.0289 0.2500
loop_
_geom_bond_atom_site_label_1
_geom_bond_atom_site_label_2
_geom_bond_site_symmetry_1
_geom_bond_site_symmetry_2
C1 H1 1_555 1_555
H2 C1 1_555 1_555
H3 C1 1_555 1_555
C2 C3 1_555 1_555
C3 H4 1_555 1_555
C4 C3 1_555 1_555
C5 C4 1_555 1_555
C6 C5 1_555 1_555
H5 C6 1_555 1_555
C7 C2 1_555 1_555
C8 H6 1_555 1_555
H7 C8 1_555 1_555
C9 C8 1_555 1_555
C10 H8 1_555 1_555
H9 C10 1_555 1_555
C11 C10 1_555 1_555
H10 C11 1_555 1_555
H11 C11 1_555 1_555
C12 H12 1_555 1_555
C13 C12 1_555 1_555
C14 C13 1_555 1_555
H13 C14 1_555 1_555
C15 C14 1_555 1_555
H14 C15 1_555 1_555
C16 C15 1_555 1_555
H15 C16 1_555 1_555
C17 C16 1_555 1_555
H16 C17 1_555 1_555
C18 C13 1_555 1_555
C19 C5 1_555 1_555
H17 C19 1_555 1_555
C20 C19 1_555 1_555
H18 C20 1_555 1_555
H19 C20 1_555 1_555
C21 C20 1_555 1_555
H20 C21 1_555 1_555
H21 C21 1_555 1_555
C22 C21 1_555 1_555
H22 C22 1_555 1_555
H23 C22 1_555 1_555
C23 C22 1_555 1_555
H24 C23 1_555 1_555
H25 C23 1_555 1_555
C24 C23 1_555 1_555
H26 C24 1_555 1_555
H27 C24 1_555 1_555
H28 C24 1_555 1_555
C25 H29 1_555 1_555
H30 C25 1_555 1_555
H31 C25 1_555 1_555
C26 C19 1_555 1_555
C27 C26 1_555 1_555
C28 C27 1_555 1_555
H32 C28 1_555 1_555
C29 C28 1_555 1_555
C30 C29 1_555 1_555
C31 C26 1_555 1_555
H33 C31 1_555 1_555
C32 H34 1_555 1_555
H35 C32 1_555 1_555
C33 C32 1_555 1_555
C34 H36 1_555 1_555
H37 C34 1_555 1_555
C35 C34 1_555 1_555
H38 C35 1_555 1_555
H39 C35 1_555 1_555
C36 H40 1_555 1_555
C37 C36 1_555 1_555
C38 C37 1_555 1_555
C39 C38 1_555 1_555
H41 C39 1_555 1_555
C40 C39 1_555 1_555
H42 C40 1_555 1_555
C41 C40 1_555 1_555
H43 C41 1_555 1_555
C42 C37 1_555 1_555
H44 C42 1_555 1_555
C43 C30 1_555 1_555
H45 C43 1_555 1_555
C44 C43 1_555 1_555
H46 C44 1_555 1_555
H47 C44 1_555 1_555
C45 C44 1_555 1_555
H48 C45 1_555 1_555
H49 C45 1_555 1_555
C46 C45 1_555 1_555
H50 C46 1_555 1_555
H51 C46 1_555 1_555
C47 C46 1_555 1_555
H52 C47 1_555 1_555
H53 C47 1_555 1_555
C48 C47 1_555 1_555
H54 C48 1_555 1_555
H55 C48 1_555 1_555
H56 C48 1_555 1_555
C49 H57 1_555 1_555
H58 C49 1_555 1_555
H59 C49 1_555 1_555
C50 C51 1_555 1_555
C51 H60 1_555 1_555
C52 C51 1_555 1_555
C53 C52 1_555 1_555
C54 C53 1_555 1_555
H61 C54 1_555 1_555
C55 C43 1_555 1_555
C56 H62 1_555 1_555
H63 C56 1_555 1_555
C57 C56 1_555 1_555
C58 H64 1_555 1_555
H65 C58 1_555 1_555
C59 C58 1_555 1_555
H66 C59 1_555 1_555
H67 C59 1_555 1_555
C60 H68 1_555 1_555
C61 C60 1_555 1_555
C62 C61 1_555 1_555
H69 C62 1_555 1_555
C63 C62 1_555 1_555
H70 C63 1_555 1_555
C64 C63 1_555 1_555
H71 C64 1_555 1_555
C65 C64 1_555 1_555
H72 C65 1_555 1_555
C66 C61 1_555 1_555
C67 C53 1_555 1_555
H73 C67 1_555 1_555
C68 C67 1_555 1_555
H74 C68 1_555 1_555
H75 C68 1_555 1_555
C69 C68 1_555 1_555
H76 C69 1_555 1_555
H77 C69 1_555 1_555
C70 C69 1_555 1_555
H78 C70 1_555 1_555
H79 C70 1_555 1_555
C71 C70 1_555 1_555
H80 C71 1_555 1_555
H81 C71 1_555 1_555
C72 C71 1_555 1_555
H82 C72 1_555 1_555
H83 C72 1_555 1_555
H84 C72 1_555 1_555
C73 H85 1_555 1_555
H86 C73 1_555 1_555
H87 C73 1_555 1_555
C74 C75 1_555 1_555
C75 H88 1_555 1_555
C76 C75 1_555 1_555
C77 C76 1_555 1_555
C78 C77 1_555 1_555
H89 C78 1_555 1_555
C79 C67 1_555 1_555
C80 H90 1_555 1_555
H91 C80 1_555 1_555
C81 C80 1_555 1_555
C82 H92 1_555 1_555
H93 C82 1_555 1_555
C83 C82 1_555 1_555
H94 C83 1_555 1_555
H95 C83 1_555 1_555
C84 H96 1_555 1_555
C85 C84 1_555 1_555
C86 C85 1_555 1_555
C87 C86 1_555 1_555
H97 C87 1_555 1_555
C88 C87 1_555 1_555
H98 C88 1_555 1_555
C89 C88 1_555 1_555
H99 C89 1_555 1_555
C90 C85 1_555 1_555
H100 C90 1_555 1_555
C91 C7 1_555 1_555
H101 C91 1_555 1_555
C92 C91 1_555 1_555
H102 C92 1_555 1_555
H103 C92 1_555 1_555
C93 C92 1_555 1_555
H104 C93 1_555 1_555
H105 C93 1_555 1_555
C94 C93 1_555 1_555
H106 C94 1_555 1_555
H107 C94 1_555 1_555
C95 C94 1_555 1_555
H108 C95 1_555 1_555
H109 C95 1_555 1_555
C96 C95 1_555 1_555
H110 C96 1_555 1_555
H111 C96 1_555 1_555
H112 C96 1_555 1_555
N1 C9 1_555 1_555
H113 N1 1_555 1_555
N2 C11 1_555 1_555
N3 C33 1_555 1_555
H114 N3 1_555 1_555
N4 C35 1_555 1_555
N5 C57 1_555 1_555
H115 N5 1_555 1_555
N6 C59 1_555 1_555
N7 C81 1_555 1_555
H116 N7 1_555 1_555
N8 C83 1_555 1_555
O1 C1 1_555 1_555
O2 C4 1_555 1_555
O3 C9 1_555 1_555
O4 C18 1_555 1_555
H117 O4 1_555 1_555
O5 C25 1_555 1_555
O6 C29 1_555 1_555
O7 C33 1_555 1_555
O8 C38 1_555 1_555
H118 O8 1_555 1_555
O9 C49 1_555 1_555
O10 C52 1_555 1_555
O11 C57 1_555 1_555
O12 C66 1_555 1_555
H119 O12 1_555 1_555
O13 C73 1_555 1_555
O14 C76 1_555 1_555
O15 C81 1_555 1_555
O16 C86 1_555 1_555
H120 O16 1_555 1_555
C97 H121 1_555 1_555
H122 C97 1_555 1_555
H123 C97 1_555 1_555
C98 C97 1_555 1_555
H124 C98 1_555 1_555
H125 C98 1_555 1_555
C99 C98 1_555 1_555
H126 C99 1_555 1_555
H127 C99 1_555 1_555
C100 C99 1_555 1_555
H128 C100 1_555 1_555
H129 C100 1_555 1_555
C101 C100 1_555 1_555
H130 C101 1_555 1_555
H131 C101 1_555 1_555
C102 C101 1_555 1_555
H132 C102 1_555 1_555
C103 C102 1_555 1_555
C104 C103 1_555 1_555
C105 C104 1_555 1_555
H133 C105 1_555 1_555
C106 C105 1_555 1_555
C107 C106 1_555 1_555
C108 C103 1_555 1_555
H134 C108 1_555 1_555
C109 H135 1_555 1_555
H136 C109 1_555 1_555
H137 C109 1_555 1_555
C110 H138 1_555 1_555
H139 C110 1_555 1_555
C111 C110 1_555 1_555
C112 H140 1_555 1_555
H141 C112 1_555 1_555
C113 C112 1_555 1_555
H142 C113 1_555 1_555
H143 C113 1_555 1_555
C114 H144 1_555 1_555
C115 C114 1_555 1_555
C116 C115 1_555 1_555
H145 C116 1_555 1_555
C117 C116 1_555 1_555
H146 C117 1_555 1_555
C118 C117 1_555 1_555
H147 C118 1_555 1_555
C119 C118 1_555 1_555
H148 C119 1_555 1_555
C120 C115 1_555 1_555
C121 C107 1_555 1_555
H149 C121 1_555 1_555
C122 C121 1_555 1_555
H150 C122 1_555 1_555
H151 C122 1_555 1_555
C123 C122 1_555 1_555
H152 C123 1_555 1_555
H153 C123 1_555 1_555
C124 C123 1_555 1_555
H154 C124 1_555 1_555
H155 C124 1_555 1_555
C125 C124 1_555 1_555
H156 C125 1_555 1_555
H157 C125 1_555 1_555
C126 C125 1_555 1_555
H158 C126 1_555 1_555
H159 C126 1_555 1_555
H160 C126 1_555 1_555
C127 C121 1_555 1_555
C128 C127 1_555 1_555
H161 C128 1_555 1_555
C129 C128 1_555 1_555
C130 C129 1_555 1_555
C131 C130 1_555 1_555
H162 C131 1_555 1_555
C132 C127 1_555 1_555
C133 H163 1_555 1_555
H164 C133 1_555 1_555
H165 C133 1_555 1_555
C134 H166 1_555 1_555
H167 C134 1_555 1_555
C135 C134 1_555 1_555
C136 H168 1_555 1_555
H169 C136 1_555 1_555
C137 C136 1_555 1_555
H170 C137 1_555 1_555
H171 C137 1_555 1_555
C138 H172 1_555 1_555
C139 C138 1_555 1_555
C140 C139 1_555 1_555
H173 C140 1_555 1_555
C141 C140 1_555 1_555
H174 C141 1_555 1_555
C142 C141 1_555 1_555
H175 C142 1_555 1_555
C143 C142 1_555 1_555
H176 C143 1_555 1_555
C144 C139 1_555 1_555
C145 C129 1_555 1_555
H177 C145 1_555 1_555
C146 C145 1_555 1_555
H178 C146 1_555 1_555
H179 C146 1_555 1_555
C147 C146 1_555 1_555
H180 C147 1_555 1_555
H181 C147 1_555 1_555
C148 C147 1_555 1_555
H182 C148 1_555 1_555
H183 C148 1_555 1_555
C149 C148 1_555 1_555
H184 C149 1_555 1_555
H185 C149 1_555 1_555
C150 C149 1_555 1_555
H186 C150 1_555 1_555
H187 C150 1_555 1_555
H188 C150 1_555 1_555
C151 C145 1_555 1_555
C152 C151 1_555 1_555
C153 C152 1_555 1_555
H189 C153 1_555 1_555
C154 C153 1_555 1_555
C155 C154 1_555 1_555
C156 C151 1_555 1_555
H190 C156 1_555 1_555
C157 H191 1_555 1_555
H192 C157 1_555 1_555
H193 C157 1_555 1_555
C158 H194 1_555 1_555
H195 C158 1_555 1_555
C159 C158 1_555 1_555
C160 H196 1_555 1_555
H197 C160 1_555 1_555
C161 C160 1_555 1_555
H198 C161 1_555 1_555
H199 C161 1_555 1_555
C162 H200 1_555 1_555
C163 C162 1_555 1_555
C164 C163 1_555 1_555
C165 C164 1_555 1_555
H201 C165 1_555 1_555
C166 C165 1_555 1_555
H202 C166 1_555 1_555
C167 C166 1_555 1_555
H203 C167 1_555 1_555
C168 C163 1_555 1_555
H204 C168 1_555 1_555
C169 C155 1_555 1_555
H205 C169 1_555 1_555
C170 C169 1_555 1_555
H206 C170 1_555 1_555
H207 C170 1_555 1_555
C171 C170 1_555 1_555
H208 C171 1_555 1_555
H209 C171 1_555 1_555
C172 C171 1_555 1_555
H210 C172 1_555 1_555
H211 C172 1_555 1_555
C173 C172 1_555 1_555
H212 C173 1_555 1_555
H213 C173 1_555 1_555
C174 C173 1_555 1_555
H214 C174 1_555 1_555
H215 C174 1_555 1_555
H216 C174 1_555 1_555
C175 C169 1_555 1_555
C176 C175 1_555 1_555
C177 C176 1_555 1_555
H217 C177 1_555 1_555
C178 C177 1_555 1_555
C179 C102 1_555 1_555
C180 C175 1_555 1_555
H218 C180 1_555 1_555
C181 H219 1_555 1_555
H220 C181 1_555 1_555
H221 C181 1_555 1_555
C182 H222 1_555 1_555
H223 C182 1_555 1_555
C183 C182 1_555 1_555
C184 H224 1_555 1_555
H225 C184 1_555 1_555
C185 C184 1_555 1_555
H226 C185 1_555 1_555
H227 C185 1_555 1_555
C186 H228 1_555 1_555
C187 C186 1_555 1_555
C188 C187 1_555 1_555
H229 C188 1_555 1_555
C189 C188 1_555 1_555
H230 C189 1_555 1_555
C190 C189 1_555 1_555
H231 C190 1_555 1_555
C191 C190 1_555 1_555
H232 C191 1_555 1_555
C192 C187 1_555 1_555
N9 C111 1_555 1_555
H233 N9 1_555 1_555
N10 C113 1_555 1_555
N11 C135 1_555 1_555
H234 N11 1_555 1_555
N12 C137 1_555 1_555
N13 C159 1_555 1_555
H235 N13 1_555 1_555
N14 C161 1_555 1_555
N15 C183 1_555 1_555
H236 N15 1_555 1_555
N16 C185 1_555 1_555
O17 C104 1_555 1_555
O18 C106 1_555 1_555
O19 C111 1_555 1_555
O20 C120 1_555 1_555
H237 O20 1_555 1_555
O21 C132 1_555 1_555
O22 C130 1_555 1_555
O23 C135 1_555 1_555
O24 C144 1_555 1_555
H238 O24 1_555 1_555
O25 C152 1_555 1_555
O26 C154 1_555 1_555
O27 C159 1_555 1_555
O28 C164 1_555 1_555
H239 O28 1_555 1_555
O29 C176 1_555 1_555
O30 C178 1_555 1_555
O31 C183 1_555 1_555
O32 C192 1_555 1_555
H240 O32 1_555 1_555
C2 O1 1_555 1_555
C6 C7 1_555 1_555
C8 O2 1_555 1_555
C10 N1 1_555 1_555
C12 N2 1_555 1_555
C17 C18 1_555 1_555
C27 O5 1_555 1_555
C30 C31 1_555 1_555
C32 O6 1_555 1_555
C34 N3 1_555 1_555
C36 N4 1_555 1_555
C41 C42 1_555 1_555
C50 C55 1_555 1_555
C50 O9 1_555 1_555
C54 C55 1_555 1_555
C56 O10 1_555 1_555
C58 N5 1_555 1_555
C60 N6 1_555 1_555
C65 C66 1_555 1_555
C74 C79 1_555 1_555
C74 O13 1_555 1_555
C77 C91 1_555 1_555
C78 C79 1_555 1_555
C80 O14 1_555 1_555
C82 N7 1_555 1_555
C84 N8 1_555 1_555
C89 C90 1_555 1_555
C107 C108 1_555 1_555
C109 O17 1_555 1_555
C110 O18 1_555 1_555
C112 N9 1_555 1_555
C114 N10 1_555 1_555
C119 C120 1_555 1_555
C131 C132 1_555 1_555
C133 O21 1_555 1_555
C134 O22 1_555 1_555
C136 N11 1_555 1_555
C138 N12 1_555 1_555
C143 C144 1_555 1_555
C155 C156 1_555 1_555
C157 O25 1_555 1_555
C158 O26 1_555 1_555
C160 N13 1_555 1_555
C162 N14 1_555 1_555
C167 C168 1_555 1_555
C178 C179 1_555 1_555
C179 C180 1_555 1_555
C181 O29 1_555 1_555
C182 O30 1_555 1_555
C184 N15 1_555 1_555
C186 N16 1_555 1_555
C191 C192 1_555 1_555

#END
