
#######################################################################
#
#                 Cambridge Crystallographic Data Centre
#                                CCDC 
#
#######################################################################
#
# If this CIF has been generated from an entry in the Cambridge 
# Structural Database, then it will include bibliographic, chemical, 
# crystal, experimental, refinement or atomic coordinate data resulting 
# from the CCDC's data processing and validation procedures.
#
#######################################################################

data_XOVGAS
_chemical_name_common            
'Tetramethoxy-C-pentylcalix(4)resorcinarene dichloromethane solvate'
_chemical_formula_moiety         'C52 H72 O8,0.25(C1 H2 Cl2)'
_chemical_name_systematic        
'2,8,14,20-Tetra-n-pentyl-4,10,16,22-tetrahydroxy-6,12,18,24-tetramethoxycalix(4)arene dichloromethane solvate'
_symmetry_cell_setting           monoclinic
_symmetry_space_group_name_H-M   'P 21/c'
_symmetry_Int_Tables_number      14
_space_group_name_Hall           '-P 2ybc'
loop_
_symmetry_equiv_pos_site_id
_symmetry_equiv_pos_as_xyz
1 x,y,z
2 -x,1/2+y,1/2-z
3 -x,-y,-z
4 x,1/2-y,1/2+z
_cell_length_a                   11.2785(11)
_cell_length_b                   37.398(3)
_cell_length_c                   12.4211(11)
_cell_angle_alpha                90
_cell_angle_beta                 108.902(7)
_cell_angle_gamma                90
_cell_volume                     4956.61
_cell_formula_units_Z            4
loop_
_atom_site_label
_atom_site_type_symbol
_atom_site_fract_x
_atom_site_fract_y
_atom_site_fract_z
C1 C 0.9370(5) 0.20007(14) 0.9271(4)
C2 C 1.0524(5) 0.20198(14) 0.9072(4)
H1 H 1.1122 0.2186 0.9464
C3 C 1.0769(5) 0.17945(15) 0.8301(4)
C4 C 0.9885(4) 0.15413(14) 0.7682(4)
C5 C 0.8738(4) 0.15294(14) 0.7907(4)
H2 H 0.8129 0.1369 0.7496
C6 C 0.8463(4) 0.17467(14) 0.8718(4)
C7 C 0.7242(3) 0.16957(10) 0.9008(3)
H3 H 0.7346 0.1829 0.9712
C8 C 0.7047(3) 0.13016(10) 0.9266(3)
H4 H 0.6229 0.1275 0.9356
H5 H 0.7061 0.1156 0.8624
C9 C 0.8010(8) 0.1172(2) 1.0298(8)
H6 H 0.8060 0.1333 1.0922
H7 H 0.8817 0.1173 1.0176
C10 C 0.7728(11) 0.0788(2) 1.0628(8)
H8 H 0.7722 0.0624 1.0021
H9 H 0.6903 0.0784 1.0712
C11 C 0.8713(14) 0.0659(3) 1.1757(11)
H10 H 0.8715 0.0812 1.2389
H11 H 0.9548 0.0655 1.1694
C12 C 0.823(2) 0.0256(4) 1.1912(15)
H12 H 0.8867 0.0086 1.1900
H13 H 0.7476 0.0205 1.1302
H14 H 0.8077 0.0239 1.2625
C13 C 1.2960(5) 0.1953(2) 0.8795(5)
H15 H 1.3123 0.1844 0.9529
H16 H 1.2834 0.2205 0.8851
H17 H 1.3661 0.1913 0.8532
C14 C 0.4110(5) 0.21800(13) 0.6420(4)
C15 C 0.4844(5) 0.23868(13) 0.7310(4)
H18 H 0.4677 0.2629 0.7348
C16 C 0.5849(4) 0.22258(13) 0.8158(4)
C17 C 0.6133(4) 0.18624(13) 0.8097(4)
C18 C 0.5339(5) 0.16687(13) 0.7190(4)
H19 H 0.5500 0.1426 0.7150
C19 C 0.4320(4) 0.18138(13) 0.6335(4)
C20 C 0.3461(5) 0.15857(13) 0.5386(4)
H20 H 0.2625 0.1693 0.5192
C21 C 0.3331(5) 0.11954(13) 0.5757(5)
H21 H 0.4121 0.1072 0.5883
H22 H 0.3159 0.1199 0.6474
C22 C 0.2298(5) 0.09877(14) 0.4889(5)
H23 H 0.2377 0.1023 0.4141
H24 H 0.1493 0.1083 0.4871
C23 C 0.2325(6) 0.05890(16) 0.5137(6)
H25 H 0.3123 0.0494 0.5132
H26 H 0.2281 0.0556 0.5898
C24 C 0.1285(7) 0.03728(18) 0.4315(7)
H27 H 0.1300 0.0410 0.3547
H28 H 0.0483 0.0457 0.4347
C25 C 0.1413(10) -0.0027(2) 0.4589(10)
H29 H 0.0776 -0.0156 0.4019
H30 H 0.1320 -0.0068 0.5321
H31 H 0.2225 -0.0108 0.4600
C26 C 0.6076(5) 0.27314(14) 0.9416(5)
H32 H 0.5297 0.2673 0.9529
H33 H 0.5934 0.2909 0.8830
H34 H 0.6652 0.2823 1.0111
C27 C 0.4389(5) 0.15562(14) 0.2267(4)
C28 C 0.3357(5) 0.17547(14) 0.2310(4)
H35 H 0.2860 0.1873 0.1661
C29 C 0.3066(4) 0.17777(13) 0.3315(4)
C30 C 0.3813(4) 0.15914(12) 0.4299(4)
C31 C 0.4835(4) 0.14037(12) 0.4211(4)
H36 H 0.5341 0.1287 0.4858
C32 C 0.5160(4) 0.13772(13) 0.3226(4)
C33 C 0.6298(5) 0.11534(14) 0.3209(4)
H37 H 0.6279 0.1141 0.2416
C34 C 0.6197(5) 0.07625(14) 0.3607(5)
H38 H 0.6931 0.0630 0.3593
H39 H 0.6195 0.0767 0.4387
C35 C 0.5021(6) 0.05682(15) 0.2868(5)
H40 H 0.5001 0.0574 0.2081
H41 H 0.4286 0.0694 0.2913
C36 C 0.4962(6) 0.01777(16) 0.3226(5)
H42 H 0.5031 0.0171 0.4024
H43 H 0.5675 0.0050 0.3141
C37 C 0.3750(7) -0.00170(17) 0.2531(6)
H44 H 0.3036 0.0103 0.2643
H45 H 0.3659 -0.0004 0.1729
C38 C 0.3753(8) -0.04066(18) 0.2876(7)
H46 H 0.2988 -0.0518 0.2422
H47 H 0.3820 -0.0421 0.3665
H48 H 0.4453 -0.0527 0.2757
C39 C 0.1290(5) 0.21526(17) 0.2439(5)
H49 H 0.0900 0.1976 0.1873
H50 H 0.1770 0.2314 0.2144
H51 H 0.0657 0.2284 0.2634
C40 C 0.9696(5) 0.17179(15) 0.5131(4)
C41 C 0.8983(5) 0.18382(15) 0.4051(4)
H52 H 0.9225 0.2041 0.3741
C42 C 0.7903(5) 0.16508(14) 0.3442(4)
C43 C 0.7527(5) 0.13406(13) 0.3884(4)
C44 C 0.8274(5) 0.12274(13) 0.4952(4)
H53 H 0.8045 0.1021 0.5251
C45 C 0.9371(5) 0.14111(14) 0.5611(4)
C46 C 1.0131(5) 0.12903(15) 0.6814(5)
H54 H 1.1016 0.1320 0.6882
C47 C 0.9961(6) 0.08995(16) 0.7072(5)
H55 H 1.0122 0.0752 0.6492
H56 H 0.9097 0.0861 0.7031
C48 C 1.0828(8) 0.0778(2) 0.8249(7)
H57 H 1.0766 0.0948 0.8819
H58 H 1.0546 0.0548 0.8430
C49 C 1.2137(12) 0.0750(4) 0.8302(10)
H59 H 1.2479 0.0985 0.8259
H60 H 1.2202 0.0608 0.7670
C50 C 1.290(2) 0.0560(7) 0.9496(15)
H61 H 1.2929 0.0712 1.0136
H62 H 1.2532 0.0332 0.9578
C51 C 1.421(2) 0.0511(7) 0.9397(13)
H63 H 1.4365 0.0697 0.8929
H64 H 1.4254 0.0282 0.9060
H65 H 1.4823 0.0522 1.0141
C52 C 0.7431(6) 0.20904(15) 0.1952(5)
H66 H 0.8221 0.2068 0.1821
H67 H 0.7483 0.2277 0.2495
H68 H 0.6789 0.2147 0.1250
O1 O 0.9173(3) 0.22427(10) 1.0043(3)
H69 H 0.8541 0.2360 0.9732
O2 O 1.1879(3) 0.18001(12) 0.8023(3)
O3 O 0.3145(3) 0.23634(9) 0.5622(3)
H70 H 0.2784 0.2228 0.5099
O4 O 0.6598(3) 0.24141(9) 0.9079(3)
O5 O 0.4638(4) 0.15553(11) 0.1244(3)
H71 H 0.4266 0.1388 0.0850
O6 O 0.2094(3) 0.19804(10) 0.3425(3)
O7 O 1.0746(3) 0.19202(11) 0.5664(3)
H72 H 1.1111 0.1835 0.6293
O8 O 0.7134(3) 0.17616(10) 0.2384(3)
C53 C 1.080(3) 0.1102(11) 1.128(3)
H73 H 1.0668 0.1225 1.0564
H74 H 1.1655 0.1148 1.1749
Cl1 Cl 0.9814(10) 0.1305(3) 1.1949(9)
Cl2 Cl 1.069(2) 0.0704(4) 1.1025(16)
loop_
_geom_bond_atom_site_label_1
_geom_bond_atom_site_label_2
_geom_bond_site_symmetry_1
_geom_bond_site_symmetry_2
C1 C2 1_555 1_555
C2 H1 1_555 1_555
C3 C2 1_555 1_555
C4 C3 1_555 1_555
C5 C4 1_555 1_555
H2 C5 1_555 1_555
C6 C1 1_555 1_555
C7 C6 1_555 1_555
H3 C7 1_555 1_555
C8 C7 1_555 1_555
H4 C8 1_555 1_555
H5 C8 1_555 1_555
C9 C8 1_555 1_555
H6 C9 1_555 1_555
H7 C9 1_555 1_555
C10 C9 1_555 1_555
H8 C10 1_555 1_555
H9 C10 1_555 1_555
C11 C10 1_555 1_555
H10 C11 1_555 1_555
H11 C11 1_555 1_555
C12 C11 1_555 1_555
H12 C12 1_555 1_555
H13 C12 1_555 1_555
H14 C12 1_555 1_555
C13 H15 1_555 1_555
H16 C13 1_555 1_555
H17 C13 1_555 1_555
C14 C15 1_555 1_555
C15 H18 1_555 1_555
C16 C15 1_555 1_555
C17 C7 1_555 1_555
C18 C17 1_555 1_555
H19 C18 1_555 1_555
C19 C14 1_555 1_555
C20 C19 1_555 1_555
H20 C20 1_555 1_555
C21 C20 1_555 1_555
H21 C21 1_555 1_555
H22 C21 1_555 1_555
C22 C21 1_555 1_555
H23 C22 1_555 1_555
H24 C22 1_555 1_555
C23 C22 1_555 1_555
H25 C23 1_555 1_555
H26 C23 1_555 1_555
C24 C23 1_555 1_555
H27 C24 1_555 1_555
H28 C24 1_555 1_555
C25 C24 1_555 1_555
H29 C25 1_555 1_555
H30 C25 1_555 1_555
H31 C25 1_555 1_555
C26 H32 1_555 1_555
H33 C26 1_555 1_555
H34 C26 1_555 1_555
C27 C28 1_555 1_555
C28 H35 1_555 1_555
C29 C28 1_555 1_555
C30 C20 1_555 1_555
C31 C30 1_555 1_555
H36 C31 1_555 1_555
C32 C27 1_555 1_555
C33 C32 1_555 1_555
H37 C33 1_555 1_555
C34 C33 1_555 1_555
H38 C34 1_555 1_555
H39 C34 1_555 1_555
C35 C34 1_555 1_555
H40 C35 1_555 1_555
H41 C35 1_555 1_555
C36 C35 1_555 1_555
H42 C36 1_555 1_555
H43 C36 1_555 1_555
C37 C36 1_555 1_555
H44 C37 1_555 1_555
H45 C37 1_555 1_555
C38 C37 1_555 1_555
H46 C38 1_555 1_555
H47 C38 1_555 1_555
H48 C38 1_555 1_555
C39 H49 1_555 1_555
H50 C39 1_555 1_555
H51 C39 1_555 1_555
C40 C41 1_555 1_555
C41 H52 1_555 1_555
C42 C41 1_555 1_555
C43 C33 1_555 1_555
C44 C43 1_555 1_555
H53 C44 1_555 1_555
C45 C40 1_555 1_555
C46 C4 1_555 1_555
H54 C46 1_555 1_555
C47 C46 1_555 1_555
H55 C47 1_555 1_555
H56 C47 1_555 1_555
C48 C47 1_555 1_555
H57 C48 1_555 1_555
H58 C48 1_555 1_555
C49 C48 1_555 1_555
H59 C49 1_555 1_555
H60 C49 1_555 1_555
C50 C49 1_555 1_555
H61 C50 1_555 1_555
H62 C50 1_555 1_555
C51 C50 1_555 1_555
H63 C51 1_555 1_555
H64 C51 1_555 1_555
H65 C51 1_555 1_555
C52 H66 1_555 1_555
H67 C52 1_555 1_555
H68 C52 1_555 1_555
O1 C1 1_555 1_555
H69 O1 1_555 1_555
O2 C3 1_555 1_555
O3 C14 1_555 1_555
H70 O3 1_555 1_555
O4 C16 1_555 1_555
O5 C27 1_555 1_555
H71 O5 1_555 1_555
O6 C29 1_555 1_555
O7 C40 1_555 1_555
H72 O7 1_555 1_555
O8 C42 1_555 1_555
C53 H73 1_555 1_555
H74 C53 1_555 1_555
Cl1 C53 1_555 1_555
Cl2 C53 1_555 1_555
C5 C6 1_555 1_555
C13 O2 1_555 1_555
C16 C17 1_555 1_555
C18 C19 1_555 1_555
C26 O4 1_555 1_555
C29 C30 1_555 1_555
C31 C32 1_555 1_555
C39 O6 1_555 1_555
C42 C43 1_555 1_555
C44 C45 1_555 1_555
C45 C46 1_555 1_555
C52 O8 1_555 1_555

#END
