
#######################################################################
#
#                 Cambridge Crystallographic Data Centre
#                                CCDC 
#
#######################################################################
#
# If this CIF has been generated from an entry in the Cambridge 
# Structural Database, then it will include bibliographic, chemical, 
# crystal, experimental, refinement or atomic coordinate data resulting 
# from the CCDC's data processing and validation procedures.
#
#######################################################################

data_XOVNUT
_chemical_formula_moiety         'C24 H22 Br2 N2 S1'
_chemical_name_systematic        
4,6-bis(2-(4-bromophenyl)vinyl)-2-(butylsulfanyl)pyrimidine
_symmetry_cell_setting           monoclinic
_symmetry_space_group_name_H-M   'P 21/c'
_symmetry_Int_Tables_number      14
_space_group_name_Hall           '-P 2ybc'
loop_
_symmetry_equiv_pos_site_id
_symmetry_equiv_pos_as_xyz
1 x,y,z
2 -x,1/2+y,1/2-z
3 -x,-y,-z
4 x,1/2-y,1/2+z
_cell_length_a                   9.5636(19)
_cell_length_b                   10.630(2)
_cell_length_c                   23.708(6)
_cell_angle_alpha                90
_cell_angle_beta                 112.82(3)
_cell_angle_gamma                90
_cell_volume                     2221.53
_exptl_crystal_colour            yellow
_exptl_crystal_description       Prism
_cell_formula_units_Z            4
loop_
_atom_site_label
_atom_site_type_symbol
_atom_site_fract_x
_atom_site_fract_y
_atom_site_fract_z
Br1 Br 0.45970(3) -0.41644(2) 1.234842(12)
Br2 Br 1.07815(3) 0.96352(2) 0.907769(15)
C1 C 0.3098(3) 0.3035(2) 0.92713(11)
C2 C 0.5517(3) 0.3754(2) 0.96667(11)
C3 C 0.5857(3) 0.2828(2) 1.01093(11)
H1 H 0.6838 0.2748 1.0403
C4 C 0.4721(3) 0.2021(2) 1.01114(11)
C5 C 0.5015(3) 0.1044(2) 1.05768(11)
H2 H 0.6018 0.0889 1.0834
C6 C 0.3944(3) 0.0364(2) 1.06569(11)
H3 H 0.2947 0.0559 1.0407
C7 C 0.4157(3) -0.0662(2) 1.10957(11)
C8 C 0.2879(3) -0.1289(2) 1.10968(11)
H4 H 0.1922 -0.1009 1.0840
C9 C 0.2998(3) -0.2319(2) 1.14709(11)
H5 H 0.2135 -0.2736 1.1462
C10 C 0.4420(3) -0.2715(2) 1.18561(11)
C11 C 0.5712(3) -0.2086(2) 1.18849(11)
H6 H 0.6663 -0.2346 1.2157
C12 C 0.5576(3) -0.1069(2) 1.15050(11)
H7 H 0.6444 -0.0648 1.1522
C13 C 0.6671(3) 0.4638(2) 0.96501(11)
H8 H 0.7624 0.4602 0.9967
C14 C 0.6451(3) 0.5488(2) 0.92140(11)
H9 H 0.5499 0.5494 0.8896
C15 C 0.7548(3) 0.6417(2) 0.91800(11)
C16 C 0.7173(3) 0.7171(2) 0.86599(11)
H10 H 0.6253 0.7041 0.8333
C17 C 0.8135(3) 0.8107(2) 0.86184(12)
H11 H 0.7866 0.8603 0.8269
C18 C 0.9497(3) 0.8291(2) 0.91031(12)
C19 C 0.9919(3) 0.7544(2) 0.96202(12)
H12 H 1.0854 0.7664 0.9940
C20 C 0.8949(3) 0.6622(2) 0.96584(11)
H13 H 0.9232 0.6127 1.0009
C21 C 0.1228(3) 0.4306(2) 0.82034(13)
H14 H 0.2234 0.4381 0.8198
H15 H 0.0528 0.4108 0.7791
C22 C 0.0793(4) 0.5525(3) 0.83894(15)
H16 H 0.1538 0.5757 0.8789
H17 H -0.0179 0.5434 0.8425
C23 C 0.0681(4) 0.6585(3) 0.79286(17)
H18 H -0.0001 0.6318 0.7524
H19 H 0.0241 0.7323 0.8037
C24 C 0.2172(4) 0.6943(3) 0.79049(17)
H20 H 0.2892 0.7113 0.8311
H21 H 0.2043 0.7680 0.7656
H22 H 0.2535 0.6263 0.7732
S1 S 0.12232(7) 0.30281(6) 0.87109(3)
N1 N 0.4088(2) 0.38747(17) 0.92361(9)
N2 N 0.3308(2) 0.21138(17) 0.96785(9)
loop_
_geom_bond_atom_site_label_1
_geom_bond_atom_site_label_2
_geom_bond_site_symmetry_1
_geom_bond_site_symmetry_2
Br1 C10 1_555 1_555
Br2 C18 1_555 1_555
C1 S1 1_555 1_555
C2 C3 1_555 1_555
C3 H1 1_555 1_555
C4 C3 1_555 1_555
C5 C4 1_555 1_555
H2 C5 1_555 1_555
C6 C5 1_555 1_555
H3 C6 1_555 1_555
C7 C6 1_555 1_555
C8 C7 1_555 1_555
H4 C8 1_555 1_555
C9 C8 1_555 1_555
H5 C9 1_555 1_555
C10 C9 1_555 1_555
C11 C10 1_555 1_555
H6 C11 1_555 1_555
C12 C7 1_555 1_555
H7 C12 1_555 1_555
C13 C2 1_555 1_555
H8 C13 1_555 1_555
C14 C13 1_555 1_555
H9 C14 1_555 1_555
C15 C14 1_555 1_555
C16 C15 1_555 1_555
H10 C16 1_555 1_555
C17 C16 1_555 1_555
H11 C17 1_555 1_555
C18 C17 1_555 1_555
C19 C18 1_555 1_555
H12 C19 1_555 1_555
C20 C15 1_555 1_555
H13 C20 1_555 1_555
C21 H14 1_555 1_555
H15 C21 1_555 1_555
C22 C21 1_555 1_555
H16 C22 1_555 1_555
H17 C22 1_555 1_555
C23 C22 1_555 1_555
H18 C23 1_555 1_555
H19 C23 1_555 1_555
C24 C23 1_555 1_555
H20 C24 1_555 1_555
H21 C24 1_555 1_555
H22 C24 1_555 1_555
S1 C21 1_555 1_555
N1 C1 1_555 1_555
N2 C1 1_555 1_555
C2 N1 1_555 1_555
C4 N2 1_555 1_555
C11 C12 1_555 1_555
C19 C20 1_555 1_555

#END
