
#######################################################################
#
#                 Cambridge Crystallographic Data Centre
#                                CCDC 
#
#######################################################################
#
# If this CIF has been generated from an entry in the Cambridge 
# Structural Database, then it will include bibliographic, chemical, 
# crystal, experimental, refinement or atomic coordinate data resulting 
# from the CCDC's data processing and validation procedures.
#
#######################################################################

data_XOVQII
_chemical_name_common            'cis-Decalin xanthate'
_chemical_formula_moiety         'C13 H19 N1 O1 S2'
_chemical_name_systematic        
(1S,5S)-5-(Methylthiothioxomethoxy)-bicyclo[4.4.0]decane-1-carbonitrile
_symmetry_cell_setting           monoclinic
_symmetry_space_group_name_H-M   'P 21/c'
_symmetry_Int_Tables_number      14
_space_group_name_Hall           '-P 2ybc'
loop_
_symmetry_equiv_pos_site_id
_symmetry_equiv_pos_as_xyz
1 x,y,z
2 x,1/2-y,1/2+z
3 -x,-y,-z
4 -x,1/2+y,1/2-z
_cell_length_a                   7.873(2)
_cell_length_b                   11.0303(9)
_cell_length_c                   16.584(1)
_cell_angle_alpha                90
_cell_angle_beta                 100.82(1)
_cell_angle_gamma                90
_cell_volume                     1414.58
_exptl_crystal_colour            colorless
_exptl_crystal_description       chunk
_cell_formula_units_Z            4
_exptl_crystal_recrystallization_method 'ethyl acetate/hexanes'
loop_
_atom_site_label
_atom_site_type_symbol
_atom_site_fract_x
_atom_site_fract_y
_atom_site_fract_z
S1 S 0.8052(2) -0.4927(1) 0.09746(8)
S2 S 0.7622(3) -0.2986(1) -0.03061(8)
O1 O 0.8710(4) -0.2761(2) 0.1285(2)
N1 N 0.6967(6) 0.1055(3) -0.0152(2)
C1 C 0.8835(6) -0.1437(3) 0.1200(2)
C2 C 1.0577(6) -0.1045(4) 0.1664(3)
C3 C 1.0726(6) 0.0328(4) 0.1558(3)
C4 C 0.9258(6) 0.0994(4) 0.1832(2)
C5 C 0.7454(5) 0.0541(3) 0.1415(2)
C6 C 0.5987(6) 0.1172(4) 0.1743(3)
C7 C 0.5861(7) 0.0786(5) 0.2612(3)
C8 C 0.5686(6) -0.0561(5) 0.2664(3)
C9 C 0.7184(5) -0.1206(4) 0.2391(2)
C10 C 0.7311(5) -0.0864(3) 0.1507(2)
C11 C 0.7203(6) 0.0818(3) 0.0522(3)
C12 C 0.8135(5) -0.3446(3) 0.0628(2)
C13 C 0.7401(8) -0.5768(4) 0.0056(3)
H1 H 0.8786 -0.1230 0.0627
H2 H 1.1509 -0.1469 0.1498
H3 H 1.0657 -0.1240 0.2255
H4 H 1.1819 0.0612 0.1877
H5 H 1.0707 0.0499 0.1003
H6 H 0.9331 0.1838 0.1752
H7 H 0.9350 0.0874 0.2434
H8 H 0.6139 0.2024 0.1737
H9 H 0.4906 0.0969 0.1400
H10 H 0.6881 0.1050 0.2982
H11 H 0.4886 0.1197 0.2776
H12 H 0.4609 -0.0823 0.2302
H13 H 0.5574 -0.0814 0.3208
H14 H 0.7095 -0.2077 0.2436
H15 H 0.8253 -0.0976 0.2756
H16 H 0.6248 -0.1119 0.1169
H17 H 0.6295 -0.5511 -0.0244
H18 H 0.7302 -0.6628 0.0167
H19 H 0.8218 -0.5698 -0.0309
loop_
_geom_bond_atom_site_label_1
_geom_bond_atom_site_label_2
_geom_bond_site_symmetry_1
_geom_bond_site_symmetry_2
S1 C12 1_555 1_555
S2 C12 1_555 1_555
O1 C1 1_555 1_555
N1 C11 1_555 1_555
C1 C2 1_555 1_555
C2 C3 1_555 1_555
C3 C4 1_555 1_555
C4 C5 1_555 1_555
C5 C6 1_555 1_555
C6 C7 1_555 1_555
C7 C8 1_555 1_555
C8 C9 1_555 1_555
C9 C10 1_555 1_555
C10 C1 1_555 1_555
C11 C5 1_555 1_555
C12 O1 1_555 1_555
C13 S1 1_555 1_555
H1 C1 1_555 1_555
H2 C2 1_555 1_555
H3 C2 1_555 1_555
H4 C3 1_555 1_555
H5 C3 1_555 1_555
H6 C4 1_555 1_555
H7 C4 1_555 1_555
H8 C6 1_555 1_555
H9 C6 1_555 1_555
H10 C7 1_555 1_555
H11 C7 1_555 1_555
H12 C8 1_555 1_555
H13 C8 1_555 1_555
H14 C9 1_555 1_555
H15 C9 1_555 1_555
H16 C10 1_555 1_555
H17 C13 1_555 1_555
H18 C13 1_555 1_555
H19 C13 1_555 1_555
C5 C10 1_555 1_555

#END
