
#######################################################################
#
#                 Cambridge Crystallographic Data Centre
#                                CCDC 
#
#######################################################################
#
# If this CIF has been generated from an entry in the Cambridge 
# Structural Database, then it will include bibliographic, chemical, 
# crystal, experimental, refinement or atomic coordinate data resulting 
# from the CCDC's data processing and validation procedures.
#
#######################################################################

data_XOVSAC
_chemical_formula_moiety         'C22 H52 Li1 N2 O2 P1 Si2'
_chemical_name_systematic        
(bis(t-Butyl)-(trimethylsilylamino)-N-trimethylsilyl-phosphinimidato)-bis(tetrahydrofuran)-lithium
_symmetry_cell_setting           monoclinic
_symmetry_space_group_name_H-M   'P 21/n'
_symmetry_Int_Tables_number      14
_space_group_name_Hall           '-P 2yn'
loop_
_symmetry_equiv_pos_site_id
_symmetry_equiv_pos_as_xyz
1 x,y,z
2 1/2+x,1/2-y,1/2+z
3 -x,-y,-z
4 1/2-x,1/2+y,1/2-z
_cell_length_a                   8.7066(2)
_cell_length_b                   18.9204(3)
_cell_length_c                   17.8633(3)
_cell_angle_alpha                90
_cell_angle_beta                 95.3809(8)
_cell_angle_gamma                90
_cell_volume                     2929.7
_exptl_crystal_colour            colorless
_exptl_crystal_description       prism
_cell_formula_units_Z            4
loop_
_atom_site_label
_atom_site_type_symbol
_atom_site_fract_x
_atom_site_fract_y
_atom_site_fract_z
P1 P 0.06642(8) 0.11920(3) 0.69316(4)
Si1 Si -0.09241(9) 0.03610(4) 0.81891(5)
Si2 Si 0.24363(9) 0.26577(4) 0.68733(4)
Li1 Li 0.0928(5) 0.1842(2) 0.8183(3)
O1 O 0.2375(2) 0.17169(11) 0.91071(11)
O2 O -0.0240(2) 0.26323(11) 0.85833(12)
N1 N -0.0043(2) 0.09445(11) 0.76716(13)
N2 N 0.1545(3) 0.19145(12) 0.70915(13)
C1 C -0.2160(4) 0.08478(18) 0.8818(2)
C2 C 0.0480(4) -0.01980(17) 0.87874(19)
C3 C -0.2272(4) -0.02852(19) 0.7659(2)
C4 C 0.2071(3) 0.05101(14) 0.66560(17)
C5 C 0.3420(3) 0.05436(17) 0.7275(2)
C6 C 0.1426(4) -0.02429(16) 0.6643(2)
C7 C 0.2697(4) 0.06659(17) 0.59008(19)
C8 C -0.0931(3) 0.13191(15) 0.61575(16)
C9 C -0.1635(4) 0.06229(19) 0.5841(2)
C10 C -0.0415(4) 0.17555(19) 0.55045(19)
C11 C -0.2178(4) 0.17412(19) 0.6513(2)
C12 C 0.3315(4) 0.26738(17) 0.59502(18)
C13 C 0.1103(4) 0.34326(16) 0.6875(2)
C14 C 0.4084(4) 0.28418(17) 0.7596(2)
C15 C 0.3996(3) 0.15628(19) 0.91516(18)
C16 C 0.4247(4) 0.0978(3) 0.9715(2)
C17 C 0.2970(5) 0.1072(3) 1.0218(2)
C18 C 0.1879(4) 0.1571(2) 0.98346(19)
C19 C 0.0444(4) 0.31871(17) 0.9065(2)
C20 C -0.0737(4) 0.3746(2) 0.9088(2)
C21 C -0.2247(4) 0.3345(2) 0.89285(19)
C22 C -0.1829(3) 0.28117(16) 0.8358(2)
H1 H -0.2693(4) 0.05012(18) 0.9128(2)
H2 H -0.1503(4) 0.11698(18) 0.9157(2)
H3 H -0.2947(4) 0.11324(18) 0.8505(2)
H4 H -0.0099(4) -0.05359(17) 0.90871(19)
H5 H 0.1149(4) 0.01107(17) 0.91360(19)
H6 H 0.1138(4) -0.04685(17) 0.84578(19)
H7 H -0.2733(4) -0.06021(19) 0.8026(2)
H8 H -0.3113(4) -0.00210(19) 0.7358(2)
H9 H -0.1687(4) -0.05757(19) 0.7314(2)
H10 H 0.4216(3) 0.01879(17) 0.7163(2)
H11 H 0.3046(3) 0.04378(17) 0.7775(2)
H12 H 0.3882(3) 0.10276(17) 0.7284(2)
H13 H 0.2228(4) -0.05801(16) 0.6494(2)
H14 H 0.1134(4) -0.03703(16) 0.7154(2)
H15 H 0.0494(4) -0.02699(16) 0.6272(2)
H16 H 0.3432(4) 0.02826(17) 0.57881(19)
H17 H 0.3248(4) 0.11303(17) 0.59262(19)
H18 H 0.1825(4) 0.06826(17) 0.54948(19)
H19 H -0.2475(4) 0.07252(19) 0.5435(2)
H20 H -0.2070(4) 0.03547(19) 0.6255(2)
H21 H -0.0814(4) 0.03343(19) 0.5631(2)
H22 H -0.1292(4) 0.18128(19) 0.51060(19)
H23 H -0.0056(4) 0.22314(19) 0.56911(19)
H24 H 0.0454(4) 0.15034(19) 0.52901(19)
H25 H -0.3072(4) 0.18294(19) 0.6131(2)
H26 H -0.2531(4) 0.14635(19) 0.6941(2)
H27 H -0.1741(4) 0.22031(19) 0.6703(2)
H28 H 0.3814(4) 0.31428(17) 0.58845(18)
H29 H 0.4109(4) 0.22919(17) 0.59519(18)
H30 H 0.2499(4) 0.25926(17) 0.55267(18)
H31 H 0.1666(4) 0.38697(16) 0.6744(2)
H32 H 0.0730(4) 0.34886(16) 0.7384(2)
H33 H 0.0202(4) 0.33543(16) 0.6494(2)
H34 H 0.4620(4) 0.32861(17) 0.7465(2)
H35 H 0.3683(4) 0.28966(17) 0.8099(2)
H36 H 0.4828(4) 0.24382(17) 0.7612(2)
H37 H 0.4603(3) 0.19898(19) 0.93283(18)
H38 H 0.4305(3) 0.14130(19) 0.86503(18)
H39 H 0.5273(4) 0.1024(3) 1.0013(2)
H40 H 0.4181(4) 0.0509(3) 0.9456(2)
H41 H 0.3384(5) 0.1251(3) 1.0724(2)
H42 H 0.2439(5) 0.0609(3) 1.0276(2)
H43 H 0.1896(4) 0.2019(2) 1.01319(19)
H44 H 0.0809(4) 0.1373(2) 0.97830(19)
H45 H 0.0764(4) 0.29997(17) 0.9580(2)
H46 H 0.1366(4) 0.33812(17) 0.8841(2)
H47 H -0.0674(4) 0.3970(2) 0.9597(2)
H48 H -0.0629(4) 0.4118(2) 0.8699(2)
H49 H -0.2548(4) 0.3104(2) 0.93909(19)
H50 H -0.3098(4) 0.3666(2) 0.87257(19)
H51 H -0.2505(3) 0.23850(16) 0.8364(2)
H52 H -0.1931(3) 0.30254(16) 0.7844(2)
loop_
_geom_bond_atom_site_label_1
_geom_bond_atom_site_label_2
_geom_bond_site_symmetry_1
_geom_bond_site_symmetry_2
P1 N1 1_555 1_555
Si1 N1 1_555 1_555
Si2 N2 1_555 1_555
Li1 O1 1_555 1_555
O1 C15 1_555 1_555
O2 Li1 1_555 1_555
N1 Li1 1_555 1_555
N2 P1 1_555 1_555
C1 Si1 1_555 1_555
C2 Si1 1_555 1_555
C3 Si1 1_555 1_555
C4 P1 1_555 1_555
C5 C4 1_555 1_555
C6 C4 1_555 1_555
C7 C4 1_555 1_555
C8 P1 1_555 1_555
C9 C8 1_555 1_555
C10 C8 1_555 1_555
C11 C8 1_555 1_555
C12 Si2 1_555 1_555
C13 Si2 1_555 1_555
C14 Si2 1_555 1_555
C15 C16 1_555 1_555
C16 C17 1_555 1_555
C17 C18 1_555 1_555
C18 O1 1_555 1_555
C19 O2 1_555 1_555
C20 C19 1_555 1_555
C21 C20 1_555 1_555
C22 O2 1_555 1_555
H1 C1 1_555 1_555
H2 C1 1_555 1_555
H3 C1 1_555 1_555
H4 C2 1_555 1_555
H5 C2 1_555 1_555
H6 C2 1_555 1_555
H7 C3 1_555 1_555
H8 C3 1_555 1_555
H9 C3 1_555 1_555
H10 C5 1_555 1_555
H11 C5 1_555 1_555
H12 C5 1_555 1_555
H13 C6 1_555 1_555
H14 C6 1_555 1_555
H15 C6 1_555 1_555
H16 C7 1_555 1_555
H17 C7 1_555 1_555
H18 C7 1_555 1_555
H19 C9 1_555 1_555
H20 C9 1_555 1_555
H21 C9 1_555 1_555
H22 C10 1_555 1_555
H23 C10 1_555 1_555
H24 C10 1_555 1_555
H25 C11 1_555 1_555
H26 C11 1_555 1_555
H27 C11 1_555 1_555
H28 C12 1_555 1_555
H29 C12 1_555 1_555
H30 C12 1_555 1_555
H31 C13 1_555 1_555
H32 C13 1_555 1_555
H33 C13 1_555 1_555
H34 C14 1_555 1_555
H35 C14 1_555 1_555
H36 C14 1_555 1_555
H37 C15 1_555 1_555
H38 C15 1_555 1_555
H39 C16 1_555 1_555
H40 C16 1_555 1_555
H41 C17 1_555 1_555
H42 C17 1_555 1_555
H43 C18 1_555 1_555
H44 C18 1_555 1_555
H45 C19 1_555 1_555
H46 C19 1_555 1_555
H47 C20 1_555 1_555
H48 C20 1_555 1_555
H49 C21 1_555 1_555
H50 C21 1_555 1_555
H51 C22 1_555 1_555
H52 C22 1_555 1_555
Li1 N2 1_555 1_555
C21 C22 1_555 1_555

#END
