
#######################################################################
#
#                 Cambridge Crystallographic Data Centre
#                                CCDC 
#
#######################################################################
#
# If this CIF has been generated from an entry in the Cambridge 
# Structural Database, then it will include bibliographic, chemical, 
# crystal, experimental, refinement or atomic coordinate data resulting 
# from the CCDC's data processing and validation procedures.
#
#######################################################################

data_XOVWAI
_chemical_formula_moiety         'C54 H34 B1 F10 N1 S2'
_chemical_name_systematic        
4-(5'-(bis(2',3',4',5',6'-pentafluoro-3,5-dimethylbiphenyl-4-yl)boryl)-2,2'-bithiophen-5-yl)-N,N-diphenylaniline
_symmetry_cell_setting           triclinic
_symmetry_space_group_name_H-M   'P -1'
_symmetry_Int_Tables_number      2
_space_group_name_Hall           '-P 1'
loop_
_symmetry_equiv_pos_site_id
_symmetry_equiv_pos_as_xyz
1 x,y,z
2 -x,-y,-z
_cell_length_a                   13.1583(15)
_cell_length_b                   13.9148(19)
_cell_length_c                   14.732(2)
_cell_angle_alpha                64.371(7)
_cell_angle_beta                 85.748(7)
_cell_angle_gamma                65.643(7)
_cell_volume                     2197.6
_exptl_crystal_colour            yellow
_exptl_crystal_description       plate
_cell_formula_units_Z            2
_exptl_crystal_recrystallization_method 'From the Melt'
_exptl_crystal_preparation       
'cut from the glass and soaked in perfluoro polyether oil'
loop_
_atom_site_label
_atom_site_type_symbol
_atom_site_fract_x
_atom_site_fract_y
_atom_site_fract_z
S1 S 0.26818(13) 0.19935(15) 0.98471(12)
S2 S 0.08616(13) 0.31173(15) 0.69769(13)
F1 F 0.4361(3) 0.4983(3) 1.3638(3)
F2 F 0.2956(3) 0.8885(3) 1.3122(3)
F3 F 0.6600(3) -0.1974(3) 1.4808(3)
F4 F 0.1978(3) 0.8051(3) 1.0653(3)
F5 F 0.5645(3) -0.2556(3) 1.2118(3)
F6 F 0.6697(3) -0.4864(3) 1.3234(3)
F7 F 0.1856(3) 0.9606(3) 1.1301(3)
F8 F 0.4206(3) 0.6553(3) 1.4288(3)
F9 F 0.7654(3) -0.4296(3) 1.5904(3)
F10 F 0.7691(3) -0.5763(3) 1.5141(3)
N1 N -0.1288(4) 0.1985(4) 0.3697(4)
C1 C -0.0798(5) 0.1990(5) 0.4511(4)
C2 C 0.5497(5) -0.0884(5) 1.2792(5)
C3 C 0.4344(5) 0.4050(5) 1.1276(4)
C4 C 0.3250(6) 0.5581(6) 1.1767(4)
C5 C 0.2822(5) 0.3140(5) 0.9935(5)
C6 C -0.0807(5) 0.2091(5) 0.2790(5)
C7 C -0.2249(5) 0.1718(6) 0.3834(4)
C8 C 0.2293(5) 0.5464(5) 1.1609(4)
C9 C 0.0098(5) 0.2023(5) 0.6170(5)
C10 C 0.1681(5) 0.4031(6) 0.8394(5)
C11 C 0.3035(6) 0.8103(7) 1.2789(5)
C12 C 0.7184(5) -0.4600(6) 1.4570(6)
C13 C 0.4287(5) 0.1554(5) 1.1582(5)
C14 C 0.6141(5) -0.2929(6) 1.3051(5)
C15 C 0.3183(5) 0.6449(6) 1.2117(5)
C16 C 0.0252(5) 0.2669(5) 0.5173(4)
C17 C -0.2196(5) 0.0758(6) 0.3743(5)
C18 C 0.2477(6) 0.8450(7) 1.1874(5)
C19 C 0.3740(5) 0.6132(6) 1.3040(5)
C20 C 0.7158(5) -0.3862(7) 1.4957(5)
C21 C 0.6083(5) -0.2159(6) 1.3423(5)
C22 C -0.0943(5) 0.1338(5) 0.5503(5)
C23 C 0.2339(5) 0.4645(6) 1.1288(5)
C24 C 0.1356(5) 0.2419(6) 0.8251(4)
C25 C 0.5129(5) 0.0855(6) 1.1207(5)
C26 C -0.4154(5) 0.2199(6) 0.4152(4)
C27 C -0.0186(5) 0.2644(5) 0.4361(5)
C28 C 0.0577(5) 0.1985(5) 0.7053(4)
C29 C 0.6609(5) -0.2663(6) 1.4387(5)
C30 C 0.5715(5) -0.0344(5) 1.1815(4)
C31 C 0.4669(5) -0.0184(5) 1.3174(4)
C32 C -0.1514(5) 0.2568(5) 0.1911(5)
C33 C 0.2225(5) 0.4169(5) 0.9080(4)
C34 C 0.5489(5) 0.3307(5) 1.1091(5)
C35 C -0.4106(5) 0.1238(6) 0.4058(4)
C36 C 0.3679(5) 0.6922(7) 1.3375(5)
C37 C 0.4264(5) 0.4877(6) 1.1590(4)
C38 C 0.3381(5) 0.3907(5) 1.1135(4)
C39 C 0.0053(6) 0.2210(6) 0.0983(5)
C40 C 0.2541(6) 0.7646(6) 1.1564(5)
C41 C -0.3228(5) 0.2438(5) 0.4037(4)
C42 C -0.3133(5) 0.0526(6) 0.3844(5)
C43 C 0.6691(6) -0.4134(7) 1.3604(6)
C44 C 0.1248(5) 0.4561(6) 1.1178(5)
C45 C 0.0849(5) 0.1114(6) 0.8025(5)
C46 C 0.5504(5) 0.1330(6) 1.0173(4)
C47 C -0.1084(6) 0.2626(6) 0.1015(5)
C48 C 0.1292(5) 0.1369(6) 0.8692(5)
C49 C 0.0758(5) 0.1736(5) 0.1863(5)
C50 C 0.1829(5) 0.2890(6) 0.8717(4)
C51 C 0.0340(5) 0.1674(5) 0.2758(5)
C52 C 0.4075(5) 0.1020(6) 1.2587(5)
B1 B 0.3504(5) 0.2890(7) 1.0874(6)
C53 C -0.0507(4) 0.1369(5) 0.6305(4)
C54 C 0.3189(5) 0.1710(5) 1.3043(4)
H1 H 0.4513(5) -0.0532(5) 1.3833(4)
H2 H 0.6270(5) -0.0796(5) 1.1555(4)
H3 H 0.1605(5) 0.5942(5) 1.1721(4)
H4 H 0.4908(5) 0.4962(6) 1.1684(4)
H5 H -0.0621(4) 0.0937(5) 0.6959(4)
H6 H -0.1337(5) 0.0881(5) 0.5623(5)
H7 H -0.0068(5) 0.3071(5) 0.3706(5)
H8 H 0.0652(5) 0.3119(5) 0.5056(4)
H9 H 0.0828(5) 0.1351(5) 0.3343(5)
H10 H 0.1531(5) 0.1453(5) 0.1848(5)
H11 H 0.0345(6) 0.2245(6) 0.0380(5)
H12 H -0.1569(6) 0.2950(6) 0.0428(5)
H13 H -0.2288(5) 0.2853(5) 0.1923(5)
H14 H -0.3262(5) 0.3088(5) 0.4098(4)
H15 H -0.4814(5) 0.2684(6) 0.4293(4)
H16 H -0.4733(5) 0.1073(6) 0.4139(4)
H17 H -0.3105(5) -0.0113(6) 0.3768(5)
H18 H -0.1531(5) 0.0265(6) 0.3614(5)
H19 H 0.1263(5) 0.4648(6) 0.7783(5)
H20 H 0.2189(5) 0.4894(5) 0.8969(4)
H21 H 0.5968(10) 0.3706(14) 1.096(3)
H22 H 0.5820(13) 0.2561(12) 1.1677(11)
H23 H 0.5402(6) 0.319(3) 1.0513(16)
H24 H 0.0898(17) 0.449(4) 1.1785(13)
H25 H 0.0754(14) 0.5258(16) 1.0610(19)
H26 H 0.1400(6) 0.388(2) 1.107(3)
H27 H 0.0753(5) 0.0428(6) 0.8225(5)
H28 H 0.4978(16) 0.2130(10) 0.9774(10)
H29 H 0.6235(14) 0.130(3) 1.0250(5)
H30 H 0.554(3) 0.0861(17) 0.9840(11)
H31 H 0.1521(5) 0.0859(6) 0.9379(5)
H32 H 0.3402(13) 0.2265(18) 1.310(2)
H33 H 0.2484(7) 0.212(2) 1.2616(12)
H34 H 0.3114(18) 0.1184(6) 1.3704(10)
loop_
_geom_bond_atom_site_label_1
_geom_bond_atom_site_label_2
_geom_bond_site_symmetry_1
_geom_bond_site_symmetry_2
S1 C5 1_555 1_555
S2 C24 1_555 1_555
F1 C19 1_555 1_555
F2 C11 1_555 1_555
F3 C29 1_555 1_555
F4 C40 1_555 1_555
F5 C14 1_555 1_555
F6 C43 1_555 1_555
F7 C18 1_555 1_555
F8 C36 1_555 1_555
F9 C20 1_555 1_555
F10 C12 1_555 1_555
N1 C1 1_555 1_555
C1 C22 1_555 1_555
C2 C21 1_555 1_555
C3 C34 1_555 1_555
C4 C8 1_555 1_555
C5 C33 1_555 1_555
C6 N1 1_555 1_555
C7 N1 1_555 1_555
C8 C23 1_555 1_555
C9 C16 1_555 1_555
C10 C33 1_555 1_555
C11 C18 1_555 1_555
C12 C20 1_555 1_555
C13 C25 1_555 1_555
C14 C21 1_555 1_555
C15 C4 1_555 1_555
C16 C27 1_555 1_555
C17 C7 1_555 1_555
C18 C40 1_555 1_555
C19 C15 1_555 1_555
C20 C29 1_555 1_555
C21 C29 1_555 1_555
C22 C53 1_555 1_555
C23 C38 1_555 1_555
C24 C48 1_555 1_555
C25 C30 1_555 1_555
C26 C35 1_555 1_555
C27 C1 1_555 1_555
C28 S2 1_555 1_555
C30 C2 1_555 1_555
C31 C2 1_555 1_555
C32 C6 1_555 1_555
C33 H20 1_555 1_555
C34 H21 1_555 1_555
C35 C42 1_555 1_555
C36 C11 1_555 1_555
C37 C3 1_555 1_555
C38 C3 1_555 1_555
C39 C47 1_555 1_555
C40 C15 1_555 1_555
C41 C7 1_555 1_555
C42 C17 1_555 1_555
C43 C12 1_555 1_555
C44 C23 1_555 1_555
C45 C28 1_555 1_555
C46 C25 1_555 1_555
C47 C32 1_555 1_555
C48 C45 1_555 1_555
C49 C39 1_555 1_555
C50 S1 1_555 1_555
C51 C6 1_555 1_555
C52 C13 1_555 1_555
B1 C5 1_555 1_555
C53 C9 1_555 1_555
C54 C52 1_555 1_555
H1 C31 1_555 1_555
H2 C30 1_555 1_555
H3 C8 1_555 1_555
H4 C37 1_555 1_555
H5 C53 1_555 1_555
H6 C22 1_555 1_555
H7 C27 1_555 1_555
H8 C16 1_555 1_555
H9 C51 1_555 1_555
H10 C49 1_555 1_555
H11 C39 1_555 1_555
H12 C47 1_555 1_555
H13 C32 1_555 1_555
H14 C41 1_555 1_555
H15 C26 1_555 1_555
H16 C35 1_555 1_555
H17 C42 1_555 1_555
H18 C17 1_555 1_555
H19 C10 1_555 1_555
H22 C34 1_555 1_555
H23 C34 1_555 1_555
H24 C44 1_555 1_555
H25 C44 1_555 1_555
H26 C44 1_555 1_555
H27 C45 1_555 1_555
H28 C46 1_555 1_555
H29 C46 1_555 1_555
H30 C46 1_555 1_555
H31 C48 1_555 1_555
H32 C54 1_555 1_555
H33 C54 1_555 1_555
H34 C54 1_555 1_555
C4 C37 1_555 1_555
C9 C28 1_555 1_555
C10 C50 1_555 1_555
C13 B1 1_555 1_555
C14 C43 1_555 1_555
C19 C36 1_555 1_555
C24 C50 1_555 1_555
C26 C41 1_555 1_555
C31 C52 1_555 1_555
C38 B1 1_555 1_555
C49 C51 1_555 1_555

#END
