
#######################################################################
#
#                 Cambridge Crystallographic Data Centre
#                                CCDC 
#
#######################################################################
#
# If this CIF has been generated from an entry in the Cambridge 
# Structural Database, then it will include bibliographic, chemical, 
# crystal, experimental, refinement or atomic coordinate data resulting 
# from the CCDC's data processing and validation procedures.
#
#######################################################################

data_XOVYAI
_chemical_formula_moiety         'C44 H52 N2 O6 2+,2(C2 F3 O2 1-),H2 O1'
_chemical_name_systematic        
'4,13-bis(2-(9-Anthryloxy)ethyl)-4,13-diazonia-[18]crown-6 bis(trifluoroacetate) monohydrate'
_symmetry_cell_setting           triclinic
_symmetry_space_group_name_H-M   'P -1'
_symmetry_Int_Tables_number      2
_space_group_name_Hall           '-P 1'
loop_
_symmetry_equiv_pos_site_id
_symmetry_equiv_pos_as_xyz
1 x,y,z
2 -x,-y,-z
_cell_length_a                   11.352(2)
_cell_length_b                   12.894(3)
_cell_length_c                   17.223(3)
_cell_angle_alpha                68.61(3)
_cell_angle_beta                 83.13(3)
_cell_angle_gamma                80.13(3)
_cell_volume                     2308.1
_exptl_crystal_colour            yellow
_exptl_crystal_description       block
_cell_formula_units_Z            2
loop_
_atom_site_label
_atom_site_type_symbol
_atom_site_fract_x
_atom_site_fract_y
_atom_site_fract_z
O1 O 0.33356(13) 0.19134(11) 0.01881(8)
O2 O 0.07446(12) 0.33072(12) -0.10202(8)
O3 O -0.12758(12) 0.38829(11) -0.00986(9)
N1 N 0.26511(17) 0.44281(14) -0.07671(10)
H1 H 0.332(2) 0.453(2) -0.0735(16)
C1 C 0.32363(19) 0.27898(16) 0.05355(12)
H2 H 0.4002 0.3063 0.0458
H3 H 0.3026 0.2488 0.1131
C2 C 0.22925(18) 0.37493(16) 0.01168(12)
H4 H 0.1564 0.3448 0.0121
H5 H 0.2115 0.4243 0.0439
C3 C 0.27186(18) 0.38210(18) -0.13787(12)
H6 H 0.3249 0.4167 -0.1855
H7 H 0.3075 0.3048 -0.1112
C4 C 0.15438(18) 0.38177(18) -0.16918(12)
H8 H 0.1198 0.4584 -0.1991
H9 H 0.1672 0.3410 -0.2077
C5 C -0.04399(19) 0.34533(19) -0.12758(14)
H10 H -0.0471 0.2994 -0.1609
H11 H -0.0679 0.4234 -0.1612
C6 C -0.12602(19) 0.31116(17) -0.05134(15)
H12 H -0.2060 0.3126 -0.0665
H13 H -0.0979 0.2355 -0.0151
C7 C -0.20471(19) 0.36697(18) 0.06326(14)
H14 H -0.1859 0.2895 0.0999
H15 H -0.2872 0.3788 0.0488
C8 C 0.18896(19) 0.55470(17) -0.10710(13)
H16 H 0.2078 0.5904 -0.1665
H17 H 0.1055 0.5431 -0.0997
C9 C 0.35874(18) 0.08365(15) 0.07489(11)
C10 C 0.47828(17) 0.03688(16) 0.09008(12)
C11 C 0.57697(19) 0.09558(18) 0.04884(13)
H18 H 0.5630 0.1679 0.0098
C12 C 0.6908(2) 0.0464(2) 0.06640(16)
H19 H 0.7546 0.0847 0.0385
C13 C 0.7140(2) -0.0639(2) 0.12742(17)
H20 H 0.7925 -0.0961 0.1397
C14 C 0.6233(2) -0.1215(2) 0.16714(15)
H21 H 0.6401 -0.1927 0.2072
C15 C 0.50142(19) -0.07590(16) 0.14936(12)
C16 C 0.4069(2) -0.13515(16) 0.18677(12)
H22 H 0.4229 -0.2083 0.2243
C17 C 0.28860(19) -0.08915(16) 0.17025(12)
C18 C 0.1894(2) -0.1482(2) 0.21060(15)
H23 H 0.2038 -0.2215 0.2480
C19 C 0.0752(2) -0.0991(2) 0.19523(18)
H24 H 0.0122 -0.1384 0.2233
C20 C 0.0509(2) 0.0109(2) 0.13709(18)
H25 H -0.0281 0.0431 0.1266
C21 C 0.1410(2) 0.07031(19) 0.09645(15)
H26 H 0.1234 0.1422 0.0574
C22 C 0.26295(18) 0.02370(16) 0.11282(12)
C8A C -0.18896(19) 0.44530(17) 0.10710(13)
N1A N -0.26511(17) 0.55719(14) 0.07671(10)
H1A H -0.332(2) 0.547(2) 0.0735(16)
C2A C -0.22925(18) 0.62507(16) -0.01168(12)
C1A C -0.32363(19) 0.72102(16) -0.05355(12)
O1A O -0.33356(13) 0.80866(11) -0.01881(8)
C9A C -0.35874(18) 0.91635(15) -0.07489(11)
C10A C -0.47828(17) 0.96312(16) -0.09008(12)
C11A C -0.57697(19) 0.90442(18) -0.04884(13)
H18A H -0.5630 0.8321 -0.0098
C12A C -0.6908(2) 0.9536(2) -0.06640(16)
H19A H -0.7546 0.9153 -0.0385
C13A C -0.7140(2) 1.0639(2) -0.12742(17)
H20A H -0.7925 1.0961 -0.1397
C14A C -0.6233(2) 1.1215(2) -0.16714(15)
H21A H -0.6401 1.1927 -0.2072
C15A C -0.50142(19) 1.07590(16) -0.14936(12)
C16A C -0.4069(2) 1.13515(16) -0.18677(12)
H22A H -0.4229 1.2083 -0.2243
C17A C -0.28860(19) 1.08915(16) -0.17025(12)
C18A C -0.1894(2) 1.1482(2) -0.21060(15)
H23A H -0.2038 1.2215 -0.2480
C19A C -0.0752(2) 1.0991(2) -0.19523(18)
H24A H -0.0122 1.1384 -0.2233
C20A C -0.0509(2) 0.9891(2) -0.13709(18)
H25A H 0.0281 0.9569 -0.1266
C21A C -0.1410(2) 0.92969(19) -0.09645(15)
H26A H -0.1234 0.8578 -0.0574
C22A C -0.26295(18) 0.97630(16) -0.11282(12)
H2A H -0.4002 0.6937 -0.0458
H3A H -0.3026 0.7512 -0.1131
H4A H -0.1564 0.6552 -0.0121
H5A H -0.2115 0.5757 -0.0439
C3A C -0.27186(18) 0.61790(18) 0.13787(12)
H6A H -0.3249 0.5833 0.1855
H7A H -0.3075 0.6952 0.1112
C4A C -0.15438(18) 0.61823(18) 0.16918(12)
O2A O -0.07446(12) 0.66928(12) 0.10202(8)
C5A C 0.04399(19) 0.65467(19) 0.12758(14)
H10A H 0.0471 0.7006 0.1609
H11A H 0.0679 0.5766 0.1612
C6A C 0.12602(19) 0.68884(17) 0.05134(15)
O3A O 0.12758(12) 0.61171(11) 0.00986(9)
C7A C 0.20471(19) 0.63303(18) -0.06326(14)
H14A H 0.1859 0.7105 -0.0999
H15A H 0.2872 0.6212 -0.0488
H12A H 0.2060 0.6874 0.0665
H13A H 0.0979 0.7645 0.0151
H8A H -0.1198 0.5416 0.1991
H9A H -0.1672 0.6590 0.2077
H16A H -0.2078 0.4096 0.1665
H17A H -0.1055 0.4569 0.0997
O4 O 0.23186(11) 0.20922(10) 0.55338(8)
O5 O 0.37945(11) -0.08620(10) 0.45490(8)
O6 O 0.49665(11) 0.02825(10) 0.30501(8)
H27 H 0.2246(19) -0.1165(17) 0.6385(13)
N2 N 0.30865(13) -0.09806(12) 0.63800(9)
C23 C 0.24422(17) 0.10364(14) 0.62148(11)
H28 H 0.1664 0.0820 0.6453
H29 H 0.2885 0.1075 0.6649
C24 C 0.31257(16) 0.02139(14) 0.58237(11)
H30 H 0.2787 0.0341 0.5300
H31 H 0.3954 0.0350 0.5701
C25 C 0.38441(16) -0.18024(14) 0.60211(11)
H32 H 0.4660 -0.1630 0.5911
H33 H 0.3857 -0.2556 0.6431
C26 C 0.33918(16) -0.17740(15) 0.52258(11)
H34 H 0.3688 -0.2475 0.5134
H35 H 0.2523 -0.1686 0.5268
C27 C 0.33682(16) -0.07278(16) 0.37700(11)
H36 H 0.2506 -0.0712 0.3822
H37 H 0.3730 -0.1351 0.3594
C28 C 0.36954(16) 0.03518(15) 0.31450(12)
H38 H 0.3377 0.0488 0.2613
H39 H 0.3357 0.0970 0.3333
C29 C 0.53551(18) 0.13321(15) 0.25832(12)
H40 H 0.4878 0.1917 0.2759
H41 H 0.5255 0.1516 0.1994
C30 C 0.33510(16) -0.12711(15) 0.72811(11)
H42 H 0.2884 -0.0711 0.7488
H43 H 0.3090 -0.1991 0.7609
C31 C 0.19248(16) 0.30054(14) 0.57886(11)
C32 C 0.06992(16) 0.33703(14) 0.58457(11)
C33 C -0.01797(17) 0.28307(15) 0.56672(12)
H44 H 0.0055 0.2202 0.5513
C34 C -0.13599(18) 0.32388(17) 0.57235(13)
H45 H -0.1925 0.2883 0.5604
C35 C -0.17493(17) 0.41848(17) 0.59574(12)
H46 H -0.2564 0.4444 0.5992
C36 C -0.09479(16) 0.47220(16) 0.61325(11)
H47 H -0.1219 0.5343 0.6291
C37 C 0.03112(15) 0.43462(14) 0.60774(11)
C38 C 0.11550(16) 0.49023(14) 0.62299(11)
H48 H 0.0899 0.5534 0.6377
C39 C 0.23808(15) 0.45288(14) 0.61662(11)
C40 C 0.32548(16) 0.50947(15) 0.63222(12)
H49 H 0.3006 0.5719 0.6480
C41 C 0.44441(17) 0.47325(17) 0.62437(13)
H50 H 0.5002 0.5109 0.6347
C42 C 0.48372(17) 0.37805(16) 0.60044(13)
H51 H 0.5653 0.3544 0.5946
C43 C 0.40383(16) 0.32088(15) 0.58598(12)
H52 H 0.4313 0.2582 0.5710
C44 C 0.27819(15) 0.35617(14) 0.59358(11)
C30A C 0.66490(16) 0.12711(15) 0.27189(11)
N2A N 0.69135(13) 0.09806(12) 0.36200(9)
H27A H 0.7754(19) 0.1165(17) 0.3615(13)
C24A C 0.68743(16) -0.02139(14) 0.41763(11)
C23A C 0.75578(17) -0.10364(14) 0.37852(11)
O4A O 0.76814(11) -0.20922(10) 0.44662(8)
C31A C 0.80752(16) -0.30054(14) 0.42114(11)
C32A C 0.93008(16) -0.33703(14) 0.41543(11)
C33A C 1.01797(17) -0.28307(15) 0.43328(12)
H44A H 0.9945 -0.2202 0.4487
C34A C 1.13599(18) -0.32388(17) 0.42765(13)
H45A H 1.1925 -0.2883 0.4396
C35A C 1.17493(17) -0.41848(17) 0.40426(12)
H46A H 1.2564 -0.4444 0.4008
C36A C 1.09479(16) -0.47220(16) 0.38675(11)
H47A H 1.1219 -0.5343 0.3709
C37A C 0.96888(15) -0.43462(14) 0.39226(11)
C38A C 0.88450(16) -0.49023(14) 0.37701(11)
H48A H 0.9101 -0.5534 0.3623
C39A C 0.76192(15) -0.45288(14) 0.38338(11)
C40A C 0.67452(16) -0.50947(15) 0.36778(12)
H49A H 0.6994 -0.5719 0.3520
C41A C 0.55559(17) -0.47325(17) 0.37563(13)
H50A H 0.4998 -0.5109 0.3653
C42A C 0.51628(17) -0.37805(16) 0.39956(13)
H51A H 0.4347 -0.3544 0.4054
C43A C 0.59617(16) -0.32088(15) 0.41402(12)
H52A H 0.5687 -0.2582 0.4290
C44A C 0.72181(15) -0.35617(14) 0.40642(11)
H28A H 0.8336 -0.0820 0.3547
H29A H 0.7115 -0.1075 0.3351
H30A H 0.7213 -0.0341 0.4700
H31A H 0.6046 -0.0350 0.4299
C25A C 0.61559(16) 0.18024(14) 0.39789(11)
H32A H 0.5340 0.1630 0.4089
H33A H 0.6143 0.2556 0.3569
C26A C 0.66082(16) 0.17740(15) 0.47742(11)
O5A O 0.62055(11) 0.08620(10) 0.54510(8)
C27A C 0.66318(16) 0.07278(16) 0.62300(11)
H36A H 0.7494 0.0712 0.6178
H37A H 0.6270 0.1351 0.6406
C28A C 0.63046(16) -0.03518(15) 0.68550(12)
O6A O 0.50335(11) -0.02825(10) 0.69499(8)
C29A C 0.46449(18) -0.13321(15) 0.74168(12)
H40A H 0.5122 -0.1917 0.7241
H41A H 0.4745 -0.1516 0.8006
H38A H 0.6623 -0.0488 0.7387
H39A H 0.6643 -0.0970 0.6667
H34A H 0.6312 0.2475 0.4866
H35A H 0.7477 0.1686 0.4732
H42A H 0.7116 0.0711 0.2512
H43A H 0.6910 0.1991 0.2391
C45 C 1.0603(2) 0.2476(2) 0.2848(2)
C46 C 0.93480(18) 0.21725(16) 0.31312(12)
F1 F 1.12680(15) 0.1867(2) 0.25001(17)
F2 F 1.06340(19) 0.35414(19) 0.2551(3)
F3 F 1.12497(18) 0.2292(3) 0.35110(19)
O7 O 0.85211(12) 0.29581(12) 0.29873(10)
O8 O 0.92754(14) 0.11501(13) 0.34928(11)
C47 C 0.36452(18) 0.46455(18) 0.21248(14)
C48 C 0.48809(19) 0.46469(16) 0.17046(13)
F4 F 0.31651(13) 0.56600(13) 0.21553(11)
F5 F 0.28808(13) 0.43969(17) 0.17092(11)
F6 F 0.35610(12) 0.39455(13) 0.29150(9)
O9 O 0.49871(14) 0.53648(15) 0.10043(10)
O10 O 0.56843(13) 0.39512(12) 0.21291(11)
O11 O 0.9340(4) 0.0411(5) 0.5211(3)
F7? F 1.0548(5) 0.3011(8) 0.1907(5)
loop_
_geom_bond_atom_site_label_1
_geom_bond_atom_site_label_2
_geom_bond_site_symmetry_1
_geom_bond_site_symmetry_2
O1 C1 1_555 1_555
O2 C4 1_555 1_555
O3 C6 1_555 1_555
N1 H1 1_555 1_555
C1 H2 1_555 1_555
H3 C1 1_555 1_555
C2 N1 1_555 1_555
H4 C2 1_555 1_555
H5 C2 1_555 1_555
C3 N1 1_555 1_555
H6 C3 1_555 1_555
H7 C3 1_555 1_555
C4 C3 1_555 1_555
H8 C4 1_555 1_555
H9 C4 1_555 1_555
C5 O2 1_555 1_555
H10 C5 1_555 1_555
H11 C5 1_555 1_555
C6 C5 1_555 1_555
H12 C6 1_555 1_555
H13 C6 1_555 1_555
C7 O3 1_555 1_555
H14 C7 1_555 1_555
H15 C7 1_555 1_555
C8 N1 1_555 1_555
H16 C8 1_555 1_555
H17 C8 1_555 1_555
C9 O1 1_555 1_555
C10 C9 1_555 1_555
C11 C10 1_555 1_555
H18 C11 1_555 1_555
C12 C11 1_555 1_555
H19 C12 1_555 1_555
C13 C12 1_555 1_555
H20 C13 1_555 1_555
C14 C13 1_555 1_555
H21 C14 1_555 1_555
C15 C10 1_555 1_555
C16 C15 1_555 1_555
H22 C16 1_555 1_555
C17 C16 1_555 1_555
C18 C17 1_555 1_555
H23 C18 1_555 1_555
C19 C18 1_555 1_555
H24 C19 1_555 1_555
C20 C19 1_555 1_555
H25 C20 1_555 1_555
C21 C20 1_555 1_555
H26 C21 1_555 1_555
C22 C9 1_555 1_555
O4 C23 1_555 1_555
O5 C26 1_555 1_555
O6 C28 1_555 1_555
H27 N2 1_555 1_555
N2 C24 1_555 1_555
C23 H28 1_555 1_555
H29 C23 1_555 1_555
C24 C23 1_555 1_555
H30 C24 1_555 1_555
H31 C24 1_555 1_555
C25 N2 1_555 1_555
H32 C25 1_555 1_555
H33 C25 1_555 1_555
C26 C25 1_555 1_555
H34 C26 1_555 1_555
H35 C26 1_555 1_555
C27 O5 1_555 1_555
H36 C27 1_555 1_555
H37 C27 1_555 1_555
C28 C27 1_555 1_555
H38 C28 1_555 1_555
H39 C28 1_555 1_555
C29 O6 1_555 1_555
H40 C29 1_555 1_555
H41 C29 1_555 1_555
C30 N2 1_555 1_555
H42 C30 1_555 1_555
H43 C30 1_555 1_555
C31 O4 1_555 1_555
C32 C31 1_555 1_555
C33 C32 1_555 1_555
H44 C33 1_555 1_555
C34 C33 1_555 1_555
H45 C34 1_555 1_555
C35 C34 1_555 1_555
H46 C35 1_555 1_555
C36 C35 1_555 1_555
H47 C36 1_555 1_555
C37 C32 1_555 1_555
C38 C37 1_555 1_555
H48 C38 1_555 1_555
C39 C38 1_555 1_555
C40 C39 1_555 1_555
H49 C40 1_555 1_555
C41 C40 1_555 1_555
H50 C41 1_555 1_555
C42 C41 1_555 1_555
H51 C42 1_555 1_555
C43 C42 1_555 1_555
H52 C43 1_555 1_555
C44 C31 1_555 1_555
C45 C46 1_555 1_555
C46 O7 1_555 1_555
F1 C45 1_555 1_555
F2 C45 1_555 1_555
F3 C45 1_555 1_555
O8 C46 1_555 1_555
C47 C48 1_555 1_555
C48 O9 1_555 1_555
F4 C47 1_555 1_555
F5 C47 1_555 1_555
F6 C47 1_555 1_555
O10 C48 1_555 1_555
C8A C7 1_555 1_555
N1A C8A 1_555 1_555
H1A N1A 1_555 1_555
C2A N1A 1_555 1_555
C1A C2A 1_555 1_555
O1A C1A 1_555 1_555
C9A O1A 1_555 1_555
C10A C9A 1_555 1_555
C11A C10A 1_555 1_555
H18A C11A 1_555 1_555
C12A C11A 1_555 1_555
H19A C12A 1_555 1_555
C13A C12A 1_555 1_555
H20A C13A 1_555 1_555
C14A C13A 1_555 1_555
H21A C14A 1_555 1_555
C15A C10A 1_555 1_555
C16A C15A 1_555 1_555
H22A C16A 1_555 1_555
C17A C16A 1_555 1_555
C18A C17A 1_555 1_555
H23A C18A 1_555 1_555
C19A C18A 1_555 1_555
H24A C19A 1_555 1_555
C20A C19A 1_555 1_555
H25A C20A 1_555 1_555
C21A C20A 1_555 1_555
H26A C21A 1_555 1_555
C22A C9A 1_555 1_555
H2A C1A 1_555 1_555
H3A C1A 1_555 1_555
H4A C2A 1_555 1_555
H5A C2A 1_555 1_555
C3A N1A 1_555 1_555
H6A C3A 1_555 1_555
H7A C3A 1_555 1_555
C4A C3A 1_555 1_555
O2A C4A 1_555 1_555
C5A O2A 1_555 1_555
H10A C5A 1_555 1_555
H11A C5A 1_555 1_555
C6A C5A 1_555 1_555
O3A C6A 1_555 1_555
C7A C8 1_555 1_555
H14A C7A 1_555 1_555
H15A C7A 1_555 1_555
H12A C6A 1_555 1_555
H13A C6A 1_555 1_555
H8A C4A 1_555 1_555
H9A C4A 1_555 1_555
H16A C8A 1_555 1_555
H17A C8A 1_555 1_555
C30A C29 1_555 1_555
N2A C30A 1_555 1_555
H27A N2A 1_555 1_555
C24A N2A 1_555 1_555
C23A C24A 1_555 1_555
O4A C23A 1_555 1_555
C31A O4A 1_555 1_555
C32A C31A 1_555 1_555
C33A C32A 1_555 1_555
H44A C33A 1_555 1_555
C34A C33A 1_555 1_555
H45A C34A 1_555 1_555
C35A C34A 1_555 1_555
H46A C35A 1_555 1_555
C36A C35A 1_555 1_555
H47A C36A 1_555 1_555
C37A C32A 1_555 1_555
C38A C37A 1_555 1_555
H48A C38A 1_555 1_555
C39A C38A 1_555 1_555
C40A C39A 1_555 1_555
H49A C40A 1_555 1_555
C41A C40A 1_555 1_555
H50A C41A 1_555 1_555
C42A C41A 1_555 1_555
H51A C42A 1_555 1_555
C43A C42A 1_555 1_555
H52A C43A 1_555 1_555
C44A C31A 1_555 1_555
H28A C23A 1_555 1_555
H29A C23A 1_555 1_555
H30A C24A 1_555 1_555
H31A C24A 1_555 1_555
C25A N2A 1_555 1_555
H32A C25A 1_555 1_555
H33A C25A 1_555 1_555
C26A C25A 1_555 1_555
O5A C26A 1_555 1_555
C27A O5A 1_555 1_555
H36A C27A 1_555 1_555
H37A C27A 1_555 1_555
C28A C27A 1_555 1_555
O6A C28A 1_555 1_555
C29A C30 1_555 1_555
H40A C29A 1_555 1_555
H41A C29A 1_555 1_555
H38A C28A 1_555 1_555
H39A C28A 1_555 1_555
H34A C26A 1_555 1_555
H35A C26A 1_555 1_555
H42A C30A 1_555 1_555
H43A C30A 1_555 1_555
C1 C2 1_555 1_555
C14 C15 1_555 1_555
C17 C22 1_555 1_555
C21 C22 1_555 1_555
C36 C37 1_555 1_555
C39 C44 1_555 1_555
C43 C44 1_555 1_555
C14A C15A 1_555 1_555
C17A C22A 1_555 1_555
C21A C22A 1_555 1_555
O3A C7A 1_555 1_555
C36A C37A 1_555 1_555
C39A C44A 1_555 1_555
C43A C44A 1_555 1_555
O6A C29A 1_555 1_555

#END
