
#######################################################################
#
#                 Cambridge Crystallographic Data Centre
#                                CCDC 
#
#######################################################################
#
# If this CIF has been generated from an entry in the Cambridge 
# Structural Database, then it will include bibliographic, chemical, 
# crystal, experimental, refinement or atomic coordinate data resulting 
# from the CCDC's data processing and validation procedures.
#
#######################################################################

data_XOVZUE
_chemical_formula_moiety         'C18 H14 Cl1 N1 O3'
_chemical_name_systematic        
(1S*,12bS*)-Spiro(11-chloroazeto[1,2-d]dibenzo[b,f][1,4]oxazepine-1,2'-(2-oxacyclopentane))-2(12bH)-one
_symmetry_cell_setting           monoclinic
_symmetry_space_group_name_H-M   'P 21/n'
_symmetry_Int_Tables_number      14
_space_group_name_Hall           '-P 2yn'
loop_
_symmetry_equiv_pos_site_id
_symmetry_equiv_pos_as_xyz
1 x,y,z
2 1/2-x,1/2+y,1/2-z
3 -x,-y,-z
4 1/2+x,1/2-y,1/2+z
_cell_length_a                   9.4768(19)
_cell_length_b                   10.580(2)
_cell_length_c                   31.161(6)
_cell_angle_alpha                90
_cell_angle_beta                 94.53(3)
_cell_angle_gamma                90
_cell_volume                     3114.58
_exptl_crystal_colour            colorless
_exptl_crystal_description       block
_chemical_melting_point          107-108deg.C
_cell_formula_units_Z            8
loop_
_atom_site_label
_atom_site_type_symbol
_atom_site_fract_x
_atom_site_fract_y
_atom_site_fract_z
Cl1 Cl 0.17561(11) 0.23719(12) 0.03334(4)
O1 O 0.5002(3) 0.4036(3) 0.19228(9)
O2 O 0.9343(3) 0.4438(3) 0.16807(9)
O3 O 0.8432(3) 0.3634(3) 0.07161(9)
N1 N 0.7404(3) 0.3052(3) 0.16195(10)
C1 C 0.8322(4) 0.3941(4) 0.14913(13)
C2 C 0.7582(4) 0.4024(4) 0.10400(12)
C3 C 0.6587(4) 0.2935(4) 0.11998(12)
H1 H 0.6801 0.2130 0.1064
C4 C 0.5012(4) 0.3108(3) 0.11998(12)
C5 C 0.4313(4) 0.3597(4) 0.15403(13)
C6 C 0.2846(4) 0.3718(4) 0.15028(14)
H2 H 0.2392 0.4048 0.1732
C7 C 0.2059(4) 0.3359(4) 0.11354(15)
H3 H 0.1078 0.3437 0.1116
C8 C 0.2735(4) 0.2884(4) 0.07977(12)
C9 C 0.4200(4) 0.2756(3) 0.08291(13)
H4 H 0.4644 0.2428 0.0598
C10 C 0.7039(4) 0.2697(4) 0.20360(12)
C11 C 0.7874(5) 0.1908(4) 0.23007(14)
H5 H 0.8683 0.1547 0.2202
C12 C 0.7507(5) 0.1649(4) 0.27172(15)
H6 H 0.8077 0.1124 0.2897
C13 C 0.6305(6) 0.2168(5) 0.28609(15)
H7 H 0.6066 0.1998 0.3139
C14 C 0.5455(5) 0.2935(4) 0.25982(13)
H8 H 0.4645 0.3290 0.2698
C15 C 0.5806(5) 0.3183(4) 0.21809(13)
C16 C 0.6926(5) 0.5251(4) 0.08997(13)
H9 H 0.7519 0.5961 0.0995
H10 H 0.5996 0.5353 0.1004
C17 C 0.6839(5) 0.5108(5) 0.04166(15)
H11 H 0.5976 0.4674 0.0314
H12 H 0.6861 0.5928 0.0277
C18 C 0.8082(5) 0.4362(5) 0.03303(14)
H13 H 0.7871 0.3809 0.0086
H14 H 0.8863 0.4910 0.0270
Cl2 Cl 0.17325(13) 0.11769(14) 0.23506(4)
O4 O 0.6261(3) -0.1322(3) 0.14712(9)
O5 O 0.4560(3) -0.2692(3) 0.02362(10)
O6 O 0.1559(3) -0.1793(3) 0.05544(9)
N2 N 0.4762(3) -0.0926(3) 0.06931(10)
C19 C 0.4170(4) -0.1995(4) 0.05095(15)
C20 C 0.2901(4) -0.1907(4) 0.07880(13)
C21 C 0.3565(4) -0.0613(4) 0.09511(12)
H15 H 0.3021 0.0094 0.0820
C22 C 0.3878(4) -0.0386(4) 0.14237(12)
C23 C 0.5136(4) -0.0733(4) 0.16622(13)
C24 C 0.5289(5) -0.0568(4) 0.21005(13)
H16 H 0.6120 -0.0828 0.2254
C25 C 0.4224(4) -0.0019(4) 0.23193(13)
H17 H 0.4321 0.0071 0.2617
C26 C 0.3028(4) 0.0387(4) 0.20843(14)
C27 C 0.2845(4) 0.0206(4) 0.16455(14)
H18 H 0.2016 0.0484 0.1495
C28 C 0.6192(4) -0.0506(4) 0.07469(13)
C29 C 0.6881(4) -0.0653(4) 0.11498(14)
C30 C 0.8264(4) -0.0233(4) 0.12306(15)
H19 H 0.8735 -0.0319 0.1502
C31 C 0.8928(5) 0.0321(4) 0.08945(15)
H20 H 0.9853 0.0609 0.0945
C32 C 0.8256(5) 0.0449(4) 0.04951(16)
H21 H 0.8727 0.0808 0.0274
C33 C 0.6882(4) 0.0047(4) 0.04181(13)
H22 H 0.6414 0.0145 0.0146
C34 C 0.2811(4) -0.2979(4) 0.11045(14)
H23 H 0.3125 -0.3770 0.0987
H24 H 0.3363 -0.2804 0.1373
C35 C 0.1247(6) -0.3000(5) 0.11630(19)
H25 H 0.0947 -0.3830 0.1252
H26 H 0.1003 -0.2381 0.1374
C36 C 0.0600(5) -0.2676(5) 0.07274(17)
H27 H 0.0498 -0.3425 0.0548
H28 H -0.0325 -0.2296 0.0745
loop_
_geom_bond_atom_site_label_1
_geom_bond_atom_site_label_2
_geom_bond_site_symmetry_1
_geom_bond_site_symmetry_2
Cl1 C8 1_555 1_555
Cl2 C26 1_555 1_555
O1 C5 1_555 1_555
O2 C1 1_555 1_555
O3 C2 1_555 1_555
O4 C23 1_555 1_555
O5 C19 1_555 1_555
O6 C20 1_555 1_555
N1 C1 1_555 1_555
N2 C19 1_555 1_555
C1 C2 1_555 1_555
C2 C3 1_555 1_555
C3 N1 1_555 1_555
H1 C3 1_555 1_555
C4 C3 1_555 1_555
C5 C4 1_555 1_555
C6 C5 1_555 1_555
H2 C6 1_555 1_555
C7 C6 1_555 1_555
H3 C7 1_555 1_555
C8 C7 1_555 1_555
C9 C4 1_555 1_555
H4 C9 1_555 1_555
C10 N1 1_555 1_555
C11 C10 1_555 1_555
H5 C11 1_555 1_555
C12 C11 1_555 1_555
H6 C12 1_555 1_555
C13 C12 1_555 1_555
H7 C13 1_555 1_555
C14 C13 1_555 1_555
H8 C14 1_555 1_555
C15 O1 1_555 1_555
C16 C2 1_555 1_555
H9 C16 1_555 1_555
H10 C16 1_555 1_555
C17 C16 1_555 1_555
H11 C17 1_555 1_555
H12 C17 1_555 1_555
C18 O3 1_555 1_555
H13 C18 1_555 1_555
H14 C18 1_555 1_555
C19 C20 1_555 1_555
C20 C21 1_555 1_555
C21 N2 1_555 1_555
H15 C21 1_555 1_555
C22 C21 1_555 1_555
C23 C22 1_555 1_555
C24 C23 1_555 1_555
H16 C24 1_555 1_555
C25 C24 1_555 1_555
H17 C25 1_555 1_555
C26 C25 1_555 1_555
C27 C22 1_555 1_555
H18 C27 1_555 1_555
C28 N2 1_555 1_555
C29 O4 1_555 1_555
C30 C29 1_555 1_555
H19 C30 1_555 1_555
C31 C30 1_555 1_555
H20 C31 1_555 1_555
C32 C31 1_555 1_555
H21 C32 1_555 1_555
C33 C28 1_555 1_555
H22 C33 1_555 1_555
C34 C20 1_555 1_555
H23 C34 1_555 1_555
H24 C34 1_555 1_555
C35 C34 1_555 1_555
H25 C35 1_555 1_555
H26 C35 1_555 1_555
C36 O6 1_555 1_555
H27 C36 1_555 1_555
H28 C36 1_555 1_555
C8 C9 1_555 1_555
C10 C15 1_555 1_555
C14 C15 1_555 1_555
C17 C18 1_555 1_555
C26 C27 1_555 1_555
C28 C29 1_555 1_555
C32 C33 1_555 1_555
C35 C36 1_555 1_555

#END
