
#######################################################################
#
#                 Cambridge Crystallographic Data Centre
#                                CCDC 
#
#######################################################################
#
# If this CIF has been generated from an entry in the Cambridge 
# Structural Database, then it will include bibliographic, chemical, 
# crystal, experimental, refinement or atomic coordinate data resulting 
# from the CCDC's data processing and validation procedures.
#
#######################################################################

data_XOWLUS
_chemical_formula_moiety         'C31 H21 B1 F10 N2 O2'
_chemical_name_systematic        
bis(Pentafluorophenyl)-(1,3-bis(4-(dimethylamino)phenyl)propan-1,3-dionato-O,O')-boron
_symmetry_cell_setting           triclinic
_symmetry_space_group_name_H-M   'P -1'
_symmetry_Int_Tables_number      2
_space_group_name_Hall           '-P 1'
loop_
_symmetry_equiv_pos_site_id
_symmetry_equiv_pos_as_xyz
1 x,y,z
2 -x,-y,-z
_cell_length_a                   9.0631(18)
_cell_length_b                   11.578(2)
_cell_length_c                   14.740(3)
_cell_angle_alpha                70.07(3)
_cell_angle_beta                 80.02(3)
_cell_angle_gamma                84.06(3)
_cell_volume                     1430.42
_exptl_crystal_colour            red
_exptl_crystal_description       block
_cell_formula_units_Z            2
loop_
_atom_site_label
_atom_site_type_symbol
_atom_site_fract_x
_atom_site_fract_y
_atom_site_fract_z
B1 B 0.4138(3) 0.6763(3) 0.2197(2)
O1 O 0.3167(2) 0.73858(15) 0.14297(12)
O2 O 0.4279(2) 0.76142(16) 0.27425(12)
N1 N 0.0132(3) 1.0397(2) -0.22692(16)
N2 N 0.6946(3) 1.1416(2) 0.41570(19)
C1 C 0.1940(3) 0.8249(2) -0.02594(18)
H1 H 0.2098 0.7405 0.0027
C2 C 0.1185(3) 0.8687(3) -0.10450(19)
H2 H 0.0843 0.8131 -0.1283
C3 C 0.0912(3) 0.9948(3) -0.14999(17)
C4 C 0.1473(3) 1.0756(2) -0.11218(19)
H3 H 0.1335 1.1601 -0.1415
C5 C 0.2215(3) 1.0311(2) -0.03306(19)
H4 H 0.2551 1.0865 -0.0088
C6 C 0.2483(3) 0.9057(2) 0.01242(17)
C7 C 0.3241(3) 0.8571(2) 0.09652(17)
C8 C 0.4004(3) 0.9287(2) 0.13211(18)
H5 H 0.4222 1.0092 0.0941
C9 C 0.4430(3) 0.8787(2) 0.22379(18)
C10 C 0.5047(3) 0.9484(2) 0.27310(17)
C11 C 0.4997(3) 1.0767(2) 0.24067(19)
H6 H 0.4550 1.1199 0.1858
C12 C 0.5591(3) 1.1408(3) 0.2876(2)
H7 H 0.5515 1.2263 0.2650
C13 C 0.6315(3) 1.0789(3) 0.36975(19)
C14 C 0.6372(3) 0.9493(3) 0.4020(2)
H8 H 0.6840 0.9055 0.4559
C15 C 0.5750(3) 0.8866(2) 0.35521(19)
H9 H 0.5795 0.8010 0.3785
C16 C -0.0520(4) 0.9560(3) -0.2625(2)
H10 H 0.0269 0.9116 -0.2912
H11 H -0.1138 1.0025 -0.3106
H12 H -0.1119 0.8991 -0.2090
C17 C -0.0003(4) 1.1702(3) -0.2796(2)
H13 H -0.0529 1.2119 -0.2364
H14 H -0.0548 1.1835 -0.3329
H15 H 0.0979 1.2016 -0.3044
C18 C 0.6839(6) 1.2739(3) 0.3836(3)
H16 H 0.7285 1.3056 0.3165
H17 H 0.7358 1.3025 0.4228
H18 H 0.5803 1.3017 0.3902
C19 C 0.7693(4) 1.0776(3) 0.4994(2)
H19 H 0.7005 1.0251 0.5499
H20 H 0.8033 1.1364 0.5230
H21 H 0.8537 1.0289 0.4808
C20 C 0.5836(3) 0.6440(2) 0.1729(2)
F1 F 0.5510(2) 0.71687(18) 0.00587(12)
C21 C 0.6397(3) 0.6646(3) 0.0756(2)
F2 F 0.8344(3) 0.6649(2) -0.05382(17)
C22 C 0.7879(4) 0.6388(3) 0.0423(3)
F3 F 1.0288(2) 0.5614(2) 0.0769(2)
C23 C 0.8847(3) 0.5871(3) 0.1083(3)
F4 F 0.9310(2) 0.5144(2) 0.27001(19)
C24 C 0.8356(4) 0.5635(3) 0.2055(3)
F5 F 0.6461(2) 0.56781(18) 0.33273(13)
C25 C 0.6887(3) 0.5925(3) 0.2347(2)
C26 C 0.3274(3) 0.5542(2) 0.29186(19)
F6 F 0.2780(3) 0.6112(2) 0.43410(14)
C27 C 0.2670(4) 0.5301(3) 0.3884(2)
C28 C 0.1897(4) 0.4278(3) 0.4431(2)
F7 F 0.1324(3) 0.4106(3) 0.53674(14)
F8 F 0.0917(3) 0.24250(19) 0.45387(17)
C29 C 0.1703(4) 0.3424(3) 0.4020(3)
F9 F 0.2054(3) 0.27846(19) 0.26479(18)
C30 C 0.2273(3) 0.3603(3) 0.3065(3)
F10 F 0.3601(2) 0.47806(18) 0.15947(14)
C31 C 0.3048(3) 0.4640(3) 0.2543(2)
loop_
_geom_bond_atom_site_label_1
_geom_bond_atom_site_label_2
_geom_bond_site_symmetry_1
_geom_bond_site_symmetry_2
B1 O1 1_555 1_555
O1 C7 1_555 1_555
O2 B1 1_555 1_555
N1 C3 1_555 1_555
N2 C13 1_555 1_555
C1 H1 1_555 1_555
C2 C1 1_555 1_555
H2 C2 1_555 1_555
C3 C2 1_555 1_555
C4 C3 1_555 1_555
H3 C4 1_555 1_555
C5 C4 1_555 1_555
H4 C5 1_555 1_555
C6 C1 1_555 1_555
C7 C6 1_555 1_555
C8 C7 1_555 1_555
H5 C8 1_555 1_555
C9 O2 1_555 1_555
C10 C9 1_555 1_555
C11 C10 1_555 1_555
H6 C11 1_555 1_555
C12 C11 1_555 1_555
H7 C12 1_555 1_555
C13 C12 1_555 1_555
C14 C13 1_555 1_555
H8 C14 1_555 1_555
C15 C10 1_555 1_555
H9 C15 1_555 1_555
C16 N1 1_555 1_555
H10 C16 1_555 1_555
H11 C16 1_555 1_555
H12 C16 1_555 1_555
C17 N1 1_555 1_555
H13 C17 1_555 1_555
H14 C17 1_555 1_555
H15 C17 1_555 1_555
C18 N2 1_555 1_555
H16 C18 1_555 1_555
H17 C18 1_555 1_555
H18 C18 1_555 1_555
C19 N2 1_555 1_555
H19 C19 1_555 1_555
H20 C19 1_555 1_555
H21 C19 1_555 1_555
C20 B1 1_555 1_555
F1 C21 1_555 1_555
C21 C20 1_555 1_555
F2 C22 1_555 1_555
C22 C21 1_555 1_555
F3 C23 1_555 1_555
C23 C22 1_555 1_555
F4 C24 1_555 1_555
C24 C23 1_555 1_555
F5 C25 1_555 1_555
C25 C20 1_555 1_555
C26 B1 1_555 1_555
F6 C27 1_555 1_555
C27 C26 1_555 1_555
C28 C27 1_555 1_555
F7 C28 1_555 1_555
F8 C29 1_555 1_555
C29 C28 1_555 1_555
F9 C30 1_555 1_555
C30 C29 1_555 1_555
F10 C31 1_555 1_555
C31 C26 1_555 1_555
C5 C6 1_555 1_555
C8 C9 1_555 1_555
C14 C15 1_555 1_555
C24 C25 1_555 1_555
C30 C31 1_555 1_555

#END
