
#######################################################################
#
#                 Cambridge Crystallographic Data Centre
#                                CCDC 
#
#######################################################################
#
# If this CIF has been generated from an entry in the Cambridge 
# Structural Database, then it will include bibliographic, chemical, 
# crystal, experimental, refinement or atomic coordinate data resulting 
# from the CCDC's data processing and validation procedures.
#
#######################################################################

data_XOWNIH
_chemical_formula_moiety         'C1 H7 N4 O1 1+,C3 H2 N7 O1 1-'
_chemical_name_systematic        
'Carbonic hydrazylhydrazinium 5-(4-amino-1,2,5-oxadiazol-3-yl)tetrazol-1-ide'
_symmetry_cell_setting           monoclinic
_symmetry_space_group_name_H-M   'C 2/c'
_symmetry_Int_Tables_number      15
_space_group_name_Hall           '-C 2yn'
loop_
_symmetry_equiv_pos_site_id
_symmetry_equiv_pos_as_xyz
1 x,y,z
2 -x,y,1/2-z
3 1/2+x,1/2+y,z
4 1/2-x,1/2+y,1/2-z
5 -x,-y,-z
6 x,-y,1/2+z
7 1/2-x,1/2-y,-z
8 1/2+x,1/2-y,1/2+z
_cell_length_a                   24.9859(7)
_cell_length_b                   4.39600(10)
_cell_length_c                   19.6851(6)
_cell_angle_alpha                90
_cell_angle_beta                 120.3580(10)
_cell_angle_gamma                90
_cell_volume                     1865.7
_exptl_crystal_colour            orange
_exptl_crystal_description       irregular
_cell_formula_units_Z            8
loop_
_atom_site_label
_atom_site_type_symbol
_atom_site_fract_x
_atom_site_fract_y
_atom_site_fract_z
C1 C -0.23663(5) 0.1759(2) 0.14164(6)
N1 N -0.28005(4) 0.0774(2) 0.06854(6)
H1 H -0.3107(5) 0.207(3) 0.0426(7)
H2 H -0.2662(6) -0.022(3) 0.0416(7)
N2 N -0.24734(4) 0.3804(2) 0.18181(6)
O1 O -0.19187(4) 0.40472(19) 0.25382(5)
N3 N -0.14777(4) 0.2117(2) 0.25612(5)
C2 C -0.17382(4) 0.0703(2) 0.18858(6)
C3 C -0.14104(4) -0.1496(2) 0.16741(6)
N4 N -0.16742(4) -0.2987(2) 0.09860(5)
N5 N -0.12202(4) -0.4772(2) 0.10345(5)
N6 N -0.07106(4) -0.4338(2) 0.17218(5)
N7 N -0.08141(4) -0.2262(2) 0.21414(5)
N8 N 0.01039(4) 0.1758(2) 0.16002(5)
H3 H -0.0065 0.3039 0.1804
H4 H 0.0415 0.2728 0.1575
H5 H 0.0258 0.0087 0.1913
N9 N -0.03569(4) 0.0856(2) 0.08364(5)
H6 H -0.0710 0.1848 0.0572
C4 C -0.02284(5) -0.1625(2) 0.05295(6)
O2 O 0.02818(3) -0.29295(17) 0.09017(4)
N10 N -0.06809(4) -0.2506(2) -0.01838(5)
H7 H -0.0637 -0.4161 -0.0402
N11 N -0.12306(4) -0.0760(2) -0.05838(5)
H8 H -0.1533(5) -0.205(3) -0.0684(8)
H9 H -0.1245(6) 0.010(3) -0.1000(6)
loop_
_geom_bond_atom_site_label_1
_geom_bond_atom_site_label_2
_geom_bond_site_symmetry_1
_geom_bond_site_symmetry_2
C1 N1 1_555 1_555
N1 H1 1_555 1_555
H2 N1 1_555 1_555
N2 C1 1_555 1_555
O1 N2 1_555 1_555
N3 O1 1_555 1_555
C2 C1 1_555 1_555
C3 C2 1_555 1_555
N4 C3 1_555 1_555
N5 N4 1_555 1_555
N6 N5 1_555 1_555
N7 C3 1_555 1_555
N8 H3 1_555 1_555
H4 N8 1_555 1_555
H5 N8 1_555 1_555
N9 N8 1_555 1_555
H6 N9 1_555 1_555
C4 N9 1_555 1_555
O2 C4 1_555 1_555
N10 C4 1_555 1_555
H7 N10 1_555 1_555
N11 N10 1_555 1_555
H8 N11 1_555 1_555
H9 N11 1_555 1_555
N3 C2 1_555 1_555
N6 N7 1_555 1_555

#END
