
#######################################################################
#
#                 Cambridge Crystallographic Data Centre
#                                CCDC 
#
#######################################################################
#
# If this CIF has been generated from an entry in the Cambridge 
# Structural Database, then it will include bibliographic, chemical, 
# crystal, experimental, refinement or atomic coordinate data resulting 
# from the CCDC's data processing and validation procedures.
#
#######################################################################

data_XOWNON
_chemical_formula_moiety         'C3 H8 N5 1+,C3 H2 N7 O1 1-'
_chemical_name_systematic        
'1,4-Dimethyl-5-aminotetrazolium 5-(4-amino-1,2,5-oxadiazol-3-yl)tetrazol-1-ide'
_symmetry_cell_setting           orthorhombic
_symmetry_space_group_name_H-M   'P 21 21 21'
_symmetry_Int_Tables_number      19
_space_group_name_Hall           'P 2ac 2ab'
loop_
_symmetry_equiv_pos_site_id
_symmetry_equiv_pos_as_xyz
1 x,y,z
2 1/2-x,-y,1/2+z
3 -x,1/2+y,1/2-z
4 1/2+x,1/2-y,-z
_cell_length_a                   5.6426(5)
_cell_length_b                   11.8331(11)
_cell_length_c                   17.1998(16)
_cell_angle_alpha                90
_cell_angle_beta                 90
_cell_angle_gamma                90
_cell_volume                     1148.42
_exptl_crystal_colour            'pale yellow'
_exptl_crystal_description       needle
_cell_formula_units_Z            4
loop_
_atom_site_label
_atom_site_type_symbol
_atom_site_fract_x
_atom_site_fract_y
_atom_site_fract_z
C1 C 0.9366(2) 0.50291(10) 0.49544(7)
C2 C 1.2424(3) 0.57798(12) 0.58839(8)
C3 C 0.7416(3) 0.36981(12) 0.40056(8)
H1 H 0.812(4) 0.6488(16) 0.5251(11)
H2 H 1.385(4) 0.5461(18) 0.6054(12)
H3 H 0.777(4) 0.2961(18) 0.3837(12)
H5 H 0.661(3) 0.5898(14) 0.4594(10)
H6 H 1.140(4) 0.5924(16) 0.6299(11)
H7 H 0.749(4) 0.4229(18) 0.3547(12)
H9 H 1.273(4) 0.6482(16) 0.5602(11)
H10 H 0.591(4) 0.3742(17) 0.4262(12)
N1 N 0.7902(2) 0.58913(9) 0.49300(7)
N2 N 0.9226(2) 0.40498(9) 0.45606(6)
N3 N 1.1149(2) 0.33955(9) 0.47314(7)
N4 N 1.2433(2) 0.39317(10) 0.52174(7)
N5 N 1.1375(2) 0.49421(9) 0.53677(6)
C4 C -0.2140(2) 0.70886(10) 0.21568(7)
C5 C -0.0748(2) 0.62274(11) 0.25375(7)
C6 C 0.1055(2) 0.63899(10) 0.31324(7)
H4 H -0.095(4) 0.8426(15) 0.2568(11)
H8 H -0.263(4) 0.8660(17) 0.1970(12)
N6 N -0.2017(2) 0.82129(10) 0.22979(7)
N7 N -0.3585(2) 0.66062(9) 0.16617(7)
N8 N -0.1364(2) 0.52378(9) 0.22687(6)
N9 N 0.2521(2) 0.55943(9) 0.34131(6)
N10 N 0.3794(2) 0.61470(9) 0.39537(6)
N11 N 0.3111(2) 0.72167(9) 0.39887(7)
N12 N 0.1375(2) 0.73991(9) 0.34718(7)
O1 O -0.3112(2) 0.54392(8) 0.17252(6)
loop_
_geom_bond_atom_site_label_1
_geom_bond_atom_site_label_2
_geom_bond_site_symmetry_1
_geom_bond_site_symmetry_2
C1 N1 1_555 1_555
C2 H2 1_555 1_555
C3 H3 1_555 1_555
C4 C5 1_555 1_555
C5 C6 1_555 1_555
C6 N9 1_555 1_555
H1 N1 1_555 1_555
H4 N6 1_555 1_555
H5 N1 1_555 1_555
H6 C2 1_555 1_555
H7 C3 1_555 1_555
H8 N6 1_555 1_555
H9 C2 1_555 1_555
H10 C3 1_555 1_555
N2 C1 1_555 1_555
N3 N2 1_555 1_555
N4 N3 1_555 1_555
N5 C1 1_555 1_555
N6 C4 1_555 1_555
N7 C4 1_555 1_555
N8 C5 1_555 1_555
N9 N10 1_555 1_555
N10 N11 1_555 1_555
N11 N12 1_555 1_555
N12 C6 1_555 1_555
O1 N7 1_555 1_555
C2 N5 1_555 1_555
C3 N2 1_555 1_555
N4 N5 1_555 1_555
N8 O1 1_555 1_555

#END
