
#######################################################################
#
#                 Cambridge Crystallographic Data Centre
#                                CCDC 
#
#######################################################################
#
# If this CIF has been generated from an entry in the Cambridge 
# Structural Database, then it will include bibliographic, chemical, 
# crystal, experimental, refinement or atomic coordinate data resulting 
# from the CCDC's data processing and validation procedures.
#
#######################################################################

data_XOWSIN
_chemical_formula_moiety         'C28 H29 O5 P1'
_chemical_name_systematic        
'Diethyl (3-(diphenylphosphoryl)-3-phenylprop-1-en-1-yl)malonate'
_symmetry_cell_setting           triclinic
_symmetry_space_group_name_H-M   'P -1'
_symmetry_Int_Tables_number      2
_space_group_name_Hall           '-P 1'
loop_
_symmetry_equiv_pos_site_id
_symmetry_equiv_pos_as_xyz
1 x,y,z
2 -x,-y,-z
_cell_length_a                   5.6363(4)
_cell_length_b                   12.4972(11)
_cell_length_c                   18.9559(17)
_cell_angle_alpha                103.051(6)
_cell_angle_beta                 96.273(5)
_cell_angle_gamma                102.019(5)
_cell_volume                     1254.98
_exptl_crystal_colour            colorless
_exptl_crystal_description       block
_chemical_melting_point          '413 K'
_cell_formula_units_Z            2
_exptl_crystal_recrystallization_method dichloromethane/n-hexane
loop_
_atom_site_label
_atom_site_type_symbol
_atom_site_fract_x
_atom_site_fract_y
_atom_site_fract_z
C1 C 0.6254(2) 0.15793(12) 0.26763(8)
H1 H 0.536 0.2145 0.2788
C2 C 0.5523(2) 0.05648(12) 0.28632(8)
H2 H 0.4139 0.0444 0.3105
C3 C 0.6788(3) -0.02750(12) 0.27008(8)
H3 H 0.6272 -0.0973 0.2825
C4 C 0.8821(3) -0.00825(13) 0.23537(8)
H4 H 0.971 -0.065 0.2243
C5 C 0.9565(2) 0.09343(12) 0.21676(7)
H5 H 1.0959 0.1055 0.193
C6 C 0.8294(2) 0.17766(11) 0.23250(7)
C7 C 0.9219(2) 0.29047(11) 0.21528(7)
H6 H 1.0732 0.2871 0.1926
C8 C 0.9903(2) 0.38682(11) 0.28421(7)
H7 H 0.8683 0.3994 0.3138
C9 C 1.2137(2) 0.45408(11) 0.30475(7)
H8 H 1.3372 0.4397 0.2761
C10 C 1.2802(2) 0.55280(11) 0.37181(7)
H9 H 1.148 0.545 0.4028
C11 C 1.5247(3) 0.56065(11) 0.41776(7)
C12 C 1.8175(3) 0.67894(13) 0.52010(8)
H10 H 1.9608 0.6918 0.4945
H11 H 1.8202 0.6134 0.541
C13 C 1.8252(4) 0.78153(18) 0.57908(10)
H12 H 1.8131 0.8446 0.5572
H13 H 1.9804 0.8014 0.6133
H14 H 1.6872 0.7661 0.6055
C14 C 1.295(2) 0.6596(8) 0.3473(7)
C15 C 1.0509(7) 0.7882(3) 0.3295(2)
H15 H 0.8782 0.7781 0.3068
H16 H 1.1575 0.8008 0.2924
C16 C 1.1208(13) 0.8881(4) 0.3948(3)
H17 H 1.0241 0.8726 0.4329
H18 H 1.0878 0.9548 0.3804
H19 H 1.2962 0.9023 0.414
O1 O 1.461(3) 0.7084(18) 0.3232(8)
O2 O 1.0793(8) 0.6875(3) 0.35273(19)
C17 C 0.6746(6) 0.2260(3) 0.05676(12)
C18 C 0.4999(5) 0.2344(2) 0.00183(14)
H20 H 0.4067 0.2896 0.012
C19 C 0.4617(5) 0.1619(3) -0.06797(13)
H21 H 0.3424 0.1676 -0.1055
C20 C 0.5981(6) 0.0811(2) -0.08283(14)
H22 H 0.572 0.0316 -0.1305
C21 C 0.7728(6) 0.0728(2) -0.02790(18)
H23 H 0.866 0.0176 -0.0381
C22 C 0.8110(6) 0.1452(3) 0.04190(16)
H24 H 0.9303 0.1395 0.0795
C23 C 0.8231(6) 0.46207(16) 0.13914(18)
C24 C 0.9900(6) 0.4829(2) 0.09216(17)
H25 H 1.0373 0.4217 0.062
C25 C 1.0879(6) 0.5932(2) 0.08924(18)
H26 H 1.202 0.6074 0.0571
C26 C 1.0187(6) 0.68270(19) 0.13331(19)
H27 H 1.0856 0.7581 0.1313
C27 C 0.8518(6) 0.66192(18) 0.18030(18)
H28 H 0.8045 0.7231 0.2104
C28 C 0.7540(5) 0.5516(2) 0.18322(17)
H29 H 0.6399 0.5374 0.2153
O3 O 1.6391(2) 0.48925(9) 0.41058(6)
O4 O 1.58977(19) 0.65806(8) 0.46937(5)
O5 O 0.44835(16) 0.31189(8) 0.17184(5)
P1 P 0.69558(6) 0.31981(3) 0.14976(2)
H30? H 1.1479 0.5452 0.4027
H31? H 1.1508 0.5398 0.4031
C29? C 1.305(5) 0.6654(16) 0.3495(17)
C30? C 1.176(3) 0.8387(12) 0.3724(9)
H32? H 1.115 0.8312 0.3201
H33? H 1.3468 0.8858 0.385
C31? C 1.0124(14) 0.8926(6) 0.4210(4)
H34? H 0.8467 0.8427 0.4102
H35? H 1.0042 0.9657 0.4115
H36? H 1.081 0.9041 0.4727
O6? O 1.445(7) 0.696(2) 0.3101(18)
O7? O 1.168(2) 0.7272(11) 0.3855(10)
C32? C 1.274(5) 0.6655(15) 0.3516(15)
C33? C 1.129(3) 0.8338(11) 0.3762(8)
H37? H 0.9687 0.8529 0.3807
H38? H 1.1701 0.8408 0.3277
C34? C 1.3259(16) 0.9138(5) 0.4366(4)
H39? H 1.2961 0.8993 0.4839
H40? H 1.3216 0.9921 0.4375
H41? H 1.4875 0.9019 0.4275
O8? O 1.410(5) 0.702(3) 0.3123(18)
O9? O 1.115(2) 0.7183(10) 0.3823(10)
C35? C 0.6816(8) 0.2226(4) 0.0656(3)
C36? C 0.4571(6) 0.1933(3) 0.01869(18)
H42? H 0.3249 0.224 0.0341
C37? C 0.4249(6) 0.1199(3) -0.05029(19)
H43? H 0.2715 0.1013 -0.082
C38? C 0.6131(9) 0.0736(4) -0.0732(3)
H44? H 0.5876 0.0201 -0.1194
C39? C 0.8405(7) 0.1058(4) -0.0282(2)
H45? H 0.974 0.0777 -0.0449
C40? C 0.8744(7) 0.1788(3) 0.0411(2)
H46? H 1.0298 0.199 0.072
C41? C 0.8280(8) 0.4565(3) 0.1418(2)
C42? C 1.0632(6) 0.4877(3) 0.1246(2)
H47? H 1.1652 0.4356 0.1201
C43? C 1.1477(7) 0.5937(3) 0.1140(2)
H48? H 1.3094 0.615 0.1036
C44? C 1.0001(10) 0.6688(4) 0.1185(4)
H49? H 1.0581 0.7406 0.1094
C45? C 0.7673(7) 0.6406(3) 0.1363(3)
H50? H 0.667 0.6933 0.1405
C46? C 0.6814(7) 0.5341(3) 0.1480(3)
H51? H 0.5219 0.5144 0.1603
loop_
_geom_bond_atom_site_label_1
_geom_bond_atom_site_label_2
_geom_bond_site_symmetry_1
_geom_bond_site_symmetry_2
C1 H1 1_555 1_555
C2 C1 1_555 1_555
H2 C2 1_555 1_555
C3 C2 1_555 1_555
H3 C3 1_555 1_555
C4 C3 1_555 1_555
H4 C4 1_555 1_555
C5 C4 1_555 1_555
H5 C5 1_555 1_555
C6 C1 1_555 1_555
C7 C6 1_555 1_555
H6 C7 1_555 1_555
C8 C7 1_555 1_555
H7 C8 1_555 1_555
C9 C8 1_555 1_555
H8 C9 1_555 1_555
C10 C9 1_555 1_555
H9 C10 1_555 1_555
C11 C10 1_555 1_555
C12 H10 1_555 1_555
H11 C12 1_555 1_555
C13 C12 1_555 1_555
H12 C13 1_555 1_555
H13 C13 1_555 1_555
H14 C13 1_555 1_555
C14 C10 1_555 1_555
C15 H15 1_555 1_555
H16 C15 1_555 1_555
C16 C15 1_555 1_555
H17 C16 1_555 1_555
H18 C16 1_555 1_555
H19 C16 1_555 1_555
O1 C14 1_555 1_555
O2 C14 1_555 1_555
C17 C18 1_555 1_555
C18 H20 1_555 1_555
C19 C18 1_555 1_555
H21 C19 1_555 1_555
C20 C19 1_555 1_555
H22 C20 1_555 1_555
C21 C20 1_555 1_555
H23 C21 1_555 1_555
C22 C17 1_555 1_555
H24 C22 1_555 1_555
C23 C24 1_555 1_555
C24 H25 1_555 1_555
C25 C24 1_555 1_555
H26 C25 1_555 1_555
C26 C25 1_555 1_555
H27 C26 1_555 1_555
C27 C26 1_555 1_555
H28 C27 1_555 1_555
C28 C23 1_555 1_555
H29 C28 1_555 1_555
O3 C11 1_555 1_555
O4 C11 1_555 1_555
O5 P1 1_555 1_555
P1 C7 1_555 1_555
C5 C6 1_555 1_555
C12 O4 1_555 1_555
C15 O2 1_555 1_555
C17 P1 1_555 1_555
C21 C22 1_555 1_555
C23 P1 1_555 1_555
C27 C28 1_555 1_555

#END
