
#######################################################################
#
#                 Cambridge Crystallographic Data Centre
#                                CCDC 
#
#######################################################################
#
# If this CIF has been generated from an entry in the Cambridge 
# Structural Database, then it will include bibliographic, chemical, 
# crystal, experimental, refinement or atomic coordinate data resulting 
# from the CCDC's data processing and validation procedures.
#
#######################################################################

data_XOWVIP
_chemical_formula_moiety         'C18 H27 Cl1 O4'
_chemical_name_systematic        
'cis-1-(3-Chloro-2,2-dimethylcyclopropyl)propyl 4,7,7-trimethyl-3-oxo-2-oxabicyclo[2.2.1]heptane-1-carboxylate'
_symmetry_cell_setting           orthorhombic
_symmetry_space_group_name_H-M   'P 21 21 21'
_symmetry_Int_Tables_number      19
_space_group_name_Hall           'P 2ac 2ab'
loop_
_symmetry_equiv_pos_site_id
_symmetry_equiv_pos_as_xyz
1 x,y,z
2 1/2-x,-y,1/2+z
3 1/2+x,1/2-y,-z
4 -x,1/2+y,1/2-z
_cell_length_a                   6.060(3)
_cell_length_b                   22.390(6)
_cell_length_c                   40.762(12)
_cell_angle_alpha                90
_cell_angle_beta                 90
_cell_angle_gamma                90
_cell_volume                     5530.73
_cell_formula_units_Z            12
_exptl_crystal_recrystallization_method n-pentane
loop_
_atom_site_label
_atom_site_type_symbol
_atom_site_fract_x
_atom_site_fract_y
_atom_site_fract_z
C1 C 0.5044(6) 0.60770(14) 0.92107(8)
C2 C 0.7060(6) 0.61182(14) 0.89828(8)
H1 H 0.6622 0.6154 0.8755
H2 H 0.8021 0.5775 0.9008
C3 C 0.8174(6) 0.66965(15) 0.91081(9)
H3 H 0.8239 0.6996 0.8936
H4 H 0.9659 0.6616 0.9186
C4 C 0.6659(6) 0.69057(16) 0.93948(9)
C5 C 0.4544(6) 0.70745(17) 0.92186(9)
C6 C 0.5898(6) 0.63022(14) 0.95478(8)
C7 C 0.7608(7) 0.73859(15) 0.96156(9)
H5 H 0.8061 0.7721 0.9485
H6 H 0.8859 0.7229 0.9732
H7 H 0.6506 0.7512 0.9770
C8 C 0.4062(6) 0.63681(15) 0.98035(8)
H8 H 0.4634 0.6566 0.9994
H9 H 0.3526 0.5980 0.9864
H10 H 0.2876 0.6599 0.9713
C9 C 0.7787(6) 0.59344(15) 0.96970(8)
H11 H 0.8452 0.6155 0.9873
H12 H 0.8875 0.5855 0.9531
H13 H 0.7216 0.5564 0.9780
C10 C 0.3735(6) 0.55069(15) 0.91974(8)
C11 C 0.3951(7) 0.44606(14) 0.93276(8)
H14 H 0.2341 0.4499 0.9339
C12 C 0.4574(8) 0.41413(18) 0.90141(9)
H15 H 0.3839 0.3757 0.9010
H16 H 0.4026 0.4371 0.8830
C13 C 0.7022(9) 0.40422(19) 0.89686(10)
H17 H 0.7787 0.4415 0.8994
H18 H 0.7292 0.3885 0.8753
H19 H 0.7542 0.3763 0.9130
C14 C 0.4773(6) 0.41753(14) 0.96346(8)
H20 H 0.6383 0.4147 0.9649
C15 C 0.3548(7) 0.36664(15) 0.98005(9)
C16 C 0.3638(6) 0.42768(14) 0.99578(9)
H21 H 0.4625 0.4309 1.0147
C17 C 0.1395(6) 0.34395(16) 0.96619(10)
H22 H 0.0626 0.3215 0.9827
H23 H 0.1686 0.3187 0.9476
H24 H 0.0503 0.3772 0.9594
C18 C 0.4920(6) 0.31878(15) 0.99598(9)
H25 H 0.6201 0.3365 1.0058
H26 H 0.5371 0.2902 0.9797
H27 H 0.4063 0.2990 1.0126
O1 O 0.3607(4) 0.65620(9) 0.91064(6)
O2 O 0.3772(5) 0.75607(11) 0.91647(6)
O3 O 0.4955(4) 0.50622(9) 0.93212(5)
O4 O 0.1897(4) 0.54577(10) 0.90935(6)
Cl1 Cl 0.12981(18) 0.47438(4) 0.99712(2)
C19 C 0.1516(6) 0.38179(15) 0.75698(8)
C20 C -0.0275(6) 0.36954(16) 0.73104(8)
H28 H 0.0360 0.3639 0.7094
H29 H -0.1353 0.4015 0.7302
C21 C -0.1295(7) 0.31120(16) 0.74429(9)
H30 H -0.1076 0.2786 0.7290
H31 H -0.2864 0.3160 0.7482
C22 C -0.0030(6) 0.29958(16) 0.77705(9)
C23 C 0.2261(7) 0.28383(17) 0.76516(10)
C24 C 0.0427(6) 0.36348(15) 0.78986(8)
C25 C -0.1055(7) 0.25378(15) 0.79963(9)
H32 H -0.0977 0.2150 0.7896
H33 H -0.2571 0.2640 0.8036
H34 H -0.0269 0.2532 0.8201
C26 C 0.2026(6) 0.36591(15) 0.81897(8)
H35 H 0.2405 0.4067 0.8235
H36 H 0.3338 0.3439 0.8137
H37 H 0.1335 0.3487 0.8379
C27 C -0.1659(6) 0.39732(15) 0.79854(9)
H38 H -0.1281 0.4368 0.8058
H39 H -0.2427 0.3766 0.8157
H40 H -0.2591 0.4000 0.7795
C28 C 0.2681(6) 0.44072(15) 0.75355(8)
C29 C 0.2263(6) 0.54563(14) 0.76485(8)
H41 H 0.3878 0.5445 0.7660
C30 C 0.1559(7) 0.57586(18) 0.73321(9)
H42 H 0.2206 0.6155 0.7325
H43 H 0.2147 0.5533 0.7149
C31 C -0.0921(8) 0.5815(2) 0.72903(10)
H44 H -0.1592 0.5429 0.7314
H45 H -0.1242 0.5972 0.7076
H46 H -0.1496 0.6080 0.7454
C32 C 0.1370(6) 0.57335(14) 0.79557(8)
H47 H -0.0243 0.5731 0.7972
C33 C 0.2487(6) 0.62665(15) 0.81221(9)
C34 C 0.2556(6) 0.56604(14) 0.82789(9)
H48 H 0.1594 0.5612 0.8470
C35 C 0.4563(7) 0.65414(15) 0.79828(10)
H49 H 0.5357 0.6741 0.8154
H50 H 0.4177 0.6824 0.7815
H51 H 0.5473 0.6234 0.7890
C36 C 0.0959(7) 0.67133(15) 0.82862(9)
H52 H -0.0307 0.6509 0.8372
H53 H 0.0492 0.7005 0.8128
H54 H 0.1727 0.6909 0.8462
O5 O 0.3163(4) 0.33479(10) 0.75227(6)
O6 O 0.3257(5) 0.23729(11) 0.76524(8)
O7 O 0.1396(4) 0.48418(10) 0.76542(5)
O8 O 0.4489(4) 0.44801(10) 0.74199(6)
Cl2 Cl 0.50238(18) 0.52430(4) 0.82908(2)
C37 C 0.4094(6) 0.60470(14) 0.58582(8)
C38 C 0.6083(6) 0.61392(15) 0.56322(8)
H55 H 0.5638 0.6162 0.5404
H56 H 0.7161 0.5822 0.5658
C39 C 0.6991(6) 0.67465(15) 0.57570(9)
H57 H 0.6953 0.7046 0.5585
H58 H 0.8493 0.6706 0.5836
C40 C 0.5385(6) 0.69099(14) 0.60413(8)
C41 C 0.3248(6) 0.70335(16) 0.58656(9)
C42 C 0.4862(6) 0.62909(15) 0.61917(8)
C43 C 0.6144(7) 0.74140(15) 0.62617(9)
H59 H 0.6411 0.7764 0.6132
H60 H 0.7480 0.7299 0.6371
H61 H 0.5022 0.7498 0.6421
C44 C 0.3024(7) 0.63195(16) 0.64470(9)
H62 H 0.2561 0.5922 0.6502
H63 H 0.1796 0.6538 0.6359
H64 H 0.3558 0.6517 0.6641
C45 C 0.6845(7) 0.59784(15) 0.63427(9)
H65 H 0.7973 0.5931 0.6179
H66 H 0.6408 0.5593 0.6423
H67 H 0.7407 0.6214 0.6521
C46 C 0.2987(6) 0.54441(14) 0.58493(8)
C47 C 0.3754(6) 0.44102(13) 0.59702(8)
H68 H 0.2139 0.4389 0.5968
C48 C 0.4665(7) 0.40680(16) 0.56805(8)
H69 H 0.4067 0.4239 0.5481
H70 H 0.4154 0.3658 0.5694
C49 C 0.7172(7) 0.40659(19) 0.56563(9)
H71 H 0.7704 0.4470 0.5652
H72 H 0.7613 0.3864 0.5459
H73 H 0.7780 0.3863 0.5843
C50 C 0.4590(6) 0.42025(14) 0.62951(8)
H74 H 0.6194 0.4239 0.6319
C51 C 0.3620(6) 0.36717(15) 0.64779(9)
C52 C 0.3347(6) 0.42978(15) 0.66101(9)
H75 H 0.4265 0.4394 0.6801
C53 C 0.1684(7) 0.33430(16) 0.63388(9)
H76 H 0.0983 0.3116 0.6509
H77 H 0.2177 0.3078 0.6169
H78 H 0.0650 0.3624 0.6249
C54 C 0.5225(7) 0.32753(17) 0.66608(9)
H79 H 0.4488 0.3093 0.6844
H80 H 0.6440 0.3511 0.6739
H81 H 0.5763 0.2970 0.6516
O9 O 0.2484(4) 0.64925(10) 0.57527(6)
O10 O 0.2303(5) 0.74872(11) 0.58108(7)
O11 O 0.4445(4) 0.50332(10) 0.59447(5)
O12 O 0.1106(4) 0.53498(10) 0.57693(6)
Cl3 Cl 0.07577(17) 0.46610(4) 0.65986(2)
loop_
_geom_bond_atom_site_label_1
_geom_bond_atom_site_label_2
_geom_bond_site_symmetry_1
_geom_bond_site_symmetry_2
C1 C2 1_555 1_555
C2 H1 1_555 1_555
H2 C2 1_555 1_555
C3 C2 1_555 1_555
H3 C3 1_555 1_555
H4 C3 1_555 1_555
C4 C3 1_555 1_555
C5 C4 1_555 1_555
C6 C1 1_555 1_555
C7 C4 1_555 1_555
H5 C7 1_555 1_555
H6 C7 1_555 1_555
H7 C7 1_555 1_555
C8 C6 1_555 1_555
H8 C8 1_555 1_555
H9 C8 1_555 1_555
H10 C8 1_555 1_555
C9 C6 1_555 1_555
H11 C9 1_555 1_555
H12 C9 1_555 1_555
H13 C9 1_555 1_555
C10 C1 1_555 1_555
C11 H14 1_555 1_555
C12 C11 1_555 1_555
H15 C12 1_555 1_555
H16 C12 1_555 1_555
C13 C12 1_555 1_555
H17 C13 1_555 1_555
H18 C13 1_555 1_555
H19 C13 1_555 1_555
C14 C11 1_555 1_555
H20 C14 1_555 1_555
C15 C14 1_555 1_555
C16 C14 1_555 1_555
H21 C16 1_555 1_555
C17 C15 1_555 1_555
H22 C17 1_555 1_555
H23 C17 1_555 1_555
H24 C17 1_555 1_555
C18 C15 1_555 1_555
H25 C18 1_555 1_555
H26 C18 1_555 1_555
H27 C18 1_555 1_555
O1 C1 1_555 1_555
O2 C5 1_555 1_555
O3 C10 1_555 1_555
O4 C10 1_555 1_555
Cl1 C16 1_555 1_555
C19 C20 1_555 1_555
C20 H28 1_555 1_555
H29 C20 1_555 1_555
C21 C20 1_555 1_555
H30 C21 1_555 1_555
H31 C21 1_555 1_555
C22 C21 1_555 1_555
C23 C22 1_555 1_555
C24 C19 1_555 1_555
C25 C22 1_555 1_555
H32 C25 1_555 1_555
H33 C25 1_555 1_555
H34 C25 1_555 1_555
C26 C24 1_555 1_555
H35 C26 1_555 1_555
H36 C26 1_555 1_555
H37 C26 1_555 1_555
C27 C24 1_555 1_555
H38 C27 1_555 1_555
H39 C27 1_555 1_555
H40 C27 1_555 1_555
C28 C19 1_555 1_555
C29 H41 1_555 1_555
C30 C29 1_555 1_555
H42 C30 1_555 1_555
H43 C30 1_555 1_555
C31 C30 1_555 1_555
H44 C31 1_555 1_555
H45 C31 1_555 1_555
H46 C31 1_555 1_555
C32 C29 1_555 1_555
H47 C32 1_555 1_555
C33 C32 1_555 1_555
C34 C32 1_555 1_555
H48 C34 1_555 1_555
C35 C33 1_555 1_555
H49 C35 1_555 1_555
H50 C35 1_555 1_555
H51 C35 1_555 1_555
C36 C33 1_555 1_555
H52 C36 1_555 1_555
H53 C36 1_555 1_555
H54 C36 1_555 1_555
O5 C19 1_555 1_555
O6 C23 1_555 1_555
O7 C28 1_555 1_555
O8 C28 1_555 1_555
Cl2 C34 1_555 1_555
C37 C38 1_555 1_555
C38 H55 1_555 1_555
H56 C38 1_555 1_555
C39 C38 1_555 1_555
H57 C39 1_555 1_555
H58 C39 1_555 1_555
C40 C39 1_555 1_555
C41 C40 1_555 1_555
C42 C37 1_555 1_555
C43 C40 1_555 1_555
H59 C43 1_555 1_555
H60 C43 1_555 1_555
H61 C43 1_555 1_555
C44 C42 1_555 1_555
H62 C44 1_555 1_555
H63 C44 1_555 1_555
H64 C44 1_555 1_555
C45 C42 1_555 1_555
H65 C45 1_555 1_555
H66 C45 1_555 1_555
H67 C45 1_555 1_555
C46 C37 1_555 1_555
C47 H68 1_555 1_555
C48 C47 1_555 1_555
H69 C48 1_555 1_555
H70 C48 1_555 1_555
C49 C48 1_555 1_555
H71 C49 1_555 1_555
H72 C49 1_555 1_555
H73 C49 1_555 1_555
C50 C47 1_555 1_555
H74 C50 1_555 1_555
C51 C50 1_555 1_555
C52 C50 1_555 1_555
H75 C52 1_555 1_555
C53 C51 1_555 1_555
H76 C53 1_555 1_555
H77 C53 1_555 1_555
H78 C53 1_555 1_555
C54 C51 1_555 1_555
H79 C54 1_555 1_555
H80 C54 1_555 1_555
H81 C54 1_555 1_555
O9 C37 1_555 1_555
O10 C41 1_555 1_555
O11 C46 1_555 1_555
O12 C46 1_555 1_555
Cl3 C52 1_555 1_555
C4 C6 1_555 1_555
C5 O1 1_555 1_555
C11 O3 1_555 1_555
C15 C16 1_555 1_555
C22 C24 1_555 1_555
C23 O5 1_555 1_555
C29 O7 1_555 1_555
C33 C34 1_555 1_555
C40 C42 1_555 1_555
C41 O9 1_555 1_555
C47 O11 1_555 1_555
C51 C52 1_555 1_555

#END
