
#######################################################################
#
#                 Cambridge Crystallographic Data Centre
#                                CCDC 
#
#######################################################################
#
# If this CIF has been generated from an entry in the Cambridge 
# Structural Database, then it will include bibliographic, chemical, 
# crystal, experimental, refinement or atomic coordinate data resulting 
# from the CCDC's data processing and validation procedures.
#
#######################################################################

data_XOXFIA
_chemical_formula_moiety         'C24 H24 O2'
_chemical_name_systematic        
3,4,8,9-Tetramethylene-2,7-diphenyl-1,6-dioxecane
_symmetry_cell_setting           triclinic
_symmetry_space_group_name_H-M   'P -1'
_symmetry_Int_Tables_number      2
_space_group_name_Hall           '-P 1'
loop_
_symmetry_equiv_pos_site_id
_symmetry_equiv_pos_as_xyz
1 x,y,z
2 -x,-y,-z
_cell_length_a                   8.963(1)
_cell_length_b                   10.560(2)
_cell_length_c                   11.171(2)
_cell_angle_alpha                71.862(4)
_cell_angle_beta                 76.656(4)
_cell_angle_gamma                75.622(4)
_cell_volume                     959.691
_exptl_crystal_colour            colorless
_exptl_crystal_description       platelet
_chemical_melting_point          '170-171 deg.C'
_cell_formula_units_Z            2
loop_
_atom_site_label
_atom_site_type_symbol
_atom_site_fract_x
_atom_site_fract_y
_atom_site_fract_z
O1 O 0.1280(4) 0.1738(4) 0.4944(4)
O2 O 0.3725(5) 0.3257(4) 0.5051(4)
C1 C 0.3297(7) 0.3629(6) 0.2952(6)
C2 C 0.1845(7) 0.1628(7) 0.3666(6)
C3 C 0.2219(7) 0.0862(6) 0.5871(6)
C4 C 0.1659(7) 0.2799(7) 0.6912(6)
C5 C 0.4450(6) 0.2684(6) 0.7095(6)
C6 C 0.3351(7) 0.2174(6) 0.3092(6)
C7 C -0.1008(7) 0.2644(6) 0.3459(6)
C8 C 0.0376(7) 0.3615(7) 0.7323(6)
C9 C 0.0547(7) 0.2321(7) 0.2898(6)
C10 C 0.5949(6) 0.2328(6) 0.6523(6)
C11 C 0.7139(8) 0.1753(7) 0.7242(7)
C12 C 0.1244(9) 0.0511(9) 0.8177(7)
C13 C -0.2161(7) 0.3269(7) 0.2734(7)
C14 C 0.2781(7) 0.4132(6) 0.4135(6)
C15 C 0.3127(7) 0.3396(6) 0.6309(6)
C16 C 0.3723(8) 0.4459(8) 0.1839(8)
C17 C 0.5303(9) 0.1781(8) 0.9153(7)
C18 C 0.6831(8) 0.1445(7) 0.8540(8)
C19 C 0.0871(8) 0.2606(8) 0.1577(7)
C20 C 0.1689(6) 0.1340(6) 0.7053(6)
C21 C 0.4138(8) 0.2392(8) 0.8409(7)
C22 C -0.1805(8) 0.3547(7) 0.1438(6)
C23 C -0.0290(8) 0.3227(8) 0.0870(7)
C24 C 0.4623(8) 0.1419(7) 0.2667(7)
H1 H -0.1268 0.2430 0.4345
H2 H 0.6176 0.2473 0.5641
H3 H 0.8165 0.1575 0.6831
H4 H -0.3185 0.3503 0.3126
H5 H 0.5071 0.1601 1.0039
H6 H 0.7631 0.1014 0.9014
H7 H 0.1888 0.2371 0.1171
H8 H 0.3115 0.2612 0.8811
H9 H -0.2588 0.3952 0.0943
H10 H -0.0048 0.3437 -0.0017
H11 H 0.3313 0.0902 0.5551
H12 H 0.2091 -0.0068 0.6053
H13 H 0.2922 0.5061 0.3940
H14 H 0.1686 0.4103 0.4465
H15 H -0.0534 0.3279 0.7711
H16 H 0.0394 0.4520 0.7221
H17 H 0.285(4) 0.434(4) 0.638(4)
H18 H 0.213(6) 0.048(5) 0.376(5)
H19 H 0.565(5) 0.183(4) 0.228(4)
H20 H 0.461(4) 0.045(4) 0.273(3)
H21 H 0.424(6) 0.431(5) 0.110(5)
H22 H 0.371(4) 0.539(4) 0.180(4)
H23 H 0.104(7) -0.042(7) 0.827(6)
H24 H 0.103(5) 0.099(4) 0.892(4)
loop_
_geom_bond_atom_site_label_1
_geom_bond_atom_site_label_2
_geom_bond_site_symmetry_1
_geom_bond_site_symmetry_2
O1 C2 1_555 1_555
O2 C14 1_555 1_555
C1 C6 1_555 1_555
C2 C6 1_555 1_555
C3 O1 1_555 1_555
C4 C8 1_555 1_555
C5 C10 1_555 1_555
C6 C24 1_555 1_555
C7 C9 1_555 1_555
C8 H15 1_555 1_555
C9 C2 1_555 1_555
C10 C11 1_555 1_555
C11 C18 1_555 1_555
C12 C20 1_555 1_555
C13 C7 1_555 1_555
C14 C1 1_555 1_555
C15 O2 1_555 1_555
C16 C1 1_555 1_555
C17 C18 1_555 1_555
C18 H6 1_555 1_555
C19 C9 1_555 1_555
C20 C3 1_555 1_555
C21 C5 1_555 1_555
C22 C13 1_555 1_555
C23 C19 1_555 1_555
C24 H19 1_555 1_555
H1 C7 1_555 1_555
H2 C10 1_555 1_555
H3 C11 1_555 1_555
H4 C13 1_555 1_555
H5 C17 1_555 1_555
H7 C19 1_555 1_555
H8 C21 1_555 1_555
H9 C22 1_555 1_555
H10 C23 1_555 1_555
H11 C3 1_555 1_555
H12 C3 1_555 1_555
H13 C14 1_555 1_555
H14 C14 1_555 1_555
H16 C8 1_555 1_555
H17 C15 1_555 1_555
H18 C2 1_555 1_555
H20 C24 1_555 1_555
H21 C16 1_555 1_555
H22 C16 1_555 1_555
H23 C12 1_555 1_555
H24 C12 1_555 1_555
C4 C15 1_555 1_555
C4 C20 1_555 1_555
C5 C15 1_555 1_555
C17 C21 1_555 1_555
C22 C23 1_555 1_555

#END
