
#######################################################################
#
#                 Cambridge Crystallographic Data Centre
#                                CCDC 
#
#######################################################################
#
# If this CIF has been generated from an entry in the Cambridge 
# Structural Database, then it will include bibliographic, chemical, 
# crystal, experimental, refinement or atomic coordinate data resulting 
# from the CCDC's data processing and validation procedures.
#
#######################################################################

data_XOXHAU
_chemical_formula_moiety         'C2 H8 N1 O6 P2 1-,C2 H4 N3 1+,H2 O1'
_chemical_name_systematic        
'1,2,4-Triazolium (1-ammonioethylidene)-bis(hydrogen (phosphonate)) monohydrate'
_chemical_properties_biological  'sterilizing properties'
_symmetry_cell_setting           triclinic
_symmetry_space_group_name_H-M   'P -1'
_symmetry_Int_Tables_number      2
_space_group_name_Hall           '-P 1'
loop_
_symmetry_equiv_pos_site_id
_symmetry_equiv_pos_as_xyz
1 x,y,z
2 -x,-y,-z
_cell_length_a                   5.5117(4)
_cell_length_b                   9.3252(7)
_cell_length_c                   11.7405(9)
_cell_angle_alpha                77.7620(10)
_cell_angle_beta                 79.4210(10)
_cell_angle_gamma                76.2830(10)
_cell_volume                     567.225
_exptl_crystal_colour            colorless
_exptl_crystal_description       block
_cell_formula_units_Z            2
loop_
_atom_site_label
_atom_site_type_symbol
_atom_site_fract_x
_atom_site_fract_y
_atom_site_fract_z
C1 C 0.3699(4) 0.3087(2) 0.45556(16)
H1 H 0.3156 0.3770 0.5069
C2 C 0.5696(4) 0.1924(2) 0.31789(19)
H2 H 0.6870 0.1670 0.2538
H6 H 0.675(5) 0.378(3) 0.353(2)
H7 H 0.151(5) 0.174(3) 0.498(2)
N1 N 0.5630(3) 0.30825(16) 0.37023(13)
N2 N 0.2691(3) 0.19570(17) 0.45465(14)
N3 N 0.3919(4) 0.11976(19) 0.36760(16)
C3 C 0.8422(2) 0.71238(15) 0.13626(12)
C4 C 0.7099(3) 0.84686(16) 0.19646(14)
H3 H 0.5900 0.9129 0.1491
H4 H 0.8329 0.8998 0.2054
H5 H 0.6240 0.8120 0.2725
H8 H 0.812(5) 0.980(3) -0.051(2)
H9 H 1.124(4) 0.417(3) 0.145(2)
N4 N 0.6417(2) 0.64133(13) 0.11280(11)
H12 H 0.5378 0.6220 0.1791
H13 H 0.7140 0.5562 0.0866
H14 H 0.5549 0.7038 0.0589
O1 O 1.23503(19) 0.83533(11) 0.01545(10)
O2 O 1.0907(2) 0.65093(12) -0.07651(10)
O3 O 0.8249(2) 0.90311(12) -0.07115(10)
O4 O 1.2053(2) 0.64789(12) 0.28107(10)
O5 O 1.2029(2) 0.45376(13) 0.16916(11)
O6 O 0.8408(2) 0.50884(13) 0.33340(10)
P1 P 1.02163(6) 0.77563(4) -0.00702(3)
P2 P 1.03186(6) 0.57390(4) 0.24103(3)
H10 H 0.799(6) 0.072(3) 0.621(3)
H11 H 0.832(5) 0.191(3) 0.639(2)
O7 O 0.8757(4) 0.1246(2) 0.60380(17)
loop_
_geom_bond_atom_site_label_1
_geom_bond_atom_site_label_2
_geom_bond_site_symmetry_1
_geom_bond_site_symmetry_2
C1 H1 1_555 1_555
C2 H2 1_555 1_555
C3 C4 1_555 1_555
C4 H3 1_555 1_555
H4 C4 1_555 1_555
H5 C4 1_555 1_555
H6 N1 1_555 1_555
H7 N2 1_555 1_555
H8 O3 1_555 1_555
H9 O5 1_555 1_555
H10 O7 1_555 1_555
H11 O7 1_555 1_555
N1 C1 1_555 1_555
N2 C1 1_555 1_555
N3 C2 1_555 1_555
N4 C3 1_555 1_555
H12 N4 1_555 1_555
H13 N4 1_555 1_555
H14 N4 1_555 1_555
O1 P1 1_555 1_555
O2 P1 1_555 1_555
O3 P1 1_555 1_555
O4 P2 1_555 1_555
O5 P2 1_555 1_555
O6 P2 1_555 1_555
P1 C3 1_555 1_555
P2 C3 1_555 1_555
C2 N1 1_555 1_555
N2 N3 1_555 1_555

#END
