
#######################################################################
#
#                 Cambridge Crystallographic Data Centre
#                                CCDC 
#
#######################################################################
#
# If this CIF has been generated from an entry in the Cambridge 
# Structural Database, then it will include bibliographic, chemical, 
# crystal, experimental, refinement or atomic coordinate data resulting 
# from the CCDC's data processing and validation procedures.
#
#######################################################################

data_XOXJEZ
_chemical_name_common            
N,N'-(2-Bromoterephthalylidene)-bis(4-n-butylaniline)
_chemical_formula_moiety         'C28 H31 Br1 N2'
_chemical_name_systematic        
2-Bromo-1,4-bis((4-n-butylphenyl)iminomethyl)benzene
_symmetry_cell_setting           triclinic
_symmetry_space_group_name_H-M   'P -1'
_symmetry_Int_Tables_number      2
_space_group_name_Hall           '-P 1'
loop_
_symmetry_equiv_pos_site_id
_symmetry_equiv_pos_as_xyz
1 x,y,z
2 -x,-y,-z
_cell_length_a                   13.756(2)
_cell_length_b                   21.120(4)
_cell_length_c                   9.171(4)
_cell_angle_alpha                95.89(2)
_cell_angle_beta                 107.81(2)
_cell_angle_gamma                96.54(2)
_cell_volume                     2493.47
_exptl_crystal_colour            yellow
_exptl_crystal_description       plate
_chemical_melting_point          '55.9 deg.C'
_cell_formula_units_Z            4
_exptl_crystal_recrystallization_method ethanol/tetrahydrofuran
loop_
_atom_site_label
_atom_site_type_symbol
_atom_site_fract_x
_atom_site_fract_y
_atom_site_fract_z
Br1 Br 1.28221(5) 0.39562(3) 0.35652(9)
N1 N 1.0965(4) 0.5513(2) 0.2009(6)
N2 N 0.9834(4) 0.2576(2) 0.5296(6)
C1 C 1.0995(5) 0.4547(3) 0.3147(7)
C2 C 1.1470(4) 0.4032(3) 0.3637(7)
C3 C 1.1007(5) 0.3551(3) 0.4263(7)
C4 C 1.0017(5) 0.3583(3) 0.4332(7)
C5 C 0.9532(5) 0.4100(3) 0.3854(8)
C6 C 1.0019(5) 0.4565(3) 0.3264(8)
C7 C 1.1446(4) 0.5058(3) 0.2468(7)
C8 C 1.1415(4) 0.5980(3) 0.1294(7)
C9 C 1.1143(4) 0.6588(3) 0.1432(7)
C10 C 1.1541(5) 0.7068(3) 0.0756(8)
C11 C 1.2174(5) 0.6944(3) -0.0112(7)
C12 C 1.2421(5) 0.6328(3) -0.0256(7)
C13 C 1.2054(5) 0.5856(3) 0.0452(7)
C14 C 1.2595(5) 0.7460(3) -0.0883(8)
C15 C 1.3735(6) 0.7719(3) -0.0061(8)
C16 C 1.4184(6) 0.8217(4) -0.0848(9)
C17 C 1.5320(7) 0.8431(4) -0.007(1)
C18 C 0.9464(5) 0.3072(3) 0.4906(7)
C19 C 0.9205(5) 0.2094(3) 0.5742(7)
C20 C 0.9701(5) 0.1741(3) 0.6844(8)
C21 C 0.9156(5) 0.1270(3) 0.7323(8)
C22 C 0.8094(6) 0.1122(3) 0.669(1)
C23 C 0.7602(5) 0.1477(4) 0.558(1)
C24 C 0.8146(5) 0.1954(3) 0.5101(8)
C25 C 0.7531(8) 0.0565(5) 0.718(2)
C26 C 0.6672(9) 0.0563(6) 0.732(2)
C27 C 0.6089(8) -0.0060(5) 0.767(2)
C28 C 0.514(1) -0.0071(7) 0.752(2)
Br2 Br 1.48647(5) 0.59789(4) 0.1853(1)
N3 N 1.6697(4) 0.4407(2) 0.3330(6)
N4 N 1.7783(4) 0.7382(2) 0.0097(5)
C29 C 1.6714(4) 0.5407(3) 0.2313(7)
C30 C 1.6231(4) 0.5925(3) 0.1844(7)
C31 C 1.6709(5) 0.6425(3) 0.1308(7)
C32 C 1.7700(5) 0.6414(3) 0.1264(7)
C33 C 1.8196(4) 0.5906(3) 0.1751(7)
C34 C 1.7717(4) 0.5421(3) 0.2290(7)
C35 C 1.6209(4) 0.4856(3) 0.2814(7)
C36 C 1.6141(5) 0.3853(3) 0.3642(7)
C37 C 1.6628(4) 0.3565(3) 0.4897(7)
C38 C 1.6137(5) 0.3023(3) 0.5223(7)
C39 C 1.5174(5) 0.2735(3) 0.4296(8)
C40 C 1.4697(4) 0.3016(3) 0.3024(8)
C41 C 1.5161(5) 0.3570(3) 0.2685(7)
C42 C 1.4626(5) 0.2120(3) 0.4601(9)
C43 C 1.3772(6) 0.2238(3) 0.5274(8)
C44 C 1.3203(6) 0.1637(3) 0.5536(9)
C45 C 1.2381(6) 0.1770(4) 0.624(1)
C46 C 1.8211(5) 0.6923(3) 0.0632(7)
C47 C 1.8320(4) 0.7831(3) -0.0561(7)
C48 C 1.8115(5) 0.8458(3) -0.0465(8)
C49 C 1.8602(5) 0.8909(3) -0.1103(9)
C50 C 1.9267(5) 0.8750(4) -0.1877(8)
C51 C 1.9456(6) 0.8125(4) -0.1982(8)
C52 C 1.9002(5) 0.7668(3) -0.1316(7)
C53 C 1.9744(7) 0.9241(4) -0.266(1)
C54 C 2.0843(7) 0.9379(4) -0.213(1)
C55 C 2.1291(7) 0.9878(4) -0.297(1)
C56 C 2.240(1) 0.9977(5) -0.247(1)
loop_
_geom_bond_atom_site_label_1
_geom_bond_atom_site_label_2
_geom_bond_site_symmetry_1
_geom_bond_site_symmetry_2
Br1 C2 1_555 1_555
Br2 C30 1_555 1_555
N1 C7 1_555 1_555
N2 C18 1_555 1_555
N3 C35 1_555 1_555
N4 C46 1_555 1_555
C1 C2 1_555 1_555
C2 C3 1_555 1_555
C3 C4 1_555 1_555
C4 C5 1_555 1_555
C5 C6 1_555 1_555
C6 C1 1_555 1_555
C7 C1 1_555 1_555
C8 N1 1_555 1_555
C9 C8 1_555 1_555
C10 C9 1_555 1_555
C11 C10 1_555 1_555
C12 C11 1_555 1_555
C13 C8 1_555 1_555
C14 C11 1_555 1_555
C15 C14 1_555 1_555
C16 C15 1_555 1_555
C17 C16 1_555 1_555
C18 C4 1_555 1_555
C19 N2 1_555 1_555
C20 C19 1_555 1_555
C21 C20 1_555 1_555
C22 C21 1_555 1_555
C23 C22 1_555 1_555
C24 C19 1_555 1_555
C25 C22 1_555 1_555
C26 C25 1_555 1_555
C27 C26 1_555 1_555
C28 C27 1_555 1_555
C29 C30 1_555 1_555
C30 C31 1_555 1_555
C31 C32 1_555 1_555
C32 C33 1_555 1_555
C33 C34 1_555 1_555
C34 C29 1_555 1_555
C35 C29 1_555 1_555
C36 N3 1_555 1_555
C37 C36 1_555 1_555
C38 C37 1_555 1_555
C39 C38 1_555 1_555
C40 C39 1_555 1_555
C41 C36 1_555 1_555
C42 C39 1_555 1_555
C43 C42 1_555 1_555
C44 C43 1_555 1_555
C45 C44 1_555 1_555
C46 C32 1_555 1_555
C47 N4 1_555 1_555
C48 C47 1_555 1_555
C49 C48 1_555 1_555
C50 C49 1_555 1_555
C51 C50 1_555 1_555
C52 C47 1_555 1_555
C53 C50 1_555 1_555
C54 C53 1_555 1_555
C55 C54 1_555 1_555
C56 C55 1_555 1_555
C12 C13 1_555 1_555
C23 C24 1_555 1_555
C40 C41 1_555 1_555
C51 C52 1_555 1_555

#END
