
#######################################################################
#
#                 Cambridge Crystallographic Data Centre
#                                CCDC 
#
#######################################################################
#
# If this CIF has been generated from an entry in the Cambridge 
# Structural Database, then it will include bibliographic, chemical, 
# crystal, experimental, refinement or atomic coordinate data resulting 
# from the CCDC's data processing and validation procedures.
#
#######################################################################

data_XOXLIH01
_chemical_formula_moiety         'C23 H21 N3 O3,C1 H2 Cl2'
_chemical_name_systematic        
'3-(3-(1H-benzimidazol-2-yl)-3-oxoprop-1-en-1-yl)-7-(diethylamino)-2H-chromen-2-one dichloromethane solvate'
_symmetry_cell_setting           triclinic
_symmetry_space_group_name_H-M   'P -1'
_symmetry_Int_Tables_number      2
_space_group_name_Hall           '-P 1'
loop_
_symmetry_equiv_pos_site_id
_symmetry_equiv_pos_as_xyz
1 x,y,z
2 -x,-y,-z
_cell_length_a                   9.859(5)
_cell_length_b                   10.248(5)
_cell_length_c                   11.888(6)
_cell_angle_alpha                90.995(8)
_cell_angle_beta                 99.248(8)
_cell_angle_gamma                93.651(9)
_cell_volume                     1182.62
_exptl_crystal_colour            red
_exptl_crystal_description       block
_cell_formula_units_Z            2
loop_
_atom_site_label
_atom_site_type_symbol
_atom_site_fract_x
_atom_site_fract_y
_atom_site_fract_z
O1 O 0.1201(2) 0.7158(2) 0.96338(19)
O2 O 0.3028(3) 0.6372(3) 1.0663(2)
O3 O 0.3914(3) 0.1439(3) 0.9649(2)
N1 N -0.2720(3) 0.9160(3) 0.7642(2)
N2 N 0.6099(3) 0.1103(3) 1.1390(3)
H1 H 0.5901 0.0407 1.0966
N3 N 0.5952(3) 0.3155(3) 1.2057(3)
C1 C 0.2063(4) 0.6132(3) 0.9910(3)
C2 C 0.0043(3) 0.7049(3) 0.8809(3)
C3 C -0.1909(3) 0.8102(3) 0.7802(3)
C4 C -0.0312(4) 0.5879(3) 0.8161(3)
C5 C 0.5447(4) 0.2244(4) 1.1265(3)
C6 C 0.0550(4) 0.4818(3) 0.8417(3)
H2 H 0.0327 0.4036 0.8000
C7 C 0.1687(4) 0.4902(3) 0.9244(3)
C8 C -0.0717(4) 0.8141(3) 0.8647(3)
H3 H -0.0445 0.8896 0.9091
C9 C 0.7126(4) 0.1272(4) 1.2316(3)
C10 C -0.1493(4) 0.5847(3) 0.7327(3)
H4 H -0.1767 0.5082 0.6896
C11 C -0.2260(4) 0.6928(4) 0.7133(3)
H5 H -0.3020 0.6887 0.6555
C12 C 0.2517(4) 0.3775(3) 0.9482(3)
H6 H 0.2206 0.3032 0.9030
C13 C 0.4292(4) 0.2382(4) 1.0324(3)
C14 C 0.3644(4) 0.3641(3) 1.0241(3)
H7 H 0.4024 0.4344 1.0720
C15 C -0.3786(4) 0.9211(4) 0.6635(3)
H8 H -0.4401 0.9879 0.6766
H9 H -0.4323 0.8378 0.6536
C16 C 0.8109(5) 0.0452(5) 1.2828(4)
H10 H 0.8142 -0.0403 1.2561
C17 C -0.2350(4) 1.0382(4) 0.8319(3)
H11 H -0.2016 1.0166 0.9101
H12 H -0.3175 1.0851 0.8316
C18 C 0.7022(4) 0.2568(4) 1.2732(3)
C19 C -0.3219(5) 0.9502(5) 0.5544(3)
H13 H -0.3958 0.9434 0.4908
H14 H -0.2556 0.8884 0.5436
H15 H -0.2785 1.0371 0.5597
C20 C 0.8938(5) 0.2238(8) 1.4175(4)
H16 H 0.9564 0.2533 1.4812
C21 C -0.1269(5) 1.1278(4) 0.7900(4)
H17 H -0.1627 1.1576 0.7157
H18 H -0.0464 1.0810 0.7860
H19 H -0.1031 1.2016 0.8419
C22 C 0.7951(5) 0.3065(6) 1.3683(4)
H20 H 0.7912 0.3908 1.3972
C23 C 0.9009(5) 0.0960(7) 1.3727(5)
H21 H 0.9703 0.0452 1.4066
Cl1 Cl 0.7182(2) 0.6714(2) 1.35345(16)
Cl2 Cl 0.4350(2) 0.6655(2) 1.4002(2)
C24 C 0.5472(8) 0.6364(9) 1.2978(5)
H22 H 0.5338 0.5455 1.2721
H23 H 0.5225 0.6899 1.2321
loop_
_geom_bond_atom_site_label_1
_geom_bond_atom_site_label_2
_geom_bond_site_symmetry_1
_geom_bond_site_symmetry_2
O1 C1 1_555 1_555
O2 C1 1_555 1_555
O3 C13 1_555 1_555
N1 C3 1_555 1_555
N2 H1 1_555 1_555
N3 C5 1_555 1_555
C1 C7 1_555 1_555
C2 O1 1_555 1_555
C3 C8 1_555 1_555
C4 C2 1_555 1_555
C5 N2 1_555 1_555
C6 C4 1_555 1_555
H2 C6 1_555 1_555
C7 C6 1_555 1_555
C8 C2 1_555 1_555
H3 C8 1_555 1_555
C9 N2 1_555 1_555
C10 C4 1_555 1_555
H4 C10 1_555 1_555
C11 C3 1_555 1_555
H5 C11 1_555 1_555
C12 C7 1_555 1_555
H6 C12 1_555 1_555
C13 C5 1_555 1_555
C14 C12 1_555 1_555
H7 C14 1_555 1_555
C15 N1 1_555 1_555
H8 C15 1_555 1_555
H9 C15 1_555 1_555
C16 C9 1_555 1_555
H10 C16 1_555 1_555
C17 N1 1_555 1_555
H11 C17 1_555 1_555
H12 C17 1_555 1_555
C18 N3 1_555 1_555
C19 C15 1_555 1_555
H13 C19 1_555 1_555
H14 C19 1_555 1_555
H15 C19 1_555 1_555
C20 H16 1_555 1_555
C21 C17 1_555 1_555
H17 C21 1_555 1_555
H18 C21 1_555 1_555
H19 C21 1_555 1_555
C22 C18 1_555 1_555
H20 C22 1_555 1_555
C23 C16 1_555 1_555
H21 C23 1_555 1_555
Cl1 C24 1_555 1_555
Cl2 C24 1_555 1_555
C24 H22 1_555 1_555
H23 C24 1_555 1_555
C9 C18 1_555 1_555
C10 C11 1_555 1_555
C13 C14 1_555 1_555
C20 C22 1_555 1_555
C20 C23 1_555 1_555

#END
