
#######################################################################
#
#                 Cambridge Crystallographic Data Centre
#                                CCDC 
#
#######################################################################
#
# If this CIF has been generated from an entry in the Cambridge 
# Structural Database, then it will include bibliographic, chemical, 
# crystal, experimental, refinement or atomic coordinate data resulting 
# from the CCDC's data processing and validation procedures.
#
#######################################################################

data_XOXLAZ
_chemical_compound_source        'Celastrus angulatus Maxim'
_chemical_name_common            
1-allyloxy-6-(4'-fluorobenzyloxy)-4,9-dihydroxy-2,12-epoxymethanodihydroagarofuran
_chemical_formula_moiety         'C25 H33 F1 O6'
_chemical_name_systematic        
14-(allyloxy)-13-((4-fluorobenzyl)oxy)-2,11,11-trimethyl-5,12-dioxatetracyclo[8.2.1.1^4,7^.0^1,7^]tetradecane-2,8-diol
_symmetry_cell_setting           orthorhombic
_symmetry_space_group_name_H-M   'P 21 21 21'
_symmetry_Int_Tables_number      19
_space_group_name_Hall           'P 2ac 2ab'
loop_
_symmetry_equiv_pos_site_id
_symmetry_equiv_pos_as_xyz
1 x,y,z
2 1/2-x,-y,1/2+z
3 -x,1/2+y,1/2-z
4 1/2+x,1/2-y,-z
_cell_length_a                   12.262(2)
_cell_length_b                   13.543(2)
_cell_length_c                   13.750(2)
_cell_angle_alpha                90
_cell_angle_beta                 90
_cell_angle_gamma                90
_cell_volume                     2283.38
_exptl_crystal_colour            white
_exptl_crystal_description       prism
_chemical_melting_point          '431-433 K'
_cell_formula_units_Z            4
_exptl_crystal_recrystallization_method 'ethyl acetate'
loop_
_atom_site_label
_atom_site_type_symbol
_atom_site_fract_x
_atom_site_fract_y
_atom_site_fract_z
F1 F 1.02865(17) -0.0314(2) -0.06816(18)
O1 O 0.10707(15) 0.14572(14) 0.21268(13)
O2 O 0.30297(18) 0.25855(12) 0.19957(13)
O3 O 0.15028(17) -0.04339(15) 0.2368(2)
H1 H 0.1060 0.0019 0.2393
O4 O 0.56177(13) -0.00760(13) 0.10697(12)
O5 O 0.32357(13) -0.01007(11) 0.04824(10)
O6 O 0.46166(16) 0.11141(13) -0.03640(12)
H2 H 0.4221 0.0686 -0.0595
C1 C 0.7502(2) 0.0029(2) 0.00376(19)
H3 H 0.6871 0.0334 -0.0188
C2 C 0.8450(3) 0.0084(2) -0.0501(2)
H4 H 0.8471 0.0424 -0.1088
C3 C 0.9351(2) -0.0373(3) -0.0146(2)
C4 C 0.9370(2) -0.0875(2) 0.0704(2)
H5 H 1.0006 -0.1172 0.0927
C5 C 0.8426(2) -0.0930(2) 0.1222(2)
H6 H 0.8415 -0.1284 0.1802
C6 C 0.7487(2) -0.0476(2) 0.0908(2)
C7 C 0.6493(2) -0.0531(3) 0.1525(3)
H7 H 0.6315 -0.1217 0.1652
H8 H 0.6632 -0.0210 0.2144
C8 C 0.46559(19) -0.00550(18) 0.16298(17)
H9 H 0.4810 0.0194 0.2285
C9 C 0.4059(2) -0.10447(18) 0.16859(19)
H10 H 0.4583 -0.1583 0.1776
C10 C 0.3520(2) -0.11253(17) 0.06898(19)
C11 C 0.3307(2) -0.09736(19) 0.25645(19)
H11 H 0.3752 -0.0972 0.3147
H12 H 0.2857 -0.1562 0.2584
C12 C 0.2557(2) -0.0070(2) 0.25949(18)
H13 H 0.2536 0.0160 0.3270
C13 C 0.28994(19) 0.08349(17) 0.19477(15)
C14 C 0.37623(18) 0.05584(16) 0.11504(16)
C15 C 0.4157(2) 0.14631(17) 0.05284(16)
C16 C 0.3195(2) 0.21294(19) 0.02875(17)
H14 H 0.3468 0.2764 0.0068
H15 H 0.2784 0.1838 -0.0242
C17 C 0.2441(3) 0.22897(18) 0.11459(18)
H16 H 0.1880 0.2779 0.0985
C18 C 0.1922(2) 0.13241(18) 0.14313(17)
H17 H 0.1679 0.0944 0.0865
C19 C 0.4292(3) -0.1480(2) -0.0102(2)
H18 H 0.3928 -0.1455 -0.0720
H19 H 0.4511 -0.2147 0.0033
H20 H 0.4924 -0.1062 -0.0118
C20 C 0.2492(3) -0.1727(2) 0.0644(3)
H21 H 0.1986 -0.1491 0.1124
H22 H 0.2660 -0.2408 0.0772
H23 H 0.2174 -0.1668 0.0009
C21 C 0.5094(2) 0.2048(2) 0.0986(2)
H24 H 0.5692 0.1612 0.1120
H25 H 0.4849 0.2344 0.1582
H26 H 0.5327 0.2555 0.0545
C22 C 0.3251(2) 0.17210(19) 0.25624(17)
H27 H 0.2844 0.1739 0.3167
H28 H 0.4023 0.1680 0.2714
C23 C 0.0084(2) 0.1821(3) 0.1721(2)
H29 H -0.0122 0.1416 0.1169
H30 H 0.0194 0.2491 0.1492
C24 C -0.0786(3) 0.1807(3) 0.2440(3)
H31 H -0.0785 0.2380 0.2814
C25 C -0.1436(8) 0.1311(5) 0.2658(6)
H32 H -0.1993 0.0885 0.2844
loop_
_geom_bond_atom_site_label_1
_geom_bond_atom_site_label_2
_geom_bond_site_symmetry_1
_geom_bond_site_symmetry_2
F1 C3 1_555 1_555
O1 C18 1_555 1_555
O2 C17 1_555 1_555
O3 H1 1_555 1_555
O4 C7 1_555 1_555
O5 C10 1_555 1_555
O6 H2 1_555 1_555
C1 H3 1_555 1_555
C2 C1 1_555 1_555
H4 C2 1_555 1_555
C3 C2 1_555 1_555
C4 C3 1_555 1_555
H5 C4 1_555 1_555
C5 C4 1_555 1_555
H6 C5 1_555 1_555
C6 C1 1_555 1_555
C7 C6 1_555 1_555
H7 C7 1_555 1_555
H8 C7 1_555 1_555
C8 O4 1_555 1_555
H9 C8 1_555 1_555
C9 C8 1_555 1_555
H10 C9 1_555 1_555
C10 C9 1_555 1_555
C11 C9 1_555 1_555
H11 C11 1_555 1_555
H12 C11 1_555 1_555
C12 O3 1_555 1_555
H13 C12 1_555 1_555
C13 C12 1_555 1_555
C14 O5 1_555 1_555
C15 O6 1_555 1_555
C16 C15 1_555 1_555
H14 C16 1_555 1_555
H15 C16 1_555 1_555
C17 C16 1_555 1_555
H16 C17 1_555 1_555
C18 C13 1_555 1_555
H17 C18 1_555 1_555
C19 C10 1_555 1_555
H18 C19 1_555 1_555
H19 C19 1_555 1_555
H20 C19 1_555 1_555
C20 C10 1_555 1_555
H21 C20 1_555 1_555
H22 C20 1_555 1_555
H23 C20 1_555 1_555
C21 C15 1_555 1_555
H24 C21 1_555 1_555
H25 C21 1_555 1_555
H26 C21 1_555 1_555
C22 O2 1_555 1_555
H27 C22 1_555 1_555
H28 C22 1_555 1_555
C23 O1 1_555 1_555
H29 C23 1_555 1_555
H30 C23 1_555 1_555
C24 C23 1_555 1_555
H31 C24 1_555 1_555
C25 C24 1_555 1_555
H32 C25 1_555 1_555
C5 C6 1_555 1_555
C8 C14 1_555 1_555
C11 C12 1_555 1_555
C13 C14 1_555 1_555
C13 C22 1_555 1_555
C14 C15 1_555 1_555
C17 C18 1_555 1_555

#END
