
#######################################################################
#
#                 Cambridge Crystallographic Data Centre
#                                CCDC 
#
#######################################################################
#
# If this CIF has been generated from an entry in the Cambridge 
# Structural Database, then it will include bibliographic, chemical, 
# crystal, experimental, refinement or atomic coordinate data resulting 
# from the CCDC's data processing and validation procedures.
#
#######################################################################

data_XOXQIK
_chemical_formula_moiety         'C32 H25 Cl1 N2 O3 S1,C4 H8 O2'
_chemical_name_systematic        
'5-(4-Chlorophenyl)-7-phenyl-8-((4R)-phenyloxazolidyl)-benzo(b)-4,1-thiazabicyclo(5.2.0)nonan-9-one ethyl acetate solvate'
_symmetry_cell_setting           orthorhombic
_symmetry_space_group_name_H-M   'P 21 21 21'
_symmetry_Int_Tables_number      19
_space_group_name_Hall           'P 2ac 2ab'
loop_
_symmetry_equiv_pos_site_id
_symmetry_equiv_pos_as_xyz
1 x,y,z
2 1/2-x,-y,1/2+z
3 1/2+x,1/2-y,-z
4 -x,1/2+y,1/2-z
_cell_length_a                   12.293(2)
_cell_length_b                   26.026(5)
_cell_length_c                   10.146(2)
_cell_angle_alpha                90
_cell_angle_beta                 90
_cell_angle_gamma                90
_cell_volume                     3246.09
_cell_formula_units_Z            4
_exptl_crystal_recrystallization_method 'ethyl acetate/petroleum ether'
loop_
_atom_site_label
_atom_site_type_symbol
_atom_site_fract_x
_atom_site_fract_y
_atom_site_fract_z
Cl1 Cl 0.5159(2) 0.0199(1) 0.9382(3)
S1 S 0.0038(2) 0.0664(1) 0.7932(2)
O1 O -0.2367(5) 0.2110(2) 0.6701(6)
O2 O -0.2024(6) 0.2228(2) 0.3700(6)
O3 O -0.1046(6) 0.2876(2) 0.2848(6)
N1 N -0.1090(5) 0.1473(2) 0.6115(6)
N2 N -0.0511(6) 0.2545(2) 0.4751(6)
C1 C -0.1177(6) 0.0609(3) 0.7061(9)
C2 C -0.1779(8) 0.0157(3) 0.7210(12)
C3 C -0.2800(9) 0.0106(4) 0.6695(12)
C4 C -0.3251(9) 0.0498(4) 0.5942(12)
C5 C -0.2643(7) 0.0938(3) 0.5717(9)
C6 C -0.1639(7) 0.0991(3) 0.6295(9)
C7 C -0.1517(7) 0.1958(3) 0.6293(9)
C8 C -0.0445(6) 0.2202(3) 0.5846(8)
C9 C 0.0017(7) 0.1642(3) 0.5627(8)
C10 C 0.0915(7) 0.1504(3) 0.6563(8)
C11 C 0.1050(7) 0.0925(3) 0.6778(8)
C12 C 0.2118(6) 0.0762(3) 0.7369(8)
C13 C 0.2618(8) 0.1053(6) 0.8352(8)
C14 C 0.3559(8) 0.0889(3) 0.8944(9)
C15 C 0.4018(8) 0.0431(4) 0.8601(10)
C16 C 0.3556(8) 0.0136(4) 0.7595(10)
C17 C 0.2596(8) 0.0307(3) 0.7023(9)
C18 C 0.0250(8) 0.1517(3) 0.4194(9)
C19 C 0.1162(9) 0.1735(3) 0.3630(10)
C20 C 0.1373(9) 0.1668(4) 0.2293(12)
C21 C 0.0715(11) 0.1360(4) 0.1562(10)
C22 C -0.0182(11) 0.1152(4) 0.2092(9)
C23 C -0.0396(8) 0.1215(3) 0.3420(9)
C24 C 0.0220(7) 0.2990(3) 0.4566(8)
C25 C 0.0001(9) 0.3095(3) 0.3110(9)
C26 C -0.1268(9) 0.2511(3) 0.3773(9)
C27 C -0.0083(7) 0.3425(3) 0.5512(9)
C28 C 0.0533(8) 0.3507(3) 0.6636(9)
C29 C 0.0243(9) 0.3898(4) 0.7491(10)
C30 C -0.0659(9) 0.4192(4) 0.7238(12)
C31 C -0.1277(9) 0.4108(4) 0.6148(13)
C32 C -0.0967(8) 0.3714(3) 0.5288(10)
O4 O 0.0915(7) 0.3113(3) 0.9904(7)
O5 O 0.1076(12) 0.2332(3) 0.9114(10)
C33 C 0.2380(10) 0.3648(5) 1.0420(12)
C34 C 0.2069(12) 0.3152(5) 0.9931(12)
C35 C 0.0542(15) 0.2675(6) 0.9458(13)
C36 C -0.0648(15) 0.2685(7) 0.9440(15)
loop_
_geom_bond_atom_site_label_1
_geom_bond_atom_site_label_2
_geom_bond_site_symmetry_1
_geom_bond_site_symmetry_2
Cl1 C15 1_555 1_555
S1 C1 1_555 1_555
O1 C7 1_555 1_555
O2 C26 1_555 1_555
O3 C25 1_555 1_555
O4 C34 1_555 1_555
O5 C35 1_555 1_555
N1 C6 1_555 1_555
N2 C8 1_555 1_555
C1 C2 1_555 1_555
C2 C3 1_555 1_555
C3 C4 1_555 1_555
C4 C5 1_555 1_555
C5 C6 1_555 1_555
C6 C1 1_555 1_555
C7 N1 1_555 1_555
C8 C7 1_555 1_555
C9 N1 1_555 1_555
C10 C9 1_555 1_555
C11 S1 1_555 1_555
C12 C11 1_555 1_555
C13 C12 1_555 1_555
C14 C13 1_555 1_555
C15 C14 1_555 1_555
C16 C15 1_555 1_555
C17 C12 1_555 1_555
C18 C9 1_555 1_555
C19 C18 1_555 1_555
C20 C19 1_555 1_555
C21 C20 1_555 1_555
C22 C21 1_555 1_555
C23 C18 1_555 1_555
C24 N2 1_555 1_555
C25 C24 1_555 1_555
C26 O3 1_555 1_555
C27 C24 1_555 1_555
C28 C27 1_555 1_555
C29 C28 1_555 1_555
C30 C29 1_555 1_555
C31 C30 1_555 1_555
C32 C27 1_555 1_555
C33 C34 1_555 1_555
C35 O4 1_555 1_555
C36 C35 1_555 1_555
N2 C26 1_555 1_555
C8 C9 1_555 1_555
C10 C11 1_555 1_555
C16 C17 1_555 1_555
C22 C23 1_555 1_555
C31 C32 1_555 1_555

#END
