
#######################################################################
#
#                 Cambridge Crystallographic Data Centre
#                                CCDC 
#
#######################################################################
#
# If this CIF has been generated from an entry in the Cambridge 
# Structural Database, then it will include bibliographic, chemical, 
# crystal, experimental, refinement or atomic coordinate data resulting 
# from the CCDC's data processing and validation procedures.
#
#######################################################################

data_XOXQIK01
_chemical_formula_moiety         'C32 H25 Cl1 N2 O3 S1,C4 H8 O2'
_chemical_name_systematic        
'4-(4-Chlorophenyl)-2a-phenyl-2-(4-phenyl-2-oxo-1,3-oxazolidin-3-yl)-2,2a,3,4-tetrahydro-1H-azeto(2,1-d)(1,5)benzothiazepin-1-one ethyl acetate solvate'
_symmetry_cell_setting           orthorhombic
_symmetry_space_group_name_H-M   'P 21 21 21'
_symmetry_Int_Tables_number      19
_space_group_name_Hall           'P 2ac 2ab'
loop_
_symmetry_equiv_pos_site_id
_symmetry_equiv_pos_as_xyz
1 x,y,z
2 1/2-x,-y,1/2+z
3 1/2+x,1/2-y,-z
4 -x,1/2+y,1/2-z
_cell_length_a                   12.293(2)
_cell_length_b                   26.026(5)
_cell_length_c                   10.146(2)
_cell_angle_alpha                90
_cell_angle_beta                 90
_cell_angle_gamma                90
_cell_volume                     3246.09
_cell_formula_units_Z            4
loop_
_atom_site_label
_atom_site_type_symbol
_atom_site_fract_x
_atom_site_fract_y
_atom_site_fract_z
Cl1 Cl 0.5158(2) 0.0199(1) 0.9381(3)
S1 S 0.0038(2) 0.0663(1) 0.7931(2)
O1 O -0.2365(5) 0.2109(2) 0.6702(6)
O2 O -0.2024(6) 0.2229(2) 0.3701(6)
O3 O -0.1046(6) 0.2876(2) 0.2845(6)
N1 N -0.1091(6) 0.1473(2) 0.6114(6)
N2 N -0.0510(5) 0.2546(2) 0.4752(6)
C1 C -0.1177(6) 0.0608(3) 0.7058(9)
C2 C -0.1780(8) 0.0158(3) 0.7211(11)
C3 C -0.2800(9) 0.0107(4) 0.6691(12)
C4 C -0.3254(9) 0.0497(4) 0.5939(12)
C5 C -0.2644(7) 0.0938(3) 0.5718(9)
C6 C -0.1638(7) 0.0991(3) 0.6291(9)
C7 C -0.1519(7) 0.1957(3) 0.6294(9)
C8 C -0.0448(6) 0.2203(3) 0.5847(8)
C9 C 0.0017(7) 0.1642(3) 0.5627(8)
C10 C 0.0916(7) 0.1505(3) 0.6561(7)
C11 C 0.1049(6) 0.0925(3) 0.6776(8)
C12 C 0.2117(6) 0.0763(3) 0.7367(8)
C13 C 0.2616(8) 0.1056(3) 0.8352(9)
C14 C 0.3559(8) 0.0888(3) 0.8945(9)
C15 C 0.4019(8) 0.0430(4) 0.8599(9)
C16 C 0.3554(7) 0.0136(4) 0.7598(10)
C17 C 0.2598(8) 0.0308(3) 0.7027(9)
C18 C 0.0250(7) 0.1517(3) 0.4196(9)
C19 C 0.1166(8) 0.1736(3) 0.3632(10)
C20 C 0.1372(9) 0.1665(4) 0.2292(12)
C21 C 0.0714(11) 0.1360(4) 0.1567(10)
C22 C -0.0182(11) 0.1151(4) 0.2093(9)
C23 C -0.0398(8) 0.1214(2) 0.3420(9)
C24 C -0.0218(7) 0.2989(3) 0.4568(8)
C25 C 0.0006(9) 0.3095(3) 0.3110(9)
C26 C -0.1265(8) 0.2512(3) 0.3775(9)
C27 C -0.0084(7) 0.3425(3) 0.5511(9)
C28 C 0.0537(8) 0.3506(3) 0.6633(8)
C29 C 0.0241(9) 0.3899(4) 0.7489(10)
C30 C -0.0661(9) 0.4194(4) 0.7239(11)
C31 C -0.1280(9) 0.4108(4) 0.6145(13)
C32 C -0.0965(8) 0.3715(3) 0.5291(10)
O4 O 0.0916(6) 0.3112(3) 0.9910(7)
C33 C 0.2376(10) 0.3660(4) 1.0426(12)
C34 C 0.2080(10) 0.3151(4) 0.9940(12)
C35 C 0.0527(15) 0.2674(5) 0.9459(12)
O5 O 0.1071(11) 0.2335(4) 0.9116(10)
C36 C -0.0689(12) 0.2692(6) 0.9452(14)
loop_
_geom_bond_atom_site_label_1
_geom_bond_atom_site_label_2
_geom_bond_site_symmetry_1
_geom_bond_site_symmetry_2
Cl1 C15 1_555 1_555
S1 C1 1_555 1_555
O1 C7 1_555 1_555
O2 C26 1_555 1_555
O3 C25 1_555 1_555
N1 C6 1_555 1_555
N2 C8 1_555 1_555
C1 C2 1_555 1_555
C2 C3 1_555 1_555
C3 C4 1_555 1_555
C4 C5 1_555 1_555
C5 C6 1_555 1_555
C6 C1 1_555 1_555
C7 N1 1_555 1_555
C8 C7 1_555 1_555
C9 N1 1_555 1_555
C10 C9 1_555 1_555
C11 S1 1_555 1_555
C12 C11 1_555 1_555
C13 C12 1_555 1_555
C14 C13 1_555 1_555
C15 C14 1_555 1_555
C16 C15 1_555 1_555
C17 C12 1_555 1_555
C18 C9 1_555 1_555
C19 C18 1_555 1_555
C20 C19 1_555 1_555
C21 C20 1_555 1_555
C22 C21 1_555 1_555
C23 C18 1_555 1_555
C24 N2 1_555 1_555
C25 C24 1_555 1_555
C26 O3 1_555 1_555
C27 C24 1_555 1_555
C28 C27 1_555 1_555
C29 C28 1_555 1_555
C30 C29 1_555 1_555
C31 C30 1_555 1_555
C32 C27 1_555 1_555
O4 C34 1_555 1_555
C33 C34 1_555 1_555
C35 O4 1_555 1_555
O5 C35 1_555 1_555
C36 C35 1_555 1_555
N2 C26 1_555 1_555
C8 C9 1_555 1_555
C10 C11 1_555 1_555
C16 C17 1_555 1_555
C22 C23 1_555 1_555
C31 C32 1_555 1_555

#END
