
#######################################################################
#
#                 Cambridge Crystallographic Data Centre
#                                CCDC 
#
#######################################################################
#
# If this CIF has been generated from an entry in the Cambridge 
# Structural Database, then it will include bibliographic, chemical, 
# crystal, experimental, refinement or atomic coordinate data resulting 
# from the CCDC's data processing and validation procedures.
#
#######################################################################

data_XOXRAD
_chemical_formula_moiety         'C20 H22 N1 O6'
_chemical_name_systematic        
'Diethyl 4-(3,4-methylenedioxylphenyl)-2,6-dimethyl-1,4-dihydropyridine-3,5-dicarboxylate'
_symmetry_cell_setting           monoclinic
_symmetry_space_group_name_H-M   'P 21/c'
_symmetry_Int_Tables_number      14
_space_group_name_Hall           '-P 2ybc'
loop_
_symmetry_equiv_pos_site_id
_symmetry_equiv_pos_as_xyz
1 x,y,z
2 -x,1/2+y,1/2-z
3 -x,-y,-z
4 x,1/2-y,1/2+z
_cell_length_a                   14.864(3)
_cell_length_b                   9.830(1)
_cell_length_c                   14.517(3)
_cell_angle_alpha                90
_cell_angle_beta                 115.25(1)
_cell_angle_gamma                90
_cell_volume                     1918.46
_chemical_melting_point          '130-132 deg.C'
_cell_formula_units_Z            4
loop_
_atom_site_label
_atom_site_type_symbol
_atom_site_fract_x
_atom_site_fract_y
_atom_site_fract_z
O1 O 0.9304(1) 0.5560(2) 0.7573(2)
O2 O 0.9877(1) 0.4740(2) 0.6434(2)
O3 O 0.4548(18) 0.6530(30) 0.3605(18)
O4 O 0.5634(1) 0.7443(2) 0.3145(1)
O5 O 0.8001(16) 1.0750(30) 0.5194(11)
O6 O 0.7815(19) 1.1897(14) 0.6429(11)
N1 N 0.5941(1) 0.8563(2) 0.6408(1)
C1 C 0.5469(2) 0.7812(2) 0.5529(2)
C2 C 0.5822(2) 0.7897(2) 0.4810(2)
C3 C 0.6799(2) 0.8643(2) 0.5041(2)
C4 C 0.6973(2) 0.9747(2) 0.5832(2)
C5 C 0.6597(2) 0.9611(2) 0.6519(2)
C6 C 0.7661(2) 0.7630(2) 0.5388(2)
C7 C 0.8073(2) 0.7142(2) 0.6388(2)
C8 C 0.8794(2) 0.6171(3) 0.6643(2)
C9 C 0.9134(2) 0.5693(3) 0.5962(2)
C10 C 0.8764(2) 0.6165(3) 0.4988(3)
C11 C 0.8020(2) 0.7141(3) 0.4713(2)
C12 C 0.9854(2) 0.4493(3) 0.7378(3)
C13 C 0.4596(2) 0.7015(3) 0.5498(2)
C14 C 0.5359(2) 0.7267(2) 0.3810(2)
C15 C 0.3959(14) 0.5910(20) 0.2624(14)
C16 C 0.3197(16) 0.5090(30) 0.2830(20)
C17 C 0.6801(2) 1.0470(3) 0.7439(2)
C18 C 0.7618(2) 1.0895(2) 0.5876(2)
C19 C 0.8688(11) 1.1874(16) 0.5268(8)
C20 C 0.8790(10) 1.1872(17) 0.4286(8)
O7? O 0.4626(19) 0.6400(30) 0.3731(19)
O8? O 0.8020(20) 1.1645(15) 0.6613(12)
O9? O 0.7762(17) 1.1000(30) 0.5021(11)
C21? C 0.4147(14) 0.5760(20) 0.2741(14)
C22? C 0.3174(15) 0.5150(20) 0.2650(20)
C23? C 0.8346(12) 1.2130(20) 0.4895(11)
C24? C 0.9171(10) 1.1452(19) 0.4713(13)
loop_
_geom_bond_atom_site_label_1
_geom_bond_atom_site_label_2
_geom_bond_site_symmetry_1
_geom_bond_site_symmetry_2
O1 C8 1_555 1_555
O2 C9 1_555 1_555
O3 C14 1_555 1_555
O4 C14 1_555 1_555
O5 C18 1_555 1_555
O6 C18 1_555 1_555
N1 C1 1_555 1_555
C1 C2 1_555 1_555
C2 C3 1_555 1_555
C3 C4 1_555 1_555
C4 C5 1_555 1_555
C5 N1 1_555 1_555
C6 C3 1_555 1_555
C7 C6 1_555 1_555
C8 C7 1_555 1_555
C9 C8 1_555 1_555
C10 C9 1_555 1_555
C11 C6 1_555 1_555
C12 O1 1_555 1_555
C13 C1 1_555 1_555
C14 C2 1_555 1_555
C15 O3 1_555 1_555
C16 C15 1_555 1_555
C17 C5 1_555 1_555
C18 C4 1_555 1_555
C19 O5 1_555 1_555
C20 C19 1_555 1_555
O2 C12 1_555 1_555
C10 C11 1_555 1_555

#END
