
#######################################################################
#
#                 Cambridge Crystallographic Data Centre
#                                CCDC 
#
#######################################################################
#
# If this CIF has been generated from an entry in the Cambridge 
# Structural Database, then it will include bibliographic, chemical, 
# crystal, experimental, refinement or atomic coordinate data resulting 
# from the CCDC's data processing and validation procedures.
#
#######################################################################

data_XOXREH
_chemical_formula_moiety         'C20 H21 N1 O6'
_chemical_name_systematic        
'Diethyl 4-(3,4-methylenedioxylphenyl)-2,6-dimethylpyridine-3,5-dicarboxylate'
_symmetry_cell_setting           triclinic
_symmetry_space_group_name_H-M   'P -1'
_symmetry_Int_Tables_number      2
_space_group_name_Hall           '-P 1'
loop_
_symmetry_equiv_pos_site_id
_symmetry_equiv_pos_as_xyz
1 x,y,z
2 -x,-y,-z
_cell_length_a                   8.915(1)
_cell_length_b                   10.575(1)
_cell_length_c                   11.904(1)
_cell_angle_alpha                102.19(1)
_cell_angle_beta                 109.43(1)
_cell_angle_gamma                108.94(1)
_cell_volume                     934.789
_chemical_melting_point          '94-95 deg.C'
_cell_formula_units_Z            2
_exptl_crystal_preparation       'irradiated product'
loop_
_atom_site_label
_atom_site_type_symbol
_atom_site_fract_x
_atom_site_fract_y
_atom_site_fract_z
O1 O 0.2906(2) 1.3252(2) -0.0113(2)
O2 O 0.3802(2) 1.5485(2) 0.1340(2)
O3 O 0.4422(2) 0.9411(2) 0.1238(2)
O4 O 0.4750(2) 1.0676(2) 0.3131(2)
O5 O 1.1659(2) 1.5621(2) 0.3875(1)
O6 O 1.0152(2) 1.4713(2) 0.1745(2)
N1 N 1.0074(3) 1.1151(2) 0.3325(2)
C1 C 0.8349(3) 1.0523(2) 0.3022(2)
C2 C 0.7238(3) 1.1175(2) 0.2655(2)
C3 C 0.7934(3) 1.2556(2) 0.2632(2)
C4 C 0.9723(3) 1.3182(2) 0.2928(2)
C5 C 1.0739(3) 1.2444(2) 0.3258(2)
C6 C 0.6819(3) 1.3339(2) 0.2315(2)
C7 C 0.5318(3) 1.2768(2) 0.1162(2)
C8 C 0.4407(3) 1.3578(2) 0.0943(2)
C9 C 0.4934(3) 1.4906(2) 0.1808(2)
C10 C 0.6382(3) 1.5479(2) 0.2945(2)
C11 C 0.7327(3) 1.4675(2) 0.3192(2)
C12 C 0.2507(3) 1.4453(3) 0.0119(3)
C13 C 0.7705(3) 0.9082(3) 0.3148(3)
C14 C 0.5352(3) 1.0426(2) 0.2390(2)
C15 C 0.2582(3) 0.8525(3) 0.0884(3)
C16 C 0.1447(3) 0.9221(3) 0.0394(3)
C17 C 1.2654(3) 1.3032(3) 0.3527(3)
C18 C 1.0504(3) 1.4572(2) 0.2761(2)
C19 C 1.2585(3) 1.7026(3) 0.3826(3)
C20 C 1.1492(4) 1.7829(3) 0.3738(3)
loop_
_geom_bond_atom_site_label_1
_geom_bond_atom_site_label_2
_geom_bond_site_symmetry_1
_geom_bond_site_symmetry_2
O1 C8 1_555 1_555
O2 C9 1_555 1_555
O3 C14 1_555 1_555
O4 C14 1_555 1_555
O5 C18 1_555 1_555
O6 C18 1_555 1_555
N1 C1 1_555 1_555
C1 C2 1_555 1_555
C2 C3 1_555 1_555
C3 C4 1_555 1_555
C4 C5 1_555 1_555
C5 N1 1_555 1_555
C6 C3 1_555 1_555
C7 C6 1_555 1_555
C8 C7 1_555 1_555
C9 C8 1_555 1_555
C10 C9 1_555 1_555
C11 C6 1_555 1_555
C12 O1 1_555 1_555
C13 C1 1_555 1_555
C14 C2 1_555 1_555
C15 O3 1_555 1_555
C16 C15 1_555 1_555
C17 C5 1_555 1_555
C18 C4 1_555 1_555
C19 O5 1_555 1_555
C20 C19 1_555 1_555
O2 C12 1_555 1_555
C10 C11 1_555 1_555

#END
