
#######################################################################
#
#                 Cambridge Crystallographic Data Centre
#                                CCDC 
#
#######################################################################
#
# If this CIF has been generated from an entry in the Cambridge 
# Structural Database, then it will include bibliographic, chemical, 
# crystal, experimental, refinement or atomic coordinate data resulting 
# from the CCDC's data processing and validation procedures.
#
#######################################################################

data_XOXSEK
_chemical_formula_moiety         'C27 H26 Cl2 N2'
_chemical_name_systematic        
N-(3,4-dichlorophenyl)-N'-(2,6-diisopropylphenyl)-3-phenylprop-2-ynimidamide
_symmetry_cell_setting           triclinic
_symmetry_space_group_name_H-M   'P -1'
_symmetry_Int_Tables_number      2
_space_group_name_Hall           '-P 1'
loop_
_symmetry_equiv_pos_site_id
_symmetry_equiv_pos_as_xyz
1 x,y,z
2 -x,-y,-z
_cell_length_a                   8.610(4)
_cell_length_b                   12.078(5)
_cell_length_c                   13.503(6)
_cell_angle_alpha                104.480(5)
_cell_angle_beta                 107.959(5)
_cell_angle_gamma                105.150(5)
_cell_volume                     1202.87
_exptl_crystal_colour            colorless
_exptl_crystal_description       needle
_cell_formula_units_Z            2
loop_
_atom_site_label
_atom_site_type_symbol
_atom_site_fract_x
_atom_site_fract_y
_atom_site_fract_z
C1 C 0.4735(4) 0.6806(3) 0.5318(2)
C2 C 0.4806(4) 0.8043(3) 0.5705(3)
C3 C 0.5017(4) 0.9060(3) 0.6224(3)
C4 C 0.5232(4) 1.0257(3) 0.6876(3)
C5 C 0.6399(6) 1.0782(4) 0.7966(3)
H1 H 0.7059 1.0353 0.8259
C6 C 0.6626(7) 1.1905(4) 0.8633(4)
H2 H 0.7449 1.2252 0.9367
C7 C 0.5615(8) 1.2528(4) 0.8205(5)
H3 H 0.5726 1.3287 0.8660
C8 C 0.4469(6) 1.2038(4) 0.7131(5)
H4 H 0.3819 1.2476 0.6845
C9 C 0.4245(5) 1.0892(3) 0.6444(3)
H5 H 0.3442 1.0556 0.5704
C10 C 0.2247(4) 0.6064(3) 0.3438(2)
C11 C 0.1751(4) 0.7061(3) 0.3523(3)
H6 H 0.2303 0.7742 0.4184
C12 C 0.0425(4) 0.7049(4) 0.2622(3)
C13 C -0.0402(4) 0.6053(4) 0.1653(3)
C14 C 0.0091(5) 0.5071(3) 0.1571(3)
H7 H -0.0471 0.4391 0.0910
C15 C 0.1413(4) 0.5069(3) 0.2452(3)
H8 H 0.1747 0.4390 0.2383
C16 C 0.7123(4) 0.7255(3) 0.6977(2)
C17 C 0.8802(4) 0.7741(3) 0.7024(3)
C18 C 1.0126(5) 0.8428(4) 0.8070(4)
H9 H 1.1265 0.8772 0.8126
C19 C 0.9829(6) 0.8619(4) 0.9009(4)
H10 H 1.0753 0.9080 0.9700
C20 C 0.8166(6) 0.8133(4) 0.8941(3)
H11 H 0.7970 0.8274 0.9594
C21 C 0.6764(4) 0.7437(3) 0.7931(3)
C22 C 0.9159(5) 0.7505(4) 0.5975(4)
H12 H 0.8022 0.6977 0.5362
C23 C 1.0316(9) 0.6784(6) 0.5949(6)
H13 H 1.0486 0.6651 0.5265
H14 H 0.9779 0.6006 0.5995
H15 H 1.1431 0.7230 0.6569
C24 C 0.9727(10) 0.8597(6) 0.5724(6)
H16 H 0.8933 0.9023 0.5745
H17 H 0.9741 0.8370 0.4993
H18 H 1.0886 0.9125 0.6266
C25 C 0.4923(5) 0.6876(4) 0.7843(3)
H19 H 0.4131 0.6931 0.7173
C26 C 0.4441(6) 0.5508(4) 0.7671(4)
H20 H 0.4669 0.5101 0.7054
H21 H 0.3219 0.5148 0.7518
H22 H 0.5134 0.5419 0.8334
C27 C 0.4582(8) 0.7530(6) 0.8811(5)
H23 H 0.4874 0.8384 0.8904
H24 H 0.5290 0.7456 0.9478
H25 H 0.3364 0.7170 0.8668
N1 N 0.3568(3) 0.5979(2) 0.4301(2)
H26 H 0.3653 0.5268 0.4157
N2 N 0.5787(3) 0.6436(2) 0.5937(2)
Cl1 Cl -0.01167(16) 0.83392(12) 0.27452(9)
Cl2 Cl -0.20886(16) 0.60212(12) 0.05303(9)
loop_
_geom_bond_atom_site_label_1
_geom_bond_atom_site_label_2
_geom_bond_site_symmetry_1
_geom_bond_site_symmetry_2
C1 C2 1_555 1_555
C2 C3 1_555 1_555
C3 C4 1_555 1_555
C4 C5 1_555 1_555
C5 H1 1_555 1_555
C6 C5 1_555 1_555
H2 C6 1_555 1_555
C7 C6 1_555 1_555
H3 C7 1_555 1_555
C8 C7 1_555 1_555
H4 C8 1_555 1_555
C9 C4 1_555 1_555
H5 C9 1_555 1_555
C10 C11 1_555 1_555
C11 H6 1_555 1_555
C12 C11 1_555 1_555
C13 C12 1_555 1_555
C14 C13 1_555 1_555
H7 C14 1_555 1_555
C15 C10 1_555 1_555
H8 C15 1_555 1_555
C16 C17 1_555 1_555
C17 C18 1_555 1_555
C18 H9 1_555 1_555
C19 C18 1_555 1_555
H10 C19 1_555 1_555
C20 C19 1_555 1_555
H11 C20 1_555 1_555
C21 C16 1_555 1_555
C22 C17 1_555 1_555
H12 C22 1_555 1_555
C23 C22 1_555 1_555
H13 C23 1_555 1_555
H14 C23 1_555 1_555
H15 C23 1_555 1_555
C24 C22 1_555 1_555
H16 C24 1_555 1_555
H17 C24 1_555 1_555
H18 C24 1_555 1_555
C25 C21 1_555 1_555
H19 C25 1_555 1_555
C26 C25 1_555 1_555
H20 C26 1_555 1_555
H21 C26 1_555 1_555
H22 C26 1_555 1_555
C27 C25 1_555 1_555
H23 C27 1_555 1_555
H24 C27 1_555 1_555
H25 C27 1_555 1_555
N1 C1 1_555 1_555
H26 N1 1_555 1_555
N2 C1 1_555 1_555
Cl1 C12 1_555 1_555
Cl2 C13 1_555 1_555
C8 C9 1_555 1_555
C10 N1 1_555 1_555
C14 C15 1_555 1_555
C16 N2 1_555 1_555
C20 C21 1_555 1_555

#END
