
#######################################################################
#
#                 Cambridge Crystallographic Data Centre
#                                CCDC 
#
#######################################################################
#
# If this CIF has been generated from an entry in the Cambridge 
# Structural Database, then it will include bibliographic, chemical, 
# crystal, experimental, refinement or atomic coordinate data resulting 
# from the CCDC's data processing and validation procedures.
#
#######################################################################

data_XOXTOT
_chemical_formula_moiety         'C18 H32 O2 Si1'
_chemical_name_systematic        
6-(t-Butyl(dimethyl)siloxy)-1-(ethenyl)-5-(1-methylethenyl)-2-methylcyclohex-2-en-1-ol
_symmetry_cell_setting           orthorhombic
_symmetry_space_group_name_H-M   'P 21 21 21'
_symmetry_Int_Tables_number      19
_space_group_name_Hall           'P 2ac 2ab'
loop_
_symmetry_equiv_pos_site_id
_symmetry_equiv_pos_as_xyz
1 x,y,z
2 1/2-x,-y,1/2+z
3 1/2+x,1/2-y,-z
4 -x,1/2+y,1/2-z
_cell_length_a                   10.583(3)
_cell_length_b                   12.469(4)
_cell_length_c                   15.014(5)
_cell_angle_alpha                90
_cell_angle_beta                 90
_cell_angle_gamma                90
_cell_volume                     1981.24
_exptl_crystal_colour            colorless
_exptl_crystal_description       block
_chemical_melting_point          '88-91 deg.C'
_cell_formula_units_Z            4
loop_
_atom_site_label
_atom_site_type_symbol
_atom_site_fract_x
_atom_site_fract_y
_atom_site_fract_z
Si1 Si 0.42633(18) 0.02485(12) 0.02117(9)
O1 O 0.4952(4) -0.0936(2) 0.0280(2)
H1 H 0.632(11) -0.170(9) -0.058(7)
O2 O 0.6160(5) -0.2429(4) -0.0641(3)
C1 C 0.4425(6) -0.1993(4) 0.0350(3)
H2 H 0.3500 -0.1951 0.0368
C2 C 0.4856(8) -0.2603(4) -0.0503(3)
C3 C 0.4673(6) -0.3816(4) -0.0392(3)
C4 C 0.4425(7) -0.4260(5) 0.0374(4)
H3 H 0.4306 -0.4999 0.0390
C5 C 0.4320(8) -0.3644(4) 0.1238(3)
H4 H 0.3435 -0.3567 0.1394
H5 H 0.4728 -0.4050 0.1709
C6 C 0.4914(6) -0.2552(4) 0.1181(3)
H6 H 0.5826 -0.2655 0.1105
C7 C 0.4087(7) -0.2227(4) -0.1280(3)
H7 H 0.3213 -0.2277 -0.1225
C8 C 0.4521(8) -0.1833(5) -0.2032(4)
H8 H 0.5388 -0.1767 -0.2120
H9 H 0.3962 -0.1621 -0.2477
C9 C 0.4850(8) -0.4465(5) -0.1244(4)
H10 H 0.5013 -0.3988 -0.1732
H11 H 0.4097 -0.4871 -0.1363
H12 H 0.5551 -0.4946 -0.1173
C10 C 0.4718(8) -0.1909(5) 0.2027(3)
C11 C 0.3487(10) -0.1821(6) 0.2382(4)
H13 H 0.3353 -0.1441 0.2907
H14 H 0.2810 -0.2143 0.2092
C12 C 0.5777(9) -0.1443(6) 0.2433(5)
H15 H 0.6515 -0.1587 0.2081
H16 H 0.5887 -0.1741 0.3018
H17 H 0.5655 -0.0682 0.2479
C13 C 0.3642(8) 0.0701(5) 0.1304(4)
H18 H 0.2971 0.0233 0.1489
H19 H 0.3326 0.1420 0.1250
H20 H 0.4308 0.0685 0.1738
C14 C 0.2909(7) 0.0237(5) -0.0578(4)
H21 H 0.2267 -0.0240 -0.0361
H22 H 0.3193 -0.0003 -0.1152
H23 H 0.2568 0.0947 -0.0630
C15 C 0.5568(8) 0.1150(5) -0.0159(5)
C16 C 0.5077(9) 0.2335(5) -0.0231(7)
H24 H 0.4393 0.2367 -0.0650
H25 H 0.5751 0.2792 -0.0428
H26 H 0.4786 0.2571 0.0343
C17 C 0.6666(9) 0.1132(7) 0.0518(6)
H27 H 0.6997 0.0417 0.0561
H28 H 0.6362 0.1358 0.1090
H29 H 0.7321 0.1610 0.0322
C18 C 0.6092(9) 0.0815(6) -0.1059(5)
H30 H 0.5426 0.0822 -0.1493
H31 H 0.6439 0.0106 -0.1017
H32 H 0.6743 0.1307 -0.1237
loop_
_geom_bond_atom_site_label_1
_geom_bond_atom_site_label_2
_geom_bond_site_symmetry_1
_geom_bond_site_symmetry_2
Si1 O1 1_555 1_555
O1 C1 1_555 1_555
H1 O2 1_555 1_555
O2 C2 1_555 1_555
C1 H2 1_555 1_555
C2 C1 1_555 1_555
C3 C2 1_555 1_555
C4 C3 1_555 1_555
H3 C4 1_555 1_555
C5 C4 1_555 1_555
H4 C5 1_555 1_555
H5 C5 1_555 1_555
C6 C1 1_555 1_555
H6 C6 1_555 1_555
C7 C2 1_555 1_555
H7 C7 1_555 1_555
C8 C7 1_555 1_555
H8 C8 1_555 1_555
H9 C8 1_555 1_555
C9 C3 1_555 1_555
H10 C9 1_555 1_555
H11 C9 1_555 1_555
H12 C9 1_555 1_555
C10 C6 1_555 1_555
C11 C10 1_555 1_555
H13 C11 1_555 1_555
H14 C11 1_555 1_555
C12 C10 1_555 1_555
H15 C12 1_555 1_555
H16 C12 1_555 1_555
H17 C12 1_555 1_555
C13 Si1 1_555 1_555
H18 C13 1_555 1_555
H19 C13 1_555 1_555
H20 C13 1_555 1_555
C14 Si1 1_555 1_555
H21 C14 1_555 1_555
H22 C14 1_555 1_555
H23 C14 1_555 1_555
C15 Si1 1_555 1_555
C16 C15 1_555 1_555
H24 C16 1_555 1_555
H25 C16 1_555 1_555
H26 C16 1_555 1_555
C17 C15 1_555 1_555
H27 C17 1_555 1_555
H28 C17 1_555 1_555
H29 C17 1_555 1_555
C18 C15 1_555 1_555
H30 C18 1_555 1_555
H31 C18 1_555 1_555
H32 C18 1_555 1_555
C5 C6 1_555 1_555

#END
