
#######################################################################
#
#                 Cambridge Crystallographic Data Centre
#                                CCDC 
#
#######################################################################
#
# If this CIF has been generated from an entry in the Cambridge 
# Structural Database, then it will include bibliographic, chemical, 
# crystal, experimental, refinement or atomic coordinate data resulting 
# from the CCDC's data processing and validation procedures.
#
#######################################################################

data_XOXZOZ
_chemical_formula_moiety         'C35 H28 O2 P2'
_chemical_name_systematic        
"2-(Diphenylphosphine oxide)-3-(2-(diphenylphosphine oxide)ethynyl)-spiro-(bicyclo(2.2.1)hepta-2,5-diene-7,1'-cyclopropane)"
_symmetry_cell_setting           monoclinic
_symmetry_space_group_name_H-M   'P 21/n'
_symmetry_Int_Tables_number      14
_space_group_name_Hall           '-P 2yn'
loop_
_symmetry_equiv_pos_site_id
_symmetry_equiv_pos_as_xyz
1 x,y,z
2 1/2-x,1/2+y,1/2-z
3 -x,-y,-z
4 1/2+x,1/2-y,1/2+z
_cell_length_a                   12.708(3)
_cell_length_b                   14.666(4)
_cell_length_c                   15.048(4)
_cell_angle_alpha                90
_cell_angle_beta                 93.903(5)
_cell_angle_gamma                90
_cell_volume                     2798.07
_exptl_crystal_colour            colorless
_chemical_melting_point          '199-201 deg.C'
_cell_formula_units_Z            4
_exptl_crystal_recrystallization_method 'petroleum ether/chloroform'
loop_
_atom_site_label
_atom_site_type_symbol
_atom_site_fract_x
_atom_site_fract_y
_atom_site_fract_z
P1 P 0.1212(1) 0.3990(1) 0.2068(1)
P2 P -0.0568(1) 0.7269(1) 0.2911(1)
O1 O 0.0134(2) 0.4197(2) 0.2304(2)
O2 O -0.0664(3) 0.8251(2) 0.2711(2)
C1 C 0.1767(3) 0.4833(3) 0.1369(2)
C2 C 0.1489(3) 0.5709(3) 0.1279(2)
C3 C 0.2262(4) 0.6152(3) 0.0636(3)
C4 C 0.3413(5) 0.6161(5) 0.1142(4)
C5 C 0.3696(5) 0.5327(5) 0.1228(4)
C6 C 0.2731(4) 0.4717(3) 0.0794(3)
C7 C 0.2541(6) 0.5381(4) 0.0152(6)
C8 C 0.1723(5) 0.5094(6) -0.0681(5)
C9 C 0.2922(5) 0.5366(4) -0.0801(4)
C10 C 0.1320(3) 0.2969(3) 0.1420(3)
C11 C 0.0913(4) 0.2971(3) 0.0545(3)
C12 C 0.0959(4) 0.2220(4) 0.0012(4)
C13 C 0.1422(4) 0.1443(4) 0.0350(4)
C14 C 0.1831(4) 0.1410(3) 0.1204(4)
C15 C 0.1800(3) 0.2183(3) 0.1748(3)
C16 C 0.2121(3) 0.3893(2) 0.3022(2)
C17 C 0.3211(3) 0.3870(3) 0.2966(3)
C18 C 0.3877(4) 0.3841(3) 0.3720(3)
C19 C 0.3483(4) 0.3827(3) 0.4540(3)
C20 C 0.2415(5) 0.3833(3) 0.4610(3)
C21 C 0.1735(4) 0.3870(3) 0.3865(3)
C22 C 0.0101(3) 0.7055(3) 0.3975(3)
C23 C 0.0398(3) 0.6182(3) 0.4253(3)
C24 C 0.0895(4) 0.6040(4) 0.5085(4)
C25 C 0.1096(4) 0.6770(5) 0.5658(4)
C26 C 0.0825(6) 0.7613(6) 0.5374(5)
C27 C 0.0339(5) 0.7770(4) 0.4551(4)
C28 C -0.1802(3) 0.6681(3) 0.2882(3)
C29 C -0.1894(4) 0.5742(3) 0.2823(3)
C30 C -0.2885(5) 0.5336(5) 0.2849(3)
C31 C -0.3764(5) 0.5864(6) 0.2929(4)
C32 C -0.3694(5) 0.6768(6) 0.2978(4)
C33 C -0.2729(5) 0.7205(5) 0.2962(3)
C34 C 0.0185(4) 0.6655(3) 0.2172(3)
C35 C 0.0763(3) 0.6209(3) 0.1761(3)
loop_
_geom_bond_atom_site_label_1
_geom_bond_atom_site_label_2
_geom_bond_site_symmetry_1
_geom_bond_site_symmetry_2
P1 O1 1_555 1_555
P2 O2 1_555 1_555
C1 P1 1_555 1_555
C2 C1 1_555 1_555
C3 C2 1_555 1_555
C4 C3 1_555 1_555
C5 C4 1_555 1_555
C6 C1 1_555 1_555
C7 C3 1_555 1_555
C8 C7 1_555 1_555
C9 C7 1_555 1_555
C10 P1 1_555 1_555
C11 C10 1_555 1_555
C12 C11 1_555 1_555
C13 C12 1_555 1_555
C14 C13 1_555 1_555
C15 C10 1_555 1_555
C16 P1 1_555 1_555
C17 C16 1_555 1_555
C18 C17 1_555 1_555
C19 C18 1_555 1_555
C20 C19 1_555 1_555
C21 C16 1_555 1_555
C22 P2 1_555 1_555
C23 C22 1_555 1_555
C24 C23 1_555 1_555
C25 C24 1_555 1_555
C26 C25 1_555 1_555
C27 C22 1_555 1_555
C28 P2 1_555 1_555
C29 C28 1_555 1_555
C30 C29 1_555 1_555
C31 C30 1_555 1_555
C32 C31 1_555 1_555
C33 C28 1_555 1_555
C34 P2 1_555 1_555
C35 C2 1_555 1_555
C5 C6 1_555 1_555
C6 C7 1_555 1_555
C8 C9 1_555 1_555
C14 C15 1_555 1_555
C20 C21 1_555 1_555
C26 C27 1_555 1_555
C32 C33 1_555 1_555
C34 C35 1_555 1_555

#END
