
#######################################################################
#
#                 Cambridge Crystallographic Data Centre
#                                CCDC 
#
#######################################################################
#
# If this CIF has been generated from an entry in the Cambridge 
# Structural Database, then it will include bibliographic, chemical, 
# crystal, experimental, refinement or atomic coordinate data resulting 
# from the CCDC's data processing and validation procedures.
#
#######################################################################

data_XOYJAX
_chemical_formula_moiety         'C32 H60 Ba1 N4 O6 P2'
_chemical_name_systematic        
cis-bis(\h^2^-3,5-Di-t-butyl-1,2,4-diazaphospholide)-(18-crown-6)-barium
_symmetry_cell_setting           monoclinic
_symmetry_space_group_name_H-M   'P 21'
_symmetry_Int_Tables_number      4
_space_group_name_Hall           'P 2yb'
loop_
_symmetry_equiv_pos_site_id
_symmetry_equiv_pos_as_xyz
1 x,y,z
2 -x,1/2+y,-z
_cell_length_a                   10.203(3)
_cell_length_b                   16.122(5)
_cell_length_c                   13.078(4)
_cell_angle_alpha                90
_cell_angle_beta                 110.688(4)
_cell_angle_gamma                90
_cell_volume                     2012.52
_exptl_crystal_colour            colorless
_exptl_crystal_description       prism
_chemical_melting_point          'decomposes above 340 deg.C'
_cell_formula_units_Z            2
loop_
_atom_site_label
_atom_site_type_symbol
_atom_site_fract_x
_atom_site_fract_y
_atom_site_fract_z
Ba1 Ba -0.07992(4) 0.18963(4) 0.26072(3)
P1 P 0.3995(3) 0.06169(18) 0.4877(2)
P2 P 0.1987(3) 0.30467(19) 0.0318(2)
N1 N 0.1675(7) 0.1438(4) 0.4358(5)
N2 N 0.1582(7) 0.0977(5) 0.3450(5)
N3 N 0.0161(7) 0.2265(5) 0.0894(5)
N4 N 0.0969(7) 0.2694(5) 0.1806(5)
O1 O -0.1120(9) 0.3613(6) 0.3183(13)
O2 O -0.3019(10) 0.3091(9) 0.1299(10)
O3 O -0.3378(9) 0.1508(7) 0.0698(8)
O4 O -0.1769(13) 0.0259(7) 0.1938(11)
O5 O -0.1983(12) 0.0775(8) 0.3819(9)
O6 O -0.1838(13) 0.2430(9) 0.4402(11)
C1 C 0.2865(9) 0.1331(5) 0.5149(7)
C2 C 0.2729(9) 0.0520(6) 0.3596(7)
C3 C 0.3169(8) 0.1854(13) 0.6219(6)
C4 C 0.4729(16) 0.2081(13) 0.6659(12)
H1 H 0.4921 0.2465 0.6169
H2 H 0.5279 0.1588 0.6716
H3 H 0.4963 0.2331 0.7367
C5 C 0.3095(18) 0.1236(10) 0.7084(10)
H4 H 0.2144 0.1057 0.6912
H5 H 0.3418 0.1499 0.7789
H6 H 0.3676 0.0766 0.7095
C6 C 0.2276(19) 0.2550(10) 0.6061(12)
H7 H 0.1318 0.2368 0.5810
H8 H 0.2418 0.2912 0.5527
H9 H 0.2485 0.2842 0.6740
C7 C 0.2817(14) 0.0038(9) 0.2664(10)
C8 C 0.3379(16) 0.0616(9) 0.1987(11)
H10 H 0.2737 0.1068 0.1712
H11 H 0.3477 0.0313 0.1386
H12 H 0.4275 0.0830 0.2438
C9 C 0.386(2) -0.0696(9) 0.3025(13)
H13 H 0.3541 -0.1078 0.3452
H14 H 0.4768 -0.0491 0.3456
H15 H 0.3906 -0.0974 0.2390
C10 C 0.1418(14) -0.0297(10) 0.1926(12)
H16 H 0.1057 -0.0673 0.2331
H17 H 0.1536 -0.0584 0.1321
H18 H 0.0773 0.0154 0.1658
C11 C 0.0564(9) 0.2390(6) 0.0075(7)
C12 C 0.1934(9) 0.3147(5) 0.1646(6)
C13 C -0.0169(9) 0.1939(12) -0.1001(6)
C14 C -0.1693(13) 0.2035(14) -0.1349(10)
H19 H -0.2029 0.1748 -0.0847
H20 H -0.2126 0.1806 -0.2068
H21 H -0.1923 0.2613 -0.1359
C15 C 0.050(2) 0.1097(12) -0.0905(14)
H22 H 0.0276 0.0772 -0.0376
H23 H 0.1502 0.1159 -0.0677
H24 H 0.0162 0.0823 -0.1602
C16 C 0.0267(17) 0.2357(10) -0.1928(11)
H25 H -0.0177 0.2070 -0.2606
H26 H 0.1266 0.2328 -0.1731
H27 H -0.0023 0.2927 -0.2009
C17 C 0.2934(15) 0.3622(8) 0.2541(11)
C18 C 0.2282(15) 0.4077(13) 0.3222(14)
H28 H 0.1594 0.4457 0.2772
H29 H 0.2990 0.4380 0.3781
H30 H 0.1839 0.3690 0.3554
C19 C 0.4031(16) 0.3005(9) 0.3325(11)
H31 H 0.3547 0.2588 0.3578
H32 H 0.4653 0.3305 0.3938
H33 H 0.4561 0.2746 0.2935
C20 C 0.3787(15) 0.4255(10) 0.2208(13)
H34 H 0.3175 0.4662 0.1742
H35 H 0.4312 0.3986 0.1821
H36 H 0.4421 0.4523 0.2848
C21 C -0.174(4) 0.415(3) 0.241(3)
H37 H -0.2372 0.4475 0.2654
H38 H -0.1028 0.4524 0.2352
C22 C -0.243(3) 0.3905(16) 0.1454(19)
H39 H -0.1829 0.3947 0.1027
H40 H -0.3197 0.4294 0.1142
C23 C -0.381(3) 0.3023(18) 0.0357(19)
H41 H -0.3313 0.3057 -0.0149
H42 H -0.4534 0.3447 0.0174
C24 C -0.4459(13) 0.2139(14) 0.0339(11)
H43 H -0.5005 0.2134 0.0814
H44 H -0.5083 0.2012 -0.0396
C25 C -0.391(3) 0.0815(17) 0.040(2)
H45 H -0.4353 0.0799 -0.0389
H46 H -0.4612 0.0699 0.0722
C26 C -0.271(2) 0.0159(12) 0.0786(14)
H47 H -0.3124 -0.0390 0.0696
H48 H -0.2155 0.0194 0.0319
C27 C -0.212(3) -0.0282(15) 0.2474(16)
H49 H -0.1797 -0.0821 0.2331
H50 H -0.3130 -0.0299 0.2252
C28 C -0.147(3) -0.0085(10) 0.371(2)
H51 H -0.1780 -0.0481 0.4133
H52 H -0.0452 -0.0098 0.3956
C29 C -0.187(4) 0.101(2) 0.475(3)
H53 H -0.0886 0.0997 0.5200
H54 H -0.2338 0.0603 0.5051
C30 C -0.2379(14) 0.1773(18) 0.4875(9)
H55 H -0.2145 0.1883 0.5648
H56 H -0.3393 0.1767 0.4539
C31 C -0.191(2) 0.3192(16) 0.4683(17)
H57 H -0.1290 0.3280 0.5432
H58 H -0.2857 0.3326 0.4629
C32 C -0.149(5) 0.371(2) 0.395(3)
H59 H -0.2270 0.4088 0.3674
H60 H -0.0735 0.4034 0.4452
loop_
_geom_bond_atom_site_label_1
_geom_bond_atom_site_label_2
_geom_bond_site_symmetry_1
_geom_bond_site_symmetry_2
Ba1 N1 1_555 1_555
P1 C1 1_555 1_555
P2 C11 1_555 1_555
N1 N2 1_555 1_555
N2 Ba1 1_555 1_555
N3 Ba1 1_555 1_555
N4 Ba1 1_555 1_555
O1 Ba1 1_555 1_555
O2 Ba1 1_555 1_555
O3 Ba1 1_555 1_555
O4 Ba1 1_555 1_555
O5 Ba1 1_555 1_555
O6 Ba1 1_555 1_555
C1 N1 1_555 1_555
C2 P1 1_555 1_555
C3 C1 1_555 1_555
C4 C3 1_555 1_555
H1 C4 1_555 1_555
H2 C4 1_555 1_555
H3 C4 1_555 1_555
C5 C3 1_555 1_555
H4 C5 1_555 1_555
H5 C5 1_555 1_555
H6 C5 1_555 1_555
C6 C3 1_555 1_555
H7 C6 1_555 1_555
H8 C6 1_555 1_555
H9 C6 1_555 1_555
C7 C2 1_555 1_555
C8 C7 1_555 1_555
H10 C8 1_555 1_555
H11 C8 1_555 1_555
H12 C8 1_555 1_555
C9 C7 1_555 1_555
H13 C9 1_555 1_555
H14 C9 1_555 1_555
H15 C9 1_555 1_555
C10 C7 1_555 1_555
H16 C10 1_555 1_555
H17 C10 1_555 1_555
H18 C10 1_555 1_555
C11 N3 1_555 1_555
C12 P2 1_555 1_555
C13 C11 1_555 1_555
C14 C13 1_555 1_555
H19 C14 1_555 1_555
H20 C14 1_555 1_555
H21 C14 1_555 1_555
C15 C13 1_555 1_555
H22 C15 1_555 1_555
H23 C15 1_555 1_555
H24 C15 1_555 1_555
C16 C13 1_555 1_555
H25 C16 1_555 1_555
H26 C16 1_555 1_555
H27 C16 1_555 1_555
C17 C12 1_555 1_555
C18 C17 1_555 1_555
H28 C18 1_555 1_555
H29 C18 1_555 1_555
H30 C18 1_555 1_555
C19 C17 1_555 1_555
H31 C19 1_555 1_555
H32 C19 1_555 1_555
H33 C19 1_555 1_555
C20 C17 1_555 1_555
H34 C20 1_555 1_555
H35 C20 1_555 1_555
H36 C20 1_555 1_555
C21 O1 1_555 1_555
H37 C21 1_555 1_555
H38 C21 1_555 1_555
C22 O2 1_555 1_555
H39 C22 1_555 1_555
H40 C22 1_555 1_555
C23 O2 1_555 1_555
H41 C23 1_555 1_555
H42 C23 1_555 1_555
C24 O3 1_555 1_555
H43 C24 1_555 1_555
H44 C24 1_555 1_555
C25 O3 1_555 1_555
H45 C25 1_555 1_555
H46 C25 1_555 1_555
C26 O4 1_555 1_555
H47 C26 1_555 1_555
H48 C26 1_555 1_555
C27 O4 1_555 1_555
H49 C27 1_555 1_555
H50 C27 1_555 1_555
C28 O5 1_555 1_555
H51 C28 1_555 1_555
H52 C28 1_555 1_555
C29 O5 1_555 1_555
H53 C29 1_555 1_555
H54 C29 1_555 1_555
C30 O6 1_555 1_555
H55 C30 1_555 1_555
H56 C30 1_555 1_555
C31 O6 1_555 1_555
H57 C31 1_555 1_555
H58 C31 1_555 1_555
C32 O1 1_555 1_555
H59 C32 1_555 1_555
H60 C32 1_555 1_555
N2 C2 1_555 1_555
N3 N4 1_555 1_555
N4 C12 1_555 1_555
C21 C22 1_555 1_555
C23 C24 1_555 1_555
C25 C26 1_555 1_555
C27 C28 1_555 1_555
C29 C30 1_555 1_555
C31 C32 1_555 1_555

#END
