
#######################################################################
#
#                 Cambridge Crystallographic Data Centre
#                                CCDC 
#
#######################################################################
#
# If this CIF has been generated from an entry in the Cambridge 
# Structural Database, then it will include bibliographic, chemical, 
# crystal, experimental, refinement or atomic coordinate data resulting 
# from the CCDC's data processing and validation procedures.
#
#######################################################################

data_XOYWIS
_chemical_formula_moiety         'C9 H7 Cl2 N3 O1 S1'
_chemical_name_systematic        
5-((2,4-Dichlorophenoxy)methyl)-1,3,4-thiadiazol-2-amine
_symmetry_cell_setting           monoclinic
_symmetry_space_group_name_H-M   'P 21/c'
_symmetry_Int_Tables_number      14
_space_group_name_Hall           '-P 2ybc'
loop_
_symmetry_equiv_pos_site_id
_symmetry_equiv_pos_as_xyz
1 x,y,z
2 -x,1/2+y,1/2-z
3 -x,-y,-z
4 x,1/2-y,1/2+z
_cell_length_a                   16.012(3)
_cell_length_b                   6.5840(13)
_cell_length_c                   11.225(2)
_cell_angle_alpha                90
_cell_angle_beta                 105.65(3)
_cell_angle_gamma                90
_cell_volume                     1139.5
_exptl_crystal_colour            colorless
_exptl_crystal_description       block
_cell_formula_units_Z            4
_exptl_crystal_recrystallization_method acetone
loop_
_atom_site_label
_atom_site_type_symbol
_atom_site_fract_x
_atom_site_fract_y
_atom_site_fract_z
S1 S 0.63610(7) 0.07359(17) 0.41374(9)
Cl1 Cl 0.95777(9) -0.98076(19) 0.66498(12)
Cl2 Cl 0.85657(8) -0.29796(18) 0.40088(10)
N1 N 0.5928(2) 0.1009(5) 0.6153(3)
N2 N 0.5586(2) 0.2734(5) 0.5485(3)
N3 N 0.5498(3) 0.4294(6) 0.3589(3)
H1 H 0.5207 0.5297 0.3764
H2 H 0.5623 0.4261 0.2891
O1 O 0.7388(2) -0.2539(5) 0.5496(3)
C1 C 0.8892(3) -0.7718(6) 0.6285(4)
C2 C 0.8284(3) -0.7396(6) 0.6931(4)
H3 H 0.8224 -0.8314 0.7532
C3 C 0.7761(3) -0.5675(7) 0.6670(4)
H4 H 0.7346 -0.5448 0.7097
C4 C 0.7852(3) -0.4306(6) 0.5786(3)
C5 C 0.8461(3) -0.4680(6) 0.5143(4)
C6 C 0.8981(3) -0.6391(7) 0.5372(4)
H5 H 0.9381 -0.6642 0.4924
C7 C 0.6719(3) -0.2139(6) 0.6069(4)
H6 H 0.6952 -0.2071 0.6960
H7 H 0.6283 -0.3200 0.5873
C8 C 0.6334(2) -0.0139(6) 0.5571(4)
C9 C 0.5755(3) 0.2781(6) 0.4406(4)
loop_
_geom_bond_atom_site_label_1
_geom_bond_atom_site_label_2
_geom_bond_site_symmetry_1
_geom_bond_site_symmetry_2
S1 C8 1_555 1_555
Cl1 C1 1_555 1_555
Cl2 C5 1_555 1_555
N1 N2 1_555 1_555
N2 C9 1_555 1_555
N3 H1 1_555 1_555
H2 N3 1_555 1_555
O1 C4 1_555 1_555
C1 C2 1_555 1_555
C2 H3 1_555 1_555
C3 C2 1_555 1_555
H4 C3 1_555 1_555
C4 C3 1_555 1_555
C5 C4 1_555 1_555
C6 C1 1_555 1_555
H5 C6 1_555 1_555
C7 O1 1_555 1_555
H6 C7 1_555 1_555
H7 C7 1_555 1_555
C8 N1 1_555 1_555
C9 S1 1_555 1_555
N3 C9 1_555 1_555
C5 C6 1_555 1_555
C7 C8 1_555 1_555

#END
