
#######################################################################
#
#                 Cambridge Crystallographic Data Centre
#                                CCDC 
#
#######################################################################
#
# If this CIF has been generated from an entry in the Cambridge 
# Structural Database, then it will include bibliographic, chemical, 
# crystal, experimental, refinement or atomic coordinate data resulting 
# from the CCDC's data processing and validation procedures.
#
#######################################################################

data_XOYWEO
_chemical_name_common            1-Isopropylideneamino-1H-tetrazol-5-amine
_chemical_formula_moiety         'C4 H8 N6'
_chemical_name_systematic        N^1^-Isopropylidene-1H-tetrazole-1,5-diamine
_symmetry_cell_setting           monoclinic
_symmetry_space_group_name_H-M   'P 21/c'
_symmetry_Int_Tables_number      14
_space_group_name_Hall           '-P 2ybc'
loop_
_symmetry_equiv_pos_site_id
_symmetry_equiv_pos_as_xyz
1 x,y,z
2 -x,1/2+y,1/2-z
3 -x,-y,-z
4 x,1/2-y,1/2+z
_cell_length_a                   7.488(2)
_cell_length_b                   7.4238(19)
_cell_length_c                   11.997(3)
_cell_angle_alpha                90
_cell_angle_beta                 97.145(3)
_cell_angle_gamma                90
_cell_volume                     661.727
_exptl_crystal_colour            colorless
_exptl_crystal_description       block
_chemical_melting_point          '445 K'
_cell_formula_units_Z            4
_exptl_crystal_recrystallization_method acetone
loop_
_atom_site_label
_atom_site_type_symbol
_atom_site_fract_x
_atom_site_fract_y
_atom_site_fract_z
N1 N 0.90734(13) 0.19832(13) 0.44509(8)
N2 N 0.84796(13) 0.34792(13) 0.38501(8)
N3 N 0.78344(13) 0.46815(13) 0.44617(8)
N4 N 0.79984(12) 0.39605(12) 0.55284(7)
N5 N 0.74880(12) 0.46344(12) 0.65193(7)
N6 N 0.91309(15) 0.12338(14) 0.63884(8)
C1 C 0.87689(14) 0.23122(15) 0.55029(9)
C2 C 0.66745(14) 0.61599(15) 0.65364(9)
C3 C 0.61800(16) 0.74455(16) 0.55860(10)
H1 H 0.7275 0.7992 0.5366
H2 H 0.5397 0.8391 0.5825
H3 H 0.5545 0.6795 0.4945
C4 C 0.62021(16) 0.66948(17) 0.76627(10)
H4 H 0.6608 0.5760 0.8213
H5 H 0.4895 0.6838 0.7624
H6 H 0.6794 0.7837 0.7891
H7 H 0.887(2) 0.156(2) 0.7063(14)
H8 H 0.972(2) 0.025(2) 0.6261(13)
loop_
_geom_bond_atom_site_label_1
_geom_bond_atom_site_label_2
_geom_bond_site_symmetry_1
_geom_bond_site_symmetry_2
N1 N2 1_555 1_555
N2 N3 1_555 1_555
N3 N4 1_555 1_555
N4 N5 1_555 1_555
N5 C2 1_555 1_555
N6 C1 1_555 1_555
C1 N1 1_555 1_555
C2 C3 1_555 1_555
C3 H1 1_555 1_555
H2 C3 1_555 1_555
H3 C3 1_555 1_555
C4 C2 1_555 1_555
H4 C4 1_555 1_555
H5 C4 1_555 1_555
H6 C4 1_555 1_555
H7 N6 1_555 1_555
H8 N6 1_555 1_555
N4 C1 1_555 1_555

#END
