
#######################################################################
#
#                 Cambridge Crystallographic Data Centre
#                                CCDC 
#
#######################################################################
#
# If this CIF has been generated from an entry in the Cambridge 
# Structural Database, then it will include bibliographic, chemical, 
# crystal, experimental, refinement or atomic coordinate data resulting 
# from the CCDC's data processing and validation procedures.
#
#######################################################################

data_XOYWEO01
_chemical_formula_moiety         'C4 H8 N6'
_chemical_name_systematic        N^1^-Isopropylidene-1H-tetrazole-1,5-diamine
_symmetry_cell_setting           monoclinic
_symmetry_space_group_name_H-M   'P 21/c'
_symmetry_Int_Tables_number      14
_space_group_name_Hall           '-P 2ybc'
loop_
_symmetry_equiv_pos_site_id
_symmetry_equiv_pos_as_xyz
1 x,y,z
2 -x,1/2+y,1/2-z
3 -x,-y,-z
4 x,1/2-y,1/2+z
_cell_length_a                   7.533(3)
_cell_length_b                   7.408(2)
_cell_length_c                   12.029(4)
_cell_angle_alpha                90
_cell_angle_beta                 96.629(4)
_cell_angle_gamma                90
_cell_volume                     666.784
_exptl_crystal_colour            colorless
_cell_formula_units_Z            4
loop_
_atom_site_label
_atom_site_type_symbol
_atom_site_fract_x
_atom_site_fract_y
_atom_site_fract_z
N1 N 0.09268(15) 0.80172(15) 0.55523(9)
N2 N 0.15237(16) 0.65284(16) 0.61546(9)
N3 N 0.21745(16) 0.53219(16) 0.55473(9)
N4 N 0.20051(14) 0.60339(15) 0.44801(9)
N5 N 0.25203(15) 0.53503(15) 0.34926(9)
N6 N 0.08645(19) 0.87443(18) 0.36194(10)
C1 C 0.12307(17) 0.76765(17) 0.45031(11)
C2 C 0.33227(17) 0.38261(18) 0.34756(11)
C3 C 0.3804(2) 0.3288(2) 0.23514(12)
H1 H 0.3416 0.4229 0.1804
H2 H 0.3211 0.2148 0.2123
H3 H 0.5102 0.3134 0.2390
C4 C 0.3806(2) 0.25415(19) 0.44202(12)
H4 H 0.4437 0.3193 0.5056
H5 H 0.4582 0.1591 0.4179
H6 H 0.2716 0.1997 0.4645
H7 H 0.029(2) 0.977(2) 0.3731(14)
H8 H 0.115(2) 0.842(2) 0.2950(15)
loop_
_geom_bond_atom_site_label_1
_geom_bond_atom_site_label_2
_geom_bond_site_symmetry_1
_geom_bond_site_symmetry_2
N1 N2 1_555 1_555
N2 N3 1_555 1_555
N3 N4 1_555 1_555
N4 N5 1_555 1_555
N5 C2 1_555 1_555
N6 C1 1_555 1_555
C1 N1 1_555 1_555
C2 C3 1_555 1_555
C3 H1 1_555 1_555
H2 C3 1_555 1_555
H3 C3 1_555 1_555
C4 C2 1_555 1_555
H4 C4 1_555 1_555
H5 C4 1_555 1_555
H6 C4 1_555 1_555
H7 N6 1_555 1_555
H8 N6 1_555 1_555
N4 C1 1_555 1_555

#END
