
#######################################################################
#
#                 Cambridge Crystallographic Data Centre
#                                CCDC 
#
#######################################################################
#
# If this CIF has been generated from an entry in the Cambridge 
# Structural Database, then it will include bibliographic, chemical, 
# crystal, experimental, refinement or atomic coordinate data resulting 
# from the CCDC's data processing and validation procedures.
#
#######################################################################

data_XOYXEP
_chemical_name_common            
'4,5-Diphenyl-2-p-tolyl-1H-imidazol-3-ium perchlorate'
_chemical_formula_moiety         'C22 H19 N2 1+,Cl1 O4 1-'
_chemical_name_systematic        
'2-(4-Methylphenyl)-4,5-diphenyl-1H-imidazol-3-ium perchlorate'
_symmetry_cell_setting           monoclinic
_symmetry_space_group_name_H-M   'P 21/c'
_symmetry_Int_Tables_number      14
_space_group_name_Hall           '-P 2ybc'
loop_
_symmetry_equiv_pos_site_id
_symmetry_equiv_pos_as_xyz
1 x,y,z
2 -x,1/2+y,1/2-z
3 -x,-y,-z
4 x,1/2-y,1/2+z
_cell_length_a                   9.1964(18)
_cell_length_b                   9.921(2)
_cell_length_c                   21.489(4)
_cell_angle_alpha                90
_cell_angle_beta                 94.16(3)
_cell_angle_gamma                90
_cell_volume                     1955.44
_exptl_crystal_colour            colorless
_exptl_crystal_description       block
_cell_formula_units_Z            4
_exptl_crystal_recrystallization_method 'ethanol/perchloric acid'
loop_
_atom_site_label
_atom_site_type_symbol
_atom_site_fract_x
_atom_site_fract_y
_atom_site_fract_z
N1 N 0.4669(3) 0.2183(3) 0.48657(13)
H1 H 0.549(4) 0.216(3) 0.4671(16)
N2 N 0.2652(3) 0.1423(3) 0.51476(13)
H2 H 0.186(4) 0.106(4) 0.5140(16)
C1 C 0.3452(3) 0.0484(3) 0.41492(15)
C2 C 0.4283(4) 0.0746(4) 0.36447(17)
H3 H 0.4916 0.1478 0.3658
C3 C 0.4170(4) -0.0072(5) 0.31297(18)
H4 H 0.4739 0.0112 0.2799
C4 C 0.3242(4) -0.1154(4) 0.30873(17)
C5 C 0.2414(4) -0.1400(4) 0.35845(18)
H5 H 0.1777 -0.2130 0.3565
C6 C 0.2499(4) -0.0604(4) 0.41063(17)
H6 H 0.1918 -0.0791 0.4432
C7 C 0.3166(6) -0.2061(5) 0.2522(2)
H7 H 0.4118 -0.2416 0.2464
H8 H 0.2827 -0.1554 0.2160
H9 H 0.2505 -0.2791 0.2583
C8 C 0.3585(3) 0.1336(3) 0.47026(15)
C9 C 0.2290(4) 0.2630(4) 0.61419(16)
C10 C 0.1687(4) 0.3869(4) 0.62354(19)
H10 H 0.1754 0.4537 0.5935
C11 C 0.0982(5) 0.4148(6) 0.6766(2)
H11 H 0.0572 0.4993 0.6820
C12 C 0.0891(5) 0.3171(7) 0.7213(2)
H12 H 0.0471 0.3368 0.7583
C13 C 0.1420(6) 0.1908(7) 0.7113(2)
H13 H 0.1301 0.1232 0.7405
C14 C 0.2135(5) 0.1619(5) 0.65781(18)
H14 H 0.2502 0.0760 0.6515
C15 C 0.3122(4) 0.2354(3) 0.55912(15)
C16 C 0.4426(3) 0.2849(3) 0.54164(15)
C17 C 0.5461(4) 0.3845(3) 0.56847(15)
C18 C 0.6681(4) 0.4211(4) 0.53799(17)
H15 H 0.6836 0.3813 0.4999
C19 C 0.7659(4) 0.5140(4) 0.56250(18)
H16 H 0.8470 0.5355 0.5411
C20 C 0.7458(4) 0.5755(4) 0.61809(18)
H17 H 0.8123 0.6392 0.6344
C21 C 0.6265(4) 0.5421(5) 0.64936(19)
H18 H 0.6116 0.5841 0.6871
C22 C 0.5274(4) 0.4466(5) 0.62564(18)
H19 H 0.4480 0.4236 0.6480
Cl1 Cl 0.11229(9) 0.69744(9) 0.07737(4)
O1 O 0.0560(4) 0.5809(4) 0.04536(19)
O2 O 0.0600(4) 0.8046(4) 0.0390(2)
O3 O 0.2657(3) 0.6929(4) 0.07995(16)
O4 O 0.0591(4) 0.7023(5) 0.13600(17)
loop_
_geom_bond_atom_site_label_1
_geom_bond_atom_site_label_2
_geom_bond_site_symmetry_1
_geom_bond_site_symmetry_2
N1 H1 1_555 1_555
N2 H2 1_555 1_555
C1 C2 1_555 1_555
C2 H3 1_555 1_555
C3 C2 1_555 1_555
H4 C3 1_555 1_555
C4 C3 1_555 1_555
C5 C4 1_555 1_555
H5 C5 1_555 1_555
C6 C1 1_555 1_555
H6 C6 1_555 1_555
C7 C4 1_555 1_555
H7 C7 1_555 1_555
H8 C7 1_555 1_555
H9 C7 1_555 1_555
C8 N1 1_555 1_555
C9 C10 1_555 1_555
C10 H10 1_555 1_555
C11 C10 1_555 1_555
H11 C11 1_555 1_555
C12 C11 1_555 1_555
H12 C12 1_555 1_555
C13 C12 1_555 1_555
H13 C13 1_555 1_555
C14 C9 1_555 1_555
H14 C14 1_555 1_555
C15 N2 1_555 1_555
C16 N1 1_555 1_555
C17 C16 1_555 1_555
C18 C17 1_555 1_555
H15 C18 1_555 1_555
C19 C18 1_555 1_555
H16 C19 1_555 1_555
C20 C19 1_555 1_555
H17 C20 1_555 1_555
C21 C20 1_555 1_555
H18 C21 1_555 1_555
C22 C17 1_555 1_555
H19 C22 1_555 1_555
Cl1 O1 1_555 1_555
O2 Cl1 1_555 1_555
O3 Cl1 1_555 1_555
O4 Cl1 1_555 1_555
N2 C8 1_555 1_555
C1 C8 1_555 1_555
C5 C6 1_555 1_555
C9 C15 1_555 1_555
C13 C14 1_555 1_555
C15 C16 1_555 1_555
C21 C22 1_555 1_555

#END
