
#######################################################################
#
#                 Cambridge Crystallographic Data Centre
#                                CCDC 
#
#######################################################################
#
# If this CIF has been generated from an entry in the Cambridge 
# Structural Database, then it will include bibliographic, chemical, 
# crystal, experimental, refinement or atomic coordinate data resulting 
# from the CCDC's data processing and validation procedures.
#
#######################################################################

data_XOYXEQ
_chemical_formula_moiety         'C23 H22 F1 N1 O3 S1'
_chemical_name_systematic        
6-fluoro-11-(methoxymethyl)-9-((4-methylphenyl)sulfonyl)-9-azatetracyclo[10.2.1.0^2,10^.0^3,8^]pentadeca-2(10),3,5,7,13-pentaene
_symmetry_cell_setting           orthorhombic
_symmetry_space_group_name_H-M   'P b c n'
_symmetry_Int_Tables_number      60
_space_group_name_Hall           '-P 2n 2ab'
loop_
_symmetry_equiv_pos_site_id
_symmetry_equiv_pos_as_xyz
1 x,y,z
2 1/2-x,1/2-y,1/2+z
3 1/2+x,1/2-y,-z
4 -x,y,1/2-z
5 -x,-y,-z
6 1/2+x,1/2+y,1/2-z
7 1/2-x,1/2+y,z
8 x,-y,1/2+z
_cell_length_a                   23.1688(16)
_cell_length_b                   8.5376(4)
_cell_length_c                   20.5949(12)
_cell_angle_alpha                90
_cell_angle_beta                 90
_cell_angle_gamma                90
_cell_volume                     4073.79
_exptl_crystal_colour            'light colorless'
_exptl_crystal_description       block
_cell_formula_units_Z            8
loop_
_atom_site_label
_atom_site_type_symbol
_atom_site_fract_x
_atom_site_fract_y
_atom_site_fract_z
S1 S 0.36407(5) 0.13722(11) 0.14982(5)
F1 F 0.25510(13) -0.2141(4) 0.33447(14)
O1 O 0.56875(15) 0.1243(5) 0.10287(18)
O2 O 0.40611(14) 0.2175(3) 0.11152(16)
O3 O 0.33753(14) 0.2140(3) 0.20334(14)
N1 N 0.39719(14) -0.0210(3) 0.18088(15)
C1 C 0.48776(19) -0.0459(5) 0.1046(2)
H1 H 0.4713 0.0104 0.0675
C2 C 0.5244(2) -0.1861(6) 0.0787(2)
H2 H 0.5592 -0.1494 0.0564
C3 C 0.4911(4) -0.2869(8) 0.0380(3)
H3 H 0.4883 -0.2733 -0.0067
C4 C 0.4675(3) -0.3886(10) 0.0659(4)
H4 H 0.4452 -0.4644 0.0454
C5 C 0.4765(3) -0.3844(5) 0.1352(3)
H5 H 0.4749 -0.4866 0.1568
C6 C 0.4330(2) -0.2633(4) 0.1606(2)
C7 C 0.43925(19) -0.1107(4) 0.14507(19)
C8 C 0.5396(2) -0.3021(7) 0.1351(3)
H6 H 0.5484 -0.2491 0.1755
H7 H 0.5704 -0.3741 0.1238
C9 C 0.38584(19) -0.2795(4) 0.20563(18)
C10 C 0.3627(2) -0.4073(5) 0.23800(19)
H8 H 0.3770 -0.5075 0.2306
C11 C 0.3187(2) -0.3836(5) 0.2810(2)
H9 H 0.3027 -0.4676 0.3034
C12 C 0.29857(18) -0.2348(6) 0.2907(2)
C13 C 0.31966(18) -0.1038(5) 0.26094(19)
H10 H 0.3050 -0.0044 0.2691
C14 C 0.36434(17) -0.1294(4) 0.21793(18)
C15 C 0.5247(2) 0.0672(6) 0.1438(2)
H11 H 0.5013 0.1532 0.1597
H12 H 0.5415 0.0137 0.1809
C16 C 0.6027(2) 0.2397(7) 0.1322(3)
H13 H 0.6271 0.2874 0.1002
H14 H 0.6261 0.1930 0.1655
H15 H 0.5781 0.3179 0.1512
C17 C 0.30995(18) 0.0634(4) 0.09918(18)
C18 C 0.3242(2) -0.0100(6) 0.0410(2)
H16 H 0.3626 -0.0226 0.0291
C19 C 0.2806(2) -0.0639(6) 0.0011(2)
H17 H 0.2903 -0.1142 -0.0374
C20 C 0.2232(2) -0.0454(5) 0.01683(19)
C21 C 0.2110(2) 0.0250(6) 0.0749(2)
H18 H 0.1726 0.0362 0.0871
C22 C 0.25307(19) 0.0796(5) 0.1156(2)
H19 H 0.2430 0.1277 0.1545
C23 C 0.1766(2) -0.1037(6) -0.0274(2)
H20 H 0.1712 -0.0305 -0.0623
H21 H 0.1413 -0.1143 -0.0035
H22 H 0.1875 -0.2037 -0.0449
loop_
_geom_bond_atom_site_label_1
_geom_bond_atom_site_label_2
_geom_bond_site_symmetry_1
_geom_bond_site_symmetry_2
S1 O2 1_555 1_555
F1 C12 1_555 1_555
O1 C15 1_555 1_555
O3 S1 1_555 1_555
N1 S1 1_555 1_555
C1 H1 1_555 1_555
C2 C1 1_555 1_555
H2 C2 1_555 1_555
C3 C2 1_555 1_555
H3 C3 1_555 1_555
C4 C3 1_555 1_555
H4 C4 1_555 1_555
C5 C4 1_555 1_555
H5 C5 1_555 1_555
C6 C5 1_555 1_555
C7 N1 1_555 1_555
C8 C2 1_555 1_555
H6 C8 1_555 1_555
H7 C8 1_555 1_555
C9 C6 1_555 1_555
C10 C9 1_555 1_555
H8 C10 1_555 1_555
C11 C10 1_555 1_555
H9 C11 1_555 1_555
C12 C11 1_555 1_555
C13 C12 1_555 1_555
H10 C13 1_555 1_555
C14 N1 1_555 1_555
C15 C1 1_555 1_555
H11 C15 1_555 1_555
H12 C15 1_555 1_555
C16 O1 1_555 1_555
H13 C16 1_555 1_555
H14 C16 1_555 1_555
H15 C16 1_555 1_555
C17 S1 1_555 1_555
C18 C17 1_555 1_555
H16 C18 1_555 1_555
C19 C18 1_555 1_555
H17 C19 1_555 1_555
C20 C19 1_555 1_555
C21 C20 1_555 1_555
H18 C21 1_555 1_555
C22 C17 1_555 1_555
H19 C22 1_555 1_555
C23 C20 1_555 1_555
H20 C23 1_555 1_555
H21 C23 1_555 1_555
H22 C23 1_555 1_555
C1 C7 1_555 1_555
C5 C8 1_555 1_555
C6 C7 1_555 1_555
C9 C14 1_555 1_555
C13 C14 1_555 1_555
C21 C22 1_555 1_555

#END
