
#######################################################################
#
#                 Cambridge Crystallographic Data Centre
#                                CCDC 
#
#######################################################################
#
# If this CIF has been generated from an entry in the Cambridge 
# Structural Database, then it will include bibliographic, chemical, 
# crystal, experimental, refinement or atomic coordinate data resulting 
# from the CCDC's data processing and validation procedures.
#
#######################################################################

data_XOYXOA
_chemical_formula_moiety         'C19 H19 F2 I1 N2 O2 S1'
_chemical_name_systematic        
N^1^-(3,4-difluorophenyl)-3-iodo-N^2^-(2-methyl-1-(methylsulfanyl)propan-2-yl)phthalamide
_symmetry_cell_setting           monoclinic
_symmetry_space_group_name_H-M   'P 21/n'
_symmetry_Int_Tables_number      14
_space_group_name_Hall           '-P 2yn'
loop_
_symmetry_equiv_pos_site_id
_symmetry_equiv_pos_as_xyz
1 x,y,z
2 1/2-x,1/2+y,1/2-z
3 -x,-y,-z
4 1/2+x,1/2-y,1/2+z
_cell_length_a                   9.4986(19)
_cell_length_b                   24.124(5)
_cell_length_c                   18.244(4)
_cell_angle_alpha                90
_cell_angle_beta                 99.60(3)
_cell_angle_gamma                90
_cell_volume                     4121.96
_cell_formula_units_Z            8
loop_
_atom_site_label
_atom_site_type_symbol
_atom_site_fract_x
_atom_site_fract_y
_atom_site_fract_z
I1 I 0.53984(6) 0.08142(2) 0.57482(3)
F1 F 0.2877(14) 0.5009(4) 0.7621(6)
F2 F 0.1302(7) 0.53816(19) 0.6382(3)
O1 O 0.1877(5) 0.27951(17) 0.5629(2)
O2 O 0.3651(4) 0.19893(17) 0.4792(2)
N1 N 0.2967(6) 0.3200(2) 0.6703(3)
N2 N 0.5454(5) 0.2461(2) 0.5539(3)
C1 C 0.2609(6) 0.2765(2) 0.6249(3)
C2 C 0.3167(6) 0.2211(2) 0.6543(3)
C3 C 0.2785(6) 0.2004(3) 0.7195(3)
H1 H 0.2295 0.2228 0.7483
C4 C 0.3132(7) 0.1470(3) 0.7413(4)
H2 H 0.2868 0.1332 0.7846
C5 C 0.3868(7) 0.1138(3) 0.6994(4)
H3 H 0.4092 0.0775 0.7143
C6 C 0.4277(6) 0.1344(2) 0.6347(3)
C7 C 0.3921(5) 0.1883(2) 0.6117(3)
C8 C 0.4324(6) 0.2118(2) 0.5408(3)
C9 C 0.6083(6) 0.2768(3) 0.4967(3)
C10 C 0.7500(9) 0.2994(5) 0.5358(5)
H4 H 0.8111 0.2692 0.5548
H5 H 0.7342 0.3229 0.5761
H6 H 0.7943 0.3204 0.5012
C11 C 0.6362(10) 0.2404(4) 0.4337(4)
H7 H 0.7021 0.2116 0.4527
H8 H 0.6761 0.2622 0.3982
H9 H 0.5481 0.2240 0.4100
C12 C 0.5062(10) 0.3222(3) 0.4649(5)
S1 S 0.5694(6) 0.3735(2) 0.4122(3)
H10 H 0.4712 0.3401 0.5059
H11 H 0.4249 0.3048 0.4342
C13 C 0.664(3) 0.4178(9) 0.4748(12)
H12 H 0.7000 0.4478 0.4488
H13 H 0.7417 0.3982 0.5038
H14 H 0.6022 0.4322 0.5070
C14 C 0.2534(7) 0.3759(2) 0.6581(3)
C15 C 0.2965(8) 0.4127(3) 0.7156(4)
H15 H 0.3547 0.4007 0.7588
C16 C 0.2532(9) 0.4670(3) 0.7088(4)
C17 C 0.1742(10) 0.4850(3) 0.6456(5)
C18 C 0.1277(12) 0.4489(3) 0.5889(4)
C19 C 0.1695(11) 0.3936(3) 0.5952(4)
H16 H 0.1400 0.3690 0.5564
H17 H 0.346(6) 0.316(2) 0.704(3)
I2 I 0.36138(6) 0.32006(2) 0.21359(3)
F4 F 0.0622(13) 0.0587(5) 0.6411(7)
F5 F -0.1396(5) -0.00226(17) 0.5687(3)
O3 O -0.0651(5) 0.18487(17) 0.3273(2)
O4 O 0.1505(4) 0.20504(18) 0.2030(2)
N3 N 0.0302(5) 0.19321(19) 0.4509(3)
N4 N 0.2771(5) 0.17512(18) 0.3156(3)
C21 C 0.0082(6) 0.2096(2) 0.3788(3)
C22 C 0.0803(5) 0.2633(2) 0.3649(3)
C23 C 0.0544(6) 0.3115(2) 0.4014(3)
H23 H -0.0016 0.3105 0.4386
C24 C 0.1103(7) 0.3603(3) 0.3829(4)
H24 H 0.0925 0.3925 0.4078
C25 C 0.1924(7) 0.3627(3) 0.3284(4)
H25 H 0.2285 0.3965 0.3157
C26 C 0.2218(6) 0.3151(2) 0.2922(3)
C27 C 0.1656(5) 0.2644(2) 0.3092(3)
C28 C 0.1947(6) 0.2114(2) 0.2698(3)
C29 C 0.3282(7) 0.1214(3) 0.2907(4)
C30 C 0.4270(10) 0.1316(4) 0.2349(6)
H26 H 0.5054 0.1544 0.2571
H27 H 0.3754 0.1501 0.1921
H28 H 0.4626 0.0968 0.2201
C31 C 0.4076(11) 0.0941(3) 0.3598(5)
H29 H 0.4871 0.1169 0.3808
H30 H 0.4417 0.0584 0.3473
H31 H 0.3445 0.0896 0.3954
S3 S 0.2183(13) 0.0141(3) 0.2376(6)
C32 C 0.2044(10) 0.0846(3) 0.2566(6)
H32 H 0.1635 0.1019 0.2099
H33 H 0.1331 0.0877 0.2887
C33 C 0.219(3) 0.0236(10) 0.1441(8)
H34 H 0.2275 -0.0117 0.1209
H35 H 0.2981 0.0467 0.1375
H36 H 0.1313 0.0410 0.1218
C34 C -0.0188(6) 0.1421(2) 0.4777(3)
C35 C 0.0451(7) 0.1256(3) 0.5480(4)
H37 H 0.1165 0.1473 0.5749
C36 C 0.0044(8) 0.0778(3) 0.5782(4)
C37 C -0.0997(7) 0.0458(3) 0.5392(4)
C38 C -0.1636(8) 0.0613(3) 0.4695(4)
C39 C -0.1265(6) 0.1101(3) 0.4388(4)
H38 H -0.1733 0.1214 0.3923
F3? F 0.0447(18) 0.4663(4) 0.5296(6)
S2? S 0.4705(10) 0.3820(3) 0.5027(6)
H18? H 0.4144 0.3040 0.4518
H19? H 0.5353 0.3322 0.4181
C20? C 0.555(4) 0.4334(13) 0.462(2)
H20? H 0.5400 0.4684 0.4840
H21? H 0.5179 0.4348 0.4095
H22? H 0.6560 0.4257 0.4685
F6? F -0.2614(8) 0.0297(3) 0.4327(4)
S4? S 0.2648(12) 0.0249(4) 0.2136(7)
H39? H 0.1404 0.1057 0.2198
H40? H 0.1514 0.0731 0.2950
C40? C 0.105(2) 0.0056(11) 0.1660(16)
H41? H 0.1156 -0.0274 0.1380
H42? H 0.0667 0.0348 0.1327
H43? H 0.0403 -0.0017 0.2003
loop_
_geom_bond_atom_site_label_1
_geom_bond_atom_site_label_2
_geom_bond_site_symmetry_1
_geom_bond_site_symmetry_2
I1 C6 1_555 1_555
F1 C16 1_555 1_555
F2 C17 1_555 1_555
O1 C1 1_555 1_555
O2 C8 1_555 1_555
N1 C1 1_555 1_555
N2 C8 1_555 1_555
C1 C2 1_555 1_555
C2 C3 1_555 1_555
C3 H1 1_555 1_555
C4 C3 1_555 1_555
H2 C4 1_555 1_555
C5 C4 1_555 1_555
H3 C5 1_555 1_555
C6 C5 1_555 1_555
C7 C2 1_555 1_555
C8 C7 1_555 1_555
C9 N2 1_555 1_555
C10 C9 1_555 1_555
H4 C10 1_555 1_555
H5 C10 1_555 1_555
H6 C10 1_555 1_555
C11 C9 1_555 1_555
H7 C11 1_555 1_555
H8 C11 1_555 1_555
H9 C11 1_555 1_555
C12 C9 1_555 1_555
S1 C12 1_555 1_555
H10 C12 1_555 1_555
H11 C12 1_555 1_555
C13 S1 1_555 1_555
H12 C13 1_555 1_555
H13 C13 1_555 1_555
H14 C13 1_555 1_555
C14 N1 1_555 1_555
C15 C14 1_555 1_555
H15 C15 1_555 1_555
C16 C15 1_555 1_555
C17 C16 1_555 1_555
C18 C17 1_555 1_555
C19 C14 1_555 1_555
H16 C19 1_555 1_555
H17 N1 1_555 1_555
I2 C26 1_555 1_555
F4 C36 1_555 1_555
F5 C37 1_555 1_555
O3 C21 1_555 1_555
O4 C28 1_555 1_555
N3 C21 1_555 1_555
N4 C28 1_555 1_555
C21 C22 1_555 1_555
C22 C23 1_555 1_555
C23 H23 1_555 1_555
C24 C23 1_555 1_555
H24 C24 1_555 1_555
C25 C24 1_555 1_555
H25 C25 1_555 1_555
C26 C25 1_555 1_555
C27 C22 1_555 1_555
C28 C27 1_555 1_555
C29 N4 1_555 1_555
C30 C29 1_555 1_555
H26 C30 1_555 1_555
H27 C30 1_555 1_555
H28 C30 1_555 1_555
C31 C29 1_555 1_555
H29 C31 1_555 1_555
H30 C31 1_555 1_555
H31 C31 1_555 1_555
S3 C32 1_555 1_555
C32 C29 1_555 1_555
H32 C32 1_555 1_555
H33 C32 1_555 1_555
C33 S3 1_555 1_555
H34 C33 1_555 1_555
H35 C33 1_555 1_555
H36 C33 1_555 1_555
C34 N3 1_555 1_555
C35 C34 1_555 1_555
H37 C35 1_555 1_555
C36 C35 1_555 1_555
C37 C36 1_555 1_555
C38 C37 1_555 1_555
C39 C34 1_555 1_555
H38 C39 1_555 1_555
C6 C7 1_555 1_555
C18 C19 1_555 1_555
C26 C27 1_555 1_555
C38 C39 1_555 1_555

#END
