
#######################################################################
#
#                 Cambridge Crystallographic Data Centre
#                                CCDC 
#
#######################################################################
#
# If this CIF has been generated from an entry in the Cambridge 
# Structural Database, then it will include bibliographic, chemical, 
# crystal, experimental, refinement or atomic coordinate data resulting 
# from the CCDC's data processing and validation procedures.
#
#######################################################################

data_XOZBIY
_chemical_formula_moiety         'C4 H3 Cl1 O3'
_chemical_name_systematic        3-Chloro-4-hydroxy-2(5H)-furanone
_symmetry_cell_setting           orthorhombic
_symmetry_space_group_name_H-M   'P n m a'
_symmetry_Int_Tables_number      62
_space_group_name_Hall           '-P 2ac 2n'
loop_
_symmetry_equiv_pos_site_id
_symmetry_equiv_pos_as_xyz
1 x,y,z
2 1/2-x,-y,1/2+z
3 1/2+x,1/2-y,1/2-z
4 -x,1/2+y,-z
5 -x,-y,-z
6 1/2+x,y,1/2-z
7 1/2-x,1/2+y,1/2+z
8 x,1/2-y,z
_cell_length_a                   12.0437(6)
_cell_length_b                   6.5453(4)
_cell_length_c                   6.3886(4)
_cell_angle_alpha                90
_cell_angle_beta                 90
_cell_angle_gamma                90
_cell_volume                     503.611
_exptl_crystal_colour            yellow
_exptl_crystal_description       block
_cell_formula_units_Z            4
loop_
_atom_site_label
_atom_site_type_symbol
_atom_site_fract_x
_atom_site_fract_y
_atom_site_fract_z
Cl1 Cl 0.34253(4) 0.7500 0.60829(9)
O1 O 0.10530(15) 0.7500 0.8246(3)
O2 O 0.24683(15) 0.7500 0.1417(2)
O3 O 0.02339(12) 0.7500 0.5138(2)
C1 C 0.05689(17) 0.7500 0.2974(3)
H1 H 0.0295 0.8706 0.2259
C2 C 0.18096(17) 0.7500 0.3064(3)
C3 C 0.21185(17) 0.7500 0.5069(3)
C4 C 0.11471(18) 0.7500 0.6361(3)
H2 H 0.210(3) 0.7500 0.037(5)
H1G H 0.0295 0.6294 0.2259
loop_
_geom_bond_atom_site_label_1
_geom_bond_atom_site_label_2
_geom_bond_site_symmetry_1
_geom_bond_site_symmetry_2
Cl1 C3 1_555 1_555
O1 C4 1_555 1_555
O2 C2 1_555 1_555
O3 C1 1_555 1_555
C1 H1 1_555 1_555
C2 C1 1_555 1_555
C3 C2 1_555 1_555
C4 O3 1_555 1_555
H2 O2 1_555 1_555
H1G C1 1_555 1_555
C3 C4 1_555 1_555

#END
