
#######################################################################
#
#                 Cambridge Crystallographic Data Centre
#                                CCDC 
#
#######################################################################
#
# If this CIF has been generated from an entry in the Cambridge 
# Structural Database, then it will include bibliographic, chemical, 
# crystal, experimental, refinement or atomic coordinate data resulting 
# from the CCDC's data processing and validation procedures.
#
#######################################################################

data_XOZBEU01
_chemical_formula_moiety         'C10 H10 N4,H2 O1'
_chemical_name_systematic        
'1,2-bis((1H-pyrrol-2-yl)methylene)hydrazine monohydrate'
_symmetry_cell_setting           monoclinic
_symmetry_space_group_name_H-M   'P 2/c'
_symmetry_Int_Tables_number      13
_space_group_name_Hall           '-P 2yc'
loop_
_symmetry_equiv_pos_site_id
_symmetry_equiv_pos_as_xyz
1 x,y,z
2 -x,y,1/2-z
3 -x,-y,-z
4 x,-y,1/2+z
_cell_length_a                   11.973(2)
_cell_length_b                   6.5610(13)
_cell_length_c                   6.7998(14)
_cell_angle_alpha                90
_cell_angle_beta                 105.21(3)
_cell_angle_gamma                90
_cell_volume                     515.446
_exptl_crystal_colour            yellow
_exptl_crystal_description       needle
_cell_formula_units_Z            2
loop_
_atom_site_label
_atom_site_type_symbol
_atom_site_fract_x
_atom_site_fract_y
_atom_site_fract_z
N1 N 0.29252(11) 0.1509(2) 0.1043(2)
H1 H 0.3608 0.0916 0.1376
N2 N 0.46337(11) 0.41911(18) 0.00988(19)
C1 C 0.19248(14) 0.0667(3) 0.1242(3)
H2 H 0.1848 -0.0651 0.1770
C2 C 0.10379(14) 0.2045(3) 0.0549(3)
H3 H 0.0245 0.1847 0.0503
C3 C 0.15270(15) 0.3789(2) -0.0072(3)
H4 H 0.1126 0.4999 -0.0609
C4 C 0.27017(13) 0.3433(2) 0.0238(2)
C5 C 0.35858(13) 0.4791(2) -0.0054(2)
H5 H 0.3394 0.6179 -0.0370
N1B N 0.70748(11) 0.8491(2) -0.1043(2)
H1B H 0.6392 0.9084 -0.1376
N2B N 0.53663(11) 0.58089(18) -0.00988(19)
C1B C 0.80752(14) 0.9333(3) -0.1242(3)
H2B H 0.8152 1.0651 -0.1770
C2B C 0.89621(14) 0.7955(3) -0.0549(3)
H3B H 0.9755 0.8153 -0.0503
C3B C 0.84730(15) 0.6211(2) 0.0072(3)
H4B H 0.8874 0.5001 0.0609
C4B C 0.72983(13) 0.6567(2) -0.0238(2)
C5B C 0.64142(13) 0.5209(2) 0.0054(2)
H5B H 0.6606 0.3821 0.0370
O1 O 0.5000 -0.0928(2) 0.2500
loop_
_geom_bond_atom_site_label_1
_geom_bond_atom_site_label_2
_geom_bond_site_symmetry_1
_geom_bond_site_symmetry_2
N1 H1 1_555 1_555
N2 C5 1_555 1_555
C1 N1 1_555 1_555
H2 C1 1_555 1_555
C2 C1 1_555 1_555
H3 C2 1_555 1_555
C3 C2 1_555 1_555
H4 C3 1_555 1_555
C4 N1 1_555 1_555
C5 C4 1_555 1_555
H5 C5 1_555 1_555
N1B H1B 1_555 1_555
N2B N2 1_555 1_555
C1B N1B 1_555 1_555
H2B C1B 1_555 1_555
C2B C1B 1_555 1_555
H3B C2B 1_555 1_555
C3B C2B 1_555 1_555
H4B C3B 1_555 1_555
C4B N1B 1_555 1_555
C5B N2B 1_555 1_555
H5B C5B 1_555 1_555
C3 C4 1_555 1_555
C3B C4B 1_555 1_555
C4B C5B 1_555 1_555

#END
