
#######################################################################
#
#                 Cambridge Crystallographic Data Centre
#                                CCDC 
#
#######################################################################
#
# If this CIF has been generated from an entry in the Cambridge 
# Structural Database, then it will include bibliographic, chemical, 
# crystal, experimental, refinement or atomic coordinate data resulting 
# from the CCDC's data processing and validation procedures.
#
#######################################################################

data_XOZFIC
_chemical_formula_moiety         'C14 H13 N1 O3'
_chemical_name_systematic        'Phenyl N-(4-methoxyphenyl)carbamate'
_symmetry_cell_setting           monoclinic
_symmetry_space_group_name_H-M   'P 21/n'
_symmetry_Int_Tables_number      14
_space_group_name_Hall           '-P 2yn'
loop_
_symmetry_equiv_pos_site_id
_symmetry_equiv_pos_as_xyz
1 x,y,z
2 1/2-x,1/2+y,1/2-z
3 -x,-y,-z
4 1/2+x,1/2-y,1/2+z
_cell_length_a                   9.869(2)
_cell_length_b                   10.870(2)
_cell_length_c                   23.319(5)
_cell_angle_alpha                90
_cell_angle_beta                 100.27(3)
_cell_angle_gamma                90
_cell_volume                     2461.49
_exptl_crystal_colour            colorless
_exptl_crystal_description       block
_cell_formula_units_Z            8
_exptl_crystal_recrystallization_method 'petroleum ether'
loop_
_atom_site_label
_atom_site_type_symbol
_atom_site_fract_x
_atom_site_fract_y
_atom_site_fract_z
O1 O 1.0212(2) 0.7911(3) 0.03978(13)
O2 O 0.8011(2) 0.7329(2) 0.01287(11)
O3 O 0.6882(3) 0.3624(3) -0.20767(12)
N1 N 0.9696(3) 0.6635(3) -0.03360(15)
H1 H 1.0567 0.6696 -0.0331
C1 C 0.9618(5) 1.0279(5) 0.1698(3)
H3 H 0.9538 1.0851 0.1986
C2 C 1.0165(5) 0.9067(6) 0.1852(2)
H4 H 1.0409 0.8824 0.2239
C3 C 1.0310(4) 0.8289(5) 0.1404(2)
H5 H 1.0668 0.7505 0.1486
C4 C 0.9940(3) 0.8648(4) 0.08460(18)
C5 C 0.9390(4) 0.9807(4) 0.07198(19)
H6 H 0.9125 1.0061 0.0335
C6 C 0.9246(4) 1.0556(5) 0.1160(2)
H7 H 0.8851 1.1325 0.1069
C7 C 0.9180(4) 0.7285(4) 0.0059(2)
C8 C 0.8940(4) 0.5852(3) -0.07637(18)
C9 C 0.7833(4) 0.5173(4) -0.06612(18)
H8 H 0.7568 0.5211 -0.0298
C10 C 0.7113(4) 0.4439(4) -0.10902(17)
H9 H 0.6362 0.3990 -0.1016
C11 C 0.7492(4) 0.4364(4) -0.16274(18)
C12 C 0.8617(4) 0.5036(4) -0.17297(18)
H10 H 0.8891 0.4986 -0.2090
C13 C 0.9328(4) 0.5771(4) -0.13035(19)
H11 H 1.0079 0.6221 -0.1378
C14 C 0.5858(5) 0.2793(4) -0.1969(2)
H12 H 0.5518 0.2336 -0.2317
H13 H 0.5115 0.3242 -0.1852
H14 H 0.6245 0.2236 -0.1664
O4 O 1.4527(2) 0.6417(3) -0.07369(12)
O5 O 1.2693(2) 0.7162(2) -0.03922(11)
O6 O 1.4470(2) 1.1216(2) 0.16973(11)
N2 N 1.4897(3) 0.7712(3) -0.00016(13)
H2 H 1.5736 0.7542 -0.0026
C15 C 1.2046(4) 0.4562(5) -0.2066(2)
H15 H 1.1504 0.4138 -0.2370
C16 C 1.2464(5) 0.5728(5) -0.2151(2)
H16 H 1.2203 0.6100 -0.2513
C17 C 1.3267(4) 0.6362(4) -0.17070(19)
H17 H 1.3553 0.7160 -0.1765
C18 C 1.3637(3) 0.5799(4) -0.11805(17)
C19 C 1.3217(4) 0.4635(4) -0.1092(2)
H18 H 1.3471 0.4261 -0.0730
C20 C 1.2418(5) 0.4019(4) -0.1541(3)
H19 H 1.2130 0.3220 -0.1484
C21 C 1.3919(4) 0.7121(3) -0.03685(16)
C22 C 1.4700(3) 0.8590(3) 0.04237(15)
C23 C 1.5852(3) 0.9022(4) 0.07914(16)
H20 H 1.6716 0.8719 0.0758
C24 C 1.5739(4) 0.9892(4) 0.12045(17)
H21 H 1.6528 1.0165 0.1451
C25 C 1.4473(3) 1.0370(3) 0.12614(15)
C26 C 1.3334(3) 0.9931(4) 0.09065(16)
H22 H 1.2471 1.0230 0.0944
C27 C 1.3439(3) 0.9049(4) 0.04911(17)
H23 H 1.2645 0.8760 0.0253
C28 C 1.3265(4) 1.1931(4) 0.16771(19)
H24 H 1.3391 1.2493 0.2000
H25 H 1.2499 1.1400 0.1699
H26 H 1.3089 1.2386 0.1319
loop_
_geom_bond_atom_site_label_1
_geom_bond_atom_site_label_2
_geom_bond_site_symmetry_1
_geom_bond_site_symmetry_2
O1 C4 1_555 1_555
O2 C7 1_555 1_555
O3 C11 1_555 1_555
O4 C18 1_555 1_555
O5 C21 1_555 1_555
O6 C25 1_555 1_555
N1 H1 1_555 1_555
N2 H2 1_555 1_555
C1 H3 1_555 1_555
C2 C1 1_555 1_555
H4 C2 1_555 1_555
C3 C2 1_555 1_555
H5 C3 1_555 1_555
C4 C3 1_555 1_555
C5 C4 1_555 1_555
H6 C5 1_555 1_555
C6 C1 1_555 1_555
H7 C6 1_555 1_555
C7 O1 1_555 1_555
C8 N1 1_555 1_555
C9 C8 1_555 1_555
H8 C9 1_555 1_555
C10 C9 1_555 1_555
H9 C10 1_555 1_555
C11 C10 1_555 1_555
C12 C11 1_555 1_555
H10 C12 1_555 1_555
C13 C8 1_555 1_555
H11 C13 1_555 1_555
C14 O3 1_555 1_555
H12 C14 1_555 1_555
H13 C14 1_555 1_555
H14 C14 1_555 1_555
C15 H15 1_555 1_555
C16 C15 1_555 1_555
H16 C16 1_555 1_555
C17 C16 1_555 1_555
H17 C17 1_555 1_555
C18 C17 1_555 1_555
C19 C18 1_555 1_555
H18 C19 1_555 1_555
C20 C15 1_555 1_555
H19 C20 1_555 1_555
C21 O4 1_555 1_555
C22 N2 1_555 1_555
C23 C22 1_555 1_555
H20 C23 1_555 1_555
C24 C23 1_555 1_555
H21 C24 1_555 1_555
C25 C24 1_555 1_555
C26 C25 1_555 1_555
H22 C26 1_555 1_555
C27 C22 1_555 1_555
H23 C27 1_555 1_555
C28 O6 1_555 1_555
H24 C28 1_555 1_555
H25 C28 1_555 1_555
H26 C28 1_555 1_555
N1 C7 1_555 1_555
N2 C21 1_555 1_555
C5 C6 1_555 1_555
C12 C13 1_555 1_555
C19 C20 1_555 1_555
C26 C27 1_555 1_555

#END
