
#######################################################################
#
#                 Cambridge Crystallographic Data Centre
#                                CCDC 
#
#######################################################################
#
# If this CIF has been generated from an entry in the Cambridge 
# Structural Database, then it will include bibliographic, chemical, 
# crystal, experimental, refinement or atomic coordinate data resulting 
# from the CCDC's data processing and validation procedures.
#
#######################################################################

data_XOZHAW
_chemical_formula_moiety         'C20 H22 N2 O5'
_chemical_name_systematic        
2,5-Bis(2-(2-methoxyethoxy)phenyl)-1,3,4-oxadiazole
_symmetry_cell_setting           monoclinic
_symmetry_space_group_name_H-M   'P 21/c'
_symmetry_Int_Tables_number      14
_space_group_name_Hall           '-P 2ybc'
loop_
_symmetry_equiv_pos_site_id
_symmetry_equiv_pos_as_xyz
1 x,y,z
2 -x,1/2+y,1/2-z
3 -x,-y,-z
4 x,1/2-y,1/2+z
_cell_length_a                   7.7264(15)
_cell_length_b                   13.886(3)
_cell_length_c                   16.911(3)
_cell_angle_alpha                90
_cell_angle_beta                 96.42(3)
_cell_angle_gamma                90
_cell_volume                     1802.98
_exptl_crystal_colour            colorless
_exptl_crystal_description       prism
_cell_formula_units_Z            4
_exptl_crystal_recrystallization_method 'ethyl acetate'
loop_
_atom_site_label
_atom_site_type_symbol
_atom_site_fract_x
_atom_site_fract_y
_atom_site_fract_z
O1 O 0.88655(10) 0.03469(6) 0.35096(5)
O2 O 0.63462(10) 0.15549(5) 0.25616(5)
O3 O 0.35245(9) 0.06943(5) 0.04514(4)
O4 O 0.23221(10) 0.04689(5) -0.10258(4)
O5 O 0.18138(11) 0.24756(6) -0.15011(6)
N1 N 0.40253(12) 0.02963(6) 0.17243(6)
N2 N 0.30539(12) -0.04406(6) 0.13138(6)
C1 C 0.89595(18) -0.05579(9) 0.38968(8)
H1 H 0.9211 -0.0464 0.4460
H2 H 0.9865 -0.0937 0.3706
H3 H 0.7866 -0.0886 0.3787
C2 C 0.76278(15) 0.09686(9) 0.38010(7)
H4 H 0.8027 0.1161 0.4342
H5 H 0.6524 0.0636 0.3804
C3 C 0.73965(15) 0.18388(8) 0.32781(7)
H6 H 0.6825 0.2348 0.3543
H7 H 0.8519 0.2073 0.3156
C4 C 0.60454(14) 0.22178(7) 0.19721(7)
C5 C 0.66365(15) 0.31641(8) 0.20354(7)
H8 H 0.7257 0.3378 0.2506
C6 C 0.62996(15) 0.37886(8) 0.13967(8)
H9 H 0.6681 0.4423 0.1445
C7 C 0.53997(16) 0.34777(8) 0.06861(8)
H10 H 0.5217 0.3894 0.0254
C8 C 0.47746(15) 0.25413(8) 0.06264(7)
H11 H 0.4158 0.2335 0.0153
C9 C 0.50575(14) 0.19043(7) 0.12671(6)
C10 C 0.42605(13) 0.09472(7) 0.11946(6)
C11 C 0.27775(13) -0.01706(7) 0.05765(6)
C12 C 0.17690(13) -0.06928(7) -0.00691(6)
C13 C 0.09329(14) -0.15339(7) 0.01298(7)
H12 H 0.1025 -0.1731 0.0658
C14 C -0.00307(15) -0.20810(8) -0.04446(7)
H13 H -0.0577 -0.2642 -0.0304
C15 C -0.01745(15) -0.17859(8) -0.12307(7)
H14 H -0.0796 -0.2161 -0.1620
C16 C 0.05963(14) -0.09390(8) -0.14445(7)
H15 H 0.0471 -0.0741 -0.1973
C17 C 0.15615(13) -0.03817(7) -0.08668(6)
C18 C 0.20669(15) 0.08174(8) -0.18286(6)
H16 H 0.0833 0.0859 -0.2010
H17 H 0.2607 0.0385 -0.2179
C19 C 0.28879(15) 0.17939(8) -0.18332(7)
H18 H 0.4026 0.1780 -0.1526
H19 H 0.3040 0.1977 -0.2375
C20 C 0.25736(17) 0.34043(8) -0.14647(9)
H20 H 0.3644 0.3391 -0.1117
H21 H 0.1787 0.3855 -0.1265
H22 H 0.2805 0.3597 -0.1988
loop_
_geom_bond_atom_site_label_1
_geom_bond_atom_site_label_2
_geom_bond_site_symmetry_1
_geom_bond_site_symmetry_2
O1 C1 1_555 1_555
O2 C3 1_555 1_555
O3 C10 1_555 1_555
O4 C17 1_555 1_555
O5 C19 1_555 1_555
N1 N2 1_555 1_555
N2 C11 1_555 1_555
C1 H1 1_555 1_555
H2 C1 1_555 1_555
H3 C1 1_555 1_555
C2 O1 1_555 1_555
H4 C2 1_555 1_555
H5 C2 1_555 1_555
C3 C2 1_555 1_555
H6 C3 1_555 1_555
H7 C3 1_555 1_555
C4 O2 1_555 1_555
C5 C4 1_555 1_555
H8 C5 1_555 1_555
C6 C5 1_555 1_555
H9 C6 1_555 1_555
C7 C6 1_555 1_555
H10 C7 1_555 1_555
C8 C7 1_555 1_555
H11 C8 1_555 1_555
C9 C4 1_555 1_555
C10 N1 1_555 1_555
C11 O3 1_555 1_555
C12 C11 1_555 1_555
C13 C12 1_555 1_555
H12 C13 1_555 1_555
C14 C13 1_555 1_555
H13 C14 1_555 1_555
C15 C14 1_555 1_555
H14 C15 1_555 1_555
C16 C15 1_555 1_555
H15 C16 1_555 1_555
C17 C12 1_555 1_555
C18 O4 1_555 1_555
H16 C18 1_555 1_555
H17 C18 1_555 1_555
C19 C18 1_555 1_555
H18 C19 1_555 1_555
H19 C19 1_555 1_555
C20 O5 1_555 1_555
H20 C20 1_555 1_555
H21 C20 1_555 1_555
H22 C20 1_555 1_555
C8 C9 1_555 1_555
C9 C10 1_555 1_555
C16 C17 1_555 1_555

#END
