
#######################################################################
#
#                 Cambridge Crystallographic Data Centre
#                                CCDC 
#
#######################################################################
#
# If this CIF has been generated from an entry in the Cambridge 
# Structural Database, then it will include bibliographic, chemical, 
# crystal, experimental, refinement or atomic coordinate data resulting 
# from the CCDC's data processing and validation procedures.
#
#######################################################################

data_XOZHUR
_chemical_formula_moiety         'C7 H9 N3 O2 S1'
_chemical_name_systematic        
3-Isopropyl-6-oxo-5,6-dihydro[1,2,3]oxadiazolo[4,5-b][1,4]thiazin-3-ium-7-ide
_symmetry_cell_setting           triclinic
_symmetry_space_group_name_H-M   'P -1'
_symmetry_Int_Tables_number      2
_space_group_name_Hall           '-P 1'
loop_
_symmetry_equiv_pos_site_id
_symmetry_equiv_pos_as_xyz
1 x,y,z
2 -x,-y,-z
_cell_length_a                   9.1443(6)
_cell_length_b                   9.6390(6)
_cell_length_c                   10.4539(6)
_cell_angle_alpha                87.4420(10)
_cell_angle_beta                 74.0010(10)
_cell_angle_gamma                77.7110(10)
_cell_volume                     865.345
_exptl_crystal_colour            yellow
_exptl_crystal_description       prism
_cell_formula_units_Z            4
loop_
_atom_site_label
_atom_site_type_symbol
_atom_site_fract_x
_atom_site_fract_y
_atom_site_fract_z
O1 O 0.42809(10) 0.66482(9) 0.46519(8)
N1 N 0.58308(11) 0.65247(11) 0.46541(10)
N2 N 0.57542(11) 0.66742(10) 0.59197(10)
C1 C 0.43119(13) 0.68482(12) 0.67366(11)
C2 C 0.33365(13) 0.68201(12) 0.59250(11)
N3 N 0.18475(12) 0.68653(11) 0.61743(10)
C3 C 0.09935(14) 0.72576(12) 0.74594(12)
C4 C 0.16773(13) 0.80297(13) 0.83296(12)
H1 H 0.0960 0.8151 0.9238
H2 H 0.1744 0.8988 0.7967
S1 S 0.36042(3) 0.71069(3) 0.84344(3)
O2 O -0.03343(10) 0.70798(10) 0.78991(9)
C5 C 0.72225(13) 0.65420(12) 0.63325(12)
H3 H 0.7061 0.7319 0.6991
C6 C 0.85406(14) 0.67288(14) 0.51363(13)
H4 H 0.8253 0.7640 0.4720
H5 H 0.8743 0.5955 0.4493
H6 H 0.9479 0.6713 0.5421
C7 C 0.75217(14) 0.51259(13) 0.70192(13)
H7 H 0.6588 0.5036 0.7727
H8 H 0.8394 0.5079 0.7405
H9 H 0.7776 0.4350 0.6368
O3 O 0.56809(11) 0.97558(10) 0.33330(10)
N4 N 0.41221(13) 0.99081(12) 0.33687(12)
N5 N 0.41374(12) 0.89439(11) 0.25044(10)
C8 C 0.55620(14) 0.82053(12) 0.18975(12)
C9 C 0.65864(15) 0.87324(13) 0.24213(13)
N6 N 0.80985(13) 0.84486(12) 0.21849(12)
C10 C 0.88601(15) 0.72111(15) 0.14887(12)
C11 C 0.79547(14) 0.61250(14) 0.12457(13)
H10 H 0.7662 0.5591 0.2076
H11 H 0.8660 0.5438 0.0555
S2 S 0.61945(4) 0.68503(3) 0.07268(3)
O4 O 1.02838(11) 0.68833(12) 0.11380(10)
C12 C 0.26532(14) 0.88482(13) 0.22088(13)
H12 H 0.2720 0.7840 0.1968
C13 C 0.12805(15) 0.92678(15) 0.34157(14)
H13 H 0.1468 0.8695 0.4175
H14 H 0.0338 0.9105 0.3228
H15 H 0.1147 1.0275 0.3626
C14 C 0.25175(16) 0.97604(14) 0.10057(13)
H16 H 0.3452 0.9463 0.0267
H17 H 0.2413 1.0759 0.1233
H18 H 0.1601 0.9647 0.0742
loop_
_geom_bond_atom_site_label_1
_geom_bond_atom_site_label_2
_geom_bond_site_symmetry_1
_geom_bond_site_symmetry_2
O1 N1 1_555 1_555
N1 N2 1_555 1_555
N2 C1 1_555 1_555
C1 C2 1_555 1_555
C2 O1 1_555 1_555
N3 C2 1_555 1_555
C3 N3 1_555 1_555
C4 C3 1_555 1_555
H1 C4 1_555 1_555
H2 C4 1_555 1_555
S1 C1 1_555 1_555
O2 C3 1_555 1_555
C5 N2 1_555 1_555
H3 C5 1_555 1_555
C6 C5 1_555 1_555
H4 C6 1_555 1_555
H5 C6 1_555 1_555
H6 C6 1_555 1_555
C7 C5 1_555 1_555
H7 C7 1_555 1_555
H8 C7 1_555 1_555
H9 C7 1_555 1_555
O3 N4 1_555 1_555
N4 N5 1_555 1_555
N5 C8 1_555 1_555
C8 C9 1_555 1_555
C9 O3 1_555 1_555
N6 C9 1_555 1_555
C10 N6 1_555 1_555
C11 C10 1_555 1_555
H10 C11 1_555 1_555
H11 C11 1_555 1_555
S2 C8 1_555 1_555
O4 C10 1_555 1_555
C12 N5 1_555 1_555
H12 C12 1_555 1_555
C13 C12 1_555 1_555
H13 C13 1_555 1_555
H14 C13 1_555 1_555
H15 C13 1_555 1_555
C14 C12 1_555 1_555
H16 C14 1_555 1_555
H17 C14 1_555 1_555
H18 C14 1_555 1_555
C4 S1 1_555 1_555
C11 S2 1_555 1_555

#END
