
#######################################################################
#
#                 Cambridge Crystallographic Data Centre
#                                CCDC 
#
#######################################################################
#
# If this CIF has been generated from an entry in the Cambridge 
# Structural Database, then it will include bibliographic, chemical, 
# crystal, experimental, refinement or atomic coordinate data resulting 
# from the CCDC's data processing and validation procedures.
#
#######################################################################

data_XOZJAY
_chemical_formula_moiety         'C8 H10 O8,2(C10 H8 N2)'
_chemical_name_systematic        
"1,2,3,4-Butanetetracarboxylic acid bis(4,4'-bipyridine)"
_symmetry_cell_setting           triclinic
_symmetry_space_group_name_H-M   'P -1'
_symmetry_Int_Tables_number      2
_space_group_name_Hall           '-P 1'
loop_
_symmetry_equiv_pos_site_id
_symmetry_equiv_pos_as_xyz
1 x,y,z
2 -x,-y,-z
_cell_length_a                   7.4435(11)
_cell_length_b                   8.6990(13)
_cell_length_c                   11.438(2)
_cell_angle_alpha                99.819(3)
_cell_angle_beta                 105.662(3)
_cell_angle_gamma                111.361(2)
_cell_volume                     633.579
_exptl_crystal_colour            colorless
_exptl_crystal_description       block
_cell_formula_units_Z            1
loop_
_atom_site_label
_atom_site_type_symbol
_atom_site_fract_x
_atom_site_fract_y
_atom_site_fract_z
C1 C -0.1342(5) 0.6302(4) -0.0696(3)
C2 C -0.0232(5) 0.7892(4) 0.0456(3)
H1 H -0.1212 0.7939 0.0858
H2 H 0.0844 0.7742 0.1058
C3 C 0.0728(5) 0.9587(3) 0.0242(3)
H3 H 0.1316 0.9400 -0.0410
C4 C 0.2542(5) 1.0895(4) 0.1447(3)
O1 O -0.1175(4) 0.6219(3) -0.1724(2)
O2 O -0.2488(4) 0.5023(3) -0.0413(2)
H12 H -0.3115 0.4168 -0.1043
O3 O 0.4001(3) 1.1949(3) 0.11635(17)
H13 H 0.4895 1.2695 0.1816
O4 O 0.2601(3) 1.0897(3) 0.25184(19)
C1A C 0.1342(5) 1.3698(4) 0.0696(3)
C2A C 0.0232(5) 1.2108(4) -0.0456(3)
H1A H 0.1212 1.2061 -0.0858
H2A H -0.0844 1.2258 -0.1058
C3A C -0.0728(5) 1.0413(3) -0.0242(3)
H3A H -0.1316 1.0600 0.0410
C4A C -0.2542(5) 0.9105(4) -0.1447(3)
O1A O 0.1175(4) 1.3781(3) 0.1724(2)
O2A O 0.2488(4) 1.4977(3) 0.0413(2)
H12A H 0.3115 1.5832 0.1043
O3A O -0.4001(3) 0.8051(3) -0.11635(17)
H13A H -0.4895 0.7305 -0.1816
O4A O -0.2601(3) 0.9103(3) -0.25184(19)
C5 C -0.2914(4) 0.4885(4) 0.4266(3)
H4 H -0.3917 0.4111 0.4485
C6 C -0.1373(4) 0.6347(4) 0.5207(3)
H5 H -0.1346 0.6548 0.6038
C7 C 0.0146(4) 0.7522(3) 0.4900(2)
C8 C -0.0007(4) 0.7138(4) 0.3640(3)
H6 H 0.0963 0.7888 0.3387
C9 C -0.1600(5) 0.5644(4) 0.2767(3)
H7 H -0.1671 0.5408 0.1928
C10 C 0.1856(4) 0.9112(3) 0.5876(2)
C11 C 0.2302(4) 0.9316(4) 0.7163(3)
H8 H 0.1531 0.8442 0.7436
C12 C 0.3888(4) 1.0814(4) 0.8037(3)
H9 H 0.4160 1.0920 0.8897
C13 C 0.4643(4) 1.1920(4) 0.6489(3)
H10 H 0.5455 1.2815 0.6249
C14 C 0.3093(4) 1.0477(4) 0.5543(3)
H11 H 0.2869 1.0409 0.4692
N1 N -0.3041(4) 0.4522(3) 0.3059(2)
N2 N 0.5053(3) 1.2116(3) 0.7720(2)
loop_
_geom_bond_atom_site_label_1
_geom_bond_atom_site_label_2
_geom_bond_site_symmetry_1
_geom_bond_site_symmetry_2
C1 C2 1_555 1_555
C2 H1 1_555 1_555
H2 C2 1_555 1_555
C3 C2 1_555 1_555
H3 C3 1_555 1_555
C4 C3 1_555 1_555
C5 H4 1_555 1_555
C6 C5 1_555 1_555
H5 C6 1_555 1_555
C7 C6 1_555 1_555
C8 C7 1_555 1_555
H6 C8 1_555 1_555
C9 C8 1_555 1_555
H7 C9 1_555 1_555
C10 C7 1_555 1_555
C11 C10 1_555 1_555
H8 C11 1_555 1_555
C12 C11 1_555 1_555
H9 C12 1_555 1_555
C13 H10 1_555 1_555
C14 C10 1_555 1_555
H11 C14 1_555 1_555
N1 C5 1_555 1_555
N2 C12 1_555 1_555
O1 C1 1_555 1_555
O2 C1 1_555 1_555
H12 O2 1_555 1_555
O3 C4 1_555 1_555
H13 O3 1_555 1_555
O4 C4 1_555 1_555
C1A C2A 1_555 1_555
C2A H1A 1_555 1_555
H2A C2A 1_555 1_555
C3A C3 1_555 1_555
H3A C3A 1_555 1_555
C4A C3A 1_555 1_555
O1A C1A 1_555 1_555
O2A C1A 1_555 1_555
H12A O2A 1_555 1_555
O3A C4A 1_555 1_555
H13A O3A 1_555 1_555
O4A C4A 1_555 1_555
C9 N1 1_555 1_555
C13 C14 1_555 1_555
C13 N2 1_555 1_555
C2A C3A 1_555 1_555

#END
