
#######################################################################
#
#                 Cambridge Crystallographic Data Centre
#                                CCDC 
#
#######################################################################
#
# If this CIF has been generated from an entry in the Cambridge 
# Structural Database, then it will include bibliographic, chemical, 
# crystal, experimental, refinement or atomic coordinate data resulting 
# from the CCDC's data processing and validation procedures.
#
#######################################################################

data_XOZJEC
_chemical_formula_moiety         'C15 H12 N2 O2'
_chemical_name_systematic        
(E)-3-(2-Hydroxy-3-methoxybenzylideneamino)benzonitrile
_symmetry_cell_setting           monoclinic
_symmetry_space_group_name_H-M   'C c'
_symmetry_Int_Tables_number      9
_space_group_name_Hall           'C -2yc'
loop_
_symmetry_equiv_pos_site_id
_symmetry_equiv_pos_as_xyz
1 x,y,z
2 x,-y,1/2+z
3 1/2+x,1/2+y,z
4 1/2+x,1/2-y,1/2+z
_cell_length_a                   15.476(5)
_cell_length_b                   5.9927(19)
_cell_length_c                   15.413(7)
_cell_angle_alpha                90
_cell_angle_beta                 116.127(3)
_cell_angle_gamma                90
_cell_volume                     1283.39
_exptl_crystal_colour            yellow
_exptl_crystal_description       block
_cell_formula_units_Z            4
loop_
_atom_site_label
_atom_site_type_symbol
_atom_site_fract_x
_atom_site_fract_y
_atom_site_fract_z
N1 N 0.49736(19) 0.0595(4) 0.27600(18)
C1 C 0.3732(2) -0.3128(5) 0.1960(2)
O1 O 0.37225(17) -0.2232(4) 0.27625(16)
H1 H 0.3362 -0.2959 0.2915
C2 C 0.4293(2) -0.2203(5) 0.1547(2)
C3 C 0.3177(2) -0.5039(6) 0.1545(2)
C4 C 0.4899(2) -0.0288(5) 0.1971(2)
H2 H 0.5244 0.0322 0.1664
C5 C 0.4292(3) -0.3209(6) 0.0714(2)
H3 H 0.4662 -0.2602 0.0433
C6 C 0.3194(2) -0.5982(6) 0.0740(2)
H4 H 0.2830 -0.7252 0.0468
O2 O 0.26595(18) -0.5821(4) 0.20096(17)
C7 C 0.5623(2) 0.2388(5) 0.3193(2)
C8 C 0.5989(2) 0.5663(5) 0.4178(2)
C9 C 0.5378(2) 0.3913(5) 0.3722(2)
H5 H 0.4803 0.3758 0.3770
C10 C 0.6857(3) 0.5916(6) 0.4126(3)
H6 H 0.7267 0.7099 0.4434
C11 C 0.3752(2) -0.5055(7) 0.0327(2)
H7 H 0.3754 -0.5709 -0.0219
C12 C 0.2045(3) -0.7693(6) 0.1576(3)
H8 H 0.1716 -0.8094 0.1955
H9 H 0.2425 -0.8933 0.1549
H10 H 0.1583 -0.7309 0.0934
C13 C 0.7098(3) 0.4369(6) 0.3605(2)
H11 H 0.7678 0.4513 0.3565
C14 C 0.6495(2) 0.2616(6) 0.3144(2)
H12 H 0.6670 0.1583 0.2800
C15 C 0.5744(3) 0.7276(6) 0.4731(2)
N2 N 0.5552(3) 0.8546(6) 0.5162(3)
loop_
_geom_bond_atom_site_label_1
_geom_bond_atom_site_label_2
_geom_bond_site_symmetry_1
_geom_bond_site_symmetry_2
N1 C4 1_555 1_555
C1 O1 1_555 1_555
O1 H1 1_555 1_555
C2 C1 1_555 1_555
C3 C1 1_555 1_555
C4 C2 1_555 1_555
H2 C4 1_555 1_555
C5 C2 1_555 1_555
H3 C5 1_555 1_555
C6 C3 1_555 1_555
H4 C6 1_555 1_555
O2 C3 1_555 1_555
C7 N1 1_555 1_555
C8 C9 1_555 1_555
C9 C7 1_555 1_555
H5 C9 1_555 1_555
C10 C8 1_555 1_555
H6 C10 1_555 1_555
C11 C5 1_555 1_555
H7 C11 1_555 1_555
C12 O2 1_555 1_555
H8 C12 1_555 1_555
H9 C12 1_555 1_555
H10 C12 1_555 1_555
C13 C10 1_555 1_555
H11 C13 1_555 1_555
C14 C7 1_555 1_555
H12 C14 1_555 1_555
C15 C8 1_555 1_555
N2 C15 1_555 1_555
C6 C11 1_555 1_555
C13 C14 1_555 1_555

#END
