
#######################################################################
#
#                 Cambridge Crystallographic Data Centre
#                                CCDC 
#
#######################################################################
#
# If this CIF has been generated from an entry in the Cambridge 
# Structural Database, then it will include bibliographic, chemical, 
# crystal, experimental, refinement or atomic coordinate data resulting 
# from the CCDC's data processing and validation procedures.
#
#######################################################################

data_XOZJAZ
_chemical_formula_moiety         'C8 H11 N3 O2 S1'
_chemical_name_systematic        
3-Isopropyl-5-methyl-6-oxo-5,6-dihydro[1,2,3]oxadiazolo[4,5-b][1,4]thiazin-3-ium-7-ide
_symmetry_cell_setting           orthorhombic
_symmetry_space_group_name_H-M   'P 21 21 21'
_symmetry_Int_Tables_number      19
_space_group_name_Hall           'P 2ac 2ab'
loop_
_symmetry_equiv_pos_site_id
_symmetry_equiv_pos_as_xyz
1 x,y,z
2 1/2-x,-y,1/2+z
3 -x,1/2+y,1/2-z
4 1/2+x,1/2-y,-z
_cell_length_a                   6.1696(6)
_cell_length_b                   8.1555(8)
_cell_length_c                   19.6390(19)
_cell_angle_alpha                90
_cell_angle_beta                 90
_cell_angle_gamma                90
_cell_volume                     988.159
_exptl_crystal_colour            yellow
_exptl_crystal_description       plate
_cell_formula_units_Z            4
loop_
_atom_site_label
_atom_site_type_symbol
_atom_site_fract_x
_atom_site_fract_y
_atom_site_fract_z
O1 O 0.5317(2) 0.12512(15) 0.03103(6)
N1 N 0.4981(2) 0.2917(2) 0.02018(7)
N2 N 0.5848(2) 0.36096(17) 0.07438(7)
C1 C 0.6666(3) 0.25581(19) 0.11939(8)
C2 C 0.6341(3) 0.1011(2) 0.09190(9)
N3 N 0.6750(2) -0.04707(18) 0.11339(7)
C3 C 0.8060(3) -0.0580(2) 0.16970(9)
C4 C 0.9332(3) 0.09134(19) 0.19668(10)
H1 H 0.9716 0.0660 0.2450
S1 S 0.78527(8) 0.28638(5) 0.19797(2)
O2 O 0.8408(2) -0.18935(15) 0.19697(8)
C5 C 0.5692(3) 0.5429(2) 0.08239(9)
H2 H 0.6986 0.5812 0.1086
C6 C 0.3679(4) 0.5809(2) 0.12397(12)
H3 H 0.3732 0.5202 0.1670
H4 H 0.2387 0.5482 0.0983
H5 H 0.3619 0.6988 0.1334
C7 C 0.5723(3) 0.6251(2) 0.01337(9)
H6 H 0.6992 0.5878 -0.0123
H7 H 0.5795 0.7443 0.0193
H8 H 0.4401 0.5966 -0.0116
C8 C 1.1469(3) 0.1089(2) 0.15829(10)
H9 H 1.2236 0.0036 0.1584
H10 H 1.2368 0.1922 0.1806
H11 H 1.1178 0.1420 0.1112
loop_
_geom_bond_atom_site_label_1
_geom_bond_atom_site_label_2
_geom_bond_site_symmetry_1
_geom_bond_site_symmetry_2
O1 N1 1_555 1_555
N1 N2 1_555 1_555
N2 C1 1_555 1_555
C1 C2 1_555 1_555
C2 O1 1_555 1_555
N3 C2 1_555 1_555
C3 N3 1_555 1_555
C4 C3 1_555 1_555
H1 C4 1_555 1_555
S1 C1 1_555 1_555
O2 C3 1_555 1_555
C5 N2 1_555 1_555
H2 C5 1_555 1_555
C6 C5 1_555 1_555
H3 C6 1_555 1_555
H4 C6 1_555 1_555
H5 C6 1_555 1_555
C7 C5 1_555 1_555
H6 C7 1_555 1_555
H7 C7 1_555 1_555
H8 C7 1_555 1_555
C8 C4 1_555 1_555
H9 C8 1_555 1_555
H10 C8 1_555 1_555
H11 C8 1_555 1_555
C4 S1 1_555 1_555

#END
