
#######################################################################
#
#                 Cambridge Crystallographic Data Centre
#                                CCDC 
#
#######################################################################
#
# If this CIF has been generated from an entry in the Cambridge 
# Structural Database, then it will include bibliographic, chemical, 
# crystal, experimental, refinement or atomic coordinate data resulting 
# from the CCDC's data processing and validation procedures.
#
#######################################################################

data_XOZLUU
_chemical_formula_moiety         'C15 H16 O5'
_chemical_name_systematic        
3-[(5-Methylfuran-2-yl)methylene]-1,5-dioxaspiro[5.5]undecane-2,4-dione
_symmetry_cell_setting           monoclinic
_symmetry_space_group_name_H-M   'P 21/c'
_symmetry_Int_Tables_number      14
_space_group_name_Hall           '-P 2ybc'
loop_
_symmetry_equiv_pos_site_id
_symmetry_equiv_pos_as_xyz
1 x,y,z
2 -x,1/2+y,1/2-z
3 -x,-y,-z
4 x,1/2-y,1/2+z
_cell_length_a                   19.314(4)
_cell_length_b                   6.8289(14)
_cell_length_c                   20.468(4)
_cell_angle_alpha                90
_cell_angle_beta                 97.04(3)
_cell_angle_gamma                90
_cell_volume                     2679.24
_exptl_crystal_colour            yellow
_exptl_crystal_description       block
_cell_formula_units_Z            8
_exptl_crystal_recrystallization_method 'acetone/petroleum ether'
loop_
_atom_site_label
_atom_site_type_symbol
_atom_site_fract_x
_atom_site_fract_y
_atom_site_fract_z
O1 O 0.77282(7) 0.9079(2) 0.18291(7)
O2 O 0.85666(7) 1.0679(3) 0.38985(7)
O3 O 1.01152(7) 1.0476(3) 0.22791(7)
O4 O 0.97036(7) 1.1039(2) 0.41380(7)
O5 O 1.04784(7) 1.0940(2) 0.33323(7)
C1 C 0.74943(10) 0.9542(4) 0.28658(10)
H1 H 0.7543 0.9805 0.3315
C2 C 0.80226(10) 0.9507(3) 0.24675(9)
C3 C 0.70337(10) 0.8848(3) 0.18383(10)
C4 C 0.68697(10) 0.9107(4) 0.24655(11)
H2 H 0.6428 0.9012 0.2600
C5 C 0.87528(10) 0.9763(3) 0.25215(9)
H3 H 0.8931 0.9559 0.2125
C6 C 0.91304(10) 1.0628(3) 0.37011(10)
C7 C 0.92562(10) 1.0240(3) 0.30207(9)
C8 C 0.99672(10) 1.0523(4) 0.28365(10)
C9 C 1.03783(10) 1.0380(3) 0.39939(9)
C10 C 1.16592(10) 1.0837(4) 0.43581(10)
H4 H 1.1762 1.1199 0.3922
H5 H 1.1991 1.1501 0.4677
C11 C 1.17412(10) 0.8647(4) 0.44459(10)
H6 H 1.1698 0.8308 0.4899
H7 H 1.2203 0.8263 0.4355
C12 C 1.11918(10) 0.7519(4) 0.39880(10)
H8 H 1.1237 0.6130 0.4082
H9 H 1.1273 0.7724 0.3534
C13 C 1.04505(10) 0.8192(4) 0.40769(10)
H10 H 1.0117 0.7541 0.3755
H11 H 1.0346 0.7824 0.4512
C14 C 1.09154(10) 1.1511(4) 0.44459(10)
H12 H 1.0834 1.1312 0.4899
H13 H 1.0868 1.2899 0.4349
C15 C 0.66067(11) 0.8365(4) 0.12100(11)
H14 H 0.6659 0.9375 0.0893
H15 H 0.6125 0.8269 0.1280
H16 H 0.6758 0.7137 0.1049
O6 O 0.72619(7) 0.4699(2) 0.32748(7)
O7 O 0.65167(7) 0.3142(3) 0.11772(7)
O8 O 0.48850(7) 0.3305(3) 0.27231(7)
O9 O 0.53852(7) 0.2773(3) 0.08899(7)
O10 O 0.45715(7) 0.2830(3) 0.16647(7)
C16 C 0.81544(10) 0.4690(4) 0.26779(11)
H17 H 0.8604 0.4789 0.2562
C17 C 0.75465(10) 0.4255(4) 0.22541(11)
H18 H 0.7519 0.3999 0.1805
C18 C 0.79632(10) 0.4941(4) 0.32922(11)
C19 C 0.69981(10) 0.4275(3) 0.26259(10)
C20 C 0.62670(10) 0.4016(3) 0.25433(10)
H19 H 0.6071 0.4197 0.2932
C21 C 0.50626(10) 0.3260(4) 0.21756(10)
C22 C 0.57830(10) 0.3558(3) 0.20207(10)
C23 C 0.59395(10) 0.3186(4) 0.13503(10)
C24 C 0.46957(10) 0.3378(4) 0.10066(10)
C25 C 0.34343(11) 0.2776(4) 0.06026(11)
H20 H 0.3122 0.2052 0.0282
H21 H 0.3319 0.2447 0.1037
C26 C 0.41892(11) 0.2164(4) 0.05488(11)
H22 H 0.4249 0.0789 0.0661
H23 H 0.4288 0.2335 0.0099
C27 C 0.45988(10) 0.5554(4) 0.09071(10)
H24 H 0.4725 0.5916 0.0479
H25 H 0.4905 0.6249 0.1240
C28 C 0.38411(10) 0.6153(4) 0.09512(10)
H26 H 0.3738 0.5974 0.1399
H27 H 0.3783 0.7530 0.0842
C29 C 0.33275(11) 0.4947(4) 0.04849(10)
H28 H 0.2854 0.5296 0.0550
H29 H 0.3390 0.5252 0.0033
C30 C 0.83547(11) 0.5452(4) 0.39357(12)
H30 H 0.8248 0.4525 0.4262
H31 H 0.8225 0.6742 0.4061
H32 H 0.8846 0.5421 0.3902
loop_
_geom_bond_atom_site_label_1
_geom_bond_atom_site_label_2
_geom_bond_site_symmetry_1
_geom_bond_site_symmetry_2
O1 C2 1_555 1_555
O2 C6 1_555 1_555
O3 C8 1_555 1_555
O4 C6 1_555 1_555
O5 C8 1_555 1_555
C1 H1 1_555 1_555
C2 C1 1_555 1_555
C3 O1 1_555 1_555
C4 C1 1_555 1_555
H2 C4 1_555 1_555
C5 C2 1_555 1_555
H3 C5 1_555 1_555
C6 C7 1_555 1_555
C7 C5 1_555 1_555
C8 C7 1_555 1_555
C9 O4 1_555 1_555
C10 H4 1_555 1_555
H5 C10 1_555 1_555
C11 C10 1_555 1_555
H6 C11 1_555 1_555
H7 C11 1_555 1_555
C12 C11 1_555 1_555
H8 C12 1_555 1_555
H9 C12 1_555 1_555
C13 C9 1_555 1_555
H10 C13 1_555 1_555
H11 C13 1_555 1_555
C14 C9 1_555 1_555
H12 C14 1_555 1_555
H13 C14 1_555 1_555
C15 C3 1_555 1_555
H14 C15 1_555 1_555
H15 C15 1_555 1_555
H16 C15 1_555 1_555
O6 C18 1_555 1_555
O7 C23 1_555 1_555
O8 C21 1_555 1_555
O9 C23 1_555 1_555
O10 C21 1_555 1_555
C16 H17 1_555 1_555
C17 C16 1_555 1_555
H18 C17 1_555 1_555
C18 C16 1_555 1_555
C19 O6 1_555 1_555
C20 C19 1_555 1_555
H19 C20 1_555 1_555
C21 C22 1_555 1_555
C22 C20 1_555 1_555
C23 C22 1_555 1_555
C24 O9 1_555 1_555
C25 H20 1_555 1_555
H21 C25 1_555 1_555
C26 C24 1_555 1_555
H22 C26 1_555 1_555
H23 C26 1_555 1_555
C27 C24 1_555 1_555
H24 C27 1_555 1_555
H25 C27 1_555 1_555
C28 C27 1_555 1_555
H26 C28 1_555 1_555
H27 C28 1_555 1_555
C29 C25 1_555 1_555
H28 C29 1_555 1_555
H29 C29 1_555 1_555
C30 C18 1_555 1_555
H30 C30 1_555 1_555
H31 C30 1_555 1_555
H32 C30 1_555 1_555
O5 C9 1_555 1_555
C3 C4 1_555 1_555
C10 C14 1_555 1_555
C12 C13 1_555 1_555
O10 C24 1_555 1_555
C17 C19 1_555 1_555
C25 C26 1_555 1_555
C28 C29 1_555 1_555

#END
