
#######################################################################
#
#                 Cambridge Crystallographic Data Centre
#                                CCDC 
#
#######################################################################
#
# If this CIF has been generated from an entry in the Cambridge 
# Structural Database, then it will include bibliographic, chemical, 
# crystal, experimental, refinement or atomic coordinate data resulting 
# from the CCDC's data processing and validation procedures.
#
#######################################################################

data_XOZMOQ
_chemical_formula_moiety         'C20 H21 N3 O1'
_chemical_name_systematic        
4-(((2,4-Dimethylphenyl)amino)methylene)-5-methyl-2-(4-methylphenyl)-2,4-dihydro-3H-pyrazol-3-one
_symmetry_cell_setting           triclinic
_symmetry_space_group_name_H-M   'P -1'
_symmetry_Int_Tables_number      2
_space_group_name_Hall           '-P 1'
loop_
_symmetry_equiv_pos_site_id
_symmetry_equiv_pos_as_xyz
1 x,y,z
2 -x,-y,-z
_cell_length_a                   8.2144(9)
_cell_length_b                   10.4330(10)
_cell_length_c                   11.5760(11)
_cell_angle_alpha                105.905(8)
_cell_angle_beta                 93.814(8)
_cell_angle_gamma                112.945(9)
_cell_volume                     861.609
_exptl_crystal_colour            white
_exptl_crystal_description       block
_cell_formula_units_Z            2
loop_
_atom_site_label
_atom_site_type_symbol
_atom_site_fract_x
_atom_site_fract_y
_atom_site_fract_z
N1 N 1.0275(4) 1.1640(3) 0.7212(3)
N2 N 1.1119(4) 1.0692(3) 0.7205(3)
C1 C 1.0074(4) 0.9290(4) 0.6425(3)
O1 O 1.0463(3) 0.8224(3) 0.6209(2)
C2 C 0.8458(5) 0.9353(4) 0.5919(3)
C3 C 0.8734(5) 1.0841(4) 0.6458(4)
C4 C 1.2861(5) 1.1273(4) 0.7926(3)
C5 C 1.3632(5) 1.0356(4) 0.8102(4)
H1 H 1.3020 0.9341 0.7737
C6 C 1.5327(6) 1.0976(5) 0.8831(4)
H2 H 1.5824 1.0350 0.8953
C7 C 1.6303(5) 1.2443(5) 0.9375(4)
C8 C 1.5513(6) 1.3327(5) 0.9190(4)
H3 H 1.6141 1.4341 0.9553
C9 C 1.3816(5) 1.2764(4) 0.8484(4)
H4 H 1.3317 1.3398 0.8386
C10 C 1.8184(6) 1.3065(6) 1.0131(5)
H5 H 1.8188 1.2510 1.0669
H6 H 1.8541 1.4077 1.0607
H7 H 1.9014 1.3003 0.9596
C11 C 0.7488(5) 1.1515(4) 0.6223(4)
H8 H 0.7971 1.2517 0.6754
H9 H 0.6327 1.0969 0.6377
H10 H 0.7369 1.1489 0.5385
C12 C 0.7079(5) 0.8171(4) 0.5079(3)
H11 H 0.6089 0.8291 0.4778
N3 N 0.7089(4) 0.6865(3) 0.4676(3)
H12 H 0.8027 0.6801 0.4980
C13 C 0.5774(4) 0.5559(4) 0.3816(3)
C14 C 0.6225(5) 0.4416(4) 0.3314(4)
C15 C 0.4923(5) 0.3144(4) 0.2454(4)
H13 H 0.5224 0.2371 0.2105
C16 C 0.3181(5) 0.2978(4) 0.2091(3)
C17 C 0.2778(5) 0.4129(4) 0.2642(4)
H14 H 0.1622 0.4046 0.2425
C18 C 0.4022(5) 0.5395(4) 0.3500(4)
H15 H 0.3697 0.6147 0.3873
C19 C 0.1826(5) 0.1584(5) 0.1131(4)
H16 H 0.2372 0.0919 0.0864
H17 H 0.1440 0.1817 0.0446
H18 H 0.0805 0.1130 0.1472
C20 C 0.8116(5) 0.4559(4) 0.3667(4)
H19 H 0.8186 0.3660 0.3235
H20 H 0.8393 0.4749 0.4533
H21 H 0.8966 0.5357 0.3456
loop_
_geom_bond_atom_site_label_1
_geom_bond_atom_site_label_2
_geom_bond_site_symmetry_1
_geom_bond_site_symmetry_2
N1 N2 1_555 1_555
N2 C1 1_555 1_555
C1 O1 1_555 1_555
C2 C1 1_555 1_555
C3 N1 1_555 1_555
C4 N2 1_555 1_555
C5 C4 1_555 1_555
H1 C5 1_555 1_555
C6 C5 1_555 1_555
H2 C6 1_555 1_555
C7 C6 1_555 1_555
C8 C7 1_555 1_555
H3 C8 1_555 1_555
C9 C4 1_555 1_555
H4 C9 1_555 1_555
C10 C7 1_555 1_555
H5 C10 1_555 1_555
H6 C10 1_555 1_555
H7 C10 1_555 1_555
C11 C3 1_555 1_555
H8 C11 1_555 1_555
H9 C11 1_555 1_555
H10 C11 1_555 1_555
C12 C2 1_555 1_555
H11 C12 1_555 1_555
N3 C12 1_555 1_555
H12 N3 1_555 1_555
C13 N3 1_555 1_555
C14 C13 1_555 1_555
C15 C14 1_555 1_555
H13 C15 1_555 1_555
C16 C15 1_555 1_555
C17 C16 1_555 1_555
H14 C17 1_555 1_555
C18 C13 1_555 1_555
H15 C18 1_555 1_555
C19 C16 1_555 1_555
H16 C19 1_555 1_555
H17 C19 1_555 1_555
H18 C19 1_555 1_555
C20 C14 1_555 1_555
H19 C20 1_555 1_555
H20 C20 1_555 1_555
H21 C20 1_555 1_555
C2 C3 1_555 1_555
C8 C9 1_555 1_555
C17 C18 1_555 1_555

#END
