
#######################################################################
#
#                 Cambridge Crystallographic Data Centre
#                                CCDC 
#
#######################################################################
#
# If this CIF has been generated from an entry in the Cambridge 
# Structural Database, then it will include bibliographic, chemical, 
# crystal, experimental, refinement or atomic coordinate data resulting 
# from the CCDC's data processing and validation procedures.
#
#######################################################################

data_XOZWEP
_chemical_formula_moiety         
'0.6(C15 H16 N1 1+),0.2(C30 H32 N2 2+),Cl1 O4 1-,0.5(C6 H6)'
_chemical_name_systematic        
'1-Phenyl-2-(1-ethylpyridinium-4-yl)ethylene 1,3-diphenyl-2,4-bis(1-ethypyridinium-4-yl)cyclobutane perchlorate benzene solvate'
_symmetry_cell_setting           triclinic
_symmetry_space_group_name_H-M   'P -1'
_symmetry_Int_Tables_number      2
_space_group_name_Hall           '-P 1'
loop_
_symmetry_equiv_pos_site_id
_symmetry_equiv_pos_as_xyz
1 x,y,z
2 -x,-y,-z
_cell_length_a                   8.4660(15)
_cell_length_b                   10.3519(18)
_cell_length_c                   10.7538(18)
_cell_angle_alpha                93.243(4)
_cell_angle_beta                 105.535(3)
_cell_angle_gamma                111.116(3)
_cell_volume                     834.68
_exptl_crystal_colour            yellowish
_exptl_crystal_description       block
_cell_formula_units_Z            2
_exptl_crystal_preparation       'irradiated product'
loop_
_atom_site_label
_atom_site_type_symbol
_atom_site_fract_x
_atom_site_fract_y
_atom_site_fract_z
N1 N -0.2134(6) 1.0753(5) 0.6971(4)
C1 C -0.3013(10) 1.0426(6) 0.7850(5)
H1 H -0.3549 0.9466 0.7925
C2 C -0.3162(10) 1.1402(8) 0.8626(8)
H2 H -0.3780 1.1126 0.9247
C3 C -0.2422(10) 1.2819(8) 0.8535(6)
C4 C -0.1650(9) 1.3146(8) 0.7539(7)
H3 H -0.1267 1.4080 0.7363
C5 C -0.1438(10) 1.2091(8) 0.6793(7)
H4 H -0.0811 1.2323 0.6172
C6 C -0.2715(7) 1.3850(7) 0.9342(5)
H5 H -0.3431 1.3507 0.9890
C7 C -0.2049(7) 1.5231(5) 0.9361(4)
H6 H -0.1328 1.5581 0.8818
C8 C -0.2366(7) 1.6255(5) 1.0178(4)
C9 C -0.1749(7) 1.7639(5) 0.9972(4)
H7 H -0.1225 1.7885 0.9296
C10 C -0.1913(16) 1.8660(10) 1.0765(12)
H8 H -0.1512 1.9602 1.0612
C11 C -0.264(2) 1.8343(13) 1.1765(13)
H9 H -0.2734 1.9049 1.2311
C12 C -0.3230(19) 1.6969(14) 1.1943(11)
H10 H -0.3734 1.6722 1.2629
C13 C -0.3108(17) 1.5944(10) 1.1156(13)
H11 H -0.3550 1.4999 1.1296
C14 C -0.1969(10) 0.9624(8) 0.6179(7)
H12 H -0.1745 0.8942 0.6739
H13 H -0.0934 1.0034 0.5856
C15 C -0.3616(9) 0.8866(7) 0.5030(6)
H14 H -0.3448 0.8133 0.4527
H15 H -0.3835 0.9535 0.4467
H16 H -0.4638 0.8436 0.5347
C39 C -0.6543(6) 0.4990(5) 0.5194(4)
C40 C -0.4941(6) 0.5686(5) 0.6158(4)
C41 C -0.6604(6) 0.4308(5) 0.4043(4)
H40 H -0.757(5) 0.498(4) 0.523(4)
H41 H -0.498(6) 0.618(5) 0.687(4)
H42 H -0.756(7) 0.387(5) 0.344(5)
C39A C -0.3457(6) 0.5010(5) 0.4806(4)
C40A C -0.5059(6) 0.4314(5) 0.3842(4)
C41A C -0.3396(6) 0.5692(5) 0.5957(4)
H40A H -0.243(5) 0.502(4) 0.477(4)
H41A H -0.502(6) 0.382(5) 0.313(4)
H42A H -0.244(7) 0.613(5) 0.656(5)
Cl1 Cl 0.20154(13) 0.76098(10) 0.73540(9)
O1 O 0.1088(4) 0.6159(3) 0.6818(3)
O2 O 0.3763(4) 0.7833(4) 0.8225(3)
O3 O 0.1071(4) 0.8011(4) 0.8115(3)
O4 O 0.2243(7) 0.8444(4) 0.6380(4)
N2? N -0.2965(9) 1.0653(7) 0.6623(6)
C16? C -0.3378(9) 1.0512(7) 0.7789(6)
H17? H -0.3913 0.9624 0.8023
C17? C -0.293(3) 1.183(3) 0.862(3)
H18? H -0.3246 1.1817 0.9400
C18? C -0.207(3) 1.305(2) 0.829(2)
C19? C -0.141(3) 1.310(3) 0.725(2)
H19? H -0.0499 1.3910 0.7137
C20? C -0.216(3) 1.196(2) 0.645(2)
H20? H -0.2138 1.2045 0.5580
C21? C -0.1238(17) 1.4035(15) 0.9750(14)
H21? H -0.1988 1.3719 1.0339
C22? C -0.081(2) 1.5567(16) 0.9569(13)
H22? H -0.1039 1.5635 0.8618
C23? C -0.1772(17) 1.6364(13) 1.0205(12)
C24? C -0.138(2) 1.7708(16) 0.9899(14)
H23? H -0.0879 1.7955 0.9213
C25? C -0.173(3) 1.8691(14) 1.060(2)
H24? H -0.1464 1.9609 1.0388
C26? C -0.247(3) 1.8329(19) 1.160(2)
H25? H -0.2704 1.9001 1.2078
C27? C -0.286(3) 1.699(2) 1.1907(16)
H26? H -0.3360 1.6738 1.2593
C28? C -0.251(2) 1.6003(15) 1.1209(15)
H27? H -0.2775 1.5084 1.1418
C29? C -0.332(3) 0.941(2) 0.561(2)
H28? H -0.4177 0.8540 0.5774
H29? H -0.3853 0.9562 0.4721
C30? C -0.168(3) 0.923(2) 0.567(2)
H30? H -0.1927 0.8443 0.5008
H31? H -0.1179 0.9049 0.6545
H32? H -0.0836 1.0095 0.5516
C31? C -0.191(3) 1.446(3) 0.880(2)
H33? H -0.1179 1.5230 0.8715
C32? C -0.260(4) 1.469(4) 0.973(3)
H34? H -0.3480 1.3890 0.9874
C33? C -0.216(4) 1.602(3) 1.054(3)
C34? C -0.164(4) 1.722(3) 0.998(3)
H35? H -0.1065 1.7246 0.9332
C35? C -0.196(4) 1.838(3) 1.037(3)
H36? H -0.1599 1.9203 0.9989
C36? C -0.280(5) 1.835(3) 1.133(3)
H37? H -0.3014 1.9143 1.1593
C37? C -0.332(6) 1.715(4) 1.189(3)
H38? H -0.3894 1.7126 1.2539
C38? C -0.300(6) 1.599(3) 1.150(3)
H39? H -0.3360 1.5169 1.1881
loop_
_geom_bond_atom_site_label_1
_geom_bond_atom_site_label_2
_geom_bond_site_symmetry_1
_geom_bond_site_symmetry_2
Cl1 O1 1_555 1_555
O2 Cl1 1_555 1_555
O3 Cl1 1_555 1_555
O4 Cl1 1_555 1_555
N1 C1 1_555 1_555
C1 H1 1_555 1_555
C2 C1 1_555 1_555
H2 C2 1_555 1_555
C3 C2 1_555 1_555
C4 C3 1_555 1_555
H3 C4 1_555 1_555
C5 N1 1_555 1_555
H4 C5 1_555 1_555
C6 C3 1_555 1_555
H5 C6 1_555 1_555
C7 C6 1_555 1_555
H6 C7 1_555 1_555
C8 C7 1_555 1_555
C9 C8 1_555 1_555
H7 C9 1_555 1_555
C10 C9 1_555 1_555
H8 C10 1_555 1_555
C11 C10 1_555 1_555
H9 C11 1_555 1_555
C12 C11 1_555 1_555
H10 C12 1_555 1_555
C13 C8 1_555 1_555
H11 C13 1_555 1_555
C14 N1 1_555 1_555
H12 C14 1_555 1_555
H13 C14 1_555 1_555
C15 C14 1_555 1_555
H14 C15 1_555 1_555
H15 C15 1_555 1_555
H16 C15 1_555 1_555
C39 C40 1_555 1_555
C40 H41 1_555 1_555
C41 C39 1_555 1_555
H40 C39 1_555 1_555
H42 C41 1_555 1_555
C39A C40A 1_555 1_555
C40A C41 1_555 1_555
C41A C40 1_555 1_555
H40A C39A 1_555 1_555
H41A C40A 1_555 1_555
H42A C41A 1_555 1_555
C4 C5 1_555 1_555
C12 C13 1_555 1_555
C39A C41A 1_555 1_555

#END
