
#######################################################################
#
#                 Cambridge Crystallographic Data Centre
#                                CCDC 
#
#######################################################################
#
# If this CIF has been generated from an entry in the Cambridge 
# Structural Database, then it will include bibliographic, chemical, 
# crystal, experimental, refinement or atomic coordinate data resulting 
# from the CCDC's data processing and validation procedures.
#
#######################################################################

data_XUBCOM
_chemical_formula_moiety         'C96 H114 N6 O14 Si2,4(H2 O1)'
_chemical_name_systematic        
'5,17-bis((2-(1-(5-Methyl-3H-pyrimidine-2,4-dione))-5-(t-butyldiphenylsiloxymethyl)-tetrahydrofuran-4-yl)methylcarboxamido)-25,26,27,28-tetrakis(propoxy)calix[4]arene tetrahydrate'
_symmetry_cell_setting           monoclinic
_symmetry_space_group_name_H-M   'P 21'
_symmetry_Int_Tables_number      4
_space_group_name_Hall           'P 2yb'
loop_
_symmetry_equiv_pos_site_id
_symmetry_equiv_pos_as_xyz
1 x,y,z
2 -x,1/2+y,-z
_cell_length_a                   14.36670(10)
_cell_length_b                   19.87010(10)
_cell_length_c                   18.0957(2)
_cell_angle_alpha                90
_cell_angle_beta                 103.9570(10)
_cell_angle_gamma                90
_cell_volume                     5013.23
_exptl_crystal_colour            colorless
_exptl_crystal_description       plate
_chemical_melting_point          '222.4-223.7 deg.C'
_cell_formula_units_Z            2
_exptl_crystal_recrystallization_method methanol
loop_
_atom_site_label
_atom_site_type_symbol
_atom_site_fract_x
_atom_site_fract_y
_atom_site_fract_z
Si1 Si -0.4054(2) 0.42144(15) -0.19802(15)
Si2 Si -0.21720(19) -0.00020(13) -0.17671(14)
O1 O -0.1181(4) 0.3693(3) 0.1073(3)
O2 O -0.1186(5) 0.3509(3) -0.1691(3)
O3 O -0.3096(5) 0.3845(3) -0.1454(3)
O4 O 0.1545(5) 0.3996(3) -0.1380(5)
O5 O 0.0983(5) 0.6209(3) -0.1108(4)
O6 O -0.3069(4) 0.0646(3) 0.1284(4)
O7 O -0.4893(4) 0.0817(3) -0.1514(3)
O8 O -0.2923(5) 0.0374(3) -0.1337(4)
O9 O -0.7349(4) 0.0316(3) -0.1050(4)
O10 O -0.6650(5) -0.1906(3) -0.1003(4)
O11 O 0.0901(7) 0.2956(5) 0.4585(4)
O12 O -0.1380(5) 0.3114(4) 0.4481(4)
O13 O -0.2616(6) 0.1688(4) 0.4798(4)
O14 O -0.0489(7) 0.1497(4) 0.4550(5)
N1 N -0.0800(5) 0.2610(3) 0.1472(3)
N2 N 0.0041(5) 0.4297(3) -0.1295(4)
N3 N 0.1233(6) 0.5102(4) -0.1253(4)
N4 N -0.3217(5) 0.1741(3) 0.1613(4)
N5 N -0.5797(5) 0.0006(3) -0.1067(4)
N6 N -0.6973(5) -0.0802(3) -0.1037(4)
C1 C 0.0442(8) 0.2889(6) 0.3818(5)
C2 C -0.0098(7) 0.3388(5) 0.3423(5)
C3 C -0.0332(8) 0.4022(5) 0.3828(5)
H1 H -0.0041 0.3992 0.4381
H2 H -0.0077 0.4427 0.3625
C4 C -0.1432(9) 0.4064(5) 0.3678(5)
C5 C -0.1918(7) 0.3572(5) 0.3979(5)
C6 C -0.2907(9) 0.3498(5) 0.3763(5)
C7 C -0.3384(8) 0.2906(5) 0.3977(5)
H3 H -0.4086 0.2979 0.3828
H4 H -0.3194 0.2855 0.4537
C8 C -0.3149(7) 0.2260(6) 0.3610(5)
C9 C -0.2782(8) 0.1680(5) 0.4002(6)
C10 C -0.2524(9) 0.1141(6) 0.3627(6)
C11 C -0.1933(10) 0.0542(6) 0.4062(7)
H5 H -0.1856 0.0601 0.4617
H6 H -0.2281 0.0115 0.3909
C12 C -0.0932(12) 0.0510(7) 0.3882(6)
C13 C -0.0299(11) 0.1011(6) 0.4093(7)
C14 C 0.0518(10) 0.1063(7) 0.3789(6)
C15 C 0.1091(9) 0.1679(7) 0.3891(7)
H7 H 0.1679 0.1600 0.3709
H8 H 0.1289 0.1788 0.4440
C16 C 0.0557(7) 0.2266(6) 0.3470(5)
C17 C -0.0520(6) 0.3328(4) 0.2637(4)
H9 H -0.0879 0.3689 0.2363
C18 C -0.0401(6) 0.2729(4) 0.2270(4)
C19 C 0.0102(7) 0.2198(5) 0.2684(5)
H10 H 0.0142 0.1781 0.2436
C20 C -0.1984(11) 0.4538(5) 0.3187(6)
H11 H -0.1670 0.4882 0.2975
C21 C -0.2982(10) 0.4517(6) 0.3002(6)
H12 H -0.3344 0.4859 0.2695
C22 C -0.3450(9) 0.3984(6) 0.3275(6)
H13 H -0.4130 0.3951 0.3131
C23 C -0.3294(6) 0.2255(5) 0.2797(6)
H14 H -0.3558 0.2641 0.2512
C24 C -0.3056(7) 0.1694(5) 0.2421(5)
C25 C -0.2672(7) 0.1143(5) 0.2840(6)
H15 H -0.2506 0.0757 0.2589
C26 C -0.0785(11) -0.0035(6) 0.3403(6)
H16 H -0.1236 -0.0397 0.3264
C27 C 0.0056(12) 0.0000(8) 0.3156(6)
H17 H 0.0198 -0.0357 0.2851
C28 C 0.0722(11) 0.0549(7) 0.3341(6)
H18 H 0.1289 0.0558 0.3158
C29 C -0.1150(5) 0.3085(4) 0.0939(4)
C30 C -0.1539(6) 0.2826(4) 0.0136(4)
H19 H -0.2243 0.2772 0.0040
H20 H -0.1259 0.2379 0.0085
C31 C -0.1309(6) 0.3303(4) -0.0459(4)
H21 H -0.1566 0.3758 -0.0379
C32 C -0.0248(6) 0.3378(5) -0.0429(5)
H22 H 0.0096 0.2947 -0.0298
H23 H 0.0053 0.3725 -0.0053
C33 C -0.0255(7) 0.3599(4) -0.1247(5)
H24 H 0.0189 0.3301 -0.1447
C34 C -0.1709(6) 0.3111(4) -0.1262(4)
H25 H -0.1540 0.2628 -0.1318
C35 C 0.0967(7) 0.4430(4) -0.1322(5)
C36 C 0.0653(7) 0.5651(4) -0.1194(5)
C37 C -0.0357(7) 0.5463(4) -0.1233(5)
C38 C -0.0588(7) 0.4819(5) -0.1254(5)
H26 H -0.1226 0.4704 -0.1241
C39 C -0.1042(8) 0.6024(6) -0.1234(8)
H27 H -0.1682 0.5841 -0.1260
H28 H -0.1065 0.6313 -0.1678
H29 H -0.0830 0.6289 -0.0767
C40 C -0.2783(7) 0.3189(5) -0.1602(6)
H30 H -0.2925 0.3112 -0.2159
H31 H -0.3137 0.2847 -0.1379
C41 C -0.3940(8) 0.5105(6) -0.1660(6)
C42 C -0.3329(8) 0.5303(5) -0.0956(6)
H32 H -0.2958 0.4969 -0.0641
C43 C -0.3253(9) 0.5955(7) -0.0714(9)
H33 H -0.2862 0.6072 -0.0229
C44 C -0.3762(11) 0.6445(6) -0.1197(12)
H34 H -0.3686 0.6906 -0.1055
C45 C -0.4379(13) 0.6266(8) -0.1883(13)
H35 H -0.4756 0.6594 -0.2202
C46 C -0.4424(10) 0.5607(7) -0.2083(9)
H36 H -0.4832 0.5490 -0.2561
C47 C -0.3954(10) 0.4144(7) -0.2993(7)
C48 C -0.3125(12) 0.4370(9) -0.3150(7)
H37 H -0.2636 0.4544 -0.2744
C49 C -0.2966(15) 0.4355(10) -0.3883(8)
H38 H -0.2382 0.4522 -0.3970
C50 C -0.3669(16) 0.4095(10) -0.4484(8)
H39 H -0.3588 0.4088 -0.4990
C51 C -0.4461(17) 0.3855(11) -0.4314(8)
H40 H -0.4949 0.3676 -0.4717
C52 C -0.4617(14) 0.3852(9) -0.3590(7)
H41 H -0.5179 0.3649 -0.3502
C53 C -0.5182(9) 0.3848(6) -0.1771(7)
C54 C -0.6048(10) 0.4218(8) -0.2191(9)
H42 H -0.6620 0.4024 -0.2070
H43 H -0.6102 0.4182 -0.2740
H44 H -0.5993 0.4693 -0.2040
C55 C -0.5322(10) 0.3103(8) -0.2024(10)
H45 H -0.5911 0.2929 -0.1912
H46 H -0.4773 0.2838 -0.1749
H47 H -0.5371 0.3072 -0.2573
C56 C -0.5129(13) 0.3897(11) -0.0927(8)
H48 H -0.5717 0.3712 -0.0823
H49 H -0.5060 0.4369 -0.0768
H50 H -0.4575 0.3640 -0.0642
C57 C -0.3201(6) 0.1246(4) 0.1102(5)
C58 C -0.3326(6) 0.1472(4) 0.0282(5)
H51 H -0.3638 0.1920 0.0213
H52 H -0.2689 0.1516 0.0168
C59 C -0.3919(5) 0.0985(4) -0.0260(5)
H53 H -0.3626 0.0526 -0.0180
C60 C -0.4987(6) 0.0952(5) -0.0235(6)
H54 H -0.5082 0.0627 0.0155
H55 H -0.5220 0.1400 -0.0120
C61 C -0.5500(7) 0.0723(5) -0.1021(5)
H56 H -0.6084 0.1009 -0.1201
C62 C -0.4072(6) 0.1195(5) -0.1110(5)
H57 H -0.4229 0.1686 -0.1159
C63 C -0.6761(6) -0.0133(5) -0.1053(5)
C64 C -0.6364(6) -0.1333(4) -0.1051(5)
C65 C -0.5419(6) -0.1144(5) -0.1125(5)
C66 C -0.5186(6) -0.0498(5) -0.1114(6)
H58 H -0.4553 -0.0383 -0.1140
C67 C -0.4720(7) -0.1707(6) -0.1189(8)
H59 H -0.4110 -0.1512 -0.1234
H60 H -0.4991 -0.1980 -0.1641
H61 H -0.4611 -0.1991 -0.0734
C68 C -0.3234(7) 0.1054(4) -0.1474(6)
H62 H -0.3437 0.1136 -0.2029
H63 H -0.2696 0.1363 -0.1257
C69 C -0.2049(7) -0.0858(5) -0.1329(6)
C70 C -0.2261(7) -0.0978(5) -0.0631(5)
H64 H -0.2442 -0.0610 -0.0360
C71 C -0.2217(8) -0.1617(6) -0.0315(7)
H65 H -0.2367 -0.1684 0.0163
C72 C -0.1950(7) -0.2157(6) -0.0707(7)
H66 H -0.1944 -0.2601 -0.0511
C73 C -0.1694(9) -0.2044(5) -0.1381(7)
H67 H -0.1482 -0.2410 -0.1638
C74 C -0.1742(8) -0.1402(5) -0.1691(6)
H68 H -0.1561 -0.1333 -0.2157
C75 C -0.2786(7) -0.0070(5) -0.2797(5)
C76 C -0.3769(9) -0.0119(6) -0.2994(6)
H69 H -0.4103 -0.0094 -0.2601
C77 C -0.4299(12) -0.0203(8) -0.3734(8)
H70 H -0.4978 -0.0239 -0.3840
C78 C -0.3843(14) -0.0234(8) -0.4309(9)
H71 H -0.4200 -0.0266 -0.4824
C79 C -0.2787(13) -0.0217(8) -0.4124(7)
H72 H -0.2449 -0.0262 -0.4512
C80 C -0.2312(10) -0.0135(7) -0.3394(6)
H73 H -0.1631 -0.0120 -0.3274
C81 C -0.0999(7) 0.0456(5) -0.1594(5)
C82 C -0.0216(8) 0.0007(7) -0.1787(7)
H74 H 0.0390 0.0256 -0.1690
H75 H -0.0406 -0.0122 -0.2325
H76 H -0.0133 -0.0398 -0.1469
C83 C -0.1048(8) 0.1111(6) -0.2028(7)
H77 H -0.0413 0.1323 -0.1911
H78 H -0.1509 0.1414 -0.1878
H79 H -0.1253 0.1022 -0.2576
C84 C -0.0679(9) 0.0624(7) -0.0742(7)
H80 H -0.0064 0.0863 -0.0639
H81 H -0.0607 0.0207 -0.0444
H82 H -0.1163 0.0910 -0.0598
C85 C 0.1837(10) 0.3239(12) 0.4706(9)
H83 H 0.1834 0.3617 0.4350
H84 H 0.2295 0.2894 0.4616
C86 C 0.2135(18) 0.3489(18) 0.5530(10)
H85 H 0.2669 0.3810 0.5561
H86 H 0.1589 0.3749 0.5627
C87 C 0.238(3) 0.310(3) 0.6036(18)
H87 H 0.2534 0.3351 0.6520
H88 H 0.2941 0.2856 0.5975
H89 H 0.1852 0.2789 0.6036
C88 C -0.1299(13) 0.3217(12) 0.5248(7)
C89 C -0.059(3) 0.3375(17) 0.5723(16)
C91 C -0.0554(14) 0.3151(9) 0.6609(7)
C92 C -0.3449(11) 0.1546(9) 0.5061(7)
H90 H -0.3660 0.1077 0.4934
H91 H -0.3977 0.1852 0.4816
C93 C -0.3191(15) 0.165(2) 0.5933(9)
H92 H -0.3380 0.1234 0.6129
H93 H -0.2503 0.1648 0.6072
C94 C -0.341(4) 0.2068(18) 0.6321(16)
H94 H -0.3115 0.1968 0.6857
H95 H -0.4108 0.2078 0.6239
H96 H -0.3182 0.2507 0.6189
C95 C 0.014(3) 0.1518(16) 0.5273(9)
C96 C -0.0176(15) 0.1102(11) 0.5707(13)
C98 C 0.0619(13) 0.1158(10) 0.6645(9)
O15 O 0.1290(6) 0.1960(5) 0.8763(6)
O16 O 0.3248(5) 0.2276(4) 0.9138(4)
O17 O -0.6824(16) 0.0838(12) -0.4434(13)
O18 O 0.2178(13) 0.2398(10) 0.7599(10)
O19 O -0.6005(17) 0.1275(12) -0.3252(13)
C90? C -0.072(2) 0.2834(18) 0.5817(14)
C97? C 0.056(3) 0.1259(18) 0.583(2)
loop_
_geom_bond_atom_site_label_1
_geom_bond_atom_site_label_2
_geom_bond_site_symmetry_1
_geom_bond_site_symmetry_2
Si1 O3 1_555 1_555
Si2 O8 1_555 1_555
O1 C29 1_555 1_555
O2 C33 1_555 1_555
O3 C40 1_555 1_555
O4 C35 1_555 1_555
O5 C36 1_555 1_555
O6 C57 1_555 1_555
O7 C61 1_555 1_555
O8 C68 1_555 1_555
O9 C63 1_555 1_555
O10 C64 1_555 1_555
O11 C1 1_555 1_555
O12 C5 1_555 1_555
O13 C9 1_555 1_555
O14 C13 1_555 1_555
N1 C18 1_555 1_555
N2 C33 1_555 1_555
N3 C35 1_555 1_555
N4 C24 1_555 1_555
N5 C61 1_555 1_555
N6 C63 1_555 1_555
C1 C2 1_555 1_555
C2 C3 1_555 1_555
C3 H1 1_555 1_555
H2 C3 1_555 1_555
C4 C3 1_555 1_555
C5 C4 1_555 1_555
C6 C5 1_555 1_555
C7 C6 1_555 1_555
H3 C7 1_555 1_555
H4 C7 1_555 1_555
C8 C7 1_555 1_555
C9 C8 1_555 1_555
C10 C9 1_555 1_555
C11 C10 1_555 1_555
H5 C11 1_555 1_555
H6 C11 1_555 1_555
C12 C11 1_555 1_555
C13 C12 1_555 1_555
C14 C13 1_555 1_555
C15 C14 1_555 1_555
H7 C15 1_555 1_555
H8 C15 1_555 1_555
C16 C1 1_555 1_555
C17 C2 1_555 1_555
H9 C17 1_555 1_555
C18 C17 1_555 1_555
C19 C16 1_555 1_555
H10 C19 1_555 1_555
C20 C4 1_555 1_555
H11 C20 1_555 1_555
C21 C20 1_555 1_555
H12 C21 1_555 1_555
C22 C6 1_555 1_555
H13 C22 1_555 1_555
C23 C8 1_555 1_555
H14 C23 1_555 1_555
C24 C23 1_555 1_555
C25 C10 1_555 1_555
H15 C25 1_555 1_555
C26 C12 1_555 1_555
H16 C26 1_555 1_555
C27 C26 1_555 1_555
H17 C27 1_555 1_555
C28 C14 1_555 1_555
H18 C28 1_555 1_555
C29 N1 1_555 1_555
C30 C29 1_555 1_555
H19 C30 1_555 1_555
H20 C30 1_555 1_555
C31 C30 1_555 1_555
H21 C31 1_555 1_555
C32 C31 1_555 1_555
H22 C32 1_555 1_555
H23 C32 1_555 1_555
C33 C32 1_555 1_555
H24 C33 1_555 1_555
C34 O2 1_555 1_555
H25 C34 1_555 1_555
C35 N2 1_555 1_555
C36 N3 1_555 1_555
C37 C36 1_555 1_555
C38 N2 1_555 1_555
H26 C38 1_555 1_555
C39 C37 1_555 1_555
H27 C39 1_555 1_555
H28 C39 1_555 1_555
H29 C39 1_555 1_555
C40 C34 1_555 1_555
H30 C40 1_555 1_555
H31 C40 1_555 1_555
C41 Si1 1_555 1_555
C42 C41 1_555 1_555
H32 C42 1_555 1_555
C43 C42 1_555 1_555
H33 C43 1_555 1_555
C44 C43 1_555 1_555
H34 C44 1_555 1_555
C45 C44 1_555 1_555
H35 C45 1_555 1_555
C46 C41 1_555 1_555
H36 C46 1_555 1_555
C47 Si1 1_555 1_555
C48 C47 1_555 1_555
H37 C48 1_555 1_555
C49 C48 1_555 1_555
H38 C49 1_555 1_555
C50 C49 1_555 1_555
H39 C50 1_555 1_555
C51 C50 1_555 1_555
H40 C51 1_555 1_555
C52 C47 1_555 1_555
H41 C52 1_555 1_555
C53 Si1 1_555 1_555
C54 C53 1_555 1_555
H42 C54 1_555 1_555
H43 C54 1_555 1_555
H44 C54 1_555 1_555
C55 C53 1_555 1_555
H45 C55 1_555 1_555
H46 C55 1_555 1_555
H47 C55 1_555 1_555
C56 C53 1_555 1_555
H48 C56 1_555 1_555
H49 C56 1_555 1_555
H50 C56 1_555 1_555
C57 N4 1_555 1_555
C58 C57 1_555 1_555
H51 C58 1_555 1_555
H52 C58 1_555 1_555
C59 C58 1_555 1_555
H53 C59 1_555 1_555
C60 C59 1_555 1_555
H54 C60 1_555 1_555
H55 C60 1_555 1_555
C61 C60 1_555 1_555
H56 C61 1_555 1_555
C62 O7 1_555 1_555
H57 C62 1_555 1_555
C63 N5 1_555 1_555
C64 N6 1_555 1_555
C65 C64 1_555 1_555
C66 N5 1_555 1_555
H58 C66 1_555 1_555
C67 C65 1_555 1_555
H59 C67 1_555 1_555
H60 C67 1_555 1_555
H61 C67 1_555 1_555
C68 C62 1_555 1_555
H62 C68 1_555 1_555
H63 C68 1_555 1_555
C69 Si2 1_555 1_555
C70 C69 1_555 1_555
H64 C70 1_555 1_555
C71 C70 1_555 1_555
H65 C71 1_555 1_555
C72 C71 1_555 1_555
H66 C72 1_555 1_555
C73 C72 1_555 1_555
H67 C73 1_555 1_555
C74 C69 1_555 1_555
H68 C74 1_555 1_555
C75 Si2 1_555 1_555
C76 C75 1_555 1_555
H69 C76 1_555 1_555
C77 C76 1_555 1_555
H70 C77 1_555 1_555
C78 C77 1_555 1_555
H71 C78 1_555 1_555
C79 C78 1_555 1_555
H72 C79 1_555 1_555
C80 C75 1_555 1_555
H73 C80 1_555 1_555
C81 Si2 1_555 1_555
C82 C81 1_555 1_555
H74 C82 1_555 1_555
H75 C82 1_555 1_555
H76 C82 1_555 1_555
C83 C81 1_555 1_555
H77 C83 1_555 1_555
H78 C83 1_555 1_555
H79 C83 1_555 1_555
C84 C81 1_555 1_555
H80 C84 1_555 1_555
H81 C84 1_555 1_555
H82 C84 1_555 1_555
C85 O11 1_555 1_555
H83 C85 1_555 1_555
H84 C85 1_555 1_555
C86 C85 1_555 1_555
H85 C86 1_555 1_555
H86 C86 1_555 1_555
C87 C86 1_555 1_555
H87 C87 1_555 1_555
H88 C87 1_555 1_555
H89 C87 1_555 1_555
C88 O12 1_555 1_555
C89 C88 1_555 1_555
C91 C89 1_555 1_555
C92 O13 1_555 1_555
H90 C92 1_555 1_555
H91 C92 1_555 1_555
C93 C92 1_555 1_555
H92 C93 1_555 1_555
H93 C93 1_555 1_555
C94 C93 1_555 1_555
H94 C94 1_555 1_555
H95 C94 1_555 1_555
H96 C94 1_555 1_555
C95 O14 1_555 1_555
C96 C95 1_555 1_555
C98 C96 1_555 1_555
C15 C16 1_555 1_555
C18 C19 1_555 1_555
C21 C22 1_555 1_555
C24 C25 1_555 1_555
C27 C28 1_555 1_555
C31 C34 1_555 1_555
C37 C38 1_555 1_555
C45 C46 1_555 1_555
C51 C52 1_555 1_555
C59 C62 1_555 1_555
C65 C66 1_555 1_555
C73 C74 1_555 1_555
C79 C80 1_555 1_555

#END
