
#######################################################################
#
#                 Cambridge Crystallographic Data Centre
#                                CCDC 
#
#######################################################################
#
# If this CIF has been generated from an entry in the Cambridge 
# Structural Database, then it will include bibliographic, chemical, 
# crystal, experimental, refinement or atomic coordinate data resulting 
# from the CCDC's data processing and validation procedures.
#
#######################################################################

data_XUBPOA
_chemical_formula_moiety         'C24 H30 O7'
_chemical_name_systematic        
'Di-isopropyl 3-[(E)-2-(3,4-dimethoxyphenyl)ethenyl]-5-oxocyclohex-3-ene-1,1-dicarboxylate'
_symmetry_cell_setting           monoclinic
_symmetry_space_group_name_H-M   'P 21/n'
_symmetry_Int_Tables_number      14
_space_group_name_Hall           '-P 2yn'
loop_
_symmetry_equiv_pos_site_id
_symmetry_equiv_pos_as_xyz
1 x,y,z
2 1/2-x,1/2+y,1/2-z
3 -x,-y,-z
4 1/2+x,1/2-y,1/2+z
_cell_length_a                   8.9228(6)
_cell_length_b                   13.3886(7)
_cell_length_c                   20.2009(11)
_cell_angle_alpha                90
_cell_angle_beta                 104.2488(14)
_cell_angle_gamma                90
_cell_volume                     2339.03
_exptl_crystal_colour            yellow
_exptl_crystal_description       platelet
_cell_formula_units_Z            4
_exptl_crystal_recrystallization_method 'ethyl acetate/petroleum ether'
loop_
_atom_site_label
_atom_site_type_symbol
_atom_site_fract_x
_atom_site_fract_y
_atom_site_fract_z
O1 O -0.0208(2) 0.25454(16) 0.26220(12)
O2 O 1.1752(2) 0.54715(16) 0.43247(12)
O3 O 1.0310(2) 0.70068(13) 0.37276(12)
O4 O 0.1738(3) 0.4751(2) 0.10365(13)
O5 O -0.0202(2) 0.37309(14) 0.10638(11)
O6 O -0.0166(2) 0.67279(16) 0.18181(13)
O7 O -0.1964(2) 0.56180(14) 0.13391(13)
C1 C 0.0411(2) 0.49558(19) 0.19360(14)
C2 C -0.0489(3) 0.4253(2) 0.22908(14)
C3 C 0.0432(3) 0.3344(2) 0.25655(16)
C4 C 0.2096(3) 0.3458(2) 0.27832(16)
C5 C 0.2829(3) 0.4331(2) 0.27522(14)
C6 C 0.1953(2) 0.5246(2) 0.24290(14)
C7 C 0.4482(3) 0.4387(2) 0.30523(14)
C8 C 0.5383(2) 0.5190(2) 0.31062(13)
C9 C 0.7036(2) 0.5223(2) 0.34373(13)
C10 C 0.7840(3) 0.4414(2) 0.37748(14)
C11 C 0.9407(3) 0.4469(2) 0.40793(16)
C12 C 1.0205(2) 0.5343(2) 0.40526(14)
C13 C 0.9414(3) 0.6176(2) 0.37214(14)
C14 C 0.7853(2) 0.6114(2) 0.34175(13)
C15 C 1.2624(3) 0.4625(2) 0.46223(19)
C16 C 0.9583(3) 0.7883(2) 0.3402(2)
C17 C 0.0745(3) 0.4477(2) 0.12976(16)
C18 C -0.0112(4) 0.3231(2) 0.04279(18)
C19 C 0.0580(4) 0.2226(2) 0.0621(2)
C20 C -0.1745(5) 0.3175(3) -0.0010(2)
C21 C -0.0570(3) 0.5888(2) 0.16937(16)
C22 C -0.3203(3) 0.6375(2) 0.1150(2)
C23 C -0.4640(4) 0.5853(3) 0.1200(2)
C24 C -0.3221(5) 0.6699(3) 0.0460(2)
H1 H 0.2689 0.2901 0.2953
H2 H 0.4966 0.3794 0.3226
H3 H 0.4922 0.5781 0.2917
H4 H 0.7316 0.3819 0.3798
H5 H 0.9923 0.3915 0.4303
H6 H 0.7334 0.6670 0.3197
H7 H 0.0539 0.3618 0.0195
H8 H -0.2992 0.6941 0.1467
H9 H 0.2579 0.5607 0.2179
H10 H 0.1747 0.5671 0.2785
H11 H 1.2164 0.4340 0.4961
H12 H 1.3666 0.4826 0.4832
H13 H 1.2632 0.4138 0.4274
H14 H 0.9225 0.7765 0.2920
H15 H 1.0312 0.8424 0.3480
H16 H 0.8722 0.8052 0.3587
H17 H 0.1621 0.2302 0.0891
H18 H -0.0021 0.1875 0.0880
H19 H 0.0585 0.1854 0.0215
H20 H -0.2119 0.3837 -0.0138
H21 H -0.2395 0.2861 0.0243
H22 H -0.1760 0.2792 -0.0413
H23 H -0.1428 0.4046 0.1965
H24 H -0.0754 0.4606 0.2666
H25 H -0.5474 0.6325 0.1133
H26 H -0.4487 0.5553 0.1643
H27 H -0.4888 0.5345 0.0855
H28 H -0.3863 0.7280 0.0348
H29 H -0.3624 0.6172 0.0144
H30 H -0.2187 0.6857 0.0434
loop_
_geom_bond_atom_site_label_1
_geom_bond_atom_site_label_2
_geom_bond_site_symmetry_1
_geom_bond_site_symmetry_2
O1 C3 1_555 1_555
O2 C12 1_555 1_555
O3 C13 1_555 1_555
O4 C17 1_555 1_555
O5 C17 1_555 1_555
O6 C21 1_555 1_555
O7 C21 1_555 1_555
C1 C2 1_555 1_555
C2 C3 1_555 1_555
C3 C4 1_555 1_555
C4 C5 1_555 1_555
C5 C6 1_555 1_555
C6 C1 1_555 1_555
C7 C5 1_555 1_555
C8 C7 1_555 1_555
C9 C8 1_555 1_555
C10 C9 1_555 1_555
C11 C10 1_555 1_555
C12 C11 1_555 1_555
C13 C12 1_555 1_555
C14 C9 1_555 1_555
C15 O2 1_555 1_555
C16 O3 1_555 1_555
C17 C1 1_555 1_555
C18 O5 1_555 1_555
C19 C18 1_555 1_555
C20 C18 1_555 1_555
C21 C1 1_555 1_555
C22 O7 1_555 1_555
C23 C22 1_555 1_555
C24 C22 1_555 1_555
H1 C4 1_555 1_555
H2 C7 1_555 1_555
H3 C8 1_555 1_555
H4 C10 1_555 1_555
H5 C11 1_555 1_555
H6 C14 1_555 1_555
H7 C18 1_555 1_555
H8 C22 1_555 1_555
H9 C6 1_555 1_555
H10 C6 1_555 1_555
H11 C15 1_555 1_555
H12 C15 1_555 1_555
H13 C15 1_555 1_555
H14 C16 1_555 1_555
H15 C16 1_555 1_555
H16 C16 1_555 1_555
H17 C19 1_555 1_555
H18 C19 1_555 1_555
H19 C19 1_555 1_555
H20 C20 1_555 1_555
H21 C20 1_555 1_555
H22 C20 1_555 1_555
H23 C2 1_555 1_555
H24 C2 1_555 1_555
H25 C23 1_555 1_555
H26 C23 1_555 1_555
H27 C23 1_555 1_555
H28 C24 1_555 1_555
H29 C24 1_555 1_555
H30 C24 1_555 1_555
C13 C14 1_555 1_555

#END
