
#######################################################################
#
#                 Cambridge Crystallographic Data Centre
#                                CCDC 
#
#######################################################################
#
# If this CIF has been generated from an entry in the Cambridge 
# Structural Database, then it will include bibliographic, chemical, 
# crystal, experimental, refinement or atomic coordinate data resulting 
# from the CCDC's data processing and validation procedures.
#
#######################################################################

data_XUBPUH
_chemical_formula_moiety         'C20 H36 N4 O9 P2'
_chemical_name_systematic        
5,5'-Oxybis(3,8-di-isopropyl-1,6-dioxa-4,9-diaza-5\l^5^-phosphaspiro[4.4]nonane-2,7-dione)
_symmetry_cell_setting           orthorhombic
_symmetry_space_group_name_H-M   'P 21 21 21'
_symmetry_Int_Tables_number      19
_space_group_name_Hall           'P 2ac 2ab'
loop_
_symmetry_equiv_pos_site_id
_symmetry_equiv_pos_as_xyz
1 x,y,z
2 1/2-x,-y,1/2+z
3 -x,1/2+y,1/2-z
4 1/2+x,1/2-y,-z
_cell_length_a                   10.749(2)
_cell_length_b                   18.403(4)
_cell_length_c                   18.724(4)
_cell_angle_alpha                90
_cell_angle_beta                 90
_cell_angle_gamma                90
_cell_volume                     3703.87
_cell_formula_units_Z            4
loop_
_atom_site_label
_atom_site_type_symbol
_atom_site_fract_x
_atom_site_fract_y
_atom_site_fract_z
P1 P 0.22953(15) 0.83887(9) 0.89357(9)
P2 P 0.20293(18) 0.98868(10) 0.94398(9)
O1 O 0.5285(7) 0.8074(5) 0.9905(4)
O2 O 0.3857(5) 0.8502(3) 0.9193(3)
O3 O 0.0795(4) 0.8232(3) 0.8642(3)
O4 O -0.0450(6) 0.8337(4) 0.7717(4)
O5 O 0.1858(5) 0.9010(3) 0.9461(3)
O6 O 0.0912(5) 0.9984(3) 0.8780(3)
O7 O -0.0964(7) 1.0432(4) 0.8554(4)
O8 O 0.3200(6) 0.9821(3) 1.0119(3)
O9 O 0.5194(8) 0.9935(5) 1.0267(4)
N1 N 0.2293(5) 0.7599(3) 0.9313(3)
N2 N 0.2690(5) 0.8600(3) 0.8129(3)
N3 N 0.1116(7) 1.0312(4) 1.0011(4)
N4 N 0.3066(6) 1.0248(3) 0.8896(3)
C1 C 0.4275(8) 0.8022(5) 0.9598(4)
C2 C 0.3426(8) 0.7367(4) 0.9694(4)
H1 H 0.3231 0.7314 1.0203
C3 C 0.4109(11) 0.6695(6) 0.9446(6)
H2 H 0.4869 0.6617 0.9725
C4 C 0.4367(11) 0.6685(7) 0.8678(7)
H3 H 0.3599 0.6645 0.8420
H4 H 0.4888 0.6277 0.8567
H5 H 0.4783 0.7126 0.8545
C5 C 0.3035(11) 0.6017(6) 0.9599(8)
H6 H 0.2365 0.6060 0.9263
H7 H 0.2714 0.6061 1.0076
H8 H 0.3428 0.5551 0.9544
C6 C 0.0545(7) 0.8379(4) 0.7970(5)
C7 C 0.1695(8) 0.8658(4) 0.7549(4)
H9 H 0.1575 0.9168 0.7414
C8 C 0.2027(8) 0.8229(5) 0.6924(4)
H10 H 0.2890 0.8332 0.6791
C9 C 0.1830(8) 0.7391(5) 0.6958(5)
H11 H 0.2311 0.7193 0.7344
H12 H 0.2093 0.7176 0.6516
H13 H 0.0965 0.7288 0.7035
C10 C 0.1163(10) 0.8420(6) 0.6295(5)
H14 H 0.0334 0.8257 0.6399
H15 H 0.1457 0.8184 0.5870
H16 H 0.1160 0.8936 0.6224
C11 C 0.4309(9) 0.9991(4) 0.9904(4)
C12 C 0.4284(8) 1.0325(4) 0.9155(4)
H17 H 0.4837 1.0039 0.8849
C13 C 0.4662(13) 1.1040(8) 0.9123(7)
H18 H 0.4144 1.1317 0.9457
C14 C 0.5971(16) 1.1197(11) 0.9297(12)
H19 H 0.6042 1.1309 0.9796
H20 H 0.6252 1.1604 0.9020
H21 H 0.6473 1.0779 0.9189
C15 C 0.4665(13) 1.1423(7) 0.8459(6)
H22 H 0.5143 1.1156 0.8115
H23 H 0.5027 1.1895 0.8526
H24 H 0.3826 1.1475 0.8291
C16 C -0.0127(10) 1.0296(5) 0.8964(5)
C17 C 0.0025(9) 1.0599(5) 0.9684(5)
H25 H -0.0660 1.0386 0.9958
C18 C -0.100(2) 1.1598(10) 1.0280(10)
H26 H -0.1832 1.1664 1.0100
H27 H -0.0712 1.2046 1.0483
H28 H -0.1007 1.1227 1.0641
C19 C -0.0207(12) 1.1387(7) 0.9715(6)
H29 H -0.0812 1.1418 0.9325
C20 C 0.0836(12) 1.1808(6) 0.9367(7)
H30 H 0.0579 1.2303 0.9295
H31 H 0.1035 1.1592 0.8915
H32 H 0.1556 1.1798 0.9670
loop_
_geom_bond_atom_site_label_1
_geom_bond_atom_site_label_2
_geom_bond_site_symmetry_1
_geom_bond_site_symmetry_2
P1 O2 1_555 1_555
P2 O5 1_555 1_555
O1 C1 1_555 1_555
O2 C1 1_555 1_555
O3 P1 1_555 1_555
O4 C6 1_555 1_555
O5 P1 1_555 1_555
O6 P2 1_555 1_555
O7 C16 1_555 1_555
O8 P2 1_555 1_555
O9 C11 1_555 1_555
N1 P1 1_555 1_555
N2 P1 1_555 1_555
N3 P2 1_555 1_555
N4 P2 1_555 1_555
C1 C2 1_555 1_555
C2 N1 1_555 1_555
H1 C2 1_555 1_555
C3 C2 1_555 1_555
H2 C3 1_555 1_555
C4 C3 1_555 1_555
H3 C4 1_555 1_555
H4 C4 1_555 1_555
H5 C4 1_555 1_555
C5 C3 1_555 1_555
H6 C5 1_555 1_555
H7 C5 1_555 1_555
H8 C5 1_555 1_555
C6 O3 1_555 1_555
C7 N2 1_555 1_555
H9 C7 1_555 1_555
C8 C7 1_555 1_555
H10 C8 1_555 1_555
C9 C8 1_555 1_555
H11 C9 1_555 1_555
H12 C9 1_555 1_555
H13 C9 1_555 1_555
C10 C8 1_555 1_555
H14 C10 1_555 1_555
H15 C10 1_555 1_555
H16 C10 1_555 1_555
C11 O8 1_555 1_555
C12 N4 1_555 1_555
H17 C12 1_555 1_555
C13 C12 1_555 1_555
H18 C13 1_555 1_555
C14 C13 1_555 1_555
H19 C14 1_555 1_555
H20 C14 1_555 1_555
H21 C14 1_555 1_555
C15 C13 1_555 1_555
H22 C15 1_555 1_555
H23 C15 1_555 1_555
H24 C15 1_555 1_555
C16 O6 1_555 1_555
C17 N3 1_555 1_555
H25 C17 1_555 1_555
C18 H26 1_555 1_555
H27 C18 1_555 1_555
H28 C18 1_555 1_555
C19 C17 1_555 1_555
H29 C19 1_555 1_555
C20 C19 1_555 1_555
H30 C20 1_555 1_555
H31 C20 1_555 1_555
H32 C20 1_555 1_555
C6 C7 1_555 1_555
C11 C12 1_555 1_555
C16 C17 1_555 1_555
C18 C19 1_555 1_555

#END
