
#######################################################################
#
#                 Cambridge Crystallographic Data Centre
#                                CCDC 
#
#######################################################################
#
# If this CIF has been generated from an entry in the Cambridge 
# Structural Database, then it will include bibliographic, chemical, 
# crystal, experimental, refinement or atomic coordinate data resulting 
# from the CCDC's data processing and validation procedures.
#
#######################################################################

data_XUBSEU
_chemical_formula_moiety         'C26 H24 Br1 N3 O2'
_chemical_name_systematic        
2-Benzoyl-3-(4-bromophenyl)-N-n-butyl-3,4-dihydroquinazoline-4-carboxamide
_symmetry_cell_setting           monoclinic
_symmetry_space_group_name_H-M   'C 2/c'
_symmetry_Int_Tables_number      15
_space_group_name_Hall           '-C 2yn'
loop_
_symmetry_equiv_pos_site_id
_symmetry_equiv_pos_as_xyz
1 x,y,z
2 -x,y,1/2-z
3 1/2+x,1/2+y,z
4 1/2-x,1/2+y,1/2-z
5 -x,-y,-z
6 x,-y,1/2+z
7 1/2-x,1/2-y,-z
8 1/2+x,1/2-y,1/2+z
_cell_length_a                   34.1542(8)
_cell_length_b                   8.7528(2)
_cell_length_c                   18.2114(5)
_cell_angle_alpha                90
_cell_angle_beta                 121.171(1)
_cell_angle_gamma                90
_cell_volume                     4658.21
_exptl_crystal_colour            yellow
_exptl_crystal_description       block
_cell_formula_units_Z            8
loop_
_atom_site_label
_atom_site_type_symbol
_atom_site_fract_x
_atom_site_fract_y
_atom_site_fract_z
Br1 Br 1.045909(12) 0.19522(4) 1.00591(2)
C1 C 0.91048(9) 0.6775(3) 0.56074(17)
C2 C 0.93066(10) 0.7849(3) 0.5348(2)
H1 H 0.9540 0.8469 0.5752
C3 C 0.91595(12) 0.7999(3) 0.4486(2)
H2 H 0.9297 0.8714 0.4313
C4 C 0.88102(13) 0.7092(3) 0.3883(2)
H3 H 0.8711 0.7206 0.3304
C5 C 0.86094(11) 0.6027(3) 0.41319(18)
H4 H 0.8376 0.5414 0.3723
C6 C 0.87539(9) 0.5858(3) 0.49955(16)
C7 C 0.87414(8) 0.4383(3) 0.60228(16)
C8 C 0.92609(8) 0.6568(3) 0.65387(16)
H5 H 0.9596 0.6626 0.6861
C9 C 0.84631(8) 0.3404(3) 0.62720(17)
C10 C 0.82481(8) 0.1984(3) 0.57919(17)
C11 C 0.78660(9) 0.1425(3) 0.57898(19)
H6 H 0.7750 0.1946 0.6081
C12 C 0.76613(10) 0.0100(4) 0.5357(2)
H7 H 0.7402 -0.0264 0.5344
C13 C 0.78379(12) -0.0683(4) 0.4945(2)
H8 H 0.7698 -0.1582 0.4655
C14 C 0.82191(11) -0.0157(3) 0.49536(19)
H9 H 0.8341 -0.0708 0.4681
C15 C 0.84207(9) 0.1195(3) 0.53693(18)
H10 H 0.8674 0.1571 0.5363
C16 C 0.94295(7) 0.4294(3) 0.74705(15)
C17 C 0.94787(8) 0.2719(3) 0.75104(17)
H11 H 0.9310 0.2134 0.7017
C18 C 0.97763(9) 0.2020(3) 0.82780(18)
H12 H 0.9806 0.0962 0.8307
C19 C 1.00309(8) 0.2895(3) 0.90034(17)
C20 C 0.99873(8) 0.4445(3) 0.89801(16)
H13 H 1.0160 0.5022 0.9475
C21 C 0.96851(8) 0.5142(3) 0.82181(16)
H14 H 0.9651 0.6197 0.8201
C22 C 0.90896(10) 0.7843(3) 0.68791(16)
C23 C 0.86139(12) 0.8552(4) 0.7443(2)
H15 H 0.8498 0.9454 0.7082
H16 H 0.8864 0.8860 0.8003
C24 C 0.82324(19) 0.7809(5) 0.7527(3)
H17 H 0.7998 0.7438 0.6967
H18 H 0.8358 0.6932 0.7905
C25 C 0.8028(2) 0.8768(7) 0.7842(4)
H19 H 0.7914 0.9673 0.7485
H20 H 0.8256 0.9090 0.8418
C26 C 0.76385(19) 0.8001(8) 0.7862(4)
H21 H 0.7533 0.7146 0.7477
H22 H 0.7393 0.8717 0.7688
H23 H 0.7742 0.7653 0.8434
N1 N 0.85404(7) 0.4743(2) 0.52280(14)
N2 N 0.91389(6) 0.5027(2) 0.66739(12)
N3 N 0.87747(8) 0.7456(3) 0.70653(14)
O1 O 0.84006(6) 0.3915(2) 0.68248(13)
O2 O 0.92556(7) 0.9121(2) 0.69710(13)
loop_
_geom_bond_atom_site_label_1
_geom_bond_atom_site_label_2
_geom_bond_site_symmetry_1
_geom_bond_site_symmetry_2
Br1 C19 1_555 1_555
C1 C2 1_555 1_555
C2 H1 1_555 1_555
C3 C2 1_555 1_555
H2 C3 1_555 1_555
C4 C3 1_555 1_555
H3 C4 1_555 1_555
C5 C4 1_555 1_555
H4 C5 1_555 1_555
C6 C1 1_555 1_555
C7 C9 1_555 1_555
C8 C1 1_555 1_555
H5 C8 1_555 1_555
C9 C10 1_555 1_555
C10 C11 1_555 1_555
C11 H6 1_555 1_555
C12 C11 1_555 1_555
H7 C12 1_555 1_555
C13 C12 1_555 1_555
H8 C13 1_555 1_555
C14 C13 1_555 1_555
H9 C14 1_555 1_555
C15 C10 1_555 1_555
H10 C15 1_555 1_555
C16 C17 1_555 1_555
C17 H11 1_555 1_555
C18 C17 1_555 1_555
H12 C18 1_555 1_555
C19 C18 1_555 1_555
C20 C19 1_555 1_555
H13 C20 1_555 1_555
C21 C16 1_555 1_555
H14 C21 1_555 1_555
C22 C8 1_555 1_555
C23 H15 1_555 1_555
H16 C23 1_555 1_555
C24 C23 1_555 1_555
H17 C24 1_555 1_555
H18 C24 1_555 1_555
C25 C24 1_555 1_555
H19 C25 1_555 1_555
H20 C25 1_555 1_555
C26 C25 1_555 1_555
H21 C26 1_555 1_555
H22 C26 1_555 1_555
H23 C26 1_555 1_555
N1 C6 1_555 1_555
N2 C7 1_555 1_555
N3 C22 1_555 1_555
O1 C9 1_555 1_555
O2 C22 1_555 1_555
C5 C6 1_555 1_555
C7 N1 1_555 1_555
C8 N2 1_555 1_555
C14 C15 1_555 1_555
C16 N2 1_555 1_555
C20 C21 1_555 1_555
C23 N3 1_555 1_555

#END
