
#######################################################################
#
#                 Cambridge Crystallographic Data Centre
#                                CCDC 
#
#######################################################################
#
# If this CIF has been generated from an entry in the Cambridge 
# Structural Database, then it will include bibliographic, chemical, 
# crystal, experimental, refinement or atomic coordinate data resulting 
# from the CCDC's data processing and validation procedures.
#
#######################################################################

data_XUBSUJ
_chemical_formula_moiety         'C7 H6 O3,C3 H4 N2'
_chemical_name_systematic        '4-Hydroxybenzoic acid 1H-imidazole solvate'
_symmetry_cell_setting           monoclinic
_symmetry_space_group_name_H-M   'P 21/n'
_symmetry_Int_Tables_number      14
_space_group_name_Hall           '-P 2yn'
loop_
_symmetry_equiv_pos_site_id
_symmetry_equiv_pos_as_xyz
1 x,y,z
2 1/2-x,1/2+y,1/2-z
3 -x,-y,-z
4 1/2+x,1/2-y,1/2+z
_cell_length_a                   9.601(2)
_cell_length_b                   10.530(2)
_cell_length_c                   10.586(2)
_cell_angle_alpha                90
_cell_angle_beta                 113.759(3)
_cell_angle_gamma                90
_cell_volume                     979.525
_exptl_crystal_colour            colorless
_exptl_crystal_description       block
_cell_formula_units_Z            4
loop_
_atom_site_label
_atom_site_type_symbol
_atom_site_fract_x
_atom_site_fract_y
_atom_site_fract_z
O1 O -0.0067(2) 0.60204(17) 0.30887(18)
O2 O 0.1226(2) 0.62774(19) 0.53341(19)
H1 H 0.1995 0.5993 0.5951
C1 C 0.2147(3) 0.4753(2) 0.4208(2)
C2 C 0.1036(3) 0.5752(2) 0.4219(3)
O3 O 0.5211(3) 0.1947(2) 0.4273(2)
H2 H 0.5014 0.1663 0.3499
C3 C 0.2031(3) 0.4185(3) 0.2978(3)
H3 H 0.1256 0.4433 0.2149
C4 C 0.4199(3) 0.2872(3) 0.4201(3)
C5 C 0.3317(3) 0.4363(3) 0.5424(3)
H4 H 0.3420 0.4738 0.6253
C6 C 0.3048(3) 0.3260(3) 0.2973(3)
H5 H 0.2960 0.2896 0.2143
C7 C 0.4330(4) 0.3435(3) 0.5433(3)
H6 H 0.5102 0.3183 0.6262
N1 N -0.0869(3) 0.8121(2) 0.4675(2)
H7 H -0.0212 0.7516 0.4899
C8 C -0.2648(3) 0.9398(2) 0.3478(3)
H8 H -0.3401 0.9793 0.2727
C9 C -0.1811(3) 0.8415(3) 0.3413(3)
H9 H -0.1880 0.8005 0.2611
N2 N -0.2226(4) 0.9731(3) 0.4821(3)
C10 C -0.1105(4) 0.8937(3) 0.5572(3)
H10 H -0.0586 0.8941 0.6528
loop_
_geom_bond_atom_site_label_1
_geom_bond_atom_site_label_2
_geom_bond_site_symmetry_1
_geom_bond_site_symmetry_2
O1 C2 1_555 1_555
O2 H1 1_555 1_555
C1 C2 1_555 1_555
C2 O2 1_555 1_555
O3 H2 1_555 1_555
C3 C1 1_555 1_555
H3 C3 1_555 1_555
C4 O3 1_555 1_555
C5 C1 1_555 1_555
H4 C5 1_555 1_555
C6 C3 1_555 1_555
H5 C6 1_555 1_555
C7 C4 1_555 1_555
H6 C7 1_555 1_555
N1 H7 1_555 1_555
C8 H8 1_555 1_555
C9 N1 1_555 1_555
H9 C9 1_555 1_555
N2 C8 1_555 1_555
C10 N1 1_555 1_555
H10 C10 1_555 1_555
C4 C6 1_555 1_555
C5 C7 1_555 1_555
C8 C9 1_555 1_555
N2 C10 1_555 1_555

#END
