
#######################################################################
#
#                 Cambridge Crystallographic Data Centre
#                                CCDC 
#
#######################################################################
#
# If this CIF has been generated from an entry in the Cambridge 
# Structural Database, then it will include bibliographic, chemical, 
# crystal, experimental, refinement or atomic coordinate data resulting 
# from the CCDC's data processing and validation procedures.
#
#######################################################################

data_XUBVEW
_chemical_formula_moiety         'C10 H8 N2 S2,C4 H6 O4'
_chemical_name_systematic        'Di-2-pyridyl disulfide succinic acid solvate'
_symmetry_cell_setting           monoclinic
_symmetry_space_group_name_H-M   'C 2/c'
_symmetry_Int_Tables_number      15
_space_group_name_Hall           '-C 2yn'
loop_
_symmetry_equiv_pos_site_id
_symmetry_equiv_pos_as_xyz
1 x,y,z
2 -x,y,1/2-z
3 1/2+x,1/2+y,z
4 1/2-x,1/2+y,1/2-z
5 -x,-y,-z
6 x,-y,1/2+z
7 1/2-x,1/2-y,-z
8 1/2+x,1/2-y,1/2+z
_cell_length_a                   8.4211(17)
_cell_length_b                   13.347(3)
_cell_length_c                   14.141(3)
_cell_angle_alpha                90
_cell_angle_beta                 98.43(3)
_cell_angle_gamma                90
_cell_volume                     1572.23
_exptl_crystal_colour            colorless
_exptl_crystal_description       block
_cell_formula_units_Z            4
loop_
_atom_site_label
_atom_site_type_symbol
_atom_site_fract_x
_atom_site_fract_y
_atom_site_fract_z
N1 N -0.1474(3) 0.58448(17) 0.44834(16)
C1 C -0.1175(3) 0.56306(19) 0.36047(19)
C2 C -0.1815(4) 0.4813(2) 0.3079(2)
H1 H -0.1580 0.4692 0.2466
C3 C -0.2816(4) 0.4183(2) 0.3497(3)
H2 H -0.3273 0.3627 0.3165
C4 C -0.3132(4) 0.4382(2) 0.4408(3)
H3 H -0.3792 0.3961 0.4702
C5 C -0.2449(4) 0.5218(2) 0.4873(2)
H4 H -0.2673 0.5356 0.5484
S1 S 0.02142(10) 0.65005(6) 0.32235(6)
N1A N 0.1474(3) 0.58448(17) 0.05166(16)
C1A C 0.1175(3) 0.56306(19) 0.13953(19)
C2A C 0.1815(4) 0.4813(2) 0.1921(2)
H1A H 0.1580 0.4692 0.2534
C3A C 0.2816(4) 0.4183(2) 0.1503(3)
H2A H 0.3273 0.3627 0.1835
C4A C 0.3132(4) 0.4382(2) 0.0592(3)
H3A H 0.3792 0.3961 0.0298
C5A C 0.2449(4) 0.5218(2) 0.0127(2)
H4A H 0.2673 0.5356 -0.0484
S1A S -0.02142(10) 0.65005(6) 0.17765(6)
C6 C -0.0647(3) 0.7501(2) 0.63801(19)
C7 C 0.0187(4) 0.8324(2) 0.69918(19)
H5 H -0.0128 0.8965 0.6699
H6 H 0.1337 0.8254 0.7008
O1 O -0.1622(3) 0.69379(16) 0.66296(15)
O2 O -0.0193(3) 0.74777(17) 0.55229(15)
H7 H -0.065(5) 0.701(3) 0.521(3)
C6A C 0.0647(3) 0.7501(2) 0.86199(19)
C7A C -0.0187(4) 0.8324(2) 0.80082(19)
H5A H 0.0128 0.8965 0.8301
H6A H -0.1337 0.8254 0.7992
O1A O 0.1622(3) 0.69379(16) 0.83704(15)
O2A O 0.0193(3) 0.74777(17) 0.94771(15)
H7A H 0.065(5) 0.701(3) 0.979(3)
loop_
_geom_bond_atom_site_label_1
_geom_bond_atom_site_label_2
_geom_bond_site_symmetry_1
_geom_bond_site_symmetry_2
N1 C1 1_555 1_555
C1 C2 1_555 1_555
C2 H1 1_555 1_555
C3 C2 1_555 1_555
H2 C3 1_555 1_555
C4 C3 1_555 1_555
H3 C4 1_555 1_555
C5 N1 1_555 1_555
H4 C5 1_555 1_555
S1 C1 1_555 1_555
C6 C7 1_555 1_555
C7 H5 1_555 1_555
H6 C7 1_555 1_555
O1 C6 1_555 1_555
O2 C6 1_555 1_555
H7 O2 1_555 1_555
N1A C1A 1_555 1_555
C1A C2A 1_555 1_555
C2A H1A 1_555 1_555
C3A C2A 1_555 1_555
H2A C3A 1_555 1_555
C4A C3A 1_555 1_555
H3A C4A 1_555 1_555
C5A N1A 1_555 1_555
H4A C5A 1_555 1_555
S1A S1 1_555 1_555
C6A C7A 1_555 1_555
C7A C7 1_555 1_555
H5A C7A 1_555 1_555
H6A C7A 1_555 1_555
O1A C6A 1_555 1_555
O2A C6A 1_555 1_555
H7A O2A 1_555 1_555
C4 C5 1_555 1_555
C1A S1A 1_555 1_555
C4A C5A 1_555 1_555

#END
