
#######################################################################
#
#                 Cambridge Crystallographic Data Centre
#                                CCDC 
#
#######################################################################
#
# If this CIF has been generated from an entry in the Cambridge 
# Structural Database, then it will include bibliographic, chemical, 
# crystal, experimental, refinement or atomic coordinate data resulting 
# from the CCDC's data processing and validation procedures.
#
#######################################################################

data_XUBXOJ
_chemical_formula_moiety         'C27 H19 N1 O2'
_chemical_name_systematic        
2-(4-Anilinophenyl)-2-phenyl-1H-indene-1,3(2H)-dione
_symmetry_cell_setting           monoclinic
_symmetry_space_group_name_H-M   'P 21/n'
_symmetry_Int_Tables_number      14
_space_group_name_Hall           '-P 2yn'
loop_
_symmetry_equiv_pos_site_id
_symmetry_equiv_pos_as_xyz
1 x,y,z
2 1/2-x,1/2+y,1/2-z
3 -x,-y,-z
4 1/2+x,1/2-y,1/2+z
_cell_length_a                   9.837(4)
_cell_length_b                   13.221(3)
_cell_length_c                   16.325(6)
_cell_angle_alpha                90
_cell_angle_beta                 107.914(15)
_cell_angle_gamma                90
_cell_volume                     2020.22
_exptl_crystal_colour            yellow
_exptl_crystal_description       block
_cell_formula_units_Z            4
_exptl_crystal_recrystallization_method acetonitrile
loop_
_atom_site_label
_atom_site_type_symbol
_atom_site_fract_x
_atom_site_fract_y
_atom_site_fract_z
O1 O 0.31776(8) 0.19032(6) 0.87557(5)
O2 O 0.73636(8) 0.30320(6) 0.82123(5)
N1 N 0.68789(12) -0.18815(7) 0.84263(7)
C1 C 0.56683(11) 0.22847(8) 0.88691(6)
C2 C 0.40274(11) 0.24253(8) 0.85507(7)
C3 C 0.36892(12) 0.32733(8) 0.79279(7)
C4 C 0.49248(12) 0.36035(8) 0.77643(7)
C5 C 0.61590(11) 0.29931(8) 0.82603(6)
C6 C 0.23695(13) 0.37118(9) 0.75154(8)
C7 C 0.23347(13) 0.44960(9) 0.69468(8)
C8 C 0.35725(14) 0.48261(9) 0.67809(8)
C9 C 0.48865(13) 0.43798(9) 0.71824(7)
C10 C 0.63289(11) 0.27271(8) 0.97713(6)
C11 C 0.55501(13) 0.32928(9) 1.01871(8)
C12 C 0.62372(14) 0.37427(10) 1.09772(8)
C13 C 0.76949(14) 0.36344(9) 1.13513(7)
C14 C 0.84770(13) 0.30713(9) 1.09378(7)
C15 C 0.77992(12) 0.26193(8) 1.01536(7)
C16 C 0.60505(11) 0.11880(8) 0.87780(6)
C17 C 0.62006(11) 0.04971(8) 0.94444(7)
C18 C 0.64717(12) -0.05197(8) 0.93501(7)
C19 C 0.66192(11) -0.08766(8) 0.85734(7)
C20 C 0.64251(12) -0.01893(8) 0.78936(7)
C21 C 0.61486(11) 0.08186(8) 0.79971(7)
C22 C 0.75111(12) -0.26299(8) 0.90344(8)
C23 C 0.84130(13) -0.24150(9) 0.98542(8)
C24 C 0.89955(15) -0.31971(11) 1.04241(9)
C25 C 0.87057(16) -0.41927(11) 1.01805(11)
C26 C 0.78464(16) -0.44117(10) 0.93580(11)
C27 C 0.72479(14) -0.36414(9) 0.87856(10)
H1 H 0.1509(17) 0.3468(11) 0.7627(10)
H2 H 0.1422(18) 0.4827(12) 0.6649(10)
H3 H 0.3521(17) 0.5384(12) 0.6382(10)
H4 H 0.5778(17) 0.4588(12) 0.7070(10)
H5 H 0.4520(18) 0.3380(12) 0.9929(10)
H6 H 0.5680(18) 0.4159(13) 1.1257(11)
H7 H 0.8176(16) 0.3970(11) 1.1893(10)
H8 H 0.9498(18) 0.2988(11) 1.1192(10)
H9 H 0.8357(16) 0.2226(12) 0.9867(10)
H10 H 0.6101(14) 0.0738(10) 0.9982(9)
H11 H 0.6515(15) -0.0977(11) 0.9819(9)
H12 H 0.6503(15) -0.0431(11) 0.7350(10)
H13 H 0.6036(15) 0.1281(11) 0.7510(9)
H14 H 0.6860(18) -0.2034(12) 0.7894(12)
H15 H 0.8656(17) -0.1707(12) 1.0037(10)
H16 H 0.963(2) -0.3025(13) 1.0998(13)
H17 H 0.909(2) -0.4752(14) 1.0579(12)
H18 H 0.763(3) -0.5113(16) 0.9159(13)
H19 H 0.6605(19) -0.3790(13) 0.8201(11)
loop_
_geom_bond_atom_site_label_1
_geom_bond_atom_site_label_2
_geom_bond_site_symmetry_1
_geom_bond_site_symmetry_2
O1 C2 1_555 1_555
O2 C5 1_555 1_555
N1 C19 1_555 1_555
C1 C2 1_555 1_555
C2 C3 1_555 1_555
C3 C4 1_555 1_555
C4 C5 1_555 1_555
C5 C1 1_555 1_555
C6 C3 1_555 1_555
C7 C6 1_555 1_555
C8 C7 1_555 1_555
C9 C4 1_555 1_555
C10 C1 1_555 1_555
C11 C10 1_555 1_555
C12 C11 1_555 1_555
C13 C12 1_555 1_555
C14 C13 1_555 1_555
C15 C10 1_555 1_555
C16 C1 1_555 1_555
C17 C16 1_555 1_555
C18 C17 1_555 1_555
C19 C18 1_555 1_555
C20 C19 1_555 1_555
C21 C16 1_555 1_555
C22 N1 1_555 1_555
C23 C22 1_555 1_555
C24 C23 1_555 1_555
C25 C24 1_555 1_555
C26 C25 1_555 1_555
C27 C22 1_555 1_555
H1 C6 1_555 1_555
H2 C7 1_555 1_555
H3 C8 1_555 1_555
H4 C9 1_555 1_555
H5 C11 1_555 1_555
H6 C12 1_555 1_555
H7 C13 1_555 1_555
H8 C14 1_555 1_555
H9 C15 1_555 1_555
H10 C17 1_555 1_555
H11 C18 1_555 1_555
H12 C20 1_555 1_555
H13 C21 1_555 1_555
H14 N1 1_555 1_555
H15 C23 1_555 1_555
H16 C24 1_555 1_555
H17 C25 1_555 1_555
H18 C26 1_555 1_555
H19 C27 1_555 1_555
C8 C9 1_555 1_555
C14 C15 1_555 1_555
C20 C21 1_555 1_555
C26 C27 1_555 1_555

#END
