
#######################################################################
#
#                 Cambridge Crystallographic Data Centre
#                                CCDC 
#
#######################################################################
#
# If this CIF has been generated from an entry in the Cambridge 
# Structural Database, then it will include bibliographic, chemical, 
# crystal, experimental, refinement or atomic coordinate data resulting 
# from the CCDC's data processing and validation procedures.
#
#######################################################################

data_XUBYID
_chemical_formula_moiety         
'C36 H36 N24 O12,C7 H20 N2 2+,H1 O4 S1 1-,Cl1 1-,8(H2 O1)'
_chemical_name_systematic        
'Cucurbit(6)uril heptane-1,7-diammonium clathrate hydrogen sulfate chloride octahydrate'
_symmetry_cell_setting           monoclinic
_symmetry_space_group_name_H-M   'P 21/c'
_symmetry_Int_Tables_number      14
_space_group_name_Hall           '-P 2ybc'
loop_
_symmetry_equiv_pos_site_id
_symmetry_equiv_pos_as_xyz
1 x,y,z
2 -x,1/2+y,1/2-z
3 -x,-y,-z
4 x,1/2-y,1/2+z
_cell_length_a                   18.667(4)
_cell_length_b                   16.351(3)
_cell_length_c                   18.913(4)
_cell_angle_alpha                90
_cell_angle_beta                 102.78(3)
_cell_angle_gamma                90
_cell_volume                     5629.69
_exptl_crystal_colour            colorless
_exptl_crystal_description       cubic
_cell_formula_units_Z            4
loop_
_atom_site_label
_atom_site_type_symbol
_atom_site_fract_x
_atom_site_fract_y
_atom_site_fract_z
Cl1 Cl 0.36023(3) 0.01543(3) -0.63948(3)
O1 O 0.36219(7) 0.12114(9) -0.04695(7)
O2 O 0.10438(8) 0.24190(9) -0.28397(8)
O3 O 0.26135(8) -0.05340(9) -0.03236(8)
O4 O 0.00441(8) 0.07497(10) -0.26606(7)
O5 O 0.27657(8) -0.23381(9) -0.12334(8)
O6 O 0.02407(8) -0.11690(9) -0.37426(8)
O7 O 0.39402(8) -0.23058(9) -0.24799(8)
O8 O 0.13595(8) -0.12681(10) -0.49932(9)
O9 O 0.49715(7) -0.06984(9) -0.26849(7)
O10 O 0.24441(8) 0.06128(9) -0.50549(8)
O11 O 0.46972(8) 0.11299(9) -0.16157(8)
O12 O 0.22776(8) 0.23383(9) -0.41082(8)
N1 N 0.32174(9) 0.23384(10) -0.11836(9)
N2 N 0.24309(9) 0.16917(10) -0.06593(9)
N3 N 0.21969(9) 0.27684(10) -0.21629(9)
N4 N 0.14012(9) 0.21698(10) -0.16080(9)
N5 N 0.17217(9) 0.04734(10) -0.05805(9)
N6 N 0.14067(9) -0.08113(10) -0.08682(9)
N7 N 0.06643(9) 0.09801(10) -0.14764(9)
N8 N 0.04322(9) -0.02990(11) -0.18422(9)
N9 N 0.15187(9) -0.20570(11) -0.15256(9)
N10 N 0.20178(9) -0.26907(10) -0.23374(9)
N11 N 0.05535(9) -0.15235(10) -0.25259(9)
N12 N 0.10040(9) -0.22520(10) -0.33221(9)
N13 N 0.28171(9) -0.27103(10) -0.31814(9)
N14 N 0.35999(9) -0.20599(10) -0.37159(9)
N15 N 0.17972(9) -0.23020(10) -0.41789(9)
N16 N 0.25809(9) -0.16502(10) -0.47052(9)
N17 N 0.44052(9) -0.09360(10) -0.38808(9)
N18 N 0.45892(9) 0.03495(10) -0.35059(9)
N19 N 0.32997(8) -0.04218(10) -0.47243(9)
N20 N 0.36568(9) 0.08735(10) -0.45197(9)
N21 N 0.44769(9) 0.15657(10) -0.28110(9)
N22 N 0.40364(9) 0.23007(10) -0.20149(9)
N23 N 0.35217(9) 0.20722(10) -0.38029(9)
N24 N 0.30140(9) 0.27123(10) -0.29994(9)
C1 C 0.31360(10) 0.16924(12) -0.07489(10)
C2 C 0.25546(10) 0.28229(11) -0.13988(10)
H1 H 0.2637 0.3404 -0.1236
C3 C 0.20073(10) 0.23817(11) -0.10129(10)
H2 H 0.1845 0.2748 -0.0655
C4 C 0.15024(10) 0.24483(11) -0.22654(10)
C5 C 0.21614(10) 0.11255(12) -0.01893(10)
H3 H 0.2585 0.0885 0.0157
H4 H 0.1863 0.1430 0.0095
C6 C 0.07044(10) 0.18610(12) -0.15139(10)
H5 H 0.0314 0.2055 -0.1923
H6 H 0.0604 0.2094 -0.1063
C7 C 0.19816(10) -0.03116(12) -0.05627(10)
C8 C 0.09250(10) 0.05125(11) -0.08197(10)
H7 H 0.0687 0.0690 -0.0421
C9 C 0.07165(10) -0.03781(12) -0.10633(10)
H8 H 0.0341 -0.0610 -0.0815
C10 C 0.03536(10) 0.05008(12) -0.20546(10)
C11 C 0.14731(11) -0.16889(12) -0.08441(10)
H9 H 0.1044 -0.1921 -0.0687
H10 H 0.1918 -0.1838 -0.0475
C12 C 0.00553(10) -0.09616(12) -0.22756(11)
H11 H -0.0292 -0.0731 -0.2702
H12 H -0.0235 -0.1270 -0.1986
C13 C 0.21698(11) -0.23556(11) -0.16558(11)
C14 C 0.08932(10) -0.22241(12) -0.21082(10)
H13 H 0.0519 -0.2559 -0.1933
C15 C 0.12349(10) -0.27148(12) -0.26570(10)
H14 H 0.1046 -0.3289 -0.2713
C16 C 0.05707(10) -0.15961(12) -0.32484(10)
C17 C 0.25590(11) -0.31446(12) -0.26217(10)
H15 H 0.2983 -0.3269 -0.2219
H16 H 0.2341 -0.3671 -0.2821
C18 C 0.10988(10) -0.25317(12) -0.40246(10)
H17 H 0.1054 -0.3135 -0.4045
H18 H 0.0699 -0.2303 -0.4406
C19 C 0.35014(11) -0.23516(11) -0.30604(11)
C20 C 0.24710(10) -0.27690(11) -0.39461(10)
H19 H 0.2404 -0.3352 -0.4108
C21 C 0.30210(10) -0.23133(11) -0.43189(10)
H20 H 0.3212 -0.2681 -0.4658
C22 C 0.18661(11) -0.16877(12) -0.46529(11)
C23 C 0.43188(10) -0.18079(12) -0.38122(11)
H21 H 0.4695 -0.2005 -0.3393
H22 H 0.4413 -0.2077 -0.4252
C24 C 0.28622(10) -0.10626(12) -0.51505(10)
H23 H 0.2445 -0.0809 -0.5495
H24 H 0.3168 -0.1353 -0.5437
C25 C 0.46829(10) -0.04525(12) -0.32938(10)
C26 C 0.41012(10) -0.04665(12) -0.45270(10)
H25 H 0.4310 -0.0642 -0.4946
C27 C 0.43309(10) 0.04216(12) -0.42876(10)
H26 H 0.4725 0.0629 -0.4523
C28 C 0.30669(10) 0.03751(12) -0.47944(10)
C29 C 0.49718(10) 0.10075(12) -0.30600(10)
H27 H 0.5314 0.0769 -0.2634
H28 H 0.5268 0.1317 -0.3343
C30 C 0.35894(11) 0.17515(12) -0.44977(10)
H29 H 0.3153 0.1920 -0.4869
H30 H 0.4026 0.2000 -0.4628
C31 C 0.44280(10) 0.16093(12) -0.20999(10)
C32 C 0.41482(10) 0.22727(11) -0.32275(10)
H31 H 0.4521 0.2604 -0.3408
C33 C 0.38010(10) 0.27584(11) -0.26830(10)
H32 H 0.3979 0.3337 -0.2631
C34 C 0.28751(10) 0.23699(11) -0.36795(10)
C35 C 0.39212(10) 0.25743(12) -0.13260(10)
H33 H 0.3961 0.3178 -0.1305
H34 H 0.4317 0.2350 -0.0937
C36 C 0.24697(10) 0.31822(12) -0.27309(10)
H35 H 0.2051 0.3301 -0.3140
H36 H 0.2689 0.3711 -0.2541
N25 N 0.00490(11) 0.14406(13) -0.40179(10)
H37 H -0.0448 0.1497 -0.4149
H38 H 0.0268 0.1901 -0.4140
H39 H 0.0187 0.1361 -0.3530
N26 N 0.44406(10) -0.05986(13) -0.14096(10)
H40 H 0.4631 -0.0748 -0.0942
H41 H 0.4636 -0.0110 -0.1501
H42 H 0.4551 -0.0986 -0.1714
C37 C 0.02796(13) 0.07226(14) -0.44025(12)
H43 H 0.0119 0.0807 -0.4932
H44 H 0.0033 0.0225 -0.4276
C38 C 0.11070(11) 0.05926(13) -0.42073(12)
H45 H 0.1229 0.0121 -0.4488
H46 H 0.1349 0.1082 -0.4356
C39 C 0.14189(12) 0.04373(14) -0.34082(12)
H47 H 0.1124 0.0008 -0.3237
H48 H 0.1376 0.0943 -0.3133
C40 C 0.22206(12) 0.01711(14) -0.32508(12)
H49 H 0.2522 0.0619 -0.3384
H50 H 0.2271 -0.0309 -0.3555
C41 C 0.25121(12) -0.00493(14) -0.24547(13)
H51 H 0.2443 0.0421 -0.2147
H52 H 0.2230 -0.0518 -0.2326
C42 C 0.33200(12) -0.02708(13) -0.23090(12)
H53 H 0.3600 0.0204 -0.2429
H54 H 0.3387 -0.0727 -0.2632
C43 C 0.36333(11) -0.05198(13) -0.15256(12)
H55 H 0.3509 -0.0102 -0.1193
H56 H 0.3418 -0.1048 -0.1422
S1 S 0.12710(3) -0.00371(3) 0.11061(3)
O13 O 0.11191(8) -0.04018(9) 0.18222(8)
O14 O 0.10626(10) 0.08186(10) 0.10847(9)
O15 O 0.08015(9) -0.05138(10) 0.05435(9)
O16 O 0.20452(9) -0.01541(12) 0.11346(9)
O17 O 0.37724(8) -0.10101(10) 0.07451(8)
O18 O 0.48353(8) -0.12596(10) 0.00022(8)
O19 O 0.12578(10) 0.08802(16) -0.61266(10)
O20 O 0.40373(9) 0.10868(9) 0.10776(8)
O21 O 0.44010(9) -0.27823(10) -0.06546(9)
O22 O 0.34630(8) -0.00650(10) 0.19114(9)
O23 O -0.07779(9) -0.26997(10) -0.54167(9)
O24 O 0.19275(11) -0.00788(17) 0.30373(11)
O25? O -0.0174(7) -0.3286(8) -0.5161(7)
loop_
_geom_bond_atom_site_label_1
_geom_bond_atom_site_label_2
_geom_bond_site_symmetry_1
_geom_bond_site_symmetry_2
O1 C1 1_555 1_555
O2 C4 1_555 1_555
O3 C7 1_555 1_555
O4 C10 1_555 1_555
O5 C13 1_555 1_555
O6 C16 1_555 1_555
O7 C19 1_555 1_555
O8 C22 1_555 1_555
O9 C25 1_555 1_555
O10 C28 1_555 1_555
O11 C31 1_555 1_555
O12 C34 1_555 1_555
N1 C1 1_555 1_555
N2 C1 1_555 1_555
N3 C2 1_555 1_555
N4 C3 1_555 1_555
N5 C5 1_555 1_555
N6 C7 1_555 1_555
N7 C6 1_555 1_555
N8 C9 1_555 1_555
N9 C11 1_555 1_555
N10 C13 1_555 1_555
N11 C12 1_555 1_555
N12 C15 1_555 1_555
N13 C17 1_555 1_555
N14 C19 1_555 1_555
N15 C18 1_555 1_555
N16 C21 1_555 1_555
N17 C23 1_555 1_555
N18 C25 1_555 1_555
N19 C24 1_555 1_555
N20 C27 1_555 1_555
N21 C29 1_555 1_555
N22 C31 1_555 1_555
N23 C30 1_555 1_555
N24 C33 1_555 1_555
C2 N1 1_555 1_555
H1 C2 1_555 1_555
C3 N2 1_555 1_555
H2 C3 1_555 1_555
C4 N3 1_555 1_555
C5 N2 1_555 1_555
H3 C5 1_555 1_555
H4 C5 1_555 1_555
C6 N4 1_555 1_555
H5 C6 1_555 1_555
H6 C6 1_555 1_555
C7 N5 1_555 1_555
C8 N5 1_555 1_555
H7 C8 1_555 1_555
C9 N6 1_555 1_555
H8 C9 1_555 1_555
C10 N7 1_555 1_555
C11 N6 1_555 1_555
H9 C11 1_555 1_555
H10 C11 1_555 1_555
C12 N8 1_555 1_555
H11 C12 1_555 1_555
H12 C12 1_555 1_555
C13 N9 1_555 1_555
C14 N9 1_555 1_555
H13 C14 1_555 1_555
C15 N10 1_555 1_555
H14 C15 1_555 1_555
C16 N11 1_555 1_555
C17 N10 1_555 1_555
H15 C17 1_555 1_555
H16 C17 1_555 1_555
C18 N12 1_555 1_555
H17 C18 1_555 1_555
H18 C18 1_555 1_555
C19 N13 1_555 1_555
C20 N13 1_555 1_555
H19 C20 1_555 1_555
C21 N14 1_555 1_555
H20 C21 1_555 1_555
C22 N15 1_555 1_555
C23 N14 1_555 1_555
H21 C23 1_555 1_555
H22 C23 1_555 1_555
C24 N16 1_555 1_555
H23 C24 1_555 1_555
H24 C24 1_555 1_555
C25 N17 1_555 1_555
C26 N17 1_555 1_555
H25 C26 1_555 1_555
C27 N18 1_555 1_555
H26 C27 1_555 1_555
C28 N19 1_555 1_555
C29 N18 1_555 1_555
H27 C29 1_555 1_555
H28 C29 1_555 1_555
C30 N20 1_555 1_555
H29 C30 1_555 1_555
H30 C30 1_555 1_555
C31 N21 1_555 1_555
C32 N21 1_555 1_555
H31 C32 1_555 1_555
C33 N22 1_555 1_555
H32 C33 1_555 1_555
C34 N23 1_555 1_555
C35 N1 1_555 1_555
H33 C35 1_555 1_555
H34 C35 1_555 1_555
C36 N3 1_555 1_555
H35 C36 1_555 1_555
H36 C36 1_555 1_555
N25 H37 1_555 1_555
H38 N25 1_555 1_555
H39 N25 1_555 1_555
N26 H40 1_555 1_555
H41 N26 1_555 1_555
H42 N26 1_555 1_555
C37 N25 1_555 1_555
H43 C37 1_555 1_555
H44 C37 1_555 1_555
C38 C37 1_555 1_555
H45 C38 1_555 1_555
H46 C38 1_555 1_555
C39 C38 1_555 1_555
H47 C39 1_555 1_555
H48 C39 1_555 1_555
C40 C39 1_555 1_555
H49 C40 1_555 1_555
H50 C40 1_555 1_555
C41 C40 1_555 1_555
H51 C41 1_555 1_555
H52 C41 1_555 1_555
C42 C41 1_555 1_555
H53 C42 1_555 1_555
H54 C42 1_555 1_555
C43 N26 1_555 1_555
H55 C43 1_555 1_555
H56 C43 1_555 1_555
S1 O13 1_555 1_555
O14 S1 1_555 1_555
O15 S1 1_555 1_555
O16 S1 1_555 1_555
N4 C4 1_555 1_555
N7 C8 1_555 1_555
N8 C10 1_555 1_555
N11 C14 1_555 1_555
N12 C16 1_555 1_555
N15 C20 1_555 1_555
N16 C22 1_555 1_555
N19 C26 1_555 1_555
N20 C28 1_555 1_555
N22 C35 1_555 1_555
N23 C32 1_555 1_555
N24 C34 1_555 1_555
N24 C36 1_555 1_555
C2 C3 1_555 1_555
C8 C9 1_555 1_555
C14 C15 1_555 1_555
C20 C21 1_555 1_555
C26 C27 1_555 1_555
C32 C33 1_555 1_555
C42 C43 1_555 1_555

#END
